# Generated by pormake.
# Topology wkd, (5)-cn, num edge types: 1
# Building blocks:
#     Node 0, Type 0, BuildingBlock: XOMCOT_clean_sbu_1, # of connection points: 5
#     Node 1, Type 0, BuildingBlock: XOMCOT_clean_sbu_1, # of connection points: 5
#     Node 2, Type 0, BuildingBlock: XOMCOT_clean_sbu_1, # of connection points: 5
#     Node 3, Type 0, BuildingBlock: XOMCOT_clean_sbu_1, # of connection points: 5
#     Node 4, Type 0, BuildingBlock: XOMCOT_clean_sbu_1, # of connection points: 5
#     Node 5, Type 0, BuildingBlock: XOMCOT_clean_sbu_1, # of connection points: 5
#     Node 6, Type 0, BuildingBlock: XOMCOT_clean_sbu_1, # of connection points: 5
#     Node 7, Type 0, BuildingBlock: XOMCOT_clean_sbu_1, # of connection points: 5
#     Node 8, Type 0, BuildingBlock: XOMCOT_clean_sbu_1, # of connection points: 5
#     Node 9, Type 0, BuildingBlock: XOMCOT_clean_sbu_1, # of connection points: 5
#     Node 10, Type 0, BuildingBlock: XOMCOT_clean_sbu_1, # of connection points: 5
#     Node 11, Type 0, BuildingBlock: XOMCOT_clean_sbu_1, # of connection points: 5
#     Edge 12, Type (0, 0), BuildingBlock: AJUNOK_clean_linker_0, # of connection points: 2
#     Edge 13, Type (0, 0), BuildingBlock: AJUNOK_clean_linker_0, # of connection points: 2
#     Edge 14, Type (0, 0), BuildingBlock: AJUNOK_clean_linker_0, # of connection points: 2
#     Edge 15, Type (0, 0), BuildingBlock: AJUNOK_clean_linker_0, # of connection points: 2
#     Edge 16, Type (0, 0), BuildingBlock: AJUNOK_clean_linker_0, # of connection points: 2
#     Edge 17, Type (0, 0), BuildingBlock: AJUNOK_clean_linker_0, # of connection points: 2
#     Edge 18, Type (0, 0), BuildingBlock: AJUNOK_clean_linker_0, # of connection points: 2
#     Edge 19, Type (0, 0), BuildingBlock: AJUNOK_clean_linker_0, # of connection points: 2
#     Edge 20, Type (0, 0), BuildingBlock: AJUNOK_clean_linker_0, # of connection points: 2
#     Edge 21, Type (0, 0), BuildingBlock: AJUNOK_clean_linker_0, # of connection points: 2
#     Edge 22, Type (0, 0), BuildingBlock: AJUNOK_clean_linker_0, # of connection points: 2
#     Edge 23, Type (0, 0), BuildingBlock: AJUNOK_clean_linker_0, # of connection points: 2
#     Edge 24, Type (0, 0), BuildingBlock: AJUNOK_clean_linker_0, # of connection points: 2
#     Edge 25, Type (0, 0), BuildingBlock: AJUNOK_clean_linker_0, # of connection points: 2
#     Edge 26, Type (0, 0), BuildingBlock: AJUNOK_clean_linker_0, # of connection points: 2
#     Edge 27, Type (0, 0), BuildingBlock: AJUNOK_clean_linker_0, # of connection points: 2
#     Edge 28, Type (0, 0), BuildingBlock: AJUNOK_clean_linker_0, # of connection points: 2
#     Edge 29, Type (0, 0), BuildingBlock: AJUNOK_clean_linker_0, # of connection points: 2
#     Edge 30, Type (0, 0), BuildingBlock: AJUNOK_clean_linker_0, # of connection points: 2
#     Edge 31, Type (0, 0), BuildingBlock: AJUNOK_clean_linker_0, # of connection points: 2
#     Edge 32, Type (0, 0), BuildingBlock: AJUNOK_clean_linker_0, # of connection points: 2
#     Edge 33, Type (0, 0), BuildingBlock: AJUNOK_clean_linker_0, # of connection points: 2
#     Edge 34, Type (0, 0), BuildingBlock: AJUNOK_clean_linker_0, # of connection points: 2
#     Edge 35, Type (0, 0), BuildingBlock: AJUNOK_clean_linker_0, # of connection points: 2
#     Edge 36, Type (0, 0), BuildingBlock: AJUNOK_clean_linker_0, # of connection points: 2
#     Edge 37, Type (0, 0), BuildingBlock: AJUNOK_clean_linker_0, # of connection points: 2
#     Edge 38, Type (0, 0), BuildingBlock: AJUNOK_clean_linker_0, # of connection points: 2
#     Edge 39, Type (0, 0), BuildingBlock: AJUNOK_clean_linker_0, # of connection points: 2
#     Edge 40, Type (0, 0), BuildingBlock: AJUNOK_clean_linker_0, # of connection points: 2
#     Edge 41, Type (0, 0), BuildingBlock: AJUNOK_clean_linker_0, # of connection points: 2
# Relax obj value: 0.119
# Max RMSD: 0.171
# Mean RMSD: 0.170
data_MOF--net-wkd--node1-XOMCOT_clean_sbu_1--edge1-AJUNOK_clean_linker_0
_symmetry_space_group_name_H-M    P1
_symmetry_Int_Tables_number       1
_symmetry_cell_setting            triclinic
loop_
_symmetry_equiv_pos_as_xyz
'x, y, z'
_cell_length_a     19.244771
_cell_length_b     19.179133
_cell_length_c     82.521136
_cell_angle_alpha  89.846329
_cell_angle_beta   90.069037
_cell_angle_gamma 119.85625
loop_
_atom_site_label
_atom_site_type_symbol
_atom_site_fract_x
_atom_site_fract_y
_atom_site_fract_z
_atom_type_partial_charge
C0 C 0.07074 0.28346 0.0912 0.0
C1 C 0.07814 0.2278 0.10055 0.0
N2 N 1.00874 0.15715 0.09986 0.0
N3 N 0.99742 0.24822 0.08439 0.0
C4 C 0.96102 0.17139 0.08992 0.0
H5 H 0.11634 0.34551 0.08933 0.0
Co6 Co 0.95597 0.29751 0.07071 0.0
C7 C 0.87671 0.1783 0.04421 0.0
O8 O 0.91125 0.23853 0.03393 0.0
N9 N 0.91041 0.3455 0.0573 0.0
C10 C 0.81042 0.35567 0.04604 0.0
C11 C 0.83078 0.30638 0.05425 0.0
C12 C 0.93665 0.42022 0.05106 0.0
N13 N 0.8768 0.4276 0.04419 0.0
O14 O 0.87507 0.27859 0.08678 0.0
H15 H 0.789 0.24598 0.05827 0.0
H16 H 0.99681 0.4701 0.05225 0.0
O17 O 0.88888 0.19249 0.05948 0.0
C18 C 0.90894 0.34463 0.09474 0.0
O19 O 0.98261 0.39883 0.09087 0.0
N20 N 0.04358 0.32842 0.05651 0.0
C21 C 0.19228 0.39898 0.04093 0.0
C22 C 0.14145 0.31518 0.04067 0.0
C23 C 0.06711 0.28072 0.04871 0.0
C24 C 0.09499 0.40912 0.05757 0.0
C25 C 0.16817 0.44587 0.0495 0.0
H26 H 1.03055 0.21602 0.04925 0.0
H27 H 0.08105 0.4451 0.0655 0.0
H28 H 0.90025 0.12675 0.08683 0.0
H29 H 0.13162 0.23826 0.10693 0.0
H30 H 0.75083 0.34031 0.04208 0.0
H31 H 0.15996 0.27683 0.03471 0.0
H32 H 0.20759 0.51017 0.05066 0.0
C33 C 0.74161 0.95358 0.26719 0.0
C34 C 0.80123 0.95169 0.27601 0.0
N35 N 0.85605 0.9529 0.26569 0.0
N36 N 0.75744 0.95521 0.25125 0.0
C37 C 0.82768 0.95464 0.25069 0.0
H38 H 0.69153 0.95691 0.2722 0.0
Co39 Co 0.69678 0.96846 0.23478 0.0
C40 C 0.69718 0.86173 0.20697 0.0
O41 O 0.6548 0.87988 0.19716 0.0
N42 N 0.63449 0.98521 0.21879 0.0
C43 C 0.58532 0.05371 0.2059 0.0
C44 C 0.64882 0.05929 0.21441 0.0
C45 C 0.55956 0.93544 0.213 0.0
N46 N 0.52867 0.97596 0.20509 0.0
O47 O 0.59804 0.88318 0.2444 0.0
H48 H 0.6993 0.11536 0.21821 0.0
H49 H 0.52599 0.87171 0.21564 0.0
O50 O 0.71305 0.89153 0.2213 0.0
C51 C 0.563 0.91581 0.25178 0.0
O52 O 0.59789 0.99464 0.25193 0.0
N53 N 0.7906 0.05708 0.22649 0.0
C54 C 0.87677 0.21117 0.21335 0.0
C55 C 0.85644 0.1433 0.20375 0.0
C56 C 0.81366 0.06637 0.2106 0.0
C57 C 0.8187 0.12238 0.2364 0.0
C58 C 0.86184 0.20015 0.23006 0.0
H59 H 0.79096 1.01556 0.2026 0.0
H60 H 0.79909 0.11453 0.24888 0.0
H61 H 0.85777 0.95689 0.23947 0.0
H62 H 0.80572 0.95324 0.28909 0.0
H63 H 0.57953 0.10363 0.20137 0.0
H64 H 0.86635 0.14891 0.19079 0.0
H65 H 0.87764 0.251 0.23793 0.0
C66 C 0.79988 0.76691 0.43478 0.0
C67 C 0.85851 0.8242 0.4444 0.0
N68 N 0.9249 0.8668 0.43537 0.0
N69 N 0.82877 0.77102 0.41974 0.0
C70 C 0.90541 0.83281 0.42042 0.0
H71 H 0.73924 0.72537 0.43851 0.0
Co72 Co 0.76329 0.70267 0.40323 0.0
C73 C 0.87297 0.70236 0.37676 0.0
O74 O 0.8132 0.64305 0.36908 0.0
N75 N 0.69102 0.63114 0.38678 0.0
C76 C 0.603 0.58284 0.36629 0.0
C77 C 0.65513 0.65015 0.37472 0.0
C78 C 0.6574 0.54987 0.38529 0.0
N79 N 0.60377 0.51976 0.37304 0.0
O80 O 0.76263 0.61283 0.41446 0.0
H81 H 0.66352 0.70863 0.37205 0.0
H82 H 0.67253 0.51308 0.39279 0.0
O83 O 0.86032 0.72686 0.39032 0.0
C84 C 0.69813 0.57592 0.42277 0.0
O85 O 0.64398 0.59811 0.42114 0.0
N86 N 0.7585 0.78956 0.39401 0.0
C87 C 0.69761 0.87517 0.37802 0.0
C88 C 0.76751 0.87727 0.37235 0.0
C89 C 0.79803 0.83451 0.38071 0.0
C90 C 0.6976 0.79612 0.40082 0.0
C91 C 0.66618 0.83884 0.39302 0.0
H92 H 0.8477 0.83131 0.3755 0.0
H93 H 0.6679 0.76103 0.41149 0.0
H94 H 0.94542 0.85375 0.4101 0.0
H95 H 0.85251 0.83282 0.45716 0.0
H96 H 0.56626 0.58012 0.35609 0.0
H97 H 0.79404 0.90581 0.3609 0.0
H98 H 0.6125 0.83609 0.39783 0.0
C99 C 0.11907 0.79999 0.59979 0.0
C100 C 0.12229 0.86003 0.60936 0.0
N101 N 0.1218 0.9167 0.59975 0.0
N102 N 0.11652 0.81773 0.58406 0.0
C103 C 0.11748 0.88909 0.58442 0.0
H104 H 0.11523 0.74503 0.60415 0.0
Co105 Co 0.10291 0.7472 0.5668 0.0
C106 C 0.20915 0.85983 0.53956 0.0
O107 O 0.18779 0.80194 0.52892 0.0
N108 N 0.08645 0.67206 0.54991 0.0
C109 C 1.01871 0.55681 0.5363 0.0
C110 C 1.01295 0.61435 0.54497 0.0
C111 C 0.13612 0.64648 0.54412 0.0
N112 N 0.09591 0.57614 0.53598 0.0
O113 O 0.18666 0.7292 0.57586 0.0
H114 H 0.95692 0.60909 0.54864 0.0
H115 H 0.19924 0.6748 0.54704 0.0
O116 O 0.18041 0.84267 0.55397 0.0
C117 C 0.15164 0.65878 0.58222 0.0
O118 O 0.07293 0.61737 0.58197 0.0
N119 N 1.01506 0.75553 0.55918 0.0
C120 C 0.86096 0.68712 0.54656 0.0
C121 C 0.92725 0.73902 0.53703 0.0
C122 C 1.00455 0.77313 0.54362 0.0
C123 C 0.9507 0.71519 0.56919 0.0
C124 C 0.87284 0.68031 0.56311 0.0
H125 H 0.05485 0.80448 0.5356 0.0
H126 H 0.95962 0.70071 0.58142 0.0
H127 H 0.11297 0.91909 0.57367 0.0
H128 H 0.12046 0.85941 0.62247 0.0
H129 H 0.9692 0.502 0.53152 0.0
H130 H 0.92016 0.74654 0.52423 0.0
H131 H 0.82289 0.64232 0.57093 0.0
C132 C 0.31437 0.05942 0.76742 0.0
C133 C 0.2565 0.05839 0.77724 0.0
N134 N 0.20707 0.07312 0.76812 0.0
N135 N 0.30403 0.07714 0.75213 0.0
C136 C 0.23777 0.08496 0.75287 0.0
H137 H 0.36041 0.04627 0.77116 0.0
Co138 Co 0.37106 0.07959 0.73536 0.0
C139 C 0.36635 0.18776 0.70872 0.0
O140 O 0.40861 0.16963 0.69893 0.0
N141 N 0.44128 0.07871 0.7188 0.0
C142 C 0.49293 0.03282 0.70018 0.0
C143 C 0.42687 1.0152 0.70934 0.0
C144 C 0.51889 0.13378 0.71532 0.0
N145 N 0.55088 0.10722 0.70396 0.0
O146 O 0.46252 0.16499 0.74686 0.0
H147 H 0.37332 0.95734 0.70941 0.0
H148 H 0.55175 0.19201 0.72107 0.0
O149 O 0.35036 0.15779 0.72311 0.0
C150 C 0.50432 0.13784 0.75356 0.0
O151 O 0.48459 0.06272 0.75087 0.0
N152 N 0.28248 0.99072 0.72573 0.0
C153 C 0.19704 0.84512 0.7096 0.0
C154 C 0.20314 0.91547 0.70299 0.0
C155 C 0.24592 0.98818 0.71135 0.0
C156 C 0.26645 0.92112 0.73336 0.0
C157 C 0.22364 0.84724 0.72549 0.0
H158 H 0.25535 0.04208 0.70541 0.0
H159 H 0.29516 0.92393 0.74481 0.0
H160 H 0.21127 0.09671 0.74239 0.0
H161 H 0.25212 0.04824 0.79019 0.0
H162 H 0.49918 0.99267 0.69187 0.0
H163 H 0.18226 0.91568 0.6908 0.0
H164 H 0.22006 0.7942 0.73099 0.0
C165 C 0.29371 0.26117 0.92995 0.0
C166 C 0.23854 0.19892 0.93938 0.0
N167 N 0.16438 0.17545 0.93365 0.0
N168 N 0.25533 0.27833 0.91833 0.0
C169 C 0.17659 0.22527 0.9209 0.0
H170 H 0.35779 0.29421 0.93186 0.0
Co171 Co 0.30714 0.36751 0.90439 0.0
C172 C 0.19624 0.33192 0.87638 0.0
O173 O 0.25953 0.36111 0.86693 0.0
N174 N 0.35943 0.45971 0.89089 0.0
C175 C 0.38055 0.57482 0.87988 0.0
C176 C 0.32628 0.50608 0.88773 0.0
C177 C 0.43493 0.50264 0.88485 0.0
N178 N 0.44875 0.5726 0.87806 0.0
O179 O 0.28383 0.43087 0.91942 0.0
H180 H 0.26696 0.4922 0.89152 0.0
H181 H 0.48077 0.48628 0.88622 0.0
O182 O 0.2057 0.33044 0.89179 0.0
C183 C 0.34875 0.46711 0.92764 0.0
O184 O 0.40639 0.45146 0.92447 0.0
N185 N 0.34158 0.30955 0.89144 0.0
C186 C 0.41938 0.23468 0.87739 0.0
C187 C 0.33826 0.2073 0.87405 0.0
C188 C 0.29957 0.24454 0.88156 0.0
C189 C 0.4193 0.33382 0.89521 0.0
C190 C 0.45958 0.29824 0.88819 0.0
H191 H 0.23597 0.21949 0.87979 0.0
H192 H 0.45031 0.38077 0.90404 0.0
H193 H 0.12893 0.22431 0.91377 0.0
H194 H 0.25257 0.17609 0.95014 0.0
H195 H 0.37157 0.62403 0.87621 0.0
H196 H 0.30462 0.15602 0.86621 0.0
H197 H 0.52149 0.31934 0.89143 0.0
C198 C 0.81096 0.07818 0.78914 0.0
C199 C 0.87203 0.08135 0.77996 0.0
N200 N 0.92907 0.08583 0.79004 0.0
N201 N 0.82968 0.08237 0.805 0.0
C202 C 0.90186 0.08598 0.80518 0.0
H203 H 0.75528 0.07097 0.7845 0.0
Co204 Co 0.76177 0.07803 0.82182 0.0
C205 C 0.873 0.18936 0.8483 0.0
O206 O 0.81363 0.17398 0.85817 0.0
N207 N 0.68878 0.07115 0.83841 0.0
C208 C 0.5848 1.01755 0.85545 0.0
C209 C 0.63623 1.00346 0.84642 0.0
C210 C 0.66562 0.12516 0.84259 0.0
N211 N 0.60317 0.09408 0.85305 0.0
O212 O 0.75 0.16199 0.81096 0.0
H213 H 0.63123 0.94526 0.84516 0.0
H214 H 0.69281 0.18568 0.83779 0.0
O215 O 0.85796 0.15691 0.83419 0.0
C216 C 0.68024 0.13083 0.80457 0.0
O217 O 0.63076 0.05356 0.80668 0.0
N218 N 0.7665 0.99055 0.83108 0.0
C219 C 0.70878 0.84272 0.84647 0.0
C220 C 0.76559 0.91376 0.85413 0.0
C221 C 0.79426 0.98754 0.84617 0.0
C222 C 0.72054 0.92144 0.82265 0.0
C223 C 0.69081 0.84653 0.83014 0.0
H224 H 0.83122 0.04133 0.85292 0.0
H225 H 0.69878 0.92468 0.81074 0.0
H226 H 0.93333 0.08773 0.81618 0.0
H227 H 0.8731 0.07751 0.76688 0.0
H228 H 0.53461 0.9734 0.8625 0.0
H229 H 0.78132 0.91307 0.86671 0.0
H230 H 0.64666 0.79335 0.82382 0.0
C231 C 0.73371 0.83071 0.95678 0.0
C232 C 0.79494 0.89265 0.94835 0.0
N233 N 0.85802 0.93083 0.95832 0.0
N234 N 0.75681 0.82985 0.97221 0.0
C235 C 0.83362 0.89181 0.97273 0.0
H236 H 0.67675 0.78773 0.95167 0.0
Co237 Co 0.69319 0.75299 0.98823 0.0
C238 C 0.68965 0.85419 1.0166 0.0
O239 O 0.6478 0.79155 1.02593 0.0
N240 N 0.62795 0.67247 1.00378 0.0
C241 C 0.57305 0.55498 1.01685 0.0
C242 C 0.63941 0.61172 1.00875 0.0
C243 C 0.55236 0.64947 1.00889 0.0
N244 N 0.51795 0.5786 1.01705 0.0
O245 O 0.59537 0.74024 0.97821 0.0
H246 H 0.68983 0.60465 1.00564 0.0
H247 H 0.52196 0.68271 1.00611 0.0
O248 O 0.70681 0.8437 1.0021 0.0
C249 C 0.56221 0.67295 0.9707 0.0
O250 O 0.59954 0.63128 0.97041 0.0
N251 N 0.78595 0.75706 0.99701 0.0
C252 C 0.86871 0.69124 1.01226 0.0
C253 C 0.85653 0.74877 1.0202 0.0
C254 C 0.81455 0.78103 1.01235 0.0
C255 C 0.81027 0.71294 0.98819 0.0
C256 C 0.85166 0.67876 0.99566 0.0
H257 H 0.79865 0.81798 1.01936 0.0
H258 H 0.78764 0.69472 0.97602 0.0
H259 H 0.87129 0.90752 0.98338 0.0
H260 H 0.79434 0.9066 0.93564 0.0
H261 H 0.56423 0.49777 1.02113 0.0
H262 H 0.87082 0.76139 0.03294 0.0
H263 H 0.86064 0.63508 0.98908 0.0
C264 C 0.96362 0.73999 0.12338 0.0
C265 C 0.96228 0.79974 0.11438 0.0
N266 N 0.9628 0.85489 0.12455 0.0
N267 N 0.96406 0.756 0.13927 0.0
C268 C 0.9636 0.8266 0.13963 0.0
H269 H 0.96742 0.68971 0.11855 0.0
Co270 Co 0.97561 0.69527 0.15606 0.0
C271 C 0.86807 0.69833 0.18333 0.0
O272 O 0.88819 0.65996 0.19384 0.0
N273 N 0.99023 0.63298 0.17251 0.0
C274 C 0.05684 0.58314 0.18589 0.0
C275 C 0.0634 0.64752 0.17744 0.0
C276 C 0.9399 0.55728 0.17805 0.0
N277 N 0.97946 0.52583 0.18608 0.0
O278 O 0.89167 0.59614 0.14634 0.0
H279 H 0.11976 0.69847 0.17397 0.0
H280 H 0.8768 0.52337 0.17508 0.0
O281 O 0.89798 0.71185 0.16902 0.0
C282 C 0.9252 0.55998 0.13974 0.0
O283 O 1.00368 0.59432 0.14034 0.0
N284 N 0.06344 0.78937 0.16427 0.0
C285 C 0.2169 0.87391 0.17717 0.0
C286 C 0.15016 0.85779 0.1867 0.0
C287 C 0.07317 0.81516 0.17997 0.0
C288 C 0.12823 0.81483 0.15433 0.0
C289 C 0.20578 0.85721 0.16056 0.0
H290 H 1.02249 0.79496 0.18793 0.0
H291 H 0.11991 0.79317 0.142 0.0
H292 H 0.96514 0.85696 0.15076 0.0
H293 H 0.96456 0.80406 0.10129 0.0
H294 H 0.10592 0.57688 0.19065 0.0
H295 H 0.15678 0.87081 0.19955 0.0
H296 H 0.25614 0.87037 0.15276 0.0
C297 C 0.28467 0.06841 0.29851 0.0
C298 C 0.22806 0.07389 0.28923 0.0
N299 N 0.1587 1.00334 0.29009 0.0
N300 N 0.25134 0.99517 0.30549 0.0
C301 C 0.17457 0.95683 0.30011 0.0
H302 H 0.34627 0.11516 0.30011 0.0
Co303 Co 0.30428 0.9565 0.31884 0.0
C304 C 0.1917 0.87906 0.34655 0.0
O305 O 0.25394 0.91214 0.3563 0.0
N306 N 0.35681 0.9147 0.33184 0.0
C307 C 0.37751 0.81881 0.3421 0.0
C308 C 0.32328 0.8348 0.33462 0.0
C309 C 0.43238 0.9459 0.33779 0.0
N310 N 0.44597 0.8887 0.34404 0.0
O311 O 0.28199 0.87225 0.30334 0.0
H312 H 0.26359 0.79019 0.33086 0.0
H313 H 0.47857 1.00808 0.33692 0.0
O314 O 0.2028 0.89088 0.3312 0.0
C315 C 0.343 0.90609 0.29396 0.0
O316 O 0.39417 0.98283 0.29604 0.0
N317 N 0.33817 0.04666 0.33241 0.0
C318 C 0.41699 0.19777 0.34733 0.0
C319 C 0.33412 0.14592 0.34959 0.0
C320 C 0.29539 0.07058 0.34182 0.0
C321 C 0.41705 0.09847 0.32942 0.0
C322 C 0.45798 0.17241 0.33709 0.0
H323 H 0.23117 0.0334 0.34289 0.0
H324 H 0.44853 0.0828 0.32064 0.0
H325 H 0.13132 0.89551 0.30331 0.0
H326 H 0.23709 0.12685 0.28274 0.0
H327 H 0.36813 0.76024 0.34556 0.0
H328 H 0.29902 0.16446 0.35673 0.0
H329 H 0.52141 0.21019 0.3347 0.0
C330 C 0.34186 0.24362 0.45578 0.0
C331 C 0.28329 0.18189 0.44686 0.0
N332 N 0.22595 0.13093 0.45707 0.0
N333 N 0.32277 0.23147 0.47167 0.0
C334 C 0.25129 0.16217 0.47206 0.0
H335 H 0.39347 0.29575 0.45082 0.0
Co336 Co 0.3823 0.30396 0.48836 0.0
C337 C 0.37995 0.19509 0.51611 0.0
O338 O 0.42147 0.25522 0.526 0.0
N339 N 0.44392 0.38165 0.50463 0.0
C340 C 0.49262 0.4982 0.51782 0.0
C341 C 0.42908 0.44065 0.50929 0.0
C342 C 0.51912 0.40686 0.51031 0.0
N343 N 0.54972 0.47759 0.51839 0.0
O344 O 0.481 0.31791 0.4788 0.0
H345 H 0.37829 0.44617 0.50564 0.0
H346 H 0.55307 0.37732 0.50749 0.0
O347 O 0.36509 0.2096 0.50171 0.0
C348 C 0.51425 0.38651 0.47173 0.0
O349 O 0.4778 0.429 0.47225 0.0
N350 N 0.28815 0.29845 0.49645 0.0
C351 C 0.20031 0.36516 0.50916 0.0
C352 C 0.21971 0.31699 0.51887 0.0
C353 C 0.26341 0.28346 0.51223 0.0
C354 C 0.26112 0.33639 0.48641 0.0
C355 C 0.21711 0.37036 0.49253 0.0
H356 H 0.28534 0.25475 0.52033 0.0
H357 H 0.28206 0.34905 0.47402 0.0
H358 H 0.2177 0.13616 0.48309 0.0
H359 H 0.28104 0.17691 0.43378 0.0
H360 H 0.49815 0.55341 0.52252 0.0
H361 H 0.2083 0.31173 0.53179 0.0
H362 H 0.20209 0.40593 0.48458 0.0
C363 C 1.00259 0.22943 0.63199 0.0
C364 C 0.99834 0.16539 0.62358 0.0
N365 N 0.06947 0.16793 0.62478 0.0
N366 N 0.07607 0.27261 0.63858 0.0
C367 C 0.11565 0.23411 0.63386 0.0
H368 H 0.95506 0.24365 0.63317 0.0
Co369 Co 0.11565 0.36776 0.65092 0.0
C370 C 0.19249 0.33663 0.67941 0.0
O371 O 0.16014 0.3689 0.68854 0.0
N372 N 0.15913 0.46481 0.663 0.0
C373 C 0.25733 0.57859 0.6734 0.0
C374 C 0.23893 0.50835 0.6657 0.0
C375 C 0.13046 0.51141 0.66908 0.0
N376 N 0.18928 0.58094 0.67539 0.0
O377 O 0.1989 0.42549 0.63488 0.0
H378 H 0.28181 0.49059 0.66203 0.0
H379 H 0.06878 0.4972 0.66843 0.0
O380 O 0.1807 0.33283 0.66401 0.0
C381 C 0.16299 0.4469 0.6246 0.0
O382 O 0.08595 0.4195 0.62654 0.0
N383 N 1.02589 0.31606 0.66475 0.0
C384 C 0.87346 0.24644 0.67882 0.0
C385 C 0.92548 0.2167 0.68237 0.0
C386 C 1.00127 0.25135 0.67487 0.0
C387 C 0.97485 0.34364 0.661 0.0
C388 C 0.89957 0.31115 0.66809 0.0
H389 H 0.03817 0.22422 0.67672 0.0
H390 H 0.99192 0.39014 0.65195 0.0
H391 H 0.1779 0.25565 0.63673 0.0
H392 H 0.94628 0.11974 0.61724 0.0
H393 H 0.31647 0.62483 0.67712 0.0
H394 H 0.90637 0.16515 0.69027 0.0
H395 H 0.86118 0.3354 0.66487 0.0
C396 C 0.77703 1.00454 1.01413 0.0
C397 C 0.7319 0.93656 1.02396 0.0
C398 C 0.82247 0.08177 1.02082 0.0
C399 C 0.8257 0.09505 0.0377 0.0
H400 H 0.77822 0.99814 1.00111 0.0
H401 H 0.85635 0.13142 1.01259 0.0
S402 S 0.71794 0.93807 0.06896 0.0
N403 N 0.69262 0.8884 0.05167 0.0
N404 N 0.77824 0.03313 0.06409 0.0
C405 C 0.78024 0.0279 0.0477 0.0
C406 C 0.73336 0.94905 0.04088 0.0
C407 C 0.80955 0.74353 0.20565 0.0
C408 C 0.82008 0.73609 0.18892 0.0
C409 C 0.76934 0.78322 0.21135 0.0
C410 C 0.73647 0.8164 0.20062 0.0
H411 H 0.83416 0.72003 0.21451 0.0
H412 H 0.76436 0.78823 0.22432 0.0
S413 S 0.74611 0.81263 0.1556 0.0
N414 N 0.79311 0.76503 0.1617 0.0
N415 N 0.71725 0.83842 0.17227 0.0
C416 C 0.74537 0.80823 0.18384 0.0
C417 C 0.78713 0.76857 0.17805 0.0
C418 C 1.02302 0.79271 0.37801 0.0
C419 C 0.95356 0.74588 0.3688 0.0
C420 C 0.09914 0.83455 0.3707 0.0
C421 C 0.10948 0.83263 0.35378 0.0
H422 H 1.01878 0.7967 0.39103 0.0
H423 H 0.15034 0.86935 0.37847 0.0
S424 S 0.94644 0.72213 0.32397 0.0
N425 N 0.90005 0.70197 0.34163 0.0
N426 N 0.04246 0.78095 0.32801 0.0
C427 C 0.04037 0.78681 0.34439 0.0
C428 C 0.96283 0.74344 0.35185 0.0
C429 C 0.30731 0.04457 0.51165 0.0
C430 C 0.3407 0.11019 0.52242 0.0
C431 C 0.2671 0.96447 0.51731 0.0
C432 C 0.25711 0.94583 0.53403 0.0
H433 H 0.31182 0.05501 0.49869 0.0
H434 H 0.24209 0.91675 0.50841 0.0
S435 S 0.3328 0.09497 0.56744 0.0
N436 N 0.36115 0.15026 0.5508 0.0
N437 N 0.28526 1.00067 0.56128 0.0
C438 C 0.29062 1.0108 0.54494 0.0
C439 C 0.33238 0.09244 0.53919 0.0
C440 C 0.31948 0.23534 0.68477 0.0
C441 C 0.32481 0.22962 0.70176 0.0
C442 C 0.27722 0.27003 0.67767 0.0
C443 C 0.23874 0.30148 0.68721 0.0
H444 H 0.34692 0.21134 0.67675 0.0
H445 H 0.27445 0.27173 0.66458 0.0
S446 S 0.23675 0.30451 0.73234 0.0
N447 N 0.28915 0.2603 0.72792 0.0
N448 N 0.21059 0.32595 0.71478 0.0
C449 C 0.24461 0.29729 0.70426 0.0
C450 C 0.28723 0.26132 0.71146 0.0
C451 C 0.96967 0.24312 0.87178 0.0
C452 C 0.95666 0.23056 0.85492 0.0
C453 C 0.04673 0.27576 0.87861 0.0
C454 C 0.11471 0.29809 0.8689 0.0
H455 H 0.91964 0.22609 0.87993 0.0
H456 H 0.05285 0.28322 0.89164 0.0
S457 S 0.11431 0.27992 0.82395 0.0
N458 N 1.01938 0.24521 0.82866 0.0
N459 N 0.16346 0.30599 0.8413 0.0
C460 C 0.10276 0.28701 0.85196 0.0
C461 C 1.02419 0.25351 0.84504 0.0
C462 C 0.94414 1.00835 0.09886 0.0
C463 C 0.99172 0.08112 0.10712 0.0
C464 C 0.93283 0.93481 0.10495 0.0
C465 C 0.96811 0.93027 0.11963 0.0
H466 H 0.91762 1.00846 0.08729 0.0
H467 H 0.897 0.88097 0.09792 0.0
S468 S 0.09187 0.10239 0.14679 0.0
N469 N 0.06884 0.14291 0.13152 0.0
N470 N 0.04946 1.00552 0.14269 0.0
C471 C 1.0131 1.00215 0.12837 0.0
C472 C 1.02461 0.0772 0.12216 0.0
C473 C 0.93661 0.92327 0.2851 0.0
C474 C 0.93147 0.95865 0.27045 0.0
C475 C 1.0103 0.93566 0.29113 0.0
C476 C 0.08251 0.98434 0.28282 0.0
H477 H 0.88317 0.88671 0.29217 0.0
H478 H 1.01096 0.90929 0.3027 0.0
S479 S 0.10208 0.08455 0.24313 0.0
N480 N 1.00554 0.04094 0.24734 0.0
N481 N 0.14318 0.06198 0.25835 0.0
C482 C 0.07796 1.01696 0.26777 0.0
C483 C 1.00281 1.00451 0.26164 0.0
C484 C 0.14703 1.01057 0.44003 0.0
C485 C 0.15018 0.06301 0.45231 0.0
C486 C 0.07351 0.94713 0.43445 0.0
C487 C 1.00013 0.93409 0.44081 0.0
H488 H 0.20206 1.0186 0.43477 0.0
H489 H 0.07419 0.90745 0.42522 0.0
S490 S 0.97594 0.0614 0.4717 0.0
N491 N 0.07383 0.10137 0.46981 0.0
N492 N 0.93593 0.98432 0.45914 0.0
C493 C 1.0027 0.98774 0.45282 0.0
C494 C 0.07755 0.05153 0.45861 0.0
C495 C 0.05362 0.07002 0.60334 0.0
C496 C 0.0895 0.11033 0.61793 0.0
C497 C 0.06707 1.00945 0.59707 0.0
C498 C 0.11656 0.98596 0.60518 0.0
H499 H 1.01391 0.08476 0.59677 0.0
H500 H 1.03601 0.9787 0.58612 0.0
S501 S 0.2294 0.07572 0.6432 0.0
N502 N 0.17937 0.12366 0.63994 0.0
N503 N 0.2064 1.01224 0.62798 0.0
C504 C 0.15528 0.02787 0.61943 0.0
C505 C 0.14148 0.08939 0.62583 0.0
C506 C 0.11298 0.12625 0.76629 0.0
C507 C 0.13652 0.07505 0.77371 0.0
C508 C 0.04612 0.13055 0.77188 0.0
C509 C 1.00051 0.08445 0.7852 0.0
H510 H 0.14694 0.16387 0.75621 0.0
H511 H 1.03004 0.17056 0.76577 0.0
S512 S 1.03034 0.93442 0.80781 0.0
N513 N 0.10334 0.9718 0.79431 0.0
N514 N 0.98005 0.98239 0.80497 0.0
C515 C 1.02253 0.03245 0.79261 0.0
C516 C 0.08978 0.02706 0.78682 0.0
C517 C 0.94391 0.06075 0.94459 0.0
C518 C 0.93634 0.99482 0.95356 0.0
C519 C 1.01826 0.11957 0.9383 0.0
C520 C 0.08826 0.1143 0.94044 0.0
H521 H 0.89153 0.06652 0.94236 0.0
H522 H 1.02063 0.16957 0.93173 0.0
S523 S 0.09789 0.94822 0.96189 0.0
N524 N 1.00355 0.92555 0.96381 0.0
N525 N 0.14255 0.03326 0.95154 0.0
C526 C 0.08086 0.0476 0.94929 0.0
C527 C 1.00523 0.98868 0.95595 0.0
C528 C 0.37362 0.53766 1.01537 0.0
C529 C 0.43646 0.53239 1.023 0.0
C530 C 0.29406 0.49195 1.02083 0.0
C531 C 0.27414 0.43838 0.03395 0.0
H532 H 0.38579 0.57715 1.00508 0.0
H533 H 0.24782 0.49912 1.01486 0.0
S534 S 0.41553 0.40629 0.05899 0.0
N535 N 0.47266 0.47253 0.04518 0.0
N536 N 0.32304 0.38511 0.05492 0.0
C537 C 0.33582 0.43244 0.0417 0.0
C538 C 0.41692 0.47971 0.03635 0.0
C539 C 0.88675 0.40979 0.20286 0.0
C540 C 0.94963 0.44455 0.19161 0.0
C541 C 0.86415 0.33459 0.20989 0.0
C542 C 0.9032 0.29121 0.2058 0.0
H543 H 0.85669 0.44212 0.20659 0.0
H544 H 0.81545 0.31008 0.21857 0.0
S545 S 0.06787 0.35445 0.17597 0.0
N546 N 0.0476 0.42862 0.17595 0.0
N547 N 1.0057 0.28787 0.1892 0.0
C548 C 0.96452 0.32452 0.19415 0.0
C549 C 0.98764 0.40106 0.18708 0.0
C550 C 0.55345 0.94491 0.36453 0.0
C551 C 0.51933 0.89814 0.35061 0.0
C552 C 0.61597 0.94227 0.37284 0.0
C553 C 0.64737 0.89419 0.36724 0.0
H554 H 0.52816 0.97951 0.36955 0.0
H555 H 0.63723 0.97487 0.38413 0.0
S556 S 0.5829 0.76708 0.33034 0.0
N557 N 0.52455 0.80743 0.3309 0.0
N558 N 0.64254 0.80308 0.34624 0.0
C559 C 0.61699 0.85156 0.35269 0.0
C560 C 0.55273 0.8533 0.34444 0.0
C561 C 0.74363 0.66326 0.52929 0.0
C562 C 0.78216 0.6324 0.53896 0.0
C563 C 0.66855 0.61203 0.52232 0.0
C564 C 0.62976 0.52794 0.52454 0.0
H565 H 0.77099 0.72749 0.52735 0.0
H566 H 0.64041 0.63849 0.51515 0.0
S567 S 0.70859 0.41668 0.54772 0.0
N568 N 0.77835 0.51206 0.54961 0.0
N569 N 0.63724 0.41623 0.53649 0.0
C570 C 0.66895 0.49619 0.5337 0.0
C571 C 0.74502 0.54831 0.54094 0.0
C572 C 0.12574 0.63293 0.69426 0.0
C573 C 0.18313 0.64669 0.68226 0.0
C574 C 0.12721 0.6975 0.70268 0.0
C575 C 0.18436 0.77766 0.69892 0.0
H576 H 0.08251 0.57197 0.69775 0.0
H577 H 0.08522 0.68474 0.7125 0.0
S578 S 0.34429 0.84526 0.66785 0.0
N579 N 0.29674 0.74622 0.66681 0.0
N580 N 0.29735 0.86681 0.68197 0.0
C581 C 0.23912 0.79183 0.68637 0.0
C582 C 0.23904 0.72654 0.6782 0.0
C583 C 0.48831 0.20598 0.85469 0.0
C584 C 0.46193 0.19429 0.87087 0.0
C585 C 0.53642 0.17496 0.84897 0.0
C586 C 0.55869 0.13055 0.85922 0.0
H587 H 0.47298 0.24057 0.84652 0.0
H588 H 0.55536 0.18471 0.83643 0.0
S589 S 0.50679 0.08587 0.90271 0.0
N590 N 0.46299 0.13741 0.89711 0.0
N591 N 0.55226 0.07854 0.88638 0.0
C592 C 0.53254 0.11877 0.87541 0.0
C593 C 0.48448 0.15082 0.88123 0.0
C594 C 0.61319 0.78193 0.86936 0.0
C595 C 0.6539 0.77119 0.8563 0.0
C596 C 0.54854 0.71631 0.87688 0.0
C597 C 0.52273 0.63724 0.87185 0.0
H598 H 0.62795 0.84182 0.87315 0.0
H599 H 0.51636 0.72753 0.88631 0.0
S600 S 0.61284 0.57558 0.83926 0.0
N601 N 0.6667 0.67483 0.83931 0.0
N602 N 0.54549 0.55097 0.8538 0.0
C603 C 0.56555 0.62499 0.85949 0.0
C604 C 0.63092 0.69212 0.8516 0.0
C605 C 0.93987 0.54733 1.02627 0.0
C606 C 0.88022 0.49882 0.03754 0.0
C607 C 0.93804 0.61164 1.01836 0.0
C608 C 0.87784 0.63069 1.02187 0.0
H609 H 0.986 0.53319 1.02306 0.0
H610 H 0.98291 0.64566 1.00926 0.0
S611 S 0.7101 0.52398 0.05096 0.0
N612 N 0.76103 0.47582 0.0521 0.0
N613 N 0.75822 0.59654 0.03761 0.0
C614 C 0.81972 0.58418 0.03355 0.0
C615 C 0.82079 0.51835 0.0413 0.0
C616 C 0.40993 0.99184 0.20106 0.0
C617 C 0.44864 0.94641 0.19892 0.0
C618 C 0.3345 0.96767 0.19423 0.0
C619 C 0.29562 0.89792 0.18476 0.0
H620 H 0.4382 0.04659 0.20812 0.0
H621 H 0.30713 1.00456 0.19611 0.0
S622 S 0.36881 0.75548 0.17621 0.0
N623 N 0.44064 0.82672 0.18724 0.0
N624 N 0.29895 0.78108 0.17433 0.0
C625 C 0.33266 0.8509 0.18284 0.0
C626 C 0.40904 0.87509 0.18996 0.0
C627 C 0.56485 0.4217 0.35106 0.0
C628 C 0.55853 0.43837 0.36735 0.0
C629 C 0.51753 0.34446 0.34473 0.0
C630 C 0.46149 0.2803 0.35442 0.0
H631 H 0.60677 0.4692 0.34315 0.0
H632 H 0.52476 0.3352 0.33204 0.0
S633 S 0.41552 0.29606 0.39748 0.0
N634 N 0.48789 0.38754 0.39277 0.0
N635 N 0.39921 0.241 0.38104 0.0
C636 C 0.45296 0.29699 0.37069 0.0
C637 C 0.50167 0.37618 0.37714 0.0
C638 C 0.18951 0.55318 0.5195 0.0
C639 C 0.12519 0.52441 0.5304 0.0
C640 C 0.2128 0.50098 0.51263 0.0
C641 C 0.17305 0.41827 0.51654 0.0
H642 H 0.22039 0.61589 0.51595 0.0
H643 H 0.26265 0.52569 0.50422 0.0
S644 S 1.00463 0.31504 0.54551 0.0
N645 N 1.02507 0.40949 0.54558 0.0
N646 N 0.06833 0.31138 0.53262 0.0
C647 C 0.11021 0.38953 0.52784 0.0
C648 C 0.08634 0.44255 0.53476 0.0
C649 C 0.6973 0.1707 0.70818 0.0
C650 C 0.63143 0.14563 0.69772 0.0
C651 C 0.77556 0.20139 0.70208 0.0
C652 C 0.79026 0.2083 0.68528 0.0
H653 H 0.68767 0.16422 0.7211 0.0
H654 H 0.82485 0.22065 0.71053 0.0
S655 S 0.63706 0.14757 0.65287 0.0
N656 N 0.58547 0.12755 0.66989 0.0
N657 N 0.73158 0.18483 0.65833 0.0
C658 C 0.72442 0.18252 0.67473 0.0
C659 C 0.64527 0.15116 0.68097 0.0
C660 C 0.89808 0.42119 0.13511 0.0
C661 C 0.88174 0.48282 0.13088 0.0
C662 C 0.89208 0.36421 0.12366 0.0
C663 C 0.87006 0.36713 0.10753 0.0
H664 H 0.92432 0.42246 0.14682 0.0
H665 H 0.91474 0.32443 0.12693 0.0
S666 S 0.80999 0.50916 0.09099 0.0
N667 N 0.8324 0.53658 0.11011 0.0
N668 N 0.82243 0.43059 0.0885 0.0
C669 C 0.84462 0.4225 0.10371 0.0
C670 C 0.85016 0.48019 0.11542 0.0
C671 C 0.48558 0.85016 0.27674 0.0
C672 C 0.48541 0.87065 0.26037 0.0
C673 C 0.42725 0.8462 0.28762 0.0
C674 C 0.36715 0.86296 0.28249 0.0
H675 H 0.53636 0.84713 0.2816 0.0
H676 H 0.43573 0.8407 0.30046 0.0
S677 S 0.33254 0.90507 0.24037 0.0
N678 N 0.41324 0.89579 0.23916 0.0
N679 N 0.30458 0.88895 0.25957 0.0
C680 C 0.36076 0.87332 0.26583 0.0
C681 C 0.41984 0.87721 0.25478 0.0
C682 C 0.64637 0.50069 0.46467 0.0
C683 C 0.5886 0.41969 0.462 0.0
C684 C 0.69471 0.54966 0.45199 0.0
C685 C 0.68633 0.51965 0.43616 0.0
H686 H 0.64739 0.52889 0.4761 0.0
H687 H 0.73115 0.61356 0.4542 0.0
S688 S 0.56183 0.30643 0.42409 0.0
N689 N 0.53968 0.30727 0.44341 0.0
N690 N 0.62897 0.40009 0.41938 0.0
C691 C 0.63768 0.43631 0.43394 0.0
C692 C 0.58919 0.38598 0.44696 0.0
C693 C 0.1707 0.54105 0.58516 0.0
C694 C 0.19358 0.62006 0.58992 0.0
C695 C 0.17559 0.48676 0.59593 0.0
C696 C 0.20312 0.50917 0.61192 0.0
H697 H 0.14025 0.51827 0.5737 0.0
H698 H 0.14787 0.42415 0.5924 0.0
S699 S 0.28474 0.71333 0.62913 0.0
N700 N 0.2568 0.72166 0.61064 0.0
N701 N 0.26529 0.61949 0.63102 0.0
C702 C 0.23597 0.59079 0.61604 0.0
C703 C 0.23125 0.64633 0.605 0.0
C704 C 0.5329 0.16842 0.78263 0.0
C705 C 0.56264 0.17995 0.76672 0.0
C706 C 0.57756 0.16441 0.79572 0.0
C707 C 0.65438 0.17415 0.79342 0.0
H708 H 0.47116 0.15212 0.78477 0.0
H709 H 0.54823 0.1447 0.80738 0.0
S710 S 0.76714 0.22724 0.75482 0.0
N711 N 0.67886 0.21599 0.74988 0.0
N712 N 0.76421 0.21217 0.77459 0.0
C713 C 0.68939 0.1983 0.77804 0.0
C714 C 0.64307 0.20033 0.76464 0.0
C715 C 0.42508 0.55849 0.96734 0.0
C716 C 0.48286 0.63705 0.96269 0.0
C717 C 0.36737 0.50523 0.95633 0.0
C718 C 0.36599 0.52831 0.9402 0.0
H719 H 0.43062 0.53486 0.97891 0.0
H720 H 0.33142 0.4426 0.9598 0.0
S721 S 0.49353 0.73184 0.92297 0.0
N722 N 0.52593 0.73927 0.94178 0.0
N723 N 0.41877 0.63869 0.92096 0.0
C724 C 0.41617 0.6097 0.93612 0.0
C725 C 0.47458 0.66426 0.9474 0.0
loop_
_geom_bond_atom_site_label_1
_geom_bond_atom_site_label_2
_geom_bond_distance
_geom_bond_site_symmetry_2
_ccdc_geom_bond_type
C0 C1 1.351 . S
C0 N3 1.368 1_455 S
C0 H5 0.931 . S
C1 C0 1.351 . S
C1 N2 1.373 . S
C1 H29 0.930 . S
N2 C1 1.373 . S
N2 C4 1.340 1_455 S
N3 C0 1.368 1_655 S
N3 C4 1.321 . S
N3 Co6 2.135 . S
C4 N2 1.340 1_655 S
C4 N3 1.321 . S
C4 H28 0.930 . S
H5 C0 0.931 . S
Co6 N3 2.135 . S
Co6 N9 2.121 . S
Co6 O14 2.055 . S
Co6 O17 2.039 . S
Co6 N20 2.140 1_655 S
C7 O8 1.227 . S
C7 O17 1.265 . S
O8 C7 1.227 . S
N9 Co6 2.121 . S
N9 C11 1.375 . S
N9 C12 1.313 . S
C10 C11 1.338 1_556 S
C10 N13 1.377 1_556 S
C10 H30 0.930 . S
C11 N9 1.375 . S
C11 C10 1.338 1_554 S
C11 H15 0.931 . S
C12 N9 1.313 . S
C12 N13 1.344 . S
C12 H16 0.930 . S
N13 C10 1.377 1_554 S
N13 C12 1.344 . S
O14 Co6 2.055 . S
O14 C18 1.253 . S
H15 C11 0.931 . S
H16 C12 0.930 . S
O17 Co6 2.039 . S
O17 C7 1.265 . S
C18 O14 1.253 . S
C18 O19 1.227 1_655 S
O19 C18 1.227 1_455 S
N20 Co6 2.140 1_455 S
N20 C23 1.346 . S
N20 C24 1.345 . S
C21 C22 1.387 . S
C21 C25 1.391 . S
C22 C21 1.387 . S
C22 C23 1.369 . S
C22 H31 0.929 . S
C23 N20 1.346 . S
C23 C22 1.369 . S
C23 H26 0.928 . S
C24 N20 1.345 . S
C24 C25 1.371 . S
C24 H27 0.931 . S
C25 C21 1.391 . S
C25 C24 1.371 . S
C25 H32 0.930 . S
H26 C23 0.928 . S
H27 C24 0.931 . S
H28 C4 0.930 . S
H29 C1 0.930 . S
H30 C10 0.930 . S
H31 C22 0.929 . S
H32 C25 0.930 . S
C33 C34 1.351 . S
C33 N36 1.368 1_545 S
C33 H38 0.931 . S
C34 C33 1.351 . S
C34 N35 1.373 . S
C34 H62 0.930 . S
N35 C34 1.373 . S
N35 C37 1.340 1_545 S
N36 C33 1.368 1_565 S
N36 C37 1.321 . S
N36 Co39 2.135 . S
C37 N35 1.340 1_565 S
C37 N36 1.321 . S
C37 H61 0.930 . S
H38 C33 0.931 . S
Co39 N36 2.135 . S
Co39 N42 2.121 . S
Co39 O47 2.055 . S
Co39 O50 2.039 . S
Co39 N53 2.140 1_565 S
C40 O41 1.227 . S
C40 O50 1.265 . S
O41 C40 1.227 . S
N42 Co39 2.121 . S
N42 C44 1.375 . S
N42 C45 1.313 . S
C43 C44 1.338 . S
C43 N46 1.377 . S
C43 H63 0.930 . S
C44 N42 1.375 . S
C44 C43 1.338 . S
C44 H48 0.931 . S
C45 N42 1.313 . S
C45 N46 1.344 . S
C45 H49 0.930 . S
N46 C43 1.377 . S
N46 C45 1.344 . S
O47 Co39 2.055 . S
O47 C51 1.253 . S
H48 C44 0.931 . S
H49 C45 0.930 . S
O50 Co39 2.039 . S
O50 C40 1.265 . S
C51 O47 1.253 . S
C51 O52 1.227 1_565 S
O52 C51 1.227 1_545 S
N53 Co39 2.140 1_545 S
N53 C56 1.346 . S
N53 C57 1.345 . S
C54 C55 1.387 . S
C54 C58 1.391 . S
C55 C54 1.387 . S
C55 C56 1.369 . S
C55 H64 0.929 . S
C56 N53 1.346 . S
C56 C55 1.369 . S
C56 H59 0.928 . S
C57 N53 1.345 . S
C57 C58 1.371 . S
C57 H60 0.931 . S
C58 C54 1.391 . S
C58 C57 1.371 . S
C58 H65 0.930 . S
H59 C56 0.928 . S
H60 C57 0.931 . S
H61 C37 0.930 . S
H62 C34 0.930 . S
H63 C43 0.930 . S
H64 C55 0.929 . S
H65 C58 0.930 . S
C66 C67 1.351 . S
C66 N69 1.368 . S
C66 H71 0.931 . S
C67 C66 1.351 . S
C67 N68 1.373 . S
C67 H95 0.930 . S
N68 C67 1.373 . S
N68 C70 1.340 . S
N69 C66 1.368 . S
N69 C70 1.321 . S
N69 Co72 2.135 . S
C70 N68 1.340 . S
C70 N69 1.321 . S
C70 H94 0.930 . S
H71 C66 0.931 . S
Co72 N69 2.135 . S
Co72 N75 2.121 . S
Co72 O80 2.055 . S
Co72 O83 2.039 . S
Co72 N86 2.140 . S
C73 O74 1.227 . S
C73 O83 1.265 . S
O74 C73 1.227 . S
N75 Co72 2.121 . S
N75 C77 1.375 . S
N75 C78 1.313 . S
C76 C77 1.338 . S
C76 N79 1.377 . S
C76 H96 0.930 . S
C77 N75 1.375 . S
C77 C76 1.338 . S
C77 H81 0.931 . S
C78 N75 1.313 . S
C78 N79 1.344 . S
C78 H82 0.930 . S
N79 C76 1.377 . S
N79 C78 1.344 . S
O80 Co72 2.055 . S
O80 C84 1.253 . S
H81 C77 0.931 . S
H82 C78 0.930 . S
O83 Co72 2.039 . S
O83 C73 1.265 . S
C84 O80 1.253 . S
C84 O85 1.227 . S
O85 C84 1.227 . S
N86 Co72 2.140 . S
N86 C89 1.346 . S
N86 C90 1.345 . S
C87 C88 1.387 . S
C87 C91 1.391 . S
C88 C87 1.387 . S
C88 C89 1.369 . S
C88 H97 0.929 . S
C89 N86 1.346 . S
C89 C88 1.369 . S
C89 H92 0.928 . S
C90 N86 1.345 . S
C90 C91 1.371 . S
C90 H93 0.931 . S
C91 C87 1.391 . S
C91 C90 1.371 . S
C91 H98 0.930 . S
H92 C89 0.928 . S
H93 C90 0.931 . S
H94 C70 0.930 . S
H95 C67 0.930 . S
H96 C76 0.930 . S
H97 C88 0.929 . S
H98 C91 0.930 . S
C99 C100 1.351 . S
C99 N102 1.368 1_655 S
C99 H104 0.931 . S
C100 C99 1.351 . S
C100 N101 1.373 . S
C100 H128 0.930 . S
N101 C100 1.373 . S
N101 C103 1.340 1_655 S
N102 C99 1.368 1_455 S
N102 C103 1.321 . S
N102 Co105 2.135 . S
C103 N101 1.340 1_455 S
C103 N102 1.321 . S
C103 H127 0.930 . S
H104 C99 0.931 . S
Co105 N102 2.135 . S
Co105 N108 2.121 . S
Co105 O113 2.055 . S
Co105 O116 2.039 . S
Co105 N119 2.140 1_455 S
C106 O107 1.227 . S
C106 O116 1.265 . S
O107 C106 1.227 . S
N108 Co105 2.121 . S
N108 C110 1.375 . S
N108 C111 1.313 . S
C109 C110 1.338 . S
C109 N112 1.377 . S
C109 H129 0.930 . S
C110 N108 1.375 . S
C110 C109 1.338 . S
C110 H114 0.931 . S
C111 N108 1.313 . S
C111 N112 1.344 . S
C111 H115 0.930 . S
N112 C109 1.377 . S
N112 C111 1.344 . S
O113 Co105 2.055 . S
O113 C117 1.253 . S
H114 C110 0.931 . S
H115 C111 0.930 . S
O116 Co105 2.039 . S
O116 C106 1.265 . S
C117 O113 1.253 . S
C117 O118 1.227 1_455 S
O118 C117 1.227 1_655 S
N119 Co105 2.140 1_655 S
N119 C122 1.346 . S
N119 C123 1.345 . S
C120 C121 1.387 . S
C120 C124 1.391 . S
C121 C120 1.387 . S
C121 C122 1.369 . S
C121 H130 0.929 . S
C122 N119 1.346 . S
C122 C121 1.369 . S
C122 H125 0.928 . S
C123 N119 1.345 . S
C123 C124 1.371 . S
C123 H126 0.931 . S
C124 C120 1.391 . S
C124 C123 1.371 . S
C124 H131 0.930 . S
H125 C122 0.928 . S
H126 C123 0.931 . S
H127 C103 0.930 . S
H128 C100 0.930 . S
H129 C109 0.930 . S
H130 C121 0.929 . S
H131 C124 0.930 . S
C132 C133 1.351 . S
C132 N135 1.368 1_565 S
C132 H137 0.931 . S
C133 C132 1.351 . S
C133 N134 1.373 . S
C133 H161 0.930 . S
N134 C133 1.373 . S
N134 C136 1.340 1_565 S
N135 C132 1.368 1_545 S
N135 C136 1.321 . S
N135 Co138 2.135 . S
C136 N134 1.340 1_545 S
C136 N135 1.321 . S
C136 H160 0.930 . S
H137 C132 0.931 . S
Co138 N135 2.135 . S
Co138 N141 2.121 . S
Co138 O146 2.055 . S
Co138 O149 2.039 . S
Co138 N152 2.140 1_545 S
C139 O140 1.227 . S
C139 O149 1.265 . S
O140 C139 1.227 . S
N141 Co138 2.121 . S
N141 C143 1.375 . S
N141 C144 1.313 . S
C142 C143 1.338 . S
C142 N145 1.377 . S
C142 H162 0.930 . S
C143 N141 1.375 . S
C143 C142 1.338 . S
C143 H147 0.931 . S
C144 N141 1.313 . S
C144 N145 1.344 . S
C144 H148 0.930 . S
N145 C142 1.377 . S
N145 C144 1.344 . S
O146 Co138 2.055 . S
O146 C150 1.253 . S
H147 C143 0.931 . S
H148 C144 0.930 . S
O149 Co138 2.039 . S
O149 C139 1.265 . S
C150 O146 1.253 . S
C150 O151 1.227 1_545 S
O151 C150 1.227 1_565 S
N152 Co138 2.140 1_565 S
N152 C155 1.346 . S
N152 C156 1.345 . S
C153 C154 1.387 . S
C153 C157 1.391 . S
C154 C153 1.387 . S
C154 C155 1.369 . S
C154 H163 0.929 . S
C155 N152 1.346 . S
C155 C154 1.369 . S
C155 H158 0.928 . S
C156 N152 1.345 . S
C156 C157 1.371 . S
C156 H159 0.931 . S
C157 C153 1.391 . S
C157 C156 1.371 . S
C157 H164 0.930 . S
H158 C155 0.928 . S
H159 C156 0.931 . S
H160 C136 0.930 . S
H161 C133 0.930 . S
H162 C142 0.930 . S
H163 C154 0.929 . S
H164 C157 0.930 . S
C165 C166 1.351 . S
C165 N168 1.368 . S
C165 H170 0.931 . S
C166 C165 1.351 . S
C166 N167 1.373 . S
C166 H194 0.930 . S
N167 C166 1.373 . S
N167 C169 1.340 . S
N168 C165 1.368 . S
N168 C169 1.321 . S
N168 Co171 2.135 . S
C169 N167 1.340 . S
C169 N168 1.321 . S
C169 H193 0.930 . S
H170 C165 0.931 . S
Co171 N168 2.135 . S
Co171 N174 2.121 . S
Co171 O179 2.055 . S
Co171 O182 2.039 . S
Co171 N185 2.140 . S
C172 O173 1.227 . S
C172 O182 1.265 . S
O173 C172 1.227 . S
N174 Co171 2.121 . S
N174 C176 1.375 . S
N174 C177 1.313 . S
C175 C176 1.338 . S
C175 N178 1.377 . S
C175 H195 0.930 . S
C176 N174 1.375 . S
C176 C175 1.338 . S
C176 H180 0.931 . S
C177 N174 1.313 . S
C177 N178 1.344 . S
C177 H181 0.930 . S
N178 C175 1.377 . S
N178 C177 1.344 . S
O179 Co171 2.055 . S
O179 C183 1.253 . S
H180 C176 0.931 . S
H181 C177 0.930 . S
O182 Co171 2.039 . S
O182 C172 1.265 . S
C183 O179 1.253 . S
C183 O184 1.227 . S
O184 C183 1.227 . S
N185 Co171 2.140 . S
N185 C188 1.346 . S
N185 C189 1.345 . S
C186 C187 1.387 . S
C186 C190 1.391 . S
C187 C186 1.387 . S
C187 C188 1.369 . S
C187 H196 0.929 . S
C188 N185 1.346 . S
C188 C187 1.369 . S
C188 H191 0.928 . S
C189 N185 1.345 . S
C189 C190 1.371 . S
C189 H192 0.931 . S
C190 C186 1.391 . S
C190 C189 1.371 . S
C190 H197 0.930 . S
H191 C188 0.928 . S
H192 C189 0.931 . S
H193 C169 0.930 . S
H194 C166 0.930 . S
H195 C175 0.930 . S
H196 C187 0.929 . S
H197 C190 0.930 . S
C198 C199 1.351 . S
C198 N201 1.368 1_565 S
C198 H203 0.931 . S
C199 C198 1.351 . S
C199 N200 1.373 . S
C199 H227 0.930 . S
N200 C199 1.373 . S
N200 C202 1.340 1_565 S
N201 C198 1.368 1_545 S
N201 C202 1.321 . S
N201 Co204 2.135 . S
C202 N200 1.340 1_545 S
C202 N201 1.321 . S
C202 H226 0.930 . S
H203 C198 0.931 . S
Co204 N201 2.135 . S
Co204 N207 2.121 . S
Co204 O212 2.055 . S
Co204 O215 2.039 . S
Co204 N218 2.140 1_545 S
C205 O206 1.227 . S
C205 O215 1.265 . S
O206 C205 1.227 . S
N207 Co204 2.121 . S
N207 C209 1.375 . S
N207 C210 1.313 . S
C208 C209 1.338 . S
C208 N211 1.377 . S
C208 H228 0.930 . S
C209 N207 1.375 . S
C209 C208 1.338 . S
C209 H213 0.931 . S
C210 N207 1.313 . S
C210 N211 1.344 . S
C210 H214 0.930 . S
N211 C208 1.377 . S
N211 C210 1.344 . S
O212 Co204 2.055 . S
O212 C216 1.253 . S
H213 C209 0.931 . S
H214 C210 0.930 . S
O215 Co204 2.039 . S
O215 C205 1.265 . S
C216 O212 1.253 . S
C216 O217 1.227 1_545 S
O217 C216 1.227 1_565 S
N218 Co204 2.140 1_565 S
N218 C221 1.346 . S
N218 C222 1.345 . S
C219 C220 1.387 . S
C219 C223 1.391 . S
C220 C219 1.387 . S
C220 C221 1.369 . S
C220 H229 0.929 . S
C221 N218 1.346 . S
C221 C220 1.369 . S
C221 H224 0.928 . S
C222 N218 1.345 . S
C222 C223 1.371 . S
C222 H225 0.931 . S
C223 C219 1.391 . S
C223 C222 1.371 . S
C223 H230 0.930 . S
H224 C221 0.928 . S
H225 C222 0.931 . S
H226 C202 0.930 . S
H227 C199 0.930 . S
H228 C208 0.930 . S
H229 C220 0.929 . S
H230 C223 0.930 . S
C231 C232 1.351 . S
C231 N234 1.368 . S
C231 H236 0.931 . S
C232 C231 1.351 . S
C232 N233 1.373 . S
C232 H260 0.930 . S
N233 C232 1.373 . S
N233 C235 1.340 . S
N234 C231 1.368 . S
N234 C235 1.321 . S
N234 Co237 2.135 . S
C235 N233 1.340 . S
C235 N234 1.321 . S
C235 H259 0.930 . S
H236 C231 0.931 . S
Co237 N234 2.135 . S
Co237 N240 2.121 . S
Co237 O245 2.055 . S
Co237 O248 2.039 . S
Co237 N251 2.140 . S
C238 O239 1.227 . S
C238 O248 1.265 . S
O239 C238 1.227 . S
N240 Co237 2.121 . S
N240 C242 1.375 . S
N240 C243 1.313 . S
C241 C242 1.338 1_554 S
C241 N244 1.377 1_554 S
C241 H261 0.930 . S
C242 N240 1.375 . S
C242 C241 1.338 1_556 S
C242 H246 0.931 . S
C243 N240 1.313 . S
C243 N244 1.344 . S
C243 H247 0.930 . S
N244 C241 1.377 1_556 S
N244 C243 1.344 . S
O245 Co237 2.055 . S
O245 C249 1.253 . S
H246 C242 0.931 . S
H247 C243 0.930 . S
O248 Co237 2.039 . S
O248 C238 1.265 . S
C249 O245 1.253 . S
C249 O250 1.227 . S
O250 C249 1.227 . S
N251 Co237 2.140 . S
N251 C254 1.346 . S
N251 C255 1.345 . S
C252 C253 1.387 . S
C252 C256 1.391 . S
C253 C252 1.387 . S
C253 C254 1.369 . S
C253 H262 0.929 . S
C254 N251 1.346 . S
C254 C253 1.369 . S
C254 H257 0.928 . S
C255 N251 1.345 . S
C255 C256 1.371 . S
C255 H258 0.931 . S
C256 C252 1.391 . S
C256 C255 1.371 . S
C256 H263 0.930 . S
H257 C254 0.928 . S
H258 C255 0.931 . S
H259 C235 0.930 . S
H260 C232 0.930 . S
H261 C241 0.930 . S
H262 C253 0.929 . S
H263 C256 0.930 . S
C264 C265 1.351 . S
C264 N267 1.368 1_455 S
C264 H269 0.931 . S
C265 C264 1.351 . S
C265 N266 1.373 . S
C265 H293 0.930 . S
N266 C265 1.373 . S
N266 C268 1.340 1_455 S
N267 C264 1.368 1_655 S
N267 C268 1.321 . S
N267 Co270 2.135 . S
C268 N266 1.340 1_655 S
C268 N267 1.321 . S
C268 H292 0.930 . S
H269 C264 0.931 . S
Co270 N267 2.135 . S
Co270 N273 2.121 . S
Co270 O278 2.055 . S
Co270 O281 2.039 . S
Co270 N284 2.140 1_655 S
C271 O272 1.227 . S
C271 O281 1.265 . S
O272 C271 1.227 . S
N273 Co270 2.121 . S
N273 C275 1.375 . S
N273 C276 1.313 . S
C274 C275 1.338 . S
C274 N277 1.377 . S
C274 H294 0.930 . S
C275 N273 1.375 . S
C275 C274 1.338 . S
C275 H279 0.931 . S
C276 N273 1.313 . S
C276 N277 1.344 . S
C276 H280 0.930 . S
N277 C274 1.377 . S
N277 C276 1.344 . S
O278 Co270 2.055 . S
O278 C282 1.253 . S
H279 C275 0.931 . S
H280 C276 0.930 . S
O281 Co270 2.039 . S
O281 C271 1.265 . S
C282 O278 1.253 . S
C282 O283 1.227 1_655 S
O283 C282 1.227 1_455 S
N284 Co270 2.140 1_455 S
N284 C287 1.346 . S
N284 C288 1.345 . S
C285 C286 1.387 . S
C285 C289 1.391 . S
C286 C285 1.387 . S
C286 C287 1.369 . S
C286 H295 0.929 . S
C287 N284 1.346 . S
C287 C286 1.369 . S
C287 H290 0.928 . S
C288 N284 1.345 . S
C288 C289 1.371 . S
C288 H291 0.931 . S
C289 C285 1.391 . S
C289 C288 1.371 . S
C289 H296 0.930 . S
H290 C287 0.928 . S
H291 C288 0.931 . S
H292 C268 0.930 . S
H293 C265 0.930 . S
H294 C274 0.930 . S
H295 C286 0.929 . S
H296 C289 0.930 . S
C297 C298 1.351 . S
C297 N300 1.368 1_545 S
C297 H302 0.931 . S
C298 C297 1.351 . S
C298 N299 1.373 . S
C298 H326 0.930 . S
N299 C298 1.373 . S
N299 C301 1.340 1_545 S
N300 C297 1.368 1_565 S
N300 C301 1.321 . S
N300 Co303 2.135 . S
C301 N299 1.340 1_565 S
C301 N300 1.321 . S
C301 H325 0.930 . S
H302 C297 0.931 . S
Co303 N300 2.135 . S
Co303 N306 2.121 . S
Co303 O311 2.055 . S
Co303 O314 2.039 . S
Co303 N317 2.140 1_565 S
C304 O305 1.227 . S
C304 O314 1.265 . S
O305 C304 1.227 . S
N306 Co303 2.121 . S
N306 C308 1.375 . S
N306 C309 1.313 . S
C307 C308 1.338 . S
C307 N310 1.377 . S
C307 H327 0.930 . S
C308 N306 1.375 . S
C308 C307 1.338 . S
C308 H312 0.931 . S
C309 N306 1.313 . S
C309 N310 1.344 . S
C309 H313 0.930 . S
N310 C307 1.377 . S
N310 C309 1.344 . S
O311 Co303 2.055 . S
O311 C315 1.253 . S
H312 C308 0.931 . S
H313 C309 0.930 . S
O314 Co303 2.039 . S
O314 C304 1.265 . S
C315 O311 1.253 . S
C315 O316 1.227 1_565 S
O316 C315 1.227 1_545 S
N317 Co303 2.140 1_545 S
N317 C320 1.346 . S
N317 C321 1.345 . S
C318 C319 1.387 . S
C318 C322 1.391 . S
C319 C318 1.387 . S
C319 C320 1.369 . S
C319 H328 0.929 . S
C320 N317 1.346 . S
C320 C319 1.369 . S
C320 H323 0.928 . S
C321 N317 1.345 . S
C321 C322 1.371 . S
C321 H324 0.931 . S
C322 C318 1.391 . S
C322 C321 1.371 . S
C322 H329 0.930 . S
H323 C320 0.928 . S
H324 C321 0.931 . S
H325 C301 0.930 . S
H326 C298 0.930 . S
H327 C307 0.930 . S
H328 C319 0.929 . S
H329 C322 0.930 . S
C330 C331 1.351 . S
C330 N333 1.368 . S
C330 H335 0.931 . S
C331 C330 1.351 . S
C331 N332 1.373 . S
C331 H359 0.930 . S
N332 C331 1.373 . S
N332 C334 1.340 . S
N333 C330 1.368 . S
N333 C334 1.321 . S
N333 Co336 2.135 . S
C334 N332 1.340 . S
C334 N333 1.321 . S
C334 H358 0.930 . S
H335 C330 0.931 . S
Co336 N333 2.135 . S
Co336 N339 2.121 . S
Co336 O344 2.055 . S
Co336 O347 2.039 . S
Co336 N350 2.140 . S
C337 O338 1.227 . S
C337 O347 1.265 . S
O338 C337 1.227 . S
N339 Co336 2.121 . S
N339 C341 1.375 . S
N339 C342 1.313 . S
C340 C341 1.338 . S
C340 N343 1.377 . S
C340 H360 0.930 . S
C341 N339 1.375 . S
C341 C340 1.338 . S
C341 H345 0.931 . S
C342 N339 1.313 . S
C342 N343 1.344 . S
C342 H346 0.930 . S
N343 C340 1.377 . S
N343 C342 1.344 . S
O344 Co336 2.055 . S
O344 C348 1.253 . S
H345 C341 0.931 . S
H346 C342 0.930 . S
O347 Co336 2.039 . S
O347 C337 1.265 . S
C348 O344 1.253 . S
C348 O349 1.227 . S
O349 C348 1.227 . S
N350 Co336 2.140 . S
N350 C353 1.346 . S
N350 C354 1.345 . S
C351 C352 1.387 . S
C351 C355 1.391 . S
C352 C351 1.387 . S
C352 C353 1.369 . S
C352 H361 0.929 . S
C353 N350 1.346 . S
C353 C352 1.369 . S
C353 H356 0.928 . S
C354 N350 1.345 . S
C354 C355 1.371 . S
C354 H357 0.931 . S
C355 C351 1.391 . S
C355 C354 1.371 . S
C355 H362 0.930 . S
H356 C353 0.928 . S
H357 C354 0.931 . S
H358 C334 0.930 . S
H359 C331 0.930 . S
H360 C340 0.930 . S
H361 C352 0.929 . S
H362 C355 0.930 . S
C363 C364 1.351 . S
C363 N366 1.368 1_655 S
C363 H368 0.931 . S
C364 C363 1.351 . S
C364 N365 1.373 . S
C364 H392 0.930 . S
N365 C364 1.373 . S
N365 C367 1.340 1_655 S
N366 C363 1.368 1_455 S
N366 C367 1.321 . S
N366 Co369 2.135 . S
C367 N365 1.340 1_455 S
C367 N366 1.321 . S
C367 H391 0.930 . S
H368 C363 0.931 . S
Co369 N366 2.135 . S
Co369 N372 2.121 . S
Co369 O377 2.055 . S
Co369 O380 2.039 . S
Co369 N383 2.140 1_455 S
C370 O371 1.227 . S
C370 O380 1.265 . S
O371 C370 1.227 . S
N372 Co369 2.121 . S
N372 C374 1.375 . S
N372 C375 1.313 . S
C373 C374 1.338 . S
C373 N376 1.377 . S
C373 H393 0.930 . S
C374 N372 1.375 . S
C374 C373 1.338 . S
C374 H378 0.931 . S
C375 N372 1.313 . S
C375 N376 1.344 . S
C375 H379 0.930 . S
N376 C373 1.377 . S
N376 C375 1.344 . S
O377 Co369 2.055 . S
O377 C381 1.253 . S
H378 C374 0.931 . S
H379 C375 0.930 . S
O380 Co369 2.039 . S
O380 C370 1.265 . S
C381 O377 1.253 . S
C381 O382 1.227 1_455 S
O382 C381 1.227 1_655 S
N383 Co369 2.140 1_655 S
N383 C386 1.346 . S
N383 C387 1.345 . S
C384 C385 1.387 . S
C384 C388 1.391 . S
C385 C384 1.387 . S
C385 C386 1.369 . S
C385 H394 0.929 . S
C386 N383 1.346 . S
C386 C385 1.369 . S
C386 H389 0.928 . S
C387 N383 1.345 . S
C387 C388 1.371 . S
C387 H390 0.931 . S
C388 C384 1.391 . S
C388 C387 1.371 . S
C388 H395 0.930 . S
H389 C386 0.928 . S
H390 C387 0.931 . S
H391 C367 0.930 . S
H392 C364 0.930 . S
H393 C373 0.930 . S
H394 C385 0.929 . S
H395 C388 0.930 . S
C396 C397 1.369 1_545 S
C396 C398 1.419 . S
C396 H400 0.930 . S
C397 C396 1.369 1_565 S
C397 C406 1.429 1_556 S
C398 C396 1.419 . S
C398 C399 1.363 1_556 S
C398 H401 0.929 . S
C399 C398 1.363 1_554 S
C399 C405 1.428 . S
H400 C396 0.930 . S
H401 C398 0.929 . S
S402 N403 1.613 . S
S402 N404 1.610 . S
N403 S402 1.613 . S
N403 C406 1.350 . S
N404 S402 1.610 . S
N404 C405 1.351 1_565 S
C405 C399 1.428 . S
C405 N404 1.351 1_545 S
C405 C406 1.434 1_545 S
C406 C397 1.429 1_554 S
C406 N403 1.350 . S
C406 C405 1.434 1_565 S
C407 C408 1.369 . S
C407 C409 1.419 . S
C407 H411 0.930 . S
C408 C407 1.369 . S
C408 C417 1.429 . S
C409 C407 1.419 . S
C409 C410 1.363 . S
C409 H412 0.929 . S
C410 C409 1.363 . S
C410 C416 1.428 . S
H411 C407 0.930 . S
H412 C409 0.929 . S
S413 N414 1.613 . S
S413 N415 1.610 . S
N414 S413 1.613 . S
N414 C417 1.350 . S
N415 S413 1.610 . S
N415 C416 1.351 . S
C416 C410 1.428 . S
C416 N415 1.351 . S
C416 C417 1.434 . S
C417 C408 1.429 . S
C417 N414 1.350 . S
C417 C416 1.434 . S
C418 C419 1.369 1_455 S
C418 C420 1.419 . S
C418 H422 0.930 . S
C419 C418 1.369 1_655 S
C419 C428 1.429 . S
C420 C418 1.419 . S
C420 C421 1.363 . S
C420 H423 0.929 . S
C421 C420 1.363 . S
C421 C427 1.428 1_455 S
H422 C418 0.930 . S
H423 C420 0.929 . S
S424 N425 1.613 . S
S424 N426 1.610 . S
N425 S424 1.613 . S
N425 C428 1.350 . S
N426 S424 1.610 . S
N426 C427 1.351 . S
C427 C421 1.428 1_655 S
C427 N426 1.351 . S
C427 C428 1.434 . S
C428 C419 1.429 . S
C428 N425 1.350 . S
C428 C427 1.434 . S
C429 C430 1.369 1_565 S
C429 C431 1.419 . S
C429 H433 0.930 . S
C430 C429 1.369 1_545 S
C430 C439 1.429 . S
C431 C429 1.419 . S
C431 C432 1.363 . S
C431 H434 0.929 . S
C432 C431 1.363 . S
C432 C438 1.428 1_565 S
H433 C429 0.930 . S
H434 C431 0.929 . S
S435 N436 1.613 . S
S435 N437 1.610 . S
N436 S435 1.613 . S
N436 C439 1.350 . S
N437 S435 1.610 . S
N437 C438 1.351 . S
C438 C432 1.428 1_545 S
C438 N437 1.351 . S
C438 C439 1.434 . S
C439 C430 1.429 . S
C439 N436 1.350 . S
C439 C438 1.434 . S
C440 C441 1.369 . S
C440 C442 1.419 . S
C440 H444 0.930 . S
C441 C440 1.369 . S
C441 C450 1.429 . S
C442 C440 1.419 . S
C442 C443 1.363 . S
C442 H445 0.929 . S
C443 C442 1.363 . S
C443 C449 1.428 . S
H444 C440 0.930 . S
H445 C442 0.929 . S
S446 N447 1.613 . S
S446 N448 1.610 . S
N447 S446 1.613 . S
N447 C450 1.350 . S
N448 S446 1.610 . S
N448 C449 1.351 . S
C449 C443 1.428 . S
C449 N448 1.351 . S
C449 C450 1.434 . S
C450 C441 1.429 . S
C450 N447 1.350 . S
C450 C449 1.434 . S
C451 C452 1.369 . S
C451 C453 1.419 . S
C451 H455 0.930 . S
C452 C451 1.369 . S
C452 C461 1.428 . S
C453 C451 1.419 . S
C453 C454 1.363 1_655 S
C453 H456 0.929 . S
C454 C453 1.363 1_455 S
C454 C460 1.428 . S
H455 C451 0.930 . S
H456 C453 0.929 . S
S457 N458 1.613 . S
S457 N459 1.610 . S
N458 S457 1.613 . S
N458 C461 1.350 1_455 S
N459 S457 1.610 . S
N459 C460 1.351 . S
C460 C454 1.428 . S
C460 N459 1.351 . S
C460 C461 1.435 1_455 S
C461 C452 1.428 . S
C461 N458 1.350 1_655 S
C461 C460 1.435 1_655 S
C462 C463 1.369 . S
C462 C464 1.419 1_545 S
C462 H466 0.930 . S
C463 C462 1.369 . S
C463 C472 1.429 . S
C464 C462 1.419 1_565 S
C464 C465 1.363 . S
C464 H467 0.929 . S
C465 C464 1.363 . S
C465 C471 1.428 1_565 S
H466 C462 0.930 . S
H467 C464 0.929 . S
S468 N469 1.613 . S
S468 N470 1.610 . S
N469 S468 1.613 . S
N469 C472 1.350 1_655 S
N470 S468 1.610 . S
N470 C471 1.351 1_655 S
C471 C465 1.428 1_545 S
C471 N470 1.351 1_455 S
C471 C472 1.434 . S
C472 C463 1.429 . S
C472 N469 1.350 1_455 S
C472 C471 1.434 . S
C473 C474 1.369 . S
C473 C475 1.419 1_655 S
C473 H477 0.930 . S
C474 C473 1.369 . S
C474 C483 1.429 1_645 S
C475 C473 1.419 1_455 S
C475 C476 1.363 . S
C475 H478 0.929 . S
C476 C475 1.363 . S
C476 C482 1.428 1_545 S
H477 C473 0.930 . S
H478 C475 0.929 . S
S479 N480 1.613 1_455 S
S479 N481 1.610 . S
N480 S479 1.613 1_655 S
N480 C483 1.350 1_655 S
N481 S479 1.610 . S
N481 C482 1.351 . S
C482 C476 1.428 1_565 S
C482 N481 1.351 . S
C482 C483 1.434 . S
C483 C474 1.429 1_465 S
C483 N480 1.350 1_455 S
C483 C482 1.434 . S
C484 C485 1.369 . S
C484 C486 1.419 1_545 S
C484 H488 0.930 . S
C485 C484 1.369 . S
C485 C494 1.429 1_455 S
C486 C484 1.419 1_565 S
C486 C487 1.363 1_455 S
C486 H489 0.929 . S
C487 C486 1.363 1_655 S
C487 C493 1.428 . S
H488 C484 0.930 . S
H489 C486 0.929 . S
S490 N491 1.613 . S
S490 N492 1.610 1_545 S
N491 S490 1.613 . S
N491 C494 1.350 . S
N492 S490 1.610 1_565 S
N492 C493 1.351 . S
C493 C487 1.428 . S
C493 N492 1.351 . S
C493 C494 1.434 1_565 S
C494 C485 1.429 1_655 S
C494 N491 1.350 . S
C494 C493 1.434 1_545 S
C495 C496 1.369 . S
C495 C497 1.419 1_545 S
C495 H499 0.930 . S
C496 C495 1.369 . S
C496 C505 1.429 1_545 S
C497 C495 1.419 1_565 S
C497 C498 1.363 . S
C497 H500 0.929 . S
C498 C497 1.363 . S
C498 C504 1.428 . S
H499 C495 0.930 . S
H500 C497 0.929 . S
S501 N502 1.613 . S
S501 N503 1.610 . S
N502 S501 1.613 . S
N502 C505 1.350 . S
N503 S501 1.610 . S
N503 C504 1.351 . S
C504 C498 1.428 . S
C504 N503 1.351 . S
C504 C505 1.434 . S
C505 C496 1.429 1_565 S
C505 N502 1.350 . S
C505 C504 1.434 . S
C506 C507 1.369 1_545 S
C506 C508 1.419 1_455 S
C506 H510 0.930 . S
C507 C506 1.369 1_565 S
C507 C516 1.429 1_455 S
C508 C506 1.419 1_655 S
C508 C509 1.363 1_545 S
C508 H511 0.929 . S
C509 C508 1.363 1_565 S
C509 C515 1.428 . S
H510 C506 0.930 . S
H511 C508 0.929 . S
S512 N513 1.613 . S
S512 N514 1.610 . S
N513 S512 1.613 . S
N513 C516 1.350 . S
N514 S512 1.610 . S
N514 C515 1.351 . S
C515 C509 1.428 . S
C515 N514 1.351 . S
C515 C516 1.434 . S
C516 C507 1.429 1_655 S
C516 N513 1.350 . S
C516 C515 1.434 . S
C517 C518 1.369 . S
C517 C519 1.419 1_565 S
C517 H521 0.930 . S
C518 C517 1.369 . S
C518 C527 1.429 1_655 S
C519 C517 1.419 1_545 S
C519 C520 1.363 1_655 S
C519 H522 0.929 . S
C520 C519 1.363 1_455 S
C520 C526 1.428 . S
H521 C517 0.930 . S
H522 C519 0.929 . S
S523 N524 1.613 1_545 S
S523 N525 1.610 . S
N524 S523 1.613 1_565 S
N524 C527 1.350 . S
N525 S523 1.610 . S
N525 C526 1.351 . S
C526 C520 1.428 . S
C526 N525 1.351 . S
C526 C527 1.434 1_545 S
C527 C518 1.429 1_455 S
C527 N524 1.350 . S
C527 C526 1.434 1_565 S
C528 C529 1.369 . S
C528 C530 1.419 . S
C528 H532 0.930 . S
C529 C528 1.369 . S
C529 C538 1.429 1_556 S
C530 C528 1.419 . S
C530 C531 1.363 1_556 S
C530 H533 0.929 . S
C531 C530 1.363 1_554 S
C531 C537 1.428 . S
H532 C528 0.930 . S
H533 C530 0.929 . S
S534 N535 1.613 . S
S534 N536 1.610 . S
N535 S534 1.613 . S
N535 C538 1.350 . S
N536 S534 1.610 . S
N536 C537 1.351 . S
C537 C531 1.428 . S
C537 N536 1.351 . S
C537 C538 1.434 . S
C538 C529 1.429 1_554 S
C538 N535 1.350 . S
C538 C537 1.434 . S
C539 C540 1.369 . S
C539 C541 1.419 . S
C539 H543 0.930 . S
C540 C539 1.369 . S
C540 C549 1.429 . S
C541 C539 1.419 . S
C541 C542 1.363 . S
C541 H544 0.929 . S
C542 C541 1.363 . S
C542 C548 1.428 . S
H543 C539 0.930 . S
H544 C541 0.929 . S
S545 N546 1.613 . S
S545 N547 1.610 1_455 S
N546 S545 1.613 . S
N546 C549 1.350 1_455 S
N547 S545 1.610 1_655 S
N547 C548 1.351 . S
C548 C542 1.428 . S
C548 N547 1.351 . S
C548 C549 1.434 . S
C549 C540 1.429 . S
C549 N546 1.350 1_655 S
C549 C548 1.434 . S
C550 C551 1.369 . S
C550 C552 1.419 . S
C550 H554 0.930 . S
C551 C550 1.369 . S
C551 C560 1.429 . S
C552 C550 1.419 . S
C552 C553 1.363 . S
C552 H555 0.929 . S
C553 C552 1.363 . S
C553 C559 1.428 . S
H554 C550 0.930 . S
H555 C552 0.929 . S
S556 N557 1.613 . S
S556 N558 1.610 . S
N557 S556 1.613 . S
N557 C560 1.350 . S
N558 S556 1.610 . S
N558 C559 1.351 . S
C559 C553 1.428 . S
C559 N558 1.351 . S
C559 C560 1.434 . S
C560 C551 1.429 . S
C560 N557 1.350 . S
C560 C559 1.434 . S
C561 C562 1.369 . S
C561 C563 1.419 . S
C561 H565 0.930 . S
C562 C561 1.369 . S
C562 C571 1.429 . S
C563 C561 1.419 . S
C563 C564 1.363 . S
C563 H566 0.929 . S
C564 C563 1.363 . S
C564 C570 1.428 . S
H565 C561 0.930 . S
H566 C563 0.929 . S
S567 N568 1.613 . S
S567 N569 1.610 . S
N568 S567 1.613 . S
N568 C571 1.350 . S
N569 S567 1.610 . S
N569 C570 1.351 . S
C570 C564 1.428 . S
C570 N569 1.351 . S
C570 C571 1.434 . S
C571 C562 1.429 . S
C571 N568 1.350 . S
C571 C570 1.434 . S
C572 C573 1.369 . S
C572 C574 1.419 . S
C572 H576 0.930 . S
C573 C572 1.369 . S
C573 C582 1.429 . S
C574 C572 1.419 . S
C574 C575 1.363 . S
C574 H577 0.929 . S
C575 C574 1.363 . S
C575 C581 1.428 . S
H576 C572 0.930 . S
H577 C574 0.929 . S
S578 N579 1.613 . S
S578 N580 1.610 . S
N579 S578 1.613 . S
N579 C582 1.350 . S
N580 S578 1.610 . S
N580 C581 1.351 . S
C581 C575 1.428 . S
C581 N580 1.351 . S
C581 C582 1.434 . S
C582 C573 1.429 . S
C582 N579 1.350 . S
C582 C581 1.434 . S
C583 C584 1.369 . S
C583 C585 1.419 . S
C583 H587 0.930 . S
C584 C583 1.369 . S
C584 C593 1.429 . S
C585 C583 1.419 . S
C585 C586 1.363 . S
C585 H588 0.929 . S
C586 C585 1.363 . S
C586 C592 1.428 . S
H587 C583 0.930 . S
H588 C585 0.929 . S
S589 N590 1.613 . S
S589 N591 1.610 . S
N590 S589 1.613 . S
N590 C593 1.350 . S
N591 S589 1.610 . S
N591 C592 1.351 . S
C592 C586 1.428 . S
C592 N591 1.351 . S
C592 C593 1.434 . S
C593 C584 1.429 . S
C593 N590 1.350 . S
C593 C592 1.434 . S
C594 C595 1.369 . S
C594 C596 1.419 . S
C594 H598 0.930 . S
C595 C594 1.369 . S
C595 C604 1.429 . S
C596 C594 1.419 . S
C596 C597 1.363 . S
C596 H599 0.929 . S
C597 C596 1.363 . S
C597 C603 1.428 . S
H598 C594 0.930 . S
H599 C596 0.929 . S
S600 N601 1.613 . S
S600 N602 1.610 . S
N601 S600 1.613 . S
N601 C604 1.350 . S
N602 S600 1.610 . S
N602 C603 1.351 . S
C603 C597 1.428 . S
C603 N602 1.351 . S
C603 C604 1.434 . S
C604 C595 1.429 . S
C604 N601 1.350 . S
C604 C603 1.434 . S
C605 C606 1.369 1_556 S
C605 C607 1.419 . S
C605 H609 0.930 . S
C606 C605 1.369 1_554 S
C606 C615 1.429 . S
C607 C605 1.419 . S
C607 C608 1.363 . S
C607 H610 0.929 . S
C608 C607 1.363 . S
C608 C614 1.428 1_556 S
H609 C605 0.930 . S
H610 C607 0.929 . S
S611 N612 1.613 . S
S611 N613 1.610 . S
N612 S611 1.613 . S
N612 C615 1.350 . S
N613 S611 1.610 . S
N613 C614 1.351 . S
C614 C608 1.428 1_554 S
C614 N613 1.351 . S
C614 C615 1.434 . S
C615 C606 1.429 . S
C615 N612 1.350 . S
C615 C614 1.434 . S
C616 C617 1.369 . S
C616 C618 1.419 . S
C616 H620 0.930 . S
C617 C616 1.369 . S
C617 C626 1.429 . S
C618 C616 1.419 . S
C618 C619 1.363 . S
C618 H621 0.929 . S
C619 C618 1.363 . S
C619 C625 1.428 . S
H620 C616 0.930 . S
H621 C618 0.929 . S
S622 N623 1.613 . S
S622 N624 1.610 . S
N623 S622 1.613 . S
N623 C626 1.350 . S
N624 S622 1.610 . S
N624 C625 1.351 . S
C625 C619 1.428 . S
C625 N624 1.351 . S
C625 C626 1.434 . S
C626 C617 1.429 . S
C626 N623 1.350 . S
C626 C625 1.434 . S
C627 C628 1.369 . S
C627 C629 1.419 . S
C627 H631 0.930 . S
C628 C627 1.369 . S
C628 C637 1.429 . S
C629 C627 1.419 . S
C629 C630 1.363 . S
C629 H632 0.929 . S
C630 C629 1.363 . S
C630 C636 1.428 . S
H631 C627 0.930 . S
H632 C629 0.929 . S
S633 N634 1.613 . S
S633 N635 1.610 . S
N634 S633 1.613 . S
N634 C637 1.350 . S
N635 S633 1.610 . S
N635 C636 1.351 . S
C636 C630 1.428 . S
C636 N635 1.351 . S
C636 C637 1.434 . S
C637 C628 1.429 . S
C637 N634 1.350 . S
C637 C636 1.434 . S
C638 C639 1.369 . S
C638 C640 1.419 . S
C638 H642 0.930 . S
C639 C638 1.369 . S
C639 C648 1.429 . S
C640 C638 1.419 . S
C640 C641 1.363 . S
C640 H643 0.929 . S
C641 C640 1.363 . S
C641 C647 1.428 . S
H642 C638 0.930 . S
H643 C640 0.929 . S
S644 N645 1.613 . S
S644 N646 1.610 1_655 S
N645 S644 1.613 . S
N645 C648 1.350 1_655 S
N646 S644 1.610 1_455 S
N646 C647 1.351 . S
C647 C641 1.428 . S
C647 N646 1.351 . S
C647 C648 1.434 . S
C648 C639 1.429 . S
C648 N645 1.350 1_455 S
C648 C647 1.434 . S
C649 C650 1.369 . S
C649 C651 1.419 . S
C649 H653 0.930 . S
C650 C649 1.369 . S
C650 C659 1.429 . S
C651 C649 1.419 . S
C651 C652 1.363 . S
C651 H654 0.929 . S
C652 C651 1.363 . S
C652 C658 1.428 . S
H653 C649 0.930 . S
H654 C651 0.929 . S
S655 N656 1.613 . S
S655 N657 1.610 . S
N656 S655 1.613 . S
N656 C659 1.350 . S
N657 S655 1.610 . S
N657 C658 1.351 . S
C658 C652 1.428 . S
C658 N657 1.351 . S
C658 C659 1.434 . S
C659 C650 1.429 . S
C659 N656 1.350 . S
C659 C658 1.434 . S
C660 C661 1.367 1_455 S
C660 C662 1.419 1_455 S
C660 H664 0.931 . S
C661 C660 1.367 1_655 S
C661 C670 1.429 . S
C662 C660 1.419 1_655 S
C662 C663 1.363 . S
C662 H665 0.930 1_655 S
C663 C662 1.363 . S
C663 C669 1.428 . S
H664 C660 0.931 . S
H665 C662 0.930 1_455 S
S666 N667 1.613 . S
S666 N668 1.610 . S
N667 S666 1.613 . S
N667 C670 1.350 . S
N668 S666 1.610 . S
N668 C669 1.351 . S
C669 C663 1.428 . S
C669 N668 1.351 . S
C669 C670 1.434 . S
C670 C661 1.429 . S
C670 N667 1.350 . S
C670 C669 1.434 . S
C671 C672 1.369 . S
C671 C673 1.419 . S
C671 H675 0.930 . S
C672 C671 1.369 . S
C672 C681 1.429 . S
C673 C671 1.419 . S
C673 C674 1.363 . S
C673 H676 0.929 . S
C674 C673 1.363 . S
C674 C680 1.428 . S
H675 C671 0.930 . S
H676 C673 0.929 . S
S677 N678 1.613 . S
S677 N679 1.610 . S
N678 S677 1.613 . S
N678 C681 1.350 1_545 S
N679 S677 1.610 . S
N679 C680 1.351 1_545 S
C680 C674 1.428 . S
C680 N679 1.351 1_565 S
C680 C681 1.434 . S
C681 C672 1.429 . S
C681 N678 1.350 1_565 S
C681 C680 1.434 . S
C682 C683 1.369 . S
C682 C684 1.419 . S
C682 H686 0.930 . S
C683 C682 1.369 . S
C683 C692 1.429 . S
C684 C682 1.419 . S
C684 C685 1.363 . S
C684 H687 0.929 . S
C685 C684 1.363 . S
C685 C691 1.428 . S
H686 C682 0.930 . S
H687 C684 0.929 . S
S688 N689 1.613 . S
S688 N690 1.610 . S
N689 S688 1.613 . S
N689 C692 1.350 . S
N690 S688 1.610 . S
N690 C691 1.351 . S
C691 C685 1.428 . S
C691 N690 1.351 . S
C691 C692 1.434 . S
C692 C683 1.429 . S
C692 N689 1.350 . S
C692 C691 1.434 . S
C693 C694 1.369 1_655 S
C693 C695 1.416 1_655 S
C693 H697 0.930 . S
C694 C693 1.369 1_455 S
C694 C703 1.429 . S
C695 C693 1.416 1_455 S
C695 C696 1.368 . S
C695 H698 0.927 1_455 S
C696 C695 1.368 . S
C696 C702 1.428 . S
H697 C693 0.930 . S
H698 C695 0.927 1_655 S
S699 N700 1.613 . S
S699 N701 1.610 . S
N700 S699 1.613 . S
N700 C703 1.350 . S
N701 S699 1.610 . S
N701 C702 1.351 . S
C702 C696 1.428 . S
C702 N701 1.351 . S
C702 C703 1.434 . S
C703 C694 1.429 . S
C703 N700 1.350 . S
C703 C702 1.434 . S
C704 C705 1.369 . S
C704 C706 1.419 . S
C704 H708 0.930 . S
C705 C704 1.369 . S
C705 C714 1.429 . S
C706 C704 1.419 . S
C706 C707 1.363 . S
C706 H709 0.929 . S
C707 C706 1.363 . S
C707 C713 1.428 . S
H708 C704 0.930 . S
H709 C706 0.929 . S
S710 N711 1.613 . S
S710 N712 1.610 . S
N711 S710 1.613 . S
N711 C714 1.350 . S
N712 S710 1.610 . S
N712 C713 1.351 . S
C713 C707 1.428 . S
C713 N712 1.351 . S
C713 C714 1.434 . S
C714 C705 1.429 . S
C714 N711 1.350 . S
C714 C713 1.434 . S
C715 C716 1.369 . S
C715 C717 1.419 . S
C715 H719 0.930 . S
C716 C715 1.369 . S
C716 C725 1.429 . S
C717 C715 1.419 . S
C717 C718 1.363 . S
C717 H720 0.929 . S
C718 C717 1.363 . S
C718 C724 1.428 . S
H719 C715 0.930 . S
H720 C717 0.929 . S
S721 N722 1.613 . S
S721 N723 1.610 . S
N722 S721 1.613 . S
N722 C725 1.350 . S
N723 S721 1.610 . S
N723 C724 1.351 . S
C724 C718 1.428 . S
C724 N723 1.351 . S
C724 C725 1.434 . S
C725 C716 1.429 . S
C725 N722 1.350 . S
C725 C724 1.434 . S
C397 C238 1.619 . S
C399 C7 1.628 . S
C408 C271 1.594 . S
C410 C40 1.596 . S
C419 C73 1.622 . S
C421 C304 1.630 . S
C430 C337 1.620 . S
C432 C106 1.629 . S
C441 C139 1.595 . S
C443 C370 1.596 . S
C452 C205 1.629 . S
C454 C172 1.621 . S
C463 N2 1.651 . S
C465 N266 1.658 . S
C474 N35 1.656 . S
C476 N299 1.652 . S
C485 N332 1.632 . S
C487 N68 1.627 . S
C496 N365 1.658 . S
C498 N101 1.652 . S
C507 N134 1.657 . S
C509 N200 1.656 . S
C518 N233 1.633 . S
C520 N167 1.626 . S
C529 N244 1.165 . S
C531 C21 1.173 . S
C540 N277 1.211 . S
C542 C54 1.217 . S
C551 N310 1.227 . S
C553 C87 1.236 . S
C562 C120 1.173 . S
C564 N343 1.169 . S
C573 N376 1.209 . S
C575 C153 1.214 . S
C584 C186 1.234 . S
C586 N211 1.224 . S
C595 C219 1.176 . S
C597 N178 1.166 . S
C606 N13 1.228 . S
C608 C252 1.236 . S
C617 N46 1.211 . S
C619 C285 1.214 . S
C628 N79 1.172 . S
C630 C318 1.173 . S
C639 N112 1.226 . S
C641 C351 1.238 . S
C650 N145 1.206 . S
C652 C384 1.214 . S
C661 C282 1.565 . S
C663 C18 1.564 . S
C672 C51 1.560 . S
C674 C315 1.563 . S
C683 C348 1.614 . S
C685 C84 1.611 . S
C694 C117 1.565 . S
C696 C381 1.564 . S
C705 C150 1.560 . S
C707 C216 1.564 . S
C716 C249 1.615 . S
C718 C183 1.613 . S
