# Generated by pormake.
# Topology sth, (5)-cn, num edge types: 1
# Building blocks:
#     Node 0, Type 0, BuildingBlock: XOMCOT_clean_sbu_0, # of connection points: 5
#     Node 1, Type 0, BuildingBlock: XOMCOT_clean_sbu_0, # of connection points: 5
#     Node 2, Type 0, BuildingBlock: XOMCOT_clean_sbu_0, # of connection points: 5
#     Node 3, Type 0, BuildingBlock: XOMCOT_clean_sbu_0, # of connection points: 5
#     Node 4, Type 0, BuildingBlock: XOMCOT_clean_sbu_0, # of connection points: 5
#     Node 5, Type 0, BuildingBlock: XOMCOT_clean_sbu_0, # of connection points: 5
#     Node 6, Type 0, BuildingBlock: XOMCOT_clean_sbu_0, # of connection points: 5
#     Node 7, Type 0, BuildingBlock: XOMCOT_clean_sbu_0, # of connection points: 5
#     Node 8, Type 0, BuildingBlock: XOMCOT_clean_sbu_0, # of connection points: 5
#     Node 9, Type 0, BuildingBlock: XOMCOT_clean_sbu_0, # of connection points: 5
#     Node 10, Type 0, BuildingBlock: XOMCOT_clean_sbu_0, # of connection points: 5
#     Node 11, Type 0, BuildingBlock: XOMCOT_clean_sbu_0, # of connection points: 5
#     Node 12, Type 0, BuildingBlock: XOMCOT_clean_sbu_0, # of connection points: 5
#     Node 13, Type 0, BuildingBlock: XOMCOT_clean_sbu_0, # of connection points: 5
#     Node 14, Type 0, BuildingBlock: XOMCOT_clean_sbu_0, # of connection points: 5
#     Node 15, Type 0, BuildingBlock: XOMCOT_clean_sbu_0, # of connection points: 5
#     Node 16, Type 0, BuildingBlock: XOMCOT_clean_sbu_0, # of connection points: 5
#     Node 17, Type 0, BuildingBlock: XOMCOT_clean_sbu_0, # of connection points: 5
#     Edge 18, Type (0, 0), BuildingBlock: OJICUG_clean_linker_0, # of connection points: 2
#     Edge 19, Type (0, 0), BuildingBlock: OJICUG_clean_linker_0, # of connection points: 2
#     Edge 20, Type (0, 0), BuildingBlock: OJICUG_clean_linker_0, # of connection points: 2
#     Edge 21, Type (0, 0), BuildingBlock: OJICUG_clean_linker_0, # of connection points: 2
#     Edge 22, Type (0, 0), BuildingBlock: OJICUG_clean_linker_0, # of connection points: 2
#     Edge 23, Type (0, 0), BuildingBlock: OJICUG_clean_linker_0, # of connection points: 2
#     Edge 24, Type (0, 0), BuildingBlock: OJICUG_clean_linker_0, # of connection points: 2
#     Edge 25, Type (0, 0), BuildingBlock: OJICUG_clean_linker_0, # of connection points: 2
#     Edge 26, Type (0, 0), BuildingBlock: OJICUG_clean_linker_0, # of connection points: 2
#     Edge 27, Type (0, 0), BuildingBlock: OJICUG_clean_linker_0, # of connection points: 2
#     Edge 28, Type (0, 0), BuildingBlock: OJICUG_clean_linker_0, # of connection points: 2
#     Edge 29, Type (0, 0), BuildingBlock: OJICUG_clean_linker_0, # of connection points: 2
#     Edge 30, Type (0, 0), BuildingBlock: OJICUG_clean_linker_0, # of connection points: 2
#     Edge 31, Type (0, 0), BuildingBlock: OJICUG_clean_linker_0, # of connection points: 2
#     Edge 32, Type (0, 0), BuildingBlock: OJICUG_clean_linker_0, # of connection points: 2
#     Edge 33, Type (0, 0), BuildingBlock: OJICUG_clean_linker_0, # of connection points: 2
#     Edge 34, Type (0, 0), BuildingBlock: OJICUG_clean_linker_0, # of connection points: 2
#     Edge 35, Type (0, 0), BuildingBlock: OJICUG_clean_linker_0, # of connection points: 2
#     Edge 36, Type (0, 0), BuildingBlock: OJICUG_clean_linker_0, # of connection points: 2
#     Edge 37, Type (0, 0), BuildingBlock: OJICUG_clean_linker_0, # of connection points: 2
#     Edge 38, Type (0, 0), BuildingBlock: OJICUG_clean_linker_0, # of connection points: 2
#     Edge 39, Type (0, 0), BuildingBlock: OJICUG_clean_linker_0, # of connection points: 2
#     Edge 40, Type (0, 0), BuildingBlock: OJICUG_clean_linker_0, # of connection points: 2
#     Edge 41, Type (0, 0), BuildingBlock: OJICUG_clean_linker_0, # of connection points: 2
#     Edge 42, Type (0, 0), BuildingBlock: OJICUG_clean_linker_0, # of connection points: 2
#     Edge 43, Type (0, 0), BuildingBlock: OJICUG_clean_linker_0, # of connection points: 2
#     Edge 44, Type (0, 0), BuildingBlock: OJICUG_clean_linker_0, # of connection points: 2
#     Edge 45, Type (0, 0), BuildingBlock: OJICUG_clean_linker_0, # of connection points: 2
#     Edge 46, Type (0, 0), BuildingBlock: OJICUG_clean_linker_0, # of connection points: 2
#     Edge 47, Type (0, 0), BuildingBlock: OJICUG_clean_linker_0, # of connection points: 2
#     Edge 48, Type (0, 0), BuildingBlock: OJICUG_clean_linker_0, # of connection points: 2
#     Edge 49, Type (0, 0), BuildingBlock: OJICUG_clean_linker_0, # of connection points: 2
#     Edge 50, Type (0, 0), BuildingBlock: OJICUG_clean_linker_0, # of connection points: 2
#     Edge 51, Type (0, 0), BuildingBlock: OJICUG_clean_linker_0, # of connection points: 2
#     Edge 52, Type (0, 0), BuildingBlock: OJICUG_clean_linker_0, # of connection points: 2
#     Edge 53, Type (0, 0), BuildingBlock: OJICUG_clean_linker_0, # of connection points: 2
#     Edge 54, Type (0, 0), BuildingBlock: OJICUG_clean_linker_0, # of connection points: 2
#     Edge 55, Type (0, 0), BuildingBlock: OJICUG_clean_linker_0, # of connection points: 2
#     Edge 56, Type (0, 0), BuildingBlock: OJICUG_clean_linker_0, # of connection points: 2
#     Edge 57, Type (0, 0), BuildingBlock: OJICUG_clean_linker_0, # of connection points: 2
#     Edge 58, Type (0, 0), BuildingBlock: OJICUG_clean_linker_0, # of connection points: 2
#     Edge 59, Type (0, 0), BuildingBlock: OJICUG_clean_linker_0, # of connection points: 2
#     Edge 60, Type (0, 0), BuildingBlock: OJICUG_clean_linker_0, # of connection points: 2
#     Edge 61, Type (0, 0), BuildingBlock: OJICUG_clean_linker_0, # of connection points: 2
#     Edge 62, Type (0, 0), BuildingBlock: OJICUG_clean_linker_0, # of connection points: 2
# Relax obj value: 0.196
# Max RMSD: 0.215
# Mean RMSD: 0.215
data_MOF--net-sth--node1-XOMCOT_clean_sbu_0--edge1-OJICUG_clean_linker_0
_symmetry_space_group_name_H-M    P1
_symmetry_Int_Tables_number       1
_symmetry_cell_setting            triclinic
loop_
_symmetry_equiv_pos_as_xyz
'x, y, z'
_cell_length_a     30.506362
_cell_length_b     30.318308
_cell_length_c     60.661227
_cell_angle_alpha  90.245366
_cell_angle_beta   89.72333
_cell_angle_gamma 120.02448
loop_
_atom_site_label
_atom_site_type_symbol
_atom_site_fract_x
_atom_site_fract_y
_atom_site_fract_z
_atom_type_partial_charge
Co0 Co 0.13292 0.30544 0.21918 0.0
C1 C 0.23289 0.35748 0.19669 0.0
C2 C 0.21966 0.40864 0.21643 0.0
C3 C 0.26555 0.4363 0.20598 0.0
N4 N 0.19929 0.35929 0.21066 0.0
N5 N 0.2739 0.40423 0.19353 0.0
H6 H 0.22719 0.32286 0.18887 0.0
H7 H 0.20223 0.42362 0.22741 0.0
C8 C 0.14063 0.21292 0.22888 0.0
O9 O 0.11029 0.20527 0.24567 0.0
N10 N 0.0652 0.2521 0.2272 0.0
C11 C 0.034 0.25419 0.24247 0.0
C12 C 0.98827 0.2096 0.24171 0.0
C13 C 0.03739 0.20657 0.217 0.0
N14 N 0.9906 0.17964 0.22583 0.0
C15 C 0.13955 0.35159 0.26082 0.0
C16 C 0.20085 0.3231 0.28233 0.0
C17 C 0.18339 0.35169 0.29389 0.0
C18 C 0.15491 0.36826 0.28214 0.0
C19 C 0.18724 0.31 0.26013 0.0
N20 N 0.15374 0.32103 0.25009 0.0
H21 H 0.11645 0.3645 0.25304 0.0
H22 H 0.20428 0.29154 0.25125 0.0
H23 H 0.04284 0.28598 0.25318 0.0
H24 H 0.05104 0.19359 0.20335 0.0
O25 O 0.10743 0.35145 0.21592 0.0
O26 O 0.10891 0.30319 0.18897 0.0
O27 O 0.15603 0.25282 0.21684 0.0
C28 C 0.09719 0.33702 0.19568 0.0
H29 H 0.29142 0.47674 0.20792 0.0
H30 H 0.95577 0.19979 0.25214 0.0
H31 H 0.22452 0.31064 0.2902 0.0
H32 H 0.14377 0.39399 0.28923 0.0
Co33 Co 0.77829 0.86211 0.21776 0.0
C34 C 0.70162 0.89131 0.20137 0.0
C35 C 0.73712 0.87139 0.17581 0.0
C36 C 0.70943 0.89011 0.16617 0.0
N37 N 0.73309 0.87225 0.19802 0.0
N38 N 0.6879 0.90368 0.18217 0.0
H39 H 0.69244 0.90042 0.21734 0.0
H40 H 0.76138 0.86124 0.1668 0.0
C41 C 0.8272 0.97501 0.21597 0.0
O42 O 0.78322 0.96836 0.22234 0.0
N43 N 0.82537 0.85269 0.23531 0.0
C44 C 0.81711 0.82412 0.25346 0.0
C45 C 0.86131 0.82418 0.25843 0.0
C46 C 0.87352 0.86875 0.22924 0.0
N47 N 0.89643 0.85189 0.24299 0.0
C48 C 0.70278 0.84747 0.24934 0.0
C49 C 0.76871 0.90864 0.28184 0.0
C50 C 0.71783 0.87536 0.28747 0.0
C51 C 0.6844 0.84624 0.27058 0.0
C52 C 0.78546 0.9093 0.26024 0.0
N53 N 0.75281 0.87809 0.24438 0.0
H54 H 0.67716 0.82152 0.23708 0.0
H55 H 0.82552 0.93182 0.25675 0.0
H56 H 0.78134 0.80384 0.26212 0.0
H57 H 0.89118 0.89187 0.2148 0.0
O58 O 0.73196 0.78976 0.2184 0.0
O59 O 0.79297 0.82848 0.19366 0.0
O60 O 0.83282 0.93622 0.2131 0.0
C61 C 0.75543 0.78606 0.20129 0.0
H62 H 0.70723 0.89544 0.14866 0.0
H63 H 0.86679 0.8043 0.27196 0.0
H64 H 0.79626 0.93125 0.29429 0.0
H65 H 0.64464 0.82059 0.27394 0.0
Co66 Co 0.20604 0.93168 0.22341 0.0
C67 C 0.16217 0.83017 0.20031 0.0
C68 C 0.21959 0.84276 0.22393 0.0
C69 C 0.20415 0.79686 0.21367 0.0
N70 N 0.19343 0.86384 0.21567 0.0
N71 N 0.16821 0.78876 0.19874 0.0
H72 H 0.13726 0.83675 0.18993 0.0
H73 H 0.24883 0.86023 0.23631 0.0
C74 C 0.10727 0.91517 0.23876 0.0
O75 O 0.13321 0.94389 0.25551 0.0
N76 N 0.21983 1.00114 0.23007 0.0
C77 C 0.26405 0.0413 0.23694 0.0
C78 C 0.26119 0.08513 0.23581 0.0
C79 C 0.1918 1.02238 0.22384 0.0
N80 N 0.21561 0.07314 0.2277 0.0
C81 C 0.24259 0.94223 0.2678 0.0
C82 C 0.15969 0.8565 0.28486 0.0
C83 C 0.19942 0.88809 0.29905 0.0
C84 C 0.24182 0.93063 0.29003 0.0
C85 C 0.16235 0.86926 0.26255 0.0
N86 N 0.20219 0.9134 0.25453 0.0
H87 H 0.2765 0.97369 0.26124 0.0
H88 H 0.1319 0.84396 0.25176 0.0
H89 H 0.29777 0.04021 0.24121 0.0
H90 H 0.15543 1.00173 0.21579 0.0
O91 O 0.2772 0.95779 0.21968 0.0
O92 O 0.22618 0.95416 0.19298 0.0
O93 O 0.13031 0.90655 0.22298 0.0
C94 C 0.27218 0.96819 0.1995 0.0
H95 H 0.21891 0.77158 0.21673 0.0
H96 H 0.29058 0.12302 0.24047 0.0
H97 H 0.12655 0.82264 0.29091 0.0
H98 H 0.27476 0.95457 0.29997 0.0
Co99 Co 0.28891 0.10637 0.79822 0.0
C100 C 0.34764 0.21087 0.81794 0.0
C101 C 0.38999 0.1964 0.79341 0.0
C102 C 0.42051 0.24411 0.80213 0.0
N103 N 0.34426 0.17546 0.80323 0.0
N104 N 0.39416 0.25335 0.81763 0.0
H105 H 0.31751 0.20487 0.82919 0.0
H106 H 0.40067 0.1778 0.78099 0.0
C107 C 0.20534 0.12345 0.78558 0.0
O108 O 0.1989 0.09228 0.76919 0.0
N109 N 0.23271 0.03559 0.79433 0.0
C110 C 0.23659 0.99438 0.78877 0.0
C111 C 0.18953 0.95113 0.78975 0.0
C112 C 0.18301 1.01548 0.79982 0.0
N113 N 0.1557 0.96449 0.79648 0.0
C114 C 0.30449 0.0881 0.75309 0.0
C115 C 0.31117 0.17532 0.7356 0.0
C116 C 0.3177 0.14218 0.72154 0.0
C117 C 0.31466 0.09833 0.7307 0.0
C118 C 0.30159 0.16388 0.75805 0.0
N119 N 0.29662 0.11974 0.76648 0.0
H120 H 0.30522 0.05573 0.75974 0.0
H121 H 0.29852 0.19085 0.76873 0.0
H122 H 0.27136 0.99482 0.78483 0.0
H123 H 0.16684 0.03712 0.80666 0.0
O124 O 0.33595 0.08203 0.80026 0.0
O125 O 0.29485 0.08944 0.82885 0.0
O126 O 0.23855 0.13198 0.80045 0.0
C127 C 0.32705 0.07643 0.82121 0.0
H128 H 0.45952 0.26987 0.79757 0.0
H129 H 0.18078 0.91286 0.7855 0.0
H130 H 0.31357 0.2099 0.72941 0.0
H131 H 0.32174 0.07269 0.72082 0.0
Co132 Co 0.93646 0.19182 0.79923 0.0
C133 C 0.8302 0.14337 0.81724 0.0
C134 C 0.87182 0.22431 0.82235 0.0
C135 C 0.82381 0.20601 0.83031 0.0
N136 N 0.87632 0.18536 0.81399 0.0
N137 N 0.79745 0.1553 0.82709 0.0
H138 H 0.82033 0.10531 0.8121 0.0
H139 H 0.90082 0.26398 0.82239 0.0
C140 C 0.92483 0.08614 0.79765 0.0
O141 O 0.96314 0.10201 0.78402 0.0
N142 N 0.99785 0.20115 0.78511 0.0
C143 C 1.01591 0.22161 0.76514 0.0
C144 C 0.06187 0.22433 0.76194 0.0
C145 C 0.0349 0.1953 0.79438 0.0
N146 N 0.0734 0.2068 0.78018 0.0
C147 C 0.88394 0.21162 0.766 0.0
C148 C 0.88272 0.14551 0.73426 0.0
C149 C 0.86709 0.18034 0.7285 0.0
C150 C 0.8656 0.21189 0.74508 0.0
C151 C 0.89956 0.14553 0.75568 0.0
N152 N 0.90198 0.17981 0.77102 0.0
H153 H 0.88579 0.23896 0.77794 0.0
H154 H 0.91376 0.1204 0.75918 0.0
H155 H 0.99708 0.23375 0.75365 0.0
H156 H 1.03159 0.17896 0.81056 0.0
O157 O 0.96833 0.26466 0.79916 0.0
O158 O 0.97462 0.21901 0.82626 0.0
O159 O 0.90868 0.11576 0.80424 0.0
C160 C 0.98738 0.26368 0.81812 0.0
H161 H 0.80934 0.22843 0.83805 0.0
H162 H 0.08449 0.23727 0.74706 0.0
H163 H 0.88497 0.12055 0.72206 0.0
H164 H 0.85248 0.23842 0.74173 0.0
Co165 Co 0.83753 0.7396 0.79724 0.0
C166 C 0.88494 0.68329 0.81565 0.0
C167 C 0.8202 0.63536 0.79569 0.0
C168 C 0.83881 0.60609 0.80431 0.0
N169 N 0.84911 0.68364 0.80284 0.0
N170 N 0.87945 0.63625 0.81683 0.0
H171 H 0.91406 0.71652 0.82409 0.0
H172 H 0.78783 0.62237 0.78495 0.0
C173 C 0.94036 0.82973 0.78918 0.0
O174 O 0.91971 0.83943 0.77229 0.0
N175 N 0.82454 0.79565 0.79266 0.0
C176 C 0.78604 0.79605 0.78191 0.0
C177 C 0.78931 0.84261 0.78498 0.0
C178 C 0.84849 0.84096 0.80321 0.0
N179 N 0.82893 0.87099 0.79825 0.0
C180 C 0.80558 0.71537 0.75244 0.0
C181 C 0.8923 0.71956 0.73613 0.0
C182 C 0.85026 0.70285 0.72227 0.0
C183 C 0.80689 0.7017 0.73066 0.0
C184 C 0.88941 0.73315 0.758 0.0
N185 N 0.84672 0.73218 0.76582 0.0
H186 H 0.76999 0.7089 0.75879 0.0
H187 H 0.92066 0.74195 0.76888 0.0
H188 H 0.75607 0.76465 0.7731 0.0
H189 H 0.87961 0.85172 0.81447 0.0
O190 O 0.76558 0.6933 0.7987 0.0
O191 O 0.81321 0.73468 0.8274 0.0
O192 O 0.91324 0.79042 0.80123 0.0
C193 C 0.76829 0.70301 0.81961 0.0
H194 H 0.82438 0.56599 0.80113 0.0
H195 H 0.76499 0.8549 0.77759 0.0
H196 H 0.92616 0.71981 0.73048 0.0
H197 H 0.77333 0.68878 0.72064 0.0
Co198 Co 0.79757 0.62837 0.55388 0.0
C199 C 0.90144 0.68277 0.53512 0.0
C200 C 0.88878 0.72811 0.55892 0.0
C201 C 0.93637 0.7572 0.55007 0.0
N202 N 0.86688 0.68162 0.54951 0.0
N203 N 0.94428 0.72868 0.53521 0.0
H204 H 0.89454 0.65174 0.52413 0.0
H205 H 0.87071 0.74042 0.57089 0.0
C206 C 0.80705 0.53704 0.56321 0.0
O207 O 0.77632 0.529 0.5799 0.0
N208 N 0.72666 0.57478 0.55715 0.0
C209 C 0.68708 0.57916 0.56453 0.0
C210 C 0.64315 0.53306 0.56235 0.0
C211 C 0.705 0.52691 0.54895 0.0
N212 N 0.65459 0.49997 0.55275 0.0
C213 C 0.78065 0.643 0.5992 0.0
C214 C 0.86294 0.64032 0.61651 0.0
C215 C 0.83103 0.64806 0.63067 0.0
C216 C 0.78967 0.64958 0.62175 0.0
C217 C 0.85182 0.63276 0.59394 0.0
N218 N 0.81006 0.63261 0.5856 0.0
H219 H 0.75128 0.64869 0.5927 0.0
H220 H 0.87738 0.62803 0.58308 0.0
H221 H 0.68886 0.6137 0.57033 0.0
H222 H 0.7255 0.51205 0.53999 0.0
O223 O 0.77612 0.67814 0.55234 0.0
O224 O 0.7822 0.63652 0.52349 0.0
O225 O 0.81958 0.57516 0.55037 0.0
C226 C 0.77019 0.66935 0.53133 0.0
H227 H 0.96282 0.79676 0.55382 0.0
H228 H 0.60588 0.52446 0.56783 0.0
H229 H 0.89601 0.64012 0.62281 0.0
H230 H 0.7654 0.65765 0.63206 0.0
Co231 Co 0.43534 0.17988 0.55718 0.0
C232 C 0.37918 0.23058 0.53954 0.0
C233 C 0.33714 0.14921 0.53611 0.0
C234 C 0.30817 0.16841 0.52827 0.0
N235 N 0.38181 0.18784 0.54338 0.0
N236 N 0.33424 0.21942 0.53044 0.0
H237 H 0.40877 0.26874 0.54364 0.0
H238 H 0.32529 0.10919 0.53666 0.0
C239 C 0.52884 0.28505 0.56085 0.0
O240 O 0.54934 0.26782 0.5748 0.0
N241 N 0.48704 0.16899 0.57038 0.0
C242 C 0.48377 0.14616 0.58979 0.0
C243 C 0.52699 0.14336 0.59267 0.0
C244 C 0.53073 0.1766 0.56106 0.0
N245 N 0.55706 0.16342 0.57479 0.0
C246 C 0.36241 0.15317 0.59116 0.0
C247 C 0.42431 0.21923 0.62337 0.0
C248 C 0.37476 0.18187 0.6291 0.0
C249 C 0.34316 0.15011 0.61232 0.0
C250 C 0.44173 0.22187 0.60174 0.0
N251 N 0.41149 0.18774 0.58609 0.0
H252 H 0.33803 0.126 0.57901 0.0
H253 H 0.48024 0.24956 0.59826 0.0
H254 H 0.45224 0.13248 0.60115 0.0
H255 H 0.54465 0.19514 0.5453 0.0
O256 O 0.39505 0.10702 0.55529 0.0
O257 O 0.44758 0.15668 0.52915 0.0
O258 O 0.48366 0.25645 0.55367 0.0
C259 C 0.41543 0.11087 0.53604 0.0
H260 H 0.27072 0.1464 0.52123 0.0
H261 H 0.53595 0.12858 0.60711 0.0
H262 H 0.45046 0.24464 0.63566 0.0
H263 H 0.30412 0.1217 0.61557 0.0
Co264 Co 0.8717 0.25603 0.55941 0.0
C265 C 0.8274 0.15536 0.53703 0.0
C266 C 0.8725 0.15951 0.56489 0.0
C267 C 0.85265 0.11185 0.55549 0.0
N268 N 0.85596 0.18649 0.55356 0.0
N269 N 0.82448 0.10931 0.53796 0.0
H270 H 0.8091 0.16612 0.52463 0.0
H271 H 0.89735 0.17355 0.57902 0.0
C272 C 0.77175 0.24322 0.57058 0.0
O273 O 0.79581 0.27361 0.58722 0.0
N274 N 0.88813 0.32717 0.56385 0.0
C275 C 0.93267 0.36727 0.57048 0.0
C276 C 0.93051 0.41149 0.56881 0.0
C277 C 0.86095 0.34884 0.55698 0.0
N278 N 0.88512 0.39967 0.56052 0.0
C279 C 0.90104 0.27051 0.60484 0.0
C280 C 0.81625 0.18565 0.62129 0.0
C281 C 0.8549 0.21744 0.63586 0.0
C282 C 0.89792 0.25995 0.62725 0.0
C283 C 0.82103 0.19759 0.59883 0.0
N284 N 0.86235 0.24073 0.59093 0.0
H285 H 0.93564 0.30171 0.59864 0.0
H286 H 0.79157 0.1719 0.58773 0.0
H287 H 0.96571 0.36551 0.57542 0.0
H288 H 0.82457 0.3284 0.54895 0.0
O289 O 0.94252 0.27791 0.55846 0.0
O290 O 0.89759 0.2748 0.52934 0.0
O291 O 0.79669 0.23344 0.55612 0.0
C292 C 0.94158 0.28613 0.53763 0.0
H293 H 0.85947 0.08175 0.56079 0.0
H294 H 0.95985 0.44932 0.57356 0.0
H295 H 0.78265 0.15195 0.62715 0.0
H296 H 0.92983 0.28426 0.63766 0.0
Co297 Co 0.97816 0.46848 0.1208 0.0
C298 C 0.03646 0.57233 0.14112 0.0
C299 C 0.07785 0.56014 0.11534 0.0
C300 C 0.10819 0.60769 0.12429 0.0
N301 N 1.03286 0.53787 0.12582 0.0
N302 N 0.08245 0.61552 0.14057 0.0
H303 H 1.00692 0.56517 0.15293 0.0
H304 H 0.08822 0.54256 0.10233 0.0
C305 C 0.88941 0.4786 0.11092 0.0
O306 O 0.88162 0.44642 0.09479 0.0
N307 N 0.9228 0.39759 0.11716 0.0
C308 C 0.925 0.35759 0.10847 0.0
C309 C 0.87981 0.31341 0.11222 0.0
C310 C 0.87685 0.37591 0.12725 0.0
N311 N 0.84923 0.32487 0.12397 0.0
C312 C 0.99577 0.4544 0.07532 0.0
C313 C 0.98943 0.53566 0.05858 0.0
C314 C 0.99823 0.50486 0.04403 0.0
C315 C 1.00212 0.46426 0.05277 0.0
C316 C 0.98322 0.52433 0.08111 0.0
N317 N 0.98399 0.48255 0.08914 0.0
H318 H 1.00259 0.42542 0.08166 0.0
H319 H 0.97826 0.54957 0.09215 0.0
H320 H 0.95781 0.35901 0.10104 0.0
H321 H 0.8643 0.39698 0.13735 0.0
O322 O 1.02554 0.4444 0.12236 0.0
O323 O 0.98384 0.45105 0.15103 0.0
O324 O 0.92698 0.49227 0.12399 0.0
C325 C 1.01517 0.4372 0.14322 0.0
H326 H 0.1467 0.63432 0.11933 0.0
H327 H 0.8704 0.27572 0.10668 0.0
H328 H 0.98728 0.56816 0.05265 0.0
H329 H 1.01162 0.4411 0.04236 0.0
Co330 Co 0.61201 0.52567 0.13438 0.0
C331 C 0.50506 0.49543 0.14855 0.0
C332 C 0.54563 0.47225 0.17003 0.0
C333 C 0.49697 0.45079 0.17749 0.0
N334 N 0.55102 0.49992 0.15185 0.0
N335 N 0.47132 0.46484 0.16398 0.0
H336 H 0.49576 0.51166 0.13472 0.0
H337 H 0.57478 0.46596 0.17678 0.0
C338 C 0.60057 0.43098 0.1143 0.0
O339 O 0.61898 0.45796 0.09622 0.0
N340 N 0.67595 0.54912 0.11888 0.0
C341 C 0.7077 0.59338 0.10851 0.0
C342 C 0.75364 0.59557 0.10484 0.0
C343 C 0.70422 0.52703 0.12232 0.0
N344 N 0.75063 0.55331 0.11345 0.0
C345 C 0.59149 0.56059 0.09439 0.0
C346 C 0.51468 0.46809 0.07909 0.0
C347 C 0.53663 0.51007 0.0649 0.0
C348 C 0.57365 0.55718 0.07309 0.0
C349 C 0.53392 0.4733 0.10051 0.0
N350 N 0.57491 0.51826 0.10716 0.0
H351 H 0.61986 0.5973 0.10034 0.0
H352 H 0.5176 0.44053 0.11127 0.0
H353 H 0.69999 0.62367 0.105 0.0
H354 H 0.69198 0.49312 0.13213 0.0
O355 O 0.63016 0.59477 0.14047 0.0
O356 O 0.65201 0.54933 0.16149 0.0
O357 O 0.59723 0.45254 0.13197 0.0
C358 C 0.65479 0.59295 0.15739 0.0
H359 H 0.48117 0.42578 0.19158 0.0
H360 H 0.78664 0.62587 0.09675 0.0
H361 H 0.48497 0.43132 0.07338 0.0
H362 H 0.59006 0.59084 0.06277 0.0
Co363 Co 0.5318 0.09409 0.13159 0.0
C364 C 0.58175 0.0403 0.15167 0.0
C365 C 0.50253 1.00313 0.15928 0.0
C366 C 0.52242 0.97654 0.16911 0.0
N367 N 0.5396 0.04359 0.14841 0.0
N368 N 0.57219 0.99976 0.16444 0.0
H369 H 0.61842 0.06667 0.14474 0.0
H370 H 0.46298 0.99197 0.15976 0.0
C371 C 0.63603 0.19121 0.1285 0.0
O372 O 0.61887 0.20899 0.11323 0.0
N373 N 0.52125 0.14313 0.11559 0.0
C374 C 0.50625 0.14107 0.09458 0.0
C375 C 0.50604 0.18546 0.09003 0.0
C376 C 0.52606 0.18668 0.12397 0.0
N377 N 0.51952 0.21455 0.10843 0.0
C378 C 0.51399 1.01826 0.09997 0.0
C379 C 0.58299 0.07945 0.06841 0.0
C380 C 0.54691 0.0292 0.06283 0.0
C381 C 0.51388 0.99782 0.07934 0.0
C382 C 0.58224 0.09825 0.08944 0.0
N383 N 0.54618 0.06849 0.10454 0.0
H384 H 0.48613 0.99409 0.11198 0.0
H385 H 0.60852 0.13748 0.09265 0.0
H386 H 0.49744 0.11031 0.08315 0.0
H387 H 0.53975 0.20016 0.14046 0.0
O388 O 0.45923 0.05051 0.13119 0.0
O389 O 0.5013 0.10658 0.15749 0.0
O390 O 0.60772 0.14636 0.13669 0.0
C391 C 0.45774 0.07187 0.14952 0.0
H392 H 0.50125 0.94145 0.17827 0.0
H393 H 0.49853 0.19632 0.07413 0.0
H394 H 0.60933 0.1052 0.05623 0.0
H395 H 0.48629 0.95833 0.07604 0.0
Co396 Co 0.46554 0.95975 0.89438 0.0
C397 C 0.5661 1.0106 0.87186 0.0
C398 C 0.55785 0.05864 0.89576 0.0
C399 C 0.60403 0.08637 0.88558 0.0
N400 N 0.53399 1.01132 0.88715 0.0
N401 N 0.60923 0.05626 0.87065 0.0
H402 H 0.55735 0.97836 0.86131 0.0
H403 H 0.54207 0.07242 0.90819 0.0
C404 C 0.46796 0.86403 0.90237 0.0
O405 O 0.43854 0.85747 0.91941 0.0
N406 N 0.39592 0.90842 0.90101 0.0
C407 C 0.36207 0.91297 0.91384 0.0
C408 C 0.31531 0.87041 0.91131 0.0
C409 C 0.36843 0.8637 0.89022 0.0
N410 N 0.31947 0.83948 0.89654 0.0
C411 C 0.46599 0.99098 0.939 0.0
C412 C 0.53484 0.96592 0.9556 0.0
C413 C 0.51126 0.98392 0.97003 0.0
C414 C 0.47755 0.9978 0.96132 0.0
C415 C 0.52169 0.95923 0.93322 0.0
N416 N 0.48498 0.96851 0.92544 0.0
H417 H 0.44277 1.00534 0.93261 0.0
H418 H 0.54153 0.94711 0.92219 0.0
H419 H 0.36917 0.94565 0.92352 0.0
H420 H 0.38361 0.84987 0.87752 0.0
O421 O 0.44435 1.01008 0.89274 0.0
O422 O 0.44349 0.9632 0.8646 0.0
O423 O 0.4841 0.90408 0.89037 0.0
C424 C 0.43309 0.99726 0.87227 0.0
H425 H 0.63144 0.12606 0.88856 0.0
H426 H 0.28069 0.86305 0.9195 0.0
H427 H 0.56268 0.95668 0.96157 0.0
H428 H 0.46084 1.01479 0.97165 0.0
Co429 Co 0.10272 0.52834 0.88121 0.0
C430 C 1.02161 0.5505 0.86382 0.0
C431 C 0.07744 0.55779 0.84023 0.0
C432 C 0.04764 0.574 0.83054 0.0
N433 N 0.06181 0.54321 0.86118 0.0
N434 N 1.01283 0.56962 0.84532 0.0
H435 H 1.00186 0.54648 0.87912 0.0
H436 H 0.1107 0.55981 0.83283 0.0
C437 C 0.15347 0.6404 0.87948 0.0
O438 O 0.10818 0.63428 0.88265 0.0
N439 N 0.14591 0.51431 0.89936 0.0
C440 C 0.13411 0.485 0.91749 0.0
C441 C 0.17625 0.48235 0.92364 0.0
C442 C 0.1942 0.5282 0.89446 0.0
N443 N 0.21373 0.50923 0.90899 0.0
C444 C 1.0268 0.51149 0.91304 0.0
C445 C 0.09234 0.5762 0.9448 0.0
C446 C 0.04201 0.54189 0.95075 0.0
C447 C 1.00867 0.51078 0.93426 0.0
C448 C 0.10883 0.57617 0.92327 0.0
N449 N 0.07635 0.54355 0.9077 0.0
H450 H 1.00147 0.4839 0.90119 0.0
H451 H 0.14881 0.5991 0.91975 0.0
H452 H 0.09738 0.4663 0.92543 0.0
H453 H 0.21452 0.55164 0.88044 0.0
O454 O 0.05465 0.45679 0.87999 0.0
O455 O 0.11863 0.49739 0.8566 0.0
O456 O 0.15915 0.60141 0.87834 0.0
C457 C 0.07975 0.45473 0.86311 0.0
H458 H 0.05247 0.58999 0.81417 0.0
H459 H 0.17881 0.46142 0.93751 0.0
H460 H 0.11987 0.60005 0.95704 0.0
H461 H 0.96937 0.48396 0.93797 0.0
Co462 Co 0.5202 0.57374 0.89695 0.0
C463 C 0.47441 0.47068 0.87519 0.0
C464 C 0.5294 0.48251 0.89996 0.0
C465 C 0.51335 0.43591 0.89028 0.0
N466 N 0.50509 0.50446 0.89065 0.0
N467 N 0.47895 0.42832 0.87464 0.0
H468 H 0.45124 0.47791 0.86398 0.0
H469 H 0.558 0.49991 0.91261 0.0
C470 C 0.42171 0.56092 0.9108 0.0
O471 O 0.44676 0.58905 0.92784 0.0
N472 N 0.53683 0.64471 0.9022 0.0
C473 C 0.58249 0.68446 0.90792 0.0
C474 C 0.58131 0.72914 0.90653 0.0
C475 C 0.50954 0.66704 0.89631 0.0
N476 N 0.5353 0.71813 0.89936 0.0
C477 C 0.55498 0.58735 0.94168 0.0
C478 C 0.47313 0.50048 0.95873 0.0
C479 C 0.51402 0.53101 0.97251 0.0
C480 C 0.55509 0.57504 0.96374 0.0
C481 C 0.47471 0.51409 0.93658 0.0
N482 N 0.5148 0.5579 0.9284 0.0
H483 H 0.5884 0.61948 0.93519 0.0
H484 H 0.44401 0.48886 0.92588 0.0
H485 H 0.61585 0.68223 0.91174 0.0
H486 H 0.47228 0.64696 0.88903 0.0
O487 O 0.59095 0.59648 0.89378 0.0
O488 O 0.54142 0.59276 0.86639 0.0
O489 O 0.44525 0.55138 0.89558 0.0
C490 C 0.58671 0.60477 0.87319 0.0
H491 H 0.52679 0.40989 0.89415 0.0
H492 H 0.61205 0.76689 0.91045 0.0
H493 H 0.44113 0.4656 0.96478 0.0
H494 H 0.58765 0.59958 0.97379 0.0
Co495 Co 0.64179 0.79391 0.45693 0.0
C496 C 0.69832 0.89426 0.47935 0.0
C497 C 0.74006 0.88927 0.45177 0.0
C498 C 0.76774 0.93695 0.46116 0.0
N499 N 0.69617 0.86282 0.46295 0.0
N500 N 0.74156 0.93999 0.47852 0.0
H501 H 0.66877 0.88399 0.49155 0.0
H502 H 0.75112 0.87494 0.43772 0.0
C503 C 0.55643 0.81088 0.44694 0.0
O504 O 0.5494 0.78337 0.42913 0.0
N505 N 0.5862 0.72354 0.45222 0.0
C506 C 0.59005 0.6829 0.44564 0.0
C507 C 0.54348 0.63923 0.44736 0.0
C508 C 0.53726 0.70278 0.45895 0.0
N509 N 0.51018 0.65185 0.45559 0.0
C510 C 0.65688 0.77938 0.41123 0.0
C511 C 0.66001 0.8661 0.39516 0.0
C512 C 0.66642 0.83405 0.38036 0.0
C513 C 0.66516 0.79044 0.38879 0.0
C514 C 0.65176 0.85354 0.41759 0.0
N515 N 0.64863 0.80964 0.42534 0.0
H516 H 0.65913 0.74737 0.41728 0.0
H517 H 0.64831 0.87945 0.42881 0.0
H518 H 0.62466 0.68388 0.44084 0.0
H519 H 0.5218 0.72377 0.46708 0.0
O520 O 0.68951 0.77006 0.45822 0.0
O521 O 0.64709 0.77477 0.48701 0.0
O522 O 0.59096 0.81808 0.46081 0.0
C523 C 0.67955 0.76251 0.47912 0.0
H524 H 0.80483 0.96674 0.45595 0.0
H525 H 0.53482 0.6011 0.4429 0.0
H526 H 0.66132 0.90057 0.3895 0.0
H527 H 0.67213 0.76567 0.37824 0.0
Co528 Co 0.27184 0.85872 0.46385 0.0
C529 C 0.16573 0.81285 0.48224 0.0
C530 C 0.20842 0.89419 0.48567 0.0
C531 C 0.16096 0.87746 0.49389 0.0
N532 N 0.21202 0.85403 0.47822 0.0
N533 N 0.13381 0.82648 0.4917 0.0
H534 H 0.15521 0.77411 0.47796 0.0
H535 H 0.23776 0.93368 0.48498 0.0
C536 C 0.25917 0.7528 0.46257 0.0
O537 O 0.298 0.76879 0.44923 0.0
N538 N 0.33297 0.86679 0.44992 0.0
C539 C 0.35019 0.88434 0.42948 0.0
C540 C 0.39644 0.88755 0.42663 0.0
C541 C 0.37069 0.86285 0.45966 0.0
N542 N 0.4092 0.8735 0.44556 0.0
C543 C 0.22458 0.88299 0.42972 0.0
C544 C 0.21864 0.81301 0.39885 0.0
C545 C 0.20777 0.85089 0.39231 0.0
C546 C 0.20838 0.88443 0.40846 0.0
C547 C 0.23337 0.812 0.42058 0.0
N548 N 0.23858 0.84833 0.43542 0.0
H549 H 0.22813 0.91155 0.44138 0.0
H550 H 0.24398 0.7843 0.42471 0.0
H551 H 0.33083 0.89448 0.4174 0.0
H552 H 0.36881 0.85043 0.4765 0.0
O553 O 0.30594 0.93198 0.46451 0.0
O554 O 0.30884 0.88365 0.49121 0.0
O555 O 0.24226 0.78217 0.46861 0.0
C556 C 0.32316 0.92915 0.48369 0.0
H557 H 0.14752 0.90121 0.50117 0.0
H558 H 0.41806 0.89793 0.41146 0.0
H559 H 0.2189 0.78623 0.38706 0.0
H560 H 0.19857 0.91323 0.40455 0.0
Co561 Co 0.19805 0.41667 0.4653 0.0
C562 C 0.24988 0.36626 0.48583 0.0
C563 C 0.19579 0.3195 0.4612 0.0
C564 C 0.2155 0.2921 0.47063 0.0
N565 N 0.2172 0.36587 0.47072 0.0
N566 N 0.24951 0.32149 0.48598 0.0
H567 H 0.27147 0.39745 0.49711 0.0
H568 H 0.16642 0.30582 0.44885 0.0
C569 C 0.29513 0.51418 0.45705 0.0
O570 O 0.27094 0.52319 0.44144 0.0
N571 N 0.17779 0.46743 0.46056 0.0
C572 C 0.14252 0.46621 0.44682 0.0
C573 C 0.1407 0.51041 0.44944 0.0
C574 C 0.19495 0.51124 0.47204 0.0
N575 N 0.17414 0.539 0.46514 0.0
C576 C 0.16097 0.38123 0.42224 0.0
C577 C 0.25175 0.41493 0.40044 0.0
C578 C 0.20641 0.38991 0.38841 0.0
C579 C 0.16082 0.37081 0.40005 0.0
C580 C 0.25006 0.42253 0.42326 0.0
N581 N 0.20501 0.40882 0.43362 0.0
H582 H 0.12467 0.36579 0.43014 0.0
H583 H 0.28496 0.43888 0.4324 0.0
H584 H 0.11963 0.43602 0.43548 0.0
H585 H 0.22362 0.52336 0.48468 0.0
O586 O 0.12793 0.3655 0.46785 0.0
O587 O 0.17431 0.41099 0.49592 0.0
O588 O 0.27217 0.47271 0.46821 0.0
C589 C 0.12995 0.37673 0.48845 0.0
H590 H 0.20455 0.2529 0.46703 0.0
H591 H 0.11839 0.52175 0.43968 0.0
H592 H 0.28804 0.42875 0.39239 0.0
H593 H 0.12454 0.34777 0.39213 0.0
C594 C 0.38478 0.39655 0.1719 0.0
C595 C 0.41825 0.44754 0.16614 0.0
H596 H 0.31255 0.34267 0.18514 0.0
C597 C 0.40076 0.48233 0.16632 0.0
H598 H 0.39749 0.36899 0.1717 0.0
C599 C 0.35195 0.46731 0.1741 0.0
C600 C 0.3199 0.4172 0.18168 0.0
H601 H 0.426 0.52181 0.16199 0.0
H602 H 0.34014 0.49549 0.17509 0.0
C603 C 0.33608 0.38146 0.17952 0.0
C604 C 0.6733 0.9643 0.16064 0.0
C605 C 0.66188 0.9319 0.17899 0.0
H606 H 0.65397 1.0115 0.14167 0.0
C607 C 0.62383 0.9265 0.19363 0.0
H608 H 0.70339 0.97048 0.14934 0.0
C609 C 0.59591 0.95066 0.18933 0.0
C610 C 0.60556 0.98088 0.17034 0.0
H611 H 0.61444 0.90218 0.20795 0.0
H612 H 0.56598 0.94479 0.20067 0.0
C613 C 0.64551 0.98854 0.15638 0.0
C614 C 0.07282 0.67849 0.16391 0.0
C615 C 0.10294 0.65925 0.15525 0.0
H616 H 0.0703 0.73593 0.18422 0.0
C617 C 0.15459 0.68438 0.16078 0.0
H618 H 1.03299 0.66023 0.15985 0.0
C619 C 0.17558 0.72701 0.17461 0.0
C620 C 0.14588 0.74649 0.18332 0.0
H621 H 0.17891 0.67055 0.15466 0.0
H622 H 0.21547 0.74495 0.17851 0.0
C623 C 0.09423 0.72206 0.17764 0.0
C624 C 0.40588 0.36215 0.85301 0.0
C625 C 0.45702 0.38571 0.85942 0.0
H626 H 0.34517 0.30051 0.83494 0.0
C627 C 0.48647 0.36504 0.85172 0.0
H628 H 0.38218 0.37701 0.85882 0.0
C629 C 0.46567 0.32197 0.83818 0.0
C630 C 0.41447 0.29764 0.83195 0.0
H631 H 0.526 0.38235 0.8562 0.0
H632 H 0.48973 0.30715 0.83285 0.0
C633 C 0.38463 0.31815 0.83957 0.0
C634 C 0.71164 0.14162 0.83216 0.0
C635 C 0.74537 0.12288 0.8336 0.0
H636 H 0.64136 0.13439 0.84284 0.0
C637 C 0.72937 0.07629 0.84444 0.0
H638 H 0.72261 0.17696 0.82362 0.0
C639 C 0.68219 0.0515 0.85531 0.0
C640 C 0.65081 0.07317 0.85542 0.0
H641 H 0.75474 0.06118 0.84587 0.0
H642 H 0.67189 1.01768 0.86494 0.0
C643 C 0.66514 0.11726 0.84304 0.0
C644 C 0.92635 0.55593 0.8433 0.0
C645 C 0.9788 0.58876 0.84221 0.0
H646 H 0.85307 0.54557 0.83587 0.0
C647 C 0.99781 0.63896 0.83485 0.0
H648 H 0.91115 0.51698 0.84875 0.0
C649 C 0.96501 0.65548 0.82769 0.0
C650 C 0.91255 0.62171 0.82734 0.0
H651 H 0.0383 0.6647 0.83384 0.0
H652 H 0.98084 0.69369 0.8212 0.0
C653 C 0.89341 0.57216 0.83575 0.0
C654 C 0.67379 0.65481 0.82337 0.0
C655 C 0.72193 0.67898 0.83338 0.0
H656 H 0.59309 0.61275 0.82804 0.0
C657 C 0.72494 0.67891 0.8564 0.0
H658 H 0.67024 0.65444 0.8056 0.0
C659 C 0.68081 0.65444 0.86914 0.0
C660 C 0.63265 0.63012 0.85918 0.0
H661 H 0.76136 0.69711 0.86457 0.0
H662 H 0.68454 0.65489 0.88691 0.0
C663 C 0.62956 0.63097 0.83616 0.0
C664 C 0.40043 1.01032 0.8364 0.0
C665 C 0.40607 1.01771 0.85925 0.0
H666 H 0.37118 1.02307 0.80666 0.0
C667 C 0.38413 0.04364 0.86981 0.0
H668 H 0.41651 0.99032 0.82779 0.0
C669 C 0.35726 0.06185 0.85774 0.0
C670 C 0.35248 0.05518 0.83482 0.0
H671 H 0.38735 0.04954 0.88749 0.0
H672 H 0.34108 0.08184 0.86627 0.0
C673 C 0.37433 0.02913 0.82433 0.0
C674 C 0.03695 0.36019 0.86394 0.0
C675 C 0.06346 0.40585 0.85199 0.0
H676 H 0.99303 0.27863 0.86251 0.0
C677 C 0.07002 0.40394 0.82921 0.0
H678 H 1.03179 0.36086 0.8816 0.0
C679 C 0.0471 0.35703 0.81831 0.0
C680 C 1.01851 0.3115 0.83013 0.0
H681 H 0.09026 0.43865 0.8197 0.0
H682 H 0.05028 0.35644 0.80053 0.0
C683 C 1.01512 0.31324 0.8531 0.0
C684 C 0.70986 0.69085 0.20293 0.0
C685 C 0.7374 0.73603 0.19064 0.0
H686 H 0.66295 0.60916 0.20204 0.0
C687 C 0.74248 0.73269 0.16785 0.0
H688 H 0.70555 0.69247 0.22061 0.0
C689 C 0.71733 0.68534 0.15731 0.0
C690 C 0.68786 0.64042 0.16944 0.0
H691 H 0.76321 0.7668 0.15799 0.0
H692 H 0.71947 0.68399 0.13951 0.0
C693 C 0.68574 0.64323 0.19242 0.0
C694 C 0.31745 0.99557 0.16293 0.0
C695 C 0.31812 0.99872 0.18599 0.0
H696 H 0.3617 1.0165 0.13321 0.0
C697 C 0.36443 0.0305 0.19669 0.0
H698 H 0.28235 0.97158 0.15429 0.0
C699 C 0.40948 0.057 0.18472 0.0
C700 C 0.40941 0.05159 0.16179 0.0
H701 H 0.36607 0.03427 0.21448 0.0
H702 H 0.44464 0.07968 0.19354 0.0
C703 C 0.36285 1.02135 0.15094 0.0
C704 C 0.04987 0.38375 0.19203 0.0
C705 C 0.07368 0.3594 0.18178 0.0
H706 H 1.01264 0.42726 0.18799 0.0
C707 C 0.07719 0.35997 0.15875 0.0
H708 H 0.04634 0.38374 0.20981 0.0
C709 C 0.05844 0.3857 0.14628 0.0
C710 C 0.03528 0.41068 0.15661 0.0
H711 H 0.09549 0.34176 0.15045 0.0
H712 H 0.06206 0.38595 0.1285 0.0
C713 C 1.0306 0.40882 0.17959 0.0
C714 C 0.04951 0.81602 0.49814 0.0
C715 C 0.08188 0.79551 0.49881 0.0
H716 H 0.98031 0.81054 0.50934 0.0
C717 C 0.06457 0.74806 0.50909 0.0
H718 H 0.06116 0.85186 0.48992 0.0
C719 C 1.01739 0.72386 0.51998 0.0
C720 C 0.98741 0.74709 0.52077 0.0
H721 H 0.08873 0.73144 0.5099 0.0
H722 H 1.00579 0.68887 0.52892 0.0
C723 C 1.00318 0.7924 0.50915 0.0
C724 C 0.24299 0.26122 0.51421 0.0
C725 C 0.27338 0.30399 0.50122 0.0
H726 H 0.23913 0.20186 0.5344 0.0
C727 C 0.32601 0.32359 0.5008 0.0
H728 H 0.20238 0.24565 0.51474 0.0
C729 C 0.34729 0.2981 0.5119 0.0
C730 C 0.31598 0.25279 0.52347 0.0
H731 H 0.34996 0.35635 0.49067 0.0
H732 H 0.38736 0.31159 0.51012 0.0
C733 C 0.26404 0.23615 0.52532 0.0
C734 C 0.78356 0.03293 0.48545 0.0
C735 C 0.7583 0.98264 0.49347 0.0
H736 H 0.82337 0.11284 0.4934 0.0
C737 C 0.75248 0.97491 0.51636 0.0
H738 H 0.78842 0.03993 0.46788 0.0
C739 C 0.7734 1.01654 0.53092 0.0
C740 C 0.79936 0.06681 0.52291 0.0
H741 H 0.73353 0.93665 0.52299 0.0
H742 H 0.76977 1.00952 0.54851 0.0
C743 C 0.80326 0.07457 0.50001 0.0
C744 C 0.37752 1.01702 0.53255 0.0
C745 C 0.39927 0.06506 0.52241 0.0
H746 H 0.33718 0.93605 0.52814 0.0
C747 C 0.40056 0.0681 0.49935 0.0
H748 H 0.37634 1.01374 0.55035 0.0
C749 C 0.37742 1.02359 0.48667 0.0
C750 C 0.35359 0.97551 0.49687 0.0
H751 H 0.41697 0.10468 0.49117 0.0
H752 H 0.37686 0.02682 0.4689 0.0
C753 C 0.35528 0.97259 0.51987 0.0
C754 C 0.0823 0.35641 0.52448 0.0
C755 C 0.08232 0.35407 0.50143 0.0
H756 H 0.03757 0.33625 0.55393 0.0
C757 C 0.03546 0.32984 0.49027 0.0
H758 H 0.11762 0.37492 0.5335 0.0
C759 C 0.98962 0.30832 0.50186 0.0
C760 C 0.98955 0.30981 0.5249 0.0
H761 H 0.03408 0.32778 0.47244 0.0
H762 H 0.95434 0.29001 0.4928 0.0
C763 C 0.03636 0.33411 0.5361 0.0
C764 C 0.72384 0.71776 0.52812 0.0
C765 C 0.74771 0.69357 0.51776 0.0
H766 H 0.6831 0.75798 0.52414 0.0
C767 C 0.74885 0.69229 0.49467 0.0
H768 H 0.72197 0.71911 0.54593 0.0
C769 C 0.72702 0.71514 0.48223 0.0
C770 C 0.70289 0.73905 0.4926 0.0
H771 H 0.76681 0.67392 0.48623 0.0
H772 H 0.72861 0.71356 0.46442 0.0
C773 C 0.70135 0.73991 0.51569 0.0
C774 C 0.15754 0.3713 0.3302 0.0
C775 C 0.19229 0.36324 0.31802 0.0
H776 H 0.13759 0.39094 0.36057 0.0
C777 C 0.23402 0.36607 0.32927 0.0
H778 H 0.12367 0.36771 0.32287 0.0
C779 C 0.23986 0.3757 0.3521 0.0
C780 C 0.20463 0.38366 0.36398 0.0
H781 H 0.26209 0.36073 0.3206 0.0
H782 H 0.27122 0.37583 0.36043 0.0
C783 C 0.16465 0.38315 0.35241 0.0
C784 C 0.66705 0.81676 0.31838 0.0
C785 C 0.70108 0.86645 0.31103 0.0
H786 H 0.62868 0.76798 0.34565 0.0
C787 C 0.7212 0.90622 0.32665 0.0
H788 H 0.65129 0.78487 0.30703 0.0
C789 C 0.70879 0.8962 0.34908 0.0
C790 C 0.67608 0.84616 0.3564 0.0
H791 H 0.74714 0.94501 0.32161 0.0
H792 H 0.72624 0.9274 0.36074 0.0
C793 C 0.6546 0.80685 0.34068 0.0
C794 C 0.21861 0.91781 0.33819 0.0
C795 C 0.19759 0.87728 0.32305 0.0
H796 H 0.23966 0.94164 0.37135 0.0
C797 C 0.17672 0.82721 0.33104 0.0
H798 H 0.23409 0.95682 0.33276 0.0
C799 C 0.1784 0.81819 0.35358 0.0
C800 C 0.20121 0.85906 0.3686 0.0
H801 H 0.16037 0.79504 0.31985 0.0
H802 H 0.16233 0.77925 0.35917 0.0
C803 C 0.22087 0.90893 0.36054 0.0
C804 C 0.32469 0.12309 0.66006 0.0
C805 C 0.35734 0.17298 0.65254 0.0
H806 H 0.28526 0.07464 0.68719 0.0
C807 C 0.37477 0.21327 0.66785 0.0
H808 H 0.31103 0.09075 0.64903 0.0
C809 C 0.36111 0.20365 0.69015 0.0
C810 C 0.32938 0.15354 0.69764 0.0
H811 H 0.3994 0.25227 0.6627 0.0
H812 H 0.37668 0.23539 0.70157 0.0
C813 C 0.31055 0.11362 0.68218 0.0
C814 C 0.87433 0.23758 0.69734 0.0
C815 C 0.85813 0.18806 0.70508 0.0
H816 H 0.88436 0.28521 0.66978 0.0
C817 C 0.83692 0.14735 0.68994 0.0
H818 H 0.8917 0.27018 0.70828 0.0
C819 C 0.83396 0.15636 0.66751 0.0
C820 C 0.85205 0.20624 0.6598 0.0
H821 H 0.82346 0.10864 0.69532 0.0
H822 H 0.81934 0.12455 0.65613 0.0
C823 C 0.87092 0.24644 0.67509 0.0
C824 C 0.80603 0.64093 0.69167 0.0
C825 C 0.8497 0.68434 0.69949 0.0
H826 H 0.76635 0.59533 0.66372 0.0
C827 C 0.8905 0.71152 0.68491 0.0
H828 H 0.77449 0.61829 0.7026 0.0
C829 C 0.88603 0.69768 0.66258 0.0
C830 C 0.84069 0.65662 0.6546 0.0
H831 H 0.92465 0.74505 0.69047 0.0
H832 H 0.91668 0.72085 0.65134 0.0
C833 C 0.80145 0.62746 0.66947 0.0
C834 C 0.98488 0.47503 1.0048 0.0
C835 C 1.00533 0.51552 0.01997 0.0
H836 H 0.98075 0.45141 0.97137 0.0
C837 C 0.0347 0.56554 0.012 0.0
H838 H 0.96151 0.4361 0.01035 0.0
C839 C 0.04515 0.57455 0.98943 0.0
C840 C 1.02631 0.53374 0.97436 0.0
H841 H 0.05122 0.59759 0.02327 0.0
H842 H 0.06877 0.61338 0.98384 0.0
C843 C 0.99534 0.48396 0.98234 0.0
C844 C 0.56564 0.51551 0.02643 0.0
C845 C 0.526 0.5053 0.04107 0.0
H846 H 0.59234 0.53043 0.99319 0.0
C847 C 0.47978 0.49754 0.0328 0.0
H848 H 0.60152 0.52136 0.03253 0.0
C849 C 0.47457 0.50324 0.01018 0.0
C850 C 0.51564 0.51689 0.99573 0.0
H851 H 0.44891 0.48994 0.04392 0.0
H852 H 0.43959 0.49977 1.0042 0.0
C853 C 0.56048 0.52105 1.004 0.0
C854 C 0.48945 0.98352 0.03125 0.0
C855 C 0.53903 1.01181 0.03947 0.0
H856 H 0.44217 0.95199 1.00299 0.0
C857 C 0.57993 0.02683 0.02477 0.0
H858 H 0.45695 0.97194 0.04192 0.0
C859 C 0.57125 1.01555 1.00221 0.0
C860 C 0.52156 0.98955 0.99402 0.0
H861 H 0.61857 0.04831 0.0306 0.0
H862 H 0.60328 0.02921 0.99109 0.0
C863 C 0.48087 0.97251 1.00885 0.0
C864 C 0.1448 0.09038 0.23033 0.0
C865 C 0.19564 0.10711 0.22516 0.0
H866 H 0.08792 0.11103 0.23566 0.0
C867 C 0.22737 0.15846 0.21916 0.0
H868 H 0.1196 0.05123 0.23515 0.0
C869 C 0.20897 0.19268 0.21903 0.0
C870 C 0.15886 0.17635 0.22544 0.0
H871 H 0.26664 0.17229 0.21495 0.0
H872 H 0.23453 0.23229 0.21499 0.0
C873 C 0.12681 0.12471 0.23072 0.0
C874 C 0.86095 0.06858 0.21766 0.0
C875 C 0.87051 0.02797 0.21518 0.0
H876 H 0.89179 0.14849 0.22287 0.0
C877 C 0.92108 0.03897 0.21391 0.0
H878 H 0.8226 0.06185 0.2184 0.0
C879 C 0.96105 0.08939 0.21627 0.0
C880 C 0.95086 0.12922 0.22013 0.0
H881 H 0.92972 1.00858 0.21201 0.0
H882 H 0.99969 0.09694 0.2162 0.0
C883 C 0.90054 0.11837 0.22025 0.0
C884 C 0.97565 0.86872 0.26085 0.0
C885 C 0.94801 0.86265 0.24159 0.0
H886 H 0.04763 0.89001 0.27491 0.0
C887 C 0.97232 0.86983 0.221 0.0
H888 H 0.95808 0.86366 0.27689 0.0
C889 C 1.02376 0.88449 0.21979 0.0
C890 C 0.05179 0.89305 0.23917 0.0
H891 H 0.95166 0.86469 0.20585 0.0
H892 H 0.04199 0.89115 0.20382 0.0
C893 C 1.027 0.88411 0.25966 0.0
C894 C 0.12858 0.18566 0.80272 0.0
C895 C 0.11165 0.19215 0.78201 0.0
H896 H 0.17252 0.15942 0.82028 0.0
C897 C 0.12941 0.17964 0.76294 0.0
H898 H 0.11595 0.19531 0.81773 0.0
C899 C 0.16105 0.15904 0.76444 0.0
C900 C 0.17636 0.15058 0.78503 0.0
H901 H 0.11702 0.18338 0.74674 0.0
H902 H 0.17271 0.14866 0.74931 0.0
C903 C 0.1611 0.1654 0.80421 0.0
C904 C 0.84534 1.00208 0.8023 0.0
C905 C 0.89827 0.0317 0.80322 0.0
H906 H 0.78122 0.92659 0.80009 0.0
C907 C 0.92699 1.00761 0.80575 0.0
H908 H 0.8225 1.01994 0.80022 0.0
C909 C 0.90372 0.95473 0.80569 0.0
C910 C 0.85114 0.92466 0.80281 0.0
H911 H 0.96795 0.02978 0.80654 0.0
H912 H 0.92751 0.93772 0.80632 0.0
C913 C 0.8219 0.94879 0.80197 0.0
C914 C 0.07899 0.88031 0.8036 0.0
C915 C 0.10121 0.93182 0.79728 0.0
H916 H 1.01046 0.80771 0.80661 0.0
C917 C 0.06943 0.94983 0.78993 0.0
H918 H 0.10251 0.86537 0.80938 0.0
C919 C 1.01717 0.91674 0.78791 0.0
C920 C 0.99502 0.86499 0.79369 0.0
H921 H 0.08532 0.98905 0.78475 0.0
H922 H 0.99411 0.93157 0.78141 0.0
C923 C 1.02634 0.84737 0.80211 0.0
C924 C 0.87552 0.51773 0.55223 0.0
C925 C 0.82599 0.50103 0.55971 0.0
H926 H 0.93367 0.4983 0.54695 0.0
C927 C 0.79543 0.44972 0.56585 0.0
H928 H 0.90002 0.55715 0.54757 0.0
C929 C 0.81415 0.41604 0.565 0.0
C930 C 0.8644 0.43313 0.5586 0.0
H931 H 0.75718 0.43576 0.57177 0.0
H932 H 0.79004 0.37712 0.57039 0.0
C933 C 0.89481 0.48421 0.55199 0.0
C934 C 0.56885 0.42316 0.55042 0.0
C935 C 0.62201 0.44555 0.55072 0.0
H936 H 0.4969 0.35395 0.55301 0.0
C937 C 0.64298 0.41356 0.55138 0.0
H938 H 0.55145 0.44666 0.54958 0.0
C939 C 0.612 0.36111 0.55341 0.0
C940 C 0.55919 0.33906 0.55456 0.0
H941 H 0.68349 0.42907 0.5517 0.0
H942 H 0.62962 0.33785 0.55497 0.0
C943 C 0.53758 0.37016 0.55219 0.0
C944 C 0.69099 0.20811 0.59112 0.0
C945 C 0.71582 0.2175 0.57068 0.0
H946 H 0.622 0.18386 0.60847 0.0
C947 C 0.68699 0.20501 0.55129 0.0
H948 H 0.71206 0.21681 0.6064 0.0
C949 C 0.63439 0.18585 0.55249 0.0
C950 C 0.60993 0.17806 0.57309 0.0
H951 H 0.70525 0.21188 0.53532 0.0
H952 H 0.61304 0.17786 0.53736 0.0
C953 C 0.63896 0.18855 0.59232 0.0
C954 C 0.80341 0.46647 0.10765 0.0
C955 C 0.85443 0.49851 0.11312 0.0
H956 H 0.73065 0.45932 0.10346 0.0
C957 C 0.87154 0.5497 0.11858 0.0
H958 H 0.78933 0.42691 0.10332 0.0
C959 C 0.83789 0.56863 0.11813 0.0
C960 C 0.78677 0.53617 0.11272 0.0
H961 H 0.91097 0.5752 0.12256 0.0
H962 H 0.85139 0.60812 0.1223 0.0
C963 C 0.76991 0.48497 0.10766 0.0
C964 C 0.5366 0.29105 0.13012 0.0
C965 C 0.53654 0.26825 0.10984 0.0
H966 H 0.55693 0.36042 0.14757 0.0
C967 C 0.55757 0.29951 0.09127 0.0
H968 H 0.52057 0.26795 0.14471 0.0
C969 C 0.57871 0.35215 0.09294 0.0
C970 C 0.57922 0.3751 0.11319 0.0
H971 H 0.55922 0.28356 0.07551 0.0
H972 H 0.59484 0.37484 0.07823 0.0
C973 C 0.55756 0.34397 0.13177 0.0
C974 C 0.71119 0.27637 0.13457 0.0
C975 C 0.69063 0.22326 0.13358 0.0
H976 H 0.77707 0.35005 0.13228 0.0
C977 C 0.72377 0.20385 0.13237 0.0
H978 H 0.68646 0.29243 0.13531 0.0
C979 C 0.77631 0.23723 0.13043 0.0
C980 C 0.79661 0.29058 0.12976 0.0
H981 H 0.70896 0.16314 0.13125 0.0
H982 H 0.80073 0.22111 0.12855 0.0
C983 C 0.76336 0.30955 0.13279 0.0
C984 C 0.45072 0.7745 0.90409 0.0
C985 C 0.48374 0.82569 0.89838 0.0
H986 H 0.44103 0.69998 0.90845 0.0
C987 C 0.53277 0.83996 0.89102 0.0
H988 H 0.4126 0.76236 0.90974 0.0
C989 C 0.54932 0.80426 0.89066 0.0
C990 C 0.51677 0.75341 0.89715 0.0
H991 H 0.55906 0.87916 0.88662 0.0
H992 H 0.5879 0.81659 0.88572 0.0
C993 C 0.46685 0.73867 0.90324 0.0
C994 C 0.28804 0.74988 0.88584 0.0
C995 C 0.2794 0.79077 0.8893 0.0
H996 H 0.25467 0.66954 0.88006 0.0
C997 C 0.23017 0.78264 0.88723 0.0
H998 H 0.32579 0.75535 0.88743 0.0
C999 C 0.18981 0.73412 0.8829 0.0
C1000 C 0.19769 0.69241 0.88075 0.0
H1001 H 0.22275 0.81377 0.88944 0.0
H1002 H 0.15214 0.72914 0.882 0.0
C1003 C 0.24739 0.7009 0.88168 0.0
C1004 C 0.33968 0.53457 0.92951 0.0
C1005 C 0.36681 0.54209 0.90975 0.0
H1006 H 0.26962 0.51788 0.9447 0.0
C1007 C 0.34186 0.53533 0.88959 0.0
H1008 H 0.35793 0.53924 0.94531 0.0
C1009 C 0.29119 0.52364 0.88929 0.0
C1010 C 0.26455 0.5176 0.90913 0.0
H1011 H 0.36197 0.54106 0.87415 0.0
H1012 H 0.27296 0.51977 0.87357 0.0
C1013 C 0.28904 0.52206 0.9292 0.0
C1014 C 0.48587 0.81557 0.46554 0.0
C1015 C 0.52501 0.83452 0.44991 0.0
H1016 H 0.41765 0.81259 0.47632 0.0
C1017 C 0.52876 0.87052 0.43451 0.0
H1018 H 0.48194 0.78702 0.47731 0.0
C1019 C 0.49261 0.88588 0.43406 0.0
C1020 C 0.45108 0.86449 0.44866 0.0
H1021 H 0.55866 0.88532 0.42223 0.0
H1022 H 0.4963 0.91309 0.42167 0.0
C1023 C 0.44907 0.83032 0.4649 0.0
C1024 C 0.24379 0.6249 0.47429 0.0
C1025 C 0.1924 0.59223 0.46944 0.0
H1026 H 0.30479 0.70174 0.47607 0.0
C1027 C 0.16111 0.61352 0.46611 0.0
H1028 H 0.26915 0.61013 0.47677 0.0
C1029 C 0.18172 0.66656 0.46594 0.0
C1030 C 0.23393 0.69877 0.46884 0.0
H1031 H 0.12126 0.58925 0.46258 0.0
H1032 H 0.1577 0.68222 0.46188 0.0
C1033 C 0.26432 0.67752 0.47383 0.0
C1034 C 0.42237 0.63583 0.45425 0.0
C1035 C 0.45631 0.61838 0.45861 0.0
H1036 H 0.34499 0.61644 0.45024 0.0
C1037 C 0.43648 0.56688 0.46445 0.0
H1038 H 0.43636 0.67509 0.44958 0.0
C1039 C 0.38392 0.53332 0.46524 0.0
C1040 C 0.35019 0.55035 0.4597 0.0
H1041 H 0.46167 0.55241 0.46808 0.0
H1042 H 0.36979 0.49361 0.46916 0.0
C1043 C 0.37002 0.60213 0.45454 0.0
loop_
_geom_bond_atom_site_label_1
_geom_bond_atom_site_label_2
_geom_bond_distance
_geom_bond_site_symmetry_2
_ccdc_geom_bond_type
Co0 N4 2.148 . S
Co0 N10 2.128 . S
Co0 N20 2.194 . S
Co0 O25 2.351 . S
Co0 O26 2.155 . S
Co0 O27 2.096 . S
C1 N4 1.301 . S
C1 N5 1.328 . S
C1 H6 0.930 . S
C2 C3 1.333 . S
C2 N4 1.317 . S
C2 H7 0.930 . S
C3 C2 1.333 . S
C3 N5 1.350 . S
C3 H29 0.931 . S
N4 Co0 2.148 . S
N4 C1 1.301 . S
N4 C2 1.317 . S
N5 C1 1.328 . S
N5 C3 1.350 . S
H6 C1 0.930 . S
H7 C2 0.930 . S
C8 O9 1.224 . S
C8 O27 1.247 . S
O9 C8 1.224 . S
N10 Co0 2.128 . S
N10 C11 1.355 . S
N10 C13 1.311 . S
C11 N10 1.355 . S
C11 C12 1.363 1_455 S
C11 H23 0.929 . S
C12 C11 1.363 1_655 S
C12 N14 1.375 . S
C12 H30 0.931 . S
C13 N10 1.311 . S
C13 N14 1.347 1_455 S
C13 H24 0.929 . S
N14 C12 1.375 . S
N14 C13 1.347 1_655 S
C15 C18 1.365 . S
C15 N20 1.328 . S
C15 H21 0.929 . S
C16 C17 1.362 . S
C16 C19 1.378 . S
C16 H31 0.929 . S
C17 C16 1.362 . S
C17 C18 1.366 . S
C18 C15 1.365 . S
C18 C17 1.366 . S
C18 H32 0.930 . S
C19 C16 1.378 . S
C19 N20 1.315 . S
C19 H22 0.930 . S
N20 Co0 2.194 . S
N20 C15 1.328 . S
N20 C19 1.315 . S
H21 C15 0.929 . S
H22 C19 0.930 . S
H23 C11 0.929 . S
H24 C13 0.929 . S
O25 Co0 2.351 . S
O25 C28 1.244 . S
O26 Co0 2.155 . S
O26 C28 1.240 . S
O27 Co0 2.096 . S
O27 C8 1.247 . S
C28 O25 1.244 . S
C28 O26 1.240 . S
H29 C3 0.931 . S
H30 C12 0.931 . S
H31 C16 0.929 . S
H32 C18 0.930 . S
Co33 N37 2.148 . S
Co33 N43 2.128 . S
Co33 N53 2.194 . S
Co33 O58 2.351 . S
Co33 O59 2.155 . S
Co33 O60 2.096 . S
C34 N37 1.301 . S
C34 N38 1.328 . S
C34 H39 0.930 . S
C35 C36 1.333 . S
C35 N37 1.317 . S
C35 H40 0.930 . S
C36 C35 1.333 . S
C36 N38 1.350 . S
C36 H62 0.931 . S
N37 Co33 2.148 . S
N37 C34 1.301 . S
N37 C35 1.317 . S
N38 C34 1.328 . S
N38 C36 1.350 . S
H39 C34 0.930 . S
H40 C35 0.930 . S
C41 O42 1.224 . S
C41 O60 1.247 . S
O42 C41 1.224 . S
N43 Co33 2.128 . S
N43 C44 1.355 . S
N43 C46 1.311 . S
C44 N43 1.355 . S
C44 C45 1.363 . S
C44 H56 0.929 . S
C45 C44 1.363 . S
C45 N47 1.375 . S
C45 H63 0.931 . S
C46 N43 1.311 . S
C46 N47 1.347 . S
C46 H57 0.929 . S
N47 C45 1.375 . S
N47 C46 1.347 . S
C48 C51 1.365 . S
C48 N53 1.328 . S
C48 H54 0.929 . S
C49 C50 1.362 . S
C49 C52 1.378 . S
C49 H64 0.929 . S
C50 C49 1.362 . S
C50 C51 1.366 . S
C51 C48 1.365 . S
C51 C50 1.366 . S
C51 H65 0.930 . S
C52 C49 1.378 . S
C52 N53 1.315 . S
C52 H55 0.930 . S
N53 Co33 2.194 . S
N53 C48 1.328 . S
N53 C52 1.315 . S
H54 C48 0.929 . S
H55 C52 0.930 . S
H56 C44 0.929 . S
H57 C46 0.929 . S
O58 Co33 2.351 . S
O58 C61 1.244 . S
O59 Co33 2.155 . S
O59 C61 1.240 . S
O60 Co33 2.096 . S
O60 C41 1.247 . S
C61 O58 1.244 . S
C61 O59 1.240 . S
H62 C36 0.931 . S
H63 C45 0.931 . S
H64 C49 0.929 . S
H65 C51 0.930 . S
Co66 N70 2.148 . S
Co66 N76 2.128 . S
Co66 N86 2.194 . S
Co66 O91 2.351 . S
Co66 O92 2.155 . S
Co66 O93 2.096 . S
C67 N70 1.301 . S
C67 N71 1.328 . S
C67 H72 0.930 . S
C68 C69 1.333 . S
C68 N70 1.317 . S
C68 H73 0.930 . S
C69 C68 1.333 . S
C69 N71 1.350 . S
C69 H95 0.931 . S
N70 Co66 2.148 . S
N70 C67 1.301 . S
N70 C68 1.317 . S
N71 C67 1.328 . S
N71 C69 1.350 . S
H72 C67 0.930 . S
H73 C68 0.930 . S
C74 O75 1.224 . S
C74 O93 1.247 . S
O75 C74 1.224 . S
N76 Co66 2.128 . S
N76 C77 1.355 . S
N76 C79 1.311 . S
C77 N76 1.355 . S
C77 C78 1.363 1_565 S
C77 H89 0.929 . S
C78 C77 1.363 1_545 S
C78 N80 1.375 . S
C78 H96 0.931 . S
C79 N76 1.311 . S
C79 N80 1.347 1_565 S
C79 H90 0.929 . S
N80 C78 1.375 . S
N80 C79 1.347 1_545 S
C81 C84 1.365 . S
C81 N86 1.328 . S
C81 H87 0.929 . S
C82 C83 1.362 . S
C82 C85 1.378 . S
C82 H97 0.929 . S
C83 C82 1.362 . S
C83 C84 1.366 . S
C84 C81 1.365 . S
C84 C83 1.366 . S
C84 H98 0.930 . S
C85 C82 1.378 . S
C85 N86 1.315 . S
C85 H88 0.930 . S
N86 Co66 2.194 . S
N86 C81 1.328 . S
N86 C85 1.315 . S
H87 C81 0.929 . S
H88 C85 0.930 . S
H89 C77 0.929 . S
H90 C79 0.929 . S
O91 Co66 2.351 . S
O91 C94 1.244 . S
O92 Co66 2.155 . S
O92 C94 1.240 . S
O93 Co66 2.096 . S
O93 C74 1.247 . S
C94 O91 1.244 . S
C94 O92 1.240 . S
H95 C69 0.931 . S
H96 C78 0.931 . S
H97 C82 0.929 . S
H98 C84 0.930 . S
Co99 N103 2.148 . S
Co99 N109 2.128 . S
Co99 N119 2.194 . S
Co99 O124 2.351 . S
Co99 O125 2.155 . S
Co99 O126 2.096 . S
C100 N103 1.301 . S
C100 N104 1.328 . S
C100 H105 0.930 . S
C101 C102 1.333 . S
C101 N103 1.317 . S
C101 H106 0.930 . S
C102 C101 1.333 . S
C102 N104 1.350 . S
C102 H128 0.931 . S
N103 Co99 2.148 . S
N103 C100 1.301 . S
N103 C101 1.317 . S
N104 C100 1.328 . S
N104 C102 1.350 . S
H105 C100 0.930 . S
H106 C101 0.930 . S
C107 O108 1.224 . S
C107 O126 1.247 . S
O108 C107 1.224 . S
N109 Co99 2.128 . S
N109 C110 1.355 . S
N109 C112 1.311 . S
C110 N109 1.355 . S
C110 C111 1.363 1_545 S
C110 H122 0.929 . S
C111 C110 1.363 1_565 S
C111 N113 1.375 . S
C111 H129 0.931 . S
C112 N109 1.311 . S
C112 N113 1.347 1_545 S
C112 H123 0.929 . S
N113 C111 1.375 . S
N113 C112 1.347 1_565 S
C114 C117 1.365 . S
C114 N119 1.328 . S
C114 H120 0.929 . S
C115 C116 1.362 . S
C115 C118 1.378 . S
C115 H130 0.929 . S
C116 C115 1.362 . S
C116 C117 1.366 . S
C117 C114 1.365 . S
C117 C116 1.366 . S
C117 H131 0.930 . S
C118 C115 1.378 . S
C118 N119 1.315 . S
C118 H121 0.930 . S
N119 Co99 2.194 . S
N119 C114 1.328 . S
N119 C118 1.315 . S
H120 C114 0.929 . S
H121 C118 0.930 . S
H122 C110 0.929 . S
H123 C112 0.929 . S
O124 Co99 2.351 . S
O124 C127 1.244 . S
O125 Co99 2.155 . S
O125 C127 1.240 . S
O126 Co99 2.096 . S
O126 C107 1.247 . S
C127 O124 1.244 . S
C127 O125 1.240 . S
H128 C102 0.931 . S
H129 C111 0.931 . S
H130 C115 0.929 . S
H131 C117 0.930 . S
Co132 N136 2.148 . S
Co132 N142 2.128 . S
Co132 N152 2.194 . S
Co132 O157 2.351 . S
Co132 O158 2.155 . S
Co132 O159 2.096 . S
C133 N136 1.301 . S
C133 N137 1.328 . S
C133 H138 0.930 . S
C134 C135 1.333 . S
C134 N136 1.317 . S
C134 H139 0.930 . S
C135 C134 1.333 . S
C135 N137 1.350 . S
C135 H161 0.931 . S
N136 Co132 2.148 . S
N136 C133 1.301 . S
N136 C134 1.317 . S
N137 C133 1.328 . S
N137 C135 1.350 . S
H138 C133 0.930 . S
H139 C134 0.930 . S
C140 O141 1.224 . S
C140 O159 1.247 . S
O141 C140 1.224 . S
N142 Co132 2.128 . S
N142 C143 1.355 . S
N142 C145 1.311 . S
C143 N142 1.355 . S
C143 C144 1.363 1_655 S
C143 H155 0.929 . S
C144 C143 1.363 1_455 S
C144 N146 1.375 . S
C144 H162 0.931 . S
C145 N142 1.311 . S
C145 N146 1.347 1_655 S
C145 H156 0.929 . S
N146 C144 1.375 . S
N146 C145 1.347 1_455 S
C147 C150 1.365 . S
C147 N152 1.328 . S
C147 H153 0.929 . S
C148 C149 1.362 . S
C148 C151 1.378 . S
C148 H163 0.929 . S
C149 C148 1.362 . S
C149 C150 1.366 . S
C150 C147 1.365 . S
C150 C149 1.366 . S
C150 H164 0.930 . S
C151 C148 1.378 . S
C151 N152 1.315 . S
C151 H154 0.930 . S
N152 Co132 2.194 . S
N152 C147 1.328 . S
N152 C151 1.315 . S
H153 C147 0.929 . S
H154 C151 0.930 . S
H155 C143 0.929 . S
H156 C145 0.929 . S
O157 Co132 2.351 . S
O157 C160 1.244 . S
O158 Co132 2.155 . S
O158 C160 1.240 . S
O159 Co132 2.096 . S
O159 C140 1.247 . S
C160 O157 1.244 . S
C160 O158 1.240 . S
H161 C135 0.931 . S
H162 C144 0.931 . S
H163 C148 0.929 . S
H164 C150 0.930 . S
Co165 N169 2.148 . S
Co165 N175 2.128 . S
Co165 N185 2.194 . S
Co165 O190 2.351 . S
Co165 O191 2.155 . S
Co165 O192 2.096 . S
C166 N169 1.301 . S
C166 N170 1.328 . S
C166 H171 0.930 . S
C167 C168 1.333 . S
C167 N169 1.317 . S
C167 H172 0.930 . S
C168 C167 1.333 . S
C168 N170 1.350 . S
C168 H194 0.931 . S
N169 Co165 2.148 . S
N169 C166 1.301 . S
N169 C167 1.317 . S
N170 C166 1.328 . S
N170 C168 1.350 . S
H171 C166 0.930 . S
H172 C167 0.930 . S
C173 O174 1.224 . S
C173 O192 1.247 . S
O174 C173 1.224 . S
N175 Co165 2.128 . S
N175 C176 1.355 . S
N175 C178 1.311 . S
C176 N175 1.355 . S
C176 C177 1.363 . S
C176 H188 0.929 . S
C177 C176 1.363 . S
C177 N179 1.375 . S
C177 H195 0.931 . S
C178 N175 1.311 . S
C178 N179 1.347 . S
C178 H189 0.929 . S
N179 C177 1.375 . S
N179 C178 1.347 . S
C180 C183 1.365 . S
C180 N185 1.328 . S
C180 H186 0.929 . S
C181 C182 1.362 . S
C181 C184 1.378 . S
C181 H196 0.929 . S
C182 C181 1.362 . S
C182 C183 1.366 . S
C183 C180 1.365 . S
C183 C182 1.366 . S
C183 H197 0.930 . S
C184 C181 1.378 . S
C184 N185 1.315 . S
C184 H187 0.930 . S
N185 Co165 2.194 . S
N185 C180 1.328 . S
N185 C184 1.315 . S
H186 C180 0.929 . S
H187 C184 0.930 . S
H188 C176 0.929 . S
H189 C178 0.929 . S
O190 Co165 2.351 . S
O190 C193 1.244 . S
O191 Co165 2.155 . S
O191 C193 1.240 . S
O192 Co165 2.096 . S
O192 C173 1.247 . S
C193 O190 1.244 . S
C193 O191 1.240 . S
H194 C168 0.931 . S
H195 C177 0.931 . S
H196 C181 0.929 . S
H197 C183 0.930 . S
Co198 N202 2.148 . S
Co198 N208 2.128 . S
Co198 N218 2.194 . S
Co198 O223 2.351 . S
Co198 O224 2.155 . S
Co198 O225 2.096 . S
C199 N202 1.301 . S
C199 N203 1.328 . S
C199 H204 0.930 . S
C200 C201 1.333 . S
C200 N202 1.317 . S
C200 H205 0.930 . S
C201 C200 1.333 . S
C201 N203 1.350 . S
C201 H227 0.931 . S
N202 Co198 2.148 . S
N202 C199 1.301 . S
N202 C200 1.317 . S
N203 C199 1.328 . S
N203 C201 1.350 . S
H204 C199 0.930 . S
H205 C200 0.930 . S
C206 O207 1.224 . S
C206 O225 1.247 . S
O207 C206 1.224 . S
N208 Co198 2.128 . S
N208 C209 1.355 . S
N208 C211 1.311 . S
C209 N208 1.355 . S
C209 C210 1.363 . S
C209 H221 0.929 . S
C210 C209 1.363 . S
C210 N212 1.375 . S
C210 H228 0.931 . S
C211 N208 1.311 . S
C211 N212 1.347 . S
C211 H222 0.929 . S
N212 C210 1.375 . S
N212 C211 1.347 . S
C213 C216 1.365 . S
C213 N218 1.328 . S
C213 H219 0.929 . S
C214 C215 1.362 . S
C214 C217 1.378 . S
C214 H229 0.929 . S
C215 C214 1.362 . S
C215 C216 1.366 . S
C216 C213 1.365 . S
C216 C215 1.366 . S
C216 H230 0.930 . S
C217 C214 1.378 . S
C217 N218 1.315 . S
C217 H220 0.930 . S
N218 Co198 2.194 . S
N218 C213 1.328 . S
N218 C217 1.315 . S
H219 C213 0.929 . S
H220 C217 0.930 . S
H221 C209 0.929 . S
H222 C211 0.929 . S
O223 Co198 2.351 . S
O223 C226 1.244 . S
O224 Co198 2.155 . S
O224 C226 1.240 . S
O225 Co198 2.096 . S
O225 C206 1.247 . S
C226 O223 1.244 . S
C226 O224 1.240 . S
H227 C201 0.931 . S
H228 C210 0.931 . S
H229 C214 0.929 . S
H230 C216 0.930 . S
Co231 N235 2.148 . S
Co231 N241 2.128 . S
Co231 N251 2.194 . S
Co231 O256 2.351 . S
Co231 O257 2.155 . S
Co231 O258 2.096 . S
C232 N235 1.301 . S
C232 N236 1.328 . S
C232 H237 0.930 . S
C233 C234 1.333 . S
C233 N235 1.317 . S
C233 H238 0.930 . S
C234 C233 1.333 . S
C234 N236 1.350 . S
C234 H260 0.931 . S
N235 Co231 2.148 . S
N235 C232 1.301 . S
N235 C233 1.317 . S
N236 C232 1.328 . S
N236 C234 1.350 . S
H237 C232 0.930 . S
H238 C233 0.930 . S
C239 O240 1.224 . S
C239 O258 1.247 . S
O240 C239 1.224 . S
N241 Co231 2.128 . S
N241 C242 1.355 . S
N241 C244 1.311 . S
C242 N241 1.355 . S
C242 C243 1.363 . S
C242 H254 0.929 . S
C243 C242 1.363 . S
C243 N245 1.375 . S
C243 H261 0.931 . S
C244 N241 1.311 . S
C244 N245 1.347 . S
C244 H255 0.929 . S
N245 C243 1.375 . S
N245 C244 1.347 . S
C246 C249 1.365 . S
C246 N251 1.328 . S
C246 H252 0.929 . S
C247 C248 1.362 . S
C247 C250 1.378 . S
C247 H262 0.929 . S
C248 C247 1.362 . S
C248 C249 1.366 . S
C249 C246 1.365 . S
C249 C248 1.366 . S
C249 H263 0.930 . S
C250 C247 1.378 . S
C250 N251 1.315 . S
C250 H253 0.930 . S
N251 Co231 2.194 . S
N251 C246 1.328 . S
N251 C250 1.315 . S
H252 C246 0.929 . S
H253 C250 0.930 . S
H254 C242 0.929 . S
H255 C244 0.929 . S
O256 Co231 2.351 . S
O256 C259 1.244 . S
O257 Co231 2.155 . S
O257 C259 1.240 . S
O258 Co231 2.096 . S
O258 C239 1.247 . S
C259 O256 1.244 . S
C259 O257 1.240 . S
H260 C234 0.931 . S
H261 C243 0.931 . S
H262 C247 0.929 . S
H263 C249 0.930 . S
Co264 N268 2.148 . S
Co264 N274 2.128 . S
Co264 N284 2.194 . S
Co264 O289 2.351 . S
Co264 O290 2.155 . S
Co264 O291 2.096 . S
C265 N268 1.301 . S
C265 N269 1.328 . S
C265 H270 0.930 . S
C266 C267 1.333 . S
C266 N268 1.317 . S
C266 H271 0.930 . S
C267 C266 1.333 . S
C267 N269 1.350 . S
C267 H293 0.931 . S
N268 Co264 2.148 . S
N268 C265 1.301 . S
N268 C266 1.317 . S
N269 C265 1.328 . S
N269 C267 1.350 . S
H270 C265 0.930 . S
H271 C266 0.930 . S
C272 O273 1.224 . S
C272 O291 1.247 . S
O273 C272 1.224 . S
N274 Co264 2.128 . S
N274 C275 1.355 . S
N274 C277 1.311 . S
C275 N274 1.355 . S
C275 C276 1.363 . S
C275 H287 0.929 . S
C276 C275 1.363 . S
C276 N278 1.375 . S
C276 H294 0.931 . S
C277 N274 1.311 . S
C277 N278 1.347 . S
C277 H288 0.929 . S
N278 C276 1.375 . S
N278 C277 1.347 . S
C279 C282 1.365 . S
C279 N284 1.328 . S
C279 H285 0.929 . S
C280 C281 1.362 . S
C280 C283 1.378 . S
C280 H295 0.929 . S
C281 C280 1.362 . S
C281 C282 1.366 . S
C282 C279 1.365 . S
C282 C281 1.366 . S
C282 H296 0.930 . S
C283 C280 1.378 . S
C283 N284 1.315 . S
C283 H286 0.930 . S
N284 Co264 2.194 . S
N284 C279 1.328 . S
N284 C283 1.315 . S
H285 C279 0.929 . S
H286 C283 0.930 . S
H287 C275 0.929 . S
H288 C277 0.929 . S
O289 Co264 2.351 . S
O289 C292 1.244 . S
O290 Co264 2.155 . S
O290 C292 1.240 . S
O291 Co264 2.096 . S
O291 C272 1.247 . S
C292 O289 1.244 . S
C292 O290 1.240 . S
H293 C267 0.931 . S
H294 C276 0.931 . S
H295 C280 0.929 . S
H296 C282 0.930 . S
Co297 N301 2.148 . S
Co297 N307 2.128 . S
Co297 N317 2.194 . S
Co297 O322 2.351 . S
Co297 O323 2.155 . S
Co297 O324 2.096 . S
C298 N301 1.301 1_455 S
C298 N302 1.328 . S
C298 H303 0.930 . S
C299 C300 1.333 . S
C299 N301 1.317 . S
C299 H304 0.930 . S
C300 C299 1.333 . S
C300 N302 1.350 1_655 S
C300 H326 0.931 . S
N301 Co297 2.148 . S
N301 C298 1.301 1_655 S
N301 C299 1.317 . S
N302 C298 1.328 . S
N302 C300 1.350 1_455 S
H303 C298 0.930 . S
H304 C299 0.930 . S
C305 O306 1.224 . S
C305 O324 1.247 . S
O306 C305 1.224 . S
N307 Co297 2.128 . S
N307 C308 1.355 . S
N307 C310 1.311 . S
C308 N307 1.355 . S
C308 C309 1.363 . S
C308 H320 0.929 . S
C309 C308 1.363 . S
C309 N311 1.375 . S
C309 H327 0.931 . S
C310 N307 1.311 . S
C310 N311 1.347 . S
C310 H321 0.929 . S
N311 C309 1.375 . S
N311 C310 1.347 . S
C312 C315 1.365 1_655 S
C312 N317 1.328 . S
C312 H318 0.929 1_655 S
C313 C314 1.362 . S
C313 C316 1.378 . S
C313 H328 0.929 . S
C314 C313 1.362 . S
C314 C315 1.366 1_655 S
C315 C312 1.365 1_455 S
C315 C314 1.366 1_455 S
C315 H329 0.930 . S
C316 C313 1.378 . S
C316 N317 1.315 . S
C316 H319 0.930 . S
N317 Co297 2.194 . S
N317 C312 1.328 . S
N317 C316 1.315 . S
H318 C312 0.929 1_455 S
H319 C316 0.930 . S
H320 C308 0.929 . S
H321 C310 0.929 . S
O322 Co297 2.351 . S
O322 C325 1.244 . S
O323 Co297 2.155 . S
O323 C325 1.240 . S
O324 Co297 2.096 . S
O324 C305 1.247 . S
C325 O322 1.244 . S
C325 O323 1.240 . S
H326 C300 0.931 . S
H327 C309 0.931 . S
H328 C313 0.929 . S
H329 C315 0.930 . S
Co330 N334 2.148 . S
Co330 N340 2.128 . S
Co330 N350 2.194 . S
Co330 O355 2.351 . S
Co330 O356 2.155 . S
Co330 O357 2.096 . S
C331 N334 1.301 . S
C331 N335 1.328 . S
C331 H336 0.930 . S
C332 C333 1.333 . S
C332 N334 1.317 . S
C332 H337 0.930 . S
C333 C332 1.333 . S
C333 N335 1.350 . S
C333 H359 0.931 . S
N334 Co330 2.148 . S
N334 C331 1.301 . S
N334 C332 1.317 . S
N335 C331 1.328 . S
N335 C333 1.350 . S
H336 C331 0.930 . S
H337 C332 0.930 . S
C338 O339 1.224 . S
C338 O357 1.247 . S
O339 C338 1.224 . S
N340 Co330 2.128 . S
N340 C341 1.355 . S
N340 C343 1.311 . S
C341 N340 1.355 . S
C341 C342 1.363 . S
C341 H353 0.929 . S
C342 C341 1.363 . S
C342 N344 1.375 . S
C342 H360 0.931 . S
C343 N340 1.311 . S
C343 N344 1.347 . S
C343 H354 0.929 . S
N344 C342 1.375 . S
N344 C343 1.347 . S
C345 C348 1.365 . S
C345 N350 1.328 . S
C345 H351 0.929 . S
C346 C347 1.362 . S
C346 C349 1.378 . S
C346 H361 0.929 . S
C347 C346 1.362 . S
C347 C348 1.366 . S
C348 C345 1.365 . S
C348 C347 1.366 . S
C348 H362 0.930 . S
C349 C346 1.378 . S
C349 N350 1.315 . S
C349 H352 0.930 . S
N350 Co330 2.194 . S
N350 C345 1.328 . S
N350 C349 1.315 . S
H351 C345 0.929 . S
H352 C349 0.930 . S
H353 C341 0.929 . S
H354 C343 0.929 . S
O355 Co330 2.351 . S
O355 C358 1.244 . S
O356 Co330 2.155 . S
O356 C358 1.240 . S
O357 Co330 2.096 . S
O357 C338 1.247 . S
C358 O355 1.244 . S
C358 O356 1.240 . S
H359 C333 0.931 . S
H360 C342 0.931 . S
H361 C346 0.929 . S
H362 C348 0.930 . S
Co363 N367 2.148 . S
Co363 N373 2.128 . S
Co363 N383 2.194 . S
Co363 O388 2.351 . S
Co363 O389 2.155 . S
Co363 O390 2.096 . S
C364 N367 1.301 1_565 S
C364 N368 1.328 . S
C364 H369 0.930 . S
C365 C366 1.333 . S
C365 N367 1.317 . S
C365 H370 0.930 . S
C366 C365 1.333 . S
C366 N368 1.350 1_545 S
C366 H392 0.931 . S
N367 Co363 2.148 . S
N367 C364 1.301 1_545 S
N367 C365 1.317 . S
N368 C364 1.328 . S
N368 C366 1.350 1_565 S
H369 C364 0.930 . S
H370 C365 0.930 . S
C371 O372 1.224 . S
C371 O390 1.247 . S
O372 C371 1.224 . S
N373 Co363 2.128 . S
N373 C374 1.355 . S
N373 C376 1.311 . S
C374 N373 1.355 . S
C374 C375 1.363 . S
C374 H386 0.929 . S
C375 C374 1.363 . S
C375 N377 1.375 . S
C375 H393 0.931 . S
C376 N373 1.311 . S
C376 N377 1.347 . S
C376 H387 0.929 . S
N377 C375 1.375 . S
N377 C376 1.347 . S
C378 C381 1.365 1_545 S
C378 N383 1.328 . S
C378 H384 0.929 1_545 S
C379 C380 1.362 . S
C379 C382 1.378 . S
C379 H394 0.929 . S
C380 C379 1.362 . S
C380 C381 1.366 1_545 S
C381 C378 1.365 1_565 S
C381 C380 1.366 1_565 S
C381 H395 0.930 . S
C382 C379 1.378 . S
C382 N383 1.315 . S
C382 H385 0.930 . S
N383 Co363 2.194 . S
N383 C378 1.328 . S
N383 C382 1.315 . S
H384 C378 0.929 1_565 S
H385 C382 0.930 . S
H386 C374 0.929 . S
H387 C376 0.929 . S
O388 Co363 2.351 . S
O388 C391 1.244 . S
O389 Co363 2.155 . S
O389 C391 1.240 . S
O390 Co363 2.096 . S
O390 C371 1.247 . S
C391 O388 1.244 . S
C391 O389 1.240 . S
H392 C366 0.931 . S
H393 C375 0.931 . S
H394 C379 0.929 . S
H395 C381 0.930 . S
Co396 N400 2.148 . S
Co396 N406 2.128 . S
Co396 N416 2.194 . S
Co396 O421 2.351 . S
Co396 O422 2.155 . S
Co396 O423 2.096 . S
C397 N400 1.301 1_545 S
C397 N401 1.328 . S
C397 H402 0.930 . S
C398 C399 1.333 . S
C398 N400 1.317 . S
C398 H403 0.930 . S
C399 C398 1.333 . S
C399 N401 1.350 1_565 S
C399 H425 0.931 . S
N400 Co396 2.148 . S
N400 C397 1.301 1_565 S
N400 C398 1.317 . S
N401 C397 1.328 . S
N401 C399 1.350 1_545 S
H402 C397 0.930 . S
H403 C398 0.930 . S
C404 O405 1.224 . S
C404 O423 1.247 . S
O405 C404 1.224 . S
N406 Co396 2.128 . S
N406 C407 1.355 . S
N406 C409 1.311 . S
C407 N406 1.355 . S
C407 C408 1.363 . S
C407 H419 0.929 . S
C408 C407 1.363 . S
C408 N410 1.375 . S
C408 H426 0.931 . S
C409 N406 1.311 . S
C409 N410 1.347 . S
C409 H420 0.929 . S
N410 C408 1.375 . S
N410 C409 1.347 . S
C411 C414 1.365 1_565 S
C411 N416 1.328 . S
C411 H417 0.929 1_565 S
C412 C413 1.362 . S
C412 C415 1.378 . S
C412 H427 0.929 . S
C413 C412 1.362 . S
C413 C414 1.366 1_565 S
C414 C411 1.365 1_545 S
C414 C413 1.366 1_545 S
C414 H428 0.930 . S
C415 C412 1.378 . S
C415 N416 1.315 . S
C415 H418 0.930 . S
N416 Co396 2.194 . S
N416 C411 1.328 . S
N416 C415 1.315 . S
H417 C411 0.929 1_545 S
H418 C415 0.930 . S
H419 C407 0.929 . S
H420 C409 0.929 . S
O421 Co396 2.351 . S
O421 C424 1.244 . S
O422 Co396 2.155 . S
O422 C424 1.240 . S
O423 Co396 2.096 . S
O423 C404 1.247 . S
C424 O421 1.244 . S
C424 O422 1.240 . S
H425 C399 0.931 . S
H426 C408 0.931 . S
H427 C412 0.929 . S
H428 C414 0.930 . S
Co429 N433 2.148 . S
Co429 N439 2.128 . S
Co429 N449 2.194 . S
Co429 O454 2.351 . S
Co429 O455 2.155 . S
Co429 O456 2.096 . S
C430 N433 1.301 1_655 S
C430 N434 1.328 . S
C430 H435 0.930 . S
C431 C432 1.333 . S
C431 N433 1.317 . S
C431 H436 0.930 . S
C432 C431 1.333 . S
C432 N434 1.350 1_455 S
C432 H458 0.931 . S
N433 Co429 2.148 . S
N433 C430 1.301 1_455 S
N433 C431 1.317 . S
N434 C430 1.328 . S
N434 C432 1.350 1_655 S
H435 C430 0.930 . S
H436 C431 0.930 . S
C437 O438 1.224 . S
C437 O456 1.247 . S
O438 C437 1.224 . S
N439 Co429 2.128 . S
N439 C440 1.355 . S
N439 C442 1.311 . S
C440 N439 1.355 . S
C440 C441 1.363 . S
C440 H452 0.929 . S
C441 C440 1.363 . S
C441 N443 1.375 . S
C441 H459 0.931 . S
C442 N439 1.311 . S
C442 N443 1.347 . S
C442 H453 0.929 . S
N443 C441 1.375 . S
N443 C442 1.347 . S
C444 C447 1.365 1_455 S
C444 N449 1.328 . S
C444 H450 0.929 1_455 S
C445 C446 1.362 . S
C445 C448 1.378 . S
C445 H460 0.929 . S
C446 C445 1.362 . S
C446 C447 1.366 1_455 S
C447 C444 1.365 1_655 S
C447 C446 1.366 1_655 S
C447 H461 0.930 . S
C448 C445 1.378 . S
C448 N449 1.315 . S
C448 H451 0.930 . S
N449 Co429 2.194 . S
N449 C444 1.328 . S
N449 C448 1.315 . S
H450 C444 0.929 1_655 S
H451 C448 0.930 . S
H452 C440 0.929 . S
H453 C442 0.929 . S
O454 Co429 2.351 . S
O454 C457 1.244 . S
O455 Co429 2.155 . S
O455 C457 1.240 . S
O456 Co429 2.096 . S
O456 C437 1.247 . S
C457 O454 1.244 . S
C457 O455 1.240 . S
H458 C432 0.931 . S
H459 C441 0.931 . S
H460 C445 0.929 . S
H461 C447 0.930 . S
Co462 N466 2.148 . S
Co462 N472 2.128 . S
Co462 N482 2.194 . S
Co462 O487 2.351 . S
Co462 O488 2.155 . S
Co462 O489 2.096 . S
C463 N466 1.301 . S
C463 N467 1.328 . S
C463 H468 0.930 . S
C464 C465 1.333 . S
C464 N466 1.317 . S
C464 H469 0.930 . S
C465 C464 1.333 . S
C465 N467 1.350 . S
C465 H491 0.931 . S
N466 Co462 2.148 . S
N466 C463 1.301 . S
N466 C464 1.317 . S
N467 C463 1.328 . S
N467 C465 1.350 . S
H468 C463 0.930 . S
H469 C464 0.930 . S
C470 O471 1.224 . S
C470 O489 1.247 . S
O471 C470 1.224 . S
N472 Co462 2.128 . S
N472 C473 1.355 . S
N472 C475 1.311 . S
C473 N472 1.355 . S
C473 C474 1.363 . S
C473 H485 0.929 . S
C474 C473 1.363 . S
C474 N476 1.375 . S
C474 H492 0.931 . S
C475 N472 1.311 . S
C475 N476 1.347 . S
C475 H486 0.929 . S
N476 C474 1.375 . S
N476 C475 1.347 . S
C477 C480 1.365 . S
C477 N482 1.328 . S
C477 H483 0.929 . S
C478 C479 1.362 . S
C478 C481 1.378 . S
C478 H493 0.929 . S
C479 C478 1.362 . S
C479 C480 1.366 . S
C480 C477 1.365 . S
C480 C479 1.366 . S
C480 H494 0.930 . S
C481 C478 1.378 . S
C481 N482 1.315 . S
C481 H484 0.930 . S
N482 Co462 2.194 . S
N482 C477 1.328 . S
N482 C481 1.315 . S
H483 C477 0.929 . S
H484 C481 0.930 . S
H485 C473 0.929 . S
H486 C475 0.929 . S
O487 Co462 2.351 . S
O487 C490 1.244 . S
O488 Co462 2.155 . S
O488 C490 1.240 . S
O489 Co462 2.096 . S
O489 C470 1.247 . S
C490 O487 1.244 . S
C490 O488 1.240 . S
H491 C465 0.931 . S
H492 C474 0.931 . S
H493 C478 0.929 . S
H494 C480 0.930 . S
Co495 N499 2.148 . S
Co495 N505 2.128 . S
Co495 N515 2.194 . S
Co495 O520 2.351 . S
Co495 O521 2.155 . S
Co495 O522 2.096 . S
C496 N499 1.301 . S
C496 N500 1.328 . S
C496 H501 0.930 . S
C497 C498 1.333 . S
C497 N499 1.317 . S
C497 H502 0.930 . S
C498 C497 1.333 . S
C498 N500 1.350 . S
C498 H524 0.931 . S
N499 Co495 2.148 . S
N499 C496 1.301 . S
N499 C497 1.317 . S
N500 C496 1.328 . S
N500 C498 1.350 . S
H501 C496 0.930 . S
H502 C497 0.930 . S
C503 O504 1.224 . S
C503 O522 1.247 . S
O504 C503 1.224 . S
N505 Co495 2.128 . S
N505 C506 1.355 . S
N505 C508 1.311 . S
C506 N505 1.355 . S
C506 C507 1.363 . S
C506 H518 0.929 . S
C507 C506 1.363 . S
C507 N509 1.375 . S
C507 H525 0.931 . S
C508 N505 1.311 . S
C508 N509 1.347 . S
C508 H519 0.929 . S
N509 C507 1.375 . S
N509 C508 1.347 . S
C510 C513 1.365 . S
C510 N515 1.328 . S
C510 H516 0.929 . S
C511 C512 1.362 . S
C511 C514 1.378 . S
C511 H526 0.929 . S
C512 C511 1.362 . S
C512 C513 1.366 . S
C513 C510 1.365 . S
C513 C512 1.366 . S
C513 H527 0.930 . S
C514 C511 1.378 . S
C514 N515 1.315 . S
C514 H517 0.930 . S
N515 Co495 2.194 . S
N515 C510 1.328 . S
N515 C514 1.315 . S
H516 C510 0.929 . S
H517 C514 0.930 . S
H518 C506 0.929 . S
H519 C508 0.929 . S
O520 Co495 2.351 . S
O520 C523 1.244 . S
O521 Co495 2.155 . S
O521 C523 1.240 . S
O522 Co495 2.096 . S
O522 C503 1.247 . S
C523 O520 1.244 . S
C523 O521 1.240 . S
H524 C498 0.931 . S
H525 C507 0.931 . S
H526 C511 0.929 . S
H527 C513 0.930 . S
Co528 N532 2.148 . S
Co528 N538 2.128 . S
Co528 N548 2.194 . S
Co528 O553 2.351 . S
Co528 O554 2.155 . S
Co528 O555 2.096 . S
C529 N532 1.301 . S
C529 N533 1.328 . S
C529 H534 0.930 . S
C530 C531 1.333 . S
C530 N532 1.317 . S
C530 H535 0.930 . S
C531 C530 1.333 . S
C531 N533 1.350 . S
C531 H557 0.931 . S
N532 Co528 2.148 . S
N532 C529 1.301 . S
N532 C530 1.317 . S
N533 C529 1.328 . S
N533 C531 1.350 . S
H534 C529 0.930 . S
H535 C530 0.930 . S
C536 O537 1.224 . S
C536 O555 1.247 . S
O537 C536 1.224 . S
N538 Co528 2.128 . S
N538 C539 1.355 . S
N538 C541 1.311 . S
C539 N538 1.355 . S
C539 C540 1.363 . S
C539 H551 0.929 . S
C540 C539 1.363 . S
C540 N542 1.375 . S
C540 H558 0.931 . S
C541 N538 1.311 . S
C541 N542 1.347 . S
C541 H552 0.929 . S
N542 C540 1.375 . S
N542 C541 1.347 . S
C543 C546 1.365 . S
C543 N548 1.328 . S
C543 H549 0.929 . S
C544 C545 1.362 . S
C544 C547 1.378 . S
C544 H559 0.929 . S
C545 C544 1.362 . S
C545 C546 1.366 . S
C546 C543 1.365 . S
C546 C545 1.366 . S
C546 H560 0.930 . S
C547 C544 1.378 . S
C547 N548 1.315 . S
C547 H550 0.930 . S
N548 Co528 2.194 . S
N548 C543 1.328 . S
N548 C547 1.315 . S
H549 C543 0.929 . S
H550 C547 0.930 . S
H551 C539 0.929 . S
H552 C541 0.929 . S
O553 Co528 2.351 . S
O553 C556 1.244 . S
O554 Co528 2.155 . S
O554 C556 1.240 . S
O555 Co528 2.096 . S
O555 C536 1.247 . S
C556 O553 1.244 . S
C556 O554 1.240 . S
H557 C531 0.931 . S
H558 C540 0.931 . S
H559 C544 0.929 . S
H560 C546 0.930 . S
Co561 N565 2.148 . S
Co561 N571 2.128 . S
Co561 N581 2.194 . S
Co561 O586 2.351 . S
Co561 O587 2.155 . S
Co561 O588 2.096 . S
C562 N565 1.301 . S
C562 N566 1.328 . S
C562 H567 0.930 . S
C563 C564 1.333 . S
C563 N565 1.317 . S
C563 H568 0.930 . S
C564 C563 1.333 . S
C564 N566 1.350 . S
C564 H590 0.931 . S
N565 Co561 2.148 . S
N565 C562 1.301 . S
N565 C563 1.317 . S
N566 C562 1.328 . S
N566 C564 1.350 . S
H567 C562 0.930 . S
H568 C563 0.930 . S
C569 O570 1.224 . S
C569 O588 1.247 . S
O570 C569 1.224 . S
N571 Co561 2.128 . S
N571 C572 1.355 . S
N571 C574 1.311 . S
C572 N571 1.355 . S
C572 C573 1.363 . S
C572 H584 0.929 . S
C573 C572 1.363 . S
C573 N575 1.375 . S
C573 H591 0.931 . S
C574 N571 1.311 . S
C574 N575 1.347 . S
C574 H585 0.929 . S
N575 C573 1.375 . S
N575 C574 1.347 . S
C576 C579 1.365 . S
C576 N581 1.328 . S
C576 H582 0.929 . S
C577 C578 1.362 . S
C577 C580 1.378 . S
C577 H592 0.929 . S
C578 C577 1.362 . S
C578 C579 1.366 . S
C579 C576 1.365 . S
C579 C578 1.366 . S
C579 H593 0.930 . S
C580 C577 1.378 . S
C580 N581 1.315 . S
C580 H583 0.930 . S
N581 Co561 2.194 . S
N581 C576 1.328 . S
N581 C580 1.315 . S
H582 C576 0.929 . S
H583 C580 0.930 . S
H584 C572 0.929 . S
H585 C574 0.929 . S
O586 Co561 2.351 . S
O586 C589 1.244 . S
O587 Co561 2.155 . S
O587 C589 1.240 . S
O588 Co561 2.096 . S
O588 C569 1.247 . S
C589 O586 1.244 . S
C589 O587 1.240 . S
H590 C564 0.931 . S
H591 C573 0.931 . S
H592 C577 0.929 . S
H593 C579 0.930 . S
C594 C595 1.387 . S
C594 H598 0.950 . S
C594 C603 1.390 . S
C595 C594 1.387 . S
C595 C597 1.387 . S
H596 C603 0.950 . S
C597 C595 1.387 . S
C597 C599 1.390 . S
C597 H601 0.950 . S
H598 C594 0.950 . S
C599 C597 1.390 . S
C599 C600 1.387 . S
C599 H602 0.950 . S
C600 C599 1.387 . S
C600 C603 1.387 . S
H601 C597 0.950 . S
H602 C599 0.950 . S
C603 C594 1.390 . S
C603 H596 0.950 . S
C603 C600 1.387 . S
C604 C605 1.387 . S
C604 H608 0.950 . S
C604 C613 1.390 . S
C605 C604 1.387 . S
C605 C607 1.387 . S
H606 C613 0.950 . S
C607 C605 1.387 . S
C607 C609 1.390 . S
C607 H611 0.950 . S
H608 C604 0.950 . S
C609 C607 1.390 . S
C609 C610 1.387 . S
C609 H612 0.950 . S
C610 C609 1.387 . S
C610 C613 1.387 . S
H611 C607 0.950 . S
H612 C609 0.950 . S
C613 C604 1.390 . S
C613 H606 0.950 . S
C613 C610 1.387 . S
C614 C615 1.387 . S
C614 H618 0.950 . S
C614 C623 1.390 . S
C615 C614 1.387 . S
C615 C617 1.387 . S
H616 C623 0.950 . S
C617 C615 1.387 . S
C617 C619 1.390 . S
C617 H621 0.950 . S
H618 C614 0.950 . S
C619 C617 1.390 . S
C619 C620 1.387 . S
C619 H622 0.950 . S
C620 C619 1.387 . S
C620 C623 1.387 . S
H621 C617 0.950 . S
H622 C619 0.950 . S
C623 C614 1.390 . S
C623 H616 0.950 . S
C623 C620 1.387 . S
C624 C625 1.387 . S
C624 H628 0.950 . S
C624 C633 1.390 . S
C625 C624 1.387 . S
C625 C627 1.387 . S
H626 C633 0.950 . S
C627 C625 1.387 . S
C627 C629 1.390 . S
C627 H631 0.950 . S
H628 C624 0.950 . S
C629 C627 1.390 . S
C629 C630 1.387 . S
C629 H632 0.950 . S
C630 C629 1.387 . S
C630 C633 1.387 . S
H631 C627 0.950 . S
H632 C629 0.950 . S
C633 C624 1.390 . S
C633 H626 0.950 . S
C633 C630 1.387 . S
C634 C635 1.387 . S
C634 H638 0.950 . S
C634 C643 1.390 . S
C635 C634 1.387 . S
C635 C637 1.387 . S
H636 C643 0.950 . S
C637 C635 1.387 . S
C637 C639 1.390 . S
C637 H641 0.950 . S
H638 C634 0.950 . S
C639 C637 1.390 . S
C639 C640 1.387 . S
C639 H642 0.950 . S
C640 C639 1.387 . S
C640 C643 1.387 . S
H641 C637 0.950 . S
H642 C639 0.950 . S
C643 C634 1.390 . S
C643 H636 0.950 . S
C643 C640 1.387 . S
C644 C645 1.387 . S
C644 H648 0.950 . S
C644 C653 1.390 . S
C645 C644 1.387 . S
C645 C647 1.387 . S
H646 C653 0.950 . S
C647 C645 1.387 . S
C647 C649 1.390 . S
C647 H651 0.950 . S
H648 C644 0.950 . S
C649 C647 1.390 . S
C649 C650 1.387 . S
C649 H652 0.950 . S
C650 C649 1.387 . S
C650 C653 1.387 . S
H651 C647 0.950 . S
H652 C649 0.950 . S
C653 C644 1.390 . S
C653 H646 0.950 . S
C653 C650 1.387 . S
C654 C655 1.387 . S
C654 H658 0.950 . S
C654 C663 1.390 . S
C655 C654 1.387 . S
C655 C657 1.387 . S
H656 C663 0.950 . S
C657 C655 1.387 . S
C657 C659 1.390 . S
C657 H661 0.950 . S
H658 C654 0.950 . S
C659 C657 1.390 . S
C659 C660 1.387 . S
C659 H662 0.950 . S
C660 C659 1.387 . S
C660 C663 1.387 . S
H661 C657 0.950 . S
H662 C659 0.950 . S
C663 C654 1.390 . S
C663 H656 0.950 . S
C663 C660 1.387 . S
C664 C665 1.387 . S
C664 H668 0.950 . S
C664 C673 1.390 1_565 S
C665 C664 1.387 . S
C665 C667 1.387 1_565 S
H666 C673 0.950 1_565 S
C667 C665 1.387 1_545 S
C667 C669 1.390 . S
C667 H671 0.950 . S
H668 C664 0.950 . S
C669 C667 1.390 . S
C669 C670 1.387 . S
C669 H672 0.950 . S
C670 C669 1.387 . S
C670 C673 1.387 . S
H671 C667 0.950 . S
H672 C669 0.950 . S
C673 C664 1.390 1_545 S
C673 H666 0.950 1_545 S
C673 C670 1.387 . S
C674 C675 1.401 . S
C674 H678 0.950 . S
C674 C683 1.390 . S
C675 C674 1.401 . S
C675 C677 1.374 1_655 S
H676 C683 0.950 . S
C677 C675 1.374 1_455 S
C677 C679 1.390 . S
C677 H681 0.950 . S
H678 C674 0.950 . S
C679 C677 1.390 . S
C679 C680 1.387 1_455 S
C679 H682 0.950 . S
C680 C679 1.387 1_655 S
C680 C683 1.387 . S
H681 C677 0.950 . S
H682 C679 0.950 . S
C683 C674 1.390 . S
C683 H676 0.950 . S
C683 C680 1.387 . S
C684 C685 1.387 . S
C684 H688 0.950 . S
C684 C693 1.390 . S
C685 C684 1.387 . S
C685 C687 1.387 . S
H686 C693 0.950 . S
C687 C685 1.387 . S
C687 C689 1.390 . S
C687 H691 0.950 . S
H688 C684 0.950 . S
C689 C687 1.390 . S
C689 C690 1.387 . S
C689 H692 0.950 . S
C690 C689 1.387 . S
C690 C693 1.387 . S
H691 C687 0.950 . S
H692 C689 0.950 . S
C693 C684 1.390 . S
C693 H686 0.950 . S
C693 C690 1.387 . S
C694 C695 1.387 . S
C694 H698 0.950 . S
C694 C703 1.390 . S
C695 C694 1.387 . S
C695 C697 1.387 . S
H696 C703 0.950 . S
C697 C695 1.387 . S
C697 C699 1.390 1_565 S
C697 H701 0.950 . S
H698 C694 0.950 . S
C699 C697 1.390 1_545 S
C699 C700 1.386 1_545 S
C699 H702 0.950 . S
C700 C699 1.386 1_565 S
C700 C703 1.389 . S
H701 C697 0.950 . S
H702 C699 0.950 . S
C703 C694 1.390 . S
C703 H696 0.950 . S
C703 C700 1.389 . S
C704 C705 1.387 . S
C704 H708 0.950 . S
C704 C713 1.390 . S
C705 C704 1.387 . S
C705 C707 1.387 . S
H706 C713 0.950 1_655 S
C707 C705 1.387 . S
C707 C709 1.390 . S
C707 H711 0.950 . S
H708 C704 0.950 . S
C709 C707 1.390 . S
C709 C710 1.387 1_455 S
C709 H712 0.950 . S
C710 C709 1.387 1_655 S
C710 C713 1.387 1_655 S
H711 C707 0.950 . S
H712 C709 0.950 . S
C713 C704 1.390 . S
C713 H706 0.950 1_455 S
C713 C710 1.387 1_455 S
C714 C715 1.387 . S
C714 H718 0.950 . S
C714 C723 1.390 . S
C715 C714 1.387 . S
C715 C717 1.387 1_455 S
H716 C723 0.950 . S
C717 C715 1.387 1_655 S
C717 C719 1.390 . S
C717 H721 0.950 . S
H718 C714 0.950 . S
C719 C717 1.390 . S
C719 C720 1.387 . S
C719 H722 0.950 . S
C720 C719 1.387 . S
C720 C723 1.387 1_655 S
H721 C717 0.950 . S
H722 C719 0.950 . S
C723 C714 1.390 . S
C723 H716 0.950 . S
C723 C720 1.387 1_455 S
C724 C725 1.387 . S
C724 H728 0.950 . S
C724 C733 1.390 . S
C725 C724 1.387 . S
C725 C727 1.387 . S
H726 C733 0.950 . S
C727 C725 1.387 . S
C727 C729 1.390 . S
C727 H731 0.950 . S
H728 C724 0.950 . S
C729 C727 1.390 . S
C729 C730 1.387 . S
C729 H732 0.950 . S
C730 C729 1.387 . S
C730 C733 1.387 . S
H731 C727 0.950 . S
H732 C729 0.950 . S
C733 C724 1.390 . S
C733 H726 0.950 . S
C733 C730 1.387 . S
C734 C735 1.387 . S
C734 H738 0.950 . S
C734 C743 1.390 1_565 S
C735 C734 1.387 . S
C735 C737 1.387 . S
H736 C743 0.950 . S
C737 C735 1.387 . S
C737 C739 1.390 1_565 S
C737 H741 0.950 . S
H738 C734 0.950 . S
C739 C737 1.390 1_545 S
C739 C740 1.387 . S
C739 H742 0.950 . S
C740 C739 1.387 . S
C740 C743 1.387 . S
H741 C737 0.950 . S
H742 C739 0.950 . S
C743 C734 1.390 1_545 S
C743 H736 0.950 . S
C743 C740 1.387 . S
C744 C745 1.387 . S
C744 H748 0.950 . S
C744 C753 1.390 1_545 S
C745 C744 1.387 . S
C745 C747 1.387 . S
H746 C753 0.950 . S
C747 C745 1.387 . S
C747 C749 1.390 1_545 S
C747 H751 0.950 . S
H748 C744 0.950 . S
C749 C747 1.390 1_565 S
C749 C750 1.387 . S
C749 H752 0.950 . S
C750 C749 1.387 . S
C750 C753 1.387 . S
H751 C747 0.950 . S
H752 C749 0.950 . S
C753 C744 1.390 1_565 S
C753 H746 0.950 . S
C753 C750 1.387 . S
C754 C755 1.387 . S
C754 H758 0.950 . S
C754 C763 1.390 1_455 S
C755 C754 1.387 . S
C755 C757 1.387 . S
H756 C763 0.950 . S
C757 C755 1.387 . S
C757 C759 1.390 1_455 S
C757 H761 0.950 . S
H758 C754 0.950 . S
C759 C757 1.390 1_655 S
C759 C760 1.387 . S
C759 H762 0.950 . S
C760 C759 1.387 . S
C760 C763 1.387 . S
H761 C757 0.950 . S
H762 C759 0.950 . S
C763 C754 1.390 1_655 S
C763 H756 0.950 . S
C763 C760 1.387 . S
C764 C765 1.387 . S
C764 H768 0.950 . S
C764 C773 1.390 . S
C765 C764 1.387 . S
C765 C767 1.387 . S
H766 C773 0.950 . S
C767 C765 1.387 . S
C767 C769 1.390 . S
C767 H771 0.950 . S
H768 C764 0.950 . S
C769 C767 1.390 . S
C769 C770 1.387 . S
C769 H772 0.950 . S
C770 C769 1.387 . S
C770 C773 1.387 . S
H771 C767 0.950 . S
H772 C769 0.950 . S
C773 C764 1.390 . S
C773 H766 0.950 . S
C773 C770 1.387 . S
C774 C775 1.387 . S
C774 H778 0.950 . S
C774 C783 1.390 . S
C775 C774 1.387 . S
C775 C777 1.387 . S
H776 C783 0.950 . S
C777 C775 1.387 . S
C777 C779 1.390 . S
C777 H781 0.950 . S
H778 C774 0.950 . S
C779 C777 1.390 . S
C779 C780 1.387 . S
C779 H782 0.950 . S
C780 C779 1.387 . S
C780 C783 1.387 . S
H781 C777 0.950 . S
H782 C779 0.950 . S
C783 C774 1.390 . S
C783 H776 0.950 . S
C783 C780 1.387 . S
C784 C785 1.387 . S
C784 H788 0.950 . S
C784 C793 1.390 . S
C785 C784 1.387 . S
C785 C787 1.387 . S
H786 C793 0.950 . S
C787 C785 1.387 . S
C787 C789 1.390 . S
C787 H791 0.950 . S
H788 C784 0.950 . S
C789 C787 1.390 . S
C789 C790 1.387 . S
C789 H792 0.950 . S
C790 C789 1.387 . S
C790 C793 1.387 . S
H791 C787 0.950 . S
H792 C789 0.950 . S
C793 C784 1.390 . S
C793 H786 0.950 . S
C793 C790 1.387 . S
C794 C795 1.387 . S
C794 H798 0.950 . S
C794 C803 1.390 . S
C795 C794 1.387 . S
C795 C797 1.387 . S
H796 C803 0.950 . S
C797 C795 1.387 . S
C797 C799 1.390 . S
C797 H801 0.950 . S
H798 C794 0.950 . S
C799 C797 1.390 . S
C799 C800 1.387 . S
C799 H802 0.950 . S
C800 C799 1.387 . S
C800 C803 1.387 . S
H801 C797 0.950 . S
H802 C799 0.950 . S
C803 C794 1.390 . S
C803 H796 0.950 . S
C803 C800 1.387 . S
C804 C805 1.387 . S
C804 H808 0.950 . S
C804 C813 1.390 . S
C805 C804 1.387 . S
C805 C807 1.387 . S
H806 C813 0.950 . S
C807 C805 1.387 . S
C807 C809 1.390 . S
C807 H811 0.950 . S
H808 C804 0.950 . S
C809 C807 1.390 . S
C809 C810 1.387 . S
C809 H812 0.950 . S
C810 C809 1.387 . S
C810 C813 1.387 . S
H811 C807 0.950 . S
H812 C809 0.950 . S
C813 C804 1.390 . S
C813 H806 0.950 . S
C813 C810 1.387 . S
C814 C815 1.387 . S
C814 H818 0.950 . S
C814 C823 1.390 . S
C815 C814 1.387 . S
C815 C817 1.387 . S
H816 C823 0.950 . S
C817 C815 1.387 . S
C817 C819 1.390 . S
C817 H821 0.950 . S
H818 C814 0.950 . S
C819 C817 1.390 . S
C819 C820 1.387 . S
C819 H822 0.950 . S
C820 C819 1.387 . S
C820 C823 1.387 . S
H821 C817 0.950 . S
H822 C819 0.950 . S
C823 C814 1.390 . S
C823 H816 0.950 . S
C823 C820 1.387 . S
C824 C825 1.387 . S
C824 H828 0.950 . S
C824 C833 1.390 . S
C825 C824 1.387 . S
C825 C827 1.387 . S
H826 C833 0.950 . S
C827 C825 1.387 . S
C827 C829 1.390 . S
C827 H831 0.950 . S
H828 C824 0.950 . S
C829 C827 1.390 . S
C829 C830 1.387 . S
C829 H832 0.950 . S
C830 C829 1.387 . S
C830 C833 1.387 . S
H831 C827 0.950 . S
H832 C829 0.950 . S
C833 C824 1.390 . S
C833 H826 0.950 . S
C833 C830 1.387 . S
C834 C835 1.387 . S
C834 H838 0.950 . S
C834 C843 1.390 1_554 S
C835 C834 1.387 . S
C835 C837 1.387 1_655 S
H836 C843 0.950 . S
C837 C835 1.387 1_455 S
C837 C839 1.390 1_554 S
C837 H841 0.950 . S
H838 C834 0.950 . S
C839 C837 1.390 1_556 S
C839 C840 1.387 1_455 S
C839 H842 0.950 . S
C840 C839 1.387 1_655 S
C840 C843 1.387 . S
H841 C837 0.950 . S
H842 C839 0.950 . S
C843 C834 1.390 1_556 S
C843 H836 0.950 . S
C843 C840 1.387 . S
C844 C845 1.387 . S
C844 H848 0.950 . S
C844 C853 1.390 1_554 S
C845 C844 1.387 . S
C845 C847 1.387 . S
H846 C853 0.950 . S
C847 C845 1.387 . S
C847 C849 1.390 1_554 S
C847 H851 0.950 . S
H848 C844 0.950 . S
C849 C847 1.390 1_556 S
C849 C850 1.387 . S
C849 H852 0.950 . S
C850 C849 1.387 . S
C850 C853 1.387 . S
H851 C847 0.950 . S
H852 C849 0.950 . S
C853 C844 1.390 1_556 S
C853 H846 0.950 . S
C853 C850 1.387 . S
C854 C855 1.387 . S
C854 H858 0.950 . S
C854 C863 1.390 1_554 S
C855 C854 1.387 . S
C855 C857 1.387 1_565 S
H856 C863 0.950 . S
C857 C855 1.387 1_545 S
C857 C859 1.390 1_554 S
C857 H861 0.950 . S
H858 C854 0.950 . S
C859 C857 1.390 1_556 S
C859 C860 1.398 1_545 S
C859 H862 0.950 . S
C860 C859 1.398 1_565 S
C860 C863 1.378 . S
H861 C857 0.950 . S
H862 C859 0.950 . S
C863 C854 1.390 1_556 S
C863 H856 0.950 . S
C863 C860 1.378 . S
C864 C865 1.387 . S
C864 H868 0.950 . S
C864 C873 1.390 . S
C865 C864 1.387 . S
C865 C867 1.387 . S
H866 C873 0.950 . S
C867 C865 1.387 . S
C867 C869 1.390 . S
C867 H871 0.950 . S
H868 C864 0.950 . S
C869 C867 1.390 . S
C869 C870 1.387 . S
C869 H872 0.950 . S
C870 C869 1.387 . S
C870 C873 1.387 . S
H871 C867 0.950 . S
H872 C869 0.950 . S
C873 C864 1.390 . S
C873 H866 0.950 . S
C873 C870 1.387 . S
C874 C875 1.385 1_545 S
C874 H878 0.937 1_545 S
C874 C883 1.405 . S
C875 C874 1.385 1_565 S
C875 C877 1.387 1_565 S
H876 C883 0.950 . S
C877 C875 1.387 1_545 S
C877 C879 1.390 . S
C877 H881 0.950 . S
H878 C874 0.937 1_565 S
C879 C877 1.390 . S
C879 C880 1.387 . S
C879 H882 0.950 . S
C880 C879 1.387 . S
C880 C883 1.387 . S
H881 C877 0.950 . S
H882 C879 0.950 . S
C883 C874 1.405 . S
C883 H876 0.950 . S
C883 C880 1.387 . S
C884 C885 1.387 . S
C884 H888 0.950 . S
C884 C893 1.390 . S
C885 C884 1.387 . S
C885 C887 1.387 . S
H886 C893 0.950 1_455 S
C887 C885 1.387 . S
C887 C889 1.390 . S
C887 H891 0.950 . S
H888 C884 0.950 . S
C889 C887 1.390 . S
C889 C890 1.387 1_655 S
C889 H892 0.950 . S
C890 C889 1.387 1_455 S
C890 C893 1.387 1_455 S
H891 C887 0.950 . S
H892 C889 0.950 . S
C893 C884 1.390 . S
C893 H886 0.950 1_655 S
C893 C890 1.387 1_655 S
C894 C895 1.387 . S
C894 H898 0.950 . S
C894 C903 1.390 . S
C895 C894 1.387 . S
C895 C897 1.387 . S
H896 C903 0.950 . S
C897 C895 1.387 . S
C897 C899 1.390 . S
C897 H901 0.950 . S
H898 C894 0.950 . S
C899 C897 1.390 . S
C899 C900 1.387 . S
C899 H902 0.950 . S
C900 C899 1.387 . S
C900 C903 1.387 . S
H901 C897 0.950 . S
H902 C899 0.950 . S
C903 C894 1.390 . S
C903 H896 0.950 . S
C903 C900 1.387 . S
C904 C905 1.387 1_565 S
C904 H908 0.950 . S
C904 C913 1.390 . S
C905 C904 1.387 1_545 S
C905 C907 1.387 1_545 S
H906 C913 0.950 . S
C907 C905 1.387 1_565 S
C907 C909 1.390 . S
C907 H911 0.950 1_565 S
H908 C904 0.950 . S
C909 C907 1.390 . S
C909 C910 1.387 . S
C909 H912 0.950 . S
C910 C909 1.387 . S
C910 C913 1.387 . S
H911 C907 0.950 1_545 S
H912 C909 0.950 . S
C913 C904 1.390 . S
C913 H906 0.950 . S
C913 C910 1.387 . S
C914 C915 1.387 . S
C914 H918 0.950 . S
C914 C923 1.390 . S
C915 C914 1.387 . S
C915 C917 1.387 . S
H916 C923 0.950 1_655 S
C917 C915 1.387 . S
C917 C919 1.390 . S
C917 H921 0.950 . S
H918 C914 0.950 . S
C919 C917 1.390 . S
C919 C920 1.387 1_455 S
C919 H922 0.950 . S
C920 C919 1.387 1_655 S
C920 C923 1.387 1_655 S
H921 C917 0.950 . S
H922 C919 0.950 . S
C923 C914 1.390 . S
C923 H916 0.950 1_455 S
C923 C920 1.387 1_455 S
C924 C925 1.387 . S
C924 H928 0.950 . S
C924 C933 1.390 . S
C925 C924 1.387 . S
C925 C927 1.387 . S
H926 C933 0.950 . S
C927 C925 1.387 . S
C927 C929 1.390 . S
C927 H931 0.950 . S
H928 C924 0.950 . S
C929 C927 1.390 . S
C929 C930 1.387 . S
C929 H932 0.950 . S
C930 C929 1.387 . S
C930 C933 1.387 . S
H931 C927 0.950 . S
H932 C929 0.950 . S
C933 C924 1.390 . S
C933 H926 0.950 . S
C933 C930 1.387 . S
C934 C935 1.387 . S
C934 H938 0.950 . S
C934 C943 1.390 . S
C935 C934 1.387 . S
C935 C937 1.387 . S
H936 C943 0.950 . S
C937 C935 1.387 . S
C937 C939 1.390 . S
C937 H941 0.950 . S
H938 C934 0.950 . S
C939 C937 1.390 . S
C939 C940 1.387 . S
C939 H942 0.950 . S
C940 C939 1.387 . S
C940 C943 1.387 . S
H941 C937 0.950 . S
H942 C939 0.950 . S
C943 C934 1.390 . S
C943 H936 0.950 . S
C943 C940 1.387 . S
C944 C945 1.387 . S
C944 H948 0.950 . S
C944 C953 1.390 . S
C945 C944 1.387 . S
C945 C947 1.387 . S
H946 C953 0.950 . S
C947 C945 1.387 . S
C947 C949 1.390 . S
C947 H951 0.950 . S
H948 C944 0.950 . S
C949 C947 1.390 . S
C949 C950 1.387 . S
C949 H952 0.950 . S
C950 C949 1.387 . S
C950 C953 1.387 . S
H951 C947 0.950 . S
H952 C949 0.950 . S
C953 C944 1.390 . S
C953 H946 0.950 . S
C953 C950 1.387 . S
C954 C955 1.387 . S
C954 H958 0.950 . S
C954 C963 1.390 . S
C955 C954 1.387 . S
C955 C957 1.387 . S
H956 C963 0.950 . S
C957 C955 1.387 . S
C957 C959 1.390 . S
C957 H961 0.950 . S
H958 C954 0.950 . S
C959 C957 1.390 . S
C959 C960 1.387 . S
C959 H962 0.950 . S
C960 C959 1.387 . S
C960 C963 1.387 . S
H961 C957 0.950 . S
H962 C959 0.950 . S
C963 C954 1.390 . S
C963 H956 0.950 . S
C963 C960 1.387 . S
C964 C965 1.387 . S
C964 H968 0.950 . S
C964 C973 1.390 . S
C965 C964 1.387 . S
C965 C967 1.387 . S
H966 C973 0.950 . S
C967 C965 1.387 . S
C967 C969 1.390 . S
C967 H971 0.950 . S
H968 C964 0.950 . S
C969 C967 1.390 . S
C969 C970 1.387 . S
C969 H972 0.950 . S
C970 C969 1.387 . S
C970 C973 1.387 . S
H971 C967 0.950 . S
H972 C969 0.950 . S
C973 C964 1.390 . S
C973 H966 0.950 . S
C973 C970 1.387 . S
C974 C975 1.387 . S
C974 H978 0.950 . S
C974 C983 1.390 . S
C975 C974 1.387 . S
C975 C977 1.387 . S
H976 C983 0.950 . S
C977 C975 1.387 . S
C977 C979 1.390 . S
C977 H981 0.950 . S
H978 C974 0.950 . S
C979 C977 1.390 . S
C979 C980 1.387 . S
C979 H982 0.950 . S
C980 C979 1.387 . S
C980 C983 1.387 . S
H981 C977 0.950 . S
H982 C979 0.950 . S
C983 C974 1.390 . S
C983 H976 0.950 . S
C983 C980 1.387 . S
C984 C985 1.387 . S
C984 H988 0.950 . S
C984 C993 1.390 . S
C985 C984 1.387 . S
C985 C987 1.387 . S
H986 C993 0.950 . S
C987 C985 1.387 . S
C987 C989 1.390 . S
C987 H991 0.950 . S
H988 C984 0.950 . S
C989 C987 1.390 . S
C989 C990 1.387 . S
C989 H992 0.950 . S
C990 C989 1.387 . S
C990 C993 1.387 . S
H991 C987 0.950 . S
H992 C989 0.950 . S
C993 C984 1.390 . S
C993 H986 0.950 . S
C993 C990 1.387 . S
C994 C995 1.387 . S
C994 H998 0.950 . S
C994 C1003 1.390 . S
C995 C994 1.387 . S
C995 C997 1.387 . S
H996 C1003 0.950 . S
C997 C995 1.387 . S
C997 C999 1.390 . S
C997 H1001 0.950 . S
H998 C994 0.950 . S
C999 C997 1.390 . S
C999 C1000 1.387 . S
C999 H1002 0.950 . S
C1000 C999 1.387 . S
C1000 C1003 1.387 . S
H1001 C997 0.950 . S
H1002 C999 0.950 . S
C1003 C994 1.390 . S
C1003 H996 0.950 . S
C1003 C1000 1.387 . S
C1004 C1005 1.387 . S
C1004 H1008 0.950 . S
C1004 C1013 1.390 . S
C1005 C1004 1.387 . S
C1005 C1007 1.387 . S
H1006 C1013 0.950 . S
C1007 C1005 1.387 . S
C1007 C1009 1.390 . S
C1007 H1011 0.950 . S
H1008 C1004 0.950 . S
C1009 C1007 1.390 . S
C1009 C1010 1.387 . S
C1009 H1012 0.950 . S
C1010 C1009 1.387 . S
C1010 C1013 1.387 . S
H1011 C1007 0.950 . S
H1012 C1009 0.950 . S
C1013 C1004 1.390 . S
C1013 H1006 0.950 . S
C1013 C1010 1.387 . S
C1014 C1015 1.387 . S
C1014 H1018 0.950 . S
C1014 C1023 1.390 . S
C1015 C1014 1.387 . S
C1015 C1017 1.387 . S
H1016 C1023 0.950 . S
C1017 C1015 1.387 . S
C1017 C1019 1.390 . S
C1017 H1021 0.950 . S
H1018 C1014 0.950 . S
C1019 C1017 1.390 . S
C1019 C1020 1.387 . S
C1019 H1022 0.950 . S
C1020 C1019 1.387 . S
C1020 C1023 1.387 . S
H1021 C1017 0.950 . S
H1022 C1019 0.950 . S
C1023 C1014 1.390 . S
C1023 H1016 0.950 . S
C1023 C1020 1.387 . S
C1024 C1025 1.387 . S
C1024 H1028 0.950 . S
C1024 C1033 1.390 . S
C1025 C1024 1.387 . S
C1025 C1027 1.387 . S
H1026 C1033 0.950 . S
C1027 C1025 1.387 . S
C1027 C1029 1.390 . S
C1027 H1031 0.950 . S
H1028 C1024 0.950 . S
C1029 C1027 1.390 . S
C1029 C1030 1.387 . S
C1029 H1032 0.950 . S
C1030 C1029 1.387 . S
C1030 C1033 1.387 . S
H1031 C1027 0.950 . S
H1032 C1029 0.950 . S
C1033 C1024 1.390 . S
C1033 H1026 0.950 . S
C1033 C1030 1.387 . S
C1034 C1035 1.387 . S
C1034 H1038 0.950 . S
C1034 C1043 1.390 . S
C1035 C1034 1.387 . S
C1035 C1037 1.387 . S
H1036 C1043 0.950 . S
C1037 C1035 1.387 . S
C1037 C1039 1.390 . S
C1037 H1041 0.950 . S
H1038 C1034 0.950 . S
C1039 C1037 1.390 . S
C1039 C1040 1.387 . S
C1039 H1042 0.950 . S
C1040 C1039 1.387 . S
C1040 C1043 1.387 . S
H1041 C1037 0.950 . S
H1042 C1039 0.950 . S
C1043 C1034 1.390 . S
C1043 H1036 0.950 . S
C1043 C1040 1.387 . S
C595 N335 1.723 . S
C600 N5 1.721 . S
C605 N38 1.723 . S
C610 N368 1.720 . S
C615 N302 1.722 . S
C620 N71 1.722 . S
C625 N467 1.722 . S
C630 N104 1.722 . S
C635 N137 1.720 . S
C640 N401 1.722 . S
C645 N434 1.719 . S
C650 N170 1.722 . S
C655 C193 1.816 . S
C660 C490 1.817 . S
C665 C424 1.818 . S
C670 C127 1.817 . S
C675 C457 1.815 1_655 S
C680 C160 1.815 . S
C685 C61 1.816 . S
C690 C358 1.816 . S
C695 C94 1.817 . S
C700 C391 1.816 1_565 S
C705 C28 1.816 . S
C710 C325 1.817 . S
C715 N533 1.719 . S
C720 N203 1.722 . S
C725 N566 1.722 . S
C730 N236 1.720 . S
C735 N500 1.720 . S
C740 N269 1.720 . S
C745 C259 1.815 . S
C750 C556 1.815 . S
C755 C589 1.817 . S
C760 C292 1.817 . S
C765 C226 1.818 . S
C770 C523 1.818 . S
C775 C17 1.413 . S
C780 C578 1.412 . S
C785 C50 1.412 . S
C790 C512 1.413 . S
C795 C83 1.413 . S
C800 C545 1.412 . S
C805 C248 1.412 . S
C810 C116 1.413 . S
C815 C149 1.413 . S
C820 C281 1.413 . S
C825 C182 1.412 . S
C830 C215 1.412 . S
C835 C314 1.413 . S
C840 C446 1.412 1_655 S
C845 C347 1.413 . S
C850 C479 1.412 . S
C855 C380 1.413 1_565 S
C860 C413 1.417 . S
C865 N80 1.640 . S
C870 C8 1.606 . S
C875 C41 1.606 . S
C880 N14 1.640 . S
C885 N47 1.640 . S
C890 C74 1.606 . S
C895 N146 1.641 . S
C900 C107 1.608 . S
C905 C140 1.608 . S
C910 N179 1.641 . S
C915 N113 1.641 . S
C920 C173 1.607 . S
C925 C206 1.607 . S
C930 N278 1.641 . S
C935 N212 1.641 . S
C940 C239 1.608 . S
C945 C272 1.605 . S
C950 N245 1.639 . S
C955 C305 1.605 . S
C960 N344 1.639 . S
C965 N377 1.639 . S
C970 C338 1.606 . S
C975 C371 1.606 . S
C980 N311 1.640 . S
C985 C404 1.605 . S
C990 N476 1.639 . S
C995 N410 1.641 . S
C1000 C437 1.608 . S
C1005 C470 1.605 . S
C1010 N443 1.639 . S
C1015 C503 1.605 . S
C1020 N542 1.639 . S
C1025 N575 1.639 . S
C1030 C536 1.605 . S
C1035 N509 1.639 . S
C1040 C569 1.605 . S
