# Generated by pormake.
# Topology une, (4)-cn, num edge types: 1
# Building blocks:
#     Node 0, Type 0, BuildingBlock: AZAVOO_clean_sbu_0, # of connection points: 4
#     Node 1, Type 0, BuildingBlock: AZAVOO_clean_sbu_0, # of connection points: 4
#     Node 2, Type 0, BuildingBlock: AZAVOO_clean_sbu_0, # of connection points: 4
#     Node 3, Type 0, BuildingBlock: AZAVOO_clean_sbu_0, # of connection points: 4
#     Node 4, Type 0, BuildingBlock: AZAVOO_clean_sbu_0, # of connection points: 4
#     Node 5, Type 0, BuildingBlock: AZAVOO_clean_sbu_0, # of connection points: 4
#     Node 6, Type 0, BuildingBlock: AZAVOO_clean_sbu_0, # of connection points: 4
#     Node 7, Type 0, BuildingBlock: AZAVOO_clean_sbu_0, # of connection points: 4
#     Node 8, Type 0, BuildingBlock: AZAVOO_clean_sbu_0, # of connection points: 4
#     Node 9, Type 0, BuildingBlock: AZAVOO_clean_sbu_0, # of connection points: 4
#     Node 10, Type 0, BuildingBlock: AZAVOO_clean_sbu_0, # of connection points: 4
#     Node 11, Type 0, BuildingBlock: AZAVOO_clean_sbu_0, # of connection points: 4
#     Node 12, Type 0, BuildingBlock: AZAVOO_clean_sbu_0, # of connection points: 4
#     Node 13, Type 0, BuildingBlock: AZAVOO_clean_sbu_0, # of connection points: 4
#     Node 14, Type 0, BuildingBlock: AZAVOO_clean_sbu_0, # of connection points: 4
#     Node 15, Type 0, BuildingBlock: AZAVOO_clean_sbu_0, # of connection points: 4
#     Node 16, Type 0, BuildingBlock: AZAVOO_clean_sbu_0, # of connection points: 4
#     Node 17, Type 0, BuildingBlock: AZAVOO_clean_sbu_0, # of connection points: 4
#     Edge 18, Type (0, 0), BuildingBlock: OJICUG_clean_linker_0, # of connection points: 2
#     Edge 19, Type (0, 0), BuildingBlock: OJICUG_clean_linker_0, # of connection points: 2
#     Edge 20, Type (0, 0), BuildingBlock: OJICUG_clean_linker_0, # of connection points: 2
#     Edge 21, Type (0, 0), BuildingBlock: OJICUG_clean_linker_0, # of connection points: 2
#     Edge 22, Type (0, 0), BuildingBlock: OJICUG_clean_linker_0, # of connection points: 2
#     Edge 23, Type (0, 0), BuildingBlock: OJICUG_clean_linker_0, # of connection points: 2
#     Edge 24, Type (0, 0), BuildingBlock: OJICUG_clean_linker_0, # of connection points: 2
#     Edge 25, Type (0, 0), BuildingBlock: OJICUG_clean_linker_0, # of connection points: 2
#     Edge 26, Type (0, 0), BuildingBlock: OJICUG_clean_linker_0, # of connection points: 2
#     Edge 27, Type (0, 0), BuildingBlock: OJICUG_clean_linker_0, # of connection points: 2
#     Edge 28, Type (0, 0), BuildingBlock: OJICUG_clean_linker_0, # of connection points: 2
#     Edge 29, Type (0, 0), BuildingBlock: OJICUG_clean_linker_0, # of connection points: 2
#     Edge 30, Type (0, 0), BuildingBlock: OJICUG_clean_linker_0, # of connection points: 2
#     Edge 31, Type (0, 0), BuildingBlock: OJICUG_clean_linker_0, # of connection points: 2
#     Edge 32, Type (0, 0), BuildingBlock: OJICUG_clean_linker_0, # of connection points: 2
#     Edge 33, Type (0, 0), BuildingBlock: OJICUG_clean_linker_0, # of connection points: 2
#     Edge 34, Type (0, 0), BuildingBlock: OJICUG_clean_linker_0, # of connection points: 2
#     Edge 35, Type (0, 0), BuildingBlock: OJICUG_clean_linker_0, # of connection points: 2
#     Edge 36, Type (0, 0), BuildingBlock: OJICUG_clean_linker_0, # of connection points: 2
#     Edge 37, Type (0, 0), BuildingBlock: OJICUG_clean_linker_0, # of connection points: 2
#     Edge 38, Type (0, 0), BuildingBlock: OJICUG_clean_linker_0, # of connection points: 2
#     Edge 39, Type (0, 0), BuildingBlock: OJICUG_clean_linker_0, # of connection points: 2
#     Edge 40, Type (0, 0), BuildingBlock: OJICUG_clean_linker_0, # of connection points: 2
#     Edge 41, Type (0, 0), BuildingBlock: OJICUG_clean_linker_0, # of connection points: 2
#     Edge 42, Type (0, 0), BuildingBlock: OJICUG_clean_linker_0, # of connection points: 2
#     Edge 43, Type (0, 0), BuildingBlock: OJICUG_clean_linker_0, # of connection points: 2
#     Edge 44, Type (0, 0), BuildingBlock: OJICUG_clean_linker_0, # of connection points: 2
#     Edge 45, Type (0, 0), BuildingBlock: OJICUG_clean_linker_0, # of connection points: 2
#     Edge 46, Type (0, 0), BuildingBlock: OJICUG_clean_linker_0, # of connection points: 2
#     Edge 47, Type (0, 0), BuildingBlock: OJICUG_clean_linker_0, # of connection points: 2
#     Edge 48, Type (0, 0), BuildingBlock: OJICUG_clean_linker_0, # of connection points: 2
#     Edge 49, Type (0, 0), BuildingBlock: OJICUG_clean_linker_0, # of connection points: 2
#     Edge 50, Type (0, 0), BuildingBlock: OJICUG_clean_linker_0, # of connection points: 2
#     Edge 51, Type (0, 0), BuildingBlock: OJICUG_clean_linker_0, # of connection points: 2
#     Edge 52, Type (0, 0), BuildingBlock: OJICUG_clean_linker_0, # of connection points: 2
#     Edge 53, Type (0, 0), BuildingBlock: OJICUG_clean_linker_0, # of connection points: 2
# Relax obj value: 0.219
# Max RMSD: 0.203
# Mean RMSD: 0.179
data_MOF--net-une--node1-AZAVOO_clean_sbu_0--edge1-OJICUG_clean_linker_0
_symmetry_space_group_name_H-M    P1
_symmetry_Int_Tables_number       1
_symmetry_cell_setting            triclinic
loop_
_symmetry_equiv_pos_as_xyz
'x, y, z'
_cell_length_a     27.092626
_cell_length_b     27.928236
_cell_length_c     40.1546
_cell_angle_alpha  90.918943
_cell_angle_beta   87.807004
_cell_angle_gamma 120.59086
loop_
_atom_site_label
_atom_site_type_symbol
_atom_site_fract_x
_atom_site_fract_y
_atom_site_fract_z
_atom_type_partial_charge
Mg0 Mg 0.30149 0.94707 0.09613 0.0
O1 O 0.28561 5e-05 0.06123 0.0
O2 O 0.24816 0.95823 1.01336 0.0
Mg3 Mg 0.24465 0.87456 1.01696 0.0
C4 C 0.26588 -0.00024 0.03294 0.0
C5 C 0.31463 0.04374 0.13972 0.0
O6 O 0.26355 0.02305 0.12736 0.0
O7 O 0.38317 0.96768 0.06438 0.0
O8 O 0.34234 0.92008 0.01814 0.0
O9 O 0.20932 0.90709 0.11361 0.0
O10 O 0.24132 0.87637 0.07183 0.0
C11 C 0.38677 0.95113 0.03484 0.0
C12 C 0.19882 0.87334 0.08894 0.0
O13 O 0.34519 0.0226 0.13086 0.0
Mg14 Mg 0.9346 0.34238 0.04482 0.0
O15 O 0.90154 0.27275 1.00644 0.0
O16 O 0.9665 0.29341 0.96475 0.0
Mg17 Mg 0.03929 0.38173 0.97414 0.0
C18 C 0.91831 0.26043 0.97923 0.0
C19 C 0.82631 0.2457 0.08133 0.0
O20 O 0.85147 0.21998 0.06799 0.0
O21 O 0.91174 0.39384 1.01047 0.0
O22 O 0.97898 0.41638 0.96995 0.0
O23 O 0.98162 0.30656 0.06917 0.0
O24 O 0.01928 0.36761 0.02809 0.0
C25 C 0.93652 0.41878 0.98297 0.0
C26 C 0.02358 0.33413 0.04791 0.0
O27 O 0.84727 0.29719 0.07453 0.0
Mg28 Mg 0.68572 0.68406 0.12415 0.0
O29 O 0.73358 0.70437 0.07288 0.0
O30 O 0.69988 0.74518 0.04048 0.0
Mg31 Mg 0.62433 0.74287 0.06905 0.0
C32 C 0.73404 0.7274 0.04548 0.0
C33 C 0.78876 0.67523 0.14527 0.0
O34 O 0.81308 0.72449 0.13109 0.0
O35 O 0.61037 0.6062 0.10001 0.0
O36 O 0.57803 0.64787 0.06726 0.0
O37 O 0.74515 0.77147 0.14013 0.0
O38 O 0.66272 0.74332 0.11617 0.0
C39 C 0.5756 0.60408 0.07833 0.0
C40 C 0.71046 0.78353 0.12649 0.0
O41 O 0.73471 0.64278 0.14281 0.0
Mg42 Mg 0.66458 0.91182 0.97536 0.0
O43 O 0.73605 -5e-05 0.96375 0.0
O44 O 0.81982 0.00255 0.96236 0.0
Mg45 Mg 0.80163 0.91507 0.97432 0.0
C46 C 0.79048 0.02633 0.95985 0.0
C47 C 0.59964 0.9732 0.98484 0.0
O48 O 0.64593 0.00213 1.00212 0.0
O49 O 0.67155 0.88251 0.92234 0.0
O50 O 0.75243 0.88007 0.92623 0.0
O51 O 0.6737 0.9294 0.02932 0.0
O52 O 0.72123 0.89651 1.00089 0.0
C53 C 0.70867 0.87094 0.91013 0.0
C54 C 0.71099 0.91366 0.02887 0.0
O55 O 0.59661 0.93499 0.96564 0.0
Mg56 Mg 0.01284 0.72975 0.93043 0.0
O57 O 0.93288 0.73459 0.94597 0.0
O58 O 0.96188 0.82342 0.95788 0.0
Mg59 Mg 0.05921 0.87531 0.95027 0.0
C60 C 0.92255 0.7724 0.95597 0.0
C61 C 0.92435 0.60613 0.93833 0.0
O62 O 0.90983 0.62956 0.9623 0.0
O63 O 0.02378 0.7702 0.87836 0.0
O64 O 0.05762 0.85842 0.89394 0.0
O65 O 0.02173 0.71579 0.98322 0.0
O66 O 0.06165 0.7994 0.96055 0.0
C67 C 0.04486 0.82181 0.8712 0.0
C68 C 0.05031 0.76906 0.98684 0.0
O69 O 0.95987 0.63738 0.91548 0.0
Mg70 Mg 0.31104 0.30272 0.97501 0.0
O71 O 0.23544 0.30009 1.0031 0.0
O72 O 0.22915 0.27702 0.05651 0.0
Mg73 Mg 0.30439 0.26203 0.063 0.0
C74 C 0.21106 0.29126 0.03187 0.0
C75 C 0.23562 0.30098 0.92116 0.0
O76 O 0.20638 0.25465 0.93837 0.0
O77 O 0.37242 0.38659 1.00126 0.0
O78 O 0.36924 0.35348 0.05237 0.0
O79 O 0.26372 0.21044 0.96447 0.0
O80 O 0.3127 0.24808 1.00944 0.0
C81 C 0.39003 0.39337 0.03125 0.0
C82 C 0.2816 0.20414 0.99247 0.0
O83 O 0.2863 0.33642 0.93006 0.0
Mg84 Mg 0.95855 0.28276 0.43154 0.0
O85 O 0.95527 0.33678 0.39151 0.0
O86 O 0.91698 0.29205 0.34446 0.0
Mg87 Mg 0.90218 0.20487 0.3539 0.0
C88 C 0.93885 0.33599 0.36214 0.0
C89 C 0.98494 0.39059 0.46782 0.0
O90 O 0.93681 0.37573 0.45304 0.0
O91 O 0.03796 0.28867 0.40453 0.0
O92 O -0.00109 0.24101 0.35792 0.0
O93 O 0.8674 0.25578 0.44559 0.0
O94 O 0.89453 0.21337 0.4084 0.0
C95 C 0.04213 0.2691 0.37612 0.0
C96 C 0.85421 0.21827 0.42287 0.0
O97 O 0.00844 0.36123 0.46328 0.0
Mg98 Mg 0.60641 0.67065 0.37864 0.0
O99 O 0.56777 0.59979 0.34088 0.0
O100 O 0.62959 0.6172 0.29787 0.0
Mg101 Mg 0.70557 0.70418 0.30537 0.0
C102 C 0.58189 0.58585 0.3133 0.0
C103 C 0.49906 0.57686 0.41787 0.0
O104 O 0.5203 0.549 0.40261 0.0
O105 O 0.58442 0.72453 0.3453 0.0
O106 O 0.64786 0.74159 0.30322 0.0
O107 O 0.65322 0.63268 0.4012 0.0
O108 O 0.6891 0.69268 0.3596 0.0
C109 C 0.6079 0.74722 0.31705 0.0
C110 C 0.69388 0.6591 0.37902 0.0
O111 O 0.52168 0.62866 0.41125 0.0
Mg112 Mg 0.34983 0.00964 0.46192 0.0
O113 O 0.39377 0.03084 0.4095 0.0
O114 O 0.35973 0.07508 0.38042 0.0
Mg115 Mg 0.28722 0.07333 0.41199 0.0
C116 C 0.39295 0.05553 0.38311 0.0
C117 C 0.41727 0.98534 0.50659 0.0
O118 O 0.39699 0.01365 0.52234 0.0
O119 O 0.27235 0.93384 0.4379 0.0
O120 O 0.24004 0.97845 0.40774 0.0
O121 O 0.41338 0.09566 0.47774 0.0
O122 O 0.32947 0.07166 0.45704 0.0
C123 C 0.23734 0.93367 0.4171 0.0
C124 C 0.37923 0.11023 0.46615 0.0
O125 O 0.39947 0.96727 0.47747 0.0
Mg126 Mg 0.33348 0.23573 0.31822 0.0
O127 O 0.39967 0.32387 0.30274 0.0
O128 O 0.48508 0.3298 0.29944 0.0
Mg129 Mg 0.47316 0.24525 0.31296 0.0
C130 C 0.45375 0.35153 0.29714 0.0
C131 C 0.22969 0.23784 0.33758 0.0
O132 O 0.23939 0.21007 0.35994 0.0
O133 O 0.33557 0.20199 0.26583 0.0
O134 O 0.41943 0.20463 0.26703 0.0
O135 O 0.35082 0.26207 0.37073 0.0
O136 O 0.39499 0.22561 0.34246 0.0
C137 C 0.37314 0.19192 0.25255 0.0
C138 C 0.3878 0.24599 0.37003 0.0
O139 O 0.26025 0.25255 0.31062 0.0
Mg140 Mg 0.67005 0.06539 0.26559 0.0
O141 O 0.58812 0.06661 0.27975 0.0
O142 O 0.6131 0.15507 0.28947 0.0
Mg143 Mg 0.70975 0.21055 0.28062 0.0
C144 C 0.57555 0.10333 0.28872 0.0
C145 C 0.64222 0.94914 0.26786 0.0
O146 O 0.69256 0.98123 0.28068 0.0
O147 O 0.67872 0.10037 0.21217 0.0
O148 O 0.70798 0.18881 0.22511 0.0
O149 O 0.67874 0.05744 0.31926 0.0
O150 O 0.71772 0.13858 0.29352 0.0
C151 C 0.697 0.15089 0.20351 0.0
C152 C 0.7066 0.11099 0.32097 0.0
O153 O 0.61782 0.97183 0.25377 0.0
Mg154 Mg 0.98597 0.63969 0.30201 0.0
O155 O 0.90779 0.63048 0.33057 0.0
O156 O 0.90053 0.60297 0.3831 0.0
Mg157 Mg 0.97844 0.59176 0.38857 0.0
C158 C 0.88216 0.61814 0.35903 0.0
C159 C 0.90885 0.63719 0.24874 0.0
O160 O 0.8813 0.58955 0.2648 0.0
O161 O 0.04304 0.72226 0.33113 0.0
O162 O 0.03915 0.68457 0.38087 0.0
O163 O 0.94363 0.54795 0.28917 0.0
O164 O -0.009 0.58523 0.33464 0.0
C165 C 0.05914 0.72656 0.36138 0.0
C166 C 0.96265 0.54186 0.31681 0.0
O167 O 0.95879 0.67365 0.25823 0.0
Mg168 Mg 0.64757 0.62066 0.75924 0.0
O169 O 0.61771 0.66286 0.72425 0.0
O170 O 0.58195 0.61503 0.67762 0.0
Mg171 Mg 0.59228 0.53888 0.68265 0.0
C172 C 0.59437 0.65669 0.69636 0.0
C173 C 0.65238 0.71639 0.80125 0.0
O174 O 0.59897 0.6887 0.79193 0.0
O175 O 0.72907 0.64882 0.72564 0.0
O176 O 0.68956 0.59519 0.68112 0.0
O177 O 0.55682 0.57149 0.77917 0.0
O178 O 0.5929 0.54466 0.73749 0.0
C179 C 0.73339 0.63172 0.69641 0.0
C180 C 0.54913 0.53688 0.75535 0.0
O181 O 0.68641 0.69973 0.79136 0.0
Mg182 Mg 0.28509 0.01557 0.71346 0.0
O183 O 0.25372 0.94347 0.67679 0.0
O184 O 0.32122 0.95879 0.63763 0.0
Mg185 Mg 0.39341 0.04785 0.64528 0.0
C186 C 0.27179 0.92804 0.6514 0.0
C187 C 0.17551 0.9199 0.74968 0.0
O188 O 0.20098 0.89401 0.73706 0.0
O189 O 0.26409 0.06482 0.67544 0.0
O190 O 0.33246 0.08012 0.63692 0.0
O191 O 0.331 0.98094 0.74084 0.0
O192 O 0.37042 0.03967 0.69881 0.0
C193 C 0.29013 0.0851 0.64726 0.0
C194 C 0.37371 0.0072 0.71985 0.0
O195 O 0.19656 0.97127 0.74239 0.0
Mg196 Mg 0.01213 0.33952 0.79029 0.0
O197 O 0.07138 0.36847 0.74332 0.0
O198 O 0.03569 0.39957 0.70535 0.0
Mg199 Mg 0.95358 0.39167 0.72859 0.0
C200 C 0.07353 0.38887 0.71469 0.0
C201 C 0.11668 0.33859 0.81702 0.0
O202 O 0.13934 0.38871 0.80421 0.0
O203 O 0.94589 0.25973 0.76245 0.0
O204 O 0.91302 0.29749 0.72711 0.0
O205 O 0.06114 0.42658 0.80905 0.0
O206 O 0.98376 0.39356 0.77895 0.0
C207 C 0.91268 0.25526 0.73906 0.0
C208 C 0.02678 0.43543 0.79232 0.0
O209 O 0.06371 0.3037 0.81253 0.0
Mg210 Mg 0.00162 0.58475 0.64171 0.0
O211 O 0.07933 0.67072 0.63394 0.0
O212 O 0.15894 0.66594 0.63562 0.0
Mg213 Mg 0.13124 0.57521 0.64645 0.0
C214 C 0.13374 0.69361 0.63226 0.0
C215 C 0.94614 0.65524 0.64827 0.0
O216 O -0.00945 0.68006 0.66742 0.0
O217 O 0.01308 0.5581 0.58884 0.0
O218 O 0.08779 0.54644 0.59619 0.0
O219 O 0.00358 0.59695 0.69637 0.0
O220 O 0.0498 0.56132 0.66926 0.0
C221 C 0.04804 0.54266 0.57821 0.0
C222 C 0.03739 0.57709 0.69707 0.0
O223 O 0.94174 0.61655 0.62902 0.0
Mg224 Mg 0.34879 0.38738 0.60126 0.0
O225 O 0.27658 0.40221 0.62065 0.0
O226 O 0.31922 0.49167 0.63588 0.0
Mg227 Mg 0.41494 0.53542 0.62269 0.0
C228 C 0.27472 0.4434 0.63361 0.0
C229 C 0.307 0.26929 0.57857 0.0
O230 O 0.36008 0.29648 0.56649 0.0
O231 O 0.35801 0.42958 0.55005 0.0
O232 O 0.40236 0.51835 0.56645 0.0
O233 O 0.36115 0.37078 0.65321 0.0
O234 O 0.40708 0.45435 0.63007 0.0
C235 C 0.38284 0.48179 0.54344 0.0
C236 C 0.39503 0.4237 0.65624 0.0
O237 O 0.28393 0.2973 0.58797 0.0
Mg238 Mg 0.64091 0.95455 0.63867 0.0
O239 O 0.57199 0.95864 0.67013 0.0
O240 O 0.56889 0.93424 0.72307 0.0
Mg241 Mg 0.64025 0.91249 0.72534 0.0
C242 C 0.5508 0.95117 0.69972 0.0
C243 C 0.59273 0.96465 0.57198 0.0
O244 O 0.59401 0.91867 0.56716 0.0
O245 O 0.7095 0.03611 0.66383 0.0
O246 O 0.70881 0.00296 0.71445 0.0
O247 O 0.58355 0.8635 0.62793 0.0
O248 O 0.63879 0.89612 0.67133 0.0
C249 C 0.72961 0.04251 0.69311 0.0
C250 C 0.60158 0.85401 0.65495 0.0
O251 O 0.61705 -0.00556 0.59736 0.0
C252 C 0.4945 -0.00177 0.03592 0.0
C253 C 0.44314 0.96398 0.01973 0.0
H254 H 0.58464 0.02919 0.03707 0.0
C255 C 0.44534 0.93853 0.9895 0.0
H256 H 0.49453 0.01884 0.05901 0.0
C257 C 0.49682 0.94406 0.97701 0.0
C258 C 0.54754 0.97566 0.99421 0.0
H259 H 0.40678 0.9122 0.97604 0.0
H260 H 0.49638 0.92174 0.9546 0.0
C261 C 0.54622 0.00429 0.02318 0.0
C262 C 0.88619 0.47388 0.98436 0.0
C263 C 0.92147 0.45755 0.96735 0.0
H264 H 0.85817 0.53294 0.98794 0.0
C265 C 0.94862 0.48424 0.93692 0.0
H266 H 0.86417 0.45406 1.00763 0.0
C267 C 0.94535 0.52968 0.9256 0.0
C268 C 0.91476 0.54952 0.94441 0.0
H269 H 0.97542 0.47225 0.92274 0.0
H270 H 0.97009 0.55152 0.90338 0.0
C271 C 0.8828 0.51927 0.97298 0.0
C272 C 0.45616 0.49712 0.02481 0.0
C273 C 0.43831 0.44764 0.04237 0.0
H274 H 0.51336 0.5852 0.02244 0.0
C275 C 0.4676 0.44983 0.07123 0.0
H276 H 0.43487 0.49695 1.00249 0.0
C277 C 0.513 0.50014 0.0825 0.0
C278 C 0.52994 0.54981 0.06547 0.0
H279 H 0.4556 0.41244 0.08527 0.0
H280 H 0.53402 0.50019 0.10492 0.0
C281 C 0.50118 0.54766 0.03636 0.0
C282 C 0.13387 0.27387 0.38903 0.0
C283 C 0.09647 0.27217 0.36526 0.0
H284 H 0.20499 0.2636 0.39863 0.0
C285 C 0.10728 0.26538 0.33138 0.0
H286 H 0.12664 0.27881 0.41525 0.0
C287 C 0.15279 0.25733 0.32174 0.0
C288 C 0.18722 0.25468 0.34594 0.0
H289 H 0.07919 0.26414 0.31247 0.0
H290 H 0.15896 0.25008 0.29573 0.0
C291 C 0.17838 0.2646 0.37949 0.0
C292 C 0.61282 0.80331 0.26772 0.0
C293 C 0.59665 0.78862 0.30153 0.0
H294 H 0.63895 0.86622 0.23006 0.0
C295 C 0.58216 0.8219 0.32131 0.0
H296 H 0.62401 0.77842 0.2517 0.0
C297 C 0.59043 0.87212 0.30864 0.0
C298 C 0.61239 0.88935 0.27593 0.0
H299 H 0.57004 0.81215 0.34742 0.0
H300 H 0.5847 0.89989 0.32537 0.0
C301 C 0.62096 0.85337 0.25511 0.0
C302 C 0.12102 0.83146 0.35997 0.0
C303 C 0.10502 0.78026 0.37481 0.0
H304 H 0.17499 0.92001 0.36184 0.0
C305 C 0.13382 0.77999 0.40335 0.0
H306 H 0.1 0.8332 0.338 0.0
C307 C 0.17711 0.82942 0.41684 0.0
C308 C 0.19242 0.88069 0.40245 0.0
H309 H 0.12323 0.74129 0.41535 0.0
H310 H 0.19803 0.82743 0.43879 0.0
C311 C 0.16395 0.88115 0.37379 0.0
C312 C 0.84599 0.63213 0.6376 0.0
C313 C 0.89546 0.66081 0.65625 0.0
H314 H 0.75636 0.60165 0.63526 0.0
C315 C 0.89318 0.68795 0.68568 0.0
H316 H 0.84643 0.61134 0.61468 0.0
C317 C 0.84116 0.68177 0.69791 0.0
C318 C 0.79056 0.64883 0.68073 0.0
H319 H 0.93072 0.71087 0.70057 0.0
H320 H 0.8401 0.70011 0.7217 0.0
C321 C 0.79423 0.62649 0.64959 0.0
C322 C 0.25796 0.19745 0.624 0.0
C323 C 0.28508 0.21254 0.59208 0.0
H324 H 0.23789 0.14464 0.6669 0.0
C325 C 0.30252 0.17805 0.57648 0.0
H326 H 0.24443 0.22349 0.63681 0.0
C327 C 0.29832 0.13286 0.59353 0.0
C328 C 0.27739 0.1214 0.62688 0.0
H329 H 0.32328 0.18838 0.55191 0.0
H330 H 0.31559 0.10937 0.58132 0.0
C331 C 0.25429 0.15228 0.64133 0.0
C332 C 0.79768 0.14534 0.6848 0.0
C333 C 0.7791 0.09667 0.70338 0.0
H334 H 0.85459 0.23326 0.68134 0.0
C335 C 0.80791 0.10003 0.7327 0.0
H336 H 0.77688 0.14432 0.66207 0.0
C337 C 0.85289 0.15096 0.74369 0.0
C338 C 0.86989 0.19995 0.72582 0.0
H339 H 0.79531 0.06326 0.74752 0.0
H340 H 0.87302 0.15214 0.76673 0.0
C341 C 0.84233 0.19635 0.69595 0.0
C342 C 0.29564 0.10535 0.17752 0.0
C343 C 0.33287 0.08688 0.16598 0.0
H344 H 0.279 0.15312 0.21369 0.0
C345 C 0.38564 0.10744 0.18121 0.0
H346 H 0.25471 0.09064 0.16622 0.0
C347 C 0.39969 0.14359 0.20833 0.0
C348 C 0.36118 0.1599 0.221 0.0
H349 H 0.41543 0.09435 0.17284 0.0
H350 H 0.44005 0.15717 0.22006 0.0
C351 C 0.30955 0.14133 0.20476 0.0
C352 C 0.76441 0.24769 0.12917 0.0
C353 C 0.78173 0.21751 0.10847 0.0
H354 H 0.72272 0.24978 0.17504 0.0
C355 C 0.76144 0.16137 0.11653 0.0
H356 H 0.77869 0.29075 0.12367 0.0
C357 C 0.72907 0.13762 0.14607 0.0
C358 C 0.71637 0.16952 0.16834 0.0
H359 H 0.77333 0.13654 0.10097 0.0
H360 H 0.71768 0.09563 0.15253 0.0
C361 C 0.73219 0.22402 0.15871 0.0
C362 C 0.82421 0.60507 0.21272 0.0
C363 C 0.88041 0.64648 0.22063 0.0
H364 H 0.7516 0.58111 0.18269 0.0
C365 C 0.90772 0.69567 0.20169 0.0
H366 H 0.80176 0.56637 0.22659 0.0
C367 C 0.8788 0.70382 0.17612 0.0
C368 C 0.82184 0.66309 0.16904 0.0
H369 H 0.95102 0.72818 0.20692 0.0
H370 H 0.90065 0.74286 0.16257 0.0
C371 C 0.79531 0.61328 0.18734 0.0
C372 C 0.73841 0.82621 0.86523 0.0
C373 C 0.69778 0.83937 0.87843 0.0
H374 H 0.75621 0.77736 0.83056 0.0
C375 C 0.64449 0.81633 0.86336 0.0
H376 H 0.78015 0.84346 0.87598 0.0
C377 C 0.63083 0.77826 0.83725 0.0
C378 C 0.67012 0.76238 0.82559 0.0
H379 H 0.61222 0.82554 0.87275 0.0
H380 H 0.58852 0.75968 0.82709 0.0
C381 C 0.72474 0.78817 0.83915 0.0
C382 C 0.07481 0.81038 0.81275 0.0
C383 C 0.06494 0.84252 0.83637 0.0
H384 H 0.11697 0.80952 0.7667 0.0
C385 C 0.08389 0.89842 0.82827 0.0
H386 H 0.06098 0.76734 0.81798 0.0
C387 C 0.11616 0.92277 0.7988 0.0
C388 C 0.13056 0.89193 0.7767 0.0
H389 H 0.07674 0.92448 0.84569 0.0
H390 H 0.13292 0.96666 0.79447 0.0
C391 C 0.10734 0.83482 0.78335 0.0
C392 C 0.15269 0.26799 0.88377 0.0
C393 C 0.208 0.31013 0.89261 0.0
H394 H 0.08095 0.2434 0.85293 0.0
C395 C 0.23481 0.36014 0.87445 0.0
H396 H 0.13071 0.22862 0.89698 0.0
C397 C 0.20603 0.36842 0.84886 0.0
C398 C 0.14985 0.3269 0.84091 0.0
H399 H 0.2774 0.39325 0.88045 0.0
H400 H 0.2273 0.40806 0.83595 0.0
C401 C 0.12403 0.27624 0.8583 0.0
C402 C 0.97526 0.46283 0.50048 0.0
C403 C 0.00668 0.43639 0.49247 0.0
H404 H 0.96379 0.51757 0.5336 0.0
C405 C 0.05618 0.4512 0.51007 0.0
H406 H 0.93716 0.45285 0.48718 0.0
C407 C 0.07176 0.4888 0.53651 0.0
C408 C 0.03794 0.51219 0.54615 0.0
H409 H 0.08168 0.43212 0.50432 0.0
H410 H 0.10885 0.49732 0.5504 0.0
C411 C -0.00939 0.50018 0.52708 0.0
C412 C 0.44861 0.58252 0.47058 0.0
C413 C 0.45757 0.55023 0.44664 0.0
H414 H 0.41695 0.58594 0.51971 0.0
C415 C 0.43243 0.49272 0.45276 0.0
H416 H 0.46701 0.62677 0.46674 0.0
C417 C 0.4033 0.46904 0.48316 0.0
C418 C 0.39896 0.5024 0.50833 0.0
H419 H 0.43793 0.46637 0.43475 0.0
H420 H 0.3879 0.42548 0.48777 0.0
C421 C 0.41985 0.55894 0.50105 0.0
C422 C 0.53482 0.01049 0.56498 0.0
C423 C 0.55272 0.97423 0.55273 0.0
H424 H 0.47786 0.04145 0.56047 0.0
C425 C 0.52686 0.94248 0.52415 0.0
H426 H 0.55326 0.03519 0.58704 0.0
C427 C 0.48322 0.94611 0.50866 0.0
C428 C 0.46403 0.98095 0.52176 0.0
H429 H 0.53951 0.91393 0.51412 0.0
H430 H 0.4638 0.92087 0.48693 0.0
C431 C 0.49092 0.01354 0.54985 0.0
C432 C 0.1278 0.87476 0.05363 0.0
C433 C 0.14289 0.84407 0.0739 0.0
H434 H 0.08716 0.87513 1.00902 0.0
C435 C 0.11725 0.78661 0.06939 0.0
H436 H 0.14771 0.91937 0.05664 0.0
C437 C 0.0819 0.76112 0.04261 0.0
C438 C 0.07346 0.79326 0.01943 0.0
H439 H 0.12922 0.76252 0.08446 0.0
H440 H 0.06614 0.71736 0.03827 0.0
C441 C 0.09393 0.84964 0.02613 0.0
C442 C 0.11422 0.34965 0.01906 0.0
C443 C 0.07203 0.32369 0.04455 0.0
H444 H 0.19015 0.35898 0.99482 0.0
C445 C 0.07635 0.28722 0.06648 0.0
H446 H 0.1133 0.37889 1.0022 0.0
C447 C 0.12172 0.27677 0.06277 0.0
C448 C 0.16292 0.30177 0.03666 0.0
H449 H 0.04472 0.26674 0.08653 0.0
H450 H 0.12405 0.24857 0.07997 0.0
C451 C 0.15859 0.3383 1.0149 0.0
C452 C 0.77308 0.85612 0.08627 0.0
C453 C 0.73129 0.8385 0.11222 0.0
H454 H 0.79921 0.89462 0.03815 0.0
C455 C 0.69577 0.8613 0.11508 0.0
H456 H 0.80077 0.83869 0.08365 0.0
C457 C 0.69574 0.89432 0.08947 0.0
C458 C 0.72975 0.90288 0.06034 0.0
H459 H 0.66319 0.84797 0.13495 0.0
H460 H 0.66352 0.9064 0.09066 0.0
C461 C 0.77176 0.88762 0.06005 0.0
C462 C 0.87947 0.11819 0.94817 0.0
C463 C 0.82083 0.08756 0.95739 0.0
H464 H 0.95642 0.19805 0.94711 0.0
C465 C 0.79303 0.11606 0.96862 0.0
H466 H 0.9019 0.09738 0.93917 0.0
C467 C 0.82433 0.17332 0.97368 0.0
C468 C 0.88369 0.20329 0.96684 0.0
H469 H 0.74784 0.09378 0.9758 0.0
H470 H 0.80259 0.19372 0.98451 0.0
C471 C 0.91059 0.1758 0.95255 0.0
C472 C 0.80077 0.78197 0.99791 0.0
C473 C 0.77675 0.73515 0.01898 0.0
H474 H 0.86639 0.83071 0.96105 0.0
C475 C 0.79575 0.697 1.01551 0.0
H476 H 0.78667 0.81192 1.00001 0.0
C477 C 0.83982 0.70673 0.99247 0.0
C478 C 0.86683 0.75558 0.97309 0.0
H479 H 0.77749 0.66028 0.0312 0.0
H480 H 0.85538 0.6779 0.99162 0.0
C481 C 0.84607 0.79255 0.9755 0.0
C482 C 0.24489 0.1024 0.98325 0.0
C483 C 0.27049 0.14945 1.00392 0.0
H484 H 0.22342 0.01767 0.97604 0.0
C485 C 0.29104 0.14546 0.03467 0.0
H486 H 0.22888 0.10433 0.9593 0.0
C487 C 0.28795 0.0964 0.04418 0.0
C488 C 0.26464 0.04991 0.02307 0.0
H489 H 0.31152 0.1808 0.05112 0.0
H490 H 0.30553 0.09573 0.06783 0.0
C491 C 0.24208 0.05295 0.99273 0.0
C492 C 0.7906 0.22333 0.38311 0.0
C493 C 0.79919 0.19222 0.40684 0.0
H494 H 0.75484 0.22179 0.33624 0.0
C495 C 0.76708 0.13412 0.40589 0.0
H496 H 0.8156 0.26836 0.38337 0.0
C497 C 0.73165 0.10739 0.37934 0.0
C498 C 0.72947 0.13865 0.35292 0.0
H499 H 0.77391 0.10957 0.42377 0.0
H500 H 0.71075 0.0625 0.37795 0.0
C501 C 0.75641 0.19669 0.35595 0.0
C502 C 0.79212 0.6007 0.39064 0.0
C503 C 0.83291 0.62688 0.36445 0.0
H504 H 0.71543 0.58964 0.41553 0.0
C505 C 0.82771 0.6638 0.3435 0.0
H506 H 0.79514 0.5722 0.40726 0.0
C507 C 0.78325 0.67473 0.34866 0.0
C508 C 0.7417 0.64796 0.37435 0.0
H509 H 0.85888 0.68544 0.32339 0.0
H510 H 0.782 0.70463 0.33252 0.0
C511 C 0.74658 0.61075 0.39535 0.0
C512 C 0.44614 0.21702 0.40104 0.0
C513 C 0.40616 0.23485 0.40152 0.0
H514 H 0.47063 0.16386 0.42374 0.0
C515 C 0.37195 0.22664 0.43055 0.0
H516 H 0.47363 0.22362 0.3792 0.0
C517 C 0.36902 0.19112 0.4555 0.0
C518 C 0.40211 0.16579 0.45218 0.0
H519 H 0.34134 0.24073 0.43192 0.0
H520 H 0.33611 0.17828 0.47513 0.0
C521 C 0.44466 0.18311 0.42667 0.0
C522 C 0.48717 0.49804 0.31182 0.0
C523 C 0.54532 0.5284 0.30169 0.0
H524 H 0.41185 0.41789 0.31735 0.0
C525 C 0.57013 0.50103 0.28464 0.0
H526 H 0.46693 0.51825 0.32479 0.0
C527 C 0.53891 0.44335 0.28088 0.0
C528 C 0.48212 0.41241 0.2935 0.0
H529 H 0.61492 0.52347 0.27653 0.0
H530 H 0.56019 0.42271 0.26979 0.0
C531 C 0.45562 0.44057 0.30742 0.0
C532 C 0.4949 0.03591 0.32572 0.0
C533 C 0.52009 0.08499 0.30656 0.0
H534 H 0.43579 0.98886 0.3656 0.0
C535 C 0.49845 0.12114 0.31024 0.0
H536 H 0.51099 0.00748 0.32374 0.0
C537 C 0.45479 0.11 0.334 0.0
C538 C 0.43319 0.06335 0.35506 0.0
H539 H 0.5172 0.15934 0.29589 0.0
H540 H 0.44031 0.13955 0.33716 0.0
C541 C 0.45241 0.02559 0.35005 0.0
C542 C 0.92139 0.4386 0.31001 0.0
C543 C 0.95397 0.48795 0.32795 0.0
H544 H 0.89095 0.35106 0.30665 0.0
C545 C 0.98178 0.48664 0.3564 0.0
H546 H 0.89991 0.43856 0.2878 0.0
C547 C 0.97695 0.43739 0.36698 0.0
C548 C 0.94436 0.38782 0.34935 0.0
H549 H 0.00833 0.52396 0.37046 0.0
H550 H -0.00067 0.4385 0.38903 0.0
C551 C 0.91661 0.38874 0.32065 0.0
C552 C 0.43956 0.41894 0.70788 0.0
C553 C 0.42103 0.4475 0.68824 0.0
H554 H 0.49573 0.426 0.74619 0.0
C555 C 0.43315 0.50088 0.6977 0.0
H556 H 0.43034 0.37754 0.70114 0.0
C557 C 0.46832 0.52752 0.7245 0.0
C558 C 0.493 0.50159 0.74125 0.0
H559 H 0.41814 0.52315 0.68337 0.0
H560 H 0.48152 0.57059 0.72948 0.0
C561 C 0.47619 0.44623 0.73394 0.0
C562 C 0.50799 0.00929 0.68822 0.0
C563 C 0.50675 0.96659 0.70691 0.0
H564 H 0.46927 0.05744 0.6789 0.0
C565 C 0.46328 0.93937 0.73163 0.0
H566 H 0.54166 0.03187 0.66946 0.0
C567 C 0.42034 0.95309 0.73642 0.0
C568 C 0.42091 -0.00506 0.71699 0.0
H569 H 0.46153 0.90649 0.7465 0.0
H570 H 0.38625 0.93031 0.7549 0.0
C571 C 0.46616 0.02379 0.69353 0.0
C572 C 0.09163 0.51363 0.75588 0.0
C573 C 0.04521 0.49051 0.77904 0.0
H574 H 0.12547 0.56002 0.71048 0.0
C575 C 0.00614 0.50927 0.78009 0.0
H576 H 0.12194 0.49919 0.75464 0.0
C577 C 0.00906 0.54528 0.75546 0.0
C578 C 0.04967 0.56079 0.7289 0.0
H579 H 0.9698 0.49138 0.79766 0.0
H580 H 0.97502 0.55483 0.75496 0.0
C581 C 0.09336 0.54802 0.73047 0.0
C582 C 0.26148 0.83995 0.62851 0.0
C583 C 0.23606 0.87041 0.64007 0.0
H584 H 0.24878 0.75931 0.6171 0.0
C585 C 0.17627 0.84347 0.64464 0.0
H586 H 0.30762 0.85989 0.62489 0.0
C587 C 0.14265 0.78638 0.63966 0.0
C588 C 0.16833 0.7549 0.63079 0.0
H589 H 0.15569 0.86621 0.65333 0.0
H590 H 0.09687 0.7666 0.64477 0.0
C591 C 0.22788 0.78243 0.62422 0.0
C592 C 0.11835 0.38033 0.66106 0.0
C593 C 0.1239 0.40449 0.69265 0.0
H594 H 0.16257 0.37306 0.61737 0.0
C595 C 0.17841 0.44363 0.70356 0.0
H596 H 0.07641 0.34999 0.65231 0.0
C597 C 0.22698 0.45831 0.68329 0.0
C598 C 0.22206 0.43274 0.65217 0.0
H599 H 0.18343 0.46273 0.72785 0.0
H600 H 0.26869 0.48796 0.69265 0.0
C601 C 0.16734 0.39358 0.64115 0.0
C602 C 0.58381 0.73837 0.70933 0.0
C603 C 0.58373 0.70085 0.68559 0.0
H604 H 0.58694 0.8152 0.71821 0.0
C605 C 0.57856 0.70929 0.65178 0.0
H606 H 0.58604 0.73228 0.73566 0.0
C607 C 0.57916 0.75743 0.64176 0.0
C608 C 0.58496 0.79741 0.66546 0.0
H609 H 0.57779 0.68072 0.63296 0.0
H610 H 0.57946 0.7653 0.6154 0.0
C611 C 0.5844 0.78608 0.69935 0.0
loop_
_geom_bond_atom_site_label_1
_geom_bond_atom_site_label_2
_geom_bond_distance
_geom_bond_site_symmetry_2
_ccdc_geom_bond_type
Mg0 O1 2.028 . S
Mg0 O7 1.986 . S
Mg0 O9 2.114 1_545 S
Mg0 O10 2.251 1_545 S
Mg0 O13 2.010 . S
O1 Mg0 2.028 . S
O1 C4 1.250 . S
O2 Mg3 2.028 . S
O2 C4 1.248 1_556 S
Mg3 O2 2.028 . S
Mg3 O8 2.032 1_556 S
Mg3 O10 2.079 1_546 S
C4 O1 1.250 . S
C4 O2 1.248 1_554 S
C5 O6 1.264 . S
C5 O13 1.249 . S
O6 C5 1.264 . S
O7 Mg0 1.986 . S
O7 C11 1.246 . S
O8 Mg3 2.032 1_554 S
O8 C11 1.259 . S
O9 Mg0 2.114 1_565 S
O9 C12 1.252 . S
O10 Mg0 2.251 1_565 S
O10 Mg3 2.079 1_564 S
O10 C12 1.273 . S
C11 O7 1.246 . S
C11 O8 1.259 . S
C12 O9 1.252 . S
C12 O10 1.273 . S
O13 Mg0 2.010 . S
O13 C5 1.249 . S
Mg14 O15 2.028 . S
Mg14 O21 1.986 . S
Mg14 O23 2.114 1_655 S
Mg14 O24 2.251 1_655 S
Mg14 O27 2.010 . S
O15 Mg14 2.028 . S
O15 C18 1.250 . S
O16 Mg17 2.028 . S
O16 C18 1.248 1_556 S
Mg17 O16 2.028 . S
Mg17 O22 2.032 . S
Mg17 O24 2.079 1_656 S
C18 O15 1.250 . S
C18 O16 1.248 1_554 S
C19 O20 1.264 . S
C19 O27 1.249 . S
O20 C19 1.264 . S
O21 Mg14 1.986 . S
O21 C25 1.246 . S
O22 Mg17 2.032 . S
O22 C25 1.259 1_556 S
O23 Mg14 2.114 1_455 S
O23 C26 1.252 . S
O24 Mg14 2.251 1_455 S
O24 Mg17 2.079 1_454 S
O24 C26 1.273 . S
C25 O21 1.246 . S
C25 O22 1.259 1_554 S
C26 O23 1.252 . S
C26 O24 1.273 . S
O27 Mg14 2.010 . S
O27 C19 1.249 . S
Mg28 O29 2.028 . S
Mg28 O35 1.986 . S
Mg28 O37 2.114 . S
Mg28 O38 2.251 . S
Mg28 O41 2.010 . S
O29 Mg28 2.028 . S
O29 C32 1.250 . S
O30 Mg31 2.028 . S
O30 C32 1.248 1_556 S
Mg31 O30 2.028 . S
Mg31 O36 2.025 1_556 S
Mg31 O38 2.079 1_556 S
C32 O29 1.250 . S
C32 O30 1.248 1_554 S
C33 O34 1.264 . S
C33 O41 1.249 . S
O34 C33 1.264 . S
O35 Mg28 1.986 . S
O35 C39 1.246 . S
O36 Mg31 2.025 1_554 S
O36 C39 1.275 . S
O37 Mg28 2.114 . S
O37 C40 1.252 . S
O38 Mg28 2.251 . S
O38 Mg31 2.079 1_554 S
O38 C40 1.273 . S
C39 O35 1.246 . S
C39 O36 1.275 . S
C40 O37 1.252 . S
C40 O38 1.273 . S
O41 Mg28 2.010 . S
O41 C33 1.249 . S
Mg42 O43 2.028 1_565 S
Mg42 O49 1.986 . S
Mg42 O51 2.114 . S
Mg42 O52 2.251 . S
Mg42 O55 2.010 . S
O43 Mg42 2.028 1_545 S
O43 C46 1.250 . S
O44 Mg45 2.028 1_545 S
O44 C46 1.248 . S
Mg45 O44 2.028 1_565 S
Mg45 O50 2.032 . S
Mg45 O52 2.079 . S
C46 O43 1.250 . S
C46 O44 1.248 . S
C47 O48 1.264 . S
C47 O55 1.249 . S
O48 C47 1.264 . S
O49 Mg42 1.986 . S
O49 C53 1.246 . S
O50 Mg45 2.032 . S
O50 C53 1.259 . S
O51 Mg42 2.114 . S
O51 C54 1.252 . S
O52 Mg42 2.251 . S
O52 Mg45 2.079 . S
O52 C54 1.273 . S
C53 O49 1.246 . S
C53 O50 1.259 . S
C54 O51 1.252 . S
C54 O52 1.273 . S
O55 Mg42 2.010 . S
O55 C47 1.249 . S
Mg56 O57 2.028 1_455 S
Mg56 O63 1.986 . S
Mg56 O65 2.114 . S
Mg56 O66 2.251 . S
Mg56 O69 2.010 . S
O57 Mg56 2.028 1_655 S
O57 C60 1.250 . S
O58 Mg59 2.028 1_655 S
O58 C60 1.248 . S
Mg59 O58 2.028 1_455 S
Mg59 O64 2.032 . S
Mg59 O66 2.079 . S
C60 O57 1.250 . S
C60 O58 1.248 . S
C61 O62 1.264 . S
C61 O69 1.249 . S
O62 C61 1.264 . S
O63 Mg56 1.986 . S
O63 C67 1.246 . S
O64 Mg59 2.032 . S
O64 C67 1.259 . S
O65 Mg56 2.114 . S
O65 C68 1.252 . S
O66 Mg56 2.251 . S
O66 Mg59 2.079 . S
O66 C68 1.273 . S
C67 O63 1.246 . S
C67 O64 1.259 . S
C68 O65 1.252 . S
C68 O66 1.273 . S
O69 Mg56 2.010 . S
O69 C61 1.249 . S
Mg70 O71 2.028 . S
Mg70 O77 1.986 . S
Mg70 O79 2.114 . S
Mg70 O80 2.251 . S
Mg70 O83 2.010 . S
O71 Mg70 2.028 . S
O71 C74 1.250 . S
O72 Mg73 2.028 . S
O72 C74 1.248 1_554 S
Mg73 O72 2.028 . S
Mg73 O78 2.032 1_554 S
Mg73 O80 2.079 1_554 S
C74 O71 1.250 . S
C74 O72 1.248 1_556 S
C75 O76 1.264 . S
C75 O83 1.249 . S
O76 C75 1.264 . S
O77 Mg70 1.986 . S
O77 C81 1.246 . S
O78 Mg73 2.032 1_556 S
O78 C81 1.259 . S
O79 Mg70 2.114 . S
O79 C82 1.252 . S
O80 Mg70 2.251 . S
O80 Mg73 2.079 1_556 S
O80 C82 1.273 . S
C81 O77 1.246 . S
C81 O78 1.259 . S
C82 O79 1.252 . S
C82 O80 1.273 . S
O83 Mg70 2.010 . S
O83 C75 1.249 . S
Mg84 O85 2.028 . S
Mg84 O91 1.986 1_655 S
Mg84 O93 2.114 . S
Mg84 O94 2.251 . S
Mg84 O97 2.010 1_655 S
O85 Mg84 2.028 . S
O85 C88 1.250 . S
O86 Mg87 2.028 . S
O86 C88 1.248 . S
Mg87 O86 2.028 . S
Mg87 O92 2.032 1_655 S
Mg87 O94 2.079 . S
C88 O85 1.250 . S
C88 O86 1.248 . S
C89 O90 1.264 . S
C89 O97 1.249 1_655 S
O90 C89 1.264 . S
O91 Mg84 1.986 1_455 S
O91 C95 1.246 . S
O92 Mg87 2.032 1_455 S
O92 C95 1.259 . S
O93 Mg84 2.114 . S
O93 C96 1.252 . S
O94 Mg84 2.251 . S
O94 Mg87 2.079 . S
O94 C96 1.273 . S
C95 O91 1.246 . S
C95 O92 1.259 . S
C96 O93 1.252 . S
C96 O94 1.273 . S
O97 Mg84 2.010 1_455 S
O97 C89 1.249 1_455 S
Mg98 O99 2.028 . S
Mg98 O105 1.986 . S
Mg98 O107 2.114 . S
Mg98 O108 2.251 . S
Mg98 O111 2.010 . S
O99 Mg98 2.028 . S
O99 C102 1.250 . S
O100 Mg101 2.028 . S
O100 C102 1.248 . S
Mg101 O100 2.028 . S
Mg101 O106 2.032 . S
Mg101 O108 2.079 . S
C102 O99 1.250 . S
C102 O100 1.248 . S
C103 O104 1.264 . S
C103 O111 1.249 . S
O104 C103 1.264 . S
O105 Mg98 1.986 . S
O105 C109 1.246 . S
O106 Mg101 2.032 . S
O106 C109 1.259 . S
O107 Mg98 2.114 . S
O107 C110 1.252 . S
O108 Mg98 2.251 . S
O108 Mg101 2.079 . S
O108 C110 1.273 . S
C109 O105 1.246 . S
C109 O106 1.259 . S
C110 O107 1.252 . S
C110 O108 1.273 . S
O111 Mg98 2.010 . S
O111 C103 1.249 . S
Mg112 O113 2.028 . S
Mg112 O119 1.986 1_545 S
Mg112 O121 2.114 . S
Mg112 O122 2.251 . S
Mg112 O125 2.010 1_545 S
O113 Mg112 2.028 . S
O113 C116 1.250 . S
O114 Mg115 2.028 . S
O114 C116 1.248 . S
Mg115 O114 2.028 . S
Mg115 O120 2.032 1_545 S
Mg115 O122 2.079 . S
C116 O113 1.250 . S
C116 O114 1.248 . S
C117 O118 1.264 1_565 S
C117 O125 1.249 . S
O118 C117 1.264 1_545 S
O119 Mg112 1.986 1_565 S
O119 C123 1.246 . S
O120 Mg115 2.032 1_565 S
O120 C123 1.259 . S
O121 Mg112 2.114 . S
O121 C124 1.252 . S
O122 Mg112 2.251 . S
O122 Mg115 2.079 . S
O122 C124 1.273 . S
C123 O119 1.246 . S
C123 O120 1.259 . S
C124 O121 1.252 . S
C124 O122 1.273 . S
O125 Mg112 2.010 1_565 S
O125 C117 1.249 . S
Mg126 O127 2.028 . S
Mg126 O133 1.986 . S
Mg126 O135 2.114 . S
Mg126 O136 2.251 . S
Mg126 O139 2.010 . S
O127 Mg126 2.028 . S
O127 C130 1.250 . S
O128 Mg129 2.028 . S
O128 C130 1.248 . S
Mg129 O128 2.028 . S
Mg129 O134 2.032 . S
Mg129 O136 2.079 . S
C130 O127 1.250 . S
C130 O128 1.248 . S
C131 O132 1.264 . S
C131 O139 1.249 . S
O132 C131 1.264 . S
O133 Mg126 1.986 . S
O133 C137 1.246 . S
O134 Mg129 2.032 . S
O134 C137 1.259 . S
O135 Mg126 2.114 . S
O135 C138 1.252 . S
O136 Mg126 2.251 . S
O136 Mg129 2.079 . S
O136 C138 1.273 . S
C137 O133 1.246 . S
C137 O134 1.259 . S
C138 O135 1.252 . S
C138 O136 1.273 . S
O139 Mg126 2.010 . S
O139 C131 1.249 . S
Mg140 O141 2.028 . S
Mg140 O147 1.986 . S
Mg140 O149 2.114 . S
Mg140 O150 2.251 . S
Mg140 O153 2.010 1_545 S
O141 Mg140 2.028 . S
O141 C144 1.250 . S
O142 Mg143 2.028 . S
O142 C144 1.248 . S
Mg143 O142 2.028 . S
Mg143 O148 2.032 . S
Mg143 O150 2.079 . S
C144 O141 1.250 . S
C144 O142 1.248 . S
C145 O146 1.264 . S
C145 O153 1.249 . S
O146 C145 1.264 . S
O147 Mg140 1.986 . S
O147 C151 1.246 . S
O148 Mg143 2.032 . S
O148 C151 1.259 . S
O149 Mg140 2.114 . S
O149 C152 1.252 . S
O150 Mg140 2.251 . S
O150 Mg143 2.079 . S
O150 C152 1.273 . S
C151 O147 1.246 . S
C151 O148 1.259 . S
C152 O149 1.252 . S
C152 O150 1.273 . S
O153 Mg140 2.010 1_565 S
O153 C145 1.249 . S
Mg154 O155 2.028 . S
Mg154 O161 1.986 1_655 S
Mg154 O163 2.114 . S
Mg154 O164 2.251 . S
Mg154 O167 2.010 . S
O155 Mg154 2.028 . S
O155 C158 1.250 . S
O156 Mg157 2.028 . S
O156 C158 1.248 . S
Mg157 O156 2.028 . S
Mg157 O162 2.032 1_655 S
Mg157 O164 2.079 . S
C158 O155 1.250 . S
C158 O156 1.248 . S
C159 O160 1.264 . S
C159 O167 1.249 . S
O160 C159 1.264 . S
O161 Mg154 1.986 1_455 S
O161 C165 1.246 . S
O162 Mg157 2.032 1_455 S
O162 C165 1.259 . S
O163 Mg154 2.114 . S
O163 C166 1.252 . S
O164 Mg154 2.251 . S
O164 Mg157 2.079 . S
O164 C166 1.273 . S
C165 O161 1.246 . S
C165 O162 1.259 . S
C166 O163 1.252 . S
C166 O164 1.273 . S
O167 Mg154 2.010 . S
O167 C159 1.249 . S
Mg168 O169 2.028 . S
Mg168 O175 1.986 . S
Mg168 O177 2.114 . S
Mg168 O178 2.251 . S
Mg168 O181 2.010 . S
O169 Mg168 2.028 . S
O169 C172 1.250 . S
O170 Mg171 2.028 . S
O170 C172 1.248 . S
Mg171 O170 2.028 . S
Mg171 O176 2.032 . S
Mg171 O178 2.079 . S
C172 O169 1.250 . S
C172 O170 1.248 . S
C173 O174 1.264 . S
C173 O181 1.249 . S
O174 C173 1.264 . S
O175 Mg168 1.986 . S
O175 C179 1.246 . S
O176 Mg171 2.032 . S
O176 C179 1.259 . S
O177 Mg168 2.114 . S
O177 C180 1.252 . S
O178 Mg168 2.251 . S
O178 Mg171 2.079 . S
O178 C180 1.273 . S
C179 O175 1.246 . S
C179 O176 1.259 . S
C180 O177 1.252 . S
C180 O178 1.273 . S
O181 Mg168 2.010 . S
O181 C173 1.249 . S
Mg182 O183 2.028 . S
Mg182 O189 1.986 1_565 S
Mg182 O191 2.114 . S
Mg182 O192 2.251 . S
Mg182 O195 2.010 . S
O183 Mg182 2.028 . S
O183 C186 1.250 . S
O184 Mg185 2.028 . S
O184 C186 1.248 . S
Mg185 O184 2.028 . S
Mg185 O190 2.032 1_565 S
Mg185 O192 2.079 . S
C186 O183 1.250 . S
C186 O184 1.248 . S
C187 O188 1.264 . S
C187 O195 1.249 . S
O188 C187 1.264 . S
O189 Mg182 1.986 1_545 S
O189 C193 1.246 . S
O190 Mg185 2.032 1_545 S
O190 C193 1.259 . S
O191 Mg182 2.114 . S
O191 C194 1.252 . S
O192 Mg182 2.251 . S
O192 Mg185 2.079 . S
O192 C194 1.273 . S
C193 O189 1.246 . S
C193 O190 1.259 . S
C194 O191 1.252 . S
C194 O192 1.273 . S
O195 Mg182 2.010 . S
O195 C187 1.249 . S
Mg196 O197 2.028 . S
Mg196 O203 1.986 1_455 S
Mg196 O205 2.114 . S
Mg196 O206 2.251 . S
Mg196 O209 2.010 . S
O197 Mg196 2.028 . S
O197 C200 1.250 . S
O198 Mg199 2.028 . S
O198 C200 1.248 . S
Mg199 O198 2.028 . S
Mg199 O204 2.032 1_455 S
Mg199 O206 2.079 . S
C200 O197 1.250 . S
C200 O198 1.248 . S
C201 O202 1.264 . S
C201 O209 1.249 . S
O202 C201 1.264 . S
O203 Mg196 1.986 1_655 S
O203 C207 1.246 . S
O204 Mg199 2.032 1_655 S
O204 C207 1.259 . S
O205 Mg196 2.114 . S
O205 C208 1.252 . S
O206 Mg196 2.251 . S
O206 Mg199 2.079 . S
O206 C208 1.273 . S
C207 O203 1.246 . S
C207 O204 1.259 . S
C208 O205 1.252 . S
C208 O206 1.273 . S
O209 Mg196 2.010 . S
O209 C201 1.249 . S
Mg210 O211 2.028 1_655 S
Mg210 O217 1.986 . S
Mg210 O219 2.114 . S
Mg210 O220 2.251 1_655 S
Mg210 O223 2.010 . S
O211 Mg210 2.028 1_455 S
O211 C214 1.250 . S
O212 Mg213 2.028 . S
O212 C214 1.248 . S
Mg213 O212 2.028 . S
Mg213 O218 2.032 . S
Mg213 O220 2.079 . S
C214 O211 1.250 . S
C214 O212 1.248 . S
C215 O216 1.264 . S
C215 O223 1.249 . S
O216 C215 1.264 . S
O217 Mg210 1.986 . S
O217 C221 1.246 1_655 S
O218 Mg213 2.032 . S
O218 C221 1.259 . S
O219 Mg210 2.114 . S
O219 C222 1.252 1_655 S
O220 Mg210 2.251 1_455 S
O220 Mg213 2.079 . S
O220 C222 1.273 . S
C221 O217 1.246 1_455 S
C221 O218 1.259 . S
C222 O219 1.252 1_455 S
C222 O220 1.273 . S
O223 Mg210 2.010 . S
O223 C215 1.249 . S
Mg224 O225 2.028 . S
Mg224 O231 1.986 . S
Mg224 O233 2.114 . S
Mg224 O234 2.251 . S
Mg224 O237 2.010 . S
O225 Mg224 2.028 . S
O225 C228 1.250 . S
O226 Mg227 2.028 . S
O226 C228 1.248 . S
Mg227 O226 2.028 . S
Mg227 O232 2.032 . S
Mg227 O234 2.079 . S
C228 O225 1.250 . S
C228 O226 1.248 . S
C229 O230 1.264 . S
C229 O237 1.249 . S
O230 C229 1.264 . S
O231 Mg224 1.986 . S
O231 C235 1.246 . S
O232 Mg227 2.032 . S
O232 C235 1.259 . S
O233 Mg224 2.114 . S
O233 C236 1.252 . S
O234 Mg224 2.251 . S
O234 Mg227 2.079 . S
O234 C236 1.273 . S
C235 O231 1.246 . S
C235 O232 1.259 . S
C236 O233 1.252 . S
C236 O234 1.273 . S
O237 Mg224 2.010 . S
O237 C229 1.249 . S
Mg238 O239 2.028 . S
Mg238 O245 1.986 1_565 S
Mg238 O247 2.114 . S
Mg238 O248 2.251 . S
Mg238 O251 2.010 1_565 S
O239 Mg238 2.028 . S
O239 C242 1.250 . S
O240 Mg241 2.024 . S
O240 C242 1.248 . S
Mg241 O240 2.024 . S
Mg241 O246 2.025 1_565 S
Mg241 O248 2.085 . S
C242 O239 1.250 . S
C242 O240 1.248 . S
C243 O244 1.267 . S
C243 O251 1.250 1_565 S
O244 C243 1.267 . S
O245 Mg238 1.986 1_545 S
O245 C249 1.246 . S
O246 Mg241 2.025 1_545 S
O246 C249 1.259 . S
O247 Mg238 2.114 . S
O247 C250 1.252 . S
O248 Mg238 2.251 . S
O248 Mg241 2.085 . S
O248 C250 1.273 . S
C249 O245 1.246 . S
C249 O246 1.259 . S
C250 O247 1.252 . S
C250 O248 1.273 . S
O251 Mg238 2.010 1_545 S
O251 C243 1.250 1_545 S
C252 C253 1.387 1_565 S
C252 H256 0.950 . S
C252 C261 1.390 . S
C253 C252 1.387 1_545 S
C253 C255 1.387 . S
H254 C261 0.950 . S
C255 C253 1.387 . S
C255 C257 1.390 1_554 S
C255 H259 0.950 . S
H256 C252 0.950 . S
C257 C255 1.390 1_556 S
C257 C258 1.387 . S
C257 H260 0.950 . S
C258 C257 1.387 . S
C258 C261 1.387 1_546 S
H259 C255 0.950 . S
H260 C257 0.950 . S
C261 C252 1.390 . S
C261 H254 0.950 . S
C261 C258 1.387 1_564 S
C262 C263 1.387 . S
C262 H266 0.950 . S
C262 C271 1.390 . S
C263 C262 1.387 . S
C263 C265 1.387 1_554 S
H264 C271 0.950 . S
C265 C263 1.387 1_556 S
C265 C267 1.390 . S
C265 H269 0.950 . S
H266 C262 0.950 . S
C267 C265 1.390 . S
C267 C268 1.387 . S
C267 H270 0.950 1_655 S
C268 C267 1.387 . S
C268 C271 1.387 1_556 S
H269 C265 0.950 . S
H270 C267 0.950 1_455 S
C271 C262 1.390 . S
C271 H264 0.950 . S
C271 C268 1.387 1_554 S
C272 C273 1.387 . S
C272 H276 0.950 . S
C272 C281 1.390 . S
C273 C272 1.387 . S
C273 C275 1.387 1_556 S
H274 C281 0.950 . S
C275 C273 1.387 1_554 S
C275 C277 1.390 . S
C275 H279 0.950 . S
H276 C272 0.950 . S
C277 C275 1.390 . S
C277 C278 1.387 . S
C277 H280 0.950 . S
C278 C277 1.387 . S
C278 C281 1.387 1_554 S
H279 C275 0.950 . S
H280 C277 0.950 . S
C281 C272 1.390 . S
C281 H274 0.950 . S
C281 C278 1.387 1_556 S
C282 C283 1.387 . S
C282 H286 0.950 . S
C282 C291 1.390 . S
C283 C282 1.387 . S
C283 C285 1.387 . S
H284 C291 0.950 . S
C285 C283 1.387 . S
C285 C287 1.390 . S
C285 H289 0.950 . S
H286 C282 0.950 . S
C287 C285 1.390 . S
C287 C288 1.387 . S
C287 H290 0.950 . S
C288 C287 1.387 . S
C288 C291 1.387 . S
H289 C285 0.950 . S
H290 C287 0.950 . S
C291 C282 1.390 . S
C291 H284 0.950 . S
C291 C288 1.387 . S
C292 C293 1.387 . S
C292 H296 0.950 . S
C292 C301 1.390 . S
C293 C292 1.387 . S
C293 C295 1.387 . S
H294 C301 0.950 . S
C295 C293 1.387 . S
C295 C297 1.390 . S
C295 H299 0.950 . S
H296 C292 0.950 . S
C297 C295 1.390 . S
C297 C298 1.387 . S
C297 H300 0.950 . S
C298 C297 1.387 . S
C298 C301 1.387 . S
H299 C295 0.950 . S
H300 C297 0.950 . S
C301 C292 1.390 . S
C301 H294 0.950 . S
C301 C298 1.387 . S
C302 C303 1.387 . S
C302 H306 0.950 . S
C302 C311 1.390 . S
C303 C302 1.387 . S
C303 C305 1.387 . S
H304 C311 0.950 . S
C305 C303 1.387 . S
C305 C307 1.390 . S
C305 H309 0.950 . S
H306 C302 0.950 . S
C307 C305 1.390 . S
C307 C308 1.387 . S
C307 H310 0.950 . S
C308 C307 1.387 . S
C308 C311 1.387 . S
H309 C305 0.950 . S
H310 C307 0.950 . S
C311 C302 1.390 . S
C311 H304 0.950 . S
C311 C308 1.387 . S
C312 C313 1.387 . S
C312 H316 0.950 . S
C312 C321 1.390 . S
C313 C312 1.387 . S
C313 C315 1.387 . S
H314 C321 0.950 . S
C315 C313 1.387 . S
C315 C317 1.390 . S
C315 H319 0.950 . S
H316 C312 0.950 . S
C317 C315 1.390 . S
C317 C318 1.387 . S
C317 H320 0.950 . S
C318 C317 1.387 . S
C318 C321 1.387 . S
H319 C315 0.950 . S
H320 C317 0.950 . S
C321 C312 1.390 . S
C321 H314 0.950 . S
C321 C318 1.387 . S
C322 C323 1.387 . S
C322 H326 0.950 . S
C322 C331 1.390 . S
C323 C322 1.387 . S
C323 C325 1.387 . S
H324 C331 0.950 . S
C325 C323 1.387 . S
C325 C327 1.390 . S
C325 H329 0.950 . S
H326 C322 0.950 . S
C327 C325 1.390 . S
C327 C328 1.387 . S
C327 H330 0.950 . S
C328 C327 1.387 . S
C328 C331 1.387 . S
H329 C325 0.950 . S
H330 C327 0.950 . S
C331 C322 1.390 . S
C331 H324 0.950 . S
C331 C328 1.387 . S
C332 C333 1.387 . S
C332 H336 0.950 . S
C332 C341 1.390 . S
C333 C332 1.387 . S
C333 C335 1.387 . S
H334 C341 0.950 . S
C335 C333 1.387 . S
C335 C337 1.390 . S
C335 H339 0.950 . S
H336 C332 0.950 . S
C337 C335 1.390 . S
C337 C338 1.387 . S
C337 H340 0.950 . S
C338 C337 1.387 . S
C338 C341 1.387 . S
H339 C335 0.950 . S
H340 C337 0.950 . S
C341 C332 1.390 . S
C341 H334 0.950 . S
C341 C338 1.387 . S
C342 C343 1.387 . S
C342 H346 0.950 . S
C342 C351 1.390 . S
C343 C342 1.387 . S
C343 C345 1.387 . S
H344 C351 0.950 . S
C345 C343 1.387 . S
C345 C347 1.390 . S
C345 H349 0.950 . S
H346 C342 0.950 . S
C347 C345 1.390 . S
C347 C348 1.387 . S
C347 H350 0.950 . S
C348 C347 1.387 . S
C348 C351 1.387 . S
H349 C345 0.950 . S
H350 C347 0.950 . S
C351 C342 1.390 . S
C351 H344 0.950 . S
C351 C348 1.387 . S
C352 C353 1.387 . S
C352 H356 0.950 . S
C352 C361 1.390 . S
C353 C352 1.387 . S
C353 C355 1.387 . S
H354 C361 0.950 . S
C355 C353 1.387 . S
C355 C357 1.390 . S
C355 H359 0.950 . S
H356 C352 0.950 . S
C357 C355 1.390 . S
C357 C358 1.387 . S
C357 H360 0.950 . S
C358 C357 1.387 . S
C358 C361 1.387 . S
H359 C355 0.950 . S
H360 C357 0.950 . S
C361 C352 1.390 . S
C361 H354 0.950 . S
C361 C358 1.387 . S
C362 C363 1.387 . S
C362 H366 0.950 . S
C362 C371 1.390 . S
C363 C362 1.387 . S
C363 C365 1.387 . S
H364 C371 0.950 . S
C365 C363 1.387 . S
C365 C367 1.390 . S
C365 H369 0.950 . S
H366 C362 0.950 . S
C367 C365 1.390 . S
C367 C368 1.387 . S
C367 H370 0.950 . S
C368 C367 1.387 . S
C368 C371 1.387 . S
H369 C365 0.950 . S
H370 C367 0.950 . S
C371 C362 1.390 . S
C371 H364 0.950 . S
C371 C368 1.387 . S
C372 C373 1.387 . S
C372 H376 0.950 . S
C372 C381 1.390 . S
C373 C372 1.387 . S
C373 C375 1.387 . S
H374 C381 0.950 . S
C375 C373 1.387 . S
C375 C377 1.390 . S
C375 H379 0.950 . S
H376 C372 0.950 . S
C377 C375 1.390 . S
C377 C378 1.387 . S
C377 H380 0.950 . S
C378 C377 1.387 . S
C378 C381 1.387 . S
H379 C375 0.950 . S
H380 C377 0.950 . S
C381 C372 1.390 . S
C381 H374 0.950 . S
C381 C378 1.387 . S
C382 C383 1.387 . S
C382 H386 0.950 . S
C382 C391 1.390 . S
C383 C382 1.387 . S
C383 C385 1.387 . S
H384 C391 0.950 . S
C385 C383 1.387 . S
C385 C387 1.390 . S
C385 H389 0.950 . S
H386 C382 0.950 . S
C387 C385 1.390 . S
C387 C388 1.387 . S
C387 H390 0.950 . S
C388 C387 1.387 . S
C388 C391 1.387 . S
H389 C385 0.950 . S
H390 C387 0.950 . S
C391 C382 1.390 . S
C391 H384 0.950 . S
C391 C388 1.387 . S
C392 C393 1.387 . S
C392 H396 0.950 . S
C392 C401 1.390 . S
C393 C392 1.387 . S
C393 C395 1.387 . S
H394 C401 0.950 . S
C395 C393 1.387 . S
C395 C397 1.390 . S
C395 H399 0.950 . S
H396 C392 0.950 . S
C397 C395 1.390 . S
C397 C398 1.387 . S
C397 H400 0.950 . S
C398 C397 1.387 . S
C398 C401 1.387 . S
H399 C395 0.950 . S
H400 C397 0.950 . S
C401 C392 1.390 . S
C401 H394 0.950 . S
C401 C398 1.387 . S
C402 C403 1.387 . S
C402 H406 0.950 . S
C402 C411 1.390 . S
C403 C402 1.387 . S
C403 C405 1.387 1_455 S
H404 C411 0.950 . S
C405 C403 1.387 1_655 S
C405 C407 1.390 . S
C405 H409 0.950 . S
H406 C402 0.950 . S
C407 C405 1.390 . S
C407 C408 1.387 1_655 S
C407 H410 0.950 . S
C408 C407 1.387 1_455 S
C408 C411 1.387 . S
H409 C405 0.950 . S
H410 C407 0.950 . S
C411 C402 1.390 . S
C411 H404 0.950 . S
C411 C408 1.387 . S
C412 C413 1.387 . S
C412 H416 0.950 . S
C412 C421 1.390 . S
C413 C412 1.387 . S
C413 C415 1.387 . S
H414 C421 0.950 . S
C415 C413 1.387 . S
C415 C417 1.390 . S
C415 H419 0.950 . S
H416 C412 0.950 . S
C417 C415 1.390 . S
C417 C418 1.387 . S
C417 H420 0.950 . S
C418 C417 1.387 . S
C418 C421 1.387 . S
H419 C415 0.950 . S
H420 C417 0.950 . S
C421 C412 1.390 . S
C421 H414 0.950 . S
C421 C418 1.387 . S
C422 C423 1.368 1_545 S
C422 H426 0.950 . S
C422 C431 1.390 . S
C423 C422 1.368 1_565 S
C423 C425 1.398 . S
H424 C431 0.950 . S
C425 C423 1.398 . S
C425 C427 1.390 . S
C425 H429 0.950 . S
H426 C422 0.950 . S
C427 C425 1.390 . S
C427 C428 1.387 . S
C427 H430 0.950 . S
C428 C427 1.387 . S
C428 C431 1.387 1_565 S
H429 C425 0.950 . S
H430 C427 0.950 . S
C431 C422 1.390 . S
C431 H424 0.950 . S
C431 C428 1.387 1_545 S
C432 C433 1.387 . S
C432 H436 0.950 1_554 S
C432 C441 1.390 1_554 S
C433 C432 1.387 . S
C433 C435 1.387 . S
H434 C441 0.950 . S
C435 C433 1.387 . S
C435 C437 1.390 . S
C435 H439 0.950 . S
H436 C432 0.950 1_556 S
C437 C435 1.390 . S
C437 C438 1.387 1_554 S
C437 H440 0.950 . S
C438 C437 1.387 1_556 S
C438 C441 1.387 . S
H439 C435 0.950 . S
H440 C437 0.950 . S
C441 C432 1.390 1_556 S
C441 H434 0.950 . S
C441 C438 1.387 . S
C442 C443 1.387 . S
C442 H446 0.950 . S
C442 C451 1.390 1_554 S
C443 C442 1.387 . S
C443 C445 1.387 . S
H444 C451 0.950 . S
C445 C443 1.387 . S
C445 C447 1.390 1_554 S
C445 H449 0.950 . S
H446 C442 0.950 . S
C447 C445 1.390 1_556 S
C447 C448 1.387 . S
C447 H450 0.950 . S
C448 C447 1.387 . S
C448 C451 1.387 . S
H449 C445 0.950 . S
H450 C447 0.950 . S
C451 C442 1.390 1_556 S
C451 H444 0.950 . S
C451 C448 1.387 . S
C452 C453 1.416 . S
C452 H456 0.937 1_554 S
C452 C461 1.374 1_554 S
C453 C452 1.416 . S
C453 C455 1.387 . S
H454 C461 0.950 . S
C455 C453 1.387 . S
C455 C457 1.390 . S
C455 H459 0.950 . S
H456 C452 0.937 1_556 S
C457 C455 1.390 . S
C457 C458 1.387 1_554 S
C457 H460 0.950 . S
C458 C457 1.387 1_556 S
C458 C461 1.387 . S
H459 C455 0.950 . S
H460 C457 0.950 . S
C461 C452 1.374 1_556 S
C461 H454 0.950 . S
C461 C458 1.387 . S
C462 C463 1.387 . S
C462 H466 0.950 . S
C462 C471 1.390 . S
C463 C462 1.387 . S
C463 C465 1.387 . S
H464 C471 0.950 . S
C465 C463 1.387 . S
C465 C467 1.390 1_556 S
C465 H469 0.950 . S
H466 C462 0.950 . S
C467 C465 1.390 1_554 S
C467 C468 1.387 . S
C467 H470 0.950 . S
C468 C467 1.387 . S
C468 C471 1.387 1_554 S
H469 C465 0.950 . S
H470 C467 0.950 . S
C471 C462 1.390 . S
C471 H464 0.950 . S
C471 C468 1.387 1_556 S
C472 C473 1.387 . S
C472 H476 0.950 . S
C472 C481 1.390 1_554 S
C473 C472 1.387 . S
C473 C475 1.387 1_554 S
H474 C481 0.950 . S
C475 C473 1.387 1_556 S
C475 C477 1.390 . S
C475 H479 0.950 . S
H476 C472 0.950 . S
C477 C475 1.390 . S
C477 C478 1.387 . S
C477 H480 0.950 . S
C478 C477 1.387 . S
C478 C481 1.387 . S
H479 C475 0.950 . S
H480 C477 0.950 . S
C481 C472 1.390 1_556 S
C481 H474 0.950 . S
C481 C478 1.387 . S
C482 C483 1.387 . S
C482 H486 0.950 . S
C482 C491 1.390 1_556 S
C483 C482 1.387 . S
C483 C485 1.387 . S
H484 C491 0.950 . S
C485 C483 1.387 . S
C485 C487 1.390 . S
C485 H489 0.950 . S
H486 C482 0.950 . S
C487 C485 1.390 . S
C487 C488 1.387 1_556 S
C487 H490 0.950 . S
C488 C487 1.387 1_554 S
C488 C491 1.387 . S
H489 C485 0.950 . S
H490 C487 0.950 . S
C491 C482 1.390 1_554 S
C491 H484 0.950 . S
C491 C488 1.387 . S
C492 C493 1.387 . S
C492 H496 0.950 . S
C492 C501 1.390 . S
C493 C492 1.387 . S
C493 C495 1.387 . S
H494 C501 0.950 . S
C495 C493 1.387 . S
C495 C497 1.390 . S
C495 H499 0.950 . S
H496 C492 0.950 . S
C497 C495 1.390 . S
C497 C498 1.387 . S
C497 H500 0.950 . S
C498 C497 1.387 . S
C498 C501 1.387 . S
H499 C495 0.950 . S
H500 C497 0.950 . S
C501 C492 1.390 . S
C501 H494 0.950 . S
C501 C498 1.387 . S
C502 C503 1.387 . S
C502 H506 0.950 . S
C502 C511 1.390 . S
C503 C502 1.387 . S
C503 C505 1.387 . S
H504 C511 0.950 . S
C505 C503 1.387 . S
C505 C507 1.390 . S
C505 H509 0.950 . S
H506 C502 0.950 . S
C507 C505 1.390 . S
C507 C508 1.387 . S
C507 H510 0.950 . S
C508 C507 1.387 . S
C508 C511 1.387 . S
H509 C505 0.950 . S
H510 C507 0.950 . S
C511 C502 1.390 . S
C511 H504 0.950 . S
C511 C508 1.387 . S
C512 C513 1.387 . S
C512 H516 0.950 . S
C512 C521 1.390 . S
C513 C512 1.387 . S
C513 C515 1.387 . S
H514 C521 0.950 . S
C515 C513 1.387 . S
C515 C517 1.390 . S
C515 H519 0.950 . S
H516 C512 0.950 . S
C517 C515 1.390 . S
C517 C518 1.387 . S
C517 H520 0.950 . S
C518 C517 1.387 . S
C518 C521 1.387 . S
H519 C515 0.950 . S
H520 C517 0.950 . S
C521 C512 1.390 . S
C521 H514 0.950 . S
C521 C518 1.387 . S
C522 C523 1.387 . S
C522 H526 0.950 . S
C522 C531 1.390 . S
C523 C522 1.387 . S
C523 C525 1.387 . S
H524 C531 0.950 . S
C525 C523 1.387 . S
C525 C527 1.390 . S
C525 H529 0.950 . S
H526 C522 0.950 . S
C527 C525 1.390 . S
C527 C528 1.387 . S
C527 H530 0.950 . S
C528 C527 1.387 . S
C528 C531 1.387 . S
H529 C525 0.950 . S
H530 C527 0.950 . S
C531 C522 1.390 . S
C531 H524 0.950 . S
C531 C528 1.387 . S
C532 C533 1.387 . S
C532 H536 0.950 . S
C532 C541 1.390 . S
C533 C532 1.387 . S
C533 C535 1.387 1_545 S
H534 C541 0.950 . S
C535 C533 1.387 1_565 S
C535 C537 1.390 . S
C535 H539 0.950 . S
H536 C532 0.950 . S
C537 C535 1.390 . S
C537 C538 1.387 1_565 S
C537 H540 0.950 . S
C538 C537 1.387 1_545 S
C538 C541 1.387 . S
H539 C535 0.950 . S
H540 C537 0.950 . S
C541 C532 1.390 . S
C541 H534 0.950 . S
C541 C538 1.387 . S
C542 C543 1.387 . S
C542 H546 0.950 . S
C542 C551 1.390 . S
C543 C542 1.387 . S
C543 C545 1.387 1_655 S
H544 C551 0.950 . S
C545 C543 1.387 1_455 S
C545 C547 1.390 . S
C545 H549 0.950 . S
H546 C542 0.950 . S
C547 C545 1.390 . S
C547 C548 1.387 1_455 S
C547 H550 0.950 . S
C548 C547 1.387 1_655 S
C548 C551 1.387 . S
H549 C545 0.950 . S
H550 C547 0.950 . S
C551 C542 1.390 . S
C551 H544 0.950 . S
C551 C548 1.387 . S
C552 C553 1.387 . S
C552 H556 0.950 . S
C552 C561 1.390 . S
C553 C552 1.387 . S
C553 C555 1.387 . S
H554 C561 0.950 . S
C555 C553 1.387 . S
C555 C557 1.390 . S
C555 H559 0.950 . S
H556 C552 0.950 . S
C557 C555 1.390 . S
C557 C558 1.387 . S
C557 H560 0.950 . S
C558 C557 1.387 . S
C558 C561 1.387 . S
H559 C555 0.950 . S
H560 C557 0.950 . S
C561 C552 1.390 . S
C561 H554 0.950 . S
C561 C558 1.387 . S
C562 C563 1.387 . S
C562 H566 0.950 . S
C562 C571 1.390 . S
C563 C562 1.387 . S
C563 C565 1.387 1_565 S
H564 C571 0.950 . S
C565 C563 1.387 1_545 S
C565 C567 1.390 . S
C565 H569 0.950 . S
H566 C562 0.950 . S
C567 C565 1.390 . S
C567 C568 1.387 1_545 S
C567 H570 0.950 . S
C568 C567 1.387 1_565 S
C568 C571 1.387 . S
H569 C565 0.950 . S
H570 C567 0.950 . S
C571 C562 1.390 . S
C571 H564 0.950 . S
C571 C568 1.387 . S
C572 C573 1.387 . S
C572 H576 0.950 . S
C572 C581 1.390 . S
C573 C572 1.387 . S
C573 C575 1.387 . S
H574 C581 0.950 . S
C575 C573 1.387 . S
C575 C577 1.390 . S
C575 H579 0.950 . S
H576 C572 0.950 . S
C577 C575 1.390 . S
C577 C578 1.387 . S
C577 H580 0.950 . S
C578 C577 1.387 . S
C578 C581 1.387 . S
H579 C575 0.950 . S
H580 C577 0.950 . S
C581 C572 1.390 . S
C581 H574 0.950 . S
C581 C578 1.387 . S
C582 C583 1.387 . S
C582 H586 0.950 . S
C582 C591 1.390 . S
C583 C582 1.387 . S
C583 C585 1.387 . S
H584 C591 0.950 . S
C585 C583 1.387 . S
C585 C587 1.390 . S
C585 H589 0.950 . S
H586 C582 0.950 . S
C587 C585 1.390 . S
C587 C588 1.387 . S
C587 H590 0.950 . S
C588 C587 1.387 . S
C588 C591 1.387 . S
H589 C585 0.950 . S
H590 C587 0.950 . S
C591 C582 1.390 . S
C591 H584 0.950 . S
C591 C588 1.387 . S
C592 C593 1.387 . S
C592 H596 0.950 . S
C592 C601 1.390 . S
C593 C592 1.387 . S
C593 C595 1.387 . S
H594 C601 0.950 . S
C595 C593 1.387 . S
C595 C597 1.390 . S
C595 H599 0.950 . S
H596 C592 0.950 . S
C597 C595 1.390 . S
C597 C598 1.387 . S
C597 H600 0.950 . S
C598 C597 1.387 . S
C598 C601 1.387 . S
H599 C595 0.950 . S
H600 C597 0.950 . S
C601 C592 1.390 . S
C601 H594 0.950 . S
C601 C598 1.387 . S
C602 C603 1.387 . S
C602 H606 0.950 . S
C602 C611 1.390 . S
C603 C602 1.387 . S
C603 C605 1.387 . S
H604 C611 0.950 . S
C605 C603 1.387 . S
C605 C607 1.390 . S
C605 H609 0.950 . S
H606 C602 0.950 . S
C607 C605 1.390 . S
C607 C608 1.387 . S
C607 H610 0.950 . S
C608 C607 1.387 . S
C608 C611 1.387 . S
H609 C605 0.950 . S
H610 C607 0.950 . S
C611 C602 1.390 . S
C611 H604 0.950 . S
C611 C608 1.387 . S
C253 C11 1.496 . S
C258 C47 1.414 1_545 S
C263 C25 1.611 . S
C268 C61 1.500 1_655 S
C273 C81 1.544 . S
C278 C39 1.545 . S
C283 C95 1.459 . S
C288 C131 1.410 . S
C293 C109 1.592 . S
C298 C145 1.492 . S
C303 C165 1.491 . S
C308 C123 1.492 . S
C313 C215 1.417 . S
C318 C179 1.461 . S
C323 C229 1.480 . S
C328 C193 1.591 . S
C333 C249 1.489 . S
C338 C207 1.489 . S
C343 C5 1.830 . S
C348 C137 1.668 . S
C353 C19 1.868 . S
C358 C151 1.719 . S
C363 C159 1.886 . S
C368 C33 1.884 . S
C373 C53 1.680 . S
C378 C173 1.836 . S
C383 C67 1.721 . S
C388 C187 1.877 . S
C393 C75 1.888 . S
C398 C201 1.884 . S
C403 C89 1.844 1_455 S
C408 C221 1.663 . S
C413 C103 1.935 . S
C418 C235 1.769 . S
C423 C243 1.794 . S
C428 C117 1.781 . S
C433 C12 0.918 . S
C438 C68 0.929 . S
C443 C26 0.943 . S
C448 C74 0.933 . S
C453 C40 0.909 . S
C458 C54 0.917 . S
C463 C46 0.816 . S
C468 C18 0.814 . S
C473 C32 0.837 . S
C478 C60 0.839 . S
C483 C82 0.860 . S
C488 C4 0.854 . S
C493 C96 0.985 . S
C498 C152 0.996 . S
C503 C158 0.953 . S
C508 C110 0.961 . S
C513 C138 0.958 . S
C518 C124 0.958 . S
C523 C102 0.815 . S
C528 C130 0.822 . S
C533 C144 0.868 . S
C538 C116 0.861 . S
C543 C166 0.841 . S
C548 C88 0.836 . S
C553 C236 0.924 . S
C558 C180 0.911 . S
C563 C242 0.967 . S
C568 C194 0.976 . S
C573 C208 0.884 . S
C578 C222 0.894 . S
C583 C186 0.889 . S
C588 C214 0.890 . S
C593 C200 0.870 . S
C598 C228 0.868 . S
C603 C172 0.866 . S
C608 C250 0.877 . S
