# Generated by pormake.
# Topology wlj, (5)-cn, num edge types: 1
# Building blocks:
#     Node 0, Type 0, BuildingBlock: XOMCOT_clean_sbu_0, # of connection points: 5
#     Node 1, Type 0, BuildingBlock: XOMCOT_clean_sbu_0, # of connection points: 5
#     Node 2, Type 0, BuildingBlock: XOMCOT_clean_sbu_0, # of connection points: 5
#     Node 3, Type 0, BuildingBlock: XOMCOT_clean_sbu_0, # of connection points: 5
#     Node 4, Type 0, BuildingBlock: XOMCOT_clean_sbu_0, # of connection points: 5
#     Node 5, Type 0, BuildingBlock: XOMCOT_clean_sbu_0, # of connection points: 5
#     Edge 6, Type (0, 0), BuildingBlock: TEMPAE_clean_linker_10, # of connection points: 2
#     Edge 7, Type (0, 0), BuildingBlock: TEMPAE_clean_linker_10, # of connection points: 2
#     Edge 8, Type (0, 0), BuildingBlock: TEMPAE_clean_linker_10, # of connection points: 2
#     Edge 9, Type (0, 0), BuildingBlock: TEMPAE_clean_linker_10, # of connection points: 2
#     Edge 10, Type (0, 0), BuildingBlock: TEMPAE_clean_linker_10, # of connection points: 2
#     Edge 11, Type (0, 0), BuildingBlock: TEMPAE_clean_linker_10, # of connection points: 2
#     Edge 12, Type (0, 0), BuildingBlock: TEMPAE_clean_linker_10, # of connection points: 2
#     Edge 13, Type (0, 0), BuildingBlock: TEMPAE_clean_linker_10, # of connection points: 2
#     Edge 14, Type (0, 0), BuildingBlock: TEMPAE_clean_linker_10, # of connection points: 2
#     Edge 15, Type (0, 0), BuildingBlock: TEMPAE_clean_linker_10, # of connection points: 2
#     Edge 16, Type (0, 0), BuildingBlock: TEMPAE_clean_linker_10, # of connection points: 2
#     Edge 17, Type (0, 0), BuildingBlock: TEMPAE_clean_linker_10, # of connection points: 2
#     Edge 18, Type (0, 0), BuildingBlock: TEMPAE_clean_linker_10, # of connection points: 2
#     Edge 19, Type (0, 0), BuildingBlock: TEMPAE_clean_linker_10, # of connection points: 2
#     Edge 20, Type (0, 0), BuildingBlock: TEMPAE_clean_linker_10, # of connection points: 2
# Relax obj value: 0.145
# Max RMSD: 0.205
# Mean RMSD: 0.205
data_MOF--net-wlj--node1-XOMCOT_clean_sbu_0--edge1-TEMPAE_clean_linker_10
_symmetry_space_group_name_H-M    P1
_symmetry_Int_Tables_number       1
_symmetry_cell_setting            triclinic
loop_
_symmetry_equiv_pos_as_xyz
'x, y, z'
_cell_length_a     25.868924
_cell_length_b     25.877001
_cell_length_c     55.392292
_cell_angle_alpha  90.021098
_cell_angle_beta   89.925246
_cell_angle_gamma 120.33529
loop_
_atom_site_label
_atom_site_type_symbol
_atom_site_fract_x
_atom_site_fract_y
_atom_site_fract_z
_atom_type_partial_charge
Co0 Co 0.55583 0.29108 0.25956 0.0
C1 C 0.52889 0.37767 0.23336 0.0
C2 C 0.45339 0.28908 0.23731 0.0
C3 C 0.43457 0.3235 0.22582 0.0
N4 N 0.51297 0.32207 0.24131 0.0
N5 N 0.48197 0.37901 0.22339 0.0
H6 H 0.57264 0.41679 0.23518 0.0
H7 H 0.42515 0.24293 0.24277 0.0
C8 C 0.50068 0.20861 0.21837 0.0
O9 O 0.52124 0.25735 0.20521 0.0
N10 N 0.59468 0.25792 0.27858 0.0
C11 C 0.65327 0.28349 0.28407 0.0
C12 C 0.66193 0.24281 0.29692 0.0
C13 C 0.56834 0.20271 0.28845 0.0
N14 N 0.60846 0.19221 0.29969 0.0
C15 C 0.65812 0.38191 0.23402 0.0
C16 C 0.68752 0.30664 0.20997 0.0
C17 C 0.72248 0.36853 0.20611 0.0
C18 C 0.70749 0.40623 0.2186 0.0
C19 C 0.63808 0.2841 0.22551 0.0
N20 N 0.62215 0.32148 0.23649 0.0
H21 H 0.65065 0.41213 0.2448 0.0
H22 H 0.61358 0.23659 0.22913 0.0
H23 H 0.68736 0.32821 0.27883 0.0
H24 H 0.52096 0.17048 0.28699 0.0
O25 O 0.58751 0.35972 0.28039 0.0
O26 O 0.50017 0.27696 0.28593 0.0
O27 O 0.51061 0.21259 0.24117 0.0
C28 C 0.53816 0.33169 0.29268 0.0
H29 H 0.3892 0.30949 0.22033 0.0
H30 H 0.70415 0.25002 0.3039 0.0
H31 H 0.69853 0.27595 0.20126 0.0
H32 H 0.73515 0.45448 0.21725 0.0
Co33 Co 0.72777 0.26598 0.9243 0.0
C34 C 0.65706 0.14691 0.89935 0.0
C35 C 0.70912 0.21905 0.87488 0.0
C36 C 0.6786 0.16696 0.86179 0.0
N37 N 0.69597 0.20667 0.8985 0.0
N38 N 0.64587 0.12166 0.87721 0.0
H39 H 0.63732 0.12172 0.9156 0.0
H40 H 0.73811 0.26329 0.86758 0.0
C41 C 0.85791 0.35299 0.9077 0.0
O42 O 0.86573 0.39427 0.92337 0.0
N43 N 0.75926 0.32498 0.95011 0.0
C44 C 0.73674 0.35919 0.95764 0.0
C45 C 0.77396 0.39816 0.97509 0.0
C46 C 0.80805 0.34139 0.96405 0.0
N47 N 0.81943 0.38774 0.97877 0.0
C48 C 0.64137 0.28561 0.90166 0.0
C49 C 0.71472 0.40272 0.88698 0.0
C50 C 0.65302 0.37494 0.88269 0.0
C51 C 0.61638 0.31546 0.89001 0.0
C52 C 0.73799 0.37123 0.89899 0.0
N53 N 0.70134 0.31335 0.90628 0.0
H54 H 0.61217 0.23964 0.90704 0.0
H55 H 0.7849 0.39439 0.90279 0.0
H56 H 0.69722 0.35758 0.95033 0.0
H57 H 0.83707 0.32276 0.96215 0.0
O58 O 0.65603 0.22037 0.94309 0.0
O59 O 0.73492 0.20884 0.94523 0.0
O60 O 0.80793 0.30346 0.90641 0.0
C61 C 0.68045 0.19186 0.95239 0.0
H62 H 0.67934 0.16301 0.84235 0.0
H63 H 0.76996 0.43395 0.9833 0.0
H64 H 0.74447 0.44879 0.88166 0.0
H65 H 0.56859 0.29194 0.88665 0.0
Co66 Co 0.75621 0.46952 0.5905 0.0
C67 C 0.86596 0.49798 0.5605 0.0
C68 C 0.84425 0.56759 0.56146 0.0
C69 C 0.89641 0.58818 0.54881 0.0
N70 N 0.8235 0.51027 0.56819 0.0
N71 N 0.91015 0.54453 0.54814 0.0
H72 H 0.8667 0.45769 0.56463 0.0
H73 H 0.82409 0.59391 0.56641 0.0
C74 C 0.71026 0.50722 0.54959 0.0
O75 O 0.73392 0.48228 0.53632 0.0
N76 N 0.69075 0.43341 0.61334 0.0
C77 C 0.67092 0.38202 0.62572 0.0
C78 C 0.6232 0.37307 0.63996 0.0
C79 C 0.65505 0.45495 0.62009 0.0
N80 N 0.61317 0.41887 0.63629 0.0
C81 C 0.74206 0.36407 0.5673 0.0
C82 C 0.62608 0.32011 0.55125 0.0
C83 C 0.65438 0.28704 0.54677 0.0
C84 C 0.71304 0.30964 0.55506 0.0
C85 C 0.65671 0.37435 0.56385 0.0
N86 N 0.71504 0.39709 0.57083 0.0
H87 H 0.78537 0.37805 0.57488 0.0
H88 H 0.633 0.39747 0.56837 0.0
H89 H 0.68963 0.353 0.6244 0.0
H90 H 0.66021 0.49672 0.61357 0.0
O91 O 0.80217 0.44568 0.60967 0.0
O92 O 0.80492 0.5321 0.61394 0.0
O93 O 0.71426 0.50682 0.57268 0.0
C94 C 0.82598 0.49747 0.6201 0.0
H95 H 0.92386 0.63304 0.54174 0.0
H96 H 0.59743 0.33539 0.65185 0.0
H97 H 0.58011 0.30329 0.54578 0.0
H98 H 0.73625 0.28504 0.55236 0.0
Co99 Co 0.29556 0.54534 0.7575 0.0
C100 C 0.37941 0.52404 0.78692 0.0
C101 C 0.28822 0.45161 0.78869 0.0
C102 C 0.32365 0.43459 0.8006 0.0
N103 N 0.32295 0.50758 0.78015 0.0
N104 N 0.38086 0.47984 0.79935 0.0
H105 H 0.4187 0.56564 0.78163 0.0
H106 H 0.2408 0.42359 0.78529 0.0
C107 C 0.18599 0.52771 0.78334 0.0
O108 O 0.20463 0.58454 0.77933 0.0
N109 N 0.26555 0.57999 0.73365 0.0
C110 C 0.29717 0.62091 0.71645 0.0
C111 C 0.25855 0.62839 0.70179 0.0
C112 C 0.20761 0.56071 0.72801 0.0
N113 N 0.20184 0.59083 0.70916 0.0
C114 C 0.36216 0.67045 0.76938 0.0
C115 C 0.3421 0.65806 0.81862 0.0
C116 C 0.37763 0.71548 0.80888 0.0
C117 C 0.38752 0.72122 0.78396 0.0
C118 C 0.31636 0.60822 0.80322 0.0
N119 N 0.32539 0.61489 0.77877 0.0
H120 H 0.37437 0.67607 0.75066 0.0
H121 H 0.28976 0.56412 0.81102 0.0
H122 H 0.34496 0.64209 0.71372 0.0
H123 H 0.17029 0.52367 0.73692 0.0
O124 O 0.36744 0.57184 0.73895 0.0
O125 O 0.28445 0.4845 0.73386 0.0
O126 O 0.21521 0.50406 0.77472 0.0
C127 C 0.34035 0.52069 0.72788 0.0
H128 H 0.3088 0.3914 0.80887 0.0
H129 H 0.27171 0.65759 0.68624 0.0
H130 H 0.33441 0.65178 0.8379 0.0
H131 H 0.41665 0.76462 0.77587 0.0
Co132 Co 0.47856 0.75358 0.42331 0.0
C133 C 0.49892 0.86067 0.45126 0.0
C134 C 0.56893 0.83982 0.45581 0.0
C135 C 0.58618 0.8934 0.46695 0.0
N136 N 0.51437 0.81922 0.44598 0.0
N137 N 0.54244 0.90658 0.46399 0.0
H138 H 0.45886 0.85923 0.44465 0.0
H139 H 0.59608 0.81922 0.45373 0.0
C140 C 0.48758 0.65941 0.45109 0.0
O141 O 0.43113 0.62223 0.44573 0.0
N142 N 0.44634 0.68857 0.39957 0.0
C143 C 0.40809 0.67914 0.38124 0.0
C144 C 0.4036 0.6338 0.36673 0.0
C145 C 0.46685 0.65063 0.39495 0.0
N146 N 0.44034 0.61564 0.37551 0.0
C147 C 0.35133 0.69502 0.43241 0.0
C148 C 0.35811 0.68518 0.48187 0.0
C149 C 0.30168 0.66135 0.47107 0.0
C150 C 0.29874 0.66706 0.44604 0.0
C151 C 0.40963 0.71223 0.4675 0.0
N152 N 0.40582 0.71498 0.44293 0.0
H153 H 0.34792 0.70185 0.41351 0.0
H154 H 0.45278 0.73058 0.47618 0.0
H155 H 0.38702 0.70529 0.37767 0.0
H156 H 0.50314 0.65078 0.40462 0.0
O157 O 0.45783 0.80041 0.40272 0.0
O158 O 0.54432 0.80172 0.40143 0.0
O159 O 0.51431 0.71269 0.44255 0.0
C160 C 0.51094 0.82247 0.39341 0.0
H161 H 0.62859 0.9217 0.47585 0.0
H162 H 0.37635 0.61646 0.35067 0.0
H163 H 0.36239 0.68267 0.50122 0.0
H164 H 0.25616 0.65162 0.43712 0.0
Co165 Co 0.27466 0.72325 0.09356 0.0
C166 C 0.16409 0.63967 0.12153 0.0
C167 C 0.19594 0.73177 0.12977 0.0
C168 C 0.14405 0.69734 0.14243 0.0
N169 N 0.20983 0.69592 0.11707 0.0
N170 N 0.12399 0.63949 0.13723 0.0
H171 H 0.15864 0.59982 0.11285 0.0
H172 H 0.21886 0.77981 0.12865 0.0
C173 C 0.36356 0.85457 0.10837 0.0
O174 O 0.40634 0.85844 0.09442 0.0
N175 N 0.33768 0.75088 0.06942 0.0
C176 C 0.37512 0.73 0.06502 0.0
C177 C 0.41645 0.76608 0.04786 0.0
C178 C 0.35489 0.79738 0.05406 0.0
N179 N 0.40433 0.80909 0.04135 0.0
C180 C 0.29068 0.63795 0.11999 0.0
C181 C 0.40074 0.71435 0.14041 0.0
C182 C 0.37221 0.65332 0.14591 0.0
C183 C 0.31658 0.61496 0.13544 0.0
C184 C 0.37263 0.73575 0.12513 0.0
N185 N 0.31773 0.69787 0.11522 0.0
H186 H 0.24879 0.60679 0.11167 0.0
H187 H 0.39643 0.7824 0.1212 0.0
H188 H 0.37421 0.69285 0.07434 0.0
H189 H 0.33468 0.82521 0.05372 0.0
O190 O 0.23061 0.64951 0.07606 0.0
O191 O 0.22135 0.72879 0.0699 0.0
O192 O 0.31253 0.80603 0.10939 0.0
C193 C 0.20305 0.67271 0.06503 0.0
H194 H 0.12081 0.71378 0.15345 0.0
H195 H 0.45487 0.76337 0.04186 0.0
H196 H 0.4443 0.74532 0.14791 0.0
H197 H 0.29376 0.56714 0.13869 0.0
C198 C 0.47889 0.10341 0.21295 0.0
C199 C 0.46997 0.1503 0.20592 0.0
C200 C 0.4578 0.05186 0.19853 0.0
C201 C 0.42615 0.04696 0.17695 0.0
C202 C 0.41386 0.09269 0.17071 0.0
C203 C 0.43651 0.14406 0.18513 0.0
C204 C 0.4724 1.00437 0.20563 0.0
C205 C 0.37912 0.08869 0.1482 0.0
C206 C 0.43345 0.95763 0.12399 0.0
C207 C 0.37829 0.90398 0.12571 0.0
C208 C 0.44999 1.00382 0.14087 0.0
C209 C 0.41009 0.99677 0.15979 0.0
C210 C 0.35424 0.94304 0.16161 0.0
C211 C 0.3393 0.89713 0.1447 0.0
C212 C 0.51022 0.0603 0.13838 0.0
C213 C 0.31013 0.9342 0.18132 0.0
H214 H 0.5052 0.1085 0.22894 0.0
H215 H 0.42918 0.18019 0.17981 0.0
H216 H 0.43156 0.95939 0.20514 0.0
H217 H 0.50464 1.00409 0.19247 0.0
H218 H 0.49238 0.01211 0.22395 0.0
H219 H 0.36807 0.12493 0.14728 0.0
H220 H 0.40584 0.09188 0.132 0.0
H221 H 0.33686 0.04486 0.14741 0.0
H222 H 0.46414 0.96357 0.10949 0.0
H223 H 0.29736 0.85568 0.14664 0.0
H224 H 0.53598 0.06923 0.1554 0.0
H225 H 0.50396 0.09908 0.13511 0.0
H226 H 0.53721 0.05761 0.12333 0.0
H227 H 0.33087 0.9385 0.19927 0.0
H228 H 0.26852 0.88976 0.18023 0.0
H229 H 0.29794 0.96954 0.18013 0.0
C230 C 0.09181 0.5116 0.80286 0.0
C231 C 0.13314 0.49247 0.79909 0.0
C232 C 0.04471 0.48246 0.8195 0.0
C233 C 0.03929 0.43354 0.83306 0.0
C234 C 0.07977 0.4128 0.82878 0.0
C235 C 0.12595 0.44224 0.81171 0.0
C236 C 1.00196 0.50543 0.82317 0.0
C237 C 0.07604 0.36132 0.84304 0.0
C238 C 0.96412 0.41441 0.89399 0.0
C239 C 0.90549 0.36795 0.88943 0.0
C240 C 1.00866 0.43418 0.87613 0.0
C241 C 0.99417 0.40753 0.85293 0.0
C242 C 0.93563 0.35909 0.84847 0.0
C243 C 0.8921 0.33951 0.86685 0.0
C244 C 0.07074 0.48516 0.88186 0.0
C245 C 0.9182 0.32979 0.82395 0.0
H246 H 0.09678 0.55007 0.79302 0.0
H247 H 0.15795 0.42744 0.80901 0.0
H248 H 0.95496 0.46809 0.82183 0.0
H249 H 1.00804 0.52484 0.84152 0.0
H250 H 1.009 0.54033 0.80976 0.0
H251 H 0.10748 0.34732 0.83616 0.0
H252 H 0.08686 0.37466 0.86223 0.0
H253 H 0.02987 0.32224 0.8425 0.0
H254 H 0.97506 0.43618 0.91148 0.0
H255 H 0.84697 0.3036 0.86317 0.0
H256 H 0.08011 0.52514 0.87109 0.0
H257 H 0.10482 0.47305 0.87683 0.0
H258 H 0.07613 0.49747 0.90129 0.0
H259 H 0.91941 0.36231 0.81058 0.0
H260 H 0.87257 0.28962 0.82394 0.0
H261 H 0.95065 0.31647 0.81783 0.0
C262 C 0.57671 0.68106 0.47633 0.0
C263 C 0.51963 0.63981 0.46749 0.0
C264 C 0.6074 0.66284 0.49187 0.0
C265 C 0.58057 0.60183 0.49858 0.0
C266 C 0.52246 0.56024 0.49012 0.0
C267 C 0.49267 0.57975 0.47474 0.0
C268 C 0.66925 0.70855 0.50054 0.0
C269 C 0.49253 0.49469 0.49666 0.0
C270 C 0.68179 0.5392 0.51198 0.0
C271 C 0.67871 0.53415 0.53724 0.0
C272 C 0.65075 0.5619 0.49935 0.0
C273 C 0.61557 0.58026 0.51224 0.0
C274 C 0.61285 0.57631 0.53779 0.0
C275 C 0.64459 0.55329 0.55005 0.0
C276 C 0.6549 0.56526 0.47211 0.0
C277 C 0.57578 0.59555 0.55211 0.0
H278 H 0.59767 0.72768 0.47104 0.0
H279 H 0.4485 0.54755 0.46808 0.0
H280 H 0.6721 0.70603 0.52044 0.0
H281 H 0.70276 0.69875 0.49258 0.0
H282 H 0.68155 0.75495 0.49551 0.0
H283 H 0.44552 0.46902 0.49017 0.0
H284 H 0.51787 0.47487 0.48858 0.0
H285 H 0.49278 0.48927 0.51651 0.0
H286 H 0.7083 0.52493 0.50188 0.0
H287 H 0.64194 0.54945 0.56955 0.0
H288 H 0.67149 0.61188 0.46601 0.0
H289 H 0.6098 0.5369 0.46414 0.0
H290 H 0.6852 0.55022 0.46486 0.0
H291 H 0.59015 0.64288 0.54797 0.0
H292 H 0.57948 0.591 0.57189 0.0
H293 H 0.528 0.56812 0.54686 0.0
C294 C 0.36746 0.58818 0.17999 0.0
C295 C 0.4007 0.62836 0.16153 0.0
C296 C 0.38972 0.55631 0.19237 0.0
C297 C 0.44625 0.56428 0.18586 0.0
C298 C 0.48184 0.60799 0.16843 0.0
C299 C 0.45866 0.6398 0.15649 0.0
C300 C 0.3507 0.51084 0.21112 0.0
C301 C 0.5423 0.61781 0.16102 0.0
C302 C 0.50453 0.4836 0.22491 0.0
C303 C 0.48054 0.42879 0.21277 0.0
C304 C 0.49574 0.52951 0.21601 0.0
C305 C 0.46301 0.5202 0.19435 0.0
C306 C 0.44155 0.46585 0.18148 0.0
C307 C 0.45017 0.4207 0.19098 0.0
C308 C 0.51861 0.58643 0.23041 0.0
C309 C 0.40707 0.45421 0.15817 0.0
H310 H 0.32295 0.58002 0.18411 0.0
H311 H 0.48436 0.67085 0.14218 0.0
H312 H 0.33296 0.46505 0.20376 0.0
H313 H 0.37716 0.51474 0.22747 0.0
H314 H 0.31219 0.51606 0.21648 0.0
H315 H 0.56813 0.65939 0.15023 0.0
H316 H 0.56897 0.62028 0.1771 0.0
H317 H 0.53609 0.57933 0.14994 0.0
H318 H 0.52745 0.48928 0.24193 0.0
H319 H 0.4321 0.37824 0.18164 0.0
H320 H 0.48024 0.58733 0.23895 0.0
H321 H 0.54153 0.62619 0.21847 0.0
H322 H 0.55005 0.59014 0.24486 0.0
H323 H 0.36382 0.45208 0.16177 0.0
H324 H 0.39757 0.41157 0.14951 0.0
H325 H 0.43251 0.49136 0.14524 0.0
C326 C 0.4459 0.77367 0.84298 0.0
C327 C 0.40754 0.76962 0.8243 0.0
C328 C 0.48243 0.82838 0.85486 0.0
C329 C 0.47981 0.87979 0.84803 0.0
C330 C 0.43805 0.87466 0.8303 0.0
C331 C 0.40282 0.81977 0.81852 0.0
C332 C 0.52651 0.83201 0.87357 0.0
C333 C 0.43298 0.928 0.82277 0.0
C334 C 0.55432 0.02392 0.88479 0.0
C335 C 0.60613 0.05962 0.8711 0.0
C336 C 0.51352 0.96452 0.87804 0.0
C337 C 0.525 0.94022 0.85717 0.0
C338 C 0.57838 0.97537 0.84386 0.0
C339 C 0.61806 0.03459 0.85093 0.0
C340 C 0.45711 0.92868 0.89269 0.0
C341 C 0.59292 0.95095 0.82173 0.0
H342 H 0.44986 0.73496 0.84734 0.0
H343 H 0.37278 0.81646 0.80419 0.0
H344 H 0.57257 0.85761 0.8661 0.0
H345 H 0.525 0.8562 0.88984 0.0
H346 H 0.51775 0.78699 0.87906 0.0
H347 H 0.3939 0.91512 0.81079 0.0
H348 H 0.42883 0.95118 0.83887 0.0
H349 H 0.4742 0.96052 0.81298 0.0
H350 H 0.5446 0.04305 0.90032 0.0
H351 H 0.65857 0.06153 0.84058 0.0
H352 H 0.45021 0.88372 0.89691 0.0
H353 H 0.41795 0.92193 0.88199 0.0
H354 H 0.45816 0.95137 0.90987 0.0
H355 H 0.59075 0.90804 0.82607 0.0
H356 H 0.63809 0.98257 0.81437 0.0
H357 H 0.55928 0.94158 0.80744 0.0
C358 C 0.98872 0.58628 0.51716 0.0
C359 C 0.96375 0.55022 0.53763 0.0
C360 C 0.04395 0.59818 0.50786 0.0
C361 C 0.07508 0.57288 0.51915 0.0
C362 C 0.04923 0.53454 0.53934 0.0
C363 C 0.99369 0.52365 0.54839 0.0
C364 C 0.0697 0.63925 0.48628 0.0
C365 C 0.08093 0.50645 0.55173 0.0
C366 C 0.19585 0.57988 0.47827 0.0
C367 C 0.24602 0.63359 0.48574 0.0
C368 C 0.14069 0.55681 0.49025 0.0
C369 C 0.13543 0.58875 0.50994 0.0
C370 C 0.18682 0.64119 0.51841 0.0
C371 C 0.24162 0.66284 0.50627 0.0
C372 C 0.08726 0.50027 0.48089 0.0
C373 C 0.18305 0.67688 0.53921 0.0
H374 H 0.96515 0.60599 0.50857 0.0
H375 H 0.97479 0.49618 0.56435 0.0
H376 H 0.11313 0.67916 0.4912 0.0
H377 H 0.0785 0.61601 0.4714 0.0
H378 H 0.03936 0.65465 0.47947 0.0
H379 H 0.05291 0.47429 0.56602 0.0
H380 H 0.09353 0.48276 0.53837 0.0
H381 H 0.12296 0.54189 0.56008 0.0
H382 H 0.1994 0.55666 0.46262 0.0
H383 H 0.28025 0.7045 0.51204 0.0
H384 H 0.05643 0.51167 0.47152 0.0
H385 H 0.06202 0.46976 0.49603 0.0
H386 H 0.1005 0.47612 0.46799 0.0
H387 H 0.15763 0.69878 0.53348 0.0
H388 H 0.22803 0.7121 0.54548 0.0
H389 H 0.15864 0.6471 0.55463 0.0
C390 C 0.64837 0.43699 0.84882 0.0
C391 C 0.62589 0.40694 0.8708 0.0
C392 C 0.61743 0.45973 0.83585 0.0
C393 C 0.56309 0.45236 0.84521 0.0
C394 C 0.54265 0.42571 0.86819 0.0
C395 C 0.5742 0.40323 0.88064 0.0
C396 C 0.64081 0.48804 0.81148 0.0
C397 C 0.48525 0.41737 0.87897 0.0
C398 C 0.47871 0.52561 0.82005 0.0
C399 C 0.43219 0.47734 0.80767 0.0
C400 C 0.52419 0.51965 0.83133 0.0
C401 C 0.52298 0.46433 0.82991 0.0
C402 C 0.47832 0.41708 0.81594 0.0
C403 C 0.43345 0.42415 0.80509 0.0
C404 C 0.57123 0.57115 0.84593 0.0
C405 C 0.47566 0.3576 0.81362 0.0
H406 H 0.68837 0.43991 0.84117 0.0
H407 H 0.55735 0.38096 0.89785 0.0
H408 H 0.61278 0.45639 0.79711 0.0
H409 H 0.63802 0.5292 0.80942 0.0
H410 H 0.68795 0.49951 0.80861 0.0
H411 H 0.47899 0.40176 0.898 0.0
H412 H 0.48471 0.45993 0.87831 0.0
H413 H 0.44655 0.38381 0.86825 0.0
H414 H 0.47765 0.56674 0.82197 0.0
H415 H 0.39809 0.3873 0.79507 0.0
H416 H 0.61634 0.57783 0.84216 0.0
H417 H 0.56209 0.56081 0.86544 0.0
H418 H 0.57173 0.61356 0.84217 0.0
H419 H 0.51992 0.3644 0.80813 0.0
H420 H 0.44166 0.3277 0.80025 0.0
H421 H 0.46427 0.3346 0.83138 0.0
C422 C 0.59321 0.22148 0.51234 0.0
C423 C 0.62302 0.22829 0.53428 0.0
C424 C 0.56991 0.16795 0.49905 0.0
C425 C 0.5765 0.12034 0.50804 0.0
C426 C 0.60337 0.1259 0.53088 0.0
C427 C 0.62631 0.17976 0.54367 0.0
C428 C 0.54138 0.16367 0.47484 0.0
C429 C 0.61093 0.07614 0.54126 0.0
C430 C 0.4987 0.96121 0.48369 0.0
C431 C 0.54595 0.96159 0.47119 0.0
C432 C 0.50636 0.01379 0.49459 0.0
C433 C 0.56237 0.0676 0.49266 0.0
C434 C 0.60837 0.06884 0.47834 0.0
C435 C 0.59962 0.01576 0.46789 0.0
C436 C 0.4561 0.01074 0.50953 0.0
C437 C 0.66848 0.12527 0.47546 0.0
H438 H 0.59057 0.25895 0.50503 0.0
H439 H 0.64825 0.18448 0.56087 0.0
H440 H 0.57225 0.16659 0.46028 0.0
H441 H 0.49937 0.11995 0.47289 0.0
H442 H 0.53124 0.20019 0.47215 0.0
H443 H 0.62785 0.08548 0.56011 0.0
H444 H 0.56768 0.03323 0.54097 0.0
H445 H 0.64309 0.07015 0.53003 0.0
H446 H 0.45723 0.91916 0.48616 0.0
H447 H 0.63566 0.01597 0.45781 0.0
H448 H 0.45074 0.04992 0.50586 0.0
H449 H 0.46693 0.01191 0.52897 0.0
H450 H 0.41285 0.96909 0.50599 0.0
H451 H 0.66262 0.16344 0.47036 0.0
H452 H 0.69674 0.12034 0.46158 0.0
H453 H 0.69277 0.13663 0.49292 0.0
C454 C 0.03171 0.54244 0.1297 0.0
C455 C 0.0681 0.58962 0.14534 0.0
C456 C 0.97388 0.49768 0.1368 0.0
C457 C 0.95241 0.50038 0.16007 0.0
C458 C 0.99029 0.54649 0.17623 0.0
C459 C 0.0475 0.59041 0.16864 0.0
C460 C 0.93498 0.44939 0.11902 0.0
C461 C 0.96953 0.55104 0.20124 0.0
C462 C 0.79005 0.44343 0.17549 0.0
C463 C 0.77695 0.39488 0.19064 0.0
C464 C 0.8456 0.47541 0.16379 0.0
C465 C 0.88921 0.45843 0.16731 0.0
C466 C 0.87452 0.40658 0.18101 0.0
C467 C 0.81852 0.3754 0.19257 0.0
C468 C 0.85912 0.53004 0.14914 0.0
C469 C 0.91947 0.38656 0.18491 0.0
H470 H 0.04736 0.54204 0.11159 0.0
H471 H 0.07601 0.62643 0.18082 0.0
H472 H 0.91112 0.40497 0.12797 0.0
H473 H 0.90059 0.45871 0.11172 0.0
H474 H 0.96142 0.4472 0.10363 0.0
H475 H 1.00561 0.58778 0.21199 0.0
H476 H 0.93147 0.55925 0.1999 0.0
H477 H 0.95335 0.50834 0.21116 0.0
H478 H 0.75756 0.45788 0.17352 0.0
H479 H 0.80877 0.33795 0.20425 0.0
H480 H 0.87956 0.52975 0.13157 0.0
H481 H 0.89196 0.57095 0.15899 0.0
H482 H 0.81836 0.53294 0.1457 0.0
H483 H 0.94199 0.3877 0.16769 0.0
H484 H 0.89831 0.34062 0.19254 0.0
H485 H 0.95456 0.4177 0.19762 0.0
C486 C 0.57285 0.93189 0.38712 0.0
C487 C 0.53444 0.87507 0.37751 0.0
C488 C 0.58732 0.98392 0.37395 0.0
C489 C 0.56379 0.97879 0.3504 0.0
C490 C 0.52693 0.92114 0.34028 0.0
C491 C 0.51171 0.86987 0.35418 0.0
C492 C 0.6253 0.04425 0.38574 0.0
C493 C 0.50201 0.9136 0.31507 0.0
C494 C 0.54513 0.10621 0.32611 0.0
C495 C 0.59686 0.1383 0.31203 0.0
C496 C 0.53408 0.05455 0.3388 0.0
C497 C 0.57505 0.03355 0.33691 0.0
C498 C 0.62686 0.06525 0.32234 0.0
C499 C 0.63748 0.11762 0.31032 0.0
C500 C 0.479 0.02297 0.35455 0.0
C501 C 0.67089 0.04368 0.31936 0.0
H502 H 0.58907 0.93559 0.40545 0.0
H503 H 0.48117 0.82572 0.34701 0.0
H504 H 0.66471 0.07311 0.37428 0.0
H505 H 0.59893 0.06708 0.38759 0.0
H506 H 0.64127 0.04057 0.40392 0.0
H507 H 0.47911 0.8662 0.30902 0.0
H508 H 0.46939 0.92944 0.31445 0.0
H509 H 0.53843 0.94123 0.30213 0.0
H510 H 0.51403 0.12248 0.32764 0.0
H511 H 0.67716 0.14202 0.29923 0.0
H512 H 0.49223 0.0209 0.37342 0.0
H513 H 0.45008 0.97621 0.34829 0.0
H514 H 0.45227 0.04568 0.35446 0.0
H515 H 0.69042 0.04321 0.33712 0.0
H516 H 0.70792 0.07227 0.30677 0.0
H517 H 0.64747 0.99705 0.31244 0.0
C518 C 0.87311 0.45464 0.01307 0.0
C519 C 0.87432 0.42685 0.9915 0.0
C520 C 0.92642 0.49631 0.02474 0.0
C521 C 0.98247 0.5118 0.01427 0.0
C522 C 0.9839 0.48405 0.99241 0.0
C523 C 0.92992 0.44146 0.98148 0.0
C524 C 0.92275 0.52331 0.0484 0.0
C525 C 0.04252 0.49956 0.98049 0.0
C526 C 0.122 0.65586 0.03517 0.0
C527 C 0.14801 0.63321 0.05098 0.0
C528 C 0.0684 0.61693 0.02283 0.0
C529 C 0.03955 0.55421 0.0269 0.0
C530 C 0.06539 0.5315 0.04312 0.0
C531 C 0.11937 0.57102 0.05467 0.0
C532 C 0.04261 0.6428 1.00543 0.0
C533 C 0.03567 0.46531 0.04855 0.0
H534 H 0.83024 0.44336 0.02087 0.0
H535 H 0.93126 0.4209 0.96465 0.0
H536 H 0.94563 0.51249 0.06278 0.0
H537 H 0.94621 0.5728 0.04686 0.0
H538 H 0.87577 0.50679 0.05411 0.0
H539 H 0.03596 0.47672 0.96282 0.0
H540 H 0.06994 0.54864 0.97762 0.0
H541 H 0.06846 0.48657 0.99243 0.0
H542 H 0.14366 0.70379 0.03235 0.0
H543 H 0.13845 0.55296 0.06717 0.0
H544 H 0.99725 0.63171 0.01148 0.0
H545 H 0.03772 0.62254 0.9873 0.0
H546 H 0.07102 0.69222 1.0038 0.0
H547 H 0.98937 0.44841 0.0552 0.0
H548 H 0.06047 0.4551 0.0623 0.0
H549 H 0.03239 0.44029 0.03181 0.0
C550 C 0.43672 0.54222 0.70894 0.0
C551 C 0.37465 0.50361 0.71137 0.0
C552 C 0.47219 0.52585 0.69549 0.0
C553 C 0.44512 0.46963 0.68375 0.0
C554 C 0.38216 0.43106 0.68542 0.0
C555 C 0.34766 0.44831 0.69937 0.0
C556 C 0.53911 0.56819 0.6945 0.0
C557 C 0.3515 0.37114 0.67287 0.0
C558 C 0.54258 0.45695 0.63514 0.0
C559 C 0.56805 0.42804 0.64761 0.0
C560 C 0.50029 0.46818 0.64626 0.0
C561 C 0.48363 0.45096 0.67062 0.0
C562 C 0.5083 0.42065 0.68313 0.0
C563 C 0.54979 0.40921 0.67143 0.0
C564 C 0.47458 0.49985 0.63213 0.0
C565 C 0.49277 0.40248 0.70923 0.0
H566 H 0.45825 0.58501 0.71817 0.0
H567 H 0.29982 0.4182 0.70116 0.0
H568 H 0.56259 0.54648 0.7026 0.0
H569 H 0.55422 0.57891 0.67547 0.0
H570 H 0.55308 0.61075 0.70427 0.0
H571 H 0.30195 0.34827 0.67445 0.0
H572 H 0.3638 0.37682 0.65345 0.0
H573 H 0.3668 0.34178 0.68078 0.0
H574 H 0.55576 0.47075 0.61661 0.0
H575 H 0.56963 0.38734 0.68124 0.0
H576 H 0.49014 0.54473 0.64004 0.0
H577 H 0.42496 0.47447 0.63327 0.0
H578 H 0.48799 0.50556 0.61282 0.0
H579 H 0.50904 0.44305 0.72063 0.0
H580 H 0.51291 0.37614 0.71596 0.0
H581 H 0.44349 0.37544 0.71156 0.0
C582 C 0.14884 0.6244 0.68146 0.0
C583 C 0.14698 0.58314 0.69851 0.0
C584 C 0.09659 0.61608 0.67008 0.0
C585 C 0.0405 0.56571 0.67603 0.0
C586 C 0.03766 0.5254 0.69398 0.0
C587 C 0.09068 0.53432 0.70485 0.0
C588 C 0.10182 0.65991 0.65088 0.0
C589 C 0.97871 0.47126 0.70101 0.0
C590 C 0.8954 0.55645 0.65437 0.0
C591 C 0.88107 0.51802 0.63454 0.0
C592 C 0.94726 0.57261 0.6682 0.0
C593 C 0.98611 0.55112 0.66152 0.0
C594 C 0.97255 0.51413 0.64094 0.0
C595 C 0.92006 0.49757 0.62796 0.0
C596 C 0.95987 0.61155 0.6902 0.0
C597 C 1.01326 0.4915 0.63263 0.0
H598 H 0.19121 0.6632 0.67666 0.0
H599 H 0.08752 0.50187 0.71792 0.0
H600 H 0.09055 0.63742 0.63302 0.0
H601 H 0.06953 0.67531 0.65438 0.0
H602 H 0.14764 0.69966 0.64987 0.0
H603 H 0.98291 0.44829 0.71719 0.0
H604 H 0.94474 0.48438 0.70474 0.0
H605 H 0.96177 0.43889 0.68583 0.0
H606 H 0.86538 0.57238 0.65944 0.0
H607 H 0.90979 0.46876 0.61232 0.0
H608 H 1.00507 0.65192 0.68884 0.0
H609 H 0.95965 0.58667 0.70655 0.0
H610 H 0.92635 0.62593 0.69262 0.0
H611 H 0.05939 0.52961 0.62986 0.0
H612 H 0.99779 0.46571 0.61552 0.0
H613 H 0.01555 0.46224 0.64671 0.0
C614 C 0.46385 0.34321 0.31803 0.0
C615 C 0.52302 0.36516 0.31034 0.0
C616 C 0.44778 0.38009 0.33083 0.0
C617 C 0.49187 0.44026 0.33594 0.0
C618 C 0.55218 0.46139 0.32938 0.0
C619 C 0.56698 0.4236 0.31678 0.0
C620 C 0.38311 0.35565 0.33777 0.0
C621 C 0.60069 0.52513 0.33442 0.0
C622 C 0.44747 0.5595 0.34074 0.0
C623 C 0.45125 0.57028 0.36568 0.0
C624 C 0.45938 0.51648 0.33091 0.0
C625 C 0.47478 0.48276 0.34642 0.0
C626 C 0.4774 0.49252 0.37166 0.0
C627 C 0.46596 0.53637 0.38096 0.0
C628 C 0.45702 0.50826 0.30384 0.0
C629 C 0.4931 0.45723 0.38883 0.0
H630 H 0.42956 0.29825 0.31302 0.0
H631 H 0.61289 0.44096 0.31099 0.0
H632 H 0.37965 0.36598 0.35695 0.0
H633 H 0.36385 0.37744 0.32664 0.0
H634 H 0.35573 0.30645 0.33508 0.0
H635 H 0.646 0.53328 0.32976 0.0
H636 H 0.59217 0.55633 0.32372 0.0
H637 H 0.60031 0.53613 0.35374 0.0
H638 H 0.43674 0.58591 0.32881 0.0
H639 H 0.46808 0.54388 0.40027 0.0
H640 H 0.42591 0.46069 0.29915 0.0
H641 H 0.50199 0.52005 0.29697 0.0
H642 H 0.44228 0.53642 0.29435 0.0
H643 H 0.46279 0.40853 0.38591 0.0
H644 H 0.48996 0.46779 0.40803 0.0
H645 H 0.5394 0.46706 0.38524 0.0
C646 C 0.6677 0.11262 0.98246 0.0
C647 C 0.64295 0.13624 0.96649 0.0
C648 C 0.63068 0.05894 0.99516 0.0
C649 C 0.56786 0.02723 0.99108 0.0
C650 C 0.54316 0.05038 0.97449 0.0
C651 C 0.5807 0.10487 0.96281 0.0
C652 C 0.65859 0.03649 0.01312 0.0
C653 C 0.47694 0.01735 0.96887 0.0
C654 C 0.47365 0.86139 1.00742 0.0
C655 C 0.44401 0.86331 0.02832 0.0
C656 C 0.51431 0.91428 0.99515 0.0
C657 C 0.52723 0.97064 1.00447 0.0
C658 C 0.49819 0.97272 0.02585 0.0
C659 C 0.45631 0.91913 0.03724 0.0
C660 C 0.5425 0.90979 0.97196 0.0
C661 C 0.5113 0.03164 0.03673 0.0
H662 H 0.71572 0.13653 0.9853 0.0
H663 H 0.56121 0.12215 0.95014 0.0
H664 H 0.63838 0.03244 0.03121 0.0
H665 H 0.64922 0.9912 1.00786 0.0
H666 H 0.70785 0.0666 0.01451 0.0
H667 H 0.46536 0.03971 0.95451 0.0
H668 H 0.46233 0.97098 0.96296 0.0
H669 H 0.45107 0.01411 0.98535 0.0
H670 H 0.46417 0.81829 1.00051 0.0
H671 H 0.43422 0.921 0.05355 0.0
H672 H 0.59201 0.93588 0.97341 0.0
H673 H 0.52975 0.9294 0.9569 0.0
H674 H 0.52854 0.86276 0.9673 0.0
H675 H 0.5603 0.06135 0.03916 0.0
H676 H 0.48891 0.02579 0.05448 0.0
H677 H 0.49591 0.05476 0.02433 0.0
loop_
_geom_bond_atom_site_label_1
_geom_bond_atom_site_label_2
_geom_bond_distance
_geom_bond_site_symmetry_2
_ccdc_geom_bond_type
Co0 N4 2.148 . S
Co0 N10 2.128 . S
Co0 N20 2.194 . S
Co0 O25 2.351 . S
Co0 O26 2.155 . S
Co0 O27 2.096 . S
C1 N4 1.301 . S
C1 N5 1.328 . S
C1 H6 0.930 . S
C2 C3 1.333 . S
C2 N4 1.317 . S
C2 H7 0.930 . S
C3 C2 1.333 . S
C3 N5 1.350 . S
C3 H29 0.931 . S
N4 Co0 2.148 . S
N4 C1 1.301 . S
N4 C2 1.317 . S
N5 C1 1.328 . S
N5 C3 1.350 . S
H6 C1 0.930 . S
H7 C2 0.930 . S
C8 O9 1.224 . S
C8 O27 1.247 . S
O9 C8 1.224 . S
N10 Co0 2.128 . S
N10 C11 1.355 . S
N10 C13 1.311 . S
C11 N10 1.355 . S
C11 C12 1.363 . S
C11 H23 0.929 . S
C12 C11 1.363 . S
C12 N14 1.375 . S
C12 H30 0.931 . S
C13 N10 1.311 . S
C13 N14 1.347 . S
C13 H24 0.929 . S
N14 C12 1.375 . S
N14 C13 1.347 . S
C15 C18 1.365 . S
C15 N20 1.328 . S
C15 H21 0.929 . S
C16 C17 1.362 . S
C16 C19 1.378 . S
C16 H31 0.929 . S
C17 C16 1.362 . S
C17 C18 1.366 . S
C18 C15 1.365 . S
C18 C17 1.366 . S
C18 H32 0.930 . S
C19 C16 1.378 . S
C19 N20 1.315 . S
C19 H22 0.930 . S
N20 Co0 2.194 . S
N20 C15 1.328 . S
N20 C19 1.315 . S
H21 C15 0.929 . S
H22 C19 0.930 . S
H23 C11 0.929 . S
H24 C13 0.929 . S
O25 Co0 2.351 . S
O25 C28 1.244 . S
O26 Co0 2.155 . S
O26 C28 1.240 . S
O27 Co0 2.096 . S
O27 C8 1.247 . S
C28 O25 1.244 . S
C28 O26 1.240 . S
H29 C3 0.931 . S
H30 C12 0.931 . S
H31 C16 0.929 . S
H32 C18 0.930 . S
Co33 N37 2.148 . S
Co33 N43 2.128 . S
Co33 N53 2.194 . S
Co33 O58 2.351 . S
Co33 O59 2.155 . S
Co33 O60 2.096 . S
C34 N37 1.301 . S
C34 N38 1.328 . S
C34 H39 0.930 . S
C35 C36 1.333 . S
C35 N37 1.317 . S
C35 H40 0.930 . S
C36 C35 1.333 . S
C36 N38 1.350 . S
C36 H62 0.931 . S
N37 Co33 2.148 . S
N37 C34 1.301 . S
N37 C35 1.317 . S
N38 C34 1.328 . S
N38 C36 1.350 . S
H39 C34 0.930 . S
H40 C35 0.930 . S
C41 O42 1.224 . S
C41 O60 1.247 . S
O42 C41 1.224 . S
N43 Co33 2.128 . S
N43 C44 1.355 . S
N43 C46 1.311 . S
C44 N43 1.355 . S
C44 C45 1.363 . S
C44 H56 0.929 . S
C45 C44 1.363 . S
C45 N47 1.375 . S
C45 H63 0.931 . S
C46 N43 1.311 . S
C46 N47 1.347 . S
C46 H57 0.929 . S
N47 C45 1.375 . S
N47 C46 1.347 . S
C48 C51 1.365 . S
C48 N53 1.328 . S
C48 H54 0.929 . S
C49 C50 1.362 . S
C49 C52 1.378 . S
C49 H64 0.929 . S
C50 C49 1.362 . S
C50 C51 1.366 . S
C51 C48 1.365 . S
C51 C50 1.366 . S
C51 H65 0.930 . S
C52 C49 1.378 . S
C52 N53 1.315 . S
C52 H55 0.930 . S
N53 Co33 2.194 . S
N53 C48 1.328 . S
N53 C52 1.315 . S
H54 C48 0.929 . S
H55 C52 0.930 . S
H56 C44 0.929 . S
H57 C46 0.929 . S
O58 Co33 2.351 . S
O58 C61 1.244 . S
O59 Co33 2.155 . S
O59 C61 1.240 . S
O60 Co33 2.096 . S
O60 C41 1.247 . S
C61 O58 1.244 . S
C61 O59 1.240 . S
H62 C36 0.931 . S
H63 C45 0.931 . S
H64 C49 0.929 . S
H65 C51 0.930 . S
Co66 N70 2.148 . S
Co66 N76 2.128 . S
Co66 N86 2.194 . S
Co66 O91 2.351 . S
Co66 O92 2.155 . S
Co66 O93 2.096 . S
C67 N70 1.301 . S
C67 N71 1.328 . S
C67 H72 0.930 . S
C68 C69 1.333 . S
C68 N70 1.317 . S
C68 H73 0.930 . S
C69 C68 1.333 . S
C69 N71 1.350 . S
C69 H95 0.931 . S
N70 Co66 2.148 . S
N70 C67 1.301 . S
N70 C68 1.317 . S
N71 C67 1.328 . S
N71 C69 1.350 . S
H72 C67 0.930 . S
H73 C68 0.930 . S
C74 O75 1.224 . S
C74 O93 1.247 . S
O75 C74 1.224 . S
N76 Co66 2.128 . S
N76 C77 1.355 . S
N76 C79 1.311 . S
C77 N76 1.355 . S
C77 C78 1.363 . S
C77 H89 0.929 . S
C78 C77 1.363 . S
C78 N80 1.375 . S
C78 H96 0.931 . S
C79 N76 1.311 . S
C79 N80 1.347 . S
C79 H90 0.929 . S
N80 C78 1.375 . S
N80 C79 1.347 . S
C81 C84 1.365 . S
C81 N86 1.328 . S
C81 H87 0.929 . S
C82 C83 1.362 . S
C82 C85 1.378 . S
C82 H97 0.929 . S
C83 C82 1.362 . S
C83 C84 1.366 . S
C84 C81 1.365 . S
C84 C83 1.366 . S
C84 H98 0.930 . S
C85 C82 1.378 . S
C85 N86 1.315 . S
C85 H88 0.930 . S
N86 Co66 2.194 . S
N86 C81 1.328 . S
N86 C85 1.315 . S
H87 C81 0.929 . S
H88 C85 0.930 . S
H89 C77 0.929 . S
H90 C79 0.929 . S
O91 Co66 2.351 . S
O91 C94 1.244 . S
O92 Co66 2.155 . S
O92 C94 1.240 . S
O93 Co66 2.096 . S
O93 C74 1.247 . S
C94 O91 1.244 . S
C94 O92 1.240 . S
H95 C69 0.931 . S
H96 C78 0.931 . S
H97 C82 0.929 . S
H98 C84 0.930 . S
Co99 N103 2.148 . S
Co99 N109 2.128 . S
Co99 N119 2.194 . S
Co99 O124 2.351 . S
Co99 O125 2.155 . S
Co99 O126 2.096 . S
C100 N103 1.301 . S
C100 N104 1.328 . S
C100 H105 0.930 . S
C101 C102 1.333 . S
C101 N103 1.317 . S
C101 H106 0.930 . S
C102 C101 1.333 . S
C102 N104 1.350 . S
C102 H128 0.931 . S
N103 Co99 2.148 . S
N103 C100 1.301 . S
N103 C101 1.317 . S
N104 C100 1.328 . S
N104 C102 1.350 . S
H105 C100 0.930 . S
H106 C101 0.930 . S
C107 O108 1.224 . S
C107 O126 1.247 . S
O108 C107 1.224 . S
N109 Co99 2.128 . S
N109 C110 1.355 . S
N109 C112 1.311 . S
C110 N109 1.355 . S
C110 C111 1.363 . S
C110 H122 0.929 . S
C111 C110 1.363 . S
C111 N113 1.375 . S
C111 H129 0.931 . S
C112 N109 1.311 . S
C112 N113 1.347 . S
C112 H123 0.929 . S
N113 C111 1.375 . S
N113 C112 1.347 . S
C114 C117 1.365 . S
C114 N119 1.328 . S
C114 H120 0.929 . S
C115 C116 1.362 . S
C115 C118 1.378 . S
C115 H130 0.929 . S
C116 C115 1.362 . S
C116 C117 1.366 . S
C117 C114 1.365 . S
C117 C116 1.366 . S
C117 H131 0.930 . S
C118 C115 1.378 . S
C118 N119 1.315 . S
C118 H121 0.930 . S
N119 Co99 2.194 . S
N119 C114 1.328 . S
N119 C118 1.315 . S
H120 C114 0.929 . S
H121 C118 0.930 . S
H122 C110 0.929 . S
H123 C112 0.929 . S
O124 Co99 2.351 . S
O124 C127 1.244 . S
O125 Co99 2.155 . S
O125 C127 1.240 . S
O126 Co99 2.096 . S
O126 C107 1.247 . S
C127 O124 1.244 . S
C127 O125 1.240 . S
H128 C102 0.931 . S
H129 C111 0.931 . S
H130 C115 0.929 . S
H131 C117 0.930 . S
Co132 N136 2.148 . S
Co132 N142 2.128 . S
Co132 N152 2.194 . S
Co132 O157 2.351 . S
Co132 O158 2.155 . S
Co132 O159 2.096 . S
C133 N136 1.301 . S
C133 N137 1.328 . S
C133 H138 0.930 . S
C134 C135 1.333 . S
C134 N136 1.317 . S
C134 H139 0.930 . S
C135 C134 1.333 . S
C135 N137 1.350 . S
C135 H161 0.931 . S
N136 Co132 2.148 . S
N136 C133 1.301 . S
N136 C134 1.317 . S
N137 C133 1.328 . S
N137 C135 1.350 . S
H138 C133 0.930 . S
H139 C134 0.930 . S
C140 O141 1.224 . S
C140 O159 1.247 . S
O141 C140 1.224 . S
N142 Co132 2.128 . S
N142 C143 1.355 . S
N142 C145 1.311 . S
C143 N142 1.355 . S
C143 C144 1.363 . S
C143 H155 0.929 . S
C144 C143 1.363 . S
C144 N146 1.375 . S
C144 H162 0.931 . S
C145 N142 1.311 . S
C145 N146 1.347 . S
C145 H156 0.929 . S
N146 C144 1.375 . S
N146 C145 1.347 . S
C147 C150 1.365 . S
C147 N152 1.328 . S
C147 H153 0.929 . S
C148 C149 1.362 . S
C148 C151 1.378 . S
C148 H163 0.929 . S
C149 C148 1.362 . S
C149 C150 1.366 . S
C150 C147 1.365 . S
C150 C149 1.366 . S
C150 H164 0.930 . S
C151 C148 1.378 . S
C151 N152 1.315 . S
C151 H154 0.930 . S
N152 Co132 2.194 . S
N152 C147 1.328 . S
N152 C151 1.315 . S
H153 C147 0.929 . S
H154 C151 0.930 . S
H155 C143 0.929 . S
H156 C145 0.929 . S
O157 Co132 2.351 . S
O157 C160 1.244 . S
O158 Co132 2.155 . S
O158 C160 1.240 . S
O159 Co132 2.096 . S
O159 C140 1.247 . S
C160 O157 1.244 . S
C160 O158 1.240 . S
H161 C135 0.931 . S
H162 C144 0.931 . S
H163 C148 0.929 . S
H164 C150 0.930 . S
Co165 N169 2.148 . S
Co165 N175 2.128 . S
Co165 N185 2.194 . S
Co165 O190 2.351 . S
Co165 O191 2.155 . S
Co165 O192 2.096 . S
C166 N169 1.301 . S
C166 N170 1.328 . S
C166 H171 0.930 . S
C167 C168 1.333 . S
C167 N169 1.317 . S
C167 H172 0.930 . S
C168 C167 1.333 . S
C168 N170 1.350 . S
C168 H194 0.931 . S
N169 Co165 2.148 . S
N169 C166 1.301 . S
N169 C167 1.317 . S
N170 C166 1.328 . S
N170 C168 1.350 . S
H171 C166 0.930 . S
H172 C167 0.930 . S
C173 O174 1.224 . S
C173 O192 1.247 . S
O174 C173 1.224 . S
N175 Co165 2.128 . S
N175 C176 1.355 . S
N175 C178 1.311 . S
C176 N175 1.355 . S
C176 C177 1.363 . S
C176 H188 0.929 . S
C177 C176 1.363 . S
C177 N179 1.375 . S
C177 H195 0.931 . S
C178 N175 1.311 . S
C178 N179 1.347 . S
C178 H189 0.929 . S
N179 C177 1.375 . S
N179 C178 1.347 . S
C180 C183 1.365 . S
C180 N185 1.328 . S
C180 H186 0.929 . S
C181 C182 1.362 . S
C181 C184 1.378 . S
C181 H196 0.929 . S
C182 C181 1.362 . S
C182 C183 1.366 . S
C183 C180 1.365 . S
C183 C182 1.366 . S
C183 H197 0.930 . S
C184 C181 1.378 . S
C184 N185 1.315 . S
C184 H187 0.930 . S
N185 Co165 2.194 . S
N185 C180 1.328 . S
N185 C184 1.315 . S
H186 C180 0.929 . S
H187 C184 0.930 . S
H188 C176 0.929 . S
H189 C178 0.929 . S
O190 Co165 2.351 . S
O190 C193 1.244 . S
O191 Co165 2.155 . S
O191 C193 1.240 . S
O192 Co165 2.096 . S
O192 C173 1.247 . S
C193 O190 1.244 . S
C193 O191 1.240 . S
H194 C168 0.931 . S
H195 C177 0.931 . S
H196 C181 0.929 . S
H197 C183 0.930 . S
C198 C199 1.391 . S
C198 C200 1.394 . S
C198 H214 0.931 . S
C199 C198 1.391 . S
C199 C203 1.376 . S
C200 C198 1.394 . S
C200 C201 1.369 . S
C200 C204 1.531 1_545 S
C201 C200 1.369 . S
C201 C202 1.410 . S
C201 C209 1.503 1_545 S
C202 C201 1.410 . S
C202 C203 1.392 . S
C202 C205 1.511 . S
C203 C199 1.376 . S
C203 C202 1.392 . S
C203 H215 0.929 . S
C204 C200 1.531 1_565 S
C204 H216 0.960 . S
C204 H217 0.962 . S
C204 H218 0.960 . S
C205 C202 1.511 . S
C205 H219 0.961 . S
C205 H220 0.961 . S
C205 H221 0.961 . S
C206 C207 1.370 . S
C206 C208 1.363 . S
C206 H222 0.931 . S
C207 C206 1.370 . S
C207 C211 1.408 . S
C208 C206 1.363 . S
C208 C209 1.370 . S
C208 C212 1.524 1_565 S
C209 C201 1.503 1_565 S
C209 C208 1.370 . S
C209 C210 1.403 . S
C210 C209 1.403 . S
C210 C211 1.404 . S
C210 C213 1.539 . S
C211 C207 1.408 . S
C211 C210 1.404 . S
C211 H223 0.930 . S
C212 C208 1.524 1_545 S
C212 H224 0.956 . S
C212 H225 0.961 . S
C212 H226 0.961 . S
C213 C210 1.539 . S
C213 H227 0.958 . S
C213 H228 0.961 . S
C213 H229 0.960 . S
H214 C198 0.931 . S
H215 C203 0.929 . S
H216 C204 0.960 . S
H217 C204 0.962 . S
H218 C204 0.960 . S
H219 C205 0.961 . S
H220 C205 0.961 . S
H221 C205 0.961 . S
H222 C206 0.931 . S
H223 C211 0.930 . S
H224 C212 0.956 . S
H225 C212 0.961 . S
H226 C212 0.961 . S
H227 C213 0.958 . S
H228 C213 0.961 . S
H229 C213 0.960 . S
C230 C231 1.391 . S
C230 C232 1.394 . S
C230 H246 0.931 . S
C231 C230 1.391 . S
C231 C235 1.376 . S
C232 C230 1.394 . S
C232 C233 1.369 . S
C232 C236 1.531 1_455 S
C233 C232 1.369 . S
C233 C234 1.410 . S
C233 C241 1.503 1_455 S
C234 C233 1.410 . S
C234 C235 1.392 . S
C234 C237 1.511 . S
C235 C231 1.376 . S
C235 C234 1.392 . S
C235 H247 0.929 . S
C236 C232 1.531 1_655 S
C236 H248 0.960 . S
C236 H249 0.962 . S
C236 H250 0.960 . S
C237 C234 1.511 . S
C237 H251 0.961 . S
C237 H252 0.961 . S
C237 H253 0.961 . S
C238 C239 1.370 . S
C238 C240 1.363 . S
C238 H254 0.931 . S
C239 C238 1.370 . S
C239 C243 1.408 . S
C240 C238 1.363 . S
C240 C241 1.370 . S
C240 C244 1.524 1_655 S
C241 C233 1.503 1_655 S
C241 C240 1.370 . S
C241 C242 1.403 . S
C242 C241 1.403 . S
C242 C243 1.404 . S
C242 C245 1.539 . S
C243 C239 1.408 . S
C243 C242 1.404 . S
C243 H255 0.930 . S
C244 C240 1.524 1_455 S
C244 H256 0.956 . S
C244 H257 0.961 . S
C244 H258 0.961 1_455 S
C245 C242 1.539 . S
C245 H259 0.958 . S
C245 H260 0.961 . S
C245 H261 0.960 . S
H246 C230 0.931 . S
H247 C235 0.929 . S
H248 C236 0.960 . S
H249 C236 0.962 . S
H250 C236 0.960 . S
H251 C237 0.961 . S
H252 C237 0.961 . S
H253 C237 0.961 . S
H254 C238 0.931 . S
H255 C243 0.930 . S
H256 C244 0.956 . S
H257 C244 0.961 . S
H258 C244 0.961 1_655 S
H259 C245 0.958 . S
H260 C245 0.961 . S
H261 C245 0.960 . S
C262 C263 1.391 . S
C262 C264 1.394 . S
C262 H278 0.931 . S
C263 C262 1.391 . S
C263 C267 1.376 . S
C264 C262 1.394 . S
C264 C265 1.369 . S
C264 C268 1.531 . S
C265 C264 1.369 . S
C265 C266 1.410 . S
C265 C273 1.503 . S
C266 C265 1.410 . S
C266 C267 1.392 . S
C266 C269 1.511 . S
C267 C263 1.376 . S
C267 C266 1.392 . S
C267 H279 0.929 . S
C268 C264 1.531 . S
C268 H280 0.960 . S
C268 H281 0.962 . S
C268 H282 0.960 . S
C269 C266 1.511 . S
C269 H283 0.961 . S
C269 H284 0.961 . S
C269 H285 0.961 . S
C270 C271 1.370 . S
C270 C272 1.363 . S
C270 H286 0.931 . S
C271 C270 1.370 . S
C271 C275 1.408 . S
C272 C270 1.363 . S
C272 C273 1.370 . S
C272 C276 1.524 . S
C273 C265 1.503 . S
C273 C272 1.370 . S
C273 C274 1.403 . S
C274 C273 1.403 . S
C274 C275 1.404 . S
C274 C277 1.539 . S
C275 C271 1.408 . S
C275 C274 1.404 . S
C275 H287 0.930 . S
C276 C272 1.524 . S
C276 H288 0.956 . S
C276 H289 0.961 . S
C276 H290 0.961 . S
C277 C274 1.539 . S
C277 H291 0.958 . S
C277 H292 0.961 . S
C277 H293 0.960 . S
H278 C262 0.931 . S
H279 C267 0.929 . S
H280 C268 0.960 . S
H281 C268 0.962 . S
H282 C268 0.960 . S
H283 C269 0.961 . S
H284 C269 0.961 . S
H285 C269 0.961 . S
H286 C270 0.931 . S
H287 C275 0.930 . S
H288 C276 0.956 . S
H289 C276 0.961 . S
H290 C276 0.961 . S
H291 C277 0.958 . S
H292 C277 0.961 . S
H293 C277 0.960 . S
C294 C295 1.391 . S
C294 C296 1.394 . S
C294 H310 0.931 . S
C295 C294 1.391 . S
C295 C299 1.376 . S
C296 C294 1.394 . S
C296 C297 1.369 . S
C296 C300 1.531 . S
C297 C296 1.369 . S
C297 C298 1.410 . S
C297 C305 1.503 . S
C298 C297 1.410 . S
C298 C299 1.392 . S
C298 C301 1.511 . S
C299 C295 1.376 . S
C299 C298 1.392 . S
C299 H311 0.929 . S
C300 C296 1.531 . S
C300 H312 0.960 . S
C300 H313 0.962 . S
C300 H314 0.960 . S
C301 C298 1.511 . S
C301 H315 0.961 . S
C301 H316 0.961 . S
C301 H317 0.961 . S
C302 C303 1.370 . S
C302 C304 1.363 . S
C302 H318 0.931 . S
C303 C302 1.370 . S
C303 C307 1.408 . S
C304 C302 1.363 . S
C304 C305 1.370 . S
C304 C308 1.524 . S
C305 C297 1.503 . S
C305 C304 1.370 . S
C305 C306 1.403 . S
C306 C305 1.403 . S
C306 C307 1.404 . S
C306 C309 1.539 . S
C307 C303 1.408 . S
C307 C306 1.404 . S
C307 H319 0.930 . S
C308 C304 1.524 . S
C308 H320 0.956 . S
C308 H321 0.961 . S
C308 H322 0.961 . S
C309 C306 1.539 . S
C309 H323 0.958 . S
C309 H324 0.961 . S
C309 H325 0.960 . S
H310 C294 0.931 . S
H311 C299 0.929 . S
H312 C300 0.960 . S
H313 C300 0.962 . S
H314 C300 0.960 . S
H315 C301 0.961 . S
H316 C301 0.961 . S
H317 C301 0.961 . S
H318 C302 0.931 . S
H319 C307 0.930 . S
H320 C308 0.956 . S
H321 C308 0.961 . S
H322 C308 0.961 . S
H323 C309 0.958 . S
H324 C309 0.961 . S
H325 C309 0.960 . S
C326 C327 1.391 . S
C326 C328 1.394 . S
C326 H342 0.931 . S
C327 C326 1.391 . S
C327 C331 1.376 . S
C328 C326 1.394 . S
C328 C329 1.369 . S
C328 C332 1.531 . S
C329 C328 1.369 . S
C329 C330 1.410 . S
C329 C337 1.503 . S
C330 C329 1.410 . S
C330 C331 1.392 . S
C330 C333 1.511 . S
C331 C327 1.376 . S
C331 C330 1.392 . S
C331 H343 0.929 . S
C332 C328 1.531 . S
C332 H344 0.960 . S
C332 H345 0.962 . S
C332 H346 0.960 . S
C333 C330 1.511 . S
C333 H347 0.961 . S
C333 H348 0.961 . S
C333 H349 0.961 . S
C334 C335 1.370 . S
C334 C336 1.363 1_545 S
C334 H350 0.931 . S
C335 C334 1.370 . S
C335 C339 1.408 . S
C336 C334 1.363 1_565 S
C336 C337 1.370 . S
C336 C340 1.524 . S
C337 C329 1.503 . S
C337 C336 1.370 . S
C337 C338 1.403 . S
C338 C337 1.403 . S
C338 C339 1.404 1_565 S
C338 C341 1.539 . S
C339 C335 1.408 . S
C339 C338 1.404 1_545 S
C339 H351 0.930 . S
C340 C336 1.524 . S
C340 H352 0.956 . S
C340 H353 0.961 . S
C340 H354 0.961 . S
C341 C338 1.539 . S
C341 H355 0.958 . S
C341 H356 0.961 . S
C341 H357 0.960 . S
H342 C326 0.931 . S
H343 C331 0.929 . S
H344 C332 0.960 . S
H345 C332 0.962 . S
H346 C332 0.960 . S
H347 C333 0.961 . S
H348 C333 0.961 . S
H349 C333 0.961 . S
H350 C334 0.931 . S
H351 C339 0.930 . S
H352 C340 0.956 . S
H353 C340 0.961 . S
H354 C340 0.961 . S
H355 C341 0.958 . S
H356 C341 0.961 . S
H357 C341 0.960 . S
C358 C359 1.391 . S
C358 C360 1.394 1_655 S
C358 H374 0.931 . S
C359 C358 1.391 . S
C359 C363 1.376 . S
C360 C358 1.394 1_455 S
C360 C361 1.369 . S
C360 C364 1.531 . S
C361 C360 1.369 . S
C361 C362 1.410 . S
C361 C369 1.503 . S
C362 C361 1.410 . S
C362 C363 1.392 1_455 S
C362 C365 1.511 . S
C363 C359 1.376 . S
C363 C362 1.392 1_655 S
C363 H375 0.929 . S
C364 C360 1.531 . S
C364 H376 0.960 . S
C364 H377 0.962 . S
C364 H378 0.960 . S
C365 C362 1.511 . S
C365 H379 0.961 . S
C365 H380 0.961 . S
C365 H381 0.961 . S
C366 C367 1.370 . S
C366 C368 1.363 . S
C366 H382 0.931 . S
C367 C366 1.370 . S
C367 C371 1.408 . S
C368 C366 1.363 . S
C368 C369 1.370 . S
C368 C372 1.524 . S
C369 C361 1.503 . S
C369 C368 1.370 . S
C369 C370 1.403 . S
C370 C369 1.403 . S
C370 C371 1.404 . S
C370 C373 1.539 . S
C371 C367 1.408 . S
C371 C370 1.404 . S
C371 H383 0.930 . S
C372 C368 1.524 . S
C372 H384 0.956 . S
C372 H385 0.961 . S
C372 H386 0.961 . S
C373 C370 1.539 . S
C373 H387 0.958 . S
C373 H388 0.961 . S
C373 H389 0.960 . S
H374 C358 0.931 . S
H375 C363 0.929 . S
H376 C364 0.960 . S
H377 C364 0.962 . S
H378 C364 0.960 . S
H379 C365 0.961 . S
H380 C365 0.961 . S
H381 C365 0.961 . S
H382 C366 0.931 . S
H383 C371 0.930 . S
H384 C372 0.956 . S
H385 C372 0.961 . S
H386 C372 0.961 . S
H387 C373 0.958 . S
H388 C373 0.961 . S
H389 C373 0.960 . S
C390 C391 1.391 . S
C390 C392 1.394 . S
C390 H406 0.931 . S
C391 C390 1.391 . S
C391 C395 1.376 . S
C392 C390 1.394 . S
C392 C393 1.369 . S
C392 C396 1.531 . S
C393 C392 1.369 . S
C393 C394 1.410 . S
C393 C401 1.503 . S
C394 C393 1.410 . S
C394 C395 1.392 . S
C394 C397 1.511 . S
C395 C391 1.376 . S
C395 C394 1.392 . S
C395 H407 0.929 . S
C396 C392 1.531 . S
C396 H408 0.960 . S
C396 H409 0.962 . S
C396 H410 0.960 . S
C397 C394 1.511 . S
C397 H411 0.961 . S
C397 H412 0.961 . S
C397 H413 0.961 . S
C398 C399 1.370 . S
C398 C400 1.363 . S
C398 H414 0.931 . S
C399 C398 1.370 . S
C399 C403 1.408 . S
C400 C398 1.363 . S
C400 C401 1.370 . S
C400 C404 1.524 . S
C401 C393 1.503 . S
C401 C400 1.370 . S
C401 C402 1.403 . S
C402 C401 1.403 . S
C402 C403 1.404 . S
C402 C405 1.539 . S
C403 C399 1.408 . S
C403 C402 1.404 . S
C403 H415 0.930 . S
C404 C400 1.524 . S
C404 H416 0.956 . S
C404 H417 0.961 . S
C404 H418 0.961 . S
C405 C402 1.539 . S
C405 H419 0.958 . S
C405 H420 0.961 . S
C405 H421 0.960 . S
H406 C390 0.931 . S
H407 C395 0.929 . S
H408 C396 0.960 . S
H409 C396 0.962 . S
H410 C396 0.960 . S
H411 C397 0.961 . S
H412 C397 0.961 . S
H413 C397 0.961 . S
H414 C398 0.931 . S
H415 C403 0.930 . S
H416 C404 0.956 . S
H417 C404 0.961 . S
H418 C404 0.961 . S
H419 C405 0.958 . S
H420 C405 0.961 . S
H421 C405 0.960 . S
C422 C423 1.391 . S
C422 C424 1.394 . S
C422 H438 0.931 . S
C423 C422 1.391 . S
C423 C427 1.376 . S
C424 C422 1.394 . S
C424 C425 1.369 . S
C424 C428 1.531 . S
C425 C424 1.369 . S
C425 C426 1.410 . S
C425 C433 1.503 . S
C426 C425 1.410 . S
C426 C427 1.392 . S
C426 C429 1.511 . S
C427 C423 1.376 . S
C427 C426 1.392 . S
C427 H439 0.929 . S
C428 C424 1.531 . S
C428 H440 0.960 . S
C428 H441 0.962 . S
C428 H442 0.960 . S
C429 C426 1.511 . S
C429 H443 0.961 . S
C429 H444 0.961 . S
C429 H445 0.961 . S
C430 C431 1.370 . S
C430 C432 1.363 1_565 S
C430 H446 0.931 . S
C431 C430 1.370 . S
C431 C435 1.408 1_565 S
C432 C430 1.363 1_545 S
C432 C433 1.370 . S
C432 C436 1.524 . S
C433 C425 1.503 . S
C433 C432 1.370 . S
C433 C434 1.403 . S
C434 C433 1.403 . S
C434 C435 1.404 . S
C434 C437 1.539 . S
C435 C431 1.408 1_545 S
C435 C434 1.404 . S
C435 H447 0.930 1_545 S
C436 C432 1.524 . S
C436 H448 0.956 . S
C436 H449 0.961 . S
C436 H450 0.961 . S
C437 C434 1.539 . S
C437 H451 0.958 . S
C437 H452 0.961 . S
C437 H453 0.960 . S
H438 C422 0.931 . S
H439 C427 0.929 . S
H440 C428 0.960 . S
H441 C428 0.962 . S
H442 C428 0.960 . S
H443 C429 0.961 . S
H444 C429 0.961 . S
H445 C429 0.961 . S
H446 C430 0.931 . S
H447 C435 0.930 1_565 S
H448 C436 0.956 . S
H449 C436 0.961 . S
H450 C436 0.961 . S
H451 C437 0.958 . S
H452 C437 0.961 . S
H453 C437 0.960 . S
C454 C455 1.391 1_655 S
C454 C456 1.394 . S
C454 H470 0.931 . S
C455 C454 1.391 1_455 S
C455 C459 1.376 . S
C456 C454 1.394 . S
C456 C457 1.369 . S
C456 C460 1.531 . S
C457 C456 1.369 . S
C457 C458 1.410 . S
C457 C465 1.503 . S
C458 C457 1.410 . S
C458 C459 1.392 1_655 S
C458 C461 1.511 . S
C459 C455 1.376 . S
C459 C458 1.392 1_455 S
C459 H471 0.929 . S
C460 C456 1.531 . S
C460 H472 0.960 . S
C460 H473 0.962 . S
C460 H474 0.960 . S
C461 C458 1.511 . S
C461 H475 0.961 1_655 S
C461 H476 0.961 . S
C461 H477 0.961 . S
C462 C463 1.370 . S
C462 C464 1.363 . S
C462 H478 0.931 . S
C463 C462 1.370 . S
C463 C467 1.408 . S
C464 C462 1.363 . S
C464 C465 1.370 . S
C464 C468 1.524 . S
C465 C457 1.503 . S
C465 C464 1.370 . S
C465 C466 1.403 . S
C466 C465 1.403 . S
C466 C467 1.404 . S
C466 C469 1.539 . S
C467 C463 1.408 . S
C467 C466 1.404 . S
C467 H479 0.930 . S
C468 C464 1.524 . S
C468 H480 0.956 . S
C468 H481 0.961 . S
C468 H482 0.961 . S
C469 C466 1.539 . S
C469 H483 0.958 . S
C469 H484 0.961 . S
C469 H485 0.960 . S
H470 C454 0.931 . S
H471 C459 0.929 . S
H472 C460 0.960 . S
H473 C460 0.962 . S
H474 C460 0.960 . S
H475 C461 0.961 1_455 S
H476 C461 0.961 . S
H477 C461 0.961 . S
H478 C462 0.931 . S
H479 C467 0.930 . S
H480 C468 0.956 . S
H481 C468 0.961 . S
H482 C468 0.961 . S
H483 C469 0.958 . S
H484 C469 0.961 . S
H485 C469 0.960 . S
C486 C487 1.391 . S
C486 C488 1.394 1_565 S
C486 H502 0.931 . S
C487 C486 1.391 . S
C487 C491 1.376 . S
C488 C486 1.394 1_545 S
C488 C489 1.369 1_545 S
C488 C492 1.531 . S
C489 C488 1.369 1_565 S
C489 C490 1.410 . S
C489 C497 1.503 1_565 S
C490 C489 1.410 . S
C490 C491 1.392 . S
C490 C493 1.511 . S
C491 C487 1.376 . S
C491 C490 1.392 . S
C491 H503 0.929 . S
C492 C488 1.531 . S
C492 H504 0.960 . S
C492 H505 0.962 . S
C492 H506 0.960 . S
C493 C490 1.511 . S
C493 H507 0.961 . S
C493 H508 0.961 . S
C493 H509 0.961 . S
C494 C495 1.370 . S
C494 C496 1.363 . S
C494 H510 0.931 . S
C495 C494 1.370 . S
C495 C499 1.408 . S
C496 C494 1.363 . S
C496 C497 1.370 . S
C496 C500 1.524 . S
C497 C489 1.503 1_545 S
C497 C496 1.370 . S
C497 C498 1.403 . S
C498 C497 1.403 . S
C498 C499 1.404 . S
C498 C501 1.539 . S
C499 C495 1.408 . S
C499 C498 1.404 . S
C499 H511 0.930 . S
C500 C496 1.524 . S
C500 H512 0.956 . S
C500 H513 0.961 1_545 S
C500 H514 0.961 . S
C501 C498 1.539 . S
C501 H515 0.958 . S
C501 H516 0.961 . S
C501 H517 0.979 . S
H502 C486 0.931 . S
H503 C491 0.929 . S
H504 C492 0.960 . S
H505 C492 0.962 . S
H506 C492 0.960 . S
H507 C493 0.961 . S
H508 C493 0.961 . S
H509 C493 0.961 . S
H510 C494 0.931 . S
H511 C499 0.930 . S
H512 C500 0.956 . S
H513 C500 0.961 1_565 S
H514 C500 0.961 . S
H515 C501 0.958 . S
H516 C501 0.961 . S
H517 C501 0.979 . S
C518 C519 1.391 . S
C518 C520 1.394 . S
C518 H534 0.931 . S
C519 C518 1.391 . S
C519 C523 1.376 . S
C520 C518 1.394 . S
C520 C521 1.369 . S
C520 C524 1.531 1_556 S
C521 C520 1.369 . S
C521 C522 1.410 . S
C521 C529 1.503 1_656 S
C522 C521 1.410 . S
C522 C523 1.392 . S
C522 C525 1.511 1_655 S
C523 C519 1.376 . S
C523 C522 1.392 . S
C523 H535 0.929 . S
C524 C520 1.531 1_554 S
C524 H536 0.960 . S
C524 H537 0.962 . S
C524 H538 0.960 . S
C525 C522 1.511 1_455 S
C525 H539 0.961 . S
C525 H540 0.961 . S
C525 H541 0.961 . S
C526 C527 1.370 . S
C526 C528 1.363 . S
C526 H542 0.931 . S
C527 C526 1.370 . S
C527 C531 1.408 . S
C528 C526 1.363 . S
C528 C529 1.370 . S
C528 C532 1.524 1_554 S
C529 C521 1.503 1_454 S
C529 C528 1.370 . S
C529 C530 1.403 . S
C530 C529 1.403 . S
C530 C531 1.404 . S
C530 C533 1.539 1_455 S
C531 C527 1.408 . S
C531 C530 1.404 . S
C531 H543 0.930 . S
C532 C528 1.524 1_556 S
C532 H544 0.956 . S
C532 H545 0.961 . S
C532 H546 0.961 . S
C533 C530 1.539 1_655 S
C533 H547 0.958 . S
C533 H548 0.961 . S
C533 H549 0.960 . S
H534 C518 0.931 . S
H535 C523 0.929 . S
H536 C524 0.960 . S
H537 C524 0.962 . S
H538 C524 0.960 . S
H539 C525 0.961 . S
H540 C525 0.961 . S
H541 C525 0.961 . S
H542 C526 0.931 . S
H543 C531 0.930 . S
H544 C532 0.956 . S
H545 C532 0.961 . S
H546 C532 0.961 . S
H547 C533 0.958 . S
H548 C533 0.961 . S
H549 C533 0.960 . S
C550 C551 1.391 . S
C550 C552 1.394 . S
C550 H566 0.931 . S
C551 C550 1.391 . S
C551 C555 1.376 . S
C552 C550 1.394 . S
C552 C553 1.369 . S
C552 C556 1.531 . S
C553 C552 1.369 . S
C553 C554 1.410 . S
C553 C561 1.503 . S
C554 C553 1.410 . S
C554 C555 1.392 . S
C554 C557 1.511 . S
C555 C551 1.376 . S
C555 C554 1.392 . S
C555 H567 0.929 . S
C556 C552 1.531 . S
C556 H568 0.960 . S
C556 H569 0.962 . S
C556 H570 0.960 . S
C557 C554 1.511 . S
C557 H571 0.961 . S
C557 H572 0.961 . S
C557 H573 0.961 . S
C558 C559 1.370 . S
C558 C560 1.363 . S
C558 H574 0.931 . S
C559 C558 1.370 . S
C559 C563 1.408 . S
C560 C558 1.363 . S
C560 C561 1.370 . S
C560 C564 1.524 . S
C561 C553 1.503 . S
C561 C560 1.370 . S
C561 C562 1.403 . S
C562 C561 1.403 . S
C562 C563 1.404 . S
C562 C565 1.539 . S
C563 C559 1.408 . S
C563 C562 1.404 . S
C563 H575 0.930 . S
C564 C560 1.524 . S
C564 H576 0.956 . S
C564 H577 0.961 . S
C564 H578 0.961 . S
C565 C562 1.539 . S
C565 H579 0.958 . S
C565 H580 0.961 . S
C565 H581 0.960 . S
H566 C550 0.931 . S
H567 C555 0.929 . S
H568 C556 0.960 . S
H569 C556 0.962 . S
H570 C556 0.960 . S
H571 C557 0.961 . S
H572 C557 0.961 . S
H573 C557 0.961 . S
H574 C558 0.931 . S
H575 C563 0.930 . S
H576 C564 0.956 . S
H577 C564 0.961 . S
H578 C564 0.961 . S
H579 C565 0.958 . S
H580 C565 0.961 . S
H581 C565 0.960 . S
C582 C583 1.391 . S
C582 C584 1.394 . S
C582 H598 0.931 . S
C583 C582 1.391 . S
C583 C587 1.376 . S
C584 C582 1.394 . S
C584 C585 1.369 . S
C584 C588 1.531 . S
C585 C584 1.369 . S
C585 C586 1.410 . S
C585 C593 1.503 1_455 S
C586 C585 1.410 . S
C586 C587 1.392 . S
C586 C589 1.511 . S
C587 C583 1.376 . S
C587 C586 1.392 . S
C587 H599 0.929 . S
C588 C584 1.531 . S
C588 H600 0.960 . S
C588 H601 0.962 . S
C588 H602 0.960 . S
C589 C586 1.511 . S
C589 H603 0.961 . S
C589 H604 0.961 . S
C589 H605 0.961 . S
C590 C591 1.370 . S
C590 C592 1.363 . S
C590 H606 0.931 . S
C591 C590 1.370 . S
C591 C595 1.408 . S
C592 C590 1.363 . S
C592 C593 1.370 . S
C592 C596 1.524 . S
C593 C585 1.503 1_655 S
C593 C592 1.370 . S
C593 C594 1.403 1_655 S
C594 C593 1.403 1_455 S
C594 C595 1.404 1_455 S
C594 C597 1.539 . S
C595 C591 1.408 . S
C595 C594 1.404 1_655 S
C595 H607 0.930 . S
C596 C592 1.524 . S
C596 H608 0.956 . S
C596 H609 0.961 . S
C596 H610 0.961 . S
C597 C594 1.539 . S
C597 H611 0.958 . S
C597 H612 0.961 . S
C597 H613 0.960 . S
H598 C582 0.931 . S
H599 C587 0.929 . S
H600 C588 0.960 . S
H601 C588 0.962 . S
H602 C588 0.960 . S
H603 C589 0.961 . S
H604 C589 0.961 . S
H605 C589 0.961 . S
H606 C590 0.931 . S
H607 C595 0.930 . S
H608 C596 0.956 . S
H609 C596 0.961 . S
H610 C596 0.961 . S
H611 C597 0.958 . S
H612 C597 0.961 . S
H613 C597 0.960 . S
C614 C615 1.391 . S
C614 C616 1.394 . S
C614 H630 0.931 . S
C615 C614 1.391 . S
C615 C619 1.376 . S
C616 C614 1.394 . S
C616 C617 1.369 . S
C616 C620 1.531 . S
C617 C616 1.369 . S
C617 C618 1.410 . S
C617 C625 1.503 . S
C618 C617 1.410 . S
C618 C619 1.392 . S
C618 C621 1.511 . S
C619 C615 1.376 . S
C619 C618 1.392 . S
C619 H631 0.929 . S
C620 C616 1.531 . S
C620 H632 0.960 . S
C620 H633 0.962 . S
C620 H634 0.960 . S
C621 C618 1.511 . S
C621 H635 0.961 . S
C621 H636 0.961 . S
C621 H637 0.961 . S
C622 C623 1.370 . S
C622 C624 1.363 . S
C622 H638 0.931 . S
C623 C622 1.370 . S
C623 C627 1.408 . S
C624 C622 1.363 . S
C624 C625 1.370 . S
C624 C628 1.524 . S
C625 C617 1.503 . S
C625 C624 1.370 . S
C625 C626 1.403 . S
C626 C625 1.403 . S
C626 C627 1.404 . S
C626 C629 1.539 . S
C627 C623 1.408 . S
C627 C626 1.404 . S
C627 H639 0.930 . S
C628 C624 1.524 . S
C628 H640 0.956 . S
C628 H641 0.961 . S
C628 H642 0.961 . S
C629 C626 1.539 . S
C629 H643 0.958 . S
C629 H644 0.961 . S
C629 H645 0.960 . S
H630 C614 0.931 . S
H631 C619 0.929 . S
H632 C620 0.960 . S
H633 C620 0.962 . S
H634 C620 0.960 . S
H635 C621 0.961 . S
H636 C621 0.961 . S
H637 C621 0.961 . S
H638 C622 0.931 . S
H639 C627 0.930 . S
H640 C628 0.956 . S
H641 C628 0.961 . S
H642 C628 0.961 . S
H643 C629 0.958 . S
H644 C629 0.961 . S
H645 C629 0.960 . S
C646 C647 1.391 . S
C646 C648 1.394 . S
C646 H662 0.931 . S
C647 C646 1.391 . S
C647 C651 1.376 . S
C648 C646 1.394 . S
C648 C649 1.369 . S
C648 C652 1.531 1_556 S
C649 C648 1.369 . S
C649 C650 1.410 . S
C649 C657 1.503 1_546 S
C650 C649 1.410 . S
C650 C651 1.392 . S
C650 C653 1.511 . S
C651 C647 1.376 . S
C651 C650 1.392 . S
C651 H663 0.929 . S
C652 C648 1.531 1_554 S
C652 H664 0.960 . S
C652 H665 0.962 1_545 S
C652 H666 0.960 . S
C653 C650 1.511 . S
C653 H667 0.961 . S
C653 H668 0.961 1_545 S
C653 H669 0.961 . S
C654 C655 1.370 . S
C654 C656 1.363 . S
C654 H670 0.931 . S
C655 C654 1.370 . S
C655 C659 1.408 . S
C656 C654 1.363 . S
C656 C657 1.370 . S
C656 C660 1.524 1_554 S
C657 C649 1.503 1_564 S
C657 C656 1.370 . S
C657 C658 1.403 . S
C658 C657 1.403 . S
C658 C659 1.404 . S
C658 C661 1.539 1_565 S
C659 C655 1.408 . S
C659 C658 1.404 . S
C659 H671 0.930 . S
C660 C656 1.524 1_556 S
C660 H672 0.956 . S
C660 H673 0.961 . S
C660 H674 0.961 . S
C661 C658 1.539 1_545 S
C661 H675 0.958 . S
C661 H676 0.961 . S
C661 H677 0.960 . S
H662 C646 0.931 . S
H663 C651 0.929 . S
H664 C652 0.960 . S
H665 C652 0.962 1_565 S
H666 C652 0.960 . S
H667 C653 0.961 . S
H668 C653 0.961 1_565 S
H669 C653 0.961 . S
H670 C654 0.931 . S
H671 C659 0.930 . S
H672 C660 0.956 . S
H673 C660 0.961 . S
H674 C660 0.961 . S
H675 C661 0.958 . S
H676 C661 0.961 . S
H677 C661 0.960 . S
C199 C8 1.417 . S
C207 C173 1.396 . S
C231 C107 1.417 . S
C239 C41 1.403 . S
C263 C140 1.372 . S
C271 C74 1.392 . S
C295 C182 1.161 . S
C303 N5 1.138 . S
C327 C116 1.151 . S
C335 N38 1.131 . S
C359 N71 1.131 . S
C367 C149 1.161 . S
C391 C50 1.147 . S
C399 N104 1.134 . S
C423 C83 1.147 . S
C431 N137 1.133 . S
C455 N170 1.174 . S
C463 C17 1.171 . S
C487 C160 1.682 . S
C495 N14 1.663 . S
C519 N47 1.636 . S
C527 C193 1.675 . S
C551 C127 1.681 . S
C559 N80 1.658 . S
C583 N113 1.638 . S
C591 C94 1.678 . S
C615 C28 1.670 . S
C623 N146 1.661 . S
C647 C61 1.671 . S
C655 N179 1.662 . S
