# Generated by pormake.
# Topology uoq, (4)-cn, num edge types: 1
# Building blocks:
#     Node 0, Type 0, BuildingBlock: KUFVIS_clean_sbu_0, # of connection points: 4
#     Node 1, Type 0, BuildingBlock: KUFVIS_clean_sbu_0, # of connection points: 4
#     Node 2, Type 0, BuildingBlock: KUFVIS_clean_sbu_0, # of connection points: 4
#     Node 3, Type 0, BuildingBlock: KUFVIS_clean_sbu_0, # of connection points: 4
#     Node 4, Type 0, BuildingBlock: KUFVIS_clean_sbu_0, # of connection points: 4
#     Node 5, Type 0, BuildingBlock: KUFVIS_clean_sbu_0, # of connection points: 4
#     Node 6, Type 0, BuildingBlock: KUFVIS_clean_sbu_0, # of connection points: 4
#     Node 7, Type 0, BuildingBlock: KUFVIS_clean_sbu_0, # of connection points: 4
#     Node 8, Type 0, BuildingBlock: KUFVIS_clean_sbu_0, # of connection points: 4
#     Node 9, Type 0, BuildingBlock: KUFVIS_clean_sbu_0, # of connection points: 4
#     Node 10, Type 0, BuildingBlock: KUFVIS_clean_sbu_0, # of connection points: 4
#     Node 11, Type 0, BuildingBlock: KUFVIS_clean_sbu_0, # of connection points: 4
#     Edge 12, Type (0, 0), BuildingBlock: KIFKEQ_clean_linker_1, # of connection points: 2
#     Edge 13, Type (0, 0), BuildingBlock: KIFKEQ_clean_linker_1, # of connection points: 2
#     Edge 14, Type (0, 0), BuildingBlock: KIFKEQ_clean_linker_1, # of connection points: 2
#     Edge 15, Type (0, 0), BuildingBlock: KIFKEQ_clean_linker_1, # of connection points: 2
#     Edge 16, Type (0, 0), BuildingBlock: KIFKEQ_clean_linker_1, # of connection points: 2
#     Edge 17, Type (0, 0), BuildingBlock: KIFKEQ_clean_linker_1, # of connection points: 2
#     Edge 18, Type (0, 0), BuildingBlock: KIFKEQ_clean_linker_1, # of connection points: 2
#     Edge 19, Type (0, 0), BuildingBlock: KIFKEQ_clean_linker_1, # of connection points: 2
#     Edge 20, Type (0, 0), BuildingBlock: KIFKEQ_clean_linker_1, # of connection points: 2
#     Edge 21, Type (0, 0), BuildingBlock: KIFKEQ_clean_linker_1, # of connection points: 2
#     Edge 22, Type (0, 0), BuildingBlock: KIFKEQ_clean_linker_1, # of connection points: 2
#     Edge 23, Type (0, 0), BuildingBlock: KIFKEQ_clean_linker_1, # of connection points: 2
#     Edge 24, Type (0, 0), BuildingBlock: KIFKEQ_clean_linker_1, # of connection points: 2
#     Edge 25, Type (0, 0), BuildingBlock: KIFKEQ_clean_linker_1, # of connection points: 2
#     Edge 26, Type (0, 0), BuildingBlock: KIFKEQ_clean_linker_1, # of connection points: 2
#     Edge 27, Type (0, 0), BuildingBlock: KIFKEQ_clean_linker_1, # of connection points: 2
#     Edge 28, Type (0, 0), BuildingBlock: KIFKEQ_clean_linker_1, # of connection points: 2
#     Edge 29, Type (0, 0), BuildingBlock: KIFKEQ_clean_linker_1, # of connection points: 2
#     Edge 30, Type (0, 0), BuildingBlock: KIFKEQ_clean_linker_1, # of connection points: 2
#     Edge 31, Type (0, 0), BuildingBlock: KIFKEQ_clean_linker_1, # of connection points: 2
#     Edge 32, Type (0, 0), BuildingBlock: KIFKEQ_clean_linker_1, # of connection points: 2
#     Edge 33, Type (0, 0), BuildingBlock: KIFKEQ_clean_linker_1, # of connection points: 2
#     Edge 34, Type (0, 0), BuildingBlock: KIFKEQ_clean_linker_1, # of connection points: 2
#     Edge 35, Type (0, 0), BuildingBlock: KIFKEQ_clean_linker_1, # of connection points: 2
# Relax obj value: 0.144
# Max RMSD: 0.133
# Mean RMSD: 0.133
data_MOF--net-uoq--node1-KUFVIS_clean_sbu_0--edge1-KIFKEQ_clean_linker_1
_symmetry_space_group_name_H-M    P1
_symmetry_Int_Tables_number       1
_symmetry_cell_setting            triclinic
loop_
_symmetry_equiv_pos_as_xyz
'x, y, z'
_cell_length_a     59.785377
_cell_length_b     59.790375
_cell_length_c     22.51702
_cell_angle_alpha  89.982104
_cell_angle_beta   89.991971
_cell_angle_gamma 119.97817
loop_
_atom_site_label
_atom_site_type_symbol
_atom_site_fract_x
_atom_site_fract_y
_atom_site_fract_z
_atom_type_partial_charge
Mn0 Mn 0.30705 0.45163 0.26161 0.0
Mn1 Mn 0.31729 0.44148 0.405 0.0
C2 C 0.29148 0.46529 0.3398 0.0
C3 C 0.28088 0.43908 0.17554 0.0
C4 C 0.35822 0.484 0.32839 0.0
O5 O 0.31819 0.42412 0.25379 0.0
O6 O 0.32188 0.4181 0.35167 0.0
C7 C 0.27209 0.38899 0.41837 0.0
N8 N 0.28624 0.41383 0.4375 0.0
C9 C 0.25906 0.40487 0.52325 0.0
C10 C 0.2443 0.3791 0.50478 0.0
C11 C 0.25071 0.37119 0.45181 0.0
C12 C 0.27979 0.42182 0.48742 0.0
H13 H 0.27712 0.38284 0.37796 0.0
C14 C 0.32254 0.41282 0.29703 0.0
O15 O 0.30545 0.45567 0.17308 0.0
O16 O 0.27209 0.42837 0.22675 0.0
N17 N 0.31353 0.46272 0.46312 0.0
C18 C 0.3295 0.48832 0.47426 0.0
C19 C 0.32543 0.49945 0.52506 0.0
C20 C 0.30543 0.48403 0.56467 0.0
C21 C 0.28964 0.4576 0.55304 0.0
C22 C 0.29443 0.44766 0.50138 0.0
H23 H 0.34526 0.50017 0.44468 0.0
O24 O 0.29439 0.47558 0.28768 0.0
O25 O 0.29737 0.44729 0.34449 0.0
O26 O 0.34455 0.47931 0.28136 0.0
O27 O 0.34993 0.47062 0.37587 0.0
C28 C 0.26943 0.44071 0.59085 0.0
C29 C 0.25406 0.41439 0.5758 0.0
H30 H 0.22796 0.36527 0.53077 0.0
H31 H 0.23935 0.35137 0.43708 0.0
H32 H 0.33782 0.51983 0.53393 0.0
H33 H 0.30239 0.49266 0.60391 0.0
H34 H 0.26531 0.44783 0.63123 0.0
H35 H 0.23831 0.40168 0.60474 0.0
Mn36 Mn 0.85946 0.30522 0.59555 0.0
Mn37 Mn 0.88023 0.31431 0.73867 0.0
C38 C 0.83048 0.28803 0.67391 0.0
C39 C 0.84623 0.2806 0.50729 0.0
C40 C 0.87723 0.35541 0.66579 0.0
O41 O 0.89832 0.3175 0.58642 0.0
O42 O 0.90825 0.32014 0.68406 0.0
C43 C 0.88885 0.26978 0.74766 0.0
N44 N 0.87775 0.28327 0.76872 0.0
C45 C 0.86025 0.25504 0.85306 0.0
C46 C 0.87168 0.24094 0.83259 0.0
C47 C 0.88587 0.24822 0.77937 0.0
C48 C 0.86346 0.27601 0.81892 0.0
H49 H 0.8999 0.27545 0.70704 0.0
C50 C 0.91414 0.32164 0.62917 0.0
O51 O 0.85337 0.30499 0.5078 0.0
O52 O 0.84876 0.27105 0.55689 0.0
N53 N 0.85524 0.30935 0.79798 0.0
C54 C 0.84517 0.32478 0.8112 0.0
C55 C 0.83012 0.31989 0.86264 0.0
C56 C 0.82614 0.29962 0.90076 0.0
C57 C 0.83724 0.28441 0.88703 0.0
C58 C 0.85182 0.29003 0.83485 0.0
H59 H 0.8486 0.34074 0.78277 0.0
O60 O 0.82279 0.29131 0.62253 0.0
O61 O 0.85455 0.29445 0.67788 0.0
O62 O 0.86826 0.34209 0.61837 0.0
O63 O 0.88284 0.34696 0.71226 0.0
C64 C 0.8345 0.26397 0.92321 0.0
C65 C 0.84582 0.24915 0.90599 0.0
H66 H 0.86962 0.22445 0.85724 0.0
H67 H 0.89465 0.23737 0.76311 0.0
H68 H 0.82179 0.33184 0.87314 0.0
H69 H 0.81459 0.29594 0.94048 0.0
H70 H 0.82341 0.25922 0.96394 0.0
H71 H 0.84318 0.23318 0.93364 0.0
Mn72 Mn 0.55862 0.85706 0.93175 0.0
Mn73 Mn 0.56823 0.87678 0.0756 0.0
C74 C 0.54476 0.82749 1.00933 0.0
C75 C 0.5714 0.84375 0.84553 0.0
C76 C 0.52599 0.87555 0.99859 0.0
O77 O 0.58612 0.89575 0.92485 0.0
O78 O 0.59176 0.90499 0.02298 0.0
C79 C 0.62072 0.88406 0.08946 0.0
N80 N 0.5958 0.87327 0.10823 0.0
C81 C 0.60454 0.85481 0.19383 0.0
C82 C 0.63037 0.86592 0.17576 0.0
C83 C 0.63843 0.88041 0.12303 0.0
C84 C 0.58766 0.85865 0.15786 0.0
H85 H 0.62697 0.89537 0.04924 0.0
C86 C 0.59723 0.9112 0.96851 0.0
O87 O 0.55483 0.85177 0.84313 0.0
O88 O 0.582 0.8455 0.8968 0.0
N89 N 0.54682 0.85151 0.13306 0.0
C90 C 0.52116 0.84179 0.1438 0.0
C91 C 0.50988 0.82637 0.19425 0.0
C92 C 0.5252 0.82169 0.23396 0.0
C93 C 0.55167 0.83243 0.22276 0.0
C94 C 0.56178 0.84736 0.1714 0.0
H95 H 0.5094 0.84579 0.11416 0.0
O96 O 0.53462 0.82034 0.95703 0.0
O97 O 0.56271 0.85136 0.01456 0.0
O98 O 0.53086 0.86678 0.95146 0.0
O99 O 0.53916 0.88038 0.04632 0.0
C100 C 0.56848 0.82904 0.26073 0.0
C101 C 0.59487 0.84012 0.24613 0.0
H102 H 0.64415 0.86336 0.20188 0.0
H103 H 0.6583 0.88894 0.1086 0.0
H104 H 0.48946 0.81832 0.2028 0.0
H105 H 0.51645 0.80988 0.27295 0.0
H106 H 0.56124 0.81766 0.3009 0.0
H107 H 0.6075 0.83702 0.27519 0.0
Mn108 Mn 0.70634 0.5571 0.26766 0.0
Mn109 Mn 0.6954 0.56645 0.41112 0.0
C110 C 0.72185 0.54334 0.3458 0.0
C111 C 0.73264 0.57002 0.18183 0.0
C112 C 0.65499 0.52409 0.33344 0.0
O113 O 0.69499 0.58446 0.26014 0.0
O114 O 0.69061 0.5898 0.35806 0.0
C115 C 0.74014 0.61916 0.42547 0.0
N116 N 0.7262 0.59422 0.44417 0.0
C117 C 0.75332 0.60317 0.52998 0.0
C118 C 0.76787 0.62902 0.51195 0.0
C119 C 0.76137 0.63699 0.45917 0.0
C120 C 0.73272 0.58618 0.49392 0.0
H121 H 0.73506 0.62535 0.3852 0.0
C122 C 0.69019 0.59536 0.30352 0.0
O123 O 0.7081 0.55335 0.17916 0.0
O124 O 0.74134 0.58061 0.23318 0.0
N125 N 0.69932 0.54521 0.46897 0.0
C126 C 0.68354 0.51953 0.47973 0.0
C127 C 0.6877 0.50835 0.53034 0.0
C128 C 0.70758 0.52379 0.57016 0.0
C129 C 0.72316 0.55028 0.55893 0.0
C130 C 0.71829 0.56028 0.50746 0.0
H131 H 0.66788 0.50767 0.44998 0.0
O132 O 0.71915 0.53324 0.29352 0.0
O133 O 0.71576 0.56119 0.35071 0.0
O134 O 0.66886 0.52919 0.28663 0.0
O135 O 0.66301 0.53717 0.38136 0.0
C136 C 0.74325 0.56718 0.59695 0.0
C137 C 0.75841 0.59358 0.58231 0.0
H138 H 0.7841 0.64288 0.53814 0.0
H139 H 0.77258 0.65688 0.44478 0.0
H140 H 0.67546 0.48792 0.53891 0.0
H141 H 0.71068 0.51512 0.60924 0.0
H142 H 0.74743 0.56002 0.63718 0.0
H143 H 0.77408 0.6063 0.61141 0.0
Mn144 Mn 0.15375 0.70464 0.59756 0.0
Mn145 Mn 0.13459 0.69356 0.74186 0.0
C146 C 0.18336 0.72096 0.67477 0.0
C147 C 0.1667 0.73061 0.51119 0.0
C148 C 0.13923 0.6545 0.66599 0.0
O149 O 0.11503 0.69275 0.59033 0.0
O150 O 0.1054 0.68435 0.68769 0.0
C151 C 0.12058 0.73456 0.74807 0.0
N152 N 0.13375 0.72329 0.77022 0.0
C153 C 0.14979 0.75319 0.85189 0.0
C154 C 0.13617 0.76494 0.83031 0.0
C155 C 0.12167 0.75571 0.77787 0.0
C156 C 0.14842 0.73254 0.81954 0.0
H157 H 0.10939 0.7275 0.70796 0.0
C158 C 0.09903 0.68468 0.63378 0.0
O159 O 0.15907 0.70611 0.50897 0.0
O160 O 0.16475 0.7394 0.56235 0.0
N161 N 0.16029 0.70154 0.80169 0.0
C162 C 0.17174 0.68766 0.81771 0.0
C163 C 0.18688 0.6943 0.86937 0.0
C164 C 0.18945 0.71466 0.9052 0.0
C165 C 0.17672 0.72807 0.88916 0.0
C166 C 0.16211 0.72073 0.83681 0.0
H167 H 0.16924 0.67157 0.79142 0.0
O168 O 0.19052 0.71792 0.62253 0.0
O169 O 0.15936 0.71462 0.68057 0.0
O170 O 0.14454 0.66722 0.61731 0.0
O171 O 0.13597 0.66278 0.71573 0.0
C172 C 0.17768 0.74822 0.92349 0.0
C173 C 0.16454 0.76103 0.90443 0.0
H174 H 0.13674 0.78108 0.85356 0.0
H175 H 0.11121 0.76476 0.76069 0.0
H176 H 0.19635 0.68359 0.88183 0.0
H177 H 0.20108 0.71969 0.94513 0.0
H178 H 0.18874 0.75424 0.96429 0.0
H179 H 0.1658 0.7768 0.93068 0.0
Mn180 Mn 0.45361 0.1511 0.92718 0.0
Mn181 Mn 0.44445 0.1311 0.07084 0.0
C182 C 0.46761 0.18052 1.005 0.0
C183 C 0.44057 0.16438 0.84141 0.0
C184 C 0.4865 0.13256 0.99265 0.0
O185 O 0.42612 0.11243 0.92024 0.0
O186 O 0.42075 0.10297 0.0183 0.0
C187 C 0.39197 0.12368 0.08625 0.0
N188 N 0.41697 0.13453 0.10438 0.0
C189 C 0.40855 0.15301 0.19039 0.0
C190 C 0.38264 0.14186 0.17294 0.0
C191 C 0.37438 0.12732 0.12035 0.0
C192 C 0.4253 0.14917 0.15394 0.0
H193 H 0.38555 0.11232 0.04615 0.0
C194 C 0.41512 0.09689 0.96384 0.0
O195 O 0.45719 0.15643 0.83861 0.0
O196 O 0.43011 0.16263 0.89288 0.0
N197 N 0.46605 0.1563 0.12815 0.0
C198 C 0.49174 0.16602 0.13833 0.0
C199 C 0.50321 0.18143 0.18866 0.0
C200 C 0.48804 0.18614 0.22879 0.0
C201 C 0.46153 0.17541 0.21815 0.0
C202 C 0.45123 0.16046 0.16691 0.0
H203 H 0.5034 0.16202 0.10836 0.0
O204 O 0.47761 0.18779 0.95259 0.0
O205 O 0.44973 0.15662 1.01019 0.0
O206 O 0.48149 0.14144 0.94592 0.0
O207 O 0.47344 0.12756 0.04062 0.0
C208 C 0.44487 0.17885 0.25654 0.0
C209 C 0.41843 0.16775 0.24253 0.0
H210 H 0.36897 0.14442 0.19945 0.0
H211 H 0.35444 0.11874 0.10641 0.0
H212 H 0.52365 0.18948 0.19678 0.0
H213 H 0.49693 0.19795 0.26767 0.0
H214 H 0.45227 0.19026 0.29659 0.0
H215 H 0.4059 0.17087 0.27193 0.0
Mn216 Mn 0.5591 0.70366 0.4254 0.0
Mn217 Mn 0.56932 0.69357 0.28194 0.0
C218 C 0.54542 0.71926 0.3473 0.0
C219 C 0.57155 0.72973 0.51161 0.0
C220 C 0.52677 0.65255 0.35834 0.0
O221 O 0.58662 0.69254 0.43317 0.0
O222 O 0.59267 0.68893 0.33527 0.0
C223 C 0.62181 0.7388 0.26889 0.0
N224 N 0.59698 0.72466 0.24964 0.0
C225 C 0.606 0.75192 0.16402 0.0
C226 C 0.63175 0.76667 0.18262 0.0
C227 C 0.63963 0.76021 0.23558 0.0
C228 C 0.58902 0.73115 0.19972 0.0
H229 H 0.62793 0.73374 0.3093 0.0
C230 C 0.59794 0.68822 0.3899 0.0
O231 O 0.55499 0.70514 0.51393 0.0
O232 O 0.5823 0.73858 0.46046 0.0
N233 N 0.54811 0.69738 0.22382 0.0
C234 C 0.52251 0.68142 0.21256 0.0
C235 C 0.51142 0.68554 0.16176 0.0
C236 C 0.52687 0.70558 0.12225 0.0
C237 C 0.55328 0.72135 0.13399 0.0
C238 C 0.5632 0.71651 0.18565 0.0
H239 H 0.51065 0.66564 0.24206 0.0
O240 O 0.53511 0.71629 0.39942 0.0
O241 O 0.56346 0.71342 0.34255 0.0
O242 O 0.53145 0.66617 0.40545 0.0
O243 O 0.54016 0.6609 0.31088 0.0
C244 C 0.5702 0.74159 0.09629 0.0
C245 C 0.59651 0.75697 0.11147 0.0
H246 H 0.6456 0.78304 0.15672 0.0
H247 H 0.65943 0.77157 0.2504 0.0
H248 H 0.49105 0.67315 0.1528 0.0
H249 H 0.51826 0.70864 0.08301 0.0
H250 H 0.56311 0.74574 0.05591 0.0
H251 H 0.60923 0.77276 0.08263 0.0
Mn252 Mn 0.85987 0.55735 0.76172 0.0
Mn253 Mn 0.87944 0.56664 0.61778 0.0
C254 C 0.83019 0.54335 0.68435 0.0
C255 C 0.84678 0.57038 0.84784 0.0
C256 C 0.87831 0.52459 0.69549 0.0
O257 O 0.89862 0.5848 0.76817 0.0
O258 O 0.90765 0.59049 0.66996 0.0
C259 C 0.88624 0.6189 0.60298 0.0
N260 N 0.87568 0.59397 0.58455 0.0
C261 C 0.857 0.60225 0.4987 0.0
C262 C 0.86792 0.62811 0.51634 0.0
C263 C 0.8824 0.63641 0.56904 0.0
C264 C 0.86103 0.58559 0.53501 0.0
H265 H 0.89746 0.62531 0.64326 0.0
C266 C 0.91397 0.59601 0.72437 0.0
O267 O 0.85474 0.55377 0.85037 0.0
O268 O 0.84847 0.58088 0.79645 0.0
N269 N 0.85416 0.54493 0.56072 0.0
C270 C 0.84456 0.51926 0.55052 0.0
C271 C 0.82912 0.50773 0.50025 0.0
C272 C 0.82429 0.52283 0.46018 0.0
C273 C 0.8349 0.54933 0.47083 0.0
C274 C 0.84987 0.55967 0.52201 0.0
H275 H 0.84867 0.50766 0.58043 0.0
O276 O 0.82308 0.53337 0.73682 0.0
O277 O 0.85408 0.56123 0.67888 0.0
O278 O 0.86943 0.52948 0.7424 0.0
O279 O 0.88328 0.53777 0.6477 0.0
C280 C 0.83132 0.56591 0.4325 0.0
C281 C 0.84227 0.59233 0.44657 0.0
H282 H 0.8652 0.64172 0.48996 0.0
H283 H 0.89075 0.65629 0.5832 0.0
H284 H 0.82117 0.48731 0.49212 0.0
H285 H 0.81245 0.5139 0.42134 0.0
H286 H 0.81989 0.55848 0.39247 0.0
H287 H 0.83902 0.6048 0.41725 0.0
Mn288 Mn 0.30677 0.85836 0.09138 0.0
Mn289 Mn 0.31723 0.87855 0.94782 0.0
C290 C 0.29131 0.82904 0.01342 0.0
C291 C 0.28057 0.84487 0.17737 0.0
C292 C 0.35801 0.87696 0.02496 0.0
O293 O 0.3179 0.897 0.09883 0.0
O294 O 0.32182 0.90659 1.00086 0.0
C295 C 0.27208 0.88591 0.93404 0.0
N296 N 0.28622 0.87516 0.91512 0.0
C297 C 0.25906 0.85685 0.82944 0.0
C298 C 0.2443 0.8679 0.8477 0.0
C299 C 0.25071 0.88231 0.90052 0.0
C300 C 0.27977 0.86064 0.86535 0.0
H301 H 0.2771 0.89715 0.97433 0.0
C302 C 0.32237 0.9126 0.0554 0.0
O303 O 0.30514 0.85286 0.17992 0.0
O304 O 0.27178 0.84672 0.12609 0.0
N305 N 0.31351 0.8535 0.88991 0.0
C306 C 0.32956 0.84393 0.87881 0.0
C307 C 0.32555 0.82874 0.82804 0.0
C308 C 0.30555 0.8241 0.7884 0.0
C309 C 0.2897 0.83469 0.79996 0.0
C310 C 0.29443 0.84943 0.85159 0.0
H311 H 0.34532 0.8479 0.90839 0.0
O312 O 0.29414 0.82173 0.06568 0.0
O313 O 0.2972 0.85292 1.00845 0.0
O314 O 0.34427 0.86811 0.07194 0.0
O315 O 0.34983 0.88199 0.97725 0.0
C316 C 0.26949 0.83132 0.76209 0.0
C317 C 0.25408 0.84227 0.777 0.0
H318 H 0.22797 0.86537 0.82163 0.0
H319 H 0.23935 0.8908 0.91508 0.0
H320 H 0.338 0.82081 0.81921 0.0
H321 H 0.30257 0.81245 0.74919 0.0
H322 H 0.26541 0.82006 0.72177 0.0
H323 H 0.23834 0.83919 0.74801 0.0
Mn324 Mn 0.45314 0.30418 0.42114 0.0
Mn325 Mn 0.4438 0.3148 0.27744 0.0
C326 C 0.46698 0.28856 0.34339 0.0
C327 C 0.44023 0.27804 0.50721 0.0
C328 C 0.48615 0.35538 0.35484 0.0
O329 O 0.42576 0.31551 0.42827 0.0
O330 O 0.42044 0.31969 0.33026 0.0
C331 C 0.39111 0.26998 0.2635 0.0
N332 N 0.41604 0.28391 0.24471 0.0
C333 C 0.40707 0.25661 0.15925 0.0
C334 C 0.38123 0.24208 0.17737 0.0
C335 C 0.37327 0.24867 0.23002 0.0
C336 C 0.42406 0.27729 0.19511 0.0
H337 H 0.38493 0.27513 0.30368 0.0
C338 C 0.41487 0.32021 0.38474 0.0
O339 O 0.45688 0.30259 0.50969 0.0
O340 O 0.42965 0.26925 0.4559 0.0
N341 N 0.46503 0.31077 0.21977 0.0
C342 C 0.4907 0.32658 0.20885 0.0
C343 C 0.50186 0.32235 0.15832 0.0
C344 C 0.48642 0.30237 0.11872 0.0
C345 C 0.45994 0.28677 0.13009 0.0
C346 C 0.44996 0.29172 0.18149 0.0
H347 H 0.50256 0.34232 0.23842 0.0
O348 O 0.47705 0.29137 0.39573 0.0
O349 O 0.44909 0.2946 0.3382 0.0
O350 O 0.48103 0.34162 0.40183 0.0
O351 O 0.47309 0.34727 0.30691 0.0
C352 C 0.44303 0.2666 0.09225 0.0
C353 C 0.41664 0.25143 0.10701 0.0
H354 H 0.36737 0.22578 0.15134 0.0
H355 H 0.35339 0.23748 0.24449 0.0
H356 H 0.52228 0.3346 0.14964 0.0
H357 H 0.49507 0.29921 0.07969 0.0
H358 H 0.45018 0.26236 0.05208 0.0
H359 H 0.40392 0.2357 0.07807 0.0
Mn360 Mn 0.15307 0.45093 0.75516 0.0
Mn361 Mn 0.13358 0.44146 0.61111 0.0
C362 C 0.18274 0.46479 0.67782 0.0
C363 C 0.16637 0.43827 0.84158 0.0
C364 C 0.13505 0.48387 0.68768 0.0
O365 O 0.11441 0.42346 0.762 0.0
O366 O 0.10517 0.41834 0.66386 0.0
C367 C 0.12562 0.38867 0.5986 0.0
N368 N 0.13664 0.41351 0.57922 0.0
C369 C 0.15485 0.40412 0.49414 0.0
C370 C 0.14349 0.37834 0.51281 0.0
C371 C 0.129 0.37064 0.56559 0.0
C372 C 0.15127 0.4213 0.52957 0.0
H373 H 0.11437 0.38269 0.63889 0.0
C374 C 0.09891 0.4127 0.71825 0.0
O375 O 0.15829 0.4548 0.8438 0.0
O376 O 0.16465 0.42762 0.7904 0.0
N377 N 0.15898 0.46243 0.55341 0.0
C378 C 0.16903 0.48809 0.54212 0.0
C379 C 0.18442 0.49902 0.49147 0.0
C380 C 0.18879 0.48336 0.45217 0.0
C381 C 0.17776 0.4569 0.46397 0.0
C382 C 0.16284 0.44715 0.51547 0.0
H383 H 0.16534 0.50014 0.57153 0.0
O384 O 0.1898 0.47496 0.73011 0.0
O385 O 0.15888 0.44682 0.67239 0.0
O386 O 0.1433 0.47863 0.73518 0.0
O387 O 0.13051 0.47093 0.63967 0.0
C388 C 0.18086 0.43978 0.42649 0.0
C389 C 0.16956 0.41344 0.44177 0.0
H390 H 0.14584 0.36434 0.48713 0.0
H391 H 0.12029 0.35082 0.5805 0.0
H392 H 0.19273 0.51943 0.4825 0.0
H393 H 0.2006 0.49184 0.41306 0.0
H394 H 0.19221 0.44674 0.38622 0.0
H395 H 0.17248 0.40057 0.41313 0.0
Mn396 Mn 0.7055 0.15063 0.09169 0.0
Mn397 Mn 0.69658 0.13008 0.94841 0.0
C398 C 0.72277 0.17972 0.01359 0.0
C399 C 0.72998 0.1638 0.18016 0.0
C400 C 0.65543 0.13307 0.02103 0.0
O401 O 0.6932 0.11176 0.10061 0.0
O402 O 0.69054 0.10195 1.0029 0.0
C403 C 0.74104 0.12131 0.93994 0.0
N404 N 0.72764 0.13249 0.91871 0.0
C405 C 0.75607 0.15003 0.83472 0.0
C406 C 0.77008 0.13852 0.85537 0.0
C407 C 0.76265 0.12428 0.9085 0.0
C408 C 0.73505 0.14683 0.8686 0.0
H409 H 0.73525 0.11022 0.98051 0.0
C410 C 0.68899 0.09598 0.05774 0.0
O411 O 0.70558 0.15661 0.17945 0.0
O412 O 0.73962 0.16132 0.13065 0.0
N413 N 0.70174 0.15515 0.88913 0.0
C414 C 0.68635 0.16525 0.87566 0.0
C415 C 0.69137 0.18032 0.82421 0.0
C416 C 0.71171 0.18429 0.78634 0.0
C417 C 0.72686 0.17315 0.80032 0.0
C418 C 0.72111 0.15854 0.85248 0.0
H419 H 0.67035 0.16182 0.90388 0.0
O420 O 0.71942 0.18732 0.065 0.0
O421 O 0.71639 0.15567 1.00942 0.0
O422 O 0.66868 0.14186 0.06862 0.0
O423 O 0.66394 0.12757 0.9745 0.0
C424 C 0.74735 0.17586 0.76438 0.0
C425 C 0.76211 0.1645 0.78184 0.0
H426 H 0.78661 0.14056 0.83093 0.0
H427 H 0.77343 0.11544 0.92491 0.0
H428 H 0.67946 0.18869 0.81352 0.0
H429 H 0.71549 0.19587 0.74663 0.0
H430 H 0.75219 0.18697 0.72365 0.0
H431 H 0.77813 0.16714 0.75439 0.0
H432 H 0.36982 0.42316 0.26061 0.0
H433 H 0.29622 0.36171 0.32102 0.0
H434 H 0.39023 0.39832 0.29126 0.0
H435 H 0.31645 0.33702 0.35301 0.0
H436 H 0.36375 0.29398 0.36094 0.0
H437 H 0.33911 0.31422 0.32853 0.0
H438 H 0.40065 0.38812 0.38883 0.0
H439 H 0.42543 0.36771 0.41989 0.0
C440 C 0.35779 0.40377 0.27761 0.0
C441 C 0.33137 0.39415 0.28737 0.0
C442 C 0.36957 0.38983 0.29691 0.0
C443 C 0.35512 0.36601 0.32641 0.0
C444 C 0.32822 0.35533 0.33082 0.0
C445 C 0.31652 0.36931 0.31164 0.0
C446 C 0.37141 0.31432 0.36987 0.0
C447 C 0.39629 0.32919 0.39393 0.0
C448 C 0.35747 0.32603 0.35046 0.0
C449 C 0.36821 0.35294 0.35438 0.0
C450 C 0.3921 0.36744 0.38356 0.0
C451 C 0.406 0.35567 0.40309 0.0
H452 H 0.95083 0.36976 0.59705 0.0
H453 H 0.93923 0.29522 0.64759 0.0
H454 H 0.99599 0.38985 0.62792 0.0
H455 H 0.98397 0.31509 0.68027 0.0
H456 H 0.07377 0.36186 0.6918 0.0
H457 H 0.02907 0.33794 0.65851 0.0
H458 H 0.01698 0.39904 0.72382 0.0
H459 H 0.06212 0.42323 0.75532 0.0
C460 C 0.95831 0.35753 0.61194 0.0
C461 C 0.94167 0.33089 0.61885 0.0
C462 C 0.98396 0.36908 0.63145 0.0
C463 C 0.99345 0.35421 0.6585 0.0
C464 C 0.97741 0.32722 0.66001 0.0
C465 C 0.95181 0.31573 0.64043 0.0
C466 C 0.0612 0.36958 0.70153 0.0
C467 C 0.07131 0.39421 0.72703 0.0
C468 C 0.03561 0.35603 0.68166 0.0
C469 C 0.01956 0.36688 0.68676 0.0
C470 C 0.02902 0.39044 0.7175 0.0
C471 C 0.05466 0.40398 0.73733 0.0
H472 H 0.64802 0.93609 0.99548 0.0
H473 H 0.58709 0.94818 0.93067 0.0
H474 H 0.67211 0.98081 0.02857 0.0
H475 H 0.61145 0.99332 0.96207 0.0
H476 H 0.64074 0.0594 0.08927 0.0
H477 H 0.62052 0.01426 0.05818 0.0
H478 H 0.69523 0.02595 1.00657 0.0
H479 H 0.71523 0.07068 0.03939 0.0
C480 C 0.64044 0.94876 0.9854 0.0
C481 C 0.61587 0.93876 0.9596 0.0
C482 C 0.65409 0.97435 1.00517 0.0
C483 C 0.6434 0.99053 0.9997 0.0
C484 C 0.61992 0.98118 0.96866 0.0
C485 C 0.60628 0.95554 0.94889 0.0
C486 C 0.65293 0.05185 0.07448 0.0
C487 C 0.6796 0.0684 0.06785 0.0
C488 C 0.6413 0.02621 0.05484 0.0
C489 C 0.65613 0.01664 0.02797 0.0
C490 C 0.68313 0.03259 0.02669 0.0
C491 C 0.6947 0.05818 0.04636 0.0
H492 H 0.64267 0.58476 0.2686 0.0
H493 H 0.71653 0.64656 0.32651 0.0
H494 H 0.62234 0.60966 0.29927 0.0
H495 H 0.69637 0.67133 0.35851 0.0
H496 H 0.64898 0.71434 0.36522 0.0
H497 H 0.67356 0.69395 0.33357 0.0
H498 H 0.61232 0.62043 0.39666 0.0
H499 H 0.58758 0.64098 0.42699 0.0
C500 C 0.65475 0.60423 0.28507 0.0
C501 C 0.68124 0.61394 0.29403 0.0
C502 C 0.64303 0.6182 0.30439 0.0
C503 C 0.6576 0.64218 0.33315 0.0
C504 C 0.68452 0.65291 0.33689 0.0
C505 C 0.69617 0.63889 0.3177 0.0
C506 C 0.64138 0.69407 0.37495 0.0
C507 C 0.61657 0.67933 0.39953 0.0
C508 C 0.65529 0.68227 0.35598 0.0
C509 C 0.6446 0.65539 0.36088 0.0
C510 C 0.62082 0.64107 0.39064 0.0
C511 C 0.60694 0.65293 0.40975 0.0
H512 H 0.95065 0.58704 0.77073 0.0
H513 H 0.93933 0.64583 0.68923 0.0
H514 H 0.99608 0.61048 0.74117 0.0
H515 H 0.98418 0.66877 0.65743 0.0
H516 H 0.07337 0.71121 0.64144 0.0
H517 H 0.02897 0.69255 0.6762 0.0
H518 H 0.01766 0.61604 0.6485 0.0
H519 H 0.06252 0.635 0.61649 0.0
C520 C 0.95819 0.60562 0.74904 0.0
C521 C 0.94155 0.61478 0.733 0.0
C522 C 0.98403 0.61869 0.73037 0.0
C523 C 0.99367 0.64112 0.69498 0.0
C524 C 0.97758 0.65157 0.68426 0.0
C525 C 0.95185 0.63856 0.70314 0.0
C526 C 0.06102 0.69043 0.64044 0.0
C527 C 0.07124 0.67455 0.62524 0.0
C528 C 0.03561 0.67966 0.66115 0.0
C529 C 0.01983 0.65272 0.66698 0.0
C530 C 0.02945 0.63687 0.64656 0.0
C531 C 0.05491 0.64768 0.62631 0.0
H532 H 0.29604 0.93737 0.03127 0.0
H533 H 0.36973 0.94957 0.09114 0.0
H534 H 0.3163 0.98213 0.99807 0.0
H535 H 0.39016 0.99464 0.05926 0.0
H536 H 0.42524 0.05965 0.92886 0.0
H537 H 0.40031 0.01463 0.96093 0.0
H538 H 0.33922 0.02775 0.02124 0.0
H539 H 0.36401 0.07246 0.98784 0.0
C540 C 0.31637 0.95007 0.04028 0.0
C541 C 0.33124 0.94012 0.06473 0.0
C542 C 0.32809 0.97565 0.0204 0.0
C543 C 0.355 0.99179 0.02427 0.0
C544 C 0.36947 0.9825 0.05401 0.0
C545 C 0.35769 0.9569 0.07402 0.0
C546 C 0.40587 0.05246 0.94585 0.0
C547 C 0.39635 0.0694 0.95479 0.0
C548 C 0.39189 0.02689 0.96597 0.0
C549 C 0.3681 0.01778 0.9955 0.0
C550 C 0.3575 0.03409 0.99908 0.0
C551 C 0.37153 0.05964 0.97907 0.0
H552 H 0.19759 0.41701 0.83848 0.0
H553 H 0.16757 0.45175 0.95902 0.0
H554 H 0.22457 0.41531 0.91792 0.0
H555 H 0.19425 0.44949 0.03899 0.0
H556 H 0.2284 0.41764 0.17919 0.0
H557 H 0.19947 0.4155 0.09985 0.0
H558 H 0.26372 0.4497 0.97807 0.0
H559 H 0.29289 0.45241 0.05793 0.0
C560 C 0.19638 0.42389 0.88219 0.0
C561 C 0.18026 0.43444 0.89227 0.0
C562 C 0.21205 0.4231 0.92763 0.0
C563 C 0.2117 0.43235 0.98482 0.0
C564 C 0.19491 0.44207 0.99554 0.0
C565 C 0.17961 0.44337 0.9497 0.0
C566 C 0.23638 0.42445 0.13535 0.0
C567 C 0.26305 0.43512 0.12503 0.0
C568 C 0.21977 0.4234 0.08997 0.0
C569 C 0.22924 0.43251 0.0326 0.0
C570 C 0.25575 0.44239 0.02167 0.0
C571 C 0.27249 0.44394 0.06744 0.0
H572 H 0.82233 0.29057 0.41599 0.0
H573 H 0.83749 0.23178 0.48293 0.0
H574 H 0.79427 0.26075 0.33931 0.0
H575 H 0.80993 0.20218 0.40471 0.0
H576 H 0.77887 0.17279 0.20488 0.0
H577 H 0.80833 0.20049 0.28314 0.0
H578 H 0.74943 0.21577 0.34798 0.0
H579 H 0.71975 0.18757 0.27127 0.0
C580 C 0.82013 0.27147 0.41365 0.0
C581 C 0.83229 0.26365 0.45564 0.0
C582 C 0.80385 0.25431 0.36997 0.0
C583 C 0.79972 0.22904 0.36618 0.0
C584 C 0.81273 0.22152 0.40646 0.0
C585 C 0.82855 0.2385 0.45117 0.0
C586 C 0.77204 0.18167 0.23653 0.0
C587 C 0.74685 0.1778 0.23188 0.0
C588 C 0.78895 0.19757 0.28126 0.0
C589 C 0.78129 0.21052 0.32139 0.0
C590 C 0.75597 0.20625 0.31743 0.0
C591 C 0.73889 0.18988 0.27374 0.0
H592 H 0.55812 0.84258 0.72795 0.0
H593 H 0.59276 0.81262 0.84895 0.0
H594 H 0.56065 0.81604 0.64804 0.0
H595 H 0.59473 0.78576 0.76955 0.0
H596 H 0.55808 0.71758 0.62911 0.0
H597 H 0.56055 0.74663 0.709 0.0
H598 H 0.59483 0.81101 0.58758 0.0
H599 H 0.59291 0.7822 0.50821 0.0
C600 C 0.56653 0.83059 0.73739 0.0
C601 C 0.57535 0.82991 0.79493 0.0
C602 C 0.56798 0.81536 0.69158 0.0
C603 C 0.57776 0.79863 0.70243 0.0
C604 C 0.5869 0.79824 0.75974 0.0
C605 C 0.58596 0.81384 0.80515 0.0
C606 C 0.56651 0.73798 0.61969 0.0
C607 C 0.57541 0.7475 0.56219 0.0
C608 C 0.56793 0.75465 0.66549 0.0
C609 C 0.57776 0.78117 0.65466 0.0
C610 C 0.58696 0.7907 0.59738 0.0
C611 C 0.58605 0.77416 0.55198 0.0
H612 H 0.78515 0.59158 0.18551 0.0
H613 H 0.7207 0.55694 0.0642 0.0
H614 H 0.81411 0.5938 0.1061 0.0
H615 H 0.74988 0.5597 0.98433 0.0
H616 H 0.8158 0.5919 0.84453 0.0
H617 H 0.789 0.59393 0.92403 0.0
H618 H 0.81926 0.55978 0.04544 0.0
H619 H 0.84574 0.55721 0.96544 0.0
C620 C 0.77719 0.58484 0.14165 0.0
C621 C 0.75053 0.57415 0.13132 0.0
C622 C 0.79381 0.58593 0.09624 0.0
C623 C 0.78435 0.57685 0.03886 0.0
C624 C 0.75785 0.56699 0.02793 0.0
C625 C 0.74111 0.56541 0.07371 0.0
C626 C 0.81704 0.58511 0.88833 0.0
C627 C 0.83306 0.57446 0.8985 0.0
C628 C 0.80148 0.58609 0.9338 0.0
C629 C 0.80186 0.57693 0.9911 0.0
C630 C 0.81858 0.56713 1.00191 0.0
C631 C 0.83377 0.56566 0.95605 0.0
H632 H 0.16807 0.7185 0.39372 0.0
H633 H 0.19731 0.78314 0.51438 0.0
H634 H 0.19451 0.74764 0.31376 0.0
H635 H 0.22408 0.81203 0.43495 0.0
H636 H 0.29257 0.84373 0.29501 0.0
H637 H 0.26347 0.81715 0.37485 0.0
H638 H 0.19925 0.78675 0.25302 0.0
H639 H 0.22811 0.81365 0.17369 0.0
C640 C 0.17988 0.73893 0.40306 0.0
C641 C 0.1804 0.74842 0.46052 0.0
C642 C 0.19505 0.75564 0.35723 0.0
C643 C 0.21155 0.78218 0.368 0.0
C644 C 0.21176 0.79171 0.42521 0.0
C645 C 0.19622 0.77512 0.47064 0.0
C646 C 0.27218 0.8317 0.28549 0.0
C647 C 0.26273 0.831 0.22789 0.0
C648 C 0.25549 0.81645 0.33125 0.0
C649 C 0.22901 0.79968 0.32028 0.0
C650 C 0.21953 0.79927 0.26291 0.0
C651 C 0.23609 0.81489 0.21754 0.0
H652 H 0.41911 0.19542 0.84512 0.0
H653 H 0.45344 0.1653 0.72368 0.0
H654 H 0.41686 0.22211 0.76563 0.0
H655 H 0.45066 0.19168 0.64373 0.0
H656 H 0.41855 0.22552 0.50403 0.0
H657 H 0.41647 0.1967 0.5836 0.0
H658 H 0.45089 0.26113 0.70474 0.0
H659 H 0.45351 0.29018 0.6247 0.0
C660 C 0.42577 0.19412 0.80121 0.0
C661 C 0.43639 0.17808 0.79087 0.0
C662 C 0.42467 0.20962 0.75575 0.0
C663 C 0.43366 0.20915 0.69832 0.0
C664 C 0.44343 0.19242 0.68737 0.0
C665 C 0.44503 0.17729 0.7332 0.0
C666 C 0.42539 0.23356 0.54779 0.0
C667 C 0.43613 0.26024 0.55788 0.0
C668 C 0.42438 0.21702 0.59329 0.0
C669 C 0.4336 0.22657 0.65053 0.0
C670 C 0.44349 0.25309 0.66126 0.0
C671 C 0.445 0.26976 0.61537 0.0
H672 H 0.19031 0.42735 0.63712 0.0
H673 H 0.21823 0.50885 0.62069 0.0
H674 H 0.21739 0.42924 0.55655 0.0
H675 H 0.24453 0.51104 0.53551 0.0
H676 H 0.30033 0.50914 0.3984 0.0
H677 H 0.27632 0.51106 0.48412 0.0
H678 H 0.22149 0.42941 0.46167 0.0
H679 H 0.24651 0.42778 0.38044 0.0
C680 C 0.20247 0.44579 0.61563 0.0
C681 C 0.20184 0.4678 0.63345 0.0
C682 C 0.21793 0.44697 0.5685 0.0
C683 C 0.23293 0.47019 0.53699 0.0
C684 C 0.23351 0.49273 0.55801 0.0
C685 C 0.21836 0.49159 0.60666 0.0
C686 C 0.28292 0.49185 0.41224 0.0
C687 C 0.27552 0.46817 0.38478 0.0
C688 C 0.26897 0.49284 0.4612 0.0
C689 C 0.24696 0.47026 0.48192 0.0
C690 C 0.23869 0.44716 0.44991 0.0
C691 C 0.25287 0.44612 0.40241 0.0
H692 H 0.82366 0.24323 0.71488 0.0
H693 H 0.7954 0.29649 0.73285 0.0
H694 H 0.79707 0.21803 0.79618 0.0
H695 H 0.76965 0.27244 0.81855 0.0
H696 H 0.71413 0.2148 0.95523 0.0
H697 H 0.73808 0.24073 0.86966 0.0
H698 H 0.79273 0.21358 0.8911 0.0
H699 H 0.76762 0.18677 0.97226 0.0
C700 C 0.81156 0.24944 0.73689 0.0
C701 C 0.81192 0.27198 0.71924 0.0
C702 C 0.79636 0.23515 0.7844 0.0
C703 C 0.78136 0.24325 0.81636 0.0
C704 C 0.78062 0.26518 0.79566 0.0
C705 C 0.79548 0.27918 0.74671 0.0
C706 C 0.73147 0.21481 0.94119 0.0
C707 C 0.73876 0.19838 0.96833 0.0
C708 C 0.74541 0.22979 0.89232 0.0
C709 C 0.76737 0.22916 0.87138 0.0
C710 C 0.77558 0.21418 0.90306 0.0
C711 C 0.76134 0.19886 0.95048 0.0
H712 H 0.5009 0.79218 0.06747 0.0
H713 H 0.58232 0.81996 0.04933 0.0
H714 H 0.49902 0.76601 0.15268 0.0
H715 H 0.58072 0.79305 0.12997 0.0
H716 H 0.50141 0.71026 0.28926 0.0
H717 H 0.49919 0.73417 0.20366 0.0
H718 H 0.58088 0.78911 0.22492 0.0
H719 H 0.58279 0.7642 0.30609 0.0
C720 C 0.51821 0.79206 0.08114 0.0
C721 C 0.5419 0.80848 0.05381 0.0
C722 C 0.51724 0.77697 0.12979 0.0
C723 C 0.53986 0.77756 0.15031 0.0
C724 C 0.56295 0.79249 0.11836 0.0
C725 C 0.56397 0.80786 0.0712 0.0
C726 C 0.51864 0.72767 0.27519 0.0
C727 C 0.54241 0.73514 0.30231 0.0
C728 C 0.51747 0.74156 0.22631 0.0
C729 C 0.53998 0.76358 0.20532 0.0
C730 C 0.56318 0.77191 0.23695 0.0
C731 C 0.56438 0.75779 0.28439 0.0
H732 H 0.76655 0.58094 0.38741 0.0
H733 H 0.71325 0.49938 0.40357 0.0
H734 H 0.79152 0.5792 0.46863 0.0
H735 H 0.73717 0.49732 0.48929 0.0
H736 H 0.79504 0.49941 0.62627 0.0
H737 H 0.7689 0.49739 0.54093 0.0
H738 H 0.79548 0.579 0.56349 0.0
H739 H 0.82245 0.58075 0.64417 0.0
C740 C 0.76029 0.56253 0.40899 0.0
C741 C 0.7378 0.54045 0.39084 0.0
C742 C 0.77444 0.56143 0.4565 0.0
C743 C 0.76627 0.53822 0.48802 0.0
C744 C 0.74443 0.51562 0.46679 0.0
C745 C 0.73053 0.5167 0.41782 0.0
C746 C 0.79484 0.51668 0.61252 0.0
C747 C 0.81115 0.54039 0.63983 0.0
C748 C 0.77977 0.51562 0.56378 0.0
C749 C 0.78024 0.53818 0.54314 0.0
C750 C 0.79505 0.56129 0.57511 0.0
C751 C 0.81043 0.56239 0.62233 0.0
H752 H 0.21962 0.71319 0.73045 0.0
H753 H 0.19001 0.76548 0.71663 0.0
H754 H 0.24574 0.73723 0.81572 0.0
H755 H 0.21699 0.79073 0.79717 0.0
H756 H 0.24615 0.82122 0.97314 0.0
H757 H 0.22126 0.79457 0.89184 0.0
H758 H 0.27677 0.76858 0.86864 0.0
H759 H 0.3005 0.79433 0.95465 0.0
C760 C 0.21936 0.73032 0.74503 0.0
C761 C 0.2024 0.7372 0.71903 0.0
C762 C 0.23441 0.7443 0.79378 0.0
C763 C 0.23328 0.76586 0.81566 0.0
C764 C 0.21791 0.77379 0.78472 0.0
C765 C 0.20251 0.7595 0.73757 0.0
C766 C 0.25266 0.80939 0.95101 0.0
C767 C 0.27541 0.81017 0.96852 0.0
C768 C 0.23857 0.79419 0.90341 0.0
C769 C 0.24712 0.77966 0.87105 0.0
C770 C 0.26922 0.77923 0.89172 0.0
C771 C 0.28302 0.79408 0.94087 0.0
H772 H 0.43002 0.18789 0.04557 0.0
H773 H 0.51147 0.21577 0.06318 0.0
H774 H 0.43161 0.21466 0.12648 0.0
H775 H 0.51335 0.24175 0.14872 0.0
H776 H 0.51102 0.29731 0.28581 0.0
H777 H 0.51322 0.27337 0.20034 0.0
H778 H 0.43145 0.21862 0.22135 0.0
H779 H 0.42954 0.24366 0.30221 0.0
C780 C 0.44838 0.19996 0.0674 0.0
C781 C 0.47046 0.19944 0.04974 0.0
C782 C 0.44939 0.21524 0.11475 0.0
C783 C 0.47249 0.23015 0.14667 0.0
C784 C 0.49512 0.2308 0.12591 0.0
C785 C 0.49415 0.21583 0.07705 0.0
C786 C 0.49375 0.27995 0.27168 0.0
C787 C 0.46997 0.2726 0.2986 0.0
C788 C 0.49491 0.26603 0.22287 0.0
C789 C 0.47238 0.24408 0.20177 0.0
C790 C 0.44917 0.23581 0.23334 0.0
C791 C 0.44797 0.25 0.28064 0.0
H792 H 0.3833 0.52089 0.24207 0.0
H793 H 0.3927 0.49988 0.42033 0.0
H794 H 0.42481 0.56074 0.25045 0.0
H795 H 0.4341 0.53939 0.42812 0.0
H796 H 0.51079 0.61823 0.26608 0.0
H797 H 0.47129 0.57683 0.25821 0.0
H798 H 0.45013 0.58583 0.43629 0.0
H799 H 0.48997 0.62733 0.44475 0.0
C800 C 0.39429 0.52455 0.28269 0.0
C801 C 0.3845 0.50711 0.33048 0.0
C802 C 0.41813 0.54738 0.28747 0.0
C803 C 0.43269 0.55332 0.34016 0.0
C804 C 0.42319 0.53561 0.38732 0.0
C805 C 0.39947 0.51282 0.38253 0.0
C806 C 0.4979 0.61139 0.30395 0.0
C807 C 0.50366 0.62628 0.35615 0.0
C808 C 0.4751 0.58767 0.29912 0.0
C809 C 0.45745 0.57809 0.34637 0.0
C810 C 0.46344 0.59257 0.39919 0.0
C811 C 0.48627 0.61641 0.40402 0.0
H812 H 0.89747 0.50865 0.60479 0.0
H813 H 0.8658 0.48766 0.78203 0.0
H814 H 0.89901 0.46891 0.59776 0.0
H815 H 0.86706 0.44758 0.77438 0.0
H816 H 0.86631 0.3812 0.57973 0.0
H817 H 0.86828 0.42281 0.58859 0.0
H818 H 0.89659 0.43049 0.76816 0.0
H819 H 0.89431 0.38887 0.75991 0.0
C820 C 0.89096 0.49567 0.64252 0.0
C821 C 0.88142 0.50143 0.69403 0.0
C822 C 0.89168 0.47274 0.63818 0.0
C823 C 0.88295 0.45495 0.68522 0.0
C824 C 0.87412 0.46098 0.73745 0.0
C825 C 0.87335 0.48396 0.74181 0.0
C826 C 0.87313 0.39182 0.62097 0.0
C827 C 0.8801 0.38155 0.66904 0.0
C828 C 0.87435 0.41574 0.62599 0.0
C829 C 0.88252 0.42995 0.6792 0.0
C830 C 0.88987 0.41989 0.72687 0.0
C831 C 0.88872 0.39605 0.72185 0.0
H832 H 0.48958 0.86433 0.91146 0.0
H833 H 0.50983 0.89393 0.09047 0.0
H834 H 0.44991 0.86639 0.91898 0.0
H835 H 0.47052 0.89626 0.09738 0.0
H836 H 0.39278 0.89537 0.93347 0.0
H837 H 0.43408 0.89695 0.92652 0.0
H838 H 0.42405 0.8663 0.10436 0.0
H839 H 0.38268 0.86498 0.11191 0.0
C840 C 0.48579 0.87156 0.95208 0.0
C841 C 0.50296 0.87887 1.00032 0.0
C842 C 0.46307 0.87281 0.95636 0.0
C843 C 0.45697 0.88135 1.00898 0.0
C844 C 0.47441 0.8892 0.05661 0.0
C845 C 0.4971 0.88802 0.05234 0.0
C846 C 0.39938 0.88915 0.97147 0.0
C847 C 0.38425 0.87998 0.02334 0.0
C848 C 0.42304 0.88989 0.96718 0.0
C849 C 0.43229 0.88158 0.01464 0.0
C850 C 0.41756 0.87306 0.06712 0.0
C851 C 0.3938 0.87225 0.07142 0.0
H852 H 0.63062 0.48784 0.24564 0.0
H853 H 0.61991 0.50739 0.42429 0.0
H854 H 0.58909 0.44794 0.25186 0.0
H855 H 0.57843 0.46784 0.42989 0.0
H856 H 0.52222 0.37999 0.44284 0.0
H857 H 0.56215 0.42147 0.43649 0.0
H858 H 0.54267 0.43164 0.25764 0.0
H859 H 0.50308 0.39019 0.26339 0.0
C860 C 0.61933 0.48385 0.28591 0.0
C861 C 0.62876 0.5009 0.33443 0.0
C862 C 0.59547 0.46099 0.28943 0.0
C863 C 0.5805 0.45463 0.34156 0.0
C864 C 0.58965 0.47194 0.38948 0.0
C865 C 0.61342 0.49476 0.38597 0.0
C866 C 0.52631 0.39115 0.40236 0.0
C867 C 0.50936 0.3816 0.35367 0.0
C868 C 0.54919 0.41499 0.39875 0.0
C869 C 0.55567 0.42982 0.34638 0.0
C870 C 0.53847 0.42054 0.29825 0.0
C871 C 0.51563 0.39679 0.30185 0.0
H872 H 0.10801 0.61184 0.59966 0.0
H873 H 0.1678 0.64047 0.73268 0.0
H874 H 0.10398 0.56905 0.60693 0.0
H875 H 0.16453 0.59843 0.73918 0.0
H876 H 0.13898 0.51578 0.77996 0.0
H877 H 0.13796 0.55597 0.77428 0.0
H878 H 0.12519 0.54565 0.58487 0.0
H879 H 0.12505 0.50514 0.59088 0.0
C880 C 0.12042 0.60897 0.63002 0.0
C881 C 0.13793 0.62924 0.66629 0.0
C882 C 0.11817 0.58453 0.63428 0.0
C883 C 0.13369 0.58009 0.67435 0.0
C884 C 0.15166 0.60078 0.70928 0.0
C885 C 0.15364 0.62498 0.70547 0.0
C886 C 0.13566 0.52194 0.73724 0.0
C887 C 0.13228 0.50722 0.68593 0.0
C888 C 0.13528 0.54512 0.73382 0.0
C889 C 0.1318 0.55431 0.67892 0.0
C890 C 0.12764 0.53916 0.628 0.0
C891 C 0.12774 0.51589 0.6315 0.0
H892 H 0.62953 0.14361 0.10748 0.0
H893 H 0.62221 0.11667 0.92642 0.0
H894 H 0.58802 0.14183 0.09874 0.0
H895 H 0.58066 0.11456 0.91827 0.0
H896 H 0.50228 0.11282 0.08239 0.0
H897 H 0.54195 0.11116 0.08888 0.0
H898 H 0.56357 0.14415 0.91323 0.0
H899 H 0.52353 0.14554 0.9061 0.0
C900 C 0.61901 0.13706 0.06606 0.0
C901 C 0.62934 0.13032 0.01772 0.0
C902 C 0.59514 0.13594 0.0611 0.0
C903 C 0.58104 0.12811 1.0077 0.0
C904 C 0.59117 0.12101 0.95973 0.0
C905 C 0.61497 0.12205 0.96468 0.0
C906 C 0.51531 0.11955 0.04475 0.0
C907 C 0.50964 0.12942 0.99369 0.0
C908 C 0.5382 0.11875 0.04878 0.0
C909 C 0.55606 0.12774 1.00188 0.0
C910 C 0.55011 0.13689 0.95004 0.0
C911 C 0.52717 0.13774 0.94599 0.0
loop_
_geom_bond_atom_site_label_1
_geom_bond_atom_site_label_2
_geom_bond_distance
_geom_bond_site_symmetry_2
_ccdc_geom_bond_type
Mn0 O5 2.095 . S
Mn0 O15 2.162 . S
Mn0 O16 2.297 . S
Mn0 O24 2.385 . S
Mn0 O25 2.209 . S
Mn0 O26 2.094 . S
Mn1 O6 2.121 . S
Mn1 N8 2.257 . S
Mn1 N17 2.282 . S
Mn1 O25 2.215 . S
Mn1 O27 2.117 . S
C2 O24 1.234 . S
C2 O25 1.283 . S
C3 O15 1.281 . S
C3 O16 1.236 . S
C4 O26 1.240 . S
C4 O27 1.264 . S
O5 Mn0 2.095 . S
O5 C14 1.250 . S
O6 Mn1 2.121 . S
O6 C14 1.258 . S
C7 N8 1.326 . S
C7 C11 1.460 . S
C7 H13 0.929 . S
N8 Mn1 2.257 . S
N8 C7 1.326 . S
N8 C12 1.362 . S
C9 C10 1.258 . S
C9 C12 1.431 . S
C9 C29 1.449 . S
C10 C9 1.258 . S
C10 C11 1.477 . S
C10 H30 0.931 . S
C11 C7 1.460 . S
C11 C10 1.477 . S
C11 H31 0.930 . S
C12 N8 1.362 . S
C12 C9 1.431 . S
C12 C22 1.476 . S
H13 C7 0.929 . S
C14 O5 1.250 . S
C14 O6 1.258 . S
O15 Mn0 2.162 . S
O15 C3 1.281 . S
O16 Mn0 2.297 . S
O16 C3 1.236 . S
N17 Mn1 2.282 . S
N17 C18 1.328 . S
N17 C22 1.318 . S
C18 N17 1.328 . S
C18 C19 1.457 . S
C18 H23 0.929 . S
C19 C18 1.457 . S
C19 C20 1.291 . S
C19 H32 0.931 . S
C20 C19 1.291 . S
C20 C21 1.373 . S
C20 H33 0.929 . S
C21 C20 1.373 . S
C21 C22 1.396 . S
C21 C28 1.403 . S
C22 C12 1.476 . S
C22 N17 1.318 . S
C22 C21 1.396 . S
H23 C18 0.929 . S
O24 Mn0 2.385 . S
O24 C2 1.234 . S
O25 Mn0 2.209 . S
O25 Mn1 2.215 . S
O25 C2 1.283 . S
O26 Mn0 2.094 . S
O26 C4 1.240 . S
O27 Mn1 2.117 . S
O27 C4 1.264 . S
C28 C21 1.403 . S
C28 C29 1.399 . S
C28 H34 0.929 . S
C29 C9 1.449 . S
C29 C28 1.399 . S
C29 H35 0.930 . S
H30 C10 0.931 . S
H31 C11 0.930 . S
H32 C19 0.931 . S
H33 C20 0.929 . S
H34 C28 0.929 . S
H35 C29 0.930 . S
Mn36 O41 2.095 . S
Mn36 O51 2.162 . S
Mn36 O52 2.297 . S
Mn36 O60 2.385 . S
Mn36 O61 2.209 . S
Mn36 O62 2.094 . S
Mn37 O42 2.121 . S
Mn37 N44 2.257 . S
Mn37 N53 2.282 . S
Mn37 O61 2.215 . S
Mn37 O63 2.117 . S
C38 O60 1.234 . S
C38 O61 1.283 . S
C39 O51 1.281 . S
C39 O52 1.236 . S
C40 O62 1.240 . S
C40 O63 1.264 . S
O41 Mn36 2.095 . S
O41 C50 1.250 . S
O42 Mn37 2.121 . S
O42 C50 1.258 . S
C43 N44 1.326 . S
C43 C47 1.460 . S
C43 H49 0.929 . S
N44 Mn37 2.257 . S
N44 C43 1.326 . S
N44 C48 1.362 . S
C45 C46 1.258 . S
C45 C48 1.431 . S
C45 C65 1.449 . S
C46 C45 1.258 . S
C46 C47 1.477 . S
C46 H66 0.931 . S
C47 C43 1.460 . S
C47 C46 1.477 . S
C47 H67 0.930 . S
C48 N44 1.362 . S
C48 C45 1.431 . S
C48 C58 1.476 . S
H49 C43 0.929 . S
C50 O41 1.250 . S
C50 O42 1.258 . S
O51 Mn36 2.162 . S
O51 C39 1.281 . S
O52 Mn36 2.297 . S
O52 C39 1.236 . S
N53 Mn37 2.282 . S
N53 C54 1.328 . S
N53 C58 1.318 . S
C54 N53 1.328 . S
C54 C55 1.457 . S
C54 H59 0.929 . S
C55 C54 1.457 . S
C55 C56 1.291 . S
C55 H68 0.931 . S
C56 C55 1.291 . S
C56 C57 1.373 . S
C56 H69 0.929 . S
C57 C56 1.373 . S
C57 C58 1.396 . S
C57 C64 1.403 . S
C58 C48 1.476 . S
C58 N53 1.318 . S
C58 C57 1.396 . S
H59 C54 0.929 . S
O60 Mn36 2.385 . S
O60 C38 1.234 . S
O61 Mn36 2.209 . S
O61 Mn37 2.215 . S
O61 C38 1.283 . S
O62 Mn36 2.094 . S
O62 C40 1.240 . S
O63 Mn37 2.117 . S
O63 C40 1.264 . S
C64 C57 1.403 . S
C64 C65 1.399 . S
C64 H70 0.929 . S
C65 C45 1.449 . S
C65 C64 1.399 . S
C65 H71 0.930 . S
H66 C46 0.931 . S
H67 C47 0.930 . S
H68 C55 0.931 . S
H69 C56 0.929 . S
H70 C64 0.929 . S
H71 C65 0.930 . S
Mn72 O77 2.095 . S
Mn72 O87 2.162 . S
Mn72 O88 2.297 . S
Mn72 O96 2.385 . S
Mn72 O97 2.209 1_556 S
Mn72 O98 2.094 . S
Mn73 O78 2.121 . S
Mn73 N80 2.257 . S
Mn73 N89 2.282 . S
Mn73 O97 2.215 . S
Mn73 O99 2.117 . S
C74 O96 1.234 1_554 S
C74 O97 1.283 . S
C75 O87 1.281 . S
C75 O88 1.236 . S
C76 O98 1.240 . S
C76 O99 1.264 1_556 S
O77 Mn72 2.095 . S
O77 C86 1.250 . S
O78 Mn73 2.121 . S
O78 C86 1.258 1_554 S
C79 N80 1.326 . S
C79 C83 1.460 . S
C79 H85 0.929 . S
N80 Mn73 2.257 . S
N80 C79 1.326 . S
N80 C84 1.362 . S
C81 C82 1.258 . S
C81 C84 1.431 . S
C81 C101 1.449 . S
C82 C81 1.258 . S
C82 C83 1.477 . S
C82 H102 0.931 . S
C83 C79 1.460 . S
C83 C82 1.477 . S
C83 H103 0.930 . S
C84 N80 1.362 . S
C84 C81 1.431 . S
C84 C94 1.476 . S
H85 C79 0.929 . S
C86 O77 1.250 . S
C86 O78 1.258 1_556 S
O87 Mn72 2.162 . S
O87 C75 1.281 . S
O88 Mn72 2.297 . S
O88 C75 1.236 . S
N89 Mn73 2.282 . S
N89 C90 1.328 . S
N89 C94 1.318 . S
C90 N89 1.328 . S
C90 C91 1.457 . S
C90 H95 0.929 . S
C91 C90 1.457 . S
C91 C92 1.291 . S
C91 H104 0.931 . S
C92 C91 1.291 . S
C92 C93 1.373 . S
C92 H105 0.929 . S
C93 C92 1.373 . S
C93 C94 1.396 . S
C93 C100 1.403 . S
C94 C84 1.476 . S
C94 N89 1.318 . S
C94 C93 1.396 . S
H95 C90 0.929 . S
O96 Mn72 2.385 . S
O96 C74 1.234 1_556 S
O97 Mn72 2.209 1_554 S
O97 Mn73 2.215 . S
O97 C74 1.283 . S
O98 Mn72 2.094 . S
O98 C76 1.240 . S
O99 Mn73 2.117 . S
O99 C76 1.264 1_554 S
C100 C93 1.403 . S
C100 C101 1.399 . S
C100 H106 0.929 . S
C101 C81 1.449 . S
C101 C100 1.399 . S
C101 H107 0.930 . S
H102 C82 0.931 . S
H103 C83 0.930 . S
H104 C91 0.931 . S
H105 C92 0.929 . S
H106 C100 0.929 . S
H107 C101 0.930 . S
Mn108 O113 2.095 . S
Mn108 O123 2.162 . S
Mn108 O124 2.297 . S
Mn108 O132 2.385 . S
Mn108 O133 2.209 . S
Mn108 O134 2.094 . S
Mn109 O114 2.121 . S
Mn109 N116 2.257 . S
Mn109 N125 2.282 . S
Mn109 O133 2.215 . S
Mn109 O135 2.117 . S
C110 O132 1.234 . S
C110 O133 1.283 . S
C111 O123 1.281 . S
C111 O124 1.236 . S
C112 O134 1.240 . S
C112 O135 1.264 . S
O113 Mn108 2.095 . S
O113 C122 1.250 . S
O114 Mn109 2.121 . S
O114 C122 1.258 . S
C115 N116 1.326 . S
C115 C119 1.460 . S
C115 H121 0.929 . S
N116 Mn109 2.257 . S
N116 C115 1.326 . S
N116 C120 1.362 . S
C117 C118 1.258 . S
C117 C120 1.431 . S
C117 C137 1.449 . S
C118 C117 1.258 . S
C118 C119 1.477 . S
C118 H138 0.931 . S
C119 C115 1.460 . S
C119 C118 1.477 . S
C119 H139 0.930 . S
C120 N116 1.362 . S
C120 C117 1.431 . S
C120 C130 1.476 . S
H121 C115 0.929 . S
C122 O113 1.250 . S
C122 O114 1.258 . S
O123 Mn108 2.162 . S
O123 C111 1.281 . S
O124 Mn108 2.297 . S
O124 C111 1.236 . S
N125 Mn109 2.282 . S
N125 C126 1.328 . S
N125 C130 1.318 . S
C126 N125 1.328 . S
C126 C127 1.457 . S
C126 H131 0.929 . S
C127 C126 1.457 . S
C127 C128 1.291 . S
C127 H140 0.931 . S
C128 C127 1.291 . S
C128 C129 1.373 . S
C128 H141 0.929 . S
C129 C128 1.373 . S
C129 C130 1.396 . S
C129 C136 1.403 . S
C130 C120 1.476 . S
C130 N125 1.318 . S
C130 C129 1.396 . S
H131 C126 0.929 . S
O132 Mn108 2.385 . S
O132 C110 1.234 . S
O133 Mn108 2.209 . S
O133 Mn109 2.215 . S
O133 C110 1.283 . S
O134 Mn108 2.094 . S
O134 C112 1.240 . S
O135 Mn109 2.117 . S
O135 C112 1.264 . S
C136 C129 1.403 . S
C136 C137 1.399 . S
C136 H142 0.929 . S
C137 C117 1.449 . S
C137 C136 1.399 . S
C137 H143 0.930 . S
H138 C118 0.931 . S
H139 C119 0.930 . S
H140 C127 0.931 . S
H141 C128 0.929 . S
H142 C136 0.929 . S
H143 C137 0.930 . S
Mn144 O149 2.095 . S
Mn144 O159 2.162 . S
Mn144 O160 2.297 . S
Mn144 O168 2.385 . S
Mn144 O169 2.209 . S
Mn144 O170 2.094 . S
Mn145 O150 2.121 . S
Mn145 N152 2.257 . S
Mn145 N161 2.282 . S
Mn145 O169 2.215 . S
Mn145 O171 2.117 . S
C146 O168 1.234 . S
C146 O169 1.283 . S
C147 O159 1.281 . S
C147 O160 1.236 . S
C148 O170 1.240 . S
C148 O171 1.264 . S
O149 Mn144 2.095 . S
O149 C158 1.250 . S
O150 Mn145 2.121 . S
O150 C158 1.258 . S
C151 N152 1.326 . S
C151 C155 1.460 . S
C151 H157 0.929 . S
N152 Mn145 2.257 . S
N152 C151 1.326 . S
N152 C156 1.362 . S
C153 C154 1.258 . S
C153 C156 1.431 . S
C153 C173 1.449 . S
C154 C153 1.258 . S
C154 C155 1.477 . S
C154 H174 0.931 . S
C155 C151 1.460 . S
C155 C154 1.477 . S
C155 H175 0.930 . S
C156 N152 1.362 . S
C156 C153 1.431 . S
C156 C166 1.476 . S
H157 C151 0.929 . S
C158 O149 1.250 . S
C158 O150 1.258 . S
O159 Mn144 2.162 . S
O159 C147 1.281 . S
O160 Mn144 2.297 . S
O160 C147 1.236 . S
N161 Mn145 2.282 . S
N161 C162 1.328 . S
N161 C166 1.318 . S
C162 N161 1.328 . S
C162 C163 1.457 . S
C162 H167 0.929 . S
C163 C162 1.457 . S
C163 C164 1.291 . S
C163 H176 0.931 . S
C164 C163 1.291 . S
C164 C165 1.373 . S
C164 H177 0.929 . S
C165 C164 1.373 . S
C165 C166 1.396 . S
C165 C172 1.403 . S
C166 C156 1.476 . S
C166 N161 1.318 . S
C166 C165 1.396 . S
H167 C162 0.929 . S
O168 Mn144 2.385 . S
O168 C146 1.234 . S
O169 Mn144 2.209 . S
O169 Mn145 2.215 . S
O169 C146 1.283 . S
O170 Mn144 2.094 . S
O170 C148 1.240 . S
O171 Mn145 2.117 . S
O171 C148 1.264 . S
C172 C165 1.403 . S
C172 C173 1.399 . S
C172 H178 0.929 . S
C173 C153 1.449 . S
C173 C172 1.399 . S
C173 H179 0.930 . S
H174 C154 0.931 . S
H175 C155 0.930 . S
H176 C163 0.931 . S
H177 C164 0.929 . S
H178 C172 0.929 . S
H179 C173 0.930 . S
Mn180 O185 2.095 . S
Mn180 O195 2.162 . S
Mn180 O196 2.297 . S
Mn180 O204 2.385 . S
Mn180 O205 2.209 1_556 S
Mn180 O206 2.094 . S
Mn181 O186 2.121 . S
Mn181 N188 2.257 . S
Mn181 N197 2.282 . S
Mn181 O205 2.215 . S
Mn181 O207 2.117 . S
C182 O204 1.234 1_554 S
C182 O205 1.283 . S
C183 O195 1.281 . S
C183 O196 1.236 . S
C184 O206 1.240 . S
C184 O207 1.264 1_556 S
O185 Mn180 2.095 . S
O185 C194 1.250 . S
O186 Mn181 2.121 . S
O186 C194 1.258 1_554 S
C187 N188 1.326 . S
C187 C191 1.460 . S
C187 H193 0.929 . S
N188 Mn181 2.257 . S
N188 C187 1.326 . S
N188 C192 1.362 . S
C189 C190 1.258 . S
C189 C192 1.431 . S
C189 C209 1.449 . S
C190 C189 1.258 . S
C190 C191 1.477 . S
C190 H210 0.931 . S
C191 C187 1.460 . S
C191 C190 1.477 . S
C191 H211 0.930 . S
C192 N188 1.362 . S
C192 C189 1.431 . S
C192 C202 1.476 . S
H193 C187 0.929 . S
C194 O185 1.250 . S
C194 O186 1.258 1_556 S
O195 Mn180 2.162 . S
O195 C183 1.281 . S
O196 Mn180 2.297 . S
O196 C183 1.236 . S
N197 Mn181 2.282 . S
N197 C198 1.328 . S
N197 C202 1.318 . S
C198 N197 1.328 . S
C198 C199 1.457 . S
C198 H203 0.929 . S
C199 C198 1.457 . S
C199 C200 1.291 . S
C199 H212 0.931 . S
C200 C199 1.291 . S
C200 C201 1.373 . S
C200 H213 0.929 . S
C201 C200 1.373 . S
C201 C202 1.396 . S
C201 C208 1.403 . S
C202 C192 1.476 . S
C202 N197 1.318 . S
C202 C201 1.396 . S
H203 C198 0.929 . S
O204 Mn180 2.385 . S
O204 C182 1.234 1_556 S
O205 Mn180 2.209 1_554 S
O205 Mn181 2.215 . S
O205 C182 1.283 . S
O206 Mn180 2.094 . S
O206 C184 1.240 . S
O207 Mn181 2.117 . S
O207 C184 1.264 1_554 S
C208 C201 1.403 . S
C208 C209 1.399 . S
C208 H214 0.929 . S
C209 C189 1.449 . S
C209 C208 1.399 . S
C209 H215 0.930 . S
H210 C190 0.931 . S
H211 C191 0.930 . S
H212 C199 0.931 . S
H213 C200 0.929 . S
H214 C208 0.929 . S
H215 C209 0.930 . S
Mn216 O221 2.095 . S
Mn216 O231 2.162 . S
Mn216 O232 2.297 . S
Mn216 O240 2.385 . S
Mn216 O241 2.209 . S
Mn216 O242 2.094 . S
Mn217 O222 2.121 . S
Mn217 N224 2.257 . S
Mn217 N233 2.282 . S
Mn217 O241 2.215 . S
Mn217 O243 2.117 . S
C218 O240 1.234 . S
C218 O241 1.283 . S
C219 O231 1.281 . S
C219 O232 1.236 . S
C220 O242 1.240 . S
C220 O243 1.264 . S
O221 Mn216 2.095 . S
O221 C230 1.250 . S
O222 Mn217 2.121 . S
O222 C230 1.258 . S
C223 N224 1.326 . S
C223 C227 1.460 . S
C223 H229 0.929 . S
N224 Mn217 2.257 . S
N224 C223 1.326 . S
N224 C228 1.362 . S
C225 C226 1.258 . S
C225 C228 1.431 . S
C225 C245 1.449 . S
C226 C225 1.258 . S
C226 C227 1.477 . S
C226 H246 0.931 . S
C227 C223 1.460 . S
C227 C226 1.477 . S
C227 H247 0.930 . S
C228 N224 1.362 . S
C228 C225 1.431 . S
C228 C238 1.476 . S
H229 C223 0.929 . S
C230 O221 1.250 . S
C230 O222 1.258 . S
O231 Mn216 2.162 . S
O231 C219 1.281 . S
O232 Mn216 2.297 . S
O232 C219 1.236 . S
N233 Mn217 2.282 . S
N233 C234 1.328 . S
N233 C238 1.318 . S
C234 N233 1.328 . S
C234 C235 1.457 . S
C234 H239 0.929 . S
C235 C234 1.457 . S
C235 C236 1.291 . S
C235 H248 0.931 . S
C236 C235 1.291 . S
C236 C237 1.373 . S
C236 H249 0.929 . S
C237 C236 1.373 . S
C237 C238 1.396 . S
C237 C244 1.403 . S
C238 C228 1.476 . S
C238 N233 1.318 . S
C238 C237 1.396 . S
H239 C234 0.929 . S
O240 Mn216 2.385 . S
O240 C218 1.234 . S
O241 Mn216 2.209 . S
O241 Mn217 2.215 . S
O241 C218 1.283 . S
O242 Mn216 2.094 . S
O242 C220 1.240 . S
O243 Mn217 2.117 . S
O243 C220 1.264 . S
C244 C237 1.403 . S
C244 C245 1.399 . S
C244 H250 0.929 . S
C245 C225 1.449 . S
C245 C244 1.399 . S
C245 H251 0.930 . S
H246 C226 0.931 . S
H247 C227 0.930 . S
H248 C235 0.931 . S
H249 C236 0.929 . S
H250 C244 0.929 . S
H251 C245 0.930 . S
Mn252 O257 2.095 . S
Mn252 O267 2.162 . S
Mn252 O268 2.297 . S
Mn252 O276 2.385 . S
Mn252 O277 2.209 . S
Mn252 O278 2.094 . S
Mn253 O258 2.121 . S
Mn253 N260 2.257 . S
Mn253 N269 2.282 . S
Mn253 O277 2.215 . S
Mn253 O279 2.117 . S
C254 O276 1.234 . S
C254 O277 1.283 . S
C255 O267 1.281 . S
C255 O268 1.236 . S
C256 O278 1.240 . S
C256 O279 1.264 . S
O257 Mn252 2.095 . S
O257 C266 1.250 . S
O258 Mn253 2.121 . S
O258 C266 1.258 . S
C259 N260 1.326 . S
C259 C263 1.460 . S
C259 H265 0.929 . S
N260 Mn253 2.257 . S
N260 C259 1.326 . S
N260 C264 1.362 . S
C261 C262 1.258 . S
C261 C264 1.431 . S
C261 C281 1.449 . S
C262 C261 1.258 . S
C262 C263 1.477 . S
C262 H282 0.931 . S
C263 C259 1.460 . S
C263 C262 1.477 . S
C263 H283 0.930 . S
C264 N260 1.362 . S
C264 C261 1.431 . S
C264 C274 1.476 . S
H265 C259 0.929 . S
C266 O257 1.250 . S
C266 O258 1.258 . S
O267 Mn252 2.162 . S
O267 C255 1.281 . S
O268 Mn252 2.297 . S
O268 C255 1.236 . S
N269 Mn253 2.282 . S
N269 C270 1.328 . S
N269 C274 1.318 . S
C270 N269 1.328 . S
C270 C271 1.457 . S
C270 H275 0.929 . S
C271 C270 1.457 . S
C271 C272 1.291 . S
C271 H284 0.931 . S
C272 C271 1.291 . S
C272 C273 1.373 . S
C272 H285 0.929 . S
C273 C272 1.373 . S
C273 C274 1.396 . S
C273 C280 1.403 . S
C274 C264 1.476 . S
C274 N269 1.318 . S
C274 C273 1.396 . S
H275 C270 0.929 . S
O276 Mn252 2.385 . S
O276 C254 1.234 . S
O277 Mn252 2.209 . S
O277 Mn253 2.215 . S
O277 C254 1.283 . S
O278 Mn252 2.094 . S
O278 C256 1.240 . S
O279 Mn253 2.117 . S
O279 C256 1.264 . S
C280 C273 1.403 . S
C280 C281 1.399 . S
C280 H286 0.929 . S
C281 C261 1.449 . S
C281 C280 1.399 . S
C281 H287 0.930 . S
H282 C262 0.931 . S
H283 C263 0.930 . S
H284 C271 0.931 . S
H285 C272 0.929 . S
H286 C280 0.929 . S
H287 C281 0.930 . S
Mn288 O293 2.095 . S
Mn288 O303 2.162 . S
Mn288 O304 2.297 . S
Mn288 O312 2.385 . S
Mn288 O313 2.209 1_554 S
Mn288 O314 2.094 . S
Mn289 O294 2.121 . S
Mn289 N296 2.257 . S
Mn289 N305 2.282 . S
Mn289 O313 2.215 . S
Mn289 O315 2.117 . S
C290 O312 1.234 1_556 S
C290 O313 1.283 . S
C291 O303 1.281 . S
C291 O304 1.236 . S
C292 O314 1.240 . S
C292 O315 1.264 1_554 S
O293 Mn288 2.095 . S
O293 C302 1.250 . S
O294 Mn289 2.121 . S
O294 C302 1.258 1_556 S
C295 N296 1.326 . S
C295 C299 1.460 . S
C295 H301 0.929 . S
N296 Mn289 2.257 . S
N296 C295 1.326 . S
N296 C300 1.362 . S
C297 C298 1.258 . S
C297 C300 1.431 . S
C297 C317 1.449 . S
C298 C297 1.258 . S
C298 C299 1.477 . S
C298 H318 0.931 . S
C299 C295 1.460 . S
C299 C298 1.477 . S
C299 H319 0.930 . S
C300 N296 1.362 . S
C300 C297 1.431 . S
C300 C310 1.476 . S
H301 C295 0.929 . S
C302 O293 1.250 . S
C302 O294 1.258 1_554 S
O303 Mn288 2.162 . S
O303 C291 1.281 . S
O304 Mn288 2.297 . S
O304 C291 1.236 . S
N305 Mn289 2.282 . S
N305 C306 1.328 . S
N305 C310 1.318 . S
C306 N305 1.328 . S
C306 C307 1.457 . S
C306 H311 0.929 . S
C307 C306 1.457 . S
C307 C308 1.291 . S
C307 H320 0.931 . S
C308 C307 1.291 . S
C308 C309 1.373 . S
C308 H321 0.929 . S
C309 C308 1.373 . S
C309 C310 1.396 . S
C309 C316 1.403 . S
C310 C300 1.476 . S
C310 N305 1.318 . S
C310 C309 1.396 . S
H311 C306 0.929 . S
O312 Mn288 2.385 . S
O312 C290 1.234 1_554 S
O313 Mn288 2.209 1_556 S
O313 Mn289 2.215 . S
O313 C290 1.283 . S
O314 Mn288 2.094 . S
O314 C292 1.240 . S
O315 Mn289 2.117 . S
O315 C292 1.264 1_556 S
C316 C309 1.403 . S
C316 C317 1.399 . S
C316 H322 0.929 . S
C317 C297 1.449 . S
C317 C316 1.399 . S
C317 H323 0.930 . S
H318 C298 0.931 . S
H319 C299 0.930 . S
H320 C307 0.931 . S
H321 C308 0.929 . S
H322 C316 0.929 . S
H323 C317 0.930 . S
Mn324 O329 2.095 . S
Mn324 O339 2.162 . S
Mn324 O340 2.297 . S
Mn324 O348 2.385 . S
Mn324 O349 2.209 . S
Mn324 O350 2.094 . S
Mn325 O330 2.121 . S
Mn325 N332 2.257 . S
Mn325 N341 2.282 . S
Mn325 O349 2.215 . S
Mn325 O351 2.117 . S
C326 O348 1.234 . S
C326 O349 1.283 . S
C327 O339 1.281 . S
C327 O340 1.236 . S
C328 O350 1.240 . S
C328 O351 1.264 . S
O329 Mn324 2.095 . S
O329 C338 1.250 . S
O330 Mn325 2.121 . S
O330 C338 1.258 . S
C331 N332 1.326 . S
C331 C335 1.460 . S
C331 H337 0.929 . S
N332 Mn325 2.257 . S
N332 C331 1.326 . S
N332 C336 1.362 . S
C333 C334 1.258 . S
C333 C336 1.431 . S
C333 C353 1.449 . S
C334 C333 1.258 . S
C334 C335 1.477 . S
C334 H354 0.931 . S
C335 C331 1.460 . S
C335 C334 1.477 . S
C335 H355 0.930 . S
C336 N332 1.362 . S
C336 C333 1.431 . S
C336 C346 1.476 . S
H337 C331 0.929 . S
C338 O329 1.250 . S
C338 O330 1.258 . S
O339 Mn324 2.162 . S
O339 C327 1.281 . S
O340 Mn324 2.297 . S
O340 C327 1.236 . S
N341 Mn325 2.282 . S
N341 C342 1.328 . S
N341 C346 1.318 . S
C342 N341 1.328 . S
C342 C343 1.457 . S
C342 H347 0.929 . S
C343 C342 1.457 . S
C343 C344 1.291 . S
C343 H356 0.931 . S
C344 C343 1.291 . S
C344 C345 1.373 . S
C344 H357 0.929 . S
C345 C344 1.373 . S
C345 C346 1.396 . S
C345 C352 1.403 . S
C346 C336 1.476 . S
C346 N341 1.318 . S
C346 C345 1.396 . S
H347 C342 0.929 . S
O348 Mn324 2.385 . S
O348 C326 1.234 . S
O349 Mn324 2.209 . S
O349 Mn325 2.215 . S
O349 C326 1.283 . S
O350 Mn324 2.094 . S
O350 C328 1.240 . S
O351 Mn325 2.117 . S
O351 C328 1.264 . S
C352 C345 1.403 . S
C352 C353 1.399 . S
C352 H358 0.929 . S
C353 C333 1.449 . S
C353 C352 1.399 . S
C353 H359 0.930 . S
H354 C334 0.931 . S
H355 C335 0.930 . S
H356 C343 0.931 . S
H357 C344 0.929 . S
H358 C352 0.929 . S
H359 C353 0.930 . S
Mn360 O365 2.095 . S
Mn360 O375 2.162 . S
Mn360 O376 2.297 . S
Mn360 O384 2.385 . S
Mn360 O385 2.209 . S
Mn360 O386 2.094 . S
Mn361 O366 2.121 . S
Mn361 N368 2.257 . S
Mn361 N377 2.282 . S
Mn361 O385 2.215 . S
Mn361 O387 2.117 . S
C362 O384 1.234 . S
C362 O385 1.283 . S
C363 O375 1.281 . S
C363 O376 1.236 . S
C364 O386 1.240 . S
C364 O387 1.264 . S
O365 Mn360 2.095 . S
O365 C374 1.250 . S
O366 Mn361 2.121 . S
O366 C374 1.258 . S
C367 N368 1.326 . S
C367 C371 1.460 . S
C367 H373 0.929 . S
N368 Mn361 2.257 . S
N368 C367 1.326 . S
N368 C372 1.362 . S
C369 C370 1.258 . S
C369 C372 1.431 . S
C369 C389 1.449 . S
C370 C369 1.258 . S
C370 C371 1.477 . S
C370 H390 0.931 . S
C371 C367 1.460 . S
C371 C370 1.477 . S
C371 H391 0.930 . S
C372 N368 1.362 . S
C372 C369 1.431 . S
C372 C382 1.476 . S
H373 C367 0.929 . S
C374 O365 1.250 . S
C374 O366 1.258 . S
O375 Mn360 2.162 . S
O375 C363 1.281 . S
O376 Mn360 2.297 . S
O376 C363 1.236 . S
N377 Mn361 2.282 . S
N377 C378 1.328 . S
N377 C382 1.318 . S
C378 N377 1.328 . S
C378 C379 1.457 . S
C378 H383 0.929 . S
C379 C378 1.457 . S
C379 C380 1.291 . S
C379 H392 0.931 . S
C380 C379 1.291 . S
C380 C381 1.373 . S
C380 H393 0.929 . S
C381 C380 1.373 . S
C381 C382 1.396 . S
C381 C388 1.403 . S
C382 C372 1.476 . S
C382 N377 1.318 . S
C382 C381 1.396 . S
H383 C378 0.929 . S
O384 Mn360 2.385 . S
O384 C362 1.234 . S
O385 Mn360 2.209 . S
O385 Mn361 2.215 . S
O385 C362 1.283 . S
O386 Mn360 2.094 . S
O386 C364 1.240 . S
O387 Mn361 2.117 . S
O387 C364 1.264 . S
C388 C381 1.403 . S
C388 C389 1.399 . S
C388 H394 0.929 . S
C389 C369 1.449 . S
C389 C388 1.399 . S
C389 H395 0.930 . S
H390 C370 0.931 . S
H391 C371 0.930 . S
H392 C379 0.931 . S
H393 C380 0.929 . S
H394 C388 0.929 . S
H395 C389 0.930 . S
Mn396 O401 2.095 . S
Mn396 O411 2.162 . S
Mn396 O412 2.297 . S
Mn396 O420 2.385 . S
Mn396 O421 2.209 1_554 S
Mn396 O422 2.094 . S
Mn397 O402 2.121 . S
Mn397 N404 2.257 . S
Mn397 N413 2.282 . S
Mn397 O421 2.215 . S
Mn397 O423 2.117 . S
C398 O420 1.234 1_556 S
C398 O421 1.283 . S
C399 O411 1.281 . S
C399 O412 1.236 . S
C400 O422 1.240 . S
C400 O423 1.264 1_554 S
O401 Mn396 2.095 . S
O401 C410 1.250 . S
O402 Mn397 2.121 . S
O402 C410 1.258 1_556 S
C403 N404 1.326 . S
C403 C407 1.460 . S
C403 H409 0.929 . S
N404 Mn397 2.257 . S
N404 C403 1.326 . S
N404 C408 1.362 . S
C405 C406 1.258 . S
C405 C408 1.431 . S
C405 C425 1.449 . S
C406 C405 1.258 . S
C406 C407 1.477 . S
C406 H426 0.931 . S
C407 C403 1.460 . S
C407 C406 1.477 . S
C407 H427 0.930 . S
C408 N404 1.362 . S
C408 C405 1.431 . S
C408 C418 1.476 . S
H409 C403 0.929 . S
C410 O401 1.250 . S
C410 O402 1.258 1_554 S
O411 Mn396 2.162 . S
O411 C399 1.281 . S
O412 Mn396 2.297 . S
O412 C399 1.236 . S
N413 Mn397 2.282 . S
N413 C414 1.328 . S
N413 C418 1.318 . S
C414 N413 1.328 . S
C414 C415 1.457 . S
C414 H419 0.929 . S
C415 C414 1.457 . S
C415 C416 1.291 . S
C415 H428 0.931 . S
C416 C415 1.291 . S
C416 C417 1.373 . S
C416 H429 0.929 . S
C417 C416 1.373 . S
C417 C418 1.396 . S
C417 C424 1.403 . S
C418 C408 1.476 . S
C418 N413 1.318 . S
C418 C417 1.396 . S
H419 C414 0.929 . S
O420 Mn396 2.385 . S
O420 C398 1.234 1_554 S
O421 Mn396 2.209 1_556 S
O421 Mn397 2.215 . S
O421 C398 1.283 . S
O422 Mn396 2.094 . S
O422 C400 1.240 . S
O423 Mn397 2.117 . S
O423 C400 1.264 1_556 S
C424 C417 1.403 . S
C424 C425 1.399 . S
C424 H430 0.929 . S
C425 C405 1.449 . S
C425 C424 1.399 . S
C425 H431 0.930 . S
H426 C406 0.931 . S
H427 C407 0.930 . S
H428 C415 0.931 . S
H429 C416 0.929 . S
H430 C424 0.929 . S
H431 C425 0.930 . S
H432 C440 0.950 . S
H433 C445 0.950 . S
H434 C442 0.950 . S
H435 C444 0.950 . S
H436 C446 0.950 . S
H437 C448 0.950 . S
H438 C450 0.950 . S
H439 C451 0.950 . S
C440 H432 0.950 . S
C440 C441 1.386 . S
C440 C442 1.391 . S
C441 C440 1.386 . S
C441 C445 1.393 . S
C442 H434 0.950 . S
C442 C440 1.391 . S
C442 C443 1.400 . S
C443 C442 1.400 . S
C443 C444 1.398 . S
C443 C449 1.491 . S
C444 H435 0.950 . S
C444 C443 1.398 . S
C444 C445 1.391 . S
C445 H433 0.950 . S
C445 C441 1.393 . S
C445 C444 1.391 . S
C446 H436 0.950 . S
C446 C447 1.386 . S
C446 C448 1.391 . S
C447 C446 1.386 . S
C447 C451 1.393 . S
C448 H437 0.950 . S
C448 C446 1.391 . S
C448 C449 1.400 . S
C449 C443 1.491 . S
C449 C448 1.400 . S
C449 C450 1.398 . S
C450 H438 0.950 . S
C450 C449 1.398 . S
C450 C451 1.391 . S
C451 H439 0.950 . S
C451 C447 1.393 . S
C451 C450 1.391 . S
H452 C460 0.950 . S
H453 C465 0.950 . S
H454 C462 0.950 . S
H455 C464 0.950 . S
H456 C466 0.950 . S
H457 C468 0.950 . S
H458 C470 0.950 . S
H459 C471 0.950 . S
C460 H452 0.950 . S
C460 C461 1.386 . S
C460 C462 1.391 . S
C461 C460 1.386 . S
C461 C465 1.393 . S
C462 H454 0.950 . S
C462 C460 1.391 . S
C462 C463 1.400 . S
C463 C462 1.400 . S
C463 C464 1.398 . S
C463 C469 1.491 1_655 S
C464 H455 0.950 . S
C464 C463 1.398 . S
C464 C465 1.391 . S
C465 H453 0.950 . S
C465 C461 1.393 . S
C465 C464 1.391 . S
C466 H456 0.950 . S
C466 C467 1.386 . S
C466 C468 1.391 . S
C467 C466 1.386 . S
C467 C471 1.393 . S
C468 H457 0.950 . S
C468 C466 1.391 . S
C468 C469 1.400 . S
C469 C463 1.491 1_455 S
C469 C468 1.400 . S
C469 C470 1.398 . S
C470 H458 0.950 . S
C470 C469 1.398 . S
C470 C471 1.391 . S
C471 H459 0.950 . S
C471 C467 1.393 . S
C471 C470 1.391 . S
H472 C480 0.950 . S
H473 C485 0.950 . S
H474 C482 0.950 . S
H475 C484 0.950 1_554 S
H476 C486 0.950 . S
H477 C488 0.950 . S
H478 C490 0.950 1_556 S
H479 C491 0.950 . S
C480 H472 0.950 . S
C480 C481 1.386 . S
C480 C482 1.391 . S
C481 C480 1.386 . S
C481 C485 1.393 . S
C482 H474 0.950 . S
C482 C480 1.391 . S
C482 C483 1.400 . S
C483 C482 1.400 . S
C483 C484 1.398 . S
C483 C489 1.491 1_566 S
C484 H475 0.950 1_556 S
C484 C483 1.398 . S
C484 C485 1.391 . S
C485 H473 0.950 . S
C485 C481 1.393 . S
C485 C484 1.391 . S
C486 H476 0.950 . S
C486 C487 1.386 . S
C486 C488 1.391 . S
C487 C486 1.386 . S
C487 C491 1.393 . S
C488 H477 0.950 . S
C488 C486 1.391 . S
C488 C489 1.400 . S
C489 C483 1.491 1_544 S
C489 C488 1.400 . S
C489 C490 1.398 . S
C490 H478 0.950 1_554 S
C490 C489 1.398 . S
C490 C491 1.391 . S
C491 H479 0.950 . S
C491 C487 1.393 . S
C491 C490 1.391 . S
H492 C500 0.950 . S
H493 C505 0.950 . S
H494 C502 0.950 . S
H495 C504 0.950 . S
H496 C506 0.950 . S
H497 C508 0.950 . S
H498 C510 0.950 . S
H499 C511 0.950 . S
C500 H492 0.950 . S
C500 C501 1.386 . S
C500 C502 1.391 . S
C501 C500 1.386 . S
C501 C505 1.393 . S
C502 H494 0.950 . S
C502 C500 1.391 . S
C502 C503 1.400 . S
C503 C502 1.400 . S
C503 C504 1.398 . S
C503 C509 1.491 . S
C504 H495 0.950 . S
C504 C503 1.398 . S
C504 C505 1.391 . S
C505 H493 0.950 . S
C505 C501 1.393 . S
C505 C504 1.391 . S
C506 H496 0.950 . S
C506 C507 1.386 . S
C506 C508 1.391 . S
C507 C506 1.386 . S
C507 C511 1.393 . S
C508 H497 0.950 . S
C508 C506 1.391 . S
C508 C509 1.400 . S
C509 C503 1.491 . S
C509 C508 1.400 . S
C509 C510 1.398 . S
C510 H498 0.950 . S
C510 C509 1.398 . S
C510 C511 1.391 . S
C511 H499 0.950 . S
C511 C507 1.393 . S
C511 C510 1.391 . S
H512 C520 0.950 . S
H513 C525 0.950 . S
H514 C522 0.950 . S
H515 C524 0.950 . S
H516 C526 0.950 . S
H517 C528 0.950 . S
H518 C530 0.950 . S
H519 C531 0.950 . S
C520 H512 0.950 . S
C520 C521 1.386 . S
C520 C522 1.391 . S
C521 C520 1.386 . S
C521 C525 1.393 . S
C522 H514 0.950 . S
C522 C520 1.391 . S
C522 C523 1.400 . S
C523 C522 1.400 . S
C523 C524 1.398 . S
C523 C529 1.491 1_655 S
C524 H515 0.950 . S
C524 C523 1.398 . S
C524 C525 1.391 . S
C525 H513 0.950 . S
C525 C521 1.393 . S
C525 C524 1.391 . S
C526 H516 0.950 . S
C526 C527 1.386 . S
C526 C528 1.391 . S
C527 C526 1.386 . S
C527 C531 1.393 . S
C528 H517 0.950 . S
C528 C526 1.391 . S
C528 C529 1.400 . S
C529 C523 1.491 1_455 S
C529 C528 1.400 . S
C529 C530 1.398 . S
C530 H518 0.950 . S
C530 C529 1.398 . S
C530 C531 1.391 . S
C531 H519 0.950 . S
C531 C527 1.393 . S
C531 C530 1.391 . S
H532 C540 0.950 . S
H533 C545 0.950 . S
H534 C542 0.950 . S
H535 C544 0.950 . S
H536 C546 0.950 . S
H537 C548 0.950 . S
H538 C550 0.950 . S
H539 C551 0.950 . S
C540 H532 0.950 . S
C540 C541 1.386 1_556 S
C540 C542 1.391 . S
C541 C540 1.386 1_554 S
C541 C545 1.393 . S
C542 H534 0.950 . S
C542 C540 1.391 . S
C542 C543 1.400 1_556 S
C543 C542 1.400 1_554 S
C543 C544 1.398 . S
C543 C549 1.491 1_564 S
C544 H535 0.950 . S
C544 C543 1.398 . S
C544 C545 1.391 . S
C545 H533 0.950 . S
C545 C541 1.393 . S
C545 C544 1.391 . S
C546 H536 0.950 . S
C546 C547 1.386 1_554 S
C546 C548 1.391 . S
C547 C546 1.386 1_556 S
C547 C551 1.393 . S
C548 H537 0.950 . S
C548 C546 1.391 . S
C548 C549 1.400 1_554 S
C549 C543 1.491 1_546 S
C549 C548 1.400 1_556 S
C549 C550 1.398 . S
C550 H538 0.950 . S
C550 C549 1.398 . S
C550 C551 1.391 . S
C551 H539 0.950 . S
C551 C547 1.393 . S
C551 C550 1.391 . S
H552 C560 0.950 . S
H553 C565 0.950 . S
H554 C562 0.950 . S
H555 C564 0.950 1_554 S
H556 C566 0.950 . S
H557 C568 0.950 . S
H558 C570 0.950 1_556 S
H559 C571 0.950 . S
C560 H552 0.950 . S
C560 C561 1.386 . S
C560 C562 1.391 . S
C561 C560 1.386 . S
C561 C565 1.393 . S
C562 H554 0.950 . S
C562 C560 1.391 . S
C562 C563 1.400 . S
C563 C562 1.400 . S
C563 C564 1.398 . S
C563 C569 1.491 1_556 S
C564 H555 0.950 1_556 S
C564 C563 1.398 . S
C564 C565 1.391 . S
C565 H553 0.950 . S
C565 C561 1.393 . S
C565 C564 1.391 . S
C566 H556 0.950 . S
C566 C567 1.386 . S
C566 C568 1.391 . S
C567 C566 1.386 . S
C567 C571 1.393 . S
C568 H557 0.950 . S
C568 C566 1.391 . S
C568 C569 1.400 . S
C569 C563 1.491 1_554 S
C569 C568 1.400 . S
C569 C570 1.398 . S
C570 H558 0.950 1_554 S
C570 C569 1.398 . S
C570 C571 1.391 . S
C571 H559 0.950 . S
C571 C567 1.393 . S
C571 C570 1.391 . S
H572 C580 0.950 . S
H573 C585 0.950 . S
H574 C582 0.950 . S
H575 C584 0.950 . S
H576 C586 0.950 . S
H577 C588 0.950 . S
H578 C590 0.950 . S
H579 C591 0.950 . S
C580 H572 0.950 . S
C580 C581 1.386 . S
C580 C582 1.391 . S
C581 C580 1.386 . S
C581 C585 1.393 . S
C582 H574 0.950 . S
C582 C580 1.391 . S
C582 C583 1.400 . S
C583 C582 1.400 . S
C583 C584 1.398 . S
C583 C589 1.491 . S
C584 H575 0.950 . S
C584 C583 1.398 . S
C584 C585 1.391 . S
C585 H573 0.950 . S
C585 C581 1.393 . S
C585 C584 1.391 . S
C586 H576 0.950 . S
C586 C587 1.386 . S
C586 C588 1.391 . S
C587 C586 1.386 . S
C587 C591 1.393 . S
C588 H577 0.950 . S
C588 C586 1.391 . S
C588 C589 1.400 . S
C589 C583 1.491 . S
C589 C588 1.400 . S
C589 C590 1.398 . S
C590 H578 0.950 . S
C590 C589 1.398 . S
C590 C591 1.391 . S
C591 H579 0.950 . S
C591 C587 1.393 . S
C591 C590 1.391 . S
H592 C600 0.950 . S
H593 C605 0.950 . S
H594 C602 0.950 . S
H595 C604 0.950 . S
H596 C606 0.950 . S
H597 C608 0.950 . S
H598 C610 0.950 . S
H599 C611 0.950 . S
C600 H592 0.950 . S
C600 C601 1.386 . S
C600 C602 1.391 . S
C601 C600 1.386 . S
C601 C605 1.393 . S
C602 H594 0.950 . S
C602 C600 1.391 . S
C602 C603 1.400 . S
C603 C602 1.400 . S
C603 C604 1.398 . S
C603 C609 1.491 . S
C604 H595 0.950 . S
C604 C603 1.398 . S
C604 C605 1.391 . S
C605 H593 0.950 . S
C605 C601 1.393 . S
C605 C604 1.391 . S
C606 H596 0.950 . S
C606 C607 1.386 . S
C606 C608 1.391 . S
C607 C606 1.386 . S
C607 C611 1.393 . S
C608 H597 0.950 . S
C608 C606 1.391 . S
C608 C609 1.400 . S
C609 C603 1.491 . S
C609 C608 1.400 . S
C609 C610 1.398 . S
C610 H598 0.950 . S
C610 C609 1.398 . S
C610 C611 1.391 . S
C611 H599 0.950 . S
C611 C607 1.393 . S
C611 C610 1.391 . S
H612 C620 0.950 . S
H613 C625 0.950 . S
H614 C622 0.950 . S
H615 C624 0.950 1_556 S
H616 C626 0.950 . S
H617 C628 0.950 . S
H618 C630 0.950 1_554 S
H619 C631 0.950 . S
C620 H612 0.950 . S
C620 C621 1.386 . S
C620 C622 1.391 . S
C621 C620 1.386 . S
C621 C625 1.393 . S
C622 H614 0.950 . S
C622 C620 1.391 . S
C622 C623 1.400 . S
C623 C622 1.400 . S
C623 C624 1.398 . S
C623 C629 1.491 1_554 S
C624 H615 0.950 1_554 S
C624 C623 1.398 . S
C624 C625 1.391 . S
C625 H613 0.950 . S
C625 C621 1.393 . S
C625 C624 1.391 . S
C626 H616 0.950 . S
C626 C627 1.386 . S
C626 C628 1.391 . S
C627 C626 1.386 . S
C627 C631 1.393 . S
C628 H617 0.950 . S
C628 C626 1.391 . S
C628 C629 1.400 . S
C629 C623 1.491 1_556 S
C629 C628 1.400 . S
C629 C630 1.398 . S
C630 H618 0.950 1_556 S
C630 C629 1.398 . S
C630 C631 1.391 . S
C631 H619 0.950 . S
C631 C627 1.393 . S
C631 C630 1.391 . S
H632 C640 0.950 . S
H633 C645 0.950 . S
H634 C642 0.950 . S
H635 C644 0.950 . S
H636 C646 0.950 . S
H637 C648 0.950 . S
H638 C650 0.950 . S
H639 C651 0.950 . S
C640 H632 0.950 . S
C640 C641 1.386 . S
C640 C642 1.391 . S
C641 C640 1.386 . S
C641 C645 1.393 . S
C642 H634 0.950 . S
C642 C640 1.391 . S
C642 C643 1.400 . S
C643 C642 1.400 . S
C643 C644 1.398 . S
C643 C649 1.491 . S
C644 H635 0.950 . S
C644 C643 1.398 . S
C644 C645 1.391 . S
C645 H633 0.950 . S
C645 C641 1.393 . S
C645 C644 1.391 . S
C646 H636 0.950 . S
C646 C647 1.386 . S
C646 C648 1.391 . S
C647 C646 1.386 . S
C647 C651 1.393 . S
C648 H637 0.950 . S
C648 C646 1.391 . S
C648 C649 1.400 . S
C649 C643 1.491 . S
C649 C648 1.400 . S
C649 C650 1.398 . S
C650 H638 0.950 . S
C650 C649 1.398 . S
C650 C651 1.391 . S
C651 H639 0.950 . S
C651 C647 1.393 . S
C651 C650 1.391 . S
H652 C660 0.950 . S
H653 C665 0.950 . S
H654 C662 0.950 . S
H655 C664 0.950 . S
H656 C666 0.950 . S
H657 C668 0.950 . S
H658 C670 0.950 . S
H659 C671 0.950 . S
C660 H652 0.950 . S
C660 C661 1.386 . S
C660 C662 1.391 . S
C661 C660 1.386 . S
C661 C665 1.393 . S
C662 H654 0.950 . S
C662 C660 1.391 . S
C662 C663 1.400 . S
C663 C662 1.400 . S
C663 C664 1.398 . S
C663 C669 1.491 . S
C664 H655 0.950 . S
C664 C663 1.398 . S
C664 C665 1.391 . S
C665 H653 0.950 . S
C665 C661 1.393 . S
C665 C664 1.391 . S
C666 H656 0.950 . S
C666 C667 1.386 . S
C666 C668 1.391 . S
C667 C666 1.386 . S
C667 C671 1.393 . S
C668 H657 0.950 . S
C668 C666 1.391 . S
C668 C669 1.400 . S
C669 C663 1.491 . S
C669 C668 1.400 . S
C669 C670 1.398 . S
C670 H658 0.950 . S
C670 C669 1.398 . S
C670 C671 1.391 . S
C671 H659 0.950 . S
C671 C667 1.393 . S
C671 C670 1.391 . S
H672 C680 0.950 . S
H673 C685 0.950 . S
H674 C682 0.950 . S
H675 C684 0.950 . S
H676 C686 0.950 . S
H677 C688 0.950 . S
H678 C690 0.950 . S
H679 C691 0.950 . S
C680 H672 0.950 . S
C680 C681 1.386 . S
C680 C682 1.391 . S
C681 C680 1.386 . S
C681 C685 1.393 . S
C682 H674 0.950 . S
C682 C680 1.391 . S
C682 C683 1.400 . S
C683 C682 1.400 . S
C683 C684 1.398 . S
C683 C689 1.491 . S
C684 H675 0.950 . S
C684 C683 1.398 . S
C684 C685 1.391 . S
C685 H673 0.950 . S
C685 C681 1.393 . S
C685 C684 1.391 . S
C686 H676 0.950 . S
C686 C687 1.386 . S
C686 C688 1.391 . S
C687 C686 1.386 . S
C687 C691 1.393 . S
C688 H677 0.950 . S
C688 C686 1.391 . S
C688 C689 1.400 . S
C689 C683 1.491 . S
C689 C688 1.400 . S
C689 C690 1.398 . S
C690 H678 0.950 . S
C690 C689 1.398 . S
C690 C691 1.391 . S
C691 H679 0.950 . S
C691 C687 1.393 . S
C691 C690 1.391 . S
H692 C700 0.950 . S
H693 C705 0.950 . S
H694 C702 0.950 . S
H695 C704 0.950 . S
H696 C706 0.950 . S
H697 C708 0.950 . S
H698 C710 0.950 . S
H699 C711 0.950 . S
C700 H692 0.950 . S
C700 C701 1.386 . S
C700 C702 1.391 . S
C701 C700 1.386 . S
C701 C705 1.393 . S
C702 H694 0.950 . S
C702 C700 1.391 . S
C702 C703 1.400 . S
C703 C702 1.400 . S
C703 C704 1.398 . S
C703 C709 1.491 . S
C704 H695 0.950 . S
C704 C703 1.398 . S
C704 C705 1.391 . S
C705 H693 0.950 . S
C705 C701 1.393 . S
C705 C704 1.391 . S
C706 H696 0.950 . S
C706 C707 1.386 . S
C706 C708 1.391 . S
C707 C706 1.386 . S
C707 C711 1.393 . S
C708 H697 0.950 . S
C708 C706 1.391 . S
C708 C709 1.400 . S
C709 C703 1.491 . S
C709 C708 1.400 . S
C709 C710 1.398 . S
C710 H698 0.950 . S
C710 C709 1.398 . S
C710 C711 1.391 . S
C711 H699 0.950 . S
C711 C707 1.393 . S
C711 C710 1.391 . S
H712 C720 0.950 . S
H713 C725 0.950 . S
H714 C722 0.950 . S
H715 C724 0.950 . S
H716 C726 0.950 . S
H717 C728 0.950 . S
H718 C730 0.950 . S
H719 C731 0.950 . S
C720 H712 0.950 . S
C720 C721 1.386 . S
C720 C722 1.391 . S
C721 C720 1.386 . S
C721 C725 1.393 . S
C722 H714 0.950 . S
C722 C720 1.391 . S
C722 C723 1.400 . S
C723 C722 1.400 . S
C723 C724 1.398 . S
C723 C729 1.491 . S
C724 H715 0.950 . S
C724 C723 1.398 . S
C724 C725 1.391 . S
C725 H713 0.950 . S
C725 C721 1.393 . S
C725 C724 1.391 . S
C726 H716 0.950 . S
C726 C727 1.386 . S
C726 C728 1.391 . S
C727 C726 1.386 . S
C727 C731 1.393 . S
C728 H717 0.950 . S
C728 C726 1.391 . S
C728 C729 1.400 . S
C729 C723 1.491 . S
C729 C728 1.400 . S
C729 C730 1.398 . S
C730 H718 0.950 . S
C730 C729 1.398 . S
C730 C731 1.391 . S
C731 H719 0.950 . S
C731 C727 1.393 . S
C731 C730 1.391 . S
H732 C740 0.950 . S
H733 C745 0.950 . S
H734 C742 0.950 . S
H735 C744 0.950 . S
H736 C746 0.950 . S
H737 C748 0.950 . S
H738 C750 0.950 . S
H739 C751 0.950 . S
C740 H732 0.950 . S
C740 C741 1.386 . S
C740 C742 1.391 . S
C741 C740 1.386 . S
C741 C745 1.393 . S
C742 H734 0.950 . S
C742 C740 1.391 . S
C742 C743 1.400 . S
C743 C742 1.400 . S
C743 C744 1.398 . S
C743 C749 1.491 . S
C744 H735 0.950 . S
C744 C743 1.398 . S
C744 C745 1.391 . S
C745 H733 0.950 . S
C745 C741 1.393 . S
C745 C744 1.391 . S
C746 H736 0.950 . S
C746 C747 1.386 . S
C746 C748 1.391 . S
C747 C746 1.386 . S
C747 C751 1.393 . S
C748 H737 0.950 . S
C748 C746 1.391 . S
C748 C749 1.400 . S
C749 C743 1.491 . S
C749 C748 1.400 . S
C749 C750 1.398 . S
C750 H738 0.950 . S
C750 C749 1.398 . S
C750 C751 1.391 . S
C751 H739 0.950 . S
C751 C747 1.393 . S
C751 C750 1.391 . S
H752 C760 0.950 . S
H753 C765 0.950 . S
H754 C762 0.950 . S
H755 C764 0.950 . S
H756 C766 0.950 . S
H757 C768 0.950 . S
H758 C770 0.950 . S
H759 C771 0.950 . S
C760 H752 0.950 . S
C760 C761 1.386 . S
C760 C762 1.391 . S
C761 C760 1.386 . S
C761 C765 1.393 . S
C762 H754 0.950 . S
C762 C760 1.391 . S
C762 C763 1.400 . S
C763 C762 1.400 . S
C763 C764 1.398 . S
C763 C769 1.491 . S
C764 H755 0.950 . S
C764 C763 1.398 . S
C764 C765 1.391 . S
C765 H753 0.950 . S
C765 C761 1.393 . S
C765 C764 1.391 . S
C766 H756 0.950 . S
C766 C767 1.386 . S
C766 C768 1.391 . S
C767 C766 1.386 . S
C767 C771 1.393 . S
C768 H757 0.950 . S
C768 C766 1.391 . S
C768 C769 1.400 . S
C769 C763 1.491 . S
C769 C768 1.400 . S
C769 C770 1.398 . S
C770 H758 0.950 . S
C770 C769 1.398 . S
C770 C771 1.391 . S
C771 H759 0.950 . S
C771 C767 1.393 . S
C771 C770 1.391 . S
H772 C780 0.950 . S
H773 C785 0.950 . S
H774 C782 0.950 . S
H775 C784 0.950 . S
H776 C786 0.950 . S
H777 C788 0.950 . S
H778 C790 0.950 . S
H779 C791 0.950 . S
C780 H772 0.950 . S
C780 C781 1.386 . S
C780 C782 1.391 . S
C781 C780 1.386 . S
C781 C785 1.393 . S
C782 H774 0.950 . S
C782 C780 1.391 . S
C782 C783 1.400 . S
C783 C782 1.400 . S
C783 C784 1.398 . S
C783 C789 1.491 . S
C784 H775 0.950 . S
C784 C783 1.398 . S
C784 C785 1.391 . S
C785 H773 0.950 . S
C785 C781 1.393 . S
C785 C784 1.391 . S
C786 H776 0.950 . S
C786 C787 1.386 . S
C786 C788 1.391 . S
C787 C786 1.386 . S
C787 C791 1.393 . S
C788 H777 0.950 . S
C788 C786 1.391 . S
C788 C789 1.400 . S
C789 C783 1.491 . S
C789 C788 1.400 . S
C789 C790 1.398 . S
C790 H778 0.950 . S
C790 C789 1.398 . S
C790 C791 1.391 . S
C791 H779 0.950 . S
C791 C787 1.393 . S
C791 C790 1.391 . S
H792 C800 0.950 . S
H793 C805 0.950 . S
H794 C802 0.950 . S
H795 C804 0.950 . S
H796 C806 0.950 . S
H797 C808 0.950 . S
H798 C810 0.950 . S
H799 C811 0.950 . S
C800 H792 0.950 . S
C800 C801 1.386 . S
C800 C802 1.391 . S
C801 C800 1.386 . S
C801 C805 1.393 . S
C802 H794 0.950 . S
C802 C800 1.391 . S
C802 C803 1.400 . S
C803 C802 1.400 . S
C803 C804 1.398 . S
C803 C809 1.491 . S
C804 H795 0.950 . S
C804 C803 1.398 . S
C804 C805 1.391 . S
C805 H793 0.950 . S
C805 C801 1.393 . S
C805 C804 1.391 . S
C806 H796 0.950 . S
C806 C807 1.386 . S
C806 C808 1.391 . S
C807 C806 1.386 . S
C807 C811 1.393 . S
C808 H797 0.950 . S
C808 C806 1.391 . S
C808 C809 1.400 . S
C809 C803 1.491 . S
C809 C808 1.400 . S
C809 C810 1.398 . S
C810 H798 0.950 . S
C810 C809 1.398 . S
C810 C811 1.391 . S
C811 H799 0.950 . S
C811 C807 1.393 . S
C811 C810 1.391 . S
H812 C820 0.950 . S
H813 C825 0.950 . S
H814 C822 0.950 . S
H815 C824 0.950 . S
H816 C826 0.950 . S
H817 C828 0.950 . S
H818 C830 0.950 . S
H819 C831 0.950 . S
C820 H812 0.950 . S
C820 C821 1.386 . S
C820 C822 1.391 . S
C821 C820 1.386 . S
C821 C825 1.393 . S
C822 H814 0.950 . S
C822 C820 1.391 . S
C822 C823 1.400 . S
C823 C822 1.400 . S
C823 C824 1.398 . S
C823 C829 1.491 . S
C824 H815 0.950 . S
C824 C823 1.398 . S
C824 C825 1.391 . S
C825 H813 0.950 . S
C825 C821 1.393 . S
C825 C824 1.391 . S
C826 H816 0.950 . S
C826 C827 1.386 . S
C826 C828 1.391 . S
C827 C826 1.386 . S
C827 C831 1.393 . S
C828 H817 0.950 . S
C828 C826 1.391 . S
C828 C829 1.400 . S
C829 C823 1.491 . S
C829 C828 1.400 . S
C829 C830 1.398 . S
C830 H818 0.950 . S
C830 C829 1.398 . S
C830 C831 1.391 . S
C831 H819 0.950 . S
C831 C827 1.393 . S
C831 C830 1.391 . S
H832 C840 0.950 . S
H833 C845 0.950 . S
H834 C842 0.950 . S
H835 C844 0.950 . S
H836 C846 0.950 . S
H837 C848 0.950 . S
H838 C850 0.950 . S
H839 C851 0.950 . S
C840 H832 0.950 . S
C840 C841 1.386 . S
C840 C842 1.391 . S
C841 C840 1.386 . S
C841 C845 1.393 1_556 S
C842 H834 0.950 . S
C842 C840 1.391 . S
C842 C843 1.400 . S
C843 C842 1.400 . S
C843 C844 1.398 1_556 S
C843 C849 1.491 1_556 S
C844 H835 0.950 . S
C844 C843 1.398 1_554 S
C844 C845 1.391 . S
C845 H833 0.950 . S
C845 C841 1.393 1_554 S
C845 C844 1.391 . S
C846 H836 0.950 . S
C846 C847 1.386 . S
C846 C848 1.391 . S
C847 C846 1.386 . S
C847 C851 1.393 1_554 S
C848 H837 0.950 . S
C848 C846 1.391 . S
C848 C849 1.400 . S
C849 C843 1.491 1_554 S
C849 C848 1.400 . S
C849 C850 1.398 1_554 S
C850 H838 0.950 . S
C850 C849 1.398 1_556 S
C850 C851 1.391 . S
C851 H839 0.950 . S
C851 C847 1.393 1_556 S
C851 C850 1.391 . S
H852 C860 0.950 . S
H853 C865 0.950 . S
H854 C862 0.950 . S
H855 C864 0.950 . S
H856 C866 0.950 . S
H857 C868 0.950 . S
H858 C870 0.950 . S
H859 C871 0.950 . S
C860 H852 0.950 . S
C860 C861 1.386 . S
C860 C862 1.391 . S
C861 C860 1.386 . S
C861 C865 1.393 . S
C862 H854 0.950 . S
C862 C860 1.391 . S
C862 C863 1.400 . S
C863 C862 1.400 . S
C863 C864 1.398 . S
C863 C869 1.491 . S
C864 H855 0.950 . S
C864 C863 1.398 . S
C864 C865 1.391 . S
C865 H853 0.950 . S
C865 C861 1.393 . S
C865 C864 1.391 . S
C866 H856 0.950 . S
C866 C867 1.386 . S
C866 C868 1.391 . S
C867 C866 1.386 . S
C867 C871 1.393 . S
C868 H857 0.950 . S
C868 C866 1.391 . S
C868 C869 1.400 . S
C869 C863 1.491 . S
C869 C868 1.400 . S
C869 C870 1.398 . S
C870 H858 0.950 . S
C870 C869 1.398 . S
C870 C871 1.391 . S
C871 H859 0.950 . S
C871 C867 1.393 . S
C871 C870 1.391 . S
H872 C880 0.950 . S
H873 C885 0.950 . S
H874 C882 0.950 . S
H875 C884 0.950 . S
H876 C886 0.950 . S
H877 C888 0.950 . S
H878 C890 0.950 . S
H879 C891 0.950 . S
C880 H872 0.950 . S
C880 C881 1.386 . S
C880 C882 1.391 . S
C881 C880 1.386 . S
C881 C885 1.393 . S
C882 H874 0.950 . S
C882 C880 1.391 . S
C882 C883 1.400 . S
C883 C882 1.400 . S
C883 C884 1.398 . S
C883 C889 1.491 . S
C884 H875 0.950 . S
C884 C883 1.398 . S
C884 C885 1.391 . S
C885 H873 0.950 . S
C885 C881 1.393 . S
C885 C884 1.391 . S
C886 H876 0.950 . S
C886 C887 1.386 . S
C886 C888 1.391 . S
C887 C886 1.386 . S
C887 C891 1.393 . S
C888 H877 0.950 . S
C888 C886 1.391 . S
C888 C889 1.400 . S
C889 C883 1.491 . S
C889 C888 1.400 . S
C889 C890 1.398 . S
C890 H878 0.950 . S
C890 C889 1.398 . S
C890 C891 1.391 . S
C891 H879 0.950 . S
C891 C887 1.393 . S
C891 C890 1.391 . S
H892 C900 0.950 . S
H893 C905 0.950 . S
H894 C902 0.950 . S
H895 C904 0.950 . S
H896 C906 0.950 . S
H897 C908 0.950 . S
H898 C910 0.950 . S
H899 C911 0.950 . S
C900 H892 0.950 . S
C900 C901 1.386 . S
C900 C902 1.391 . S
C901 C900 1.386 . S
C901 C905 1.393 1_554 S
C902 H894 0.950 . S
C902 C900 1.391 . S
C902 C903 1.400 . S
C903 C902 1.400 . S
C903 C904 1.398 1_554 S
C903 C909 1.491 1_554 S
C904 H895 0.950 . S
C904 C903 1.398 1_556 S
C904 C905 1.391 . S
C905 H893 0.950 . S
C905 C901 1.393 1_556 S
C905 C904 1.391 . S
C906 H896 0.950 . S
C906 C907 1.386 . S
C906 C908 1.391 . S
C907 C906 1.386 . S
C907 C911 1.393 1_556 S
C908 H897 0.950 . S
C908 C906 1.391 . S
C908 C909 1.400 . S
C909 C903 1.491 1_556 S
C909 C908 1.400 . S
C909 C910 1.398 1_556 S
C910 H898 0.950 . S
C910 C909 1.398 1_554 S
C910 C911 1.391 . S
C911 H899 0.950 . S
C911 C907 1.393 1_554 S
C911 C910 1.391 . S
C441 C14 1.187 . S
C447 C338 1.194 . S
C461 C50 1.189 . S
C467 C374 1.190 . S
C481 C86 1.225 . S
C487 C410 1.233 . S
C501 C122 1.194 . S
C507 C230 1.187 . S
C521 C266 1.193 . S
C527 C158 1.187 . S
C541 C302 1.231 . S
C547 C194 1.211 . S
C561 C363 1.734 . S
C567 C3 1.742 . S
C581 C39 1.740 . S
C587 C399 1.735 . S
C601 C75 1.743 . S
C607 C219 1.732 . S
C621 C111 1.733 . S
C627 C255 1.742 . S
C641 C147 1.740 . S
C647 C291 1.734 . S
C661 C183 1.732 . S
C667 C327 1.742 . S
C681 C362 0.952 . S
C687 C2 0.947 . S
C701 C38 0.952 . S
C707 C398 0.947 . S
C721 C74 0.956 . S
C727 C218 0.940 . S
C741 C110 0.946 . S
C747 C254 0.952 . S
C761 C146 0.942 . S
C767 C290 0.949 . S
C781 C182 0.942 . S
C787 C326 0.955 . S
C801 C4 1.642 . S
C807 C220 1.642 . S
C821 C256 1.644 . S
C827 C40 1.645 . S
C841 C76 1.642 . S
C847 C292 1.642 . S
C861 C112 1.643 . S
C867 C328 1.642 . S
C881 C148 1.644 . S
C887 C364 1.643 . S
C901 C400 1.642 . S
C907 C184 1.642 . S
