# Generated by pormake.
# Topology irl, (4)-cn, num edge types: 1
# Building blocks:
#     Node 0, Type 0, BuildingBlock: CEKHIL_clean_sbu_0, # of connection points: 4
#     Node 1, Type 0, BuildingBlock: CEKHIL_clean_sbu_0, # of connection points: 4
#     Node 2, Type 0, BuildingBlock: CEKHIL_clean_sbu_0, # of connection points: 4
#     Node 3, Type 0, BuildingBlock: CEKHIL_clean_sbu_0, # of connection points: 4
#     Node 4, Type 0, BuildingBlock: CEKHIL_clean_sbu_0, # of connection points: 4
#     Node 5, Type 0, BuildingBlock: CEKHIL_clean_sbu_0, # of connection points: 4
#     Node 6, Type 0, BuildingBlock: CEKHIL_clean_sbu_0, # of connection points: 4
#     Node 7, Type 0, BuildingBlock: CEKHIL_clean_sbu_0, # of connection points: 4
#     Edge 8, Type (0, 0), BuildingBlock: FUNLAD_clean_linker_1, # of connection points: 2
#     Edge 9, Type (0, 0), BuildingBlock: FUNLAD_clean_linker_1, # of connection points: 2
#     Edge 10, Type (0, 0), BuildingBlock: FUNLAD_clean_linker_1, # of connection points: 2
#     Edge 11, Type (0, 0), BuildingBlock: FUNLAD_clean_linker_1, # of connection points: 2
#     Edge 12, Type (0, 0), BuildingBlock: FUNLAD_clean_linker_1, # of connection points: 2
#     Edge 13, Type (0, 0), BuildingBlock: FUNLAD_clean_linker_1, # of connection points: 2
#     Edge 14, Type (0, 0), BuildingBlock: FUNLAD_clean_linker_1, # of connection points: 2
#     Edge 15, Type (0, 0), BuildingBlock: FUNLAD_clean_linker_1, # of connection points: 2
#     Edge 16, Type (0, 0), BuildingBlock: FUNLAD_clean_linker_1, # of connection points: 2
#     Edge 17, Type (0, 0), BuildingBlock: FUNLAD_clean_linker_1, # of connection points: 2
#     Edge 18, Type (0, 0), BuildingBlock: FUNLAD_clean_linker_1, # of connection points: 2
#     Edge 19, Type (0, 0), BuildingBlock: FUNLAD_clean_linker_1, # of connection points: 2
#     Edge 20, Type (0, 0), BuildingBlock: FUNLAD_clean_linker_1, # of connection points: 2
#     Edge 21, Type (0, 0), BuildingBlock: FUNLAD_clean_linker_1, # of connection points: 2
#     Edge 22, Type (0, 0), BuildingBlock: FUNLAD_clean_linker_1, # of connection points: 2
#     Edge 23, Type (0, 0), BuildingBlock: FUNLAD_clean_linker_1, # of connection points: 2
# Relax obj value: 0.066
# Max RMSD: 0.129
# Mean RMSD: 0.129
data_MOF--net-irl--node1-CEKHIL_clean_sbu_0--edge1-FUNLAD_clean_linker_1
_symmetry_space_group_name_H-M    P1
_symmetry_Int_Tables_number       1
_symmetry_cell_setting            triclinic
loop_
_symmetry_equiv_pos_as_xyz
'x, y, z'
_cell_length_a     33.778742
_cell_length_b     47.493059
_cell_length_c     28.848285
_cell_angle_alpha  90.006658
_cell_angle_beta   90.128914
_cell_angle_gamma 90.163255
loop_
_atom_site_label
_atom_site_type_symbol
_atom_site_fract_x
_atom_site_fract_y
_atom_site_fract_z
_atom_type_partial_charge
Co0 Co 0.0744 0.16636 0.99016 0.0
O1 O 0.09761 0.20321 0.98993 0.0
O2 O 0.12965 0.16499 0.01184 0.0
C3 C 0.0473 0.16964 0.91941 0.0
O4 O 0.05684 0.12454 0.9926 0.0
Co5 Co 0.98186 0.16458 0.98637 0.0
O6 O 0.99263 0.12483 0.97 0.0
C7 C 0.02216 0.17919 0.07342 0.0
C8 C 0.12994 0.19219 0.00518 0.0
C9 C 0.02452 0.11183 0.97982 0.0
O10 O 0.05556 0.17279 0.05521 0.0
O11 O 0.9894 0.17936 0.051 0.0
O12 O 0.08416 0.16241 0.92391 0.0
O13 O 0.0298 0.1775 0.95688 0.0
Co14 Co 0.94394 0.84223 0.99712 0.0
O15 O 0.91767 0.80635 0.9975 0.0
O16 O 0.89251 0.84457 0.02907 0.0
C17 C 0.95899 0.84174 0.92058 0.0
O18 O 0.96531 0.88313 0.00081 0.0
Co19 Co 0.03365 0.83944 0.97606 0.0
O20 O 0.02817 0.88084 0.97419 0.0
C21 C 0.00661 0.82532 0.06976 0.0
C22 C 0.88874 0.81784 0.01944 0.0
C23 C 0.99849 0.8948 0.98859 0.0
O24 O 0.97131 0.8324 0.05765 0.0
O25 O 0.03561 0.82462 0.04134 0.0
O26 O 0.92464 0.85007 0.93477 0.0
O27 O 0.98141 0.83079 0.95226 0.0
Co28 Co 0.07931 0.83613 0.50594 0.0
O29 O 0.09962 0.7983 0.50524 0.0
O30 O 0.13081 0.83457 0.4744 0.0
C31 C 0.06373 0.8366 0.58228 0.0
O32 O 0.06577 0.87854 0.50239 0.0
Co33 Co 0.99009 0.84289 0.52684 0.0
O34 O 1.00356 0.88341 0.52955 0.0
C35 C 0.01419 0.82589 0.43308 0.0
C36 C 0.13045 0.80771 0.48385 0.0
C37 C 0.03587 0.89391 0.51456 0.0
O38 O 0.05066 0.82901 0.44517 0.0
O39 O 0.98538 0.82845 0.46147 0.0
O40 O 0.09941 0.84193 0.56851 0.0
O41 O 0.03955 0.82802 0.55028 0.0
Co42 Co 0.92282 0.17049 0.51037 0.0
O43 O 0.90505 0.2088 0.51327 0.0
O44 O 0.86682 0.17324 0.49222 0.0
C45 C 0.95369 0.17064 0.57918 0.0
O46 O 0.93354 0.1277 0.5055 0.0
Co47 Co 0.01436 0.16164 0.50758 0.0
O48 O 0.99923 0.12173 0.51678 0.0
C49 C 0.97261 0.18035 0.42389 0.0
C50 C 0.87068 0.20024 0.49961 0.0
C51 C 0.9644 0.11182 0.51114 0.0
O52 O 0.93935 0.17637 0.44429 0.0
O53 O 0.00621 0.17785 0.44407 0.0
O54 O 0.91576 0.1662 0.57698 0.0
O55 O 0.97049 0.17789 0.54091 0.0
Co56 Co 0.56989 0.67937 0.0006 0.0
O57 O 0.58879 0.71767 -0.00081 0.0
O58 O 0.6238 0.68192 0.02571 0.0
C59 C 0.54578 0.67892 0.92809 0.0
O60 O 0.55885 0.63664 0.00528 0.0
Co61 Co 0.47875 0.66918 0.98994 0.0
O62 O 0.49516 0.62934 0.98438 0.0
C63 C 0.51083 0.68995 0.07836 0.0
C64 C 0.62164 0.70882 0.01694 0.0
C65 C 0.52931 0.62014 0.99562 0.0
O66 O 0.5464 0.68602 0.06377 0.0
O67 O 0.48 0.6866 0.05315 0.0
O68 O 0.58325 0.67448 0.93526 0.0
O69 O 0.5255 0.68628 0.9638 0.0
Co70 Co 0.43639 0.34045 -0.00013 0.0
O71 O 0.4191 0.30187 -0.00062 0.0
O72 O 0.38501 0.33654 0.03084 0.0
C73 C 0.45236 0.34235 0.92398 0.0
O74 O 0.44664 0.38325 0.0046 0.0
Co75 Co 0.52503 0.35099 0.98095 0.0
O76 O 0.50854 0.3909 0.97812 0.0
C77 C 0.50123 0.33179 0.07342 0.0
C78 C 0.38756 0.30982 0.02082 0.0
C79 C 0.47533 0.39992 0.99278 0.0
O80 O 0.46486 0.33388 0.06062 0.0
O81 O 0.5303 0.33571 0.04579 0.0
O82 O 0.41625 0.34607 0.93751 0.0
O83 O 0.47702 0.33438 0.95588 0.0
Co84 Co 0.56458 0.34783 0.508 0.0
O85 O 0.58809 0.31114 0.50701 0.0
O86 O 0.61555 0.3486 0.47507 0.0
C87 C 0.5505 0.34773 0.58453 0.0
O88 O 0.54603 0.38935 0.5048 0.0
Co89 Co 0.47507 0.34792 0.5302 0.0
O90 O 0.48422 0.38896 0.53478 0.0
C91 C 0.5002 0.33303 0.43622 0.0
C92 C 0.61739 0.32173 0.48438 0.0
C93 C 0.51433 0.40204 0.51911 0.0
O94 O 0.53599 0.33894 0.44807 0.0
O95 O 0.4713 0.33338 0.46479 0.0
O96 O 0.58524 0.35498 0.56986 0.0
O97 O 0.52689 0.3375 0.55327 0.0
Co98 Co 0.45224 0.67402 0.50855 0.0
O99 O 0.42788 0.7105 0.5082 0.0
O100 O 0.39904 0.67235 0.48042 0.0
C101 C 0.47279 0.67596 0.58255 0.0
O102 O 0.47101 0.63254 0.50558 0.0
Co103 Co 0.54405 0.67371 0.52497 0.0
O104 O 0.53368 0.63298 0.53359 0.0
C105 C 0.51219 0.69029 0.43428 0.0
C106 C 0.39717 0.69932 0.48892 0.0
C107 C 0.50287 0.61988 0.51969 0.0
O108 O 0.47728 0.6824 0.44669 0.0
O109 O 0.54205 0.69086 0.46159 0.0
O110 O 0.43677 0.66817 0.57317 0.0
O111 O 0.49311 0.68508 0.54797 0.0
H112 H 0.03623 0.93214 0.98555 0.0
C113 C 0.00579 0.92556 0.99175 0.0
H114 H 0.94843 0.94049 0.00705 0.0
H115 H 0.01372 0.05726 0.08695 0.0
H116 H 0.98167 0.03696 0.15416 0.0
H117 H 0.95491 0.9886 0.15193 0.0
H118 H 0.95942 0.96038 0.08209 0.0
C119 C 0.97902 0.94587 -0.00047 0.0
C120 C 0.99223 0.97621 -0.00036 0.0
C121 C 0.99003 0.99242 0.04088 0.0
C122 C 0.00632 0.02021 0.04243 0.0
C123 C 1.00257 0.03598 0.08387 0.0
C124 C 0.98416 0.02458 0.12278 0.0
C125 C 0.96906 0.99736 0.12151 0.0
C126 C 0.97188 0.98138 0.08118 0.0
H127 H 0.99923 0.07314 0.9513 0.0
C128 C 0.02172 0.08084 0.97527 0.0
H129 H 0.05918 0.06926 0.03046 0.0
H130 H 0.99511 0.95373 0.91223 0.0
H131 H 0.02961 0.9731 0.84583 0.0
H132 H 0.06476 0.01857 0.85135 0.0
H133 H 0.06464 0.04531 0.92294 0.0
C134 C 0.03919 0.06202 0.0034 0.0
C135 C 0.02546 0.03181 0.0029 0.0
C136 C 0.02808 0.01541 0.96181 0.0
C137 C 0.01011 0.98822 0.9596 0.0
C138 C 0.01024 0.97365 0.91674 0.0
C139 C 0.02961 0.98465 0.87818 0.0
C140 C 0.04922 0.01031 0.88122 0.0
C141 C 0.04861 0.02557 0.92243 0.0
H142 H 0.06568 0.93518 0.50103 0.0
C143 C 0.0378 0.92521 0.51024 0.0
H144 H 0.97744 0.93108 0.52687 0.0
H145 H 0.97169 0.05441 0.59595 0.0
H146 H 0.96357 0.02875 0.66801 0.0
H147 H 0.97472 0.97751 0.6714 0.0
H148 H 0.99356 0.95148 0.60269 0.0
C149 C 1.00508 0.94118 0.51705 0.0
C150 C 1.00398 0.97272 0.51537 0.0
C151 C 0.9931 0.98785 0.55592 0.0
C152 C 0.98704 0.01755 0.55411 0.0
C153 C 0.97658 0.03192 0.5953 0.0
C154 C 0.97192 0.01746 0.63696 0.0
C155 C 0.97806 0.98859 0.63884 0.0
C156 C 0.98864 0.97387 0.59901 0.0
H157 H 0.93103 0.07109 0.51006 0.0
C158 C 0.96036 0.08051 0.5108 0.0
H159 H 0.02221 0.07325 0.51063 0.0
H160 H 0.0207 0.95047 0.42997 0.0
H161 H 0.02861 0.97621 0.35811 0.0
H162 H 0.02048 0.02779 0.35575 0.0
H163 H 1.00368 0.05391 0.42528 0.0
C164 C 0.99288 0.06383 0.51143 0.0
C165 C 0.99208 0.03233 0.51182 0.0
C166 C 1.00277 0.01725 0.47126 0.0
C167 C 0.00827 0.98746 0.47284 0.0
C168 C 0.01721 0.97306 0.43119 0.0
C169 C 0.02166 0.98759 0.38957 0.0
C170 C 0.01706 0.01664 0.38823 0.0
C171 C 0.00761 0.03139 0.42843 0.0
H172 H 0.56341 0.58032 0.00508 0.0
C173 C 0.53428 0.58898 0.99803 0.0
H174 H 0.47407 0.5802 0.98362 0.0
H175 H 0.48183 0.45913 0.904 0.0
H176 H 0.47335 0.48611 0.83323 0.0
H177 H 0.47963 0.53787 0.83369 0.0
H178 H 0.49451 0.56302 0.90484 0.0
C179 C 0.50299 0.57148 0.99162 0.0
C180 C 0.50536 0.54001 0.99088 0.0
C181 C 0.49676 0.5255 0.94898 0.0
C182 C 0.49349 0.49557 0.94858 0.0
C183 C 0.48493 0.48178 0.90617 0.0
C184 C 0.47991 0.49701 0.86532 0.0
C185 C 0.48337 0.52616 0.86559 0.0
C186 C 0.49172 0.54034 0.90676 0.0
H187 H 0.44229 0.43959 0.00751 0.0
C188 C 0.47065 0.43103 0.9969 0.0
H189 H 0.52969 0.44018 0.97715 0.0
H190 H 0.52025 0.56079 0.07776 0.0
H191 H 0.53024 0.53361 0.14793 0.0
H192 H 0.52648 0.48173 0.14661 0.0
H193 H 0.51212 0.45669 0.0751 0.0
C194 C 0.5013 0.44863 0.98788 0.0
C195 C 0.49888 0.48 0.99003 0.0
C196 C 0.50776 0.49442 0.03187 0.0
C197 C 0.5107 0.52442 0.03242 0.0
C198 C 0.51844 0.53813 0.07507 0.0
C199 C 0.52414 0.52276 0.11568 0.0
C200 C 0.522 0.49354 0.11494 0.0
C201 C 0.51384 0.47943 0.07366 0.0
H202 H 0.48139 0.44088 0.53074 0.0
C203 C 0.50948 0.43306 0.51757 0.0
H204 H 0.56306 0.44539 0.48582 0.0
H205 H 0.4911 0.56108 0.41185 0.0
H206 H 0.50845 0.53717 0.34052 0.0
H207 H 0.53226 0.48813 0.34156 0.0
H208 H 0.53958 0.4628 0.41402 0.0
C209 C 0.53535 0.45214 0.50121 0.0
C210 C 0.52409 0.48283 0.50092 0.0
C211 C 0.51947 0.49738 0.45825 0.0
C212 C 0.50488 0.52561 0.45758 0.0
C213 C 0.50151 0.53962 0.41444 0.0
C214 C 0.51137 0.52613 0.37318 0.0
C215 C 0.52481 0.49852 0.37377 0.0
C216 C 0.52887 0.48422 0.41566 0.0
H217 H 0.53265 0.58074 0.53864 0.0
C218 C 0.50664 0.58878 0.52069 0.0
H219 H 0.45815 0.57712 0.47852 0.0
H220 H 0.53546 0.46361 0.58951 0.0
H221 H 0.51393 0.4862 0.66043 0.0
H222 H 0.48087 0.53243 0.65832 0.0
H223 H 0.47054 0.55681 0.58548 0.0
C224 C 0.48308 0.57 0.49923 0.0
C225 C 0.49429 0.53931 0.49952 0.0
C226 C 0.49798 0.52446 0.5421 0.0
C227 C 0.51439 0.49683 0.54299 0.0
C228 C 0.52093 0.48379 0.58651 0.0
C229 C 0.50909 0.49666 0.62756 0.0
C230 C 0.49072 0.52276 0.62641 0.0
C231 C 0.48523 0.53662 0.58435 0.0
H232 H 0.0504 0.18483 0.14151 0.0
C233 C 0.02212 0.18513 0.12338 0.0
H234 H 0.95993 0.18765 0.13087 0.0
H235 H 0.98326 0.13508 0.3328 0.0
H236 H 0.95896 0.09437 0.29075 0.0
H237 H 0.94826 0.09645 0.20619 0.0
H238 H 0.96202 0.13925 0.16325 0.0
C239 C 0.98872 0.18858 0.14766 0.0
C240 C 0.9905 0.18886 0.19892 0.0
C241 C 0.98093 0.16398 0.22358 0.0
C242 C 0.98637 0.16297 0.27232 0.0
C243 C 0.97853 0.13737 0.29591 0.0
C244 C 0.96483 0.11373 0.27213 0.0
C245 C 0.95887 0.11488 0.22454 0.0
C246 C 0.96688 0.13961 0.20033 0.0
H247 H 0.9423 0.18727 0.35738 0.0
C248 C 0.97124 0.18594 0.37385 0.0
H249 H 0.03322 0.18544 0.36273 0.0
H250 H 0.00996 0.24005 0.16178 0.0
H251 H 0.03473 0.28084 0.20378 0.0
H252 H 0.04387 0.27918 0.28864 0.0
H253 H 0.02833 0.23672 0.33203 0.0
C254 C 1.00384 0.18655 0.34747 0.0
C255 C 1.00021 0.18717 0.29631 0.0
C256 C 0.00972 0.21204 0.27166 0.0
C257 C 1.0047 0.21293 0.2228 0.0
C258 C 0.01381 0.23815 0.19889 0.0
C259 C 0.02787 0.26172 0.22259 0.0
C260 C 0.03298 0.2608 0.27038 0.0
C261 C 0.02396 0.23632 0.29485 0.0
H262 H 0.97306 0.81973 0.3742 0.0
C263 C 1.00419 0.82135 0.38351 0.0
H264 H 0.06275 0.82326 0.35772 0.0
H265 H 0.0073 0.76968 0.16359 0.0
H266 H 0.03273 0.72756 0.2005 0.0
H267 H 0.0528 0.72802 0.28276 0.0
H268 H 0.04716 0.77061 0.32884 0.0
C269 C 0.03143 0.82172 0.34948 0.0
C270 C 0.01964 0.82155 0.29947 0.0
C271 C 0.02393 0.79676 0.2726 0.0
C272 C 0.01314 0.79668 0.22475 0.0
C273 C 0.01619 0.77122 0.19953 0.0
C274 C 0.03048 0.74681 0.2204 0.0
C275 C 0.04173 0.74705 0.26675 0.0
C276 C 0.03841 0.77164 0.29277 0.0
H277 H 0.04577 0.81507 0.12894 0.0
C278 C 0.01532 0.81968 0.11938 0.0
H279 H 0.9578 0.82797 0.14413 0.0
H280 H 0.00964 0.87314 0.34011 0.0
H281 H 0.98513 0.91548 0.30321 0.0
H282 H 0.96678 0.91553 0.22042 0.0
H283 H 0.97291 0.87329 0.174 0.0
C284 C 0.98799 0.82224 0.15308 0.0
C285 C 0.99895 0.82167 0.20343 0.0
C286 C 0.99473 0.8465 0.2304 0.0
C287 C 1.00519 0.84647 0.2783 0.0
C288 C 1.00158 0.87181 0.30388 0.0
C289 C 0.9877 0.89634 0.28307 0.0
C290 C 0.97738 0.89636 0.23646 0.0
C291 C 0.98091 0.87187 0.21025 0.0
H292 H 0.07695 0.84651 0.65496 0.0
C293 C 0.05364 0.83909 0.6319 0.0
H294 H 0.99538 0.82315 0.62803 0.0
H295 H 0.99614 0.77957 0.83598 0.0
H296 H 0.99259 0.73588 0.79273 0.0
H297 H 0.99867 0.73567 0.70756 0.0
H298 H 0.00797 0.77918 0.66502 0.0
C299 C 0.01854 0.83176 0.6501 0.0
C300 C 0.01257 0.83229 0.70154 0.0
C301 C 0.00748 0.80664 0.72607 0.0
C302 C 1.00458 0.80671 0.77536 0.0
C303 C 0.99897 0.78076 0.79869 0.0
C304 C 0.99684 0.7555 0.77428 0.0
C305 C 1.00023 0.75539 0.72632 0.0
C306 C 0.00554 0.78056 0.70233 0.0
H307 H 0.94761 0.8538 0.8484 0.0
C308 C 0.9691 0.8436 0.87089 0.0
H309 H 0.0226 0.82086 0.87328 0.0
H310 H 0.01652 0.88555 0.66547 0.0
H311 H 0.02166 0.9292 0.70873 0.0
H312 H 0.02197 0.929 0.79425 0.0
H313 H 0.01629 0.88523 0.83702 0.0
C314 C 1.00166 0.83236 0.85186 0.0
C315 C 0.00688 0.83243 0.8003 0.0
C316 C 0.01209 0.85811 0.77577 0.0
C317 C 0.01393 0.8581 0.7264 0.0
C318 C 0.01672 0.88421 0.7029 0.0
C319 C 0.0194 0.90946 0.72731 0.0
C320 C 0.01941 0.90935 0.77545 0.0
C321 C 0.01584 0.88407 0.79958 0.0
H322 H 0.99518 0.17387 0.87406 0.0
C323 C 0.02651 0.16869 0.8748 0.0
H324 H 0.07658 0.15665 0.83585 0.0
H325 H 0.97926 0.10826 0.66668 0.0
H326 H 0.00963 0.06586 0.69744 0.0
H327 H 0.04599 0.06683 0.77168 0.0
H328 H 0.05303 0.11031 0.81515 0.0
C329 C 0.04549 0.16248 0.83535 0.0
C330 C 0.02425 0.16212 0.79032 0.0
C331 C 0.02011 0.13641 0.76578 0.0
C332 C 0.99857 0.13571 0.72346 0.0
C333 C 0.99514 0.10988 0.69921 0.0
C334 C 0.01233 0.08539 0.7165 0.0
C335 C 0.0329 0.08596 0.75825 0.0
C336 C 0.03677 0.11109 0.78282 0.0
H337 H 0.00707 0.17469 0.62263 0.0
C338 C 0.97608 0.16843 0.62258 0.0
H339 H 0.92804 0.15334 0.66259 0.0
H340 H 0.03201 0.21583 0.82479 0.0
H341 H 1.00114 0.25795 0.79435 0.0
H342 H 0.95973 0.25597 0.72385 0.0
H343 H 0.9496 0.21188 0.68301 0.0
C344 C 0.95883 0.16 0.66198 0.0
C345 C 0.98106 0.16063 0.70618 0.0
C346 C 0.98535 0.18637 0.73049 0.0
C347 C 0.0078 0.18727 0.77211 0.0
C348 C 0.01373 0.21362 0.7942 0.0
C349 C 0.99646 0.23805 0.77684 0.0
C350 C 0.97326 0.23695 0.73709 0.0
C351 C 0.96776 0.2115 0.71395 0.0
H352 H 0.47395 0.69591 0.14022 0.0
C353 C 0.50428 0.69632 0.1276 0.0
H354 H 0.56463 0.69984 0.1461 0.0
H355 H 0.45791 0.73935 0.33166 0.0
H356 H 0.43823 0.77986 0.28572 0.0
H357 H 0.45953 0.78461 0.20431 0.0
H358 H 0.50042 0.74881 0.16827 0.0
C359 C 0.53407 0.70018 0.15777 0.0
C360 C 0.52601 0.69983 0.20832 0.0
C361 C 0.50293 0.7213 0.22907 0.0
C362 C 0.4913 0.71885 0.27619 0.0
C363 C 0.46772 0.7403 0.296 0.0
C364 C 0.45626 0.76364 0.27005 0.0
C365 C 0.46819 0.76629 0.22419 0.0
C366 C 0.4914 0.7455 0.20381 0.0
H367 H 0.54968 0.70292 0.37554 0.0
C368 C 0.51973 0.69694 0.38532 0.0
H369 H 0.46215 0.68729 0.36063 0.0
H370 H 0.57177 0.65547 0.17948 0.0
H371 H 0.59132 0.61515 0.22541 0.0
H372 H 0.57029 0.61058 0.30689 0.0
H373 H 0.52976 0.64638 0.34289 0.0
C374 C 0.49239 0.69313 0.35212 0.0
C375 C 0.50358 0.69532 0.3026 0.0
C376 C 0.52712 0.67402 0.28206 0.0
C377 C 0.53874 0.67646 0.23496 0.0
C378 C 0.56208 0.65481 0.21517 0.0
C379 C 0.57349 0.63146 0.24112 0.0
C380 C 0.5617 0.62891 0.28699 0.0
C381 C 0.53865 0.64978 0.30734 0.0
H382 H 0.4604 0.32495 0.37659 0.0
C383 C 0.4912 0.32774 0.38665 0.0
H384 H 0.55023 0.33107 0.36269 0.0
H385 H 0.50597 0.27503 0.16744 0.0
H386 H 0.53216 0.23379 0.20645 0.0
H387 H 0.54823 0.23509 0.28989 0.0
H388 H 0.53792 0.27763 0.33501 0.0
C389 C 0.51921 0.32857 0.3535 0.0
C390 C 0.5089 0.32763 0.30318 0.0
C391 C 0.51566 0.30282 0.27708 0.0
C392 C 0.50688 0.30219 0.22873 0.0
C393 C 0.51285 0.27684 0.20395 0.0
C394 C 0.5277 0.25298 0.22597 0.0
C395 C 0.53672 0.25371 0.27298 0.0
C396 C 0.53074 0.27825 0.29844 0.0
H397 H 0.54118 0.3251 0.13338 0.0
C398 C 0.51029 0.32663 0.12303 0.0
H399 H 0.45115 0.32914 0.14625 0.0
H400 H 0.49501 0.37928 0.34213 0.0
H401 H 0.4698 0.42068 0.30303 0.0
H402 H 0.45423 0.41957 0.21948 0.0
H403 H 0.46395 0.37707 0.17446 0.0
C404 C 0.48199 0.32627 0.15588 0.0
C405 C 0.49188 0.32656 0.20637 0.0
C406 C 0.48533 0.35143 0.23249 0.0
C407 C 0.49405 0.35203 0.2808 0.0
C408 C 0.48831 0.37745 0.30557 0.0
C409 C 0.47398 0.40145 0.28352 0.0
C410 C 0.46523 0.40082 0.23648 0.0
C411 C 0.47084 0.37622 0.21108 0.0
H412 H 0.43862 0.35259 0.85173 0.0
C413 C 0.46223 0.3454 0.87449 0.0
H414 H 0.52064 0.3299 0.87754 0.0
H415 H 0.51376 0.28606 0.66952 0.0
H416 H 0.51853 0.24241 0.7127 0.0
H417 H 0.51544 0.24231 0.79811 0.0
H418 H 0.50794 0.28588 0.84092 0.0
C419 C 0.4972 0.33842 0.85588 0.0
C420 C 0.50227 0.33893 0.8044 0.0
C421 C 0.50645 0.31324 0.7798 0.0
C422 C 0.50766 0.31326 0.73043 0.0
C423 C 0.51228 0.28729 0.70692 0.0
C424 C 0.51507 0.26205 0.73128 0.0
C425 C 0.51336 0.262 0.77937 0.0
C426 C 0.50906 0.2872 0.80352 0.0
H427 H 0.56338 0.35979 0.6563 0.0
C428 C 0.5412 0.34985 0.6343 0.0
H429 H 0.4871 0.32756 0.63312 0.0
H430 H 0.4993 0.3922 0.84054 0.0
H431 H 0.49281 0.43579 0.7974 0.0
H432 H 0.49009 0.43551 0.71191 0.0
H433 H 0.49449 0.39168 0.66907 0.0
C434 C 0.5087 0.3389 0.654 0.0
C435 C 0.50467 0.33895 0.7056 0.0
C436 C 0.50039 0.36466 0.73021 0.0
C437 C 0.50013 0.36471 0.77958 0.0
C438 C 0.49801 0.39083 0.80313 0.0
C439 C 0.49456 0.41604 0.77878 0.0
C440 C 0.49319 0.41589 0.73066 0.0
C441 C 0.49602 0.39058 0.70648 0.0
H442 H 0.49567 0.68069 0.87955 0.0
C443 C 0.52701 0.67581 0.88254 0.0
H444 H 0.57849 0.66256 0.84724 0.0
H445 H 0.48148 0.61107 0.67857 0.0
H446 H 0.50487 0.5684 0.71602 0.0
H447 H 0.53834 0.57041 0.79203 0.0
H448 H 0.5492 0.61514 0.83086 0.0
C449 C 0.54744 0.66832 0.84477 0.0
C450 C 0.52771 0.66719 0.79882 0.0
C451 C 0.5214 0.64086 0.77689 0.0
C452 C 0.50157 0.63965 0.73343 0.0
C453 C 0.49611 0.61314 0.71182 0.0
C454 C 0.50936 0.5885 0.73292 0.0
C455 C 0.52825 0.58963 0.77572 0.0
C456 C 0.53431 0.61544 0.79761 0.0
H457 H 0.51938 0.6834 0.63432 0.0
C458 C 0.48992 0.67461 0.62919 0.0
H459 H 0.44126 0.65411 0.66078 0.0
H460 H 0.53872 0.72151 0.82917 0.0
H461 H 0.51226 0.76377 0.79391 0.0
H462 H 0.47276 0.76117 0.72198 0.0
H463 H 0.4603 0.71632 0.68446 0.0
C464 C 0.47018 0.66383 0.66533 0.0
C465 C 0.48797 0.66476 0.71233 0.0
C466 C 0.49325 0.69102 0.73495 0.0
C467 C 0.51419 0.69234 0.77759 0.0
C468 C 0.52143 0.71907 0.79784 0.0
C469 C 0.50667 0.74357 0.77776 0.0
C470 C 0.48458 0.74212 0.73719 0.0
C471 C 0.47788 0.71623 0.71585 0.0
H472 H 0.36556 0.26661 0.02863 0.0
C473 C 0.35666 0.28856 0.03092 0.0
H474 H 0.30781 0.31601 0.03429 0.0
H475 H 0.20711 0.21789 0.93588 0.0
H476 H 0.22104 0.24794 0.87003 0.0
H477 H 0.26527 0.28908 0.87789 0.0
H478 H 0.29622 0.3002 0.95157 0.0
C479 C 0.31802 0.29436 0.03559 0.0
C480 C 0.28824 0.27096 0.0327 0.0
C481 C 0.26916 0.26527 0.98985 0.0
C482 C 0.2426 0.24203 0.98569 0.0
C483 C 0.22604 0.23596 0.94162 0.0
C484 C 0.23413 0.25288 0.90335 0.0
C485 C 0.2591 0.27599 0.90775 0.0
C486 C 0.27664 0.28214 0.95031 0.0
H487 H 0.15827 0.23349 0.00909 0.0
C488 C 0.16412 0.21112 0.01334 0.0
H489 H 0.20863 0.18111 0.02754 0.0
H490 H 0.32019 0.27548 0.11934 0.0
H491 H 0.30657 0.24523 0.18534 0.0
H492 H 0.25936 0.20569 0.17875 0.0
H493 H 0.22557 0.19599 0.10606 0.0
C494 C 0.2015 0.20316 0.02221 0.0
C495 C 0.23359 0.2251 0.02497 0.0
C496 C 0.25337 0.23042 0.06754 0.0
C497 C 0.28069 0.25331 0.07139 0.0
C498 C 0.29952 0.25827 0.11448 0.0
C499 C 0.29186 0.24114 0.15264 0.0
C500 C 0.26525 0.21888 0.14893 0.0
C501 C 0.24605 0.21354 0.10702 0.0
H502 H 0.64722 0.75139 0.01975 0.0
C503 C 0.65421 0.72928 0.02504 0.0
H504 H 0.70027 0.70033 0.03769 0.0
H505 H 0.82095 0.78984 0.94852 0.0
H506 H 0.81192 0.75805 0.88373 0.0
H507 H 0.763 0.71948 0.88735 0.0
H508 H 0.72244 0.71269 0.9557 0.0
C509 C 0.69186 0.72232 0.03474 0.0
C510 C 0.7237 0.74445 0.03467 0.0
C511 C 0.74825 0.74764 0.99519 0.0
C512 C 0.77737 0.76944 0.99368 0.0
C513 C 0.79965 0.77299 0.95252 0.0
C514 C 0.79448 0.75504 0.91479 0.0
C515 C 0.76688 0.73337 0.91678 0.0
C516 C 0.74383 0.72969 0.95629 0.0
H517 H 0.85965 0.7774 0.03201 0.0
C518 C 0.8542 0.79996 0.03126 0.0
H519 H 0.80949 0.83101 0.03076 0.0
H520 H 0.68198 0.74438 0.11558 0.0
H521 H 0.6908 0.77632 0.18057 0.0
H522 H 0.7419 0.81352 0.17854 0.0
H523 H 0.78454 0.81911 0.11143 0.0
C524 C 0.8164 0.80871 0.03253 0.0
C525 C 0.78322 0.78748 0.03252 0.0
C526 C 0.75823 0.78455 0.07169 0.0
C527 C 0.72855 0.76306 0.0728 0.0
C528 C 0.70458 0.76047 0.11273 0.0
C529 C 0.70944 0.7786 0.15031 0.0
C530 C 0.73825 0.79954 0.14918 0.0
C531 C 0.76251 0.80253 0.11049 0.0
H532 H 0.15597 0.76554 0.47571 0.0
C533 C 0.16299 0.78784 0.47309 0.0
H534 H 0.20943 0.8174 0.46741 0.0
H535 H 0.32403 0.72512 0.55868 0.0
H536 H 0.31101 0.75485 0.62504 0.0
H537 H 0.26273 0.79359 0.62012 0.0
H538 H 0.22679 0.80259 0.54886 0.0
C539 C 0.20099 0.79531 0.4667 0.0
C540 C 0.23288 0.77332 0.46764 0.0
C541 C 0.25489 0.7689 0.50894 0.0
C542 C 0.28375 0.74705 0.51131 0.0
C543 C 0.30321 0.74215 0.55411 0.0
C544 C 0.2957 0.75889 0.59273 0.0
C545 C 0.26845 0.78065 0.58999 0.0
C546 C 0.24806 0.7856 0.5488 0.0
H547 H 0.36819 0.74023 0.48196 0.0
C548 C 0.36273 0.71771 0.47908 0.0
H549 H 0.31832 0.68678 0.46977 0.0
H550 H 0.19618 0.77577 0.38343 0.0
H551 H 0.20895 0.74588 0.31681 0.0
H552 H 0.25985 0.70879 0.32026 0.0
H553 H 0.29828 0.70119 0.39039 0.0
C554 C 0.32515 0.70906 0.47279 0.0
C555 C 0.29203 0.73025 0.47165 0.0
C556 C 0.26955 0.73439 0.4306 0.0
C557 C 0.24003 0.75587 0.4286 0.0
C558 C 0.21856 0.75964 0.38692 0.0
C559 C 0.2257 0.74271 0.34841 0.0
C560 C 0.2544 0.72182 0.35035 0.0
C561 C 0.27623 0.71767 0.3908 0.0
H562 H 0.64218 0.2806 0.46707 0.0
C563 C 0.64998 0.30273 0.47085 0.0
H564 H 0.69729 0.33108 0.48063 0.0
H565 H 0.79614 0.23016 0.56979 0.0
H566 H 0.78233 0.25907 0.63689 0.0
H567 H 0.73989 0.30105 0.6304 0.0
H568 H 0.71067 0.31418 0.55681 0.0
C569 C 0.68852 0.30962 0.47243 0.0
C570 C 0.71893 0.28662 0.4741 0.0
C571 C 0.73717 0.27976 0.517 0.0
C572 C 0.76266 0.25594 0.52046 0.0
C573 C 0.77812 0.24867 0.56455 0.0
C574 C 0.77006 0.26492 0.60357 0.0
C575 C 0.74609 0.28851 0.59994 0.0
C576 C 0.72956 0.29583 0.55738 0.0
H577 H 0.8474 0.24319 0.50004 0.0
C578 C 0.83892 0.2214 0.49372 0.0
H579 H 0.79151 0.19453 0.47536 0.0
H580 H 0.69049 0.29437 0.38643 0.0
H581 H 0.70449 0.26556 0.31892 0.0
H582 H 0.74935 0.2248 0.32451 0.0
H583 H 0.78042 0.21247 0.39764 0.0
C584 C 0.80091 0.21591 0.48316 0.0
C585 C 0.77139 0.23952 0.48053 0.0
C586 C 0.75314 0.24641 0.43764 0.0
C587 C 0.72703 0.26994 0.43442 0.0
C588 C 0.70992 0.2765 0.39094 0.0
C589 C 0.71789 0.26024 0.35188 0.0
C590 C 0.74318 0.2373 0.35503 0.0
C591 C 0.7608 0.23043 0.39724 0.0
loop_
_geom_bond_atom_site_label_1
_geom_bond_atom_site_label_2
_geom_bond_distance
_geom_bond_site_symmetry_2
_ccdc_geom_bond_type
Co0 O1 2.216 1_556 S
Co0 O2 2.091 1_556 S
Co0 O4 2.004 . S
Co0 O10 2.021 1_556 S
Co0 O12 2.137 . S
Co0 O13 2.244 . S
O1 Co0 2.216 1_554 S
O1 C8 1.247 . S
O2 Co0 2.091 1_554 S
O2 C8 1.261 . S
C3 O12 1.247 . S
C3 O13 1.272 . S
O4 Co0 2.004 . S
O4 C9 1.259 1_556 S
Co5 O6 2.061 . S
Co5 O11 2.052 . S
Co5 O13 2.135 1_654 S
O6 Co5 2.061 . S
O6 C9 1.235 1_655 S
C7 O10 1.238 . S
C7 O11 1.241 1_455 S
C8 O1 1.247 . S
C8 O2 1.261 . S
C9 O4 1.259 1_554 S
C9 O6 1.235 1_455 S
O10 Co0 2.021 1_554 S
O10 C7 1.238 . S
O11 Co5 2.052 . S
O11 C7 1.241 1_655 S
O12 Co0 2.137 . S
O12 C3 1.247 . S
O13 Co0 2.244 . S
O13 C3 1.272 . S
O13 Co5 2.135 1_456 S
Co14 O15 2.216 1_556 S
Co14 O16 2.091 1_556 S
Co14 O18 2.004 . S
Co14 O24 2.021 1_556 S
Co14 O26 2.137 . S
Co14 O27 2.244 . S
O15 Co14 2.216 1_554 S
O15 C22 1.247 . S
O16 Co14 2.091 1_554 S
O16 C22 1.261 . S
C17 O26 1.247 . S
C17 O27 1.272 . S
O18 Co14 2.004 . S
O18 C23 1.259 1_556 S
Co19 O20 2.061 . S
Co19 O25 2.052 . S
Co19 O27 2.135 1_454 S
O20 Co19 2.061 . S
O20 C23 1.235 1_455 S
C21 O24 1.238 . S
C21 O25 1.241 1_655 S
C22 O15 1.247 . S
C22 O16 1.261 . S
C23 O18 1.259 1_554 S
C23 O20 1.235 1_655 S
O24 Co14 2.021 1_554 S
O24 C21 1.238 . S
O25 Co19 2.052 . S
O25 C21 1.241 1_455 S
O26 Co14 2.137 . S
O26 C17 1.247 . S
O27 Co14 2.244 . S
O27 C17 1.272 . S
O27 Co19 2.135 1_656 S
Co28 O29 2.216 . S
Co28 O30 2.091 . S
Co28 O32 2.004 . S
Co28 O38 2.021 . S
Co28 O40 2.137 . S
Co28 O41 2.244 . S
O29 Co28 2.216 . S
O29 C36 1.247 . S
O30 Co28 2.091 . S
O30 C36 1.261 . S
C31 O40 1.247 . S
C31 O41 1.272 . S
O32 Co28 2.004 . S
O32 C37 1.259 . S
Co33 O34 2.061 . S
Co33 O39 2.052 . S
Co33 O41 2.135 1_655 S
O34 Co33 2.061 . S
O34 C37 1.235 1_655 S
C35 O38 1.238 . S
C35 O39 1.241 1_455 S
C36 O29 1.247 . S
C36 O30 1.261 . S
C37 O32 1.259 . S
C37 O34 1.235 1_455 S
O38 Co28 2.021 . S
O38 C35 1.238 . S
O39 Co33 2.052 . S
O39 C35 1.241 1_655 S
O40 Co28 2.137 . S
O40 C31 1.247 . S
O41 Co28 2.244 . S
O41 C31 1.272 . S
O41 Co33 2.135 1_455 S
Co42 O43 2.216 . S
Co42 O44 2.091 . S
Co42 O46 2.004 . S
Co42 O52 2.021 . S
Co42 O54 2.137 . S
Co42 O55 2.244 . S
O43 Co42 2.216 . S
O43 C50 1.247 . S
O44 Co42 2.091 . S
O44 C50 1.261 . S
C45 O54 1.247 . S
C45 O55 1.272 . S
O46 Co42 2.004 . S
O46 C51 1.259 . S
Co47 O48 2.061 . S
Co47 O53 2.052 . S
Co47 O55 2.135 1_455 S
O48 Co47 2.061 . S
O48 C51 1.235 1_455 S
C49 O52 1.238 . S
C49 O53 1.241 1_655 S
C50 O43 1.247 . S
C50 O44 1.261 . S
C51 O46 1.259 . S
C51 O48 1.235 1_655 S
O52 Co42 2.021 . S
O52 C49 1.238 . S
O53 Co47 2.052 . S
O53 C49 1.241 1_455 S
O54 Co42 2.137 . S
O54 C45 1.247 . S
O55 Co42 2.244 . S
O55 C45 1.272 . S
O55 Co47 2.135 1_655 S
Co56 O57 2.216 1_556 S
Co56 O58 2.091 1_556 S
Co56 O60 2.004 . S
Co56 O66 2.021 1_556 S
Co56 O68 2.137 . S
Co56 O69 2.244 . S
O57 Co56 2.216 1_554 S
O57 C64 1.247 . S
O58 Co56 2.091 1_554 S
O58 C64 1.261 . S
C59 O68 1.247 . S
C59 O69 1.272 . S
O60 Co56 2.004 . S
O60 C65 1.259 1_556 S
Co61 O62 2.061 . S
Co61 O67 2.052 . S
Co61 O69 2.135 1_554 S
O62 Co61 2.061 . S
O62 C65 1.235 . S
C63 O66 1.238 . S
C63 O67 1.241 . S
C64 O57 1.247 . S
C64 O58 1.261 . S
C65 O60 1.259 1_554 S
C65 O62 1.235 . S
O66 Co56 2.021 1_554 S
O66 C63 1.238 . S
O67 Co61 2.052 . S
O67 C63 1.241 . S
O68 Co56 2.137 . S
O68 C59 1.247 . S
O69 Co56 2.244 . S
O69 C59 1.272 . S
O69 Co61 2.135 1_556 S
Co70 O71 2.216 1_556 S
Co70 O72 2.091 1_556 S
Co70 O74 2.004 . S
Co70 O80 2.021 1_556 S
Co70 O82 2.137 . S
Co70 O83 2.244 . S
O71 Co70 2.216 1_554 S
O71 C78 1.247 . S
O72 Co70 2.091 1_554 S
O72 C78 1.261 . S
C73 O82 1.247 . S
C73 O83 1.272 . S
O74 Co70 2.004 . S
O74 C79 1.259 1_556 S
Co75 O76 2.061 . S
Co75 O81 2.052 . S
Co75 O83 2.135 1_554 S
O76 Co75 2.061 . S
O76 C79 1.235 . S
C77 O80 1.238 . S
C77 O81 1.241 . S
C78 O71 1.247 . S
C78 O72 1.261 . S
C79 O74 1.259 1_554 S
C79 O76 1.235 . S
O80 Co70 2.021 1_554 S
O80 C77 1.238 . S
O81 Co75 2.052 . S
O81 C77 1.241 . S
O82 Co70 2.137 . S
O82 C73 1.247 . S
O83 Co70 2.244 . S
O83 C73 1.272 . S
O83 Co75 2.135 1_556 S
Co84 O85 2.216 . S
Co84 O86 2.091 . S
Co84 O88 2.004 . S
Co84 O94 2.021 . S
Co84 O96 2.137 . S
Co84 O97 2.244 . S
O85 Co84 2.216 . S
O85 C92 1.247 . S
O86 Co84 2.091 . S
O86 C92 1.261 . S
C87 O96 1.247 . S
C87 O97 1.272 . S
O88 Co84 2.004 . S
O88 C93 1.259 . S
Co89 O90 2.061 . S
Co89 O95 2.052 . S
Co89 O97 2.135 . S
O90 Co89 2.061 . S
O90 C93 1.235 . S
C91 O94 1.238 . S
C91 O95 1.241 . S
C92 O85 1.247 . S
C92 O86 1.261 . S
C93 O88 1.259 . S
C93 O90 1.235 . S
O94 Co84 2.021 . S
O94 C91 1.238 . S
O95 Co89 2.052 . S
O95 C91 1.241 . S
O96 Co84 2.137 . S
O96 C87 1.247 . S
O97 Co84 2.244 . S
O97 C87 1.272 . S
O97 Co89 2.135 . S
Co98 O99 2.216 . S
Co98 O100 2.091 . S
Co98 O102 2.004 . S
Co98 O108 2.021 . S
Co98 O110 2.137 . S
Co98 O111 2.244 . S
O99 Co98 2.216 . S
O99 C106 1.247 . S
O100 Co98 2.091 . S
O100 C106 1.261 . S
C101 O110 1.247 . S
C101 O111 1.272 . S
O102 Co98 2.004 . S
O102 C107 1.259 . S
Co103 O104 2.061 . S
Co103 O109 2.052 . S
Co103 O111 2.135 . S
O104 Co103 2.061 . S
O104 C107 1.235 . S
C105 O108 1.238 . S
C105 O109 1.241 . S
C106 O99 1.247 . S
C106 O100 1.261 . S
C107 O102 1.259 . S
C107 O104 1.235 . S
O108 Co98 2.021 . S
O108 C105 1.238 . S
O109 Co103 2.052 . S
O109 C105 1.241 . S
O110 Co98 2.137 . S
O110 C101 1.247 . S
O111 Co98 2.244 . S
O111 C101 1.272 . S
O111 Co103 2.135 . S
H112 C113 0.952 1_455 S
C113 H112 0.952 1_655 S
C113 C119 1.265 . S
H114 C119 0.950 . S
H115 C123 0.949 1_455 S
H116 C124 0.950 . S
H117 C125 0.946 1_565 S
H118 C126 0.951 . S
C119 C113 1.265 . S
C119 H114 0.950 . S
C119 C120 1.478 . S
C120 C119 1.478 . S
C120 C121 1.397 . S
C120 C137 1.394 1_654 S
C121 C120 1.397 . S
C121 C122 1.438 1_565 S
C121 C126 1.429 . S
C122 C121 1.438 1_545 S
C122 C123 1.428 . S
C122 C135 1.394 1_655 S
C123 H115 0.949 1_655 S
C123 C122 1.428 . S
C123 C124 1.345 . S
C124 H116 0.950 . S
C124 C123 1.345 . S
C124 C125 1.439 . S
C125 H117 0.946 1_545 S
C125 C124 1.439 . S
C125 C126 1.337 1_545 S
C126 H118 0.951 . S
C126 C121 1.429 . S
C126 C125 1.337 1_565 S
H127 C128 0.951 1_655 S
C128 H127 0.951 1_455 S
C128 C134 1.266 . S
H129 C134 0.948 1_556 S
H130 C138 0.949 1_655 S
H131 C139 0.950 . S
H132 C140 0.946 1_545 S
H133 C141 0.951 . S
C134 C128 1.266 . S
C134 H129 0.948 1_554 S
C134 C135 1.479 . S
C135 C122 1.394 1_455 S
C135 C134 1.479 . S
C135 C136 1.397 1_554 S
C136 C135 1.397 1_556 S
C136 C137 1.438 1_545 S
C136 C141 1.429 . S
C137 C120 1.394 1_456 S
C137 C136 1.438 1_565 S
C137 C138 1.428 . S
C138 H130 0.949 1_455 S
C138 C137 1.428 . S
C138 C139 1.345 . S
C139 H131 0.950 . S
C139 C138 1.345 . S
C139 C140 1.439 . S
C140 H132 0.946 1_565 S
C140 C139 1.439 . S
C140 C141 1.337 1_565 S
C141 H133 0.951 . S
C141 C136 1.429 . S
C141 C140 1.337 1_545 S
H142 C143 0.951 . S
C143 H142 0.951 . S
C143 C149 1.278 . S
H144 C149 0.935 1_655 S
H145 C153 0.949 . S
H146 C154 0.950 . S
H147 C155 0.951 . S
H148 C156 0.951 . S
C149 C143 1.278 . S
C149 H144 0.935 1_455 S
C149 C150 1.478 . S
C150 C149 1.478 . S
C150 C151 1.388 1_455 S
C150 C167 1.402 . S
C151 C150 1.388 1_655 S
C151 C152 1.438 1_565 S
C151 C156 1.429 . S
C152 C151 1.438 1_545 S
C152 C153 1.428 . S
C152 C165 1.402 . S
C153 H145 0.949 . S
C153 C152 1.428 . S
C153 C154 1.345 . S
C154 H146 0.950 . S
C154 C153 1.345 . S
C154 C155 1.424 1_545 S
C155 H147 0.951 . S
C155 C154 1.424 1_565 S
C155 C156 1.347 . S
C156 H148 0.951 . S
C156 C151 1.429 . S
C156 C155 1.347 . S
H157 C158 0.951 . S
C158 H157 0.951 . S
C158 C164 1.278 . S
H159 C164 0.935 1_455 S
H160 C168 0.949 . S
H161 C169 0.950 . S
H162 C170 0.951 . S
H163 C171 0.951 . S
C164 C158 1.278 . S
C164 H159 0.935 1_655 S
C164 C165 1.478 . S
C165 C152 1.402 . S
C165 C164 1.478 . S
C165 C166 1.388 1_655 S
C166 C165 1.388 1_455 S
C166 C167 1.438 1_545 S
C166 C171 1.429 . S
C167 C150 1.402 . S
C167 C166 1.438 1_565 S
C167 C168 1.428 . S
C168 H160 0.949 . S
C168 C167 1.428 . S
C168 C169 1.345 . S
C169 H161 0.950 . S
C169 C168 1.345 . S
C169 C170 1.424 1_565 S
C170 H162 0.951 . S
C170 C169 1.424 1_545 S
C170 C171 1.347 . S
C171 H163 0.951 . S
C171 C166 1.429 . S
C171 C170 1.347 . S
H172 C173 0.951 . S
C173 H172 0.951 . S
C173 C179 1.265 . S
H174 C179 0.949 1_556 S
H175 C183 0.949 . S
H176 C184 0.950 . S
H177 C185 0.951 . S
H178 C186 0.951 . S
C179 C173 1.265 . S
C179 H174 0.949 1_554 S
C179 C180 1.478 . S
C180 C179 1.478 . S
C180 C181 1.397 1_554 S
C180 C197 1.394 . S
C181 C180 1.397 1_556 S
C181 C182 1.438 . S
C181 C186 1.429 . S
C182 C181 1.438 . S
C182 C183 1.428 . S
C182 C195 1.394 1_556 S
C183 H175 0.949 . S
C183 C182 1.428 . S
C183 C184 1.345 . S
C184 H176 0.950 . S
C184 C183 1.345 . S
C184 C185 1.424 . S
C185 H177 0.951 . S
C185 C184 1.424 . S
C185 C186 1.347 . S
C186 H178 0.951 . S
C186 C181 1.429 . S
C186 C185 1.347 . S
H187 C188 0.951 . S
C188 H187 0.951 . S
C188 C194 1.265 . S
H189 C194 0.950 . S
H190 C198 0.949 . S
H191 C199 0.950 . S
H192 C200 0.951 . S
H193 C201 0.951 . S
C194 C188 1.265 . S
C194 H189 0.950 . S
C194 C195 1.478 . S
C195 C182 1.394 1_554 S
C195 C194 1.478 . S
C195 C196 1.397 . S
C196 C195 1.397 . S
C196 C197 1.438 . S
C196 C201 1.429 . S
C197 C180 1.394 . S
C197 C196 1.438 . S
C197 C198 1.428 . S
C198 H190 0.949 . S
C198 C197 1.428 . S
C198 C199 1.345 . S
C199 H191 0.950 . S
C199 C198 1.345 . S
C199 C200 1.424 . S
C200 H192 0.951 . S
C200 C199 1.424 . S
C200 C201 1.347 . S
C201 H193 0.951 . S
C201 C196 1.429 . S
C201 C200 1.347 . S
H202 C203 0.951 . S
C203 H202 0.951 . S
C203 C209 1.265 . S
H204 C209 0.950 . S
H205 C213 0.949 . S
H206 C214 0.950 . S
H207 C215 0.951 . S
H208 C216 0.951 . S
C209 C203 1.265 . S
C209 H204 0.950 . S
C209 C210 1.478 . S
C210 C209 1.478 . S
C210 C211 1.397 . S
C210 C227 1.394 . S
C211 C210 1.397 . S
C211 C212 1.438 . S
C211 C216 1.429 . S
C212 C211 1.438 . S
C212 C213 1.428 . S
C212 C225 1.394 . S
C213 H205 0.949 . S
C213 C212 1.428 . S
C213 C214 1.345 . S
C214 H206 0.950 . S
C214 C213 1.345 . S
C214 C215 1.424 . S
C215 H207 0.951 . S
C215 C214 1.424 . S
C215 C216 1.347 . S
C216 H208 0.951 . S
C216 C211 1.429 . S
C216 C215 1.347 . S
H217 C218 0.951 . S
C218 H217 0.951 . S
C218 C224 1.265 . S
H219 C224 0.950 . S
H220 C228 0.949 . S
H221 C229 0.950 . S
H222 C230 0.951 . S
H223 C231 0.951 . S
C224 C218 1.265 . S
C224 H219 0.950 . S
C224 C225 1.478 . S
C225 C212 1.394 . S
C225 C224 1.478 . S
C225 C226 1.397 . S
C226 C225 1.397 . S
C226 C227 1.438 . S
C226 C231 1.429 . S
C227 C210 1.394 . S
C227 C226 1.438 . S
C227 C228 1.428 . S
C228 H220 0.949 . S
C228 C227 1.428 . S
C228 C229 1.345 . S
C229 H221 0.950 . S
C229 C228 1.345 . S
C229 C230 1.424 . S
C230 H222 0.951 . S
C230 C229 1.424 . S
C230 C231 1.347 . S
C231 H223 0.951 . S
C231 C226 1.429 . S
C231 C230 1.347 . S
H232 C233 0.951 . S
C233 H232 0.951 . S
C233 C239 1.265 1_455 S
H234 C239 0.950 . S
H235 C243 0.949 . S
H236 C244 0.950 . S
H237 C245 0.951 . S
H238 C246 0.951 . S
C239 C233 1.265 1_655 S
C239 H234 0.950 . S
C239 C240 1.478 . S
C240 C239 1.478 . S
C240 C241 1.397 . S
C240 C257 1.394 1_655 S
C241 C240 1.397 . S
C241 C242 1.438 . S
C241 C246 1.429 . S
C242 C241 1.438 . S
C242 C243 1.428 . S
C242 C255 1.394 1_655 S
C243 H235 0.949 . S
C243 C242 1.428 . S
C243 C244 1.345 . S
C244 H236 0.950 . S
C244 C243 1.345 . S
C244 C245 1.424 . S
C245 H237 0.951 . S
C245 C244 1.424 . S
C245 C246 1.347 . S
C246 H238 0.951 . S
C246 C241 1.429 . S
C246 C245 1.347 . S
H247 C248 0.951 . S
C248 H247 0.951 . S
C248 C254 1.265 1_655 S
H249 C254 0.950 . S
H250 C258 0.949 . S
H251 C259 0.950 . S
H252 C260 0.951 . S
H253 C261 0.951 . S
C254 C248 1.265 1_455 S
C254 H249 0.950 . S
C254 C255 1.478 . S
C255 C242 1.394 1_455 S
C255 C254 1.478 . S
C255 C256 1.397 . S
C256 C255 1.397 . S
C256 C257 1.438 . S
C256 C261 1.429 . S
C257 C240 1.394 1_455 S
C257 C256 1.438 . S
C257 C258 1.428 . S
C258 H250 0.949 . S
C258 C257 1.428 . S
C258 C259 1.345 . S
C259 H251 0.950 . S
C259 C258 1.345 . S
C259 C260 1.424 . S
C260 H252 0.951 . S
C260 C259 1.424 . S
C260 C261 1.347 . S
C261 H253 0.951 . S
C261 C256 1.429 . S
C261 C260 1.347 . S
H262 C263 0.951 1_655 S
C263 H262 0.951 1_455 S
C263 C269 1.265 . S
H264 C269 0.950 . S
H265 C273 0.951 . S
H266 C274 0.950 . S
H267 C275 0.951 . S
H268 C276 0.951 . S
C269 C263 1.265 . S
C269 H264 0.950 . S
C269 C270 1.478 . S
C270 C269 1.478 . S
C270 C271 1.397 . S
C270 C287 1.394 1_455 S
C271 C270 1.397 . S
C271 C272 1.438 . S
C271 C276 1.429 . S
C272 C271 1.438 . S
C272 C273 1.428 . S
C272 C285 1.394 1_455 S
C273 H265 0.951 . S
C273 C272 1.428 . S
C273 C274 1.345 . S
C274 H266 0.950 . S
C274 C273 1.345 . S
C274 C275 1.424 . S
C275 H267 0.951 . S
C275 C274 1.424 . S
C275 C276 1.347 . S
C276 H268 0.951 . S
C276 C271 1.429 . S
C276 C275 1.347 . S
H277 C278 0.951 1_455 S
C278 H277 0.951 1_655 S
C278 C284 1.265 . S
H279 C284 0.950 . S
H280 C288 0.951 . S
H281 C289 0.950 . S
H282 C290 0.951 . S
H283 C291 0.951 . S
C284 C278 1.265 . S
C284 H279 0.950 . S
C284 C285 1.478 . S
C285 C272 1.394 1_655 S
C285 C284 1.478 . S
C285 C286 1.397 . S
C286 C285 1.397 . S
C286 C287 1.438 . S
C286 C291 1.429 . S
C287 C270 1.394 1_655 S
C287 C286 1.438 . S
C287 C288 1.428 . S
C288 H280 0.951 . S
C288 C287 1.428 . S
C288 C289 1.345 . S
C289 H281 0.950 . S
C289 C288 1.345 . S
C289 C290 1.424 . S
C290 H282 0.951 . S
C290 C289 1.424 . S
C290 C291 1.347 . S
C291 H283 0.951 . S
C291 C286 1.429 . S
C291 C290 1.347 . S
H292 C293 0.951 . S
C293 H292 0.951 . S
C293 C299 1.265 1_455 S
H294 C299 0.950 . S
H295 C303 0.949 . S
H296 C304 0.950 . S
H297 C305 0.951 . S
H298 C306 0.951 . S
C299 C293 1.265 1_655 S
C299 H294 0.950 . S
C299 C300 1.478 . S
C300 C299 1.478 . S
C300 C301 1.397 . S
C300 C317 1.394 1_655 S
C301 C300 1.397 . S
C301 C302 1.438 . S
C301 C306 1.429 . S
C302 C301 1.438 . S
C302 C303 1.428 . S
C302 C315 1.394 1_655 S
C303 H295 0.949 . S
C303 C302 1.428 . S
C303 C304 1.345 . S
C304 H296 0.950 . S
C304 C303 1.345 . S
C304 C305 1.424 . S
C305 H297 0.951 . S
C305 C304 1.424 . S
C305 C306 1.347 . S
C306 H298 0.951 . S
C306 C301 1.429 . S
C306 C305 1.347 . S
H307 C308 0.951 . S
C308 H307 0.951 . S
C308 C314 1.265 1_655 S
H309 C314 0.950 . S
H310 C318 0.949 . S
H311 C319 0.950 . S
H312 C320 0.951 . S
H313 C321 0.951 . S
C314 C308 1.265 1_455 S
C314 H309 0.950 . S
C314 C315 1.478 . S
C315 C302 1.394 1_455 S
C315 C314 1.478 . S
C315 C316 1.397 . S
C316 C315 1.397 . S
C316 C317 1.438 . S
C316 C321 1.429 . S
C317 C300 1.394 1_455 S
C317 C316 1.438 . S
C317 C318 1.428 . S
C318 H310 0.949 . S
C318 C317 1.428 . S
C318 C319 1.345 . S
C319 H311 0.950 . S
C319 C318 1.345 . S
C319 C320 1.424 . S
C320 H312 0.951 . S
C320 C319 1.424 . S
C320 C321 1.347 . S
C321 H313 0.951 . S
C321 C316 1.429 . S
C321 C320 1.347 . S
H322 C323 0.951 1_655 S
C323 H322 0.951 1_455 S
C323 C329 1.265 . S
H324 C329 0.950 . S
H325 C333 0.949 . S
H326 C334 0.950 . S
H327 C335 0.951 . S
H328 C336 0.951 . S
C329 C323 1.265 . S
C329 H324 0.950 . S
C329 C330 1.478 . S
C330 C329 1.478 . S
C330 C331 1.397 . S
C330 C347 1.394 1_455 S
C331 C330 1.397 . S
C331 C332 1.438 . S
C331 C336 1.429 . S
C332 C331 1.438 . S
C332 C333 1.428 . S
C332 C345 1.394 1_455 S
C333 H325 0.949 . S
C333 C332 1.428 . S
C333 C334 1.345 . S
C334 H326 0.950 . S
C334 C333 1.345 . S
C334 C335 1.424 . S
C335 H327 0.951 . S
C335 C334 1.424 . S
C335 C336 1.347 . S
C336 H328 0.951 . S
C336 C331 1.429 . S
C336 C335 1.347 . S
H337 C338 0.951 1_455 S
C338 H337 0.951 1_655 S
C338 C344 1.265 . S
H339 C344 0.950 . S
H340 C348 0.949 . S
H341 C349 0.950 . S
H342 C350 0.951 . S
H343 C351 0.951 . S
C344 C338 1.265 . S
C344 H339 0.950 . S
C344 C345 1.478 . S
C345 C332 1.394 1_655 S
C345 C344 1.478 . S
C345 C346 1.397 . S
C346 C345 1.397 . S
C346 C347 1.438 . S
C346 C351 1.429 . S
C347 C330 1.394 1_655 S
C347 C346 1.438 . S
C347 C348 1.428 . S
C348 H340 0.949 . S
C348 C347 1.428 . S
C348 C349 1.345 . S
C349 H341 0.950 . S
C349 C348 1.345 . S
C349 C350 1.424 . S
C350 H342 0.951 . S
C350 C349 1.424 . S
C350 C351 1.347 . S
C351 H343 0.951 . S
C351 C346 1.429 . S
C351 C350 1.347 . S
H352 C353 0.951 . S
C353 H352 0.951 . S
C353 C359 1.265 . S
H354 C359 0.950 . S
H355 C363 0.949 . S
H356 C364 0.950 . S
H357 C365 0.951 . S
H358 C366 0.951 . S
C359 C353 1.265 . S
C359 H354 0.950 . S
C359 C360 1.478 . S
C360 C359 1.478 . S
C360 C361 1.397 . S
C360 C377 1.394 . S
C361 C360 1.397 . S
C361 C362 1.438 . S
C361 C366 1.429 . S
C362 C361 1.438 . S
C362 C363 1.428 . S
C362 C375 1.394 . S
C363 H355 0.949 . S
C363 C362 1.428 . S
C363 C364 1.345 . S
C364 H356 0.950 . S
C364 C363 1.345 . S
C364 C365 1.424 . S
C365 H357 0.951 . S
C365 C364 1.424 . S
C365 C366 1.347 . S
C366 H358 0.951 . S
C366 C361 1.429 . S
C366 C365 1.347 . S
H367 C368 0.951 . S
C368 H367 0.951 . S
C368 C374 1.265 . S
H369 C374 0.950 . S
H370 C378 0.949 . S
H371 C379 0.950 . S
H372 C380 0.951 . S
H373 C381 0.951 . S
C374 C368 1.265 . S
C374 H369 0.950 . S
C374 C375 1.478 . S
C375 C362 1.394 . S
C375 C374 1.478 . S
C375 C376 1.397 . S
C376 C375 1.397 . S
C376 C377 1.438 . S
C376 C381 1.429 . S
C377 C360 1.394 . S
C377 C376 1.438 . S
C377 C378 1.428 . S
C378 H370 0.949 . S
C378 C377 1.428 . S
C378 C379 1.345 . S
C379 H371 0.950 . S
C379 C378 1.345 . S
C379 C380 1.424 . S
C380 H372 0.951 . S
C380 C379 1.424 . S
C380 C381 1.347 . S
C381 H373 0.951 . S
C381 C376 1.429 . S
C381 C380 1.347 . S
H382 C383 0.951 . S
C383 H382 0.951 . S
C383 C389 1.265 . S
H384 C389 0.950 . S
H385 C393 0.949 . S
H386 C394 0.950 . S
H387 C395 0.951 . S
H388 C396 0.951 . S
C389 C383 1.265 . S
C389 H384 0.950 . S
C389 C390 1.478 . S
C390 C389 1.478 . S
C390 C391 1.397 . S
C390 C407 1.394 . S
C391 C390 1.397 . S
C391 C392 1.438 . S
C391 C396 1.429 . S
C392 C391 1.438 . S
C392 C393 1.428 . S
C392 C405 1.394 . S
C393 H385 0.949 . S
C393 C392 1.428 . S
C393 C394 1.345 . S
C394 H386 0.950 . S
C394 C393 1.345 . S
C394 C395 1.424 . S
C395 H387 0.951 . S
C395 C394 1.424 . S
C395 C396 1.347 . S
C396 H388 0.951 . S
C396 C391 1.429 . S
C396 C395 1.347 . S
H397 C398 0.951 . S
C398 H397 0.951 . S
C398 C404 1.265 . S
H399 C404 0.950 . S
H400 C408 0.949 . S
H401 C409 0.950 . S
H402 C410 0.951 . S
H403 C411 0.951 . S
C404 C398 1.265 . S
C404 H399 0.950 . S
C404 C405 1.478 . S
C405 C392 1.394 . S
C405 C404 1.478 . S
C405 C406 1.397 . S
C406 C405 1.397 . S
C406 C407 1.438 . S
C406 C411 1.429 . S
C407 C390 1.394 . S
C407 C406 1.438 . S
C407 C408 1.428 . S
C408 H400 0.949 . S
C408 C407 1.428 . S
C408 C409 1.345 . S
C409 H401 0.950 . S
C409 C408 1.345 . S
C409 C410 1.424 . S
C410 H402 0.951 . S
C410 C409 1.424 . S
C410 C411 1.347 . S
C411 H403 0.951 . S
C411 C406 1.429 . S
C411 C410 1.347 . S
H412 C413 0.951 . S
C413 H412 0.951 . S
C413 C419 1.265 . S
H414 C419 0.950 . S
H415 C423 0.949 . S
H416 C424 0.950 . S
H417 C425 0.951 . S
H418 C426 0.951 . S
C419 C413 1.265 . S
C419 H414 0.950 . S
C419 C420 1.478 . S
C420 C419 1.478 . S
C420 C421 1.397 . S
C420 C437 1.394 . S
C421 C420 1.397 . S
C421 C422 1.438 . S
C421 C426 1.429 . S
C422 C421 1.438 . S
C422 C423 1.428 . S
C422 C435 1.394 . S
C423 H415 0.949 . S
C423 C422 1.428 . S
C423 C424 1.345 . S
C424 H416 0.950 . S
C424 C423 1.345 . S
C424 C425 1.424 . S
C425 H417 0.951 . S
C425 C424 1.424 . S
C425 C426 1.347 . S
C426 H418 0.951 . S
C426 C421 1.429 . S
C426 C425 1.347 . S
H427 C428 0.951 . S
C428 H427 0.951 . S
C428 C434 1.265 . S
H429 C434 0.950 . S
H430 C438 0.949 . S
H431 C439 0.950 . S
H432 C440 0.951 . S
H433 C441 0.951 . S
C434 C428 1.265 . S
C434 H429 0.950 . S
C434 C435 1.478 . S
C435 C422 1.394 . S
C435 C434 1.478 . S
C435 C436 1.397 . S
C436 C435 1.397 . S
C436 C437 1.438 . S
C436 C441 1.429 . S
C437 C420 1.394 . S
C437 C436 1.438 . S
C437 C438 1.428 . S
C438 H430 0.949 . S
C438 C437 1.428 . S
C438 C439 1.345 . S
C439 H431 0.950 . S
C439 C438 1.345 . S
C439 C440 1.424 . S
C440 H432 0.951 . S
C440 C439 1.424 . S
C440 C441 1.347 . S
C441 H433 0.951 . S
C441 C436 1.429 . S
C441 C440 1.347 . S
H442 C443 0.951 . S
C443 H442 0.951 . S
C443 C449 1.265 . S
H444 C449 0.950 . S
H445 C453 0.949 . S
H446 C454 0.950 . S
H447 C455 0.951 . S
H448 C456 0.951 . S
C449 C443 1.265 . S
C449 H444 0.950 . S
C449 C450 1.478 . S
C450 C449 1.478 . S
C450 C451 1.397 . S
C450 C467 1.394 . S
C451 C450 1.397 . S
C451 C452 1.438 . S
C451 C456 1.429 . S
C452 C451 1.438 . S
C452 C453 1.428 . S
C452 C465 1.394 . S
C453 H445 0.949 . S
C453 C452 1.428 . S
C453 C454 1.345 . S
C454 H446 0.950 . S
C454 C453 1.345 . S
C454 C455 1.424 . S
C455 H447 0.951 . S
C455 C454 1.424 . S
C455 C456 1.347 . S
C456 H448 0.951 . S
C456 C451 1.429 . S
C456 C455 1.347 . S
H457 C458 0.951 . S
C458 H457 0.951 . S
C458 C464 1.265 . S
H459 C464 0.950 . S
H460 C468 0.949 . S
H461 C469 0.950 . S
H462 C470 0.951 . S
H463 C471 0.951 . S
C464 C458 1.265 . S
C464 H459 0.950 . S
C464 C465 1.478 . S
C465 C452 1.394 . S
C465 C464 1.478 . S
C465 C466 1.397 . S
C466 C465 1.397 . S
C466 C467 1.438 . S
C466 C471 1.429 . S
C467 C450 1.394 . S
C467 C466 1.438 . S
C467 C468 1.428 . S
C468 H460 0.949 . S
C468 C467 1.428 . S
C468 C469 1.345 . S
C469 H461 0.950 . S
C469 C468 1.345 . S
C469 C470 1.424 . S
C470 H462 0.951 . S
C470 C469 1.424 . S
C470 C471 1.347 . S
C471 H463 0.951 . S
C471 C466 1.429 . S
C471 C470 1.347 . S
H472 C473 0.951 . S
C473 H472 0.951 . S
C473 C479 1.265 . S
H474 C479 0.950 1_556 S
H475 C483 0.949 . S
H476 C484 0.950 . S
H477 C485 0.951 . S
H478 C486 0.951 . S
C479 C473 1.265 . S
C479 H474 0.950 1_554 S
C479 C480 1.478 . S
C480 C479 1.478 . S
C480 C481 1.397 1_554 S
C480 C497 1.394 . S
C481 C480 1.397 1_556 S
C481 C482 1.438 . S
C481 C486 1.429 . S
C482 C481 1.438 . S
C482 C483 1.428 . S
C482 C495 1.394 1_556 S
C483 H475 0.949 . S
C483 C482 1.428 . S
C483 C484 1.345 . S
C484 H476 0.950 . S
C484 C483 1.345 . S
C484 C485 1.424 . S
C485 H477 0.951 . S
C485 C484 1.424 . S
C485 C486 1.347 . S
C486 H478 0.951 . S
C486 C481 1.429 . S
C486 C485 1.347 . S
H487 C488 0.951 . S
C488 H487 0.951 . S
C488 C494 1.265 . S
H489 C494 0.950 . S
H490 C498 0.949 . S
H491 C499 0.950 . S
H492 C500 0.951 . S
H493 C501 0.951 . S
C494 C488 1.265 . S
C494 H489 0.950 . S
C494 C495 1.478 . S
C495 C482 1.394 1_554 S
C495 C494 1.478 . S
C495 C496 1.397 . S
C496 C495 1.397 . S
C496 C497 1.438 . S
C496 C501 1.429 . S
C497 C480 1.394 . S
C497 C496 1.438 . S
C497 C498 1.428 . S
C498 H490 0.949 . S
C498 C497 1.428 . S
C498 C499 1.345 . S
C499 H491 0.950 . S
C499 C498 1.345 . S
C499 C500 1.424 . S
C500 H492 0.951 . S
C500 C499 1.424 . S
C500 C501 1.347 . S
C501 H493 0.951 . S
C501 C496 1.429 . S
C501 C500 1.347 . S
H502 C503 0.951 . S
C503 H502 0.951 . S
C503 C509 1.265 . S
H504 C509 0.950 . S
H505 C513 0.949 . S
H506 C514 0.950 . S
H507 C515 0.951 . S
H508 C516 0.951 . S
C509 C503 1.265 . S
C509 H504 0.950 . S
C509 C510 1.478 . S
C510 C509 1.478 . S
C510 C511 1.397 1_554 S
C510 C527 1.394 . S
C511 C510 1.397 1_556 S
C511 C512 1.438 . S
C511 C516 1.429 . S
C512 C511 1.438 . S
C512 C513 1.428 . S
C512 C525 1.394 1_556 S
C513 H505 0.949 . S
C513 C512 1.428 . S
C513 C514 1.345 . S
C514 H506 0.950 . S
C514 C513 1.345 . S
C514 C515 1.424 . S
C515 H507 0.951 . S
C515 C514 1.424 . S
C515 C516 1.347 . S
C516 H508 0.951 . S
C516 C511 1.429 . S
C516 C515 1.347 . S
H517 C518 0.951 . S
C518 H517 0.951 . S
C518 C524 1.265 . S
H519 C524 0.950 . S
H520 C528 0.949 . S
H521 C529 0.950 . S
H522 C530 0.951 . S
H523 C531 0.951 . S
C524 C518 1.265 . S
C524 H519 0.950 . S
C524 C525 1.478 . S
C525 C512 1.394 1_554 S
C525 C524 1.478 . S
C525 C526 1.397 . S
C526 C525 1.397 . S
C526 C527 1.438 . S
C526 C531 1.429 . S
C527 C510 1.394 . S
C527 C526 1.438 . S
C527 C528 1.428 . S
C528 H520 0.949 . S
C528 C527 1.428 . S
C528 C529 1.345 . S
C529 H521 0.950 . S
C529 C528 1.345 . S
C529 C530 1.424 . S
C530 H522 0.951 . S
C530 C529 1.424 . S
C530 C531 1.347 . S
C531 H523 0.951 . S
C531 C526 1.429 . S
C531 C530 1.347 . S
H532 C533 0.951 . S
C533 H532 0.951 . S
C533 C539 1.265 . S
H534 C539 0.950 . S
H535 C543 0.949 . S
H536 C544 0.950 . S
H537 C545 0.951 . S
H538 C546 0.951 . S
C539 C533 1.265 . S
C539 H534 0.950 . S
C539 C540 1.478 . S
C540 C539 1.478 . S
C540 C541 1.397 . S
C540 C557 1.394 . S
C541 C540 1.397 . S
C541 C542 1.438 . S
C541 C546 1.429 . S
C542 C541 1.438 . S
C542 C543 1.428 . S
C542 C555 1.394 . S
C543 H535 0.949 . S
C543 C542 1.428 . S
C543 C544 1.345 . S
C544 H536 0.950 . S
C544 C543 1.345 . S
C544 C545 1.424 . S
C545 H537 0.951 . S
C545 C544 1.424 . S
C545 C546 1.347 . S
C546 H538 0.951 . S
C546 C541 1.429 . S
C546 C545 1.347 . S
H547 C548 0.951 . S
C548 H547 0.951 . S
C548 C554 1.265 . S
H549 C554 0.950 . S
H550 C558 0.949 . S
H551 C559 0.950 . S
H552 C560 0.951 . S
H553 C561 0.951 . S
C554 C548 1.265 . S
C554 H549 0.950 . S
C554 C555 1.478 . S
C555 C542 1.394 . S
C555 C554 1.478 . S
C555 C556 1.397 . S
C556 C555 1.397 . S
C556 C557 1.438 . S
C556 C561 1.429 . S
C557 C540 1.394 . S
C557 C556 1.438 . S
C557 C558 1.428 . S
C558 H550 0.949 . S
C558 C557 1.428 . S
C558 C559 1.345 . S
C559 H551 0.950 . S
C559 C558 1.345 . S
C559 C560 1.424 . S
C560 H552 0.951 . S
C560 C559 1.424 . S
C560 C561 1.347 . S
C561 H553 0.951 . S
C561 C556 1.429 . S
C561 C560 1.347 . S
H562 C563 0.951 . S
C563 H562 0.951 . S
C563 C569 1.265 . S
H564 C569 0.950 . S
H565 C573 0.949 . S
H566 C574 0.950 . S
H567 C575 0.951 . S
H568 C576 0.951 . S
C569 C563 1.265 . S
C569 H564 0.950 . S
C569 C570 1.478 . S
C570 C569 1.478 . S
C570 C571 1.397 . S
C570 C587 1.394 . S
C571 C570 1.397 . S
C571 C572 1.438 . S
C571 C576 1.429 . S
C572 C571 1.438 . S
C572 C573 1.428 . S
C572 C585 1.394 . S
C573 H565 0.949 . S
C573 C572 1.428 . S
C573 C574 1.345 . S
C574 H566 0.950 . S
C574 C573 1.345 . S
C574 C575 1.424 . S
C575 H567 0.951 . S
C575 C574 1.424 . S
C575 C576 1.347 . S
C576 H568 0.951 . S
C576 C571 1.429 . S
C576 C575 1.347 . S
H577 C578 0.951 . S
C578 H577 0.951 . S
C578 C584 1.265 . S
H579 C584 0.950 . S
H580 C588 0.949 . S
H581 C589 0.950 . S
H582 C590 0.951 . S
H583 C591 0.951 . S
C584 C578 1.265 . S
C584 H579 0.950 . S
C584 C585 1.478 . S
C585 C572 1.394 . S
C585 C584 1.478 . S
C585 C586 1.397 . S
C586 C585 1.397 . S
C586 C587 1.438 . S
C586 C591 1.429 . S
C587 C570 1.394 . S
C587 C586 1.438 . S
C587 C588 1.428 . S
C588 H580 0.949 . S
C588 C587 1.428 . S
C588 C589 1.345 . S
C589 H581 0.950 . S
C589 C588 1.345 . S
C589 C590 1.424 . S
C590 H582 0.951 . S
C590 C589 1.424 . S
C590 C591 1.347 . S
C591 H583 0.951 . S
C591 C586 1.429 . S
C591 C590 1.347 . S
C113 C23 1.443 . S
C128 C9 1.443 . S
C143 C37 1.503 . S
C158 C51 1.503 . S
C173 C65 1.503 . S
C188 C79 1.503 . S
C203 C93 1.443 . S
C218 C107 1.444 . S
C233 C7 1.261 . S
C248 C49 1.258 . S
C263 C35 1.236 . S
C278 C21 1.243 . S
C293 C31 1.196 . S
C308 C17 1.196 . S
C323 C3 1.282 . S
C338 C45 1.279 . S
C353 C63 1.210 . S
C368 C105 1.283 . S
C383 C91 1.232 . S
C398 C77 1.246 . S
C413 C73 1.195 . S
C428 C87 1.198 . S
C443 C59 1.282 . S
C458 C101 1.280 . S
C473 C78 1.508 . S
C488 C8 1.507 . S
C503 C64 1.507 . S
C518 C22 1.507 . S
C533 C36 1.508 . S
C548 C106 1.507 . S
C563 C92 1.507 . S
C578 C50 1.507 . S
