# Generated by pormake.
# Topology whw, (6)-cn, num edge types: 1
# Building blocks:
#     Node 0, Type 0, BuildingBlock: LEVNOQ01_clean_sbu_1, # of connection points: 6
#     Node 1, Type 0, BuildingBlock: LEVNOQ01_clean_sbu_1, # of connection points: 6
#     Node 2, Type 0, BuildingBlock: LEVNOQ01_clean_sbu_1, # of connection points: 6
#     Node 3, Type 0, BuildingBlock: LEVNOQ01_clean_sbu_1, # of connection points: 6
#     Node 4, Type 0, BuildingBlock: LEVNOQ01_clean_sbu_1, # of connection points: 6
#     Node 5, Type 0, BuildingBlock: LEVNOQ01_clean_sbu_1, # of connection points: 6
#     Node 6, Type 0, BuildingBlock: LEVNOQ01_clean_sbu_1, # of connection points: 6
#     Node 7, Type 0, BuildingBlock: LEVNOQ01_clean_sbu_1, # of connection points: 6
#     Node 8, Type 0, BuildingBlock: LEVNOQ01_clean_sbu_1, # of connection points: 6
#     Node 9, Type 0, BuildingBlock: LEVNOQ01_clean_sbu_1, # of connection points: 6
#     Node 10, Type 0, BuildingBlock: LEVNOQ01_clean_sbu_1, # of connection points: 6
#     Node 11, Type 0, BuildingBlock: LEVNOQ01_clean_sbu_1, # of connection points: 6
#     Node 12, Type 0, BuildingBlock: LEVNOQ01_clean_sbu_1, # of connection points: 6
#     Node 13, Type 0, BuildingBlock: LEVNOQ01_clean_sbu_1, # of connection points: 6
#     Node 14, Type 0, BuildingBlock: LEVNOQ01_clean_sbu_1, # of connection points: 6
#     Node 15, Type 0, BuildingBlock: LEVNOQ01_clean_sbu_1, # of connection points: 6
#     Edge 16, Type (0, 0), BuildingBlock: AJUNOK_clean_linker_0, # of connection points: 2
#     Edge 17, Type (0, 0), BuildingBlock: AJUNOK_clean_linker_0, # of connection points: 2
#     Edge 18, Type (0, 0), BuildingBlock: AJUNOK_clean_linker_0, # of connection points: 2
#     Edge 19, Type (0, 0), BuildingBlock: AJUNOK_clean_linker_0, # of connection points: 2
#     Edge 20, Type (0, 0), BuildingBlock: AJUNOK_clean_linker_0, # of connection points: 2
#     Edge 21, Type (0, 0), BuildingBlock: AJUNOK_clean_linker_0, # of connection points: 2
#     Edge 22, Type (0, 0), BuildingBlock: AJUNOK_clean_linker_0, # of connection points: 2
#     Edge 23, Type (0, 0), BuildingBlock: AJUNOK_clean_linker_0, # of connection points: 2
#     Edge 24, Type (0, 0), BuildingBlock: AJUNOK_clean_linker_0, # of connection points: 2
#     Edge 25, Type (0, 0), BuildingBlock: AJUNOK_clean_linker_0, # of connection points: 2
#     Edge 26, Type (0, 0), BuildingBlock: AJUNOK_clean_linker_0, # of connection points: 2
#     Edge 27, Type (0, 0), BuildingBlock: AJUNOK_clean_linker_0, # of connection points: 2
#     Edge 28, Type (0, 0), BuildingBlock: AJUNOK_clean_linker_0, # of connection points: 2
#     Edge 29, Type (0, 0), BuildingBlock: AJUNOK_clean_linker_0, # of connection points: 2
#     Edge 30, Type (0, 0), BuildingBlock: AJUNOK_clean_linker_0, # of connection points: 2
#     Edge 31, Type (0, 0), BuildingBlock: AJUNOK_clean_linker_0, # of connection points: 2
#     Edge 32, Type (0, 0), BuildingBlock: AJUNOK_clean_linker_0, # of connection points: 2
#     Edge 33, Type (0, 0), BuildingBlock: AJUNOK_clean_linker_0, # of connection points: 2
#     Edge 34, Type (0, 0), BuildingBlock: AJUNOK_clean_linker_0, # of connection points: 2
#     Edge 35, Type (0, 0), BuildingBlock: AJUNOK_clean_linker_0, # of connection points: 2
#     Edge 36, Type (0, 0), BuildingBlock: AJUNOK_clean_linker_0, # of connection points: 2
#     Edge 37, Type (0, 0), BuildingBlock: AJUNOK_clean_linker_0, # of connection points: 2
#     Edge 38, Type (0, 0), BuildingBlock: AJUNOK_clean_linker_0, # of connection points: 2
#     Edge 39, Type (0, 0), BuildingBlock: AJUNOK_clean_linker_0, # of connection points: 2
#     Edge 40, Type (0, 0), BuildingBlock: AJUNOK_clean_linker_0, # of connection points: 2
#     Edge 41, Type (0, 0), BuildingBlock: AJUNOK_clean_linker_0, # of connection points: 2
#     Edge 42, Type (0, 0), BuildingBlock: AJUNOK_clean_linker_0, # of connection points: 2
#     Edge 43, Type (0, 0), BuildingBlock: AJUNOK_clean_linker_0, # of connection points: 2
#     Edge 44, Type (0, 0), BuildingBlock: AJUNOK_clean_linker_0, # of connection points: 2
#     Edge 45, Type (0, 0), BuildingBlock: AJUNOK_clean_linker_0, # of connection points: 2
#     Edge 46, Type (0, 0), BuildingBlock: AJUNOK_clean_linker_0, # of connection points: 2
#     Edge 47, Type (0, 0), BuildingBlock: AJUNOK_clean_linker_0, # of connection points: 2
#     Edge 48, Type (0, 0), BuildingBlock: AJUNOK_clean_linker_0, # of connection points: 2
#     Edge 49, Type (0, 0), BuildingBlock: AJUNOK_clean_linker_0, # of connection points: 2
#     Edge 50, Type (0, 0), BuildingBlock: AJUNOK_clean_linker_0, # of connection points: 2
#     Edge 51, Type (0, 0), BuildingBlock: AJUNOK_clean_linker_0, # of connection points: 2
#     Edge 52, Type (0, 0), BuildingBlock: AJUNOK_clean_linker_0, # of connection points: 2
#     Edge 53, Type (0, 0), BuildingBlock: AJUNOK_clean_linker_0, # of connection points: 2
#     Edge 54, Type (0, 0), BuildingBlock: AJUNOK_clean_linker_0, # of connection points: 2
#     Edge 55, Type (0, 0), BuildingBlock: AJUNOK_clean_linker_0, # of connection points: 2
#     Edge 56, Type (0, 0), BuildingBlock: AJUNOK_clean_linker_0, # of connection points: 2
#     Edge 57, Type (0, 0), BuildingBlock: AJUNOK_clean_linker_0, # of connection points: 2
#     Edge 58, Type (0, 0), BuildingBlock: AJUNOK_clean_linker_0, # of connection points: 2
#     Edge 59, Type (0, 0), BuildingBlock: AJUNOK_clean_linker_0, # of connection points: 2
#     Edge 60, Type (0, 0), BuildingBlock: AJUNOK_clean_linker_0, # of connection points: 2
#     Edge 61, Type (0, 0), BuildingBlock: AJUNOK_clean_linker_0, # of connection points: 2
#     Edge 62, Type (0, 0), BuildingBlock: AJUNOK_clean_linker_0, # of connection points: 2
#     Edge 63, Type (0, 0), BuildingBlock: AJUNOK_clean_linker_0, # of connection points: 2
# Relax obj value: 0.530
# Max RMSD: 0.236
# Mean RMSD: 0.236
data_MOF--net-whw--node1-LEVNOQ01_clean_sbu_1--edge1-AJUNOK_clean_linker_0
_symmetry_space_group_name_H-M    P1
_symmetry_Int_Tables_number       1
_symmetry_cell_setting            triclinic
loop_
_symmetry_equiv_pos_as_xyz
'x, y, z'
_cell_length_a     37.12605
_cell_length_b     37.229859
_cell_length_c     18.186742
_cell_angle_alpha  90.013454
_cell_angle_beta   90.127807
_cell_angle_gamma 89.945776
loop_
_atom_site_label
_atom_site_type_symbol
_atom_site_fract_x
_atom_site_fract_y
_atom_site_fract_z
_atom_type_partial_charge
O0 O 0.08261 0.08001 0.29103 0.0
Mg1 Mg 0.03275 0.05855 0.25557 0.0
O2 O 0.07497 0.12796 0.22058 0.0
Mg3 Mg 0.02892 0.12416 0.13258 0.0
O4 O 0.02661 0.06297 0.14405 0.0
O5 O 0.02787 0.0101 0.20089 0.0
O6 O 0.97988 0.12637 0.04103 0.0
O7 O 0.07565 0.12319 0.03639 0.0
Mg8 Mg 0.02994 0.20247 0.03331 0.0
O9 O 0.03327 0.18177 0.13276 0.0
O10 O 0.97871 0.18353 1.00188 0.0
O11 O 0.07446 0.17795 0.98456 0.0
O12 O 0.04035 0.23919 0.11854 0.0
C13 C 0.97298 0.11233 0.28458 0.0
C14 C 0.09214 0.11117 0.27086 0.0
C15 C 0.02418 0.02833 0.14101 0.0
C16 C 0.96472 0.15238 1.00484 0.0
C17 C 0.08862 0.14709 0.99177 0.0
C18 C 0.04054 0.21189 0.16228 0.0
O19 O 0.98729 0.08301 0.30529 0.0
O20 O 0.98429 0.12867 0.22671 0.0
O21 O 0.07608 0.85017 0.31194 0.0
Mg22 Mg 0.05215 0.79868 0.31582 0.0
O23 O 0.12842 0.8242 0.29509 0.0
Mg24 Mg 0.13045 0.7836 0.39869 0.0
O25 O 0.07138 0.78073 0.41005 0.0
O26 O 0.01329 0.78221 0.39478 0.0
O27 O 0.1315 0.7439 0.49756 0.0
O28 O 0.12839 0.83203 0.47844 0.0
Mg29 Mg 0.19884 0.79674 0.51234 0.0
O30 O 0.19146 0.78294 0.40386 0.0
O31 O 0.17584 0.75514 0.57702 0.0
O32 O 0.17881 0.84828 0.53445 0.0
O33 O 0.24572 0.78885 0.45476 0.0
C34 C 0.10325 0.7353 0.25533 0.0
C35 C 0.10527 0.8483 0.27636 0.0
C36 C 0.04032 0.77101 0.43294 0.0
C37 C 0.14826 0.73734 0.55756 0.0
C38 C 0.14594 0.85365 0.51952 0.0
C39 C 0.22605 0.78073 0.3986 0.0
O40 O 0.07651 0.75687 0.24891 0.0
O41 O 0.12631 0.73756 0.3085 0.0
O42 O 0.41165 0.93999 0.80817 0.0
Mg43 Mg 0.46674 0.9498 0.78174 0.0
O44 O 0.41212 0.8922 0.736 0.0
Mg45 Mg 0.45667 0.88501 0.6508 0.0
O46 O 0.47412 0.94178 0.67198 0.0
O47 O 0.48683 0.99413 0.72376 0.0
O48 O 0.49852 0.87127 0.55678 0.0
O49 O 0.41997 0.90392 0.54813 0.0
Mg50 Mg 0.41093 0.82996 0.54632 0.0
O51 O 0.43724 0.8288 0.64116 0.0
O52 O 0.45946 0.84236 0.482 0.0
O53 O 0.37354 0.87097 0.57026 0.0
O54 O 0.40961 0.78068 0.60178 0.0
C55 C 0.50822 0.87997 0.81074 0.0
C56 C 0.39738 0.91084 0.78638 0.0
C57 C 0.48539 0.97419 0.66595 0.0
C58 C 0.49077 0.85566 0.49515 0.0
C59 C 0.38906 0.8924 0.52726 0.0
C60 C 0.43245 0.79492 0.6464 0.0
O61 O 0.50115 0.91175 0.83188 0.0
O62 O 0.49572 0.86718 0.74999 0.0
O63 O 0.32275 0.16266 0.04573 0.0
Mg64 Mg 0.30562 0.21391 0.00805 0.0
O65 O 0.37628 0.1626 0.99017 0.0
Mg66 Mg 0.38466 0.20979 0.90824 0.0
O67 O 0.32507 0.21597 0.90286 0.0
O68 O 0.26698 0.22121 0.9254 0.0
O69 O 0.39751 0.25524 0.81661 0.0
O70 O 0.38545 0.16737 0.80898 0.0
Mg71 Mg 0.4645 0.18867 0.83361 0.0
O72 O 0.4436 0.20672 0.92618 0.0
O73 O 0.44829 0.23315 0.76545 0.0
O74 O 0.43795 0.13934 0.8149 0.0
O75 O 0.50193 0.20132 0.91755 0.0
C76 C 0.36327 0.26516 0.05609 0.0
C77 C 0.35327 0.14831 0.03357 0.0
C78 C 0.29313 0.22137 0.87909 0.0
C79 C 0.42328 0.25674 0.76863 0.0
C80 C 0.40651 0.14189 0.78798 0.0
C81 C 0.47477 0.21499 0.95153 0.0
O82 O 0.32993 0.2585 0.06399 0.0
O83 O 0.38208 0.24908 0.00742 0.0
O84 O 0.01862 0.93394 0.69962 0.0
Mg85 Mg 0.96843 0.93952 0.75491 0.0
O86 O 0.03999 0.88786 0.7652 0.0
Mg87 Mg -0.0023 0.86948 0.84931 0.0
O88 O 0.98061 0.92746 0.86174 0.0
O89 O 0.9596 0.98079 0.82767 0.0
O90 O 0.95558 0.84975 0.93804 0.0
O91 O 0.03994 0.87703 0.95048 0.0
Mg92 Mg 0.03171 0.79883 0.92186 0.0
O93 O 0.01278 0.81164 0.82218 0.0
O94 O 0.98435 0.80299 0.989 0.0
O95 O 0.07669 0.83054 0.94784 0.0
O96 O 0.03604 0.75821 0.84483 0.0
C97 C 0.93329 0.87503 0.71024 0.0
C98 C 0.04325 0.91119 0.71408 0.0
C99 C 0.9733 0.96039 0.87782 0.0
C100 C 0.95732 0.82411 0.98528 0.0
C101 C 0.06856 0.86098 0.97371 0.0
C102 C 0.01912 0.77924 0.80014 0.0
O103 O 0.92647 0.90829 0.71078 0.0
O104 O 0.95731 0.86162 0.75248 0.0
O105 O 0.32543 0.7793 0.96525 0.0
Mg106 Mg 0.32043 0.72971 0.02144 0.0
O107 O 0.37126 0.79886 0.03315 0.0
Mg108 Mg 0.38778 0.75679 0.12227 0.0
O109 O 0.32821 0.73981 0.13119 0.0
O110 O 0.27611 0.72013 0.08289 0.0
O111 O 0.40815 0.71631 0.21616 0.0
O112 O 0.38066 0.803 0.21636 0.0
Mg113 Mg 0.46519 0.79077 0.19501 0.0
O114 O 0.44486 0.77191 0.10297 0.0
O115 O 0.45714 0.74383 0.2629 0.0
O116 O 0.43141 0.83495 0.21711 0.0
O117 O 0.50223 0.78364 0.10705 0.0
C118 C 0.38349 0.68935 0.98892 0.0
C119 C 0.34851 0.80328 0.98093 0.0
C120 C 0.2947 0.7307 0.1389 0.0
C121 C 0.43498 0.71758 0.26146 0.0
C122 C 0.39903 0.83065 0.23775 0.0
C123 C 0.4763 0.76651 0.07581 0.0
O124 O 0.34987 0.68579 0.98186 0.0
O125 O 0.39679 0.71328 0.03138 0.0
O126 O 0.45582 0.04083 0.21188 0.0
Mg127 Mg 0.51002 0.04289 0.25362 0.0
O128 O 0.43646 0.08621 0.28059 0.0
Mg129 Mg 0.47461 0.10946 0.36624 0.0
O130 O 0.50537 0.05839 0.36006 0.0
O131 O 0.52976 0.00628 0.33377 0.0
O132 O 0.51055 0.13628 0.45729 0.0
O133 O 0.4412 0.08772 0.46976 0.0
Mg134 Mg 0.41807 0.15651 0.45494 0.0
O135 O 0.44056 0.15982 0.35487 0.0
O136 O 0.46621 0.16016 0.52551 0.0
O137 O 0.38838 0.10869 0.44562 0.0
O138 O 0.40054 0.19952 0.39179 0.0
C139 C 0.53309 0.11986 0.21972 0.0
C140 C 0.43132 0.06309 0.23003 0.0
C141 C 0.51781 0.02834 0.3824 0.0
C142 C 0.49954 0.15255 0.51553 0.0
C143 C 0.40824 0.09138 0.48886 0.0
C144 C 0.42303 0.18907 0.34226 0.0
O145 O 0.53812 0.08662 0.20703 0.0
O146 O 0.5121 0.13116 0.27093 0.0
O147 O 0.11821 0.16791 0.68975 0.0
Mg148 Mg 0.0779 0.20695 0.70758 0.0
O149 O 0.15996 0.20768 0.71296 0.0
Mg150 Mg 0.14484 0.25375 0.62232 0.0
O151 O 0.09083 0.23508 0.62118 0.0
O152 O 0.03767 0.21183 0.62389 0.0
O153 O 0.12771 0.30138 0.53955 0.0
O154 O 0.15198 0.21526 0.52504 0.0
Mg155 Mg 0.2076 0.27855 0.49546 0.0
O156 O 0.20283 0.26947 0.60577 0.0
O157 O 0.1728 0.32173 0.47057 0.0
O158 O 0.193 0.22891 0.44142 0.0
O159 O 0.25524 0.2842 0.55689 0.0
C160 C 0.10621 0.28214 0.77854 0.0
C161 C 0.14595 0.1766 0.72559 0.0
C162 C 0.06073 0.2315 0.58972 0.0
C163 C 0.14027 0.32356 0.49172 0.0
C164 C 0.16827 0.20827 0.4651 0.0
C165 C 0.23697 0.27376 0.61306 0.0
O166 O 0.08801 0.25282 0.78011 0.0
O167 O 0.1287 0.28963 0.72628 0.0
O168 O 0.82767 0.29669 0.46833 0.0
Mg169 Mg 0.8126 0.24384 0.49627 0.0
O170 O 0.87582 0.29369 0.54082 0.0
Mg171 Mg 0.87366 0.24757 0.62995 0.0
O172 O 0.81399 0.23934 0.60778 0.0
O173 O 0.76333 0.2335 0.54423 0.0
O174 O 0.87192 0.20223 0.72678 0.0
O175 O 0.86485 0.29171 0.72464 0.0
Mg176 Mg 0.94026 0.23918 0.74414 0.0
O177 O 0.93207 0.25846 0.64368 0.0
O178 O 0.92787 0.18443 0.72667 0.0
O179 O 0.90762 0.27517 0.80552 0.0
O180 O 0.98564 0.26083 0.69589 0.0
C181 C 0.87487 0.1916 0.47656 0.0
C182 C 0.85761 0.30925 0.48991 0.0
C183 C 0.77955 0.23445 0.60696 0.0
C184 C 0.89605 0.17974 0.74839 0.0
C185 C 0.88155 0.29546 0.78659 0.0
C186 C 0.96538 0.26701 0.63961 0.0
O187 O 0.84534 0.20312 0.45024 0.0
O188 O 0.8875 0.20368 0.53774 0.0
O189 O 0.59642 0.69937 0.31518 0.0
Mg190 Mg 0.55098 0.70721 0.24808 0.0
O191 O 0.6336 0.68821 0.22425 0.0
Mg192 Mg 0.61457 0.73493 0.14218 0.0
O193 O 0.55992 0.71021 0.13778 0.0
O194 O 0.5386 0.66085 0.18383 0.0
O195 O 0.59363 0.7795 0.056 0.0
O196 O 0.62987 0.69564 0.04836 0.0
Mg197 Mg 0.67687 0.76548 0.02534 0.0
O198 O 0.67179 0.75689 0.13576 0.0
O199 O 0.63804 0.80265 0.98881 0.0
O200 O 0.6736 0.71406 0.97439 0.0
O201 O 0.72173 0.7792 0.08716 0.0
C202 C 0.56351 0.78309 0.26727 0.0
C203 C 0.62288 0.68219 0.28988 0.0
C204 C 0.54824 0.67814 0.12615 0.0
C205 C 0.60504 0.80142 1.00642 0.0
C206 C 0.65101 0.69032 0.99407 0.0
C207 C 0.70495 0.76671 0.14368 0.0
O208 O 0.53731 0.7616 0.25786 0.0
O209 O 0.5952 0.77584 0.24121 0.0
O210 O 0.58064 0.35252 0.76261 0.0
Mg211 Mg 0.54415 0.31453 0.79567 0.0
O212 O 0.62819 0.31776 0.78338 0.0
Mg213 Mg 0.61211 0.27636 0.88155 0.0
O214 O 0.55893 0.30325 0.89796 0.0
O215 O 0.50851 0.33171 0.87508 0.0
O216 O 0.596 0.23351 0.97305 0.0
O217 O 0.62697 0.31812 0.96806 0.0
Mg218 Mg 0.67692 0.2595 0.99377 0.0
O219 O 0.66996 0.25474 0.88115 0.0
O220 O 0.64272 0.2233 0.04724 0.0
O221 O 0.67578 0.31285 0.03544 0.0
O222 O 0.72061 0.23955 0.94006 0.0
C223 C 0.56446 0.23686 0.74234 0.0
C224 C 0.61338 0.34506 0.75165 0.0
C225 C 0.52987 0.31757 0.92309 0.0
C226 C 0.61044 0.21734 0.02816 0.0
C227 C 0.64806 0.33051 0.01687 0.0
C228 C 0.70265 0.24248 0.87946 0.0
O229 O 0.54377 0.26414 0.7385 0.0
O230 O 0.59071 0.2353 0.78884 0.0
O231 O 0.84223 0.65713 0.53876 0.0
Mg232 Mg 0.82267 0.70623 0.49728 0.0
O233 O 0.88985 0.6664 0.4693 0.0
Mg234 Mg 0.88398 0.70853 0.37556 0.0
O235 O 0.82237 0.71246 0.38525 0.0
O236 O 0.77255 0.71001 0.45318 0.0
O237 O 0.88331 0.75113 0.274 0.0
O238 O 0.8802 0.65884 0.29395 0.0
Mg239 Mg 0.95148 0.70832 0.26409 0.0
O240 O 0.94345 0.70626 0.3738 0.0
O241 O 0.94132 0.76385 0.26023 0.0
O242 O 0.91299 0.67933 0.20163 0.0
O243 O 0.98532 0.67349 0.3261 0.0
C244 C 0.87263 0.76931 0.51474 0.0
C245 C 0.87408 0.64915 0.52048 0.0
C246 C 0.78757 0.71477 0.39009 0.0
C247 C 0.90851 0.77116 0.24734 0.0
C248 C 0.89174 0.6561 0.22794 0.0
C249 C 0.96832 0.68294 0.38449 0.0
O250 O 0.8453 0.75335 0.5407 0.0
O251 O 0.88943 0.75701 0.4585 0.0
O252 O 0.57975 0.55824 0.81046 0.0
Mg253 Mg 0.5272 0.54418 0.77435 0.0
O254 O 0.58062 0.60708 0.74071 0.0
Mg255 Mg 0.53743 0.61102 0.64948 0.0
O256 O 0.52423 0.55224 0.66393 0.0
O257 O 0.51347 0.49892 0.71399 0.0
O258 O 0.49711 0.62299 0.54897 0.0
O259 O 0.57881 0.5957 0.55497 0.0
Mg260 Mg 0.58019 0.6699 0.55318 0.0
O261 O 0.54941 0.66994 0.64234 0.0
O262 O 0.53612 0.65459 0.4792 0.0
O263 O 0.62105 0.63286 0.58332 0.0
O264 O 0.57441 0.72 0.60462 0.0
C265 C 0.48037 0.60901 0.80121 0.0
C266 C 0.59369 0.58817 0.79289 0.0
C267 C 0.51574 0.51895 0.6564 0.0
C268 C 0.50525 0.63975 0.48862 0.0
C269 C 0.61051 0.60755 0.54269 0.0
C270 C 0.55073 0.70432 0.64505 0.0
O271 O 0.48669 0.5768 0.8202 0.0
O272 O 0.49593 0.62338 0.74547 0.0
O273 O 0.92578 0.4397 0.28792 0.0
Mg274 Mg 0.9797 0.4532 0.25928 0.0
O275 O 0.94075 0.38784 0.23936 0.0
Mg276 Mg 0.9856 0.38114 0.15509 0.0
O277 O 0.9928 0.44097 0.15149 0.0
O278 O 0.99255 0.49674 0.19423 0.0
O279 O 0.02919 0.36805 0.06292 0.0
O280 O 0.94175 0.38227 0.05479 0.0
Mg281 Mg 0.95642 0.31024 0.08547 0.0
O282 O 0.98039 0.32248 0.18038 0.0
O283 O -0.00159 0.32393 0.00697 0.0
O284 O 0.90729 0.33839 0.08957 0.0
O285 O 0.96316 0.26712 0.15661 0.0
C286 C 0.03715 0.39958 0.30811 0.0
C287 C 0.92009 0.40644 0.28011 0.0
C288 C -0.00114 0.47462 0.14126 0.0
C289 C 0.0254 0.34524 0.00998 0.0
C290 C 0.91244 0.36431 0.0465 0.0
C291 C 0.97916 0.28939 0.2001 0.0
O292 O 0.02058 0.4283 0.32526 0.0
O293 O 0.02884 0.38159 0.25023 0.0
O294 O 0.53432 0.42606 0.20152 0.0
Mg295 Mg 0.48383 0.4356 0.25374 0.0
O296 O 0.55075 0.3795 0.27097 0.0
Mg297 Mg 0.51127 0.3674 0.36618 0.0
O298 O 0.49354 0.4251 0.36228 0.0
O299 O 0.47609 0.47897 0.32447 0.0
O300 O 0.47488 0.3504 0.47079 0.0
O301 O 0.55843 0.38001 0.4538 0.0
Mg302 Mg 0.55504 0.29958 0.44716 0.0
O303 O 0.52538 0.30974 0.35973 0.0
O304 O 0.51322 0.31229 0.5277 0.0
O305 O 0.59653 0.33717 0.42655 0.0
O306 O 0.5444 0.25497 0.37717 0.0
C307 C 0.44383 0.36805 0.23108 0.0
C308 C 0.55631 0.40096 0.21729 0.0
C309 C 0.48602 0.45795 0.37701 0.0
C310 C 0.48342 0.32976 0.52568 0.0
C311 C 0.58975 0.36565 0.46166 0.0
C312 C 0.52331 0.27653 0.34235 0.0
O313 O 0.44161 0.4014 0.21764 0.0
O314 O 0.46688 0.35581 0.27717 0.0
O315 O -0.00183 0.55913 0.69848 0.0
Mg316 Mg 0.04955 0.55488 0.75079 0.0
O317 O 0.97716 0.60125 0.77372 0.0
Mg318 Mg 0.01431 0.61627 0.87059 0.0
O319 O 0.04081 0.562 0.85984 0.0
O320 O 0.06371 0.51122 0.81782 0.0
O321 O 0.05185 0.63537 0.97223 0.0
O322 O 0.97057 0.59516 0.95879 0.0
Mg323 Mg 0.98168 0.68741 0.9649 0.0
O324 O 0.98522 0.66738 0.8648 0.0
O325 O 0.03637 0.69228 0.99586 0.0
O326 O 0.95356 0.64586 0.01639 0.0
O327 O 0.95605 0.71734 0.8818 0.0
C328 C 0.08059 0.6299 0.74081 0.0
C329 C 0.9738 0.58137 0.71695 0.0
C330 C 0.05218 0.52999 0.87242 0.0
C331 C 0.05741 0.66568 1.00477 0.0
C332 C 0.95162 0.61207 0.00729 0.0
C333 C 0.96698 0.69304 0.83635 0.0
O334 O 0.08436 0.59722 0.72201 0.0
O335 O 0.05725 0.63967 0.78871 0.0
C336 C 0.11498 0.11785 0.88086 0.0
C337 C 0.11959 0.14085 0.94115 0.0
C338 C 0.12936 0.1266 0.81149 0.0
C339 C 0.14862 0.15896 0.79972 0.0
H340 H 0.09659 0.09558 0.88451 0.0
H341 H 0.12134 0.1102 0.76504 0.0
S342 S 0.18126 0.21915 0.94742 0.0
N343 N 0.1547 0.19041 0.99015 0.0
N344 N 0.18119 0.20723 0.85996 0.0
C345 C 0.15951 0.17792 0.86264 0.0
C346 C 0.14516 0.16869 0.93336 0.0
C347 C 0.07341 0.88255 0.17611 0.0
C348 C 0.10398 0.86266 0.19917 0.0
C349 C 0.06419 0.88607 0.10138 0.0
C350 C 0.08533 0.8702 0.0462 0.0
H351 H 0.0545 0.89284 0.21622 0.0
H352 H 0.03851 0.89822 0.08764 0.0
S353 S 0.17399 0.82572 0.07507 0.0
N354 N 0.15952 0.83424 0.15907 0.0
N355 N 0.14259 0.84123 0.01888 0.0
C356 C 0.11859 0.85488 0.06783 0.0
C357 C 0.12785 0.85107 0.1441 0.0
C358 C 0.36315 0.84053 0.35363 0.0
C359 C 0.38728 0.85381 0.30084 0.0
C360 C 0.36112 0.85589 0.42435 0.0
C361 C 0.38392 0.88456 0.44644 0.0
H362 H 0.3478 0.81637 0.34256 0.0
H363 H 0.34358 0.84297 0.46381 0.0
S364 S 0.44493 0.93494 0.32232 0.0
N365 N 0.42822 0.90269 0.27012 0.0
N366 N 0.42684 0.92908 0.40425 0.0
C367 C 0.40531 0.90031 0.39154 0.0
C368 C 0.40634 0.88558 0.3187 0.0
C369 C 0.42449 0.09519 0.69508 0.0
C370 C 0.39935 0.12127 0.71881 0.0
C371 C 0.42537 0.08305 0.62193 0.0
C372 C 0.40056 0.09569 0.56942 0.0
H373 H 0.44547 0.0859 0.7319 0.0
H374 H 0.4472 0.06553 0.60547 0.0
S375 S 0.32444 0.15848 0.60703 0.0
N376 N 0.34593 0.15545 0.68624 0.0
N377 N 0.34613 0.13154 0.55027 0.0
C378 C 0.37253 0.11847 0.59483 0.0
C379 C 0.37223 0.13146 0.66903 0.0
C380 C 0.89609 0.77511 0.11425 0.0
C381 C 0.90295 0.79338 0.18065 0.0
C382 C 0.90989 0.78787 0.04708 0.0
C383 C 0.9299 0.81993 0.04365 0.0
H384 H 0.88452 0.74839 0.11549 0.0
H385 H 0.90811 0.77069 0.99908 0.0
S386 S 0.94931 0.88114 0.19902 0.0
N387 N 0.92689 0.84753 0.23674 0.0
N388 N 0.95128 0.87211 0.1102 0.0
C389 C 0.93264 0.84074 0.10772 0.0
C390 C 0.91938 0.82739 0.17632 0.0
C391 C 0.89037 0.1853 0.88347 0.0
C392 C 0.89412 0.16257 0.82223 0.0
C393 C 0.90901 0.17824 0.94944 0.0
C394 C 0.93199 0.14809 0.95709 0.0
H395 H 0.87746 0.21125 0.8772 0.0
H396 H 0.90909 0.199 0.99125 0.0
S397 S 0.93916 0.07374 0.82272 0.0
N398 N 0.91418 0.10409 0.78032 0.0
N399 N 0.94827 0.09038 0.90499 0.0
C400 C 0.93018 0.12197 0.90148 0.0
C401 C 0.91147 0.12936 0.83385 0.0
C402 C 0.55978 0.21978 0.61057 0.0
C403 C 0.55867 0.20889 0.68481 0.0
C404 C 0.54381 0.19921 0.55439 0.0
C405 C 0.52561 0.16708 0.57019 0.0
H406 H 0.57088 0.24579 0.59644 0.0
H407 H 0.54313 0.21005 0.49916 0.0
S408 S 0.51938 0.12372 0.75316 0.0
N409 N 0.54143 0.16149 0.76946 0.0
N410 N 0.51087 0.12315 0.6639 0.0
C411 C 0.52659 0.15444 0.64312 0.0
C412 C 0.54331 0.17522 0.70043 0.0
C413 C 0.50911 0.85362 0.36329 0.0
C414 C 0.51861 0.84866 0.43765 0.0
C415 C 0.52768 0.83618 0.30612 0.0
C416 C 0.55653 0.81266 0.32064 0.0
H417 H 0.48503 0.86848 0.34957 0.0
H418 H 0.51704 0.83833 0.25075 0.0
S419 S 0.59361 0.79175 0.50517 0.0
N420 N 0.56063 0.8204 0.52207 0.0
N421 N 0.59482 0.78687 0.41492 0.0
C422 C 0.56812 0.80962 0.39417 0.0
C423 C 0.54937 0.82778 0.45258 0.0
C424 C 0.60154 0.62506 0.34102 0.0
C425 C 0.6309 0.64849 0.32989 0.0
C426 C 0.59738 0.60618 0.40728 0.0
C427 C 0.62271 0.60987 0.46453 0.0
H428 H 0.57902 0.62546 0.30299 0.0
H429 H 0.57193 0.59279 0.41685 0.0
S430 S 0.71113 0.6552 0.4493 0.0
N431 N 0.69032 0.6656 0.37177 0.0
N432 N 0.68337 0.62908 0.49559 0.0
C433 C 0.65544 0.62714 0.44747 0.0
C434 C 0.65932 0.64686 0.38035 0.0
C435 C 0.64258 0.3385 0.6302 0.0
C436 C 0.62782 0.36145 0.68334 0.0
C437 C 0.63429 0.34324 0.55537 0.0
C438 C 0.61049 0.37075 0.53156 0.0
H439 H 0.65597 0.31396 0.64683 0.0
H440 H 0.64306 0.32249 0.5177 0.0
S441 S 0.57795 0.44586 0.64703 0.0
N442 N 0.59947 0.4193 0.70495 0.0
N443 N 0.58173 0.42696 0.56524 0.0
C444 C 0.60179 0.39763 0.58256 0.0
C445 C 0.61153 0.3935 0.6582 0.0
C446 C 0.86399 0.33771 0.96719 0.0
C447 C 0.89411 0.36091 0.97308 0.0
C448 C 0.85525 0.32032 0.90076 0.0
C449 C 0.87548 0.32625 0.83688 0.0
H450 H 0.84965 0.3295 0.01619 0.0
H451 H 0.83539 0.299 0.90178 0.0
S452 S 0.94943 0.39253 0.81646 0.0
N453 N 0.93885 0.39467 0.90453 0.0
N454 N 0.92178 0.36273 0.77966 0.0
C455 C 0.90167 0.35369 0.83917 0.0
C456 C 0.91106 0.37099 0.90715 0.0
C457 C 0.87408 0.62059 0.11944 0.0
C458 C 0.89197 0.62163 0.18759 0.0
C459 C 0.89111 0.60614 0.05686 0.0
C460 C 0.92723 0.59431 0.06013 0.0
H461 H 0.84967 0.63613 0.11169 0.0
H462 H 0.87887 0.61137 1.00376 0.0
S463 S 0.98032 0.58074 0.23008 0.0
N464 N 0.94252 0.59942 0.2586 0.0
N465 N 0.97558 0.57521 0.14045 0.0
C466 C 0.94163 0.58791 0.13035 0.0
C467 C 0.92372 0.60125 0.19446 0.0
C468 C 0.46881 0.32979 0.66047 0.0
C469 C 0.45794 0.32209 0.58782 0.0
C470 C 0.45322 0.31215 0.72145 0.0
C471 C 0.42617 0.28593 0.71282 0.0
H472 H 0.49168 0.34728 0.66993 0.0
H473 H 0.46478 0.31654 0.77519 0.0
S474 S 0.38726 0.25613 0.53594 0.0
N475 N 0.41739 0.28666 0.51256 0.0
N476 N 0.38808 0.25445 0.62654 0.0
C477 C 0.41333 0.27986 0.64142 0.0
C478 C 0.42925 0.2976 0.57925 0.0
C479 C 0.48637 0.64299 0.35588 0.0
C480 C 0.47774 0.64838 0.43063 0.0
C481 C 0.46863 0.66218 0.29925 0.0
C482 C 0.44226 0.68824 0.315 0.0
H483 H 0.50884 0.62583 0.3414 0.0
H484 H 0.47759 0.65877 0.24324 0.0
S485 S 0.40866 0.71201 0.49937 0.0
N486 N 0.4388 0.68026 0.51492 0.0
N487 N 0.40773 0.7176 0.40958 0.0
C488 C 0.43205 0.69244 0.38838 0.0
C489 C 0.44921 0.6722 0.44576 0.0
C490 C 0.07738 0.67974 0.20202 0.0
C491 C 0.10458 0.70605 0.19984 0.0
C492 C 0.06645 0.66128 0.13836 0.0
C493 C 0.0816 0.66905 0.06933 0.0
H494 H 0.06147 0.67633 0.25128 0.0
H495 H 0.0427 0.64443 0.1417 0.0
S496 S 0.15675 0.73221 0.03507 0.0
N497 N 0.14936 0.73569 0.1244 0.0
N498 N 0.12784 0.70204 1.00406 0.0
C499 C 0.11101 0.69282 0.06752 0.0
C500 C 0.12267 0.71113 0.13286 0.0
C501 C 0.06131 0.32731 0.81917 0.0
C502 C 0.09433 0.30983 0.83267 0.0
C503 C 0.0409 0.34235 0.87666 0.0
C504 C 0.05269 0.34107 0.95026 0.0
H505 H 0.04947 0.32638 0.76465 0.0
H506 H 0.01429 0.35253 0.86413 0.0
S507 S 0.13881 0.30148 0.01449 0.0
N508 N 0.13908 0.29454 0.92469 0.0
N509 N 0.10103 0.32325 0.03252 0.0
C510 C 0.08697 0.32628 0.96383 0.0
C511 C 0.10765 0.31054 0.90515 0.0
C512 C 0.98898 0.2414 0.28749 0.0
C513 C 0.00057 0.27514 0.26177 0.0
C514 C 0.01207 0.21179 0.27936 0.0
C515 C 0.04468 0.21706 0.24252 0.0
H516 H 0.96061 0.23645 0.29705 0.0
H517 H 0.00104 0.18524 0.28473 0.0
S518 S 0.09555 0.29951 0.22629 0.0
N519 N 0.05353 0.31236 0.24096 0.0
N520 N 0.09618 0.25568 0.23831 0.0
C521 C 0.06128 0.24989 0.257 0.0
C522 C 0.03818 0.28061 0.25911 0.0
C523 C 0.9781 0.70986 0.50599 0.0
C524 C 0.98826 0.68297 0.45559 0.0
C525 C 0.00183 0.73859 0.51895 0.0
C526 C 0.035 0.73977 0.48168 0.0
H527 H 0.95002 0.71335 0.52042 0.0
H528 H 0.99157 0.7626 0.5449 0.0
S529 S 0.08079 0.66036 0.40135 0.0
N530 N 0.03918 0.64688 0.41707 0.0
N531 N 0.0826 0.70243 0.42998 0.0
C532 C 0.04894 0.70665 0.4574 0.0
C533 C 0.02537 0.67676 0.44948 0.0
C534 C 0.52506 0.76248 0.68333 0.0
C535 C 0.52025 0.7255 0.67254 0.0
C536 C 0.49548 0.78553 0.68463 0.0
C537 C 0.46016 0.77216 0.67947 0.0
H538 H 0.5518 0.77413 0.68246 0.0
H539 H 0.50082 0.81381 0.67958 0.0
S540 S 0.43277 0.67687 0.67617 0.0
N541 N 0.47694 0.67645 0.66503 0.0
N542 N 0.42183 0.71959 0.68456 0.0
C543 C 0.45496 0.73506 0.68046 0.0
C544 C 0.4849 0.71174 0.67228 0.0
C545 C 0.53254 0.28296 0.03648 0.0
C546 C 0.51698 0.31224 0.99981 0.0
C547 C 0.51432 0.24989 0.03402 0.0
C548 C 0.48114 0.24731 0.99663 0.0
H549 H 0.56081 0.28347 0.05118 0.0
H550 H 0.52817 0.22589 0.05067 0.0
S551 S 0.42498 0.32626 0.94393 0.0
N552 N 0.46084 0.34351 0.98425 0.0
N553 N 0.43151 0.2824 0.94439 0.0
C554 C 0.46268 0.27985 0.98263 0.0
C555 C 0.47941 0.31305 1.00108 0.0
C556 C 0.01565 0.73032 0.71131 0.0
C557 C -0.00012 0.76239 0.73774 0.0
C558 C 0.99663 0.69784 0.71908 0.0
C559 C 0.96342 0.69887 0.75571 0.0
H560 H 0.04428 0.72917 0.70065 0.0
H561 H 0.01089 0.67272 0.71315 0.0
S562 S 0.90168 0.77459 0.76644 0.0
N563 N 0.94216 0.79228 0.75661 0.0
N564 N 0.90707 0.73091 0.75575 0.0
C565 C 0.94288 0.72948 0.74075 0.0
C566 C 0.96186 0.76279 0.74022 0.0
C567 C 0.49127 0.66829 0.07111 0.0
C568 C 0.52828 0.67119 0.05659 0.0
C569 C 0.47131 0.7003 0.07249 0.0
C570 C 0.48555 0.73202 0.04137 0.0
H571 H 0.48146 0.64594 0.1035 0.0
H572 H 0.44789 0.70104 0.10721 0.0
S573 S 0.56509 0.73299 0.91878 0.0
N574 N 0.56603 0.693 0.95792 0.0
N575 N 0.53027 0.75461 0.9547 0.0
C576 C 0.5169 0.72844 0.99863 0.0
C577 C 0.53637 0.69556 1.0007 0.0
C578 C 0.46763 0.20678 0.25046 0.0
C579 C 0.43459 0.21435 0.2844 0.0
C580 C 0.4968 0.23005 0.26156 0.0
C581 C 0.49229 0.26169 0.30267 0.0
H582 H 0.47258 0.18039 0.22801 0.0
H583 H 0.52342 0.22154 0.24547 0.0
S584 S 0.40405 0.30145 0.35459 0.0
N585 N 0.3939 0.2626 0.31645 0.0
N586 N 0.44854 0.3032 0.35593 0.0
C587 C 0.45691 0.27266 0.31933 0.0
C588 C 0.42747 0.25027 0.30049 0.0
C589 C 0.04536 0.29095 0.55958 0.0
C590 C 0.04909 0.25602 0.53152 0.0
C591 C 0.01116 0.30238 0.58128 0.0
C592 C 0.98197 0.27891 0.57157 0.0
H593 H 0.06761 0.30333 0.58803 0.0
H594 H 0.00935 0.324 0.62104 0.0
S595 S 0.97952 0.20084 0.44809 0.0
N596 N 0.02239 0.21193 0.45233 0.0
N597 N 0.95727 0.23127 0.49587 0.0
C598 C 0.98492 0.25279 0.51629 0.0
C599 C 0.01989 0.24256 0.49225 0.0
C600 C -0.00079 0.97522 0.07545 0.0
C601 C 0.01403 0.01006 0.0729 0.0
C602 C 0.98624 0.95869 0.01168 0.0
C603 C 0.98765 0.97676 0.9443 0.0
H604 H 0.99669 0.96098 0.12713 0.0
H605 H 0.97435 0.93218 0.0153 0.0
S606 S 0.03 0.06492 0.90665 0.0
N607 N 0.03316 0.05992 0.99646 0.0
N608 N 0.00969 0.02846 0.87628 0.0
C609 C 0.00432 0.01052 0.94041 0.0
C610 C 0.01728 0.02734 1.005 0.0
C611 C 0.22625 0.77022 0.26498 0.0
C612 C 0.24261 0.76529 0.33367 0.0
C613 C 0.24277 0.7573 0.20173 0.0
C614 C 0.27591 0.7392 0.2061 0.0
H615 H 0.20124 0.78507 0.25987 0.0
H616 H 0.2303 0.76283 0.14897 0.0
S617 S 0.32502 0.7124 0.37372 0.0
N618 N 0.2905 0.73618 0.40372 0.0
N619 N 0.32187 0.71239 0.2832 0.0
C620 C 0.29138 0.73216 0.27441 0.0
C621 C 0.27455 0.7451 0.33892 0.0
C622 C 0.53742 0.00939 0.50584 0.0
C623 C 0.50965 0.01578 0.45533 0.0
C624 C 0.52937 -0.00369 0.57579 0.0
C625 C 0.49361 0.98881 0.59486 0.0
H626 H 0.56521 0.01458 0.49124 0.0
H627 H 0.55106 0.99149 0.61453 0.0
S628 S 0.41178 0.00149 0.48192 0.0
N629 N 0.44543 0.01389 0.42822 0.0
N630 N 0.43048 0.98912 0.56038 0.0
C631 C 0.46579 0.99503 0.54484 0.0
C632 C 0.47382 0.00863 0.47437 0.0
C633 C 0.29348 0.26687 0.78259 0.0
C634 C 0.28643 0.23142 0.80412 0.0
C635 C 0.27816 0.28051 0.71835 0.0
C636 C 0.25552 0.25881 0.67572 0.0
H637 H 0.30884 0.28467 0.81787 0.0
H638 H 0.2825 0.30842 0.70398 0.0
S639 S 0.23629 0.16201 0.70154 0.0
N640 N 0.26038 0.17356 0.77423 0.0
N641 N 0.23224 0.19884 0.65138 0.0
C642 C 0.25108 0.22245 0.69352 0.0
C643 C 0.26647 0.20875 0.75879 0.0
C644 C 0.75881 0.23442 0.80874 0.0
C645 C 0.72097 0.23589 0.80968 0.0
C646 C 0.77751 0.23274 0.74269 0.0
C647 C 0.75901 0.23209 0.6754 0.0
H648 H 0.77434 0.23607 0.85915 0.0
H649 H 0.80665 0.23307 0.7446 0.0
S650 S 0.65967 0.23122 0.64894 0.0
N651 N 0.66549 0.23369 0.73873 0.0
N652 N 0.70057 0.23016 0.61363 0.0
C653 C 0.72106 0.23163 0.67564 0.0
C654 C 0.70203 0.23363 0.74314 0.0
C655 C 0.78076 0.72911 0.25741 0.0
C656 C 0.76583 0.72809 0.32814 0.0
C657 C 0.7611 0.74293 0.19838 0.0
C658 C 0.72577 0.75577 0.20808 0.0
H659 H 0.80771 0.71905 0.2474 0.0
H660 H 0.77336 0.7426 0.14437 0.0
S661 S 0.67552 0.76218 0.38244 0.0
N662 N 0.71451 0.74408 0.40545 0.0
N663 N 0.67716 0.76833 0.29271 0.0
C664 C 0.71063 0.7554 0.27816 0.0
C665 C 0.73081 0.74202 0.33875 0.0
C666 C 0.47584 0.48566 0.57285 0.0
C667 C 0.50834 0.50397 0.58483 0.0
C668 C 0.46856 0.47028 0.50458 0.0
C669 C 0.49396 0.47265 0.44818 0.0
H670 H 0.45594 0.48359 0.61614 0.0
H671 H 0.4431 0.45672 0.49567 0.0
S672 S 0.58482 0.513 0.45635 0.0
N673 N 0.56716 0.52077 0.53812 0.0
N674 N 0.55347 0.49158 0.409 0.0
C675 C 0.52687 0.48989 0.46014 0.0
C676 C 0.5341 0.50578 0.5291 0.0
C677 C 0.02516 0.4809 0.9431 0.0
C678 C 0.04477 0.51308 0.94214 0.0
C679 C 0.011 0.46796 0.00876 0.0
C680 C 0.01635 0.48694 0.07448 0.0
H681 H 0.01893 0.46684 0.89244 0.0
H682 H 0.99461 0.44388 0.00754 0.0
S683 S 0.07341 0.56773 0.10114 0.0
N684 N 0.07362 0.56056 0.01157 0.0
N685 N 0.04811 0.53567 0.13659 0.0
C686 C 0.03861 0.51748 0.07471 0.0
C687 C 0.05259 0.53077 0.00777 0.0
C688 C 0.1025 0.1392 0.39163 0.0
C689 C 0.11545 0.13192 0.3208 0.0
C690 C 0.12096 0.16231 0.43907 0.0
C691 C 0.15334 0.17916 0.41776 0.0
H692 H 0.07698 0.12812 0.40947 0.0
H693 H 0.10873 0.16806 0.49181 0.0
S694 S 0.20081 0.16482 0.24057 0.0
N695 N 0.16371 0.14058 0.23295 0.0
N696 N 0.19927 0.18371 0.32276 0.0
C697 C 0.16758 0.17045 0.34814 0.0
C698 C 0.14836 0.14705 0.29934 0.0
C699 C 0.13257 0.88094 0.6402 0.0
C700 C 0.12543 0.87923 0.56429 0.0
C701 C 0.10676 0.8943 0.68893 0.0
C702 C 0.07356 0.90726 0.66293 0.0
H703 H 0.1566 0.86861 0.66291 0.0
H704 H 0.11183 0.89226 0.74749 0.0
S705 S 0.04486 0.91447 0.46802 0.0
N706 N 0.08509 0.8956 0.46457 0.0
N707 N 0.03688 0.92195 0.55598 0.0
C708 C 0.06787 0.9094 0.5866 0.0
C709 C 0.0938 0.89504 0.53719 0.0
C710 C 0.36775 0.86683 0.95992 0.0
C711 C 0.35155 0.83529 0.93309 0.0
C712 C 0.37764 0.89465 0.91216 0.0
C713 C 0.37251 0.89144 0.83568 0.0
H714 H 0.37477 0.86915 0.01758 0.0
H715 H 0.3929 0.9169 0.93466 0.0
S716 S 0.32589 0.81699 0.73927 0.0
N717 N 0.32614 0.80481 0.82652 0.0
N718 N 0.34556 0.85672 0.73681 0.0
C719 C 0.35294 0.86179 0.80933 0.0
C720 C 0.34241 0.83369 0.85799 0.0
C721 C 0.41025 0.07137 0.10214 0.0
C722 C 0.40203 0.07125 0.17767 0.0
C723 C 0.39215 0.09442 0.05363 0.0
C724 C 0.36461 0.11727 0.07872 0.0
H725 H 0.4336 0.05701 0.08182 0.0
H726 H 0.4016 0.09628 0.99742 0.0
S727 S 0.3275 0.12065 0.26791 0.0
N728 N 0.36067 0.09117 0.27264 0.0
N729 N 0.3259 0.13373 0.18126 0.0
C730 C 0.35286 0.11362 0.15185 0.0
C731 C 0.37167 0.0906 0.20138 0.0
C732 C 0.92356 0.80854 0.55481 0.0
C733 C 0.88656 0.80081 0.55552 0.0
C734 C 0.93842 0.83328 0.60441 0.0
C735 C 0.91647 0.85206 0.6543 0.0
H736 H 0.94129 0.79423 0.51798 0.0
H737 H 0.96734 0.8372 0.60486 0.0
S738 S 0.81737 0.84636 0.66992 0.0
N739 N 0.8278 0.817 0.60523 0.0
N740 N 0.85585 0.86456 0.69625 0.0
C741 C 0.87919 0.84699 0.65141 0.0
C742 C 0.86415 0.8211 0.60242 0.0
C743 C 0.89953 0.17598 0.35278 0.0
C744 C 0.8971 0.16803 0.42849 0.0
C745 C 0.92327 0.15733 0.30624 0.0
C746 C 0.94511 0.1293 0.33294 0.0
H747 H 0.88411 0.19802 0.32979 0.0
H748 H 0.92506 0.16552 0.24922 0.0
S749 S 0.94724 0.09646 0.52638 0.0
N750 N 0.91741 0.12939 0.52751 0.0
N751 N 0.96133 0.09352 0.44052 0.0
C752 C 0.94158 0.11989 0.40809 0.0
C753 C 0.91779 0.13941 0.45569 0.0
C754 C 0.59124 0.1965 0.15196 0.0
C755 C 0.58933 0.19275 0.07494 0.0
C756 C 0.57231 0.17336 0.19885 0.0
C757 C 0.55098 0.14562 0.17028 0.0
H758 H 0.60748 0.21759 0.17619 0.0
H759 H 0.57483 0.17684 0.25779 0.0
S760 S 0.53777 0.1235 0.97319 0.0
N761 N 0.5651 0.15853 0.97245 0.0
N762 N 0.5292 0.11518 0.06063 0.0
C763 C 0.54897 0.14139 0.09348 0.0
C764 C 0.56817 0.16497 0.04571 0.0
C765 C 0.55975 0.83746 0.83331 0.0
C766 C 0.53087 0.85776 0.86061 0.0
C767 C 0.58389 0.82019 0.88143 0.0
C768 C 0.57938 0.82143 0.95857 0.0
H769 H 0.56444 0.83592 0.77462 0.0
H770 H 0.60605 0.80514 0.8579 0.0
S771 S 0.5076 0.87066 0.05748 0.0
N772 N 0.49895 0.87812 0.96968 0.0
N773 N 0.54384 0.84485 0.05945 0.0
C774 C 0.55023 0.84108 0.98638 0.0
C775 C 0.5261 0.85935 0.93755 0.0
C776 C 0.63944 0.63511 0.82154 0.0
C777 C 0.61785 0.60645 0.84573 0.0
C778 C 0.65315 0.66045 0.87123 0.0
C779 C 0.64513 0.65844 0.94674 0.0
H780 H 0.64361 0.63946 0.76326 0.0
H781 H 0.66753 0.68336 0.84929 0.0
S782 S 0.59398 0.58588 0.03943 0.0
N783 N 0.59272 0.57518 0.95141 0.0
N784 N 0.61804 0.62305 0.04444 0.0
C785 C 0.62631 0.62817 0.97241 0.0
C786 C 0.61282 0.60207 0.92196 0.0
C787 C 0.61599 0.37286 0.19106 0.0
C788 C 0.58614 0.39279 0.1662 0.0
C789 C 0.6397 0.35659 0.14129 0.0
C790 C 0.63384 0.35911 0.06503 0.0
H791 H 0.61967 0.36773 0.24925 0.0
H792 H 0.66035 0.33891 0.16295 0.0
S793 S 0.56335 0.41331 0.97188 0.0
N794 N 0.5552 0.41851 0.06042 0.0
N795 N 0.59936 0.38738 0.96703 0.0
C796 C 0.60644 0.38214 0.03964 0.0
C797 C 0.5826 0.39907 0.09025 0.0
C798 C 0.86621 0.38663 0.35422 0.0
C799 C 0.90336 0.38673 0.34083 0.0
C800 C 0.85154 0.36286 0.40647 0.0
C801 C 0.87371 0.33894 0.44673 0.0
H802 H 0.84843 0.40359 0.3221 0.0
H803 H 0.82257 0.36221 0.41331 0.0
S804 S 0.97297 0.33095 0.43015 0.0
N805 N 0.962 0.36317 0.37283 0.0
N806 N 0.93485 0.31815 0.46872 0.0
C807 C 0.91106 0.3405 0.43537 0.0
C808 C 0.92574 0.36451 0.38291 0.0
C809 C 0.91256 0.60588 0.69088 0.0
C810 C 0.94441 0.5899 0.66479 0.0
C811 C 0.88819 0.62237 0.64262 0.0
C812 C 0.89522 0.62418 0.56671 0.0
H813 H 0.90736 0.60736 0.74941 0.0
H814 H 0.86509 0.63607 0.66575 0.0
S815 S 0.97261 0.58289 0.46958 0.0
N816 N 0.97982 0.57377 0.55721 0.0
N817 N 0.93432 0.60546 0.46677 0.0
C818 C 0.92569 0.60624 0.53935 0.0
C819 C 0.95019 0.58886 0.58834 0.0
C820 C 0.43678 0.30943 0.16741 0.0
C821 C 0.42164 0.34243 0.18838 0.0
C822 C 0.41684 0.28404 0.1281 0.0
C823 C 0.38155 0.29134 0.10453 0.0
H824 H 0.46453 0.30325 0.18075 0.0
H825 H 0.42943 0.25858 0.115 0.0
S826 S 0.3298 0.37454 0.14177 0.0
N827 N 0.36904 0.38129 0.18254 0.0
N828 N 0.33216 0.3342 0.1041 0.0
C829 C 0.366 0.32437 0.12432 0.0
C830 C 0.38609 0.35 0.16631 0.0
C831 C 0.40384 0.63174 0.93167 0.0
C832 C 0.40754 0.66897 0.94051 0.0
C833 C 0.4274 0.6126 0.88581 0.0
C834 C 0.45531 0.63015 0.84748 0.0
H835 H 0.38294 0.61734 0.96082 0.0
H836 H 0.4237 0.58386 0.88035 0.0
S837 S 0.47337 0.72794 0.84916 0.0
N838 N 0.43787 0.72321 0.90219 0.0
N839 N 0.48529 0.687 0.82412 0.0
C840 C 0.45907 0.66743 0.8568 0.0
C841 C 0.43429 0.68691 0.90107 0.0
C842 C 0.12548 0.67562 0.5797 0.0
C843 C 0.13393 0.70971 0.60725 0.0
C844 C 0.10916 0.64979 0.62428 0.0
C845 C 0.10058 0.65716 0.69823 0.0
H846 H 0.13167 0.66887 0.52329 0.0
H847 H 0.10238 0.62413 0.59982 0.0
S848 S 0.11988 0.74193 0.7978 0.0
N849 N 0.13454 0.74925 0.71343 0.0
N850 N 0.10371 0.70058 0.798 0.0
C851 C 0.10995 0.6909 0.72713 0.0
C852 C 0.12682 0.71717 0.68152 0.0
C853 C 0.09702 0.37074 0.32899 0.0
C854 C 0.06543 0.38547 0.35823 0.0
C855 C 0.12155 0.35201 0.37352 0.0
C856 C 0.11584 0.34788 0.44965 0.0
H857 H 0.10232 0.37293 0.27064 0.0
H858 H 0.14452 0.33947 0.34729 0.0
S859 S 0.04362 0.39266 0.55652 0.0
N860 N 0.03352 0.40163 0.46995 0.0
N861 N 0.08086 0.36829 0.55451 0.0
C862 C 0.08654 0.36632 0.48094 0.0
C863 C 0.06118 0.38493 0.4351 0.0
loop_
_geom_bond_atom_site_label_1
_geom_bond_atom_site_label_2
_geom_bond_distance
_geom_bond_site_symmetry_2
_ccdc_geom_bond_type
O0 Mg1 1.990 . S
O0 C14 1.253 . S
Mg1 O0 1.990 . S
Mg1 O4 2.180 . S
Mg1 O5 2.117 . S
Mg1 O19 2.030 1_455 S
O2 Mg3 2.072 . S
O2 C14 1.260 . S
Mg3 O2 2.072 . S
Mg3 O4 2.099 . S
Mg3 O6 2.079 1_455 S
Mg3 O7 2.072 . S
Mg3 O9 2.099 . S
Mg3 O20 2.079 1_455 S
O4 Mg1 2.180 . S
O4 Mg3 2.099 . S
O4 C15 1.279 . S
O5 Mg1 2.117 . S
O5 C15 1.250 . S
O6 Mg3 2.079 1_655 S
O6 C16 1.264 1_554 S
O7 Mg3 2.072 . S
O7 C17 1.260 1_554 S
Mg8 O9 2.181 1_556 S
Mg8 O10 2.029 1_455 S
Mg8 O11 1.990 . S
Mg8 O12 2.117 1_556 S
O9 Mg3 2.099 . S
O9 Mg8 2.181 1_554 S
O9 C18 1.279 . S
O10 Mg8 2.029 1_655 S
O10 C16 1.248 . S
O11 Mg8 1.990 . S
O11 C17 1.253 . S
O12 Mg8 2.117 1_554 S
O12 C18 1.250 . S
C13 O19 1.248 . S
C13 O20 1.264 . S
C14 O0 1.253 . S
C14 O2 1.260 . S
C15 O4 1.279 . S
C15 O5 1.250 . S
C16 O6 1.264 1_556 S
C16 O10 1.248 . S
C17 O7 1.260 1_556 S
C17 O11 1.253 . S
C18 O9 1.279 . S
C18 O12 1.250 . S
O19 Mg1 2.030 1_655 S
O19 C13 1.248 . S
O20 Mg3 2.079 1_655 S
O20 C13 1.264 . S
O21 Mg22 1.990 . S
O21 C35 1.253 . S
Mg22 O21 1.990 . S
Mg22 O25 2.180 . S
Mg22 O26 2.117 . S
Mg22 O40 2.030 . S
O23 Mg24 2.072 . S
O23 C35 1.260 . S
Mg24 O23 2.072 . S
Mg24 O25 2.099 . S
Mg24 O27 2.079 . S
Mg24 O28 2.072 . S
Mg24 O30 2.099 . S
Mg24 O41 2.079 . S
O25 Mg22 2.180 . S
O25 Mg24 2.099 . S
O25 C36 1.279 . S
O26 Mg22 2.117 . S
O26 C36 1.250 . S
O27 Mg24 2.079 . S
O27 C37 1.264 . S
O28 Mg24 2.072 . S
O28 C38 1.260 . S
Mg29 O30 2.180 . S
Mg29 O31 2.030 . S
Mg29 O32 1.990 . S
Mg29 O33 2.117 . S
O30 Mg24 2.099 . S
O30 Mg29 2.180 . S
O30 C39 1.279 . S
O31 Mg29 2.030 . S
O31 C37 1.248 . S
O32 Mg29 1.990 . S
O32 C38 1.253 . S
O33 Mg29 2.117 . S
O33 C39 1.250 . S
C34 O40 1.248 . S
C34 O41 1.264 . S
C35 O21 1.253 . S
C35 O23 1.260 . S
C36 O25 1.279 . S
C36 O26 1.250 . S
C37 O27 1.264 . S
C37 O31 1.248 . S
C38 O28 1.260 . S
C38 O32 1.253 . S
C39 O30 1.279 . S
C39 O33 1.250 . S
O40 Mg22 2.030 . S
O40 C34 1.248 . S
O41 Mg24 2.079 . S
O41 C34 1.264 . S
O42 Mg43 1.990 . S
O42 C56 1.253 . S
Mg43 O42 1.990 . S
Mg43 O46 2.180 . S
Mg43 O47 2.117 . S
Mg43 O61 2.030 . S
O44 Mg45 2.072 . S
O44 C56 1.260 . S
Mg45 O44 2.072 . S
Mg45 O46 2.099 . S
Mg45 O48 2.079 . S
Mg45 O49 2.072 . S
Mg45 O51 2.099 . S
Mg45 O62 2.079 . S
O46 Mg43 2.180 . S
O46 Mg45 2.099 . S
O46 C57 1.279 . S
O47 Mg43 2.117 . S
O47 C57 1.250 . S
O48 Mg45 2.079 . S
O48 C58 1.264 . S
O49 Mg45 2.072 . S
O49 C59 1.260 . S
Mg50 O51 2.180 . S
Mg50 O52 2.030 . S
Mg50 O53 1.990 . S
Mg50 O54 2.117 . S
O51 Mg45 2.099 . S
O51 Mg50 2.180 . S
O51 C60 1.279 . S
O52 Mg50 2.030 . S
O52 C58 1.248 . S
O53 Mg50 1.990 . S
O53 C59 1.253 . S
O54 Mg50 2.117 . S
O54 C60 1.250 . S
C55 O61 1.248 . S
C55 O62 1.264 . S
C56 O42 1.253 . S
C56 O44 1.260 . S
C57 O46 1.279 . S
C57 O47 1.250 . S
C58 O48 1.264 . S
C58 O52 1.248 . S
C59 O49 1.260 . S
C59 O53 1.253 . S
C60 O51 1.279 . S
C60 O54 1.250 . S
O61 Mg43 2.030 . S
O61 C55 1.248 . S
O62 Mg45 2.079 . S
O62 C55 1.264 . S
O63 Mg64 1.990 . S
O63 C77 1.253 . S
Mg64 O63 1.990 . S
Mg64 O67 2.180 1_554 S
Mg64 O68 2.117 1_554 S
Mg64 O82 2.030 . S
O65 Mg66 2.072 . S
O65 C77 1.260 1_556 S
Mg66 O65 2.072 . S
Mg66 O67 2.099 . S
Mg66 O69 2.079 . S
Mg66 O70 2.072 . S
Mg66 O72 2.099 . S
Mg66 O83 2.079 . S
O67 Mg64 2.180 1_556 S
O67 Mg66 2.099 . S
O67 C78 1.279 . S
O68 Mg64 2.117 1_556 S
O68 C78 1.250 . S
O69 Mg66 2.079 . S
O69 C79 1.264 . S
O70 Mg66 2.072 . S
O70 C80 1.260 . S
Mg71 O72 2.180 . S
Mg71 O73 2.030 . S
Mg71 O74 1.990 . S
Mg71 O75 2.117 . S
O72 Mg66 2.099 . S
O72 Mg71 2.180 . S
O72 C81 1.279 . S
O73 Mg71 2.030 . S
O73 C79 1.248 . S
O74 Mg71 1.990 . S
O74 C80 1.253 . S
O75 Mg71 2.117 . S
O75 C81 1.250 . S
C76 O82 1.248 . S
C76 O83 1.264 1_554 S
C77 O63 1.253 . S
C77 O65 1.260 1_554 S
C78 O67 1.279 . S
C78 O68 1.250 . S
C79 O69 1.264 . S
C79 O73 1.248 . S
C80 O70 1.260 . S
C80 O74 1.253 . S
C81 O72 1.279 . S
C81 O75 1.250 . S
O82 Mg64 2.030 . S
O82 C76 1.248 . S
O83 Mg66 2.079 . S
O83 C76 1.264 1_556 S
O84 Mg85 1.990 . S
O84 C98 1.253 . S
Mg85 O84 1.990 . S
Mg85 O88 2.180 . S
Mg85 O89 2.117 . S
Mg85 O103 2.030 1_455 S
O86 Mg87 2.072 . S
O86 C98 1.260 . S
Mg87 O86 2.072 . S
Mg87 O88 2.099 . S
Mg87 O90 2.079 1_455 S
Mg87 O91 2.072 . S
Mg87 O93 2.099 . S
Mg87 O104 2.079 1_455 S
O88 Mg85 2.180 . S
O88 Mg87 2.099 . S
O88 C99 1.279 . S
O89 Mg85 2.117 . S
O89 C99 1.250 . S
O90 Mg87 2.079 1_655 S
O90 C100 1.264 1_556 S
O91 Mg87 2.072 . S
O91 C101 1.260 1_556 S
Mg92 O93 2.181 1_554 S
Mg92 O94 2.029 1_455 S
Mg92 O95 1.990 . S
Mg92 O96 2.117 1_554 S
O93 Mg87 2.099 . S
O93 Mg92 2.181 1_556 S
O93 C102 1.279 . S
O94 Mg92 2.029 1_655 S
O94 C100 1.248 . S
O95 Mg92 1.990 . S
O95 C101 1.253 . S
O96 Mg92 2.117 1_556 S
O96 C102 1.250 . S
C97 O103 1.248 . S
C97 O104 1.264 . S
C98 O84 1.253 . S
C98 O86 1.260 . S
C99 O88 1.279 . S
C99 O89 1.250 . S
C100 O90 1.264 1_554 S
C100 O94 1.248 . S
C101 O91 1.260 1_554 S
C101 O95 1.253 . S
C102 O93 1.279 . S
C102 O96 1.250 . S
O103 Mg85 2.030 1_655 S
O103 C97 1.248 . S
O104 Mg87 2.079 1_655 S
O104 C97 1.264 . S
O105 Mg106 1.990 . S
O105 C119 1.253 . S
Mg106 O105 1.990 . S
Mg106 O109 2.180 1_556 S
Mg106 O110 2.117 1_556 S
Mg106 O124 2.030 . S
O107 Mg108 2.072 . S
O107 C119 1.260 1_554 S
Mg108 O107 2.072 . S
Mg108 O109 2.099 . S
Mg108 O111 2.079 . S
Mg108 O112 2.072 . S
Mg108 O114 2.099 . S
Mg108 O125 2.079 . S
O109 Mg106 2.180 1_554 S
O109 Mg108 2.099 . S
O109 C120 1.279 . S
O110 Mg106 2.117 1_554 S
O110 C120 1.250 . S
O111 Mg108 2.079 . S
O111 C121 1.264 . S
O112 Mg108 2.072 . S
O112 C122 1.260 . S
Mg113 O114 2.180 . S
Mg113 O115 2.030 . S
Mg113 O116 1.990 . S
Mg113 O117 2.117 . S
O114 Mg108 2.099 . S
O114 Mg113 2.180 . S
O114 C123 1.279 . S
O115 Mg113 2.030 . S
O115 C121 1.248 . S
O116 Mg113 1.990 . S
O116 C122 1.253 . S
O117 Mg113 2.117 . S
O117 C123 1.250 . S
C118 O124 1.248 . S
C118 O125 1.264 1_556 S
C119 O105 1.253 . S
C119 O107 1.260 1_556 S
C120 O109 1.279 . S
C120 O110 1.250 . S
C121 O111 1.264 . S
C121 O115 1.248 . S
C122 O112 1.260 . S
C122 O116 1.253 . S
C123 O114 1.279 . S
C123 O117 1.250 . S
O124 Mg106 2.030 . S
O124 C118 1.248 . S
O125 Mg108 2.079 . S
O125 C118 1.264 1_554 S
O126 Mg127 1.990 . S
O126 C140 1.253 . S
Mg127 O126 1.990 . S
Mg127 O130 2.180 . S
Mg127 O131 2.117 . S
Mg127 O145 2.030 . S
O128 Mg129 2.072 . S
O128 C140 1.260 . S
Mg129 O128 2.072 . S
Mg129 O130 2.099 . S
Mg129 O132 2.079 . S
Mg129 O133 2.072 . S
Mg129 O135 2.099 . S
Mg129 O146 2.079 . S
O130 Mg127 2.180 . S
O130 Mg129 2.099 . S
O130 C141 1.279 . S
O131 Mg127 2.117 . S
O131 C141 1.250 . S
O132 Mg129 2.079 . S
O132 C142 1.264 . S
O133 Mg129 2.072 . S
O133 C143 1.260 . S
Mg134 O135 2.180 . S
Mg134 O136 2.030 . S
Mg134 O137 1.990 . S
Mg134 O138 2.117 . S
O135 Mg129 2.099 . S
O135 Mg134 2.180 . S
O135 C144 1.279 . S
O136 Mg134 2.030 . S
O136 C142 1.248 . S
O137 Mg134 1.990 . S
O137 C143 1.253 . S
O138 Mg134 2.117 . S
O138 C144 1.250 . S
C139 O145 1.248 . S
C139 O146 1.264 . S
C140 O126 1.253 . S
C140 O128 1.260 . S
C141 O130 1.279 . S
C141 O131 1.250 . S
C142 O132 1.264 . S
C142 O136 1.248 . S
C143 O133 1.260 . S
C143 O137 1.253 . S
C144 O135 1.279 . S
C144 O138 1.250 . S
O145 Mg127 2.030 . S
O145 C139 1.248 . S
O146 Mg129 2.079 . S
O146 C139 1.264 . S
O147 Mg148 1.990 . S
O147 C161 1.253 . S
Mg148 O147 1.990 . S
Mg148 O151 2.180 . S
Mg148 O152 2.117 . S
Mg148 O166 2.030 . S
O149 Mg150 2.072 . S
O149 C161 1.260 . S
Mg150 O149 2.072 . S
Mg150 O151 2.099 . S
Mg150 O153 2.079 . S
Mg150 O154 2.072 . S
Mg150 O156 2.099 . S
Mg150 O167 2.079 . S
O151 Mg148 2.180 . S
O151 Mg150 2.099 . S
O151 C162 1.279 . S
O152 Mg148 2.117 . S
O152 C162 1.250 . S
O153 Mg150 2.079 . S
O153 C163 1.264 . S
O154 Mg150 2.072 . S
O154 C164 1.260 . S
Mg155 O156 2.180 . S
Mg155 O157 2.030 . S
Mg155 O158 1.990 . S
Mg155 O159 2.117 . S
O156 Mg150 2.099 . S
O156 Mg155 2.180 . S
O156 C165 1.279 . S
O157 Mg155 2.030 . S
O157 C163 1.248 . S
O158 Mg155 1.990 . S
O158 C164 1.253 . S
O159 Mg155 2.117 . S
O159 C165 1.250 . S
C160 O166 1.248 . S
C160 O167 1.264 . S
C161 O147 1.253 . S
C161 O149 1.260 . S
C162 O151 1.279 . S
C162 O152 1.250 . S
C163 O153 1.264 . S
C163 O157 1.248 . S
C164 O154 1.260 . S
C164 O158 1.253 . S
C165 O156 1.279 . S
C165 O159 1.250 . S
O166 Mg148 2.030 . S
O166 C160 1.248 . S
O167 Mg150 2.079 . S
O167 C160 1.264 . S
O168 Mg169 1.990 . S
O168 C182 1.253 . S
Mg169 O168 1.990 . S
Mg169 O172 2.180 . S
Mg169 O173 2.117 . S
Mg169 O187 2.030 . S
O170 Mg171 2.072 . S
O170 C182 1.260 . S
Mg171 O170 2.072 . S
Mg171 O172 2.099 . S
Mg171 O174 2.079 . S
Mg171 O175 2.072 . S
Mg171 O177 2.099 . S
Mg171 O188 2.079 . S
O172 Mg169 2.180 . S
O172 Mg171 2.099 . S
O172 C183 1.279 . S
O173 Mg169 2.117 . S
O173 C183 1.250 . S
O174 Mg171 2.079 . S
O174 C184 1.264 . S
O175 Mg171 2.072 . S
O175 C185 1.260 . S
Mg176 O177 2.180 . S
Mg176 O178 2.030 . S
Mg176 O179 1.990 . S
Mg176 O180 2.117 . S
O177 Mg171 2.099 . S
O177 Mg176 2.180 . S
O177 C186 1.279 . S
O178 Mg176 2.030 . S
O178 C184 1.248 . S
O179 Mg176 1.990 . S
O179 C185 1.253 . S
O180 Mg176 2.117 . S
O180 C186 1.250 . S
C181 O187 1.248 . S
C181 O188 1.264 . S
C182 O168 1.253 . S
C182 O170 1.260 . S
C183 O172 1.279 . S
C183 O173 1.250 . S
C184 O174 1.264 . S
C184 O178 1.248 . S
C185 O175 1.260 . S
C185 O179 1.253 . S
C186 O177 1.279 . S
C186 O180 1.250 . S
O187 Mg169 2.030 . S
O187 C181 1.248 . S
O188 Mg171 2.079 . S
O188 C181 1.264 . S
O189 Mg190 1.990 . S
O189 C203 1.253 . S
Mg190 O189 1.990 . S
Mg190 O193 2.180 . S
Mg190 O194 2.117 . S
Mg190 O208 2.030 . S
O191 Mg192 2.072 . S
O191 C203 1.260 . S
Mg192 O191 2.072 . S
Mg192 O193 2.099 . S
Mg192 O195 2.079 . S
Mg192 O196 2.072 . S
Mg192 O198 2.099 . S
Mg192 O209 2.079 . S
O193 Mg190 2.180 . S
O193 Mg192 2.099 . S
O193 C204 1.279 . S
O194 Mg190 2.117 . S
O194 C204 1.250 . S
O195 Mg192 2.079 . S
O195 C205 1.264 1_554 S
O196 Mg192 2.072 . S
O196 C206 1.260 1_554 S
Mg197 O198 2.180 1_556 S
Mg197 O199 2.030 . S
Mg197 O200 1.990 . S
Mg197 O201 2.117 1_556 S
O198 Mg192 2.099 . S
O198 Mg197 2.180 1_554 S
O198 C207 1.279 . S
O199 Mg197 2.030 . S
O199 C205 1.248 . S
O200 Mg197 1.990 . S
O200 C206 1.253 . S
O201 Mg197 2.117 1_554 S
O201 C207 1.250 . S
C202 O208 1.248 . S
C202 O209 1.264 . S
C203 O189 1.253 . S
C203 O191 1.260 . S
C204 O193 1.279 . S
C204 O194 1.250 . S
C205 O195 1.264 1_556 S
C205 O199 1.248 . S
C206 O196 1.260 1_556 S
C206 O200 1.253 . S
C207 O198 1.279 . S
C207 O201 1.250 . S
O208 Mg190 2.030 . S
O208 C202 1.248 . S
O209 Mg192 2.079 . S
O209 C202 1.264 . S
O210 Mg211 1.990 . S
O210 C224 1.253 . S
Mg211 O210 1.990 . S
Mg211 O214 2.180 . S
Mg211 O215 2.117 . S
Mg211 O229 2.030 . S
O212 Mg213 2.072 . S
O212 C224 1.260 . S
Mg213 O212 2.072 . S
Mg213 O214 2.099 . S
Mg213 O216 2.079 . S
Mg213 O217 2.072 . S
Mg213 O219 2.099 . S
Mg213 O230 2.079 . S
O214 Mg211 2.180 . S
O214 Mg213 2.099 . S
O214 C225 1.279 . S
O215 Mg211 2.117 . S
O215 C225 1.250 . S
O216 Mg213 2.079 . S
O216 C226 1.264 1_556 S
O217 Mg213 2.072 . S
O217 C227 1.260 1_556 S
Mg218 O219 2.180 1_554 S
Mg218 O220 2.030 . S
Mg218 O221 1.990 . S
Mg218 O222 2.117 1_554 S
O219 Mg213 2.099 . S
O219 Mg218 2.180 1_556 S
O219 C228 1.279 . S
O220 Mg218 2.030 . S
O220 C226 1.248 . S
O221 Mg218 1.990 . S
O221 C227 1.253 . S
O222 Mg218 2.117 1_556 S
O222 C228 1.250 . S
C223 O229 1.248 . S
C223 O230 1.264 . S
C224 O210 1.253 . S
C224 O212 1.260 . S
C225 O214 1.279 . S
C225 O215 1.250 . S
C226 O216 1.264 1_554 S
C226 O220 1.248 . S
C227 O217 1.260 1_554 S
C227 O221 1.253 . S
C228 O219 1.279 . S
C228 O222 1.250 . S
O229 Mg211 2.030 . S
O229 C223 1.248 . S
O230 Mg213 2.079 . S
O230 C223 1.264 . S
O231 Mg232 1.990 . S
O231 C245 1.253 . S
Mg232 O231 1.990 . S
Mg232 O235 2.180 . S
Mg232 O236 2.117 . S
Mg232 O250 2.030 . S
O233 Mg234 2.072 . S
O233 C245 1.260 . S
Mg234 O233 2.072 . S
Mg234 O235 2.099 . S
Mg234 O237 2.079 . S
Mg234 O238 2.072 . S
Mg234 O240 2.099 . S
Mg234 O251 2.079 . S
O235 Mg232 2.180 . S
O235 Mg234 2.099 . S
O235 C246 1.279 . S
O236 Mg232 2.117 . S
O236 C246 1.250 . S
O237 Mg234 2.079 . S
O237 C247 1.264 . S
O238 Mg234 2.072 . S
O238 C248 1.260 . S
Mg239 O240 2.180 . S
Mg239 O241 2.030 . S
Mg239 O242 1.990 . S
Mg239 O243 2.117 . S
O240 Mg234 2.099 . S
O240 Mg239 2.180 . S
O240 C249 1.279 . S
O241 Mg239 2.030 . S
O241 C247 1.248 . S
O242 Mg239 1.990 . S
O242 C248 1.253 . S
O243 Mg239 2.117 . S
O243 C249 1.250 . S
C244 O250 1.248 . S
C244 O251 1.264 . S
C245 O231 1.253 . S
C245 O233 1.260 . S
C246 O235 1.279 . S
C246 O236 1.250 . S
C247 O237 1.264 . S
C247 O241 1.248 . S
C248 O238 1.260 . S
C248 O242 1.253 . S
C249 O240 1.279 . S
C249 O243 1.250 . S
O250 Mg232 2.030 . S
O250 C244 1.248 . S
O251 Mg234 2.079 . S
O251 C244 1.264 . S
O252 Mg253 1.990 . S
O252 C266 1.253 . S
Mg253 O252 1.990 . S
Mg253 O256 2.180 . S
Mg253 O257 2.117 . S
Mg253 O271 2.030 . S
O254 Mg255 2.072 . S
O254 C266 1.260 . S
Mg255 O254 2.072 . S
Mg255 O256 2.099 . S
Mg255 O258 2.079 . S
Mg255 O259 2.072 . S
Mg255 O261 2.099 . S
Mg255 O272 2.079 . S
O256 Mg253 2.180 . S
O256 Mg255 2.099 . S
O256 C267 1.279 . S
O257 Mg253 2.117 . S
O257 C267 1.250 . S
O258 Mg255 2.079 . S
O258 C268 1.264 . S
O259 Mg255 2.072 . S
O259 C269 1.260 . S
Mg260 O261 2.180 . S
Mg260 O262 2.030 . S
Mg260 O263 1.990 . S
Mg260 O264 2.117 . S
O261 Mg255 2.099 . S
O261 Mg260 2.180 . S
O261 C270 1.279 . S
O262 Mg260 2.030 . S
O262 C268 1.248 . S
O263 Mg260 1.990 . S
O263 C269 1.253 . S
O264 Mg260 2.117 . S
O264 C270 1.250 . S
C265 O271 1.248 . S
C265 O272 1.264 . S
C266 O252 1.253 . S
C266 O254 1.260 . S
C267 O256 1.279 . S
C267 O257 1.250 . S
C268 O258 1.264 . S
C268 O262 1.248 . S
C269 O259 1.260 . S
C269 O263 1.253 . S
C270 O261 1.279 . S
C270 O264 1.250 . S
O271 Mg253 2.030 . S
O271 C265 1.248 . S
O272 Mg255 2.079 . S
O272 C265 1.264 . S
O273 Mg274 1.990 1_655 S
O273 C287 1.253 . S
Mg274 O273 1.990 1_455 S
Mg274 O277 2.180 . S
Mg274 O278 2.117 1_455 S
Mg274 O292 2.030 . S
O275 Mg276 2.072 1_655 S
O275 C287 1.260 . S
Mg276 O275 2.072 1_455 S
Mg276 O277 2.099 . S
Mg276 O279 2.079 . S
Mg276 O280 2.072 1_455 S
Mg276 O282 2.099 . S
Mg276 O293 2.079 . S
O277 Mg274 2.180 . S
O277 Mg276 2.099 . S
O277 C288 1.279 1_455 S
O278 Mg274 2.117 1_655 S
O278 C288 1.250 . S
O279 Mg276 2.079 . S
O279 C289 1.264 1_554 S
O280 Mg276 2.072 1_655 S
O280 C290 1.260 1_554 S
Mg281 O282 2.181 1_556 S
Mg281 O283 2.029 . S
Mg281 O284 1.990 1_455 S
Mg281 O285 2.117 1_456 S
O282 Mg276 2.099 . S
O282 Mg281 2.181 1_554 S
O282 C291 1.279 1_455 S
O283 Mg281 2.029 . S
O283 C289 1.248 . S
O284 Mg281 1.990 1_655 S
O284 C290 1.253 . S
O285 Mg281 2.117 1_654 S
O285 C291 1.250 . S
C286 O292 1.248 . S
C286 O293 1.264 . S
C287 O273 1.253 . S
C287 O275 1.260 . S
C288 O277 1.279 1_655 S
C288 O278 1.250 . S
C289 O279 1.264 1_556 S
C289 O283 1.248 . S
C290 O280 1.260 1_556 S
C290 O284 1.253 . S
C291 O282 1.279 1_655 S
C291 O285 1.250 . S
O292 Mg274 2.030 . S
O292 C286 1.248 . S
O293 Mg276 2.079 . S
O293 C286 1.264 . S
O294 Mg295 1.990 . S
O294 C308 1.253 . S
Mg295 O294 1.990 . S
Mg295 O298 2.180 . S
Mg295 O299 2.117 . S
Mg295 O313 2.030 . S
O296 Mg297 2.072 . S
O296 C308 1.260 . S
Mg297 O296 2.072 . S
Mg297 O298 2.099 . S
Mg297 O300 2.079 . S
Mg297 O301 2.072 . S
Mg297 O303 2.099 . S
Mg297 O314 2.079 . S
O298 Mg295 2.180 . S
O298 Mg297 2.099 . S
O298 C309 1.279 . S
O299 Mg295 2.117 . S
O299 C309 1.250 . S
O300 Mg297 2.079 . S
O300 C310 1.264 . S
O301 Mg297 2.072 . S
O301 C311 1.260 . S
Mg302 O303 2.180 . S
Mg302 O304 2.030 . S
Mg302 O305 1.990 . S
Mg302 O306 2.117 . S
O303 Mg297 2.099 . S
O303 Mg302 2.180 . S
O303 C312 1.279 . S
O304 Mg302 2.030 . S
O304 C310 1.248 . S
O305 Mg302 1.990 . S
O305 C311 1.253 . S
O306 Mg302 2.117 . S
O306 C312 1.250 . S
C307 O313 1.248 . S
C307 O314 1.264 . S
C308 O294 1.253 . S
C308 O296 1.260 . S
C309 O298 1.279 . S
C309 O299 1.250 . S
C310 O300 1.264 . S
C310 O304 1.248 . S
C311 O301 1.260 . S
C311 O305 1.253 . S
C312 O303 1.279 . S
C312 O306 1.250 . S
O313 Mg295 2.030 . S
O313 C307 1.248 . S
O314 Mg297 2.079 . S
O314 C307 1.264 . S
O315 Mg316 1.990 1_655 S
O315 C329 1.253 . S
Mg316 O315 1.990 1_455 S
Mg316 O319 2.180 . S
Mg316 O320 2.117 1_455 S
Mg316 O334 2.030 . S
O317 Mg318 2.072 1_655 S
O317 C329 1.260 . S
Mg318 O317 2.072 1_455 S
Mg318 O319 2.099 . S
Mg318 O321 2.079 . S
Mg318 O322 2.072 1_455 S
Mg318 O324 2.099 . S
Mg318 O335 2.079 . S
O319 Mg316 2.180 . S
O319 Mg318 2.099 . S
O319 C330 1.279 1_455 S
O320 Mg316 2.117 1_655 S
O320 C330 1.250 . S
O321 Mg318 2.079 . S
O321 C331 1.264 1_556 S
O322 Mg318 2.072 1_655 S
O322 C332 1.260 1_556 S
Mg323 O324 2.181 1_554 S
Mg323 O325 2.029 . S
Mg323 O326 1.990 1_455 S
Mg323 O327 2.117 1_454 S
O324 Mg318 2.099 . S
O324 Mg323 2.181 1_556 S
O324 C333 1.279 1_455 S
O325 Mg323 2.029 . S
O325 C331 1.248 . S
O326 Mg323 1.990 1_655 S
O326 C332 1.253 . S
O327 Mg323 2.117 1_656 S
O327 C333 1.250 . S
C328 O334 1.248 . S
C328 O335 1.264 . S
C329 O315 1.253 . S
C329 O317 1.260 . S
C330 O319 1.279 1_655 S
C330 O320 1.250 . S
C331 O321 1.264 1_554 S
C331 O325 1.248 . S
C332 O322 1.260 1_554 S
C332 O326 1.253 . S
C333 O324 1.279 1_655 S
C333 O327 1.250 . S
O334 Mg316 2.030 . S
O334 C328 1.248 . S
O335 Mg318 2.079 . S
O335 C328 1.264 . S
C336 C337 1.369 . S
C336 C338 1.419 . S
C336 H340 0.930 . S
C337 C336 1.369 . S
C337 C346 1.429 . S
C338 C336 1.419 . S
C338 C339 1.363 . S
C338 H341 0.929 . S
C339 C338 1.363 . S
C339 C345 1.428 . S
H340 C336 0.930 . S
H341 C338 0.929 . S
S342 N343 1.613 . S
S342 N344 1.610 . S
N343 S342 1.613 . S
N343 C346 1.350 . S
N344 S342 1.610 . S
N344 C345 1.351 . S
C345 C339 1.428 . S
C345 N344 1.351 . S
C345 C346 1.434 . S
C346 C337 1.429 . S
C346 N343 1.350 . S
C346 C345 1.434 . S
C347 C348 1.369 . S
C347 C349 1.419 . S
C347 H351 0.930 . S
C348 C347 1.369 . S
C348 C357 1.429 . S
C349 C347 1.419 . S
C349 C350 1.363 . S
C349 H352 0.929 . S
C350 C349 1.363 . S
C350 C356 1.428 . S
H351 C347 0.930 . S
H352 C349 0.929 . S
S353 N354 1.613 . S
S353 N355 1.610 1_554 S
N354 S353 1.613 . S
N354 C357 1.350 . S
N355 S353 1.610 1_556 S
N355 C356 1.351 1_556 S
C356 C350 1.428 . S
C356 N355 1.351 1_554 S
C356 C357 1.434 . S
C357 C348 1.429 . S
C357 N354 1.350 . S
C357 C356 1.434 . S
C358 C359 1.369 . S
C358 C360 1.419 . S
C358 H362 0.930 . S
C359 C358 1.369 . S
C359 C368 1.429 . S
C360 C358 1.419 . S
C360 C361 1.363 . S
C360 H363 0.929 . S
C361 C360 1.363 . S
C361 C367 1.428 . S
H362 C358 0.930 . S
H363 C360 0.929 . S
S364 N365 1.613 . S
S364 N366 1.610 . S
N365 S364 1.613 . S
N365 C368 1.350 . S
N366 S364 1.610 . S
N366 C367 1.351 . S
C367 C361 1.428 . S
C367 N366 1.351 . S
C367 C368 1.434 . S
C368 C359 1.429 . S
C368 N365 1.350 . S
C368 C367 1.434 . S
C369 C370 1.369 . S
C369 C371 1.419 . S
C369 H373 0.930 . S
C370 C369 1.369 . S
C370 C379 1.429 . S
C371 C369 1.419 . S
C371 C372 1.363 . S
C371 H374 0.929 . S
C372 C371 1.363 . S
C372 C378 1.428 . S
H373 C369 0.930 . S
H374 C371 0.929 . S
S375 N376 1.613 . S
S375 N377 1.610 . S
N376 S375 1.613 . S
N376 C379 1.350 . S
N377 S375 1.610 . S
N377 C378 1.351 . S
C378 C372 1.428 . S
C378 N377 1.351 . S
C378 C379 1.434 . S
C379 C370 1.429 . S
C379 N376 1.350 . S
C379 C378 1.434 . S
C380 C381 1.369 . S
C380 C382 1.419 . S
C380 H384 0.930 . S
C381 C380 1.369 . S
C381 C390 1.429 . S
C382 C380 1.419 . S
C382 C383 1.363 . S
C382 H385 0.929 . S
C383 C382 1.363 . S
C383 C389 1.428 . S
H384 C380 0.930 . S
H385 C382 0.929 . S
S386 N387 1.613 . S
S386 N388 1.610 . S
N387 S386 1.613 . S
N387 C390 1.350 . S
N388 S386 1.610 . S
N388 C389 1.351 . S
C389 C383 1.428 . S
C389 N388 1.351 . S
C389 C390 1.434 . S
C390 C381 1.429 . S
C390 N387 1.350 . S
C390 C389 1.434 . S
C391 C392 1.369 . S
C391 C393 1.419 . S
C391 H395 0.930 . S
C392 C391 1.369 . S
C392 C401 1.429 . S
C393 C391 1.419 . S
C393 C394 1.363 . S
C393 H396 0.929 . S
C394 C393 1.363 . S
C394 C400 1.428 . S
H395 C391 0.930 . S
H396 C393 0.929 . S
S397 N398 1.613 . S
S397 N399 1.610 . S
N398 S397 1.613 . S
N398 C401 1.350 . S
N399 S397 1.610 . S
N399 C400 1.351 . S
C400 C394 1.428 . S
C400 N399 1.351 . S
C400 C401 1.434 . S
C401 C392 1.429 . S
C401 N398 1.350 . S
C401 C400 1.434 . S
C402 C403 1.369 . S
C402 C404 1.419 . S
C402 H406 0.930 . S
C403 C402 1.369 . S
C403 C412 1.429 . S
C404 C402 1.419 . S
C404 C405 1.363 . S
C404 H407 0.929 . S
C405 C404 1.363 . S
C405 C411 1.428 . S
H406 C402 0.930 . S
H407 C404 0.929 . S
S408 N409 1.613 . S
S408 N410 1.610 . S
N409 S408 1.613 . S
N409 C412 1.350 . S
N410 S408 1.610 . S
N410 C411 1.351 . S
C411 C405 1.428 . S
C411 N410 1.351 . S
C411 C412 1.434 . S
C412 C403 1.429 . S
C412 N409 1.350 . S
C412 C411 1.434 . S
C413 C414 1.369 . S
C413 C415 1.419 . S
C413 H417 0.930 . S
C414 C413 1.369 . S
C414 C423 1.429 . S
C415 C413 1.419 . S
C415 C416 1.363 . S
C415 H418 0.929 . S
C416 C415 1.363 . S
C416 C422 1.428 . S
H417 C413 0.930 . S
H418 C415 0.929 . S
S419 N420 1.613 . S
S419 N421 1.610 . S
N420 S419 1.613 . S
N420 C423 1.350 . S
N421 S419 1.610 . S
N421 C422 1.351 . S
C422 C416 1.428 . S
C422 N421 1.351 . S
C422 C423 1.434 . S
C423 C414 1.429 . S
C423 N420 1.350 . S
C423 C422 1.434 . S
C424 C425 1.369 . S
C424 C426 1.419 . S
C424 H428 0.930 . S
C425 C424 1.369 . S
C425 C434 1.429 . S
C426 C424 1.419 . S
C426 C427 1.363 . S
C426 H429 0.929 . S
C427 C426 1.363 . S
C427 C433 1.428 . S
H428 C424 0.930 . S
H429 C426 0.929 . S
S430 N431 1.613 . S
S430 N432 1.610 . S
N431 S430 1.613 . S
N431 C434 1.350 . S
N432 S430 1.610 . S
N432 C433 1.351 . S
C433 C427 1.428 . S
C433 N432 1.351 . S
C433 C434 1.434 . S
C434 C425 1.429 . S
C434 N431 1.350 . S
C434 C433 1.434 . S
C435 C436 1.369 . S
C435 C437 1.419 . S
C435 H439 0.930 . S
C436 C435 1.369 . S
C436 C445 1.429 . S
C437 C435 1.419 . S
C437 C438 1.363 . S
C437 H440 0.929 . S
C438 C437 1.363 . S
C438 C444 1.428 . S
H439 C435 0.930 . S
H440 C437 0.929 . S
S441 N442 1.613 . S
S441 N443 1.610 . S
N442 S441 1.613 . S
N442 C445 1.350 . S
N443 S441 1.610 . S
N443 C444 1.351 . S
C444 C438 1.428 . S
C444 N443 1.351 . S
C444 C445 1.434 . S
C445 C436 1.429 . S
C445 N442 1.350 . S
C445 C444 1.434 . S
C446 C447 1.369 . S
C446 C448 1.419 . S
C446 H450 0.930 . S
C447 C446 1.369 . S
C447 C456 1.429 . S
C448 C446 1.419 . S
C448 C449 1.363 . S
C448 H451 0.929 . S
C449 C448 1.363 . S
C449 C455 1.428 . S
H450 C446 0.930 . S
H451 C448 0.929 . S
S452 N453 1.613 . S
S452 N454 1.610 . S
N453 S452 1.613 . S
N453 C456 1.350 . S
N454 S452 1.610 . S
N454 C455 1.351 . S
C455 C449 1.428 . S
C455 N454 1.351 . S
C455 C456 1.434 . S
C456 C447 1.429 . S
C456 N453 1.350 . S
C456 C455 1.434 . S
C457 C458 1.369 . S
C457 C459 1.419 . S
C457 H461 0.930 . S
C458 C457 1.369 . S
C458 C467 1.429 . S
C459 C457 1.419 . S
C459 C460 1.363 . S
C459 H462 0.929 . S
C460 C459 1.363 . S
C460 C466 1.428 . S
H461 C457 0.930 . S
H462 C459 0.929 . S
S463 N464 1.613 . S
S463 N465 1.610 . S
N464 S463 1.613 . S
N464 C467 1.350 . S
N465 S463 1.610 . S
N465 C466 1.351 . S
C466 C460 1.428 . S
C466 N465 1.351 . S
C466 C467 1.434 . S
C467 C458 1.429 . S
C467 N464 1.350 . S
C467 C466 1.434 . S
C468 C469 1.369 . S
C468 C470 1.419 . S
C468 H472 0.930 . S
C469 C468 1.369 . S
C469 C478 1.429 . S
C470 C468 1.419 . S
C470 C471 1.363 . S
C470 H473 0.929 . S
C471 C470 1.363 . S
C471 C477 1.428 . S
H472 C468 0.930 . S
H473 C470 0.929 . S
S474 N475 1.613 . S
S474 N476 1.610 . S
N475 S474 1.613 . S
N475 C478 1.350 . S
N476 S474 1.610 . S
N476 C477 1.351 . S
C477 C471 1.428 . S
C477 N476 1.351 . S
C477 C478 1.434 . S
C478 C469 1.429 . S
C478 N475 1.350 . S
C478 C477 1.434 . S
C479 C480 1.369 . S
C479 C481 1.419 . S
C479 H483 0.930 . S
C480 C479 1.369 . S
C480 C489 1.429 . S
C481 C479 1.419 . S
C481 C482 1.363 . S
C481 H484 0.929 . S
C482 C481 1.363 . S
C482 C488 1.428 . S
H483 C479 0.930 . S
H484 C481 0.929 . S
S485 N486 1.613 . S
S485 N487 1.610 . S
N486 S485 1.613 . S
N486 C489 1.350 . S
N487 S485 1.610 . S
N487 C488 1.351 . S
C488 C482 1.428 . S
C488 N487 1.351 . S
C488 C489 1.434 . S
C489 C480 1.429 . S
C489 N486 1.350 . S
C489 C488 1.434 . S
C490 C491 1.369 . S
C490 C492 1.419 . S
C490 H494 0.930 . S
C491 C490 1.369 . S
C491 C500 1.429 . S
C492 C490 1.419 . S
C492 C493 1.363 . S
C492 H495 0.929 . S
C493 C492 1.363 . S
C493 C499 1.428 . S
H494 C490 0.930 . S
H495 C492 0.929 . S
S496 N497 1.613 . S
S496 N498 1.610 . S
N497 S496 1.613 . S
N497 C500 1.350 . S
N498 S496 1.610 . S
N498 C499 1.351 . S
C499 C493 1.428 . S
C499 N498 1.351 . S
C499 C500 1.434 . S
C500 C491 1.429 . S
C500 N497 1.350 . S
C500 C499 1.434 . S
C501 C502 1.369 . S
C501 C503 1.419 . S
C501 H505 0.930 . S
C502 C501 1.369 . S
C502 C511 1.429 . S
C503 C501 1.419 . S
C503 C504 1.363 . S
C503 H506 0.929 . S
C504 C503 1.363 . S
C504 C510 1.428 . S
H505 C501 0.930 . S
H506 C503 0.929 . S
S507 N508 1.613 . S
S507 N509 1.610 1_556 S
N508 S507 1.613 . S
N508 C511 1.350 . S
N509 S507 1.610 1_554 S
N509 C510 1.351 1_554 S
C510 C504 1.428 . S
C510 N509 1.351 1_556 S
C510 C511 1.434 . S
C511 C502 1.429 . S
C511 N508 1.350 . S
C511 C510 1.434 . S
C512 C513 1.369 . S
C512 C514 1.419 . S
C512 H516 0.930 . S
C513 C512 1.369 . S
C513 C522 1.429 1_655 S
C514 C512 1.419 . S
C514 C515 1.363 1_655 S
C514 H517 0.929 . S
C515 C514 1.363 1_455 S
C515 C521 1.428 . S
H516 C512 0.930 . S
H517 C514 0.929 . S
S518 N519 1.613 . S
S518 N520 1.610 . S
N519 S518 1.613 . S
N519 C522 1.350 . S
N520 S518 1.610 . S
N520 C521 1.351 . S
C521 C515 1.428 . S
C521 N520 1.351 . S
C521 C522 1.434 . S
C522 C513 1.429 1_455 S
C522 N519 1.350 . S
C522 C521 1.434 . S
C523 C524 1.369 . S
C523 C525 1.419 1_655 S
C523 H527 0.930 . S
C524 C523 1.369 . S
C524 C533 1.429 . S
C525 C523 1.419 1_455 S
C525 C526 1.363 . S
C525 H528 0.929 . S
C526 C525 1.363 . S
C526 C532 1.428 . S
H527 C523 0.930 . S
H528 C525 0.929 . S
S529 N530 1.613 1_455 S
S529 N531 1.610 . S
N530 S529 1.613 1_655 S
N530 C533 1.350 . S
N531 S529 1.610 . S
N531 C532 1.351 . S
C532 C526 1.428 . S
C532 N531 1.351 . S
C532 C533 1.434 1_455 S
C533 C524 1.429 . S
C533 N530 1.350 . S
C533 C532 1.434 1_655 S
C534 C535 1.369 . S
C534 C536 1.419 . S
C534 H538 0.930 . S
C535 C534 1.369 . S
C535 C544 1.429 . S
C536 C534 1.419 . S
C536 C537 1.363 . S
C536 H539 0.929 . S
C537 C536 1.363 . S
C537 C543 1.428 . S
H538 C534 0.930 . S
H539 C536 0.929 . S
S540 N541 1.613 . S
S540 N542 1.610 . S
N541 S540 1.613 . S
N541 C544 1.350 . S
N542 S540 1.610 . S
N542 C543 1.351 . S
C543 C537 1.428 . S
C543 N542 1.351 . S
C543 C544 1.434 . S
C544 C535 1.429 . S
C544 N541 1.350 . S
C544 C543 1.434 . S
C545 C546 1.369 . S
C545 C547 1.419 . S
C545 H549 0.930 . S
C546 C545 1.369 . S
C546 C555 1.429 . S
C547 C545 1.419 . S
C547 C548 1.363 . S
C547 H550 0.929 . S
C548 C547 1.363 . S
C548 C554 1.428 . S
H549 C545 0.930 . S
H550 C547 0.929 . S
S551 N552 1.613 1_554 S
S551 N553 1.610 1_554 S
N552 S551 1.613 1_556 S
N552 C555 1.350 . S
N553 S551 1.610 1_556 S
N553 C554 1.351 . S
C554 C548 1.428 . S
C554 N553 1.351 . S
C554 C555 1.434 . S
C555 C546 1.429 . S
C555 N552 1.350 . S
C555 C554 1.434 . S
C556 C557 1.369 . S
C556 C558 1.419 . S
C556 H560 0.930 . S
C557 C556 1.369 . S
C557 C566 1.429 1_455 S
C558 C556 1.419 . S
C558 C559 1.363 1_455 S
C558 H561 0.929 . S
C559 C558 1.363 1_655 S
C559 C565 1.428 . S
H560 C556 0.930 . S
H561 C558 0.929 . S
S562 N563 1.613 . S
S562 N564 1.610 . S
N563 S562 1.613 . S
N563 C566 1.350 . S
N564 S562 1.610 . S
N564 C565 1.351 . S
C565 C559 1.428 . S
C565 N564 1.351 . S
C565 C566 1.434 . S
C566 C557 1.429 1_655 S
C566 N563 1.350 . S
C566 C565 1.434 . S
C567 C568 1.369 . S
C567 C569 1.419 . S
C567 H571 0.930 . S
C568 C567 1.369 . S
C568 C577 1.429 . S
C569 C567 1.419 . S
C569 C570 1.363 . S
C569 H572 0.929 . S
C570 C569 1.363 . S
C570 C576 1.428 . S
H571 C567 0.930 . S
H572 C569 0.929 . S
S573 N574 1.613 1_556 S
S573 N575 1.610 1_556 S
N574 S573 1.613 1_554 S
N574 C577 1.350 . S
N575 S573 1.610 1_554 S
N575 C576 1.351 . S
C576 C570 1.428 . S
C576 N575 1.351 . S
C576 C577 1.434 . S
C577 C568 1.429 . S
C577 N574 1.350 . S
C577 C576 1.434 . S
C578 C579 1.369 . S
C578 C580 1.419 . S
C578 H582 0.930 . S
C579 C578 1.369 . S
C579 C588 1.429 . S
C580 C578 1.419 . S
C580 C581 1.363 . S
C580 H583 0.929 . S
C581 C580 1.363 . S
C581 C587 1.428 . S
H582 C578 0.930 . S
H583 C580 0.929 . S
S584 N585 1.613 . S
S584 N586 1.610 . S
N585 S584 1.613 . S
N585 C588 1.350 . S
N586 S584 1.610 . S
N586 C587 1.351 . S
C587 C581 1.428 . S
C587 N586 1.351 . S
C587 C588 1.434 . S
C588 C579 1.429 . S
C588 N585 1.350 . S
C588 C587 1.434 . S
C589 C590 1.369 . S
C589 C591 1.419 1_455 S
C589 H593 0.930 . S
C590 C589 1.369 . S
C590 C599 1.429 . S
C591 C589 1.419 1_655 S
C591 C592 1.363 . S
C591 H594 0.929 . S
C592 C591 1.363 . S
C592 C598 1.428 . S
H593 C589 0.930 . S
H594 C591 0.929 . S
S595 N596 1.614 . S
S595 N597 1.610 1_455 S
N596 S595 1.614 . S
N596 C599 1.350 . S
N597 S595 1.610 1_655 S
N597 C598 1.351 . S
C598 C592 1.428 . S
C598 N597 1.351 . S
C598 C599 1.434 1_655 S
C599 C590 1.429 . S
C599 N596 1.350 . S
C599 C598 1.434 1_455 S
C600 C601 1.369 1_565 S
C600 C602 1.419 . S
C600 H604 0.930 . S
C601 C600 1.369 1_545 S
C601 C610 1.429 1_554 S
C602 C600 1.419 . S
C602 C603 1.363 1_554 S
C602 H605 0.929 . S
C603 C602 1.363 1_556 S
C603 C609 1.428 1_565 S
H604 C600 0.930 . S
H605 C602 0.929 . S
S606 N607 1.613 . S
S606 N608 1.610 . S
N607 S606 1.613 . S
N607 C610 1.350 . S
N608 S606 1.610 . S
N608 C609 1.351 . S
C609 C603 1.428 1_545 S
C609 N608 1.351 . S
C609 C610 1.434 . S
C610 C601 1.429 1_556 S
C610 N607 1.350 . S
C610 C609 1.434 . S
C611 C612 1.369 . S
C611 C613 1.419 . S
C611 H615 0.930 . S
C612 C611 1.369 . S
C612 C621 1.429 . S
C613 C611 1.419 . S
C613 C614 1.363 . S
C613 H616 0.929 . S
C614 C613 1.363 . S
C614 C620 1.428 . S
H615 C611 0.930 . S
H616 C613 0.929 . S
S617 N618 1.613 . S
S617 N619 1.610 . S
N618 S617 1.613 . S
N618 C621 1.350 . S
N619 S617 1.610 . S
N619 C620 1.351 . S
C620 C614 1.428 . S
C620 N619 1.351 . S
C620 C621 1.434 . S
C621 C612 1.429 . S
C621 N618 1.350 . S
C621 C620 1.434 . S
C622 C623 1.369 . S
C622 C624 1.419 1_545 S
C622 H626 0.930 . S
C623 C622 1.369 . S
C623 C632 1.429 . S
C624 C622 1.419 1_565 S
C624 C625 1.363 . S
C624 H627 0.929 . S
C625 C624 1.363 . S
C625 C631 1.428 . S
H626 C622 0.930 . S
H627 C624 0.929 . S
S628 N629 1.613 . S
S628 N630 1.596 1_545 S
N629 S628 1.613 . S
N629 C632 1.350 . S
N630 S628 1.596 1_565 S
N630 C631 1.352 . S
C631 C625 1.428 . S
C631 N630 1.352 . S
C631 C632 1.434 1_565 S
C632 C623 1.429 . S
C632 N629 1.350 . S
C632 C631 1.434 1_545 S
C633 C634 1.369 . S
C633 C635 1.419 . S
C633 H637 0.930 . S
C634 C633 1.369 . S
C634 C643 1.429 . S
C635 C633 1.419 . S
C635 C636 1.363 . S
C635 H638 0.929 . S
C636 C635 1.363 . S
C636 C642 1.428 . S
H637 C633 0.930 . S
H638 C635 0.929 . S
S639 N640 1.613 . S
S639 N641 1.610 . S
N640 S639 1.613 . S
N640 C643 1.350 . S
N641 S639 1.610 . S
N641 C642 1.351 . S
C642 C636 1.428 . S
C642 N641 1.351 . S
C642 C643 1.434 . S
C643 C634 1.429 . S
C643 N640 1.350 . S
C643 C642 1.434 . S
C644 C645 1.369 . S
C644 C646 1.419 . S
C644 H648 0.930 . S
C645 C644 1.369 . S
C645 C654 1.429 . S
C646 C644 1.419 . S
C646 C647 1.363 . S
C646 H649 0.929 . S
C647 C646 1.363 . S
C647 C653 1.428 . S
H648 C644 0.930 . S
H649 C646 0.929 . S
S650 N651 1.613 . S
S650 N652 1.610 . S
N651 S650 1.613 . S
N651 C654 1.350 . S
N652 S650 1.610 . S
N652 C653 1.351 . S
C653 C647 1.428 . S
C653 N652 1.351 . S
C653 C654 1.434 . S
C654 C645 1.429 . S
C654 N651 1.350 . S
C654 C653 1.434 . S
C655 C656 1.369 . S
C655 C657 1.419 . S
C655 H659 0.930 . S
C656 C655 1.369 . S
C656 C665 1.429 . S
C657 C655 1.419 . S
C657 C658 1.363 . S
C657 H660 0.929 . S
C658 C657 1.363 . S
C658 C664 1.428 . S
H659 C655 0.930 . S
H660 C657 0.929 . S
S661 N662 1.613 . S
S661 N663 1.610 . S
N662 S661 1.613 . S
N662 C665 1.350 . S
N663 S661 1.610 . S
N663 C664 1.351 . S
C664 C658 1.428 . S
C664 N663 1.351 . S
C664 C665 1.434 . S
C665 C656 1.429 . S
C665 N662 1.350 . S
C665 C664 1.434 . S
C666 C667 1.369 . S
C666 C668 1.419 . S
C666 H670 0.930 . S
C667 C666 1.369 . S
C667 C676 1.429 . S
C668 C666 1.419 . S
C668 C669 1.363 . S
C668 H671 0.929 . S
C669 C668 1.363 . S
C669 C675 1.428 . S
H670 C666 0.930 . S
H671 C668 0.929 . S
S672 N673 1.613 . S
S672 N674 1.610 . S
N673 S672 1.613 . S
N673 C676 1.350 . S
N674 S672 1.610 . S
N674 C675 1.351 . S
C675 C669 1.428 . S
C675 N674 1.351 . S
C675 C676 1.434 . S
C676 C667 1.429 . S
C676 N673 1.350 . S
C676 C675 1.434 . S
C677 C678 1.369 . S
C677 C679 1.419 1_556 S
C677 H681 0.930 . S
C678 C677 1.369 . S
C678 C687 1.437 1_655 S
C679 C677 1.419 1_554 S
C679 C680 1.363 . S
C679 H682 0.929 . S
C680 C679 1.363 . S
C680 C686 1.428 1_655 S
H681 C677 0.930 . S
H682 C679 0.929 . S
S683 N684 1.613 . S
S683 N685 1.610 . S
N684 S683 1.613 . S
N684 C687 1.349 1_554 S
N685 S683 1.610 . S
N685 C686 1.351 . S
C686 C680 1.428 1_455 S
C686 N685 1.351 . S
C686 C687 1.425 1_554 S
C687 C678 1.437 1_455 S
C687 N684 1.349 1_556 S
C687 C686 1.425 1_556 S
C688 C689 1.369 . S
C688 C690 1.419 . S
C688 H692 0.930 . S
C689 C688 1.369 . S
C689 C698 1.429 . S
C690 C688 1.419 . S
C690 C691 1.363 . S
C690 H693 0.929 . S
C691 C690 1.363 . S
C691 C697 1.428 . S
H692 C688 0.930 . S
H693 C690 0.929 . S
S694 N695 1.613 . S
S694 N696 1.610 . S
N695 S694 1.613 . S
N695 C698 1.350 . S
N696 S694 1.610 . S
N696 C697 1.351 . S
C697 C691 1.428 . S
C697 N696 1.351 . S
C697 C698 1.434 . S
C698 C689 1.429 . S
C698 N695 1.350 . S
C698 C697 1.434 . S
C699 C700 1.369 . S
C699 C701 1.419 . S
C699 H703 0.930 . S
C700 C699 1.369 . S
C700 C709 1.429 . S
C701 C699 1.419 . S
C701 C702 1.363 . S
C701 H704 0.929 . S
C702 C701 1.363 . S
C702 C708 1.428 . S
H703 C699 0.930 . S
H704 C701 0.929 . S
S705 N706 1.613 . S
S705 N707 1.610 . S
N706 S705 1.613 . S
N706 C709 1.350 . S
N707 S705 1.610 . S
N707 C708 1.351 . S
C708 C702 1.428 . S
C708 N707 1.351 . S
C708 C709 1.434 . S
C709 C700 1.429 . S
C709 N706 1.350 . S
C709 C708 1.434 . S
C710 C711 1.369 . S
C710 C712 1.419 . S
C710 H714 0.930 . S
C711 C710 1.369 . S
C711 C720 1.429 . S
C712 C710 1.419 . S
C712 C713 1.363 . S
C712 H715 0.929 . S
C713 C712 1.363 . S
C713 C719 1.428 . S
H714 C710 0.930 . S
H715 C712 0.929 . S
S716 N717 1.613 . S
S716 N718 1.610 . S
N717 S716 1.613 . S
N717 C720 1.350 . S
N718 S716 1.610 . S
N718 C719 1.351 . S
C719 C713 1.428 . S
C719 N718 1.351 . S
C719 C720 1.434 . S
C720 C711 1.429 . S
C720 N717 1.350 . S
C720 C719 1.434 . S
C721 C722 1.369 . S
C721 C723 1.419 . S
C721 H725 0.930 . S
C722 C721 1.369 . S
C722 C731 1.429 . S
C723 C721 1.419 . S
C723 C724 1.363 . S
C723 H726 0.929 . S
C724 C723 1.363 . S
C724 C730 1.428 . S
H725 C721 0.930 . S
H726 C723 0.929 . S
S727 N728 1.613 . S
S727 N729 1.610 . S
N728 S727 1.613 . S
N728 C731 1.350 . S
N729 S727 1.610 . S
N729 C730 1.351 . S
C730 C724 1.428 . S
C730 N729 1.351 . S
C730 C731 1.434 . S
C731 C722 1.429 . S
C731 N728 1.350 . S
C731 C730 1.434 . S
C732 C733 1.369 . S
C732 C734 1.419 . S
C732 H736 0.930 . S
C733 C732 1.369 . S
C733 C742 1.429 . S
C734 C732 1.419 . S
C734 C735 1.363 . S
C734 H737 0.929 . S
C735 C734 1.363 . S
C735 C741 1.428 . S
H736 C732 0.930 . S
H737 C734 0.929 . S
S738 N739 1.613 . S
S738 N740 1.610 . S
N739 S738 1.613 . S
N739 C742 1.350 . S
N740 S738 1.610 . S
N740 C741 1.351 . S
C741 C735 1.428 . S
C741 N740 1.351 . S
C741 C742 1.434 . S
C742 C733 1.429 . S
C742 N739 1.350 . S
C742 C741 1.434 . S
C743 C744 1.369 . S
C743 C745 1.419 . S
C743 H747 0.930 . S
C744 C743 1.369 . S
C744 C753 1.429 . S
C745 C743 1.419 . S
C745 C746 1.363 . S
C745 H748 0.929 . S
C746 C745 1.363 . S
C746 C752 1.428 . S
H747 C743 0.930 . S
H748 C745 0.929 . S
S749 N750 1.613 . S
S749 N751 1.610 . S
N750 S749 1.613 . S
N750 C753 1.350 . S
N751 S749 1.610 . S
N751 C752 1.351 . S
C752 C746 1.428 . S
C752 N751 1.351 . S
C752 C753 1.434 . S
C753 C744 1.429 . S
C753 N750 1.350 . S
C753 C752 1.434 . S
C754 C755 1.369 . S
C754 C756 1.419 . S
C754 H758 0.930 . S
C755 C754 1.369 . S
C755 C764 1.429 . S
C756 C754 1.419 . S
C756 C757 1.363 . S
C756 H759 0.929 . S
C757 C756 1.363 . S
C757 C763 1.428 . S
H758 C754 0.930 . S
H759 C756 0.929 . S
S760 N761 1.613 1_554 S
S760 N762 1.610 . S
N761 S760 1.613 1_556 S
N761 C764 1.350 1_556 S
N762 S760 1.610 . S
N762 C763 1.351 . S
C763 C757 1.428 . S
C763 N762 1.351 . S
C763 C764 1.434 . S
C764 C755 1.429 . S
C764 N761 1.350 1_554 S
C764 C763 1.434 . S
C765 C766 1.369 . S
C765 C767 1.419 . S
C765 H769 0.930 . S
C766 C765 1.369 . S
C766 C775 1.429 . S
C767 C765 1.419 . S
C767 C768 1.363 . S
C767 H770 0.929 . S
C768 C767 1.363 . S
C768 C774 1.428 . S
H769 C765 0.930 . S
H770 C767 0.929 . S
S771 N772 1.613 . S
S771 N773 1.610 1_556 S
N772 S771 1.613 . S
N772 C775 1.350 . S
N773 S771 1.610 1_554 S
N773 C774 1.351 1_554 S
C774 C768 1.428 . S
C774 N773 1.351 1_556 S
C774 C775 1.434 . S
C775 C766 1.429 . S
C775 N772 1.350 . S
C775 C774 1.434 . S
C776 C777 1.369 . S
C776 C778 1.419 . S
C776 H780 0.930 . S
C777 C776 1.369 . S
C777 C786 1.429 . S
C778 C776 1.419 . S
C778 C779 1.363 . S
C778 H781 0.929 . S
C779 C778 1.363 . S
C779 C785 1.428 . S
H780 C776 0.930 . S
H781 C778 0.929 . S
S782 N783 1.613 . S
S782 N784 1.610 1_556 S
N783 S782 1.613 . S
N783 C786 1.350 . S
N784 S782 1.610 1_554 S
N784 C785 1.351 1_554 S
C785 C779 1.428 . S
C785 N784 1.351 1_556 S
C785 C786 1.434 . S
C786 C777 1.429 . S
C786 N783 1.350 . S
C786 C785 1.434 . S
C787 C788 1.369 . S
C787 C789 1.419 . S
C787 H791 0.930 . S
C788 C787 1.369 . S
C788 C797 1.429 . S
C789 C787 1.419 . S
C789 C790 1.363 . S
C789 H792 0.929 . S
C790 C789 1.363 . S
C790 C796 1.428 . S
H791 C787 0.930 . S
H792 C789 0.929 . S
S793 N794 1.613 . S
S793 N795 1.610 . S
N794 S793 1.613 . S
N794 C797 1.350 . S
N795 S793 1.610 . S
N795 C796 1.351 . S
C796 C790 1.428 . S
C796 N795 1.351 . S
C796 C797 1.434 . S
C797 C788 1.429 . S
C797 N794 1.350 . S
C797 C796 1.434 . S
C798 C799 1.369 . S
C798 C800 1.419 . S
C798 H802 0.930 . S
C799 C798 1.369 . S
C799 C808 1.429 . S
C800 C798 1.419 . S
C800 C801 1.363 . S
C800 H803 0.929 . S
C801 C800 1.363 . S
C801 C807 1.428 . S
H802 C798 0.930 . S
H803 C800 0.929 . S
S804 N805 1.613 . S
S804 N806 1.610 . S
N805 S804 1.613 . S
N805 C808 1.350 . S
N806 S804 1.610 . S
N806 C807 1.351 . S
C807 C801 1.428 . S
C807 N806 1.351 . S
C807 C808 1.434 . S
C808 C799 1.429 . S
C808 N805 1.350 . S
C808 C807 1.434 . S
C809 C810 1.369 . S
C809 C811 1.419 . S
C809 H813 0.930 . S
C810 C809 1.369 . S
C810 C819 1.429 . S
C811 C809 1.419 . S
C811 C812 1.363 . S
C811 H814 0.929 . S
C812 C811 1.363 . S
C812 C818 1.428 . S
H813 C809 0.930 . S
H814 C811 0.929 . S
S815 N816 1.613 . S
S815 N817 1.610 . S
N816 S815 1.613 . S
N816 C819 1.350 . S
N817 S815 1.610 . S
N817 C818 1.351 . S
C818 C812 1.428 . S
C818 N817 1.351 . S
C818 C819 1.434 . S
C819 C810 1.429 . S
C819 N816 1.350 . S
C819 C818 1.434 . S
C820 C821 1.369 . S
C820 C822 1.419 . S
C820 H824 0.930 . S
C821 C820 1.369 . S
C821 C830 1.429 . S
C822 C820 1.419 . S
C822 C823 1.363 . S
C822 H825 0.929 . S
C823 C822 1.363 . S
C823 C829 1.428 . S
H824 C820 0.930 . S
H825 C822 0.929 . S
S826 N827 1.613 . S
S826 N828 1.610 . S
N827 S826 1.613 . S
N827 C830 1.350 . S
N828 S826 1.610 . S
N828 C829 1.351 . S
C829 C823 1.428 . S
C829 N828 1.351 . S
C829 C830 1.434 . S
C830 C821 1.429 . S
C830 N827 1.350 . S
C830 C829 1.434 . S
C831 C832 1.369 . S
C831 C833 1.419 . S
C831 H835 0.930 . S
C832 C831 1.369 . S
C832 C841 1.429 . S
C833 C831 1.419 . S
C833 C834 1.363 . S
C833 H836 0.929 . S
C834 C833 1.363 . S
C834 C840 1.428 . S
H835 C831 0.930 . S
H836 C833 0.929 . S
S837 N838 1.613 . S
S837 N839 1.610 . S
N838 S837 1.613 . S
N838 C841 1.350 . S
N839 S837 1.610 . S
N839 C840 1.351 . S
C840 C834 1.428 . S
C840 N839 1.351 . S
C840 C841 1.434 . S
C841 C832 1.429 . S
C841 N838 1.350 . S
C841 C840 1.434 . S
C842 C843 1.369 . S
C842 C844 1.419 . S
C842 H846 0.930 . S
C843 C842 1.369 . S
C843 C852 1.429 . S
C844 C842 1.419 . S
C844 C845 1.363 . S
C844 H847 0.929 . S
C845 C844 1.363 . S
C845 C851 1.428 . S
H846 C842 0.930 . S
H847 C844 0.929 . S
S848 N849 1.613 . S
S848 N850 1.610 . S
N849 S848 1.613 . S
N849 C852 1.350 . S
N850 S848 1.610 . S
N850 C851 1.351 . S
C851 C845 1.428 . S
C851 N850 1.351 . S
C851 C852 1.434 . S
C852 C843 1.429 . S
C852 N849 1.350 . S
C852 C851 1.434 . S
C853 C854 1.369 . S
C853 C855 1.419 . S
C853 H857 0.930 . S
C854 C853 1.369 . S
C854 C863 1.429 . S
C855 C853 1.419 . S
C855 C856 1.363 . S
C855 H858 0.929 . S
C856 C855 1.363 . S
C856 C862 1.428 . S
H857 C853 0.930 . S
H858 C855 0.929 . S
S859 N860 1.613 . S
S859 N861 1.610 . S
N860 S859 1.613 . S
N860 C863 1.350 . S
N861 S859 1.610 . S
N861 C862 1.351 . S
C862 C856 1.428 . S
C862 N861 1.351 . S
C862 C863 1.434 . S
C863 C854 1.429 . S
C863 N860 1.350 . S
C863 C862 1.434 . S
C337 C17 1.441 . S
C339 C161 1.446 . S
C348 C35 1.456 . S
C350 C101 1.450 . S
C359 C122 1.449 . S
C361 C59 1.454 . S
C370 C80 1.454 . S
C372 C143 1.455 . S
C381 C247 1.309 . S
C383 C100 1.308 . S
C392 C184 1.304 . S
C394 C16 1.305 . S
C403 C223 1.306 . S
C405 C142 1.306 . S
C414 C58 1.295 . S
C416 C202 1.298 . S
C425 C203 1.457 . S
C427 C269 1.454 . S
C436 C224 1.442 . S
C438 C311 1.445 . S
C447 C290 1.456 . S
C449 C185 1.451 . S
C458 C248 1.445 . S
C460 C332 1.451 . S
C469 C310 1.311 . S
C471 C79 1.308 . S
C480 C268 1.301 . S
C482 C121 1.303 . S
C491 C34 1.296 . S
C493 C331 1.297 . S
C502 C160 1.300 . S
C504 C289 1.300 . S
C513 C291 0.723 . S
C515 C18 0.728 . S
C524 C249 0.714 . S
C526 C36 0.715 . S
C535 C270 0.714 . S
C537 C60 0.720 . S
C546 C225 0.742 . S
C548 C81 0.735 . S
C557 C102 0.713 . S
C559 C333 0.719 . S
C568 C204 0.729 . S
C570 C123 0.732 . S
C579 C144 0.737 . S
C581 C312 0.731 . S
C590 C162 0.744 . S
C592 C186 0.740 . S
C601 C15 1.344 . S
C603 C99 1.338 . S
C612 C39 1.337 . S
C614 C120 1.344 . S
C623 C141 1.344 . S
C625 C57 1.339 . S
C634 C78 1.339 . S
C636 C165 1.342 . S
C645 C228 1.344 . S
C647 C183 1.338 . S
C656 C246 1.337 . S
C658 C207 1.344 . S
C667 C267 1.345 . S
C669 C309 1.338 . S
C678 C330 1.342 . S
C680 C288 1.340 . S
C689 C14 1.571 . S
C691 C164 1.571 . S
C700 C38 1.572 . S
C702 C98 1.569 . S
C711 C119 1.569 . S
C713 C56 1.571 . S
C722 C140 1.572 . S
C724 C77 1.570 . S
C733 C244 1.471 . S
C735 C97 1.473 . S
C744 C181 1.473 . S
C746 C13 1.470 . S
C755 C226 1.470 . S
C757 C139 1.469 . S
C766 C55 1.469 . S
C768 C205 1.472 . S
C777 C266 1.569 . S
C779 C206 1.572 . S
C788 C308 1.569 . S
C790 C227 1.572 . S
C799 C287 1.570 . S
C801 C182 1.570 . S
C810 C329 1.571 . S
C812 C245 1.570 . S
C821 C307 1.474 . S
C823 C76 1.472 . S
C832 C118 1.468 . S
C834 C265 1.470 . S
C843 C37 1.470 . S
C845 C328 1.473 . S
C854 C286 1.469 . S
C856 C163 1.473 . S
