# Generated by pormake.
# Topology vby, (6)-cn, num edge types: 1
# Building blocks:
#     Node 0, Type 0, BuildingBlock: PAMTOO_clean_sbu_0, # of connection points: 6
#     Node 1, Type 0, BuildingBlock: PAMTOO_clean_sbu_0, # of connection points: 6
#     Node 2, Type 0, BuildingBlock: PAMTOO_clean_sbu_0, # of connection points: 6
#     Node 3, Type 0, BuildingBlock: PAMTOO_clean_sbu_0, # of connection points: 6
#     Node 4, Type 0, BuildingBlock: PAMTOO_clean_sbu_0, # of connection points: 6
#     Node 5, Type 0, BuildingBlock: PAMTOO_clean_sbu_0, # of connection points: 6
#     Node 6, Type 0, BuildingBlock: PAMTOO_clean_sbu_0, # of connection points: 6
#     Node 7, Type 0, BuildingBlock: PAMTOO_clean_sbu_0, # of connection points: 6
#     Edge 8, Type (0, 0), BuildingBlock: CIFDUS_clean_linker_0, # of connection points: 2
#     Edge 9, Type (0, 0), BuildingBlock: CIFDUS_clean_linker_0, # of connection points: 2
#     Edge 10, Type (0, 0), BuildingBlock: CIFDUS_clean_linker_0, # of connection points: 2
#     Edge 11, Type (0, 0), BuildingBlock: CIFDUS_clean_linker_0, # of connection points: 2
#     Edge 12, Type (0, 0), BuildingBlock: CIFDUS_clean_linker_0, # of connection points: 2
#     Edge 13, Type (0, 0), BuildingBlock: CIFDUS_clean_linker_0, # of connection points: 2
#     Edge 14, Type (0, 0), BuildingBlock: CIFDUS_clean_linker_0, # of connection points: 2
#     Edge 15, Type (0, 0), BuildingBlock: CIFDUS_clean_linker_0, # of connection points: 2
#     Edge 16, Type (0, 0), BuildingBlock: CIFDUS_clean_linker_0, # of connection points: 2
#     Edge 17, Type (0, 0), BuildingBlock: CIFDUS_clean_linker_0, # of connection points: 2
#     Edge 18, Type (0, 0), BuildingBlock: CIFDUS_clean_linker_0, # of connection points: 2
#     Edge 19, Type (0, 0), BuildingBlock: CIFDUS_clean_linker_0, # of connection points: 2
#     Edge 20, Type (0, 0), BuildingBlock: CIFDUS_clean_linker_0, # of connection points: 2
#     Edge 21, Type (0, 0), BuildingBlock: CIFDUS_clean_linker_0, # of connection points: 2
#     Edge 22, Type (0, 0), BuildingBlock: CIFDUS_clean_linker_0, # of connection points: 2
#     Edge 23, Type (0, 0), BuildingBlock: CIFDUS_clean_linker_0, # of connection points: 2
#     Edge 24, Type (0, 0), BuildingBlock: CIFDUS_clean_linker_0, # of connection points: 2
#     Edge 25, Type (0, 0), BuildingBlock: CIFDUS_clean_linker_0, # of connection points: 2
#     Edge 26, Type (0, 0), BuildingBlock: CIFDUS_clean_linker_0, # of connection points: 2
#     Edge 27, Type (0, 0), BuildingBlock: CIFDUS_clean_linker_0, # of connection points: 2
#     Edge 28, Type (0, 0), BuildingBlock: CIFDUS_clean_linker_0, # of connection points: 2
#     Edge 29, Type (0, 0), BuildingBlock: CIFDUS_clean_linker_0, # of connection points: 2
#     Edge 30, Type (0, 0), BuildingBlock: CIFDUS_clean_linker_0, # of connection points: 2
#     Edge 31, Type (0, 0), BuildingBlock: CIFDUS_clean_linker_0, # of connection points: 2
# Relax obj value: 0.143
# Max RMSD: 0.195
# Mean RMSD: 0.185
data_MOF--net-vby--node1-PAMTOO_clean_sbu_0--edge1-CIFDUS_clean_linker_0
_symmetry_space_group_name_H-M    P1
_symmetry_Int_Tables_number       1
_symmetry_cell_setting            triclinic
loop_
_symmetry_equiv_pos_as_xyz
'x, y, z'
_cell_length_a     13.489609
_cell_length_b     97.596168
_cell_length_c     26.328633
_cell_angle_alpha  85.318681
_cell_angle_beta   94.04524
_cell_angle_gamma 89.92449
loop_
_atom_site_label
_atom_site_type_symbol
_atom_site_fract_x
_atom_site_fract_y
_atom_site_fract_z
_atom_type_partial_charge
Dy0 Dy 0.09626 0.40394 0.00581 0.0
Dy1 Dy 0.11191 0.3696 0.01735 0.0
C2 C 0.09604 0.38694 0.11175 0.0
O3 O 0.25366 0.39906 -0.00494 0.0
O4 O 0.26938 0.37661 0.02959 0.0
O5 O 0.07205 0.42251 0.04208 0.0
O6 O 0.12069 0.42378 0.96479 0.0
O7 O 0.14408 0.37651 0.93744 0.0
O8 O 0.05428 0.3967 0.92871 0.0
O9 O 0.95206 0.37459 -0.00274 0.0
O10 O 0.93973 0.39725 0.01548 0.0
O11 O 0.07223 0.35004 0.98978 0.0
O12 O 0.157 0.35084 0.06303 0.0
C13 C 0.30809 0.38836 0.0128 0.0
O14 O 0.1449 0.39644 0.08603 0.0
O15 O 0.05738 0.37663 0.0888 0.0
C16 C 0.05541 0.44457 -0.00545 0.0
C17 C 1.00922 0.47301 0.98959 0.0
C18 C 0.97402 0.46383 0.02822 0.0
C19 C 0.99669 0.4498 0.03063 0.0
C20 C 0.08792 0.45362 0.95496 0.0
C21 C 0.06473 0.46766 0.95233 0.0
C22 C 0.09822 0.43053 0.00328 0.0
C23 C 0.097 0.38646 0.90869 0.0
C24 C 0.89923 0.38537 0.00588 0.0
C25 C 0.16298 0.32983 0.02247 0.0
C26 C 0.2236 0.30277 0.00826 0.0
C27 C 0.22161 0.31312 0.9676 0.0
C28 C 0.19125 0.32653 0.97459 0.0
C29 C 0.16869 0.31968 0.06345 0.0
C30 C 0.19845 0.3063 0.05648 0.0
C31 C 0.11524 0.34304 0.02972 0.0
H32 H 0.93251 0.46753 0.05811 0.0
H33 H 0.97199 0.44318 0.06225 0.0
H34 H 0.13481 0.44995 0.92712 0.0
H35 H 0.09193 0.47436 0.9216 0.0
H36 H 0.24201 0.31082 0.93015 0.0
H37 H 0.18717 0.33418 0.94229 0.0
H38 H 0.14598 0.32197 0.10054 0.0
H39 H 0.19753 0.29861 0.0885 0.0
Dy40 Dy 0.96986 0.65724 0.00572 0.0
Dy41 Dy 0.94759 0.62303 0.00853 0.0
C42 C 0.97403 0.63842 0.10845 0.0
O43 O 0.12248 0.64974 -0.00563 0.0
O44 O 0.11122 0.62657 0.0198 0.0
O45 O 0.9616 0.67532 0.04725 0.0
O46 O 1.00487 0.6772 0.96918 0.0
O47 O 0.99331 0.63033 0.93113 0.0
O48 O 0.92615 0.65207 0.92603 0.0
O49 O 0.79361 0.63118 0.98989 0.0
O50 O 0.80958 0.65305 0.01643 0.0
O51 O 0.89505 0.60454 0.97579 0.0
O52 O 0.96898 0.60337 0.0523 0.0
C53 C 0.16334 0.63756 0.00688 0.0
O54 O 1.02397 0.64779 0.08274 0.0
O55 O 0.91551 0.63005 0.08423 0.0
C56 C 0.93523 0.69727 0.00135 0.0
C57 C 0.86573 0.72489 0.99008 0.0
C58 C 0.88528 0.718 0.03883 0.0
C59 C 0.91944 0.7044 0.04433 0.0
C60 C 0.91372 0.70398 0.95247 0.0
C61 C 0.87902 0.71762 0.94691 0.0
C62 C 0.98582 0.68367 0.00894 0.0
C63 C 0.96293 0.6417 0.90429 0.0
C64 C 0.75482 0.64268 0.00244 0.0
C65 C 0.96253 0.58267 0.00976 0.0
C66 C 1.00562 0.55493 -0.00347 0.0
C67 C 1.02405 0.56534 0.95814 0.0
C68 C 1.00205 0.57913 0.96457 0.0
C69 C 0.94827 0.57235 0.04874 0.0
C70 C 0.96931 0.55864 0.04221 0.0
C71 C 0.92568 0.59661 0.01623 0.0
H72 H 0.878 0.72326 0.07304 0.0
H73 H 0.93709 0.69962 0.08251 0.0
H74 H 0.92595 0.69883 0.91852 0.0
H75 H 0.86364 0.72251 0.90876 0.0
H76 H 0.05189 0.56275 0.92251 0.0
H77 H 1.0134 0.58693 0.93386 0.0
H78 H 0.91768 0.57485 0.08385 0.0
H79 H 0.95582 0.55088 0.07274 0.0
Dy80 Dy 0.10581 0.65758 0.50931 0.0
Dy81 Dy 0.09314 0.62353 0.51639 0.0
C82 C 0.08898 0.64127 0.40965 0.0
O83 O 0.94615 0.65303 0.49169 0.0
O84 O 0.93595 0.63026 0.52212 0.0
O85 O 0.07393 0.67751 0.46941 0.0
O86 O 0.1404 0.67589 0.54745 0.0
O87 O 0.14342 0.63028 0.59291 0.0
O88 O 0.05311 0.65 0.58486 0.0
O89 O 0.24987 0.62852 0.50242 0.0
O90 O 0.26403 0.6507 0.52567 0.0
O91 O 0.0546 0.60441 0.55856 0.0
O92 O 0.13463 0.60427 0.48941 0.0
C93 C 0.89429 0.6422 0.50609 0.0
O94 O 0.13727 0.65095 0.43287 0.0
O95 O 0.047 0.63102 0.4356 0.0
C96 C 0.16197 0.69714 0.49813 0.0
C97 C 0.23131 0.72431 0.48243 0.0
C98 C 0.20493 0.7167 0.44051 0.0
C99 C 0.16991 0.70323 0.44828 0.0
C100 C 0.19268 0.70458 0.53981 0.0
C101 C 0.22715 0.71798 0.53208 0.0
C102 C 0.10865 0.6841 0.50801 0.0
C103 C 0.0954 0.63978 0.6137 0.0
C104 C 0.30368 0.63908 0.51472 0.0
C105 C 0.06357 0.58297 0.51978 0.0
C106 C 0.03825 0.55475 0.50643 0.0
C107 C 0.05714 0.55927 0.55553 0.0
C108 C 0.06946 0.57323 0.56206 0.0
C109 C 0.04015 0.57864 0.47086 0.0
C110 C 1.02713 0.56465 0.46429 0.0
C111 C 0.09807 0.597 0.52741 0.0
H112 H 0.20708 0.72136 0.40183 0.0
H113 H 0.14563 0.69782 0.41536 0.0
H114 H 0.18622 0.70022 0.57863 0.0
H115 H 0.24842 0.72353 0.56511 0.0
H116 H 0.06747 0.55198 0.58879 0.0
H117 H 0.0889 0.57634 0.60006 0.0
H118 H 0.03563 0.58597 0.43759 0.0
H119 H 1.01071 0.56156 0.42604 0.0
Dy120 Dy 0.96842 0.37158 0.51387 0.0
Dy121 Dy 0.94264 0.40554 0.49127 0.0
C122 C 0.94989 0.38551 0.40093 0.0
O123 O 0.12016 0.37947 0.49843 0.0
O124 O 0.10579 0.40249 0.51152 0.0
O125 O 1.02372 0.35217 0.49329 0.0
O126 O 0.94382 0.35294 0.56167 0.0
O127 O 0.94357 0.4014 0.57586 0.0
O128 O 1.023 0.3804 0.58628 0.0
O129 O 0.79154 0.39663 0.47548 0.0
O130 O 0.81034 0.37645 0.52621 0.0
O131 O 0.86682 0.42434 0.50363 0.0
O132 O 0.9769 0.42447 0.44743 0.0
C133 C 0.15978 0.39159 0.50476 0.0
O134 O 0.91839 0.37528 0.43101 0.0
O135 O 0.97812 0.39713 0.41878 0.0
C136 C 0.93711 0.33193 0.52151 0.0
C137 C 0.86518 0.30525 0.50626 0.0
C138 C 0.88437 0.31452 0.4643 0.0
C139 C 0.92003 0.32773 0.47183 0.0
C140 C 0.91526 0.32284 0.56323 0.0
C141 C 0.8794 0.30969 0.55574 0.0
C142 C 0.98583 0.34512 0.53139 0.0
C143 C 0.99075 0.39154 0.6049 0.0
C144 C 0.75344 0.38608 0.50142 0.0
C145 C 0.94619 0.44559 0.4824 0.0
C146 C 0.98319 0.47312 0.50308 0.0
C147 C 0.98993 0.46251 0.54289 0.0
C148 C 0.97144 0.44884 0.53264 0.0
C149 C 0.94292 0.45604 0.4426 0.0
C150 C 0.9609 0.46965 0.45275 0.0
C151 C 0.91504 0.43173 0.47015 0.0
H152 H 0.87492 0.31142 0.42569 0.0
H153 H 0.93651 0.33449 0.43885 0.0
H154 H 0.92808 0.32582 0.60191 0.0
H155 H 0.86358 0.30294 0.58887 0.0
H156 H 1.00828 0.46479 0.582 0.0
H157 H 0.97471 0.44089 0.56395 0.0
H158 H 0.92308 0.45374 0.40362 0.0
H159 H 0.95337 0.47751 0.4212 0.0
Dy160 Dy 0.61979 0.90417 0.014 0.0
Dy161 Dy 0.59523 0.8702 0.01609 0.0
C162 C 0.60828 0.88621 0.11562 0.0
O163 O 0.76769 0.89636 -0.00368 0.0
O164 O 0.75868 0.87374 0.02784 0.0
O165 O 0.60523 0.92235 0.05437 0.0
O166 O 0.67426 0.92355 0.9819 0.0
O167 O 0.61502 0.878 0.93479 0.0
O168 O 0.55715 0.90013 0.9363 0.0
O169 O 0.4396 0.87802 0.00244 0.0
O170 O 0.45725 0.90061 0.02198 0.0
O171 O 0.55318 0.8514 0.98167 0.0
O172 O 0.61072 0.85072 0.06091 0.0
C173 C 0.80988 0.88446 0.01147 0.0
O174 O 0.66795 0.89443 0.09099 0.0
O175 O 0.5547 0.87742 0.09068 0.0
C176 C 0.60915 0.94451 0.00812 0.0
C177 C 0.57884 0.97326 -0.00126 0.0
C178 C 0.53966 0.96507 0.03886 0.0
C179 C 0.55496 0.95084 0.04361 0.0
C180 C 0.64301 0.95262 0.96635 0.0
C181 C 0.62774 0.96683 0.96162 0.0
C182 C 0.64627 0.93026 0.01944 0.0
C183 C 0.57839 0.88954 0.91118 0.0
C184 C 0.40183 0.88993 0.01157 0.0
C185 C 0.62945 0.83021 0.01876 0.0
C186 C 0.69101 0.80256 0.01519 0.0
C187 C 0.66091 0.81062 0.96996 0.0
C188 C 0.62984 0.8243 0.97175 0.0
C189 C 0.6644 0.82233 0.06349 0.0
C190 C 0.69501 0.80872 0.06172 0.0
C191 C 0.57978 0.84361 0.0231 0.0
H192 H 0.50218 0.96973 0.06827 0.0
H193 H 0.529 0.94492 0.07663 0.0
H194 H 0.68587 0.94809 0.93864 0.0
H195 H 0.6573 0.97285 0.9298 0.0
H196 H 0.65663 0.80617 0.93353 0.0
H197 H 0.60238 0.83003 0.9366 0.0
H198 H 0.66421 0.8265 0.10039 0.0
H199 H 0.71937 0.80287 0.09716 0.0
Dy200 Dy 0.47376 0.15686 -0.00794 0.0
Dy201 Dy 0.44874 0.123 -0.00585 0.0
C202 C 0.49011 0.13766 0.09639 0.0
O203 O 0.62935 0.149 0.00478 0.0
O204 O 0.61174 0.12629 0.98668 0.0
O205 O 0.52365 0.17536 0.02545 0.0
O206 O 0.45162 0.17654 0.94869 0.0
O207 O 0.40159 0.13274 0.91697 0.0
O208 O 0.51476 0.14979 0.91771 0.0
O209 O 0.30144 0.13092 0.01242 0.0
O210 O 0.31041 0.15336 0.97923 0.0
O211 O 0.46147 0.1047 0.95426 0.0
O212 O 0.39327 0.10376 0.02696 0.0
C213 C 0.6671 0.13703 -0.00363 0.0
O214 O 0.45048 0.149 0.07275 0.0
O215 O 0.51366 0.12719 0.07123 0.0
C216 C 0.4442 0.19661 -0.00625 0.0
C217 C 0.37961 0.22344 0.00902 0.0
C218 C 0.38191 0.21294 0.04915 0.0
C219 C 0.41409 0.19964 0.04162 0.0
C220 C 0.4386 0.20693 0.95334 0.0
C221 C 0.40681 0.22019 0.96082 0.0
C222 C 0.49088 0.18336 0.98559 0.0
C223 C 0.46059 0.14113 0.89255 0.0
C224 C 0.25899 0.14272 -0.00382 0.0
C225 C 0.45602 0.08262 0.00107 0.0
C226 C 0.48449 0.05383 0.01082 0.0
C227 C 0.52535 0.06196 0.97104 0.0
C228 C 0.51102 0.07621 0.96612 0.0
C229 C 0.42021 0.07458 0.04247 0.0
C230 C 0.43459 0.06035 0.04739 0.0
C231 C 0.42018 0.09693 0.98951 0.0
H232 H 0.36006 0.21503 0.08656 0.0
H233 H 0.41758 0.19186 0.07349 0.0
H234 H 0.46228 0.20487 0.9162 0.0
H235 H 0.4075 0.22801 0.92922 0.0
H236 H 0.56358 0.05726 0.94201 0.0
H237 H 0.53847 0.08208 0.93339 0.0
H238 H 0.37663 0.07918 0.06973 0.0
H239 H 0.40375 0.05439 0.07898 0.0
Dy240 Dy 0.5961 0.15928 0.49681 0.0
Dy241 Dy 0.57777 0.12498 0.50259 0.0
C242 C 0.55947 0.14322 0.39815 0.0
O243 O 0.43884 0.15482 0.5132 0.0
O244 O 0.42087 0.13252 0.49089 0.0
O245 O 0.63024 0.17815 0.45287 0.0
O246 O 0.57121 0.17874 0.52746 0.0
O247 O 0.54634 0.13218 0.57848 0.0
O248 O 0.64417 0.15132 0.57631 0.0
O249 O 0.73986 0.12902 0.51443 0.0
O250 O 0.7495 0.15193 0.48552 0.0
O251 O 0.60641 0.10516 0.54461 0.0
O252 O 0.5304 0.10644 0.46771 0.0
C253 C 0.38335 0.14423 0.50242 0.0
O254 O 0.52641 0.15309 0.4233 0.0
O255 O 0.6065 0.13258 0.42246 0.0
C256 C 0.66083 0.19851 0.49599 0.0
C257 C 0.74102 0.22492 0.50769 0.0
C258 C 0.72494 0.22009 0.45895 0.0
C259 C 0.68503 0.20706 0.45321 0.0
C260 C 0.67982 0.20311 0.54493 0.0
C261 C 0.71973 0.21617 0.55071 0.0
C262 C 0.60365 0.18586 0.4879 0.0
C263 C 0.59528 0.14176 0.60191 0.0
C264 C 0.79122 0.13992 0.50012 0.0
C265 C 0.55745 0.08342 0.51062 0.0
C266 C 0.54787 0.05432 0.51665 0.0
C267 C 0.5592 0.06139 0.56124 0.0
C268 C 0.56458 0.07575 0.55823 0.0
C269 C 0.54418 0.07646 0.46604 0.0
C270 C 0.53995 0.06208 0.46898 0.0
C271 C 0.56483 0.09858 0.50756 0.0
H272 H 0.74188 0.22646 0.42507 0.0
H273 H 0.66999 0.20385 0.415 0.0
H274 H 0.66079 0.19683 0.57866 0.0
H275 H 0.73024 0.21961 0.58878 0.0
H276 H 0.56354 0.05585 0.59867 0.0
H277 H 0.57391 0.08086 0.59325 0.0
H278 H 0.53891 0.08212 0.42879 0.0
H279 H 0.53271 0.05705 0.43376 0.0
Dy280 Dy 0.48563 0.86908 0.50879 0.0
Dy281 Dy 0.46252 0.90314 0.50599 0.0
C282 C 0.46448 0.8874 0.40494 0.0
O283 O 0.63679 0.87702 0.4931 0.0
O284 O 0.62656 0.89947 0.51462 0.0
O285 O 0.51651 0.85061 0.47206 0.0
O286 O 0.48405 0.84941 0.55189 0.0
O287 O 0.443 0.8939 0.58548 0.0
O288 O 0.54607 0.87552 0.58357 0.0
O289 O 0.30846 0.89531 0.49182 0.0
O290 O 0.32765 0.87281 0.52484 0.0
O291 O 0.47973 0.92132 0.54728 0.0
O292 O 0.41008 0.92286 0.46993 0.0
C293 C 0.67812 0.8888 0.50322 0.0
O294 O 0.42575 0.87698 0.43108 0.0
O295 O 0.50131 0.89794 0.42804 0.0
C296 C 0.44389 0.82979 0.50711 0.0
C297 C 0.35421 0.80379 0.49971 0.0
C298 C 0.37868 0.81177 0.45546 0.0
C299 C 0.42325 0.82465 0.45912 0.0
C300 C 0.41816 0.82186 0.55111 0.0
C301 C 0.37383 0.80906 0.54748 0.0
C302 C 0.5012 0.84256 0.51285 0.0
C303 C 0.50087 0.88425 0.60926 0.0
C304 C 0.27115 0.88349 0.50848 0.0
C305 C 0.469 0.94391 0.50403 0.0
C306 C 0.49119 0.97289 0.49612 0.0
C307 C 0.49599 0.96537 0.54414 0.0
C308 C 0.4851 0.95109 0.54799 0.0
C309 C 0.46809 0.95129 0.45588 0.0
C310 C 0.4796 0.96561 0.45198 0.0
C311 C 0.43733 0.92937 0.51003 0.0
H312 H 0.36398 0.80803 0.41808 0.0
H313 H 0.44327 0.83043 0.42451 0.0
H314 H 0.4349 0.82539 0.58872 0.0
H315 H 0.358 0.80309 0.58243 0.0
H316 H 0.50333 0.97055 0.57903 0.0
H317 H 0.48436 0.94573 0.58566 0.0
H318 H 0.45505 0.94609 0.42126 0.0
H319 H 0.47732 0.97101 0.41432 0.0
H320 H 0.44804 0.36819 0.01182 0.0
H321 H 0.41291 0.41209 0.01424 0.0
H322 H 0.59192 0.4151 0.0124 0.0
H323 H 0.75885 0.40537 0.00939 0.0
H324 H 0.79389 0.36153 0.00407 0.0
H325 H 0.61536 0.35847 0.00749 0.0
C326 C 0.47976 0.37839 0.01228 0.0
C327 C 0.41723 0.38987 0.0133 0.0
C328 C 0.58296 0.38011 0.01037 0.0
C329 C 0.45931 0.40306 0.01324 0.0
C330 C 0.56179 0.40481 0.01224 0.0
C331 C 0.72752 0.39515 0.00891 0.0
C332 C 0.79006 0.38373 0.00639 0.0
C333 C 0.62436 0.39342 0.01057 0.0
C334 C 0.7478 0.37055 0.00569 0.0
C335 C 0.64548 0.36875 0.00784 0.0
H336 H 0.30003 0.65806 0.00264 0.0
H337 H 0.27283 0.61389 0.00922 0.0
H338 H 0.45268 0.61155 0.00703 0.0
H339 H 0.61824 0.62206 0.00377 0.0
H340 H 0.64495 0.6662 4e-05 0.0
H341 H 0.46494 0.6685 0.00044 0.0
C342 C 0.33325 0.64791 0.00347 0.0
C343 C 0.27271 0.63617 0.00602 0.0
C344 C 0.43687 0.64663 0.00267 0.0
C345 C 0.31747 0.62311 0.00748 0.0
C346 C 0.42043 0.62176 0.00609 0.0
C347 C 0.58466 0.63219 0.00275 0.0
C348 C 0.64519 0.64395 0.0017 0.0
C349 C 0.48092 0.63345 0.0037 0.0
C350 C 0.60034 0.65698 0.001 0.0
C351 C 0.49728 0.65831 0.00117 0.0
H352 H 0.75573 0.6221 0.51833 0.0
H353 H 0.78712 0.66612 0.49371 0.0
H354 H 0.60829 0.66913 0.49583 0.0
H355 H 0.44187 0.65932 0.5046 0.0
H356 H 0.41045 0.61527 0.52632 0.0
H357 H 0.58965 0.61228 0.52561 0.0
C358 C 0.72352 0.63235 0.51337 0.0
C359 C 0.78506 0.64383 0.50582 0.0
C360 C 0.62025 0.63404 0.51428 0.0
C361 C 0.74173 0.65705 0.49929 0.0
C362 C 0.63928 0.65882 0.50068 0.0
C363 C 0.47443 0.64909 0.50949 0.0
C364 C 0.4129 0.63756 0.51564 0.0
C365 C 0.57773 0.6474 0.50824 0.0
C366 C 0.45607 0.62434 0.52131 0.0
C367 C 0.55866 0.6226 0.52097 0.0
H368 H 0.61212 0.40628 0.47821 0.0
H369 H 0.64728 0.36334 0.53036 0.0
H370 H 0.46818 0.36128 0.53599 0.0
H371 H 0.30079 0.37157 0.52619 0.0
H372 H 0.26483 0.41471 0.47815 0.0
H373 H 0.4442 0.41677 0.47085 0.0
C374 C 0.58057 0.39645 0.49052 0.0
C375 C 0.64357 0.38496 0.50346 0.0
C376 C 0.47704 0.39537 0.4946 0.0
C377 C 0.60108 0.37236 0.52004 0.0
C378 C 0.49838 0.37116 0.5233 0.0
C379 C 0.33218 0.38144 0.51419 0.0
C380 C 0.26926 0.39298 0.50276 0.0
C381 C 0.43561 0.38259 0.51074 0.0
C382 C 0.31148 0.40569 0.48764 0.0
C383 C 0.41412 0.40686 0.48321 0.0
H384 H 0.9456 0.90507 0.01012 0.0
H385 H 0.92 0.86097 0.01139 0.0
H386 H 0.10032 0.85881 0.01042 0.0
H387 H 0.26514 0.86941 0.01002 0.0
H388 H 0.29138 0.91346 0.0119 0.0
H389 H 0.11094 0.91565 0.01099 0.0
C390 C 0.97939 0.89499 0.00996 0.0
C391 C 0.91926 0.88319 0.01066 0.0
C392 C 0.08329 0.89381 0.01013 0.0
C393 C 0.96447 0.8702 0.01105 0.0
C394 C 0.06762 0.86896 0.01041 0.0
C395 C 0.23159 0.87951 0.01003 0.0
C396 C 0.2921 0.89126 0.01081 0.0
C397 C 0.12776 0.88069 0.01006 0.0
C398 C 0.24693 0.90424 0.01133 0.0
C399 C 0.14359 0.9055 0.01074 0.0
H400 H 0.12441 0.12202 0.00518 0.0
H401 H 0.14682 0.16625 0.98687 0.0
H402 H 0.96631 0.16835 0.9861 0.0
H403 H 0.80216 0.15768 0.98996 0.0
H404 H 0.7789 0.11344 0.00525 0.0
H405 H 0.95975 0.11132 0.0078 0.0
C406 C 0.08996 0.13213 0.00125 0.0
C407 C 0.14937 0.14397 -0.00371 0.0
C408 C 0.9859 0.13327 0.00016 0.0
C409 C 0.10311 0.15697 0.99067 0.0
C410 C 0.99979 0.15818 0.99028 0.0
C411 C 0.83651 0.14755 -0.00597 0.0
C412 C 0.77682 0.13573 -0.00243 0.0
C413 C 0.94047 0.14641 -0.0051 0.0
C414 C 0.82284 0.12271 0.00227 0.0
C415 C 0.92635 0.12149 0.00385 0.0
H416 H 0.24569 0.12386 0.50462 0.0
H417 H 0.27549 0.16797 0.50038 0.0
H418 H 0.09538 0.17056 0.49851 0.0
H419 H 0.92895 0.16035 0.4976 0.0
H420 H 0.89983 0.11619 0.50455 0.0
H421 H 0.07979 0.11363 0.5058 0.0
C422 C 0.21283 0.13404 0.50321 0.0
C423 C 0.27412 0.14569 0.50247 0.0
C424 C 0.10913 0.13548 0.50258 0.0
C425 C 0.23022 0.15881 0.50116 0.0
C426 C 0.12708 0.16032 0.49993 0.0
C427 C 0.9619 0.15016 0.49919 0.0
C428 C 0.90071 0.1385 0.50073 0.0
C429 C 0.06575 0.14873 0.5005 0.0
C430 C 0.94494 0.12537 0.5034 0.0
C431 C 0.04799 0.12387 0.50405 0.0
H432 H 0.8157 0.86815 0.50856 0.0
H433 H 0.78675 0.91238 0.49641 0.0
H434 H 0.96691 0.91462 0.49628 0.0
H435 H 0.13293 0.90407 0.50032 0.0
H436 H 0.16267 0.85986 0.51571 0.0
H437 H 0.98218 0.85759 0.51392 0.0
C438 C 0.84871 0.87829 0.50561 0.0
C439 C 0.78754 0.89008 0.50231 0.0
C440 C 0.95267 0.87951 0.50631 0.0
C441 C 0.83187 0.90312 0.49912 0.0
C442 C 0.93501 0.90442 0.49899 0.0
C443 C 0.10004 0.89393 0.50318 0.0
C444 C 0.16152 0.88215 0.50807 0.0
C445 C 0.99616 0.89269 0.5027 0.0
C446 C 0.11737 0.8691 0.51216 0.0
C447 C 1.01402 0.86779 0.51099 0.0
H448 H 0.87656 0.53416 0.01427 0.0
H449 H 0.1671 0.54263 0.96128 0.0
H450 H 0.19329 0.51806 0.95309 0.0
H451 H 0.13594 0.4941 0.96492 0.0
H452 H 0.84168 0.48603 0.01469 0.0
H453 H 0.81567 0.5105 0.02124 0.0
C454 C 0.94573 0.53062 0.00102 0.0
C455 C 1.0202 0.54016 0.98884 0.0
C456 C 0.9599 0.51654 -0.00376 0.0
C457 C 0.10862 0.53547 0.97077 0.0
C458 C 0.1237 0.52143 0.96631 0.0
C459 C 0.06535 0.49768 0.97632 0.0
C460 C 0.99124 0.48811 0.98968 0.0
C461 C 0.05006 0.51185 0.97931 0.0
C462 C 0.90096 0.49304 0.00514 0.0
C463 C 0.88563 0.50707 0.0086 0.0
H464 H 0.07306 0.4936 0.44675 0.0
H465 H 0.91525 0.48582 0.58314 0.0
H466 H 0.91933 0.51027 0.59653 0.0
H467 H 0.95904 0.53402 0.56683 0.0
H468 H 0.11567 0.54171 0.42994 0.0
H469 H 0.11634 0.5172 0.41829 0.0
C470 C 0.03898 0.49723 0.47929 0.0
C471 C 0.99349 0.48783 0.51369 0.0
C472 C 0.03947 0.51134 0.48614 0.0
C473 C 0.95188 0.49275 0.55631 0.0
C474 C 0.95318 0.50677 0.56372 0.0
C475 C 0.9941 0.53035 0.53465 0.0
C476 C 0.03633 0.53978 0.49907 0.0
C477 C 0.99559 0.51618 0.5285 0.0
C478 C 0.08047 0.53478 0.45733 0.0
C479 C 0.08192 0.52072 0.45089 0.0
H480 H 0.42348 0.98953 0.0179 0.0
H481 H 0.72866 0.99117 0.97854 0.0
H482 H 0.72702 0.01614 0.97922 0.0
H483 H 0.63988 0.03753 -0.00781 0.0
H484 H 0.33442 0.03592 0.03114 0.0
H485 H 0.33617 1.01095 0.03074 0.0
C486 C 0.48967 0.99535 0.00966 0.0
C487 C 0.57569 0.98849 -0.00222 0.0
C488 C 0.48861 1.00972 0.01056 0.0
C489 C 0.66073 0.99621 0.98681 0.0
C490 C 0.66021 1.01049 0.98761 0.0
C491 C 0.57359 0.03171 0.00037 0.0
C492 C 0.48751 0.03859 0.01205 0.0
C493 C 0.57462 0.01735 -0.00053 0.0
C494 C 0.40243 0.03088 0.02302 0.0
C495 C 0.40299 0.0166 0.02236 0.0
H496 H 0.43748 0.03751 0.45639 0.0
H497 H 0.65712 0.03638 0.58427 0.0
H498 H 0.65821 1.01135 0.58941 0.0
H499 H 0.60146 0.98973 0.55614 0.0
H500 H 0.38225 0.99079 0.42816 0.0
H501 H 0.38011 0.01584 0.42331 0.0
C502 C 0.48652 0.03183 0.48507 0.0
C503 C 0.54705 0.03895 0.51987 0.0
C504 C 0.48823 0.01737 0.48737 0.0
C505 C 0.60841 0.03128 0.55739 0.0
C506 C 0.60988 0.01692 0.56012 0.0
C507 C 0.55257 0.9954 0.52737 0.0
C508 C 0.49265 0.98826 0.49238 0.0
C509 C 0.55051 1.00985 0.52517 0.0
C510 C 0.43086 0.99591 0.455 0.0
C511 C 0.42877 1.01028 0.45247 0.0
H512 H 0.32958 0.28397 0.07318 0.0
H513 H 0.16807 0.28866 0.92518 0.0
H514 H 0.20034 0.26461 0.91288 0.0
H515 H 0.2713 0.24211 0.94469 0.0
H516 H 0.43236 0.23741 0.09278 0.0
H517 H 0.3991 0.26142 0.10533 0.0
C518 C 0.30063 0.27973 0.03837 0.0
C519 C 0.24677 0.2882 0.00013 0.0
C520 C 0.31792 0.26581 0.03184 0.0
C521 C 0.21136 0.28251 0.95493 0.0
C522 C 0.22887 0.26869 0.94804 0.0
C523 C 0.29976 0.24634 0.97961 0.0
C524 C 0.35426 0.2379 0.0177 0.0
C525 C 0.28185 0.26024 0.98628 0.0
C526 C 0.38888 0.24355 0.06308 0.0
C527 C 0.37078 0.25735 0.07012 0.0
H528 H 0.80017 0.78943 0.94937 0.0
H529 H 0.62634 0.78192 0.08015 0.0
H530 H 0.66137 0.75737 0.08251 0.0
H531 H 0.74259 0.73803 0.0486 0.0
H532 H 0.92223 0.7453 0.91988 0.0
H533 H 0.88097 0.76977 0.9146 0.0
C534 C 0.7695 0.78239 0.97813 0.0
C535 C 0.71164 0.78756 0.01488 0.0
C536 C 0.79023 0.7682 0.97944 0.0
C537 C 0.67273 0.77829 0.05202 0.0
C538 C 0.69216 0.76421 0.05322 0.0
C539 C 0.77352 0.74494 0.01955 0.0
C540 C 0.83578 0.73972 0.98483 0.0
C541 C 0.75142 0.75906 0.01743 0.0
C542 C 0.87302 0.7489 0.94677 0.0
C543 C 0.8502 0.76296 0.94398 0.0
H544 H 0.16187 0.7452 0.53144 0.0
H545 H 0.35971 0.73643 0.41639 0.0
H546 H 0.41059 0.76058 0.40876 0.0
H547 H 0.40706 0.78379 0.43964 0.0
H548 H 0.20647 0.79226 0.55415 0.0
H549 H 0.14962 0.76854 0.55772 0.0
C550 C 0.21643 0.74857 0.50481 0.0
C551 C 0.25825 0.73904 0.47512 0.0
C552 C 0.24531 0.76238 0.50083 0.0
C553 C 0.32675 0.7436 0.43976 0.0
C554 C 0.35605 0.75738 0.43556 0.0
C555 C 0.34957 0.78052 0.46465 0.0
C556 C 0.31199 0.78978 0.49702 0.0
C557 C 0.31683 0.76682 0.46647 0.0
C558 C 0.23811 0.7853 0.52955 0.0
C559 C 0.20521 0.77175 0.5315 0.0
H560 H 0.92585 0.28178 0.56312 0.0
H561 H 0.73268 0.29642 0.4322 0.0
H562 H 0.6797 0.2729 0.42032 0.0
H563 H 0.68425 0.24827 0.44874 0.0
H564 H 0.87692 0.2337 0.57996 0.0
H565 H 0.93169 0.25718 0.59095 0.0
C566 C 0.87128 0.27987 0.53229 0.0
C567 C 0.83299 0.29091 0.49879 0.0
C568 C 0.84046 0.26634 0.52595 0.0
C569 C 0.76411 0.28815 0.45833 0.0
C570 C 0.7333 0.2747 0.45168 0.0
C571 C 0.73922 0.25019 0.47937 0.0
C572 C 0.77642 0.23919 0.51345 0.0
C573 C 0.77075 0.26372 0.48536 0.0
C574 C 0.84616 0.24195 0.55351 0.0
C575 C 0.87793 0.25538 0.55967 0.0
H576 H 1.0052 0.36877 0.17748 0.0
H577 H 0.14373 0.40869 0.16724 0.0
H578 H 0.10553 0.41191 0.25456 0.0
H579 H 0.03411 0.40352 0.33338 0.0
H580 H 0.89889 0.36341 0.34609 0.0
H581 H 0.93358 0.36023 0.2577 0.0
C582 C 1.0274 0.37815 0.1944 0.0
C583 C 0.07758 0.38846 0.16578 0.0
C584 C 1.00517 0.37996 0.24482 0.0
C585 C 0.10567 0.40055 0.18836 0.0
C586 C 0.08343 0.40244 0.23826 0.0
C587 C 1.01144 0.39408 0.31697 0.0
C588 C 0.96363 0.38373 0.34647 0.0
C589 C 0.03313 0.39224 0.26673 0.0
C590 C 0.93549 0.37157 0.3243 0.0
C591 C 0.95568 0.36973 0.27382 0.0
H592 H 0.09175 0.65356 0.17049 0.0
H593 H 0.88052 0.62035 0.17379 0.0
H594 H 0.8989 0.61811 0.26699 0.0
H595 H 0.97407 0.62566 0.34769 0.0
H596 H 0.18418 0.65902 0.34407 0.0
H597 H 0.16722 0.66104 0.25097 0.0
C598 C 0.04962 0.64583 0.19152 0.0
C599 C 0.98481 0.63715 0.16505 0.0
C600 C 0.06046 0.64459 0.24516 0.0
C601 C 0.93096 0.62719 0.19307 0.0
C602 C 0.94144 0.62588 0.24644 0.0
C603 C 1.01651 0.63334 0.32659 0.0
C604 C 0.08029 0.64216 0.35301 0.0
C605 C 1.00598 0.63453 0.2729 0.0
C606 C 0.13429 0.65209 0.32489 0.0
C607 C 0.12469 0.65327 0.27154 0.0
H608 H 0.07108 0.6252 0.85049 0.0
H609 H 0.88496 0.66155 0.83304 0.0
H610 H 0.91131 0.66429 0.74191 0.0
H611 H 0.98732 0.6564 0.66732 0.0
H612 H 0.17468 0.62017 0.6852 0.0
H613 H 0.14818 0.61745 0.77622 0.0
C614 C 0.03566 0.63369 0.82678 0.0
C615 C 0.97569 0.64311 0.84864 0.0
C616 C 0.05191 0.63529 0.77454 0.0
C617 C 0.9314 0.65413 0.8173 0.0
C618 C 0.94654 0.65572 0.76516 0.0
C619 C 1.02275 0.64793 0.6911 0.0
C620 C 0.0829 0.6385 0.66934 0.0
C621 C 1.00689 0.64638 0.74342 0.0
C622 C 0.128 0.62758 0.70083 0.0
C623 C 0.11273 0.62599 0.75291 0.0
H624 H 0.08735 0.37374 0.67706 0.0
H625 H 0.93101 0.41268 0.65808 0.0
H626 H 0.95223 0.41471 0.74989 0.0
H627 H 1.01088 0.40517 0.83601 0.0
H628 H 0.16713 0.36622 0.85466 0.0
H629 H 0.1503 0.36455 0.76266 0.0
C630 C 0.05807 0.3827 0.69287 0.0
C631 C 1.00718 0.39299 0.66052 0.0
C632 C 0.0703 0.38382 0.7458 0.0
C633 C 0.97025 0.40455 0.68191 0.0
C634 C 0.98227 0.40574 0.73452 0.0
C635 C 0.04154 0.39633 0.82001 0.0
C636 C 0.0898 0.38582 0.85245 0.0
C637 C 0.03148 0.39539 0.76689 0.0
C638 C 0.12941 0.37447 0.83081 0.0
C639 C 0.11977 0.37348 0.77809 0.0
H640 H 0.48703 0.87161 0.17819 0.0
H641 H 0.69417 0.90529 0.17491 0.0
H642 H 0.66329 0.90927 0.2627 0.0
H643 H 0.57928 0.90299 0.3413 0.0
H644 H 0.3739 0.86908 0.34441 0.0
H645 H 0.40171 0.86554 0.25603 0.0
C646 C 0.5258 0.87978 0.19671 0.0
C647 C 0.59323 0.88806 0.16993 0.0
C648 C 0.50752 0.88207 0.24726 0.0
C649 C 0.64239 0.89866 0.1946 0.0
C650 C 0.62445 0.90101 0.24483 0.0
C651 C 0.53971 0.89493 0.32246 0.0
C652 C 0.47449 0.88635 0.34961 0.0
C653 C 0.55712 0.89278 0.27159 0.0
C654 C 0.4246 0.87587 0.3246 0.0
C655 C 0.44065 0.87378 0.27399 0.0
H656 H 0.4373 0.15583 0.16314 0.0
H657 H 0.589 0.11711 0.15624 0.0
H658 H 0.62469 0.11541 0.24859 0.0
H659 H 0.61311 0.1249 0.33169 0.0
H660 H 0.46053 0.1636 0.33806 0.0
H661 H 0.42525 0.16525 0.24589 0.0
C662 C 0.47812 0.14701 0.18177 0.0
C663 C 0.51014 0.13662 0.15264 0.0
C664 C 0.49846 0.14607 0.235 0.0
C665 C 0.5629 0.12525 0.1776 0.0
C666 C 0.58364 0.12427 0.23051 0.0
C667 C 0.57225 0.1337 0.31292 0.0
C668 C 0.53976 0.14409 0.34192 0.0
C669 C 0.5518 0.13461 0.25964 0.0
C670 C 0.48675 0.15542 0.31685 0.0
C671 C 0.46633 0.1564 0.26401 0.0
H672 H 0.58675 0.15536 0.83185 0.0
H673 H 0.36323 0.12372 0.83032 0.0
H674 H 0.38901 0.12066 0.74122 0.0
H675 H 0.47372 0.12704 0.66356 0.0
H676 H 0.69601 0.15883 0.66454 0.0
H677 H 0.67256 0.16162 0.75419 0.0
C678 C 0.54327 0.14784 0.81199 0.0
C679 C 0.47287 0.13984 0.83775 0.0
C680 C 0.5587 0.14607 0.76073 0.0
C681 C 0.41762 0.13008 0.81143 0.0
C682 C 0.43253 0.12828 0.76047 0.0
C683 C 0.51767 0.13451 0.68341 0.0
C684 C 0.5865 0.14271 0.65725 0.0
C685 C 0.50295 0.1362 0.73478 0.0
C686 C 0.6424 0.15238 0.68364 0.0
C687 C 0.62887 0.15402 0.73492 0.0
H688 H 0.47583 0.90407 0.67451 0.0
H689 H 0.56029 0.86153 0.67056 0.0
H690 H 0.59122 0.85934 0.76329 0.0
H691 H 0.59709 0.86955 0.84559 0.0
H692 H 0.51637 0.91227 0.8495 0.0
H693 H 0.48213 0.91432 0.75708 0.0
C694 C 0.50045 0.89431 0.69404 0.0
C695 C 0.51582 0.883 0.66567 0.0
C696 C 0.51959 0.89316 0.74745 0.0
C697 C 0.54855 0.87044 0.69146 0.0
C698 C 0.56621 0.86916 0.74453 0.0
C699 C 0.57223 0.87932 0.82629 0.0
C700 C 0.55945 0.89072 0.85472 0.0
C701 C 0.55271 0.88047 0.77293 0.0
C702 C 0.52681 0.90329 0.82883 0.0
C703 C 0.50705 0.90449 0.77584 0.0
loop_
_geom_bond_atom_site_label_1
_geom_bond_atom_site_label_2
_geom_bond_distance
_geom_bond_site_symmetry_2
_ccdc_geom_bond_type
Dy0 O3 2.307 . S
Dy0 O5 2.395 . S
Dy0 O6 2.379 1_554 S
Dy0 O8 2.339 1_554 S
Dy0 O10 2.298 1_454 S
Dy0 O14 2.275 . S
Dy0 C22 2.738 1_455 S
Dy1 O4 2.298 . S
Dy1 O7 2.275 1_554 S
Dy1 O9 2.307 1_455 S
Dy1 O11 2.395 1_554 S
Dy1 O12 2.379 . S
Dy1 O15 2.339 . S
Dy1 C31 2.738 . S
C2 O14 1.254 . S
C2 O15 1.257 . S
O3 Dy0 2.307 . S
O3 C13 1.266 . S
O4 Dy1 2.298 . S
O4 C13 1.236 . S
O5 Dy0 2.395 . S
O5 C22 1.255 1_455 S
O6 Dy0 2.379 1_556 S
O6 C22 1.249 1_456 S
O7 Dy1 2.275 1_556 S
O7 C23 1.254 . S
O8 Dy0 2.339 1_556 S
O8 C23 1.257 . S
O9 Dy1 2.307 1_655 S
O9 C24 1.266 . S
O10 Dy0 2.298 1_656 S
O10 C24 1.236 1_556 S
O11 Dy1 2.395 1_556 S
O11 C31 1.255 1_556 S
O12 Dy1 2.379 . S
O12 C31 1.249 . S
C13 O3 1.266 . S
C13 O4 1.236 . S
O14 Dy0 2.275 . S
O14 C2 1.254 . S
O15 Dy1 2.339 . S
O15 C2 1.257 . S
C16 C19 1.344 . S
C16 C20 1.328 1_554 S
C16 C22 1.516 . S
C17 C18 1.304 . S
C17 C21 1.323 1_554 S
C18 C17 1.304 . S
C18 C19 1.371 . S
C18 H32 0.930 . S
C19 C16 1.344 . S
C19 C18 1.371 . S
C19 H33 0.931 . S
C20 C16 1.328 1_556 S
C20 C21 1.433 . S
C20 H34 0.931 . S
C21 C17 1.323 1_556 S
C21 C20 1.433 . S
C21 H35 0.933 . S
C22 Dy0 2.738 1_655 S
C22 O5 1.255 1_655 S
C22 O6 1.249 1_654 S
C22 C16 1.516 . S
C23 O7 1.254 . S
C23 O8 1.257 . S
C24 O9 1.266 . S
C24 O10 1.236 1_554 S
C25 C28 1.344 1_554 S
C25 C29 1.328 . S
C25 C31 1.516 . S
C26 C27 1.304 1_554 S
C26 C30 1.323 . S
C27 C26 1.304 1_556 S
C27 C28 1.371 . S
C27 H36 0.930 . S
C28 C25 1.344 1_556 S
C28 C27 1.371 . S
C28 H37 0.931 . S
C29 C25 1.328 . S
C29 C30 1.433 . S
C29 H38 0.931 . S
C30 C26 1.323 . S
C30 C29 1.433 . S
C30 H39 0.933 . S
C31 Dy1 2.738 . S
C31 O11 1.255 1_554 S
C31 O12 1.249 . S
C31 C25 1.516 . S
H32 C18 0.930 . S
H33 C19 0.931 . S
H34 C20 0.931 . S
H35 C21 0.933 . S
H36 C27 0.930 . S
H37 C28 0.931 . S
H38 C29 0.931 . S
H39 C30 0.933 . S
Dy40 O43 2.309 1_656 S
Dy40 O45 2.395 1_556 S
Dy40 O46 2.379 . S
Dy40 O48 2.338 . S
Dy40 O50 2.298 . S
Dy40 O54 2.276 1_556 S
Dy40 C62 2.738 1_556 S
Dy41 O44 2.298 1_655 S
Dy41 O47 2.275 1_554 S
Dy41 O49 2.307 . S
Dy41 O51 2.395 1_554 S
Dy41 O52 2.379 . S
Dy41 O55 2.339 . S
Dy41 C71 2.738 1_655 S
C42 O54 1.254 . S
C42 O55 1.257 . S
O43 Dy40 2.309 1_454 S
O43 C53 1.269 . S
O44 Dy41 2.298 1_455 S
O44 C53 1.236 . S
O45 Dy40 2.395 1_554 S
O45 C62 1.255 . S
O46 Dy40 2.379 . S
O46 C62 1.249 1_556 S
O47 Dy41 2.275 1_556 S
O47 C63 1.254 . S
O48 Dy40 2.338 . S
O48 C63 1.257 . S
O49 Dy41 2.307 . S
O49 C64 1.266 . S
O50 Dy40 2.298 . S
O50 C64 1.236 1_556 S
O51 Dy41 2.395 1_556 S
O51 C71 1.255 1_656 S
O52 Dy41 2.379 . S
O52 C71 1.249 1_655 S
C53 O43 1.269 . S
C53 O44 1.236 . S
O54 Dy40 2.276 1_554 S
O54 C42 1.254 . S
O55 Dy41 2.339 . S
O55 C42 1.257 . S
C56 C59 1.344 . S
C56 C60 1.328 1_554 S
C56 C62 1.516 . S
C57 C58 1.304 . S
C57 C61 1.323 1_554 S
C58 C57 1.304 . S
C58 C59 1.371 . S
C58 H72 0.930 . S
C59 C56 1.344 . S
C59 C58 1.371 . S
C59 H73 0.931 . S
C60 C56 1.328 1_556 S
C60 C61 1.433 . S
C60 H74 0.931 . S
C61 C57 1.323 1_556 S
C61 C60 1.433 . S
C61 H75 0.933 . S
C62 Dy40 2.738 1_554 S
C62 O45 1.255 . S
C62 O46 1.249 1_554 S
C62 C56 1.516 . S
C63 O47 1.254 . S
C63 O48 1.257 . S
C64 O49 1.266 . S
C64 O50 1.236 1_554 S
C65 C68 1.344 1_554 S
C65 C69 1.328 . S
C65 C71 1.516 . S
C66 C67 1.296 1_554 S
C66 C70 1.335 . S
C67 C66 1.296 1_556 S
C67 C68 1.371 . S
C67 H76 0.930 . S
C68 C65 1.344 1_556 S
C68 C67 1.371 . S
C68 H77 0.931 . S
C69 C65 1.328 . S
C69 C70 1.433 . S
C69 H78 0.931 . S
C70 C66 1.335 . S
C70 C69 1.433 . S
C70 H79 0.933 . S
C71 Dy41 2.738 1_455 S
C71 O51 1.255 1_454 S
C71 O52 1.249 1_455 S
C71 C65 1.516 . S
H72 C58 0.930 . S
H73 C59 0.931 . S
H74 C60 0.931 . S
H75 C61 0.933 . S
H76 C67 0.930 . S
H77 C68 0.931 . S
H78 C69 0.931 . S
H79 C70 0.933 . S
Dy80 O83 2.307 1_455 S
Dy80 O85 2.395 . S
Dy80 O86 2.379 . S
Dy80 O88 2.339 . S
Dy80 O90 2.298 . S
Dy80 O94 2.275 . S
Dy80 C102 2.738 . S
Dy81 O84 2.298 1_455 S
Dy81 O87 2.275 . S
Dy81 O89 2.307 . S
Dy81 O91 2.395 . S
Dy81 O92 2.379 . S
Dy81 O95 2.339 . S
Dy81 C111 2.738 1_455 S
C82 O94 1.254 . S
C82 O95 1.257 . S
O83 Dy80 2.307 1_655 S
O83 C93 1.266 . S
O84 Dy81 2.298 1_655 S
O84 C93 1.236 . S
O85 Dy80 2.395 . S
O85 C102 1.255 . S
O86 Dy80 2.379 . S
O86 C102 1.249 . S
O87 Dy81 2.275 . S
O87 C103 1.254 . S
O88 Dy80 2.339 . S
O88 C103 1.257 . S
O89 Dy81 2.307 . S
O89 C104 1.266 . S
O90 Dy80 2.298 . S
O90 C104 1.236 . S
O91 Dy81 2.395 . S
O91 C111 1.255 1_455 S
O92 Dy81 2.379 . S
O92 C111 1.249 1_455 S
C93 O83 1.266 . S
C93 O84 1.236 . S
O94 Dy80 2.275 . S
O94 C82 1.254 . S
O95 Dy81 2.339 . S
O95 C82 1.257 . S
C96 C99 1.344 . S
C96 C100 1.328 . S
C96 C102 1.516 . S
C97 C98 1.304 . S
C97 C101 1.323 . S
C98 C97 1.304 . S
C98 C99 1.371 . S
C98 H112 0.930 . S
C99 C96 1.344 . S
C99 C98 1.371 . S
C99 H113 0.931 . S
C100 C96 1.328 . S
C100 C101 1.433 . S
C100 H114 0.931 . S
C101 C97 1.323 . S
C101 C100 1.433 . S
C101 H115 0.933 . S
C102 Dy80 2.738 . S
C102 O85 1.255 . S
C102 O86 1.249 . S
C102 C96 1.516 . S
C103 O87 1.254 . S
C103 O88 1.257 . S
C104 O89 1.266 . S
C104 O90 1.236 . S
C105 C108 1.344 . S
C105 C109 1.328 . S
C105 C111 1.516 . S
C106 C107 1.304 . S
C106 C110 1.323 . S
C107 C106 1.304 . S
C107 C108 1.371 . S
C107 H116 0.930 . S
C108 C105 1.344 . S
C108 C107 1.371 . S
C108 H117 0.931 . S
C109 C105 1.328 . S
C109 C110 1.433 . S
C109 H118 0.931 . S
C110 C106 1.323 . S
C110 C109 1.433 . S
C110 H119 0.933 . S
C111 Dy81 2.738 1_655 S
C111 O91 1.255 1_655 S
C111 O92 1.249 1_655 S
C111 C105 1.516 . S
H112 C98 0.930 . S
H113 C99 0.931 . S
H114 C100 0.931 . S
H115 C101 0.933 . S
H116 C107 0.930 . S
H117 C108 0.931 . S
H118 C109 0.931 . S
H119 C110 0.933 . S
Dy120 O123 2.307 1_655 S
Dy120 O125 2.395 . S
Dy120 O126 2.379 . S
Dy120 O128 2.339 . S
Dy120 O130 2.298 . S
Dy120 O134 2.275 . S
Dy120 C142 2.738 . S
Dy121 O124 2.298 1_655 S
Dy121 O127 2.275 . S
Dy121 O129 2.307 . S
Dy121 O131 2.395 . S
Dy121 O132 2.379 . S
Dy121 O135 2.339 . S
Dy121 C151 2.738 1_655 S
C122 O134 1.254 . S
C122 O135 1.257 . S
O123 Dy120 2.307 1_455 S
O123 C133 1.266 . S
O124 Dy121 2.298 1_455 S
O124 C133 1.236 . S
O125 Dy120 2.395 . S
O125 C142 1.255 . S
O126 Dy120 2.379 . S
O126 C142 1.249 . S
O127 Dy121 2.275 . S
O127 C143 1.254 . S
O128 Dy120 2.339 . S
O128 C143 1.257 . S
O129 Dy121 2.307 . S
O129 C144 1.266 . S
O130 Dy120 2.298 . S
O130 C144 1.236 . S
O131 Dy121 2.395 . S
O131 C151 1.255 1_655 S
O132 Dy121 2.379 . S
O132 C151 1.249 1_655 S
C133 O123 1.266 . S
C133 O124 1.236 . S
O134 Dy120 2.275 . S
O134 C122 1.254 . S
O135 Dy121 2.339 . S
O135 C122 1.257 . S
C136 C139 1.344 . S
C136 C140 1.328 . S
C136 C142 1.516 . S
C137 C138 1.304 . S
C137 C141 1.323 . S
C138 C137 1.304 . S
C138 C139 1.371 . S
C138 H152 0.930 . S
C139 C136 1.344 . S
C139 C138 1.371 . S
C139 H153 0.931 . S
C140 C136 1.328 . S
C140 C141 1.433 . S
C140 H154 0.931 . S
C141 C137 1.323 . S
C141 C140 1.433 . S
C141 H155 0.933 . S
C142 Dy120 2.738 . S
C142 O125 1.255 . S
C142 O126 1.249 . S
C142 C136 1.516 . S
C143 O127 1.254 . S
C143 O128 1.257 . S
C144 O129 1.266 . S
C144 O130 1.236 . S
C145 C148 1.344 . S
C145 C149 1.328 . S
C145 C151 1.516 . S
C146 C147 1.304 . S
C146 C150 1.323 . S
C147 C146 1.304 . S
C147 C148 1.371 . S
C147 H156 0.930 . S
C148 C145 1.344 . S
C148 C147 1.371 . S
C148 H157 0.931 . S
C149 C145 1.328 . S
C149 C150 1.433 . S
C149 H158 0.931 . S
C150 C146 1.323 . S
C150 C149 1.433 . S
C150 H159 0.933 . S
C151 Dy121 2.738 1_455 S
C151 O131 1.255 1_455 S
C151 O132 1.249 1_455 S
C151 C145 1.516 . S
H152 C138 0.930 . S
H153 C139 0.931 . S
H154 C140 0.931 . S
H155 C141 0.933 . S
H156 C147 0.930 . S
H157 C148 0.931 . S
H158 C149 0.931 . S
H159 C150 0.933 . S
Dy160 O163 2.307 . S
Dy160 O165 2.395 . S
Dy160 O166 2.379 1_554 S
Dy160 O168 2.339 1_554 S
Dy160 O170 2.298 1_554 S
Dy160 O174 2.275 . S
Dy160 C182 2.738 . S
Dy161 O164 2.298 . S
Dy161 O167 2.275 1_554 S
Dy161 O169 2.307 . S
Dy161 O171 2.395 1_554 S
Dy161 O172 2.379 . S
Dy161 O175 2.339 . S
Dy161 C191 2.738 . S
C162 O174 1.254 . S
C162 O175 1.257 . S
O163 Dy160 2.307 . S
O163 C173 1.266 . S
O164 Dy161 2.298 . S
O164 C173 1.236 . S
O165 Dy160 2.395 . S
O165 C182 1.255 . S
O166 Dy160 2.379 1_556 S
O166 C182 1.249 1_556 S
O167 Dy161 2.275 1_556 S
O167 C183 1.254 . S
O168 Dy160 2.339 1_556 S
O168 C183 1.257 . S
O169 Dy161 2.307 . S
O169 C184 1.266 . S
O170 Dy160 2.298 1_556 S
O170 C184 1.236 1_556 S
O171 Dy161 2.395 1_556 S
O171 C191 1.255 1_556 S
O172 Dy161 2.379 . S
O172 C191 1.249 . S
C173 O163 1.266 . S
C173 O164 1.236 . S
O174 Dy160 2.275 . S
O174 C162 1.254 . S
O175 Dy161 2.339 . S
O175 C162 1.257 . S
C176 C179 1.344 . S
C176 C180 1.328 1_554 S
C176 C182 1.516 . S
C177 C178 1.304 . S
C177 C181 1.323 1_554 S
C178 C177 1.304 . S
C178 C179 1.371 . S
C178 H192 0.930 . S
C179 C176 1.344 . S
C179 C178 1.371 . S
C179 H193 0.931 . S
C180 C176 1.328 1_556 S
C180 C181 1.433 . S
C180 H194 0.931 . S
C181 C177 1.323 1_556 S
C181 C180 1.433 . S
C181 H195 0.933 . S
C182 Dy160 2.738 . S
C182 O165 1.255 . S
C182 O166 1.249 1_554 S
C182 C176 1.516 . S
C183 O167 1.254 . S
C183 O168 1.257 . S
C184 O169 1.266 . S
C184 O170 1.236 1_554 S
C185 C188 1.344 1_554 S
C185 C189 1.328 . S
C185 C191 1.516 . S
C186 C187 1.304 1_554 S
C186 C190 1.323 . S
C187 C186 1.304 1_556 S
C187 C188 1.371 . S
C187 H196 0.930 . S
C188 C185 1.344 1_556 S
C188 C187 1.371 . S
C188 H197 0.931 . S
C189 C185 1.328 . S
C189 C190 1.433 . S
C189 H198 0.931 . S
C190 C186 1.323 . S
C190 C189 1.433 . S
C190 H199 0.933 . S
C191 Dy161 2.738 . S
C191 O171 1.255 1_554 S
C191 O172 1.249 . S
C191 C185 1.516 . S
H192 C178 0.930 . S
H193 C179 0.931 . S
H194 C180 0.931 . S
H195 C181 0.933 . S
H196 C187 0.930 . S
H197 C188 0.931 . S
H198 C189 0.931 . S
H199 C190 0.933 . S
Dy200 O203 2.309 1_556 S
Dy200 O205 2.395 1_556 S
Dy200 O206 2.379 . S
Dy200 O208 2.338 . S
Dy200 O210 2.298 . S
Dy200 O214 2.276 1_556 S
Dy200 C222 2.738 1_556 S
Dy201 O204 2.298 . S
Dy201 O207 2.275 1_554 S
Dy201 O209 2.307 . S
Dy201 O211 2.395 1_554 S
Dy201 O212 2.379 . S
Dy201 O215 2.339 . S
Dy201 C231 2.738 . S
C202 O214 1.254 . S
C202 O215 1.257 . S
O203 Dy200 2.309 1_554 S
O203 C213 1.269 . S
O204 Dy201 2.298 . S
O204 C213 1.236 . S
O205 Dy200 2.395 1_554 S
O205 C222 1.255 . S
O206 Dy200 2.379 . S
O206 C222 1.249 1_556 S
O207 Dy201 2.275 1_556 S
O207 C223 1.254 . S
O208 Dy200 2.338 . S
O208 C223 1.257 . S
O209 Dy201 2.307 . S
O209 C224 1.266 . S
O210 Dy200 2.298 . S
O210 C224 1.236 1_556 S
O211 Dy201 2.395 1_556 S
O211 C231 1.255 1_556 S
O212 Dy201 2.379 . S
O212 C231 1.249 . S
C213 O203 1.269 . S
C213 O204 1.236 . S
O214 Dy200 2.276 1_554 S
O214 C202 1.254 . S
O215 Dy201 2.339 . S
O215 C202 1.257 . S
C216 C219 1.344 . S
C216 C220 1.328 1_554 S
C216 C222 1.516 . S
C217 C218 1.304 . S
C217 C221 1.323 1_554 S
C218 C217 1.304 . S
C218 C219 1.371 . S
C218 H232 0.930 . S
C219 C216 1.344 . S
C219 C218 1.371 . S
C219 H233 0.931 . S
C220 C216 1.328 1_556 S
C220 C221 1.433 . S
C220 H234 0.931 . S
C221 C217 1.323 1_556 S
C221 C220 1.433 . S
C221 H235 0.933 . S
C222 Dy200 2.738 1_554 S
C222 O205 1.255 . S
C222 O206 1.249 1_554 S
C222 C216 1.516 . S
C223 O207 1.254 . S
C223 O208 1.257 . S
C224 O209 1.266 . S
C224 O210 1.236 1_554 S
C225 C228 1.344 1_554 S
C225 C229 1.328 . S
C225 C231 1.516 . S
C226 C227 1.296 1_554 S
C226 C230 1.335 . S
C227 C226 1.296 1_556 S
C227 C228 1.371 . S
C227 H236 0.930 . S
C228 C225 1.344 1_556 S
C228 C227 1.371 . S
C228 H237 0.931 . S
C229 C225 1.328 . S
C229 C230 1.433 . S
C229 H238 0.931 . S
C230 C226 1.335 . S
C230 C229 1.433 . S
C230 H239 0.933 . S
C231 Dy201 2.738 . S
C231 O211 1.255 1_554 S
C231 O212 1.249 . S
C231 C225 1.516 . S
H232 C218 0.930 . S
H233 C219 0.931 . S
H234 C220 0.931 . S
H235 C221 0.933 . S
H236 C227 0.930 . S
H237 C228 0.931 . S
H238 C229 0.931 . S
H239 C230 0.933 . S
Dy240 O243 2.307 . S
Dy240 O245 2.395 . S
Dy240 O246 2.379 . S
Dy240 O248 2.339 . S
Dy240 O250 2.298 . S
Dy240 O254 2.275 . S
Dy240 C262 2.738 . S
Dy241 O244 2.298 . S
Dy241 O247 2.275 . S
Dy241 O249 2.307 . S
Dy241 O251 2.395 . S
Dy241 O252 2.379 . S
Dy241 O255 2.339 . S
Dy241 C271 2.738 . S
C242 O254 1.254 . S
C242 O255 1.257 . S
O243 Dy240 2.307 . S
O243 C253 1.266 . S
O244 Dy241 2.298 . S
O244 C253 1.236 . S
O245 Dy240 2.395 . S
O245 C262 1.255 . S
O246 Dy240 2.379 . S
O246 C262 1.249 . S
O247 Dy241 2.275 . S
O247 C263 1.254 . S
O248 Dy240 2.339 . S
O248 C263 1.257 . S
O249 Dy241 2.307 . S
O249 C264 1.266 . S
O250 Dy240 2.298 . S
O250 C264 1.236 . S
O251 Dy241 2.395 . S
O251 C271 1.255 . S
O252 Dy241 2.379 . S
O252 C271 1.249 . S
C253 O243 1.266 . S
C253 O244 1.236 . S
O254 Dy240 2.275 . S
O254 C242 1.254 . S
O255 Dy241 2.339 . S
O255 C242 1.257 . S
C256 C259 1.344 . S
C256 C260 1.328 . S
C256 C262 1.516 . S
C257 C258 1.304 . S
C257 C261 1.323 . S
C258 C257 1.304 . S
C258 C259 1.371 . S
C258 H272 0.930 . S
C259 C256 1.344 . S
C259 C258 1.371 . S
C259 H273 0.931 . S
C260 C256 1.328 . S
C260 C261 1.433 . S
C260 H274 0.931 . S
C261 C257 1.323 . S
C261 C260 1.433 . S
C261 H275 0.933 . S
C262 Dy240 2.738 . S
C262 O245 1.255 . S
C262 O246 1.249 . S
C262 C256 1.516 . S
C263 O247 1.254 . S
C263 O248 1.257 . S
C264 O249 1.266 . S
C264 O250 1.236 . S
C265 C268 1.344 . S
C265 C269 1.328 . S
C265 C271 1.516 . S
C266 C267 1.304 . S
C266 C270 1.323 . S
C267 C266 1.304 . S
C267 C268 1.371 . S
C267 H276 0.930 . S
C268 C265 1.344 . S
C268 C267 1.371 . S
C268 H277 0.931 . S
C269 C265 1.328 . S
C269 C270 1.433 . S
C269 H278 0.931 . S
C270 C266 1.323 . S
C270 C269 1.433 . S
C270 H279 0.933 . S
C271 Dy241 2.738 . S
C271 O251 1.255 . S
C271 O252 1.249 . S
C271 C265 1.516 . S
H272 C258 0.930 . S
H273 C259 0.931 . S
H274 C260 0.931 . S
H275 C261 0.933 . S
H276 C267 0.930 . S
H277 C268 0.931 . S
H278 C269 0.931 . S
H279 C270 0.933 . S
Dy280 O283 2.307 . S
Dy280 O285 2.395 . S
Dy280 O286 2.379 . S
Dy280 O288 2.339 . S
Dy280 O290 2.298 . S
Dy280 O294 2.275 . S
Dy280 C302 2.738 . S
Dy281 O284 2.298 . S
Dy281 O287 2.275 . S
Dy281 O289 2.307 . S
Dy281 O291 2.395 . S
Dy281 O292 2.379 . S
Dy281 O295 2.339 . S
Dy281 C311 2.738 . S
C282 O294 1.254 . S
C282 O295 1.257 . S
O283 Dy280 2.307 . S
O283 C293 1.266 . S
O284 Dy281 2.298 . S
O284 C293 1.236 . S
O285 Dy280 2.395 . S
O285 C302 1.255 . S
O286 Dy280 2.379 . S
O286 C302 1.249 . S
O287 Dy281 2.275 . S
O287 C303 1.254 . S
O288 Dy280 2.339 . S
O288 C303 1.257 . S
O289 Dy281 2.307 . S
O289 C304 1.266 . S
O290 Dy280 2.298 . S
O290 C304 1.236 . S
O291 Dy281 2.395 . S
O291 C311 1.255 . S
O292 Dy281 2.379 . S
O292 C311 1.249 . S
C293 O283 1.266 . S
C293 O284 1.236 . S
O294 Dy280 2.275 . S
O294 C282 1.254 . S
O295 Dy281 2.339 . S
O295 C282 1.257 . S
C296 C299 1.344 . S
C296 C300 1.328 . S
C296 C302 1.516 . S
C297 C298 1.304 . S
C297 C301 1.323 . S
C298 C297 1.304 . S
C298 C299 1.371 . S
C298 H312 0.930 . S
C299 C296 1.344 . S
C299 C298 1.371 . S
C299 H313 0.931 . S
C300 C296 1.328 . S
C300 C301 1.433 . S
C300 H314 0.931 . S
C301 C297 1.323 . S
C301 C300 1.433 . S
C301 H315 0.933 . S
C302 Dy280 2.738 . S
C302 O285 1.255 . S
C302 O286 1.249 . S
C302 C296 1.516 . S
C303 O287 1.254 . S
C303 O288 1.257 . S
C304 O289 1.266 . S
C304 O290 1.236 . S
C305 C308 1.344 . S
C305 C309 1.328 . S
C305 C311 1.516 . S
C306 C307 1.304 . S
C306 C310 1.323 . S
C307 C306 1.304 . S
C307 C308 1.371 . S
C307 H316 0.930 . S
C308 C305 1.344 . S
C308 C307 1.371 . S
C308 H317 0.931 . S
C309 C305 1.328 . S
C309 C310 1.433 . S
C309 H318 0.931 . S
C310 C306 1.323 . S
C310 C309 1.433 . S
C310 H319 0.933 . S
C311 Dy281 2.738 . S
C311 O291 1.255 . S
C311 O292 1.249 . S
C311 C305 1.516 . S
H312 C298 0.930 . S
H313 C299 0.931 . S
H314 C300 0.931 . S
H315 C301 0.933 . S
H316 C307 0.930 . S
H317 C308 0.931 . S
H318 C309 0.931 . S
H319 C310 0.933 . S
H320 C326 0.930 1_556 S
H321 C329 0.930 . S
H322 C330 0.930 . S
H323 C331 0.930 . S
H324 C334 0.930 . S
H325 C335 0.930 . S
C326 H320 0.930 1_554 S
C326 C327 1.355 . S
C326 C328 1.415 . S
C327 C326 1.355 . S
C327 C329 1.419 . S
C328 C326 1.415 . S
C328 C333 1.425 . S
C328 C335 1.409 1_554 S
C329 H321 0.930 . S
C329 C327 1.419 . S
C329 C330 1.362 . S
C330 H322 0.930 . S
C330 C329 1.362 . S
C330 C333 1.409 . S
C331 H323 0.930 . S
C331 C332 1.355 . S
C331 C333 1.415 . S
C332 C331 1.355 . S
C332 C334 1.419 1_554 S
C333 C328 1.425 . S
C333 C330 1.409 . S
C333 C331 1.415 . S
C334 H324 0.930 . S
C334 C332 1.419 1_556 S
C334 C335 1.362 . S
C335 H325 0.930 . S
C335 C328 1.409 1_556 S
C335 C334 1.362 . S
H336 C342 0.930 . S
H337 C345 0.930 . S
H338 C346 0.930 . S
H339 C347 0.930 . S
H340 C350 0.930 . S
H341 C351 0.930 . S
C342 H336 0.930 . S
C342 C343 1.355 . S
C342 C344 1.415 . S
C343 C342 1.355 . S
C343 C345 1.419 . S
C344 C342 1.415 . S
C344 C349 1.425 . S
C344 C351 1.409 . S
C345 H337 0.930 . S
C345 C343 1.419 . S
C345 C346 1.362 . S
C346 H338 0.930 . S
C346 C345 1.362 . S
C346 C349 1.409 . S
C347 H339 0.930 . S
C347 C348 1.355 . S
C347 C349 1.415 . S
C348 C347 1.355 . S
C348 C350 1.419 . S
C349 C344 1.425 . S
C349 C346 1.409 . S
C349 C347 1.415 . S
C350 H340 0.930 . S
C350 C348 1.419 . S
C350 C351 1.362 . S
C351 H341 0.930 . S
C351 C344 1.409 . S
C351 C350 1.362 . S
H352 C358 0.930 . S
H353 C361 0.930 . S
H354 C362 0.930 . S
H355 C363 0.930 . S
H356 C366 0.930 . S
H357 C367 0.930 . S
C358 H352 0.930 . S
C358 C359 1.355 . S
C358 C360 1.415 . S
C359 C358 1.355 . S
C359 C361 1.419 . S
C360 C358 1.415 . S
C360 C365 1.425 . S
C360 C367 1.409 . S
C361 H353 0.930 . S
C361 C359 1.419 . S
C361 C362 1.362 . S
C362 H354 0.930 . S
C362 C361 1.362 . S
C362 C365 1.409 . S
C363 H355 0.930 . S
C363 C364 1.355 . S
C363 C365 1.415 . S
C364 C363 1.355 . S
C364 C366 1.419 . S
C365 C360 1.425 . S
C365 C362 1.409 . S
C365 C363 1.415 . S
C366 H356 0.930 . S
C366 C364 1.419 . S
C366 C367 1.362 . S
C367 H357 0.930 . S
C367 C360 1.409 . S
C367 C366 1.362 . S
H368 C374 0.930 . S
H369 C377 0.930 . S
H370 C378 0.930 . S
H371 C379 0.930 . S
H372 C382 0.930 . S
H373 C383 0.930 . S
C374 H368 0.930 . S
C374 C375 1.355 . S
C374 C376 1.415 . S
C375 C374 1.355 . S
C375 C377 1.419 . S
C376 C374 1.415 . S
C376 C381 1.425 . S
C376 C383 1.409 . S
C377 H369 0.930 . S
C377 C375 1.419 . S
C377 C378 1.362 . S
C378 H370 0.930 . S
C378 C377 1.362 . S
C378 C381 1.409 . S
C379 H371 0.930 . S
C379 C380 1.355 . S
C379 C381 1.415 . S
C380 C379 1.355 . S
C380 C382 1.419 . S
C381 C376 1.425 . S
C381 C378 1.409 . S
C381 C379 1.415 . S
C382 H372 0.930 . S
C382 C380 1.419 . S
C382 C383 1.362 . S
C383 H373 0.930 . S
C383 C376 1.409 . S
C383 C382 1.362 . S
H384 C390 0.930 . S
H385 C393 0.930 . S
H386 C394 0.930 . S
H387 C395 0.922 1_556 S
H388 C398 0.930 . S
H389 C399 0.930 . S
C390 H384 0.930 . S
C390 C391 1.355 . S
C390 C392 1.415 1_655 S
C391 C390 1.355 . S
C391 C393 1.419 1_554 S
C392 C390 1.415 1_455 S
C392 C397 1.425 . S
C392 C399 1.409 . S
C393 H385 0.930 . S
C393 C391 1.419 1_556 S
C393 C394 1.362 1_655 S
C394 H386 0.930 . S
C394 C393 1.362 1_455 S
C394 C397 1.409 1_556 S
C395 H387 0.922 1_554 S
C395 C396 1.360 . S
C395 C397 1.417 . S
C396 C395 1.360 . S
C396 C398 1.419 . S
C397 C392 1.425 . S
C397 C394 1.409 1_554 S
C397 C395 1.417 . S
C398 H388 0.930 . S
C398 C396 1.419 . S
C398 C399 1.362 . S
C399 H389 0.930 . S
C399 C392 1.409 . S
C399 C398 1.362 . S
H400 C406 0.930 . S
H401 C409 0.930 . S
H402 C410 0.930 . S
H403 C411 0.930 1_556 S
H404 C414 0.930 . S
H405 C415 0.930 . S
C406 H400 0.930 . S
C406 C407 1.355 . S
C406 C408 1.415 1_455 S
C407 C406 1.355 . S
C407 C409 1.419 1_554 S
C408 C406 1.415 1_655 S
C408 C413 1.425 . S
C408 C415 1.409 . S
C409 H401 0.930 . S
C409 C407 1.419 1_556 S
C409 C410 1.362 1_455 S
C410 H402 0.930 . S
C410 C409 1.362 1_655 S
C410 C413 1.409 1_556 S
C411 H403 0.930 1_554 S
C411 C412 1.355 . S
C411 C413 1.415 . S
C412 C411 1.355 . S
C412 C414 1.419 . S
C413 C408 1.425 . S
C413 C410 1.409 1_554 S
C413 C411 1.415 . S
C414 H404 0.930 . S
C414 C412 1.419 . S
C414 C415 1.362 . S
C415 H405 0.930 . S
C415 C408 1.409 . S
C415 C414 1.362 . S
H416 C422 0.930 . S
H417 C425 0.930 . S
H418 C426 0.930 . S
H419 C427 0.930 . S
H420 C430 0.930 . S
H421 C431 0.930 1_455 S
C422 H416 0.930 . S
C422 C423 1.355 . S
C422 C424 1.415 . S
C423 C422 1.355 . S
C423 C425 1.419 . S
C424 C422 1.415 . S
C424 C429 1.425 . S
C424 C431 1.409 1_455 S
C425 H417 0.930 . S
C425 C423 1.419 . S
C425 C426 1.362 . S
C426 H418 0.930 . S
C426 C425 1.362 . S
C426 C429 1.409 . S
C427 H419 0.930 . S
C427 C428 1.355 . S
C427 C429 1.415 1_655 S
C428 C427 1.355 . S
C428 C430 1.419 . S
C429 C424 1.425 . S
C429 C426 1.409 . S
C429 C427 1.415 1_455 S
C430 H420 0.930 . S
C430 C428 1.419 . S
C430 C431 1.362 . S
C431 H421 0.930 1_655 S
C431 C424 1.409 1_655 S
C431 C430 1.362 . S
H432 C438 0.930 . S
H433 C441 0.930 . S
H434 C442 0.930 . S
H435 C443 0.930 . S
H436 C446 0.930 . S
H437 C447 0.930 . S
C438 H432 0.930 . S
C438 C439 1.355 . S
C438 C440 1.415 . S
C439 C438 1.355 . S
C439 C441 1.419 . S
C440 C438 1.415 . S
C440 C445 1.425 . S
C440 C447 1.409 . S
C441 H433 0.930 . S
C441 C439 1.419 . S
C441 C442 1.362 . S
C442 H434 0.930 . S
C442 C441 1.362 . S
C442 C445 1.409 . S
C443 H435 0.930 . S
C443 C444 1.355 . S
C443 C445 1.415 1_455 S
C444 C443 1.355 . S
C444 C446 1.419 . S
C445 C440 1.425 . S
C445 C442 1.409 . S
C445 C443 1.415 1_655 S
C446 H436 0.930 . S
C446 C444 1.419 . S
C446 C447 1.362 1_455 S
C447 H437 0.930 . S
C447 C440 1.409 . S
C447 C446 1.362 1_655 S
H448 C454 0.922 1_655 S
H449 C457 0.930 . S
H450 C458 0.930 . S
H451 C459 0.922 1_455 S
H452 C462 0.930 . S
H453 C463 0.930 1_556 S
C454 H448 0.922 1_455 S
C454 C455 1.366 . S
C454 C456 1.411 1_455 S
C455 C454 1.366 . S
C455 C457 1.419 . S
C456 C454 1.411 1_655 S
C456 C461 1.425 1_655 S
C456 C463 1.409 . S
C457 H449 0.930 . S
C457 C455 1.419 . S
C457 C458 1.362 . S
C458 H450 0.930 . S
C458 C457 1.362 . S
C458 C461 1.409 . S
C459 H451 0.922 1_655 S
C459 C460 1.366 . S
C459 C461 1.411 1_655 S
C460 C459 1.366 . S
C460 C462 1.419 . S
C461 C456 1.425 1_455 S
C461 C458 1.409 . S
C461 C459 1.411 1_455 S
C462 H452 0.930 . S
C462 C460 1.419 . S
C462 C463 1.362 . S
C463 H453 0.930 1_554 S
C463 C456 1.409 . S
C463 C462 1.362 . S
H464 C470 0.930 . S
H465 C473 0.930 . S
H466 C474 0.930 . S
H467 C475 0.930 . S
H468 C478 0.930 . S
H469 C479 0.930 . S
C470 H464 0.930 . S
C470 C471 1.355 . S
C470 C472 1.415 . S
C471 C470 1.355 . S
C471 C473 1.419 . S
C472 C470 1.415 . S
C472 C477 1.425 1_455 S
C472 C479 1.409 . S
C473 H465 0.930 . S
C473 C471 1.419 . S
C473 C474 1.362 1_455 S
C474 H466 0.930 . S
C474 C473 1.362 1_655 S
C474 C477 1.409 . S
C475 H467 0.930 . S
C475 C476 1.355 . S
C475 C477 1.415 . S
C476 C475 1.355 . S
C476 C478 1.419 . S
C477 C472 1.425 1_655 S
C477 C474 1.409 . S
C477 C475 1.415 . S
C478 H468 0.930 . S
C478 C476 1.419 . S
C478 C479 1.362 1_655 S
C479 H469 0.930 . S
C479 C472 1.409 . S
C479 C478 1.362 1_455 S
H480 C486 0.930 . S
H481 C489 0.930 . S
H482 C490 0.930 . S
H483 C491 0.930 . S
H484 C494 0.930 . S
H485 C495 0.930 . S
C486 H480 0.930 . S
C486 C487 1.355 . S
C486 C488 1.415 1_565 S
C487 C486 1.355 . S
C487 C489 1.419 . S
C488 C486 1.415 1_545 S
C488 C493 1.425 1_545 S
C488 C495 1.409 . S
C489 H481 0.930 . S
C489 C487 1.419 . S
C489 C490 1.362 . S
C490 H482 0.930 . S
C490 C489 1.362 . S
C490 C493 1.409 . S
C491 H483 0.930 . S
C491 C492 1.355 . S
C491 C493 1.415 1_545 S
C492 C491 1.355 . S
C492 C494 1.419 . S
C493 C488 1.425 1_565 S
C493 C490 1.409 . S
C493 C491 1.415 1_565 S
C494 H484 0.930 . S
C494 C492 1.419 . S
C494 C495 1.362 . S
C495 H485 0.930 . S
C495 C488 1.409 . S
C495 C494 1.362 . S
H496 C502 0.930 . S
H497 C505 0.930 . S
H498 C506 0.930 . S
H499 C507 0.930 . S
H500 C510 0.930 . S
H501 C511 0.930 . S
C502 H496 0.930 . S
C502 C503 1.355 . S
C502 C504 1.418 1_545 S
C503 C502 1.355 . S
C503 C505 1.419 . S
C504 C502 1.418 1_565 S
C504 C509 1.426 . S
C504 C511 1.405 . S
C505 H497 0.930 . S
C505 C503 1.419 . S
C505 C506 1.362 . S
C506 H498 0.930 . S
C506 C505 1.362 . S
C506 C509 1.398 1_545 S
C507 H499 0.930 . S
C507 C508 1.355 . S
C507 C509 1.425 . S
C508 C507 1.355 . S
C508 C510 1.419 . S
C509 C504 1.426 . S
C509 C506 1.398 1_565 S
C509 C507 1.425 . S
C510 H500 0.930 . S
C510 C508 1.419 . S
C510 C511 1.362 . S
C511 H501 0.930 . S
C511 C504 1.405 . S
C511 C510 1.362 . S
H512 C518 0.930 . S
H513 C521 0.930 . S
H514 C522 0.930 . S
H515 C523 0.930 . S
H516 C526 0.930 . S
H517 C527 0.930 . S
C518 H512 0.930 . S
C518 C519 1.355 . S
C518 C520 1.415 . S
C519 C518 1.355 . S
C519 C521 1.419 1_554 S
C520 C518 1.415 . S
C520 C525 1.425 1_554 S
C520 C527 1.409 . S
C521 H513 0.930 . S
C521 C519 1.419 1_556 S
C521 C522 1.362 . S
C522 H514 0.930 . S
C522 C521 1.362 . S
C522 C525 1.409 . S
C523 H515 0.930 . S
C523 C524 1.355 1_556 S
C523 C525 1.415 . S
C524 C523 1.355 1_554 S
C524 C526 1.419 . S
C525 C520 1.425 1_556 S
C525 C522 1.409 . S
C525 C523 1.415 . S
C526 H516 0.930 . S
C526 C524 1.419 . S
C526 C527 1.362 . S
C527 H517 0.930 . S
C527 C520 1.409 . S
C527 C526 1.362 . S
H528 C534 0.930 . S
H529 C537 0.930 . S
H530 C538 0.930 . S
H531 C539 0.930 . S
H532 C542 0.930 . S
H533 C543 0.930 . S
C534 H528 0.930 . S
C534 C535 1.355 1_556 S
C534 C536 1.415 . S
C535 C534 1.355 1_554 S
C535 C537 1.419 . S
C536 C534 1.415 . S
C536 C541 1.425 1_556 S
C536 C543 1.409 . S
C537 H529 0.930 . S
C537 C535 1.419 . S
C537 C538 1.362 . S
C538 H530 0.930 . S
C538 C537 1.362 . S
C538 C541 1.409 . S
C539 H531 0.930 . S
C539 C540 1.355 . S
C539 C541 1.415 . S
C540 C539 1.355 . S
C540 C542 1.419 1_554 S
C541 C536 1.425 1_554 S
C541 C538 1.409 . S
C541 C539 1.415 . S
C542 H532 0.930 . S
C542 C540 1.419 1_556 S
C542 C543 1.362 . S
C543 H533 0.930 . S
C543 C536 1.409 . S
C543 C542 1.362 . S
H544 C550 0.930 . S
H545 C553 0.930 . S
H546 C554 0.930 . S
H547 C555 0.930 . S
H548 C558 0.930 . S
H549 C559 0.930 . S
C550 H544 0.930 . S
C550 C551 1.355 . S
C550 C552 1.415 . S
C551 C550 1.355 . S
C551 C553 1.419 . S
C552 C550 1.415 . S
C552 C557 1.425 . S
C552 C559 1.409 . S
C553 H545 0.930 . S
C553 C551 1.419 . S
C553 C554 1.362 . S
C554 H546 0.930 . S
C554 C553 1.362 . S
C554 C557 1.409 . S
C555 H547 0.930 . S
C555 C556 1.355 . S
C555 C557 1.415 . S
C556 C555 1.355 . S
C556 C558 1.419 . S
C557 C552 1.425 . S
C557 C554 1.409 . S
C557 C555 1.415 . S
C558 H548 0.930 . S
C558 C556 1.419 . S
C558 C559 1.362 . S
C559 H549 0.930 . S
C559 C552 1.409 . S
C559 C558 1.362 . S
H560 C566 0.930 . S
H561 C569 0.930 . S
H562 C570 0.930 . S
H563 C571 0.930 . S
H564 C574 0.930 . S
H565 C575 0.930 . S
C566 H560 0.930 . S
C566 C567 1.355 . S
C566 C568 1.415 . S
C567 C566 1.355 . S
C567 C569 1.419 . S
C568 C566 1.415 . S
C568 C573 1.425 . S
C568 C575 1.409 . S
C569 H561 0.930 . S
C569 C567 1.419 . S
C569 C570 1.362 . S
C570 H562 0.930 . S
C570 C569 1.362 . S
C570 C573 1.409 . S
C571 H563 0.930 . S
C571 C572 1.355 . S
C571 C573 1.415 . S
C572 C571 1.355 . S
C572 C574 1.419 . S
C573 C568 1.425 . S
C573 C570 1.409 . S
C573 C571 1.415 . S
C574 H564 0.930 . S
C574 C572 1.419 . S
C574 C575 1.362 . S
C575 H565 0.930 . S
C575 C568 1.409 . S
C575 C574 1.362 . S
H576 C582 0.930 . S
H577 C585 0.930 . S
H578 C586 0.930 . S
H579 C587 0.930 . S
H580 C590 0.930 . S
H581 C591 0.930 . S
C582 H576 0.930 . S
C582 C583 1.355 . S
C582 C584 1.415 1_455 S
C583 C582 1.355 . S
C583 C585 1.419 . S
C584 C582 1.415 1_655 S
C584 C589 1.425 . S
C584 C591 1.409 . S
C585 H577 0.930 . S
C585 C583 1.419 . S
C585 C586 1.362 1_455 S
C586 H578 0.930 . S
C586 C585 1.362 1_655 S
C586 C589 1.409 . S
C587 H579 0.930 . S
C587 C588 1.355 . S
C587 C589 1.415 . S
C588 C587 1.355 . S
C588 C590 1.419 . S
C589 C584 1.425 . S
C589 C586 1.409 . S
C589 C587 1.415 . S
C590 H580 0.930 . S
C590 C588 1.419 . S
C590 C591 1.362 . S
C591 H581 0.930 . S
C591 C584 1.409 . S
C591 C590 1.362 . S
H592 C598 0.930 . S
H593 C601 0.930 . S
H594 C602 0.930 . S
H595 C603 0.930 . S
H596 C606 0.930 . S
H597 C607 0.930 . S
C598 H592 0.930 . S
C598 C599 1.355 1_455 S
C598 C600 1.415 . S
C599 C598 1.355 1_655 S
C599 C601 1.419 . S
C600 C598 1.415 . S
C600 C605 1.425 1_455 S
C600 C607 1.409 . S
C601 H593 0.930 . S
C601 C599 1.419 . S
C601 C602 1.362 . S
C602 H594 0.930 . S
C602 C601 1.362 . S
C602 C605 1.409 . S
C603 H595 0.930 . S
C603 C604 1.355 1_655 S
C603 C605 1.415 . S
C604 C603 1.355 1_455 S
C604 C606 1.419 . S
C605 C600 1.425 1_655 S
C605 C602 1.409 . S
C605 C603 1.415 . S
C606 H596 0.930 . S
C606 C604 1.419 . S
C606 C607 1.362 . S
C607 H597 0.930 . S
C607 C600 1.409 . S
C607 C606 1.362 . S
H608 C614 0.930 . S
H609 C617 0.930 . S
H610 C618 0.930 . S
H611 C619 0.930 . S
H612 C622 0.930 . S
H613 C623 0.930 . S
C614 H608 0.930 . S
C614 C615 1.355 1_455 S
C614 C616 1.415 . S
C615 C614 1.355 1_655 S
C615 C617 1.419 . S
C616 C614 1.415 . S
C616 C621 1.425 1_455 S
C616 C623 1.409 . S
C617 H609 0.930 . S
C617 C615 1.419 . S
C617 C618 1.362 . S
C618 H610 0.930 . S
C618 C617 1.362 . S
C618 C621 1.409 . S
C619 H611 0.930 . S
C619 C620 1.355 1_655 S
C619 C621 1.415 . S
C620 C619 1.355 1_455 S
C620 C622 1.419 . S
C621 C616 1.425 1_655 S
C621 C618 1.409 . S
C621 C619 1.415 . S
C622 H612 0.930 . S
C622 C620 1.419 . S
C622 C623 1.362 . S
C623 H613 0.930 . S
C623 C616 1.409 . S
C623 C622 1.362 . S
H624 C630 0.930 . S
H625 C633 0.930 . S
H626 C634 0.930 . S
H627 C635 0.930 1_655 S
H628 C638 0.930 . S
H629 C639 0.930 . S
C630 H624 0.930 . S
C630 C631 1.355 1_455 S
C630 C632 1.415 . S
C631 C630 1.355 1_655 S
C631 C633 1.419 . S
C632 C630 1.415 . S
C632 C637 1.425 1_455 S
C632 C639 1.409 . S
C633 H625 0.930 . S
C633 C631 1.419 . S
C633 C634 1.362 . S
C634 H626 0.930 . S
C634 C633 1.362 . S
C634 C637 1.409 . S
C635 H627 0.930 1_455 S
C635 C636 1.355 . S
C635 C637 1.415 1_455 S
C636 C635 1.355 . S
C636 C638 1.419 . S
C637 C632 1.425 1_655 S
C637 C634 1.409 . S
C637 C635 1.415 1_655 S
C638 H628 0.930 . S
C638 C636 1.419 . S
C638 C639 1.362 . S
C639 H629 0.930 . S
C639 C632 1.409 . S
C639 C638 1.362 . S
H640 C646 0.930 . S
H641 C649 0.930 . S
H642 C650 0.930 . S
H643 C651 0.930 . S
H644 C654 0.930 . S
H645 C655 0.930 . S
C646 H640 0.930 . S
C646 C647 1.355 . S
C646 C648 1.415 . S
C647 C646 1.355 . S
C647 C649 1.419 . S
C648 C646 1.415 . S
C648 C653 1.425 . S
C648 C655 1.409 . S
C649 H641 0.930 . S
C649 C647 1.419 . S
C649 C650 1.362 . S
C650 H642 0.930 . S
C650 C649 1.362 . S
C650 C653 1.409 . S
C651 H643 0.930 . S
C651 C652 1.355 . S
C651 C653 1.415 . S
C652 C651 1.355 . S
C652 C654 1.419 . S
C653 C648 1.425 . S
C653 C650 1.409 . S
C653 C651 1.415 . S
C654 H644 0.930 . S
C654 C652 1.419 . S
C654 C655 1.362 . S
C655 H645 0.930 . S
C655 C648 1.409 . S
C655 C654 1.362 . S
H656 C662 0.930 . S
H657 C665 0.930 . S
H658 C666 0.930 . S
H659 C667 0.930 . S
H660 C670 0.930 . S
H661 C671 0.930 . S
C662 H656 0.930 . S
C662 C663 1.355 . S
C662 C664 1.415 . S
C663 C662 1.355 . S
C663 C665 1.419 . S
C664 C662 1.415 . S
C664 C669 1.425 . S
C664 C671 1.409 . S
C665 H657 0.930 . S
C665 C663 1.419 . S
C665 C666 1.362 . S
C666 H658 0.930 . S
C666 C665 1.362 . S
C666 C669 1.409 . S
C667 H659 0.930 . S
C667 C668 1.355 . S
C667 C669 1.415 . S
C668 C667 1.355 . S
C668 C670 1.419 . S
C669 C664 1.425 . S
C669 C666 1.409 . S
C669 C667 1.415 . S
C670 H660 0.930 . S
C670 C668 1.419 . S
C670 C671 1.362 . S
C671 H661 0.930 . S
C671 C664 1.409 . S
C671 C670 1.362 . S
H672 C678 0.930 . S
H673 C681 0.930 . S
H674 C682 0.930 . S
H675 C683 0.930 . S
H676 C686 0.930 . S
H677 C687 0.930 . S
C678 H672 0.930 . S
C678 C679 1.355 . S
C678 C680 1.415 . S
C679 C678 1.355 . S
C679 C681 1.419 . S
C680 C678 1.415 . S
C680 C685 1.425 . S
C680 C687 1.409 . S
C681 H673 0.930 . S
C681 C679 1.419 . S
C681 C682 1.362 . S
C682 H674 0.930 . S
C682 C681 1.362 . S
C682 C685 1.409 . S
C683 H675 0.930 . S
C683 C684 1.355 . S
C683 C685 1.415 . S
C684 C683 1.355 . S
C684 C686 1.419 . S
C685 C680 1.425 . S
C685 C682 1.409 . S
C685 C683 1.415 . S
C686 H676 0.930 . S
C686 C684 1.419 . S
C686 C687 1.362 . S
C687 H677 0.930 . S
C687 C680 1.409 . S
C687 C686 1.362 . S
H688 C694 0.930 . S
H689 C697 0.930 . S
H690 C698 0.930 . S
H691 C699 0.930 . S
H692 C702 0.930 . S
H693 C703 0.930 . S
C694 H688 0.930 . S
C694 C695 1.355 . S
C694 C696 1.415 . S
C695 C694 1.355 . S
C695 C697 1.419 . S
C696 C694 1.415 . S
C696 C701 1.425 . S
C696 C703 1.409 . S
C697 H689 0.930 . S
C697 C695 1.419 . S
C697 C698 1.362 . S
C698 H690 0.930 . S
C698 C697 1.362 . S
C698 C701 1.409 . S
C699 H691 0.930 . S
C699 C700 1.355 . S
C699 C701 1.415 . S
C700 C699 1.355 . S
C700 C702 1.419 . S
C701 C696 1.425 . S
C701 C698 1.409 . S
C701 C699 1.415 . S
C702 H692 0.930 . S
C702 C700 1.419 . S
C702 C703 1.362 . S
C703 H693 0.930 . S
C703 C696 1.409 . S
C703 C702 1.362 . S
C327 C13 2.064 . S
C332 C24 2.064 . S
C343 C53 2.100 . S
C348 C64 2.100 . S
C359 C93 2.061 . S
C364 C104 2.061 . S
C375 C144 2.082 . S
C380 C133 2.082 . S
C391 C173 2.098 . S
C396 C184 2.098 . S
C407 C224 2.090 . S
C412 C213 2.090 . S
C423 C253 2.061 . S
C428 C264 2.061 . S
C439 C293 2.118 . S
C444 C304 2.118 . S
C455 C66 2.429 . S
C460 C17 2.429 . S
C471 C146 2.395 . S
C476 C106 2.396 . S
C487 C177 2.372 . S
C492 C226 2.372 . S
C503 C266 2.402 . S
C508 C306 2.402 . S
C519 C26 1.707 . S
C524 C217 1.707 . S
C535 C186 1.694 . S
C540 C57 1.694 . S
C551 C97 1.747 . S
C556 C297 1.748 . S
C567 C137 1.729 . S
C572 C257 1.731 . S
C583 C2 1.654 . S
C588 C122 1.622 . S
C599 C42 1.509 . S
C604 C82 1.527 . S
C615 C63 1.586 . S
C620 C103 1.598 . S
C631 C143 1.496 . S
C636 C23 1.494 . S
C647 C162 1.652 . S
C652 C282 1.618 . S
C663 C202 1.488 . S
C668 C242 1.478 . S
C679 C223 1.622 . S
C684 C263 1.549 . S
C695 C303 1.437 . S
C700 C183 1.428 . S
