# Generated by pormake.
# Topology pem, (4)-cn, num edge types: 1
# Building blocks:
#     Node 0, Type 0, BuildingBlock: GALJAG_clean_sbu_0, # of connection points: 4
#     Node 1, Type 0, BuildingBlock: GALJAG_clean_sbu_0, # of connection points: 4
#     Node 2, Type 0, BuildingBlock: GALJAG_clean_sbu_0, # of connection points: 4
#     Node 3, Type 0, BuildingBlock: GALJAG_clean_sbu_0, # of connection points: 4
#     Node 4, Type 0, BuildingBlock: GALJAG_clean_sbu_0, # of connection points: 4
#     Node 5, Type 0, BuildingBlock: GALJAG_clean_sbu_0, # of connection points: 4
#     Node 6, Type 0, BuildingBlock: GALJAG_clean_sbu_0, # of connection points: 4
#     Node 7, Type 0, BuildingBlock: GALJAG_clean_sbu_0, # of connection points: 4
#     Node 8, Type 0, BuildingBlock: GALJAG_clean_sbu_0, # of connection points: 4
#     Node 9, Type 0, BuildingBlock: GALJAG_clean_sbu_0, # of connection points: 4
#     Node 10, Type 0, BuildingBlock: GALJAG_clean_sbu_0, # of connection points: 4
#     Node 11, Type 0, BuildingBlock: GALJAG_clean_sbu_0, # of connection points: 4
#     Node 12, Type 0, BuildingBlock: GALJAG_clean_sbu_0, # of connection points: 4
#     Node 13, Type 0, BuildingBlock: GALJAG_clean_sbu_0, # of connection points: 4
#     Node 14, Type 0, BuildingBlock: GALJAG_clean_sbu_0, # of connection points: 4
#     Node 15, Type 0, BuildingBlock: GALJAG_clean_sbu_0, # of connection points: 4
#     Node 16, Type 0, BuildingBlock: GALJAG_clean_sbu_0, # of connection points: 4
#     Node 17, Type 0, BuildingBlock: GALJAG_clean_sbu_0, # of connection points: 4
#     Node 18, Type 0, BuildingBlock: GALJAG_clean_sbu_0, # of connection points: 4
#     Node 19, Type 0, BuildingBlock: GALJAG_clean_sbu_0, # of connection points: 4
#     Node 20, Type 0, BuildingBlock: GALJAG_clean_sbu_0, # of connection points: 4
#     Node 21, Type 0, BuildingBlock: GALJAG_clean_sbu_0, # of connection points: 4
#     Node 22, Type 0, BuildingBlock: GALJAG_clean_sbu_0, # of connection points: 4
#     Node 23, Type 0, BuildingBlock: GALJAG_clean_sbu_0, # of connection points: 4
#     Node 24, Type 0, BuildingBlock: GALJAG_clean_sbu_0, # of connection points: 4
#     Node 25, Type 0, BuildingBlock: GALJAG_clean_sbu_0, # of connection points: 4
#     Node 26, Type 0, BuildingBlock: GALJAG_clean_sbu_0, # of connection points: 4
#     Node 27, Type 0, BuildingBlock: GALJAG_clean_sbu_0, # of connection points: 4
#     Node 28, Type 0, BuildingBlock: GALJAG_clean_sbu_0, # of connection points: 4
#     Node 29, Type 0, BuildingBlock: GALJAG_clean_sbu_0, # of connection points: 4
#     Node 30, Type 0, BuildingBlock: GALJAG_clean_sbu_0, # of connection points: 4
#     Node 31, Type 0, BuildingBlock: GALJAG_clean_sbu_0, # of connection points: 4
#     Edge 32, Type (0, 0), BuildingBlock: XIVTED_clean_linker_0, # of connection points: 2
#     Edge 33, Type (0, 0), BuildingBlock: XIVTED_clean_linker_0, # of connection points: 2
#     Edge 34, Type (0, 0), BuildingBlock: XIVTED_clean_linker_0, # of connection points: 2
#     Edge 35, Type (0, 0), BuildingBlock: XIVTED_clean_linker_0, # of connection points: 2
#     Edge 36, Type (0, 0), BuildingBlock: XIVTED_clean_linker_0, # of connection points: 2
#     Edge 37, Type (0, 0), BuildingBlock: XIVTED_clean_linker_0, # of connection points: 2
#     Edge 38, Type (0, 0), BuildingBlock: XIVTED_clean_linker_0, # of connection points: 2
#     Edge 39, Type (0, 0), BuildingBlock: XIVTED_clean_linker_0, # of connection points: 2
#     Edge 40, Type (0, 0), BuildingBlock: XIVTED_clean_linker_0, # of connection points: 2
#     Edge 41, Type (0, 0), BuildingBlock: XIVTED_clean_linker_0, # of connection points: 2
#     Edge 42, Type (0, 0), BuildingBlock: XIVTED_clean_linker_0, # of connection points: 2
#     Edge 43, Type (0, 0), BuildingBlock: XIVTED_clean_linker_0, # of connection points: 2
#     Edge 44, Type (0, 0), BuildingBlock: XIVTED_clean_linker_0, # of connection points: 2
#     Edge 45, Type (0, 0), BuildingBlock: XIVTED_clean_linker_0, # of connection points: 2
#     Edge 46, Type (0, 0), BuildingBlock: XIVTED_clean_linker_0, # of connection points: 2
#     Edge 47, Type (0, 0), BuildingBlock: XIVTED_clean_linker_0, # of connection points: 2
#     Edge 48, Type (0, 0), BuildingBlock: XIVTED_clean_linker_0, # of connection points: 2
#     Edge 49, Type (0, 0), BuildingBlock: XIVTED_clean_linker_0, # of connection points: 2
#     Edge 50, Type (0, 0), BuildingBlock: XIVTED_clean_linker_0, # of connection points: 2
#     Edge 51, Type (0, 0), BuildingBlock: XIVTED_clean_linker_0, # of connection points: 2
#     Edge 52, Type (0, 0), BuildingBlock: XIVTED_clean_linker_0, # of connection points: 2
#     Edge 53, Type (0, 0), BuildingBlock: XIVTED_clean_linker_0, # of connection points: 2
#     Edge 54, Type (0, 0), BuildingBlock: XIVTED_clean_linker_0, # of connection points: 2
#     Edge 55, Type (0, 0), BuildingBlock: XIVTED_clean_linker_0, # of connection points: 2
#     Edge 56, Type (0, 0), BuildingBlock: XIVTED_clean_linker_0, # of connection points: 2
#     Edge 57, Type (0, 0), BuildingBlock: XIVTED_clean_linker_0, # of connection points: 2
#     Edge 58, Type (0, 0), BuildingBlock: XIVTED_clean_linker_0, # of connection points: 2
#     Edge 59, Type (0, 0), BuildingBlock: XIVTED_clean_linker_0, # of connection points: 2
#     Edge 60, Type (0, 0), BuildingBlock: XIVTED_clean_linker_0, # of connection points: 2
#     Edge 61, Type (0, 0), BuildingBlock: XIVTED_clean_linker_0, # of connection points: 2
#     Edge 62, Type (0, 0), BuildingBlock: XIVTED_clean_linker_0, # of connection points: 2
#     Edge 63, Type (0, 0), BuildingBlock: XIVTED_clean_linker_0, # of connection points: 2
#     Edge 64, Type (0, 0), BuildingBlock: XIVTED_clean_linker_0, # of connection points: 2
#     Edge 65, Type (0, 0), BuildingBlock: XIVTED_clean_linker_0, # of connection points: 2
#     Edge 66, Type (0, 0), BuildingBlock: XIVTED_clean_linker_0, # of connection points: 2
#     Edge 67, Type (0, 0), BuildingBlock: XIVTED_clean_linker_0, # of connection points: 2
#     Edge 68, Type (0, 0), BuildingBlock: XIVTED_clean_linker_0, # of connection points: 2
#     Edge 69, Type (0, 0), BuildingBlock: XIVTED_clean_linker_0, # of connection points: 2
#     Edge 70, Type (0, 0), BuildingBlock: XIVTED_clean_linker_0, # of connection points: 2
#     Edge 71, Type (0, 0), BuildingBlock: XIVTED_clean_linker_0, # of connection points: 2
#     Edge 72, Type (0, 0), BuildingBlock: XIVTED_clean_linker_0, # of connection points: 2
#     Edge 73, Type (0, 0), BuildingBlock: XIVTED_clean_linker_0, # of connection points: 2
#     Edge 74, Type (0, 0), BuildingBlock: XIVTED_clean_linker_0, # of connection points: 2
#     Edge 75, Type (0, 0), BuildingBlock: XIVTED_clean_linker_0, # of connection points: 2
#     Edge 76, Type (0, 0), BuildingBlock: XIVTED_clean_linker_0, # of connection points: 2
#     Edge 77, Type (0, 0), BuildingBlock: XIVTED_clean_linker_0, # of connection points: 2
#     Edge 78, Type (0, 0), BuildingBlock: XIVTED_clean_linker_0, # of connection points: 2
#     Edge 79, Type (0, 0), BuildingBlock: XIVTED_clean_linker_0, # of connection points: 2
#     Edge 80, Type (0, 0), BuildingBlock: XIVTED_clean_linker_0, # of connection points: 2
#     Edge 81, Type (0, 0), BuildingBlock: XIVTED_clean_linker_0, # of connection points: 2
#     Edge 82, Type (0, 0), BuildingBlock: XIVTED_clean_linker_0, # of connection points: 2
#     Edge 83, Type (0, 0), BuildingBlock: XIVTED_clean_linker_0, # of connection points: 2
#     Edge 84, Type (0, 0), BuildingBlock: XIVTED_clean_linker_0, # of connection points: 2
#     Edge 85, Type (0, 0), BuildingBlock: XIVTED_clean_linker_0, # of connection points: 2
#     Edge 86, Type (0, 0), BuildingBlock: XIVTED_clean_linker_0, # of connection points: 2
#     Edge 87, Type (0, 0), BuildingBlock: XIVTED_clean_linker_0, # of connection points: 2
#     Edge 88, Type (0, 0), BuildingBlock: XIVTED_clean_linker_0, # of connection points: 2
#     Edge 89, Type (0, 0), BuildingBlock: XIVTED_clean_linker_0, # of connection points: 2
#     Edge 90, Type (0, 0), BuildingBlock: XIVTED_clean_linker_0, # of connection points: 2
#     Edge 91, Type (0, 0), BuildingBlock: XIVTED_clean_linker_0, # of connection points: 2
#     Edge 92, Type (0, 0), BuildingBlock: XIVTED_clean_linker_0, # of connection points: 2
#     Edge 93, Type (0, 0), BuildingBlock: XIVTED_clean_linker_0, # of connection points: 2
#     Edge 94, Type (0, 0), BuildingBlock: XIVTED_clean_linker_0, # of connection points: 2
#     Edge 95, Type (0, 0), BuildingBlock: XIVTED_clean_linker_0, # of connection points: 2
# Relax obj value: 0.257
# Max RMSD: 0.257
# Mean RMSD: 0.153
data_MOF--net-pem--node1-GALJAG_clean_sbu_0--edge1-XIVTED_clean_linker_0
_symmetry_space_group_name_H-M    P1
_symmetry_Int_Tables_number       1
_symmetry_cell_setting            triclinic
loop_
_symmetry_equiv_pos_as_xyz
'x, y, z'
_cell_length_a     30.977823
_cell_length_b     45.496363
_cell_length_c     47.720015
_cell_angle_alpha  90.854164
_cell_angle_beta   90.541326
_cell_angle_gamma 91.994734
loop_
_atom_site_label
_atom_site_type_symbol
_atom_site_fract_x
_atom_site_fract_y
_atom_site_fract_z
_atom_type_partial_charge
In0 In 0.17678 0.08486 0.11553 0.0
O1 O 0.24494 0.09025 0.09854 0.0
O2 O 0.19108 0.10734 0.0756 0.0
C3 C 0.163 0.04658 0.15777 0.0
C4 C 0.15923 0.14673 0.12236 0.0
C5 C 0.13121 0.03901 0.08681 0.0
O6 O 0.20139 0.0509 0.14831 0.0
O7 O 0.13623 0.06521 0.1497 0.0
O8 O 0.11606 0.05372 0.10677 0.0
O9 O 0.16865 0.04833 0.08021 0.0
C10 C 0.23147 0.10502 0.07759 0.0
O11 O 0.15217 0.13057 0.10123 0.0
O12 O 0.17281 0.13107 0.14246 0.0
In13 In 0.04664 0.84764 0.33076 0.0
O14 O 0.05931 0.8341 0.37976 0.0
O15 O 0.04693 0.87752 0.37679 0.0
C16 C 0.0959 0.80915 0.29431 0.0
C17 C 0.97566 0.81882 0.35583 0.0
C18 C 0.06178 0.89016 0.29274 0.0
O19 O 0.11224 0.82899 0.31004 0.0
O20 O 0.05528 0.80925 0.29521 0.0
O21 O 0.0242 0.88629 0.30311 0.0
O22 O 0.09066 0.87558 0.30404 0.0
C23 C 0.055 0.85709 0.39405 0.0
O24 O -0.01485 0.82021 0.33048 0.0
O25 O -0.0146 0.82034 0.33056 0.0
In26 In 0.30061 0.91152 0.61171 0.0
O27 O 0.22771 0.91069 0.59684 0.0
O28 O 0.27605 0.8916 0.57125 0.0
C29 C 0.3209 0.94938 0.65572 0.0
C30 C 0.30934 0.84651 0.61768 0.0
C31 C 0.34784 0.95906 0.58215 0.0
O32 O 0.28144 0.94203 0.64954 0.0
O33 O 0.34846 0.93415 0.64307 0.0
O34 O 0.36266 0.94298 0.60112 0.0
O35 O 0.30915 0.95031 0.57665 0.0
C36 C 0.2363 0.89552 0.57472 0.0
O37 O 0.31863 0.86253 0.59714 0.0
O38 O 0.29828 0.86364 0.63777 0.0
In39 In 0.41696 0.15935 0.82913 0.0
O40 O 0.40306 0.14493 0.87774 0.0
O41 O 0.40341 0.14482 0.87762 0.0
C42 C 0.36881 0.198 0.79167 0.0
C43 C 0.48338 0.19886 0.86086 0.0
C44 C 0.40976 0.11383 0.79257 0.0
O45 O 0.35262 0.18019 0.80881 0.0
O46 O 0.4093 0.19702 0.79323 0.0
O47 O 0.44697 0.12485 0.79851 0.0
O48 O 0.3801 0.12332 0.8074 0.0
C49 C 0.41313 0.13073 0.90031 0.0
O50 O 0.47854 0.18637 0.83691 0.0
O51 O 0.47787 0.18619 0.83709 0.0
In52 In 0.19156 0.93724 0.41219 0.0
O53 O 0.26203 0.93026 0.42645 0.0
O54 O 0.21175 0.9277 0.45677 0.0
C55 C 0.17788 0.97404 0.3705 0.0
C56 C 0.18181 0.87798 0.39237 0.0
C57 C 0.13867 0.96856 0.44586 0.0
O58 O 0.21604 0.97175 0.38049 0.0
O59 O 0.14943 0.95689 0.38038 0.0
O60 O 0.12808 0.94383 0.43521 0.0
O61 O 0.17708 0.97726 0.44111 0.0
C62 C 0.25041 0.92265 0.451 0.0
O63 O 0.15852 0.8986 0.38425 0.0
O64 O 0.21224 0.88757 0.40763 0.0
In65 In 0.41306 0.85611 0.67804 0.0
O66 O 0.38093 0.86633 0.63775 0.0
O67 O 0.44706 0.87669 0.63731 0.0
C68 C 0.35291 0.8243 0.71017 0.0
C69 C 0.46769 0.81621 0.66168 0.0
C70 C 0.40269 0.89663 0.71364 0.0
O71 O 0.34434 0.84721 0.69701 0.0
O72 O 0.39125 0.8165 0.70642 0.0
O73 O 0.44076 0.8874 0.7103 0.0
O74 O 0.37434 0.89014 0.69535 0.0
C75 C 0.4129 0.87252 0.62282 0.0
O76 O 0.47416 0.83103 0.6844 0.0
O77 O 0.43329 0.82107 0.64854 0.0
In78 In 0.30906 0.07202 0.90048 0.0
O79 O 0.33994 0.11146 0.87523 0.0
O80 O 0.27839 0.11893 0.8867 0.0
C81 C 0.36459 0.03714 0.93021 0.0
C82 C 0.25537 0.08224 0.94217 0.0
C83 C 0.3159 0.03376 0.86094 0.0
O84 O 0.37497 0.06304 0.92247 0.0
O85 O 0.32585 0.02939 0.9246 0.0
O86 O 0.27981 0.03548 0.87319 0.0
O87 O 0.34483 0.05294 0.86706 0.0
C88 C 0.31146 0.13085 0.87564 0.0
O89 O 0.24144 0.07509 0.91776 0.0
O90 O 0.29587 0.08191 0.94568 0.0
In91 In 0.04127 0.12048 0.16432 0.0
O92 O -0.0137 0.15274 0.17284 0.0
O93 O 0.00243 0.14581 0.13053 0.0
C94 C 0.06154 0.08448 0.20596 0.0
C95 C 0.06054 0.10908 0.10705 0.0
C96 C 0.09251 0.15966 0.19515 0.0
O97 O 0.02157 0.088 0.20001 0.0
O98 O 0.08725 0.09304 0.18735 0.0
O99 O 0.1069 0.1418 0.17746 0.0
O100 O 0.05197 0.16087 0.19469 0.0
C101 C 0.98344 0.16048 0.14755 0.0
O102 O 0.08696 0.10999 0.12738 0.0
O103 O 0.02214 0.10779 0.11586 0.0
In104 In 0.68806 0.43432 0.90819 0.0
O105 O 0.66319 0.39471 0.87735 0.0
O106 O 0.71217 0.38386 0.90375 0.0
C107 C 0.63376 0.46576 0.94259 0.0
C108 C 0.74294 0.4238 0.9487 0.0
C109 C 0.6752 0.47176 0.8676 0.0
O110 O 0.62423 0.44015 0.93318 0.0
O111 O 0.67061 0.47552 0.93524 0.0
O112 O 0.71308 0.4705 0.87829 0.0
O113 O 0.64736 0.45346 0.87665 0.0
C114 C 0.68616 0.37375 0.88537 0.0
O115 O 0.75595 0.43203 0.92468 0.0
O116 O 0.70271 0.42398 0.95279 0.0
In117 In 0.91295 0.35609 0.17426 0.0
O118 O 0.97962 0.33861 0.1806 0.0
O119 O 0.93103 0.3146 0.15533 0.0
C120 C 0.89917 0.39423 0.21289 0.0
C121 C 0.91991 0.37762 0.11735 0.0
C122 C 0.85211 0.32189 0.20411 0.0
O123 O 0.93771 0.38598 0.20884 0.0
O124 O 0.87041 0.38658 0.19506 0.0
O125 O 0.84231 0.33928 0.18485 0.0
O126 O 0.89246 0.32016 0.20734 0.0
C127 C 0.96956 0.31664 0.16444 0.0
O128 O 0.90869 0.39349 0.1381 0.0
O129 O 0.9292 0.35288 0.12589 0.0
In130 In 0.80935 0.55621 0.4091 0.0
O131 O 0.7416 0.56679 0.42138 0.0
O132 O 0.79488 0.58194 0.4474 0.0
C133 C 0.81814 0.52481 0.36532 0.0
C134 C 0.8408 0.59902 0.38291 0.0
C135 C 0.86235 0.52794 0.43899 0.0
O136 O 0.78216 0.52364 0.37795 0.0
O137 O 0.84786 0.54095 0.37553 0.0
O138 O 0.86984 0.55366 0.43066 0.0
O139 O 0.82541 0.5161 0.43348 0.0
C140 C 0.75482 0.58143 0.44273 0.0
O141 O 0.86086 0.58642 0.40184 0.0
O142 O 0.80143 0.59187 0.3784 0.0
In143 In 0.91563 0.67308 0.32255 0.0
O144 O -0.01503 0.67271 0.3417 0.0
O145 O 0.96059 0.7133 0.3313 0.0
C146 C 0.90867 0.62286 0.29012 0.0
C147 C 0.86745 0.66964 0.39619 0.0
C148 C 0.86821 0.70789 0.28991 0.0
O149 O 0.94416 0.63709 0.29331 0.0
O150 O 0.87866 0.63232 0.30478 0.0
O151 O 0.85217 0.69231 0.30879 0.0
O152 O 0.90863 0.70713 0.28787 0.0
C153 C -0.01055 0.70057 0.34286 0.0
O154 O 0.88703 0.6679 0.36614 0.0
O155 O 0.88703 0.66793 0.36614 0.0
In156 In 0.55491 0.34672 0.83447 0.0
O157 O 0.59313 0.36988 0.87187 0.0
O158 O 0.53229 0.35729 0.8838 0.0
C159 C 0.59828 0.3063 0.79994 0.0
C160 C 0.49312 0.31067 0.84896 0.0
C161 C 0.56375 0.38872 0.79471 0.0
O162 O 0.61672 0.32511 0.81613 0.0
O163 O 0.55776 0.30672 0.80158 0.0
O164 O 0.52703 0.37607 0.79863 0.0
O165 O 0.59208 0.38235 0.81249 0.0
C166 C 0.56741 0.36912 0.89228 0.0
O167 O 0.4844 0.33453 0.83665 0.0
O168 O 0.53252 0.30489 0.85204 0.0
In169 In 0.89423 0.92334 0.90231 0.0
O170 O 0.93892 0.89219 0.88655 0.0
O171 O 0.87063 0.88002 0.8884 0.0
C172 C 0.93813 0.95562 0.9374 0.0
C173 C 0.88809 0.95194 0.85479 0.0
C174 C 0.84582 0.90511 0.9437 0.0
O175 O 0.95419 0.93349 0.92569 0.0
O176 O 0.90107 0.96274 0.92956 0.0
O177 O 0.8367 0.92714 0.92903 0.0
O178 O 0.87851 0.89119 0.93635 0.0
C179 C 0.90822 0.87379 0.88105 0.0
O180 O 0.8559 0.9471 0.87038 0.0
O181 O 0.92325 0.94174 0.86288 0.0
In182 In 0.86431 0.14756 0.67443 0.0
O183 O 0.81536 0.11943 0.64984 0.0
O184 O 0.81809 0.16402 0.63868 0.0
C185 C 0.88704 0.10825 0.71146 0.0
C186 C 0.94586 0.17018 0.65869 0.0
C187 C 0.80465 0.17137 0.70676 0.0
O188 O 0.88088 0.10165 0.68586 0.0
O189 O 0.88408 0.13508 0.71796 0.0
O190 O 0.84018 0.18445 0.70079 0.0
O191 O 0.80071 0.14503 0.69845 0.0
C192 C 0.79747 0.13948 0.6366 0.0
O193 O 0.91458 0.18495 0.66723 0.0
O194 O 0.93561 0.14317 0.65499 0.0
In195 In 0.56055 0.08372 0.40186 0.0
O196 O 0.49627 0.09355 0.38184 0.0
O197 O 0.54974 0.12414 0.37777 0.0
C198 C 0.53454 0.04497 0.43574 0.0
C199 C 0.58125 0.04961 0.35769 0.0
C200 C 0.59885 0.11459 0.44685 0.0
O201 O 0.50981 0.06407 0.42641 0.0
O202 O 0.5718 0.04354 0.42568 0.0
O203 O 0.6151 0.09477 0.43181 0.0
O204 O 0.56149 0.12091 0.43852 0.0
C205 C 0.51138 0.11656 0.37061 0.0
O206 O 0.6113 0.06123 0.37285 0.0
O207 O 0.54378 0.05502 0.3654 0.0
In208 In 0.61243 0.8679 0.16298 0.0
O209 O 0.55348 0.83291 0.15851 0.0
O210 O 0.54334 0.8692 0.13455 0.0
C211 C 0.66984 0.84308 0.19664 0.0
C212 C 0.68799 0.87535 0.12724 0.0
C213 C 0.58487 0.90406 0.20158 0.0
O214 O 0.6359 0.82942 0.1877 0.0
O215 O 0.67245 0.87016 0.1913 0.0
O216 O 0.59199 0.91207 0.17693 0.0
O217 O 0.59169 0.87765 0.20675 0.0
C218 C 0.52721 0.84437 0.14162 0.0
O219 O 0.66517 0.89535 0.13707 0.0
O220 O 0.67281 0.85079 0.13488 0.0
In221 In 0.86309 0.09677 0.58594 0.0
O222 O 0.79342 0.12906 0.57407 0.0
O223 O 0.73575 0.08563 0.56818 0.0
C224 C 0.92327 0.06657 0.56288 0.0
C225 C 0.88391 0.15432 0.58411 0.0
C226 C 0.84576 0.0499 0.62307 0.0
O227 O 0.88938 0.07338 0.54982 0.0
O228 O 0.93005 0.07889 0.58653 0.0
O229 O 0.86001 0.07551 0.6308 0.0
O230 O 0.84013 0.04764 0.5968 0.0
C231 C 0.73879 0.11389 0.56978 0.0
O232 O 0.88465 0.13948 0.60664 0.0
O233 O 0.87968 0.13896 0.5618 0.0
In234 In 0.60682 0.14735 0.32297 0.0
O235 O 0.67159 0.14022 0.34293 0.0
O236 O 0.61817 0.11303 0.35379 0.0
C237 C 0.63682 0.18449 0.28923 0.0
C238 C 0.59773 0.09976 0.28658 0.0
C239 C 0.57245 0.19465 0.35229 0.0
O240 O 0.65589 0.1763 0.31106 0.0
O241 O 0.60011 0.17257 0.28305 0.0
O242 O 0.55285 0.17062 0.34697 0.0
O243 O 0.61089 0.19463 0.34447 0.0
C244 C 0.65736 0.11965 0.35788 0.0
O245 O 0.56484 0.11103 0.29795 0.0
O246 O 0.63288 0.11335 0.29258 0.0
In247 In 0.60613 0.90161 0.08042 0.0
O248 O 0.56149 0.85689 0.0849 0.0
O249 O 0.6273 0.85649 0.09403 0.0
C250 C 0.57702 0.94261 0.05092 0.0
C251 C 0.61615 0.94263 0.12824 0.0
C252 C 0.64727 0.88693 0.03133 0.0
O253 O 0.5521 0.9218 0.05974 0.0
O254 O 0.61661 0.9429 0.05779 0.0
O255 O 0.66518 0.88911 0.05513 0.0
O256 O 0.60739 0.89162 0.03173 0.0
C257 C 0.59288 0.84148 0.09298 0.0
O258 O 0.64566 0.93771 0.11064 0.0
O259 O 0.58247 0.92679 0.12236 0.0
In260 In 0.84452 0.84495 0.80219 0.0
O261 O 0.87751 0.88489 0.78056 0.0
O262 O 0.8108 0.87369 0.77222 0.0
C263 C 0.88881 0.79606 0.81661 0.0
C264 C 0.80219 0.86292 0.84717 0.0
C265 C 0.80463 0.80879 0.77005 0.0
O266 O 0.90668 0.81637 0.80227 0.0
O267 O 0.85289 0.80277 0.82644 0.0
O268 O 0.78568 0.82332 0.78863 0.0
O269 O 0.84317 0.81621 0.76417 0.0
C270 C 0.84291 0.89031 0.76714 0.0
O271 O 0.78859 0.8424 0.8312 0.0
O272 O 0.83783 0.87523 0.84011 0.0
In273 In 0.35091 0.59156 0.08821 0.0
O274 O 0.30522 0.59231 0.05246 0.0
O275 O 0.27037 0.58873 0.08928 0.0
C276 C 0.41241 0.55926 0.06557 0.0
C277 C 0.39551 0.65072 0.08685 0.0
C278 C 0.32697 0.5494 0.12524 0.0
O279 O 0.37943 0.56699 0.05236 0.0
O280 O 0.4147 0.56748 0.09092 0.0
O281 O 0.33911 0.57525 0.13309 0.0
O282 O 0.32892 0.54469 0.09924 0.0
C283 C 0.26821 0.58737 0.06282 0.0
O284 O 0.38886 0.63586 0.1089 0.0
O285 O 0.38111 0.63553 0.06613 0.0
In286 In 0.09696 0.64691 0.81753 0.0
O287 O 0.1606 0.64124 0.84128 0.0
O288 O 0.10769 0.61426 0.85316 0.0
C289 C 0.1396 0.67811 0.78389 0.0
C290 C 0.08484 0.59925 0.78168 0.0
C291 C 0.07221 0.70268 0.83852 0.0
O292 O 0.1555 0.66317 0.80314 0.0
O293 O 0.09963 0.67431 0.77855 0.0
O294 O 0.05382 0.6892 0.81784 0.0
O295 O 0.09893 0.68672 0.85057 0.0
C296 C 0.14731 0.62131 0.85743 0.0
O297 O 0.05232 0.60917 0.79483 0.0
O298 O 0.11958 0.61356 0.78654 0.0
In299 In 0.11244 0.40565 0.58109 0.0
O300 O 0.06719 0.35866 0.57637 0.0
O301 O 0.11884 0.36313 0.60225 0.0
C302 C 0.07391 0.44334 0.55392 0.0
C303 C 0.12423 0.44452 0.62774 0.0
C304 C 0.1574 0.39969 0.53211 0.0
O305 O 0.05279 0.4221 0.56493 0.0
O306 O 0.11311 0.44741 0.56004 0.0
O307 O 0.17448 0.41221 0.5536 0.0
O308 O 0.12047 0.38841 0.53636 0.0
C309 C 0.09137 0.34536 0.59306 0.0
O310 O 0.15572 0.43676 0.61278 0.0
O311 O 0.08886 0.43164 0.62025 0.0
In312 In 0.11622 0.37199 0.66384 0.0
O313 O 0.04624 0.35625 0.64248 0.0
O314 O 0.04655 0.35711 0.64227 0.0
C315 C 0.17058 0.34272 0.6976 0.0
C316 C 0.1882 0.36772 0.62674 0.0
C317 C 0.08742 0.40658 0.70165 0.0
O318 O 0.13628 0.33106 0.68709 0.0
O319 O 0.17446 0.37018 0.69441 0.0
O320 O 0.10377 0.4162 0.67914 0.0
O321 O 0.08643 0.37912 0.70503 0.0
C322 C 0.01139 0.35895 0.62765 0.0
O323 O 0.17242 0.39135 0.63597 0.0
O324 O 0.16765 0.34546 0.63615 0.0
In325 In 0.35974 0.6488 0.17335 0.0
O326 O 0.40685 0.68874 0.17817 0.0
O327 O 0.43196 0.65041 0.15985 0.0
C328 C 0.29621 0.66745 0.20436 0.0
C329 C 0.31244 0.6546 0.12295 0.0
C330 C 0.38319 0.60664 0.20885 0.0
O331 O 0.33158 0.68167 0.20177 0.0
O332 O 0.2928 0.64293 0.19176 0.0
O333 O 0.37212 0.60049 0.18369 0.0
O334 O 0.38264 0.63344 0.21559 0.0
C335 C 0.44014 0.67626 0.16945 0.0
O336 O 0.31343 0.63094 0.13662 0.0
O337 O 0.33596 0.67447 0.13458 0.0
In338 In 0.67926 0.58244 0.61467 0.0
O339 O 0.75017 0.58394 0.59587 0.0
O340 O 0.70089 0.61072 0.57987 0.0
C341 C 0.66199 0.54753 0.65916 0.0
C342 C 0.65943 0.64507 0.61875 0.0
C343 C 0.63354 0.53493 0.58462 0.0
O344 O 0.70123 0.55594 0.65392 0.0
O345 O 0.63368 0.56059 0.64516 0.0
O346 O 0.61868 0.5504 0.60427 0.0
O347 O 0.6726 0.54267 0.58024 0.0
C348 C 0.73941 0.60356 0.57826 0.0
O349 O 0.65502 0.62844 0.5976 0.0
O350 O 0.67117 0.62968 0.63965 0.0
In351 In 0.79548 0.41315 0.11979 0.0
O352 O 0.83616 0.37261 0.13796 0.0
O353 O 0.78026 0.35799 0.12039 0.0
C354 C 0.84897 0.45212 0.08488 0.0
C355 C 0.73149 0.39305 0.08055 0.0
C356 C 0.81393 0.45467 0.16021 0.0
O357 O 0.86303 0.43453 0.10264 0.0
O358 O 0.80842 0.44841 0.08228 0.0
O359 O 0.77455 0.44556 0.15589 0.0
O360 O 0.84158 0.43915 0.14858 0.0
C361 C 0.81491 0.34943 0.13105 0.0
O362 O 0.7328 0.41909 0.09106 0.0
O363 O 0.7589 0.377 0.09166 0.0
In364 In 0.54849 0.6233 0.66311 0.0
O365 O 0.48038 0.64311 0.66427 0.0
O366 O 0.53233 0.66638 0.64407 0.0
C367 C 0.56531 0.58141 0.70134 0.0
C368 C 0.558 0.61855 0.60362 0.0
C369 C 0.60272 0.65298 0.70263 0.0
O370 O 0.52619 0.58803 0.69602 0.0
O371 O 0.59245 0.59127 0.68399 0.0
O372 O 0.61472 0.63298 0.68604 0.0
O373 O 0.56398 0.65984 0.69784 0.0
C374 C 0.49251 0.66497 0.64924 0.0
O375 O 0.58188 0.62999 0.62215 0.0
O376 O 0.53003 0.60207 0.61571 0.0
In377 In 0.38906 0.42348 0.4023 0.0
O378 O 0.4382 0.39521 0.38521 0.0
O379 O 0.37111 0.37987 0.3864 0.0
C380 C 0.43161 0.45575 0.43719 0.0
C381 C 0.38227 0.45327 0.35496 0.0
C382 C 0.34334 0.39968 0.44436 0.0
O383 O 0.44764 0.43312 0.42654 0.0
O384 O 0.39584 0.46386 0.42788 0.0
O385 O 0.33287 0.4232 0.43244 0.0
O386 O 0.37621 0.38783 0.43464 0.0
C387 C 0.40969 0.37528 0.37966 0.0
O388 O 0.35045 0.44901 0.37105 0.0
O389 O 0.41706 0.44238 0.36283 0.0
In390 In 0.06474 0.57916 0.9063 0.0
O391 O -0.00094 0.59211 0.89435 0.0
O392 O 0.05489 0.62176 0.89055 0.0
C393 C 0.03929 0.54006 0.93982 0.0
C394 C 0.08362 0.54923 0.85897 0.0
C395 C 0.10058 0.6137 0.9476 0.0
O396 O 0.0138 0.55553 0.92635 0.0
O397 O 0.07893 0.54209 0.9342 0.0
O398 O 0.11814 0.59564 0.93141 0.0
O399 O 0.06086 0.61542 0.9428 0.0
C400 C 0.01449 0.6169 0.88724 0.0
O401 O 0.11388 0.55788 0.87543 0.0
O402 O 0.04703 0.55772 0.86556 0.0
In403 In 0.33722 0.34753 0.30164 0.0
O404 O 0.28176 0.3453 0.3307 0.0
O405 O 0.33341 0.3768 0.33968 0.0
C406 C 0.29841 0.30952 0.27008 0.0
C407 C 0.33973 0.39422 0.26977 0.0
C408 C 0.3827 0.30228 0.31729 0.0
O409 O 0.27908 0.32322 0.28905 0.0
O410 O 0.33615 0.31832 0.26389 0.0
O411 O 0.39635 0.319 0.29809 0.0
O412 O 0.35159 0.31159 0.33117 0.0
C413 C 0.29747 0.36504 0.34692 0.0
O414 O 0.37414 0.38607 0.28173 0.0
O415 O 0.30593 0.37907 0.27465 0.0
H416 H 0.14789 0.02134 0.0333 0.0
H417 H 0.90952 0.97014 0.98934 0.0
H418 H 0.04647 0.01852 0.09461 0.0
H419 H 0.01693 0.97511 0.9345 0.0
H420 H 0.9552 0.99203 0.02882 0.0
H421 H 0.09581 0.00699 0.99634 0.0
C422 C 0.11474 0.01708 0.03937 0.0
C423 C 0.10218 0.02093 0.06724 0.0
C424 C 0.96874 0.98911 0.00818 0.0
C425 C 0.04035 0.00578 0.02535 0.0
C426 C 0.94304 0.97632 0.98549 0.0
C427 C 0.96135 0.97148 0.95918 0.0
C428 C 0.01066 0.99548 0.00308 0.0
C429 C 0.00222 0.9788 0.95471 0.0
C430 C 0.08418 0.01014 0.01851 0.0
C431 C 0.05801 0.01504 0.07352 0.0
N432 N 0.02676 0.98973 0.97607 0.0
N433 N 0.02854 0.00828 0.05267 0.0
H434 H 0.27549 0.66819 0.2592 0.0
H435 H 0.10897 0.79869 0.23749 0.0
H436 H 0.23867 0.70035 0.17841 0.0
H437 H 0.14565 0.76672 0.31846 0.0
H438 H 0.15625 0.76274 0.21546 0.0
H439 H 0.22633 0.70265 0.28147 0.0
C440 C 0.25586 0.68195 0.24624 0.0
C441 C 0.25986 0.68134 0.21718 0.0
C442 C 0.15358 0.76333 0.23807 0.0
C443 C 0.20504 0.72125 0.24208 0.0
C444 C 0.12631 0.78384 0.25067 0.0
C445 C 0.12236 0.78574 0.28002 0.0
C446 C 0.17664 0.74386 0.25477 0.0
C447 C 0.14686 0.7661 0.29585 0.0
C448 C 0.22838 0.70188 0.25884 0.0
C449 C 0.23527 0.69999 0.20099 0.0
N450 N 0.17248 0.74604 0.28313 0.0
N451 N 0.20905 0.71936 0.21366 0.0
H452 H 0.38508 0.01755 0.58419 0.0
H453 H 0.51856 0.98649 0.44231 0.0
H454 H 0.38083 0.94199 0.5275 0.0
H455 H 0.52497 0.07194 0.48463 0.0
H456 H 0.4738 0.96753 0.48011 0.0
H457 H 0.43877 0.03953 0.5513 0.0
C458 C 0.39449 0.00498 0.56596 0.0
C459 C 0.37809 0.97525 0.56109 0.0
C460 C 0.48611 0.99007 0.48164 0.0
C461 C 0.4398 0.00076 0.52433 0.0
C462 C 0.51027 0.0016 0.46033 0.0
C463 C 0.52356 0.0309 0.46108 0.0
C464 C 0.47219 0.01051 0.50367 0.0
C465 C 0.51459 0.04892 0.48411 0.0
C466 C 0.42554 0.01752 0.54731 0.0
C467 C 0.39254 0.96145 0.53617 0.0
N468 N 0.48862 0.03854 0.50456 0.0
N469 N 0.42321 0.97305 0.51975 0.0
H470 H 0.35371 0.25802 0.80535 0.0
H471 H 0.19234 0.28925 0.67829 0.0
H472 H 0.32028 0.19269 0.74189 0.0
H473 H 0.23209 0.35535 0.73954 0.0
H474 H 0.24313 0.25545 0.69885 0.0
H475 H 0.31403 0.2937 0.7806 0.0
C476 C 0.33995 0.25076 0.78581 0.0
C477 C 0.34337 0.22141 0.77576 0.0
C478 C 0.24085 0.27725 0.70798 0.0
C479 C 0.29323 0.26396 0.74696 0.0
C480 C 0.21168 0.2966 0.69627 0.0
C481 C 0.20607 0.32451 0.70827 0.0
C482 C 0.26527 0.28575 0.73194 0.0
C483 C 0.23404 0.33353 0.73037 0.0
C484 C 0.31576 0.27174 0.77169 0.0
C485 C 0.3199 0.21471 0.75076 0.0
N486 N 0.26179 0.31404 0.74183 0.0
N487 N 0.29608 0.23553 0.73746 0.0
H488 H 0.05462 0.97713 0.43322 0.0
H489 H 0.0027 0.05416 0.58071 0.0
H490 H 0.15273 0.99814 0.49569 0.0
H491 H 0.90834 0.03208 0.51732 0.0
H492 H 0.05711 0.03159 0.55126 0.0
H493 H -0.00123 0.00023 0.46333 0.0
C494 C 0.0647 0.98655 0.45332 0.0
C495 C 0.10784 0.98548 0.46232 0.0
C496 C 0.02395 0.03165 0.54389 0.0
C497 C 0.04447 0.01068 0.49726 0.0
C498 C -0.00702 0.04421 0.56076 0.0
C499 C 0.95316 0.0465 0.55033 0.0
C500 C 0.01198 0.02096 0.51706 0.0
C501 C 0.94123 0.03208 0.52524 0.0
C502 C 0.03202 9e-05 0.47054 0.0
C503 C 0.11965 0.99841 0.4882 0.0
N504 N 0.97193 0.02041 0.50906 0.0
N505 N 0.08691 0.01073 0.50503 0.0
H506 H 0.2643 0.82853 0.7061 0.0
H507 H 0.2244 0.68077 0.78837 0.0
H508 H 0.36248 0.77538 0.74221 0.0
H509 H 0.11628 0.72918 0.7578 0.0
H510 H 0.27238 0.72013 0.77642 0.0
H511 H 0.20835 0.79589 0.72646 0.0
C512 C 0.27414 0.81025 0.71865 0.0
C513 C 0.31843 0.80511 0.72297 0.0
C514 C 0.2384 0.72235 0.77171 0.0
C515 C 0.25448 0.7679 0.74621 0.0
C516 C 0.2107 0.69964 0.77841 0.0
C517 C 0.16663 0.70117 0.77259 0.0
C518 C 0.22268 0.74655 0.75776 0.0
C519 C 0.15064 0.72667 0.76092 0.0
C520 C 0.2421 0.79171 0.73021 0.0
C521 C 0.32907 0.78061 0.73865 0.0
N522 N 0.17912 0.74853 0.75324 0.0
N523 N 0.29742 0.76309 0.7497 0.0
H524 H 0.4199 0.99187 0.9118 0.0
H525 H 0.53584 0.9906 0.06282 0.0
H526 H 0.37798 0.03863 0.98634 0.0
H527 H 0.57959 0.93525 0.99371 0.0
H528 H 0.47784 0.01017 0.0329 0.0
H529 H 0.47672 0.96827 0.93956 0.0
C530 C 0.42285 0.99667 0.93404 0.0
C531 C 0.39419 0.01863 0.94672 0.0
C532 C 0.50199 0.99369 0.02393 0.0
C533 C 0.46079 0.99097 0.97825 0.0
C534 C 0.5346 0.98388 0.0409 0.0
C535 C 0.56121 0.96251 0.03076 0.0
C536 C 0.49765 0.98134 0.99553 0.0
C537 C 0.55855 0.9536 0.00256 0.0
C538 C 0.45528 0.98327 0.94979 0.0
C539 C 0.39851 0.02342 0.9756 0.0
N540 N 0.52692 0.96223 0.98528 0.0
N541 N 0.43035 0.01056 0.99022 0.0
H542 H 0.28726 0.29375 0.21618 0.0
H543 H 0.11171 0.16652 0.25252 0.0
H544 H 0.26762 0.26522 0.30096 0.0
H545 H 0.1395 0.20215 0.17196 0.0
H546 H 0.16829 0.20085 0.27296 0.0
H547 H 0.23601 0.25549 0.19985 0.0
C548 C 0.27289 0.27866 0.2311 0.0
C549 C 0.27987 0.28245 0.25958 0.0
C550 C 0.16173 0.20083 0.25063 0.0
C551 C 0.22137 0.23935 0.24187 0.0
C552 C 0.12937 0.18156 0.23908 0.0
C553 C 0.12138 0.18134 0.20997 0.0
C554 C 0.18589 0.21919 0.23258 0.0
C555 C 0.14506 0.20094 0.19372 0.0
C556 C 0.24318 0.25714 0.22208 0.0
C557 C 0.26135 0.26272 0.27865 0.0
N558 N 0.17605 0.21883 0.20499 0.0
N559 N 0.23206 0.24198 0.26948 0.0
H560 H 0.45067 0.58351 0.02145 0.0
H561 H 0.60211 0.44572 0.99177 0.0
H562 H 0.45602 0.5086 0.07534 0.0
H563 H 0.60144 0.52175 0.9391 0.0
H564 H 0.55117 0.47074 0.0242 0.0
H565 H 0.50801 0.56179 0.99175 0.0
C566 C 0.4642 0.56275 0.02718 0.0
C567 C 0.44894 0.54754 0.05051 0.0
C568 C 0.56193 0.48239 0.00578 0.0
C569 C 0.51363 0.52403 0.01758 0.0
C570 C 0.59127 0.46748 0.98691 0.0
C571 C 0.6056 0.48158 0.96262 0.0
C572 C 0.54664 0.51023 -0.00051 0.0
C573 C 0.59106 0.51002 0.95756 0.0
C574 C 0.49653 0.55119 0.01071 0.0
C575 C 0.46732 0.52094 0.05744 0.0
N576 N 0.56224 0.52258 0.97527 0.0
N577 N 0.49858 0.50986 0.04083 0.0
H578 H 0.8633 0.27142 0.2341 0.0
H579 H 0.61213 0.23724 0.26765 0.0
H580 H 0.76551 0.33238 0.21215 0.0
H581 H 0.71724 0.17825 0.2768 0.0
H582 H 0.66475 0.27537 0.25073 0.0
H583 H 0.8081 0.24028 0.2561 0.0
C584 C 0.83023 0.27841 0.23409 0.0
C585 C 0.81908 0.30423 0.22043 0.0
C586 C 0.67583 0.25391 0.25628 0.0
C587 C 0.75478 0.26848 0.24583 0.0
C588 C 0.64581 0.23216 0.26508 0.0
C589 C 0.66072 0.20456 0.27208 0.0
C590 C 0.72032 0.24762 0.2556 0.0
C591 C 0.70461 0.19913 0.27051 0.0
C592 C 0.79842 0.26054 0.24663 0.0
C593 C 0.77544 0.31225 0.2217 0.0
N594 N 0.73271 0.22051 0.26288 0.0
N595 N 0.74483 0.29438 0.23392 0.0
H596 H 0.07399 0.50109 0.54408 0.0
H597 H 0.88072 0.4698 0.43819 0.0
H598 H 0.04063 0.41525 0.50926 0.0
H599 H 0.92094 0.5552 0.47185 0.0
H600 H 0.94374 0.44882 0.46106 0.0
H601 H 0.02398 0.52264 0.51117 0.0
C602 C 0.05674 0.48713 0.5288 0.0
C603 C 0.05768 0.4568 0.52991 0.0
C604 C 0.93856 0.47215 0.46332 0.0
C605 C 0.00245 0.48014 0.49286 0.0
C606 C 0.90255 0.48383 0.45074 0.0
C607 C 0.89587 0.51382 0.45396 0.0
C608 C 0.96753 0.49105 0.47842 0.0
C609 C 0.92521 0.53177 0.46931 0.0
C610 C 0.02812 0.49911 0.51031 0.0
C611 C 0.03755 0.43891 0.50943 0.0
N612 N 0.95986 0.52002 0.48113 0.0
N613 N 0.00932 0.45089 0.49184 0.0
H614 H 0.83368 0.70044 0.23734 0.0
H615 H 0.71794 0.85553 0.24424 0.0
H616 H 0.84181 0.76018 0.30816 0.0
H617 H 0.70619 0.79579 0.17352 0.0
H618 H 0.76912 0.82261 0.26617 0.0
H619 H 0.78865 0.73543 0.21247 0.0
C620 C 0.8263 0.72116 0.24738 0.0
C621 C 0.84212 0.7282 0.27429 0.0
C622 C 0.75557 0.81675 0.24576 0.0
C623 C 0.7914 0.76799 0.24641 0.0
C624 C 0.72666 0.83561 0.23327 0.0
C625 C 0.70649 0.82731 0.20791 0.0
C626 C 0.76498 0.79001 0.23227 0.0
C627 C 0.71981 0.80202 0.19384 0.0
C628 C 0.80068 0.74103 0.23332 0.0
C629 C 0.83085 0.75458 0.28706 0.0
N630 N 0.74795 0.784 0.20633 0.0
N631 N 0.80633 0.77365 0.27294 0.0
H632 H 0.73448 0.15165 0.73875 0.0
H633 H 0.66411 0.31855 0.76318 0.0
H634 H 0.7903 0.2277 0.69803 0.0
H635 H 0.58497 0.24577 0.79165 0.0
H636 H 0.70903 0.28388 0.73809 0.0
H637 H 0.67905 0.18339 0.75939 0.0
C638 C 0.73502 0.17492 0.73421 0.0
C639 C 0.76822 0.18762 0.71793 0.0
C640 C 0.68264 0.27526 0.7506 0.0
C641 C 0.70511 0.22343 0.74052 0.0
C642 C 0.65683 0.2952 0.76489 0.0
C643 C 0.62248 0.28515 0.78163 0.0
C644 C 0.67536 0.24474 0.75376 0.0
C645 C 0.61342 0.25452 0.78149 0.0
C646 C 0.70351 0.19295 0.7459 0.0
C647 C 0.76661 0.21738 0.71161 0.0
N648 N 0.64053 0.23536 0.76885 0.0
N649 N 0.73607 0.23419 0.72306 0.0
H650 H 0.77302 0.76729 0.80355 0.0
H651 H 0.68553 0.67309 0.6853 0.0
H652 H 0.79077 0.79031 0.71703 0.0
H653 H 0.60668 0.67535 0.75825 0.0
H654 H 0.7106 0.72204 0.69366 0.0
H655 H 0.71517 0.73184 0.78965 0.0
C656 C 0.76512 0.76411 0.78149 0.0
C657 C 0.78509 0.78158 0.76107 0.0
C658 C 0.68798 0.71235 0.70836 0.0
C659 C 0.71933 0.74281 0.74564 0.0
C660 C 0.67045 0.68508 0.70206 0.0
C661 C 0.63511 0.67362 0.71704 0.0
C662 C 0.68548 0.72182 0.73593 0.0
C663 C 0.63061 0.68485 0.74437 0.0
C664 C 0.73162 0.7447 0.77382 0.0
C665 C 0.77544 0.77707 0.73305 0.0
N666 N 0.6578 0.7074 0.75375 0.0
N667 N 0.74242 0.75825 0.72612 0.0
H668 H 0.46248 0.51098 0.44265 0.0
H669 H 0.58773 0.48035 0.58718 0.0
H670 H 0.44363 0.42905 0.48573 0.0
H671 H 0.61272 0.54772 0.52686 0.0
H672 H 0.53242 0.45978 0.55344 0.0
H673 H 0.50988 0.52884 0.48061 0.0
C674 C 0.46772 0.49725 0.46068 0.0
C675 C 0.45061 0.46884 0.46165 0.0
C676 C 0.5486 0.48072 0.54931 0.0
C677 C 0.50399 0.48824 0.50475 0.0
C678 C 0.58065 0.49229 0.56834 0.0
C679 C 0.60338 0.51904 0.56292 0.0
C680 C 0.53685 0.49735 0.52593 0.0
C681 C 0.59282 0.53208 0.53704 0.0
C682 C 0.49497 0.50705 0.48218 0.0
C683 C 0.45755 0.4512 0.48486 0.0
N684 N 0.55965 0.52222 0.52082 0.0
N685 N 0.48436 0.46112 0.5057 0.0
H686 H 0.02598 0.48277 0.94842 0.0
H687 H 0.86849 0.51369 0.07876 0.0
H688 H 0.01294 0.56926 0.98445 0.0
H689 H 0.90671 0.43073 0.04892 0.0
H690 H 0.91966 0.5369 0.04501 0.0
H691 H 0.97846 0.46303 0.98341 0.0
C692 C 0.01392 0.49719 0.96464 0.0
C693 C 0.0238 0.52703 0.96471 0.0
C694 C 0.91446 0.51324 0.04472 0.0
C695 C 0.96788 0.50697 0.0046 0.0
C696 C 0.88514 0.49993 0.06398 0.0
C697 C 0.8784 0.46898 0.06444 0.0
C698 C 0.93621 0.49548 0.02532 0.0
C699 C 0.90384 0.45315 0.046 0.0
C700 C -0.0151 0.48628 0.9842 0.0
C701 C 0.00629 0.54571 0.98485 0.0
N702 N 0.93012 0.46605 0.02693 0.0
N703 N 0.97956 0.53608 0.00446 0.0
H704 H 0.19785 0.98859 0.16176 0.0
H705 H 0.03655 0.94622 0.28684 0.0
H706 H 0.08538 0.03823 0.18306 0.0
H707 H 0.11492 0.8812 0.24777 0.0
H708 H 0.06152 0.98198 0.25214 0.0
H709 H 0.16947 0.94796 0.19127 0.0
C710 C 0.16924 0.99174 0.17415 0.0
C711 C 0.14691 0.02008 0.17396 0.0
C712 C 0.07268 0.95972 0.25072 0.0
C713 C 0.11691 0.973 0.20817 0.0
C714 C 0.05818 0.93932 0.27049 0.0
C715 C 0.07299 0.91075 0.2699 0.0
C716 C 0.10161 0.95134 0.22962 0.0
C717 C 0.10235 0.9031 0.24874 0.0
C718 C 0.15286 0.96849 0.19085 0.0
C719 C 0.10648 0.02067 0.18702 0.0
N720 N 0.11556 0.92324 0.22936 0.0
N721 N 0.09501 0.99805 0.20477 0.0
H722 H 0.17343 0.84898 0.57145 0.0
H723 H 0.1065 0.89902 0.41627 0.0
H724 H 0.2315 0.91856 0.52354 0.0
H725 H 0.04425 0.82158 0.44542 0.0
H726 H 0.16314 0.89244 0.45234 0.0
H727 H 0.12972 0.8329 0.52936 0.0
C728 C 0.17651 0.86125 0.55226 0.0
C729 C 0.20493 0.88631 0.55151 0.0
C730 C 0.13507 0.87928 0.45266 0.0
C731 C 0.15627 0.8669 0.5024 0.0
C732 C 0.10446 0.88163 0.43084 0.0
C733 C 0.07295 0.86016 0.42521 0.0
C734 C 0.12817 0.86107 0.47536 0.0
C735 C 0.06834 0.83927 0.44756 0.0
C736 C 0.15198 0.85167 0.52798 0.0
C737 C 0.20931 0.89985 0.52557 0.0
N738 N 0.09382 0.84122 0.4721 0.0
N739 N 0.18561 0.89021 0.50268 0.0
H740 H 0.34018 0.07754 0.79154 0.0
H741 H 0.38944 0.98971 0.64824 0.0
H742 H 0.45078 0.10181 0.74173 0.0
H743 H 0.28408 0.97031 0.70402 0.0
H744 H 0.4103 0.0331 0.67876 0.0
H745 H 0.31842 0.0407 0.75704 0.0
C746 C 0.36046 0.07479 0.77337 0.0
C747 C 0.39889 0.09154 0.77045 0.0
C748 C 0.38233 0.01955 0.68433 0.0
C749 C 0.3725 0.04964 0.72937 0.0
C750 C 0.37121 0.99415 0.667 0.0
C751 C 0.33486 0.97582 0.67376 0.0
C752 C 0.35931 0.02543 0.70888 0.0
C753 C 0.31222 0.98336 0.69791 0.0
C754 C 0.34763 0.05378 0.75338 0.0
C755 C 0.42219 0.08815 0.74553 0.0
N756 N 0.32403 0.00772 0.71454 0.0
N757 N 0.40871 0.0674 0.72587 0.0
H758 H 0.43367 0.10633 0.95166 0.0
H759 H 0.22209 0.15246 0.04137 0.0
H760 H 0.31482 0.14237 0.92183 0.0
H761 H 0.30384 0.08073 0.06131 0.0
H762 H 0.26882 0.16366 0.00049 0.0
H763 H 0.39547 0.10448 0.99693 0.0
C764 C 0.40204 0.11559 0.95295 0.0
C765 C 0.38364 0.12775 0.9286 0.0
C766 C 0.27695 0.14603 0.0144 0.0
C767 C 0.34048 0.12872 0.98279 0.0
C768 C 0.25031 0.1396 0.03756 0.0
C769 C 0.25991 0.11572 0.05496 0.0
C770 C 0.31332 0.12852 0.0093 0.0
C771 C 0.29601 0.09958 0.04891 0.0
C772 C 0.3804 0.11498 0.97935 0.0
C773 C 0.33872 0.13471 0.93438 0.0
N774 N 0.32096 0.10615 0.02669 0.0
N775 N 0.32134 0.13794 0.95983 0.0
H776 H 0.02194 0.07598 0.25712 0.0
H777 H 0.21858 0.98341 0.32093 0.0
H778 H 0.14468 0.06813 0.21655 0.0
H779 H 0.10462 0.00787 0.36808 0.0
H780 H 0.18878 0.01191 0.28089 0.0
H781 H 0.05172 0.05149 0.29826 0.0
C782 C 0.05465 0.06837 0.25651 0.0
C783 C 0.0793 0.07165 0.23227 0.0
C784 C 0.17076 0.01159 0.30022 0.0
C785 C 0.11372 0.04342 0.27909 0.0
C786 C 0.18889 0.99512 0.32307 0.0
C787 C 0.16567 0.99387 0.34797 0.0
C788 C 0.13146 0.02614 0.3026 0.0
C789 C 0.12408 0.00913 0.34936 0.0
C790 C 0.07178 0.05445 0.28 0.0
C791 C 0.12309 0.06384 0.23381 0.0
N792 N 0.10934 0.02422 0.32706 0.0
N793 N 0.13839 0.04918 0.25627 0.0
H794 H 0.42052 0.91736 0.58752 0.0
H795 H 0.25642 0.86305 0.46425 0.0
H796 H 0.39999 0.8248 0.58319 0.0
H797 H 0.30467 0.9496 0.48775 0.0
H798 H 0.3004 0.84197 0.50294 0.0
H799 H 0.3556 0.91678 0.55631 0.0
C800 C 0.4061 0.89774 0.57786 0.0
C801 C 0.40939 0.87153 0.59108 0.0
C802 C 0.30208 0.86537 0.49925 0.0
C803 C 0.35822 0.876 0.54125 0.0
C804 C 0.27724 0.87754 0.47702 0.0
C805 C 0.27877 0.90827 0.47175 0.0
C806 C 0.32829 0.88424 0.51638 0.0
C807 C 0.30366 0.9259 0.48972 0.0
C808 C 0.37522 0.8993 0.55672 0.0
C809 C 0.39372 0.84626 0.57523 0.0
N810 N 0.32631 0.91354 0.51059 0.0
N811 N 0.36897 0.84888 0.55075 0.0
H812 H 0.37152 0.04128 0.82015 0.0
H813 H 0.34899 0.87946 0.75548 0.0
H814 H 0.28785 0.9751 0.85722 0.0
H815 H 0.42454 0.95216 0.72243 0.0
H816 H 0.32389 0.9119 0.79349 0.0
H817 H 0.3898 0.00691 0.78457 0.0
C818 C 0.35572 0.01968 0.8202 0.0
C819 C 0.32522 0.01187 0.84018 0.0
C820 C 0.34618 0.92047 0.77801 0.0
C821 C 0.3495 0.97034 0.80035 0.0
C822 C 0.36071 0.90218 0.7568 0.0
C823 C 0.39051 0.91355 0.73734 0.0
C824 C 0.36123 0.94983 0.7786 0.0
C825 C 0.40339 0.94276 0.73815 0.0
C826 C 0.36642 -0.00015 0.80003 0.0
C827 C 0.30995 0.98194 0.84093 0.0
N828 N 0.38853 0.96 0.75857 0.0
N829 N 0.32149 0.96234 0.82093 0.0
H830 H 0.24132 0.0527 0.99004 0.0
H831 H 0.08304 0.15983 0.07208 0.0
H832 H 0.20672 0.13126 0.94748 0.0
H833 H 0.06419 0.06802 0.06824 0.0
H834 H 0.13047 0.1573 0.03009 0.0
H835 H 0.18875 0.06524 0.02749 0.0
C836 C 0.22241 0.07221 0.98841 0.0
C837 C 0.22654 0.09033 0.96523 0.0
C838 C 0.1174 0.13722 0.0391 0.0
C839 C 0.16628 0.10487 0.0081 0.0
C840 C 0.08967 0.13858 0.06297 0.0
C841 C 0.07468 0.11231 0.07637 0.0
C842 C 0.13107 0.10955 0.0294 0.0
C843 C 0.08236 0.08682 0.06193 0.0
C844 C 0.19186 0.07988 0.00997 0.0
C845 C 0.20278 0.11612 0.96464 0.0
N846 N 0.11161 0.08541 0.04081 0.0
N847 N 0.17374 0.12198 0.98534 0.0
H848 H 0.96832 0.26154 0.18314 0.0
H849 H 0.18461 0.20781 0.10994 0.0
H850 H 0.03357 0.31974 0.12695 0.0
H851 H 0.07498 0.15721 0.12505 0.0
H852 H 0.13853 0.25174 0.11733 0.0
H853 H 0.01663 0.22307 0.17163 0.0
C854 C -0.00815 0.26609 0.16844 0.0
C855 C -0.00262 0.29388 0.15694 0.0
C856 C 0.12608 0.23 0.12251 0.0
C857 C 0.05455 0.25002 0.14267 0.0
C858 C 0.15243 0.20485 0.11828 0.0
C859 C 0.13648 0.17627 0.12528 0.0
C860 C 0.08467 0.22627 0.13485 0.0
C861 C 0.09267 0.17529 0.13095 0.0
C862 C 0.02057 0.24422 0.16169 0.0
C863 C 0.02993 0.29868 0.1371 0.0
N864 N 0.06931 0.19864 0.13763 0.0
N865 N 0.05756 0.27692 0.1306 0.0
H866 H 0.65516 0.33288 0.92842 0.0
H867 H 0.54713 0.21675 0.82492 0.0
H868 H 0.69173 0.32821 0.84358 0.0
H869 H 0.5036 0.22825 0.90978 0.0
H870 H 0.60636 0.25263 0.83495 0.0
H871 H 0.59225 0.30124 0.91993 0.0
C872 C 0.64671 0.32795 0.90705 0.0
C873 C 0.66961 0.34095 0.88456 0.0
C874 C 0.58301 0.24766 0.85074 0.0
C875 C 0.61616 0.28885 0.87943 0.0
C876 C 0.54971 0.22695 0.84552 0.0
C877 C 0.52033 0.2195 0.86658 0.0
C878 C 0.58584 0.26258 0.87628 0.0
C879 C 0.52562 0.23341 0.8929 0.0
C880 C 0.61398 0.3066 0.90296 0.0
C881 C 0.67141 0.32216 0.86103 0.0
N882 N 0.55731 0.25476 0.89691 0.0
N883 N 0.64636 0.2964 0.8596 0.0
H884 H 0.78494 0.65387 0.35523 0.0
H885 H 0.00587 0.78428 0.39422 0.0
H886 H 0.9444 0.62142 0.39836 0.0
H887 H 0.89482 0.7958 0.34278 0.0
H888 H 0.9778 0.73616 0.40912 0.0
H889 H 0.82146 0.72125 0.3611 0.0
C890 C 0.81788 0.65888 0.36188 0.0
C891 C 0.85954 0.62492 0.37384 0.0
C892 C 0.9597 0.7497 0.39508 0.0
C893 C 0.90467 0.71063 0.3848 0.0
C894 C 0.97658 0.77671 0.3865 0.0
C895 C 0.95409 0.79292 0.36665 0.0
C896 C 0.92023 0.74007 0.38372 0.0
C897 C 0.91329 0.78329 0.3575 0.0
C898 C 0.8411 0.70316 0.36714 0.0
C899 C 0.92285 0.63787 0.39088 0.0
N900 N 0.89753 0.75713 0.3663 0.0
N901 N 0.93812 0.67832 0.39474 0.0
H902 H 0.87445 0.32595 0.08669 0.0
H903 H 0.92267 0.18567 0.17778 0.0
H904 H 0.8034 0.29644 0.1591 0.0
H905 H -0.01453 0.19566 0.09894 0.0
H906 H 0.8836 0.22919 0.16885 0.0
H907 H 0.9158 0.28295 0.08756 0.0
C908 C 0.86701 0.3119 0.10377 0.0
C909 C 0.83603 0.31855 0.12531 0.0
C910 C 0.90567 0.22202 0.15292 0.0
C911 C 0.88498 0.26509 0.12427 0.0
C912 C 0.92826 0.19684 0.15819 0.0
C913 C 0.95781 0.18633 0.13912 0.0
C914 C 0.91172 0.2378 0.12814 0.0
C915 C 0.96418 0.20255 0.11411 0.0
C916 C 0.89153 0.286 0.10345 0.0
C917 C 0.82822 0.29491 0.14345 0.0
N918 N 0.94142 0.22766 0.1093 0.0
N919 N 0.85273 0.27034 0.14289 0.0
H920 H 0.45874 0.68001 0.59715 0.0
H921 H 0.32629 0.81406 0.66353 0.0
H922 H 0.46839 0.7093 0.683 0.0
H923 H 0.32195 0.79879 0.5771 0.0
H924 H 0.37771 0.77413 0.67037 0.0
H925 H 0.41174 0.72186 0.58692 0.0
C926 C 0.45016 0.69487 0.61398 0.0
C927 C 0.4646 0.68985 0.64163 0.0
C928 C 0.36688 0.77963 0.64955 0.0
C929 C 0.41112 0.73802 0.62997 0.0
C930 C 0.33995 0.80386 0.64614 0.0
C931 C 0.32633 0.81419 0.62036 0.0
C932 C 0.37913 0.76295 0.62627 0.0
C933 C 0.33416 0.79409 0.5978 0.0
C934 C 0.42341 0.71883 0.60809 0.0
C935 C 0.4554 0.71102 0.66196 0.0
N936 N 0.36029 0.77 0.60113 0.0
N937 N 0.42915 0.73366 0.65587 0.0
H938 H 0.03901 0.69643 0.39453 0.0
H939 H 0.14288 0.85325 0.34897 0.0
H940 H 0.02639 0.74786 0.32031 0.0
H941 H 0.18887 0.82828 0.42912 0.0
H942 H 0.10675 0.80442 0.34613 0.0
H943 H 0.09368 0.7341 0.41357 0.0
C944 C 0.04856 0.71496 0.38175 0.0
C945 C 0.028 0.71836 0.35504 0.0
C946 C 0.12717 0.80901 0.36252 0.0
C947 C 0.09189 0.76155 0.37666 0.0
C948 C 0.14685 0.83704 0.36499 0.0
C949 C 0.16885 0.84542 0.3889 0.0
C950 C 0.12441 0.78851 0.38341 0.0
C951 C 0.17136 0.82315 0.40985 0.0
C952 C 0.07981 0.73672 0.3929 0.0
C953 C 0.04076 0.74321 0.34048 0.0
N954 N 0.14845 0.79599 0.40712 0.0
N955 N 0.07091 0.7625 0.35126 0.0
H956 H 0.35996 0.17766 0.91788 0.0
H957 H 0.45857 0.27231 0.81265 0.0
H958 H 0.28806 0.17642 0.83924 0.0
H959 H 0.45817 0.29672 0.90003 0.0
H960 H 0.40516 0.23465 0.82279 0.0
H961 H 0.39621 0.21531 0.90869 0.0
C962 C 0.34826 0.18216 0.89787 0.0
C963 C 0.32236 0.16574 0.87674 0.0
C964 C 0.4137 0.24949 0.83874 0.0
C965 C 0.36409 0.22227 0.86994 0.0
C966 C 0.44523 0.27059 0.83351 0.0
C967 C 0.46016 0.28871 0.85522 0.0
C968 C 0.39466 0.24725 0.86465 0.0
C969 C 0.44493 0.28404 0.88239 0.0
C970 C 0.37164 0.20747 0.89353 0.0
C971 C 0.31099 0.18439 0.85508 0.0
N972 N 0.4123 0.26372 0.88642 0.0
N973 N 0.33265 0.21137 0.85168 0.0
H974 H 0.92034 0.05414 0.70516 0.0
H975 H 0.84552 0.00377 0.85672 0.0
H976 H 0.86187 0.11147 0.7656 0.0
H977 H 0.9291 0.95068 0.80432 0.0
H978 H 0.84804 0.04255 0.82219 0.0
H979 H 0.92008 0.01516 0.73992 0.0
C980 C 0.9079 0.05851 0.72589 0.0
C981 C 0.89139 0.08585 0.73275 0.0
C982 C 0.86501 0.02258 0.81798 0.0
C983 C 0.89047 0.04171 0.77222 0.0
C984 C 0.86319 0.0004 0.83751 0.0
C985 C 0.8871 0.97342 0.83271 0.0
C986 C 0.88847 0.01859 0.79332 0.0
C987 C 0.91131 0.97036 0.80833 0.0
C988 C 0.90777 0.03638 0.74567 0.0
C989 C 0.87539 0.09066 0.75972 0.0
N990 N 0.91186 0.9921 0.78915 0.0
N991 N 0.87502 0.06864 0.77849 0.0
H992 H 0.64057 0.17738 0.47124 0.0
H993 H 0.77997 0.0748 0.61369 0.0
H994 H 0.61472 0.06967 0.48444 0.0
H995 H 0.74745 0.18396 0.59618 0.0
H996 H 0.81203 0.07312 0.54037 0.0
H997 H 0.72412 0.18068 0.49941 0.0
C998 C 0.65332 0.15742 0.47962 0.0
C999 C 0.62091 0.12321 0.47448 0.0
C1000 C 0.79839 0.09204 0.55073 0.0
C1001 C 0.72808 0.12613 0.51346 0.0
C1002 C 0.7836 0.09348 0.60027 0.0
C1003 C 0.76604 0.13138 0.61386 0.0
C1004 C 0.77485 0.12906 0.53106 0.0
C1005 C 0.75288 0.16224 0.58769 0.0
C1006 C 0.70658 0.15977 0.49741 0.0
C1007 C 0.63405 0.0894 0.48927 0.0
N1008 N 0.75934 0.15868 0.55167 0.0
N1009 N 0.67894 0.08665 0.50673 0.0
H1010 H 0.5195 0.94022 0.21382 0.0
H1011 H 0.65254 0.01866 0.34066 0.0
H1012 H 0.64753 0.91592 0.23839 0.0
H1013 H 0.52148 0.03841 0.31782 0.0
H1014 H 0.65493 0.98166 0.30143 0.0
H1015 H 0.52102 0.97746 0.25163 0.0
C1016 C 0.54759 0.94278 0.22746 0.0
C1017 C 0.58308 0.92522 0.22398 0.0
C1018 C 0.62612 0.99387 0.30525 0.0
C1019 C 0.58589 0.96723 0.26605 0.0
C1020 C 0.62418 0.01558 0.32735 0.0
C1021 C 0.58671 0.03099 0.33269 0.0
C1022 C 0.58848 0.9892 0.28871 0.0
C1023 C 0.55077 0.02649 0.3148 0.0
C1024 C 0.54868 0.96384 0.24885 0.0
C1025 C 0.61935 0.92904 0.24134 0.0
N1026 N 0.55145 0.00646 0.29377 0.0
N1027 N 0.61998 0.94987 0.26172 0.0
H1028 H 0.83001 0.85134 0.9675 0.0
H1029 H 0.72145 0.92698 0.10353 0.0
H1030 H 0.81132 0.94416 0.97868 0.0
H1031 H 0.7212 0.83289 0.09123 0.0
H1032 H 0.7544 0.93314 0.05766 0.0
H1033 H 0.79236 0.84376 0.0131 0.0
C1034 C 0.81823 0.86974 0.97952 0.0
C1035 C 0.82309 0.89848 0.96958 0.0
C1036 C 0.74854 0.91108 0.0653 0.0
C1037 C 0.7818 0.89004 0.0216 0.0
C1038 C 0.72911 0.9075 0.09167 0.0
C1039 C 0.71777 0.8793 0.10192 0.0
C1040 C 0.75996 0.88634 0.04936 0.0
C1041 C 0.72963 0.85508 0.0849 0.0
C1042 C 0.79665 0.86606 0.00579 0.0
C1043 C 0.80753 0.92164 0.98558 0.0
N1044 N 0.75017 0.85913 0.05977 0.0
N1045 N 0.78769 0.91765 0.01122 0.0
H1046 H 0.84725 0.05349 0.67953 0.0
H1047 H 0.81649 0.88143 0.71322 0.0
H1048 H 0.81112 0.99088 0.61398 0.0
H1049 H 0.8544 0.94953 0.77227 0.0
H1050 H 0.8069 0.91889 0.67696 0.0
H1051 H 0.83939 0.01514 0.71351 0.0
C1052 C 0.8381 0.03175 0.67211 0.0
C1053 C 0.83265 0.02601 0.64347 0.0
C1054 C 0.81803 0.92566 0.69771 0.0
C1055 C 0.82475 0.97953 0.68313 0.0
C1056 C 0.82384 0.90436 0.71832 0.0
C1057 C 0.83944 0.91254 0.74517 0.0
C1058 C 0.82717 0.95545 0.70431 0.0
C1059 C 0.84613 0.94235 0.75129 0.0
C1060 C 0.83357 0.00956 0.6917 0.0
C1061 C 0.81843 0.99622 0.63573 0.0
N1062 N 0.84035 0.96261 0.73105 0.0
N1063 N 0.81482 0.9744 0.65539 0.0
H1064 H 0.76144 0.05467 0.51648 0.0
H1065 H 0.6464 0.16215 0.39329 0.0
H1066 H 0.65681 0.12251 0.56337 0.0
H1067 H 0.70531 0.0782 0.38526 0.0
H1068 H 0.684 0.16903 0.4366 0.0
H1069 H 0.75612 0.07935 0.46373 0.0
C1070 C 0.74487 0.0752 0.51528 0.0
C1071 C 0.71611 0.09013 0.54764 0.0
C1072 C 0.68096 0.14682 0.42856 0.0
C1073 C 0.69635 0.11466 0.47412 0.0
C1074 C 0.66334 0.14391 0.40217 0.0
C1075 C 0.67254 0.11933 0.38618 0.0
C1076 C 0.69508 0.12132 0.44243 0.0
C1077 C 0.69641 0.09708 0.39769 0.0
C1078 C 0.73759 0.08842 0.48069 0.0
C1079 C 0.67268 0.11419 0.54488 0.0
N1080 N 0.70515 0.09812 0.42561 0.0
N1081 N 0.66051 0.12731 0.51446 0.0
H1082 H 0.67564 0.949 0.17547 0.0
H1083 H 0.53641 0.08123 0.24657 0.0
H1084 H 0.56311 0.98759 0.13994 0.0
H1085 H 0.65833 0.05743 0.28195 0.0
H1086 H 0.54362 0.04268 0.21044 0.0
H1087 H 0.67143 0.98366 0.21634 0.0
C1088 C 0.6505 0.96495 0.17576 0.0
C1089 C 0.6195 0.96505 0.15331 0.0
C1090 C 0.56887 0.04561 0.22616 0.0
C1091 C 0.61239 0.00622 0.20097 0.0
C1092 C 0.5644 0.06762 0.24706 0.0
C1093 C 0.59712 0.07317 0.26717 0.0
C1094 C 0.60604 0.02831 0.22521 0.0
C1095 C 0.63265 0.05446 0.26651 0.0
C1096 C 0.64795 0.98469 0.19945 0.0
C1097 C 0.58762 0.98613 0.15611 0.0
N1098 N 0.63626 0.03309 0.24605 0.0
N1099 N 0.58412 0.00596 0.17887 0.0
H1100 H 0.67029 0.83583 0.00497 0.0
H1101 H 0.78651 0.91533 0.87426 0.0
H1102 H 0.68261 0.92998 -0.00138 0.0
H1103 H 0.76858 0.82148 0.88088 0.0
H1104 H 0.75031 0.9213 0.9197 0.0
H1105 H 0.71023 0.82948 0.95996 0.0
C1106 C 0.68157 0.85404 0.9933 0.0
C1107 C 0.67205 0.88333 0.00497 0.0
C1108 C 0.75457 0.89939 0.91125 0.0
C1109 C 0.71775 0.87662 0.95351 0.0
C1110 C 0.77545 0.89607 0.88548 0.0
C1111 C 0.78081 0.86796 0.87414 0.0
C1112 C 0.7399 0.87434 0.92589 0.0
C1113 C 0.76497 0.8436 0.88901 0.0
C1114 C 0.70405 0.85128 0.96805 0.0
C1115 C 0.68838 0.90667 0.98968 0.0
N1116 N 0.74555 0.84732 0.91413 0.0
N1117 N 0.70995 0.90347 0.96507 0.0
H1118 H 0.87797 0.81923 0.89545 0.0
H1119 H 0.08251 0.75879 0.81839 0.0
H1120 H 0.96035 0.86721 0.83854 0.0
H1121 H 0.0309 0.71543 0.89088 0.0
H1122 H 0.04006 0.80103 0.83042 0.0
H1123 H 0.92556 0.77677 0.89101 0.0
C1124 C 0.90525 0.82025 0.88139 0.0
C1125 C 0.91742 0.84641 0.86823 0.0
C1126 C 0.03618 0.78148 0.84292 0.0
C1127 C 0.97149 0.80026 0.8642 0.0
C1128 C 0.06113 0.75747 0.83618 0.0
C1129 C 0.05626 0.73132 0.85101 0.0
C1130 C 0.00297 0.77828 0.86272 0.0
C1131 C 0.03091 0.73268 0.87571 0.0
C1132 C 0.93295 0.7967 0.87963 0.0
C1133 C 0.95147 0.84731 0.84965 0.0
N1134 N 0.0024 0.75453 0.87954 0.0
N1135 N 0.97809 0.82479 0.84883 0.0
H1136 H 0.3466 0.70429 0.09914 0.0
H1137 H 0.51968 0.78755 0.14506 0.0
H1138 H 0.47195 0.68136 0.06836 0.0
H1139 H 0.44699 0.85288 0.10291 0.0
H1140 H 0.49956 0.76006 0.10342 0.0
H1141 H 0.36333 0.7541 0.09407 0.0
C1142 C 0.37857 0.70818 0.09195 0.0
C1143 C 0.40767 0.68503 0.08521 0.0
C1144 C 0.4793 0.77473 0.11154 0.0
C1145 C 0.42834 0.74859 0.0808 0.0
C1146 C 0.49584 0.79511 0.13054 0.0
C1147 C 0.49063 0.82476 0.12646 0.0
C1148 C 0.44618 0.77846 0.09384 0.0
C1149 C 0.45571 0.83046 0.10665 0.0
C1150 C 0.38726 0.73851 0.08791 0.0
C1151 C 0.44721 0.69641 0.07429 0.0
N1152 N 0.4329 0.80716 0.0922 0.0
N1153 N 0.45659 0.72659 0.07375 0.0
H1154 H 0.09431 0.31917 0.64911 0.0
H1155 H 0.00998 0.16013 0.61757 0.0
H1156 H 0.08787 0.29183 0.5635 0.0
H1157 H 0.98306 0.21462 0.68898 0.0
H1158 H 0.05453 0.20125 0.59864 0.0
H1159 H 0.08 0.27469 0.66531 0.0
C1160 C 0.09018 0.30547 0.63257 0.0
C1161 C 0.08764 0.31337 0.60387 0.0
C1162 C 0.03958 0.2036 0.61894 0.0
C1163 C 0.07012 0.25584 0.62406 0.0
C1164 C 0.01391 0.18026 0.62987 0.0
C1165 C -0.01262 0.18523 0.65349 0.0
C1166 C 0.04583 0.2295 0.63477 0.0
C1167 C -0.00217 0.21039 0.6697 0.0
C1168 C 0.08152 0.2779 0.64281 0.0
C1169 C 0.08497 0.28888 0.58585 0.0
N1170 N 0.02613 0.23137 0.66019 0.0
N1171 N 0.0749 0.26132 0.59606 0.0
H1172 H 0.93007 0.61399 0.86981 0.0
H1173 H 0.96602 0.77245 0.79872 0.0
H1174 H 0.04086 0.66974 0.87779 0.0
H1175 H 0.84864 0.75009 0.84269 0.0
H1176 H -0.01086 0.72278 0.80832 0.0
H1177 H 0.89385 0.65404 0.84435 0.0
C1178 C 0.94776 0.6343 0.86535 0.0
C1179 C -0.01146 0.63868 0.87424 0.0
C1180 C 0.95996 0.72881 0.81566 0.0
C1181 C 0.95183 0.68222 0.84354 0.0
C1182 C 0.94557 0.75718 0.81023 0.0
C1183 C 0.90563 0.76589 0.82061 0.0
C1184 C 0.93398 0.70896 0.83129 0.0
C1185 C 0.88013 0.74474 0.83488 0.0
C1186 C 0.92748 0.65671 0.85048 0.0
C1187 C 0.0093 0.66488 0.86896 0.0
N1188 N 0.89493 0.71756 0.8401 0.0
N1189 N -0.00998 0.68502 0.85343 0.0
H1190 H 0.37036 0.27039 0.36363 0.0
H1191 H 0.49441 0.12884 0.31468 0.0
H1192 H 0.42938 0.26727 0.28213 0.0
H1193 H 0.46973 0.15475 0.40012 0.0
H1194 H 0.46677 0.1763 0.29889 0.0
H1195 H 0.39954 0.2234 0.3742 0.0
C1196 C 0.38955 0.25965 0.34789 0.0
C1197 C 0.39933 0.27318 0.32255 0.0
C1198 C 0.466 0.17085 0.3209 0.0
C1199 C 0.43072 0.21826 0.33373 0.0
C1200 C 0.48103 0.14377 0.32981 0.0
C1201 C 0.48297 0.1379 0.35873 0.0
C1202 C 0.44961 0.19027 0.34097 0.0
C1203 C 0.46724 0.15813 0.37773 0.0
C1204 C 0.40616 0.23272 0.35387 0.0
C1205 C 0.42279 0.25783 0.3024 0.0
N1206 N 0.45089 0.18323 0.36849 0.0
N1207 N 0.43782 0.23085 0.30838 0.0
H1208 H 0.84149 0.20414 0.56131 0.0
H1209 H 0.00362 0.30599 0.65553 0.0
H1210 H 0.95114 0.17733 0.60459 0.0
H1211 H 0.95182 0.34663 0.58299 0.0
H1212 H 0.96022 0.26239 0.646 0.0
H1213 H 0.86352 0.25688 0.5714 0.0
C1214 C 0.87042 0.20942 0.57354 0.0
C1215 C 0.895 0.18665 0.58448 0.0
C1216 C 0.95855 0.28059 0.63178 0.0
C1217 C 0.91904 0.24641 0.59724 0.0
C1218 C 0.98453 0.30608 0.63749 0.0
C1219 C 0.98298 0.33143 0.62102 0.0
C1220 C 0.93484 0.27739 0.60666 0.0
C1221 C 0.95456 0.32838 0.5971 0.0
C1222 C 0.88278 0.2395 0.57956 0.0
C1223 C 0.93159 0.19485 0.59917 0.0
N1224 N 0.93337 0.30174 0.59007 0.0
N1225 N 0.9423 0.22333 0.60598 0.0
H1226 H 0.52212 0.69091 0.19678 0.0
H1227 H 0.56414 0.7919 0.06318 0.0
H1228 H 0.44516 0.70774 0.12599 0.0
H1229 H 0.62773 0.81244 0.1409 0.0
H1230 H 0.55842 0.74056 0.07893 0.0
H1231 H 0.58041 0.72408 0.17674 0.0
C1232 C 0.51842 0.69947 0.1759 0.0
C1233 C 0.47931 0.69396 0.16085 0.0
C1234 C 0.57254 0.75707 0.09315 0.0
C1235 C 0.54863 0.72698 0.13609 0.0
C1236 C 0.57496 0.7867 0.08411 0.0
C1237 C 0.59085 0.80917 0.10205 0.0
C1238 C 0.57716 0.75076 0.12214 0.0
C1239 C 0.60835 0.79904 0.12777 0.0
C1240 C 0.55221 0.71776 0.16422 0.0
C1241 C 0.47622 0.70668 0.13532 0.0
N1242 N 0.59792 0.77184 0.13807 0.0
N1243 N 0.51105 0.71919 0.12289 0.0
H1244 H 0.52382 0.39776 0.74213 0.0
H1245 H 0.69743 0.53001 0.70928 0.0
H1246 H 0.63331 0.42546 0.79352 0.0
H1247 H 0.59548 0.50612 0.65044 0.0
H1248 H 0.67243 0.48995 0.73934 0.0
H1249 H 0.54798 0.43401 0.70644 0.0
C1250 C 0.55225 0.41176 0.74621 0.0
C1251 C 0.57521 0.40964 0.77174 0.0
C1252 C 0.65552 0.49309 0.71971 0.0
C1253 C 0.60327 0.45078 0.73107 0.0
C1254 C 0.67007 0.51614 0.70251 0.0
C1255 C 0.64862 0.52188 0.67738 0.0
C1256 C 0.61941 0.47485 0.71181 0.0
C1257 C 0.61284 0.50287 0.66988 0.0
C1258 C 0.56621 0.43231 0.72577 0.0
C1259 C 0.61318 0.42713 0.77501 0.0
N1260 N 0.59942 0.4803 0.68689 0.0
N1261 N 0.62541 0.44691 0.75538 0.0
H1262 H 0.75352 0.35828 0.03343 0.0
H1263 H 0.52458 0.36924 0.94791 0.0
H1264 H 0.64758 0.40427 0.06901 0.0
H1265 H 0.65491 0.38275 0.939 0.0
H1266 H 0.5622 0.36947 0.99457 0.0
H1267 H 0.71078 0.34896 0.9887 0.0
C1268 C 0.72097 0.36619 0.03237 0.0
C1269 C 0.70463 0.38308 0.05499 0.0
C1270 C 0.58115 0.37129 0.97571 0.0
C1271 C 0.6534 0.37221 0.00533 0.0
C1272 C 0.55939 0.37197 0.94878 0.0
C1273 C 0.58253 0.37538 0.92336 0.0
C1274 C 0.62685 0.37121 0.97761 0.0
C1275 C 0.62632 0.3815 0.92663 0.0
C1276 C 0.6961 0.36151 0.00721 0.0
C1277 C 0.66204 0.39199 0.05216 0.0
N1278 N 0.64768 0.37818 0.95242 0.0
N1279 N 0.63835 0.38641 0.02825 0.0
H1280 H 0.88051 0.56778 0.30151 0.0
H1281 H 0.84337 0.51004 0.14244 0.0
H1282 H 0.91383 0.62346 0.23255 0.0
H1283 H 0.82469 0.45859 0.21646 0.0
H1284 H 0.87103 0.55198 0.17222 0.0
H1285 H 0.85885 0.52854 0.26818 0.0
C1286 C 0.88475 0.57121 0.27931 0.0
C1287 C 0.90094 0.59822 0.26983 0.0
C1288 C 0.8605 0.53161 0.18191 0.0
C1289 C 0.87619 0.55313 0.23127 0.0
C1290 C 0.84423 0.50776 0.165 0.0
C1291 C 0.82865 0.48127 0.17731 0.0
C1292 C 0.86226 0.5286 0.21123 0.0
C1293 C 0.83371 0.47893 0.20624 0.0
C1294 C 0.8726 0.5488 0.26026 0.0
C1295 C 0.90327 0.60234 0.24067 0.0
N1296 N 0.84964 0.5021 0.22201 0.0
N1297 N 0.89103 0.58004 0.22233 0.0
H1298 H 0.91486 0.63661 0.44048 0.0
H1299 H 0.7192 0.6494 0.54489 0.0
H1300 H 0.79025 0.6699 0.41747 0.0
H1301 H 0.82006 0.58808 0.55883 0.0
H1302 H 0.75398 0.66474 0.50179 0.0
H1303 H 0.88636 0.62167 0.48432 0.0
C1304 C 0.88066 0.63899 0.4428 0.0
C1305 C 0.85324 0.65147 0.42218 0.0
C1306 C 0.76874 0.64804 0.51427 0.0
C1307 C 0.82377 0.63995 0.47703 0.0
C1308 C 0.74898 0.63922 0.53906 0.0
C1309 C 0.76601 0.6165 0.55523 0.0
C1310 C 0.80604 0.63421 0.50537 0.0
C1311 C 0.80531 0.6051 0.54681 0.0
C1312 C 0.86512 0.63169 0.46934 0.0
C1313 C 0.81179 0.65837 0.43114 0.0
N1314 N 0.82379 0.61382 0.52227 0.0
N1315 N 0.79876 0.65309 0.4577 0.0
H1316 H 0.61355 0.45815 0.83042 0.0
H1317 H 0.62678 0.60377 0.73912 0.0
H1318 H 0.70528 0.52835 0.85259 0.0
H1319 H 0.54078 0.52863 0.72422 0.0
H1320 H 0.65584 0.57982 0.78105 0.0
H1321 H 0.58722 0.48651 0.79245 0.0
C1322 C 0.6288 0.47957 0.82696 0.0
C1323 C 0.66269 0.49042 0.84413 0.0
C1324 C 0.63058 0.56869 0.76866 0.0
C1325 C 0.6317 0.52385 0.8 0.0
C1326 C 0.61378 0.58229 0.74474 0.0
C1327 C 0.58077 0.56817 0.72809 0.0
C1328 C 0.61475 0.54055 0.77571 0.0
C1329 C 0.56549 0.54052 0.73642 0.0
C1330 C 0.61356 0.49589 0.8051 0.0
C1331 C 0.67996 0.51882 0.83916 0.0
N1332 N 0.58277 0.52768 0.75933 0.0
N1333 N 0.66423 0.53473 0.81734 0.0
H1334 H 0.84049 0.36325 0.08919 0.0
H1335 H 0.81205 0.38916 0.94153 0.0
H1336 H 0.95854 0.37235 0.06084 0.0
H1337 H 0.73832 0.43471 0.0055 0.0
H1338 H 0.86456 0.37484 0.97781 0.0
H1339 H 0.80604 0.39374 0.06065 0.0
C1340 C 0.85954 0.3808 0.08314 0.0
C1341 C 0.90336 0.38117 0.08714 0.0
C1342 C 0.83781 0.38834 0.98344 0.0
C1343 C 0.85952 0.38937 0.03557 0.0
C1344 C 0.80763 0.39624 0.96304 0.0
C1345 C 0.77233 0.41334 0.97018 0.0
C1346 C 0.83187 0.39916 0.01171 0.0
C1347 C 0.76575 0.42226 -0.00111 0.0
C1348 C 0.83954 0.39062 0.06028 0.0
C1349 C 0.92474 0.37747 0.06111 0.0
N1350 N 0.79598 0.41502 0.01794 0.0
N1351 N 0.90217 0.38111 0.03579 0.0
H1352 H 0.88963 0.52979 0.3342 0.0
H1353 H 0.82985 0.38533 0.24632 0.0
H1354 H 0.77093 0.47843 0.34534 0.0
H1355 H 0.94081 0.44287 0.2316 0.0
H1356 H 0.80787 0.41817 0.28426 0.0
H1357 H 0.91031 0.4963 0.29773 0.0
C1358 C 0.86747 0.51171 0.32841 0.0
C1359 C 0.82791 0.50689 0.34185 0.0
C1360 C 0.83703 0.4235 0.27276 0.0
C1361 C 0.85131 0.4689 0.30061 0.0
C1362 C 0.84956 0.40487 0.25143 0.0
C1363 C 0.88746 0.41174 0.23665 0.0
C1364 C 0.86266 0.44882 0.27865 0.0
C1365 C 0.91204 0.43693 0.24324 0.0
C1366 C 0.8795 0.49249 0.30786 0.0
C1367 C 0.80102 0.48296 0.33461 0.0
N1368 N 0.89897 0.45488 0.26382 0.0
N1369 N 0.8133 0.46457 0.31414 0.0
H1370 H 0.71141 0.63278 0.4456 0.0
H1371 H 0.57904 0.57279 0.57436 0.0
H1372 H 0.73334 0.55206 0.48846 0.0
H1373 H 0.56188 0.65924 0.55418 0.0
H1374 H 0.65276 0.57523 0.54946 0.0
H1375 H 0.66116 0.64718 0.48314 0.0
C1376 C 0.70533 0.61815 0.46293 0.0
C1377 C 0.72553 0.59114 0.46417 0.0
C1378 C 0.631 0.59252 0.54953 0.0
C1379 C 0.66901 0.60737 0.50665 0.0
C1380 C 0.5943 0.59204 0.56638 0.0
C1381 C 0.57349 0.61676 0.57283 0.0
C1382 C 0.63737 0.61374 0.52989 0.0
C1383 C 0.58047 0.63962 0.55278 0.0
C1384 C 0.67684 0.62635 0.48421 0.0
C1385 C 0.71785 0.57298 0.48682 0.0
N1386 N 0.6108 0.63713 0.53146 0.0
N1387 N 0.69014 0.58133 0.50696 0.0
H1388 H 0.63312 0.67233 0.66119 0.0
H1389 H 0.47629 0.79301 0.60821 0.0
H1390 H 0.61824 0.68156 0.57752 0.0
H1391 H 0.52208 0.78597 0.69334 0.0
H1392 H 0.52364 0.75264 0.59423 0.0
H1393 H 0.59558 0.71621 0.67368 0.0
C1394 C 0.6277 0.6868 0.64627 0.0
C1395 C 0.6366 0.67527 0.6205 0.0
C1396 C 0.52365 0.76032 0.61581 0.0
C1397 C 0.58033 0.72331 0.62996 0.0
C1398 C 0.49675 0.78325 0.62382 0.0
C1399 C 0.49634 0.79319 0.65196 0.0
C1400 C 0.5502 0.74765 0.63613 0.0
C1401 C 0.52232 0.77956 0.6714 0.0
C1402 C 0.60184 0.71044 0.65202 0.0
C1403 C 0.61319 0.68855 0.59868 0.0
N1404 N 0.54804 0.7577 0.66312 0.0
N1405 N 0.58597 0.71154 0.60375 0.0
H1406 H 0.45317 0.5753 0.22502 0.0
H1407 H 0.3134 0.4826 0.33562 0.0
H1408 H 0.31941 0.58946 0.24294 0.0
H1409 H 0.44758 0.46728 0.31895 0.0
H1410 H 0.31461 0.52068 0.30022 0.0
H1411 H 0.45314 0.53633 0.26032 0.0
C1412 C 0.42384 0.56994 0.23632 0.0
C1413 C 0.3857 0.58437 0.23052 0.0
C1414 C 0.34379 0.50893 0.3042 0.0
C1415 C 0.3852 0.54049 0.27046 0.0
C1416 C 0.34296 0.48707 0.32426 0.0
C1417 C 0.38062 0.47234 0.33054 0.0
C1418 C 0.38257 0.51597 0.29035 0.0
C1419 C 0.418 0.47857 0.31498 0.0
C1420 C 0.42374 0.54786 0.25639 0.0
C1421 C 0.34893 0.57788 0.24635 0.0
N1422 N 0.41815 0.50018 0.2957 0.0
N1423 N 0.3494 0.55616 0.26543 0.0
H1424 H 0.33543 0.67628 0.06407 0.0
H1425 H 0.11002 0.56496 0.9795 0.0
H1426 H 0.22797 0.64266 0.11202 0.0
H1427 H 0.14083 0.67156 0.97531 0.0
H1428 H 0.18136 0.55381 0.01254 0.0
H1429 H 0.3033 0.66223 0.02263 0.0
C1430 C 0.30606 0.66559 0.06798 0.0
C1431 C 0.28869 0.65709 0.09468 0.0
C1432 C 0.17877 0.57586 0.00404 0.0
C1433 C 0.24767 0.64296 0.04231 0.0
C1434 C 0.13257 0.58274 0.98512 0.0
C1435 C 0.12169 0.6185 0.97529 0.0
C1436 C 0.22554 0.62945 0.01529 0.0
C1437 C 0.15283 0.65138 0.98368 0.0
C1438 C 0.2869 0.65774 0.04216 0.0
C1439 C 0.24591 0.64759 0.0932 0.0
N1440 N 0.19833 0.65537 0.00112 0.0
N1441 N 0.22713 0.64195 0.06776 0.0
H1442 H 0.15667 0.53084 0.8313 0.0
H1443 H 0.01777 0.41557 0.7352 0.0
H1444 H 0.01818 0.51703 0.83595 0.0
H1445 H 0.1528 0.43729 0.72335 0.0
H1446 H 0.01829 0.44916 0.7762 0.0
H1447 H 0.15768 0.49268 0.79422 0.0
C1448 C 0.12671 0.51984 0.82453 0.0
C1449 C 0.0873 0.52736 0.83627 0.0
C1450 C 0.04763 0.44678 0.76434 0.0
C1451 C 0.08797 0.48417 0.79459 0.0
C1452 C 0.04712 0.42785 0.74116 0.0
C1453 C 0.08473 0.42563 0.72556 0.0
C1454 C 0.08624 0.4626 0.77163 0.0
C1455 C 0.12274 0.44032 0.73426 0.0
C1456 C 0.12717 0.49813 0.80352 0.0
C1457 C 0.04924 0.5124 0.827 0.0
N1458 N 0.12252 0.45857 0.75665 0.0
N1459 N 0.05051 0.49159 0.80668 0.0
H1460 H 0.17523 0.33071 0.57841 0.0
H1461 H 0.3446 0.43031 0.49216 0.0
H1462 H 0.25091 0.40577 0.60936 0.0
H1463 H 0.29981 0.34712 0.45672 0.0
H1464 H 0.30717 0.41894 0.53504 0.0
H1465 H 0.21154 0.33536 0.53255 0.0
C1466 C 0.20018 0.34767 0.57604 0.0
C1467 C 0.21157 0.36717 0.59884 0.0
C1468 C 0.30503 0.40285 0.51811 0.0
C1469 C 0.25416 0.37177 0.54643 0.0
C1470 C 0.32657 0.40953 0.49356 0.0
C1471 C 0.32386 0.39014 0.4708 0.0
C1472 C 0.27958 0.3767 0.52011 0.0
C1473 C 0.30134 0.36296 0.47387 0.0
C1474 C 0.22107 0.35007 0.54974 0.0
C1475 C 0.2424 0.38937 0.59341 0.0
N1476 N 0.27897 0.35718 0.49796 0.0
N1477 N 0.26262 0.39067 0.56832 0.0
H1478 H 0.40708 0.42525 0.24611 0.0
H1479 H 0.25483 0.51844 0.14585 0.0
H1480 H 0.26778 0.41719 0.24774 0.0
H1481 H 0.39399 0.52323 0.14705 0.0
H1482 H 0.25665 0.47946 0.18157 0.0
H1483 H 0.40151 0.46162 0.20921 0.0
C1484 C 0.37543 0.43136 0.23885 0.0
C1485 C 0.33795 0.41826 0.24979 0.0
C1486 C 0.28666 0.48916 0.17396 0.0
C1487 C 0.33104 0.45926 0.20742 0.0
C1488 C 0.28558 0.51127 0.15372 0.0
C1489 C 0.32455 0.5247 0.14471 0.0
C1490 C 0.32695 0.48061 0.18458 0.0
C1491 C 0.36348 0.51407 0.1544 0.0
C1492 C 0.3721 0.45191 0.21766 0.0
C1493 C 0.29754 0.42676 0.23965 0.0
N1494 N 0.3637 0.4929 0.17393 0.0
N1495 N 0.2951 0.44669 0.21894 0.0
H1496 H 0.28243 0.5665 0.01207 0.0
H1497 H 0.15281 0.66374 0.89546 0.0
H1498 H 0.16356 0.60673 0.06463 0.0
H1499 H 0.19637 0.57602 0.8829 0.0
H1500 H 0.18754 0.66494 0.94075 0.0
H1501 H 0.26256 0.58542 0.963 0.0
C1502 C 0.25432 0.58004 0.01214 0.0
C1503 C 0.22879 0.58539 0.0425 0.0
C1504 C 0.18395 0.64383 0.93036 0.0
C1505 C 0.19799 0.61017 0.97583 0.0
C1506 C 0.16668 0.6438 0.90312 0.0
C1507 C 0.16823 0.61904 0.88571 0.0
C1508 C 0.19509 0.61695 0.94308 0.0
C1509 C 0.19072 0.59492 0.89622 0.0
C1510 C 0.24241 0.59104 0.98054 0.0
C1511 C 0.1794 0.60304 0.0448 0.0
N1512 N 0.20182 0.59418 0.92432 0.0
N1513 N 0.16084 0.6174 0.01608 0.0
H1514 H 0.06913 0.48821 0.63258 0.0
H1515 H 0.14647 0.55879 0.78085 0.0
H1516 H 0.18151 0.45681 0.67482 0.0
H1517 H 0.02994 0.58027 0.73721 0.0
H1518 H 0.16015 0.52085 0.74525 0.0
H1519 H 0.05842 0.52267 0.67093 0.0
C1520 C 0.09193 0.48863 0.64995 0.0
C1521 C 0.12557 0.46885 0.6502 0.0
C1522 C 0.13127 0.53345 0.74355 0.0
C1523 C 0.11293 0.50907 0.69575 0.0
C1524 C 0.12291 0.55495 0.76417 0.0
C1525 C 0.08624 0.57244 0.76275 0.0
C1526 C 0.10349 0.52975 0.72027 0.0
C1527 C 0.05801 0.56705 0.73989 0.0
C1528 C 0.08557 0.50839 0.67217 0.0
C1529 C 0.15474 0.4714 0.6734 0.0
N1530 N 0.06753 0.54657 0.71962 0.0
N1531 N 0.1475 0.49088 0.69531 0.0
H1532 H 0.21724 0.43775 0.50676 0.0
H1533 H 0.25753 0.32614 0.38098 0.0
H1534 H 0.14325 0.35667 0.49328 0.0
H1535 H 0.28647 0.41844 0.37162 0.0
H1536 H 0.22086 0.33674 0.42486 0.0
H1537 H 0.24856 0.43178 0.4596 0.0
C1538 C 0.20763 0.41876 0.49393 0.0
C1539 C 0.17794 0.39744 0.5041 0.0
C1540 C 0.23546 0.35479 0.41336 0.0
C1541 C 0.21375 0.3904 0.45067 0.0
C1542 C 0.25651 0.34872 0.38843 0.0
C1543 C 0.27631 0.37158 0.37344 0.0
C1544 C 0.23458 0.38391 0.4235 0.0
C1545 C 0.27387 0.40034 0.38367 0.0
C1546 C 0.22521 0.4155 0.46702 0.0
C1547 C 0.16623 0.3735 0.48647 0.0
N1548 N 0.25355 0.40583 0.40826 0.0
N1549 N 0.18455 0.37043 0.46093 0.0
H1550 H 0.40023 0.3276 0.41073 0.0
H1551 H 0.55762 0.23631 0.3142 0.0
H1552 H 0.45167 0.36023 0.33318 0.0
H1553 H 0.53202 0.21472 0.40016 0.0
H1554 H 0.51512 0.28032 0.31948 0.0
H1555 H 0.44383 0.28405 0.40582 0.0
C1556 C 0.41964 0.32481 0.39214 0.0
C1557 C 0.42275 0.34664 0.37206 0.0
C1558 C 0.51941 0.26633 0.33739 0.0
C1559 C 0.47248 0.29797 0.36648 0.0
C1560 C 0.54374 0.24128 0.33441 0.0
C1561 C 0.5492 0.22229 0.35697 0.0
C1562 C 0.49992 0.27235 0.36312 0.0
C1563 C 0.52922 0.2291 0.38242 0.0
C1564 C 0.44524 0.30055 0.38971 0.0
C1565 C 0.44884 0.34324 0.3488 0.0
N1566 N 0.50539 0.25363 0.38482 0.0
N1567 N 0.47277 0.31906 0.34647 0.0
loop_
_geom_bond_atom_site_label_1
_geom_bond_atom_site_label_2
_geom_bond_distance
_geom_bond_site_symmetry_2
_ccdc_geom_bond_type
In0 O1 2.294 . S
In0 O2 2.326 . S
In0 O6 2.266 . S
In0 O7 2.326 . S
In0 O8 2.266 . S
In0 O9 2.326 . S
In0 O11 2.294 . S
In0 O12 2.326 . S
O1 In0 2.294 . S
O1 C10 1.240 . S
O2 In0 2.326 . S
O2 C10 1.252 . S
C3 O6 1.252 . S
C3 O7 1.260 . S
C4 O11 1.240 . S
C4 O12 1.252 . S
C5 O8 1.252 . S
C5 O9 1.260 . S
O6 In0 2.266 . S
O6 C3 1.252 . S
O7 In0 2.326 . S
O7 C3 1.260 . S
O8 In0 2.266 . S
O8 C5 1.252 . S
O9 In0 2.326 . S
O9 C5 1.260 . S
C10 O1 1.240 . S
C10 O2 1.252 . S
O11 In0 2.294 . S
O11 C4 1.240 . S
O12 In0 2.326 . S
O12 C4 1.252 . S
In13 O14 2.294 . S
In13 O15 2.326 . S
In13 O19 2.266 . S
In13 O20 2.326 . S
In13 O21 2.266 . S
In13 O22 2.326 . S
In13 O24 2.294 . S
In13 O25 2.326 . S
O14 In13 2.294 . S
O14 C23 1.240 . S
O15 In13 2.326 . S
O15 C23 1.252 . S
C16 O19 1.252 . S
C16 O20 1.260 . S
C17 O24 1.240 . S
C17 O25 1.252 . S
C18 O21 1.252 . S
C18 O22 1.260 . S
O19 In13 2.266 . S
O19 C16 1.252 . S
O20 In13 2.326 . S
O20 C16 1.260 . S
O21 In13 2.266 . S
O21 C18 1.252 . S
O22 In13 2.326 . S
O22 C18 1.260 . S
C23 O14 1.240 . S
C23 O15 1.252 . S
O24 In13 2.294 . S
O24 C17 1.240 . S
O25 In13 2.326 . S
O25 C17 1.252 . S
In26 O27 2.294 . S
In26 O28 2.326 . S
In26 O32 2.266 . S
In26 O33 2.326 . S
In26 O34 2.266 . S
In26 O35 2.326 . S
In26 O37 2.294 . S
In26 O38 2.326 . S
O27 In26 2.294 . S
O27 C36 1.240 . S
O28 In26 2.326 . S
O28 C36 1.252 . S
C29 O32 1.252 . S
C29 O33 1.260 . S
C30 O37 1.240 . S
C30 O38 1.252 . S
C31 O34 1.252 . S
C31 O35 1.260 . S
O32 In26 2.266 . S
O32 C29 1.252 . S
O33 In26 2.326 . S
O33 C29 1.260 . S
O34 In26 2.266 . S
O34 C31 1.252 . S
O35 In26 2.326 . S
O35 C31 1.260 . S
C36 O27 1.240 . S
C36 O28 1.252 . S
O37 In26 2.294 . S
O37 C30 1.240 . S
O38 In26 2.326 . S
O38 C30 1.252 . S
In39 O40 2.294 . S
In39 O41 2.326 . S
In39 O45 2.266 . S
In39 O46 2.326 . S
In39 O47 2.266 . S
In39 O48 2.326 . S
In39 O50 2.294 . S
In39 O51 2.326 . S
O40 In39 2.294 . S
O40 C49 1.240 . S
O41 In39 2.326 . S
O41 C49 1.252 . S
C42 O45 1.252 . S
C42 O46 1.260 . S
C43 O50 1.240 . S
C43 O51 1.252 . S
C44 O47 1.252 . S
C44 O48 1.260 . S
O45 In39 2.266 . S
O45 C42 1.252 . S
O46 In39 2.326 . S
O46 C42 1.260 . S
O47 In39 2.266 . S
O47 C44 1.252 . S
O48 In39 2.326 . S
O48 C44 1.260 . S
C49 O40 1.240 . S
C49 O41 1.252 . S
O50 In39 2.294 . S
O50 C43 1.240 . S
O51 In39 2.326 . S
O51 C43 1.252 . S
In52 O53 2.294 . S
In52 O54 2.326 . S
In52 O58 2.266 . S
In52 O59 2.326 . S
In52 O60 2.266 . S
In52 O61 2.326 . S
In52 O63 2.294 . S
In52 O64 2.326 . S
O53 In52 2.294 . S
O53 C62 1.240 . S
O54 In52 2.326 . S
O54 C62 1.252 . S
C55 O58 1.252 . S
C55 O59 1.260 . S
C56 O63 1.240 . S
C56 O64 1.252 . S
C57 O60 1.252 . S
C57 O61 1.260 . S
O58 In52 2.266 . S
O58 C55 1.252 . S
O59 In52 2.326 . S
O59 C55 1.260 . S
O60 In52 2.266 . S
O60 C57 1.252 . S
O61 In52 2.326 . S
O61 C57 1.260 . S
C62 O53 1.240 . S
C62 O54 1.252 . S
O63 In52 2.294 . S
O63 C56 1.240 . S
O64 In52 2.326 . S
O64 C56 1.252 . S
In65 O66 2.294 . S
In65 O67 2.326 . S
In65 O71 2.266 . S
In65 O72 2.326 . S
In65 O73 2.266 . S
In65 O74 2.326 . S
In65 O76 2.294 . S
In65 O77 2.326 . S
O66 In65 2.294 . S
O66 C75 1.240 . S
O67 In65 2.326 . S
O67 C75 1.252 . S
C68 O71 1.252 . S
C68 O72 1.260 . S
C69 O76 1.240 . S
C69 O77 1.252 . S
C70 O73 1.252 . S
C70 O74 1.260 . S
O71 In65 2.266 . S
O71 C68 1.252 . S
O72 In65 2.326 . S
O72 C68 1.260 . S
O73 In65 2.266 . S
O73 C70 1.252 . S
O74 In65 2.326 . S
O74 C70 1.260 . S
C75 O66 1.240 . S
C75 O67 1.252 . S
O76 In65 2.294 . S
O76 C69 1.240 . S
O77 In65 2.326 . S
O77 C69 1.252 . S
In78 O79 2.294 . S
In78 O80 2.326 . S
In78 O84 2.266 . S
In78 O85 2.326 . S
In78 O86 2.266 . S
In78 O87 2.326 . S
In78 O89 2.294 . S
In78 O90 2.326 . S
O79 In78 2.294 . S
O79 C88 1.240 . S
O80 In78 2.326 . S
O80 C88 1.252 . S
C81 O84 1.252 . S
C81 O85 1.260 . S
C82 O89 1.240 . S
C82 O90 1.252 . S
C83 O86 1.252 . S
C83 O87 1.260 . S
O84 In78 2.266 . S
O84 C81 1.252 . S
O85 In78 2.326 . S
O85 C81 1.260 . S
O86 In78 2.266 . S
O86 C83 1.252 . S
O87 In78 2.326 . S
O87 C83 1.260 . S
C88 O79 1.240 . S
C88 O80 1.252 . S
O89 In78 2.294 . S
O89 C82 1.240 . S
O90 In78 2.326 . S
O90 C82 1.252 . S
In91 O92 2.294 . S
In91 O93 2.326 . S
In91 O97 2.266 . S
In91 O98 2.326 . S
In91 O99 2.266 . S
In91 O100 2.326 . S
In91 O102 2.294 . S
In91 O103 2.326 . S
O92 In91 2.294 . S
O92 C101 1.240 . S
O93 In91 2.326 . S
O93 C101 1.252 . S
C94 O97 1.252 . S
C94 O98 1.260 . S
C95 O102 1.240 . S
C95 O103 1.252 . S
C96 O99 1.252 . S
C96 O100 1.260 . S
O97 In91 2.266 . S
O97 C94 1.252 . S
O98 In91 2.326 . S
O98 C94 1.260 . S
O99 In91 2.266 . S
O99 C96 1.252 . S
O100 In91 2.326 . S
O100 C96 1.260 . S
C101 O92 1.240 . S
C101 O93 1.252 . S
O102 In91 2.294 . S
O102 C95 1.240 . S
O103 In91 2.326 . S
O103 C95 1.252 . S
In104 O105 2.294 . S
In104 O106 2.326 . S
In104 O110 2.266 . S
In104 O111 2.326 . S
In104 O112 2.266 . S
In104 O113 2.326 . S
In104 O115 2.294 . S
In104 O116 2.326 . S
O105 In104 2.294 . S
O105 C114 1.240 . S
O106 In104 2.326 . S
O106 C114 1.252 . S
C107 O110 1.252 . S
C107 O111 1.260 . S
C108 O115 1.240 . S
C108 O116 1.252 . S
C109 O112 1.252 . S
C109 O113 1.260 . S
O110 In104 2.266 . S
O110 C107 1.252 . S
O111 In104 2.326 . S
O111 C107 1.260 . S
O112 In104 2.266 . S
O112 C109 1.252 . S
O113 In104 2.326 . S
O113 C109 1.260 . S
C114 O105 1.240 . S
C114 O106 1.252 . S
O115 In104 2.294 . S
O115 C108 1.240 . S
O116 In104 2.326 . S
O116 C108 1.252 . S
In117 O118 2.294 . S
In117 O119 2.326 . S
In117 O123 2.266 . S
In117 O124 2.326 . S
In117 O125 2.266 . S
In117 O126 2.326 . S
In117 O128 2.294 . S
In117 O129 2.326 . S
O118 In117 2.294 . S
O118 C127 1.240 . S
O119 In117 2.326 . S
O119 C127 1.252 . S
C120 O123 1.252 . S
C120 O124 1.260 . S
C121 O128 1.240 . S
C121 O129 1.252 . S
C122 O125 1.252 . S
C122 O126 1.260 . S
O123 In117 2.266 . S
O123 C120 1.252 . S
O124 In117 2.326 . S
O124 C120 1.260 . S
O125 In117 2.266 . S
O125 C122 1.252 . S
O126 In117 2.326 . S
O126 C122 1.260 . S
C127 O118 1.240 . S
C127 O119 1.252 . S
O128 In117 2.294 . S
O128 C121 1.240 . S
O129 In117 2.326 . S
O129 C121 1.252 . S
In130 O131 2.294 . S
In130 O132 2.326 . S
In130 O136 2.266 . S
In130 O137 2.326 . S
In130 O138 2.266 . S
In130 O139 2.326 . S
In130 O141 2.294 . S
In130 O142 2.326 . S
O131 In130 2.294 . S
O131 C140 1.240 . S
O132 In130 2.326 . S
O132 C140 1.252 . S
C133 O136 1.252 . S
C133 O137 1.260 . S
C134 O141 1.240 . S
C134 O142 1.252 . S
C135 O138 1.252 . S
C135 O139 1.260 . S
O136 In130 2.266 . S
O136 C133 1.252 . S
O137 In130 2.326 . S
O137 C133 1.260 . S
O138 In130 2.266 . S
O138 C135 1.252 . S
O139 In130 2.326 . S
O139 C135 1.260 . S
C140 O131 1.240 . S
C140 O132 1.252 . S
O141 In130 2.294 . S
O141 C134 1.240 . S
O142 In130 2.326 . S
O142 C134 1.252 . S
In143 O144 2.294 . S
In143 O145 2.326 . S
In143 O149 2.266 . S
In143 O150 2.326 . S
In143 O151 2.266 . S
In143 O152 2.326 . S
In143 O154 2.294 . S
In143 O155 2.326 . S
O144 In143 2.294 . S
O144 C153 1.240 . S
O145 In143 2.326 . S
O145 C153 1.252 . S
C146 O149 1.252 . S
C146 O150 1.260 . S
C147 O154 1.240 . S
C147 O155 1.252 . S
C148 O151 1.252 . S
C148 O152 1.260 . S
O149 In143 2.266 . S
O149 C146 1.252 . S
O150 In143 2.326 . S
O150 C146 1.260 . S
O151 In143 2.266 . S
O151 C148 1.252 . S
O152 In143 2.326 . S
O152 C148 1.260 . S
C153 O144 1.240 . S
C153 O145 1.252 . S
O154 In143 2.294 . S
O154 C147 1.240 . S
O155 In143 2.326 . S
O155 C147 1.252 . S
In156 O157 2.294 . S
In156 O158 2.326 . S
In156 O162 2.266 . S
In156 O163 2.326 . S
In156 O164 2.266 . S
In156 O165 2.326 . S
In156 O167 2.294 . S
In156 O168 2.326 . S
O157 In156 2.294 . S
O157 C166 1.240 . S
O158 In156 2.326 . S
O158 C166 1.252 . S
C159 O162 1.252 . S
C159 O163 1.260 . S
C160 O167 1.240 . S
C160 O168 1.252 . S
C161 O164 1.252 . S
C161 O165 1.260 . S
O162 In156 2.266 . S
O162 C159 1.252 . S
O163 In156 2.326 . S
O163 C159 1.260 . S
O164 In156 2.266 . S
O164 C161 1.252 . S
O165 In156 2.326 . S
O165 C161 1.260 . S
C166 O157 1.240 . S
C166 O158 1.252 . S
O167 In156 2.294 . S
O167 C160 1.240 . S
O168 In156 2.326 . S
O168 C160 1.252 . S
In169 O170 2.294 . S
In169 O171 2.326 . S
In169 O175 2.266 . S
In169 O176 2.326 . S
In169 O177 2.266 . S
In169 O178 2.326 . S
In169 O180 2.294 . S
In169 O181 2.326 . S
O170 In169 2.294 . S
O170 C179 1.240 . S
O171 In169 2.326 . S
O171 C179 1.252 . S
C172 O175 1.252 . S
C172 O176 1.260 . S
C173 O180 1.240 . S
C173 O181 1.252 . S
C174 O177 1.252 . S
C174 O178 1.260 . S
O175 In169 2.266 . S
O175 C172 1.252 . S
O176 In169 2.326 . S
O176 C172 1.260 . S
O177 In169 2.266 . S
O177 C174 1.252 . S
O178 In169 2.326 . S
O178 C174 1.260 . S
C179 O170 1.240 . S
C179 O171 1.252 . S
O180 In169 2.294 . S
O180 C173 1.240 . S
O181 In169 2.326 . S
O181 C173 1.252 . S
In182 O183 2.294 . S
In182 O184 2.326 . S
In182 O188 2.266 . S
In182 O189 2.326 . S
In182 O190 2.266 . S
In182 O191 2.326 . S
In182 O193 2.294 . S
In182 O194 2.326 . S
O183 In182 2.294 . S
O183 C192 1.240 . S
O184 In182 2.326 . S
O184 C192 1.252 . S
C185 O188 1.252 . S
C185 O189 1.260 . S
C186 O193 1.240 . S
C186 O194 1.252 . S
C187 O190 1.252 . S
C187 O191 1.260 . S
O188 In182 2.266 . S
O188 C185 1.252 . S
O189 In182 2.326 . S
O189 C185 1.260 . S
O190 In182 2.266 . S
O190 C187 1.252 . S
O191 In182 2.326 . S
O191 C187 1.260 . S
C192 O183 1.240 . S
C192 O184 1.252 . S
O193 In182 2.294 . S
O193 C186 1.240 . S
O194 In182 2.326 . S
O194 C186 1.252 . S
In195 O196 2.294 . S
In195 O197 2.326 . S
In195 O201 2.266 . S
In195 O202 2.326 . S
In195 O203 2.266 . S
In195 O204 2.326 . S
In195 O206 2.294 . S
In195 O207 2.326 . S
O196 In195 2.294 . S
O196 C205 1.240 . S
O197 In195 2.326 . S
O197 C205 1.252 . S
C198 O201 1.252 . S
C198 O202 1.260 . S
C199 O206 1.240 . S
C199 O207 1.252 . S
C200 O203 1.252 . S
C200 O204 1.260 . S
O201 In195 2.266 . S
O201 C198 1.252 . S
O202 In195 2.326 . S
O202 C198 1.260 . S
O203 In195 2.266 . S
O203 C200 1.252 . S
O204 In195 2.326 . S
O204 C200 1.260 . S
C205 O196 1.240 . S
C205 O197 1.252 . S
O206 In195 2.294 . S
O206 C199 1.240 . S
O207 In195 2.326 . S
O207 C199 1.252 . S
In208 O209 2.294 . S
In208 O210 2.326 . S
In208 O214 2.266 . S
In208 O215 2.326 . S
In208 O216 2.266 . S
In208 O217 2.326 . S
In208 O219 2.294 . S
In208 O220 2.326 . S
O209 In208 2.294 . S
O209 C218 1.240 . S
O210 In208 2.326 . S
O210 C218 1.252 . S
C211 O214 1.252 . S
C211 O215 1.260 . S
C212 O219 1.240 . S
C212 O220 1.252 . S
C213 O216 1.252 . S
C213 O217 1.260 . S
O214 In208 2.266 . S
O214 C211 1.252 . S
O215 In208 2.326 . S
O215 C211 1.260 . S
O216 In208 2.266 . S
O216 C213 1.252 . S
O217 In208 2.326 . S
O217 C213 1.260 . S
C218 O209 1.240 . S
C218 O210 1.252 . S
O219 In208 2.294 . S
O219 C212 1.240 . S
O220 In208 2.326 . S
O220 C212 1.252 . S
In221 O222 2.294 . S
In221 O223 2.326 . S
In221 O227 2.266 . S
In221 O228 2.326 . S
In221 O229 2.266 . S
In221 O230 2.326 . S
In221 O232 2.294 . S
In221 O233 2.326 . S
O222 In221 2.294 . S
O222 C231 1.240 . S
O223 In221 2.326 . S
O223 C231 1.252 . S
C224 O227 1.252 . S
C224 O228 1.260 . S
C225 O232 1.240 . S
C225 O233 1.252 . S
C226 O229 1.252 . S
C226 O230 1.260 . S
O227 In221 2.266 . S
O227 C224 1.252 . S
O228 In221 2.326 . S
O228 C224 1.260 . S
O229 In221 2.266 . S
O229 C226 1.252 . S
O230 In221 2.326 . S
O230 C226 1.260 . S
C231 O222 1.240 . S
C231 O223 1.252 . S
O232 In221 2.294 . S
O232 C225 1.240 . S
O233 In221 2.326 . S
O233 C225 1.252 . S
In234 O235 2.294 . S
In234 O236 2.326 . S
In234 O240 2.266 . S
In234 O241 2.326 . S
In234 O242 2.266 . S
In234 O243 2.326 . S
In234 O245 2.294 . S
In234 O246 2.326 . S
O235 In234 2.294 . S
O235 C244 1.240 . S
O236 In234 2.326 . S
O236 C244 1.252 . S
C237 O240 1.252 . S
C237 O241 1.260 . S
C238 O245 1.240 . S
C238 O246 1.252 . S
C239 O242 1.252 . S
C239 O243 1.260 . S
O240 In234 2.266 . S
O240 C237 1.252 . S
O241 In234 2.326 . S
O241 C237 1.260 . S
O242 In234 2.266 . S
O242 C239 1.252 . S
O243 In234 2.326 . S
O243 C239 1.260 . S
C244 O235 1.240 . S
C244 O236 1.252 . S
O245 In234 2.294 . S
O245 C238 1.240 . S
O246 In234 2.326 . S
O246 C238 1.252 . S
In247 O248 2.294 . S
In247 O249 2.326 . S
In247 O253 2.266 . S
In247 O254 2.326 . S
In247 O255 2.266 . S
In247 O256 2.326 . S
In247 O258 2.294 . S
In247 O259 2.326 . S
O248 In247 2.294 . S
O248 C257 1.240 . S
O249 In247 2.326 . S
O249 C257 1.252 . S
C250 O253 1.252 . S
C250 O254 1.260 . S
C251 O258 1.240 . S
C251 O259 1.252 . S
C252 O255 1.252 . S
C252 O256 1.260 . S
O253 In247 2.266 . S
O253 C250 1.252 . S
O254 In247 2.326 . S
O254 C250 1.260 . S
O255 In247 2.266 . S
O255 C252 1.252 . S
O256 In247 2.326 . S
O256 C252 1.260 . S
C257 O248 1.240 . S
C257 O249 1.252 . S
O258 In247 2.294 . S
O258 C251 1.240 . S
O259 In247 2.326 . S
O259 C251 1.252 . S
In260 O261 2.294 . S
In260 O262 2.326 . S
In260 O266 2.266 . S
In260 O267 2.326 . S
In260 O268 2.266 . S
In260 O269 2.326 . S
In260 O271 2.294 . S
In260 O272 2.326 . S
O261 In260 2.294 . S
O261 C270 1.240 . S
O262 In260 2.326 . S
O262 C270 1.252 . S
C263 O266 1.252 . S
C263 O267 1.260 . S
C264 O271 1.240 . S
C264 O272 1.252 . S
C265 O268 1.252 . S
C265 O269 1.260 . S
O266 In260 2.266 . S
O266 C263 1.252 . S
O267 In260 2.326 . S
O267 C263 1.260 . S
O268 In260 2.266 . S
O268 C265 1.252 . S
O269 In260 2.326 . S
O269 C265 1.260 . S
C270 O261 1.240 . S
C270 O262 1.252 . S
O271 In260 2.294 . S
O271 C264 1.240 . S
O272 In260 2.326 . S
O272 C264 1.252 . S
In273 O274 2.294 . S
In273 O275 2.326 . S
In273 O279 2.266 . S
In273 O280 2.326 . S
In273 O281 2.266 . S
In273 O282 2.326 . S
In273 O284 2.294 . S
In273 O285 2.326 . S
O274 In273 2.294 . S
O274 C283 1.240 . S
O275 In273 2.326 . S
O275 C283 1.252 . S
C276 O279 1.252 . S
C276 O280 1.260 . S
C277 O284 1.240 . S
C277 O285 1.252 . S
C278 O281 1.252 . S
C278 O282 1.260 . S
O279 In273 2.266 . S
O279 C276 1.252 . S
O280 In273 2.326 . S
O280 C276 1.260 . S
O281 In273 2.266 . S
O281 C278 1.252 . S
O282 In273 2.326 . S
O282 C278 1.260 . S
C283 O274 1.240 . S
C283 O275 1.252 . S
O284 In273 2.294 . S
O284 C277 1.240 . S
O285 In273 2.326 . S
O285 C277 1.252 . S
In286 O287 2.294 . S
In286 O288 2.326 . S
In286 O292 2.266 . S
In286 O293 2.326 . S
In286 O294 2.266 . S
In286 O295 2.326 . S
In286 O297 2.294 . S
In286 O298 2.326 . S
O287 In286 2.294 . S
O287 C296 1.240 . S
O288 In286 2.326 . S
O288 C296 1.252 . S
C289 O292 1.252 . S
C289 O293 1.260 . S
C290 O297 1.240 . S
C290 O298 1.252 . S
C291 O294 1.252 . S
C291 O295 1.260 . S
O292 In286 2.266 . S
O292 C289 1.252 . S
O293 In286 2.326 . S
O293 C289 1.260 . S
O294 In286 2.266 . S
O294 C291 1.252 . S
O295 In286 2.326 . S
O295 C291 1.260 . S
C296 O287 1.240 . S
C296 O288 1.252 . S
O297 In286 2.294 . S
O297 C290 1.240 . S
O298 In286 2.326 . S
O298 C290 1.252 . S
In299 O300 2.294 . S
In299 O301 2.326 . S
In299 O305 2.266 . S
In299 O306 2.326 . S
In299 O307 2.266 . S
In299 O308 2.326 . S
In299 O310 2.294 . S
In299 O311 2.326 . S
O300 In299 2.294 . S
O300 C309 1.240 . S
O301 In299 2.326 . S
O301 C309 1.252 . S
C302 O305 1.252 . S
C302 O306 1.260 . S
C303 O310 1.240 . S
C303 O311 1.252 . S
C304 O307 1.252 . S
C304 O308 1.260 . S
O305 In299 2.266 . S
O305 C302 1.252 . S
O306 In299 2.326 . S
O306 C302 1.260 . S
O307 In299 2.266 . S
O307 C304 1.252 . S
O308 In299 2.326 . S
O308 C304 1.260 . S
C309 O300 1.240 . S
C309 O301 1.252 . S
O310 In299 2.294 . S
O310 C303 1.240 . S
O311 In299 2.326 . S
O311 C303 1.252 . S
In312 O313 2.294 . S
In312 O314 2.326 . S
In312 O318 2.266 . S
In312 O319 2.326 . S
In312 O320 2.266 . S
In312 O321 2.326 . S
In312 O323 2.294 . S
In312 O324 2.326 . S
O313 In312 2.294 . S
O313 C322 1.240 . S
O314 In312 2.326 . S
O314 C322 1.252 . S
C315 O318 1.252 . S
C315 O319 1.260 . S
C316 O323 1.240 . S
C316 O324 1.252 . S
C317 O320 1.252 . S
C317 O321 1.260 . S
O318 In312 2.266 . S
O318 C315 1.252 . S
O319 In312 2.326 . S
O319 C315 1.260 . S
O320 In312 2.266 . S
O320 C317 1.252 . S
O321 In312 2.326 . S
O321 C317 1.260 . S
C322 O313 1.240 . S
C322 O314 1.252 . S
O323 In312 2.294 . S
O323 C316 1.240 . S
O324 In312 2.326 . S
O324 C316 1.252 . S
In325 O326 2.294 . S
In325 O327 2.326 . S
In325 O331 2.266 . S
In325 O332 2.326 . S
In325 O333 2.266 . S
In325 O334 2.326 . S
In325 O336 2.294 . S
In325 O337 2.326 . S
O326 In325 2.294 . S
O326 C335 1.240 . S
O327 In325 2.326 . S
O327 C335 1.252 . S
C328 O331 1.252 . S
C328 O332 1.260 . S
C329 O336 1.240 . S
C329 O337 1.252 . S
C330 O333 1.252 . S
C330 O334 1.260 . S
O331 In325 2.266 . S
O331 C328 1.252 . S
O332 In325 2.326 . S
O332 C328 1.260 . S
O333 In325 2.266 . S
O333 C330 1.252 . S
O334 In325 2.326 . S
O334 C330 1.260 . S
C335 O326 1.240 . S
C335 O327 1.252 . S
O336 In325 2.294 . S
O336 C329 1.240 . S
O337 In325 2.326 . S
O337 C329 1.252 . S
In338 O339 2.294 . S
In338 O340 2.326 . S
In338 O344 2.266 . S
In338 O345 2.326 . S
In338 O346 2.266 . S
In338 O347 2.326 . S
In338 O349 2.294 . S
In338 O350 2.326 . S
O339 In338 2.294 . S
O339 C348 1.240 . S
O340 In338 2.326 . S
O340 C348 1.252 . S
C341 O344 1.252 . S
C341 O345 1.260 . S
C342 O349 1.240 . S
C342 O350 1.252 . S
C343 O346 1.252 . S
C343 O347 1.260 . S
O344 In338 2.266 . S
O344 C341 1.252 . S
O345 In338 2.326 . S
O345 C341 1.260 . S
O346 In338 2.266 . S
O346 C343 1.252 . S
O347 In338 2.326 . S
O347 C343 1.260 . S
C348 O339 1.240 . S
C348 O340 1.252 . S
O349 In338 2.294 . S
O349 C342 1.240 . S
O350 In338 2.326 . S
O350 C342 1.252 . S
In351 O352 2.294 . S
In351 O353 2.326 . S
In351 O357 2.266 . S
In351 O358 2.326 . S
In351 O359 2.266 . S
In351 O360 2.326 . S
In351 O362 2.294 . S
In351 O363 2.326 . S
O352 In351 2.294 . S
O352 C361 1.240 . S
O353 In351 2.326 . S
O353 C361 1.252 . S
C354 O357 1.252 . S
C354 O358 1.260 . S
C355 O362 1.240 . S
C355 O363 1.252 . S
C356 O359 1.252 . S
C356 O360 1.260 . S
O357 In351 2.266 . S
O357 C354 1.252 . S
O358 In351 2.326 . S
O358 C354 1.260 . S
O359 In351 2.266 . S
O359 C356 1.252 . S
O360 In351 2.326 . S
O360 C356 1.260 . S
C361 O352 1.240 . S
C361 O353 1.252 . S
O362 In351 2.294 . S
O362 C355 1.240 . S
O363 In351 2.326 . S
O363 C355 1.252 . S
In364 O365 2.294 . S
In364 O366 2.326 . S
In364 O370 2.266 . S
In364 O371 2.326 . S
In364 O372 2.266 . S
In364 O373 2.326 . S
In364 O375 2.294 . S
In364 O376 2.326 . S
O365 In364 2.294 . S
O365 C374 1.240 . S
O366 In364 2.326 . S
O366 C374 1.252 . S
C367 O370 1.252 . S
C367 O371 1.260 . S
C368 O375 1.240 . S
C368 O376 1.252 . S
C369 O372 1.252 . S
C369 O373 1.260 . S
O370 In364 2.266 . S
O370 C367 1.252 . S
O371 In364 2.326 . S
O371 C367 1.260 . S
O372 In364 2.266 . S
O372 C369 1.252 . S
O373 In364 2.326 . S
O373 C369 1.260 . S
C374 O365 1.240 . S
C374 O366 1.252 . S
O375 In364 2.294 . S
O375 C368 1.240 . S
O376 In364 2.326 . S
O376 C368 1.252 . S
In377 O378 2.294 . S
In377 O379 2.326 . S
In377 O383 2.266 . S
In377 O384 2.326 . S
In377 O385 2.266 . S
In377 O386 2.326 . S
In377 O388 2.294 . S
In377 O389 2.326 . S
O378 In377 2.294 . S
O378 C387 1.240 . S
O379 In377 2.326 . S
O379 C387 1.252 . S
C380 O383 1.252 . S
C380 O384 1.260 . S
C381 O388 1.240 . S
C381 O389 1.252 . S
C382 O385 1.252 . S
C382 O386 1.260 . S
O383 In377 2.266 . S
O383 C380 1.252 . S
O384 In377 2.326 . S
O384 C380 1.260 . S
O385 In377 2.266 . S
O385 C382 1.252 . S
O386 In377 2.326 . S
O386 C382 1.260 . S
C387 O378 1.240 . S
C387 O379 1.252 . S
O388 In377 2.294 . S
O388 C381 1.240 . S
O389 In377 2.326 . S
O389 C381 1.252 . S
In390 O391 2.294 . S
In390 O392 2.326 . S
In390 O396 2.266 . S
In390 O397 2.326 . S
In390 O398 2.266 . S
In390 O399 2.326 . S
In390 O401 2.294 . S
In390 O402 2.326 . S
O391 In390 2.294 . S
O391 C400 1.240 . S
O392 In390 2.326 . S
O392 C400 1.252 . S
C393 O396 1.252 . S
C393 O397 1.260 . S
C394 O401 1.240 . S
C394 O402 1.252 . S
C395 O398 1.252 . S
C395 O399 1.260 . S
O396 In390 2.266 . S
O396 C393 1.252 . S
O397 In390 2.326 . S
O397 C393 1.260 . S
O398 In390 2.266 . S
O398 C395 1.252 . S
O399 In390 2.326 . S
O399 C395 1.260 . S
C400 O391 1.240 . S
C400 O392 1.252 . S
O401 In390 2.294 . S
O401 C394 1.240 . S
O402 In390 2.326 . S
O402 C394 1.252 . S
In403 O404 2.294 . S
In403 O405 2.326 . S
In403 O409 2.266 . S
In403 O410 2.326 . S
In403 O411 2.266 . S
In403 O412 2.326 . S
In403 O414 2.294 . S
In403 O415 2.326 . S
O404 In403 2.294 . S
O404 C413 1.240 . S
O405 In403 2.326 . S
O405 C413 1.252 . S
C406 O409 1.252 . S
C406 O410 1.260 . S
C407 O414 1.240 . S
C407 O415 1.252 . S
C408 O411 1.252 . S
C408 O412 1.260 . S
O409 In403 2.266 . S
O409 C406 1.252 . S
O410 In403 2.326 . S
O410 C406 1.260 . S
O411 In403 2.266 . S
O411 C408 1.252 . S
O412 In403 2.326 . S
O412 C408 1.260 . S
C413 O404 1.240 . S
C413 O405 1.252 . S
O414 In403 2.294 . S
O414 C407 1.240 . S
O415 In403 2.326 . S
O415 C407 1.252 . S
H416 C422 0.930 . S
H417 C426 0.930 . S
H418 C431 0.929 . S
H419 C429 0.929 . S
H420 C424 0.929 . S
H421 C430 0.929 1_556 S
C422 H416 0.930 . S
C422 C423 1.367 . S
C422 C430 1.378 . S
C423 C422 1.367 . S
C423 C431 1.433 . S
C424 H420 0.929 . S
C424 C426 1.378 1_554 S
C424 C428 1.357 1_655 S
C425 C428 1.479 1_545 S
C425 C430 1.350 . S
C425 N433 1.427 . S
C426 H417 0.930 . S
C426 C424 1.378 1_556 S
C426 C427 1.367 . S
C427 C426 1.367 . S
C427 C429 1.433 1_655 S
C428 C424 1.357 1_455 S
C428 C425 1.479 1_565 S
C428 N432 1.403 1_554 S
C429 H419 0.929 . S
C429 C427 1.433 1_455 S
C429 N432 1.384 . S
C430 H421 0.929 1_554 S
C430 C422 1.378 . S
C430 C425 1.350 . S
C431 H418 0.929 . S
C431 C423 1.433 . S
C431 N433 1.384 . S
N432 C428 1.403 1_556 S
N432 C429 1.384 . S
N433 C425 1.427 . S
N433 C431 1.384 . S
H434 C440 0.930 . S
H435 C444 0.930 . S
H436 C449 0.929 . S
H437 C447 0.929 . S
H438 C442 0.929 . S
H439 C448 0.929 . S
C440 H434 0.930 . S
C440 C441 1.367 . S
C440 C448 1.378 . S
C441 C440 1.367 . S
C441 C449 1.433 . S
C442 H438 0.929 . S
C442 C444 1.378 . S
C442 C446 1.350 . S
C443 C446 1.463 . S
C443 C448 1.350 . S
C443 N451 1.427 . S
C444 H435 0.930 . S
C444 C442 1.378 . S
C444 C445 1.367 . S
C445 C444 1.367 . S
C445 C447 1.433 . S
C446 C442 1.350 . S
C446 C443 1.463 . S
C446 N450 1.427 . S
C447 H437 0.929 . S
C447 C445 1.433 . S
C447 N450 1.384 . S
C448 H439 0.929 . S
C448 C440 1.378 . S
C448 C443 1.350 . S
C449 H436 0.929 . S
C449 C441 1.433 . S
C449 N451 1.384 . S
N450 C446 1.427 . S
N450 C447 1.384 . S
N451 C443 1.427 . S
N451 C449 1.384 . S
H452 C458 0.930 . S
H453 C462 0.930 1_565 S
H454 C467 0.929 . S
H455 C465 0.929 . S
H456 C460 0.929 . S
H457 C466 0.929 . S
C458 H452 0.930 . S
C458 C459 1.367 1_545 S
C458 C466 1.378 . S
C459 C458 1.367 1_565 S
C459 C467 1.433 . S
C460 H456 0.929 . S
C460 C462 1.378 1_565 S
C460 C464 1.350 1_565 S
C461 C464 1.463 1_565 S
C461 C466 1.350 1_565 S
C461 N469 1.427 . S
C462 H453 0.930 1_545 S
C462 C460 1.378 1_545 S
C462 C463 1.367 . S
C463 C462 1.367 . S
C463 C465 1.433 . S
C464 C460 1.350 1_545 S
C464 C461 1.463 1_545 S
C464 N468 1.427 . S
C465 H455 0.929 . S
C465 C463 1.433 . S
C465 N468 1.384 . S
C466 H457 0.929 . S
C466 C458 1.378 . S
C466 C461 1.350 1_545 S
C467 H454 0.929 . S
C467 C459 1.433 . S
C467 N469 1.384 . S
N468 C464 1.427 . S
N468 C465 1.384 . S
N469 C461 1.427 . S
N469 C467 1.384 . S
H470 C476 0.930 . S
H471 C480 0.930 . S
H472 C485 0.929 . S
H473 C483 0.929 . S
H474 C478 0.929 . S
H475 C484 0.929 . S
C476 H470 0.930 . S
C476 C477 1.367 . S
C476 C484 1.378 . S
C477 C476 1.367 . S
C477 C485 1.433 . S
C478 H474 0.929 . S
C478 C480 1.378 . S
C478 C482 1.350 . S
C479 C482 1.463 . S
C479 C484 1.350 . S
C479 N487 1.427 . S
C480 H471 0.930 . S
C480 C478 1.378 . S
C480 C481 1.367 . S
C481 C480 1.367 . S
C481 C483 1.433 . S
C482 C478 1.350 . S
C482 C479 1.463 . S
C482 N486 1.427 . S
C483 H473 0.929 . S
C483 C481 1.433 . S
C483 N486 1.384 . S
C484 H475 0.929 . S
C484 C476 1.378 . S
C484 C479 1.350 . S
C485 H472 0.929 . S
C485 C477 1.433 . S
C485 N487 1.384 . S
N486 C482 1.427 . S
N486 C483 1.384 . S
N487 C479 1.427 . S
N487 C485 1.384 . S
H488 C494 0.930 . S
H489 C498 0.930 . S
H490 C503 0.929 . S
H491 C501 0.929 . S
H492 C496 0.929 . S
H493 C502 0.929 . S
C494 H488 0.930 . S
C494 C495 1.367 . S
C494 C502 1.378 1_565 S
C495 C494 1.367 . S
C495 C503 1.433 1_565 S
C496 H492 0.929 . S
C496 C498 1.378 . S
C496 C500 1.350 . S
C497 C500 1.463 . S
C497 C502 1.350 . S
C497 N505 1.427 . S
C498 H489 0.930 . S
C498 C496 1.378 . S
C498 C499 1.367 1_455 S
C499 C498 1.367 1_655 S
C499 C501 1.433 . S
C500 C496 1.350 . S
C500 C497 1.463 . S
C500 N504 1.427 1_455 S
C501 H491 0.929 . S
C501 C499 1.433 . S
C501 N504 1.384 . S
C502 H493 0.929 . S
C502 C494 1.378 1_545 S
C502 C497 1.350 . S
C503 H490 0.929 . S
C503 C495 1.433 1_545 S
C503 N505 1.384 . S
N504 C500 1.427 1_655 S
N504 C501 1.384 . S
N505 C497 1.427 . S
N505 C503 1.384 . S
H506 C512 0.930 . S
H507 C516 0.930 . S
H508 C521 0.929 . S
H509 C519 0.929 . S
H510 C514 0.929 . S
H511 C520 0.929 . S
C512 H506 0.930 . S
C512 C513 1.367 . S
C512 C520 1.378 . S
C513 C512 1.367 . S
C513 C521 1.433 . S
C514 H510 0.929 . S
C514 C516 1.378 . S
C514 C518 1.350 . S
C515 C518 1.463 . S
C515 C520 1.350 . S
C515 N523 1.427 . S
C516 H507 0.930 . S
C516 C514 1.378 . S
C516 C517 1.367 . S
C517 C516 1.367 . S
C517 C519 1.433 . S
C518 C514 1.350 . S
C518 C515 1.463 . S
C518 N522 1.427 . S
C519 H509 0.929 . S
C519 C517 1.433 . S
C519 N522 1.384 . S
C520 H511 0.929 . S
C520 C512 1.378 . S
C520 C515 1.350 . S
C521 H508 0.929 . S
C521 C513 1.433 . S
C521 N523 1.384 . S
N522 C518 1.427 . S
N522 C519 1.384 . S
N523 C515 1.427 . S
N523 C521 1.384 . S
H524 C530 0.930 . S
H525 C534 0.930 . S
H526 C539 0.929 . S
H527 C537 0.929 1_556 S
H528 C532 0.931 . S
H529 C538 0.929 . S
C530 H524 0.930 . S
C530 C531 1.367 1_565 S
C530 C538 1.378 . S
C531 C530 1.367 1_545 S
C531 C539 1.433 . S
C532 H528 0.931 . S
C532 C534 1.378 . S
C532 C536 1.388 . S
C533 C536 1.439 1_556 S
C533 C538 1.350 . S
C533 N541 1.427 1_565 S
C534 H525 0.930 . S
C534 C532 1.378 . S
C534 C535 1.367 . S
C535 C534 1.367 . S
C535 C537 1.433 . S
C536 C532 1.388 . S
C536 C533 1.439 1_554 S
C536 N540 1.410 1_554 S
C537 H527 0.929 1_554 S
C537 C535 1.433 . S
C537 N540 1.384 1_554 S
C538 H529 0.929 . S
C538 C530 1.378 . S
C538 C533 1.350 . S
C539 H526 0.929 . S
C539 C531 1.433 . S
C539 N541 1.384 . S
N540 C536 1.410 1_556 S
N540 C537 1.384 1_556 S
N541 C533 1.427 1_545 S
N541 C539 1.384 . S
H542 C548 0.930 . S
H543 C552 0.930 . S
H544 C557 0.929 . S
H545 C555 0.929 . S
H546 C550 0.929 . S
H547 C556 0.929 . S
C548 H542 0.930 . S
C548 C549 1.367 . S
C548 C556 1.378 . S
C549 C548 1.367 . S
C549 C557 1.433 . S
C550 H546 0.929 . S
C550 C552 1.378 . S
C550 C554 1.350 . S
C551 C554 1.463 . S
C551 C556 1.350 . S
C551 N559 1.427 . S
C552 H543 0.930 . S
C552 C550 1.378 . S
C552 C553 1.367 . S
C553 C552 1.367 . S
C553 C555 1.433 . S
C554 C550 1.350 . S
C554 C551 1.463 . S
C554 N558 1.427 . S
C555 H545 0.929 . S
C555 C553 1.433 . S
C555 N558 1.384 . S
C556 H547 0.929 . S
C556 C548 1.378 . S
C556 C551 1.350 . S
C557 H544 0.929 . S
C557 C549 1.433 . S
C557 N559 1.384 . S
N558 C554 1.427 . S
N558 C555 1.384 . S
N559 C551 1.427 . S
N559 C557 1.384 . S
H560 C566 0.930 . S
H561 C570 0.930 . S
H562 C575 0.929 . S
H563 C573 0.929 . S
H564 C568 0.929 . S
H565 C574 0.899 1_556 S
C566 H560 0.930 . S
C566 C567 1.367 . S
C566 C574 1.378 . S
C567 C566 1.367 . S
C567 C575 1.433 . S
C568 H564 0.929 . S
C568 C570 1.378 1_554 S
C568 C572 1.350 . S
C569 C572 1.463 . S
C569 C574 1.350 . S
C569 N577 1.427 . S
C570 H561 0.930 . S
C570 C568 1.378 1_556 S
C570 C571 1.367 . S
C571 C570 1.367 . S
C571 C573 1.433 . S
C572 C568 1.350 . S
C572 C569 1.463 . S
C572 N576 1.427 1_554 S
C573 H563 0.929 . S
C573 C571 1.433 . S
C573 N576 1.384 . S
C574 H565 0.899 1_554 S
C574 C566 1.378 . S
C574 C569 1.350 . S
C575 H562 0.929 . S
C575 C567 1.433 . S
C575 N577 1.384 . S
N576 C572 1.427 1_556 S
N576 C573 1.384 . S
N577 C569 1.427 . S
N577 C575 1.384 . S
H578 C584 0.930 . S
H579 C588 0.930 . S
H580 C593 0.929 . S
H581 C591 0.929 . S
H582 C586 0.929 . S
H583 C592 0.929 . S
C584 H578 0.930 . S
C584 C585 1.367 . S
C584 C592 1.378 . S
C585 C584 1.367 . S
C585 C593 1.433 . S
C586 H582 0.929 . S
C586 C588 1.378 . S
C586 C590 1.350 . S
C587 C590 1.463 . S
C587 C592 1.350 . S
C587 N595 1.427 . S
C588 H579 0.930 . S
C588 C586 1.378 . S
C588 C589 1.367 . S
C589 C588 1.367 . S
C589 C591 1.433 . S
C590 C586 1.350 . S
C590 C587 1.463 . S
C590 N594 1.427 . S
C591 H581 0.929 . S
C591 C589 1.433 . S
C591 N594 1.384 . S
C592 H583 0.929 . S
C592 C584 1.378 . S
C592 C587 1.350 . S
C593 H580 0.929 . S
C593 C585 1.433 . S
C593 N595 1.384 . S
N594 C590 1.427 . S
N594 C591 1.384 . S
N595 C587 1.427 . S
N595 C593 1.384 . S
H596 C602 0.930 . S
H597 C606 0.930 . S
H598 C611 0.929 . S
H599 C609 0.929 . S
H600 C604 0.929 . S
H601 C610 0.929 . S
C602 H596 0.930 . S
C602 C603 1.367 . S
C602 C610 1.378 . S
C603 C602 1.367 . S
C603 C611 1.433 . S
C604 H600 0.929 . S
C604 C606 1.378 . S
C604 C608 1.350 . S
C605 C608 1.463 1_455 S
C605 C610 1.350 . S
C605 N613 1.427 . S
C606 H597 0.930 . S
C606 C604 1.378 . S
C606 C607 1.367 . S
C607 C606 1.367 . S
C607 C609 1.433 . S
C608 C604 1.350 . S
C608 C605 1.463 1_655 S
C608 N612 1.427 . S
C609 H599 0.929 . S
C609 C607 1.433 . S
C609 N612 1.384 . S
C610 H601 0.929 . S
C610 C602 1.378 . S
C610 C605 1.350 . S
C611 H598 0.929 . S
C611 C603 1.433 . S
C611 N613 1.384 . S
N612 C608 1.427 . S
N612 C609 1.384 . S
N613 C605 1.427 . S
N613 C611 1.384 . S
H614 C620 0.930 . S
H615 C624 0.930 . S
H616 C629 0.929 . S
H617 C627 0.929 . S
H618 C622 0.929 . S
H619 C628 0.929 . S
C620 H614 0.930 . S
C620 C621 1.367 . S
C620 C628 1.378 . S
C621 C620 1.367 . S
C621 C629 1.433 . S
C622 H618 0.929 . S
C622 C624 1.378 . S
C622 C626 1.350 . S
C623 C626 1.463 . S
C623 C628 1.350 . S
C623 N631 1.427 . S
C624 H615 0.930 . S
C624 C622 1.378 . S
C624 C625 1.367 . S
C625 C624 1.367 . S
C625 C627 1.433 . S
C626 C622 1.350 . S
C626 C623 1.463 . S
C626 N630 1.427 . S
C627 H617 0.929 . S
C627 C625 1.433 . S
C627 N630 1.384 . S
C628 H619 0.929 . S
C628 C620 1.378 . S
C628 C623 1.350 . S
C629 H616 0.929 . S
C629 C621 1.433 . S
C629 N631 1.384 . S
N630 C626 1.427 . S
N630 C627 1.384 . S
N631 C623 1.427 . S
N631 C629 1.384 . S
H632 C638 0.930 . S
H633 C642 0.930 . S
H634 C647 0.929 . S
H635 C645 0.929 . S
H636 C640 0.929 . S
H637 C646 0.929 . S
C638 H632 0.930 . S
C638 C639 1.367 . S
C638 C646 1.378 . S
C639 C638 1.367 . S
C639 C647 1.433 . S
C640 H636 0.929 . S
C640 C642 1.378 . S
C640 C644 1.350 . S
C641 C644 1.463 . S
C641 C646 1.350 . S
C641 N649 1.427 . S
C642 H633 0.930 . S
C642 C640 1.378 . S
C642 C643 1.367 . S
C643 C642 1.367 . S
C643 C645 1.433 . S
C644 C640 1.350 . S
C644 C641 1.463 . S
C644 N648 1.427 . S
C645 H635 0.929 . S
C645 C643 1.433 . S
C645 N648 1.384 . S
C646 H637 0.929 . S
C646 C638 1.378 . S
C646 C641 1.350 . S
C647 H634 0.929 . S
C647 C639 1.433 . S
C647 N649 1.384 . S
N648 C644 1.427 . S
N648 C645 1.384 . S
N649 C641 1.427 . S
N649 C647 1.384 . S
H650 C656 0.930 . S
H651 C660 0.930 . S
H652 C665 0.929 . S
H653 C663 0.929 . S
H654 C658 0.929 . S
H655 C664 0.929 . S
C656 H650 0.930 . S
C656 C657 1.367 . S
C656 C664 1.378 . S
C657 C656 1.367 . S
C657 C665 1.433 . S
C658 H654 0.929 . S
C658 C660 1.378 . S
C658 C662 1.350 . S
C659 C662 1.463 . S
C659 C664 1.350 . S
C659 N667 1.427 . S
C660 H651 0.930 . S
C660 C658 1.378 . S
C660 C661 1.367 . S
C661 C660 1.367 . S
C661 C663 1.433 . S
C662 C658 1.350 . S
C662 C659 1.463 . S
C662 N666 1.427 . S
C663 H653 0.929 . S
C663 C661 1.433 . S
C663 N666 1.384 . S
C664 H655 0.929 . S
C664 C656 1.378 . S
C664 C659 1.350 . S
C665 H652 0.929 . S
C665 C657 1.433 . S
C665 N667 1.384 . S
N666 C662 1.427 . S
N666 C663 1.384 . S
N667 C659 1.427 . S
N667 C665 1.384 . S
H668 C674 0.930 . S
H669 C678 0.930 . S
H670 C683 0.929 . S
H671 C681 0.929 . S
H672 C676 0.929 . S
H673 C682 0.929 . S
C674 H668 0.930 . S
C674 C675 1.367 . S
C674 C682 1.378 . S
C675 C674 1.367 . S
C675 C683 1.433 . S
C676 H672 0.929 . S
C676 C678 1.378 . S
C676 C680 1.350 . S
C677 C680 1.463 . S
C677 C682 1.350 . S
C677 N685 1.427 . S
C678 H669 0.930 . S
C678 C676 1.378 . S
C678 C679 1.367 . S
C679 C678 1.367 . S
C679 C681 1.433 . S
C680 C676 1.350 . S
C680 C677 1.463 . S
C680 N684 1.427 . S
C681 H671 0.929 . S
C681 C679 1.433 . S
C681 N684 1.384 . S
C682 H673 0.929 . S
C682 C674 1.378 . S
C682 C677 1.350 . S
C683 H670 0.929 . S
C683 C675 1.433 . S
C683 N685 1.384 . S
N684 C680 1.427 . S
N684 C681 1.384 . S
N685 C677 1.427 . S
N685 C683 1.384 . S
H686 C692 0.930 . S
H687 C696 0.930 . S
H688 C701 0.929 . S
H689 C699 0.929 . S
H690 C694 0.929 . S
H691 C700 0.929 . S
C692 H686 0.930 . S
C692 C693 1.367 . S
C692 C700 1.378 . S
C693 C692 1.367 . S
C693 C701 1.433 . S
C694 H690 0.929 . S
C694 C696 1.378 . S
C694 C698 1.350 . S
C695 C698 1.463 1_556 S
C695 C700 1.350 1_655 S
C695 N703 1.429 . S
C696 H687 0.930 . S
C696 C694 1.378 . S
C696 C697 1.367 . S
C697 C696 1.367 . S
C697 C699 1.433 . S
C698 C694 1.350 . S
C698 C695 1.463 1_554 S
C698 N702 1.427 . S
C699 H689 0.929 . S
C699 C697 1.433 . S
C699 N702 1.384 . S
C700 H691 0.929 . S
C700 C692 1.378 . S
C700 C695 1.350 1_455 S
C701 H688 0.929 . S
C701 C693 1.433 . S
C701 N703 1.412 1_455 S
N702 C698 1.427 . S
N702 C699 1.384 . S
N703 C695 1.429 . S
N703 C701 1.412 1_655 S
H704 C710 0.930 . S
H705 C714 0.930 . S
H706 C719 0.929 . S
H707 C717 0.929 . S
H708 C712 0.929 . S
H709 C718 0.929 . S
C710 H704 0.930 . S
C710 C711 1.367 1_565 S
C710 C718 1.378 . S
C711 C710 1.367 1_545 S
C711 C719 1.433 . S
C712 H708 0.929 . S
C712 C714 1.378 . S
C712 C716 1.350 . S
C713 C716 1.463 . S
C713 C718 1.350 . S
C713 N721 1.427 1_565 S
C714 H705 0.930 . S
C714 C712 1.378 . S
C714 C715 1.367 . S
C715 C714 1.367 . S
C715 C717 1.433 . S
C716 C712 1.350 . S
C716 C713 1.463 . S
C716 N720 1.427 . S
C717 H707 0.929 . S
C717 C715 1.433 . S
C717 N720 1.384 . S
C718 H709 0.929 . S
C718 C710 1.378 . S
C718 C713 1.350 . S
C719 H706 0.929 . S
C719 C711 1.433 . S
C719 N721 1.384 . S
N720 C716 1.427 . S
N720 C717 1.384 . S
N721 C713 1.427 1_545 S
N721 C719 1.384 . S
H722 C728 0.930 . S
H723 C732 0.930 . S
H724 C737 0.929 . S
H725 C735 0.929 . S
H726 C730 0.929 . S
H727 C736 0.929 . S
C728 H722 0.930 . S
C728 C729 1.367 . S
C728 C736 1.378 . S
C729 C728 1.367 . S
C729 C737 1.433 . S
C730 H726 0.929 . S
C730 C732 1.378 . S
C730 C734 1.350 . S
C731 C734 1.463 . S
C731 C736 1.350 . S
C731 N739 1.427 . S
C732 H723 0.930 . S
C732 C730 1.378 . S
C732 C733 1.367 . S
C733 C732 1.367 . S
C733 C735 1.433 . S
C734 C730 1.350 . S
C734 C731 1.463 . S
C734 N738 1.427 . S
C735 H725 0.929 . S
C735 C733 1.433 . S
C735 N738 1.384 . S
C736 H727 0.929 . S
C736 C728 1.378 . S
C736 C731 1.350 . S
C737 H724 0.929 . S
C737 C729 1.433 . S
C737 N739 1.384 . S
N738 C734 1.427 . S
N738 C735 1.384 . S
N739 C731 1.427 . S
N739 C737 1.384 . S
H740 C746 0.930 . S
H741 C750 0.930 . S
H742 C755 0.929 . S
H743 C753 0.929 . S
H744 C748 0.929 . S
H745 C754 0.929 . S
C746 H740 0.930 . S
C746 C747 1.367 . S
C746 C754 1.378 . S
C747 C746 1.367 . S
C747 C755 1.433 . S
C748 H744 0.929 . S
C748 C750 1.378 . S
C748 C752 1.350 . S
C749 C752 1.463 . S
C749 C754 1.350 . S
C749 N757 1.427 . S
C750 H741 0.930 . S
C750 C748 1.378 . S
C750 C751 1.367 1_545 S
C751 C750 1.367 1_565 S
C751 C753 1.433 . S
C752 C748 1.350 . S
C752 C749 1.463 . S
C752 N756 1.427 . S
C753 H743 0.929 . S
C753 C751 1.433 . S
C753 N756 1.384 1_565 S
C754 H745 0.929 . S
C754 C746 1.378 . S
C754 C749 1.350 . S
C755 H742 0.929 . S
C755 C747 1.433 . S
C755 N757 1.384 . S
N756 C752 1.427 . S
N756 C753 1.384 1_545 S
N757 C749 1.427 . S
N757 C755 1.384 . S
H758 C764 0.930 . S
H759 C768 0.930 . S
H760 C773 0.929 . S
H761 C771 0.929 . S
H762 C766 0.929 1_556 S
H763 C772 0.929 . S
C764 H758 0.930 . S
C764 C765 1.367 . S
C764 C772 1.378 . S
C765 C764 1.367 . S
C765 C773 1.433 . S
C766 H762 0.929 1_554 S
C766 C768 1.378 . S
C766 C770 1.350 1_554 S
C767 C770 1.463 . S
C767 C772 1.350 . S
C767 N775 1.427 . S
C768 H759 0.930 . S
C768 C766 1.378 . S
C768 C769 1.367 . S
C769 C768 1.367 . S
C769 C771 1.433 . S
C770 C766 1.350 1_556 S
C770 C767 1.463 . S
C770 N774 1.427 1_556 S
C771 H761 0.929 . S
C771 C769 1.433 . S
C771 N774 1.384 . S
C772 H763 0.929 . S
C772 C764 1.378 . S
C772 C767 1.350 . S
C773 H760 0.929 . S
C773 C765 1.433 . S
C773 N775 1.384 . S
N774 C770 1.427 1_554 S
N774 C771 1.384 . S
N775 C767 1.427 . S
N775 C773 1.384 . S
H776 C782 0.930 . S
H777 C786 0.930 . S
H778 C791 0.929 . S
H779 C789 0.929 . S
H780 C784 0.929 . S
H781 C790 0.929 . S
C782 H776 0.930 . S
C782 C783 1.367 . S
C782 C790 1.378 . S
C783 C782 1.367 . S
C783 C791 1.433 . S
C784 H780 0.929 . S
C784 C786 1.378 1_545 S
C784 C788 1.350 . S
C785 C788 1.463 . S
C785 C790 1.350 . S
C785 N793 1.427 . S
C786 H777 0.930 . S
C786 C784 1.378 1_565 S
C786 C787 1.367 . S
C787 C786 1.367 . S
C787 C789 1.433 1_565 S
C788 C784 1.350 . S
C788 C785 1.463 . S
C788 N792 1.427 . S
C789 H779 0.929 . S
C789 C787 1.433 1_545 S
C789 N792 1.384 . S
C790 H781 0.929 . S
C790 C782 1.378 . S
C790 C785 1.350 . S
C791 H778 0.929 . S
C791 C783 1.433 . S
C791 N793 1.384 . S
N792 C788 1.427 . S
N792 C789 1.384 . S
N793 C785 1.427 . S
N793 C791 1.384 . S
H794 C800 0.930 . S
H795 C804 0.930 . S
H796 C809 0.929 . S
H797 C807 0.929 . S
H798 C802 0.929 . S
H799 C808 0.929 . S
C800 H794 0.930 . S
C800 C801 1.367 . S
C800 C808 1.378 . S
C801 C800 1.367 . S
C801 C809 1.433 . S
C802 H798 0.929 . S
C802 C804 1.378 . S
C802 C806 1.350 . S
C803 C806 1.463 . S
C803 C808 1.350 . S
C803 N811 1.427 . S
C804 H795 0.930 . S
C804 C802 1.378 . S
C804 C805 1.367 . S
C805 C804 1.367 . S
C805 C807 1.433 . S
C806 C802 1.350 . S
C806 C803 1.463 . S
C806 N810 1.427 . S
C807 H797 0.929 . S
C807 C805 1.433 . S
C807 N810 1.384 . S
C808 H799 0.929 . S
C808 C800 1.378 . S
C808 C803 1.350 . S
C809 H796 0.929 . S
C809 C801 1.433 . S
C809 N811 1.384 . S
N810 C806 1.427 . S
N810 C807 1.384 . S
N811 C803 1.427 . S
N811 C809 1.384 . S
H812 C818 0.930 . S
H813 C822 0.930 . S
H814 C827 0.929 . S
H815 C825 0.929 . S
H816 C820 0.929 . S
H817 C826 0.929 1_545 S
C818 H812 0.930 . S
C818 C819 1.367 . S
C818 C826 1.380 1_545 S
C819 C818 1.367 . S
C819 C827 1.433 1_545 S
C820 H816 0.929 . S
C820 C822 1.378 . S
C820 C824 1.350 . S
C821 C824 1.463 . S
C821 C826 1.347 . S
C821 N829 1.427 . S
C822 H813 0.930 . S
C822 C820 1.378 . S
C822 C823 1.367 . S
C823 C822 1.367 . S
C823 C825 1.433 . S
C824 C820 1.350 . S
C824 C821 1.463 . S
C824 N828 1.427 . S
C825 H815 0.929 . S
C825 C823 1.433 . S
C825 N828 1.384 . S
C826 H817 0.929 1_565 S
C826 C818 1.380 1_565 S
C826 C821 1.347 . S
C827 H814 0.929 . S
C827 C819 1.433 1_565 S
C827 N829 1.384 . S
N828 C824 1.427 . S
N828 C825 1.384 . S
N829 C821 1.427 . S
N829 C827 1.384 . S
H830 C836 0.930 . S
H831 C840 0.930 . S
H832 C845 0.929 . S
H833 C843 0.929 . S
H834 C838 0.929 . S
H835 C844 0.929 . S
C836 H830 0.930 . S
C836 C837 1.367 . S
C836 C844 1.378 1_556 S
C837 C836 1.367 . S
C837 C845 1.433 . S
C838 H834 0.929 . S
C838 C840 1.378 . S
C838 C842 1.350 . S
C839 C842 1.463 . S
C839 C844 1.350 . S
C839 N847 1.427 1_554 S
C840 H831 0.930 . S
C840 C838 1.378 . S
C840 C841 1.367 . S
C841 C840 1.367 . S
C841 C843 1.433 . S
C842 C838 1.350 . S
C842 C839 1.463 . S
C842 N846 1.427 . S
C843 H833 0.929 . S
C843 C841 1.433 . S
C843 N846 1.384 . S
C844 H835 0.929 . S
C844 C836 1.378 1_554 S
C844 C839 1.350 . S
C845 H832 0.929 . S
C845 C837 1.433 . S
C845 N847 1.384 . S
N846 C842 1.427 . S
N846 C843 1.384 . S
N847 C839 1.427 1_556 S
N847 C845 1.384 . S
H848 C854 0.930 . S
H849 C858 0.930 . S
H850 C863 0.929 . S
H851 C861 0.929 . S
H852 C856 0.929 . S
H853 C862 0.929 1_655 S
C854 H848 0.930 . S
C854 C855 1.367 . S
C854 C862 1.378 1_655 S
C855 C854 1.367 . S
C855 C863 1.433 1_655 S
C856 H852 0.929 . S
C856 C858 1.378 . S
C856 C860 1.350 . S
C857 C860 1.463 . S
C857 C862 1.350 . S
C857 N865 1.427 . S
C858 H849 0.930 . S
C858 C856 1.378 . S
C858 C859 1.367 . S
C859 C858 1.367 . S
C859 C861 1.433 . S
C860 C856 1.350 . S
C860 C857 1.463 . S
C860 N864 1.427 . S
C861 H851 0.929 . S
C861 C859 1.433 . S
C861 N864 1.384 . S
C862 H853 0.929 1_455 S
C862 C854 1.378 1_455 S
C862 C857 1.350 . S
C863 H850 0.929 . S
C863 C855 1.433 1_455 S
C863 N865 1.384 . S
N864 C860 1.427 . S
N864 C861 1.384 . S
N865 C857 1.427 . S
N865 C863 1.384 . S
H866 C872 0.930 . S
H867 C876 0.930 . S
H868 C881 0.929 . S
H869 C879 0.929 . S
H870 C874 0.929 . S
H871 C880 0.929 . S
C872 H866 0.930 . S
C872 C873 1.367 . S
C872 C880 1.378 . S
C873 C872 1.367 . S
C873 C881 1.433 . S
C874 H870 0.929 . S
C874 C876 1.378 . S
C874 C878 1.350 . S
C875 C878 1.463 . S
C875 C880 1.350 . S
C875 N883 1.427 . S
C876 H867 0.930 . S
C876 C874 1.378 . S
C876 C877 1.367 . S
C877 C876 1.367 . S
C877 C879 1.433 . S
C878 C874 1.350 . S
C878 C875 1.463 . S
C878 N882 1.427 . S
C879 H869 0.929 . S
C879 C877 1.433 . S
C879 N882 1.384 . S
C880 H871 0.929 . S
C880 C872 1.378 . S
C880 C875 1.350 . S
C881 H868 0.929 . S
C881 C873 1.433 . S
C881 N883 1.384 . S
N882 C878 1.427 . S
N882 C879 1.384 . S
N883 C875 1.427 . S
N883 C881 1.384 . S
H884 C890 0.930 . S
H885 C894 0.930 . S
H886 C899 0.929 . S
H887 C897 0.929 . S
H888 C892 0.929 1_455 S
H889 C898 0.929 . S
C890 H884 0.930 . S
C890 C891 1.367 . S
C890 C898 1.378 . S
C891 C890 1.367 . S
C891 C899 1.433 . S
C892 H888 0.929 1_655 S
C892 C894 1.378 1_655 S
C892 C896 1.350 . S
C893 C896 1.463 . S
C893 C898 1.350 . S
C893 N901 1.427 . S
C894 H885 0.930 . S
C894 C892 1.378 1_455 S
C894 C895 1.367 1_455 S
C895 C894 1.367 1_655 S
C895 C897 1.433 . S
C896 C892 1.350 . S
C896 C893 1.463 . S
C896 N900 1.427 . S
C897 H887 0.929 . S
C897 C895 1.433 . S
C897 N900 1.384 . S
C898 H889 0.929 . S
C898 C890 1.378 . S
C898 C893 1.350 . S
C899 H886 0.929 . S
C899 C891 1.433 . S
C899 N901 1.384 . S
N900 C896 1.427 . S
N900 C897 1.384 . S
N901 C893 1.427 . S
N901 C899 1.384 . S
H902 C908 0.930 . S
H903 C912 0.930 . S
H904 C917 0.929 . S
H905 C915 0.929 1_455 S
H906 C910 0.929 . S
H907 C916 0.929 . S
C908 H902 0.930 . S
C908 C909 1.367 . S
C908 C916 1.378 . S
C909 C908 1.367 . S
C909 C917 1.433 . S
C910 H906 0.929 . S
C910 C912 1.378 . S
C910 C914 1.350 . S
C911 C914 1.463 . S
C911 C916 1.350 . S
C911 N919 1.427 . S
C912 H903 0.930 . S
C912 C910 1.378 . S
C912 C913 1.367 . S
C913 C912 1.367 . S
C913 C915 1.433 . S
C914 C910 1.350 . S
C914 C911 1.463 . S
C914 N918 1.427 . S
C915 H905 0.929 1_655 S
C915 C913 1.433 . S
C915 N918 1.384 . S
C916 H907 0.929 . S
C916 C908 1.378 . S
C916 C911 1.350 . S
C917 H904 0.929 . S
C917 C909 1.433 . S
C917 N919 1.384 . S
N918 C914 1.427 . S
N918 C915 1.384 . S
N919 C911 1.427 . S
N919 C917 1.384 . S
H920 C926 0.930 . S
H921 C930 0.930 . S
H922 C935 0.929 . S
H923 C933 0.929 . S
H924 C928 0.929 . S
H925 C934 0.929 . S
C926 H920 0.930 . S
C926 C927 1.367 . S
C926 C934 1.378 . S
C927 C926 1.367 . S
C927 C935 1.433 . S
C928 H924 0.929 . S
C928 C930 1.378 . S
C928 C932 1.350 . S
C929 C932 1.463 . S
C929 C934 1.350 . S
C929 N937 1.427 . S
C930 H921 0.930 . S
C930 C928 1.378 . S
C930 C931 1.367 . S
C931 C930 1.367 . S
C931 C933 1.433 . S
C932 C928 1.350 . S
C932 C929 1.463 . S
C932 N936 1.427 . S
C933 H923 0.929 . S
C933 C931 1.433 . S
C933 N936 1.384 . S
C934 H925 0.929 . S
C934 C926 1.378 . S
C934 C929 1.350 . S
C935 H922 0.929 . S
C935 C927 1.433 . S
C935 N937 1.384 . S
N936 C932 1.427 . S
N936 C933 1.384 . S
N937 C929 1.427 . S
N937 C935 1.384 . S
H938 C944 0.930 . S
H939 C948 0.930 . S
H940 C953 0.929 1_655 S
H941 C951 0.929 . S
H942 C946 0.929 . S
H943 C952 0.929 . S
C944 H938 0.930 . S
C944 C945 1.367 . S
C944 C952 1.378 . S
C945 C944 1.367 . S
C945 C953 1.433 . S
C946 H942 0.929 . S
C946 C948 1.378 . S
C946 C950 1.350 . S
C947 C950 1.463 . S
C947 C952 1.350 . S
C947 N955 1.427 . S
C948 H939 0.930 . S
C948 C946 1.378 . S
C948 C949 1.367 . S
C949 C948 1.367 . S
C949 C951 1.433 . S
C950 C946 1.350 . S
C950 C947 1.463 . S
C950 N954 1.427 . S
C951 H941 0.929 . S
C951 C949 1.433 . S
C951 N954 1.384 . S
C952 H943 0.929 . S
C952 C944 1.378 . S
C952 C947 1.350 . S
C953 H940 0.929 1_455 S
C953 C945 1.433 . S
C953 N955 1.384 . S
N954 C950 1.427 . S
N954 C951 1.384 . S
N955 C947 1.427 . S
N955 C953 1.384 . S
H956 C962 0.930 . S
H957 C966 0.930 . S
H958 C971 0.929 . S
H959 C969 0.929 . S
H960 C964 0.929 . S
H961 C970 0.929 . S
C962 H956 0.930 . S
C962 C963 1.367 . S
C962 C970 1.378 . S
C963 C962 1.367 . S
C963 C971 1.433 . S
C964 H960 0.929 . S
C964 C966 1.378 . S
C964 C968 1.350 . S
C965 C968 1.463 . S
C965 C970 1.350 . S
C965 N973 1.427 . S
C966 H957 0.930 . S
C966 C964 1.378 . S
C966 C967 1.367 . S
C967 C966 1.367 . S
C967 C969 1.433 . S
C968 C964 1.350 . S
C968 C965 1.463 . S
C968 N972 1.427 . S
C969 H959 0.929 . S
C969 C967 1.433 . S
C969 N972 1.384 . S
C970 H961 0.929 . S
C970 C962 1.378 . S
C970 C965 1.350 . S
C971 H958 0.929 . S
C971 C963 1.433 . S
C971 N973 1.384 . S
N972 C968 1.427 . S
N972 C969 1.384 . S
N973 C965 1.427 . S
N973 C971 1.384 . S
H974 C980 0.930 . S
H975 C984 0.930 1_545 S
H976 C989 0.929 . S
H977 C987 0.929 . S
H978 C982 0.929 . S
H979 C988 0.929 . S
C980 H974 0.930 . S
C980 C981 1.367 . S
C980 C988 1.378 . S
C981 C980 1.367 . S
C981 C989 1.433 . S
C982 H978 0.929 . S
C982 C984 1.378 1_545 S
C982 C986 1.350 . S
C983 C986 1.463 . S
C983 C988 1.350 . S
C983 N991 1.427 . S
C984 H975 0.930 1_565 S
C984 C982 1.378 1_565 S
C984 C985 1.367 . S
C985 C984 1.367 . S
C985 C987 1.433 . S
C986 C982 1.350 . S
C986 C983 1.463 . S
C986 N990 1.427 1_545 S
C987 H977 0.929 . S
C987 C985 1.433 . S
C987 N990 1.384 . S
C988 H979 0.929 . S
C988 C980 1.378 . S
C988 C983 1.350 . S
C989 H976 0.929 . S
C989 C981 1.433 . S
C989 N991 1.384 . S
N990 C986 1.427 1_565 S
N990 C987 1.384 . S
N991 C983 1.427 . S
N991 C989 1.384 . S
H992 C998 0.930 . S
H993 C1002 0.930 . S
H994 C1007 0.929 . S
H995 C1005 0.929 . S
H996 C1000 0.929 . S
H997 C1006 0.929 . S
C998 H992 0.930 . S
C998 C999 1.367 . S
C998 C1006 1.378 . S
C999 C998 1.367 . S
C999 C1007 1.433 . S
C1000 H996 0.929 . S
C1000 C1002 1.378 . S
C1000 C1004 1.350 . S
C1001 C1004 1.463 . S
C1001 C1006 1.350 . S
C1001 N1009 1.427 . S
C1002 H993 0.930 . S
C1002 C1000 1.378 . S
C1002 C1003 1.367 . S
C1003 C1002 1.367 . S
C1003 C1005 1.433 . S
C1004 C1000 1.350 . S
C1004 C1001 1.463 . S
C1004 N1008 1.427 . S
C1005 H995 0.929 . S
C1005 C1003 1.433 . S
C1005 N1008 1.384 . S
C1006 H997 0.929 . S
C1006 C998 1.378 . S
C1006 C1001 1.350 . S
C1007 H994 0.929 . S
C1007 C999 1.433 . S
C1007 N1009 1.384 . S
N1008 C1004 1.427 . S
N1008 C1005 1.384 . S
N1009 C1001 1.427 . S
N1009 C1007 1.384 . S
H1010 C1016 0.930 . S
H1011 C1020 0.930 . S
H1012 C1025 0.929 . S
H1013 C1023 0.929 . S
H1014 C1018 0.929 . S
H1015 C1024 0.929 . S
C1016 H1010 0.930 . S
C1016 C1017 1.367 . S
C1016 C1024 1.378 . S
C1017 C1016 1.367 . S
C1017 C1025 1.433 . S
C1018 H1014 0.929 . S
C1018 C1020 1.378 1_565 S
C1018 C1022 1.350 . S
C1019 C1022 1.463 . S
C1019 C1024 1.350 . S
C1019 N1027 1.427 . S
C1020 H1011 0.930 . S
C1020 C1018 1.378 1_545 S
C1020 C1021 1.367 . S
C1021 C1020 1.367 . S
C1021 C1023 1.433 . S
C1022 C1018 1.350 . S
C1022 C1019 1.463 . S
C1022 N1026 1.427 1_565 S
C1023 H1013 0.929 . S
C1023 C1021 1.433 . S
C1023 N1026 1.384 . S
C1024 H1015 0.929 . S
C1024 C1016 1.378 . S
C1024 C1019 1.350 . S
C1025 H1012 0.929 . S
C1025 C1017 1.433 . S
C1025 N1027 1.384 . S
N1026 C1022 1.427 1_545 S
N1026 C1023 1.384 . S
N1027 C1019 1.427 . S
N1027 C1025 1.384 . S
H1028 C1034 0.930 . S
H1029 C1038 0.930 . S
H1030 C1043 0.929 . S
H1031 C1041 0.929 . S
H1032 C1036 0.929 . S
H1033 C1042 0.929 . S
C1034 H1028 0.930 . S
C1034 C1035 1.367 . S
C1034 C1042 1.378 1_556 S
C1035 C1034 1.367 . S
C1035 C1043 1.433 . S
C1036 H1032 0.929 . S
C1036 C1038 1.378 . S
C1036 C1040 1.350 . S
C1037 C1040 1.463 . S
C1037 C1042 1.350 . S
C1037 N1045 1.428 1_554 S
C1038 H1029 0.930 . S
C1038 C1036 1.378 . S
C1038 C1039 1.367 . S
C1039 C1038 1.367 . S
C1039 C1041 1.433 . S
C1040 C1036 1.350 . S
C1040 C1037 1.463 . S
C1040 N1044 1.427 . S
C1041 H1031 0.929 . S
C1041 C1039 1.433 . S
C1041 N1044 1.384 . S
C1042 H1033 0.929 . S
C1042 C1034 1.378 1_554 S
C1042 C1037 1.350 . S
C1043 H1030 0.929 . S
C1043 C1035 1.433 . S
C1043 N1045 1.382 . S
N1044 C1040 1.427 . S
N1044 C1041 1.384 . S
N1045 C1037 1.428 1_556 S
N1045 C1043 1.382 . S
H1046 C1052 0.930 . S
H1047 C1056 0.930 . S
H1048 C1061 0.929 . S
H1049 C1059 0.929 . S
H1050 C1054 0.929 . S
H1051 C1060 0.929 . S
C1052 H1046 0.930 . S
C1052 C1053 1.367 . S
C1052 C1060 1.378 . S
C1053 C1052 1.367 . S
C1053 C1061 1.433 1_545 S
C1054 H1050 0.929 . S
C1054 C1056 1.378 . S
C1054 C1058 1.350 . S
C1055 C1058 1.463 . S
C1055 C1060 1.350 1_565 S
C1055 N1063 1.427 . S
C1056 H1047 0.930 . S
C1056 C1054 1.378 . S
C1056 C1057 1.367 . S
C1057 C1056 1.367 . S
C1057 C1059 1.433 . S
C1058 C1054 1.350 . S
C1058 C1055 1.463 . S
C1058 N1062 1.427 . S
C1059 H1049 0.929 . S
C1059 C1057 1.433 . S
C1059 N1062 1.384 . S
C1060 H1051 0.929 . S
C1060 C1052 1.378 . S
C1060 C1055 1.350 1_545 S
C1061 H1048 0.929 . S
C1061 C1053 1.433 1_565 S
C1061 N1063 1.384 . S
N1062 C1058 1.427 . S
N1062 C1059 1.384 . S
N1063 C1055 1.427 . S
N1063 C1061 1.384 . S
H1064 C1070 0.930 . S
H1065 C1074 0.930 . S
H1066 C1079 0.929 . S
H1067 C1077 0.929 . S
H1068 C1072 0.929 . S
H1069 C1078 0.929 . S
C1070 H1064 0.930 . S
C1070 C1071 1.367 . S
C1070 C1078 1.378 . S
C1071 C1070 1.367 . S
C1071 C1079 1.433 . S
C1072 H1068 0.929 . S
C1072 C1074 1.378 . S
C1072 C1076 1.350 . S
C1073 C1076 1.463 . S
C1073 C1078 1.350 . S
C1073 N1081 1.427 . S
C1074 H1065 0.930 . S
C1074 C1072 1.378 . S
C1074 C1075 1.367 . S
C1075 C1074 1.367 . S
C1075 C1077 1.433 . S
C1076 C1072 1.350 . S
C1076 C1073 1.463 . S
C1076 N1080 1.427 . S
C1077 H1067 0.929 . S
C1077 C1075 1.433 . S
C1077 N1080 1.384 . S
C1078 H1069 0.929 . S
C1078 C1070 1.378 . S
C1078 C1073 1.350 . S
C1079 H1066 0.929 . S
C1079 C1071 1.433 . S
C1079 N1081 1.384 . S
N1080 C1076 1.427 . S
N1080 C1077 1.384 . S
N1081 C1073 1.427 . S
N1081 C1079 1.384 . S
H1082 C1088 0.930 . S
H1083 C1092 0.930 . S
H1084 C1097 0.929 . S
H1085 C1095 0.929 . S
H1086 C1090 0.929 . S
H1087 C1096 0.929 . S
C1088 H1082 0.930 . S
C1088 C1089 1.367 . S
C1088 C1096 1.378 . S
C1089 C1088 1.367 . S
C1089 C1097 1.433 . S
C1090 H1086 0.929 . S
C1090 C1092 1.378 . S
C1090 C1094 1.350 . S
C1091 C1094 1.463 . S
C1091 C1096 1.350 1_545 S
C1091 N1099 1.427 . S
C1092 H1083 0.930 . S
C1092 C1090 1.378 . S
C1092 C1093 1.367 . S
C1093 C1092 1.367 . S
C1093 C1095 1.433 . S
C1094 C1090 1.350 . S
C1094 C1091 1.463 . S
C1094 N1098 1.427 . S
C1095 H1085 0.929 . S
C1095 C1093 1.433 . S
C1095 N1098 1.384 . S
C1096 H1087 0.929 . S
C1096 C1088 1.378 . S
C1096 C1091 1.350 1_565 S
C1097 H1084 0.929 . S
C1097 C1089 1.433 . S
C1097 N1099 1.384 1_565 S
N1098 C1094 1.427 . S
N1098 C1095 1.384 . S
N1099 C1091 1.427 . S
N1099 C1097 1.384 1_545 S
H1100 C1106 0.930 1_554 S
H1101 C1110 0.930 . S
H1102 C1115 0.929 . S
H1103 C1113 0.929 . S
H1104 C1108 0.929 . S
H1105 C1114 0.929 . S
C1106 H1100 0.930 1_556 S
C1106 C1107 1.367 1_556 S
C1106 C1114 1.378 . S
C1107 C1106 1.367 1_554 S
C1107 C1115 1.433 . S
C1108 H1104 0.929 . S
C1108 C1110 1.378 . S
C1108 C1112 1.350 . S
C1109 C1112 1.463 . S
C1109 C1114 1.350 . S
C1109 N1117 1.427 . S
C1110 H1101 0.930 . S
C1110 C1108 1.378 . S
C1110 C1111 1.367 . S
C1111 C1110 1.367 . S
C1111 C1113 1.433 . S
C1112 C1108 1.350 . S
C1112 C1109 1.463 . S
C1112 N1116 1.427 . S
C1113 H1103 0.929 . S
C1113 C1111 1.433 . S
C1113 N1116 1.384 . S
C1114 H1105 0.929 . S
C1114 C1106 1.378 . S
C1114 C1109 1.350 . S
C1115 H1102 0.929 . S
C1115 C1107 1.433 . S
C1115 N1117 1.384 1_554 S
N1116 C1112 1.427 . S
N1116 C1113 1.384 . S
N1117 C1109 1.427 . S
N1117 C1115 1.384 1_556 S
H1118 C1124 0.930 . S
H1119 C1128 0.930 . S
H1120 C1133 0.929 . S
H1121 C1131 0.929 . S
H1122 C1126 0.929 . S
H1123 C1132 0.929 . S
C1124 H1118 0.930 . S
C1124 C1125 1.367 . S
C1124 C1132 1.378 . S
C1125 C1124 1.367 . S
C1125 C1133 1.433 . S
C1126 H1122 0.929 . S
C1126 C1128 1.378 . S
C1126 C1130 1.350 1_455 S
C1127 C1130 1.463 . S
C1127 C1132 1.350 . S
C1127 N1135 1.427 . S
C1128 H1119 0.930 . S
C1128 C1126 1.378 . S
C1128 C1129 1.367 . S
C1129 C1128 1.367 . S
C1129 C1131 1.433 1_455 S
C1130 C1126 1.350 1_655 S
C1130 C1127 1.463 . S
C1130 N1134 1.427 . S
C1131 H1121 0.929 . S
C1131 C1129 1.433 1_655 S
C1131 N1134 1.384 . S
C1132 H1123 0.929 . S
C1132 C1124 1.378 . S
C1132 C1127 1.350 . S
C1133 H1120 0.929 . S
C1133 C1125 1.433 . S
C1133 N1135 1.384 . S
N1134 C1130 1.427 . S
N1134 C1131 1.384 . S
N1135 C1127 1.427 . S
N1135 C1133 1.384 . S
H1136 C1142 0.930 . S
H1137 C1146 0.930 . S
H1138 C1151 0.929 . S
H1139 C1149 0.929 . S
H1140 C1144 0.929 . S
H1141 C1150 0.929 . S
C1142 H1136 0.930 . S
C1142 C1143 1.367 . S
C1142 C1150 1.378 . S
C1143 C1142 1.367 . S
C1143 C1151 1.433 . S
C1144 H1140 0.929 . S
C1144 C1146 1.378 . S
C1144 C1148 1.350 . S
C1145 C1148 1.463 . S
C1145 C1150 1.350 . S
C1145 N1153 1.427 . S
C1146 H1137 0.930 . S
C1146 C1144 1.378 . S
C1146 C1147 1.367 . S
C1147 C1146 1.367 . S
C1147 C1149 1.433 . S
C1148 C1144 1.350 . S
C1148 C1145 1.463 . S
C1148 N1152 1.427 . S
C1149 H1139 0.929 . S
C1149 C1147 1.433 . S
C1149 N1152 1.384 . S
C1150 H1141 0.929 . S
C1150 C1142 1.378 . S
C1150 C1145 1.350 . S
C1151 H1138 0.929 . S
C1151 C1143 1.433 . S
C1151 N1153 1.384 . S
N1152 C1148 1.427 . S
N1152 C1149 1.384 . S
N1153 C1145 1.427 . S
N1153 C1151 1.384 . S
H1154 C1160 0.930 . S
H1155 C1164 0.930 1_655 S
H1156 C1169 0.929 . S
H1157 C1167 0.929 . S
H1158 C1162 0.929 . S
H1159 C1168 0.929 . S
C1160 H1154 0.930 . S
C1160 C1161 1.367 . S
C1160 C1168 1.378 . S
C1161 C1160 1.367 . S
C1161 C1169 1.433 . S
C1162 H1158 0.929 . S
C1162 C1164 1.378 . S
C1162 C1166 1.350 . S
C1163 C1166 1.463 . S
C1163 C1168 1.350 . S
C1163 N1171 1.427 . S
C1164 H1155 0.930 1_455 S
C1164 C1162 1.378 . S
C1164 C1165 1.367 1_455 S
C1165 C1164 1.367 1_655 S
C1165 C1167 1.433 . S
C1166 C1162 1.350 . S
C1166 C1163 1.463 . S
C1166 N1170 1.427 . S
C1167 H1157 0.929 . S
C1167 C1165 1.433 . S
C1167 N1170 1.384 1_655 S
C1168 H1159 0.929 . S
C1168 C1160 1.378 . S
C1168 C1163 1.350 . S
C1169 H1156 0.929 . S
C1169 C1161 1.433 . S
C1169 N1171 1.384 . S
N1170 C1166 1.427 . S
N1170 C1167 1.384 1_455 S
N1171 C1163 1.427 . S
N1171 C1169 1.384 . S
H1172 C1178 0.930 . S
H1173 C1182 0.930 . S
H1174 C1187 0.929 . S
H1175 C1185 0.929 . S
H1176 C1180 0.929 . S
H1177 C1186 0.929 . S
C1178 H1172 0.930 . S
C1178 C1179 1.367 . S
C1178 C1186 1.378 1_455 S
C1179 C1178 1.367 . S
C1179 C1187 1.433 . S
C1180 H1176 0.929 . S
C1180 C1182 1.378 1_455 S
C1180 C1184 1.350 1_455 S
C1181 C1184 1.463 1_455 S
C1181 C1186 1.350 1_455 S
C1181 N1189 1.427 . S
C1182 H1173 0.930 . S
C1182 C1180 1.378 1_655 S
C1182 C1183 1.367 . S
C1183 C1182 1.367 . S
C1183 C1185 1.433 . S
C1184 C1180 1.350 1_655 S
C1184 C1181 1.463 1_655 S
C1184 N1188 1.427 . S
C1185 H1175 0.929 . S
C1185 C1183 1.433 . S
C1185 N1188 1.384 . S
C1186 H1177 0.929 . S
C1186 C1178 1.378 1_655 S
C1186 C1181 1.350 1_655 S
C1187 H1174 0.929 . S
C1187 C1179 1.433 . S
C1187 N1189 1.384 . S
N1188 C1184 1.427 . S
N1188 C1185 1.384 . S
N1189 C1181 1.427 . S
N1189 C1187 1.384 . S
H1190 C1196 0.930 . S
H1191 C1200 0.930 . S
H1192 C1205 0.929 . S
H1193 C1203 0.929 . S
H1194 C1198 0.929 . S
H1195 C1204 0.929 . S
C1196 H1190 0.930 . S
C1196 C1197 1.367 . S
C1196 C1204 1.378 . S
C1197 C1196 1.367 . S
C1197 C1205 1.433 . S
C1198 H1194 0.929 . S
C1198 C1200 1.378 . S
C1198 C1202 1.350 . S
C1199 C1202 1.463 . S
C1199 C1204 1.350 . S
C1199 N1207 1.427 . S
C1200 H1191 0.930 . S
C1200 C1198 1.378 . S
C1200 C1201 1.367 . S
C1201 C1200 1.367 . S
C1201 C1203 1.433 . S
C1202 C1198 1.350 . S
C1202 C1199 1.463 . S
C1202 N1206 1.427 . S
C1203 H1193 0.929 . S
C1203 C1201 1.433 . S
C1203 N1206 1.384 . S
C1204 H1195 0.929 . S
C1204 C1196 1.378 . S
C1204 C1199 1.350 . S
C1205 H1192 0.929 . S
C1205 C1197 1.433 . S
C1205 N1207 1.384 . S
N1206 C1202 1.427 . S
N1206 C1203 1.384 . S
N1207 C1199 1.427 . S
N1207 C1205 1.384 . S
H1208 C1214 0.930 . S
H1209 C1218 0.930 . S
H1210 C1223 0.929 . S
H1211 C1221 0.929 . S
H1212 C1216 0.929 . S
H1213 C1222 0.929 . S
C1214 H1208 0.930 . S
C1214 C1215 1.367 . S
C1214 C1222 1.378 . S
C1215 C1214 1.367 . S
C1215 C1223 1.433 . S
C1216 H1212 0.929 . S
C1216 C1218 1.378 . S
C1216 C1220 1.350 1_455 S
C1217 C1220 1.463 . S
C1217 C1222 1.350 . S
C1217 N1225 1.427 . S
C1218 H1209 0.930 . S
C1218 C1216 1.378 . S
C1218 C1219 1.367 . S
C1219 C1218 1.367 . S
C1219 C1221 1.433 1_455 S
C1220 C1216 1.350 1_655 S
C1220 C1217 1.463 . S
C1220 N1224 1.427 . S
C1221 H1211 0.929 . S
C1221 C1219 1.433 1_655 S
C1221 N1224 1.384 . S
C1222 H1213 0.929 . S
C1222 C1214 1.378 . S
C1222 C1217 1.350 . S
C1223 H1210 0.929 . S
C1223 C1215 1.433 . S
C1223 N1225 1.384 . S
N1224 C1220 1.427 . S
N1224 C1221 1.384 . S
N1225 C1217 1.427 . S
N1225 C1223 1.384 . S
H1226 C1232 0.930 . S
H1227 C1236 0.930 . S
H1228 C1241 0.929 . S
H1229 C1239 0.929 . S
H1230 C1234 0.929 . S
H1231 C1240 0.929 . S
C1232 H1226 0.930 . S
C1232 C1233 1.367 . S
C1232 C1240 1.378 . S
C1233 C1232 1.367 . S
C1233 C1241 1.433 . S
C1234 H1230 0.929 . S
C1234 C1236 1.378 . S
C1234 C1238 1.350 . S
C1235 C1238 1.463 . S
C1235 C1240 1.350 . S
C1235 N1243 1.427 . S
C1236 H1227 0.930 . S
C1236 C1234 1.378 . S
C1236 C1237 1.367 . S
C1237 C1236 1.367 . S
C1237 C1239 1.433 . S
C1238 C1234 1.350 . S
C1238 C1235 1.463 . S
C1238 N1242 1.427 . S
C1239 H1229 0.929 . S
C1239 C1237 1.433 . S
C1239 N1242 1.384 . S
C1240 H1231 0.929 . S
C1240 C1232 1.378 . S
C1240 C1235 1.350 . S
C1241 H1228 0.929 . S
C1241 C1233 1.433 . S
C1241 N1243 1.384 . S
N1242 C1238 1.427 . S
N1242 C1239 1.384 . S
N1243 C1235 1.427 . S
N1243 C1241 1.384 . S
H1244 C1250 0.930 . S
H1245 C1254 0.930 . S
H1246 C1259 0.929 . S
H1247 C1257 0.929 . S
H1248 C1252 0.929 . S
H1249 C1258 0.929 . S
C1250 H1244 0.930 . S
C1250 C1251 1.367 . S
C1250 C1258 1.378 . S
C1251 C1250 1.367 . S
C1251 C1259 1.433 . S
C1252 H1248 0.929 . S
C1252 C1254 1.378 . S
C1252 C1256 1.350 . S
C1253 C1256 1.463 . S
C1253 C1258 1.350 . S
C1253 N1261 1.427 . S
C1254 H1245 0.930 . S
C1254 C1252 1.378 . S
C1254 C1255 1.367 . S
C1255 C1254 1.367 . S
C1255 C1257 1.433 . S
C1256 C1252 1.350 . S
C1256 C1253 1.463 . S
C1256 N1260 1.427 . S
C1257 H1247 0.929 . S
C1257 C1255 1.433 . S
C1257 N1260 1.384 . S
C1258 H1249 0.929 . S
C1258 C1250 1.378 . S
C1258 C1253 1.350 . S
C1259 H1246 0.929 . S
C1259 C1251 1.433 . S
C1259 N1261 1.384 . S
N1260 C1256 1.427 . S
N1260 C1257 1.384 . S
N1261 C1253 1.427 . S
N1261 C1259 1.384 . S
H1262 C1268 0.930 . S
H1263 C1272 0.930 . S
H1264 C1277 0.929 . S
H1265 C1275 0.929 . S
H1266 C1270 0.929 . S
H1267 C1276 0.929 . S
C1268 H1262 0.930 . S
C1268 C1269 1.367 . S
C1268 C1276 1.378 1_554 S
C1269 C1268 1.367 . S
C1269 C1277 1.433 . S
C1270 H1266 0.929 . S
C1270 C1272 1.378 . S
C1270 C1274 1.350 . S
C1271 C1274 1.463 . S
C1271 C1276 1.350 . S
C1271 N1279 1.427 1_556 S
C1272 H1263 0.930 . S
C1272 C1270 1.378 . S
C1272 C1273 1.367 . S
C1273 C1272 1.367 . S
C1273 C1275 1.433 . S
C1274 C1270 1.350 . S
C1274 C1271 1.463 . S
C1274 N1278 1.427 . S
C1275 H1265 0.929 . S
C1275 C1273 1.433 . S
C1275 N1278 1.384 . S
C1276 H1267 0.929 . S
C1276 C1268 1.378 1_556 S
C1276 C1271 1.350 . S
C1277 H1264 0.929 . S
C1277 C1269 1.433 . S
C1277 N1279 1.384 . S
N1278 C1274 1.427 . S
N1278 C1275 1.384 . S
N1279 C1271 1.427 1_554 S
N1279 C1277 1.384 . S
H1280 C1286 0.930 . S
H1281 C1290 0.930 . S
H1282 C1295 0.929 . S
H1283 C1293 0.929 . S
H1284 C1288 0.929 . S
H1285 C1294 0.929 . S
C1286 H1280 0.930 . S
C1286 C1287 1.367 . S
C1286 C1294 1.378 . S
C1287 C1286 1.367 . S
C1287 C1295 1.433 . S
C1288 H1284 0.929 . S
C1288 C1290 1.378 . S
C1288 C1292 1.350 . S
C1289 C1292 1.463 . S
C1289 C1294 1.350 . S
C1289 N1297 1.427 . S
C1290 H1281 0.930 . S
C1290 C1288 1.378 . S
C1290 C1291 1.367 . S
C1291 C1290 1.367 . S
C1291 C1293 1.433 . S
C1292 C1288 1.350 . S
C1292 C1289 1.463 . S
C1292 N1296 1.427 . S
C1293 H1283 0.929 . S
C1293 C1291 1.433 . S
C1293 N1296 1.384 . S
C1294 H1285 0.929 . S
C1294 C1286 1.378 . S
C1294 C1289 1.350 . S
C1295 H1282 0.929 . S
C1295 C1287 1.433 . S
C1295 N1297 1.384 . S
N1296 C1292 1.427 . S
N1296 C1293 1.384 . S
N1297 C1289 1.427 . S
N1297 C1295 1.384 . S
H1298 C1304 0.930 . S
H1299 C1308 0.930 . S
H1300 C1313 0.929 . S
H1301 C1311 0.929 . S
H1302 C1306 0.929 . S
H1303 C1312 0.929 . S
C1304 H1298 0.930 . S
C1304 C1305 1.367 . S
C1304 C1312 1.378 . S
C1305 C1304 1.367 . S
C1305 C1313 1.433 . S
C1306 H1302 0.929 . S
C1306 C1308 1.378 . S
C1306 C1310 1.350 . S
C1307 C1310 1.463 . S
C1307 C1312 1.350 . S
C1307 N1315 1.427 . S
C1308 H1299 0.930 . S
C1308 C1306 1.378 . S
C1308 C1309 1.367 . S
C1309 C1308 1.367 . S
C1309 C1311 1.433 . S
C1310 C1306 1.350 . S
C1310 C1307 1.463 . S
C1310 N1314 1.427 . S
C1311 H1301 0.929 . S
C1311 C1309 1.433 . S
C1311 N1314 1.384 . S
C1312 H1303 0.929 . S
C1312 C1304 1.378 . S
C1312 C1307 1.350 . S
C1313 H1300 0.929 . S
C1313 C1305 1.433 . S
C1313 N1315 1.384 . S
N1314 C1310 1.427 . S
N1314 C1311 1.384 . S
N1315 C1307 1.427 . S
N1315 C1313 1.384 . S
H1316 C1322 0.930 . S
H1317 C1326 0.930 . S
H1318 C1331 0.929 . S
H1319 C1329 0.929 . S
H1320 C1324 0.929 . S
H1321 C1330 0.929 . S
C1322 H1316 0.930 . S
C1322 C1323 1.367 . S
C1322 C1330 1.378 . S
C1323 C1322 1.367 . S
C1323 C1331 1.433 . S
C1324 H1320 0.929 . S
C1324 C1326 1.378 . S
C1324 C1328 1.350 . S
C1325 C1328 1.463 . S
C1325 C1330 1.350 . S
C1325 N1333 1.427 . S
C1326 H1317 0.930 . S
C1326 C1324 1.378 . S
C1326 C1327 1.367 . S
C1327 C1326 1.367 . S
C1327 C1329 1.433 . S
C1328 C1324 1.350 . S
C1328 C1325 1.463 . S
C1328 N1332 1.427 . S
C1329 H1319 0.929 . S
C1329 C1327 1.433 . S
C1329 N1332 1.384 . S
C1330 H1321 0.929 . S
C1330 C1322 1.378 . S
C1330 C1325 1.350 . S
C1331 H1318 0.929 . S
C1331 C1323 1.433 . S
C1331 N1333 1.384 . S
N1332 C1328 1.427 . S
N1332 C1329 1.384 . S
N1333 C1325 1.427 . S
N1333 C1331 1.384 . S
H1334 C1340 0.930 . S
H1335 C1344 0.930 . S
H1336 C1349 0.929 . S
H1337 C1347 0.929 . S
H1338 C1342 0.929 . S
H1339 C1348 0.929 . S
C1340 H1334 0.930 . S
C1340 C1341 1.367 . S
C1340 C1348 1.378 . S
C1341 C1340 1.367 . S
C1341 C1349 1.433 . S
C1342 H1338 0.929 . S
C1342 C1344 1.378 1_554 S
C1342 C1346 1.350 . S
C1343 C1346 1.463 . S
C1343 C1348 1.350 . S
C1343 N1351 1.427 . S
C1344 H1335 0.930 . S
C1344 C1342 1.378 1_556 S
C1344 C1345 1.367 . S
C1345 C1344 1.367 . S
C1345 C1347 1.433 1_556 S
C1346 C1342 1.350 . S
C1346 C1343 1.463 . S
C1346 N1350 1.427 . S
C1347 H1337 0.929 . S
C1347 C1345 1.433 1_554 S
C1347 N1350 1.384 . S
C1348 H1339 0.929 . S
C1348 C1340 1.378 . S
C1348 C1343 1.350 . S
C1349 H1336 0.929 . S
C1349 C1341 1.433 . S
C1349 N1351 1.384 . S
N1350 C1346 1.427 . S
N1350 C1347 1.384 . S
N1351 C1343 1.427 . S
N1351 C1349 1.384 . S
H1352 C1358 0.930 . S
H1353 C1362 0.930 . S
H1354 C1367 0.929 . S
H1355 C1365 0.929 . S
H1356 C1360 0.929 . S
H1357 C1366 0.929 . S
C1358 H1352 0.930 . S
C1358 C1359 1.367 . S
C1358 C1366 1.378 . S
C1359 C1358 1.367 . S
C1359 C1367 1.433 . S
C1360 H1356 0.929 . S
C1360 C1362 1.378 . S
C1360 C1364 1.350 . S
C1361 C1364 1.463 . S
C1361 C1366 1.350 . S
C1361 N1369 1.427 . S
C1362 H1353 0.930 . S
C1362 C1360 1.378 . S
C1362 C1363 1.367 . S
C1363 C1362 1.367 . S
C1363 C1365 1.433 . S
C1364 C1360 1.350 . S
C1364 C1361 1.463 . S
C1364 N1368 1.427 . S
C1365 H1355 0.929 . S
C1365 C1363 1.433 . S
C1365 N1368 1.384 . S
C1366 H1357 0.929 . S
C1366 C1358 1.378 . S
C1366 C1361 1.350 . S
C1367 H1354 0.929 . S
C1367 C1359 1.433 . S
C1367 N1369 1.384 . S
N1368 C1364 1.427 . S
N1368 C1365 1.384 . S
N1369 C1361 1.427 . S
N1369 C1367 1.384 . S
H1370 C1376 0.930 . S
H1371 C1380 0.930 . S
H1372 C1385 0.929 . S
H1373 C1383 0.929 . S
H1374 C1378 0.929 . S
H1375 C1384 0.929 . S
C1376 H1370 0.930 . S
C1376 C1377 1.367 . S
C1376 C1384 1.378 . S
C1377 C1376 1.367 . S
C1377 C1385 1.433 . S
C1378 H1374 0.929 . S
C1378 C1380 1.378 . S
C1378 C1382 1.350 . S
C1379 C1382 1.463 . S
C1379 C1384 1.350 . S
C1379 N1387 1.427 . S
C1380 H1371 0.930 . S
C1380 C1378 1.378 . S
C1380 C1381 1.367 . S
C1381 C1380 1.367 . S
C1381 C1383 1.433 . S
C1382 C1378 1.350 . S
C1382 C1379 1.463 . S
C1382 N1386 1.427 . S
C1383 H1373 0.929 . S
C1383 C1381 1.433 . S
C1383 N1386 1.384 . S
C1384 H1375 0.929 . S
C1384 C1376 1.378 . S
C1384 C1379 1.350 . S
C1385 H1372 0.929 . S
C1385 C1377 1.433 . S
C1385 N1387 1.384 . S
N1386 C1382 1.427 . S
N1386 C1383 1.384 . S
N1387 C1379 1.427 . S
N1387 C1385 1.384 . S
H1388 C1394 0.930 . S
H1389 C1398 0.930 . S
H1390 C1403 0.929 . S
H1391 C1401 0.929 . S
H1392 C1396 0.929 . S
H1393 C1402 0.929 . S
C1394 H1388 0.930 . S
C1394 C1395 1.367 . S
C1394 C1402 1.378 . S
C1395 C1394 1.367 . S
C1395 C1403 1.433 . S
C1396 H1392 0.929 . S
C1396 C1398 1.378 . S
C1396 C1400 1.350 . S
C1397 C1400 1.463 . S
C1397 C1402 1.350 . S
C1397 N1405 1.427 . S
C1398 H1389 0.930 . S
C1398 C1396 1.378 . S
C1398 C1399 1.367 . S
C1399 C1398 1.367 . S
C1399 C1401 1.433 . S
C1400 C1396 1.350 . S
C1400 C1397 1.463 . S
C1400 N1404 1.427 . S
C1401 H1391 0.929 . S
C1401 C1399 1.433 . S
C1401 N1404 1.384 . S
C1402 H1393 0.929 . S
C1402 C1394 1.378 . S
C1402 C1397 1.350 . S
C1403 H1390 0.929 . S
C1403 C1395 1.433 . S
C1403 N1405 1.384 . S
N1404 C1400 1.427 . S
N1404 C1401 1.384 . S
N1405 C1397 1.427 . S
N1405 C1403 1.384 . S
H1406 C1412 0.930 . S
H1407 C1416 0.930 . S
H1408 C1421 0.929 . S
H1409 C1419 0.929 . S
H1410 C1414 0.929 . S
H1411 C1420 0.929 . S
C1412 H1406 0.930 . S
C1412 C1413 1.367 . S
C1412 C1420 1.378 . S
C1413 C1412 1.367 . S
C1413 C1421 1.433 . S
C1414 H1410 0.929 . S
C1414 C1416 1.378 . S
C1414 C1418 1.350 . S
C1415 C1418 1.463 . S
C1415 C1420 1.350 . S
C1415 N1423 1.427 . S
C1416 H1407 0.930 . S
C1416 C1414 1.378 . S
C1416 C1417 1.367 . S
C1417 C1416 1.367 . S
C1417 C1419 1.433 . S
C1418 C1414 1.350 . S
C1418 C1415 1.463 . S
C1418 N1422 1.427 . S
C1419 H1409 0.929 . S
C1419 C1417 1.433 . S
C1419 N1422 1.384 . S
C1420 H1411 0.929 . S
C1420 C1412 1.378 . S
C1420 C1415 1.350 . S
C1421 H1408 0.929 . S
C1421 C1413 1.433 . S
C1421 N1423 1.384 . S
N1422 C1418 1.427 . S
N1422 C1419 1.384 . S
N1423 C1415 1.427 . S
N1423 C1421 1.384 . S
H1424 C1430 0.930 . S
H1425 C1434 0.930 . S
H1426 C1439 0.929 . S
H1427 C1437 0.929 . S
H1428 C1432 0.929 . S
H1429 C1438 0.929 . S
C1430 H1424 0.930 . S
C1430 C1431 1.367 . S
C1430 C1438 1.378 . S
C1431 C1430 1.367 . S
C1431 C1439 1.433 . S
C1432 H1428 0.929 . S
C1432 C1434 1.378 1_554 S
C1432 C1436 1.350 . S
C1433 C1436 1.463 . S
C1433 C1438 1.350 . S
C1433 N1441 1.427 . S
C1434 H1425 0.930 . S
C1434 C1432 1.378 1_556 S
C1434 C1435 1.367 . S
C1435 C1434 1.367 . S
C1435 C1437 1.433 . S
C1436 C1432 1.350 . S
C1436 C1433 1.463 . S
C1436 N1440 1.427 1_554 S
C1437 H1427 0.929 . S
C1437 C1435 1.433 . S
C1437 N1440 1.384 . S
C1438 H1429 0.929 . S
C1438 C1430 1.378 . S
C1438 C1433 1.350 . S
C1439 H1426 0.929 . S
C1439 C1431 1.433 . S
C1439 N1441 1.384 . S
N1440 C1436 1.427 1_556 S
N1440 C1437 1.384 . S
N1441 C1433 1.427 . S
N1441 C1439 1.384 . S
H1442 C1448 0.930 . S
H1443 C1452 0.930 . S
H1444 C1457 0.929 . S
H1445 C1455 0.929 . S
H1446 C1450 0.929 . S
H1447 C1456 0.929 . S
C1448 H1442 0.930 . S
C1448 C1449 1.367 . S
C1448 C1456 1.378 . S
C1449 C1448 1.367 . S
C1449 C1457 1.433 . S
C1450 H1446 0.929 . S
C1450 C1452 1.378 . S
C1450 C1454 1.350 . S
C1451 C1454 1.463 . S
C1451 C1456 1.350 . S
C1451 N1459 1.427 . S
C1452 H1443 0.930 . S
C1452 C1450 1.378 . S
C1452 C1453 1.367 . S
C1453 C1452 1.367 . S
C1453 C1455 1.433 . S
C1454 C1450 1.350 . S
C1454 C1451 1.463 . S
C1454 N1458 1.427 . S
C1455 H1445 0.929 . S
C1455 C1453 1.433 . S
C1455 N1458 1.384 . S
C1456 H1447 0.929 . S
C1456 C1448 1.378 . S
C1456 C1451 1.350 . S
C1457 H1444 0.929 . S
C1457 C1449 1.433 . S
C1457 N1459 1.384 . S
N1458 C1454 1.427 . S
N1458 C1455 1.384 . S
N1459 C1451 1.427 . S
N1459 C1457 1.384 . S
H1460 C1466 0.930 . S
H1461 C1470 0.930 . S
H1462 C1475 0.929 . S
H1463 C1473 0.929 . S
H1464 C1468 0.929 . S
H1465 C1474 0.929 . S
C1466 H1460 0.930 . S
C1466 C1467 1.367 . S
C1466 C1474 1.378 . S
C1467 C1466 1.367 . S
C1467 C1475 1.433 . S
C1468 H1464 0.929 . S
C1468 C1470 1.378 . S
C1468 C1472 1.350 . S
C1469 C1472 1.463 . S
C1469 C1474 1.350 . S
C1469 N1477 1.427 . S
C1470 H1461 0.930 . S
C1470 C1468 1.378 . S
C1470 C1471 1.367 . S
C1471 C1470 1.367 . S
C1471 C1473 1.433 . S
C1472 C1468 1.350 . S
C1472 C1469 1.463 . S
C1472 N1476 1.427 . S
C1473 H1463 0.929 . S
C1473 C1471 1.433 . S
C1473 N1476 1.384 . S
C1474 H1465 0.929 . S
C1474 C1466 1.378 . S
C1474 C1469 1.350 . S
C1475 H1462 0.929 . S
C1475 C1467 1.433 . S
C1475 N1477 1.384 . S
N1476 C1472 1.427 . S
N1476 C1473 1.384 . S
N1477 C1469 1.427 . S
N1477 C1475 1.384 . S
H1478 C1484 0.930 . S
H1479 C1488 0.930 . S
H1480 C1493 0.929 . S
H1481 C1491 0.929 . S
H1482 C1486 0.929 . S
H1483 C1492 0.929 . S
C1484 H1478 0.930 . S
C1484 C1485 1.367 . S
C1484 C1492 1.378 . S
C1485 C1484 1.367 . S
C1485 C1493 1.433 . S
C1486 H1482 0.929 . S
C1486 C1488 1.378 . S
C1486 C1490 1.350 . S
C1487 C1490 1.463 . S
C1487 C1492 1.350 . S
C1487 N1495 1.427 . S
C1488 H1479 0.930 . S
C1488 C1486 1.378 . S
C1488 C1489 1.367 . S
C1489 C1488 1.367 . S
C1489 C1491 1.433 . S
C1490 C1486 1.350 . S
C1490 C1487 1.463 . S
C1490 N1494 1.427 . S
C1491 H1481 0.929 . S
C1491 C1489 1.433 . S
C1491 N1494 1.384 . S
C1492 H1483 0.929 . S
C1492 C1484 1.378 . S
C1492 C1487 1.350 . S
C1493 H1480 0.929 . S
C1493 C1485 1.433 . S
C1493 N1495 1.384 . S
N1494 C1490 1.427 . S
N1494 C1491 1.384 . S
N1495 C1487 1.427 . S
N1495 C1493 1.384 . S
H1496 C1502 0.930 . S
H1497 C1506 0.930 . S
H1498 C1511 0.929 . S
H1499 C1509 0.929 . S
H1500 C1504 0.929 . S
H1501 C1510 0.929 . S
C1502 H1496 0.930 . S
C1502 C1503 1.367 . S
C1502 C1510 1.378 1_554 S
C1503 C1502 1.367 . S
C1503 C1511 1.433 . S
C1504 H1500 0.929 . S
C1504 C1506 1.378 . S
C1504 C1508 1.350 . S
C1505 C1508 1.463 . S
C1505 C1510 1.350 . S
C1505 N1513 1.427 1_556 S
C1506 H1497 0.930 . S
C1506 C1504 1.378 . S
C1506 C1507 1.367 . S
C1507 C1506 1.367 . S
C1507 C1509 1.433 . S
C1508 C1504 1.350 . S
C1508 C1505 1.463 . S
C1508 N1512 1.427 . S
C1509 H1499 0.929 . S
C1509 C1507 1.433 . S
C1509 N1512 1.384 . S
C1510 H1501 0.929 . S
C1510 C1502 1.378 1_556 S
C1510 C1505 1.350 . S
C1511 H1498 0.929 . S
C1511 C1503 1.433 . S
C1511 N1513 1.384 . S
N1512 C1508 1.427 . S
N1512 C1509 1.384 . S
N1513 C1505 1.427 1_554 S
N1513 C1511 1.384 . S
H1514 C1520 0.930 . S
H1515 C1524 0.930 . S
H1516 C1529 0.929 . S
H1517 C1527 0.929 . S
H1518 C1522 0.929 . S
H1519 C1528 0.929 . S
C1520 H1514 0.930 . S
C1520 C1521 1.367 . S
C1520 C1528 1.378 . S
C1521 C1520 1.367 . S
C1521 C1529 1.433 . S
C1522 H1518 0.929 . S
C1522 C1524 1.378 . S
C1522 C1526 1.350 . S
C1523 C1526 1.463 . S
C1523 C1528 1.350 . S
C1523 N1531 1.427 . S
C1524 H1515 0.930 . S
C1524 C1522 1.378 . S
C1524 C1525 1.367 . S
C1525 C1524 1.367 . S
C1525 C1527 1.433 . S
C1526 C1522 1.350 . S
C1526 C1523 1.463 . S
C1526 N1530 1.427 . S
C1527 H1517 0.929 . S
C1527 C1525 1.433 . S
C1527 N1530 1.384 . S
C1528 H1519 0.929 . S
C1528 C1520 1.378 . S
C1528 C1523 1.350 . S
C1529 H1516 0.929 . S
C1529 C1521 1.433 . S
C1529 N1531 1.384 . S
N1530 C1526 1.427 . S
N1530 C1527 1.384 . S
N1531 C1523 1.427 . S
N1531 C1529 1.384 . S
H1532 C1538 0.930 . S
H1533 C1542 0.930 . S
H1534 C1547 0.929 . S
H1535 C1545 0.929 . S
H1536 C1540 0.929 . S
H1537 C1546 0.929 . S
C1538 H1532 0.930 . S
C1538 C1539 1.367 . S
C1538 C1546 1.378 . S
C1539 C1538 1.367 . S
C1539 C1547 1.433 . S
C1540 H1536 0.929 . S
C1540 C1542 1.378 . S
C1540 C1544 1.350 . S
C1541 C1544 1.463 . S
C1541 C1546 1.350 . S
C1541 N1549 1.427 . S
C1542 H1533 0.930 . S
C1542 C1540 1.378 . S
C1542 C1543 1.367 . S
C1543 C1542 1.367 . S
C1543 C1545 1.433 . S
C1544 C1540 1.350 . S
C1544 C1541 1.463 . S
C1544 N1548 1.427 . S
C1545 H1535 0.929 . S
C1545 C1543 1.433 . S
C1545 N1548 1.384 . S
C1546 H1537 0.929 . S
C1546 C1538 1.378 . S
C1546 C1541 1.350 . S
C1547 H1534 0.929 . S
C1547 C1539 1.433 . S
C1547 N1549 1.384 . S
N1548 C1544 1.427 . S
N1548 C1545 1.384 . S
N1549 C1541 1.427 . S
N1549 C1547 1.384 . S
H1550 C1556 0.930 . S
H1551 C1560 0.930 . S
H1552 C1565 0.929 . S
H1553 C1563 0.929 . S
H1554 C1558 0.929 . S
H1555 C1564 0.929 . S
C1556 H1550 0.930 . S
C1556 C1557 1.367 . S
C1556 C1564 1.378 . S
C1557 C1556 1.367 . S
C1557 C1565 1.433 . S
C1558 H1554 0.929 . S
C1558 C1560 1.378 . S
C1558 C1562 1.350 . S
C1559 C1562 1.463 . S
C1559 C1564 1.350 . S
C1559 N1567 1.427 . S
C1560 H1551 0.930 . S
C1560 C1558 1.378 . S
C1560 C1561 1.367 . S
C1561 C1560 1.367 . S
C1561 C1563 1.433 . S
C1562 C1558 1.350 . S
C1562 C1559 1.463 . S
C1562 N1566 1.427 . S
C1563 H1553 0.929 . S
C1563 C1561 1.433 . S
C1563 N1566 1.384 . S
C1564 H1555 0.929 . S
C1564 C1556 1.378 . S
C1564 C1559 1.350 . S
C1565 H1552 0.929 . S
C1565 C1557 1.433 . S
C1565 N1567 1.384 . S
N1566 C1562 1.427 . S
N1566 C1563 1.384 . S
N1567 C1559 1.427 . S
N1567 C1565 1.384 . S
C423 C5 1.113 . S
C427 C172 1.120 . S
C441 C328 1.383 . S
C445 C16 1.394 . S
C459 C31 1.204 . S
C463 C198 1.208 . S
C477 C42 1.680 . S
C481 C315 1.660 . S
C495 C57 1.366 . S
C499 C224 1.370 . S
C513 C68 1.225 . S
C517 C289 1.220 . S
C531 C81 1.233 . S
C535 C250 1.230 . S
C549 C406 0.710 . S
C553 C96 0.713 . S
C567 C276 1.362 . S
C571 C107 1.362 . S
C585 C122 1.229 . S
C589 C237 1.229 . S
C603 C302 1.234 . S
C607 C135 1.236 . S
C621 C148 1.686 . S
C625 C211 1.669 . S
C639 C187 1.385 . S
C643 C159 1.393 . S
C657 C265 0.693 . S
C661 C369 0.692 . S
C675 C380 1.122 . S
C679 C343 1.117 . S
C693 C393 1.208 . S
C697 C354 1.204 . S
C711 C3 2.088 . S
C715 C18 2.090 . S
C729 C36 1.697 . S
C733 C23 1.689 . S
C747 C44 2.092 . S
C751 C29 2.088 . S
C765 C49 1.852 . S
C769 C10 1.836 . S
C783 C94 1.914 . S
C787 C55 1.920 . S
C801 C75 1.206 . S
C805 C62 1.206 . S
C819 C83 1.460 . S
C823 C70 1.458 . S
C837 C82 1.582 . S
C841 C95 1.556 . S
C855 C127 1.592 . S
C859 C4 1.578 . S
C873 C114 1.268 . S
C877 C43 1.292 . S
C891 C134 1.164 . S
C895 C17 1.159 1_655 S
C909 C361 1.705 . S
C913 C101 1.693 1_655 S
C927 C374 1.700 . S
C931 C30 1.712 . S
C945 C153 1.297 1_455 S
C949 C56 1.273 . S
C963 C88 1.152 . S
C967 C160 1.160 . S
C981 C185 1.816 . S
C985 C173 1.821 . S
C999 C200 1.413 . S
C1003 C192 1.418 . S
C1017 C213 1.852 . S
C1021 C199 1.863 . S
C1035 C174 1.182 . S
C1039 C212 1.179 . S
C1053 C226 1.948 . S
C1057 C270 1.963 . S
C1071 C231 1.562 . S
C1075 C244 1.606 . S
C1089 C251 2.127 . S
C1093 C238 2.119 . S
C1107 C252 1.590 . S
C1111 C264 1.587 . S
C1125 C179 1.197 . S
C1129 C291 1.197 . S
C1143 C277 1.592 . S
C1147 C218 1.500 . S
C1161 C309 1.620 . S
C1165 C186 1.584 . S
C1179 C400 1.292 . S
C1183 C263 1.317 . S
C1197 C408 1.315 . S
C1201 C205 1.302 . S
C1215 C225 1.592 . S
C1219 C322 1.500 . S
C1233 C335 1.578 . S
C1237 C257 1.611 . S
C1251 C161 2.089 . S
C1255 C341 2.090 . S
C1269 C355 1.690 . S
C1273 C166 1.695 . S
C1287 C146 2.094 . S
C1291 C356 2.089 . S
C1305 C147 1.851 . S
C1309 C348 1.834 . S
C1323 C109 1.913 . S
C1327 C367 1.908 . S
C1341 C121 1.198 . S
C1345 C108 1.210 . S
C1359 C133 1.458 . S
C1363 C120 1.457 . S
C1377 C140 1.590 . S
C1381 C368 1.563 . S
C1395 C342 1.581 . S
C1399 C69 1.598 . S
C1413 C330 1.820 . S
C1417 C381 1.824 . S
C1431 C329 1.418 . S
C1435 C395 1.408 . S
C1449 C394 1.865 . S
C1453 C317 1.852 . S
C1467 C316 1.181 . S
C1471 C382 1.178 . S
C1485 C407 1.969 . S
C1489 C278 1.954 . S
C1503 C283 1.563 . S
C1507 C296 1.605 . S
C1521 C303 2.120 . S
C1525 C290 2.119 . S
C1539 C304 1.588 . S
C1543 C413 1.577 . S
C1557 C387 1.194 . S
C1561 C239 1.199 . S
