# Generated by pormake.
# Topology umr, (4)-cn, num edge types: 1
# Building blocks:
#     Node 0, Type 0, BuildingBlock: QUQFOY_clean_sbu_3, # of connection points: 4
#     Node 1, Type 0, BuildingBlock: QUQFOY_clean_sbu_3, # of connection points: 4
#     Node 2, Type 0, BuildingBlock: QUQFOY_clean_sbu_3, # of connection points: 4
#     Node 3, Type 0, BuildingBlock: QUQFOY_clean_sbu_3, # of connection points: 4
#     Node 4, Type 0, BuildingBlock: QUQFOY_clean_sbu_3, # of connection points: 4
#     Node 5, Type 0, BuildingBlock: QUQFOY_clean_sbu_3, # of connection points: 4
#     Node 6, Type 0, BuildingBlock: QUQFOY_clean_sbu_3, # of connection points: 4
#     Node 7, Type 0, BuildingBlock: QUQFOY_clean_sbu_3, # of connection points: 4
#     Node 8, Type 0, BuildingBlock: QUQFOY_clean_sbu_3, # of connection points: 4
#     Node 9, Type 0, BuildingBlock: QUQFOY_clean_sbu_3, # of connection points: 4
#     Node 10, Type 0, BuildingBlock: QUQFOY_clean_sbu_3, # of connection points: 4
#     Node 11, Type 0, BuildingBlock: QUQFOY_clean_sbu_3, # of connection points: 4
#     Node 12, Type 0, BuildingBlock: QUQFOY_clean_sbu_3, # of connection points: 4
#     Node 13, Type 0, BuildingBlock: QUQFOY_clean_sbu_3, # of connection points: 4
#     Node 14, Type 0, BuildingBlock: QUQFOY_clean_sbu_3, # of connection points: 4
#     Node 15, Type 0, BuildingBlock: QUQFOY_clean_sbu_3, # of connection points: 4
#     Node 16, Type 0, BuildingBlock: QUQFOY_clean_sbu_3, # of connection points: 4
#     Node 17, Type 0, BuildingBlock: QUQFOY_clean_sbu_3, # of connection points: 4
#     Node 18, Type 0, BuildingBlock: QUQFOY_clean_sbu_3, # of connection points: 4
#     Node 19, Type 0, BuildingBlock: QUQFOY_clean_sbu_3, # of connection points: 4
#     Node 20, Type 0, BuildingBlock: QUQFOY_clean_sbu_3, # of connection points: 4
#     Node 21, Type 0, BuildingBlock: QUQFOY_clean_sbu_3, # of connection points: 4
#     Node 22, Type 0, BuildingBlock: QUQFOY_clean_sbu_3, # of connection points: 4
#     Node 23, Type 0, BuildingBlock: QUQFOY_clean_sbu_3, # of connection points: 4
#     Node 24, Type 0, BuildingBlock: QUQFOY_clean_sbu_3, # of connection points: 4
#     Node 25, Type 0, BuildingBlock: QUQFOY_clean_sbu_3, # of connection points: 4
#     Node 26, Type 0, BuildingBlock: QUQFOY_clean_sbu_3, # of connection points: 4
#     Node 27, Type 0, BuildingBlock: QUQFOY_clean_sbu_3, # of connection points: 4
#     Node 28, Type 0, BuildingBlock: QUQFOY_clean_sbu_3, # of connection points: 4
#     Node 29, Type 0, BuildingBlock: QUQFOY_clean_sbu_3, # of connection points: 4
#     Node 30, Type 0, BuildingBlock: QUQFOY_clean_sbu_3, # of connection points: 4
#     Node 31, Type 0, BuildingBlock: QUQFOY_clean_sbu_3, # of connection points: 4
#     Edge 32, Type (0, 0), BuildingBlock: UVAHIK_clean_linker_0, # of connection points: 2
#     Edge 33, Type (0, 0), BuildingBlock: UVAHIK_clean_linker_0, # of connection points: 2
#     Edge 34, Type (0, 0), BuildingBlock: UVAHIK_clean_linker_0, # of connection points: 2
#     Edge 35, Type (0, 0), BuildingBlock: UVAHIK_clean_linker_0, # of connection points: 2
#     Edge 36, Type (0, 0), BuildingBlock: UVAHIK_clean_linker_0, # of connection points: 2
#     Edge 37, Type (0, 0), BuildingBlock: UVAHIK_clean_linker_0, # of connection points: 2
#     Edge 38, Type (0, 0), BuildingBlock: UVAHIK_clean_linker_0, # of connection points: 2
#     Edge 39, Type (0, 0), BuildingBlock: UVAHIK_clean_linker_0, # of connection points: 2
#     Edge 40, Type (0, 0), BuildingBlock: UVAHIK_clean_linker_0, # of connection points: 2
#     Edge 41, Type (0, 0), BuildingBlock: UVAHIK_clean_linker_0, # of connection points: 2
#     Edge 42, Type (0, 0), BuildingBlock: UVAHIK_clean_linker_0, # of connection points: 2
#     Edge 43, Type (0, 0), BuildingBlock: UVAHIK_clean_linker_0, # of connection points: 2
#     Edge 44, Type (0, 0), BuildingBlock: UVAHIK_clean_linker_0, # of connection points: 2
#     Edge 45, Type (0, 0), BuildingBlock: UVAHIK_clean_linker_0, # of connection points: 2
#     Edge 46, Type (0, 0), BuildingBlock: UVAHIK_clean_linker_0, # of connection points: 2
#     Edge 47, Type (0, 0), BuildingBlock: UVAHIK_clean_linker_0, # of connection points: 2
#     Edge 48, Type (0, 0), BuildingBlock: UVAHIK_clean_linker_0, # of connection points: 2
#     Edge 49, Type (0, 0), BuildingBlock: UVAHIK_clean_linker_0, # of connection points: 2
#     Edge 50, Type (0, 0), BuildingBlock: UVAHIK_clean_linker_0, # of connection points: 2
#     Edge 51, Type (0, 0), BuildingBlock: UVAHIK_clean_linker_0, # of connection points: 2
#     Edge 52, Type (0, 0), BuildingBlock: UVAHIK_clean_linker_0, # of connection points: 2
#     Edge 53, Type (0, 0), BuildingBlock: UVAHIK_clean_linker_0, # of connection points: 2
#     Edge 54, Type (0, 0), BuildingBlock: UVAHIK_clean_linker_0, # of connection points: 2
#     Edge 55, Type (0, 0), BuildingBlock: UVAHIK_clean_linker_0, # of connection points: 2
#     Edge 56, Type (0, 0), BuildingBlock: UVAHIK_clean_linker_0, # of connection points: 2
#     Edge 57, Type (0, 0), BuildingBlock: UVAHIK_clean_linker_0, # of connection points: 2
#     Edge 58, Type (0, 0), BuildingBlock: UVAHIK_clean_linker_0, # of connection points: 2
#     Edge 59, Type (0, 0), BuildingBlock: UVAHIK_clean_linker_0, # of connection points: 2
#     Edge 60, Type (0, 0), BuildingBlock: UVAHIK_clean_linker_0, # of connection points: 2
#     Edge 61, Type (0, 0), BuildingBlock: UVAHIK_clean_linker_0, # of connection points: 2
#     Edge 62, Type (0, 0), BuildingBlock: UVAHIK_clean_linker_0, # of connection points: 2
#     Edge 63, Type (0, 0), BuildingBlock: UVAHIK_clean_linker_0, # of connection points: 2
#     Edge 64, Type (0, 0), BuildingBlock: UVAHIK_clean_linker_0, # of connection points: 2
#     Edge 65, Type (0, 0), BuildingBlock: UVAHIK_clean_linker_0, # of connection points: 2
#     Edge 66, Type (0, 0), BuildingBlock: UVAHIK_clean_linker_0, # of connection points: 2
#     Edge 67, Type (0, 0), BuildingBlock: UVAHIK_clean_linker_0, # of connection points: 2
#     Edge 68, Type (0, 0), BuildingBlock: UVAHIK_clean_linker_0, # of connection points: 2
#     Edge 69, Type (0, 0), BuildingBlock: UVAHIK_clean_linker_0, # of connection points: 2
#     Edge 70, Type (0, 0), BuildingBlock: UVAHIK_clean_linker_0, # of connection points: 2
#     Edge 71, Type (0, 0), BuildingBlock: UVAHIK_clean_linker_0, # of connection points: 2
#     Edge 72, Type (0, 0), BuildingBlock: UVAHIK_clean_linker_0, # of connection points: 2
#     Edge 73, Type (0, 0), BuildingBlock: UVAHIK_clean_linker_0, # of connection points: 2
#     Edge 74, Type (0, 0), BuildingBlock: UVAHIK_clean_linker_0, # of connection points: 2
#     Edge 75, Type (0, 0), BuildingBlock: UVAHIK_clean_linker_0, # of connection points: 2
#     Edge 76, Type (0, 0), BuildingBlock: UVAHIK_clean_linker_0, # of connection points: 2
#     Edge 77, Type (0, 0), BuildingBlock: UVAHIK_clean_linker_0, # of connection points: 2
#     Edge 78, Type (0, 0), BuildingBlock: UVAHIK_clean_linker_0, # of connection points: 2
#     Edge 79, Type (0, 0), BuildingBlock: UVAHIK_clean_linker_0, # of connection points: 2
#     Edge 80, Type (0, 0), BuildingBlock: UVAHIK_clean_linker_0, # of connection points: 2
#     Edge 81, Type (0, 0), BuildingBlock: UVAHIK_clean_linker_0, # of connection points: 2
#     Edge 82, Type (0, 0), BuildingBlock: UVAHIK_clean_linker_0, # of connection points: 2
#     Edge 83, Type (0, 0), BuildingBlock: UVAHIK_clean_linker_0, # of connection points: 2
#     Edge 84, Type (0, 0), BuildingBlock: UVAHIK_clean_linker_0, # of connection points: 2
#     Edge 85, Type (0, 0), BuildingBlock: UVAHIK_clean_linker_0, # of connection points: 2
#     Edge 86, Type (0, 0), BuildingBlock: UVAHIK_clean_linker_0, # of connection points: 2
#     Edge 87, Type (0, 0), BuildingBlock: UVAHIK_clean_linker_0, # of connection points: 2
#     Edge 88, Type (0, 0), BuildingBlock: UVAHIK_clean_linker_0, # of connection points: 2
#     Edge 89, Type (0, 0), BuildingBlock: UVAHIK_clean_linker_0, # of connection points: 2
#     Edge 90, Type (0, 0), BuildingBlock: UVAHIK_clean_linker_0, # of connection points: 2
#     Edge 91, Type (0, 0), BuildingBlock: UVAHIK_clean_linker_0, # of connection points: 2
#     Edge 92, Type (0, 0), BuildingBlock: UVAHIK_clean_linker_0, # of connection points: 2
#     Edge 93, Type (0, 0), BuildingBlock: UVAHIK_clean_linker_0, # of connection points: 2
#     Edge 94, Type (0, 0), BuildingBlock: UVAHIK_clean_linker_0, # of connection points: 2
#     Edge 95, Type (0, 0), BuildingBlock: UVAHIK_clean_linker_0, # of connection points: 2
# Relax obj value: 0.089
# Max RMSD: 0.108
# Mean RMSD: 0.108
data_MOF--net-umr--node1-QUQFOY_clean_sbu_3--edge1-UVAHIK_clean_linker_0
_symmetry_space_group_name_H-M    P1
_symmetry_Int_Tables_number       1
_symmetry_cell_setting            triclinic
loop_
_symmetry_equiv_pos_as_xyz
'x, y, z'
_cell_length_a     110.20223
_cell_length_b     109.88968
_cell_length_c     34.778871
_cell_angle_alpha  89.997345
_cell_angle_beta   90.102097
_cell_angle_gamma 90.136361
loop_
_atom_site_label
_atom_site_type_symbol
_atom_site_fract_x
_atom_site_fract_y
_atom_site_fract_z
_atom_type_partial_charge
C0 C 0.15888 0.25587 0.0539 0.0
O1 O 0.16373 0.2504 0.08216 0.0
Cd2 Cd 0.17282 0.26112 0.13419 0.0
O3 O 0.1584 0.26747 0.05295 0.0
Cd4 Cd 0.16395 0.28534 0.09312 0.0
C5 C 0.19352 0.278 0.08263 0.0
O6 O 0.15736 0.27548 0.15125 0.0
O7 O 0.16644 0.29268 0.15964 0.0
O8 O 0.14513 0.29418 0.07017 0.0
C9 C 0.16027 0.28403 0.17379 0.0
O10 O 0.19142 0.26908 0.10504 0.0
C11 C 0.14935 0.30483 0.06551 0.0
O12 O 0.18508 0.28528 0.07315 0.0
O13 O 0.16061 0.3063 0.07181 0.0
C14 C 0.97494 0.89707 0.29056 0.0
O15 O 0.98224 0.90063 0.31654 0.0
Cd16 Cd 0.97622 0.90929 0.37563 0.0
O17 O 0.96348 0.89738 0.29594 0.0
Cd18 Cd 0.94928 0.90269 0.34917 0.0
C19 C 0.95783 0.93201 0.33923 0.0
O20 O 0.96211 0.89465 0.39873 0.0
O21 O 0.94751 0.90573 0.41959 0.0
O22 O 0.93788 0.88443 0.33459 0.0
C23 C 0.95617 0.89854 0.42714 0.0
O24 O 0.96767 0.92883 0.35562 0.0
C25 C 0.92748 0.88928 0.33734 0.0
O26 O 0.94952 0.92424 0.33235 0.0
O27 O 0.9272 0.9007 0.34301 0.0
C28 C 0.342 0.72775 0.51886 0.0
O29 O 0.34095 0.7356 0.54545 0.0
Cd30 Cd 0.33517 0.73175 0.6097 0.0
O31 O 0.34044 0.71641 0.52542 0.0
Cd32 Cd 0.33631 0.70328 0.58273 0.0
C33 C 0.30852 0.71648 0.58963 0.0
O34 O 0.34886 0.71564 0.62305 0.0
O35 O 0.33911 0.70186 0.65377 0.0
O36 O 0.3497 0.68778 0.55603 0.0
C37 C 0.34691 0.71035 0.65456 0.0
O38 O 0.31373 0.72606 0.60217 0.0
C39 C 0.3429 0.67889 0.56528 0.0
O40 O 0.31468 0.70718 0.58023 0.0
O41 O 0.33281 0.68146 0.58079 0.0
C42 C 0.506 0.09165 0.77526 0.0
O43 O 0.49848 0.08801 0.8004 0.0
Cd44 Cd 0.50379 0.08 0.86088 0.0
O45 O 0.5174 0.09136 0.78173 0.0
Cd46 Cd 0.53094 0.08568 0.8364 0.0
C47 C 0.52191 0.05648 0.82945 0.0
O48 O 0.5179 0.09487 0.88264 0.0
O49 O 0.53144 0.08327 0.90753 0.0
O50 O 0.54268 0.10346 0.81958 0.0
C51 C 0.5232 0.09114 0.91249 0.0
O52 O 0.51212 0.06005 0.84514 0.0
C53 C 0.55298 0.09878 0.82625 0.0
O54 O 0.53032 0.06402 0.82145 0.0
O55 O 0.55314 0.08757 0.83508 0.0
C56 C 0.15358 0.73799 0.43297 0.0
O57 O 0.15908 0.74469 0.40886 0.0
Cd58 Cd 0.17089 0.7365 0.3581 0.0
O59 O 0.15415 0.72642 0.43071 0.0
Cd60 Cd 0.16308 0.71039 0.38913 0.0
C61 C 0.19134 0.72003 0.41187 0.0
O62 O 0.1576 0.72138 0.33207 0.0
O63 O 0.16832 0.70531 0.32208 0.0
O64 O 0.14434 0.69979 0.40317 0.0
C65 C 0.16197 0.71388 0.30835 0.0
O66 O 0.18907 0.72926 0.391 0.0
C67 C 0.14899 0.68927 0.40548 0.0
O68 O 0.18339 0.71177 0.41693 0.0
O69 O 0.16045 0.68859 0.40227 0.0
C70 C 0.51641 0.89571 0.72354 0.0
O71 O 0.50745 0.89822 0.70204 0.0
Cd72 Cd 0.50857 0.90963 0.64488 0.0
O73 O 0.5272 0.8988 0.71441 0.0
Cd74 Cd 0.537 0.90814 0.65648 0.0
C75 C 0.52397 0.93498 0.67736 0.0
O76 O 0.52354 0.89802 0.61228 0.0
O77 O 0.53448 0.91196 0.58652 0.0
O78 O 0.55335 0.89362 0.66652 0.0
C79 C 0.52707 0.90324 0.58205 0.0
O80 O 0.51405 0.93034 0.66547 0.0
C81 C 0.56172 0.90079 0.65566 0.0
O82 O 0.53365 0.92873 0.67807 0.0
O83 O 0.55865 0.91156 0.64693 0.0
C84 C 0.34366 0.2613 0.93969 0.0
O85 O 0.34001 0.25445 0.91261 0.0
Cd86 Cd 0.3317 0.26059 0.85336 0.0
O87 O 0.34334 0.27289 0.93648 0.0
Cd88 Cd 0.33747 0.28774 0.88476 0.0
C89 C 0.3083 0.27777 0.88971 0.0
O90 O 0.3466 0.27531 0.83669 0.0
O91 O 0.33666 0.29031 0.81337 0.0
O92 O 0.35364 0.30132 0.90692 0.0
C93 C 0.34369 0.28141 0.80748 0.0
O94 O 0.31169 0.26814 0.87249 0.0
C95 C 0.34761 0.31101 0.90131 0.0
O96 O 0.31588 0.28611 0.89806 0.0
O97 O 0.33671 0.30975 0.89018 0.0
C98 C 0.98027 0.08317 0.18116 0.0
O99 O 0.98665 0.07817 0.15526 0.0
Cd100 Cd 0.97833 0.06811 0.10163 0.0
O101 O 0.9687 0.08331 0.17873 0.0
Cd102 Cd 0.95287 0.07675 0.13103 0.0
C103 C 0.95993 0.0475 0.14864 0.0
O104 O 0.96511 0.0837 0.07875 0.0
O105 O 0.94975 0.07308 0.06084 0.0
O106 O 0.94241 0.09524 0.15082 0.0
C107 C 0.95843 0.08007 0.05164 0.0
O108 O 0.96958 0.04964 0.12973 0.0
C109 C 0.93183 0.09111 0.14457 0.0
O110 O 0.95217 0.05586 0.15416 0.0
O111 O 0.93101 0.08005 0.13444 0.0
C112 C 0.83995 0.72674 0.93841 0.0
O113 O 0.83516 0.73262 0.91088 0.0
Cd114 Cd 0.82733 0.72414 0.85342 0.0
O115 O 0.8409 0.71516 0.93705 0.0
Cd116 Cd 0.83553 0.6991 0.88901 0.0
C117 C 0.80559 0.70615 0.89381 0.0
O118 O 0.84363 0.71084 0.83686 0.0
O119 O 0.83386 0.69491 0.81897 0.0
O120 O 0.85245 0.68644 0.9108 0.0
C121 C 0.84078 0.70367 0.81001 0.0
O122 O 0.80772 0.71529 0.87232 0.0
C123 C 0.84645 0.67657 0.90861 0.0
O124 O 0.81421 0.69937 0.90504 0.0
O125 O 0.83532 0.6774 0.8997 0.0
C126 C 0.01154 0.08122 0.68061 0.0
O127 O 0.00675 0.07452 0.65497 0.0
Cd128 Cd 0.01618 0.06897 0.5961 0.0
O129 O 0.02224 0.08549 0.67636 0.0
Cd130 Cd 0.03845 0.08451 0.62689 0.0
C131 C 0.04036 0.05377 0.63438 0.0
O132 O 0.02429 0.08804 0.57547 0.0
O133 O 0.04244 0.08382 0.55701 0.0
O134 O 0.04443 0.10521 0.64379 0.0
C135 C 0.03188 0.08746 0.54837 0.0
O136 O 0.03064 0.05318 0.61465 0.0
C137 C 0.05574 0.10304 0.6435 0.0
O138 O 0.04476 0.06402 0.64418 0.0
O139 O 0.05891 0.09208 0.6379 0.0
C140 C 0.65247 0.25888 0.4371 0.0
O141 O 0.65602 0.25295 0.4079 0.0
Cd142 Cd 0.66406 0.26238 0.35237 0.0
O143 O 0.65269 0.2705 0.43729 0.0
Cd144 Cd 0.65795 0.2875 0.39263 0.0
C145 C 0.68719 0.27838 0.39583 0.0
O146 O 0.64891 0.27738 0.33885 0.0
O147 O 0.65948 0.29308 0.32341 0.0
O148 O 0.64071 0.29826 0.41965 0.0
C149 C 0.65206 0.28485 0.31319 0.0
O150 O 0.68395 0.26942 0.37496 0.0
C151 C 0.64582 0.30862 0.42028 0.0
O152 O 0.67948 0.28622 0.40689 0.0
O153 O 0.65684 0.30906 0.40971 0.0
C154 C 0.47143 0.89787 0.21815 0.0
O155 O 0.48008 0.90005 0.19508 0.0
Cd156 Cd 0.47797 0.90931 0.13443 0.0
O157 O 0.46043 0.90008 0.209 0.0
Cd158 Cd 0.44959 0.90703 0.14961 0.0
C159 C 0.46211 0.93488 0.16159 0.0
O160 O 0.46302 0.89599 0.10834 0.0
O161 O 0.4513 0.9083 0.0783 0.0
O162 O 0.43394 0.89219 0.16584 0.0
C163 C 0.45903 0.8998 0.07662 0.0
O164 O 0.47204 0.9303 0.14988 0.0
C165 C 0.42515 0.89868 0.15417 0.0
O166 O 0.45265 0.92832 0.16481 0.0
O167 O 0.4277 0.90928 0.14212 0.0
C168 C 0.84238 0.26664 0.52805 0.0
O169 O 0.83916 0.25966 0.5553 0.0
Cd170 Cd 0.82963 0.26571 0.61287 0.0
O171 O 0.84087 0.27815 0.53026 0.0
Cd172 Cd 0.83311 0.2929 0.57932 0.0
C173 C 0.80503 0.28019 0.57308 0.0
O174 O 0.84285 0.28203 0.63014 0.0
O175 O 0.83131 0.29636 0.65008 0.0
O176 O 0.84806 0.30765 0.5565 0.0
C177 C 0.83903 0.28821 0.65809 0.0
O178 O 0.80907 0.27101 0.59134 0.0
C179 C 0.84095 0.31672 0.55877 0.0
O180 O 0.81195 0.28907 0.56473 0.0
O181 O 0.83012 0.31456 0.56902 0.0
C182 C 0.4663 0.09239 0.27163 0.0
O183 O 0.47501 0.09037 0.29473 0.0
Cd184 Cd 0.47339 0.08097 0.3555 0.0
O185 O 0.45536 0.08977 0.28048 0.0
Cd186 Cd 0.44423 0.08198 0.33787 0.0
C187 C 0.45842 0.05483 0.32647 0.0
O188 O 0.4574 0.09317 0.37939 0.0
O189 O 0.44479 0.08175 0.40943 0.0
O190 O 0.42842 0.09613 0.31852 0.0
C191 C 0.45304 0.08977 0.41106 0.0
O192 O 0.46809 0.05992 0.33868 0.0
C193 C 0.41969 0.08953 0.33013 0.0
O194 O 0.44863 0.06085 0.32305 0.0
O195 O 0.42236 0.07912 0.34346 0.0
C196 C 0.65828 0.73364 0.02667 0.0
O197 O 0.66452 0.7396 0.05104 0.0
Cd198 Cd 0.67165 0.73182 0.11071 0.0
O199 O 0.65558 0.72249 0.03249 0.0
Cd200 Cd 0.6595 0.70713 0.08339 0.0
C201 C 0.69013 0.70987 0.07462 0.0
O202 O 0.65411 0.72127 0.13315 0.0
O203 O 0.6606 0.70404 0.15402 0.0
O204 O 0.63987 0.69811 0.06809 0.0
C205 C 0.65569 0.7142 0.16126 0.0
O206 O 0.68931 0.71971 0.0937 0.0
C207 C 0.64353 0.68717 0.06932 0.0
O208 O 0.68065 0.7039 0.06539 0.0
O209 O 0.65481 0.68555 0.0747 0.0
C210 C 0.01342 0.91599 0.78542 0.0
O211 O 0.00766 0.92333 0.80685 0.0
Cd212 Cd 0.01426 0.93055 0.86764 0.0
O213 O 0.02394 0.91215 0.79493 0.0
Cd214 Cd 0.03789 0.91553 0.8503 0.0
C215 C 0.03911 0.94621 0.83781 0.0
O216 O 0.02152 0.91194 0.89415 0.0
O217 O 0.03828 0.91684 0.92187 0.0
O218 O 0.04554 0.895 0.8398 0.0
C219 C 0.02751 0.91288 0.9249 0.0
O220 O 0.02871 0.94669 0.85346 0.0
C221 C 0.0566 0.89778 0.84522 0.0
O222 O 0.04415 0.936 0.83154 0.0
O223 O 0.059 0.90895 0.85066 0.0
C224 C 0.64101 0.76338 0.52917 0.0
O225 O 0.64377 0.75663 0.55749 0.0
Cd226 Cd 0.6529 0.76331 0.61532 0.0
O227 O 0.64261 0.77489 0.5307 0.0
Cd228 Cd 0.64984 0.79004 0.57931 0.0
C229 C 0.67782 0.77739 0.5758 0.0
O230 O 0.64007 0.77995 0.63205 0.0
O231 O 0.65234 0.79412 0.64909 0.0
O232 O 0.63492 0.80476 0.55644 0.0
C233 C 0.64441 0.78636 0.65884 0.0
O234 O 0.67364 0.76842 0.59487 0.0
C235 C 0.64221 0.81374 0.55739 0.0
O236 O 0.67098 0.78615 0.56592 0.0
O237 O 0.65312 0.8115 0.5666 0.0
C238 C 0.47958 0.41246 0.782 0.0
O239 O 0.4876 0.41396 0.80782 0.0
Cd240 Cd 0.48384 0.41595 0.87447 0.0
O241 O 0.46837 0.4116 0.79082 0.0
Cd242 Cd 0.45653 0.41227 0.85186 0.0
C243 C 0.46613 0.44124 0.86646 0.0
O244 O 0.47034 0.39927 0.88716 0.0
O245 O 0.45701 0.40847 0.92157 0.0
O246 O 0.44207 0.39767 0.82487 0.0
C247 C 0.46509 0.40032 0.91922 0.0
O248 O 0.47618 0.43681 0.87784 0.0
C249 C 0.43277 0.40297 0.83841 0.0
O250 O 0.45769 0.43431 0.85449 0.0
O251 O 0.43453 0.41294 0.85597 0.0
C252 C 0.8337 0.23354 0.02648 0.0
O253 O 0.82814 0.23955 0.05216 0.0
Cd254 Cd 0.82225 0.23245 0.11384 0.0
O255 O 0.83643 0.22237 0.03175 0.0
Cd256 Cd 0.83315 0.20738 0.08445 0.0
C257 C 0.80245 0.21085 0.08281 0.0
O258 O 0.84015 0.22167 0.13216 0.0
O259 O 0.83371 0.20472 0.15522 0.0
O260 O 0.85123 0.19625 0.06332 0.0
C261 C 0.83896 0.21481 0.16098 0.0
O262 O 0.80381 0.22072 0.10148 0.0
C263 C 0.84659 0.18583 0.0695 0.0
O264 O 0.81162 0.20481 0.07178 0.0
O265 O 0.83559 0.18556 0.08011 0.0
C266 C 0.01508 0.58663 0.28119 0.0
O267 O 0.00852 0.58154 0.30651 0.0
Cd268 Cd 0.01592 0.57383 0.36552 0.0
O269 O 0.02651 0.58776 0.28604 0.0
Cd270 Cd 0.04154 0.58244 0.3368 0.0
C271 C 0.03526 0.55251 0.32835 0.0
O272 O 0.02858 0.59023 0.38595 0.0
O273 O 0.0437 0.57992 0.40751 0.0
O274 O 0.05187 0.60115 0.31974 0.0
C275 C 0.03506 0.5872 0.41426 0.0
O276 O 0.0258 0.55475 0.34802 0.0
C277 C 0.06253 0.59702 0.32395 0.0
O278 O 0.04234 0.56107 0.31812 0.0
O279 O 0.06348 0.58575 0.33143 0.0
C280 C 0.65565 0.23592 0.94132 0.0
O281 O 0.66191 0.24135 0.91591 0.0
Cd282 Cd 0.66947 0.23195 0.85907 0.0
O283 O 0.65314 0.22462 0.93814 0.0
Cd284 Cd 0.65734 0.20795 0.89196 0.0
C285 C 0.68781 0.211 0.90204 0.0
O286 O 0.65231 0.22046 0.83747 0.0
O287 O 0.65945 0.2028 0.82318 0.0
O288 O 0.63779 0.19908 0.9084 0.0
C289 C 0.65443 0.21254 0.81202 0.0
O290 O 0.68712 0.22038 0.88066 0.0
C291 C 0.6417 0.18825 0.91101 0.0
O292 O 0.67828 0.20528 0.91196 0.0
O293 O 0.65303 0.18671 0.90684 0.0
C294 C 0.01557 0.39974 0.21442 0.0
O295 O 0.00688 0.40364 0.19385 0.0
Cd296 Cd 0.00893 0.41232 0.13211 0.0
O297 O 0.02647 0.39986 0.20209 0.0
Cd298 Cd 0.03651 0.40518 0.14012 0.0
C299 C 0.02965 0.43476 0.15375 0.0
O300 O 0.02044 0.3969 0.10154 0.0
O301 O 0.03323 0.40768 0.06973 0.0
O302 O 0.04857 0.38692 0.14675 0.0
C303 C 0.02433 0.40035 0.06929 0.0
O304 O 0.01895 0.43192 0.14307 0.0
C305 C 0.05856 0.3918 0.13705 0.0
O306 O 0.03781 0.42665 0.15687 0.0
O307 O 0.05847 0.4032 0.131 0.0
C308 C 0.82993 0.75218 0.4383 0.0
O309 O 0.82523 0.74551 0.4124 0.0
Cd310 Cd 0.81657 0.75318 0.35488 0.0
O311 O 0.83027 0.76373 0.43461 0.0
Cd312 Cd 0.82421 0.77942 0.38675 0.0
C313 C 0.79468 0.77114 0.39572 0.0
O314 O 0.83194 0.76723 0.33523 0.0
O315 O 0.823 0.78361 0.3168 0.0
O316 O 0.84209 0.7903 0.40868 0.0
C317 C 0.82933 0.7744 0.30814 0.0
O318 O 0.79734 0.76153 0.37717 0.0
C319 C 0.83735 0.8008 0.40721 0.0
O320 O 0.80278 0.77902 0.40363 0.0
O321 O 0.82619 0.80132 0.39811 0.0
C322 C 0.47306 0.59976 0.71657 0.0
O323 O 0.482 0.59616 0.69666 0.0
Cd324 Cd 0.48027 0.58124 0.6478 0.0
O325 O 0.46228 0.59619 0.70913 0.0
Cd326 Cd 0.45174 0.58419 0.65806 0.0
C327 C 0.46416 0.55893 0.69611 0.0
O328 O 0.46539 0.59025 0.60722 0.0
O329 O 0.45301 0.57586 0.59222 0.0
O330 O 0.43669 0.60027 0.66077 0.0
C331 C 0.46116 0.58328 0.58162 0.0
O332 O 0.47417 0.56253 0.68167 0.0
C333 C 0.42762 0.59332 0.65559 0.0
O334 O 0.45458 0.56525 0.69242 0.0
O335 O 0.42971 0.582 0.65277 0.0
C336 C 0.33532 0.22841 0.43906 0.0
O337 O 0.33213 0.23563 0.41236 0.0
Cd338 Cd 0.32449 0.23036 0.35096 0.0
O339 O 0.33461 0.21687 0.4348 0.0
Cd340 Cd 0.32806 0.20243 0.38315 0.0
C341 C 0.29957 0.2146 0.38349 0.0
O342 O 0.33834 0.21452 0.33649 0.0
O343 O 0.32898 0.19922 0.31218 0.0
O344 O 0.34279 0.18791 0.40852 0.0
C345 C 0.33594 0.20826 0.30711 0.0
O346 O 0.30385 0.22398 0.36677 0.0
C347 C 0.33607 0.17865 0.40296 0.0
O348 O 0.30644 0.20581 0.39294 0.0
O349 O 0.32546 0.1806 0.39017 0.0
C350 C 0.51049 0.57818 0.20039 0.0
O351 O 0.50321 0.57495 0.17395 0.0
Cd352 Cd 0.5083 0.57298 0.10815 0.0
O353 O 0.52154 0.58071 0.19279 0.0
Cd354 Cd 0.53429 0.58094 0.1336 0.0
C355 C 0.52971 0.55081 0.11953 0.0
O356 O 0.51928 0.5913 0.09509 0.0
O357 O 0.53409 0.5836 0.06309 0.0
O358 O 0.54484 0.59885 0.15766 0.0
C359 C 0.52502 0.59067 0.06378 0.0
O360 O 0.51937 0.5538 0.10624 0.0
C361 C 0.55538 0.59523 0.14861 0.0
O362 O 0.53684 0.55885 0.13318 0.0
O363 O 0.55622 0.58452 0.13524 0.0
C364 C 0.15112 0.75224 0.9262 0.0
O365 O 0.15456 0.74662 0.89626 0.0
Cd366 Cd 0.16015 0.7566 0.83848 0.0
O367 O 0.15017 0.76382 0.92631 0.0
Cd368 Cd 0.15286 0.78109 0.88086 0.0
C369 C 0.1828 0.77464 0.876 0.0
O370 O 0.14358 0.77033 0.82849 0.0
O371 O 0.15251 0.78702 0.81237 0.0
O372 O 0.13505 0.79068 0.90854 0.0
C373 C 0.14551 0.77833 0.80312 0.0
O374 O 0.17984 0.76549 0.85557 0.0
C375 C 0.13964 0.80128 0.91001 0.0
O376 O 0.17474 0.78169 0.88958 0.0
O377 O 0.15069 0.80231 0.90024 0.0
C378 C 0.96727 0.39507 0.71514 0.0
O379 O 0.97662 0.39627 0.69426 0.0
Cd380 Cd 0.97722 0.40785 0.6374 0.0
O381 O 0.95704 0.39945 0.70488 0.0
Cd382 Cd 0.9485 0.40937 0.64603 0.0
C383 C 0.96414 0.43451 0.67036 0.0
O384 O 0.96126 0.39822 0.60292 0.0
O385 O 0.95246 0.41355 0.57693 0.0
O386 O 0.93132 0.39591 0.65589 0.0
C387 C 0.95894 0.40413 0.57275 0.0
O388 O 0.97359 0.42887 0.65916 0.0
C389 C 0.92338 0.40336 0.64389 0.0
O390 O 0.95379 0.42939 0.66947 0.0
O391 O 0.92707 0.41386 0.63412 0.0
C392 C 0.33909 0.76382 0.01043 0.0
O393 O 0.33471 0.75607 0.03368 0.0
Cd394 Cd 0.32392 0.76079 0.09 0.0
O395 O 0.3379 0.77523 0.01656 0.0
Cd396 Cd 0.32881 0.78822 0.06832 0.0
C397 C 0.30079 0.77721 0.04926 0.0
O398 O 0.33733 0.77554 0.11739 0.0
O399 O 0.32464 0.78865 0.1388 0.0
O400 O 0.34504 0.80266 0.05389 0.0
C401 C 0.33264 0.7807 0.14604 0.0
O402 O 0.30417 0.76744 0.06575 0.0
C403 C 0.33872 0.81208 0.06045 0.0
O404 O 0.30808 0.7861 0.04537 0.0
O405 O 0.32766 0.81039 0.06897 0.0
C406 C 0.98187 0.59127 0.78009 0.0
O407 O 0.98954 0.58886 0.80628 0.0
Cd408 Cd 0.98482 0.57995 0.86617 0.0
O409 O 0.97055 0.58934 0.78504 0.0
Cd410 Cd 0.95739 0.58237 0.83911 0.0
C411 C 0.96996 0.55434 0.83441 0.0
O412 O 0.96907 0.59342 0.88587 0.0
O413 O 0.9557 0.58149 0.91019 0.0
O414 O 0.94228 0.59699 0.81719 0.0
C415 C 0.96346 0.58985 0.91535 0.0
O416 O 0.9794 0.55884 0.85012 0.0
C417 C 0.93325 0.59026 0.82531 0.0
O418 O 0.96089 0.56103 0.8266 0.0
O419 O 0.93553 0.57962 0.8374 0.0
C420 C 0.15121 0.24844 0.55098 0.0
O421 O 0.15659 0.25376 0.57858 0.0
Cd422 Cd 0.16625 0.24293 0.62921 0.0
O423 O 0.15023 0.23686 0.55042 0.0
Cd424 Cd 0.15547 0.21918 0.59182 0.0
C425 C 0.18504 0.22469 0.57505 0.0
O426 O 0.15099 0.22919 0.65191 0.0
O427 O 0.16044 0.21209 0.65693 0.0
O428 O 0.13551 0.21088 0.57788 0.0
C429 C 0.1547 0.22063 0.67321 0.0
O430 O 0.1838 0.23376 0.59749 0.0
C431 C 0.13913 0.20006 0.5725 0.0
O432 O 0.17605 0.21785 0.56705 0.0
O433 O 0.15052 0.19831 0.57344 0.0
C434 C 0.51427 0.39238 0.26124 0.0
O435 O 0.50515 0.3976 0.27611 0.0
Cd436 Cd 0.50673 0.4142 0.31943 0.0
O437 O 0.52504 0.39508 0.27163 0.0
Cd438 Cd 0.53474 0.40746 0.32343 0.0
C439 C 0.52775 0.43275 0.27375 0.0
O440 O 0.51847 0.40573 0.36987 0.0
O441 O 0.53244 0.4188 0.38384 0.0
O442 O 0.5458 0.38941 0.34169 0.0
C443 C 0.52296 0.41309 0.39397 0.0
O444 O 0.51684 0.4306 0.28378 0.0
C445 C 0.55621 0.39436 0.34221 0.0
O446 O 0.53631 0.42564 0.28369 0.0
O447 O 0.55679 0.40548 0.33232 0.0
C448 C 0.28852 0.26833 0.90832 0.0
C449 C 0.29564 0.27882 0.90326 0.0
C450 C 0.27707 0.26909 0.92531 0.0
C451 C 0.25872 0.2895 0.98749 0.0
H452 H 0.23332 0.26628 0.96279 0.0
C453 C 0.20923 0.29023 0.04753 0.0
C454 C 0.20559 0.2792 0.06455 0.0
C455 C 0.2202 0.29097 0.02747 0.0
C456 C 0.24036 0.2728 0.96992 0.0
H457 H 0.29611 0.29841 0.91021 0.0
H458 H 0.27591 0.29985 0.9382 0.0
H459 H 0.25198 0.26641 0.92525 0.0
H460 H 0.21064 0.26037 0.07429 0.0
H461 H 0.22963 0.26165 0.03847 0.0
H462 H 0.24679 0.29604 0.03159 0.0
C463 C 0.27932 0.29095 0.9304 0.0
C464 C 0.25109 0.27285 0.94862 0.0
C465 C 0.29086 0.29016 0.91403 0.0
C466 C 0.21322 0.26901 0.06169 0.0
C467 C 0.22404 0.2697 0.041 0.0
C468 C 0.24787 0.28959 0.00829 0.0
C469 C 0.27236 0.2804 0.93702 0.0
C470 C 0.26052 0.28105 0.95756 0.0
C471 C 0.22755 0.28064 0.02344 0.0
C472 C 0.23871 0.2811 8e-05 0.0
H473 H 0.29198 0.25944 0.90067 0.0
H474 H 0.27214 0.26072 0.93047 0.0
H475 H 0.26581 0.29582 -0.00427 0.0
H476 H 0.20354 0.29823 0.04929 0.0
H477 H 0.22276 0.2995 0.0141 0.0
C478 C 0.96679 0.95223 0.32256 0.0
C479 C 0.95653 0.94467 0.32522 0.0
C480 C 0.96593 0.96377 0.3061 0.0
C481 C 0.94646 0.98198 0.24074 0.0
H482 H 0.96812 0.0079 0.27322 0.0
C483 C 0.94681 0.03174 0.18045 0.0
C484 C 0.95827 0.0355 0.16714 0.0
C485 C 0.94553 0.02077 0.2005 0.0
C486 C 0.96202 0.00073 0.26394 0.0
H487 H 0.9372 0.94349 0.31402 0.0
H488 H 0.93559 0.96386 0.28654 0.0
H489 H 0.96744 0.98898 0.30968 0.0
H490 H 0.97733 0.03065 0.16412 0.0
H491 H 0.97509 0.01167 0.19986 0.0
H492 H 0.94093 0.99401 0.19534 0.0
C493 C 0.94439 0.96073 0.29616 0.0
C494 C 0.96166 0.98985 0.28462 0.0
C495 C 0.94529 0.94908 0.31219 0.0
C496 C 0.96837 0.02799 0.17381 0.0
C497 C 0.96712 0.01718 0.19447 0.0
C498 C 0.94667 0.99298 0.22046 0.0
C499 C 0.95475 0.96816 0.29237 0.0
C500 C 0.95411 0.98021 0.27278 0.0
C501 C 0.95572 0.01353 0.20825 0.0
C502 C 0.95464 0.00232 0.23143 0.0
H503 H 0.97562 0.94909 0.33198 0.0
H504 H 0.97417 0.96907 0.30304 0.0
H505 H 0.94064 0.97474 0.2304 0.0
H506 H 0.93886 0.03733 0.1757 0.0
H507 H 0.93665 0.01811 0.21091 0.0
C508 C 0.20723 0.7083 0.44793 0.0
C509 C 0.20314 0.71931 0.43208 0.0
C510 C 0.21827 0.70782 0.46782 0.0
C511 C 0.2469 0.72534 0.48193 0.0
H512 H 0.25076 0.70418 0.57039 0.0
C513 C 0.28915 0.72772 0.57798 0.0
C514 C 0.29534 0.71661 0.58149 0.0
C515 C 0.27728 0.728 0.56391 0.0
C516 C 0.24977 0.71012 0.54572 0.0
H517 H 0.20726 0.7385 0.42534 0.0
H518 H 0.22618 0.73779 0.46095 0.0
H519 H 0.23132 0.70475 0.53643 0.0
H520 H 0.29365 0.69702 0.57562 0.0
H521 H 0.27279 0.69753 0.55171 0.0
H522 H 0.26527 0.73086 0.49177 0.0
C523 C 0.22115 0.7294 0.45707 0.0
C524 C 0.23869 0.71039 0.52605 0.0
C525 C 0.21024 0.72983 0.43674 0.0
C526 C 0.28914 0.70573 0.57305 0.0
C527 C 0.2772 0.706 0.5595 0.0
C528 C 0.25787 0.7252 0.50192 0.0
C529 C 0.22536 0.71839 0.47273 0.0
C530 C 0.23712 0.718 0.49383 0.0
C531 C 0.27131 0.71717 0.55368 0.0
C532 C 0.25943 0.71758 0.53392 0.0
H533 H 0.20196 0.70002 0.44472 0.0
H534 H 0.2213 0.69914 0.47893 0.0
H535 H 0.24617 0.73108 0.45676 0.0
H536 H 0.29367 0.73627 0.58421 0.0
H537 H 0.27287 0.73671 0.55999 0.0
C538 C 0.53415 0.03898 0.80424 0.0
C539 C 0.5231 0.04356 0.81809 0.0
C540 C 0.53494 0.02698 0.79108 0.0
C541 C 0.51848 -0.00268 0.79177 0.0
H542 H 0.53724 0.99121 0.69954 0.0
C543 C 0.51336 0.95357 0.70175 0.0
C544 C 0.5242 0.94761 0.69201 0.0
C545 C 0.51366 0.96521 0.7178 0.0
C546 C 0.53205 0.99278 0.72548 0.0
H547 H 0.50424 0.03909 0.82945 0.0
H548 H 0.50553 0.01839 0.80568 0.0
H549 H 0.53718 0.01154 0.72774 0.0
H550 H 0.54382 0.94932 0.69055 0.0
H551 H 0.54428 0.96976 0.71803 0.0
H552 H 0.51308 0.97861 0.78866 0.0
C553 C 0.51368 0.02391 0.80572 0.0
C554 C 0.53206 0.0044 0.7418 0.0
C555 C 0.51293 0.03583 0.81919 0.0
C556 C 0.53532 0.95365 0.69783 0.0
C557 C 0.53559 0.96536 0.71341 0.0
C558 C 0.51837 0.98575 0.77518 0.0
C559 C 0.52466 0.01935 0.79119 0.0
C560 C 0.52521 0.00683 0.77502 0.0
C561 C 0.52478 0.97119 0.72394 0.0
C562 C 0.52509 0.9834 0.74178 0.0
H563 H 0.54217 0.04468 0.80321 0.0
H564 H 0.54359 0.0237 0.7807 0.0
H565 H 0.5133 -0.00122 0.81778 0.0
H566 H 0.50466 0.94914 0.6977 0.0
H567 H 0.50518 0.96957 0.72535 0.0
C568 C 0.71274 0.71179 0.07301 0.0
C569 C 0.7021 0.70609 0.05972 0.0
C570 C 0.72388 0.70944 0.05551 0.0
C571 C 0.74718 0.69885 0.02289 0.0
H572 H 0.74723 0.70168 0.91166 0.0
C573 C 0.79109 0.69443 0.93497 0.0
C574 C 0.79317 0.70382 0.90827 0.0
C575 C 0.7797 0.69294 0.95179 0.0
C576 C 0.74734 0.70084 0.9427 0.0
H577 H 0.69491 0.69303 0.0187 0.0
H578 H 0.71441 0.68899 0.98802 0.0
H579 H 0.72798 0.70195 0.9465 0.0
H580 H 0.78474 0.71868 0.87708 0.0
H581 H 0.76481 0.71604 0.90652 0.0
H582 H 0.76654 0.6981 0.01924 0.0
C583 C 0.71407 0.69532 0.01187 0.0
C584 C 0.73633 0.70087 0.9626 0.0
C585 C 0.70293 0.69758 0.02962 0.0
C586 C 0.78345 0.71137 0.89758 0.0
C587 C 0.77202 0.70983 0.9143 0.0
C588 C 0.75817 0.69872 0.00298 0.0
C589 C 0.7246 0.70141 0.02417 0.0
C590 C 0.73617 0.70008 0.00294 0.0
C591 C 0.77011 0.70075 0.94215 0.0
C592 C 0.75837 0.69991 0.96274 0.0
H593 H 0.71242 0.71836 0.0962 0.0
H594 H 0.73184 0.71433 0.06544 0.0
H595 H 0.74731 0.69816 0.05396 0.0
H596 H 0.79834 0.6884 0.94374 0.0
H597 H 0.77844 0.68577 0.97279 0.0
C598 C 0.03952 0.96887 0.83161 0.0
C599 C 0.0447 0.95752 0.82296 0.0
C600 C 0.04346 0.97937 0.81286 0.0
C601 C 0.05558 0.00128 0.77672 0.0
H602 H 0.05608 -0.00262 0.66589 0.0
C603 C 0.0551 0.04292 0.67731 0.0
C604 C 0.04577 0.04243 0.64968 0.0
C605 C 0.0588 0.03237 0.69647 0.0
C606 C 0.05607 -0.00139 0.6968 0.0
H607 H 0.05865 0.94845 0.78966 0.0
H608 H 0.06552 0.96686 0.75685 0.0
H609 H 0.05562 0.97943 0.70706 0.0
H610 H 0.03366 0.03034 0.6185 0.0
H611 H 0.04002 0.01203 0.65201 0.0
H612 H 0.05525 0.02045 0.76645 0.0
C613 C 0.05833 0.96756 0.77791 0.0
C614 C 0.05594 0.98833 0.72041 0.0
C615 C 0.05443 0.95704 0.79687 0.0
C616 C 0.04082 0.03106 0.63977 0.0
C617 C 0.04454 0.02053 0.65882 0.0
C618 C 0.05573 0.01155 0.75312 0.0
C619 C 0.05265 0.97878 0.78495 0.0
C620 C 0.05525 0.98956 0.76059 0.0
C621 C 0.05329 0.02112 0.68824 0.0
C622 C 0.05554 0.01033 0.71287 0.0
H623 H 0.03205 0.96958 0.85169 0.0
H624 H 0.03881 0.98785 0.81869 0.0
H625 H 0.0552 0.0025 0.8076 0.0
H626 H 0.05918 0.05152 0.68547 0.0
H627 H 0.06567 0.03309 0.71865 0.0
C628 C 0.70709 0.26864 0.41126 0.0
C629 C 0.69979 0.27911 0.41024 0.0
C630 C 0.7185 0.26896 0.42876 0.0
C631 C 0.74351 0.28874 0.45635 0.0
H632 H 0.74966 0.26499 0.53648 0.0
C633 C 0.78679 0.29126 0.5487 0.0
C634 C 0.79238 0.28026 0.55894 0.0
C635 C 0.77523 0.29129 0.53217 0.0
C636 C 0.7482 0.27157 0.51381 0.0
H637 H 0.69894 0.29824 0.42533 0.0
H638 H 0.71908 0.29885 0.455 0.0
H639 H 0.73041 0.2646 0.50184 0.0
H640 H 0.79022 0.26065 0.56036 0.0
H641 H 0.77028 0.26062 0.53024 0.0
H642 H 0.76137 0.2955 0.46707 0.0
C643 C 0.71586 0.29039 0.44262 0.0
C644 C 0.73715 0.27137 0.49411 0.0
C645 C 0.70434 0.29003 0.42573 0.0
C646 C 0.78609 0.26929 0.55308 0.0
C647 C 0.77462 0.26929 0.5359 0.0
C648 C 0.75465 0.28883 0.47557 0.0
C649 C 0.72292 0.2798 0.44492 0.0
C650 C 0.73471 0.27996 0.46528 0.0
C651 C 0.76909 0.28029 0.52481 0.0
C652 C 0.75714 0.28027 0.50467 0.0
H653 H 0.70382 0.26007 0.39974 0.0
H654 H 0.72385 0.2607 0.42994 0.0
H655 H 0.74185 0.2954 0.434 0.0
H656 H 0.79138 0.29987 0.55321 0.0
H657 H 0.77116 0.29995 0.52497 0.0
C658 C 0.45061 0.95325 0.18329 0.0
C659 C 0.46174 0.94771 0.17444 0.0
C660 C 0.45029 0.96495 0.19889 0.0
C661 C 0.46885 0.99276 0.21455 0.0
H662 H 0.44564 -0.00146 0.29625 0.0
C663 C 0.46998 0.03607 0.30839 0.0
C664 C 0.45881 0.04204 0.31319 0.0
C665 C 0.47042 0.02442 0.29235 0.0
C666 C 0.45212 -0.00292 0.2733 0.0
H667 H 0.48127 0.95027 0.17415 0.0
H668 H 0.48073 0.97059 0.20203 0.0
H669 H 0.44625 0.97873 0.26486 0.0
H670 H 0.43931 0.04026 0.30608 0.0
H671 H 0.44011 0.01989 0.27844 0.0
H672 H 0.47481 0.01111 0.22353 0.0
C673 C 0.47222 0.96597 0.19638 0.0
C674 C 0.45243 0.98575 0.25516 0.0
C675 C 0.47254 0.95429 0.18048 0.0
C676 C 0.44807 0.03594 0.30276 0.0
C677 C 0.44851 0.02425 0.28704 0.0
C678 C 0.46859 0.00407 0.23291 0.0
C679 C 0.4611 0.97136 0.20632 0.0
C680 C 0.46077 0.98347 0.22543 0.0
C681 C 0.4597 0.01845 0.28113 0.0
C682 C 0.46019 0.00635 0.26238 0.0
H683 H 0.44212 0.94848 0.1787 0.0
H684 H 0.44155 0.96893 0.20538 0.0
H685 H 0.47527 0.99138 0.19143 0.0
H686 H 0.47843 0.04051 0.31607 0.0
H687 H 0.47916 0.0201 0.28855 0.0
C688 C 0.69681 0.76628 0.55837 0.0
C689 C 0.69053 0.7773 0.56246 0.0
C690 C 0.70833 0.76608 0.54171 0.0
C691 C 0.72836 0.78474 0.479 0.0
H692 H 0.75236 0.76072 0.50849 0.0
C693 C 0.77834 0.7839 0.4253 0.0
C694 C 0.78231 0.77258 0.41134 0.0
C695 C 0.76705 0.78493 0.44328 0.0
C696 C 0.7457 0.76744 0.49993 0.0
H697 H 0.69161 0.79683 0.55422 0.0
H698 H 0.71191 0.79658 0.52681 0.0
H699 H 0.73328 0.76188 0.54362 0.0
H700 H 0.77746 0.75353 0.40468 0.0
H701 H 0.75787 0.75534 0.43668 0.0
H702 H 0.74106 0.79046 0.43591 0.0
C703 C 0.7078 0.78801 0.53504 0.0
C704 C 0.73475 0.76808 0.51989 0.0
C705 C 0.6962 0.78818 0.55108 0.0
C706 C 0.77466 0.76239 0.41498 0.0
C707 C 0.76349 0.76339 0.43352 0.0
C708 C 0.73942 0.78422 0.45948 0.0
C709 C 0.71392 0.77694 0.52937 0.0
C710 C 0.72587 0.77665 0.50944 0.0
C711 C 0.75965 0.77463 0.44818 0.0
C712 C 0.74811 0.77548 0.46951 0.0
H713 H 0.69262 0.75774 0.56657 0.0
H714 H 0.71265 0.75736 0.53734 0.0
H715 H 0.72168 0.7913 0.46957 0.0
H716 H 0.78403 0.79191 0.42286 0.0
H717 H 0.76426 0.79369 0.45443 0.0
C718 C 0.47515 0.4621 0.86154 0.0
C719 C 0.46483 0.45456 0.86207 0.0
C720 C 0.47423 0.47425 0.85011 0.0
C721 C 0.45446 0.49357 0.79028 0.0
H722 H 0.476 0.51929 0.82499 0.0
C723 C 0.4525 0.54239 0.72921 0.0
C724 C 0.46371 0.54744 0.71825 0.0
C725 C 0.45205 0.53161 0.75046 0.0
C726 C 0.46996 0.51217 0.81499 0.0
H727 H 0.4453 0.45414 0.85427 0.0
H728 H 0.44363 0.47543 0.83566 0.0
H729 H 0.47586 0.49977 0.8586 0.0
H730 H 0.48325 0.54519 0.72145 0.0
H731 H 0.48244 0.52638 0.75869 0.0
H732 H 0.44858 0.50598 0.74668 0.0
C733 C 0.45251 0.47186 0.84272 0.0
C734 C 0.46987 0.50099 0.83417 0.0
C735 C 0.45345 0.45967 0.8537 0.0
C736 C 0.47446 0.54152 0.72929 0.0
C737 C 0.47401 0.5308 0.75089 0.0
C738 C 0.45446 0.50478 0.77139 0.0
C739 C 0.46295 0.47917 0.8394 0.0
C740 C 0.46225 0.49148 0.8217 0.0
C741 C 0.4628 0.52572 0.76155 0.0
C742 C 0.46233 0.51412 0.7832 0.0
H743 H 0.48406 0.45844 0.86772 0.0
H744 H 0.48248 0.47955 0.84764 0.0
H745 H 0.44864 0.48642 0.77928 0.0
H746 H 0.44404 0.54672 0.72124 0.0
H747 H 0.44329 0.52793 0.7585 0.0
C748 C 0.71042 0.21305 0.90567 0.0
C749 C 0.6997 0.20732 0.91801 0.0
C750 C 0.72147 0.21051 0.92359 0.0
C751 C 0.73353 0.20106 0.01637 0.0
H752 H 0.76395 0.19917 0.96084 0.0
C753 C 0.78869 0.19734 0.04439 0.0
C754 C 0.79016 0.20703 0.07041 0.0
C755 C 0.77734 0.19484 0.02827 0.0
C756 C 0.75552 0.19949 0.9768 0.0
H757 H 0.69228 0.19403 0.95784 0.0
H758 H 0.71161 0.18966 -0.01082 0.0
H759 H 0.74483 0.19918 0.92533 0.0
H760 H 0.7807 0.2212 0.10175 0.0
H761 H 0.76091 0.21684 0.07359 0.0
H762 H 0.74424 0.20169 0.0678 0.0
C763 C 0.71141 0.19617 0.96579 0.0
C764 C 0.7446 0.19961 0.95644 0.0
C765 C 0.70036 0.19864 0.94769 0.0
C766 C 0.7799 0.2137 0.08168 0.0
C767 C 0.76854 0.21116 0.0657 0.0
C768 C 0.74447 0.20102 0.03674 0.0
C769 C 0.72203 0.20224 0.95435 0.0
C770 C 0.73351 0.20064 0.97597 0.0
C771 C 0.76721 0.20193 0.03804 0.0
C772 C 0.75558 0.20046 0.01711 0.0
H773 H 0.71024 0.21975 0.88285 0.0
H774 H 0.72949 0.21541 0.91438 0.0
H775 H 0.72512 0.20195 0.03219 0.0
H776 H 0.79639 0.19196 0.03524 0.0
H777 H 0.77654 0.18757 0.00739 0.0
C778 C 0.04264 0.45011 0.18787 0.0
C779 C 0.03222 0.44739 0.16606 0.0
C780 C 0.04423 0.46168 0.20389 0.0
C781 C 0.02595 0.48795 0.23453 0.0
H782 H 0.05716 0.50386 0.24699 0.0
C783 C 0.04519 0.5378 0.28321 0.0
C784 C 0.0373 0.53998 0.31415 0.0
C785 C 0.04574 0.52627 0.26622 0.0
C786 C 0.04837 0.49956 0.24356 0.0
H787 H 0.01572 0.45492 0.14181 0.0
H788 H 0.01863 0.47514 0.16886 0.0
H789 H 0.05583 0.48473 0.2114 0.0
H790 H 0.02445 0.53159 0.35328 0.0
H791 H 0.02565 0.51148 0.32439 0.0
H792 H 0.0184 0.50286 0.2656 0.0
C793 C 0.0254 0.46824 0.1746 0.0
C794 C 0.04762 0.48855 0.22345 0.0
C795 C 0.02377 0.45667 0.15886 0.0
C796 C 0.03051 0.53025 0.32916 0.0
C797 C 0.03113 0.51873 0.31242 0.0
C798 C 0.02669 0.49894 0.25444 0.0
C799 C 0.03547 0.47079 0.19821 0.0
C800 C 0.03639 0.48263 0.21867 0.0
C801 C 0.03847 0.51669 0.28002 0.0
C802 C 0.0379 0.50487 0.25935 0.0
H803 H 0.04932 0.44316 0.19401 0.0
H804 H 0.05204 0.4633 0.22211 0.0
H805 H 0.01718 0.48356 0.23201 0.0
H806 H 0.05053 0.54511 0.27093 0.0
H807 H 0.05144 0.52504 0.2412 0.0
C808 C 0.28047 0.2256 0.39992 0.0
C809 C 0.28678 0.21456 0.39617 0.0
C810 C 0.2691 0.22589 0.41745 0.0
C811 C 0.24205 0.20915 0.44182 0.0
H812 H 0.24123 0.22933 0.53326 0.0
C813 C 0.19964 0.21128 0.53966 0.0
C814 C 0.19687 0.22259 0.55625 0.0
C815 C 0.21066 0.20956 0.5205 0.0
C816 C 0.24119 0.2238 0.5075 0.0
H817 H 0.28577 0.19506 0.40566 0.0
H818 H 0.26562 0.19558 0.43539 0.0
H819 H 0.25982 0.22795 0.49592 0.0
H820 H 0.20337 0.24101 0.56538 0.0
H821 H 0.22224 0.23821 0.53085 0.0
H822 H 0.22329 0.20537 0.45224 0.0
C823 C 0.26964 0.20399 0.42516 0.0
C824 C 0.25188 0.22297 0.4863 0.0
C825 C 0.28115 0.20371 0.40827 0.0
C826 C 0.20531 0.23213 0.55335 0.0
C827 C 0.21619 0.23049 0.53366 0.0
C828 C 0.23124 0.21017 0.46262 0.0
C829 C 0.26371 0.21512 0.43084 0.0
C830 C 0.25237 0.21571 0.45321 0.0
C831 C 0.21905 0.21918 0.51699 0.0
C832 C 0.23065 0.21759 0.49562 0.0
H833 H 0.28456 0.23412 0.39103 0.0
H834 H 0.26463 0.23457 0.42139 0.0
H835 H 0.24226 0.2035 0.4163 0.0
H836 H 0.19332 0.20374 0.54158 0.0
H837 H 0.21261 0.20067 0.50864 0.0
C838 C 0.52108 0.44955 0.23019 0.0
C839 C 0.53044 0.44368 0.2504 0.0
C840 C 0.52344 0.46009 0.20909 0.0
C841 C 0.54307 0.48644 0.20782 0.0
H842 H 0.52928 0.49176 0.10656 0.0
C843 C 0.54389 0.53404 0.13921 0.0
C844 C 0.53278 0.53773 0.12311 0.0
C845 C 0.54597 0.52179 0.14787 0.0
C846 C 0.53316 0.49045 0.13488 0.0
H847 H 0.54966 0.44417 0.26393 0.0
H848 H 0.55371 0.46285 0.22763 0.0
H849 H 0.52826 0.47156 0.13562 0.0
H850 H 0.51543 0.53131 0.10144 0.0
H851 H 0.51888 0.51016 0.11732 0.0
H852 H 0.54734 0.5054 0.20836 0.0
C853 C 0.54458 0.45917 0.22798 0.0
C854 C 0.53261 0.47887 0.1514 0.0
C855 C 0.54226 0.44849 0.24863 0.0
C856 C 0.52409 0.52882 0.11388 0.0
C857 C 0.52612 0.51662 0.12278 0.0
C858 C 0.54349 0.49805 0.19153 0.0
C859 C 0.53518 0.46508 0.20814 0.0
C860 C 0.5373 0.47684 0.1884 0.0
C861 C 0.53695 0.51297 0.14081 0.0
C862 C 0.53824 0.50028 0.15528 0.0
H863 H 0.51189 0.44603 0.23081 0.0
H864 H 0.51599 0.46454 0.19443 0.0
H865 H 0.54667 0.48513 0.23653 0.0
H866 H 0.55083 0.54066 0.14638 0.0
H867 H 0.55451 0.51927 0.16105 0.0
C868 C 0.28334 0.78924 0.0231 0.0
C869 C 0.28853 0.77792 0.03217 0.0
C870 C 0.27205 0.78983 0.00479 0.0
C871 C 0.25271 0.77309 0.93931 0.0
H872 H 0.22584 0.79124 0.9823 0.0
C873 C 0.20384 0.76668 0.88487 0.0
C874 C 0.19564 0.77641 0.88719 0.0
C875 C 0.21556 0.76781 0.89975 0.0
C876 C 0.2333 0.78634 0.96934 0.0
H877 H 0.28594 0.75836 0.02936 0.0
H878 H 0.26635 0.75943 -0.00341 0.0
H879 H 0.2455 0.79151 0.01465 0.0
H880 H 0.19349 0.79518 0.90507 0.0
H881 H 0.21413 0.79735 0.92953 0.0
H882 H 0.24075 0.76809 0.89356 0.0
C883 C 0.271 0.76781 0.00395 0.0
C884 C 0.24452 0.78644 0.98811 0.0
C885 C 0.28216 0.76722 0.02292 0.0
C886 C 0.19958 0.78749 0.90314 0.0
C887 C 0.21139 0.78868 0.91748 0.0
C888 C 0.24157 0.77315 0.92015 0.0
C889 C 0.2659 0.77911 -0.00545 0.0
C890 C 0.25424 0.77964 0.97358 0.0
C891 C 0.21945 0.77877 0.91675 0.0
C892 C 0.23163 0.77959 0.93527 0.0
H893 H 0.28803 0.79764 0.02996 0.0
H894 H 0.26826 0.79865 -0.00225 0.0
H895 H 0.26015 0.76791 0.92731 0.0
H896 H 0.20105 0.75799 0.87306 0.0
H897 H 0.22138 0.75989 0.89919 0.0
C898 C 0.97669 0.45189 0.69529 0.0
C899 C 0.96525 0.44693 0.68647 0.0
C900 C 0.97765 0.46328 0.71293 0.0
C901 C 0.95966 0.48518 0.77019 0.0
H902 H 0.98494 0.50799 0.74127 0.0
C903 C 0.95878 0.53595 0.81097 0.0
C904 C 0.96972 0.54139 0.82291 0.0
C905 C 0.95864 0.52403 0.7972 0.0
C906 C 0.97793 0.50164 0.74998 0.0
H907 H 0.94585 0.45024 0.68814 0.0
H908 H 0.94753 0.47018 0.71793 0.0
H909 H 0.98389 0.48814 0.70996 0.0
H910 H 0.98904 0.53847 0.83049 0.0
H911 H 0.98876 0.5176 0.80614 0.0
H912 H 0.95354 0.49882 0.80955 0.0
C913 C 0.95576 0.46515 0.71219 0.0
C914 C 0.97732 0.49027 0.73207 0.0
C915 C 0.95481 0.45374 0.69481 0.0
C916 C 0.98047 0.53453 0.82157 0.0
C917 C 0.98033 0.52262 0.8074 0.0
C918 C 0.96022 0.49657 0.78787 0.0
C919 C 0.96718 0.46999 0.72193 0.0
C920 C 0.96811 0.48195 0.74172 0.0
C921 C 0.96943 0.5173 0.79476 0.0
C922 C 0.9693 0.50495 0.77773 0.0
H923 H 0.98492 0.44685 0.68941 0.0
H924 H 0.98658 0.46669 0.72035 0.0
H925 H 0.9526 0.47889 0.77894 0.0
H926 H 0.95034 0.54097 0.81168 0.0
H927 H 0.95011 0.52019 0.78735 0.0
C928 C 0.14826 0.25454 -0.0095 0.0
C929 C 0.15447 0.24876 0.02067 0.0
C930 C 0.14539 0.24816 0.95704 0.0
C931 C 0.15774 0.22393 0.89933 0.0
H932 H 0.12924 0.22984 0.83655 0.0
C933 C 0.15663 0.21131 0.73867 0.0
C934 C 0.15257 0.22083 0.715 0.0
C935 C 0.1547 0.21174 0.77836 0.0
C936 C 0.13724 0.22806 0.85381 0.0
H937 H 0.16185 0.23154 0.04041 0.0
H938 H 0.15691 0.22045 0.98163 0.0
H939 H 0.12929 0.23599 0.90402 0.0
H940 H 0.14306 0.2381 0.71404 0.0
H941 H 0.13996 0.23899 0.78299 0.0
H942 H 0.16598 0.21669 0.84876 0.0
C943 C 0.15433 0.22993 0.98394 0.0
C944 C 0.13724 0.23155 0.89238 0.0
C945 C 0.15714 0.23628 0.01756 0.0
C946 C 0.14633 0.23064 0.73154 0.0
C947 C 0.14441 0.23107 0.77106 0.0
C948 C 0.15776 0.2205 0.86073 0.0
C949 C 0.14871 0.23589 0.95302 0.0
C950 C 0.14766 0.22993 0.91507 0.0
C951 C 0.14867 0.2217 0.79497 0.0
C952 C 0.14769 0.22297 0.83722 0.0
H953 H 0.146 0.26411 -0.00788 0.0
H954 H 0.14117 0.25304 0.93349 0.0
H955 H 0.16594 0.22267 0.91606 0.0
H956 H 0.16138 0.20358 0.72661 0.0
H957 H 0.15802 0.20436 0.79608 0.0
C958 C 0.02887 0.90912 -0.00411 0.0
C959 C 0.02204 0.90931 0.96181 0.0
C960 C 0.02353 0.9053 0.03031 0.0
C961 C 0.9939 0.90289 0.07673 0.0
H962 H 0.01055 0.88181 0.14888 0.0
C963 C 0.97215 0.89162 0.22113 0.0
C964 C 0.97988 0.89369 0.25262 0.0
C965 C 0.97694 0.89049 0.18413 0.0
C966 C 0.0058 0.8877 0.12898 0.0
H967 H 0.00432 0.9056 0.93683 0.0
H968 H -0.00491 0.89902 -0.00333 0.0
H969 H 0.01999 0.88657 0.08709 0.0
H970 H -0.00127 0.89513 0.27049 0.0
H971 H 0.00699 0.89344 0.20626 0.0
H972 H 0.97993 0.90444 0.11879 0.0
C973 C 0.0045 0.90186 -0.00305 0.0
C974 C 0.01122 0.89045 0.09376 0.0
C975 C 0.00982 0.90562 0.96271 0.0
C976 C 0.9925 0.89367 0.2468 0.0
C977 C -0.00273 0.89259 0.20991 0.0
C978 C 0.98852 0.9002 0.11192 0.0
C979 C 0.01128 0.9017 0.0311 0.0
C980 C 0.00538 0.89821 0.06759 0.0
C981 C 0.98952 0.89143 0.17803 0.0
C982 C -0.00551 0.89274 0.13871 0.0
H983 H 0.03831 0.91186 -0.00406 0.0
H984 H 0.02892 0.90538 0.0564 0.0
H985 H 0.98926 0.90901 0.05725 0.0
H986 H 0.96239 0.89144 0.22473 0.0
H987 H 0.97076 0.88936 0.16013 0.0
C988 C 0.34021 0.72547 0.44753 0.0
C989 C 0.34426 0.73213 0.47952 0.0
C990 C 0.34063 0.73063 0.41083 0.0
C991 C 0.3409 0.76093 0.36571 0.0
H992 H 0.34613 0.74258 0.27208 0.0
C993 C 0.34519 0.76861 0.19138 0.0
C994 C 0.33522 0.77631 0.18516 0.0
C995 C 0.34732 0.76362 0.22755 0.0
C996 C 0.34479 0.74788 0.29798 0.0
H997 H 0.35286 0.74892 0.49806 0.0
H998 H 0.35395 0.75774 0.43405 0.0
H999 H 0.34898 0.73269 0.3341 0.0
H1000 H 0.31983 0.7851 0.21197 0.0
H1001 H 0.32338 0.77616 0.2753 0.0
H1002 H 0.33693 0.77617 0.32968 0.0
C1003 C 0.35004 0.74874 0.43731 0.0
C1004 C 0.34628 0.74216 0.33349 0.0
C1005 C 0.34949 0.74366 0.47393 0.0
C1006 C 0.32759 0.77921 0.21604 0.0
C1007 C 0.32966 0.77412 0.25228 0.0
C1008 C 0.33948 0.76666 0.33024 0.0
C1009 C 0.34524 0.74247 0.40555 0.0
C1010 C 0.34429 0.74861 0.36774 0.0
C1011 C 0.33946 0.76614 0.25824 0.0
C1012 C 0.34133 0.76018 0.29599 0.0
H1013 H 0.33611 0.71657 0.45109 0.0
H1014 H 0.3368 0.72558 0.38697 0.0
H1015 H 0.33909 0.76611 0.39155 0.0
H1016 H 0.35131 0.76633 0.16814 0.0
H1017 H 0.35509 0.75773 0.23139 0.0
C1018 C 0.50916 0.10022 0.70909 0.0
C1019 C 0.50131 0.09592 0.73788 0.0
C1020 C 0.50458 0.10347 0.67302 0.0
C1021 C 0.47562 0.10914 0.62014 0.0
H1022 H 0.49291 0.09481 0.53441 0.0
C1023 C 0.45291 0.09114 0.48276 0.0
C1024 C 0.45848 0.09382 0.44752 0.0
C1025 C 0.45844 0.09463 0.51718 0.0
C1026 C 0.48808 0.09906 0.55797 0.0
H1027 H 0.48247 0.09213 0.7519 0.0
H1028 H 0.47462 0.09741 0.68926 0.0
H1029 H 0.50251 0.09555 0.59742 0.0
H1030 H 0.47401 0.10247 0.42042 0.0
H1031 H 0.48376 0.1083 0.4807 0.0
H1032 H 0.46087 0.11184 0.58088 0.0
C1033 C 0.48425 0.09855 0.69446 0.0
C1034 C 0.4936 0.09955 0.59403 0.0
C1035 C 0.48879 0.09537 0.73038 0.0
C1036 C 0.46952 0.10026 0.44722 0.0
C1037 C 0.47511 0.10359 0.48159 0.0
C1038 C 0.47005 0.10849 0.58419 0.0
C1039 C 0.49209 0.10246 0.66516 0.0
C1040 C 0.48727 0.10421 0.62579 0.0
C1041 C 0.46967 0.10071 0.51681 0.0
C1042 C 0.47611 0.10312 0.55316 0.0
H1043 H 0.51884 0.10085 0.71414 0.0
H1044 H 0.51083 0.10657 0.6511 0.0
H1045 H 0.47062 0.11305 0.64388 0.0
H1046 H 0.44437 0.08624 0.48373 0.0
H1047 H 0.45415 0.09219 0.54413 0.0
C1048 C 0.13237 0.76746 0.75612 0.0
C1049 C 0.14093 0.77665 0.7637 0.0
C1050 C 0.129 0.76477 0.71847 0.0
C1051 C 0.13122 0.77468 0.6169 0.0
H1052 H 0.13654 0.7403 0.59865 0.0
C1053 C 0.1495 0.7558 0.47548 0.0
C1054 C 0.14706 0.74367 0.46525 0.0
C1055 C 0.14461 0.7607 0.50899 0.0
C1056 C 0.13465 0.74987 0.60302 0.0
H1057 H 0.15198 0.79086 0.73826 0.0
H1058 H 0.1463 0.78595 0.6721 0.0
H1059 H 0.13531 0.74774 0.66387 0.0
H1060 H 0.13669 0.72754 0.47996 0.0
H1061 H 0.12786 0.73622 0.53796 0.0
H1062 H 0.13099 0.77682 0.55572 0.0
C1063 C 0.1421 0.78092 0.69535 0.0
C1064 C 0.13398 0.75415 0.64058 0.0
C1065 C 0.14544 0.78366 0.73315 0.0
C1066 C 0.13892 0.73684 0.48757 0.0
C1067 C 0.13387 0.74181 0.5208 0.0
C1068 C 0.13179 0.77037 0.57914 0.0
C1069 C 0.13416 0.77118 0.68765 0.0
C1070 C 0.13265 0.76664 0.64792 0.0
C1071 C 0.13705 0.75363 0.53269 0.0
C1072 C 0.13394 0.75797 0.57183 0.0
H1073 H 0.12856 0.76205 0.77921 0.0
H1074 H 0.12272 0.75735 0.71336 0.0
H1075 H 0.13004 0.78434 0.62184 0.0
H1076 H 0.15571 0.76131 0.45875 0.0
H1077 H 0.14738 0.76978 0.51741 0.0
C1078 C 0.47319 0.88637 0.04062 0.0
C1079 C 0.46459 0.8958 0.0403 0.0
C1080 C 0.47916 0.88303 0.00696 0.0
C1081 C 0.49624 0.88453 0.93878 0.0
H1082 H 0.47964 0.88476 0.84052 0.0
C1083 C 0.5194 0.89436 0.79437 0.0
C1084 C 0.51386 0.89 0.76079 0.0
C1085 C 0.51455 0.89139 0.83028 0.0
C1086 C 0.48443 0.88437 0.86771 0.0
H1087 H 0.45522 0.90889 0.00443 0.0
H1088 H 0.46577 0.90318 0.94556 0.0
H1089 H 0.46798 0.88678 0.89922 0.0
H1090 H 0.50004 0.87795 0.73792 0.0
H1091 H 0.49192 0.8723 0.80053 0.0
H1092 H 0.51272 0.88223 0.90708 0.0
C1093 C 0.4678 0.89827 0.97178 0.0
C1094 C 0.47773 0.88573 0.90134 0.0
C1095 C 0.4618 0.90159 0.00548 0.0
C1096 C 0.50433 0.88157 0.76357 0.0
C1097 C 0.49964 0.8784 0.79936 0.0
C1098 C 0.50296 0.88311 0.90506 0.0
C1099 C 0.47664 0.88905 0.9723 0.0
C1100 C 0.4836 0.88615 0.93713 0.0
C1101 C 0.50422 0.88386 0.83291 0.0
C1102 C 0.49714 0.88332 0.86909 0.0
H1103 H 0.47545 0.88166 0.06703 0.0
H1104 H 0.4858 0.87578 0.00812 0.0
H1105 H 0.50103 0.88487 0.96599 0.0
H1106 H 0.52675 0.90091 0.7928 0.0
H1107 H 0.51829 0.89578 0.85555 0.0
C1108 C 0.3489 0.24278 0.9774 0.0
C1109 C 0.34754 0.2555 0.97598 0.0
C1110 C 0.35068 0.23689 0.01234 0.0
C1111 C 0.35868 0.24028 0.11385 0.0
H1112 H 0.33339 0.21619 0.12965 0.0
C1113 C 0.34434 0.22419 0.26393 0.0
C1114 C 0.33979 0.21235 0.26873 0.0
C1115 C 0.34744 0.22846 0.22755 0.0
C1116 C 0.34071 0.22264 0.1256 0.0
H1117 H 0.34798 0.2721 0.00973 0.0
H1118 H 0.3511 0.26169 0.07125 0.0
H1119 H 0.33561 0.22572 0.06715 0.0
H1120 H 0.33545 0.19544 0.23973 0.0
H1121 H 0.34124 0.20275 0.17601 0.0
H1122 H 0.36381 0.2372 0.17237 0.0
C1123 C 0.35075 0.25635 0.04508 0.0
C1124 C 0.34193 0.22816 0.08979 0.0
C1125 C 0.34892 0.26229 0.00996 0.0
C1126 C 0.3388 0.20467 0.23668 0.0
C1127 C 0.34208 0.20888 0.20024 0.0
C1128 C 0.35758 0.23462 0.14966 0.0
C1129 C 0.3512 0.24358 0.04658 0.0
C1130 C 0.35079 0.23715 0.08377 0.0
C1131 C 0.34623 0.22091 0.19517 0.0
C1132 C 0.34841 0.22591 0.15615 0.0
H1133 H 0.3481 0.23728 0.95167 0.0
H1134 H 0.35118 0.22705 0.01277 0.0
H1135 H 0.36564 0.24714 0.10971 0.0
H1136 H 0.34519 0.23033 0.28816 0.0
H1137 H 0.35037 0.23783 0.22476 0.0
C1138 C 0.03667 0.09013 0.4785 0.0
C1139 C 0.02823 0.09032 0.50866 0.0
C1140 C 0.03295 0.09261 0.44087 0.0
C1141 C 0.00721 0.10497 0.38342 0.0
H1142 H 0.01819 0.08175 0.30725 0.0
C1143 C 0.98001 0.09123 0.2486 0.0
C1144 C 0.98649 0.08831 0.21511 0.0
C1145 C 0.98621 0.09456 0.28209 0.0
C1146 C 0.0152 0.08848 0.32791 0.0
H1147 H 0.00937 0.09354 0.52339 0.0
H1148 H 0.00286 0.09751 0.45799 0.0
H1149 H 0.02742 0.08183 0.37062 0.0
H1150 H 0.00444 0.0876 0.18948 0.0
H1151 H 0.01517 0.09345 0.24774 0.0
H1152 H -0.00545 0.11118 0.34091 0.0
C1153 C 0.01238 0.09571 0.46324 0.0
C1154 C 0.02052 0.08854 0.36426 0.0
C1155 C 0.01609 0.0933 0.50072 0.0
C1156 C -0.00081 0.08957 0.21502 0.0
C1157 C 0.00535 0.09292 0.24836 0.0
C1158 C 0.00183 0.10486 0.34704 0.0
C1159 C 0.02072 0.09527 0.43282 0.0
C1160 C 0.01638 0.09657 0.39272 0.0
C1161 C -0.00104 0.09506 0.28253 0.0
C1162 C 0.0056 0.09642 0.31925 0.0
H1163 H 0.04611 0.08798 0.48389 0.0
H1164 H 0.03961 0.09231 0.41803 0.0
H1165 H 0.00397 0.11141 0.4046 0.0
H1166 H 0.97022 0.0904 0.24949 0.0
H1167 H 0.98106 0.09609 0.30813 0.0
C1168 C 0.84692 0.72734 0.00706 0.0
C1169 C 0.84368 0.7335 0.9732 0.0
C1170 C 0.84871 0.7338 0.0412 0.0
C1171 C 0.83714 0.76095 0.0866 0.0
H1172 H 0.86029 0.75332 0.16701 0.0
C1173 C 0.83173 0.78038 0.23906 0.0
C1174 C 0.83327 0.77181 0.26858 0.0
C1175 C 0.83548 0.77769 0.20165 0.0
C1176 C 0.85375 0.75554 0.14482 0.0
H1177 H 0.84082 0.75134 0.9478 0.0
H1178 H 0.84392 0.76253 0.00733 0.0
H1179 H 0.86294 0.74464 0.10288 0.0
H1180 H 0.84011 0.75382 0.28242 0.0
H1181 H 0.84624 0.749 0.21735 0.0
H1182 H 0.82753 0.77124 0.12867 0.0
C1183 C 0.84488 0.75272 0.00759 0.0
C1184 C 0.8553 0.7506 0.10818 0.0
C1185 C 0.84311 0.74629 0.97354 0.0
C1186 C 0.8388 0.76062 0.26025 0.0
C1187 C 0.84245 0.7579 0.22297 0.0
C1188 C 0.83552 0.76578 0.12325 0.0
C1189 C 0.8473 0.74651 0.04195 0.0
C1190 C 0.84684 0.75304 0.07903 0.0
C1191 C 0.84076 0.76636 0.19316 0.0
C1192 C 0.84362 0.76286 0.15305 0.0
H1193 H 0.84749 0.7175 0.00767 0.0
H1194 H 0.8505 0.72878 0.06741 0.0
H1195 H 0.83038 0.76285 0.06477 0.0
H1196 H 0.82761 0.78913 0.24483 0.0
H1197 H 0.83416 0.78444 0.17935 0.0
C1198 C 0.97075 0.09145 0.00397 0.0
C1199 C 0.9617 0.08276 0.01151 0.0
C1200 C 0.97484 0.09336 0.96665 0.0
C1201 C 0.96833 0.08798 0.86419 0.0
H1202 H 0.00343 0.08733 0.85603 0.0
C1203 C 0.99358 0.07787 0.72307 0.0
C1204 C 0.00471 0.08375 0.71621 0.0
C1205 C 0.98746 0.07959 0.75768 0.0
C1206 C 0.99363 0.08778 0.85775 0.0
H1207 H 0.94932 0.06972 0.98578 0.0
H1208 H 0.95665 0.07296 0.92008 0.0
H1209 H 0.99401 0.08697 0.91903 0.0
H1210 H 0.01787 0.0965 0.73953 0.0
H1211 H 0.00707 0.09963 0.79984 0.0
H1212 H 0.968 0.0886 0.80266 0.0
C1213 C 0.9605 0.07833 0.9432 0.0
C1214 C 0.98823 0.08754 0.89388 0.0
C1215 C 0.95636 0.07643 0.98073 0.0
C1216 C 0.00937 0.09174 0.74412 0.0
C1217 C 0.00321 0.09351 0.77869 0.0
C1218 C 0.97375 0.08827 0.82791 0.0
C1219 C 0.96999 0.0866 0.93604 0.0
C1220 C 0.97554 0.08753 0.89748 0.0
C1221 C 0.99231 0.08727 0.78611 0.0
C1222 C 0.98646 0.08804 0.82435 0.0
H1223 H 0.9749 0.09661 0.02707 0.0
H1224 H 0.98199 0.09997 0.96184 0.0
H1225 H 0.95852 0.08809 0.86622 0.0
H1226 H 0.98972 0.07166 0.70215 0.0
H1227 H 0.97917 0.07453 0.76269 0.0
C1228 C 0.64497 0.25837 0.50502 0.0
C1229 C 0.64874 0.25213 0.47188 0.0
C1230 C 0.64269 0.25201 0.539 0.0
C1231 C 0.65295 0.2249 0.58834 0.0
H1232 H 0.62779 0.23314 0.66154 0.0
C1233 C 0.65356 0.20609 0.74295 0.0
C1234 C 0.65156 0.21494 0.77135 0.0
C1235 C 0.65097 0.20864 0.70441 0.0
C1236 C 0.63487 0.23074 0.64137 0.0
H1237 H 0.65238 0.23426 0.44778 0.0
H1238 H 0.64846 0.22323 0.50721 0.0
H1239 H 0.62698 0.24151 0.59652 0.0
H1240 H 0.64507 0.23327 0.78195 0.0
H1241 H 0.64086 0.23779 0.71507 0.0
H1242 H 0.66122 0.21467 0.63351 0.0
C1243 C 0.64738 0.23303 0.5069 0.0
C1244 C 0.63438 0.23551 0.60422 0.0
C1245 C 0.6496 0.23937 0.4729 0.0
C1246 C 0.64672 0.22626 0.76071 0.0
C1247 C 0.64418 0.22881 0.72236 0.0
C1248 C 0.65349 0.2202 0.62554 0.0
C1249 C 0.64418 0.23932 0.54047 0.0
C1250 C 0.6436 0.23289 0.57772 0.0
C1251 C 0.64635 0.22008 0.69372 0.0
C1252 C 0.64465 0.22337 0.65278 0.0
H1253 H 0.64416 0.26819 0.50512 0.0
H1254 H 0.64034 0.25709 0.5646 0.0
H1255 H 0.66026 0.22283 0.5686 0.0
H1256 H 0.65719 0.19725 0.75042 0.0
H1257 H 0.65265 0.2017 0.68298 0.0
C1258 C 0.46836 0.89792 0.28919 0.0
C1259 C 0.47455 0.89353 0.25684 0.0
C1260 C 0.47318 0.89609 0.32594 0.0
C1261 C 0.50329 0.89221 0.36837 0.0
H1262 H 0.48555 0.89022 0.46428 0.0
C1263 C 0.51306 0.89077 0.54185 0.0
C1264 C 0.52143 0.9004 0.54472 0.0
C1265 C 0.50722 0.88832 0.50713 0.0
C1266 C 0.49065 0.89064 0.4377 0.0
H1267 H 0.48971 0.88266 0.23728 0.0
H1268 H 0.49785 0.87905 0.30136 0.0
H1269 H 0.47478 0.8874 0.40346 0.0
H1270 H 0.53039 0.91493 0.51349 0.0
H1271 H 0.52008 0.91074 0.45276 0.0
H1272 H 0.51913 0.89543 0.40237 0.0
C1273 C 0.48959 0.8843 0.29849 0.0
C1274 C 0.48446 0.88912 0.40293 0.0
C1275 C 0.4849 0.8863 0.26187 0.0
C1276 C 0.524 0.90743 0.51206 0.0
C1277 C 0.51814 0.90499 0.47729 0.0
C1278 C 0.50945 0.89369 0.40301 0.0
C1279 C 0.48415 0.88972 0.33069 0.0
C1280 C 0.49071 0.89004 0.36788 0.0
C1281 C 0.50964 0.89546 0.47457 0.0
C1282 C 0.50318 0.89311 0.438 0.0
H1283 H 0.46037 0.90354 0.28591 0.0
H1284 H 0.46879 0.9004 0.35018 0.0
H1285 H 0.50836 0.89319 0.34188 0.0
H1286 H 0.51094 0.88515 0.56655 0.0
H1287 H 0.50085 0.88082 0.50574 0.0
C1288 C 0.84315 0.21073 0.23044 0.0
C1289 C 0.84271 0.2189 0.19948 0.0
C1290 C 0.84644 0.21482 0.26703 0.0
C1291 C 0.85956 0.24148 0.31937 0.0
H1292 H 0.83934 0.22959 0.40239 0.0
C1293 C 0.84826 0.26784 0.45849 0.0
C1294 C 0.84717 0.26107 0.49258 0.0
C1295 C 0.85097 0.262 0.42385 0.0
C1296 C 0.84523 0.23286 0.37968 0.0
H1297 H 0.84557 0.23764 0.18212 0.0
H1298 H 0.8508 0.24486 0.24589 0.0
H1299 H 0.83778 0.22027 0.33938 0.0
H1300 H 0.84916 0.24307 0.51775 0.0
H1301 H 0.85382 0.23297 0.45741 0.0
H1302 H 0.86646 0.25457 0.35971 0.0
C1303 C 0.84897 0.23525 0.24203 0.0
C1304 C 0.84436 0.22748 0.34353 0.0
C1305 C 0.84584 0.23114 0.20547 0.0
C1306 C 0.84972 0.24853 0.49187 0.0
C1307 C 0.85239 0.24272 0.45737 0.0
C1308 C 0.86032 0.24696 0.35554 0.0
C1309 C 0.84919 0.22718 0.27334 0.0
C1310 C 0.85134 0.23188 0.31273 0.0
C1311 C 0.85261 0.24932 0.42289 0.0
C1312 C 0.85301 0.24281 0.3858 0.0
H1313 H 0.84091 0.2012 0.22643 0.0
H1314 H 0.8467 0.20833 0.29042 0.0
H1315 H 0.86523 0.24494 0.29642 0.0
H1316 H 0.84641 0.27752 0.45817 0.0
H1317 H 0.85104 0.26728 0.39755 0.0
C1318 C 0.48013 0.10333 0.22715 0.0
C1319 C 0.46924 0.09693 0.23301 0.0
C1320 C 0.48429 0.10556 0.19006 0.0
C1321 C 0.48413 0.08994 0.1001 0.0
H1322 H 0.50188 0.1181 0.06285 0.0
C1323 C 0.51988 0.08606 0.98165 0.0
C1324 C 0.51813 0.09395 0.95046 0.0
C1325 C 0.51351 0.0879 0.01581 0.0
C1326 C 0.4969 0.11021 0.07292 0.0
H1327 H 0.45363 0.08876 0.20504 0.0
H1328 H 0.46106 0.0925 0.13977 0.0
H1329 H 0.4896 0.11978 0.12133 0.0
H1330 H 0.50909 0.11037 0.93103 0.0
H1331 H 0.49815 0.11368 -0.00901 0.0
H1332 H 0.49167 0.08027 0.05247 0.0
C1333 C 0.46633 0.09577 0.164 0.0
C1334 C 0.48989 0.11117 0.10616 0.0
C1335 C 0.46208 0.09367 0.20122 0.0
C1336 C 0.51052 0.1041 0.95466 0.0
C1337 C 0.5043 0.10603 -0.01109 0.0
C1338 C 0.49124 0.08894 0.06722 0.0
C1339 C 0.47769 0.10131 0.15825 0.0
C1340 C 0.48357 0.101 0.12023 0.0
C1341 C 0.50549 0.09776 0.01933 0.0
C1342 C 0.49782 0.09901 0.05373 0.0
H1343 H 0.48575 0.10607 0.25126 0.0
H1344 H 0.4931 0.1098 0.1864 0.0
H1345 H 0.4795 0.08191 0.1107 0.0
H1346 H 0.5257 0.07817 0.97909 0.0
H1347 H 0.51466 0.0815 0.0392 0.0
C1348 C 0.64601 0.73409 0.96598 0.0
C1349 C 0.65422 0.73978 -0.00882 0.0
C1350 C 0.6424 0.7399 0.93212 0.0
C1351 C 0.64237 0.76994 0.88279 0.0
H1352 H 0.64211 0.75017 0.79047 0.0
C1353 C 0.6489 0.7886 0.72905 0.0
C1354 C 0.64225 0.78307 0.69931 0.0
C1355 C 0.64794 0.78426 0.76669 0.0
C1356 C 0.64193 0.75579 0.81606 0.0
H1357 H 0.665 0.75607 0.00085 0.0
H1358 H 0.65899 0.766 0.94151 0.0
H1359 H 0.645 0.7405 0.85261 0.0
H1360 H 0.62874 0.76928 0.68593 0.0
H1361 H 0.62709 0.76174 0.75155 0.0
H1362 H 0.6398 0.78529 0.84568 0.0
C1363 C 0.65509 0.7572 0.94821 0.0
C1364 C 0.64356 0.75024 0.85171 0.0
C1365 C 0.65863 0.75145 0.98211 0.0
C1366 C 0.6341 0.77363 0.7082 0.0
C1367 C 0.63316 0.76929 0.74571 0.0
C1368 C 0.64082 0.7755 0.84703 0.0
C1369 C 0.64701 0.75147 0.9227 0.0
C1370 C 0.64401 0.75727 0.88542 0.0
C1371 C 0.64033 0.77432 0.77507 0.0
C1372 C 0.64075 0.76848 0.81332 0.0
H1373 H 0.64237 0.72515 0.97233 0.0
H1374 H 0.63604 0.73531 0.91327 0.0
H1375 H 0.64246 0.77557 0.90833 0.0
H1376 H 0.6552 0.79592 0.72304 0.0
H1377 H 0.65362 0.78826 0.78879 0.0
C1378 C 0.97056 0.88879 0.47291 0.0
C1379 C 0.96058 0.89649 0.46658 0.0
C1380 C 0.97571 0.88782 0.50938 0.0
C1381 C 0.97104 0.89474 0.61221 0.0
H1382 H 0.00584 0.90029 0.61232 0.0
C1383 C -0.00409 0.91578 0.73996 0.0
C1384 C 0.00754 0.91157 0.74988 0.0
C1385 C 0.99009 0.91151 0.7071 0.0
C1386 C -0.00383 0.89847 0.61286 0.0
H1387 H 0.94772 0.90864 0.49376 0.0
H1388 H 0.95683 0.90705 0.55759 0.0
H1389 H -0.00468 0.89677 0.55174 0.0
H1390 H 0.02214 0.89947 0.73311 0.0
H1391 H 0.0119 0.89199 0.67528 0.0
H1392 H 0.97187 0.89683 0.6733 0.0
C1393 C 0.9606 0.90171 0.53436 0.0
C1394 C 0.99014 0.89646 0.57817 0.0
C1395 C 0.95544 0.90269 0.49781 0.0
C1396 C 0.01321 0.90294 0.72614 0.0
C1397 C 0.00736 0.89866 0.69308 0.0
C1398 C 0.97709 0.89673 0.64693 0.0
C1399 C 0.97098 0.89451 0.54023 0.0
C1400 C 0.97748 0.8949 0.57743 0.0
C1401 C -0.00427 0.9029 0.68332 0.0
C1402 C 0.98965 0.89897 0.64746 0.0
H1403 H 0.97463 0.88378 0.44944 0.0
H1404 H 0.98359 0.88206 0.51324 0.0
H1405 H 0.96131 0.89337 0.61248 0.0
H1406 H 0.99127 0.92244 0.75753 0.0
H1407 H 0.98125 0.91515 0.6999 0.0
C1408 C 0.63534 0.74485 0.49171 0.0
C1409 C 0.6371 0.75753 0.49296 0.0
C1410 C 0.63389 0.7389 0.45664 0.0
C1411 C 0.62853 0.74294 0.35278 0.0
H1412 H 0.65319 0.718 0.3424 0.0
C1413 C 0.64838 0.72988 0.20708 0.0
C1414 C 0.65185 0.71779 0.20014 0.0
C1415 C 0.64436 0.73341 0.24328 0.0
C1416 C 0.64606 0.72472 0.34488 0.0
H1417 H 0.6376 0.77402 0.45868 0.0
H1418 H 0.6351 0.76357 0.39727 0.0
H1419 H 0.64903 0.72666 0.40527 0.0
H1420 H 0.6537 0.69985 0.22536 0.0
H1421 H 0.64647 0.706 0.28892 0.0
H1422 H 0.62572 0.74115 0.29221 0.0
C1423 C 0.63486 0.75826 0.42351 0.0
C1424 C 0.64368 0.72969 0.38093 0.0
C1425 C 0.63635 0.76424 0.45866 0.0
C1426 C 0.65118 0.70926 0.23009 0.0
C1427 C 0.64704 0.71278 0.2664 0.0
C1428 C 0.63082 0.73787 0.31672 0.0
C1429 C 0.6341 0.7455 0.42216 0.0
C1430 C 0.63513 0.73907 0.38503 0.0
C1431 C 0.6436 0.72491 0.27336 0.0
C1432 C 0.63988 0.72897 0.31221 0.0
H1433 H 0.63568 0.73941 0.51768 0.0
H1434 H 0.63313 0.72906 0.45636 0.0
H1435 H 0.62181 0.75006 0.35532 0.0
H1436 H 0.64886 0.73667 0.18458 0.0
H1437 H 0.64209 0.74289 0.24785 0.0
C1438 C 0.47528 0.40902 0.71187 0.0
C1439 C 0.48341 0.41226 0.74135 0.0
C1440 C 0.47906 0.40913 0.67348 0.0
C1441 C 0.50696 0.40913 0.61403 0.0
H1442 H 0.48565 0.42135 0.53407 0.0
C1443 C 0.5242 0.41999 0.46227 0.0
C1444 C 0.51759 0.4145 0.4324 0.0
C1445 C 0.51951 0.42022 0.49952 0.0
C1446 C 0.49165 0.41788 0.55618 0.0
H1447 H 0.50179 0.41832 0.75364 0.0
H1448 H 0.5082 0.4188 0.68718 0.0
H1449 H 0.47836 0.42022 0.60036 0.0
H1450 H 0.50068 0.40547 0.41747 0.0
H1451 H 0.49245 0.40602 0.48254 0.0
H1452 H 0.5203 0.40702 0.56999 0.0
C1453 C 0.49904 0.41585 0.69352 0.0
C1454 C 0.48748 0.41715 0.59402 0.0
C1455 C 0.49532 0.41564 0.73171 0.0
C1456 C 0.506 0.40971 0.44004 0.0
C1457 C 0.50126 0.41008 0.47716 0.0
C1458 C 0.51116 0.40999 0.57639 0.0
C1459 C 0.49099 0.41256 0.66394 0.0
C1460 C 0.49512 0.41284 0.62341 0.0
C1461 C 0.50808 0.41511 0.50733 0.0
C1462 C 0.50357 0.41442 0.54719 0.0
H1463 H 0.46605 0.40636 0.71842 0.0
H1464 H 0.47267 0.40642 0.65136 0.0
H1465 H 0.51299 0.40551 0.63579 0.0
H1466 H 0.53314 0.42376 0.45715 0.0
H1467 H 0.52488 0.42425 0.52235 0.0
C1468 C 0.83578 0.28977 0.72923 0.0
C1469 C 0.84174 0.28444 0.69783 0.0
C1470 C 0.83745 0.2851 0.76625 0.0
C1471 C 0.84425 0.2563 0.81271 0.0
H1472 H 0.84683 0.27561 0.90564 0.0
C1473 C 0.84419 0.23395 0.96249 0.0
C1474 C 0.83687 0.23968 -0.00993 0.0
C1475 C 0.84691 0.23982 0.92789 0.0
C1476 C 0.84605 0.2701 0.87993 0.0
H1477 H 0.85468 0.27059 0.68076 0.0
H1478 H 0.85753 0.26248 0.74522 0.0
H1479 H 0.84773 0.28563 0.84298 0.0
H1480 H 0.82674 0.25611 0.00312 0.0
H1481 H 0.83118 0.26613 0.94272 0.0
H1482 H 0.84206 0.24085 0.84927 0.0
C1483 C 0.85147 0.27013 0.74119 0.0
C1484 C 0.8466 0.27584 0.84415 0.0
C1485 C 0.84985 0.2748 0.70434 0.0
C1486 C 0.83245 0.25143 0.98257 0.0
C1487 C 0.83509 0.25725 0.94801 0.0
C1488 C 0.84361 0.25058 0.84841 0.0
C1489 C 0.84506 0.27503 0.77232 0.0
C1490 C 0.84553 0.269 0.81026 0.0
C1491 C 0.84228 0.2515 0.92016 0.0
C1492 C 0.8443 0.25743 0.88243 0.0
H1493 H 0.82952 0.29724 0.72503 0.0
H1494 H 0.83235 0.28901 0.7898 0.0
H1495 H 0.84324 0.25082 0.787 0.0
H1496 H 0.84781 0.22493 0.96755 0.0
H1497 H 0.85259 0.23521 0.90716 0.0
C1498 C 0.01586 0.59811 0.21895 0.0
C1499 C 0.00931 0.59109 0.24559 0.0
C1500 C 0.01042 0.60182 0.18461 0.0
C1501 C 0.98056 0.60366 0.13417 0.0
H1502 H 8e-05 0.59791 0.04338 0.0
C1503 C 0.9616 0.58925 0.98697 0.0
C1504 C 0.96719 0.59394 0.95389 0.0
C1505 C 0.96603 0.59232 0.02335 0.0
C1506 C -0.00543 0.5998 0.06843 0.0
H1507 H 0.99184 0.58276 0.25765 0.0
H1508 H 0.98254 0.58885 0.19757 0.0
H1509 H 0.00955 0.59719 0.10642 0.0
H1510 H 0.98126 0.60609 0.93282 0.0
H1511 H 0.98902 0.61131 -0.00367 0.0
H1512 H 0.96543 0.60552 0.09582 0.0
C1513 C 0.99176 0.59178 0.20339 0.0
C1514 C 0.0 0.59943 0.1046 0.0
C1515 C -0.00285 0.58816 0.23774 0.0
C1516 C 0.97686 0.60222 0.95782 0.0
C1517 C 0.9813 0.60523 -0.0059 0.0
C1518 C 0.97511 0.60391 0.09794 0.0
C1519 C -0.00163 0.59851 0.17619 0.0
C1520 C 0.99299 0.601 0.13793 0.0
C1521 C 0.97612 0.60007 0.02711 0.0
C1522 C 0.98202 0.60167 0.06488 0.0
H1523 H 0.02521 0.60063 0.22441 0.0
H1524 H 0.0157 0.60714 0.16441 0.0
H1525 H 0.97497 0.60516 0.1593 0.0
H1526 H 0.95409 0.58292 0.98474 0.0
H1527 H 0.96194 0.58814 0.04841 0.0
C1528 C 0.63962 0.27414 0.26412 0.0
C1529 C 0.64868 0.28273 0.27277 0.0
C1530 C 0.63735 0.27079 0.2262 0.0
C1531 C 0.64316 0.27821 0.12435 0.0
H1532 H 0.64429 0.24311 0.11334 0.0
C1533 C 0.65666 0.25418 0.98399 0.0
C1534 C 0.65167 0.24269 0.97569 0.0
C1535 C 0.65374 0.26015 0.01811 0.0
C1536 C 0.64366 0.25291 0.11574 0.0
H1537 H 0.66188 0.29519 0.24853 0.0
H1538 H 0.65804 0.28915 0.18187 0.0
H1539 H 0.64362 0.25201 0.17699 0.0
H1540 H 0.63912 0.22881 -0.00459 0.0
H1541 H 0.63381 0.23936 0.05463 0.0
H1542 H 0.64345 0.27906 0.06285 0.0
C1543 C 0.65264 0.28509 0.20452 0.0
C1544 C 0.64331 0.25802 0.15232 0.0
C1545 C 0.6549 0.28849 0.24262 0.0
C1546 C 0.64325 0.23757 0.00128 0.0
C1547 C 0.64023 0.24361 0.03523 0.0
C1548 C 0.64343 0.27307 0.08759 0.0
C1549 C 0.64412 0.27591 0.19615 0.0
C1550 C 0.64325 0.27071 0.15703 0.0
C1551 C 0.64569 0.25482 0.0445 0.0
C1552 C 0.64391 0.26036 0.08294 0.0
H1553 H 0.63453 0.26969 0.28677 0.0
H1554 H 0.63057 0.26386 0.22048 0.0
H1555 H 0.64302 0.28802 0.12724 0.0
H1556 H 0.66317 0.25839 0.96482 0.0
H1557 H 0.65823 0.26869 0.02452 0.0
C1558 C 0.96628 0.41026 0.50762 0.0
C1559 C 0.96558 0.40155 0.53703 0.0
C1560 C 0.97354 0.40814 0.47547 0.0
C1561 C 0.98705 0.38414 0.41772 0.0
H1562 H 0.0079 0.41018 0.38125 0.0
C1563 C 0.00128 0.39094 0.2619 0.0
C1564 C 0.01284 0.39562 0.25366 0.0
C1565 C -0.00223 0.38891 0.29976 0.0
C1566 C 0.00233 0.40273 0.39153 0.0
H1567 H 0.97155 0.38366 0.55548 0.0
H1568 H 0.98407 0.37991 0.49894 0.0
H1569 H -0.00328 0.41272 0.44123 0.0
H1570 H 0.03013 0.40109 0.27801 0.0
H1571 H 0.02385 0.39778 0.34485 0.0
H1572 H 0.99229 0.37436 0.36715 0.0
C1573 C 0.9791 0.38838 0.50093 0.0
C1574 C -0.00419 0.40425 0.42549 0.0
C1575 C 0.97195 0.39055 0.53323 0.0
C1576 C 0.02116 0.39748 0.28373 0.0
C1577 C 0.01757 0.39563 0.32183 0.0
C1578 C 0.99349 0.38266 0.38354 0.0
C1579 C 0.98009 0.39723 0.47208 0.0
C1580 C 0.98788 0.3951 0.4383 0.0
C1581 C 0.00572 0.39167 0.33011 0.0
C1582 C 0.00094 0.39207 0.36968 0.0
H1583 H 0.96147 0.41881 0.50984 0.0
H1584 H 0.97402 0.41502 0.45322 0.0
H1585 H 0.981 0.37695 0.42709 0.0
H1586 H -0.00525 0.38933 0.23913 0.0
H1587 H 0.98856 0.38595 0.30534 0.0
C1588 C 0.83849 0.70034 0.73908 0.0
C1589 C 0.84372 0.70676 0.76988 0.0
C1590 C 0.84025 0.70435 0.70134 0.0
C1591 C 0.84505 0.73275 0.65088 0.0
H1592 H 0.84928 0.7124 0.56088 0.0
C1593 C 0.84174 0.75315 0.49976 0.0
C1594 C 0.8347 0.74644 0.47353 0.0
C1595 C 0.84563 0.74784 0.53408 0.0
C1596 C 0.84805 0.71819 0.58576 0.0
H1597 H 0.85559 0.72178 0.7853 0.0
H1598 H 0.8586 0.72874 0.71962 0.0
H1599 H 0.85104 0.70344 0.62501 0.0
H1600 H 0.82655 0.7288 0.4621 0.0
H1601 H 0.83295 0.71971 0.52235 0.0
H1602 H 0.84145 0.74736 0.61223 0.0
C1603 C 0.85303 0.72075 0.72462 0.0
C1604 C 0.84909 0.71306 0.62236 0.0
C1605 C 0.8513 0.71676 0.7622 0.0
C1606 C 0.83196 0.73422 0.48172 0.0
C1607 C 0.83573 0.72897 0.51617 0.0
C1608 C 0.8439 0.73784 0.61442 0.0
C1609 C 0.84723 0.71481 0.69398 0.0
C1610 C 0.84742 0.72028 0.6552 0.0
C1611 C 0.84245 0.73577 0.54302 0.0
C1612 C 0.84517 0.73059 0.58142 0.0
H1613 H 0.83267 0.69255 0.74421 0.0
H1614 H 0.83562 0.69965 0.67817 0.0
H1615 H 0.84353 0.73848 0.67574 0.0
H1616 H 0.84413 0.76254 0.494 0.0
H1617 H 0.85097 0.75327 0.55388 0.0
C1618 C 0.52437 0.59335 -0.00747 0.0
C1619 C 0.52053 0.59694 0.02919 0.0
C1620 C 0.51938 0.59873 0.95982 0.0
C1621 C 0.51058 0.61367 0.89335 0.0
H1622 H 0.47569 0.61793 0.89558 0.0
C1623 C 0.48546 0.61493 0.75235 0.0
C1624 C 0.47558 0.60687 0.75146 0.0
C1625 C 0.48987 0.61928 0.78738 0.0
C1626 C 0.48544 0.61682 0.89441 0.0
H1627 H 0.50904 0.60944 0.06069 0.0
H1628 H 0.50059 0.61911 0.00362 0.0
H1629 H 0.48657 0.61406 0.95504 0.0
H1630 H 0.46181 0.5979 0.78563 0.0
H1631 H 0.46983 0.60484 0.84679 0.0
H1632 H 0.50939 0.61516 0.83256 0.0
C1633 C 0.50717 0.61189 -2e-05 0.0
C1634 C 0.49173 0.61476 0.92867 0.0
C1635 C 0.51203 0.60638 0.03266 0.0
C1636 C 0.46946 0.60412 0.78566 0.0
C1637 C 0.47406 0.60819 0.8208 0.0
C1638 C 0.50428 0.61549 0.85908 0.0
C1639 C 0.51058 0.60796 0.96313 0.0
C1640 C 0.50431 0.61261 0.92829 0.0
C1641 C 0.48473 0.61529 0.82218 0.0
C1642 C 0.49155 0.61654 0.85896 0.0
H1643 H 0.53091 0.58608 -0.01093 0.0
H1644 H 0.52208 0.59528 0.93197 0.0
H1645 H 0.52032 0.61244 0.89214 0.0
H1646 H 0.49019 0.61732 0.72612 0.0
H1647 H 0.49781 0.6251 0.78721 0.0
C1648 C 0.34459 0.2263 0.50473 0.0
C1649 C 0.33957 0.23365 0.47579 0.0
C1650 C 0.34807 0.23139 0.53991 0.0
C1651 C 0.35349 0.26115 0.58886 0.0
H1652 H 0.3435 0.24334 0.6797 0.0
C1653 C 0.34242 0.283 0.73572 0.0
C1654 C 0.3465 0.27687 0.76868 0.0
C1655 C 0.34422 0.27792 0.69933 0.0
C1656 C 0.34651 0.24835 0.65461 0.0
H1657 H 0.33449 0.25215 0.46078 0.0
H1658 H 0.34014 0.26087 0.52207 0.0
H1659 H 0.34198 0.23368 0.61698 0.0
H1660 H 0.3562 0.26096 0.78939 0.0
H1661 H 0.35916 0.2521 0.72601 0.0
H1662 H 0.35738 0.27605 0.62675 0.0
C1663 C 0.34172 0.25125 0.51752 0.0
C1664 C 0.3457 0.2428 0.61867 0.0
C1665 C 0.33835 0.24621 0.4824 0.0
C1666 C 0.35285 0.26586 0.76454 0.0
C1667 C 0.35454 0.26076 0.72832 0.0
C1668 C 0.35415 0.26675 0.62482 0.0
C1669 C 0.3465 0.2439 0.54686 0.0
C1670 C 0.34894 0.24922 0.58529 0.0
C1671 C 0.35003 0.26662 0.6955 0.0
C1672 C 0.35048 0.26045 0.65787 0.0
H1673 H 0.34574 0.21661 0.50035 0.0
H1674 H 0.35188 0.2255 0.56178 0.0
H1675 H 0.35629 0.26626 0.56377 0.0
H1676 H 0.33756 0.29152 0.7381 0.0
H1677 H 0.34059 0.28257 0.67437 0.0
C1678 C 0.46076 0.5763 0.51324 0.0
C1679 C 0.4663 0.58311 0.54258 0.0
C1680 C 0.46571 0.57618 0.47633 0.0
C1681 C 0.49413 0.58064 0.4242 0.0
H1682 H 0.4732 0.58548 0.33581 0.0
C1683 C 0.51274 0.58473 0.26918 0.0
C1684 C 0.50594 0.57896 0.24021 0.0
C1685 C 0.50812 0.58566 0.30649 0.0
C1686 C 0.47915 0.58397 0.36016 0.0
H1687 H 0.48137 0.5951 0.55651 0.0
H1688 H 0.49005 0.59479 0.49208 0.0
H1689 H 0.4646 0.58605 0.40026 0.0
H1690 H 0.48914 0.56934 0.22785 0.0
H1691 H 0.48129 0.57069 0.29275 0.0
H1692 H 0.50865 0.57831 0.38415 0.0
C1693 C 0.48191 0.58955 0.49766 0.0
C1694 C 0.47422 0.58432 0.39701 0.0
C1695 C 0.47689 0.58977 0.53442 0.0
C1696 C 0.49456 0.57397 0.24939 0.0
C1697 C 0.49001 0.57481 0.2866 0.0
C1698 C 0.49906 0.58018 0.38728 0.0
C1699 C 0.47635 0.58278 0.46829 0.0
C1700 C 0.48165 0.5826 0.42932 0.0
C1701 C 0.49667 0.58075 0.31551 0.0
C1702 C 0.4916 0.58175 0.35484 0.0
H1703 H 0.45258 0.5711 0.51875 0.0
H1704 H 0.46132 0.57081 0.45418 0.0
H1705 H 0.50003 0.57919 0.44872 0.0
H1706 H 0.52152 0.58869 0.26293 0.0
H1707 H 0.51343 0.59039 0.32808 0.0
C1708 C 0.1633 0.70624 0.24052 0.0
C1709 C 0.15944 0.71508 0.26693 0.0
C1710 C 0.1605 0.70744 0.20145 0.0
C1711 C 0.14018 0.72418 0.13467 0.0
H1712 H 0.16651 0.72036 0.06193 0.0
C1713 C 0.14427 0.75112 -0.0054 0.0
C1714 C 0.14897 0.74532 0.96191 0.0
C1715 C 0.14342 0.74488 0.02941 0.0
C1716 C 0.15898 0.72121 0.08173 0.0
H1717 H 0.14965 0.7321 0.27335 0.0
H1718 H 0.14504 0.73429 0.20557 0.0
H1719 H 0.16932 0.7139 0.12834 0.0
H1720 H 0.15591 0.72823 0.93958 0.0
H1721 H 0.15455 0.71741 0.00064 0.0
H1722 H 0.1301 0.73212 0.08839 0.0
C1723 C 0.14997 0.7263 0.21487 0.0
C1724 C 0.16058 0.7175 0.11975 0.0
C1725 C 0.15274 0.7251 0.25369 0.0
C1726 C 0.1523 0.73299 0.96431 0.0
C1727 C 0.15156 0.72679 -0.00078 0.0
C1728 C 0.13861 0.72796 0.09673 0.0
C1729 C 0.15379 0.71749 0.18831 0.0
C1730 C 0.15135 0.71934 0.14688 0.0
C1731 C 0.14734 0.73276 0.03222 0.0
C1732 C 0.14814 0.72686 0.07026 0.0
H1733 H 0.16841 0.6984 0.25 0.0
H1734 H 0.16353 0.7005 0.18159 0.0
H1735 H 0.13281 0.72545 0.1548 0.0
H1736 H 0.14156 0.76059 -0.00637 0.0
H1737 H 0.14025 0.74974 0.05456 0.0
C1738 C 0.97753 0.38054 0.75874 0.0
C1739 C 0.96886 0.38971 0.75343 0.0
C1740 C 0.98168 0.37773 0.79551 0.0
C1741 C 0.9784 0.38519 0.89963 0.0
H1742 H 0.01357 0.38604 0.89501 0.0
C1743 C 0.02112 0.40195 -0.00176 0.0
C1744 C 0.0179 0.39688 0.03379 0.0
C1745 C 0.01468 0.39881 0.96508 0.0
C1746 C 0.00376 0.38581 0.89678 0.0
H1747 H 0.95679 0.40228 0.78208 0.0
H1748 H 0.96433 0.39774 0.8464 0.0
H1749 H 0.00197 0.38349 0.83629 0.0
H1750 H 0.00563 0.38436 0.06254 0.0
H1751 H -0.00549 0.3788 0.00465 0.0
H1752 H 0.98029 0.38826 0.96008 0.0
C1753 C 0.9678 0.39252 0.82242 0.0
C1754 C -0.00292 0.38413 0.8632 0.0
C1755 C 0.96348 0.39516 0.78558 0.0
C1756 C 0.00827 0.38849 0.03553 0.0
C1757 C 0.00186 0.38533 0.00244 0.0
C1758 C 0.9851 0.38692 0.9333 0.0
C1759 C 0.97743 0.38427 0.82746 0.0
C1760 C 0.98432 0.38405 0.86408 0.0
C1761 C 0.00494 0.39052 0.96692 0.0
C1762 C -0.00215 0.38753 0.93201 0.0
H1763 H 0.98166 0.37609 0.73425 0.0
H1764 H 0.98883 0.37105 0.7986 0.0
H1765 H 0.96858 0.38508 0.90127 0.0
H1766 H 0.02849 0.40845 -0.00389 0.0
H1767 H 0.01715 0.40309 0.93814 0.0
C1768 C 0.34604 0.74676 0.96891 0.0
C1769 C 0.34526 0.75935 0.97551 0.0
C1770 C 0.35086 0.74232 0.93479 0.0
C1771 C 0.35436 0.75142 0.8346 0.0
H1772 H 0.36844 0.71916 0.82727 0.0
C1773 C 0.35793 0.72661 0.69038 0.0
C1774 C 0.35159 0.71548 0.6908 0.0
C1775 C 0.36114 0.73232 0.7247 0.0
C1776 C 0.36463 0.72823 0.82893 0.0
H1777 H 0.34962 0.77716 0.95238 0.0
H1778 H 0.35825 0.76935 0.89254 0.0
H1779 H 0.36755 0.72937 0.88959 0.0
H1780 H 0.34438 0.70121 0.72726 0.0
H1781 H 0.35009 0.7112 0.78748 0.0
H1782 H 0.35119 0.75012 0.77408 0.0
C1783 C 0.3549 0.76294 0.91368 0.0
C1784 C 0.36407 0.73406 0.86452 0.0
C1785 C 0.34998 0.76741 0.94795 0.0
C1786 C 0.34918 0.70981 0.72613 0.0
C1787 C 0.35253 0.71547 0.76051 0.0
C1788 C 0.35508 0.74565 0.79897 0.0
C1789 C 0.35513 0.75034 0.9064 0.0
C1790 C 0.35842 0.74548 0.86801 0.0
C1791 C 0.35823 0.72693 0.76004 0.0
C1792 C 0.35977 0.73382 0.79614 0.0
H1793 H 0.34255 0.74027 -0.01044 0.0
H1794 H 0.35066 0.73259 0.93 0.0
H1795 H 0.34984 0.76014 0.83619 0.0
H1796 H 0.35999 0.73117 0.66355 0.0
H1797 H 0.36559 0.74112 0.72367 0.0
C1798 C -0.00236 0.60167 0.74104 0.0
C1799 C 0.98642 0.59563 0.74285 0.0
C1800 C 0.00301 0.60412 0.70565 0.0
C1801 C -0.00208 0.60331 0.59988 0.0
H1802 H 0.03205 0.59472 0.5984 0.0
C1803 C 0.03486 0.58392 0.48539 0.0
C1804 C 0.03152 0.59085 0.45326 0.0
C1805 C 0.03021 0.58678 0.52161 0.0
C1806 C 0.02252 0.59712 0.59831 0.0
H1807 H 0.97163 0.58807 0.70935 0.0
H1808 H 0.98118 0.59194 0.6474 0.0
H1809 H 0.02144 0.59594 0.65939 0.0
H1810 H 0.02151 0.60668 0.43383 0.0
H1811 H 0.01375 0.61191 0.49707 0.0
H1812 H -0.00119 0.60366 0.53862 0.0
C1813 C 0.98575 0.59503 0.6732 0.0
C1814 C 0.01646 0.59801 0.63333 0.0
C1815 C 0.98028 0.59276 0.70867 0.0
C1816 C 0.02406 0.60107 0.45815 0.0
C1817 C 0.01956 0.60403 0.49432 0.0
C1818 C 0.00395 0.60229 0.56482 0.0
C1819 C -0.00264 0.60038 0.6714 0.0
C1820 C 0.00404 0.6009 0.63448 0.0
C1821 C 0.0223 0.59673 0.52627 0.0
C1822 C 0.01627 0.59897 0.56363 0.0
H1823 H 0.00247 0.60417 0.76705 0.0
H1824 H 0.0118 0.60856 0.70522 0.0
H1825 H 0.98839 0.6057 0.5998 0.0
H1826 H 0.0406 0.57599 0.48227 0.0
H1827 H 0.0324 0.58089 0.54557 0.0
C1828 C 0.14977 0.27389 0.22836 0.0
C1829 C 0.15651 0.2838 0.21442 0.0
C1830 C 0.14622 0.27343 0.26671 0.0
C1831 C 0.15554 0.28431 0.36102 0.0
H1832 H 0.12582 0.26814 0.3923 0.0
C1833 C 0.14959 0.2682 0.51566 0.0
C1834 C 0.14712 0.25565 0.51755 0.0
C1835 C 0.14763 0.27463 0.48162 0.0
C1836 C 0.1341 0.27277 0.38402 0.0
H1837 H 0.16451 0.30122 0.22938 0.0
H1838 H 0.15828 0.30042 0.29686 0.0
H1839 H 0.12844 0.27432 0.32535 0.0
H1840 H 0.13968 0.24025 0.48627 0.0
H1841 H 0.13637 0.25144 0.42686 0.0
H1842 H 0.16143 0.28231 0.41919 0.0
C1843 C 0.15584 0.29296 0.27801 0.0
C1844 C 0.13562 0.27627 0.34575 0.0
C1845 C 0.15941 0.29341 0.23946 0.0
C1846 C 0.14177 0.24989 0.48568 0.0
C1847 C 0.13978 0.25633 0.45169 0.0
C1848 C 0.154 0.28087 0.39929 0.0
C1849 C 0.14929 0.2829 0.29207 0.0
C1850 C 0.14658 0.28161 0.33357 0.0
C1851 C 0.14311 0.26865 0.44892 0.0
C1852 C 0.14347 0.27463 0.41081 0.0
H1853 H 0.14736 0.26635 0.20976 0.0
H1854 H 0.14141 0.26544 0.27675 0.0
H1855 H 0.16412 0.28831 0.35254 0.0
H1856 H 0.15359 0.27296 0.53985 0.0
H1857 H 0.15013 0.28417 0.48037 0.0
C1858 C 0.50232 0.37618 0.2288 0.0
C1859 C 0.51218 0.38426 0.22843 0.0
C1860 C 0.49824 0.37089 0.19466 0.0
C1861 C 0.50314 0.37163 0.08724 0.0
H1862 H 0.46828 0.37624 0.08813 0.0
C1863 C 0.46539 0.39667 -0.01002 0.0
C1864 C 0.4692 0.39337 0.95302 0.0
C1865 C 0.47001 0.39069 0.02214 0.0
C1866 C 0.47802 0.37491 0.0873 0.0
H1867 H 0.52625 0.39232 0.19341 0.0
H1868 H 0.51875 0.38388 0.13353 0.0
H1869 H 0.47895 0.37365 0.1481 0.0
H1870 H 0.48028 0.38077 0.9204 0.0
H1871 H 0.48816 0.37011 0.97666 0.0
H1872 H 0.50224 0.37429 0.02649 0.0
C1873 C 0.51431 0.38114 0.15988 0.0
C1874 C 0.48418 0.37317 0.12185 0.0
C1875 C 0.51862 0.38609 0.19426 0.0
C1876 C 0.4773 0.3836 0.94868 0.0
C1877 C 0.48183 0.37751 0.98088 0.0
C1878 C 0.49698 0.37365 0.05268 0.0
C1879 C 0.50362 0.37405 0.15933 0.0
C1880 C 0.49693 0.37218 0.12251 0.0
C1881 C 0.47843 0.38115 0.01806 0.0
C1882 C 0.48443 0.37598 0.05264 0.0
H1883 H 0.49735 0.3745 0.25513 0.0
H1884 H 0.4903 0.36508 0.19569 0.0
H1885 H 0.51289 0.37048 0.08641 0.0
H1886 H 0.45916 0.40416 -0.00582 0.0
H1887 H 0.46735 0.39394 0.05028 0.0
C1888 C 0.12866 0.31334 0.05511 0.0
C1889 C 0.14123 0.31524 0.05802 0.0
C1890 C 0.12069 0.32317 0.05549 0.0
C1891 C 0.1192 0.3543 0.09314 0.0
H1892 H 0.08734 0.35329 0.04579 0.0
C1893 C 0.08051 0.38971 0.11924 0.0
C1894 C 0.06935 0.3843 0.12893 0.0
C1895 C 0.09023 0.38253 0.10689 0.0
C1896 C 0.09623 0.3537 0.05908 0.0
H1897 H 0.15538 0.32897 0.06049 0.0
H1898 H 0.14143 0.34622 0.06036 0.0
H1899 H 0.1028 0.33881 0.02561 0.0
H1900 H 0.05974 0.36712 0.13443 0.0
H1901 H 0.07662 0.35468 0.11259 0.0
H1902 H 0.11247 0.36917 0.12684 0.0
C1903 C 0.13773 0.33709 0.05871 0.0
C1904 C 0.10507 0.34541 0.04761 0.0
C1905 C 0.14572 0.32722 0.05848 0.0
C1906 C 0.06821 0.37158 0.12719 0.0
C1907 C 0.07783 0.36445 0.11436 0.0
C1908 C 0.11037 0.36271 0.10426 0.0
C1909 C 0.12511 0.33515 0.05853 0.0
C1910 C 0.11653 0.34533 0.06545 0.0
C1911 C 0.08884 0.36987 0.10348 0.0
C1912 C 0.0987 0.36219 0.08821 0.0
H1913 H 0.12491 0.30422 0.05465 0.0
H1914 H 0.11104 0.3213 0.05571 0.0
H1915 H 0.12788 0.35443 0.1078 0.0
H1916 H 0.08165 0.3995 0.12028 0.0
H1917 H 0.09867 0.38688 0.09878 0.0
C1918 C 0.83992 0.82344 0.40384 0.0
C1919 C 0.84484 0.81189 0.41122 0.0
C1920 C 0.84749 0.83364 0.401 0.0
C1921 C 0.87926 0.84417 0.4181 0.0
H1922 H 0.87356 0.8643 0.32817 0.0
C1923 C 0.91751 0.86899 0.34156 0.0
C1924 C 0.91642 0.88171 0.33953 0.0
C1925 C 0.90754 0.86182 0.35128 0.0
C1926 C 0.87515 0.85884 0.35361 0.0
H1927 H 0.86143 0.80207 0.42377 0.0
H1928 H 0.87458 0.81966 0.41824 0.0
H1929 H 0.85819 0.84949 0.34806 0.0
H1930 H 0.90383 0.89682 0.34331 0.0
H1931 H 0.88621 0.88409 0.35932 0.0
H1932 H 0.89652 0.85305 0.42215 0.0
C1933 C 0.8649 0.82099 0.41507 0.0
C1934 C 0.86635 0.85041 0.36521 0.0
C1935 C 0.85735 0.81084 0.41802 0.0
C1936 C 0.90494 0.88703 0.34473 0.0
C1937 C 0.89488 0.87979 0.35395 0.0
C1938 C 0.88809 0.85243 0.40617 0.0
C1939 C 0.86012 0.83245 0.40549 0.0
C1940 C 0.86846 0.84274 0.39698 0.0
C1941 C 0.89625 0.86719 0.35859 0.0
C1942 C 0.88623 0.85959 0.3733 0.0
H1943 H 0.83029 0.82454 0.39862 0.0
H1944 H 0.8435 0.84238 0.39422 0.0
H1945 H 0.88106 0.83863 0.44321 0.0
H1946 H 0.9262 0.86459 0.33762 0.0
H1947 H 0.90873 0.85207 0.35419 0.0
C1948 C 0.35838 0.66353 0.54565 0.0
C1949 C 0.34725 0.66621 0.56328 0.0
C1950 C 0.3638 0.65219 0.55106 0.0
C1951 C 0.36641 0.6306 0.62761 0.0
H1952 H 0.38664 0.61292 0.5557 0.0
C1953 C 0.41258 0.60998 0.66382 0.0
C1954 C 0.41537 0.59834 0.64993 0.0
C1955 C 0.40156 0.61545 0.65436 0.0
C1956 C 0.38085 0.61761 0.576 0.0
H1957 H 0.33253 0.65877 0.59748 0.0
H1958 H 0.34214 0.63902 0.60739 0.0
H1959 H 0.37166 0.62748 0.53148 0.0
H1960 H 0.40874 0.58308 0.61632 0.0
H1961 H 0.38954 0.59287 0.59869 0.0
H1962 H 0.37619 0.62138 0.67218 0.0
C1963 C 0.34665 0.64571 0.58949 0.0
C1964 C 0.37235 0.62596 0.56218 0.0
C1965 C 0.34116 0.657 0.58371 0.0
C1966 C 0.40676 0.59205 0.62755 0.0
C1967 C 0.39583 0.59764 0.61736 0.0
C1968 C 0.37502 0.6224 0.64141 0.0
C1969 C 0.35823 0.64338 0.57446 0.0
C1970 C 0.36532 0.63279 0.58794 0.0
C1971 C 0.39324 0.60945 0.63023 0.0
C1972 C 0.38256 0.61612 0.61576 0.0
H1973 H 0.36324 0.67043 0.52957 0.0
H1974 H 0.37277 0.65066 0.53932 0.0
H1975 H 0.3612 0.63583 0.64814 0.0
H1976 H 0.41905 0.61501 0.68116 0.0
H1977 H 0.39981 0.62462 0.66432 0.0
C1978 C 0.63775 0.16583 0.91406 0.0
C1979 C 0.63329 0.17781 0.91379 0.0
C1980 C 0.62982 0.15597 0.90981 0.0
C1981 C 0.59703 0.14759 0.9088 0.0
H1982 H 0.60721 0.1233 0.83459 0.0
C1983 C 0.56279 0.11919 0.8254 0.0
C1984 C 0.5639 0.10652 0.82948 0.0
C1985 C 0.57223 0.12688 0.83649 0.0
C1986 C 0.60433 0.12996 0.85562 0.0
H1987 H 0.61701 0.18882 0.91112 0.0
H1988 H 0.60327 0.17175 0.90299 0.0
H1989 H 0.62176 0.13854 0.85732 0.0
H1990 H 0.57615 0.09192 0.8454 0.0
H1991 H 0.59286 0.10549 0.86398 0.0
H1992 H 0.57945 0.13934 0.90555 0.0
C1993 C 0.61283 0.16988 0.907 0.0
C1994 C 0.61264 0.13864 0.86889 0.0
C1995 C 0.62073 0.1797 0.91149 0.0
C1996 C 0.57503 0.10165 0.84201 0.0
C1997 C 0.58456 0.10938 0.85271 0.0
C1998 C 0.58871 0.13904 0.89515 0.0
C1999 C 0.6173 0.15791 0.90506 0.0
C2000 C 0.60901 0.14772 0.89501 0.0
C2001 C 0.58303 0.12205 0.85139 0.0
C2002 C 0.59222 0.13034 0.86785 0.0
H2003 H 0.6474 0.16409 0.91602 0.0
H2004 H 0.63354 0.14686 0.90917 0.0
H2005 H 0.59399 0.15426 0.92956 0.0
H2006 H 0.55438 0.12324 0.81563 0.0
H2007 H 0.57095 0.13663 0.83461 0.0
C2008 C 0.08474 0.60084 0.33425 0.0
C2009 C 0.07307 0.60532 0.32603 0.0
C2010 C 0.09416 0.60886 0.34388 0.0
C2011 C 0.09811 0.6378 0.39133 0.0
H2012 H 0.12999 0.63967 0.34482 0.0
C2013 C 0.12856 0.67956 0.40804 0.0
C2014 C 0.14123 0.6783 0.40721 0.0
C2015 C 0.12106 0.66946 0.40315 0.0
C2016 C 0.12123 0.63909 0.35874 0.0
H2017 H 0.06234 0.62171 0.31887 0.0
H2018 H 0.07872 0.6356 0.336 0.0
H2019 H 0.11553 0.62423 0.32281 0.0
H2020 H 0.15599 0.66535 0.40301 0.0
H2021 H 0.14282 0.64759 0.3953 0.0
H2022 H 0.10367 0.65252 0.42741 0.0
C2023 C 0.08054 0.62592 0.33528 0.0
C2024 C 0.11295 0.63031 0.3459 0.0
C2025 C 0.0712 0.61796 0.32522 0.0
C2026 C 0.14625 0.66661 0.40365 0.0
C2027 C 0.13871 0.65646 0.39888 0.0
C2028 C 0.1064 0.64644 0.40451 0.0
C2029 C 0.09197 0.62142 0.34585 0.0
C2030 C 0.10121 0.62985 0.36138 0.0
C2031 C 0.12602 0.65782 0.39758 0.0
C2032 C 0.11794 0.64744 0.38763 0.0
H2033 H 0.08646 0.59114 0.33505 0.0
H2034 H 0.10294 0.60521 0.3518 0.0
H2035 H 0.08917 0.63743 0.40425 0.0
H2036 H 0.12441 0.68845 0.4107 0.0
H2037 H 0.11135 0.67092 0.40182 0.0
C2038 C 0.6259 0.82867 0.54161 0.0
C2039 C 0.63785 0.82636 0.55359 0.0
C2040 C 0.6209 0.84024 0.54611 0.0
C2041 C 0.61332 0.86692 0.55271 0.0
H2042 H 0.61492 0.87461 0.66154 0.0
C2043 C 0.58161 0.90213 0.62174 0.0
C2044 C 0.57413 0.89634 0.64891 0.0
C2045 C 0.59233 0.8966 0.60952 0.0
C2046 C 0.61458 0.87273 0.63097 0.0
H2047 H 0.65427 0.83456 0.57654 0.0
H2048 H 0.64541 0.85472 0.58511 0.0
H2049 H 0.62858 0.85935 0.6347 0.0
H2050 H 0.57243 0.88079 0.68688 0.0
H2051 H 0.59134 0.8713 0.66631 0.0
H2052 H 0.59886 0.87987 0.54949 0.0
C2053 C 0.63996 0.84759 0.5722 0.0
C2054 C 0.62242 0.86407 0.61555 0.0
C2055 C 0.64501 0.83606 0.5672 0.0
C2056 C 0.57801 0.88543 0.66584 0.0
C2057 C 0.58885 0.88004 0.6542 0.0
C2058 C 0.6056 0.87573 0.56803 0.0
C2059 C 0.62773 0.84964 0.56305 0.0
C2060 C 0.62152 0.86074 0.57662 0.0
C2061 C 0.59587 0.88536 0.62498 0.0
C2062 C 0.60585 0.87833 0.60759 0.0
H2063 H 0.62019 0.82139 0.53084 0.0
H2064 H 0.61142 0.84157 0.53904 0.0
H2065 H 0.61247 0.86451 0.52262 0.0
H2066 H 0.5788 0.91053 0.60813 0.0
H2067 H 0.59762 0.90085 0.58697 0.0
C2068 C 0.41174 0.40097 0.86418 0.0
C2069 C 0.42077 0.39697 0.83862 0.0
C2070 C 0.40137 0.39393 0.8705 0.0
C2071 C 0.38275 0.36867 0.83417 0.0
H2072 H 0.37982 0.35928 0.94138 0.0
C2073 C 0.36511 0.32451 0.91831 0.0
C2074 C 0.35341 0.32311 0.90281 0.0
C2075 C 0.37139 0.33548 0.91388 0.0
C2076 C 0.38045 0.36193 0.91144 0.0
H2077 H 0.42557 0.38301 0.79737 0.0
H2078 H 0.4073 0.37083 0.80785 0.0
H2079 H 0.39406 0.37538 0.92307 0.0
H2080 H 0.33886 0.33229 0.87231 0.0
H2081 H 0.34998 0.35136 0.86397 0.0
H2082 H 0.36938 0.35499 0.82243 0.0
C2083 C 0.40832 0.37935 0.82321 0.0
C2084 C 0.38851 0.37117 0.90099 0.0
C2085 C 0.41878 0.3863 0.8173 0.0
C2086 C 0.34787 0.33309 0.88459 0.0
C2087 C 0.35423 0.34398 0.87962 0.0
C2088 C 0.37454 0.35957 0.8447 0.0
C2089 C 0.39975 0.38289 0.85089 0.0
C2090 C 0.38995 0.37441 0.86216 0.0
C2091 C 0.36614 0.34516 0.89341 0.0
C2092 C 0.37354 0.35593 0.88331 0.0
H2093 H 0.41301 0.40917 0.88103 0.0
H2094 H 0.39484 0.39688 0.89177 0.0
H2095 H 0.3837 0.37103 0.80407 0.0
H2096 H 0.36959 0.31699 0.93252 0.0
H2097 H 0.3806 0.33615 0.92459 0.0
C2098 C 0.8498 0.16425 0.08871 0.0
C2099 C 0.85402 0.17467 0.06951 0.0
C2100 C 0.85749 0.15439 0.09507 0.0
C2101 C 0.89032 0.14752 0.10093 0.0
H2102 H 0.87863 0.11444 0.11277 0.0
C2103 C 0.92177 0.11076 0.16111 0.0
C2104 C 0.92123 0.09926 0.14364 0.0
C2105 C 0.91268 0.11933 0.15431 0.0
C2106 C 0.8821 0.1236 0.10925 0.0
H2107 H 0.86928 0.18261 0.03932 0.0
H2108 H 0.88256 0.16513 0.04859 0.0
H2109 H 0.86487 0.13013 0.0902 0.0
H2110 H 0.9105 0.08748 0.10683 0.0
H2111 H 0.89492 0.10252 0.09371 0.0
H2112 H 0.90769 0.14091 0.11788 0.0
C2113 C 0.87347 0.16475 0.06024 0.0
C2114 C 0.87414 0.13266 0.09672 0.0
C2115 C 0.86582 0.17472 0.0545 0.0
C2116 C 0.91111 0.09626 0.1209 0.0
C2117 C 0.90215 0.10491 0.11345 0.0
C2118 C 0.89832 0.13843 0.11277 0.0
C2119 C 0.86953 0.15462 0.08177 0.0
C2120 C 0.87813 0.14476 0.09264 0.0
C2121 C 0.90299 0.11668 0.12918 0.0
C2122 C 0.89431 0.12636 0.11741 0.0
H2123 H 0.84075 0.16395 0.10081 0.0
H2124 H 0.85413 0.14687 0.11213 0.0
H2125 H 0.89372 0.15674 0.0989 0.0
H2126 H 0.92943 0.11327 0.17905 0.0
H2127 H 0.91345 0.12815 0.16795 0.0
C2128 C 0.86461 0.66366 0.9223 0.0
C2129 C 0.85246 0.66461 0.91051 0.0
C2130 C 0.87097 0.65282 0.91674 0.0
C2131 C 0.87282 0.62933 0.84666 0.0
H2132 H 0.89478 0.61346 0.91792 0.0
C2133 C 0.91215 0.58984 0.85077 0.0
C2134 C 0.92086 0.59525 0.82667 0.0
C2135 C 0.90143 0.59599 0.85955 0.0
C2136 C 0.88854 0.61768 0.89787 0.0
H2137 H 0.83719 0.65473 0.88607 0.0
H2138 H 0.84844 0.63593 0.87554 0.0
H2139 H 0.88045 0.6287 0.94176 0.0
H2140 H 0.92475 0.61074 0.7901 0.0
H2141 H 0.90581 0.62132 0.80455 0.0
H2142 H 0.88149 0.61891 0.80239 0.0
C2143 C 0.85297 0.64354 0.88925 0.0
C2144 C 0.88043 0.62641 0.91146 0.0
C2145 C 0.84656 0.65429 0.89542 0.0
C2146 C 0.9182 0.60639 0.80882 0.0
C2147 C 0.90737 0.61242 0.817 0.0
C2148 C 0.88111 0.62078 0.83295 0.0
C2149 C 0.86531 0.64285 0.89881 0.0
C2150 C 0.87266 0.63244 0.88584 0.0
C2151 C 0.89916 0.60749 0.84364 0.0
C2152 C 0.88917 0.61506 0.85838 0.0
H2153 H 0.86937 0.67146 0.93407 0.0
H2154 H 0.88052 0.6525 0.92417 0.0
H2155 H 0.86699 0.63397 0.82633 0.0
H2156 H 0.91397 0.58127 0.86502 0.0
H2157 H 0.89518 0.59203 0.88007 0.0
C2158 C 0.13466 0.17774 0.57205 0.0
C2159 C 0.13047 0.1898 0.57104 0.0
C2160 C 0.12658 0.16814 0.57851 0.0
C2161 C 0.09741 0.1625 0.62568 0.0
H2162 H 0.09927 0.13091 0.57652 0.0
C2163 C 0.06099 0.12517 0.64415 0.0
C2164 C 0.06478 0.11297 0.64437 0.0
C2165 C 0.06935 0.13452 0.63784 0.0
C2166 C 0.09876 0.13963 0.59094 0.0
H2167 H 0.11442 0.20119 0.57309 0.0
H2168 H 0.10032 0.18442 0.58379 0.0
H2169 H 0.11284 0.14721 0.5559 0.0
H2170 H 0.08041 0.10106 0.64081 0.0
H2171 H 0.09503 0.11741 0.63052 0.0
H2172 H 0.08336 0.15495 0.66078 0.0
C2173 C 0.10988 0.18241 0.58047 0.0
C2174 C 0.10649 0.14897 0.57896 0.0
C2175 C 0.11795 0.192 0.57399 0.0
C2176 C 0.0772 0.11036 0.64056 0.0
C2177 C 0.08556 0.11972 0.6343 0.0
C2178 C 0.0897 0.15316 0.63771 0.0
C2179 C 0.11417 0.17044 0.58407 0.0
C2180 C 0.10585 0.16053 0.59607 0.0
C2181 C 0.08167 0.13186 0.63173 0.0
C2182 C 0.09026 0.14163 0.62039 0.0
H2183 H 0.14426 0.17575 0.5699 0.0
H2184 H 0.13016 0.15901 0.58119 0.0
H2185 H 0.09688 0.17124 0.64 0.0
H2186 H 0.05148 0.12747 0.64695 0.0
H2187 H 0.06605 0.14377 0.63585 0.0
C2188 C 0.56546 0.37591 0.37159 0.0
C2189 C 0.56694 0.38758 0.3558 0.0
C2190 C 0.57539 0.36959 0.3863 0.0
C2191 C 0.60805 0.3665 0.37763 0.0
H2192 H 0.60444 0.34774 0.47146 0.0
C2193 C 0.64386 0.33131 0.42091 0.0
C2194 C 0.63882 0.31978 0.4282 0.0
C2195 C 0.63653 0.34167 0.42102 0.0
C2196 C 0.60561 0.35296 0.4453 0.0
H2197 H 0.58001 0.40177 0.34276 0.0
H2198 H 0.5975 0.39055 0.36804 0.0
H2199 H 0.58864 0.36209 0.45264 0.0
H2200 H 0.62239 0.31018 0.4444 0.0
H2201 H 0.60962 0.32815 0.44432 0.0
H2202 H 0.6247 0.35694 0.36916 0.0
C2203 C 0.5886 0.38637 0.36914 0.0
C2204 C 0.59658 0.36116 0.43453 0.0
C2205 C 0.57861 0.39277 0.35467 0.0
C2206 C 0.62653 0.31893 0.43848 0.0
C2207 C 0.61922 0.32927 0.43867 0.0
C2208 C 0.61707 0.35825 0.38831 0.0
C2209 C 0.58704 0.37476 0.38537 0.0
C2210 C 0.59751 0.36769 0.39993 0.0
C2211 C 0.62404 0.34069 0.42859 0.0
C2212 C 0.61575 0.35108 0.42158 0.0
H2213 H 0.5566 0.37165 0.37294 0.0
H2214 H 0.57395 0.36056 0.39792 0.0
H2215 H 0.60897 0.37137 0.35072 0.0
H2216 H 0.65333 0.33226 0.4131 0.0
H2217 H 0.64053 0.35038 0.4137 0.0
C2218 C 0.33852 0.83372 0.08242 0.0
C2219 C 0.34433 0.82428 0.06238 0.0
C2220 C 0.34468 0.84458 0.0902 0.0
C2221 C 0.3712 0.8633 0.06478 0.0
H2222 H 0.3738 0.86952 0.17434 0.0
C2223 C 0.40983 0.88254 0.16847 0.0
C2224 C 0.41282 0.89357 0.15041 0.0
C2225 C 0.39896 0.8766 0.15968 0.0
C2226 C 0.37301 0.868 0.14366 0.0
H2227 H 0.36074 0.81909 0.03238 0.0
H2228 H 0.37141 0.83815 0.04533 0.0
H2229 H 0.35916 0.8545 0.15072 0.0
H2230 H 0.40649 0.9074 0.11068 0.0
H2231 H 0.38757 0.89685 0.09475 0.0
H2232 H 0.38539 0.87645 0.05784 0.0
C2233 C 0.36214 0.83713 0.05523 0.0
C2234 C 0.36461 0.85948 0.13012 0.0
C2235 C 0.35607 0.8262 0.04798 0.0
C2236 C 0.40442 0.89891 0.12507 0.0
C2237 C 0.39363 0.89287 0.11581 0.0
C2238 C 0.37947 0.87195 0.07826 0.0
C2239 C 0.35665 0.84625 0.07745 0.0
C2240 C 0.36391 0.85678 0.09068 0.0
C2241 C 0.39097 0.88151 0.13229 0.0
C2242 C 0.38071 0.87409 0.11791 0.0
H2243 H 0.32947 0.83249 0.0939 0.0
H2244 H 0.34024 0.85151 0.10723 0.0
H2245 H 0.37079 0.86139 0.03424 0.0
H2246 H 0.41612 0.87823 0.18818 0.0
H2247 H 0.39716 0.86781 0.17258 0.0
C2248 C 0.90625 0.38918 0.65705 0.0
C2249 C 0.91075 0.39943 0.63767 0.0
C2250 C 0.89515 0.38406 0.6464 0.0
C2251 C 0.87824 0.37865 0.56064 0.0
H2252 H 0.85519 0.36382 0.6306 0.0
C2253 C 0.8573 0.3315 0.54141 0.0
C2254 C 0.84545 0.3293 0.55449 0.0
C2255 C 0.8624 0.3431 0.54442 0.0
C2256 C 0.86136 0.3681 0.61047 0.0
H2257 H 0.90692 0.41281 0.59346 0.0
H2258 H 0.88759 0.40359 0.57405 0.0
H2259 H 0.86914 0.3794 0.65429 0.0
H2260 H 0.8293 0.33771 0.57814 0.0
H2261 H 0.83832 0.35796 0.58398 0.0
H2262 H 0.87104 0.36671 0.51748 0.0
C2263 C 0.89262 0.39964 0.59774 0.0
C2264 C 0.86937 0.37696 0.62412 0.0
C2265 C 0.90363 0.40491 0.60895 0.0
C2266 C 0.83849 0.33912 0.56798 0.0
C2267 C 0.84363 0.35069 0.57142 0.0
C2268 C 0.87032 0.36968 0.5471 0.0
C2269 C 0.88846 0.38898 0.61574 0.0
C2270 C 0.87818 0.38197 0.59966 0.0
C2271 C 0.85577 0.35268 0.5609 0.0
C2272 C 0.86212 0.364 0.57226 0.0
H2273 H 0.91155 0.3848 0.67936 0.0
H2274 H 0.89221 0.37577 0.66049 0.0
H2275 H 0.88501 0.38232 0.54126 0.0
H2276 H 0.86286 0.32412 0.5307 0.0
H2277 H 0.87181 0.34435 0.53636 0.0
C2278 C 0.3525 0.16415 0.42166 0.0
C2279 C 0.3409 0.16617 0.40617 0.0
C2280 C 0.35804 0.15279 0.41785 0.0
C2281 C 0.3593 0.1287 0.34829 0.0
H2282 H 0.38042 0.11316 0.42276 0.0
C2283 C 0.399 0.08947 0.35923 0.0
C2284 C 0.40727 0.09442 0.33273 0.0
C2285 C 0.38822 0.09558 0.36768 0.0
C2286 C 0.37439 0.11724 0.40181 0.0
H2287 H 0.32565 0.15766 0.37704 0.0
H2288 H 0.33544 0.13789 0.36987 0.0
H2289 H 0.36624 0.12889 0.44391 0.0
H2290 H 0.41034 0.10903 0.292 0.0
H2291 H 0.39138 0.11954 0.3061 0.0
H2292 H 0.36798 0.1176 0.30582 0.0
C2293 C 0.34022 0.14509 0.38492 0.0
C2294 C 0.36635 0.12628 0.41388 0.0
C2295 C 0.33461 0.1564 0.38918 0.0
C2296 C 0.40414 0.10504 0.31262 0.0
C2297 C 0.39328 0.11102 0.32058 0.0
C2298 C 0.36745 0.11979 0.33614 0.0
C2299 C 0.35212 0.14332 0.39812 0.0
C2300 C 0.35898 0.13231 0.38705 0.0
C2301 C 0.38544 0.10658 0.34917 0.0
C2302 C 0.37529 0.11423 0.36264 0.0
H2303 H 0.35754 0.17149 0.43502 0.0
H2304 H 0.36726 0.15169 0.42808 0.0
H2305 H 0.35379 0.13329 0.32694 0.0
H2306 H 0.4012 0.08131 0.37523 0.0
H2307 H 0.38228 0.09196 0.38971 0.0
C2308 C 0.63907 0.66481 0.07054 0.0
C2309 C 0.63488 0.67687 0.06931 0.0
C2310 C 0.63096 0.65519 0.07656 0.0
C2311 C 0.59795 0.64755 0.07909 0.0
H2312 H 0.60832 0.62236 0.15002 0.0
C2313 C 0.56384 0.61624 0.15357 0.0
C2314 C 0.56579 0.60374 0.14795 0.0
C2315 C 0.57295 0.62465 0.14512 0.0
C2316 C 0.60535 0.62931 0.13003 0.0
H2317 H 0.61887 0.68827 0.07183 0.0
H2318 H 0.60482 0.67165 0.08322 0.0
H2319 H 0.62279 0.63789 0.12915 0.0
H2320 H 0.57913 0.59017 0.13188 0.0
H2321 H 0.5952 0.60494 0.11797 0.0
H2322 H 0.58041 0.63918 0.08118 0.0
C2323 C 0.6143 0.6695 0.07885 0.0
C2324 C 0.61364 0.63816 0.11779 0.0
C2325 C 0.62238 0.67908 0.07244 0.0
C2326 C 0.57735 0.59975 0.13644 0.0
C2327 C 0.58654 0.60819 0.12845 0.0
C2328 C 0.58965 0.63883 0.09177 0.0
C2329 C 0.61851 0.65745 0.08181 0.0
C2330 C 0.61 0.64747 0.09245 0.0
C2331 C 0.58425 0.62071 0.1314 0.0
C2332 C 0.59324 0.62972 0.11765 0.0
H2333 H 0.64866 0.66282 0.06803 0.0
H2334 H 0.63448 0.64601 0.07785 0.0
H2335 H 0.59488 0.6544 0.05893 0.0
H2336 H 0.55505 0.61961 0.16247 0.0
H2337 H 0.57105 0.63427 0.14817 0.0
C2338 C 0.07824 0.89165 0.85501 0.0
C2339 C 0.06603 0.88835 0.84952 0.0
C2340 C 0.08687 0.88285 0.86454 0.0
C2341 C 0.08922 0.8532 0.91153 0.0
H2342 H 0.1205 0.85095 0.86135 0.0
C2343 C 0.11937 0.81078 0.92026 0.0
C2344 C 0.13201 0.81208 0.91697 0.0
C2345 C 0.11184 0.82095 0.91837 0.0
C2346 C 0.11192 0.85161 0.8763 0.0
H2347 H 0.05337 0.8732 0.84817 0.0
H2348 H 0.06845 0.85787 0.86482 0.0
H2349 H 0.10638 0.8669 0.84238 0.0
H2350 H 0.14674 0.82512 0.91261 0.0
H2351 H 0.13359 0.84294 0.91034 0.0
H2352 H 0.0947 0.83794 0.94546 0.0
C2353 C 0.0713 0.86727 0.86213 0.0
C2354 C 0.10381 0.8607 0.86519 0.0
C2355 C 0.0627 0.87603 0.85224 0.0
C2356 C 0.13702 0.82383 0.91489 0.0
C2357 C 0.12949 0.83402 0.91323 0.0
C2358 C 0.09736 0.84418 0.92289 0.0
C2359 C 0.08341 0.87063 0.86912 0.0
C2360 C 0.09229 0.86143 0.88219 0.0
C2361 C 0.11679 0.83265 0.91345 0.0
C2362 C 0.10873 0.84313 0.90491 0.0
H2363 H 0.08107 0.90108 0.85312 0.0
H2364 H 0.09615 0.88567 0.86977 0.0
H2365 H 0.08048 0.85373 0.92564 0.0
H2366 H 0.11523 0.80185 0.92192 0.0
H2367 H 0.10212 0.81952 0.91838 0.0
loop_
_geom_bond_atom_site_label_1
_geom_bond_atom_site_label_2
_geom_bond_distance
_geom_bond_site_symmetry_2
_ccdc_geom_bond_type
C0 O1 1.306 1_556 S
C0 O3 1.160 . S
O1 C0 1.306 1_554 S
O1 Cd2 2.228 . S
Cd2 O1 2.228 . S
Cd2 O6 2.273 . S
Cd2 O10 2.277 . S
O3 C0 1.160 . S
O3 Cd4 2.203 1_556 S
Cd4 O3 2.203 1_554 S
Cd4 O6 2.411 . S
Cd4 O7 2.333 . S
Cd4 O8 2.352 . S
Cd4 O12 2.277 . S
Cd4 O13 2.356 . S
C5 O10 1.209 . S
C5 O12 1.226 . S
O6 Cd2 2.273 . S
O6 Cd4 2.411 . S
O6 C9 1.320 . S
O7 Cd4 2.333 . S
O7 C9 1.214 . S
O8 Cd4 2.352 . S
O8 C11 1.258 . S
C9 O6 1.320 . S
C9 O7 1.214 . S
O10 Cd2 2.277 . S
O10 C5 1.209 . S
C11 O8 1.258 . S
C11 O13 1.282 . S
O12 Cd4 2.277 . S
O12 C5 1.226 . S
O13 Cd4 2.356 . S
O13 C11 1.282 . S
C14 O15 1.306 . S
C14 O17 1.160 . S
O15 C14 1.306 . S
O15 Cd16 2.228 . S
Cd16 O15 2.228 . S
Cd16 O20 2.273 . S
Cd16 O24 2.277 . S
O17 C14 1.160 . S
O17 Cd18 2.203 . S
Cd18 O17 2.203 . S
Cd18 O20 2.411 . S
Cd18 O21 2.333 . S
Cd18 O22 2.352 . S
Cd18 O26 2.277 . S
Cd18 O27 2.356 . S
C19 O24 1.209 . S
C19 O26 1.226 . S
O20 Cd16 2.273 . S
O20 Cd18 2.411 . S
O20 C23 1.320 . S
O21 Cd18 2.333 . S
O21 C23 1.214 . S
O22 Cd18 2.352 . S
O22 C25 1.258 . S
C23 O20 1.320 . S
C23 O21 1.214 . S
O24 Cd16 2.277 . S
O24 C19 1.209 . S
C25 O22 1.258 . S
C25 O27 1.282 . S
O26 Cd18 2.277 . S
O26 C19 1.226 . S
O27 Cd18 2.356 . S
O27 C25 1.282 . S
C28 O29 1.306 . S
C28 O31 1.160 . S
O29 C28 1.306 . S
O29 Cd30 2.228 . S
Cd30 O29 2.228 . S
Cd30 O34 2.273 . S
Cd30 O38 2.277 . S
O31 C28 1.160 . S
O31 Cd32 2.203 . S
Cd32 O31 2.203 . S
Cd32 O34 2.411 . S
Cd32 O35 2.333 . S
Cd32 O36 2.352 . S
Cd32 O40 2.277 . S
Cd32 O41 2.356 . S
C33 O38 1.209 . S
C33 O40 1.226 . S
O34 Cd30 2.273 . S
O34 Cd32 2.411 . S
O34 C37 1.320 . S
O35 Cd32 2.333 . S
O35 C37 1.214 . S
O36 Cd32 2.352 . S
O36 C39 1.258 . S
C37 O34 1.320 . S
C37 O35 1.214 . S
O38 Cd30 2.277 . S
O38 C33 1.209 . S
C39 O36 1.258 . S
C39 O41 1.282 . S
O40 Cd32 2.277 . S
O40 C33 1.226 . S
O41 Cd32 2.356 . S
O41 C39 1.282 . S
C42 O43 1.306 . S
C42 O45 1.160 . S
O43 C42 1.306 . S
O43 Cd44 2.228 . S
Cd44 O43 2.228 . S
Cd44 O48 2.273 . S
Cd44 O52 2.277 . S
O45 C42 1.160 . S
O45 Cd46 2.203 . S
Cd46 O45 2.203 . S
Cd46 O48 2.411 . S
Cd46 O49 2.333 . S
Cd46 O50 2.352 . S
Cd46 O54 2.277 . S
Cd46 O55 2.356 . S
C47 O52 1.209 . S
C47 O54 1.226 . S
O48 Cd44 2.273 . S
O48 Cd46 2.411 . S
O48 C51 1.320 . S
O49 Cd46 2.333 . S
O49 C51 1.214 . S
O50 Cd46 2.352 . S
O50 C53 1.258 . S
C51 O48 1.320 . S
C51 O49 1.214 . S
O52 Cd44 2.277 . S
O52 C47 1.209 . S
C53 O50 1.258 . S
C53 O55 1.282 . S
O54 Cd46 2.277 . S
O54 C47 1.226 . S
O55 Cd46 2.356 . S
O55 C53 1.282 . S
C56 O57 1.306 . S
C56 O59 1.160 . S
O57 C56 1.306 . S
O57 Cd58 2.228 . S
Cd58 O57 2.228 . S
Cd58 O62 2.273 . S
Cd58 O66 2.277 . S
O59 C56 1.160 . S
O59 Cd60 2.203 . S
Cd60 O59 2.203 . S
Cd60 O62 2.411 . S
Cd60 O63 2.333 . S
Cd60 O64 2.352 . S
Cd60 O68 2.277 . S
Cd60 O69 2.356 . S
C61 O66 1.209 . S
C61 O68 1.226 . S
O62 Cd58 2.273 . S
O62 Cd60 2.411 . S
O62 C65 1.320 . S
O63 Cd60 2.333 . S
O63 C65 1.214 . S
O64 Cd60 2.352 . S
O64 C67 1.258 . S
C65 O62 1.320 . S
C65 O63 1.214 . S
O66 Cd58 2.277 . S
O66 C61 1.209 . S
C67 O64 1.258 . S
C67 O69 1.282 . S
O68 Cd60 2.277 . S
O68 C61 1.226 . S
O69 Cd60 2.356 . S
O69 C67 1.282 . S
C70 O71 1.306 . S
C70 O73 1.160 . S
O71 C70 1.306 . S
O71 Cd72 2.228 . S
Cd72 O71 2.228 . S
Cd72 O76 2.273 . S
Cd72 O80 2.277 . S
O73 C70 1.160 . S
O73 Cd74 2.203 . S
Cd74 O73 2.203 . S
Cd74 O76 2.411 . S
Cd74 O77 2.333 . S
Cd74 O78 2.352 . S
Cd74 O82 2.277 . S
Cd74 O83 2.356 . S
C75 O80 1.209 . S
C75 O82 1.226 . S
O76 Cd72 2.273 . S
O76 Cd74 2.411 . S
O76 C79 1.320 . S
O77 Cd74 2.333 . S
O77 C79 1.214 . S
O78 Cd74 2.352 . S
O78 C81 1.258 . S
C79 O76 1.320 . S
C79 O77 1.214 . S
O80 Cd72 2.277 . S
O80 C75 1.209 . S
C81 O78 1.258 . S
C81 O83 1.282 . S
O82 Cd74 2.277 . S
O82 C75 1.226 . S
O83 Cd74 2.356 . S
O83 C81 1.282 . S
C84 O85 1.306 1_554 S
C84 O87 1.160 . S
O85 C84 1.306 1_556 S
O85 Cd86 2.228 . S
Cd86 O85 2.228 . S
Cd86 O90 2.273 . S
Cd86 O94 2.277 . S
O87 C84 1.160 . S
O87 Cd88 2.203 1_554 S
Cd88 O87 2.203 1_556 S
Cd88 O90 2.411 . S
Cd88 O91 2.333 . S
Cd88 O92 2.352 . S
Cd88 O96 2.277 . S
Cd88 O97 2.356 . S
C89 O94 1.209 . S
C89 O96 1.226 . S
O90 Cd86 2.273 . S
O90 Cd88 2.411 . S
O90 C93 1.320 . S
O91 Cd88 2.333 . S
O91 C93 1.214 . S
O92 Cd88 2.352 . S
O92 C95 1.258 . S
C93 O90 1.320 . S
C93 O91 1.214 . S
O94 Cd86 2.277 . S
O94 C89 1.209 . S
C95 O92 1.258 . S
C95 O97 1.282 . S
O96 Cd88 2.277 . S
O96 C89 1.226 . S
O97 Cd88 2.356 . S
O97 C95 1.282 . S
C98 O99 1.306 . S
C98 O101 1.160 . S
O99 C98 1.306 . S
O99 Cd100 2.228 . S
Cd100 O99 2.228 . S
Cd100 O104 2.273 . S
Cd100 O108 2.277 . S
O101 C98 1.160 . S
O101 Cd102 2.203 . S
Cd102 O101 2.203 . S
Cd102 O104 2.411 . S
Cd102 O105 2.333 . S
Cd102 O106 2.352 . S
Cd102 O110 2.277 . S
Cd102 O111 2.356 . S
C103 O108 1.209 . S
C103 O110 1.226 . S
O104 Cd100 2.273 . S
O104 Cd102 2.411 . S
O104 C107 1.320 . S
O105 Cd102 2.333 . S
O105 C107 1.214 . S
O106 Cd102 2.352 . S
O106 C109 1.258 . S
C107 O104 1.320 . S
C107 O105 1.214 . S
O108 Cd100 2.277 . S
O108 C103 1.209 . S
C109 O106 1.258 . S
C109 O111 1.282 . S
O110 Cd102 2.277 . S
O110 C103 1.226 . S
O111 Cd102 2.356 . S
O111 C109 1.282 . S
C112 O113 1.306 1_554 S
C112 O115 1.160 . S
O113 C112 1.306 1_556 S
O113 Cd114 2.228 . S
Cd114 O113 2.228 . S
Cd114 O118 2.273 . S
Cd114 O122 2.277 . S
O115 C112 1.160 . S
O115 Cd116 2.203 1_554 S
Cd116 O115 2.203 1_556 S
Cd116 O118 2.411 . S
Cd116 O119 2.333 . S
Cd116 O120 2.352 . S
Cd116 O124 2.277 . S
Cd116 O125 2.356 . S
C117 O122 1.209 . S
C117 O124 1.226 . S
O118 Cd114 2.273 . S
O118 Cd116 2.411 . S
O118 C121 1.320 . S
O119 Cd116 2.333 . S
O119 C121 1.214 . S
O120 Cd116 2.352 . S
O120 C123 1.258 . S
C121 O118 1.320 . S
C121 O119 1.214 . S
O122 Cd114 2.277 . S
O122 C117 1.209 . S
C123 O120 1.258 . S
C123 O125 1.282 . S
O124 Cd116 2.277 . S
O124 C117 1.226 . S
O125 Cd116 2.356 . S
O125 C123 1.282 . S
C126 O127 1.306 . S
C126 O129 1.160 . S
O127 C126 1.306 . S
O127 Cd128 2.228 . S
Cd128 O127 2.228 . S
Cd128 O132 2.273 . S
Cd128 O136 2.277 . S
O129 C126 1.160 . S
O129 Cd130 2.203 . S
Cd130 O129 2.203 . S
Cd130 O132 2.411 . S
Cd130 O133 2.333 . S
Cd130 O134 2.352 . S
Cd130 O138 2.277 . S
Cd130 O139 2.356 . S
C131 O136 1.209 . S
C131 O138 1.226 . S
O132 Cd128 2.273 . S
O132 Cd130 2.411 . S
O132 C135 1.320 . S
O133 Cd130 2.333 . S
O133 C135 1.214 . S
O134 Cd130 2.352 . S
O134 C137 1.258 . S
C135 O132 1.320 . S
C135 O133 1.214 . S
O136 Cd128 2.277 . S
O136 C131 1.209 . S
C137 O134 1.258 . S
C137 O139 1.282 . S
O138 Cd130 2.277 . S
O138 C131 1.226 . S
O139 Cd130 2.356 . S
O139 C137 1.282 . S
C140 O141 1.306 . S
C140 O143 1.160 . S
O141 C140 1.306 . S
O141 Cd142 2.228 . S
Cd142 O141 2.228 . S
Cd142 O146 2.273 . S
Cd142 O150 2.277 . S
O143 C140 1.160 . S
O143 Cd144 2.203 . S
Cd144 O143 2.203 . S
Cd144 O146 2.411 . S
Cd144 O147 2.333 . S
Cd144 O148 2.352 . S
Cd144 O152 2.277 . S
Cd144 O153 2.356 . S
C145 O150 1.209 . S
C145 O152 1.226 . S
O146 Cd142 2.273 . S
O146 Cd144 2.411 . S
O146 C149 1.320 . S
O147 Cd144 2.333 . S
O147 C149 1.214 . S
O148 Cd144 2.352 . S
O148 C151 1.258 . S
C149 O146 1.320 . S
C149 O147 1.214 . S
O150 Cd142 2.277 . S
O150 C145 1.209 . S
C151 O148 1.258 . S
C151 O153 1.282 . S
O152 Cd144 2.277 . S
O152 C145 1.226 . S
O153 Cd144 2.356 . S
O153 C151 1.282 . S
C154 O155 1.306 . S
C154 O157 1.160 . S
O155 C154 1.306 . S
O155 Cd156 2.228 . S
Cd156 O155 2.228 . S
Cd156 O160 2.273 . S
Cd156 O164 2.277 . S
O157 C154 1.160 . S
O157 Cd158 2.203 . S
Cd158 O157 2.203 . S
Cd158 O160 2.411 . S
Cd158 O161 2.333 . S
Cd158 O162 2.352 . S
Cd158 O166 2.277 . S
Cd158 O167 2.356 . S
C159 O164 1.209 . S
C159 O166 1.226 . S
O160 Cd156 2.273 . S
O160 Cd158 2.411 . S
O160 C163 1.320 . S
O161 Cd158 2.333 . S
O161 C163 1.214 . S
O162 Cd158 2.352 . S
O162 C165 1.258 . S
C163 O160 1.320 . S
C163 O161 1.214 . S
O164 Cd156 2.277 . S
O164 C159 1.209 . S
C165 O162 1.258 . S
C165 O167 1.282 . S
O166 Cd158 2.277 . S
O166 C159 1.226 . S
O167 Cd158 2.356 . S
O167 C165 1.282 . S
C168 O169 1.306 . S
C168 O171 1.160 . S
O169 C168 1.306 . S
O169 Cd170 2.228 . S
Cd170 O169 2.228 . S
Cd170 O174 2.273 . S
Cd170 O178 2.277 . S
O171 C168 1.160 . S
O171 Cd172 2.203 . S
Cd172 O171 2.203 . S
Cd172 O174 2.411 . S
Cd172 O175 2.333 . S
Cd172 O176 2.352 . S
Cd172 O180 2.277 . S
Cd172 O181 2.356 . S
C173 O178 1.209 . S
C173 O180 1.226 . S
O174 Cd170 2.273 . S
O174 Cd172 2.411 . S
O174 C177 1.320 . S
O175 Cd172 2.333 . S
O175 C177 1.214 . S
O176 Cd172 2.352 . S
O176 C179 1.258 . S
C177 O174 1.320 . S
C177 O175 1.214 . S
O178 Cd170 2.277 . S
O178 C173 1.209 . S
C179 O176 1.258 . S
C179 O181 1.282 . S
O180 Cd172 2.277 . S
O180 C173 1.226 . S
O181 Cd172 2.356 . S
O181 C179 1.282 . S
C182 O183 1.306 . S
C182 O185 1.160 . S
O183 C182 1.306 . S
O183 Cd184 2.228 . S
Cd184 O183 2.228 . S
Cd184 O188 2.273 . S
Cd184 O192 2.277 . S
O185 C182 1.160 . S
O185 Cd186 2.203 . S
Cd186 O185 2.203 . S
Cd186 O188 2.411 . S
Cd186 O189 2.333 . S
Cd186 O190 2.352 . S
Cd186 O194 2.277 . S
Cd186 O195 2.356 . S
C187 O192 1.209 . S
C187 O194 1.226 . S
O188 Cd184 2.273 . S
O188 Cd186 2.411 . S
O188 C191 1.320 . S
O189 Cd186 2.333 . S
O189 C191 1.214 . S
O190 Cd186 2.352 . S
O190 C193 1.258 . S
C191 O188 1.320 . S
C191 O189 1.214 . S
O192 Cd184 2.277 . S
O192 C187 1.209 . S
C193 O190 1.258 . S
C193 O195 1.282 . S
O194 Cd186 2.277 . S
O194 C187 1.226 . S
O195 Cd186 2.356 . S
O195 C193 1.282 . S
C196 O197 1.306 1_556 S
C196 O199 1.160 . S
O197 C196 1.306 1_554 S
O197 Cd198 2.228 . S
Cd198 O197 2.228 . S
Cd198 O202 2.273 . S
Cd198 O206 2.277 . S
O199 C196 1.160 . S
O199 Cd200 2.203 1_556 S
Cd200 O199 2.203 1_554 S
Cd200 O202 2.411 . S
Cd200 O203 2.333 . S
Cd200 O204 2.352 . S
Cd200 O208 2.277 . S
Cd200 O209 2.356 . S
C201 O206 1.209 . S
C201 O208 1.226 . S
O202 Cd198 2.273 . S
O202 Cd200 2.411 . S
O202 C205 1.320 . S
O203 Cd200 2.333 . S
O203 C205 1.214 . S
O204 Cd200 2.352 . S
O204 C207 1.258 . S
C205 O202 1.320 . S
C205 O203 1.214 . S
O206 Cd198 2.277 . S
O206 C201 1.209 . S
C207 O204 1.258 . S
C207 O209 1.282 . S
O208 Cd200 2.277 . S
O208 C201 1.226 . S
O209 Cd200 2.356 . S
O209 C207 1.282 . S
C210 O211 1.306 . S
C210 O213 1.160 . S
O211 C210 1.306 . S
O211 Cd212 2.228 . S
Cd212 O211 2.228 . S
Cd212 O216 2.273 . S
Cd212 O220 2.277 . S
O213 C210 1.160 . S
O213 Cd214 2.203 . S
Cd214 O213 2.203 . S
Cd214 O216 2.411 . S
Cd214 O217 2.333 . S
Cd214 O218 2.352 . S
Cd214 O222 2.277 . S
Cd214 O223 2.356 . S
C215 O220 1.209 . S
C215 O222 1.226 . S
O216 Cd212 2.273 . S
O216 Cd214 2.411 . S
O216 C219 1.320 . S
O217 Cd214 2.333 . S
O217 C219 1.214 . S
O218 Cd214 2.352 . S
O218 C221 1.258 . S
C219 O216 1.320 . S
C219 O217 1.214 . S
O220 Cd212 2.277 . S
O220 C215 1.209 . S
C221 O218 1.258 . S
C221 O223 1.282 . S
O222 Cd214 2.277 . S
O222 C215 1.226 . S
O223 Cd214 2.356 . S
O223 C221 1.282 . S
C224 O225 1.306 . S
C224 O227 1.160 . S
O225 C224 1.306 . S
O225 Cd226 2.228 . S
Cd226 O225 2.228 . S
Cd226 O230 2.273 . S
Cd226 O234 2.277 . S
O227 C224 1.160 . S
O227 Cd228 2.203 . S
Cd228 O227 2.203 . S
Cd228 O230 2.411 . S
Cd228 O231 2.333 . S
Cd228 O232 2.352 . S
Cd228 O236 2.277 . S
Cd228 O237 2.356 . S
C229 O234 1.209 . S
C229 O236 1.226 . S
O230 Cd226 2.273 . S
O230 Cd228 2.411 . S
O230 C233 1.320 . S
O231 Cd228 2.333 . S
O231 C233 1.214 . S
O232 Cd228 2.352 . S
O232 C235 1.258 . S
C233 O230 1.320 . S
C233 O231 1.214 . S
O234 Cd226 2.277 . S
O234 C229 1.209 . S
C235 O232 1.258 . S
C235 O237 1.282 . S
O236 Cd228 2.277 . S
O236 C229 1.226 . S
O237 Cd228 2.356 . S
O237 C235 1.282 . S
C238 O239 1.306 . S
C238 O241 1.160 . S
O239 C238 1.306 . S
O239 Cd240 2.228 . S
Cd240 O239 2.228 . S
Cd240 O244 2.273 . S
Cd240 O248 2.277 . S
O241 C238 1.160 . S
O241 Cd242 2.203 . S
Cd242 O241 2.203 . S
Cd242 O244 2.411 . S
Cd242 O245 2.333 . S
Cd242 O246 2.352 . S
Cd242 O250 2.277 . S
Cd242 O251 2.356 . S
C243 O248 1.209 . S
C243 O250 1.226 . S
O244 Cd240 2.273 . S
O244 Cd242 2.411 . S
O244 C247 1.320 . S
O245 Cd242 2.333 . S
O245 C247 1.214 . S
O246 Cd242 2.352 . S
O246 C249 1.258 . S
C247 O244 1.320 . S
C247 O245 1.214 . S
O248 Cd240 2.277 . S
O248 C243 1.209 . S
C249 O246 1.258 . S
C249 O251 1.282 . S
O250 Cd242 2.277 . S
O250 C243 1.226 . S
O251 Cd242 2.356 . S
O251 C249 1.282 . S
C252 O253 1.306 1_556 S
C252 O255 1.160 . S
O253 C252 1.306 1_554 S
O253 Cd254 2.228 . S
Cd254 O253 2.228 . S
Cd254 O258 2.273 . S
Cd254 O262 2.277 . S
O255 C252 1.160 . S
O255 Cd256 2.203 1_556 S
Cd256 O255 2.203 1_554 S
Cd256 O258 2.411 . S
Cd256 O259 2.333 . S
Cd256 O260 2.352 . S
Cd256 O264 2.277 . S
Cd256 O265 2.356 . S
C257 O262 1.209 . S
C257 O264 1.226 . S
O258 Cd254 2.273 . S
O258 Cd256 2.411 . S
O258 C261 1.320 . S
O259 Cd256 2.333 . S
O259 C261 1.214 . S
O260 Cd256 2.352 . S
O260 C263 1.258 . S
C261 O258 1.320 . S
C261 O259 1.214 . S
O262 Cd254 2.277 . S
O262 C257 1.209 . S
C263 O260 1.258 . S
C263 O265 1.282 . S
O264 Cd256 2.277 . S
O264 C257 1.226 . S
O265 Cd256 2.356 . S
O265 C263 1.282 . S
C266 O267 1.306 . S
C266 O269 1.160 . S
O267 C266 1.306 . S
O267 Cd268 2.228 . S
Cd268 O267 2.228 . S
Cd268 O272 2.273 . S
Cd268 O276 2.277 . S
O269 C266 1.160 . S
O269 Cd270 2.203 . S
Cd270 O269 2.203 . S
Cd270 O272 2.411 . S
Cd270 O273 2.333 . S
Cd270 O274 2.352 . S
Cd270 O278 2.277 . S
Cd270 O279 2.356 . S
C271 O276 1.209 . S
C271 O278 1.226 . S
O272 Cd268 2.273 . S
O272 Cd270 2.411 . S
O272 C275 1.320 . S
O273 Cd270 2.333 . S
O273 C275 1.214 . S
O274 Cd270 2.352 . S
O274 C277 1.258 . S
C275 O272 1.320 . S
C275 O273 1.214 . S
O276 Cd268 2.277 . S
O276 C271 1.209 . S
C277 O274 1.258 . S
C277 O279 1.282 . S
O278 Cd270 2.277 . S
O278 C271 1.226 . S
O279 Cd270 2.356 . S
O279 C277 1.282 . S
C280 O281 1.306 1_554 S
C280 O283 1.160 . S
O281 C280 1.306 1_556 S
O281 Cd282 2.228 . S
Cd282 O281 2.228 . S
Cd282 O286 2.273 . S
Cd282 O290 2.277 . S
O283 C280 1.160 . S
O283 Cd284 2.203 1_554 S
Cd284 O283 2.203 1_556 S
Cd284 O286 2.411 . S
Cd284 O287 2.333 . S
Cd284 O288 2.352 . S
Cd284 O292 2.277 . S
Cd284 O293 2.356 . S
C285 O290 1.209 . S
C285 O292 1.226 . S
O286 Cd282 2.273 . S
O286 Cd284 2.411 . S
O286 C289 1.320 . S
O287 Cd284 2.333 . S
O287 C289 1.214 . S
O288 Cd284 2.352 . S
O288 C291 1.258 . S
C289 O286 1.320 . S
C289 O287 1.214 . S
O290 Cd282 2.277 . S
O290 C285 1.209 . S
C291 O288 1.258 . S
C291 O293 1.282 . S
O292 Cd284 2.277 . S
O292 C285 1.226 . S
O293 Cd284 2.356 . S
O293 C291 1.282 . S
C294 O295 1.306 . S
C294 O297 1.160 . S
O295 C294 1.306 . S
O295 Cd296 2.228 . S
Cd296 O295 2.228 . S
Cd296 O300 2.273 . S
Cd296 O304 2.277 . S
O297 C294 1.160 . S
O297 Cd298 2.203 . S
Cd298 O297 2.203 . S
Cd298 O300 2.411 . S
Cd298 O301 2.333 . S
Cd298 O302 2.352 . S
Cd298 O306 2.277 . S
Cd298 O307 2.356 . S
C299 O304 1.209 . S
C299 O306 1.226 . S
O300 Cd296 2.273 . S
O300 Cd298 2.411 . S
O300 C303 1.320 . S
O301 Cd298 2.333 . S
O301 C303 1.214 . S
O302 Cd298 2.352 . S
O302 C305 1.258 . S
C303 O300 1.320 . S
C303 O301 1.214 . S
O304 Cd296 2.277 . S
O304 C299 1.209 . S
C305 O302 1.258 . S
C305 O307 1.282 . S
O306 Cd298 2.277 . S
O306 C299 1.226 . S
O307 Cd298 2.356 . S
O307 C305 1.282 . S
C308 O309 1.306 . S
C308 O311 1.160 . S
O309 C308 1.306 . S
O309 Cd310 2.228 . S
Cd310 O309 2.228 . S
Cd310 O314 2.273 . S
Cd310 O318 2.277 . S
O311 C308 1.160 . S
O311 Cd312 2.203 . S
Cd312 O311 2.203 . S
Cd312 O314 2.411 . S
Cd312 O315 2.333 . S
Cd312 O316 2.352 . S
Cd312 O320 2.277 . S
Cd312 O321 2.356 . S
C313 O318 1.209 . S
C313 O320 1.226 . S
O314 Cd310 2.273 . S
O314 Cd312 2.411 . S
O314 C317 1.320 . S
O315 Cd312 2.333 . S
O315 C317 1.214 . S
O316 Cd312 2.352 . S
O316 C319 1.258 . S
C317 O314 1.320 . S
C317 O315 1.214 . S
O318 Cd310 2.277 . S
O318 C313 1.209 . S
C319 O316 1.258 . S
C319 O321 1.282 . S
O320 Cd312 2.277 . S
O320 C313 1.226 . S
O321 Cd312 2.356 . S
O321 C319 1.282 . S
C322 O323 1.306 . S
C322 O325 1.160 . S
O323 C322 1.306 . S
O323 Cd324 2.228 . S
Cd324 O323 2.228 . S
Cd324 O328 2.273 . S
Cd324 O332 2.277 . S
O325 C322 1.160 . S
O325 Cd326 2.203 . S
Cd326 O325 2.203 . S
Cd326 O328 2.411 . S
Cd326 O329 2.333 . S
Cd326 O330 2.352 . S
Cd326 O334 2.277 . S
Cd326 O335 2.356 . S
C327 O332 1.209 . S
C327 O334 1.226 . S
O328 Cd324 2.273 . S
O328 Cd326 2.411 . S
O328 C331 1.320 . S
O329 Cd326 2.333 . S
O329 C331 1.214 . S
O330 Cd326 2.352 . S
O330 C333 1.258 . S
C331 O328 1.320 . S
C331 O329 1.214 . S
O332 Cd324 2.277 . S
O332 C327 1.209 . S
C333 O330 1.258 . S
C333 O335 1.282 . S
O334 Cd326 2.277 . S
O334 C327 1.226 . S
O335 Cd326 2.356 . S
O335 C333 1.282 . S
C336 O337 1.306 . S
C336 O339 1.160 . S
O337 C336 1.306 . S
O337 Cd338 2.228 . S
Cd338 O337 2.228 . S
Cd338 O342 2.273 . S
Cd338 O346 2.277 . S
O339 C336 1.160 . S
O339 Cd340 2.203 . S
Cd340 O339 2.203 . S
Cd340 O342 2.411 . S
Cd340 O343 2.333 . S
Cd340 O344 2.352 . S
Cd340 O348 2.277 . S
Cd340 O349 2.356 . S
C341 O346 1.209 . S
C341 O348 1.226 . S
O342 Cd338 2.273 . S
O342 Cd340 2.411 . S
O342 C345 1.320 . S
O343 Cd340 2.333 . S
O343 C345 1.214 . S
O344 Cd340 2.352 . S
O344 C347 1.258 . S
C345 O342 1.320 . S
C345 O343 1.214 . S
O346 Cd338 2.277 . S
O346 C341 1.209 . S
C347 O344 1.258 . S
C347 O349 1.282 . S
O348 Cd340 2.277 . S
O348 C341 1.226 . S
O349 Cd340 2.356 . S
O349 C347 1.282 . S
C350 O351 1.306 . S
C350 O353 1.160 . S
O351 C350 1.306 . S
O351 Cd352 2.228 . S
Cd352 O351 2.228 . S
Cd352 O356 2.273 . S
Cd352 O360 2.277 . S
O353 C350 1.160 . S
O353 Cd354 2.203 . S
Cd354 O353 2.203 . S
Cd354 O356 2.411 . S
Cd354 O357 2.333 . S
Cd354 O358 2.352 . S
Cd354 O362 2.277 . S
Cd354 O363 2.356 . S
C355 O360 1.209 . S
C355 O362 1.226 . S
O356 Cd352 2.273 . S
O356 Cd354 2.411 . S
O356 C359 1.320 . S
O357 Cd354 2.333 . S
O357 C359 1.214 . S
O358 Cd354 2.352 . S
O358 C361 1.258 . S
C359 O356 1.320 . S
C359 O357 1.214 . S
O360 Cd352 2.277 . S
O360 C355 1.209 . S
C361 O358 1.258 . S
C361 O363 1.282 . S
O362 Cd354 2.277 . S
O362 C355 1.226 . S
O363 Cd354 2.356 . S
O363 C361 1.282 . S
C364 O365 1.306 1_554 S
C364 O367 1.160 . S
O365 C364 1.306 1_556 S
O365 Cd366 2.228 . S
Cd366 O365 2.228 . S
Cd366 O370 2.273 . S
Cd366 O374 2.277 . S
O367 C364 1.160 . S
O367 Cd368 2.203 1_554 S
Cd368 O367 2.203 1_556 S
Cd368 O370 2.411 . S
Cd368 O371 2.333 . S
Cd368 O372 2.352 . S
Cd368 O376 2.277 . S
Cd368 O377 2.356 . S
C369 O374 1.209 . S
C369 O376 1.226 . S
O370 Cd366 2.273 . S
O370 Cd368 2.411 . S
O370 C373 1.320 . S
O371 Cd368 2.333 . S
O371 C373 1.214 . S
O372 Cd368 2.352 . S
O372 C375 1.258 . S
C373 O370 1.320 . S
C373 O371 1.214 . S
O374 Cd366 2.277 . S
O374 C369 1.209 . S
C375 O372 1.258 . S
C375 O377 1.282 . S
O376 Cd368 2.277 . S
O376 C369 1.226 . S
O377 Cd368 2.356 . S
O377 C375 1.282 . S
C378 O379 1.306 . S
C378 O381 1.160 . S
O379 C378 1.306 . S
O379 Cd380 2.228 . S
Cd380 O379 2.228 . S
Cd380 O384 2.273 . S
Cd380 O388 2.277 . S
O381 C378 1.160 . S
O381 Cd382 2.203 . S
Cd382 O381 2.203 . S
Cd382 O384 2.411 . S
Cd382 O385 2.333 . S
Cd382 O386 2.352 . S
Cd382 O390 2.277 . S
Cd382 O391 2.356 . S
C383 O388 1.209 . S
C383 O390 1.226 . S
O384 Cd380 2.273 . S
O384 Cd382 2.411 . S
O384 C387 1.320 . S
O385 Cd382 2.333 . S
O385 C387 1.214 . S
O386 Cd382 2.352 . S
O386 C389 1.258 . S
C387 O384 1.320 . S
C387 O385 1.214 . S
O388 Cd380 2.277 . S
O388 C383 1.209 . S
C389 O386 1.258 . S
C389 O391 1.282 . S
O390 Cd382 2.277 . S
O390 C383 1.226 . S
O391 Cd382 2.356 . S
O391 C389 1.282 . S
C392 O393 1.306 1_556 S
C392 O395 1.160 . S
O393 C392 1.306 1_554 S
O393 Cd394 2.228 . S
Cd394 O393 2.228 . S
Cd394 O398 2.273 . S
Cd394 O402 2.277 . S
O395 C392 1.160 . S
O395 Cd396 2.203 1_556 S
Cd396 O395 2.203 1_554 S
Cd396 O398 2.411 . S
Cd396 O399 2.333 . S
Cd396 O400 2.352 . S
Cd396 O404 2.277 . S
Cd396 O405 2.356 . S
C397 O402 1.209 . S
C397 O404 1.226 . S
O398 Cd394 2.273 . S
O398 Cd396 2.411 . S
O398 C401 1.320 . S
O399 Cd396 2.333 . S
O399 C401 1.214 . S
O400 Cd396 2.352 . S
O400 C403 1.258 . S
C401 O398 1.320 . S
C401 O399 1.214 . S
O402 Cd394 2.277 . S
O402 C397 1.209 . S
C403 O400 1.258 . S
C403 O405 1.282 . S
O404 Cd396 2.277 . S
O404 C397 1.226 . S
O405 Cd396 2.356 . S
O405 C403 1.282 . S
C406 O407 1.306 . S
C406 O409 1.160 . S
O407 C406 1.306 . S
O407 Cd408 2.228 . S
Cd408 O407 2.228 . S
Cd408 O412 2.273 . S
Cd408 O416 2.277 . S
O409 C406 1.160 . S
O409 Cd410 2.203 . S
Cd410 O409 2.203 . S
Cd410 O412 2.411 . S
Cd410 O413 2.333 . S
Cd410 O414 2.352 . S
Cd410 O418 2.277 . S
Cd410 O419 2.356 . S
C411 O416 1.209 . S
C411 O418 1.226 . S
O412 Cd408 2.273 . S
O412 Cd410 2.411 . S
O412 C415 1.320 . S
O413 Cd410 2.333 . S
O413 C415 1.214 . S
O414 Cd410 2.352 . S
O414 C417 1.258 . S
C415 O412 1.320 . S
C415 O413 1.214 . S
O416 Cd408 2.277 . S
O416 C411 1.209 . S
C417 O414 1.258 . S
C417 O419 1.282 . S
O418 Cd410 2.277 . S
O418 C411 1.226 . S
O419 Cd410 2.356 . S
O419 C417 1.282 . S
C420 O421 1.306 . S
C420 O423 1.160 . S
O421 C420 1.306 . S
O421 Cd422 2.228 . S
Cd422 O421 2.228 . S
Cd422 O426 2.273 . S
Cd422 O430 2.277 . S
O423 C420 1.160 . S
O423 Cd424 2.203 . S
Cd424 O423 2.203 . S
Cd424 O426 2.411 . S
Cd424 O427 2.333 . S
Cd424 O428 2.352 . S
Cd424 O432 2.277 . S
Cd424 O433 2.356 . S
C425 O430 1.209 . S
C425 O432 1.226 . S
O426 Cd422 2.273 . S
O426 Cd424 2.411 . S
O426 C429 1.320 . S
O427 Cd424 2.333 . S
O427 C429 1.214 . S
O428 Cd424 2.352 . S
O428 C431 1.258 . S
C429 O426 1.320 . S
C429 O427 1.214 . S
O430 Cd422 2.277 . S
O430 C425 1.209 . S
C431 O428 1.258 . S
C431 O433 1.282 . S
O432 Cd424 2.277 . S
O432 C425 1.226 . S
O433 Cd424 2.356 . S
O433 C431 1.282 . S
C434 O435 1.306 . S
C434 O437 1.160 . S
O435 C434 1.306 . S
O435 Cd436 2.228 . S
Cd436 O435 2.228 . S
Cd436 O440 2.273 . S
Cd436 O444 2.277 . S
O437 C434 1.160 . S
O437 Cd438 2.203 . S
Cd438 O437 2.203 . S
Cd438 O440 2.411 . S
Cd438 O441 2.333 . S
Cd438 O442 2.352 . S
Cd438 O446 2.277 . S
Cd438 O447 2.356 . S
C439 O444 1.209 . S
C439 O446 1.226 . S
O440 Cd436 2.273 . S
O440 Cd438 2.411 . S
O440 C443 1.320 . S
O441 Cd438 2.333 . S
O441 C443 1.214 . S
O442 Cd438 2.352 . S
O442 C445 1.258 . S
C443 O440 1.320 . S
C443 O441 1.214 . S
O444 Cd436 2.277 . S
O444 C439 1.209 . S
C445 O442 1.258 . S
C445 O447 1.282 . S
O446 Cd438 2.277 . S
O446 C439 1.226 . S
O447 Cd438 2.356 . S
O447 C445 1.282 . S
C448 C449 1.349 . S
C448 C450 1.327 . S
C448 H473 0.950 . S
C449 C448 1.349 . S
C449 C465 1.349 . S
C450 C448 1.327 . S
C450 C469 1.429 . S
C450 H474 0.950 1_556 S
C451 C468 1.574 . S
C451 C470 1.368 . S
C451 H475 0.949 . S
H452 C456 0.949 . S
C453 C454 1.349 . S
C453 C455 1.327 . S
C453 H476 0.950 . S
C454 C453 1.349 . S
C454 C466 1.349 . S
C455 C453 1.327 . S
C455 C471 1.429 . S
C455 H477 0.950 1_554 S
C456 H452 0.949 . S
C456 C464 1.574 . S
C456 C472 1.368 . S
H457 C465 0.950 . S
H458 C463 0.950 . S
H459 C464 0.949 . S
H460 C466 0.950 . S
H461 C467 0.950 . S
H462 C468 0.949 . S
C463 H458 0.950 . S
C463 C465 1.327 . S
C463 C469 1.429 . S
C464 C456 1.574 . S
C464 H459 0.949 . S
C464 C470 1.368 1_554 S
C465 C449 1.349 . S
C465 H457 0.950 . S
C465 C463 1.327 . S
C466 C454 1.349 . S
C466 H460 0.950 . S
C466 C467 1.327 . S
C467 H461 0.950 . S
C467 C466 1.327 . S
C467 C471 1.429 . S
C468 C451 1.574 . S
C468 H462 0.949 . S
C468 C472 1.368 1_556 S
C469 C450 1.429 . S
C469 C463 1.429 . S
C469 C470 1.523 . S
C470 C451 1.368 . S
C470 C464 1.368 1_556 S
C470 C469 1.523 . S
C471 C455 1.429 . S
C471 C467 1.429 . S
C471 C472 1.523 . S
C472 C456 1.368 . S
C472 C468 1.368 1_554 S
C472 C471 1.523 . S
H473 C448 0.950 . S
H474 C450 0.950 1_554 S
H475 C451 0.949 . S
H476 C453 0.950 . S
H477 C455 0.950 1_556 S
C478 C479 1.349 . S
C478 C480 1.327 . S
C478 H503 0.950 . S
C479 C478 1.349 . S
C479 C495 1.349 . S
C480 C478 1.327 . S
C480 C499 1.429 . S
C480 H504 0.950 . S
C481 C498 1.574 1_565 S
C481 C500 1.368 . S
C481 H505 0.949 . S
H482 C486 0.949 . S
C483 C484 1.349 . S
C483 C485 1.327 . S
C483 H506 0.950 . S
C484 C483 1.349 . S
C484 C496 1.349 . S
C485 C483 1.327 . S
C485 C501 1.429 . S
C485 H507 0.950 . S
C486 H482 0.949 . S
C486 C494 1.574 1_545 S
C486 C502 1.368 . S
H487 C495 0.950 . S
H488 C493 0.950 . S
H489 C494 0.949 . S
H490 C496 0.950 . S
H491 C497 0.950 . S
H492 C498 0.949 . S
C493 H488 0.950 . S
C493 C495 1.327 . S
C493 C499 1.429 . S
C494 C486 1.574 1_565 S
C494 H489 0.949 . S
C494 C500 1.368 . S
C495 C479 1.349 . S
C495 H487 0.950 . S
C495 C493 1.327 . S
C496 C484 1.349 . S
C496 H490 0.950 . S
C496 C497 1.327 . S
C497 H491 0.950 . S
C497 C496 1.327 . S
C497 C501 1.429 . S
C498 C481 1.574 1_545 S
C498 H492 0.949 . S
C498 C502 1.368 . S
C499 C480 1.429 . S
C499 C493 1.429 . S
C499 C500 1.523 . S
C500 C481 1.368 . S
C500 C494 1.368 . S
C500 C499 1.523 . S
C501 C485 1.429 . S
C501 C497 1.429 . S
C501 C502 1.523 . S
C502 C486 1.368 . S
C502 C498 1.368 . S
C502 C501 1.523 . S
H503 C478 0.950 . S
H504 C480 0.950 . S
H505 C481 0.949 . S
H506 C483 0.950 . S
H507 C485 0.950 . S
C508 C509 1.349 . S
C508 C510 1.327 . S
C508 H533 0.950 . S
C509 C508 1.349 . S
C509 C525 1.349 . S
C510 C508 1.327 . S
C510 C529 1.429 . S
C510 H534 0.950 . S
C511 C528 1.574 . S
C511 C530 1.368 . S
C511 H535 0.949 . S
H512 C516 0.949 . S
C513 C514 1.349 . S
C513 C515 1.327 . S
C513 H536 0.950 . S
C514 C513 1.349 . S
C514 C526 1.349 . S
C515 C513 1.327 . S
C515 C531 1.429 . S
C515 H537 0.950 . S
C516 H512 0.949 . S
C516 C524 1.574 . S
C516 C532 1.368 . S
H517 C525 0.950 . S
H518 C523 0.950 . S
H519 C524 0.949 . S
H520 C526 0.950 . S
H521 C527 0.950 . S
H522 C528 0.949 . S
C523 H518 0.950 . S
C523 C525 1.327 . S
C523 C529 1.429 . S
C524 C516 1.574 . S
C524 H519 0.949 . S
C524 C530 1.368 . S
C525 C509 1.349 . S
C525 H517 0.950 . S
C525 C523 1.327 . S
C526 C514 1.349 . S
C526 H520 0.950 . S
C526 C527 1.327 . S
C527 H521 0.950 . S
C527 C526 1.327 . S
C527 C531 1.429 . S
C528 C511 1.574 . S
C528 H522 0.949 . S
C528 C532 1.368 . S
C529 C510 1.429 . S
C529 C523 1.429 . S
C529 C530 1.523 . S
C530 C511 1.368 . S
C530 C524 1.368 . S
C530 C529 1.523 . S
C531 C515 1.429 . S
C531 C527 1.429 . S
C531 C532 1.523 . S
C532 C516 1.368 . S
C532 C528 1.368 . S
C532 C531 1.523 . S
H533 C508 0.950 . S
H534 C510 0.950 . S
H535 C511 0.949 . S
H536 C513 0.950 . S
H537 C515 0.950 . S
C538 C539 1.349 . S
C538 C540 1.327 . S
C538 H563 0.950 . S
C539 C538 1.349 . S
C539 C555 1.349 . S
C540 C538 1.327 . S
C540 C559 1.429 . S
C540 H564 0.950 . S
C541 C558 1.574 1_545 S
C541 C560 1.368 . S
C541 H565 0.949 . S
H542 C546 0.949 . S
C543 C544 1.349 . S
C543 C545 1.327 . S
C543 H566 0.950 . S
C544 C543 1.349 . S
C544 C556 1.349 . S
C545 C543 1.327 . S
C545 C561 1.429 . S
C545 H567 0.950 . S
C546 H542 0.949 . S
C546 C554 1.574 1_565 S
C546 C562 1.368 . S
H547 C555 0.950 . S
H548 C553 0.950 . S
H549 C554 0.949 . S
H550 C556 0.950 . S
H551 C557 0.950 . S
H552 C558 0.949 . S
C553 H548 0.950 . S
C553 C555 1.327 . S
C553 C559 1.429 . S
C554 C546 1.574 1_545 S
C554 H549 0.949 . S
C554 C560 1.368 . S
C555 C539 1.349 . S
C555 H547 0.950 . S
C555 C553 1.327 . S
C556 C544 1.349 . S
C556 H550 0.950 . S
C556 C557 1.327 . S
C557 H551 0.950 . S
C557 C556 1.327 . S
C557 C561 1.429 . S
C558 C541 1.574 1_565 S
C558 H552 0.949 . S
C558 C562 1.368 . S
C559 C540 1.429 . S
C559 C553 1.429 . S
C559 C560 1.523 . S
C560 C541 1.368 . S
C560 C554 1.368 . S
C560 C559 1.523 . S
C561 C545 1.429 . S
C561 C557 1.429 . S
C561 C562 1.523 . S
C562 C546 1.368 . S
C562 C558 1.368 . S
C562 C561 1.523 . S
H563 C538 0.950 . S
H564 C540 0.950 . S
H565 C541 0.949 . S
H566 C543 0.950 . S
H567 C545 0.950 . S
C568 C569 1.349 . S
C568 C570 1.327 . S
C568 H593 0.950 . S
C569 C568 1.349 . S
C569 C585 1.349 . S
C570 C568 1.327 . S
C570 C589 1.429 . S
C570 H594 0.950 . S
C571 C588 1.574 . S
C571 C590 1.368 1_556 S
C571 H595 0.949 . S
H572 C576 0.949 . S
C573 C574 1.349 . S
C573 C575 1.327 . S
C573 H596 0.950 . S
C574 C573 1.349 . S
C574 C586 1.349 . S
C575 C573 1.327 . S
C575 C591 1.429 . S
C575 H597 0.950 . S
C576 H572 0.949 . S
C576 C584 1.574 . S
C576 C592 1.368 1_554 S
H577 C585 0.950 . S
H578 C583 0.950 1_556 S
H579 C584 0.949 . S
H580 C586 0.950 . S
H581 C587 0.950 1_554 S
H582 C588 0.949 . S
C583 H578 0.950 1_554 S
C583 C585 1.327 . S
C583 C589 1.429 . S
C584 C576 1.574 . S
C584 H579 0.949 . S
C584 C590 1.368 . S
C585 C569 1.349 . S
C585 H577 0.950 . S
C585 C583 1.327 . S
C586 C574 1.349 . S
C586 H580 0.950 . S
C586 C587 1.327 . S
C587 H581 0.950 1_556 S
C587 C586 1.327 . S
C587 C591 1.429 . S
C588 C571 1.574 . S
C588 H582 0.949 . S
C588 C592 1.368 . S
C589 C570 1.429 . S
C589 C583 1.429 . S
C589 C590 1.523 . S
C590 C571 1.368 1_554 S
C590 C584 1.368 . S
C590 C589 1.523 . S
C591 C575 1.429 . S
C591 C587 1.429 . S
C591 C592 1.523 . S
C592 C576 1.368 1_556 S
C592 C588 1.368 . S
C592 C591 1.523 . S
H593 C568 0.950 . S
H594 C570 0.950 . S
H595 C571 0.949 . S
H596 C573 0.950 . S
H597 C575 0.950 . S
C598 C599 1.349 . S
C598 C600 1.327 . S
C598 H623 0.950 . S
C599 C598 1.349 . S
C599 C615 1.349 . S
C600 C598 1.327 . S
C600 C619 1.429 . S
C600 H624 0.950 . S
C601 C618 1.574 1_565 S
C601 C620 1.368 . S
C601 H625 0.949 . S
H602 C606 0.949 . S
C603 C604 1.349 . S
C603 C605 1.327 . S
C603 H626 0.950 . S
C604 C603 1.349 . S
C604 C616 1.349 . S
C605 C603 1.327 . S
C605 C621 1.429 . S
C605 H627 0.950 . S
C606 H602 0.949 . S
C606 C614 1.574 1_545 S
C606 C622 1.368 . S
H607 C615 0.950 . S
H608 C613 0.950 . S
H609 C614 0.949 . S
H610 C616 0.950 . S
H611 C617 0.950 . S
H612 C618 0.949 . S
C613 H608 0.950 . S
C613 C615 1.327 . S
C613 C619 1.429 . S
C614 C606 1.574 1_565 S
C614 H609 0.949 . S
C614 C620 1.368 . S
C615 C599 1.349 . S
C615 H607 0.950 . S
C615 C613 1.327 . S
C616 C604 1.349 . S
C616 H610 0.950 . S
C616 C617 1.327 . S
C617 H611 0.950 . S
C617 C616 1.327 . S
C617 C621 1.429 . S
C618 C601 1.574 1_545 S
C618 H612 0.949 . S
C618 C622 1.368 . S
C619 C600 1.429 . S
C619 C613 1.429 . S
C619 C620 1.523 . S
C620 C601 1.368 . S
C620 C614 1.368 . S
C620 C619 1.523 . S
C621 C605 1.429 . S
C621 C617 1.429 . S
C621 C622 1.523 . S
C622 C606 1.368 . S
C622 C618 1.368 . S
C622 C621 1.523 . S
H623 C598 0.950 . S
H624 C600 0.950 . S
H625 C601 0.949 . S
H626 C603 0.950 . S
H627 C605 0.950 . S
C628 C629 1.349 . S
C628 C630 1.327 . S
C628 H653 0.950 . S
C629 C628 1.349 . S
C629 C645 1.349 . S
C630 C628 1.327 . S
C630 C649 1.429 . S
C630 H654 0.950 . S
C631 C648 1.574 . S
C631 C650 1.368 . S
C631 H655 0.949 . S
H632 C636 0.949 . S
C633 C634 1.349 . S
C633 C635 1.327 . S
C633 H656 0.950 . S
C634 C633 1.349 . S
C634 C646 1.349 . S
C635 C633 1.327 . S
C635 C651 1.429 . S
C635 H657 0.950 . S
C636 H632 0.949 . S
C636 C644 1.574 . S
C636 C652 1.368 . S
H637 C645 0.950 . S
H638 C643 0.950 . S
H639 C644 0.949 . S
H640 C646 0.950 . S
H641 C647 0.950 . S
H642 C648 0.949 . S
C643 H638 0.950 . S
C643 C645 1.327 . S
C643 C649 1.429 . S
C644 C636 1.574 . S
C644 H639 0.949 . S
C644 C650 1.368 . S
C645 C629 1.349 . S
C645 H637 0.950 . S
C645 C643 1.327 . S
C646 C634 1.349 . S
C646 H640 0.950 . S
C646 C647 1.327 . S
C647 H641 0.950 . S
C647 C646 1.327 . S
C647 C651 1.429 . S
C648 C631 1.574 . S
C648 H642 0.949 . S
C648 C652 1.368 . S
C649 C630 1.429 . S
C649 C643 1.429 . S
C649 C650 1.523 . S
C650 C631 1.368 . S
C650 C644 1.368 . S
C650 C649 1.523 . S
C651 C635 1.429 . S
C651 C647 1.429 . S
C651 C652 1.523 . S
C652 C636 1.368 . S
C652 C648 1.368 . S
C652 C651 1.523 . S
H653 C628 0.950 . S
H654 C630 0.950 . S
H655 C631 0.949 . S
H656 C633 0.950 . S
H657 C635 0.950 . S
C658 C659 1.349 . S
C658 C660 1.327 . S
C658 H683 0.950 . S
C659 C658 1.349 . S
C659 C675 1.349 . S
C660 C658 1.327 . S
C660 C679 1.429 . S
C660 H684 0.950 . S
C661 C678 1.574 1_565 S
C661 C680 1.368 . S
C661 H685 0.949 . S
H662 C666 0.949 . S
C663 C664 1.349 . S
C663 C665 1.327 . S
C663 H686 0.950 . S
C664 C663 1.349 . S
C664 C676 1.349 . S
C665 C663 1.327 . S
C665 C681 1.429 . S
C665 H687 0.950 . S
C666 H662 0.949 . S
C666 C674 1.574 1_545 S
C666 C682 1.368 . S
H667 C675 0.950 . S
H668 C673 0.950 . S
H669 C674 0.949 . S
H670 C676 0.950 . S
H671 C677 0.950 . S
H672 C678 0.949 . S
C673 H668 0.950 . S
C673 C675 1.327 . S
C673 C679 1.429 . S
C674 C666 1.574 1_565 S
C674 H669 0.949 . S
C674 C680 1.368 . S
C675 C659 1.349 . S
C675 H667 0.950 . S
C675 C673 1.327 . S
C676 C664 1.349 . S
C676 H670 0.950 . S
C676 C677 1.327 . S
C677 H671 0.950 . S
C677 C676 1.327 . S
C677 C681 1.429 . S
C678 C661 1.574 1_545 S
C678 H672 0.949 . S
C678 C682 1.368 . S
C679 C660 1.429 . S
C679 C673 1.429 . S
C679 C680 1.523 . S
C680 C661 1.368 . S
C680 C674 1.368 . S
C680 C679 1.523 . S
C681 C665 1.429 . S
C681 C677 1.429 . S
C681 C682 1.523 . S
C682 C666 1.368 . S
C682 C678 1.368 . S
C682 C681 1.523 . S
H683 C658 0.950 . S
H684 C660 0.950 . S
H685 C661 0.949 . S
H686 C663 0.950 . S
H687 C665 0.950 . S
C688 C689 1.349 . S
C688 C690 1.327 . S
C688 H713 0.950 . S
C689 C688 1.349 . S
C689 C705 1.349 . S
C690 C688 1.327 . S
C690 C709 1.429 . S
C690 H714 0.950 . S
C691 C708 1.574 . S
C691 C710 1.368 . S
C691 H715 0.949 . S
H692 C696 0.949 . S
C693 C694 1.349 . S
C693 C695 1.327 . S
C693 H716 0.950 . S
C694 C693 1.349 . S
C694 C706 1.349 . S
C695 C693 1.327 . S
C695 C711 1.429 . S
C695 H717 0.950 . S
C696 H692 0.949 . S
C696 C704 1.574 . S
C696 C712 1.368 . S
H697 C705 0.950 . S
H698 C703 0.950 . S
H699 C704 0.949 . S
H700 C706 0.950 . S
H701 C707 0.950 . S
H702 C708 0.949 . S
C703 H698 0.950 . S
C703 C705 1.327 . S
C703 C709 1.429 . S
C704 C696 1.574 . S
C704 H699 0.949 . S
C704 C710 1.368 . S
C705 C689 1.349 . S
C705 H697 0.950 . S
C705 C703 1.327 . S
C706 C694 1.349 . S
C706 H700 0.950 . S
C706 C707 1.327 . S
C707 H701 0.950 . S
C707 C706 1.327 . S
C707 C711 1.429 . S
C708 C691 1.574 . S
C708 H702 0.949 . S
C708 C712 1.368 . S
C709 C690 1.429 . S
C709 C703 1.429 . S
C709 C710 1.523 . S
C710 C691 1.368 . S
C710 C704 1.368 . S
C710 C709 1.523 . S
C711 C695 1.429 . S
C711 C707 1.429 . S
C711 C712 1.523 . S
C712 C696 1.368 . S
C712 C708 1.368 . S
C712 C711 1.523 . S
H713 C688 0.950 . S
H714 C690 0.950 . S
H715 C691 0.949 . S
H716 C693 0.950 . S
H717 C695 0.950 . S
C718 C719 1.349 . S
C718 C720 1.327 . S
C718 H743 0.950 . S
C719 C718 1.349 . S
C719 C735 1.349 . S
C720 C718 1.327 . S
C720 C739 1.429 . S
C720 H744 0.950 . S
C721 C738 1.574 . S
C721 C740 1.368 . S
C721 H745 0.949 . S
H722 C726 0.949 . S
C723 C724 1.349 . S
C723 C725 1.327 . S
C723 H746 0.950 . S
C724 C723 1.349 . S
C724 C736 1.349 . S
C725 C723 1.327 . S
C725 C741 1.429 . S
C725 H747 0.950 . S
C726 H722 0.949 . S
C726 C734 1.574 . S
C726 C742 1.368 . S
H727 C735 0.950 . S
H728 C733 0.950 . S
H729 C734 0.949 . S
H730 C736 0.950 . S
H731 C737 0.950 . S
H732 C738 0.949 . S
C733 H728 0.950 . S
C733 C735 1.327 . S
C733 C739 1.429 . S
C734 C726 1.574 . S
C734 H729 0.949 . S
C734 C740 1.368 . S
C735 C719 1.349 . S
C735 H727 0.950 . S
C735 C733 1.327 . S
C736 C724 1.349 . S
C736 H730 0.950 . S
C736 C737 1.327 . S
C737 H731 0.950 . S
C737 C736 1.327 . S
C737 C741 1.429 . S
C738 C721 1.574 . S
C738 H732 0.949 . S
C738 C742 1.368 . S
C739 C720 1.429 . S
C739 C733 1.429 . S
C739 C740 1.523 . S
C740 C721 1.368 . S
C740 C734 1.368 . S
C740 C739 1.523 . S
C741 C725 1.429 . S
C741 C737 1.429 . S
C741 C742 1.523 . S
C742 C726 1.368 . S
C742 C738 1.368 . S
C742 C741 1.523 . S
H743 C718 0.950 . S
H744 C720 0.950 . S
H745 C721 0.949 . S
H746 C723 0.950 . S
H747 C725 0.950 . S
C748 C749 1.349 . S
C748 C750 1.327 . S
C748 H773 0.950 . S
C749 C748 1.349 . S
C749 C765 1.349 . S
C750 C748 1.327 . S
C750 C769 1.429 . S
C750 H774 0.950 1_556 S
C751 C768 1.574 . S
C751 C770 1.368 . S
C751 H775 0.949 . S
H752 C756 0.949 . S
C753 C754 1.349 . S
C753 C755 1.327 . S
C753 H776 0.950 . S
C754 C753 1.349 . S
C754 C766 1.349 . S
C755 C753 1.327 . S
C755 C771 1.429 . S
C755 H777 0.950 1_554 S
C756 H752 0.949 . S
C756 C764 1.574 . S
C756 C772 1.368 . S
H757 C765 0.950 . S
H758 C763 0.950 . S
H759 C764 0.949 . S
H760 C766 0.950 . S
H761 C767 0.950 . S
H762 C768 0.949 . S
C763 H758 0.950 . S
C763 C765 1.327 . S
C763 C769 1.429 . S
C764 C756 1.574 . S
C764 H759 0.949 . S
C764 C770 1.368 1_554 S
C765 C749 1.349 . S
C765 H757 0.950 . S
C765 C763 1.327 . S
C766 C754 1.349 . S
C766 H760 0.950 . S
C766 C767 1.327 . S
C767 H761 0.950 . S
C767 C766 1.327 . S
C767 C771 1.429 . S
C768 C751 1.574 . S
C768 H762 0.949 . S
C768 C772 1.368 1_556 S
C769 C750 1.429 . S
C769 C763 1.429 . S
C769 C770 1.523 . S
C770 C751 1.368 . S
C770 C764 1.368 1_556 S
C770 C769 1.523 . S
C771 C755 1.429 . S
C771 C767 1.429 . S
C771 C772 1.523 . S
C772 C756 1.368 . S
C772 C768 1.368 1_554 S
C772 C771 1.523 . S
H773 C748 0.950 . S
H774 C750 0.950 1_554 S
H775 C751 0.949 . S
H776 C753 0.950 . S
H777 C755 0.950 1_556 S
C778 C779 1.349 . S
C778 C780 1.327 . S
C778 H803 0.950 . S
C779 C778 1.349 . S
C779 C795 1.349 . S
C780 C778 1.327 . S
C780 C799 1.429 . S
C780 H804 0.950 . S
C781 C798 1.574 . S
C781 C800 1.368 . S
C781 H805 0.949 . S
H782 C786 0.949 . S
C783 C784 1.349 . S
C783 C785 1.327 . S
C783 H806 0.950 . S
C784 C783 1.349 . S
C784 C796 1.349 . S
C785 C783 1.327 . S
C785 C801 1.429 . S
C785 H807 0.950 . S
C786 H782 0.949 . S
C786 C794 1.574 . S
C786 C802 1.368 . S
H787 C795 0.950 . S
H788 C793 0.950 . S
H789 C794 0.949 . S
H790 C796 0.950 . S
H791 C797 0.950 . S
H792 C798 0.949 . S
C793 H788 0.950 . S
C793 C795 1.327 . S
C793 C799 1.429 . S
C794 C786 1.574 . S
C794 H789 0.949 . S
C794 C800 1.368 . S
C795 C779 1.349 . S
C795 H787 0.950 . S
C795 C793 1.327 . S
C796 C784 1.349 . S
C796 H790 0.950 . S
C796 C797 1.327 . S
C797 H791 0.950 . S
C797 C796 1.327 . S
C797 C801 1.429 . S
C798 C781 1.574 . S
C798 H792 0.949 . S
C798 C802 1.368 . S
C799 C780 1.429 . S
C799 C793 1.429 . S
C799 C800 1.523 . S
C800 C781 1.368 . S
C800 C794 1.368 . S
C800 C799 1.523 . S
C801 C785 1.429 . S
C801 C797 1.429 . S
C801 C802 1.523 . S
C802 C786 1.368 . S
C802 C798 1.368 . S
C802 C801 1.523 . S
H803 C778 0.950 . S
H804 C780 0.950 . S
H805 C781 0.949 . S
H806 C783 0.950 . S
H807 C785 0.950 . S
C808 C809 1.349 . S
C808 C810 1.327 . S
C808 H833 0.950 . S
C809 C808 1.349 . S
C809 C825 1.349 . S
C810 C808 1.327 . S
C810 C829 1.429 . S
C810 H834 0.950 . S
C811 C828 1.574 . S
C811 C830 1.368 . S
C811 H835 0.949 . S
H812 C816 0.949 . S
C813 C814 1.349 . S
C813 C815 1.327 . S
C813 H836 0.950 . S
C814 C813 1.349 . S
C814 C826 1.349 . S
C815 C813 1.327 . S
C815 C831 1.429 . S
C815 H837 0.950 . S
C816 H812 0.949 . S
C816 C824 1.574 . S
C816 C832 1.368 . S
H817 C825 0.950 . S
H818 C823 0.950 . S
H819 C824 0.949 . S
H820 C826 0.950 . S
H821 C827 0.950 . S
H822 C828 0.949 . S
C823 H818 0.950 . S
C823 C825 1.327 . S
C823 C829 1.429 . S
C824 C816 1.574 . S
C824 H819 0.949 . S
C824 C830 1.368 . S
C825 C809 1.349 . S
C825 H817 0.950 . S
C825 C823 1.327 . S
C826 C814 1.349 . S
C826 H820 0.950 . S
C826 C827 1.327 . S
C827 H821 0.950 . S
C827 C826 1.327 . S
C827 C831 1.429 . S
C828 C811 1.574 . S
C828 H822 0.949 . S
C828 C832 1.368 . S
C829 C810 1.429 . S
C829 C823 1.429 . S
C829 C830 1.523 . S
C830 C811 1.368 . S
C830 C824 1.368 . S
C830 C829 1.523 . S
C831 C815 1.429 . S
C831 C827 1.429 . S
C831 C832 1.523 . S
C832 C816 1.368 . S
C832 C828 1.368 . S
C832 C831 1.523 . S
H833 C808 0.950 . S
H834 C810 0.950 . S
H835 C811 0.949 . S
H836 C813 0.950 . S
H837 C815 0.950 . S
C838 C839 1.349 . S
C838 C840 1.327 . S
C838 H863 0.950 . S
C839 C838 1.349 . S
C839 C855 1.349 . S
C840 C838 1.327 . S
C840 C859 1.429 . S
C840 H864 0.950 . S
C841 C858 1.574 . S
C841 C860 1.368 . S
C841 H865 0.949 . S
H842 C846 0.949 . S
C843 C844 1.349 . S
C843 C845 1.327 . S
C843 H866 0.950 . S
C844 C843 1.349 . S
C844 C856 1.349 . S
C845 C843 1.327 . S
C845 C861 1.429 . S
C845 H867 0.950 . S
C846 H842 0.949 . S
C846 C854 1.574 . S
C846 C862 1.368 . S
H847 C855 0.950 . S
H848 C853 0.950 . S
H849 C854 0.949 . S
H850 C856 0.950 . S
H851 C857 0.950 . S
H852 C858 0.949 . S
C853 H848 0.950 . S
C853 C855 1.327 . S
C853 C859 1.429 . S
C854 C846 1.574 . S
C854 H849 0.949 . S
C854 C860 1.368 . S
C855 C839 1.349 . S
C855 H847 0.950 . S
C855 C853 1.327 . S
C856 C844 1.349 . S
C856 H850 0.950 . S
C856 C857 1.327 . S
C857 H851 0.950 . S
C857 C856 1.327 . S
C857 C861 1.429 . S
C858 C841 1.574 . S
C858 H852 0.949 . S
C858 C862 1.368 . S
C859 C840 1.429 . S
C859 C853 1.429 . S
C859 C860 1.523 . S
C860 C841 1.368 . S
C860 C854 1.368 . S
C860 C859 1.523 . S
C861 C845 1.429 . S
C861 C857 1.429 . S
C861 C862 1.523 . S
C862 C846 1.368 . S
C862 C858 1.368 . S
C862 C861 1.523 . S
H863 C838 0.950 . S
H864 C840 0.950 . S
H865 C841 0.949 . S
H866 C843 0.950 . S
H867 C845 0.950 . S
C868 C869 1.349 . S
C868 C870 1.327 . S
C868 H893 0.950 . S
C869 C868 1.349 . S
C869 C885 1.349 . S
C870 C868 1.327 . S
C870 C889 1.429 . S
C870 H894 0.950 1_554 S
C871 C888 1.574 . S
C871 C890 1.368 . S
C871 H895 0.949 . S
H872 C876 0.949 . S
C873 C874 1.349 . S
C873 C875 1.327 . S
C873 H896 0.950 . S
C874 C873 1.349 . S
C874 C886 1.349 . S
C875 C873 1.327 . S
C875 C891 1.429 . S
C875 H897 0.950 1_556 S
C876 H872 0.949 . S
C876 C884 1.574 . S
C876 C892 1.368 . S
H877 C885 0.950 . S
H878 C883 0.950 . S
H879 C884 0.949 . S
H880 C886 0.950 . S
H881 C887 0.950 . S
H882 C888 0.949 . S
C883 H878 0.950 . S
C883 C885 1.327 . S
C883 C889 1.429 . S
C884 C876 1.574 . S
C884 H879 0.949 . S
C884 C890 1.368 1_556 S
C885 C869 1.349 . S
C885 H877 0.950 . S
C885 C883 1.327 . S
C886 C874 1.349 . S
C886 H880 0.950 . S
C886 C887 1.327 . S
C887 H881 0.950 . S
C887 C886 1.327 . S
C887 C891 1.429 . S
C888 C871 1.574 . S
C888 H882 0.949 . S
C888 C892 1.368 1_554 S
C889 C870 1.429 . S
C889 C883 1.429 . S
C889 C890 1.523 . S
C890 C871 1.368 . S
C890 C884 1.368 1_554 S
C890 C889 1.523 . S
C891 C875 1.429 . S
C891 C887 1.429 . S
C891 C892 1.523 . S
C892 C876 1.368 . S
C892 C888 1.368 1_556 S
C892 C891 1.523 . S
H893 C868 0.950 . S
H894 C870 0.950 1_556 S
H895 C871 0.949 . S
H896 C873 0.950 . S
H897 C875 0.950 1_554 S
C898 C899 1.349 . S
C898 C900 1.327 . S
C898 H923 0.950 . S
C899 C898 1.349 . S
C899 C915 1.349 . S
C900 C898 1.327 . S
C900 C919 1.429 . S
C900 H924 0.950 . S
C901 C918 1.574 . S
C901 C920 1.368 . S
C901 H925 0.949 . S
H902 C906 0.949 . S
C903 C904 1.349 . S
C903 C905 1.327 . S
C903 H926 0.950 . S
C904 C903 1.349 . S
C904 C916 1.349 . S
C905 C903 1.327 . S
C905 C921 1.429 . S
C905 H927 0.950 . S
C906 H902 0.949 . S
C906 C914 1.574 . S
C906 C922 1.368 . S
H907 C915 0.950 . S
H908 C913 0.950 . S
H909 C914 0.949 . S
H910 C916 0.950 . S
H911 C917 0.950 . S
H912 C918 0.949 . S
C913 H908 0.950 . S
C913 C915 1.327 . S
C913 C919 1.429 . S
C914 C906 1.574 . S
C914 H909 0.949 . S
C914 C920 1.368 . S
C915 C899 1.349 . S
C915 H907 0.950 . S
C915 C913 1.327 . S
C916 C904 1.349 . S
C916 H910 0.950 . S
C916 C917 1.327 . S
C917 H911 0.950 . S
C917 C916 1.327 . S
C917 C921 1.429 . S
C918 C901 1.574 . S
C918 H912 0.949 . S
C918 C922 1.368 . S
C919 C900 1.429 . S
C919 C913 1.429 . S
C919 C920 1.523 . S
C920 C901 1.368 . S
C920 C914 1.368 . S
C920 C919 1.523 . S
C921 C905 1.429 . S
C921 C917 1.429 . S
C921 C922 1.523 . S
C922 C906 1.368 . S
C922 C918 1.368 . S
C922 C921 1.523 . S
H923 C898 0.950 . S
H924 C900 0.950 . S
H925 C901 0.949 . S
H926 C903 0.950 . S
H927 C905 0.950 . S
C928 C929 1.349 . S
C928 C930 1.327 . S
C928 H953 0.950 . S
C929 C928 1.349 . S
C929 C945 1.349 . S
C930 C928 1.327 . S
C930 C949 1.429 . S
C930 H954 0.950 . S
C931 C948 1.574 . S
C931 C950 1.368 . S
C931 H955 0.949 . S
H932 C936 0.949 . S
C933 C934 1.349 . S
C933 C935 1.327 . S
C933 H956 0.950 . S
C934 C933 1.349 . S
C934 C946 1.349 . S
C935 C933 1.327 . S
C935 C951 1.429 . S
C935 H957 0.950 . S
C936 H932 0.949 . S
C936 C944 1.574 . S
C936 C952 1.368 . S
H937 C945 0.950 . S
H938 C943 0.950 . S
H939 C944 0.949 . S
H940 C946 0.950 . S
H941 C947 0.950 . S
H942 C948 0.949 . S
C943 H938 0.950 . S
C943 C945 1.327 . S
C943 C949 1.429 . S
C944 C936 1.574 . S
C944 H939 0.949 . S
C944 C950 1.368 . S
C945 C929 1.349 . S
C945 H937 0.950 . S
C945 C943 1.327 . S
C946 C934 1.349 . S
C946 H940 0.950 . S
C946 C947 1.327 . S
C947 H941 0.950 . S
C947 C946 1.327 . S
C947 C951 1.429 . S
C948 C931 1.574 . S
C948 H942 0.949 . S
C948 C952 1.368 . S
C949 C930 1.429 . S
C949 C943 1.429 . S
C949 C950 1.523 . S
C950 C931 1.368 . S
C950 C944 1.368 . S
C950 C949 1.523 . S
C951 C935 1.429 . S
C951 C947 1.429 . S
C951 C952 1.523 . S
C952 C936 1.368 . S
C952 C948 1.368 . S
C952 C951 1.523 . S
H953 C928 0.950 . S
H954 C930 0.950 . S
H955 C931 0.949 . S
H956 C933 0.950 . S
H957 C935 0.950 . S
C958 C959 1.349 . S
C958 C960 1.327 . S
C958 H983 0.950 . S
C959 C958 1.349 . S
C959 C975 1.349 . S
C960 C958 1.327 . S
C960 C979 1.429 . S
C960 H984 0.950 . S
C961 C978 1.574 . S
C961 C980 1.368 1_655 S
C961 H985 0.950 . S
H962 C966 0.949 . S
C963 C964 1.349 . S
C963 C965 1.327 . S
C963 H986 0.950 . S
C964 C963 1.349 . S
C964 C976 1.349 . S
C965 C963 1.327 . S
C965 C981 1.429 . S
C965 H987 0.950 . S
C966 H962 0.949 . S
C966 C974 1.574 . S
C966 C982 1.368 1_455 S
H967 C975 0.950 . S
H968 C973 0.950 1_655 S
H969 C974 0.949 . S
H970 C976 0.950 . S
H971 C977 0.906 1_455 S
H972 C978 0.949 . S
C973 H968 0.950 1_455 S
C973 C975 1.327 . S
C973 C979 1.429 . S
C974 C966 1.574 . S
C974 H969 0.949 . S
C974 C980 1.368 . S
C975 C959 1.349 . S
C975 H967 0.950 . S
C975 C973 1.327 . S
C976 C964 1.349 . S
C976 H970 0.950 . S
C976 C977 1.327 . S
C977 H971 0.906 1_655 S
C977 C976 1.327 . S
C977 C981 1.429 . S
C978 C961 1.574 . S
C978 H972 0.949 . S
C978 C982 1.368 . S
C979 C960 1.429 . S
C979 C973 1.429 . S
C979 C980 1.523 1_556 S
C980 C961 1.368 1_455 S
C980 C974 1.368 . S
C980 C979 1.523 1_554 S
C981 C965 1.429 . S
C981 C977 1.429 . S
C981 C982 1.523 . S
C982 C966 1.368 1_655 S
C982 C978 1.368 . S
C982 C981 1.523 . S
H983 C958 0.950 . S
H984 C960 0.950 . S
H985 C961 0.950 . S
H986 C963 0.950 . S
H987 C965 0.950 . S
C988 C989 1.349 . S
C988 C990 1.327 . S
C988 H1013 0.950 . S
C989 C988 1.349 . S
C989 C1005 1.349 . S
C990 C988 1.327 . S
C990 C1009 1.429 . S
C990 H1014 0.950 . S
C991 C1008 1.574 . S
C991 C1010 1.368 . S
C991 H1015 0.949 . S
H992 C996 0.949 . S
C993 C994 1.349 . S
C993 C995 1.327 . S
C993 H1016 0.950 . S
C994 C993 1.349 . S
C994 C1006 1.349 . S
C995 C993 1.327 . S
C995 C1011 1.429 . S
C995 H1017 0.950 . S
C996 H992 0.949 . S
C996 C1004 1.574 . S
C996 C1012 1.368 . S
H997 C1005 0.950 . S
H998 C1003 0.950 . S
H999 C1004 0.949 . S
H1000 C1006 0.950 . S
H1001 C1007 0.950 . S
H1002 C1008 0.949 . S
C1003 H998 0.950 . S
C1003 C1005 1.327 . S
C1003 C1009 1.429 . S
C1004 C996 1.574 . S
C1004 H999 0.949 . S
C1004 C1010 1.368 . S
C1005 C989 1.349 . S
C1005 H997 0.950 . S
C1005 C1003 1.327 . S
C1006 C994 1.349 . S
C1006 H1000 0.950 . S
C1006 C1007 1.327 . S
C1007 H1001 0.950 . S
C1007 C1006 1.327 . S
C1007 C1011 1.429 . S
C1008 C991 1.574 . S
C1008 H1002 0.949 . S
C1008 C1012 1.368 . S
C1009 C990 1.429 . S
C1009 C1003 1.429 . S
C1009 C1010 1.523 . S
C1010 C991 1.368 . S
C1010 C1004 1.368 . S
C1010 C1009 1.523 . S
C1011 C995 1.429 . S
C1011 C1007 1.429 . S
C1011 C1012 1.523 . S
C1012 C996 1.368 . S
C1012 C1008 1.368 . S
C1012 C1011 1.523 . S
H1013 C988 0.950 . S
H1014 C990 0.950 . S
H1015 C991 0.949 . S
H1016 C993 0.950 . S
H1017 C995 0.950 . S
C1018 C1019 1.349 . S
C1018 C1020 1.327 . S
C1018 H1043 0.950 . S
C1019 C1018 1.349 . S
C1019 C1035 1.349 . S
C1020 C1018 1.327 . S
C1020 C1039 1.429 . S
C1020 H1044 0.950 . S
C1021 C1038 1.574 . S
C1021 C1040 1.368 . S
C1021 H1045 0.949 . S
H1022 C1026 0.949 . S
C1023 C1024 1.349 . S
C1023 C1025 1.327 . S
C1023 H1046 0.950 . S
C1024 C1023 1.349 . S
C1024 C1036 1.349 . S
C1025 C1023 1.327 . S
C1025 C1041 1.429 . S
C1025 H1047 0.950 . S
C1026 H1022 0.949 . S
C1026 C1034 1.574 . S
C1026 C1042 1.368 . S
H1027 C1035 0.950 . S
H1028 C1033 0.950 . S
H1029 C1034 0.949 . S
H1030 C1036 0.950 . S
H1031 C1037 0.950 . S
H1032 C1038 0.949 . S
C1033 H1028 0.950 . S
C1033 C1035 1.327 . S
C1033 C1039 1.429 . S
C1034 C1026 1.574 . S
C1034 H1029 0.949 . S
C1034 C1040 1.368 . S
C1035 C1019 1.349 . S
C1035 H1027 0.950 . S
C1035 C1033 1.327 . S
C1036 C1024 1.349 . S
C1036 H1030 0.950 . S
C1036 C1037 1.327 . S
C1037 H1031 0.950 . S
C1037 C1036 1.327 . S
C1037 C1041 1.429 . S
C1038 C1021 1.574 . S
C1038 H1032 0.949 . S
C1038 C1042 1.368 . S
C1039 C1020 1.429 . S
C1039 C1033 1.429 . S
C1039 C1040 1.523 . S
C1040 C1021 1.368 . S
C1040 C1034 1.368 . S
C1040 C1039 1.523 . S
C1041 C1025 1.429 . S
C1041 C1037 1.429 . S
C1041 C1042 1.523 . S
C1042 C1026 1.368 . S
C1042 C1038 1.368 . S
C1042 C1041 1.523 . S
H1043 C1018 0.950 . S
H1044 C1020 0.950 . S
H1045 C1021 0.949 . S
H1046 C1023 0.950 . S
H1047 C1025 0.950 . S
C1048 C1049 1.349 . S
C1048 C1050 1.327 . S
C1048 H1073 0.950 . S
C1049 C1048 1.349 . S
C1049 C1065 1.349 . S
C1050 C1048 1.327 . S
C1050 C1069 1.429 . S
C1050 H1074 0.950 . S
C1051 C1068 1.574 . S
C1051 C1070 1.368 . S
C1051 H1075 0.949 . S
H1052 C1056 0.949 . S
C1053 C1054 1.349 . S
C1053 C1055 1.327 . S
C1053 H1076 0.950 . S
C1054 C1053 1.349 . S
C1054 C1066 1.349 . S
C1055 C1053 1.327 . S
C1055 C1071 1.429 . S
C1055 H1077 0.950 . S
C1056 H1052 0.949 . S
C1056 C1064 1.574 . S
C1056 C1072 1.368 . S
H1057 C1065 0.950 . S
H1058 C1063 0.950 . S
H1059 C1064 0.949 . S
H1060 C1066 0.950 . S
H1061 C1067 0.950 . S
H1062 C1068 0.949 . S
C1063 H1058 0.950 . S
C1063 C1065 1.327 . S
C1063 C1069 1.429 . S
C1064 C1056 1.574 . S
C1064 H1059 0.949 . S
C1064 C1070 1.368 . S
C1065 C1049 1.349 . S
C1065 H1057 0.950 . S
C1065 C1063 1.327 . S
C1066 C1054 1.349 . S
C1066 H1060 0.950 . S
C1066 C1067 1.327 . S
C1067 H1061 0.950 . S
C1067 C1066 1.327 . S
C1067 C1071 1.429 . S
C1068 C1051 1.574 . S
C1068 H1062 0.949 . S
C1068 C1072 1.368 . S
C1069 C1050 1.429 . S
C1069 C1063 1.429 . S
C1069 C1070 1.523 . S
C1070 C1051 1.368 . S
C1070 C1064 1.368 . S
C1070 C1069 1.523 . S
C1071 C1055 1.429 . S
C1071 C1067 1.429 . S
C1071 C1072 1.523 . S
C1072 C1056 1.368 . S
C1072 C1068 1.368 . S
C1072 C1071 1.523 . S
H1073 C1048 0.950 . S
H1074 C1050 0.950 . S
H1075 C1051 0.949 . S
H1076 C1053 0.950 . S
H1077 C1055 0.950 . S
C1078 C1079 1.349 . S
C1078 C1080 1.327 . S
C1078 H1103 0.950 . S
C1079 C1078 1.349 . S
C1079 C1095 1.349 . S
C1080 C1078 1.327 . S
C1080 C1099 1.429 . S
C1080 H1104 0.950 . S
C1081 C1098 1.574 . S
C1081 C1100 1.368 . S
C1081 H1105 0.949 . S
H1082 C1086 0.949 . S
C1083 C1084 1.349 . S
C1083 C1085 1.327 . S
C1083 H1106 0.950 . S
C1084 C1083 1.349 . S
C1084 C1096 1.349 . S
C1085 C1083 1.327 . S
C1085 C1101 1.429 . S
C1085 H1107 0.950 . S
C1086 H1082 0.949 . S
C1086 C1094 1.574 . S
C1086 C1102 1.368 . S
H1087 C1095 0.950 . S
H1088 C1093 0.950 . S
H1089 C1094 0.949 . S
H1090 C1096 0.950 . S
H1091 C1097 0.950 . S
H1092 C1098 0.949 . S
C1093 H1088 0.950 . S
C1093 C1095 1.327 . S
C1093 C1099 1.429 . S
C1094 C1086 1.574 . S
C1094 H1089 0.949 . S
C1094 C1100 1.368 . S
C1095 C1079 1.349 . S
C1095 H1087 0.950 . S
C1095 C1093 1.327 . S
C1096 C1084 1.349 . S
C1096 H1090 0.950 . S
C1096 C1097 1.327 . S
C1097 H1091 0.950 . S
C1097 C1096 1.327 . S
C1097 C1101 1.429 . S
C1098 C1081 1.574 . S
C1098 H1092 0.949 . S
C1098 C1102 1.368 . S
C1099 C1080 1.429 . S
C1099 C1093 1.429 . S
C1099 C1100 1.523 1_554 S
C1100 C1081 1.368 . S
C1100 C1094 1.368 . S
C1100 C1099 1.523 1_556 S
C1101 C1085 1.429 . S
C1101 C1097 1.429 . S
C1101 C1102 1.523 . S
C1102 C1086 1.368 . S
C1102 C1098 1.368 . S
C1102 C1101 1.523 . S
H1103 C1078 0.950 . S
H1104 C1080 0.950 . S
H1105 C1081 0.949 . S
H1106 C1083 0.950 . S
H1107 C1085 0.950 . S
C1108 C1109 1.349 . S
C1108 C1110 1.327 . S
C1108 H1133 0.950 . S
C1109 C1108 1.349 . S
C1109 C1125 1.349 . S
C1110 C1108 1.327 . S
C1110 C1129 1.429 . S
C1110 H1134 0.950 . S
C1111 C1128 1.574 . S
C1111 C1130 1.368 . S
C1111 H1135 0.949 . S
H1112 C1116 0.949 . S
C1113 C1114 1.349 . S
C1113 C1115 1.327 . S
C1113 H1136 0.950 . S
C1114 C1113 1.349 . S
C1114 C1126 1.349 . S
C1115 C1113 1.327 . S
C1115 C1131 1.429 . S
C1115 H1137 0.950 . S
C1116 H1112 0.949 . S
C1116 C1124 1.574 . S
C1116 C1132 1.368 . S
H1117 C1125 0.950 . S
H1118 C1123 0.950 . S
H1119 C1124 0.949 . S
H1120 C1126 0.950 . S
H1121 C1127 0.950 . S
H1122 C1128 0.949 . S
C1123 H1118 0.950 . S
C1123 C1125 1.327 . S
C1123 C1129 1.429 . S
C1124 C1116 1.574 . S
C1124 H1119 0.949 . S
C1124 C1130 1.368 . S
C1125 C1109 1.349 . S
C1125 H1117 0.950 . S
C1125 C1123 1.327 . S
C1126 C1114 1.349 . S
C1126 H1120 0.950 . S
C1126 C1127 1.327 . S
C1127 H1121 0.950 . S
C1127 C1126 1.327 . S
C1127 C1131 1.429 . S
C1128 C1111 1.574 . S
C1128 H1122 0.949 . S
C1128 C1132 1.368 . S
C1129 C1110 1.429 . S
C1129 C1123 1.429 . S
C1129 C1130 1.523 . S
C1130 C1111 1.368 . S
C1130 C1124 1.368 . S
C1130 C1129 1.523 . S
C1131 C1115 1.429 . S
C1131 C1127 1.429 . S
C1131 C1132 1.523 . S
C1132 C1116 1.368 . S
C1132 C1128 1.368 . S
C1132 C1131 1.523 . S
H1133 C1108 0.950 . S
H1134 C1110 0.950 . S
H1135 C1111 0.949 . S
H1136 C1113 0.950 . S
H1137 C1115 0.950 . S
C1138 C1139 1.349 . S
C1138 C1140 1.327 . S
C1138 H1163 0.950 . S
C1139 C1138 1.349 . S
C1139 C1155 1.349 . S
C1140 C1138 1.327 . S
C1140 C1159 1.429 . S
C1140 H1164 0.950 . S
C1141 C1158 1.574 . S
C1141 C1160 1.368 . S
C1141 H1165 0.949 . S
H1142 C1146 0.949 . S
C1143 C1144 1.349 . S
C1143 C1145 1.327 . S
C1143 H1166 0.950 . S
C1144 C1143 1.349 . S
C1144 C1156 1.349 . S
C1145 C1143 1.327 . S
C1145 C1161 1.429 . S
C1145 H1167 0.950 . S
C1146 H1142 0.949 . S
C1146 C1154 1.574 . S
C1146 C1162 1.368 . S
H1147 C1155 0.950 . S
H1148 C1153 0.950 . S
H1149 C1154 0.949 . S
H1150 C1156 0.950 . S
H1151 C1157 0.950 . S
H1152 C1158 0.949 . S
C1153 H1148 0.950 . S
C1153 C1155 1.327 . S
C1153 C1159 1.429 . S
C1154 C1146 1.574 . S
C1154 H1149 0.949 . S
C1154 C1160 1.368 1_655 S
C1155 C1139 1.349 . S
C1155 H1147 0.950 . S
C1155 C1153 1.327 . S
C1156 C1144 1.349 . S
C1156 H1150 0.950 . S
C1156 C1157 1.327 . S
C1157 H1151 0.950 . S
C1157 C1156 1.327 . S
C1157 C1161 1.429 . S
C1158 C1141 1.574 . S
C1158 H1152 0.949 . S
C1158 C1162 1.368 1_455 S
C1159 C1140 1.429 . S
C1159 C1153 1.429 . S
C1159 C1160 1.523 . S
C1160 C1141 1.368 . S
C1160 C1154 1.368 1_455 S
C1160 C1159 1.523 . S
C1161 C1145 1.429 . S
C1161 C1157 1.429 . S
C1161 C1162 1.523 . S
C1162 C1146 1.368 . S
C1162 C1158 1.368 1_655 S
C1162 C1161 1.523 . S
H1163 C1138 0.950 . S
H1164 C1140 0.950 . S
H1165 C1141 0.949 . S
H1166 C1143 0.950 . S
H1167 C1145 0.950 . S
C1168 C1169 1.349 . S
C1168 C1170 1.327 . S
C1168 H1193 0.950 . S
C1169 C1168 1.349 . S
C1169 C1185 1.349 . S
C1170 C1168 1.327 . S
C1170 C1189 1.429 . S
C1170 H1194 0.950 . S
C1171 C1188 1.574 . S
C1171 C1190 1.368 . S
C1171 H1195 0.949 . S
H1172 C1176 0.949 . S
C1173 C1174 1.349 . S
C1173 C1175 1.327 . S
C1173 H1196 0.950 . S
C1174 C1173 1.349 . S
C1174 C1186 1.349 . S
C1175 C1173 1.327 . S
C1175 C1191 1.429 . S
C1175 H1197 0.950 . S
C1176 H1172 0.949 . S
C1176 C1184 1.574 . S
C1176 C1192 1.368 . S
H1177 C1185 0.950 . S
H1178 C1183 0.950 . S
H1179 C1184 0.949 . S
H1180 C1186 0.950 . S
H1181 C1187 0.950 . S
H1182 C1188 0.949 . S
C1183 H1178 0.950 . S
C1183 C1185 1.327 . S
C1183 C1189 1.429 . S
C1184 C1176 1.574 . S
C1184 H1179 0.949 . S
C1184 C1190 1.368 . S
C1185 C1169 1.349 . S
C1185 H1177 0.950 . S
C1185 C1183 1.327 . S
C1186 C1174 1.349 . S
C1186 H1180 0.950 . S
C1186 C1187 1.327 . S
C1187 H1181 0.950 . S
C1187 C1186 1.327 . S
C1187 C1191 1.429 . S
C1188 C1171 1.574 . S
C1188 H1182 0.949 . S
C1188 C1192 1.368 . S
C1189 C1170 1.429 . S
C1189 C1183 1.429 . S
C1189 C1190 1.523 . S
C1190 C1171 1.368 . S
C1190 C1184 1.368 . S
C1190 C1189 1.523 . S
C1191 C1175 1.429 . S
C1191 C1187 1.429 . S
C1191 C1192 1.523 . S
C1192 C1176 1.368 . S
C1192 C1188 1.368 . S
C1192 C1191 1.523 . S
H1193 C1168 0.950 . S
H1194 C1170 0.950 . S
H1195 C1171 0.949 . S
H1196 C1173 0.950 . S
H1197 C1175 0.950 . S
C1198 C1199 1.349 . S
C1198 C1200 1.327 . S
C1198 H1223 0.950 . S
C1199 C1198 1.349 . S
C1199 C1215 1.349 . S
C1200 C1198 1.327 . S
C1200 C1219 1.429 . S
C1200 H1224 0.950 . S
C1201 C1218 1.574 . S
C1201 C1220 1.368 . S
C1201 H1225 0.949 . S
H1202 C1206 0.949 . S
C1203 C1204 1.349 . S
C1203 C1205 1.327 . S
C1203 H1226 0.950 . S
C1204 C1203 1.349 . S
C1204 C1216 1.349 . S
C1205 C1203 1.327 . S
C1205 C1221 1.429 . S
C1205 H1227 0.950 . S
C1206 H1202 0.949 . S
C1206 C1214 1.574 . S
C1206 C1222 1.368 . S
H1207 C1215 0.950 . S
H1208 C1213 0.950 . S
H1209 C1214 0.949 . S
H1210 C1216 0.950 . S
H1211 C1217 0.950 . S
H1212 C1218 0.949 . S
C1213 H1208 0.950 . S
C1213 C1215 1.327 . S
C1213 C1219 1.429 . S
C1214 C1206 1.574 . S
C1214 H1209 0.949 . S
C1214 C1220 1.368 1_455 S
C1215 C1199 1.349 . S
C1215 H1207 0.950 . S
C1215 C1213 1.327 . S
C1216 C1204 1.349 . S
C1216 H1210 0.950 . S
C1216 C1217 1.327 . S
C1217 H1211 0.950 . S
C1217 C1216 1.327 . S
C1217 C1221 1.429 . S
C1218 C1201 1.574 . S
C1218 H1212 0.949 . S
C1218 C1222 1.368 1_655 S
C1219 C1200 1.429 . S
C1219 C1213 1.429 . S
C1219 C1220 1.523 1_554 S
C1220 C1201 1.368 . S
C1220 C1214 1.368 1_655 S
C1220 C1219 1.523 1_556 S
C1221 C1205 1.429 . S
C1221 C1217 1.429 . S
C1221 C1222 1.523 . S
C1222 C1206 1.368 . S
C1222 C1218 1.368 1_455 S
C1222 C1221 1.523 . S
H1223 C1198 0.950 . S
H1224 C1200 0.950 . S
H1225 C1201 0.949 . S
H1226 C1203 0.950 . S
H1227 C1205 0.950 . S
C1228 C1229 1.349 . S
C1228 C1230 1.327 . S
C1228 H1253 0.950 . S
C1229 C1228 1.349 . S
C1229 C1245 1.349 . S
C1230 C1228 1.327 . S
C1230 C1249 1.429 . S
C1230 H1254 0.950 . S
C1231 C1248 1.574 . S
C1231 C1250 1.368 . S
C1231 H1255 0.949 . S
H1232 C1236 0.949 . S
C1233 C1234 1.349 . S
C1233 C1235 1.327 . S
C1233 H1256 0.950 . S
C1234 C1233 1.349 . S
C1234 C1246 1.349 . S
C1235 C1233 1.327 . S
C1235 C1251 1.429 . S
C1235 H1257 0.950 . S
C1236 H1232 0.949 . S
C1236 C1244 1.574 . S
C1236 C1252 1.368 . S
H1237 C1245 0.950 . S
H1238 C1243 0.950 . S
H1239 C1244 0.949 . S
H1240 C1246 0.950 . S
H1241 C1247 0.950 . S
H1242 C1248 0.949 . S
C1243 H1238 0.950 . S
C1243 C1245 1.327 . S
C1243 C1249 1.429 . S
C1244 C1236 1.574 . S
C1244 H1239 0.949 . S
C1244 C1250 1.368 . S
C1245 C1229 1.349 . S
C1245 H1237 0.950 . S
C1245 C1243 1.327 . S
C1246 C1234 1.349 . S
C1246 H1240 0.950 . S
C1246 C1247 1.327 . S
C1247 H1241 0.950 . S
C1247 C1246 1.327 . S
C1247 C1251 1.429 . S
C1248 C1231 1.574 . S
C1248 H1242 0.949 . S
C1248 C1252 1.368 . S
C1249 C1230 1.429 . S
C1249 C1243 1.429 . S
C1249 C1250 1.523 . S
C1250 C1231 1.368 . S
C1250 C1244 1.368 . S
C1250 C1249 1.523 . S
C1251 C1235 1.429 . S
C1251 C1247 1.429 . S
C1251 C1252 1.523 . S
C1252 C1236 1.368 . S
C1252 C1248 1.368 . S
C1252 C1251 1.523 . S
H1253 C1228 0.950 . S
H1254 C1230 0.950 . S
H1255 C1231 0.949 . S
H1256 C1233 0.950 . S
H1257 C1235 0.950 . S
C1258 C1259 1.349 . S
C1258 C1260 1.327 . S
C1258 H1283 0.950 . S
C1259 C1258 1.349 . S
C1259 C1275 1.349 . S
C1260 C1258 1.327 . S
C1260 C1279 1.429 . S
C1260 H1284 0.950 . S
C1261 C1278 1.574 . S
C1261 C1280 1.368 . S
C1261 H1285 0.949 . S
H1262 C1266 0.949 . S
C1263 C1264 1.349 . S
C1263 C1265 1.327 . S
C1263 H1286 0.950 . S
C1264 C1263 1.349 . S
C1264 C1276 1.349 . S
C1265 C1263 1.327 . S
C1265 C1281 1.429 . S
C1265 H1287 0.950 . S
C1266 H1262 0.949 . S
C1266 C1274 1.574 . S
C1266 C1282 1.368 . S
H1267 C1275 0.950 . S
H1268 C1273 0.950 . S
H1269 C1274 0.949 . S
H1270 C1276 0.950 . S
H1271 C1277 0.950 . S
H1272 C1278 0.949 . S
C1273 H1268 0.950 . S
C1273 C1275 1.327 . S
C1273 C1279 1.429 . S
C1274 C1266 1.574 . S
C1274 H1269 0.949 . S
C1274 C1280 1.368 . S
C1275 C1259 1.349 . S
C1275 H1267 0.950 . S
C1275 C1273 1.327 . S
C1276 C1264 1.349 . S
C1276 H1270 0.950 . S
C1276 C1277 1.327 . S
C1277 H1271 0.950 . S
C1277 C1276 1.327 . S
C1277 C1281 1.429 . S
C1278 C1261 1.574 . S
C1278 H1272 0.949 . S
C1278 C1282 1.368 . S
C1279 C1260 1.429 . S
C1279 C1273 1.429 . S
C1279 C1280 1.523 . S
C1280 C1261 1.368 . S
C1280 C1274 1.368 . S
C1280 C1279 1.523 . S
C1281 C1265 1.429 . S
C1281 C1277 1.429 . S
C1281 C1282 1.523 . S
C1282 C1266 1.368 . S
C1282 C1278 1.368 . S
C1282 C1281 1.523 . S
H1283 C1258 0.950 . S
H1284 C1260 0.950 . S
H1285 C1261 0.949 . S
H1286 C1263 0.950 . S
H1287 C1265 0.950 . S
C1288 C1289 1.349 . S
C1288 C1290 1.327 . S
C1288 H1313 0.950 . S
C1289 C1288 1.349 . S
C1289 C1305 1.349 . S
C1290 C1288 1.327 . S
C1290 C1309 1.429 . S
C1290 H1314 0.950 . S
C1291 C1308 1.574 . S
C1291 C1310 1.368 . S
C1291 H1315 0.949 . S
H1292 C1296 0.949 . S
C1293 C1294 1.349 . S
C1293 C1295 1.327 . S
C1293 H1316 0.950 . S
C1294 C1293 1.349 . S
C1294 C1306 1.349 . S
C1295 C1293 1.327 . S
C1295 C1311 1.429 . S
C1295 H1317 0.950 . S
C1296 H1292 0.949 . S
C1296 C1304 1.574 . S
C1296 C1312 1.368 . S
H1297 C1305 0.950 . S
H1298 C1303 0.950 . S
H1299 C1304 0.949 . S
H1300 C1306 0.950 . S
H1301 C1307 0.950 . S
H1302 C1308 0.949 . S
C1303 H1298 0.950 . S
C1303 C1305 1.327 . S
C1303 C1309 1.429 . S
C1304 C1296 1.574 . S
C1304 H1299 0.949 . S
C1304 C1310 1.368 . S
C1305 C1289 1.349 . S
C1305 H1297 0.950 . S
C1305 C1303 1.327 . S
C1306 C1294 1.349 . S
C1306 H1300 0.950 . S
C1306 C1307 1.327 . S
C1307 H1301 0.950 . S
C1307 C1306 1.327 . S
C1307 C1311 1.429 . S
C1308 C1291 1.574 . S
C1308 H1302 0.949 . S
C1308 C1312 1.368 . S
C1309 C1290 1.429 . S
C1309 C1303 1.429 . S
C1309 C1310 1.523 . S
C1310 C1291 1.368 . S
C1310 C1304 1.368 . S
C1310 C1309 1.523 . S
C1311 C1295 1.429 . S
C1311 C1307 1.429 . S
C1311 C1312 1.523 . S
C1312 C1296 1.368 . S
C1312 C1308 1.368 . S
C1312 C1311 1.523 . S
H1313 C1288 0.950 . S
H1314 C1290 0.950 . S
H1315 C1291 0.949 . S
H1316 C1293 0.950 . S
H1317 C1295 0.950 . S
C1318 C1319 1.349 . S
C1318 C1320 1.327 . S
C1318 H1343 0.950 . S
C1319 C1318 1.349 . S
C1319 C1335 1.349 . S
C1320 C1318 1.327 . S
C1320 C1339 1.429 . S
C1320 H1344 0.950 . S
C1321 C1338 1.574 . S
C1321 C1340 1.368 . S
C1321 H1345 0.949 . S
H1322 C1326 0.949 . S
C1323 C1324 1.349 . S
C1323 C1325 1.327 . S
C1323 H1346 0.950 . S
C1324 C1323 1.349 . S
C1324 C1336 1.349 . S
C1325 C1323 1.327 . S
C1325 C1341 1.429 . S
C1325 H1347 0.950 . S
C1326 H1322 0.949 . S
C1326 C1334 1.574 . S
C1326 C1342 1.368 . S
H1327 C1335 0.950 . S
H1328 C1333 0.950 . S
H1329 C1334 0.949 . S
H1330 C1336 0.950 . S
H1331 C1337 0.950 . S
H1332 C1338 0.949 . S
C1333 H1328 0.950 . S
C1333 C1335 1.327 . S
C1333 C1339 1.429 . S
C1334 C1326 1.574 . S
C1334 H1329 0.949 . S
C1334 C1340 1.368 . S
C1335 C1319 1.349 . S
C1335 H1327 0.950 . S
C1335 C1333 1.327 . S
C1336 C1324 1.349 . S
C1336 H1330 0.950 . S
C1336 C1337 1.327 . S
C1337 H1331 0.950 . S
C1337 C1336 1.327 . S
C1337 C1341 1.429 . S
C1338 C1321 1.574 . S
C1338 H1332 0.949 . S
C1338 C1342 1.368 . S
C1339 C1320 1.429 . S
C1339 C1333 1.429 . S
C1339 C1340 1.523 . S
C1340 C1321 1.368 . S
C1340 C1334 1.368 . S
C1340 C1339 1.523 . S
C1341 C1325 1.429 . S
C1341 C1337 1.429 . S
C1341 C1342 1.523 1_556 S
C1342 C1326 1.368 . S
C1342 C1338 1.368 . S
C1342 C1341 1.523 1_554 S
H1343 C1318 0.950 . S
H1344 C1320 0.950 . S
H1345 C1321 0.949 . S
H1346 C1323 0.950 . S
H1347 C1325 0.950 . S
C1348 C1349 1.349 . S
C1348 C1350 1.327 . S
C1348 H1373 0.950 . S
C1349 C1348 1.349 . S
C1349 C1365 1.349 . S
C1350 C1348 1.327 . S
C1350 C1369 1.429 . S
C1350 H1374 0.950 . S
C1351 C1368 1.574 . S
C1351 C1370 1.368 . S
C1351 H1375 0.949 . S
H1352 C1356 0.949 . S
C1353 C1354 1.349 . S
C1353 C1355 1.327 . S
C1353 H1376 0.950 . S
C1354 C1353 1.349 . S
C1354 C1366 1.349 . S
C1355 C1353 1.327 . S
C1355 C1371 1.429 . S
C1355 H1377 0.950 . S
C1356 H1352 0.949 . S
C1356 C1364 1.574 . S
C1356 C1372 1.368 . S
H1357 C1365 0.950 . S
H1358 C1363 0.950 . S
H1359 C1364 0.949 . S
H1360 C1366 0.950 . S
H1361 C1367 0.950 . S
H1362 C1368 0.949 . S
C1363 H1358 0.950 . S
C1363 C1365 1.327 . S
C1363 C1369 1.429 . S
C1364 C1356 1.574 . S
C1364 H1359 0.949 . S
C1364 C1370 1.368 . S
C1365 C1349 1.349 . S
C1365 H1357 0.950 . S
C1365 C1363 1.327 . S
C1366 C1354 1.349 . S
C1366 H1360 0.950 . S
C1366 C1367 1.327 . S
C1367 H1361 0.950 . S
C1367 C1366 1.327 . S
C1367 C1371 1.429 . S
C1368 C1351 1.574 . S
C1368 H1362 0.949 . S
C1368 C1372 1.368 . S
C1369 C1350 1.429 . S
C1369 C1363 1.429 . S
C1369 C1370 1.523 . S
C1370 C1351 1.368 . S
C1370 C1364 1.368 . S
C1370 C1369 1.523 . S
C1371 C1355 1.429 . S
C1371 C1367 1.429 . S
C1371 C1372 1.523 . S
C1372 C1356 1.368 . S
C1372 C1368 1.368 . S
C1372 C1371 1.523 . S
H1373 C1348 0.950 . S
H1374 C1350 0.950 . S
H1375 C1351 0.949 . S
H1376 C1353 0.950 . S
H1377 C1355 0.950 . S
C1378 C1379 1.349 . S
C1378 C1380 1.327 . S
C1378 H1403 0.950 . S
C1379 C1378 1.349 . S
C1379 C1395 1.349 . S
C1380 C1378 1.327 . S
C1380 C1399 1.429 . S
C1380 H1404 0.950 . S
C1381 C1398 1.596 . S
C1381 C1400 1.368 . S
C1381 H1405 0.949 . S
H1382 C1386 0.949 . S
C1383 C1384 1.349 . S
C1383 C1385 1.327 . S
C1383 H1406 0.950 . S
C1384 C1383 1.349 . S
C1384 C1396 1.349 . S
C1385 C1383 1.327 . S
C1385 C1401 1.429 . S
C1385 H1407 0.950 . S
C1386 H1382 0.949 . S
C1386 C1394 1.574 . S
C1386 C1402 1.368 . S
H1387 C1395 0.950 . S
H1388 C1393 0.950 . S
H1389 C1394 0.949 . S
H1390 C1396 0.950 . S
H1391 C1397 0.950 . S
H1392 C1398 0.954 . S
C1393 H1388 0.950 . S
C1393 C1395 1.327 . S
C1393 C1399 1.429 . S
C1394 C1386 1.574 . S
C1394 H1389 0.949 . S
C1394 C1400 1.368 1_455 S
C1395 C1379 1.349 . S
C1395 H1387 0.950 . S
C1395 C1393 1.327 . S
C1396 C1384 1.349 . S
C1396 H1390 0.950 . S
C1396 C1397 1.327 . S
C1397 H1391 0.950 . S
C1397 C1396 1.327 . S
C1397 C1401 1.429 . S
C1398 C1381 1.596 . S
C1398 H1392 0.954 . S
C1398 C1402 1.343 1_655 S
C1399 C1380 1.429 . S
C1399 C1393 1.429 . S
C1399 C1400 1.523 . S
C1400 C1381 1.368 . S
C1400 C1394 1.368 1_655 S
C1400 C1399 1.523 . S
C1401 C1385 1.429 . S
C1401 C1397 1.429 . S
C1401 C1402 1.523 . S
C1402 C1386 1.368 . S
C1402 C1398 1.343 1_455 S
C1402 C1401 1.523 . S
H1403 C1378 0.950 . S
H1404 C1380 0.950 . S
H1405 C1381 0.949 . S
H1406 C1383 0.950 . S
H1407 C1385 0.950 . S
C1408 C1409 1.349 . S
C1408 C1410 1.327 . S
C1408 H1433 0.950 . S
C1409 C1408 1.349 . S
C1409 C1425 1.349 . S
C1410 C1408 1.327 . S
C1410 C1429 1.429 . S
C1410 H1434 0.950 . S
C1411 C1428 1.574 . S
C1411 C1430 1.368 . S
C1411 H1435 0.949 . S
H1412 C1416 0.949 . S
C1413 C1414 1.349 . S
C1413 C1415 1.327 . S
C1413 H1436 0.950 . S
C1414 C1413 1.349 . S
C1414 C1426 1.349 . S
C1415 C1413 1.327 . S
C1415 C1431 1.429 . S
C1415 H1437 0.950 . S
C1416 H1412 0.949 . S
C1416 C1424 1.574 . S
C1416 C1432 1.368 . S
H1417 C1425 0.950 . S
H1418 C1423 0.950 . S
H1419 C1424 0.949 . S
H1420 C1426 0.950 . S
H1421 C1427 0.950 . S
H1422 C1428 0.949 . S
C1423 H1418 0.950 . S
C1423 C1425 1.327 . S
C1423 C1429 1.429 . S
C1424 C1416 1.574 . S
C1424 H1419 0.949 . S
C1424 C1430 1.368 . S
C1425 C1409 1.349 . S
C1425 H1417 0.950 . S
C1425 C1423 1.327 . S
C1426 C1414 1.349 . S
C1426 H1420 0.950 . S
C1426 C1427 1.327 . S
C1427 H1421 0.950 . S
C1427 C1426 1.327 . S
C1427 C1431 1.429 . S
C1428 C1411 1.574 . S
C1428 H1422 0.949 . S
C1428 C1432 1.368 . S
C1429 C1410 1.429 . S
C1429 C1423 1.429 . S
C1429 C1430 1.523 . S
C1430 C1411 1.368 . S
C1430 C1424 1.368 . S
C1430 C1429 1.523 . S
C1431 C1415 1.429 . S
C1431 C1427 1.429 . S
C1431 C1432 1.523 . S
C1432 C1416 1.368 . S
C1432 C1428 1.368 . S
C1432 C1431 1.523 . S
H1433 C1408 0.950 . S
H1434 C1410 0.950 . S
H1435 C1411 0.949 . S
H1436 C1413 0.950 . S
H1437 C1415 0.950 . S
C1438 C1439 1.349 . S
C1438 C1440 1.327 . S
C1438 H1463 0.950 . S
C1439 C1438 1.349 . S
C1439 C1455 1.349 . S
C1440 C1438 1.327 . S
C1440 C1459 1.429 . S
C1440 H1464 0.950 . S
C1441 C1458 1.574 . S
C1441 C1460 1.368 . S
C1441 H1465 0.949 . S
H1442 C1446 0.949 . S
C1443 C1444 1.349 . S
C1443 C1445 1.327 . S
C1443 H1466 0.950 . S
C1444 C1443 1.349 . S
C1444 C1456 1.349 . S
C1445 C1443 1.327 . S
C1445 C1461 1.429 . S
C1445 H1467 0.950 . S
C1446 H1442 0.949 . S
C1446 C1454 1.574 . S
C1446 C1462 1.368 . S
H1447 C1455 0.950 . S
H1448 C1453 0.950 . S
H1449 C1454 0.949 . S
H1450 C1456 0.950 . S
H1451 C1457 0.950 . S
H1452 C1458 0.949 . S
C1453 H1448 0.950 . S
C1453 C1455 1.327 . S
C1453 C1459 1.429 . S
C1454 C1446 1.574 . S
C1454 H1449 0.949 . S
C1454 C1460 1.368 . S
C1455 C1439 1.349 . S
C1455 H1447 0.950 . S
C1455 C1453 1.327 . S
C1456 C1444 1.349 . S
C1456 H1450 0.950 . S
C1456 C1457 1.327 . S
C1457 H1451 0.950 . S
C1457 C1456 1.327 . S
C1457 C1461 1.429 . S
C1458 C1441 1.574 . S
C1458 H1452 0.949 . S
C1458 C1462 1.368 . S
C1459 C1440 1.429 . S
C1459 C1453 1.429 . S
C1459 C1460 1.523 . S
C1460 C1441 1.368 . S
C1460 C1454 1.368 . S
C1460 C1459 1.523 . S
C1461 C1445 1.429 . S
C1461 C1457 1.429 . S
C1461 C1462 1.523 . S
C1462 C1446 1.368 . S
C1462 C1458 1.368 . S
C1462 C1461 1.523 . S
H1463 C1438 0.950 . S
H1464 C1440 0.950 . S
H1465 C1441 0.949 . S
H1466 C1443 0.950 . S
H1467 C1445 0.950 . S
C1468 C1469 1.349 . S
C1468 C1470 1.327 . S
C1468 H1493 0.950 . S
C1469 C1468 1.349 . S
C1469 C1485 1.349 . S
C1470 C1468 1.327 . S
C1470 C1489 1.429 . S
C1470 H1494 0.950 . S
C1471 C1488 1.574 . S
C1471 C1490 1.368 . S
C1471 H1495 0.949 . S
H1472 C1476 0.949 . S
C1473 C1474 1.349 . S
C1473 C1475 1.327 . S
C1473 H1496 0.950 . S
C1474 C1473 1.349 . S
C1474 C1486 1.349 . S
C1475 C1473 1.327 . S
C1475 C1491 1.429 . S
C1475 H1497 0.950 . S
C1476 H1472 0.949 . S
C1476 C1484 1.574 . S
C1476 C1492 1.368 . S
H1477 C1485 0.950 . S
H1478 C1483 0.950 . S
H1479 C1484 0.949 . S
H1480 C1486 0.950 . S
H1481 C1487 0.950 . S
H1482 C1488 0.949 . S
C1483 H1478 0.950 . S
C1483 C1485 1.327 . S
C1483 C1489 1.429 . S
C1484 C1476 1.574 . S
C1484 H1479 0.949 . S
C1484 C1490 1.368 . S
C1485 C1469 1.349 . S
C1485 H1477 0.950 . S
C1485 C1483 1.327 . S
C1486 C1474 1.349 . S
C1486 H1480 0.950 . S
C1486 C1487 1.327 . S
C1487 H1481 0.950 . S
C1487 C1486 1.327 . S
C1487 C1491 1.429 . S
C1488 C1471 1.574 . S
C1488 H1482 0.949 . S
C1488 C1492 1.368 . S
C1489 C1470 1.429 . S
C1489 C1483 1.429 . S
C1489 C1490 1.523 . S
C1490 C1471 1.368 . S
C1490 C1484 1.368 . S
C1490 C1489 1.523 . S
C1491 C1475 1.429 . S
C1491 C1487 1.429 . S
C1491 C1492 1.523 . S
C1492 C1476 1.368 . S
C1492 C1488 1.368 . S
C1492 C1491 1.523 . S
H1493 C1468 0.950 . S
H1494 C1470 0.950 . S
H1495 C1471 0.949 . S
H1496 C1473 0.950 . S
H1497 C1475 0.950 . S
C1498 C1499 1.349 . S
C1498 C1500 1.327 . S
C1498 H1523 0.950 . S
C1499 C1498 1.349 . S
C1499 C1515 1.349 . S
C1500 C1498 1.327 . S
C1500 C1519 1.429 . S
C1500 H1524 0.950 . S
C1501 C1518 1.574 . S
C1501 C1520 1.368 1_655 S
C1501 H1525 0.949 . S
H1502 C1506 0.949 . S
C1503 C1504 1.349 . S
C1503 C1505 1.327 . S
C1503 H1526 0.950 . S
C1504 C1503 1.349 . S
C1504 C1516 1.349 . S
C1505 C1503 1.327 . S
C1505 C1521 1.429 . S
C1505 H1527 0.950 . S
C1506 H1502 0.949 . S
C1506 C1514 1.574 . S
C1506 C1522 1.368 1_455 S
H1507 C1515 0.950 . S
H1508 C1513 0.950 . S
H1509 C1514 0.949 . S
H1510 C1516 0.950 . S
H1511 C1517 0.950 . S
H1512 C1518 0.949 . S
C1513 H1508 0.950 . S
C1513 C1515 1.327 . S
C1513 C1519 1.429 . S
C1514 C1506 1.574 . S
C1514 H1509 0.949 . S
C1514 C1520 1.368 . S
C1515 C1499 1.349 . S
C1515 H1507 0.950 . S
C1515 C1513 1.327 . S
C1516 C1504 1.349 . S
C1516 H1510 0.950 . S
C1516 C1517 1.327 . S
C1517 H1511 0.950 . S
C1517 C1516 1.327 . S
C1517 C1521 1.429 . S
C1518 C1501 1.574 . S
C1518 H1512 0.949 . S
C1518 C1522 1.368 . S
C1519 C1500 1.429 . S
C1519 C1513 1.429 . S
C1519 C1520 1.523 . S
C1520 C1501 1.368 1_455 S
C1520 C1514 1.368 . S
C1520 C1519 1.523 . S
C1521 C1505 1.429 . S
C1521 C1517 1.429 . S
C1521 C1522 1.523 1_556 S
C1522 C1506 1.368 1_655 S
C1522 C1518 1.368 . S
C1522 C1521 1.523 1_554 S
H1523 C1498 0.950 . S
H1524 C1500 0.950 . S
H1525 C1501 0.949 . S
H1526 C1503 0.950 . S
H1527 C1505 0.950 . S
C1528 C1529 1.349 . S
C1528 C1530 1.327 . S
C1528 H1553 0.950 . S
C1529 C1528 1.349 . S
C1529 C1545 1.349 . S
C1530 C1528 1.327 . S
C1530 C1549 1.429 . S
C1530 H1554 0.950 . S
C1531 C1548 1.574 . S
C1531 C1550 1.368 . S
C1531 H1555 0.949 . S
H1532 C1536 0.949 . S
C1533 C1534 1.349 . S
C1533 C1535 1.327 . S
C1533 H1556 0.950 . S
C1534 C1533 1.349 . S
C1534 C1546 1.349 . S
C1535 C1533 1.327 . S
C1535 C1551 1.429 . S
C1535 H1557 0.950 . S
C1536 H1532 0.949 . S
C1536 C1544 1.574 . S
C1536 C1552 1.368 . S
H1537 C1545 0.950 . S
H1538 C1543 0.950 . S
H1539 C1544 0.949 . S
H1540 C1546 0.950 . S
H1541 C1547 0.950 . S
H1542 C1548 0.949 . S
C1543 H1538 0.950 . S
C1543 C1545 1.327 . S
C1543 C1549 1.429 . S
C1544 C1536 1.574 . S
C1544 H1539 0.949 . S
C1544 C1550 1.368 . S
C1545 C1529 1.349 . S
C1545 H1537 0.950 . S
C1545 C1543 1.327 . S
C1546 C1534 1.349 . S
C1546 H1540 0.950 . S
C1546 C1547 1.327 . S
C1547 H1541 0.950 . S
C1547 C1546 1.327 . S
C1547 C1551 1.429 . S
C1548 C1531 1.574 . S
C1548 H1542 0.949 . S
C1548 C1552 1.368 . S
C1549 C1530 1.429 . S
C1549 C1543 1.429 . S
C1549 C1550 1.523 . S
C1550 C1531 1.368 . S
C1550 C1544 1.368 . S
C1550 C1549 1.523 . S
C1551 C1535 1.429 . S
C1551 C1547 1.429 . S
C1551 C1552 1.523 . S
C1552 C1536 1.368 . S
C1552 C1548 1.368 . S
C1552 C1551 1.523 . S
H1553 C1528 0.950 . S
H1554 C1530 0.950 . S
H1555 C1531 0.949 . S
H1556 C1533 0.950 . S
H1557 C1535 0.950 . S
C1558 C1559 1.349 . S
C1558 C1560 1.327 . S
C1558 H1583 0.950 . S
C1559 C1558 1.349 . S
C1559 C1575 1.349 . S
C1560 C1558 1.327 . S
C1560 C1579 1.429 . S
C1560 H1584 0.950 . S
C1561 C1578 1.574 1_655 S
C1561 C1580 1.368 . S
C1561 H1585 0.949 . S
H1562 C1566 0.949 . S
C1563 C1564 1.349 . S
C1563 C1565 1.327 . S
C1563 H1586 0.950 . S
C1564 C1563 1.349 . S
C1564 C1576 1.349 . S
C1565 C1563 1.327 . S
C1565 C1581 1.429 . S
C1565 H1587 0.950 . S
C1566 H1562 0.949 . S
C1566 C1574 1.574 1_455 S
C1566 C1582 1.368 . S
H1567 C1575 0.950 . S
H1568 C1573 0.950 . S
H1569 C1574 0.949 . S
H1570 C1576 0.950 . S
H1571 C1577 0.950 . S
H1572 C1578 0.949 . S
C1573 H1568 0.950 . S
C1573 C1575 1.327 . S
C1573 C1579 1.429 . S
C1574 C1566 1.574 1_655 S
C1574 H1569 0.949 . S
C1574 C1580 1.368 . S
C1575 C1559 1.349 . S
C1575 H1567 0.950 . S
C1575 C1573 1.327 . S
C1576 C1564 1.349 . S
C1576 H1570 0.950 . S
C1576 C1577 1.327 . S
C1577 H1571 0.950 . S
C1577 C1576 1.327 . S
C1577 C1581 1.429 . S
C1578 C1561 1.574 1_455 S
C1578 H1572 0.949 . S
C1578 C1582 1.368 . S
C1579 C1560 1.429 . S
C1579 C1573 1.429 . S
C1579 C1580 1.523 . S
C1580 C1561 1.368 . S
C1580 C1574 1.368 . S
C1580 C1579 1.523 . S
C1581 C1565 1.429 . S
C1581 C1577 1.429 . S
C1581 C1582 1.523 . S
C1582 C1566 1.368 . S
C1582 C1578 1.368 . S
C1582 C1581 1.523 . S
H1583 C1558 0.950 . S
H1584 C1560 0.950 . S
H1585 C1561 0.949 . S
H1586 C1563 0.950 . S
H1587 C1565 0.950 . S
C1588 C1589 1.349 . S
C1588 C1590 1.327 . S
C1588 H1613 0.950 . S
C1589 C1588 1.349 . S
C1589 C1605 1.349 . S
C1590 C1588 1.327 . S
C1590 C1609 1.429 . S
C1590 H1614 0.950 . S
C1591 C1608 1.574 . S
C1591 C1610 1.368 . S
C1591 H1615 0.949 . S
H1592 C1596 0.949 . S
C1593 C1594 1.349 . S
C1593 C1595 1.327 . S
C1593 H1616 0.950 . S
C1594 C1593 1.349 . S
C1594 C1606 1.349 . S
C1595 C1593 1.327 . S
C1595 C1611 1.429 . S
C1595 H1617 0.950 . S
C1596 H1592 0.949 . S
C1596 C1604 1.574 . S
C1596 C1612 1.368 . S
H1597 C1605 0.950 . S
H1598 C1603 0.950 . S
H1599 C1604 0.949 . S
H1600 C1606 0.950 . S
H1601 C1607 0.950 . S
H1602 C1608 0.949 . S
C1603 H1598 0.950 . S
C1603 C1605 1.327 . S
C1603 C1609 1.429 . S
C1604 C1596 1.574 . S
C1604 H1599 0.949 . S
C1604 C1610 1.368 . S
C1605 C1589 1.349 . S
C1605 H1597 0.950 . S
C1605 C1603 1.327 . S
C1606 C1594 1.349 . S
C1606 H1600 0.950 . S
C1606 C1607 1.327 . S
C1607 H1601 0.950 . S
C1607 C1606 1.327 . S
C1607 C1611 1.429 . S
C1608 C1591 1.574 . S
C1608 H1602 0.949 . S
C1608 C1612 1.368 . S
C1609 C1590 1.429 . S
C1609 C1603 1.429 . S
C1609 C1610 1.523 . S
C1610 C1591 1.368 . S
C1610 C1604 1.368 . S
C1610 C1609 1.523 . S
C1611 C1595 1.429 . S
C1611 C1607 1.429 . S
C1611 C1612 1.523 . S
C1612 C1596 1.368 . S
C1612 C1608 1.368 . S
C1612 C1611 1.523 . S
H1613 C1588 0.950 . S
H1614 C1590 0.950 . S
H1615 C1591 0.949 . S
H1616 C1593 0.950 . S
H1617 C1595 0.950 . S
C1618 C1619 1.349 . S
C1618 C1620 1.327 . S
C1618 H1643 0.950 . S
C1619 C1618 1.349 . S
C1619 C1635 1.349 . S
C1620 C1618 1.327 . S
C1620 C1639 1.429 . S
C1620 H1644 0.950 . S
C1621 C1638 1.574 . S
C1621 C1640 1.368 . S
C1621 H1645 0.949 . S
H1622 C1626 0.949 . S
C1623 C1624 1.349 . S
C1623 C1625 1.327 . S
C1623 H1646 0.950 . S
C1624 C1623 1.349 . S
C1624 C1636 1.349 . S
C1625 C1623 1.327 . S
C1625 C1641 1.429 . S
C1625 H1647 0.950 . S
C1626 H1622 0.949 . S
C1626 C1634 1.574 . S
C1626 C1642 1.368 . S
H1627 C1635 0.950 . S
H1628 C1633 0.950 . S
H1629 C1634 0.949 . S
H1630 C1636 0.950 . S
H1631 C1637 0.950 . S
H1632 C1638 0.949 . S
C1633 H1628 0.950 . S
C1633 C1635 1.327 . S
C1633 C1639 1.429 . S
C1634 C1626 1.574 . S
C1634 H1629 0.949 . S
C1634 C1640 1.368 . S
C1635 C1619 1.349 . S
C1635 H1627 0.950 . S
C1635 C1633 1.327 . S
C1636 C1624 1.349 . S
C1636 H1630 0.950 . S
C1636 C1637 1.327 . S
C1637 H1631 0.950 . S
C1637 C1636 1.327 . S
C1637 C1641 1.429 . S
C1638 C1621 1.574 . S
C1638 H1632 0.949 . S
C1638 C1642 1.368 . S
C1639 C1620 1.429 . S
C1639 C1633 1.429 . S
C1639 C1640 1.523 1_554 S
C1640 C1621 1.368 . S
C1640 C1634 1.368 . S
C1640 C1639 1.523 1_556 S
C1641 C1625 1.429 . S
C1641 C1637 1.429 . S
C1641 C1642 1.523 . S
C1642 C1626 1.368 . S
C1642 C1638 1.368 . S
C1642 C1641 1.523 . S
H1643 C1618 0.950 . S
H1644 C1620 0.950 . S
H1645 C1621 0.949 . S
H1646 C1623 0.950 . S
H1647 C1625 0.950 . S
C1648 C1649 1.349 . S
C1648 C1650 1.327 . S
C1648 H1673 0.950 . S
C1649 C1648 1.349 . S
C1649 C1665 1.349 . S
C1650 C1648 1.327 . S
C1650 C1669 1.429 . S
C1650 H1674 0.950 . S
C1651 C1668 1.574 . S
C1651 C1670 1.368 . S
C1651 H1675 0.949 . S
H1652 C1656 0.949 . S
C1653 C1654 1.349 . S
C1653 C1655 1.327 . S
C1653 H1676 0.950 . S
C1654 C1653 1.349 . S
C1654 C1666 1.349 . S
C1655 C1653 1.327 . S
C1655 C1671 1.429 . S
C1655 H1677 0.950 . S
C1656 H1652 0.949 . S
C1656 C1664 1.574 . S
C1656 C1672 1.368 . S
H1657 C1665 0.950 . S
H1658 C1663 0.950 . S
H1659 C1664 0.949 . S
H1660 C1666 0.950 . S
H1661 C1667 0.950 . S
H1662 C1668 0.949 . S
C1663 H1658 0.950 . S
C1663 C1665 1.327 . S
C1663 C1669 1.429 . S
C1664 C1656 1.574 . S
C1664 H1659 0.949 . S
C1664 C1670 1.368 . S
C1665 C1649 1.349 . S
C1665 H1657 0.950 . S
C1665 C1663 1.327 . S
C1666 C1654 1.349 . S
C1666 H1660 0.950 . S
C1666 C1667 1.327 . S
C1667 H1661 0.950 . S
C1667 C1666 1.327 . S
C1667 C1671 1.429 . S
C1668 C1651 1.574 . S
C1668 H1662 0.949 . S
C1668 C1672 1.368 . S
C1669 C1650 1.429 . S
C1669 C1663 1.429 . S
C1669 C1670 1.523 . S
C1670 C1651 1.368 . S
C1670 C1664 1.368 . S
C1670 C1669 1.523 . S
C1671 C1655 1.429 . S
C1671 C1667 1.429 . S
C1671 C1672 1.523 . S
C1672 C1656 1.368 . S
C1672 C1668 1.368 . S
C1672 C1671 1.523 . S
H1673 C1648 0.950 . S
H1674 C1650 0.950 . S
H1675 C1651 0.949 . S
H1676 C1653 0.950 . S
H1677 C1655 0.950 . S
C1678 C1679 1.349 . S
C1678 C1680 1.327 . S
C1678 H1703 0.950 . S
C1679 C1678 1.349 . S
C1679 C1695 1.349 . S
C1680 C1678 1.327 . S
C1680 C1699 1.429 . S
C1680 H1704 0.950 . S
C1681 C1698 1.574 . S
C1681 C1700 1.368 . S
C1681 H1705 0.949 . S
H1682 C1686 0.949 . S
C1683 C1684 1.349 . S
C1683 C1685 1.327 . S
C1683 H1706 0.950 . S
C1684 C1683 1.349 . S
C1684 C1696 1.349 . S
C1685 C1683 1.327 . S
C1685 C1701 1.429 . S
C1685 H1707 0.950 . S
C1686 H1682 0.949 . S
C1686 C1694 1.574 . S
C1686 C1702 1.368 . S
H1687 C1695 0.950 . S
H1688 C1693 0.950 . S
H1689 C1694 0.949 . S
H1690 C1696 0.950 . S
H1691 C1697 0.950 . S
H1692 C1698 0.949 . S
C1693 H1688 0.950 . S
C1693 C1695 1.327 . S
C1693 C1699 1.429 . S
C1694 C1686 1.574 . S
C1694 H1689 0.949 . S
C1694 C1700 1.368 . S
C1695 C1679 1.349 . S
C1695 H1687 0.950 . S
C1695 C1693 1.327 . S
C1696 C1684 1.349 . S
C1696 H1690 0.950 . S
C1696 C1697 1.327 . S
C1697 H1691 0.950 . S
C1697 C1696 1.327 . S
C1697 C1701 1.429 . S
C1698 C1681 1.574 . S
C1698 H1692 0.949 . S
C1698 C1702 1.368 . S
C1699 C1680 1.429 . S
C1699 C1693 1.429 . S
C1699 C1700 1.523 . S
C1700 C1681 1.368 . S
C1700 C1694 1.368 . S
C1700 C1699 1.523 . S
C1701 C1685 1.429 . S
C1701 C1697 1.429 . S
C1701 C1702 1.523 . S
C1702 C1686 1.368 . S
C1702 C1698 1.368 . S
C1702 C1701 1.523 . S
H1703 C1678 0.950 . S
H1704 C1680 0.950 . S
H1705 C1681 0.949 . S
H1706 C1683 0.950 . S
H1707 C1685 0.950 . S
C1708 C1709 1.349 . S
C1708 C1710 1.327 . S
C1708 H1733 0.950 . S
C1709 C1708 1.349 . S
C1709 C1725 1.349 . S
C1710 C1708 1.327 . S
C1710 C1729 1.429 . S
C1710 H1734 0.950 . S
C1711 C1728 1.574 . S
C1711 C1730 1.368 . S
C1711 H1735 0.949 . S
H1712 C1716 0.949 . S
C1713 C1714 1.349 . S
C1713 C1715 1.327 . S
C1713 H1736 0.950 . S
C1714 C1713 1.349 . S
C1714 C1726 1.349 . S
C1715 C1713 1.327 . S
C1715 C1731 1.429 . S
C1715 H1737 0.950 . S
C1716 H1712 0.949 . S
C1716 C1724 1.574 . S
C1716 C1732 1.368 . S
H1717 C1725 0.950 . S
H1718 C1723 0.950 . S
H1719 C1724 0.949 . S
H1720 C1726 0.950 . S
H1721 C1727 0.950 . S
H1722 C1728 0.949 . S
C1723 H1718 0.950 . S
C1723 C1725 1.327 . S
C1723 C1729 1.429 . S
C1724 C1716 1.574 . S
C1724 H1719 0.949 . S
C1724 C1730 1.368 . S
C1725 C1709 1.349 . S
C1725 H1717 0.950 . S
C1725 C1723 1.327 . S
C1726 C1714 1.349 . S
C1726 H1720 0.950 . S
C1726 C1727 1.327 . S
C1727 H1721 0.950 . S
C1727 C1726 1.327 . S
C1727 C1731 1.429 . S
C1728 C1711 1.574 . S
C1728 H1722 0.949 . S
C1728 C1732 1.368 . S
C1729 C1710 1.429 . S
C1729 C1723 1.429 . S
C1729 C1730 1.523 . S
C1730 C1711 1.368 . S
C1730 C1724 1.368 . S
C1730 C1729 1.523 . S
C1731 C1715 1.429 . S
C1731 C1727 1.429 . S
C1731 C1732 1.523 . S
C1732 C1716 1.368 . S
C1732 C1728 1.368 . S
C1732 C1731 1.523 . S
H1733 C1708 0.950 . S
H1734 C1710 0.950 . S
H1735 C1711 0.949 . S
H1736 C1713 0.950 . S
H1737 C1715 0.950 . S
C1738 C1739 1.349 . S
C1738 C1740 1.327 . S
C1738 H1763 0.950 . S
C1739 C1738 1.349 . S
C1739 C1755 1.349 . S
C1740 C1738 1.327 . S
C1740 C1759 1.429 . S
C1740 H1764 0.950 . S
C1741 C1758 1.574 . S
C1741 C1760 1.368 . S
C1741 H1765 0.949 . S
H1742 C1746 0.949 . S
C1743 C1744 1.349 . S
C1743 C1745 1.327 . S
C1743 H1766 0.950 . S
C1744 C1743 1.349 . S
C1744 C1756 1.349 . S
C1745 C1743 1.327 . S
C1745 C1761 1.429 . S
C1745 H1767 0.950 . S
C1746 H1742 0.949 . S
C1746 C1754 1.574 . S
C1746 C1762 1.368 . S
H1747 C1755 0.950 . S
H1748 C1753 0.950 . S
H1749 C1754 0.949 . S
H1750 C1756 0.950 . S
H1751 C1757 0.950 . S
H1752 C1758 0.949 . S
C1753 H1748 0.950 . S
C1753 C1755 1.327 . S
C1753 C1759 1.429 . S
C1754 C1746 1.574 . S
C1754 H1749 0.949 . S
C1754 C1760 1.368 1_455 S
C1755 C1739 1.349 . S
C1755 H1747 0.950 . S
C1755 C1753 1.327 . S
C1756 C1744 1.349 . S
C1756 H1750 0.950 . S
C1756 C1757 1.327 . S
C1757 H1751 0.950 . S
C1757 C1756 1.327 . S
C1757 C1761 1.429 . S
C1758 C1741 1.574 . S
C1758 H1752 0.949 . S
C1758 C1762 1.368 1_655 S
C1759 C1740 1.429 . S
C1759 C1753 1.429 . S
C1759 C1760 1.523 . S
C1760 C1741 1.368 . S
C1760 C1754 1.368 1_655 S
C1760 C1759 1.523 . S
C1761 C1745 1.429 . S
C1761 C1757 1.429 . S
C1761 C1762 1.523 1_554 S
C1762 C1746 1.368 . S
C1762 C1758 1.368 1_455 S
C1762 C1761 1.523 1_556 S
H1763 C1738 0.950 . S
H1764 C1740 0.950 . S
H1765 C1741 0.949 . S
H1766 C1743 0.950 . S
H1767 C1745 0.950 . S
C1768 C1769 1.349 . S
C1768 C1770 1.327 . S
C1768 H1793 0.950 . S
C1769 C1768 1.349 . S
C1769 C1785 1.349 . S
C1770 C1768 1.327 . S
C1770 C1789 1.429 . S
C1770 H1794 0.950 . S
C1771 C1788 1.574 . S
C1771 C1790 1.368 . S
C1771 H1795 0.949 . S
H1772 C1776 0.949 . S
C1773 C1774 1.349 . S
C1773 C1775 1.327 . S
C1773 H1796 0.950 . S
C1774 C1773 1.349 . S
C1774 C1786 1.349 . S
C1775 C1773 1.327 . S
C1775 C1791 1.429 . S
C1775 H1797 0.950 . S
C1776 H1772 0.949 . S
C1776 C1784 1.574 . S
C1776 C1792 1.368 . S
H1777 C1785 0.950 . S
H1778 C1783 0.950 . S
H1779 C1784 0.949 . S
H1780 C1786 0.950 . S
H1781 C1787 0.950 . S
H1782 C1788 0.949 . S
C1783 H1778 0.950 . S
C1783 C1785 1.327 . S
C1783 C1789 1.429 . S
C1784 C1776 1.574 . S
C1784 H1779 0.949 . S
C1784 C1790 1.368 . S
C1785 C1769 1.349 . S
C1785 H1777 0.950 . S
C1785 C1783 1.327 . S
C1786 C1774 1.349 . S
C1786 H1780 0.950 . S
C1786 C1787 1.327 . S
C1787 H1781 0.950 . S
C1787 C1786 1.327 . S
C1787 C1791 1.429 . S
C1788 C1771 1.574 . S
C1788 H1782 0.949 . S
C1788 C1792 1.368 . S
C1789 C1770 1.429 . S
C1789 C1783 1.429 . S
C1789 C1790 1.523 . S
C1790 C1771 1.368 . S
C1790 C1784 1.368 . S
C1790 C1789 1.523 . S
C1791 C1775 1.429 . S
C1791 C1787 1.429 . S
C1791 C1792 1.523 . S
C1792 C1776 1.368 . S
C1792 C1788 1.368 . S
C1792 C1791 1.523 . S
H1793 C1768 0.950 . S
H1794 C1770 0.950 . S
H1795 C1771 0.949 . S
H1796 C1773 0.950 . S
H1797 C1775 0.950 . S
C1798 C1799 1.349 . S
C1798 C1800 1.327 . S
C1798 H1823 0.950 . S
C1799 C1798 1.349 . S
C1799 C1815 1.349 . S
C1800 C1798 1.327 . S
C1800 C1819 1.429 . S
C1800 H1824 0.950 . S
C1801 C1818 1.574 . S
C1801 C1820 1.368 . S
C1801 H1825 0.949 . S
H1802 C1806 0.949 . S
C1803 C1804 1.349 . S
C1803 C1805 1.327 . S
C1803 H1826 0.950 . S
C1804 C1803 1.349 . S
C1804 C1816 1.349 . S
C1805 C1803 1.327 . S
C1805 C1821 1.429 . S
C1805 H1827 0.950 . S
C1806 H1802 0.949 . S
C1806 C1814 1.574 . S
C1806 C1822 1.368 . S
H1807 C1815 0.950 . S
H1808 C1813 0.950 . S
H1809 C1814 0.949 . S
H1810 C1816 0.950 . S
H1811 C1817 0.950 . S
H1812 C1818 0.949 . S
C1813 H1808 0.950 . S
C1813 C1815 1.327 . S
C1813 C1819 1.429 . S
C1814 C1806 1.574 . S
C1814 H1809 0.949 . S
C1814 C1820 1.368 1_455 S
C1815 C1799 1.349 . S
C1815 H1807 0.950 . S
C1815 C1813 1.327 . S
C1816 C1804 1.349 . S
C1816 H1810 0.950 . S
C1816 C1817 1.327 . S
C1817 H1811 0.950 . S
C1817 C1816 1.327 . S
C1817 C1821 1.429 . S
C1818 C1801 1.574 . S
C1818 H1812 0.949 . S
C1818 C1822 1.368 1_655 S
C1819 C1800 1.429 . S
C1819 C1813 1.429 . S
C1819 C1820 1.523 . S
C1820 C1801 1.368 . S
C1820 C1814 1.368 1_655 S
C1820 C1819 1.523 . S
C1821 C1805 1.429 . S
C1821 C1817 1.429 . S
C1821 C1822 1.523 . S
C1822 C1806 1.368 . S
C1822 C1818 1.368 1_455 S
C1822 C1821 1.523 . S
H1823 C1798 0.950 . S
H1824 C1800 0.950 . S
H1825 C1801 0.949 . S
H1826 C1803 0.950 . S
H1827 C1805 0.950 . S
C1828 C1829 1.349 . S
C1828 C1830 1.327 . S
C1828 H1853 0.950 . S
C1829 C1828 1.349 . S
C1829 C1845 1.349 . S
C1830 C1828 1.327 . S
C1830 C1849 1.429 . S
C1830 H1854 0.950 . S
C1831 C1848 1.574 . S
C1831 C1850 1.368 . S
C1831 H1855 0.949 . S
H1832 C1836 0.949 . S
C1833 C1834 1.349 . S
C1833 C1835 1.327 . S
C1833 H1856 0.950 . S
C1834 C1833 1.349 . S
C1834 C1846 1.349 . S
C1835 C1833 1.327 . S
C1835 C1851 1.429 . S
C1835 H1857 0.950 . S
C1836 H1832 0.949 . S
C1836 C1844 1.574 . S
C1836 C1852 1.368 . S
H1837 C1845 0.950 . S
H1838 C1843 0.950 . S
H1839 C1844 0.949 . S
H1840 C1846 0.950 . S
H1841 C1847 0.950 . S
H1842 C1848 0.949 . S
C1843 H1838 0.950 . S
C1843 C1845 1.327 . S
C1843 C1849 1.429 . S
C1844 C1836 1.574 . S
C1844 H1839 0.949 . S
C1844 C1850 1.368 . S
C1845 C1829 1.349 . S
C1845 H1837 0.950 . S
C1845 C1843 1.327 . S
C1846 C1834 1.349 . S
C1846 H1840 0.950 . S
C1846 C1847 1.327 . S
C1847 H1841 0.950 . S
C1847 C1846 1.327 . S
C1847 C1851 1.429 . S
C1848 C1831 1.574 . S
C1848 H1842 0.949 . S
C1848 C1852 1.368 . S
C1849 C1830 1.429 . S
C1849 C1843 1.429 . S
C1849 C1850 1.523 . S
C1850 C1831 1.368 . S
C1850 C1844 1.368 . S
C1850 C1849 1.523 . S
C1851 C1835 1.429 . S
C1851 C1847 1.429 . S
C1851 C1852 1.523 . S
C1852 C1836 1.368 . S
C1852 C1848 1.368 . S
C1852 C1851 1.523 . S
H1853 C1828 0.950 . S
H1854 C1830 0.950 . S
H1855 C1831 0.949 . S
H1856 C1833 0.950 . S
H1857 C1835 0.950 . S
C1858 C1859 1.349 . S
C1858 C1860 1.327 . S
C1858 H1883 0.950 . S
C1859 C1858 1.349 . S
C1859 C1875 1.349 . S
C1860 C1858 1.327 . S
C1860 C1879 1.429 . S
C1860 H1884 0.950 . S
C1861 C1878 1.574 . S
C1861 C1880 1.368 . S
C1861 H1885 0.949 . S
H1862 C1866 0.949 . S
C1863 C1864 1.349 . S
C1863 C1865 1.327 . S
C1863 H1886 0.950 . S
C1864 C1863 1.349 . S
C1864 C1876 1.349 . S
C1865 C1863 1.327 . S
C1865 C1881 1.429 . S
C1865 H1887 0.950 . S
C1866 H1862 0.949 . S
C1866 C1874 1.574 . S
C1866 C1882 1.368 . S
H1867 C1875 0.950 . S
H1868 C1873 0.950 . S
H1869 C1874 0.949 . S
H1870 C1876 0.950 . S
H1871 C1877 0.950 . S
H1872 C1878 0.949 . S
C1873 H1868 0.950 . S
C1873 C1875 1.327 . S
C1873 C1879 1.429 . S
C1874 C1866 1.574 . S
C1874 H1869 0.949 . S
C1874 C1880 1.368 . S
C1875 C1859 1.349 . S
C1875 H1867 0.950 . S
C1875 C1873 1.327 . S
C1876 C1864 1.349 . S
C1876 H1870 0.950 . S
C1876 C1877 1.327 . S
C1877 H1871 0.950 . S
C1877 C1876 1.327 . S
C1877 C1881 1.429 . S
C1878 C1861 1.574 . S
C1878 H1872 0.949 . S
C1878 C1882 1.368 . S
C1879 C1860 1.429 . S
C1879 C1873 1.429 . S
C1879 C1880 1.523 . S
C1880 C1861 1.368 . S
C1880 C1874 1.368 . S
C1880 C1879 1.523 . S
C1881 C1865 1.429 . S
C1881 C1877 1.429 . S
C1881 C1882 1.523 1_556 S
C1882 C1866 1.368 . S
C1882 C1878 1.368 . S
C1882 C1881 1.523 1_554 S
H1883 C1858 0.950 . S
H1884 C1860 0.950 . S
H1885 C1861 0.949 . S
H1886 C1863 0.950 . S
H1887 C1865 0.950 . S
C1888 C1889 1.349 . S
C1888 C1890 1.327 . S
C1888 H1913 0.950 . S
C1889 C1888 1.349 . S
C1889 C1905 1.349 . S
C1890 C1888 1.327 . S
C1890 C1909 1.429 . S
C1890 H1914 0.950 . S
C1891 C1908 1.574 . S
C1891 C1910 1.368 . S
C1891 H1915 0.949 . S
H1892 C1896 0.949 . S
C1893 C1894 1.349 . S
C1893 C1895 1.327 . S
C1893 H1916 0.950 . S
C1894 C1893 1.349 . S
C1894 C1906 1.349 . S
C1895 C1893 1.327 . S
C1895 C1911 1.429 . S
C1895 H1917 0.950 . S
C1896 H1892 0.949 . S
C1896 C1904 1.574 . S
C1896 C1912 1.368 . S
H1897 C1905 0.950 . S
H1898 C1903 0.950 . S
H1899 C1904 0.949 . S
H1900 C1906 0.950 . S
H1901 C1907 0.950 . S
H1902 C1908 0.949 . S
C1903 H1898 0.950 . S
C1903 C1905 1.327 . S
C1903 C1909 1.429 . S
C1904 C1896 1.574 . S
C1904 H1899 0.949 . S
C1904 C1910 1.368 . S
C1905 C1889 1.349 . S
C1905 H1897 0.950 . S
C1905 C1903 1.327 . S
C1906 C1894 1.349 . S
C1906 H1900 0.950 . S
C1906 C1907 1.327 . S
C1907 H1901 0.950 . S
C1907 C1906 1.327 . S
C1907 C1911 1.429 . S
C1908 C1891 1.574 . S
C1908 H1902 0.949 . S
C1908 C1912 1.368 . S
C1909 C1890 1.429 . S
C1909 C1903 1.429 . S
C1909 C1910 1.523 . S
C1910 C1891 1.368 . S
C1910 C1904 1.368 . S
C1910 C1909 1.523 . S
C1911 C1895 1.429 . S
C1911 C1907 1.429 . S
C1911 C1912 1.523 . S
C1912 C1896 1.368 . S
C1912 C1908 1.368 . S
C1912 C1911 1.523 . S
H1913 C1888 0.950 . S
H1914 C1890 0.950 . S
H1915 C1891 0.949 . S
H1916 C1893 0.950 . S
H1917 C1895 0.950 . S
C1918 C1919 1.349 . S
C1918 C1920 1.327 . S
C1918 H1943 0.950 . S
C1919 C1918 1.349 . S
C1919 C1935 1.349 . S
C1920 C1918 1.327 . S
C1920 C1939 1.429 . S
C1920 H1944 0.950 . S
C1921 C1938 1.574 . S
C1921 C1940 1.368 . S
C1921 H1945 0.949 . S
H1922 C1926 0.949 . S
C1923 C1924 1.349 . S
C1923 C1925 1.327 . S
C1923 H1946 0.950 . S
C1924 C1923 1.349 . S
C1924 C1936 1.349 . S
C1925 C1923 1.327 . S
C1925 C1941 1.429 . S
C1925 H1947 0.950 . S
C1926 H1922 0.949 . S
C1926 C1934 1.574 . S
C1926 C1942 1.368 . S
H1927 C1935 0.950 . S
H1928 C1933 0.950 . S
H1929 C1934 0.949 . S
H1930 C1936 0.950 . S
H1931 C1937 0.950 . S
H1932 C1938 0.949 . S
C1933 H1928 0.950 . S
C1933 C1935 1.327 . S
C1933 C1939 1.429 . S
C1934 C1926 1.574 . S
C1934 H1929 0.949 . S
C1934 C1940 1.368 . S
C1935 C1919 1.349 . S
C1935 H1927 0.950 . S
C1935 C1933 1.327 . S
C1936 C1924 1.349 . S
C1936 H1930 0.950 . S
C1936 C1937 1.327 . S
C1937 H1931 0.950 . S
C1937 C1936 1.327 . S
C1937 C1941 1.429 . S
C1938 C1921 1.574 . S
C1938 H1932 0.949 . S
C1938 C1942 1.368 . S
C1939 C1920 1.429 . S
C1939 C1933 1.429 . S
C1939 C1940 1.523 . S
C1940 C1921 1.368 . S
C1940 C1934 1.368 . S
C1940 C1939 1.523 . S
C1941 C1925 1.429 . S
C1941 C1937 1.429 . S
C1941 C1942 1.523 . S
C1942 C1926 1.368 . S
C1942 C1938 1.368 . S
C1942 C1941 1.523 . S
H1943 C1918 0.950 . S
H1944 C1920 0.950 . S
H1945 C1921 0.949 . S
H1946 C1923 0.950 . S
H1947 C1925 0.950 . S
C1948 C1949 1.349 . S
C1948 C1950 1.327 . S
C1948 H1973 0.950 . S
C1949 C1948 1.349 . S
C1949 C1965 1.349 . S
C1950 C1948 1.327 . S
C1950 C1969 1.429 . S
C1950 H1974 0.950 . S
C1951 C1968 1.574 . S
C1951 C1970 1.368 . S
C1951 H1975 0.949 . S
H1952 C1956 0.949 . S
C1953 C1954 1.349 . S
C1953 C1955 1.327 . S
C1953 H1976 0.950 . S
C1954 C1953 1.349 . S
C1954 C1966 1.349 . S
C1955 C1953 1.327 . S
C1955 C1971 1.429 . S
C1955 H1977 0.950 . S
C1956 H1952 0.949 . S
C1956 C1964 1.574 . S
C1956 C1972 1.368 . S
H1957 C1965 0.950 . S
H1958 C1963 0.950 . S
H1959 C1964 0.949 . S
H1960 C1966 0.950 . S
H1961 C1967 0.950 . S
H1962 C1968 0.949 . S
C1963 H1958 0.950 . S
C1963 C1965 1.327 . S
C1963 C1969 1.429 . S
C1964 C1956 1.574 . S
C1964 H1959 0.949 . S
C1964 C1970 1.368 . S
C1965 C1949 1.349 . S
C1965 H1957 0.950 . S
C1965 C1963 1.327 . S
C1966 C1954 1.349 . S
C1966 H1960 0.950 . S
C1966 C1967 1.327 . S
C1967 H1961 0.950 . S
C1967 C1966 1.327 . S
C1967 C1971 1.429 . S
C1968 C1951 1.574 . S
C1968 H1962 0.949 . S
C1968 C1972 1.368 . S
C1969 C1950 1.429 . S
C1969 C1963 1.429 . S
C1969 C1970 1.523 . S
C1970 C1951 1.368 . S
C1970 C1964 1.368 . S
C1970 C1969 1.523 . S
C1971 C1955 1.429 . S
C1971 C1967 1.429 . S
C1971 C1972 1.523 . S
C1972 C1956 1.368 . S
C1972 C1968 1.368 . S
C1972 C1971 1.523 . S
H1973 C1948 0.950 . S
H1974 C1950 0.950 . S
H1975 C1951 0.949 . S
H1976 C1953 0.950 . S
H1977 C1955 0.950 . S
C1978 C1979 1.349 . S
C1978 C1980 1.327 . S
C1978 H2003 0.950 . S
C1979 C1978 1.349 . S
C1979 C1995 1.349 . S
C1980 C1978 1.327 . S
C1980 C1999 1.429 . S
C1980 H2004 0.950 . S
C1981 C1998 1.574 . S
C1981 C2000 1.368 . S
C1981 H2005 0.949 . S
H1982 C1986 0.949 . S
C1983 C1984 1.349 . S
C1983 C1985 1.327 . S
C1983 H2006 0.950 . S
C1984 C1983 1.349 . S
C1984 C1996 1.349 . S
C1985 C1983 1.327 . S
C1985 C2001 1.429 . S
C1985 H2007 0.950 . S
C1986 H1982 0.949 . S
C1986 C1994 1.574 . S
C1986 C2002 1.368 . S
H1987 C1995 0.950 . S
H1988 C1993 0.950 . S
H1989 C1994 0.949 . S
H1990 C1996 0.950 . S
H1991 C1997 0.950 . S
H1992 C1998 0.949 . S
C1993 H1988 0.950 . S
C1993 C1995 1.327 . S
C1993 C1999 1.429 . S
C1994 C1986 1.574 . S
C1994 H1989 0.949 . S
C1994 C2000 1.368 . S
C1995 C1979 1.349 . S
C1995 H1987 0.950 . S
C1995 C1993 1.327 . S
C1996 C1984 1.349 . S
C1996 H1990 0.950 . S
C1996 C1997 1.327 . S
C1997 H1991 0.950 . S
C1997 C1996 1.327 . S
C1997 C2001 1.429 . S
C1998 C1981 1.574 . S
C1998 H1992 0.949 . S
C1998 C2002 1.368 . S
C1999 C1980 1.429 . S
C1999 C1993 1.429 . S
C1999 C2000 1.523 . S
C2000 C1981 1.368 . S
C2000 C1994 1.368 . S
C2000 C1999 1.523 . S
C2001 C1985 1.429 . S
C2001 C1997 1.429 . S
C2001 C2002 1.523 . S
C2002 C1986 1.368 . S
C2002 C1998 1.368 . S
C2002 C2001 1.523 . S
H2003 C1978 0.950 . S
H2004 C1980 0.950 . S
H2005 C1981 0.949 . S
H2006 C1983 0.950 . S
H2007 C1985 0.950 . S
C2008 C2009 1.349 . S
C2008 C2010 1.327 . S
C2008 H2033 0.950 . S
C2009 C2008 1.349 . S
C2009 C2025 1.349 . S
C2010 C2008 1.327 . S
C2010 C2029 1.429 . S
C2010 H2034 0.950 . S
C2011 C2028 1.574 . S
C2011 C2030 1.368 . S
C2011 H2035 0.949 . S
H2012 C2016 0.949 . S
C2013 C2014 1.349 . S
C2013 C2015 1.327 . S
C2013 H2036 0.950 . S
C2014 C2013 1.349 . S
C2014 C2026 1.349 . S
C2015 C2013 1.327 . S
C2015 C2031 1.429 . S
C2015 H2037 0.950 . S
C2016 H2012 0.949 . S
C2016 C2024 1.574 . S
C2016 C2032 1.368 . S
H2017 C2025 0.950 . S
H2018 C2023 0.950 . S
H2019 C2024 0.949 . S
H2020 C2026 0.950 . S
H2021 C2027 0.950 . S
H2022 C2028 0.949 . S
C2023 H2018 0.950 . S
C2023 C2025 1.327 . S
C2023 C2029 1.429 . S
C2024 C2016 1.574 . S
C2024 H2019 0.949 . S
C2024 C2030 1.368 . S
C2025 C2009 1.349 . S
C2025 H2017 0.950 . S
C2025 C2023 1.327 . S
C2026 C2014 1.349 . S
C2026 H2020 0.950 . S
C2026 C2027 1.327 . S
C2027 H2021 0.950 . S
C2027 C2026 1.327 . S
C2027 C2031 1.429 . S
C2028 C2011 1.574 . S
C2028 H2022 0.949 . S
C2028 C2032 1.368 . S
C2029 C2010 1.429 . S
C2029 C2023 1.429 . S
C2029 C2030 1.523 . S
C2030 C2011 1.368 . S
C2030 C2024 1.368 . S
C2030 C2029 1.523 . S
C2031 C2015 1.429 . S
C2031 C2027 1.429 . S
C2031 C2032 1.523 . S
C2032 C2016 1.368 . S
C2032 C2028 1.368 . S
C2032 C2031 1.523 . S
H2033 C2008 0.950 . S
H2034 C2010 0.950 . S
H2035 C2011 0.949 . S
H2036 C2013 0.950 . S
H2037 C2015 0.950 . S
C2038 C2039 1.349 . S
C2038 C2040 1.327 . S
C2038 H2063 0.950 . S
C2039 C2038 1.349 . S
C2039 C2055 1.349 . S
C2040 C2038 1.327 . S
C2040 C2059 1.429 . S
C2040 H2064 0.950 . S
C2041 C2058 1.574 . S
C2041 C2060 1.368 . S
C2041 H2065 0.949 . S
H2042 C2046 0.949 . S
C2043 C2044 1.349 . S
C2043 C2045 1.327 . S
C2043 H2066 0.950 . S
C2044 C2043 1.349 . S
C2044 C2056 1.349 . S
C2045 C2043 1.327 . S
C2045 C2061 1.429 . S
C2045 H2067 0.950 . S
C2046 H2042 0.949 . S
C2046 C2054 1.574 . S
C2046 C2062 1.368 . S
H2047 C2055 0.950 . S
H2048 C2053 0.950 . S
H2049 C2054 0.949 . S
H2050 C2056 0.950 . S
H2051 C2057 0.950 . S
H2052 C2058 0.949 . S
C2053 H2048 0.950 . S
C2053 C2055 1.327 . S
C2053 C2059 1.429 . S
C2054 C2046 1.574 . S
C2054 H2049 0.949 . S
C2054 C2060 1.368 . S
C2055 C2039 1.349 . S
C2055 H2047 0.950 . S
C2055 C2053 1.327 . S
C2056 C2044 1.349 . S
C2056 H2050 0.950 . S
C2056 C2057 1.327 . S
C2057 H2051 0.950 . S
C2057 C2056 1.327 . S
C2057 C2061 1.429 . S
C2058 C2041 1.574 . S
C2058 H2052 0.949 . S
C2058 C2062 1.368 . S
C2059 C2040 1.429 . S
C2059 C2053 1.429 . S
C2059 C2060 1.523 . S
C2060 C2041 1.368 . S
C2060 C2054 1.368 . S
C2060 C2059 1.523 . S
C2061 C2045 1.429 . S
C2061 C2057 1.429 . S
C2061 C2062 1.523 . S
C2062 C2046 1.368 . S
C2062 C2058 1.368 . S
C2062 C2061 1.523 . S
H2063 C2038 0.950 . S
H2064 C2040 0.950 . S
H2065 C2041 0.949 . S
H2066 C2043 0.950 . S
H2067 C2045 0.950 . S
C2068 C2069 1.349 . S
C2068 C2070 1.327 . S
C2068 H2093 0.950 . S
C2069 C2068 1.349 . S
C2069 C2085 1.349 . S
C2070 C2068 1.327 . S
C2070 C2089 1.429 . S
C2070 H2094 0.950 . S
C2071 C2088 1.574 . S
C2071 C2090 1.368 . S
C2071 H2095 0.949 . S
H2072 C2076 0.949 . S
C2073 C2074 1.349 . S
C2073 C2075 1.327 . S
C2073 H2096 0.950 . S
C2074 C2073 1.349 . S
C2074 C2086 1.349 . S
C2075 C2073 1.327 . S
C2075 C2091 1.429 . S
C2075 H2097 0.950 . S
C2076 H2072 0.949 . S
C2076 C2084 1.574 . S
C2076 C2092 1.368 . S
H2077 C2085 0.950 . S
H2078 C2083 0.950 . S
H2079 C2084 0.949 . S
H2080 C2086 0.950 . S
H2081 C2087 0.950 . S
H2082 C2088 0.949 . S
C2083 H2078 0.950 . S
C2083 C2085 1.327 . S
C2083 C2089 1.429 . S
C2084 C2076 1.574 . S
C2084 H2079 0.949 . S
C2084 C2090 1.368 . S
C2085 C2069 1.349 . S
C2085 H2077 0.950 . S
C2085 C2083 1.327 . S
C2086 C2074 1.349 . S
C2086 H2080 0.950 . S
C2086 C2087 1.327 . S
C2087 H2081 0.950 . S
C2087 C2086 1.327 . S
C2087 C2091 1.429 . S
C2088 C2071 1.574 . S
C2088 H2082 0.949 . S
C2088 C2092 1.368 . S
C2089 C2070 1.429 . S
C2089 C2083 1.429 . S
C2089 C2090 1.523 . S
C2090 C2071 1.368 . S
C2090 C2084 1.368 . S
C2090 C2089 1.523 . S
C2091 C2075 1.429 . S
C2091 C2087 1.429 . S
C2091 C2092 1.523 . S
C2092 C2076 1.368 . S
C2092 C2088 1.368 . S
C2092 C2091 1.523 . S
H2093 C2068 0.950 . S
H2094 C2070 0.950 . S
H2095 C2071 0.949 . S
H2096 C2073 0.950 . S
H2097 C2075 0.950 . S
C2098 C2099 1.349 . S
C2098 C2100 1.327 . S
C2098 H2123 0.950 . S
C2099 C2098 1.349 . S
C2099 C2115 1.349 . S
C2100 C2098 1.327 . S
C2100 C2119 1.429 . S
C2100 H2124 0.950 . S
C2101 C2118 1.574 . S
C2101 C2120 1.368 . S
C2101 H2125 0.949 . S
H2102 C2106 0.949 . S
C2103 C2104 1.349 . S
C2103 C2105 1.327 . S
C2103 H2126 0.950 . S
C2104 C2103 1.349 . S
C2104 C2116 1.349 . S
C2105 C2103 1.327 . S
C2105 C2121 1.429 . S
C2105 H2127 0.950 . S
C2106 H2102 0.949 . S
C2106 C2114 1.574 . S
C2106 C2122 1.368 . S
H2107 C2115 0.950 . S
H2108 C2113 0.950 . S
H2109 C2114 0.949 . S
H2110 C2116 0.950 . S
H2111 C2117 0.950 . S
H2112 C2118 0.949 . S
C2113 H2108 0.950 . S
C2113 C2115 1.327 . S
C2113 C2119 1.429 . S
C2114 C2106 1.574 . S
C2114 H2109 0.949 . S
C2114 C2120 1.368 . S
C2115 C2099 1.349 . S
C2115 H2107 0.950 . S
C2115 C2113 1.327 . S
C2116 C2104 1.349 . S
C2116 H2110 0.950 . S
C2116 C2117 1.327 . S
C2117 H2111 0.950 . S
C2117 C2116 1.327 . S
C2117 C2121 1.429 . S
C2118 C2101 1.574 . S
C2118 H2112 0.949 . S
C2118 C2122 1.368 . S
C2119 C2100 1.429 . S
C2119 C2113 1.429 . S
C2119 C2120 1.523 . S
C2120 C2101 1.368 . S
C2120 C2114 1.368 . S
C2120 C2119 1.523 . S
C2121 C2105 1.429 . S
C2121 C2117 1.429 . S
C2121 C2122 1.523 . S
C2122 C2106 1.368 . S
C2122 C2118 1.368 . S
C2122 C2121 1.523 . S
H2123 C2098 0.950 . S
H2124 C2100 0.950 . S
H2125 C2101 0.949 . S
H2126 C2103 0.950 . S
H2127 C2105 0.950 . S
C2128 C2129 1.349 . S
C2128 C2130 1.327 . S
C2128 H2153 0.950 . S
C2129 C2128 1.349 . S
C2129 C2145 1.349 . S
C2130 C2128 1.327 . S
C2130 C2149 1.429 . S
C2130 H2154 0.950 . S
C2131 C2148 1.574 . S
C2131 C2150 1.368 . S
C2131 H2155 0.949 . S
H2132 C2136 0.949 . S
C2133 C2134 1.349 . S
C2133 C2135 1.327 . S
C2133 H2156 0.950 . S
C2134 C2133 1.349 . S
C2134 C2146 1.349 . S
C2135 C2133 1.327 . S
C2135 C2151 1.429 . S
C2135 H2157 0.950 . S
C2136 H2132 0.949 . S
C2136 C2144 1.574 . S
C2136 C2152 1.368 . S
H2137 C2145 0.950 . S
H2138 C2143 0.950 . S
H2139 C2144 0.949 . S
H2140 C2146 0.950 . S
H2141 C2147 0.950 . S
H2142 C2148 0.949 . S
C2143 H2138 0.950 . S
C2143 C2145 1.327 . S
C2143 C2149 1.429 . S
C2144 C2136 1.574 . S
C2144 H2139 0.949 . S
C2144 C2150 1.368 . S
C2145 C2129 1.349 . S
C2145 H2137 0.950 . S
C2145 C2143 1.327 . S
C2146 C2134 1.349 . S
C2146 H2140 0.950 . S
C2146 C2147 1.327 . S
C2147 H2141 0.950 . S
C2147 C2146 1.327 . S
C2147 C2151 1.429 . S
C2148 C2131 1.574 . S
C2148 H2142 0.949 . S
C2148 C2152 1.368 . S
C2149 C2130 1.429 . S
C2149 C2143 1.429 . S
C2149 C2150 1.523 . S
C2150 C2131 1.368 . S
C2150 C2144 1.368 . S
C2150 C2149 1.523 . S
C2151 C2135 1.429 . S
C2151 C2147 1.429 . S
C2151 C2152 1.523 . S
C2152 C2136 1.368 . S
C2152 C2148 1.368 . S
C2152 C2151 1.523 . S
H2153 C2128 0.950 . S
H2154 C2130 0.950 . S
H2155 C2131 0.949 . S
H2156 C2133 0.950 . S
H2157 C2135 0.950 . S
C2158 C2159 1.349 . S
C2158 C2160 1.327 . S
C2158 H2183 0.950 . S
C2159 C2158 1.349 . S
C2159 C2175 1.349 . S
C2160 C2158 1.327 . S
C2160 C2179 1.429 . S
C2160 H2184 0.950 . S
C2161 C2178 1.574 . S
C2161 C2180 1.368 . S
C2161 H2185 0.949 . S
H2162 C2166 0.949 . S
C2163 C2164 1.349 . S
C2163 C2165 1.327 . S
C2163 H2186 0.950 . S
C2164 C2163 1.349 . S
C2164 C2176 1.349 . S
C2165 C2163 1.327 . S
C2165 C2181 1.429 . S
C2165 H2187 0.950 . S
C2166 H2162 0.949 . S
C2166 C2174 1.574 . S
C2166 C2182 1.368 . S
H2167 C2175 0.950 . S
H2168 C2173 0.950 . S
H2169 C2174 0.949 . S
H2170 C2176 0.950 . S
H2171 C2177 0.950 . S
H2172 C2178 0.949 . S
C2173 H2168 0.950 . S
C2173 C2175 1.327 . S
C2173 C2179 1.429 . S
C2174 C2166 1.574 . S
C2174 H2169 0.949 . S
C2174 C2180 1.368 . S
C2175 C2159 1.349 . S
C2175 H2167 0.950 . S
C2175 C2173 1.327 . S
C2176 C2164 1.349 . S
C2176 H2170 0.950 . S
C2176 C2177 1.327 . S
C2177 H2171 0.950 . S
C2177 C2176 1.327 . S
C2177 C2181 1.429 . S
C2178 C2161 1.574 . S
C2178 H2172 0.949 . S
C2178 C2182 1.368 . S
C2179 C2160 1.429 . S
C2179 C2173 1.429 . S
C2179 C2180 1.523 . S
C2180 C2161 1.368 . S
C2180 C2174 1.368 . S
C2180 C2179 1.523 . S
C2181 C2165 1.429 . S
C2181 C2177 1.429 . S
C2181 C2182 1.523 . S
C2182 C2166 1.368 . S
C2182 C2178 1.368 . S
C2182 C2181 1.523 . S
H2183 C2158 0.950 . S
H2184 C2160 0.950 . S
H2185 C2161 0.949 . S
H2186 C2163 0.950 . S
H2187 C2165 0.950 . S
C2188 C2189 1.349 . S
C2188 C2190 1.327 . S
C2188 H2213 0.950 . S
C2189 C2188 1.349 . S
C2189 C2205 1.349 . S
C2190 C2188 1.327 . S
C2190 C2209 1.429 . S
C2190 H2214 0.950 . S
C2191 C2208 1.574 . S
C2191 C2210 1.368 . S
C2191 H2215 0.949 . S
H2192 C2196 0.949 . S
C2193 C2194 1.349 . S
C2193 C2195 1.327 . S
C2193 H2216 0.950 . S
C2194 C2193 1.349 . S
C2194 C2206 1.349 . S
C2195 C2193 1.327 . S
C2195 C2211 1.429 . S
C2195 H2217 0.950 . S
C2196 H2192 0.949 . S
C2196 C2204 1.574 . S
C2196 C2212 1.368 . S
H2197 C2205 0.950 . S
H2198 C2203 0.950 . S
H2199 C2204 0.949 . S
H2200 C2206 0.950 . S
H2201 C2207 0.950 . S
H2202 C2208 0.949 . S
C2203 H2198 0.950 . S
C2203 C2205 1.327 . S
C2203 C2209 1.429 . S
C2204 C2196 1.574 . S
C2204 H2199 0.949 . S
C2204 C2210 1.368 . S
C2205 C2189 1.349 . S
C2205 H2197 0.950 . S
C2205 C2203 1.327 . S
C2206 C2194 1.349 . S
C2206 H2200 0.950 . S
C2206 C2207 1.327 . S
C2207 H2201 0.950 . S
C2207 C2206 1.327 . S
C2207 C2211 1.429 . S
C2208 C2191 1.574 . S
C2208 H2202 0.949 . S
C2208 C2212 1.368 . S
C2209 C2190 1.429 . S
C2209 C2203 1.429 . S
C2209 C2210 1.523 . S
C2210 C2191 1.368 . S
C2210 C2204 1.368 . S
C2210 C2209 1.523 . S
C2211 C2195 1.429 . S
C2211 C2207 1.429 . S
C2211 C2212 1.523 . S
C2212 C2196 1.368 . S
C2212 C2208 1.368 . S
C2212 C2211 1.523 . S
H2213 C2188 0.950 . S
H2214 C2190 0.950 . S
H2215 C2191 0.949 . S
H2216 C2193 0.950 . S
H2217 C2195 0.950 . S
C2218 C2219 1.349 . S
C2218 C2220 1.327 . S
C2218 H2243 0.950 . S
C2219 C2218 1.349 . S
C2219 C2235 1.349 . S
C2220 C2218 1.327 . S
C2220 C2239 1.429 . S
C2220 H2244 0.950 . S
C2221 C2238 1.574 . S
C2221 C2240 1.368 . S
C2221 H2245 0.949 . S
H2222 C2226 0.949 . S
C2223 C2224 1.349 . S
C2223 C2225 1.327 . S
C2223 H2246 0.950 . S
C2224 C2223 1.349 . S
C2224 C2236 1.349 . S
C2225 C2223 1.327 . S
C2225 C2241 1.429 . S
C2225 H2247 0.950 . S
C2226 H2222 0.949 . S
C2226 C2234 1.574 . S
C2226 C2242 1.368 . S
H2227 C2235 0.950 . S
H2228 C2233 0.950 . S
H2229 C2234 0.949 . S
H2230 C2236 0.950 . S
H2231 C2237 0.950 . S
H2232 C2238 0.949 . S
C2233 H2228 0.950 . S
C2233 C2235 1.327 . S
C2233 C2239 1.429 . S
C2234 C2226 1.574 . S
C2234 H2229 0.949 . S
C2234 C2240 1.368 . S
C2235 C2219 1.349 . S
C2235 H2227 0.950 . S
C2235 C2233 1.327 . S
C2236 C2224 1.349 . S
C2236 H2230 0.950 . S
C2236 C2237 1.327 . S
C2237 H2231 0.950 . S
C2237 C2236 1.327 . S
C2237 C2241 1.429 . S
C2238 C2221 1.574 . S
C2238 H2232 0.949 . S
C2238 C2242 1.368 . S
C2239 C2220 1.429 . S
C2239 C2233 1.429 . S
C2239 C2240 1.523 . S
C2240 C2221 1.368 . S
C2240 C2234 1.368 . S
C2240 C2239 1.523 . S
C2241 C2225 1.429 . S
C2241 C2237 1.429 . S
C2241 C2242 1.523 . S
C2242 C2226 1.368 . S
C2242 C2238 1.368 . S
C2242 C2241 1.523 . S
H2243 C2218 0.950 . S
H2244 C2220 0.950 . S
H2245 C2221 0.949 . S
H2246 C2223 0.950 . S
H2247 C2225 0.950 . S
C2248 C2249 1.349 . S
C2248 C2250 1.327 . S
C2248 H2273 0.950 . S
C2249 C2248 1.349 . S
C2249 C2265 1.349 . S
C2250 C2248 1.327 . S
C2250 C2269 1.429 . S
C2250 H2274 0.950 . S
C2251 C2268 1.574 . S
C2251 C2270 1.368 . S
C2251 H2275 0.949 . S
H2252 C2256 0.949 . S
C2253 C2254 1.349 . S
C2253 C2255 1.327 . S
C2253 H2276 0.950 . S
C2254 C2253 1.349 . S
C2254 C2266 1.349 . S
C2255 C2253 1.327 . S
C2255 C2271 1.429 . S
C2255 H2277 0.950 . S
C2256 H2252 0.949 . S
C2256 C2264 1.574 . S
C2256 C2272 1.368 . S
H2257 C2265 0.950 . S
H2258 C2263 0.950 . S
H2259 C2264 0.949 . S
H2260 C2266 0.950 . S
H2261 C2267 0.950 . S
H2262 C2268 0.949 . S
C2263 H2258 0.950 . S
C2263 C2265 1.327 . S
C2263 C2269 1.429 . S
C2264 C2256 1.574 . S
C2264 H2259 0.949 . S
C2264 C2270 1.368 . S
C2265 C2249 1.349 . S
C2265 H2257 0.950 . S
C2265 C2263 1.327 . S
C2266 C2254 1.349 . S
C2266 H2260 0.950 . S
C2266 C2267 1.327 . S
C2267 H2261 0.950 . S
C2267 C2266 1.327 . S
C2267 C2271 1.429 . S
C2268 C2251 1.574 . S
C2268 H2262 0.949 . S
C2268 C2272 1.368 . S
C2269 C2250 1.429 . S
C2269 C2263 1.429 . S
C2269 C2270 1.523 . S
C2270 C2251 1.368 . S
C2270 C2264 1.368 . S
C2270 C2269 1.523 . S
C2271 C2255 1.429 . S
C2271 C2267 1.429 . S
C2271 C2272 1.523 . S
C2272 C2256 1.368 . S
C2272 C2268 1.368 . S
C2272 C2271 1.523 . S
H2273 C2248 0.950 . S
H2274 C2250 0.950 . S
H2275 C2251 0.949 . S
H2276 C2253 0.950 . S
H2277 C2255 0.950 . S
C2278 C2279 1.349 . S
C2278 C2280 1.327 . S
C2278 H2303 0.950 . S
C2279 C2278 1.349 . S
C2279 C2295 1.349 . S
C2280 C2278 1.327 . S
C2280 C2299 1.429 . S
C2280 H2304 0.950 . S
C2281 C2298 1.574 . S
C2281 C2300 1.368 . S
C2281 H2305 0.949 . S
H2282 C2286 0.949 . S
C2283 C2284 1.349 . S
C2283 C2285 1.327 . S
C2283 H2306 0.950 . S
C2284 C2283 1.349 . S
C2284 C2296 1.349 . S
C2285 C2283 1.327 . S
C2285 C2301 1.429 . S
C2285 H2307 0.950 . S
C2286 H2282 0.949 . S
C2286 C2294 1.574 . S
C2286 C2302 1.368 . S
H2287 C2295 0.950 . S
H2288 C2293 0.950 . S
H2289 C2294 0.949 . S
H2290 C2296 0.950 . S
H2291 C2297 0.950 . S
H2292 C2298 0.949 . S
C2293 H2288 0.950 . S
C2293 C2295 1.327 . S
C2293 C2299 1.429 . S
C2294 C2286 1.574 . S
C2294 H2289 0.949 . S
C2294 C2300 1.368 . S
C2295 C2279 1.349 . S
C2295 H2287 0.950 . S
C2295 C2293 1.327 . S
C2296 C2284 1.349 . S
C2296 H2290 0.950 . S
C2296 C2297 1.327 . S
C2297 H2291 0.950 . S
C2297 C2296 1.327 . S
C2297 C2301 1.429 . S
C2298 C2281 1.574 . S
C2298 H2292 0.949 . S
C2298 C2302 1.368 . S
C2299 C2280 1.429 . S
C2299 C2293 1.429 . S
C2299 C2300 1.523 . S
C2300 C2281 1.368 . S
C2300 C2294 1.368 . S
C2300 C2299 1.523 . S
C2301 C2285 1.429 . S
C2301 C2297 1.429 . S
C2301 C2302 1.523 . S
C2302 C2286 1.368 . S
C2302 C2298 1.368 . S
C2302 C2301 1.523 . S
H2303 C2278 0.950 . S
H2304 C2280 0.950 . S
H2305 C2281 0.949 . S
H2306 C2283 0.950 . S
H2307 C2285 0.950 . S
C2308 C2309 1.349 . S
C2308 C2310 1.327 . S
C2308 H2333 0.950 . S
C2309 C2308 1.349 . S
C2309 C2325 1.349 . S
C2310 C2308 1.327 . S
C2310 C2329 1.429 . S
C2310 H2334 0.950 . S
C2311 C2328 1.574 . S
C2311 C2330 1.368 . S
C2311 H2335 0.949 . S
H2312 C2316 0.949 . S
C2313 C2314 1.349 . S
C2313 C2315 1.327 . S
C2313 H2336 0.950 . S
C2314 C2313 1.349 . S
C2314 C2326 1.349 . S
C2315 C2313 1.327 . S
C2315 C2331 1.429 . S
C2315 H2337 0.950 . S
C2316 H2312 0.949 . S
C2316 C2324 1.574 . S
C2316 C2332 1.368 . S
H2317 C2325 0.950 . S
H2318 C2323 0.950 . S
H2319 C2324 0.949 . S
H2320 C2326 0.950 . S
H2321 C2327 0.950 . S
H2322 C2328 0.949 . S
C2323 H2318 0.950 . S
C2323 C2325 1.327 . S
C2323 C2329 1.429 . S
C2324 C2316 1.574 . S
C2324 H2319 0.949 . S
C2324 C2330 1.368 . S
C2325 C2309 1.349 . S
C2325 H2317 0.950 . S
C2325 C2323 1.327 . S
C2326 C2314 1.349 . S
C2326 H2320 0.950 . S
C2326 C2327 1.327 . S
C2327 H2321 0.950 . S
C2327 C2326 1.327 . S
C2327 C2331 1.429 . S
C2328 C2311 1.574 . S
C2328 H2322 0.949 . S
C2328 C2332 1.368 . S
C2329 C2310 1.429 . S
C2329 C2323 1.429 . S
C2329 C2330 1.523 . S
C2330 C2311 1.368 . S
C2330 C2324 1.368 . S
C2330 C2329 1.523 . S
C2331 C2315 1.429 . S
C2331 C2327 1.429 . S
C2331 C2332 1.523 . S
C2332 C2316 1.368 . S
C2332 C2328 1.368 . S
C2332 C2331 1.523 . S
H2333 C2308 0.950 . S
H2334 C2310 0.950 . S
H2335 C2311 0.949 . S
H2336 C2313 0.950 . S
H2337 C2315 0.950 . S
C2338 C2339 1.349 . S
C2338 C2340 1.327 . S
C2338 H2363 0.950 . S
C2339 C2338 1.349 . S
C2339 C2355 1.349 . S
C2340 C2338 1.327 . S
C2340 C2359 1.429 . S
C2340 H2364 0.950 . S
C2341 C2358 1.574 . S
C2341 C2360 1.368 . S
C2341 H2365 0.949 . S
H2342 C2346 0.949 . S
C2343 C2344 1.349 . S
C2343 C2345 1.327 . S
C2343 H2366 0.950 . S
C2344 C2343 1.349 . S
C2344 C2356 1.349 . S
C2345 C2343 1.327 . S
C2345 C2361 1.429 . S
C2345 H2367 0.950 . S
C2346 H2342 0.949 . S
C2346 C2354 1.574 . S
C2346 C2362 1.368 . S
H2347 C2355 0.950 . S
H2348 C2353 0.950 . S
H2349 C2354 0.949 . S
H2350 C2356 0.950 . S
H2351 C2357 0.950 . S
H2352 C2358 0.949 . S
C2353 H2348 0.950 . S
C2353 C2355 1.327 . S
C2353 C2359 1.429 . S
C2354 C2346 1.574 . S
C2354 H2349 0.949 . S
C2354 C2360 1.368 . S
C2355 C2339 1.349 . S
C2355 H2347 0.950 . S
C2355 C2353 1.327 . S
C2356 C2344 1.349 . S
C2356 H2350 0.950 . S
C2356 C2357 1.327 . S
C2357 H2351 0.950 . S
C2357 C2356 1.327 . S
C2357 C2361 1.429 . S
C2358 C2341 1.574 . S
C2358 H2352 0.949 . S
C2358 C2362 1.368 . S
C2359 C2340 1.429 . S
C2359 C2353 1.429 . S
C2359 C2360 1.523 . S
C2360 C2341 1.368 . S
C2360 C2354 1.368 . S
C2360 C2359 1.523 . S
C2361 C2345 1.429 . S
C2361 C2357 1.429 . S
C2361 C2362 1.523 . S
C2362 C2346 1.368 . S
C2362 C2358 1.368 . S
C2362 C2361 1.523 . S
H2363 C2338 0.950 . S
H2364 C2340 0.950 . S
H2365 C2341 0.949 . S
H2366 C2343 0.950 . S
H2367 C2345 0.950 . S
C449 C89 1.463 . S
C454 C5 1.463 . S
C479 C19 1.463 . S
C484 C103 1.463 . S
C509 C61 1.463 . S
C514 C33 1.463 . S
C539 C47 1.463 . S
C544 C75 1.463 . S
C569 C201 1.463 . S
C574 C117 1.463 . S
C599 C215 1.463 . S
C604 C131 1.463 . S
C629 C145 1.463 . S
C634 C173 1.463 . S
C659 C159 1.463 . S
C664 C187 1.463 . S
C689 C229 1.463 . S
C694 C313 1.463 . S
C719 C243 1.463 . S
C724 C327 1.463 . S
C749 C285 1.463 . S
C754 C257 1.463 . S
C779 C299 1.463 . S
C784 C271 1.463 . S
C809 C341 1.463 . S
C814 C425 1.463 . S
C839 C439 1.463 . S
C844 C355 1.463 . S
C869 C397 1.463 . S
C874 C369 1.463 . S
C899 C383 1.463 . S
C904 C411 1.463 . S
C929 C0 1.159 . S
C934 C429 1.178 . S
C959 C219 1.178 . S
C964 C14 1.159 . S
C989 C28 1.159 . S
C994 C401 1.178 . S
C1019 C42 1.159 . S
C1024 C191 1.178 . S
C1049 C373 1.178 . S
C1054 C56 1.159 . S
C1079 C163 1.178 . S
C1084 C70 1.159 . S
C1109 C84 1.159 . S
C1114 C345 1.178 . S
C1139 C135 1.178 . S
C1144 C98 1.159 . S
C1169 C112 1.159 . S
C1174 C317 1.178 . S
C1199 C107 1.178 . S
C1204 C126 1.159 . S
C1229 C140 1.159 . S
C1234 C289 1.178 . S
C1259 C154 1.159 . S
C1264 C79 1.178 . S
C1289 C261 1.178 . S
C1294 C168 1.159 . S
C1319 C182 1.159 . S
C1324 C51 1.178 . S
C1349 C196 1.159 . S
C1354 C233 1.178 . S
C1379 C23 1.178 . S
C1384 C210 1.159 . S
C1409 C224 1.159 . S
C1414 C205 1.178 . S
C1439 C238 1.159 . S
C1444 C443 1.178 . S
C1469 C177 1.178 . S
C1474 C252 1.159 . S
C1499 C266 1.159 . S
C1504 C415 1.178 . S
C1529 C149 1.178 . S
C1534 C280 1.159 . S
C1559 C387 1.178 . S
C1564 C294 1.159 . S
C1589 C121 1.178 . S
C1594 C308 1.159 . S
C1619 C359 1.178 . S
C1624 C322 1.159 . S
C1649 C336 1.159 . S
C1654 C93 1.178 . S
C1679 C331 1.178 . S
C1684 C350 1.159 . S
C1709 C65 1.178 . S
C1714 C364 1.159 . S
C1739 C378 1.159 . S
C1744 C303 1.178 . S
C1769 C392 1.159 . S
C1774 C37 1.178 . S
C1799 C406 1.159 . S
C1804 C275 1.178 . S
C1829 C9 1.178 . S
C1834 C420 1.159 . S
C1859 C434 1.159 . S
C1864 C247 1.178 . S
C1889 C11 1.365 . S
C1894 C305 1.365 . S
C1919 C319 1.365 . S
C1924 C25 1.365 . S
C1949 C39 1.364 . S
C1954 C333 1.365 . S
C1979 C291 1.365 . S
C1984 C53 1.365 . S
C2009 C277 1.365 . S
C2014 C67 1.365 . S
C2039 C235 1.364 . S
C2044 C81 1.364 . S
C2069 C249 1.365 . S
C2074 C95 1.364 . S
C2099 C263 1.365 . S
C2104 C109 1.365 . S
C2129 C123 1.365 . S
C2134 C417 1.365 . S
C2159 C431 1.365 . S
C2164 C137 1.365 . S
C2189 C445 1.365 . S
C2194 C151 1.365 . S
C2219 C403 1.365 . S
C2224 C165 1.365 . S
C2249 C389 1.365 . S
C2254 C179 1.365 . S
C2279 C347 1.364 . S
C2284 C193 1.364 . S
C2309 C207 1.365 . S
C2314 C361 1.365 . S
C2339 C221 1.365 . S
C2344 C375 1.365 . S
