# Generated by pormake.
# Topology wiu, (6)-cn, num edge types: 1
# Building blocks:
#     Node 0, Type 0, BuildingBlock: BETFEN_clean_sbu_0, # of connection points: 6
#     Node 1, Type 0, BuildingBlock: BETFEN_clean_sbu_0, # of connection points: 6
#     Node 2, Type 0, BuildingBlock: BETFEN_clean_sbu_0, # of connection points: 6
#     Node 3, Type 0, BuildingBlock: BETFEN_clean_sbu_0, # of connection points: 6
#     Node 4, Type 0, BuildingBlock: BETFEN_clean_sbu_0, # of connection points: 6
#     Node 5, Type 0, BuildingBlock: BETFEN_clean_sbu_0, # of connection points: 6
#     Node 6, Type 0, BuildingBlock: BETFEN_clean_sbu_0, # of connection points: 6
#     Node 7, Type 0, BuildingBlock: BETFEN_clean_sbu_0, # of connection points: 6
#     Node 8, Type 0, BuildingBlock: BETFEN_clean_sbu_0, # of connection points: 6
#     Node 9, Type 0, BuildingBlock: BETFEN_clean_sbu_0, # of connection points: 6
#     Node 10, Type 0, BuildingBlock: BETFEN_clean_sbu_0, # of connection points: 6
#     Node 11, Type 0, BuildingBlock: BETFEN_clean_sbu_0, # of connection points: 6
#     Node 12, Type 0, BuildingBlock: BETFEN_clean_sbu_0, # of connection points: 6
#     Node 13, Type 0, BuildingBlock: BETFEN_clean_sbu_0, # of connection points: 6
#     Node 14, Type 0, BuildingBlock: BETFEN_clean_sbu_0, # of connection points: 6
#     Node 15, Type 0, BuildingBlock: BETFEN_clean_sbu_0, # of connection points: 6
#     Edge 16, Type (0, 0), BuildingBlock: OJICUG_clean_linker_0, # of connection points: 2
#     Edge 17, Type (0, 0), BuildingBlock: OJICUG_clean_linker_0, # of connection points: 2
#     Edge 18, Type (0, 0), BuildingBlock: OJICUG_clean_linker_0, # of connection points: 2
#     Edge 19, Type (0, 0), BuildingBlock: OJICUG_clean_linker_0, # of connection points: 2
#     Edge 20, Type (0, 0), BuildingBlock: OJICUG_clean_linker_0, # of connection points: 2
#     Edge 21, Type (0, 0), BuildingBlock: OJICUG_clean_linker_0, # of connection points: 2
#     Edge 22, Type (0, 0), BuildingBlock: OJICUG_clean_linker_0, # of connection points: 2
#     Edge 23, Type (0, 0), BuildingBlock: OJICUG_clean_linker_0, # of connection points: 2
#     Edge 24, Type (0, 0), BuildingBlock: OJICUG_clean_linker_0, # of connection points: 2
#     Edge 25, Type (0, 0), BuildingBlock: OJICUG_clean_linker_0, # of connection points: 2
#     Edge 26, Type (0, 0), BuildingBlock: OJICUG_clean_linker_0, # of connection points: 2
#     Edge 27, Type (0, 0), BuildingBlock: OJICUG_clean_linker_0, # of connection points: 2
#     Edge 28, Type (0, 0), BuildingBlock: OJICUG_clean_linker_0, # of connection points: 2
#     Edge 29, Type (0, 0), BuildingBlock: OJICUG_clean_linker_0, # of connection points: 2
#     Edge 30, Type (0, 0), BuildingBlock: OJICUG_clean_linker_0, # of connection points: 2
#     Edge 31, Type (0, 0), BuildingBlock: OJICUG_clean_linker_0, # of connection points: 2
#     Edge 32, Type (0, 0), BuildingBlock: OJICUG_clean_linker_0, # of connection points: 2
#     Edge 33, Type (0, 0), BuildingBlock: OJICUG_clean_linker_0, # of connection points: 2
#     Edge 34, Type (0, 0), BuildingBlock: OJICUG_clean_linker_0, # of connection points: 2
#     Edge 35, Type (0, 0), BuildingBlock: OJICUG_clean_linker_0, # of connection points: 2
#     Edge 36, Type (0, 0), BuildingBlock: OJICUG_clean_linker_0, # of connection points: 2
#     Edge 37, Type (0, 0), BuildingBlock: OJICUG_clean_linker_0, # of connection points: 2
#     Edge 38, Type (0, 0), BuildingBlock: OJICUG_clean_linker_0, # of connection points: 2
#     Edge 39, Type (0, 0), BuildingBlock: OJICUG_clean_linker_0, # of connection points: 2
#     Edge 40, Type (0, 0), BuildingBlock: OJICUG_clean_linker_0, # of connection points: 2
#     Edge 41, Type (0, 0), BuildingBlock: OJICUG_clean_linker_0, # of connection points: 2
#     Edge 42, Type (0, 0), BuildingBlock: OJICUG_clean_linker_0, # of connection points: 2
#     Edge 43, Type (0, 0), BuildingBlock: OJICUG_clean_linker_0, # of connection points: 2
#     Edge 44, Type (0, 0), BuildingBlock: OJICUG_clean_linker_0, # of connection points: 2
#     Edge 45, Type (0, 0), BuildingBlock: OJICUG_clean_linker_0, # of connection points: 2
#     Edge 46, Type (0, 0), BuildingBlock: OJICUG_clean_linker_0, # of connection points: 2
#     Edge 47, Type (0, 0), BuildingBlock: OJICUG_clean_linker_0, # of connection points: 2
#     Edge 48, Type (0, 0), BuildingBlock: OJICUG_clean_linker_0, # of connection points: 2
#     Edge 49, Type (0, 0), BuildingBlock: OJICUG_clean_linker_0, # of connection points: 2
#     Edge 50, Type (0, 0), BuildingBlock: OJICUG_clean_linker_0, # of connection points: 2
#     Edge 51, Type (0, 0), BuildingBlock: OJICUG_clean_linker_0, # of connection points: 2
#     Edge 52, Type (0, 0), BuildingBlock: OJICUG_clean_linker_0, # of connection points: 2
#     Edge 53, Type (0, 0), BuildingBlock: OJICUG_clean_linker_0, # of connection points: 2
#     Edge 54, Type (0, 0), BuildingBlock: OJICUG_clean_linker_0, # of connection points: 2
#     Edge 55, Type (0, 0), BuildingBlock: OJICUG_clean_linker_0, # of connection points: 2
#     Edge 56, Type (0, 0), BuildingBlock: OJICUG_clean_linker_0, # of connection points: 2
#     Edge 57, Type (0, 0), BuildingBlock: OJICUG_clean_linker_0, # of connection points: 2
#     Edge 58, Type (0, 0), BuildingBlock: OJICUG_clean_linker_0, # of connection points: 2
#     Edge 59, Type (0, 0), BuildingBlock: OJICUG_clean_linker_0, # of connection points: 2
#     Edge 60, Type (0, 0), BuildingBlock: OJICUG_clean_linker_0, # of connection points: 2
#     Edge 61, Type (0, 0), BuildingBlock: OJICUG_clean_linker_0, # of connection points: 2
#     Edge 62, Type (0, 0), BuildingBlock: OJICUG_clean_linker_0, # of connection points: 2
#     Edge 63, Type (0, 0), BuildingBlock: OJICUG_clean_linker_0, # of connection points: 2
# Relax obj value: 0.737
# Max RMSD: 0.340
# Mean RMSD: 0.340
data_MOF--net-wiu--node1-BETFEN_clean_sbu_0--edge1-OJICUG_clean_linker_0
_symmetry_space_group_name_H-M    P1
_symmetry_Int_Tables_number       1
_symmetry_cell_setting            triclinic
loop_
_symmetry_equiv_pos_as_xyz
'x, y, z'
_cell_length_a     29.181178
_cell_length_b     28.876369
_cell_length_c     38.542665
_cell_angle_alpha  89.151175
_cell_angle_beta   90.443838
_cell_angle_gamma 90.190854
loop_
_atom_site_label
_atom_site_type_symbol
_atom_site_fract_x
_atom_site_fract_y
_atom_site_fract_z
_atom_type_partial_charge
Pr0 Pr 0.38773 0.21163 0.38865 0.0
Pr1 Pr 0.4335 0.13683 0.36108 0.0
C2 C 0.34259 0.28242 0.41795 0.0
C3 C 0.33195 0.32863 0.40311 0.0
C4 C 0.31439 0.36388 0.42374 0.0
C5 C 0.30391 0.40734 0.40898 0.0
C6 C 0.31069 0.41618 0.37329 0.0
C7 C 0.32871 0.38077 0.35288 0.0
C8 C 0.33931 0.33755 0.36765 0.0
C9 C 0.47415 0.24142 0.36306 0.0
C10 C 0.43483 0.13145 0.44291 0.0
C11 C 0.47844 0.08073 0.31954 0.0
C12 C 0.45712 0.05718 0.2898 0.0
C13 C 0.42111 1.02498 0.29461 0.0
C14 C 0.3954 1.00942 0.26627 0.0
C15 C 0.40481 1.02639 0.23284 0.0
C16 C 0.44132 0.05787 0.22814 0.0
C17 C 0.46723 0.07288 0.25622 0.0
C18 C 0.3454 0.10787 0.38119 0.0
C19 C 0.35734 0.1878 0.3072 0.0
O20 O 0.38583 0.27399 0.42399 0.0
O21 O 0.3219 0.24781 0.40306 0.0
O22 O 0.46739 0.20485 0.38111 0.0
O23 O 0.43526 0.2604 0.35517 0.0
O24 O 0.46215 0.12401 0.41675 0.0
O25 O 0.39937 0.15982 0.43805 0.0
O26 O 0.48146 0.12591 0.31624 0.0
O27 O 0.46484 0.06711 0.3503 0.0
O28 O 0.35526 0.14608 0.36702 0.0
O29 O 0.38212 0.08328 0.38583 0.0
O30 O 0.34749 0.21372 0.33417 0.0
O31 O 0.39142 0.15807 0.31014 0.0
H32 H 0.30848 0.35771 0.45114 0.0
H33 H 0.28964 0.43372 0.42537 0.0
H34 H 0.33489 0.38653 0.32547 0.0
H35 H 0.35304 0.31089 0.35125 0.0
H36 H 0.41216 1.01241 0.32029 0.0
H37 H 0.36842 0.98411 0.27038 0.0
H38 H 0.4508 0.07012 1.20247 0.0
H39 H 0.49448 0.09781 0.25176 0.0
Pr40 Pr 0.64446 0.61998 0.6397 0.0
Pr41 Pr 0.7099 0.67782 0.60636 0.0
C42 C 0.58055 0.56671 0.67078 0.0
C43 C 0.53526 0.55265 0.65672 0.0
C44 C 0.49501 0.56142 0.67525 0.0
C45 C 0.45189 0.55347 0.66005 0.0
C46 C 0.44828 0.53639 0.6261 0.0
C47 C 0.48862 0.52686 0.60793 0.0
C48 C 0.53152 0.53509 0.62295 0.0
C49 C 0.60572 0.70589 0.61793 0.0
C50 C 0.7258 0.66897 0.68918 0.0
C51 C 0.74689 0.74913 0.57135 0.0
C52 C 0.75156 0.79901 0.57782 0.0
C53 C 0.79484 0.81956 0.57574 0.0
C54 C 0.79947 0.86744 0.57776 0.0
C55 C 0.76064 0.89605 0.58161 0.0
C56 C 0.71803 0.87464 0.58783 0.0
C57 C 0.71343 0.82659 0.5854 0.0
C58 C 0.75013 0.59168 0.62163 0.0
C59 C 0.66144 0.59654 0.55619 0.0
O60 O 0.58531 0.61066 0.67732 0.0
O61 O 0.61648 0.54957 0.65567 0.0
O62 O 0.64358 0.70078 0.63394 0.0
O63 O 0.58956 0.66573 0.60942 0.0
O64 O 0.72867 0.69896 0.66325 0.0
O65 O 0.69912 0.63195 0.68572 0.0
O66 O 0.77118 0.72166 0.59144 0.0
O67 O 0.70552 0.73356 0.56493 0.0
O68 O 0.70943 0.59821 0.61187 0.0
O69 O 0.77261 0.63061 0.62174 0.0
O70 O 0.64497 0.58025 0.58588 0.0
O71 O 0.68348 0.6368 0.55609 0.0
H72 H 0.49694 0.57536 0.70117 0.0
H73 H 0.42138 0.56054 0.67488 0.0
H74 H 0.48703 0.51404 0.58168 0.0
H75 H 0.56177 0.52871 0.60764 0.0
H76 H 0.82485 0.79881 0.57059 0.0
H77 H 0.83314 0.88175 0.57284 0.0
H78 H 0.68755 0.89518 0.59168 0.0
H79 H 0.67969 0.81139 0.58762 0.0
Pr80 Pr 0.2318 0.8799 0.8926 0.0
Pr81 Pr 0.1864 0.95236 0.86051 0.0
C82 C 0.27707 0.81106 0.92569 0.0
C83 C 0.2938 0.7675 0.9106 0.0
C84 C 0.28469 0.72461 0.92677 0.0
C85 C 0.29552 0.68319 0.91013 0.0
C86 C 0.31569 0.68405 0.87703 0.0
C87 C 0.32538 0.72708 0.86125 0.0
C88 C 0.31448 0.76823 0.87775 0.0
C89 C 0.1481 0.84682 0.86428 0.0
C90 C 0.18353 0.96231 0.94214 0.0
C91 C 0.14248 1.00699 0.81556 0.0
C92 C 0.16486 1.03218 0.78689 0.0
C93 C 0.20425 0.05961 0.79284 0.0
C94 C 0.22903 0.07824 0.76501 0.0
C95 C 0.21552 0.0686 0.73096 0.0
C96 C 0.17628 1.04109 0.72518 0.0
C97 C 0.15119 1.02321 0.75284 0.0
C98 C 0.27461 0.98241 0.87998 0.0
C99 C 0.26424 0.89962 0.81085 0.0
O100 O 0.23265 0.81528 0.92709 0.0
O101 O 0.29714 0.8491 0.91503 0.0
O102 O 0.15234 0.88404 0.88144 0.0
O103 O 0.18807 0.82944 0.85835 0.0
O104 O 0.15695 0.9689 0.91495 0.0
O105 O 0.21854 0.93321 0.93951 0.0
O106 O 0.14199 0.96184 0.81262 0.0
O107 O 0.15297 1.02068 0.84682 0.0
O108 O 0.2644 0.94358 0.86792 0.0
O109 O 0.23804 1.00731 0.88332 0.0
O110 O 0.27412 0.87583 0.83957 0.0
O111 O 0.22976 0.92908 0.81149 0.0
H112 H 0.26836 0.72315 0.95192 0.0
H113 H 0.28823 0.65053 0.92316 0.0
H114 H 0.34047 0.729 0.83568 0.0
H115 H 0.32132 0.80065 0.86428 0.0
H116 H 0.21629 0.06628 0.81894 0.0
H117 H 0.25842 0.10025 0.77 0.0
H118 H 0.16412 1.03443 0.6991 0.0
H119 H 0.12152 1.00166 0.74762 0.0
Pr120 Pr 0.97428 0.4723 1.14311 0.0
Pr121 Pr 0.90874 0.41537 1.10618 0.0
C122 C 1.03741 0.52504 1.17522 0.0
C123 C 0.08517 0.53522 1.16467 0.0
C124 C 0.11382 0.49977 1.15276 0.0
C125 C 0.15561 0.51041 1.13686 0.0
C126 C 0.16956 0.55673 1.13225 0.0
C127 C 0.14176 0.59202 1.14546 0.0
C128 C 0.10004 0.58135 1.16152 0.0
C129 C 1.01258 0.3869 1.1212 0.0
C130 C 0.88623 0.42668 1.1887 0.0
C131 C 0.87872 0.34422 1.06837 0.0
C132 C 0.90507 0.30564 1.05452 0.0
C133 C 0.88497 0.26191 1.05189 0.0
C134 C 0.90976 0.22534 1.03822 0.0
C135 C 0.95536 0.23185 1.02698 0.0
C136 C 0.97645 0.27499 1.03245 0.0
C137 C 0.95136 0.3117 1.04572 0.0
C138 C 0.86874 0.50091 1.12028 0.0
C139 C 0.96228 0.49684 1.05895 0.0
O140 O 1.02802 0.48264 1.18531 0.0
O141 O 1.00594 0.54227 1.15463 0.0
O142 O 0.97408 0.39208 1.13539 0.0
O143 O 1.03125 0.42708 1.11594 0.0
O144 O 0.87931 0.40011 1.16164 0.0
O145 O 0.91797 0.45984 1.18752 0.0
O146 O 0.87579 0.34462 1.10208 0.0
O147 O 0.88724 0.38504 1.0548 0.0
O148 O 0.91006 0.4941 1.11287 0.0
O149 O 0.84517 0.46268 1.11762 0.0
O150 O 0.97361 0.51401 1.08946 0.0
O151 O 0.94428 0.45463 1.0579 0.0
H152 H 0.10319 0.46386 1.15447 0.0
H153 H 0.1761 0.48242 1.1269 0.0
H154 H 0.15196 0.628 1.14291 0.0
H155 H 0.07852 0.60929 1.17027 0.0
H156 H 0.8496 0.25641 1.05932 0.0
H157 H 0.89173 0.19304 1.0341 0.0
H158 H 1.01155 0.28114 1.02464 0.0
H159 H 0.96801 0.34501 1.04875 0.0
Pr160 Pr 0.68165 0.95432 1.08945 0.0
Pr161 Pr 0.73032 0.88245 1.05738 0.0
C162 C 0.6159 0.99468 1.12607 0.0
C163 C 0.56583 0.99438 1.12247 0.0
C164 C 0.5412 1.03481 1.12825 0.0
C165 C 0.49349 1.03347 1.12887 0.0
C166 C 0.4695 0.99141 1.12389 0.0
C167 C 0.49444 0.95219 1.1142 0.0
C168 C 0.54225 0.95358 1.11393 0.0
C169 C 0.76944 0.98713 1.07258 0.0
C170 C 0.76011 0.90216 1.14053 0.0
C171 C 0.77747 0.81445 1.02664 0.0
C172 C 0.7918 0.76898 1.04108 0.0
C173 C 0.78793 0.72883 1.02117 0.0
C174 C 0.79767 0.68525 1.03599 0.0
C175 C 0.81161 0.68114 1.07097 0.0
C176 C 0.8157 0.72149 1.0907 0.0
C177 C 0.80568 0.76483 1.076 0.0
C178 C 0.64395 0.85021 1.08063 0.0
C179 C 0.68622 0.96907 1.00661 0.0
O180 O 0.63831 1.01679 1.10167 0.0
O181 O 0.63463 0.95522 1.1354 0.0
O182 O 0.75968 0.94677 1.08285 0.0
O183 O 0.7332 1.01327 1.07259 0.0
O184 O 0.76968 0.87808 1.11244 0.0
O185 O 0.72625 0.93247 1.13904 0.0
O186 O 0.73345 0.8199 1.02234 0.0
O187 O 0.79717 0.85086 1.03994 0.0
O188 O 0.65104 0.88793 1.06399 0.0
O189 O 0.68277 0.83138 1.08912 0.0
O190 O 0.66186 0.97928 1.03389 0.0
O191 O 0.71714 0.93527 1.00882 0.0
H192 H 0.55886 0.06683 1.13422 0.0
H193 H 0.47606 0.06464 1.13661 0.0
H194 H 0.47727 0.91947 1.10971 0.0
H195 H 0.5609 0.92215 1.10901 0.0
H196 H 0.77683 0.73114 0.99431 0.0
H197 H 0.79474 0.65483 1.02001 0.0
H198 H 0.82592 0.71949 1.11776 0.0
H199 H 0.80817 0.79505 1.09221 0.0
Pr200 Pr 0.39995 0.42155 0.8387 0.0
Pr201 Pr 0.47228 0.46791 0.80694 0.0
C202 C 0.35008 0.37711 0.8856 0.0
C203 C 0.33204 0.40079 0.9161 0.0
C204 C 0.31172 0.44495 0.91248 0.0
C205 C 0.30256 0.4715 0.94165 0.0
C206 C 0.31476 0.45484 0.9747 0.0
C207 C 0.33461 0.41056 0.97822 0.0
C208 C 0.3431 0.38382 0.94923 0.0
C209 C 0.37099 0.5108 0.81901 0.0
C210 C 0.45393 0.50001 0.88853 0.0
C211 C 0.54008 0.51396 0.77418 0.0
C212 C 0.58405 0.53077 0.78878 0.0
C213 C 0.6257 0.51935 0.7731 0.0
C214 C 0.66751 0.5303 0.78925 0.0
C215 C 0.66835 0.55303 0.82132 0.0
C216 C 0.62662 0.5652 0.83657 0.0
C217 C 0.585 0.55402 0.8206 0.0
C218 C 0.50295 0.38127 0.83352 0.0
C219 C 0.38841 0.42087 0.75691 0.0
O220 O 0.39483 0.37346 0.88532 0.0
O221 O 0.33261 0.38986 0.85558 0.0
O222 O 0.40969 0.50025 0.83113 0.0
O223 O 0.34535 0.47417 0.81631 0.0
O224 O 0.47764 0.50994 0.86019 0.0
O225 O 0.42435 0.46539 0.8875 0.0
O226 O 0.5355 0.46909 0.7728 0.0
O227 O 0.50301 0.5342 0.78498 0.0
O228 O 0.46589 0.38756 0.81641 0.0
O229 O 0.52164 0.42086 0.84045 0.0
O230 O 0.38079 0.39398 0.78404 0.0
O231 O 0.41856 0.45534 0.75976 0.0
H232 H 0.3039 0.45955 0.88709 0.0
H233 H 0.28622 0.50494 0.93844 0.0
H234 H 0.34276 0.39606 1.00361 0.0
H235 H 0.35954 0.35044 0.95261 0.0
H236 H 0.62588 0.50109 0.74875 0.0
H237 H 0.69917 0.52106 0.77664 0.0
H238 H 0.62609 0.58239 0.86135 0.0
H239 H 0.55354 0.56267 0.83372 0.0
Pr240 Pr 0.93341 0.14528 0.58798 0.0
Pr241 Pr 0.88362 0.21457 0.55512 0.0
C242 C 1.00069 0.10822 0.62645 0.0
C243 C 1.05072 0.11079 0.62345 0.0
C244 C 0.07652 0.07037 0.62663 0.0
C245 C 0.12415 0.07283 0.62721 0.0
C246 C 0.147 0.11602 0.62486 0.0
C247 C 0.12086 0.15591 0.61785 0.0
C248 C 0.07308 0.15335 0.61757 0.0
C249 C 0.84784 0.10714 0.57113 0.0
C250 C 0.85311 0.19284 0.63756 0.0
C251 C 0.83658 0.28405 0.52399 0.0
C252 C 0.826 0.32962 0.53887 0.0
C253 C 0.8156 0.36811 0.51765 0.0
C254 C 0.80727 0.41139 0.5325 0.0
C255 C 0.80906 0.41669 0.56878 0.0
C256 C 0.81989 0.3781 0.58981 0.0
C257 C 0.82851 0.33519 0.57501 0.0
C258 C 0.96932 0.24894 0.57882 0.0
C259 C 0.9293 0.13047 0.50548 0.0
O260 O 0.97935 0.0849 0.60237 0.0
O261 O 0.98006 0.14668 0.63468 0.0
O262 O 0.8545 0.1484 0.58031 0.0
O263 O 0.88604 0.08407 0.57134 0.0
O264 O 0.84331 0.2173 0.60913 0.0
O265 O 0.88795 0.16379 0.63689 0.0
O266 O 0.8798 0.27648 0.51803 0.0
O267 O 0.81666 0.24853 0.53889 0.0
O268 O 0.96302 0.21198 0.562 0.0
O269 O 0.93009 0.26577 0.58762 0.0
O270 O 0.95426 0.12114 0.53313 0.0
O271 O 0.89702 0.16291 0.50707 0.0
H272 H 0.05984 1.03711 0.63046 0.0
H273 H 0.14246 1.04103 0.6328 0.0
H274 H 0.13711 0.18955 0.61532 0.0
H275 H 1.05363 0.18496 0.61451 0.0
H276 H 0.81397 0.36472 0.48972 0.0
H277 H 0.79862 0.4405 0.51567 0.0
H278 H 0.82205 0.38121 0.61776 0.0
H279 H 0.83731 0.30626 0.59192 0.0
Pr280 Pr 0.21622 0.68064 0.33388 0.0
Pr281 Pr 0.14458 0.6292 0.30389 0.0
C282 C 0.26697 0.7445 0.36669 0.0
C283 C 0.27433 0.79443 0.3626 0.0
C284 C 0.24484 0.82144 0.34173 0.0
C285 C 0.24503 0.86971 0.34451 0.0
C286 C 0.27545 0.89128 0.36772 0.0
C287 C 0.30905 0.86399 0.38479 0.0
C288 C 0.30808 0.81592 0.38253 0.0
C289 C 0.24927 0.59191 0.31721 0.0
C290 C 0.16671 0.60181 0.38639 0.0
C291 C 0.07578 0.58182 0.273 0.0
C292 C 1.02763 0.57377 0.28332 0.0
C293 C 1.0044 0.60618 0.30357 0.0
C294 C 0.96142 0.59564 0.31763 0.0
C295 C 0.94071 0.55234 0.31187 0.0
C296 C 0.96326 0.52076 0.29031 0.0
C297 C 1.00632 0.53131 0.27633 0.0
C298 C 0.11185 0.71498 0.32921 0.0
C299 C 0.2233 0.67591 0.25125 0.0
O300 O 0.22601 0.73194 0.37686 0.0
O301 O 0.28322 0.71867 0.34222 0.0
O302 O 0.21025 0.60091 0.32878 0.0
O303 O 0.27322 0.6297 0.31477 0.0
O304 O 0.14777 0.58691 0.35731 0.0
O305 O 0.19051 0.64102 0.38552 0.0
O306 O 0.0872 0.62403 0.26386 0.0
O307 O 0.10642 0.5623 0.29313 0.0
O308 O 0.14786 0.70991 0.31131 0.0
O309 O 0.09479 0.67479 0.33701 0.0
O310 O 0.22747 0.70576 0.27644 0.0
O311 O 0.19734 0.63869 0.25651 0.0
H312 H 0.21972 0.80498 0.32517 0.0
H313 H 0.21895 0.88971 0.33095 0.0
H314 H 0.33288 0.87906 0.40314 0.0
H315 H 0.33156 0.79549 0.39835 0.0
H316 H 1.0201 0.63914 0.30946 0.0
H317 H 0.94529 0.62073 0.33416 0.0
H318 H 0.94793 0.48748 0.28463 0.0
H319 H 1.02359 0.50573 0.26089 0.0
Pr320 Pr 0.89481 0.7048 0.88514 0.0
Pr321 Pr 0.93372 0.62829 0.85412 0.0
C322 C 0.85453 0.77669 0.91677 0.0
C323 C 0.84231 0.82313 0.903 0.0
C324 C 0.8691 0.84458 0.87715 0.0
C325 C 0.85482 0.88588 0.86107 0.0
C326 C 0.81321 0.90656 0.8703 0.0
C327 C 0.78701 0.88562 0.89687 0.0
C328 C 0.80141 0.84428 0.913 0.0
C329 C 0.97999 0.73188 0.85663 0.0
C330 C 0.94066 0.62004 0.93634 0.0
C331 C 0.97191 0.5659 0.81274 0.0
C332 C 0.94832 0.53886 0.78609 0.0
C333 C 0.90056 0.54295 0.78188 0.0
C334 C 0.87837 0.52311 0.75345 0.0
C335 C 0.9036 0.498 0.72933 0.0
C336 C 0.95088 0.49086 0.73541 0.0
C337 C 0.97309 0.51142 0.76346 0.0
C338 C 0.84446 0.60589 0.87632 0.0
C339 C 0.85939 0.68664 0.8037 0.0
O340 O 0.89815 0.76755 0.91988 0.0
O341 O 0.83144 0.74235 0.90363 0.0
O342 O 0.97342 0.69432 0.87383 0.0
O343 O 0.94111 0.7515 0.84975 0.0
O344 O 0.96364 0.60983 0.90841 0.0
O345 O 0.90878 0.65288 0.93421 0.0
O346 O 0.97447 0.61052 0.80637 0.0
O347 O 0.95963 0.55608 0.84447 0.0
O348 O 0.85698 0.64337 0.86255 0.0
O349 O 0.87914 0.57832 0.87978 0.0
O350 O 0.85112 0.71027 0.83217 0.0
O351 O 0.89275 0.65594 0.80446 0.0
H352 H 0.90057 0.82882 0.86866 0.0
H353 H 0.87567 0.90077 0.84061 0.0
H354 H 0.75517 0.90105 0.90507 0.0
H355 H 0.78008 0.82828 0.93274 0.0
H356 H 0.88085 0.5634 0.7997 0.0
H357 H 0.84221 0.52965 0.74918 0.0
H358 H 0.97161 0.47266 0.71686 0.0
H359 H 1.00986 0.50775 0.76647 0.0
Pr360 Pr 0.14648 0.12164 1.13832 0.0
Pr361 Pr 0.21689 0.17503 1.10664 0.0
C362 C 0.07995 0.07096 1.16868 0.0
C363 C 1.03493 0.05709 1.15402 0.0
C364 C 0.99442 0.06448 1.17255 0.0
C365 C 0.95155 0.05571 1.1572 0.0
C366 C 0.94846 1.03917 1.12306 0.0
C367 C 0.98909 1.03141 1.10475 0.0
C368 C 1.03174 1.04048 1.11994 0.0
C369 C 0.11425 0.21062 1.11796 0.0
C370 C 0.2291 0.16674 1.18946 0.0
C371 C 0.25735 0.24382 1.07116 0.0
C372 C 0.26182 0.2939 1.07691 0.0
C373 C 0.30527 0.31428 1.07722 0.0
C374 C 0.30985 0.36218 1.0795 0.0
C375 C 0.27083 0.39102 1.08147 0.0
C376 C 0.22774 0.36959 1.08549 0.0
C377 C 0.2232 0.32171 1.0822 0.0
C378 C 0.25062 0.08626 1.12148 0.0
C379 C 0.16464 0.09675 1.05493 0.0
O380 O 0.08525 0.1151 1.17427 0.0
O381 O 0.11613 1.05247 1.15483 0.0
O382 O 0.15171 0.20233 1.13375 0.0
O383 O 0.09498 0.17201 1.10913 0.0
O384 O 0.23501 0.19601 1.16346 0.0
O385 O 0.20073 0.13101 1.18544 0.0
O386 O 0.27995 0.2169 1.09283 0.0
O387 O 0.21624 0.22842 1.06347 0.0
O388 O 0.21061 0.0958 1.11139 0.0
O389 O 0.27542 0.1237 1.12359 0.0
O390 O 0.14095 0.08535 1.08299 0.0
O391 O 0.19433 0.13157 1.05665 0.0
H392 H 0.99594 0.0777 1.1987 0.0
H393 H 0.92083 0.06146 1.17211 0.0
H394 H 0.98786 1.01907 1.07835 0.0
H395 H 0.06222 1.03519 1.10466 0.0
H396 H 0.33564 0.29336 1.07386 0.0
H397 H 0.344 0.37622 1.07646 0.0
H398 H 0.19693 0.38992 1.0883 0.0
H399 H 0.18925 0.30676 1.08206 0.0
Pr400 Pr 0.72964 0.38882 0.38743 0.0
Pr401 Pr 0.67795 0.45916 0.35361 0.0
C402 C 0.78057 0.32266 0.41877 0.0
C403 C 0.79767 0.279 0.40401 0.0
C404 C 0.7892 0.23648 0.42094 0.0
C405 C 0.79983 0.19468 0.40481 0.0
C406 C 0.81929 0.19468 0.37149 0.0
C407 C 0.82864 0.23734 0.35498 0.0
C408 C 0.81778 0.27896 0.37095 0.0
C409 C 0.64385 0.35378 0.365 0.0
C410 C 0.68443 0.474 0.4364 0.0
C411 C 0.60948 0.49821 0.31733 0.0
C412 C 0.55966 0.49773 0.3227 0.0
C413 C 0.53461 0.53853 0.31843 0.0
C414 C 0.48692 0.53746 0.32028 0.0
C415 C 0.46322 0.4953 0.32631 0.0
C416 C 0.48902 0.45547 0.33433 0.0
C417 C 0.53675 0.45661 0.33207 0.0
C418 C 0.76629 0.49335 0.36802 0.0
C419 C 0.75516 0.40702 0.3033 0.0
O420 O 0.73624 0.3251 0.4224 0.0
O421 O 0.79814 0.36112 0.40643 0.0
O422 O 0.64995 0.39185 0.38069 0.0
O423 O 0.68309 0.33602 0.35724 0.0
O424 O 0.65912 0.48329 0.4089 0.0
O425 O 0.71621 0.4411 0.4349 0.0
O426 O 0.63365 0.52119 0.34004 0.0
O427 O 0.62787 0.45867 0.30887 0.0
O428 O 0.75623 0.45289 0.35905 0.0
O429 O 0.72968 0.51898 0.36831 0.0
O430 O 0.76668 0.38422 0.33219 0.0
O431 O 0.72066 0.43664 0.30408 0.0
H432 H 0.77336 0.23558 0.44627 0.0
H433 H 0.79285 0.16236 0.41842 0.0
H434 H 0.8433 0.23854 0.32925 0.0
H435 H 0.8241 0.31108 0.35691 0.0
H436 H 0.55175 0.57082 0.31189 0.0
H437 H 0.4689 0.56914 0.31378 0.0
H438 H 0.47225 0.42261 0.33957 0.0
H439 H 0.55565 0.42483 0.33586 0.0
Pr440 Pr 0.47296 0.96552 0.64134 0.0
Pr441 Pr 0.39543 0.92571 0.61215 0.0
C442 C 0.54619 1.00587 0.67195 0.0
C443 C 0.59133 1.01727 0.65704 0.0
C444 C 0.6271 1.03432 0.67775 0.0
C445 C 0.66948 1.04578 0.66288 0.0
C446 C 0.67663 1.04055 0.627 0.0
C447 C 0.64073 1.023 0.6065 0.0
C448 C 0.59861 1.01139 0.62138 0.0
C449 C 0.49652 0.87805 0.61411 0.0
C450 C 0.39251 0.9202 0.69423 0.0
C451 C 0.33095 0.88653 0.57243 0.0
C452 C 0.30436 0.90958 0.5448 0.0
C453 C 0.2761 0.88412 0.52276 0.0
C454 C 0.25649 0.90557 0.49356 0.0
C455 C 0.26543 0.95268 0.48578 0.0
C456 C 0.29122 0.97878 0.50935 0.0
C457 C 0.31019 0.95738 0.53883 0.0
C458 C 0.37525 1.01694 0.63191 0.0
C459 C 0.4526 0.99887 0.55961 0.0
O460 O 0.53686 0.96185 0.67538 0.0
O461 O 0.51178 1.02922 0.65898 0.0
O462 O 0.46075 0.88581 0.63186 0.0
O463 O 0.51706 0.91678 0.60692 0.0
O464 O 0.38342 0.89422 0.66742 0.0
O465 O 0.42199 0.95504 0.69017 0.0
O466 O 0.37478 0.88221 0.56617 0.0
O467 O 0.32269 0.90121 0.60361 0.0
O468 O 0.41166 1.00369 0.61822 0.0
O469 O 0.34846 0.98179 0.63746 0.0
O470 O 0.47709 1.0081 0.58771 0.0
O471 O 0.42199 0.96514 0.56129 0.0
H472 H 0.62216 1.03913 0.70529 0.0
H473 H 0.69632 0.05965 0.67932 0.0
H474 H 0.64526 1.01805 0.57894 0.0
H475 H 0.5715 0.99807 0.60494 0.0
H476 H 0.27114 0.84729 0.52708 0.0
H477 H 0.2376 0.88418 0.47551 0.0
H478 H 0.29901 1.01485 0.50385 0.0
H479 H 0.33147 0.97757 0.55607 0.0
Pr480 Pr 0.17898 0.46284 0.59046 0.0
Pr481 Pr 0.22806 0.38892 0.55802 0.0
C482 C 0.11418 0.50876 0.6246 0.0
C483 C 0.06489 0.51421 0.61853 0.0
C484 C 1.04036 0.54568 0.63814 0.0
C485 C 0.99264 0.54493 0.63739 0.0
C486 C 0.96865 0.51192 0.61747 0.0
C487 C 0.99356 0.48361 0.59511 0.0
C488 C 1.04149 0.48514 0.59539 0.0
C489 C 0.2681 0.49231 0.57388 0.0
C490 C 0.25547 0.40725 0.6418 0.0
C491 C 0.27691 0.32244 0.5269 0.0
C492 C 0.28899 0.27507 0.53883 0.0
C493 C 0.2568 0.24716 0.55639 0.0
C494 C 0.26988 0.20488 0.57153 0.0
C495 C 0.31555 0.18976 0.56977 0.0
C496 C 0.34749 0.21722 0.55152 0.0
C497 C 0.33429 0.25944 0.53615 0.0
C498 C 0.14116 0.35791 0.58156 0.0
C499 C 0.18549 0.47602 0.50741 0.0
O500 O 0.14088 0.52889 0.60186 0.0
O501 O 0.12733 0.46685 0.63345 0.0
O502 O 0.25647 0.45269 0.58442 0.0
O503 O 0.23288 0.51982 0.57343 0.0
O504 O 0.26524 0.38333 0.61367 0.0
O505 O 0.22214 0.43835 0.64032 0.0
O506 O 0.23379 0.33037 0.51966 0.0
O507 O 0.29587 0.35583 0.54441 0.0
O508 O 0.14871 0.39597 0.56542 0.0
O509 O 0.1796 0.33696 0.58766 0.0
O510 O 0.15955 0.48499 0.53413 0.0
O511 O 0.21711 0.443 0.5101 0.0
H512 H 0.05799 0.56873 0.65577 0.0
H513 H 0.97491 0.56696 0.65537 0.0
H514 H 0.97617 0.45782 0.57964 0.0
H515 H 0.06033 0.46152 0.57929 0.0
H516 H 0.22174 0.25855 0.5593 0.0
H517 H 0.24454 0.18473 0.5856 0.0
H518 H 0.38277 0.20617 0.54929 0.0
H519 H 0.35975 0.2805 0.52295 0.0
Pr520 Pr 0.90041 0.92876 0.33853 0.0
Pr521 Pr 0.97275 0.9731 0.30602 0.0
C522 C 0.84706 0.88669 0.38468 0.0
C523 C 0.82899 0.90993 0.41544 0.0
C524 C 0.80534 0.95238 0.41217 0.0
C525 C 0.79448 0.97785 0.44155 0.0
C526 C 0.80815 0.96191 0.47451 0.0
C527 C 0.8319 0.91962 0.47763 0.0
C528 C 0.84204 0.89388 0.44845 0.0
C529 C 0.87272 1.01835 0.31761 0.0
C530 C 0.95535 1.00516 0.38759 0.0
C531 C 1.044 1.01613 0.27496 0.0
C532 C 0.08861 1.02748 0.29106 0.0
C533 C 0.12692 1.03899 0.27093 0.0
C534 C 0.16917 1.04856 0.28702 0.0
C535 C 0.17358 1.04693 0.32349 0.0
C536 C 0.13513 1.03501 0.34341 0.0
C537 C 0.09322 1.02521 0.32737 0.0
C538 C 1.00191 0.88642 0.33374 0.0
C539 C 0.89069 0.92445 0.25639 0.0
O540 O 0.89154 0.88086 0.38495 0.0
O541 O 0.83107 0.90104 0.35462 0.0
O542 O 0.91111 1.00749 0.33003 0.0
O543 O 0.84672 0.98202 0.31543 0.0
O544 O 0.97267 1.01893 0.35751 0.0
O545 O 0.93203 0.96599 0.38828 0.0
O546 O 1.03556 0.97211 0.27146 0.0
O547 O 1.00891 1.03831 0.28713 0.0
O548 O 0.9652 0.89296 0.31637 0.0
O549 O 1.02053 0.92595 0.34098 0.0
O550 O 0.88368 0.89837 0.28409 0.0
O551 O 0.91979 0.95989 0.25866 0.0
H552 H 0.79573 0.96631 0.38691 0.0
H553 H 0.77519 1.00968 0.43862 0.0
H554 H 0.84142 0.90555 0.50287 0.0
H555 H 0.86092 0.86182 0.45161 0.0
H556 H 0.12418 1.0406 0.24289 0.0
H557 H 0.19817 0.05802 0.271 0.0
H558 H 0.13756 1.03287 0.37145 0.0
H559 H 0.06427 1.01573 0.34341 0.0
Pr560 Pr 0.42794 0.63901 1.08546 0.0
Pr561 Pr 0.38499 0.71329 1.05318 0.0
C562 C 0.46979 0.58389 1.13122 0.0
C563 C 0.44705 0.56308 1.1618 0.0
C564 C 0.41108 0.53069 1.15806 0.0
C565 C 0.38514 0.51658 1.18675 0.0
C566 C 0.39431 0.53506 1.21952 0.0
C567 C 0.43023 0.56745 0.22305 0.0
C568 C 0.45634 0.58106 1.19463 0.0
C569 C 0.3385 0.61188 1.06657 0.0
C570 C 0.35322 0.69507 1.13534 0.0
C571 C 0.34206 0.78282 1.01867 0.0
C572 C 0.33251 0.83081 1.02937 0.0
C573 C 0.36599 0.85695 1.04692 0.0
C574 C 0.35478 0.89936 1.06172 0.0
C575 C 0.30973 0.91623 1.05966 0.0
C576 C 0.27666 0.89086 1.04107 0.0
C577 C 0.28799 0.84861 1.02601 0.0
C578 C 0.47119 0.74244 1.07992 0.0
C579 C 0.43117 0.62979 1.00379 0.0
O580 O 0.47467 0.62903 1.13196 0.0
O581 O 0.45627 0.56888 1.10095 0.0
O582 O 0.34998 0.65074 1.07801 0.0
O583 O 0.37435 0.5859 1.0633 0.0
O584 O 0.34352 0.71893 1.1066 0.0
O585 O 0.38724 0.66516 1.13467 0.0
O586 O 0.38481 0.772 1.01329 0.0
O587 O 0.32022 0.75068 1.036 0.0
O588 O 0.46423 0.70524 1.06334 0.0
O589 O 0.43251 0.76275 1.08549 0.0
O590 O 0.45745 0.6224 1.03106 0.0
O591 O 0.39619 0.65894 1.00661 0.0
H592 H 0.40262 0.51648 1.13297 0.0
H593 H 0.3585 0.49075 1.18347 0.0
H594 H 0.43953 0.58111 0.24817 0.0
H595 H 0.48346 0.60631 1.19826 0.0
H596 H 0.40049 0.8439 1.05031 0.0
H597 H 0.38092 0.91803 1.07599 0.0
H598 H 0.24182 0.90341 1.0386 0.0
H599 H 0.26157 0.82902 1.01277 0.0
Pr600 Pr 0.71628 0.16848 0.83229 0.0
Pr601 Pr 0.64261 0.12421 0.8036 0.0
C602 C 0.78252 0.2136 0.86639 0.0
C603 C 0.82381 0.19555 0.88435 0.0
C604 C 0.86622 0.19503 0.8672 0.0
C605 C 0.90545 0.17812 0.88402 0.0
C606 C 0.90326 0.16207 0.91856 0.0
C607 C 0.86013 0.16007 0.93484 0.0
C608 C 0.82098 0.17664 0.91797 0.0
C609 C 0.74342 0.07835 0.81311 0.0
C610 C 0.66391 0.09425 0.88541 0.0
C611 C 0.57165 0.081 0.77219 0.0
C612 C 0.52434 0.07241 0.78399 0.0
C613 C 0.5029 0.10346 0.8064 0.0
C614 C 0.4616 0.09163 0.82251 0.0
C615 C 0.44098 1.04837 0.81665 0.0
C616 C 0.46139 1.01832 0.79281 0.0
C617 C 0.50275 1.03019 0.77674 0.0
C618 C 0.61329 0.20979 0.83151 0.0
C619 C 0.71961 0.17141 0.75053 0.0
O620 O 0.74266 0.20458 0.8804 0.0
O621 O 0.78222 0.20919 0.83281 0.0
O622 O 0.70603 0.08914 0.82645 0.0
O623 O 0.76821 0.11505 0.8085 0.0
O624 O 0.64491 0.07985 0.85623 0.0
O625 O 0.68755 0.13343 0.8845 0.0
O626 O 0.58306 0.12387 0.76523 0.0
O627 O 0.60317 0.05912 0.78997 0.0
O628 O 0.64901 0.20464 0.81327 0.0
O629 O 0.59553 0.16971 0.83878 0.0
O630 O 0.72399 0.19996 0.77641 0.0
O631 O 0.6942 0.13386 0.75554 0.0
H632 H 0.86934 0.20867 0.84099 0.0
H633 H 0.93795 0.1801 0.8707 0.0
H634 H 0.85682 0.14892 0.96165 0.0
H635 H 0.78878 0.17582 0.93176 0.0
H636 H 0.51894 0.13617 0.81255 0.0
H637 H 0.44696 0.11552 0.84074 0.0
H638 H 0.44585 0.98514 0.78711 0.0
H639 H 0.51872 1.00567 0.75962 0.0
C640 C 0.51735 0.31621 0.37487 0.0
C641 C 0.51783 0.26965 0.36408 0.0
H642 H 0.55613 0.37813 0.38563 0.0
C643 C 0.56014 0.25119 0.354 0.0
H644 H 0.48556 0.33164 0.38319 0.0
C645 C 0.60033 0.27875 0.35377 0.0
C646 C 0.60001 0.32538 0.36464 0.0
H647 H 0.56202 0.21564 0.34557 0.0
H648 H 0.63198 0.26322 0.34528 0.0
C649 C 0.55788 0.34321 0.37592 0.0
C650 C 0.53052 0.74935 0.60746 0.0
C651 C 0.57748 0.74988 0.61698 0.0
H652 H 0.46793 0.78832 0.59993 0.0
C653 C 0.59654 0.79278 0.6264 0.0
H654 H 0.5142 0.71707 0.6004 0.0
C655 C 0.57031 0.8338 0.62505 0.0
C656 C 0.5234 0.83333 0.61565 0.0
H657 H 0.63195 0.79471 0.63482 0.0
H658 H 0.58677 0.86609 0.632 0.0
C659 C 0.50377 0.79026 0.6073 0.0
C660 C 0.06102 0.8376 0.86087 0.0
C661 C 0.10491 0.81765 0.86196 0.0
H662 H 0.98823 0.82682 0.85745 0.0
C663 C 0.10737 0.76869 0.86102 0.0
H664 H 0.05744 0.87489 0.86151 0.0
C665 C 0.06742 0.74072 0.85961 0.0
C666 C 1.02353 0.76072 0.858 0.0
H667 H 0.14041 0.75173 0.86196 0.0
H668 H 0.07095 0.7034 0.85943 0.0
C669 C 1.02119 0.80973 0.85842 0.0
C670 C 0.11093 0.29831 1.12551 0.0
C671 C 0.08852 0.256 1.11899 0.0
H672 H 0.10548 0.37249 1.12944 0.0
C673 C 1.04045 0.25722 1.11449 0.0
H674 H 0.14732 0.29872 1.13096 0.0
C675 C 1.01585 0.29917 1.11638 0.0
C676 C 1.03863 0.3418 1.12058 0.0
H677 H 1.02151 0.22546 1.11025 0.0
H678 H 0.97888 0.29827 1.11407 0.0
C679 C 0.08667 0.34066 1.12514 0.0
C680 C 0.55788 0.84229 1.06859 0.0
C681 C 0.59942 0.82287 1.08054 0.0
H682 H 0.48545 0.83307 1.06007 0.0
C683 C 0.59841 0.77583 1.09142 0.0
H684 H 0.55711 0.87765 1.0589 0.0
C685 C 0.55746 0.74937 1.09051 0.0
C686 C 0.51574 0.76938 1.07969 0.0
H687 H 0.62956 0.75911 1.1004 0.0
H688 H 0.55831 0.71344 1.09896 0.0
C689 C 0.51666 0.81638 1.06894 0.0
C690 C 0.60597 0.29798 0.83163 0.0
C691 C 0.58531 0.25387 0.83279 0.0
H692 H 0.59674 0.3719 0.83184 0.0
C693 C 0.53689 0.25215 0.83449 0.0
H694 H 0.64292 0.30101 0.83028 0.0
C695 C 0.51011 0.29296 0.83435 0.0
C696 C 0.53081 0.33706 0.83365 0.0
H697 H 0.51941 0.21903 0.83528 0.0
H698 H 0.47312 0.28997 0.83516 0.0
C699 C 0.57927 0.33876 0.8326 0.0
C700 C 0.05504 0.3495 0.59194 0.0
C701 C 0.09661 0.33104 0.58017 0.0
H702 H 0.98318 0.33828 0.60154 0.0
C703 C 0.09584 0.28508 0.56809 0.0
H704 H 0.05426 0.38418 0.60209 0.0
C705 C 0.0549 0.25882 0.56721 0.0
C706 C 1.01341 0.27685 0.57959 0.0
H707 H 0.12706 0.26944 0.55883 0.0
H708 H 0.05587 0.2241 0.55701 0.0
C709 C 1.01425 0.32277 0.59193 0.0
C710 C 0.10464 0.80298 0.3321 0.0
C711 C 0.08388 0.75899 0.33091 0.0
H712 H 0.09573 0.87677 0.3349 0.0
C713 C 1.03542 0.75734 0.33125 0.0
H714 H 0.14152 0.80593 0.3321 0.0
C715 C 1.00878 0.79821 0.33197 0.0
C716 C 1.02964 0.84219 0.33352 0.0
H717 H 1.01787 0.72428 0.33031 0.0
H718 H 0.97176 0.79534 0.33158 0.0
C719 C 0.07809 0.84375 0.3339 0.0
C720 C 0.39642 0.95991 1.19506 0.0
C721 C 0.38377 1.00569 1.20172 0.0
H722 H 0.43437 0.91752 1.1612 0.0
C723 C 0.3748 1.03531 1.17326 0.0
H724 H 0.40091 0.93521 1.21624 0.0
C725 C 0.39533 1.02578 1.14158 0.0
C726 C 0.42289 0.9862 1.13883 0.0
H727 H 0.36227 0.07006 1.17744 0.0
H728 H 0.3977 0.05345 1.12241 0.0
C729 C 0.41614 0.94995 1.16317 0.0
C730 C 0.72951 0.95899 0.54414 0.0
C731 C 0.76294 0.94498 0.5687 0.0
H732 H 0.7194 0.97874 0.49109 0.0
C733 C 0.8061 0.96674 0.56688 0.0
H734 H 0.69458 0.94649 0.54565 0.0
C735 C 0.82044 0.98547 0.53515 0.0
C736 C 0.79074 0.98312 0.50639 0.0
H737 H 0.83166 0.96045 0.58692 0.0
H738 H 0.85664 0.99221 0.53149 0.0
C739 C 0.7437 0.97803 0.5125 0.0
C740 C 0.22266 0.13946 0.69663 0.0
C741 C 0.23581 0.09309 0.70097 0.0
H742 H 0.18285 0.18552 0.66542 0.0
C743 C 0.24359 0.06703 0.67115 0.0
H744 H 0.21891 0.16139 0.719 0.0
C745 C 0.22212 0.08052 0.64016 0.0
C746 C 0.19408 0.12 0.63962 0.0
H747 H 0.25633 1.03191 0.67355 0.0
H748 H 0.21961 0.05556 0.61953 0.0
C749 C 0.20143 0.15314 0.66558 0.0
C750 C 0.95977 0.15261 1.00221 0.0
C751 C 0.97476 0.19897 1.00168 0.0
H752 H 0.92474 0.10112 0.97271 0.0
C753 C 0.99007 0.21771 0.96991 0.0
H754 H 0.95094 0.13564 1.02652 0.0
C755 C 0.97516 0.19789 0.93906 0.0
C756 C 0.94529 0.15963 0.94052 0.0
H757 H 1.00479 0.25213 0.9683 0.0
H758 H 0.97913 0.21814 0.9154 0.0
C759 C 0.94478 0.13273 0.97127 0.0
C760 C 0.25325 0.47541 1.01381 0.0
C761 C 0.30007 0.47845 1.00638 0.0
H762 H 0.20455 0.44564 1.04801 0.0
C763 C 0.33113 0.47969 1.03435 0.0
H764 H 0.22801 0.47749 0.99307 0.0
C765 C 0.31774 0.46081 1.06628 0.0
C766 C 0.27405 0.44025 1.06901 0.0
H767 H 0.36731 0.48531 1.02973 0.0
H768 H 0.34395 0.45394 1.0857 0.0
C769 C 0.23994 0.45636 1.04566 0.0
C770 C 0.29713 0.98005 0.43007 0.0
C771 C 0.25796 0.9695 0.44972 0.0
H772 H 0.33339 0.9638 0.38391 0.0
C773 C 0.2178 0.9563 0.43214 0.0
H774 H 0.32821 0.99223 0.44256 0.0
C775 C 0.22079 0.94039 0.39821 0.0
C776 C 0.26417 0.93678 0.38279 0.0
H777 H 0.18651 0.9499 0.44641 0.0
H778 H 0.19149 0.92208 0.38767 0.0
C779 C 0.30013 0.96378 0.39623 0.0
C780 C 0.91719 0.45415 0.64344 0.0
C781 C 0.92175 0.49868 0.62853 0.0
H782 H 0.90532 0.4179 0.69129 0.0
C783 C 0.89292 0.53374 0.64063 0.0
H784 H 0.93657 0.42532 0.63356 0.0
C785 C 0.8746 0.52933 0.6739 0.0
C786 C 0.88522 0.48975 0.69404 0.0
H787 H 0.8934 0.56776 0.62839 0.0
H788 H 0.86144 0.56018 0.68596 0.0
C789 C 0.89914 0.44973 0.67679 0.0
C790 C 0.38793 0.53124 0.31173 0.0
C791 C 0.41486 0.49098 0.31398 0.0
H792 H 0.35632 0.5786 0.27584 0.0
C793 C 0.40546 0.45578 0.28998 0.0
H794 H 0.3911 0.55766 0.33128 0.0
C795 C 0.38527 0.46772 0.25817 0.0
C796 C 0.37452 0.51431 0.2514 0.0
H797 H 0.4223 0.42249 0.29195 0.0
H798 H 0.38794 0.44342 0.23713 0.0
C799 C 0.36768 0.54323 0.2799 0.0
C800 C 0.27484 0.46413 0.32511 0.0
C801 C 0.29822 0.46179 0.35723 0.0
H802 H 0.24098 0.5076 0.2871 0.0
C803 C 0.3085 0.50331 0.37427 0.0
H804 H 0.26591 0.43279 0.3115 0.0
C805 C 0.29498 0.54597 0.35992 0.0
C806 C 0.27076 0.54803 0.32831 0.0
H807 H 0.32675 0.50282 0.39885 0.0
H808 H 0.30203 0.57731 0.37415 0.0
C809 C 0.26072 0.50683 0.31103 0.0
C810 C 0.36705 0.56018 0.61185 0.0
C811 C 0.40277 0.52771 0.60968 0.0
H812 H 0.2963 0.57531 0.60094 0.0
C813 C 0.39467 0.48629 0.59195 0.0
H814 H 0.37244 0.59263 0.62503 0.0
C815 C 0.35141 0.47658 0.57809 0.0
C816 C 0.31529 0.50823 0.58124 0.0
H817 H 0.42131 0.46044 0.59001 0.0
H818 H 0.34561 0.44331 0.56615 0.0
C819 C 0.32372 0.55065 0.59754 0.0
C820 C 0.29679 0.60272 0.85844 0.0
C821 C 0.32739 0.6405 0.859 0.0
H822 H 0.28581 0.53199 0.84396 0.0
C823 C 0.36983 0.6364 0.84236 0.0
H824 H 0.26364 0.60503 0.87072 0.0
C825 C 0.38223 0.59498 0.82684 0.0
C826 C 0.35241 0.55673 0.82731 0.0
H827 H 0.39436 0.66464 0.84257 0.0
H828 H 0.41617 0.5921 0.81587 0.0
C829 C 0.30909 0.56123 0.84254 0.0
C830 C 0.25284 0.5432 1.11922 0.0
C831 C 0.2123 0.56824 1.11297 0.0
H832 H 0.32478 0.53785 1.10951 0.0
C833 C 0.21306 0.60492 1.0885 0.0
H834 H 0.25368 0.51526 1.13827 0.0
C835 C 0.25366 0.61703 1.07143 0.0
C836 C 0.29425 0.59249 1.07818 0.0
H837 H 0.18234 0.62469 1.08287 0.0
H838 H 0.25375 0.64663 1.05381 0.0
C839 C 0.29345 0.55558 1.1023 0.0
C840 C 0.87596 0.58652 1.11994 0.0
C841 C 0.84904 0.5472 1.11326 0.0
H842 H 0.88552 0.65929 1.11161 0.0
C843 C 0.80789 0.55253 1.09448 0.0
H844 H 0.90817 0.58324 1.13395 0.0
C845 C 0.79521 0.59615 1.08112 0.0
C846 C 0.82314 0.63522 1.08673 0.0
H847 H 0.78682 0.52271 1.08848 0.0
H848 H 0.76395 0.5992 1.06594 0.0
C849 C 0.86308 0.63003 1.107 0.0
C850 C 0.74824 0.53207 0.84112 0.0
C851 C 0.71247 0.56457 0.83879 0.0
H852 H 0.81806 0.51905 0.85613 0.0
C853 C 0.71928 0.60868 0.85289 0.0
H854 H 0.74381 0.49764 0.83081 0.0
C855 C 0.7615 0.62076 0.86753 0.0
C856 C 0.79774 0.58888 0.86879 0.0
H857 H 0.69256 0.63459 0.85129 0.0
H858 H 0.76653 0.65583 0.87648 0.0
C859 C 0.79044 0.54403 0.85618 0.0
C860 C 0.76703 0.46345 0.61261 0.0
C861 C 0.79809 0.46174 0.58493 0.0
H862 H 0.72772 0.50651 0.64609 0.0
C863 C 0.81728 0.50334 0.57229 0.0
H864 H 0.75139 0.43202 0.6227 0.0
C865 C 0.80456 0.54585 0.58634 0.0
C866 C 0.77206 0.54749 0.613 0.0
H867 H 0.84158 0.50302 0.55119 0.0
H868 H 0.81833 0.57754 0.57515 0.0
C869 C 0.75372 0.50595 0.62618 0.0
C870 C 0.81894 0.55757 0.34763 0.0
C871 C 0.81241 0.51174 0.35941 0.0
H872 H 0.86424 0.60625 0.32272 0.0
C873 C 0.84921 0.4806 0.35753 0.0
H874 H 0.79108 0.58221 0.3483 0.0
C875 C 0.89078 0.49411 0.34272 0.0
C876 C 0.89687 0.53924 0.32934 0.0
H877 H 0.84526 0.445 0.36633 0.0
H878 H 0.91805 0.46887 0.3414 0.0
C879 C 0.8608 0.5712 0.33276 0.0
C880 C 0.75004 0.95384 0.84301 0.0
C881 C 0.79664 0.94916 0.85183 0.0
H882 H 0.69722 0.99795 0.82263 0.0
C883 C 0.82684 0.98571 0.84331 0.0
H884 H 0.72598 0.92606 0.84839 0.0
C885 C 0.81032 1.02692 0.82814 0.0
C886 C 0.76329 1.0323 0.82117 0.0
H887 H 0.86295 0.98329 0.84977 0.0
H888 H 0.83395 0.05536 0.82369 0.0
C889 C 0.73364 0.99482 0.82781 0.0
C890 C 0.8231 1.04806 1.0953 0.0
C891 C 0.81611 1.00503 1.07948 0.0
H892 H 0.87052 0.09242 1.12199 0.0
C893 C 0.85348 0.97494 1.07614 0.0
H894 H 0.79476 0.07161 1.09876 0.0
C895 C 0.89657 0.98671 1.08943 0.0
C896 C 0.90324 1.02866 1.1068 0.0
H897 H 0.84888 0.94128 1.06451 0.0
H898 H 0.92424 0.962 1.08741 0.0
C899 C 0.86625 0.05962 1.10907 0.0
C900 C 0.81143 0.07058 0.33981 0.0
C901 C 0.8547 0.06493 0.32474 0.0
H902 H 0.76644 0.11608 0.36684 0.0
C903 C 0.88475 0.10296 0.32306 0.0
H904 H 0.78793 1.0416 0.34206 0.0
C905 C 0.87268 0.14532 0.33738 0.0
C906 C 0.83041 0.1505 0.35407 0.0
H907 H 0.91863 0.09924 0.31213 0.0
H908 H 0.89739 0.17339 0.33679 0.0
C909 C 0.7995 0.11295 0.35453 0.0
C910 C 0.80433 0.05755 0.61262 0.0
C911 C 0.80489 0.08442 0.58195 0.0
H912 H 0.76345 1.02259 0.65091 0.0
C913 C 0.76331 0.09562 0.56552 0.0
H914 H 0.836 1.04938 0.62619 0.0
C915 C 0.72172 0.08017 0.57956 0.0
C916 C 0.72096 0.05429 0.61084 0.0
H917 H 0.76295 0.11728 0.54233 0.0
H918 H 0.69006 0.09003 0.56666 0.0
C919 C 0.76281 1.04276 0.62699 0.0
C920 C 0.30262 0.10584 0.58487 0.0
C921 C 0.3298 0.1459 0.58747 0.0
H922 H 0.29548 1.03368 0.59746 0.0
C923 C 0.37066 0.14369 0.60706 0.0
H924 H 0.27142 0.10614 0.56945 0.0
C925 C 0.38415 0.10219 0.62337 0.0
C926 C 0.35681 0.0623 0.62078 0.0
H927 H 0.39232 0.17399 0.60964 0.0
H928 H 0.41652 0.10093 0.6373 0.0
C929 C 0.31609 0.06447 0.60124 0.0
C930 C 0.2593 1.04098 0.32874 0.0
C931 C 0.21771 0.05872 0.34086 0.0
H932 H 0.33254 1.04168 0.33313 0.0
C933 C 0.21861 0.08905 0.36914 0.0
H934 H 0.25971 1.0173 0.30721 0.0
C935 C 0.26033 0.10298 0.38391 0.0
C936 C 0.30176 0.08585 0.37133 0.0
H937 H 0.18714 0.10365 0.37884 0.0
H938 H 0.26032 0.12836 0.40434 0.0
C939 C 0.3009 0.05432 0.34392 0.0
C940 C 0.24383 1.00113 1.11439 0.0
C941 C 0.27017 1.04166 1.11081 0.0
H942 H 0.23573 0.92976 1.10112 0.0
C943 C 0.31025 1.0405 1.09092 0.0
H944 H 0.21209 1.00147 1.1288 0.0
C945 C 0.32377 0.99952 1.07494 0.0
C946 C 0.29682 0.95924 1.07789 0.0
H947 H 0.33011 0.07174 1.08645 0.0
H948 H 0.35442 0.99982 1.05926 0.0
C949 C 0.25699 0.96036 1.09813 0.0
C950 C 0.3964 0.98799 0.84954 0.0
C951 C 0.3997 1.03357 0.83651 0.0
H952 H 0.35462 0.93681 0.87466 0.0
C953 C 0.36333 0.06434 0.84249 0.0
H954 H 0.42416 0.9637 0.84619 0.0
C955 C 0.32353 1.04902 0.85941 0.0
C956 C 0.31952 1.00269 0.87069 0.0
H957 H 0.36477 0.09969 0.83276 0.0
H958 H 0.29502 0.07265 0.86178 0.0
C959 C 0.35686 0.97279 0.86641 0.0
C960 C 0.31359 0.13914 0.26376 0.0
C961 C 0.32407 0.18329 0.27716 0.0
H962 H 0.27453 0.09904 0.22711 0.0
C963 C 0.30076 0.22162 0.2626 0.0
H964 H 0.33023 0.10859 0.2745 0.0
C965 C 0.26953 0.21614 0.23464 0.0
C966 C 0.25889 0.17194 1.22141 0.0
H967 H 0.30747 0.25602 0.27229 0.0
H968 H 0.25356 0.24666 0.22331 0.0
C969 C 0.28108 0.13348 0.23679 0.0
C970 C 0.66495 0.55113 0.46302 0.0
C971 C 0.67876 0.5045 0.46768 0.0
H972 H 0.64965 0.61657 0.48652 0.0
C973 C 0.68623 0.48854 0.50196 0.0
H974 H 0.65924 0.56509 0.43712 0.0
C975 C 0.67898 0.51795 0.5305 0.0
C976 C 0.66553 0.56467 0.52566 0.0
H977 H 0.69702 0.45316 0.50679 0.0
H978 H 0.6851 0.50438 0.55647 0.0
C979 C 0.65932 0.58088 0.49141 0.0
C980 C 0.3168 0.86481 0.76527 0.0
C981 C 0.29855 0.9037 0.78181 0.0
H982 H 0.3598 0.83942 0.72446 0.0
C983 C 0.31433 0.94782 0.77087 0.0
H984 H 0.3059 0.83034 0.77309 0.0
C985 C 0.3468 0.953 0.74407 0.0
C986 C 0.36363 0.91428 0.72644 0.0
H987 H 0.30166 0.97863 0.78329 0.0
H988 H 0.35732 0.98758 0.73621 0.0
C989 C 0.34801 0.87009 0.7375 0.0
C990 C 0.94032 0.60561 1.00218 0.0
C991 C 0.94727 0.58961 0.9683 0.0
H992 H 0.94125 0.58968 1.05696 0.0
C993 C 0.96034 0.54277 0.96474 0.0
H994 H 0.93008 0.64114 1.00617 0.0
C995 C 0.96545 0.51279 0.99379 0.0
C996 C 0.95938 0.52893 1.02766 0.0
H997 H 0.96559 0.52875 0.93917 0.0
H998 H 0.97438 0.47691 0.98971 0.0
C999 C 0.94705 0.57598 1.03137 0.0
C1000 C 0.84079 0.87376 1.21756 0.0
C1001 C 0.86077 0.91737 0.22466 0.0
H1002 H 0.79461 0.83414 1.18527 0.0
C1003 C 0.84803 0.955 1.20305 0.0
H1004 H 0.84948 0.84391 0.23359 0.0
C1005 C 0.81528 0.94962 1.17625 0.0
C1006 C 0.79501 0.90621 1.16938 0.0
H1007 H 0.86211 0.98914 1.20764 0.0
H1008 H 0.80581 0.97969 1.16069 0.0
C1009 C 0.80909 0.86809 1.18992 0.0
C1010 C 0.48165 0.58418 0.96275 0.0
C1011 C 0.43772 0.60012 0.97216 0.0
H1012 H 0.52176 0.54158 0.92874 0.0
C1013 C 0.3999 0.58344 0.95312 0.0
H1014 H 0.51166 0.59592 0.97684 0.0
C1015 C 0.40565 0.55091 0.9265 0.0
C1016 C 0.44949 0.53478 0.91721 0.0
H1017 H 0.36553 0.59422 0.95963 0.0
H1018 H 0.37551 0.53848 0.91289 0.0
C1019 C 0.48754 0.55279 0.93523 0.0
C1020 C 0.76067 0.22109 0.70507 0.0
C1021 C 0.75069 0.17704 0.71965 0.0
H1022 H 0.79941 0.26079 0.66732 0.0
C1023 C 0.77502 0.1389 0.70702 0.0
H1024 H 0.74308 0.2514 0.71438 0.0
C1025 C 0.80896 0.14469 0.68144 0.0
C1026 C 0.8187 0.18856 0.66653 0.0
H1027 H 0.76905 0.10461 0.71788 0.0
H1028 H 0.82732 0.11442 0.67298 0.0
C1029 C 0.79331 0.22659 0.67829 0.0
C1030 C 0.18861 0.49208 0.44187 0.0
C1031 C 0.18121 0.50744 0.47586 0.0
H1032 H 0.18839 0.50927 0.38722 0.0
C1033 C 0.1689 0.55439 0.47996 0.0
H1034 H 0.19827 0.45647 0.43752 0.0
C1035 C 0.1645 0.585 0.45126 0.0
C1036 C 0.17051 0.56938 0.41727 0.0
H1037 H 0.16334 0.56785 0.50566 0.0
H1038 H 0.15576 0.62085 0.45566 0.0
C1039 C 0.18257 0.5224 0.413 0.0
C1040 C 0.7762 0.71816 0.72884 0.0
C1041 C 0.75704 0.67462 0.72037 0.0
H1042 H 0.82239 0.75667 0.76189 0.0
C1043 C 0.77126 0.63597 0.74035 0.0
H1044 H 0.76635 0.74883 0.71412 0.0
C1045 C 0.80441 0.6404 0.76694 0.0
C1046 C 0.82395 0.68372 0.77513 0.0
H1047 H 0.75781 0.60185 0.73476 0.0
H1048 H 0.81454 0.60967 0.78144 0.0
C1049 C 0.80855 0.72276 0.75619 0.0
C1050 C 0.13457 1.01093 0.98232 0.0
C1051 C 0.178 0.99363 0.97299 0.0
H1052 H 0.09585 0.0557 1.01563 0.0
C1053 C 0.21648 1.01087 0.99102 0.0
H1054 H 0.10408 0.99889 0.96898 0.0
C1055 C 0.21184 1.04512 1.01658 0.0
C1056 C 0.16848 0.06243 1.02588 0.0
H1057 H 0.2505 0.99906 0.98454 0.0
H1058 H 0.24241 0.05769 1.02953 0.0
C1059 C 0.12979 1.04393 1.00889 0.0
C1060 C 0.84232 0.45892 0.23969 0.0
C1061 C 0.85501 0.42082 1.21955 0.0
H1062 H 0.8001 0.48447 0.28072 0.0
C1063 C 0.83468 0.37748 0.22764 0.0
H1064 H 0.85681 0.49283 0.23432 0.0
C1065 C 0.80289 0.37242 0.25497 0.0
C1066 C 0.78901 0.41092 0.27413 0.0
H1067 H 0.84347 0.34727 1.21279 0.0
H1068 H 0.78843 0.33858 0.26062 0.0
C1069 C 0.80938 0.45416 0.26615 0.0
C1070 C 0.40638 0.05337 0.52132 0.0
C1071 C 0.44927 1.03396 0.53036 0.0
H1072 H 0.36821 0.10003 0.488 0.0
C1073 C 0.48792 1.04999 0.51216 0.0
H1074 H 0.376 1.04293 0.53535 0.0
C1075 C 0.48336 0.08254 0.48455 0.0
C1076 C 0.44028 0.10148 0.47514 0.0
H1077 H 0.52153 1.03644 0.51864 0.0
H1078 H 0.5137 0.09264 0.47027 0.0
C1079 C 0.40198 0.08687 0.49446 0.0
C1080 C 0.3373 0.37338 0.71682 0.0
C1081 C 0.35755 0.41631 0.72546 0.0
H1082 H 0.29037 0.33632 0.68348 0.0
C1083 C 0.34401 0.45559 0.70589 0.0
H1084 H 0.34656 0.34234 0.7313 0.0
C1085 C 0.31037 0.45234 0.6795 0.0
C1086 C 0.28996 0.40954 0.67103 0.0
H1087 H 0.35825 0.48929 0.71178 0.0
H1088 H 0.30058 0.48352 0.66536 0.0
C1089 C 0.30476 0.36989 0.68954 0.0
C1090 C 0.93959 1.05123 0.47977 0.0
C1091 C 0.93505 0.09952 0.47449 0.0
H1092 H 0.94868 0.98413 0.4572 0.0
C1093 C 0.93862 0.11665 0.44018 0.0
H1094 H 0.93689 1.03654 0.5057 0.0
C1095 C 0.94744 0.08644 0.41231 0.0
C1096 C 0.95152 1.03801 0.41769 0.0
H1097 H 0.9355 0.15347 0.43496 0.0
H1098 H 0.94985 0.10095 0.38633 0.0
C1099 C 0.94674 1.02102 0.45189 0.0
C1100 C 0.2653 0.72524 1.20592 0.0
C1101 C 0.25353 0.68116 1.21971 0.0
H1102 H 0.30451 0.76456 1.16818 0.0
C1103 C 0.27481 0.64235 1.2052 0.0
H1104 H 0.25002 0.75604 1.21653 0.0
C1105 C 0.30753 0.64746 1.17862 0.0
C1106 C 0.31925 0.69146 1.1647 0.0
H1107 H 0.26738 0.60793 1.21526 0.0
H1108 H 0.32343 0.61659 1.16861 0.0
C1109 C 0.29683 0.73024 1.1783 0.0
C1110 C 0.6778 1.04859 0.97909 0.0
C1111 C 0.68133 1.00018 0.97497 0.0
H1112 H 0.67058 0.11588 0.95472 0.0
C1113 C 0.67802 0.98304 0.94105 0.0
H1114 H 0.68025 0.06323 1.00476 0.0
C1115 C 0.67041 1.01336 0.91236 0.0
C1116 C 0.66757 0.0619 0.9165 0.0
H1117 H 0.6803 0.94615 0.93674 0.0
H1118 H 0.66776 0.99876 0.88673 0.0
C1119 C 0.67199 0.07895 0.95036 0.0
loop_
_geom_bond_atom_site_label_1
_geom_bond_atom_site_label_2
_geom_bond_distance
_geom_bond_site_symmetry_2
_ccdc_geom_bond_type
Pr0 C2 2.880 . S
Pr0 O20 2.562 . S
Pr0 O21 2.490 . S
Pr0 O22 2.695 . S
Pr0 O23 2.512 . S
Pr0 O25 2.437 . S
Pr0 O28 2.436 . S
Pr0 O30 2.438 . S
Pr1 C11 2.880 . S
Pr1 O22 2.436 . S
Pr1 O24 2.438 . S
Pr1 O26 2.562 . S
Pr1 O27 2.490 . S
Pr1 O28 2.695 . S
Pr1 O29 2.512 . S
Pr1 O31 2.437 . S
C2 Pr0 2.880 . S
C2 C3 1.491 . S
C2 O20 1.254 . S
C2 O21 1.225 . S
C3 C2 1.491 . S
C3 C4 1.392 . S
C3 C8 1.356 . S
C4 C3 1.392 . S
C4 C5 1.368 . S
C4 H32 0.929 . S
C5 C4 1.368 . S
C5 C6 1.386 . S
C5 H33 0.929 . S
C6 C5 1.386 . S
C6 C7 1.373 . S
C7 C6 1.373 . S
C7 C8 1.409 . S
C7 H34 0.931 . S
C8 C3 1.356 . S
C8 C7 1.409 . S
C8 H35 0.930 . S
C9 O22 1.270 . S
C9 O23 1.248 . S
C10 O24 1.267 . S
C10 O25 1.278 . S
C11 Pr1 2.880 . S
C11 C12 1.491 . S
C11 O26 1.254 . S
C11 O27 1.225 . S
C12 C11 1.491 . S
C12 C13 1.392 1_545 S
C12 C17 1.356 . S
C13 C12 1.392 1_565 S
C13 C14 1.368 . S
C13 H36 0.929 . S
C14 C13 1.368 . S
C14 C15 1.386 . S
C14 H37 0.929 . S
C15 C14 1.386 . S
C15 C16 1.373 1_565 S
C16 C15 1.373 1_545 S
C16 C17 1.409 . S
C16 H38 0.931 1_554 S
C17 C12 1.356 . S
C17 C16 1.409 . S
C17 H39 0.930 . S
C18 O28 1.270 . S
C18 O29 1.248 . S
C19 O30 1.267 . S
C19 O31 1.278 . S
O20 Pr0 2.562 . S
O20 C2 1.254 . S
O21 Pr0 2.490 . S
O21 C2 1.225 . S
O22 Pr0 2.695 . S
O22 Pr1 2.436 . S
O22 C9 1.270 . S
O23 Pr0 2.512 . S
O23 C9 1.248 . S
O24 Pr1 2.438 . S
O24 C10 1.267 . S
O25 Pr0 2.437 . S
O25 C10 1.278 . S
O26 Pr1 2.562 . S
O26 C11 1.254 . S
O27 Pr1 2.490 . S
O27 C11 1.225 . S
O28 Pr0 2.436 . S
O28 Pr1 2.695 . S
O28 C18 1.270 . S
O29 Pr1 2.512 . S
O29 C18 1.248 . S
O30 Pr0 2.438 . S
O30 C19 1.267 . S
O31 Pr1 2.437 . S
O31 C19 1.278 . S
H32 C4 0.929 . S
H33 C5 0.929 . S
H34 C7 0.931 . S
H35 C8 0.930 . S
H36 C13 0.929 . S
H37 C14 0.929 . S
H38 C16 0.931 1_556 S
H39 C17 0.930 . S
Pr40 C42 2.880 . S
Pr40 O60 2.562 . S
Pr40 O61 2.490 . S
Pr40 O62 2.695 . S
Pr40 O63 2.512 . S
Pr40 O65 2.437 . S
Pr40 O68 2.436 . S
Pr40 O70 2.438 . S
Pr41 C51 2.880 . S
Pr41 O62 2.436 . S
Pr41 O64 2.438 . S
Pr41 O66 2.562 . S
Pr41 O67 2.490 . S
Pr41 O68 2.695 . S
Pr41 O69 2.512 . S
Pr41 O71 2.437 . S
C42 Pr40 2.880 . S
C42 C43 1.491 . S
C42 O60 1.254 . S
C42 O61 1.225 . S
C43 C42 1.491 . S
C43 C44 1.392 . S
C43 C48 1.356 . S
C44 C43 1.392 . S
C44 C45 1.368 . S
C44 H72 0.929 . S
C45 C44 1.368 . S
C45 C46 1.386 . S
C45 H73 0.929 . S
C46 C45 1.386 . S
C46 C47 1.373 . S
C47 C46 1.373 . S
C47 C48 1.409 . S
C47 H74 0.931 . S
C48 C43 1.356 . S
C48 C47 1.409 . S
C48 H75 0.930 . S
C49 O62 1.270 . S
C49 O63 1.248 . S
C50 O64 1.267 . S
C50 O65 1.278 . S
C51 Pr41 2.880 . S
C51 C52 1.491 . S
C51 O66 1.254 . S
C51 O67 1.225 . S
C52 C51 1.491 . S
C52 C53 1.392 . S
C52 C57 1.356 . S
C53 C52 1.392 . S
C53 C54 1.368 . S
C53 H76 0.929 . S
C54 C53 1.368 . S
C54 C55 1.386 . S
C54 H77 0.929 . S
C55 C54 1.386 . S
C55 C56 1.373 . S
C56 C55 1.373 . S
C56 C57 1.409 . S
C56 H78 0.931 . S
C57 C52 1.356 . S
C57 C56 1.409 . S
C57 H79 0.930 . S
C58 O68 1.270 . S
C58 O69 1.248 . S
C59 O70 1.267 . S
C59 O71 1.278 . S
O60 Pr40 2.562 . S
O60 C42 1.254 . S
O61 Pr40 2.490 . S
O61 C42 1.225 . S
O62 Pr40 2.695 . S
O62 Pr41 2.436 . S
O62 C49 1.270 . S
O63 Pr40 2.512 . S
O63 C49 1.248 . S
O64 Pr41 2.438 . S
O64 C50 1.267 . S
O65 Pr40 2.437 . S
O65 C50 1.278 . S
O66 Pr41 2.562 . S
O66 C51 1.254 . S
O67 Pr41 2.490 . S
O67 C51 1.225 . S
O68 Pr40 2.436 . S
O68 Pr41 2.695 . S
O68 C58 1.270 . S
O69 Pr41 2.512 . S
O69 C58 1.248 . S
O70 Pr40 2.438 . S
O70 C59 1.267 . S
O71 Pr41 2.437 . S
O71 C59 1.278 . S
H72 C44 0.929 . S
H73 C45 0.929 . S
H74 C47 0.931 . S
H75 C48 0.930 . S
H76 C53 0.929 . S
H77 C54 0.929 . S
H78 C56 0.931 . S
H79 C57 0.930 . S
Pr80 C82 2.880 . S
Pr80 O100 2.562 . S
Pr80 O101 2.490 . S
Pr80 O102 2.695 . S
Pr80 O103 2.512 . S
Pr80 O105 2.437 . S
Pr80 O108 2.436 . S
Pr80 O110 2.438 . S
Pr81 C91 2.880 . S
Pr81 O102 2.436 . S
Pr81 O104 2.438 . S
Pr81 O106 2.562 . S
Pr81 O107 2.490 . S
Pr81 O108 2.695 . S
Pr81 O109 2.512 . S
Pr81 O111 2.437 . S
C82 Pr80 2.880 . S
C82 C83 1.491 . S
C82 O100 1.254 . S
C82 O101 1.225 . S
C83 C82 1.491 . S
C83 C84 1.392 . S
C83 C88 1.356 . S
C84 C83 1.392 . S
C84 C85 1.368 . S
C84 H112 0.929 . S
C85 C84 1.368 . S
C85 C86 1.386 . S
C85 H113 0.929 . S
C86 C85 1.386 . S
C86 C87 1.373 . S
C87 C86 1.373 . S
C87 C88 1.409 . S
C87 H114 0.931 . S
C88 C83 1.356 . S
C88 C87 1.409 . S
C88 H115 0.930 . S
C89 O102 1.270 . S
C89 O103 1.248 . S
C90 O104 1.267 . S
C90 O105 1.278 . S
C91 Pr81 2.880 . S
C91 C92 1.491 . S
C91 O106 1.254 . S
C91 O107 1.225 . S
C92 C91 1.491 . S
C92 C93 1.392 1_565 S
C92 C97 1.356 . S
C93 C92 1.392 1_545 S
C93 C94 1.368 . S
C93 H116 0.929 . S
C94 C93 1.368 . S
C94 C95 1.386 . S
C94 H117 0.929 . S
C95 C94 1.386 . S
C95 C96 1.373 1_545 S
C96 C95 1.373 1_565 S
C96 C97 1.409 . S
C96 H118 0.931 . S
C97 C92 1.356 . S
C97 C96 1.409 . S
C97 H119 0.930 . S
C98 O108 1.270 . S
C98 O109 1.248 . S
C99 O110 1.267 . S
C99 O111 1.278 . S
O100 Pr80 2.562 . S
O100 C82 1.254 . S
O101 Pr80 2.490 . S
O101 C82 1.225 . S
O102 Pr80 2.695 . S
O102 Pr81 2.436 . S
O102 C89 1.270 . S
O103 Pr80 2.512 . S
O103 C89 1.248 . S
O104 Pr81 2.438 . S
O104 C90 1.267 . S
O105 Pr80 2.437 . S
O105 C90 1.278 . S
O106 Pr81 2.562 . S
O106 C91 1.254 . S
O107 Pr81 2.490 . S
O107 C91 1.225 . S
O108 Pr80 2.436 . S
O108 Pr81 2.695 . S
O108 C98 1.270 . S
O109 Pr81 2.512 . S
O109 C98 1.248 . S
O110 Pr80 2.438 . S
O110 C99 1.267 . S
O111 Pr81 2.437 . S
O111 C99 1.278 . S
H112 C84 0.929 . S
H113 C85 0.929 . S
H114 C87 0.931 . S
H115 C88 0.930 . S
H116 C93 0.929 . S
H117 C94 0.929 . S
H118 C96 0.931 . S
H119 C97 0.930 . S
Pr120 C122 2.880 1_655 S
Pr120 O140 2.562 . S
Pr120 O141 2.490 1_655 S
Pr120 O142 2.695 . S
Pr120 O143 2.512 . S
Pr120 O145 2.437 . S
Pr120 O148 2.436 . S
Pr120 O150 2.438 . S
Pr121 C131 2.880 . S
Pr121 O142 2.436 . S
Pr121 O144 2.438 . S
Pr121 O146 2.562 . S
Pr121 O147 2.490 . S
Pr121 O148 2.695 . S
Pr121 O149 2.512 . S
Pr121 O151 2.437 . S
C122 Pr120 2.880 1_455 S
C122 C123 1.491 . S
C122 O140 1.254 1_455 S
C122 O141 1.225 . S
C123 C122 1.491 . S
C123 C124 1.392 . S
C123 C128 1.356 . S
C124 C123 1.392 . S
C124 C125 1.368 . S
C124 H152 0.929 . S
C125 C124 1.368 . S
C125 C126 1.386 . S
C125 H153 0.929 . S
C126 C125 1.386 . S
C126 C127 1.373 . S
C127 C126 1.373 . S
C127 C128 1.409 . S
C127 H154 0.931 . S
C128 C123 1.356 . S
C128 C127 1.409 . S
C128 H155 0.930 1_455 S
C129 O142 1.270 . S
C129 O143 1.248 . S
C130 O144 1.267 . S
C130 O145 1.278 . S
C131 Pr121 2.880 . S
C131 C132 1.491 . S
C131 O146 1.254 . S
C131 O147 1.225 . S
C132 C131 1.491 . S
C132 C133 1.392 . S
C132 C137 1.356 . S
C133 C132 1.392 . S
C133 C134 1.368 . S
C133 H156 0.929 . S
C134 C133 1.368 . S
C134 C135 1.386 . S
C134 H157 0.929 . S
C135 C134 1.386 . S
C135 C136 1.373 . S
C136 C135 1.373 . S
C136 C137 1.409 . S
C136 H158 0.931 . S
C137 C132 1.356 . S
C137 C136 1.409 . S
C137 H159 0.930 . S
C138 O148 1.270 . S
C138 O149 1.248 . S
C139 O150 1.267 . S
C139 O151 1.278 . S
O140 Pr120 2.562 . S
O140 C122 1.254 1_655 S
O141 Pr120 2.490 1_455 S
O141 C122 1.225 . S
O142 Pr120 2.695 . S
O142 Pr121 2.436 . S
O142 C129 1.270 . S
O143 Pr120 2.512 . S
O143 C129 1.248 . S
O144 Pr121 2.438 . S
O144 C130 1.267 . S
O145 Pr120 2.437 . S
O145 C130 1.278 . S
O146 Pr121 2.562 . S
O146 C131 1.254 . S
O147 Pr121 2.490 . S
O147 C131 1.225 . S
O148 Pr120 2.436 . S
O148 Pr121 2.695 . S
O148 C138 1.270 . S
O149 Pr121 2.512 . S
O149 C138 1.248 . S
O150 Pr120 2.438 . S
O150 C139 1.267 . S
O151 Pr121 2.437 . S
O151 C139 1.278 . S
H152 C124 0.929 . S
H153 C125 0.929 . S
H154 C127 0.931 . S
H155 C128 0.930 1_655 S
H156 C133 0.929 . S
H157 C134 0.929 . S
H158 C136 0.931 . S
H159 C137 0.930 . S
Pr160 C162 2.880 . S
Pr160 O180 2.562 . S
Pr160 O181 2.490 . S
Pr160 O182 2.695 . S
Pr160 O183 2.512 . S
Pr160 O185 2.437 . S
Pr160 O188 2.436 . S
Pr160 O190 2.438 . S
Pr161 C171 2.880 . S
Pr161 O182 2.436 . S
Pr161 O184 2.438 . S
Pr161 O186 2.562 . S
Pr161 O187 2.490 . S
Pr161 O188 2.695 . S
Pr161 O189 2.512 . S
Pr161 O191 2.437 . S
C162 Pr160 2.880 . S
C162 C163 1.491 . S
C162 O180 1.254 . S
C162 O181 1.225 . S
C163 C162 1.491 . S
C163 C164 1.392 1_565 S
C163 C168 1.356 . S
C164 C163 1.392 1_545 S
C164 C165 1.368 . S
C164 H192 0.929 . S
C165 C164 1.368 . S
C165 C166 1.386 . S
C165 H193 0.929 . S
C166 C165 1.386 . S
C166 C167 1.373 1_545 S
C167 C166 1.373 1_565 S
C167 C168 1.409 . S
C167 H194 0.931 1_556 S
C168 C163 1.356 . S
C168 C167 1.409 . S
C168 H195 0.930 . S
C169 O182 1.270 . S
C169 O183 1.248 . S
C170 O184 1.267 . S
C170 O185 1.278 . S
C171 Pr161 2.880 . S
C171 C172 1.491 . S
C171 O186 1.254 . S
C171 O187 1.225 . S
C172 C171 1.491 . S
C172 C173 1.392 . S
C172 C177 1.356 . S
C173 C172 1.392 . S
C173 C174 1.368 . S
C173 H196 0.929 . S
C174 C173 1.368 . S
C174 C175 1.386 . S
C174 H197 0.929 . S
C175 C174 1.386 . S
C175 C176 1.373 . S
C176 C175 1.373 . S
C176 C177 1.409 . S
C176 H198 0.931 . S
C177 C172 1.356 . S
C177 C176 1.409 . S
C177 H199 0.930 . S
C178 O188 1.270 . S
C178 O189 1.248 . S
C179 O190 1.267 . S
C179 O191 1.278 . S
O180 Pr160 2.562 . S
O180 C162 1.254 . S
O181 Pr160 2.490 . S
O181 C162 1.225 . S
O182 Pr160 2.695 . S
O182 Pr161 2.436 . S
O182 C169 1.270 . S
O183 Pr160 2.512 . S
O183 C169 1.248 . S
O184 Pr161 2.438 . S
O184 C170 1.267 . S
O185 Pr160 2.437 . S
O185 C170 1.278 . S
O186 Pr161 2.562 . S
O186 C171 1.254 . S
O187 Pr161 2.490 . S
O187 C171 1.225 . S
O188 Pr160 2.436 . S
O188 Pr161 2.695 . S
O188 C178 1.270 . S
O189 Pr161 2.512 . S
O189 C178 1.248 . S
O190 Pr160 2.438 . S
O190 C179 1.267 . S
O191 Pr161 2.437 . S
O191 C179 1.278 . S
H192 C164 0.929 . S
H193 C165 0.929 . S
H194 C167 0.931 1_554 S
H195 C168 0.930 . S
H196 C173 0.929 . S
H197 C174 0.929 . S
H198 C176 0.931 . S
H199 C177 0.930 . S
Pr200 C202 2.880 . S
Pr200 O220 2.562 . S
Pr200 O221 2.490 . S
Pr200 O222 2.695 . S
Pr200 O223 2.512 . S
Pr200 O225 2.437 . S
Pr200 O228 2.436 . S
Pr200 O230 2.438 . S
Pr201 C211 2.880 . S
Pr201 O222 2.436 . S
Pr201 O224 2.438 . S
Pr201 O226 2.562 . S
Pr201 O227 2.490 . S
Pr201 O228 2.695 . S
Pr201 O229 2.512 . S
Pr201 O231 2.437 . S
C202 Pr200 2.880 . S
C202 C203 1.491 . S
C202 O220 1.254 . S
C202 O221 1.225 . S
C203 C202 1.491 . S
C203 C204 1.392 . S
C203 C208 1.356 . S
C204 C203 1.392 . S
C204 C205 1.368 . S
C204 H232 0.929 . S
C205 C204 1.368 . S
C205 C206 1.386 . S
C205 H233 0.929 . S
C206 C205 1.386 . S
C206 C207 1.373 . S
C207 C206 1.373 . S
C207 C208 1.409 . S
C207 H234 0.931 . S
C208 C203 1.356 . S
C208 C207 1.409 . S
C208 H235 0.930 . S
C209 O222 1.270 . S
C209 O223 1.248 . S
C210 O224 1.267 . S
C210 O225 1.278 . S
C211 Pr201 2.880 . S
C211 C212 1.491 . S
C211 O226 1.254 . S
C211 O227 1.225 . S
C212 C211 1.491 . S
C212 C213 1.392 . S
C212 C217 1.356 . S
C213 C212 1.392 . S
C213 C214 1.368 . S
C213 H236 0.929 . S
C214 C213 1.368 . S
C214 C215 1.386 . S
C214 H237 0.929 . S
C215 C214 1.386 . S
C215 C216 1.373 . S
C216 C215 1.373 . S
C216 C217 1.409 . S
C216 H238 0.931 . S
C217 C212 1.356 . S
C217 C216 1.409 . S
C217 H239 0.930 . S
C218 O228 1.270 . S
C218 O229 1.248 . S
C219 O230 1.267 . S
C219 O231 1.278 . S
O220 Pr200 2.562 . S
O220 C202 1.254 . S
O221 Pr200 2.490 . S
O221 C202 1.225 . S
O222 Pr200 2.695 . S
O222 Pr201 2.436 . S
O222 C209 1.270 . S
O223 Pr200 2.512 . S
O223 C209 1.248 . S
O224 Pr201 2.438 . S
O224 C210 1.267 . S
O225 Pr200 2.437 . S
O225 C210 1.278 . S
O226 Pr201 2.562 . S
O226 C211 1.254 . S
O227 Pr201 2.490 . S
O227 C211 1.225 . S
O228 Pr200 2.436 . S
O228 Pr201 2.695 . S
O228 C218 1.270 . S
O229 Pr201 2.512 . S
O229 C218 1.248 . S
O230 Pr200 2.438 . S
O230 C219 1.267 . S
O231 Pr201 2.437 . S
O231 C219 1.278 . S
H232 C204 0.929 . S
H233 C205 0.929 . S
H234 C207 0.931 . S
H235 C208 0.930 . S
H236 C213 0.929 . S
H237 C214 0.929 . S
H238 C216 0.931 . S
H239 C217 0.930 . S
Pr240 C242 2.880 . S
Pr240 O260 2.562 . S
Pr240 O261 2.490 . S
Pr240 O262 2.695 . S
Pr240 O263 2.512 . S
Pr240 O265 2.437 . S
Pr240 O268 2.436 . S
Pr240 O270 2.438 . S
Pr241 C251 2.880 . S
Pr241 O262 2.436 . S
Pr241 O264 2.438 . S
Pr241 O266 2.562 . S
Pr241 O267 2.490 . S
Pr241 O268 2.695 . S
Pr241 O269 2.512 . S
Pr241 O271 2.437 . S
C242 Pr240 2.880 . S
C242 C243 1.491 . S
C242 O260 1.254 . S
C242 O261 1.225 . S
C243 C242 1.491 . S
C243 C244 1.392 1_545 S
C243 C248 1.356 . S
C244 C243 1.392 1_565 S
C244 C245 1.368 . S
C244 H272 0.929 . S
C245 C244 1.368 . S
C245 C246 1.386 . S
C245 H273 0.929 . S
C246 C245 1.386 . S
C246 C247 1.373 1_565 S
C247 C246 1.373 1_545 S
C247 C248 1.409 . S
C247 H274 0.931 . S
C248 C243 1.356 . S
C248 C247 1.409 . S
C248 H275 0.930 . S
C249 O262 1.270 . S
C249 O263 1.248 . S
C250 O264 1.267 . S
C250 O265 1.278 . S
C251 Pr241 2.880 . S
C251 C252 1.491 . S
C251 O266 1.254 . S
C251 O267 1.225 . S
C252 C251 1.491 . S
C252 C253 1.392 . S
C252 C257 1.356 . S
C253 C252 1.392 . S
C253 C254 1.368 . S
C253 H276 0.929 . S
C254 C253 1.368 . S
C254 C255 1.386 . S
C254 H277 0.929 . S
C255 C254 1.386 . S
C255 C256 1.373 . S
C256 C255 1.373 . S
C256 C257 1.409 . S
C256 H278 0.931 . S
C257 C252 1.356 . S
C257 C256 1.409 . S
C257 H279 0.930 . S
C258 O268 1.270 . S
C258 O269 1.248 . S
C259 O270 1.267 . S
C259 O271 1.278 . S
O260 Pr240 2.562 . S
O260 C242 1.254 . S
O261 Pr240 2.490 . S
O261 C242 1.225 . S
O262 Pr240 2.695 . S
O262 Pr241 2.436 . S
O262 C249 1.270 . S
O263 Pr240 2.512 . S
O263 C249 1.248 . S
O264 Pr241 2.438 . S
O264 C250 1.267 . S
O265 Pr240 2.437 . S
O265 C250 1.278 . S
O266 Pr241 2.562 . S
O266 C251 1.254 . S
O267 Pr241 2.490 . S
O267 C251 1.225 . S
O268 Pr240 2.436 . S
O268 Pr241 2.695 . S
O268 C258 1.270 . S
O269 Pr241 2.512 . S
O269 C258 1.248 . S
O270 Pr240 2.438 . S
O270 C259 1.267 . S
O271 Pr241 2.437 . S
O271 C259 1.278 . S
H272 C244 0.929 . S
H273 C245 0.929 . S
H274 C247 0.931 . S
H275 C248 0.930 . S
H276 C253 0.929 . S
H277 C254 0.929 . S
H278 C256 0.931 . S
H279 C257 0.930 . S
Pr280 C282 2.880 . S
Pr280 O300 2.562 . S
Pr280 O301 2.490 . S
Pr280 O302 2.695 . S
Pr280 O303 2.512 . S
Pr280 O305 2.437 . S
Pr280 O308 2.436 . S
Pr280 O310 2.438 . S
Pr281 C291 2.880 1_455 S
Pr281 O302 2.436 . S
Pr281 O304 2.438 . S
Pr281 O306 2.562 . S
Pr281 O307 2.490 1_455 S
Pr281 O308 2.695 . S
Pr281 O309 2.512 . S
Pr281 O311 2.437 . S
C282 Pr280 2.880 . S
C282 C283 1.491 . S
C282 O300 1.254 . S
C282 O301 1.225 . S
C283 C282 1.491 . S
C283 C284 1.392 . S
C283 C288 1.356 . S
C284 C283 1.392 . S
C284 C285 1.368 . S
C284 H312 0.929 . S
C285 C284 1.368 . S
C285 C286 1.386 . S
C285 H313 0.929 . S
C286 C285 1.386 . S
C286 C287 1.373 . S
C287 C286 1.373 . S
C287 C288 1.409 . S
C287 H314 0.931 . S
C288 C283 1.356 . S
C288 C287 1.409 . S
C288 H315 0.930 . S
C289 O302 1.270 . S
C289 O303 1.248 . S
C290 O304 1.267 . S
C290 O305 1.278 . S
C291 Pr281 2.880 1_655 S
C291 C292 1.491 . S
C291 O306 1.254 1_655 S
C291 O307 1.225 . S
C292 C291 1.491 . S
C292 C293 1.392 . S
C292 C297 1.356 . S
C293 C292 1.392 . S
C293 C294 1.368 . S
C293 H316 0.929 . S
C294 C293 1.368 . S
C294 C295 1.386 . S
C294 H317 0.929 . S
C295 C294 1.386 . S
C295 C296 1.373 . S
C296 C295 1.373 . S
C296 C297 1.409 . S
C296 H318 0.931 . S
C297 C292 1.356 . S
C297 C296 1.409 . S
C297 H319 0.930 1_655 S
C298 O308 1.270 . S
C298 O309 1.248 . S
C299 O310 1.267 . S
C299 O311 1.278 . S
O300 Pr280 2.562 . S
O300 C282 1.254 . S
O301 Pr280 2.490 . S
O301 C282 1.225 . S
O302 Pr280 2.695 . S
O302 Pr281 2.436 . S
O302 C289 1.270 . S
O303 Pr280 2.512 . S
O303 C289 1.248 . S
O304 Pr281 2.438 . S
O304 C290 1.267 . S
O305 Pr280 2.437 . S
O305 C290 1.278 . S
O306 Pr281 2.562 . S
O306 C291 1.254 1_455 S
O307 Pr281 2.490 1_655 S
O307 C291 1.225 . S
O308 Pr280 2.436 . S
O308 Pr281 2.695 . S
O308 C298 1.270 . S
O309 Pr281 2.512 . S
O309 C298 1.248 . S
O310 Pr280 2.438 . S
O310 C299 1.267 . S
O311 Pr281 2.437 . S
O311 C299 1.278 . S
H312 C284 0.929 . S
H313 C285 0.929 . S
H314 C287 0.931 . S
H315 C288 0.930 . S
H316 C293 0.929 . S
H317 C294 0.929 . S
H318 C296 0.931 . S
H319 C297 0.930 1_455 S
Pr320 C322 2.880 . S
Pr320 O340 2.562 . S
Pr320 O341 2.490 . S
Pr320 O342 2.695 . S
Pr320 O343 2.512 . S
Pr320 O345 2.437 . S
Pr320 O348 2.436 . S
Pr320 O350 2.438 . S
Pr321 C331 2.880 . S
Pr321 O342 2.436 . S
Pr321 O344 2.438 . S
Pr321 O346 2.562 . S
Pr321 O347 2.490 . S
Pr321 O348 2.695 . S
Pr321 O349 2.512 . S
Pr321 O351 2.437 . S
C322 Pr320 2.880 . S
C322 C323 1.491 . S
C322 O340 1.254 . S
C322 O341 1.225 . S
C323 C322 1.491 . S
C323 C324 1.392 . S
C323 C328 1.356 . S
C324 C323 1.392 . S
C324 C325 1.368 . S
C324 H352 0.929 . S
C325 C324 1.368 . S
C325 C326 1.386 . S
C325 H353 0.929 . S
C326 C325 1.386 . S
C326 C327 1.373 . S
C327 C326 1.373 . S
C327 C328 1.409 . S
C327 H354 0.931 . S
C328 C323 1.356 . S
C328 C327 1.409 . S
C328 H355 0.930 . S
C329 O342 1.270 . S
C329 O343 1.248 . S
C330 O344 1.267 . S
C330 O345 1.278 . S
C331 Pr321 2.880 . S
C331 C332 1.491 . S
C331 O346 1.254 . S
C331 O347 1.225 . S
C332 C331 1.491 . S
C332 C333 1.392 . S
C332 C337 1.356 . S
C333 C332 1.392 . S
C333 C334 1.368 . S
C333 H356 0.929 . S
C334 C333 1.368 . S
C334 C335 1.386 . S
C334 H357 0.929 . S
C335 C334 1.386 . S
C335 C336 1.373 . S
C336 C335 1.373 . S
C336 C337 1.409 . S
C336 H358 0.931 . S
C337 C332 1.356 . S
C337 C336 1.409 . S
C337 H359 0.930 . S
C338 O348 1.270 . S
C338 O349 1.248 . S
C339 O350 1.267 . S
C339 O351 1.278 . S
O340 Pr320 2.562 . S
O340 C322 1.254 . S
O341 Pr320 2.490 . S
O341 C322 1.225 . S
O342 Pr320 2.695 . S
O342 Pr321 2.436 . S
O342 C329 1.270 . S
O343 Pr320 2.512 . S
O343 C329 1.248 . S
O344 Pr321 2.438 . S
O344 C330 1.267 . S
O345 Pr320 2.437 . S
O345 C330 1.278 . S
O346 Pr321 2.562 . S
O346 C331 1.254 . S
O347 Pr321 2.490 . S
O347 C331 1.225 . S
O348 Pr320 2.436 . S
O348 Pr321 2.695 . S
O348 C338 1.270 . S
O349 Pr321 2.512 . S
O349 C338 1.248 . S
O350 Pr320 2.438 . S
O350 C339 1.267 . S
O351 Pr321 2.437 . S
O351 C339 1.278 . S
H352 C324 0.929 . S
H353 C325 0.929 . S
H354 C327 0.931 . S
H355 C328 0.930 . S
H356 C333 0.929 . S
H357 C334 0.929 . S
H358 C336 0.931 . S
H359 C337 0.930 . S
Pr360 C362 2.880 1_445 S
Pr360 O380 2.562 1_545 S
Pr360 O381 2.490 1_455 S
Pr360 O382 2.695 . S
Pr360 O383 2.512 . S
Pr360 O385 2.437 . S
Pr360 O388 2.436 . S
Pr360 O390 2.438 . S
Pr361 C371 2.880 . S
Pr361 O382 2.436 . S
Pr361 O384 2.438 . S
Pr361 O386 2.562 . S
Pr361 O387 2.490 . S
Pr361 O388 2.695 . S
Pr361 O389 2.512 . S
Pr361 O391 2.437 . S
C362 Pr360 2.880 1_665 S
C362 C363 1.491 . S
C362 O380 1.254 1_655 S
C362 O381 1.225 1_565 S
C363 C362 1.491 . S
C363 C364 1.392 . S
C363 C368 1.356 . S
C364 C363 1.392 . S
C364 C365 1.368 . S
C364 H392 0.929 1_565 S
C365 C364 1.368 . S
C365 C366 1.386 . S
C365 H393 0.929 . S
C366 C365 1.386 . S
C366 C367 1.373 . S
C367 C366 1.373 . S
C367 C368 1.409 . S
C367 H394 0.931 . S
C368 C363 1.356 . S
C368 C367 1.409 . S
C368 H395 0.930 1_655 S
C369 O382 1.270 . S
C369 O383 1.248 . S
C370 O384 1.267 . S
C370 O385 1.278 . S
C371 Pr361 2.880 . S
C371 C372 1.491 . S
C371 O386 1.254 . S
C371 O387 1.225 . S
C372 C371 1.491 . S
C372 C373 1.392 . S
C372 C377 1.356 . S
C373 C372 1.392 . S
C373 C374 1.368 . S
C373 H396 0.929 . S
C374 C373 1.368 . S
C374 C375 1.386 . S
C374 H397 0.929 . S
C375 C374 1.386 . S
C375 C376 1.373 . S
C376 C375 1.373 . S
C376 C377 1.409 . S
C376 H398 0.931 . S
C377 C372 1.356 . S
C377 C376 1.409 . S
C377 H399 0.930 . S
C378 O388 1.270 1_565 S
C378 O389 1.248 1_565 S
C379 O390 1.267 . S
C379 O391 1.278 . S
O380 Pr360 2.562 1_565 S
O380 C362 1.254 1_455 S
O381 Pr360 2.490 1_655 S
O381 C362 1.225 1_545 S
O382 Pr360 2.695 . S
O382 Pr361 2.436 . S
O382 C369 1.270 . S
O383 Pr360 2.512 . S
O383 C369 1.248 . S
O384 Pr361 2.438 . S
O384 C370 1.267 . S
O385 Pr360 2.437 . S
O385 C370 1.278 . S
O386 Pr361 2.562 . S
O386 C371 1.254 . S
O387 Pr361 2.490 . S
O387 C371 1.225 . S
O388 Pr360 2.436 . S
O388 Pr361 2.695 . S
O388 C378 1.270 1_545 S
O389 Pr361 2.512 . S
O389 C378 1.248 1_545 S
O390 Pr360 2.438 . S
O390 C379 1.267 . S
O391 Pr361 2.437 . S
O391 C379 1.278 . S
H392 C364 0.929 1_545 S
H393 C365 0.929 . S
H394 C367 0.931 . S
H395 C368 0.930 1_455 S
H396 C373 0.929 . S
H397 C374 0.929 . S
H398 C376 0.931 . S
H399 C377 0.930 . S
Pr400 C402 2.880 . S
Pr400 O420 2.562 . S
Pr400 O421 2.490 . S
Pr400 O422 2.695 . S
Pr400 O423 2.512 . S
Pr400 O425 2.437 . S
Pr400 O428 2.436 . S
Pr400 O430 2.438 . S
Pr401 C411 2.880 . S
Pr401 O422 2.436 . S
Pr401 O424 2.438 . S
Pr401 O426 2.562 . S
Pr401 O427 2.490 . S
Pr401 O428 2.695 . S
Pr401 O429 2.512 . S
Pr401 O431 2.437 . S
C402 Pr400 2.880 . S
C402 C403 1.491 . S
C402 O420 1.254 . S
C402 O421 1.225 . S
C403 C402 1.491 . S
C403 C404 1.392 . S
C403 C408 1.356 . S
C404 C403 1.392 . S
C404 C405 1.368 . S
C404 H432 0.929 . S
C405 C404 1.368 . S
C405 C406 1.386 . S
C405 H433 0.929 . S
C406 C405 1.386 . S
C406 C407 1.373 . S
C407 C406 1.373 . S
C407 C408 1.409 . S
C407 H434 0.931 . S
C408 C403 1.356 . S
C408 C407 1.409 . S
C408 H435 0.930 . S
C409 O422 1.270 . S
C409 O423 1.248 . S
C410 O424 1.267 . S
C410 O425 1.278 . S
C411 Pr401 2.880 . S
C411 C412 1.491 . S
C411 O426 1.254 . S
C411 O427 1.225 . S
C412 C411 1.491 . S
C412 C413 1.392 . S
C412 C417 1.356 . S
C413 C412 1.392 . S
C413 C414 1.368 . S
C413 H436 0.929 . S
C414 C413 1.368 . S
C414 C415 1.386 . S
C414 H437 0.929 . S
C415 C414 1.386 . S
C415 C416 1.373 . S
C416 C415 1.373 . S
C416 C417 1.409 . S
C416 H438 0.931 1_554 S
C417 C412 1.356 . S
C417 C416 1.409 . S
C417 H439 0.930 . S
C418 O428 1.270 . S
C418 O429 1.248 . S
C419 O430 1.267 . S
C419 O431 1.278 . S
O420 Pr400 2.562 . S
O420 C402 1.254 . S
O421 Pr400 2.490 . S
O421 C402 1.225 . S
O422 Pr400 2.695 . S
O422 Pr401 2.436 . S
O422 C409 1.270 . S
O423 Pr400 2.512 . S
O423 C409 1.248 . S
O424 Pr401 2.438 . S
O424 C410 1.267 . S
O425 Pr400 2.437 . S
O425 C410 1.278 . S
O426 Pr401 2.562 . S
O426 C411 1.254 . S
O427 Pr401 2.490 . S
O427 C411 1.225 . S
O428 Pr400 2.436 . S
O428 Pr401 2.695 . S
O428 C418 1.270 . S
O429 Pr401 2.512 . S
O429 C418 1.248 . S
O430 Pr400 2.438 . S
O430 C419 1.267 . S
O431 Pr401 2.437 . S
O431 C419 1.278 . S
H432 C404 0.929 . S
H433 C405 0.929 . S
H434 C407 0.931 . S
H435 C408 0.930 . S
H436 C413 0.929 . S
H437 C414 0.929 . S
H438 C416 0.931 1_556 S
H439 C417 0.930 . S
Pr440 C442 2.880 1_565 S
Pr440 O460 2.562 1_565 S
Pr440 O461 2.490 . S
Pr440 O462 2.695 . S
Pr440 O463 2.512 . S
Pr440 O465 2.437 . S
Pr440 O468 2.436 . S
Pr440 O470 2.438 . S
Pr441 C451 2.880 . S
Pr441 O462 2.436 . S
Pr441 O464 2.438 . S
Pr441 O466 2.562 . S
Pr441 O467 2.490 . S
Pr441 O468 2.695 . S
Pr441 O469 2.512 . S
Pr441 O471 2.437 . S
C442 Pr440 2.880 1_545 S
C442 C443 1.491 . S
C442 O460 1.254 . S
C442 O461 1.225 1_545 S
C443 C442 1.491 . S
C443 C444 1.392 . S
C443 C448 1.356 . S
C444 C443 1.392 . S
C444 C445 1.368 . S
C444 H472 0.929 1_545 S
C445 C444 1.368 . S
C445 C446 1.386 . S
C445 H473 0.929 . S
C446 C445 1.386 . S
C446 C447 1.373 . S
C447 C446 1.373 . S
C447 C448 1.409 . S
C447 H474 0.931 . S
C448 C443 1.356 . S
C448 C447 1.409 . S
C448 H475 0.930 . S
C449 O462 1.270 . S
C449 O463 1.248 . S
C450 O464 1.267 . S
C450 O465 1.278 . S
C451 Pr441 2.880 . S
C451 C452 1.491 . S
C451 O466 1.254 . S
C451 O467 1.225 . S
C452 C451 1.491 . S
C452 C453 1.392 . S
C452 C457 1.356 . S
C453 C452 1.392 . S
C453 C454 1.368 . S
C453 H476 0.929 . S
C454 C453 1.368 . S
C454 C455 1.386 . S
C454 H477 0.929 . S
C455 C454 1.386 . S
C455 C456 1.373 . S
C456 C455 1.373 . S
C456 C457 1.409 . S
C456 H478 0.931 . S
C457 C452 1.356 . S
C457 C456 1.409 . S
C457 H479 0.930 . S
C458 O468 1.270 1_545 S
C458 O469 1.248 1_545 S
C459 O470 1.267 . S
C459 O471 1.278 . S
O460 Pr440 2.562 1_545 S
O460 C442 1.254 . S
O461 Pr440 2.490 . S
O461 C442 1.225 1_565 S
O462 Pr440 2.695 . S
O462 Pr441 2.436 . S
O462 C449 1.270 . S
O463 Pr440 2.512 . S
O463 C449 1.248 . S
O464 Pr441 2.438 . S
O464 C450 1.267 . S
O465 Pr440 2.437 . S
O465 C450 1.278 . S
O466 Pr441 2.562 . S
O466 C451 1.254 . S
O467 Pr441 2.490 . S
O467 C451 1.225 . S
O468 Pr440 2.436 . S
O468 Pr441 2.695 . S
O468 C458 1.270 1_565 S
O469 Pr441 2.512 . S
O469 C458 1.248 1_565 S
O470 Pr440 2.438 . S
O470 C459 1.267 . S
O471 Pr441 2.437 . S
O471 C459 1.278 . S
H472 C444 0.929 1_565 S
H473 C445 0.929 . S
H474 C447 0.931 . S
H475 C448 0.930 . S
H476 C453 0.929 . S
H477 C454 0.929 . S
H478 C456 0.931 . S
H479 C457 0.930 . S
Pr480 C482 2.880 . S
Pr480 O500 2.562 . S
Pr480 O501 2.490 . S
Pr480 O502 2.695 . S
Pr480 O503 2.512 . S
Pr480 O505 2.437 . S
Pr480 O508 2.436 . S
Pr480 O510 2.438 . S
Pr481 C491 2.880 . S
Pr481 O502 2.436 . S
Pr481 O504 2.438 . S
Pr481 O506 2.562 . S
Pr481 O507 2.490 . S
Pr481 O508 2.695 . S
Pr481 O509 2.512 . S
Pr481 O511 2.437 . S
C482 Pr480 2.880 . S
C482 C483 1.491 . S
C482 O500 1.254 . S
C482 O501 1.225 . S
C483 C482 1.491 . S
C483 C484 1.392 . S
C483 C488 1.356 . S
C484 C483 1.392 . S
C484 C485 1.368 . S
C484 H512 0.929 . S
C485 C484 1.368 . S
C485 C486 1.386 . S
C485 H513 0.929 . S
C486 C485 1.386 . S
C486 C487 1.373 . S
C487 C486 1.373 . S
C487 C488 1.409 . S
C487 H514 0.931 . S
C488 C483 1.356 . S
C488 C487 1.409 . S
C488 H515 0.930 . S
C489 O502 1.270 . S
C489 O503 1.248 . S
C490 O504 1.267 . S
C490 O505 1.278 . S
C491 Pr481 2.880 . S
C491 C492 1.491 . S
C491 O506 1.254 . S
C491 O507 1.225 . S
C492 C491 1.491 . S
C492 C493 1.392 . S
C492 C497 1.356 . S
C493 C492 1.392 . S
C493 C494 1.368 . S
C493 H516 0.929 . S
C494 C493 1.368 . S
C494 C495 1.386 . S
C494 H517 0.929 . S
C495 C494 1.386 . S
C495 C496 1.373 . S
C496 C495 1.373 . S
C496 C497 1.409 . S
C496 H518 0.931 . S
C497 C492 1.356 . S
C497 C496 1.409 . S
C497 H519 0.930 . S
C498 O508 1.270 . S
C498 O509 1.248 . S
C499 O510 1.267 . S
C499 O511 1.278 . S
O500 Pr480 2.562 . S
O500 C482 1.254 . S
O501 Pr480 2.490 . S
O501 C482 1.225 . S
O502 Pr480 2.695 . S
O502 Pr481 2.436 . S
O502 C489 1.270 . S
O503 Pr480 2.512 . S
O503 C489 1.248 . S
O504 Pr481 2.438 . S
O504 C490 1.267 . S
O505 Pr480 2.437 . S
O505 C490 1.278 . S
O506 Pr481 2.562 . S
O506 C491 1.254 . S
O507 Pr481 2.490 . S
O507 C491 1.225 . S
O508 Pr480 2.436 . S
O508 Pr481 2.695 . S
O508 C498 1.270 . S
O509 Pr481 2.512 . S
O509 C498 1.248 . S
O510 Pr480 2.438 . S
O510 C499 1.267 . S
O511 Pr481 2.437 . S
O511 C499 1.278 . S
H512 C484 0.929 . S
H513 C485 0.929 . S
H514 C487 0.931 . S
H515 C488 0.930 . S
H516 C493 0.929 . S
H517 C494 0.929 . S
H518 C496 0.931 . S
H519 C497 0.930 . S
Pr520 C522 2.880 . S
Pr520 O540 2.562 . S
Pr520 O541 2.490 . S
Pr520 O542 2.695 . S
Pr520 O543 2.512 . S
Pr520 O545 2.437 . S
Pr520 O548 2.436 . S
Pr520 O550 2.438 . S
Pr521 C531 2.880 1_665 S
Pr521 O542 2.436 . S
Pr521 O544 2.438 . S
Pr521 O546 2.562 1_565 S
Pr521 O547 2.490 1_655 S
Pr521 O548 2.695 . S
Pr521 O549 2.512 . S
Pr521 O551 2.437 . S
C522 Pr520 2.880 . S
C522 C523 1.491 . S
C522 O540 1.254 . S
C522 O541 1.225 . S
C523 C522 1.491 . S
C523 C524 1.392 . S
C523 C528 1.356 . S
C524 C523 1.392 . S
C524 C525 1.368 . S
C524 H552 0.929 . S
C525 C524 1.368 . S
C525 C526 1.386 . S
C525 H553 0.929 . S
C526 C525 1.386 . S
C526 C527 1.373 . S
C527 C526 1.373 . S
C527 C528 1.409 . S
C527 H554 0.931 . S
C528 C523 1.356 . S
C528 C527 1.409 . S
C528 H555 0.930 . S
C529 O542 1.270 1_545 S
C529 O543 1.248 1_545 S
C530 O544 1.267 . S
C530 O545 1.278 . S
C531 Pr521 2.880 1_445 S
C531 C532 1.491 . S
C531 O546 1.254 1_455 S
C531 O547 1.225 1_545 S
C532 C531 1.491 . S
C532 C533 1.392 . S
C532 C537 1.356 . S
C533 C532 1.392 . S
C533 C534 1.368 . S
C533 H556 0.929 1_545 S
C534 C533 1.368 . S
C534 C535 1.386 . S
C534 H557 0.929 . S
C535 C534 1.386 . S
C535 C536 1.373 . S
C536 C535 1.373 . S
C536 C537 1.409 . S
C536 H558 0.931 . S
C537 C532 1.356 . S
C537 C536 1.409 . S
C537 H559 0.930 1_455 S
C538 O548 1.270 . S
C538 O549 1.248 . S
C539 O550 1.267 . S
C539 O551 1.278 . S
O540 Pr520 2.562 . S
O540 C522 1.254 . S
O541 Pr520 2.490 . S
O541 C522 1.225 . S
O542 Pr520 2.695 . S
O542 Pr521 2.436 . S
O542 C529 1.270 1_565 S
O543 Pr520 2.512 . S
O543 C529 1.248 1_565 S
O544 Pr521 2.438 . S
O544 C530 1.267 . S
O545 Pr520 2.437 . S
O545 C530 1.278 . S
O546 Pr521 2.562 1_545 S
O546 C531 1.254 1_655 S
O547 Pr521 2.490 1_455 S
O547 C531 1.225 1_565 S
O548 Pr520 2.436 . S
O548 Pr521 2.695 . S
O548 C538 1.270 . S
O549 Pr521 2.512 . S
O549 C538 1.248 . S
O550 Pr520 2.438 . S
O550 C539 1.267 . S
O551 Pr521 2.437 . S
O551 C539 1.278 . S
H552 C524 0.929 . S
H553 C525 0.929 . S
H554 C527 0.931 . S
H555 C528 0.930 . S
H556 C533 0.929 1_565 S
H557 C534 0.929 . S
H558 C536 0.931 . S
H559 C537 0.930 1_655 S
Pr560 C562 2.880 . S
Pr560 O580 2.562 . S
Pr560 O581 2.490 . S
Pr560 O582 2.695 . S
Pr560 O583 2.512 . S
Pr560 O585 2.437 . S
Pr560 O588 2.436 . S
Pr560 O590 2.438 . S
Pr561 C571 2.880 . S
Pr561 O582 2.436 . S
Pr561 O584 2.438 . S
Pr561 O586 2.562 . S
Pr561 O587 2.490 . S
Pr561 O588 2.695 . S
Pr561 O589 2.512 . S
Pr561 O591 2.437 . S
C562 Pr560 2.880 . S
C562 C563 1.491 . S
C562 O580 1.254 . S
C562 O581 1.225 . S
C563 C562 1.491 . S
C563 C564 1.392 . S
C563 C568 1.356 . S
C564 C563 1.392 . S
C564 C565 1.368 . S
C564 H592 0.929 . S
C565 C564 1.368 . S
C565 C566 1.386 . S
C565 H593 0.929 . S
C566 C565 1.386 . S
C566 C567 1.373 . S
C567 C566 1.373 . S
C567 C568 1.409 . S
C567 H594 0.931 1_556 S
C568 C563 1.356 . S
C568 C567 1.409 . S
C568 H595 0.930 . S
C569 O582 1.270 . S
C569 O583 1.248 . S
C570 O584 1.267 . S
C570 O585 1.278 . S
C571 Pr561 2.880 . S
C571 C572 1.491 . S
C571 O586 1.254 . S
C571 O587 1.225 . S
C572 C571 1.491 . S
C572 C573 1.392 . S
C572 C577 1.356 . S
C573 C572 1.392 . S
C573 C574 1.368 . S
C573 H596 0.929 . S
C574 C573 1.368 . S
C574 C575 1.386 . S
C574 H597 0.929 . S
C575 C574 1.386 . S
C575 C576 1.373 . S
C576 C575 1.373 . S
C576 C577 1.409 . S
C576 H598 0.931 . S
C577 C572 1.356 . S
C577 C576 1.409 . S
C577 H599 0.930 . S
C578 O588 1.270 . S
C578 O589 1.248 . S
C579 O590 1.267 . S
C579 O591 1.278 . S
O580 Pr560 2.562 . S
O580 C562 1.254 . S
O581 Pr560 2.490 . S
O581 C562 1.225 . S
O582 Pr560 2.695 . S
O582 Pr561 2.436 . S
O582 C569 1.270 . S
O583 Pr560 2.512 . S
O583 C569 1.248 . S
O584 Pr561 2.438 . S
O584 C570 1.267 . S
O585 Pr560 2.437 . S
O585 C570 1.278 . S
O586 Pr561 2.562 . S
O586 C571 1.254 . S
O587 Pr561 2.490 . S
O587 C571 1.225 . S
O588 Pr560 2.436 . S
O588 Pr561 2.695 . S
O588 C578 1.270 . S
O589 Pr561 2.512 . S
O589 C578 1.248 . S
O590 Pr560 2.438 . S
O590 C579 1.267 . S
O591 Pr561 2.437 . S
O591 C579 1.278 . S
H592 C564 0.929 . S
H593 C565 0.929 . S
H594 C567 0.931 1_554 S
H595 C568 0.930 . S
H596 C573 0.929 . S
H597 C574 0.929 . S
H598 C576 0.931 . S
H599 C577 0.930 . S
Pr600 C602 2.880 . S
Pr600 O620 2.562 . S
Pr600 O621 2.490 . S
Pr600 O622 2.695 . S
Pr600 O623 2.512 . S
Pr600 O625 2.437 . S
Pr600 O628 2.436 . S
Pr600 O630 2.438 . S
Pr601 C611 2.880 1_545 S
Pr601 O622 2.436 . S
Pr601 O624 2.438 . S
Pr601 O626 2.562 1_545 S
Pr601 O627 2.490 . S
Pr601 O628 2.695 . S
Pr601 O629 2.512 . S
Pr601 O631 2.437 . S
C602 Pr600 2.880 . S
C602 C603 1.491 . S
C602 O620 1.254 . S
C602 O621 1.225 . S
C603 C602 1.491 . S
C603 C604 1.392 . S
C603 C608 1.356 . S
C604 C603 1.392 . S
C604 C605 1.368 . S
C604 H632 0.929 . S
C605 C604 1.368 . S
C605 C606 1.386 . S
C605 H633 0.929 . S
C606 C605 1.386 . S
C606 C607 1.373 . S
C607 C606 1.373 . S
C607 C608 1.409 . S
C607 H634 0.931 . S
C608 C603 1.356 . S
C608 C607 1.409 . S
C608 H635 0.930 . S
C609 O622 1.270 1_565 S
C609 O623 1.248 1_565 S
C610 O624 1.267 . S
C610 O625 1.278 . S
C611 Pr601 2.880 1_565 S
C611 C612 1.491 . S
C611 O626 1.254 . S
C611 O627 1.225 1_565 S
C612 C611 1.491 . S
C612 C613 1.392 . S
C612 C617 1.356 . S
C613 C612 1.392 . S
C613 C614 1.368 . S
C613 H636 0.929 1_565 S
C614 C613 1.368 . S
C614 C615 1.386 . S
C614 H637 0.929 . S
C615 C614 1.386 . S
C615 C616 1.373 . S
C616 C615 1.373 . S
C616 C617 1.409 . S
C616 H638 0.931 . S
C617 C612 1.356 . S
C617 C616 1.409 . S
C617 H639 0.930 . S
C618 O628 1.270 . S
C618 O629 1.248 . S
C619 O630 1.267 . S
C619 O631 1.278 . S
O620 Pr600 2.562 . S
O620 C602 1.254 . S
O621 Pr600 2.490 . S
O621 C602 1.225 . S
O622 Pr600 2.695 . S
O622 Pr601 2.436 . S
O622 C609 1.270 1_545 S
O623 Pr600 2.512 . S
O623 C609 1.248 1_545 S
O624 Pr601 2.438 . S
O624 C610 1.267 . S
O625 Pr600 2.437 . S
O625 C610 1.278 . S
O626 Pr601 2.562 1_565 S
O626 C611 1.254 . S
O627 Pr601 2.490 . S
O627 C611 1.225 1_545 S
O628 Pr600 2.436 . S
O628 Pr601 2.695 . S
O628 C618 1.270 . S
O629 Pr601 2.512 . S
O629 C618 1.248 . S
O630 Pr600 2.438 . S
O630 C619 1.267 . S
O631 Pr601 2.437 . S
O631 C619 1.278 . S
H632 C604 0.929 . S
H633 C605 0.929 . S
H634 C607 0.931 . S
H635 C608 0.930 . S
H636 C613 0.929 1_545 S
H637 C614 0.929 . S
H638 C616 0.931 . S
H639 C617 0.930 . S
C640 C641 1.387 . S
C640 H644 0.950 . S
C640 C649 1.390 . S
C641 C640 1.387 . S
C641 C643 1.387 . S
H642 C649 0.950 . S
C643 C641 1.387 . S
C643 C645 1.390 . S
C643 H647 0.950 . S
H644 C640 0.950 . S
C645 C643 1.390 . S
C645 C646 1.387 . S
C645 H648 0.950 . S
C646 C645 1.387 . S
C646 C649 1.387 . S
H647 C643 0.950 . S
H648 C645 0.950 . S
C649 C640 1.390 . S
C649 H642 0.950 . S
C649 C646 1.387 . S
C650 C651 1.387 . S
C650 H654 0.950 . S
C650 C659 1.390 . S
C651 C650 1.387 . S
C651 C653 1.387 . S
H652 C659 0.950 . S
C653 C651 1.387 . S
C653 C655 1.390 . S
C653 H657 0.950 . S
H654 C650 0.950 . S
C655 C653 1.390 . S
C655 C656 1.387 . S
C655 H658 0.950 . S
C656 C655 1.387 . S
C656 C659 1.387 . S
H657 C653 0.950 . S
H658 C655 0.950 . S
C659 C650 1.390 . S
C659 H652 0.950 . S
C659 C656 1.387 . S
C660 C661 1.387 . S
C660 H664 0.950 . S
C660 C669 1.390 1_455 S
C661 C660 1.387 . S
C661 C663 1.387 . S
H662 C669 0.950 . S
C663 C661 1.387 . S
C663 C665 1.390 1_455 S
C663 H667 0.950 . S
H664 C660 0.950 . S
C665 C663 1.390 1_655 S
C665 C666 1.387 . S
C665 H668 0.950 . S
C666 C665 1.387 . S
C666 C669 1.387 . S
H667 C663 0.950 . S
H668 C665 0.950 . S
C669 C660 1.390 1_655 S
C669 H662 0.950 . S
C669 C666 1.387 . S
C670 C671 1.387 . S
C670 H674 0.950 . S
C670 C679 1.390 1_455 S
C671 C670 1.387 . S
C671 C673 1.387 . S
H672 C679 0.950 . S
C673 C671 1.387 . S
C673 C675 1.390 1_455 S
C673 H677 0.950 . S
H674 C670 0.950 . S
C675 C673 1.390 1_655 S
C675 C676 1.387 . S
C675 H678 0.950 . S
C676 C675 1.387 . S
C676 C679 1.387 . S
H677 C673 0.950 . S
H678 C675 0.950 . S
C679 C670 1.390 1_655 S
C679 H672 0.950 . S
C679 C676 1.387 . S
C680 C681 1.387 . S
C680 H684 0.950 . S
C680 C689 1.390 . S
C681 C680 1.387 . S
C681 C683 1.387 . S
H682 C689 0.950 . S
C683 C681 1.387 . S
C683 C685 1.390 . S
C683 H687 0.950 . S
H684 C680 0.950 . S
C685 C683 1.390 . S
C685 C686 1.387 . S
C685 H688 0.950 . S
C686 C685 1.387 . S
C686 C689 1.387 . S
H687 C683 0.950 . S
H688 C685 0.950 . S
C689 C680 1.390 . S
C689 H682 0.950 . S
C689 C686 1.387 . S
C690 C691 1.387 . S
C690 H694 0.950 . S
C690 C699 1.390 . S
C691 C690 1.387 . S
C691 C693 1.387 . S
H692 C699 0.950 . S
C693 C691 1.387 . S
C693 C695 1.390 . S
C693 H697 0.950 . S
H694 C690 0.950 . S
C695 C693 1.390 . S
C695 C696 1.387 . S
C695 H698 0.950 . S
C696 C695 1.387 . S
C696 C699 1.387 . S
H697 C693 0.950 . S
H698 C695 0.950 . S
C699 C690 1.390 . S
C699 H692 0.950 . S
C699 C696 1.387 . S
C700 C701 1.387 . S
C700 H704 0.950 . S
C700 C709 1.390 1_455 S
C701 C700 1.387 . S
C701 C703 1.387 . S
H702 C709 0.950 . S
C703 C701 1.387 . S
C703 C705 1.390 1_455 S
C703 H707 0.950 . S
H704 C700 0.950 . S
C705 C703 1.390 1_655 S
C705 C706 1.387 . S
C705 H708 0.950 . S
C706 C705 1.387 . S
C706 C709 1.387 . S
H707 C703 0.950 . S
H708 C705 0.950 . S
C709 C700 1.390 1_655 S
C709 H702 0.950 . S
C709 C706 1.387 . S
C710 C711 1.387 . S
C710 H714 0.950 . S
C710 C719 1.390 1_455 S
C711 C710 1.387 . S
C711 C713 1.387 . S
H712 C719 0.950 . S
C713 C711 1.387 . S
C713 C715 1.390 1_455 S
C713 H717 0.950 . S
H714 C710 0.950 . S
C715 C713 1.390 1_655 S
C715 C716 1.387 . S
C715 H718 0.950 . S
C716 C715 1.387 . S
C716 C719 1.387 . S
H717 C713 0.950 . S
H718 C715 0.950 . S
C719 C710 1.390 1_655 S
C719 H712 0.950 . S
C719 C716 1.387 . S
C720 C721 1.387 1_554 S
C720 H724 0.950 . S
C720 C729 1.390 1_565 S
C721 C720 1.387 1_556 S
C721 C723 1.387 . S
H722 C729 0.950 . S
C723 C721 1.387 . S
C723 C725 1.390 1_565 S
C723 H727 0.950 . S
H724 C720 0.950 . S
C725 C723 1.390 1_545 S
C725 C726 1.387 1_556 S
C725 H728 0.950 . S
C726 C725 1.387 1_554 S
C726 C729 1.387 . S
H727 C723 0.950 . S
H728 C725 0.950 . S
C729 C720 1.390 1_545 S
C729 H722 0.950 . S
C729 C726 1.387 . S
C730 C731 1.387 . S
C730 H734 0.950 . S
C730 C739 1.390 . S
C731 C730 1.387 . S
C731 C733 1.387 . S
H732 C739 0.950 . S
C733 C731 1.387 . S
C733 C735 1.390 . S
C733 H737 0.950 . S
H734 C730 0.950 . S
C735 C733 1.390 . S
C735 C736 1.387 . S
C735 H738 0.950 . S
C736 C735 1.387 . S
C736 C739 1.387 . S
H737 C733 0.950 . S
H738 C735 0.950 . S
C739 C730 1.390 . S
C739 H732 0.950 . S
C739 C736 1.387 . S
C740 C741 1.387 . S
C740 H744 0.950 . S
C740 C749 1.390 1_445 S
C741 C740 1.387 . S
C741 C743 1.387 . S
H742 C749 0.950 . S
C743 C741 1.387 . S
C743 C745 1.390 1_445 S
C743 H747 0.950 . S
H744 C740 0.950 . S
C745 C743 1.390 1_665 S
C745 C746 1.387 . S
C745 H748 0.950 . S
C746 C745 1.387 . S
C746 C749 1.387 . S
H747 C743 0.950 . S
H748 C745 0.950 . S
C749 C740 1.390 1_665 S
C749 H742 0.950 . S
C749 C746 1.387 . S
C750 C751 1.387 . S
C750 H754 0.950 . S
C750 C759 1.390 . S
C751 C750 1.387 . S
C751 C753 1.387 . S
H752 C759 0.950 . S
C753 C751 1.387 . S
C753 C755 1.390 . S
C753 H757 0.950 . S
H754 C750 0.950 . S
C755 C753 1.390 . S
C755 C756 1.387 . S
C755 H758 0.950 . S
C756 C755 1.387 . S
C756 C759 1.387 . S
H757 C753 0.950 . S
H758 C755 0.950 . S
C759 C750 1.390 . S
C759 H752 0.950 . S
C759 C756 1.387 . S
C760 C761 1.387 . S
C760 H764 0.950 . S
C760 C769 1.390 . S
C761 C760 1.387 . S
C761 C763 1.387 . S
H762 C769 0.950 . S
C763 C761 1.387 . S
C763 C765 1.390 . S
C763 H767 0.950 . S
H764 C760 0.950 . S
C765 C763 1.390 . S
C765 C766 1.387 . S
C765 H768 0.950 . S
C766 C765 1.387 . S
C766 C769 1.387 . S
H767 C763 0.950 . S
H768 C765 0.950 . S
C769 C760 1.390 . S
C769 H762 0.950 . S
C769 C766 1.387 . S
C770 C771 1.387 . S
C770 H774 0.950 . S
C770 C779 1.390 . S
C771 C770 1.387 . S
C771 C773 1.387 . S
H772 C779 0.950 . S
C773 C771 1.387 . S
C773 C775 1.390 . S
C773 H777 0.950 . S
H774 C770 0.950 . S
C775 C773 1.390 . S
C775 C776 1.387 . S
C775 H778 0.950 . S
C776 C775 1.387 . S
C776 C779 1.387 . S
H777 C773 0.950 . S
H778 C775 0.950 . S
C779 C770 1.390 . S
C779 H772 0.950 . S
C779 C776 1.387 . S
C780 C781 1.387 . S
C780 H784 0.950 . S
C780 C789 1.390 1_455 S
C781 C780 1.387 . S
C781 C783 1.387 . S
H782 C789 0.950 . S
C783 C781 1.387 . S
C783 C785 1.390 1_455 S
C783 H787 0.950 . S
H784 C780 0.950 . S
C785 C783 1.390 1_655 S
C785 C786 1.387 . S
C785 H788 0.950 . S
C786 C785 1.387 . S
C786 C789 1.387 . S
H787 C783 0.950 . S
H788 C785 0.950 . S
C789 C780 1.390 1_655 S
C789 H782 0.950 . S
C789 C786 1.387 . S
C790 C791 1.387 1_554 S
C790 H794 0.950 . S
C790 C799 1.390 . S
C791 C790 1.387 1_556 S
C791 C793 1.387 . S
H792 C799 0.950 . S
C793 C791 1.387 . S
C793 C795 1.390 . S
C793 H797 0.950 . S
H794 C790 0.950 . S
C795 C793 1.390 . S
C795 C796 1.387 1_556 S
C795 H798 0.950 . S
C796 C795 1.387 1_554 S
C796 C799 1.387 . S
H797 C793 0.950 . S
H798 C795 0.950 . S
C799 C790 1.390 . S
C799 H792 0.950 . S
C799 C796 1.387 . S
C800 C801 1.387 . S
C800 H804 0.950 . S
C800 C809 1.390 . S
C801 C800 1.387 . S
C801 C803 1.387 . S
H802 C809 0.950 . S
C803 C801 1.387 . S
C803 C805 1.390 . S
C803 H807 0.950 . S
H804 C800 0.950 . S
C805 C803 1.390 . S
C805 C806 1.387 . S
C805 H808 0.950 . S
C806 C805 1.387 . S
C806 C809 1.387 . S
H807 C803 0.950 . S
H808 C805 0.950 . S
C809 C800 1.390 . S
C809 H802 0.950 . S
C809 C806 1.387 . S
C810 C811 1.387 . S
C810 H814 0.950 . S
C810 C819 1.390 . S
C811 C810 1.387 . S
C811 C813 1.387 . S
H812 C819 0.950 . S
C813 C811 1.387 . S
C813 C815 1.390 . S
C813 H817 0.950 . S
H814 C810 0.950 . S
C815 C813 1.390 . S
C815 C816 1.387 . S
C815 H818 0.950 . S
C816 C815 1.387 . S
C816 C819 1.387 . S
H817 C813 0.950 . S
H818 C815 0.950 . S
C819 C810 1.390 . S
C819 H812 0.950 . S
C819 C816 1.387 . S
C820 C821 1.387 . S
C820 H824 0.950 . S
C820 C829 1.390 . S
C821 C820 1.387 . S
C821 C823 1.387 . S
H822 C829 0.950 . S
C823 C821 1.387 . S
C823 C825 1.390 . S
C823 H827 0.950 . S
H824 C820 0.950 . S
C825 C823 1.390 . S
C825 C826 1.387 . S
C825 H828 0.950 . S
C826 C825 1.387 . S
C826 C829 1.387 . S
H827 C823 0.950 . S
H828 C825 0.950 . S
C829 C820 1.390 . S
C829 H822 0.950 . S
C829 C826 1.387 . S
C830 C831 1.387 . S
C830 H834 0.950 . S
C830 C839 1.390 . S
C831 C830 1.387 . S
C831 C833 1.387 . S
H832 C839 0.950 . S
C833 C831 1.387 . S
C833 C835 1.390 . S
C833 H837 0.950 . S
H834 C830 0.950 . S
C835 C833 1.390 . S
C835 C836 1.387 . S
C835 H838 0.950 . S
C836 C835 1.387 . S
C836 C839 1.387 . S
H837 C833 0.950 . S
H838 C835 0.950 . S
C839 C830 1.390 . S
C839 H832 0.950 . S
C839 C836 1.387 . S
C840 C841 1.387 . S
C840 H844 0.950 . S
C840 C849 1.390 . S
C841 C840 1.387 . S
C841 C843 1.387 . S
H842 C849 0.950 . S
C843 C841 1.387 . S
C843 C845 1.390 . S
C843 H847 0.950 . S
H844 C840 0.950 . S
C845 C843 1.390 . S
C845 C846 1.387 . S
C845 H848 0.950 . S
C846 C845 1.387 . S
C846 C849 1.387 . S
H847 C843 0.950 . S
H848 C845 0.950 . S
C849 C840 1.390 . S
C849 H842 0.950 . S
C849 C846 1.387 . S
C850 C851 1.387 . S
C850 H854 0.950 . S
C850 C859 1.390 . S
C851 C850 1.387 . S
C851 C853 1.387 . S
H852 C859 0.950 . S
C853 C851 1.387 . S
C853 C855 1.390 . S
C853 H857 0.950 . S
H854 C850 0.950 . S
C855 C853 1.390 . S
C855 C856 1.387 . S
C855 H858 0.950 . S
C856 C855 1.387 . S
C856 C859 1.387 . S
H857 C853 0.950 . S
H858 C855 0.950 . S
C859 C850 1.390 . S
C859 H852 0.950 . S
C859 C856 1.387 . S
C860 C861 1.387 . S
C860 H864 0.950 . S
C860 C869 1.390 . S
C861 C860 1.387 . S
C861 C863 1.387 . S
H862 C869 0.950 . S
C863 C861 1.387 . S
C863 C865 1.390 . S
C863 H867 0.950 . S
H864 C860 0.950 . S
C865 C863 1.390 . S
C865 C866 1.387 . S
C865 H868 0.950 . S
C866 C865 1.387 . S
C866 C869 1.387 . S
H867 C863 0.950 . S
H868 C865 0.950 . S
C869 C860 1.390 . S
C869 H862 0.950 . S
C869 C866 1.387 . S
C870 C871 1.387 . S
C870 H874 0.950 . S
C870 C879 1.390 . S
C871 C870 1.387 . S
C871 C873 1.387 . S
H872 C879 0.950 . S
C873 C871 1.387 . S
C873 C875 1.390 . S
C873 H877 0.950 . S
H874 C870 0.950 . S
C875 C873 1.390 . S
C875 C876 1.387 . S
C875 H878 0.950 . S
C876 C875 1.387 . S
C876 C879 1.387 . S
H877 C873 0.950 . S
H878 C875 0.950 . S
C879 C870 1.390 . S
C879 H872 0.950 . S
C879 C876 1.387 . S
C880 C881 1.387 . S
C880 H884 0.950 . S
C880 C889 1.390 . S
C881 C880 1.387 . S
C881 C883 1.387 . S
H882 C889 0.950 . S
C883 C881 1.387 . S
C883 C885 1.390 . S
C883 H887 0.950 . S
H884 C880 0.950 . S
C885 C883 1.390 . S
C885 C886 1.387 . S
C885 H888 0.950 . S
C886 C885 1.387 . S
C886 C889 1.387 . S
H887 C883 0.950 . S
H888 C885 0.950 . S
C889 C880 1.390 . S
C889 H882 0.950 . S
C889 C886 1.387 . S
C890 C891 1.387 . S
C890 H894 0.950 . S
C890 C899 1.390 . S
C891 C890 1.387 . S
C891 C893 1.387 . S
H892 C899 0.950 . S
C893 C891 1.387 . S
C893 C895 1.390 . S
C893 H897 0.950 . S
H894 C890 0.950 . S
C895 C893 1.390 . S
C895 C896 1.387 . S
C895 H898 0.950 . S
C896 C895 1.387 . S
C896 C899 1.387 . S
H897 C893 0.950 . S
H898 C895 0.950 . S
C899 C890 1.390 . S
C899 H892 0.950 . S
C899 C896 1.387 . S
C900 C901 1.387 . S
C900 H904 0.950 . S
C900 C909 1.390 . S
C901 C900 1.387 . S
C901 C903 1.387 . S
H902 C909 0.950 . S
C903 C901 1.387 . S
C903 C905 1.390 . S
C903 H907 0.950 . S
H904 C900 0.950 . S
C905 C903 1.390 . S
C905 C906 1.387 . S
C905 H908 0.950 . S
C906 C905 1.387 . S
C906 C909 1.387 . S
H907 C903 0.950 . S
H908 C905 0.950 . S
C909 C900 1.390 . S
C909 H902 0.950 . S
C909 C906 1.387 . S
C910 C911 1.387 . S
C910 H914 0.950 . S
C910 C919 1.390 . S
C911 C910 1.387 . S
C911 C913 1.387 . S
H912 C919 0.950 . S
C913 C911 1.387 . S
C913 C915 1.390 . S
C913 H917 0.950 . S
H914 C910 0.950 . S
C915 C913 1.390 . S
C915 C916 1.387 . S
C915 H918 0.950 . S
C916 C915 1.387 . S
C916 C919 1.387 . S
H917 C913 0.950 . S
H918 C915 0.950 . S
C919 C910 1.390 . S
C919 H912 0.950 . S
C919 C916 1.387 . S
C920 C921 1.387 . S
C920 H924 0.950 . S
C920 C929 1.390 . S
C921 C920 1.387 . S
C921 C923 1.387 . S
H922 C929 0.950 . S
C923 C921 1.387 . S
C923 C925 1.390 . S
C923 H927 0.950 . S
H924 C920 0.950 . S
C925 C923 1.390 . S
C925 C926 1.387 . S
C925 H928 0.950 . S
C926 C925 1.387 . S
C926 C929 1.387 . S
H927 C923 0.950 . S
H928 C925 0.950 . S
C929 C920 1.390 . S
C929 H922 0.950 . S
C929 C926 1.387 . S
C930 C931 1.387 . S
C930 H934 0.950 . S
C930 C939 1.390 . S
C931 C930 1.387 . S
C931 C933 1.387 . S
H932 C939 0.950 . S
C933 C931 1.387 . S
C933 C935 1.390 . S
C933 H937 0.950 . S
H934 C930 0.950 . S
C935 C933 1.390 . S
C935 C936 1.387 . S
C935 H938 0.950 . S
C936 C935 1.387 . S
C936 C939 1.387 . S
H937 C933 0.950 . S
H938 C935 0.950 . S
C939 C930 1.390 . S
C939 H932 0.950 . S
C939 C936 1.387 . S
C940 C941 1.387 . S
C940 H944 0.950 . S
C940 C949 1.390 . S
C941 C940 1.387 . S
C941 C943 1.387 . S
H942 C949 0.950 . S
C943 C941 1.387 . S
C943 C945 1.390 . S
C943 H947 0.950 . S
H944 C940 0.950 . S
C945 C943 1.390 . S
C945 C946 1.387 . S
C945 H948 0.950 . S
C946 C945 1.387 . S
C946 C949 1.387 . S
H947 C943 0.950 . S
H948 C945 0.950 . S
C949 C940 1.390 . S
C949 H942 0.950 . S
C949 C946 1.387 . S
C950 C951 1.387 . S
C950 H954 0.950 . S
C950 C959 1.390 . S
C951 C950 1.387 . S
C951 C953 1.387 . S
H952 C959 0.950 . S
C953 C951 1.387 . S
C953 C955 1.390 . S
C953 H957 0.950 . S
H954 C950 0.950 . S
C955 C953 1.390 . S
C955 C956 1.387 . S
C955 H958 0.950 . S
C956 C955 1.387 . S
C956 C959 1.387 . S
H957 C953 0.950 . S
H958 C955 0.950 . S
C959 C950 1.390 . S
C959 H952 0.950 . S
C959 C956 1.387 . S
C960 C961 1.387 . S
C960 H964 0.950 1_556 S
C960 C969 1.390 . S
C961 C960 1.387 . S
C961 C963 1.387 . S
H962 C969 0.950 . S
C963 C961 1.387 . S
C963 C965 1.390 . S
C963 H967 0.950 . S
H964 C960 0.950 1_554 S
C965 C963 1.390 . S
C965 C966 1.387 . S
C965 H968 0.950 . S
C966 C965 1.387 . S
C966 C969 1.387 . S
H967 C963 0.950 . S
H968 C965 0.950 . S
C969 C960 1.390 . S
C969 H962 0.950 . S
C969 C966 1.387 . S
C970 C971 1.387 . S
C970 H974 0.950 . S
C970 C979 1.390 . S
C971 C970 1.387 . S
C971 C973 1.387 . S
H972 C979 0.950 . S
C973 C971 1.387 . S
C973 C975 1.390 . S
C973 H977 0.950 . S
H974 C970 0.950 . S
C975 C973 1.390 . S
C975 C976 1.387 . S
C975 H978 0.950 . S
C976 C975 1.387 . S
C976 C979 1.387 . S
H977 C973 0.950 . S
H978 C975 0.950 . S
C979 C970 1.390 . S
C979 H972 0.950 . S
C979 C976 1.387 . S
C980 C981 1.387 . S
C980 H984 0.950 . S
C980 C989 1.390 . S
C981 C980 1.387 . S
C981 C983 1.387 . S
H982 C989 0.950 . S
C983 C981 1.387 . S
C983 C985 1.390 . S
C983 H987 0.950 . S
H984 C980 0.950 . S
C985 C983 1.390 . S
C985 C986 1.387 . S
C985 H988 0.950 . S
C986 C985 1.387 . S
C986 C989 1.387 . S
H987 C983 0.950 . S
H988 C985 0.950 . S
C989 C980 1.390 . S
C989 H982 0.950 . S
C989 C986 1.387 . S
C990 C991 1.387 . S
C990 H994 0.950 . S
C990 C999 1.390 . S
C991 C990 1.387 . S
C991 C993 1.387 . S
H992 C999 0.950 . S
C993 C991 1.387 . S
C993 C995 1.390 . S
C993 H997 0.950 . S
H994 C990 0.950 . S
C995 C993 1.390 . S
C995 C996 1.387 . S
C995 H998 0.950 . S
C996 C995 1.387 . S
C996 C999 1.387 . S
H997 C993 0.950 . S
H998 C995 0.950 . S
C999 C990 1.390 . S
C999 H992 0.950 . S
C999 C996 1.387 . S
C1000 C1001 1.387 . S
C1000 H1004 0.950 . S
C1000 C1009 1.390 . S
C1001 C1000 1.387 . S
C1001 C1003 1.387 . S
H1002 C1009 0.950 . S
C1003 C1001 1.387 . S
C1003 C1005 1.390 . S
C1003 H1007 0.950 . S
H1004 C1000 0.950 . S
C1005 C1003 1.390 . S
C1005 C1006 1.387 . S
C1005 H1008 0.950 . S
C1006 C1005 1.387 . S
C1006 C1009 1.387 . S
H1007 C1003 0.950 . S
H1008 C1005 0.950 . S
C1009 C1000 1.390 . S
C1009 H1002 0.950 . S
C1009 C1006 1.387 . S
C1010 C1011 1.387 . S
C1010 H1014 0.950 . S
C1010 C1019 1.390 . S
C1011 C1010 1.387 . S
C1011 C1013 1.387 . S
H1012 C1019 0.950 . S
C1013 C1011 1.387 . S
C1013 C1015 1.390 . S
C1013 H1017 0.950 . S
H1014 C1010 0.950 . S
C1015 C1013 1.390 . S
C1015 C1016 1.387 . S
C1015 H1018 0.950 . S
C1016 C1015 1.387 . S
C1016 C1019 1.387 . S
H1017 C1013 0.950 . S
H1018 C1015 0.950 . S
C1019 C1010 1.390 . S
C1019 H1012 0.950 . S
C1019 C1016 1.387 . S
C1020 C1021 1.387 . S
C1020 H1024 0.950 . S
C1020 C1029 1.390 . S
C1021 C1020 1.387 . S
C1021 C1023 1.387 . S
H1022 C1029 0.950 . S
C1023 C1021 1.387 . S
C1023 C1025 1.390 . S
C1023 H1027 0.950 . S
H1024 C1020 0.950 . S
C1025 C1023 1.390 . S
C1025 C1026 1.387 . S
C1025 H1028 0.950 . S
C1026 C1025 1.387 . S
C1026 C1029 1.387 . S
H1027 C1023 0.950 . S
H1028 C1025 0.950 . S
C1029 C1020 1.390 . S
C1029 H1022 0.950 . S
C1029 C1026 1.387 . S
C1030 C1031 1.387 . S
C1030 H1034 0.950 . S
C1030 C1039 1.390 . S
C1031 C1030 1.387 . S
C1031 C1033 1.387 . S
H1032 C1039 0.950 . S
C1033 C1031 1.387 . S
C1033 C1035 1.390 . S
C1033 H1037 0.950 . S
H1034 C1030 0.950 . S
C1035 C1033 1.390 . S
C1035 C1036 1.387 . S
C1035 H1038 0.950 . S
C1036 C1035 1.387 . S
C1036 C1039 1.387 . S
H1037 C1033 0.950 . S
H1038 C1035 0.950 . S
C1039 C1030 1.390 . S
C1039 H1032 0.950 . S
C1039 C1036 1.387 . S
C1040 C1041 1.387 . S
C1040 H1044 0.950 . S
C1040 C1049 1.390 . S
C1041 C1040 1.387 . S
C1041 C1043 1.387 . S
H1042 C1049 0.950 . S
C1043 C1041 1.387 . S
C1043 C1045 1.390 . S
C1043 H1047 0.950 . S
H1044 C1040 0.950 . S
C1045 C1043 1.390 . S
C1045 C1046 1.387 . S
C1045 H1048 0.950 . S
C1046 C1045 1.387 . S
C1046 C1049 1.387 . S
H1047 C1043 0.950 . S
H1048 C1045 0.950 . S
C1049 C1040 1.390 . S
C1049 H1042 0.950 . S
C1049 C1046 1.387 . S
C1050 C1051 1.387 . S
C1050 H1054 0.950 . S
C1050 C1059 1.390 . S
C1051 C1050 1.387 . S
C1051 C1053 1.387 . S
H1052 C1059 0.966 . S
C1053 C1051 1.387 . S
C1053 C1055 1.390 . S
C1053 H1057 0.950 . S
H1054 C1050 0.950 . S
C1055 C1053 1.390 . S
C1055 C1056 1.387 . S
C1055 H1058 0.950 . S
C1056 C1055 1.387 . S
C1056 C1059 1.387 . S
H1057 C1053 0.950 . S
H1058 C1055 0.950 . S
C1059 C1050 1.390 . S
C1059 H1052 0.966 . S
C1059 C1056 1.387 . S
C1060 C1061 1.387 . S
C1060 H1064 0.950 . S
C1060 C1069 1.390 . S
C1061 C1060 1.387 . S
C1061 C1063 1.387 . S
H1062 C1069 0.937 1_554 S
C1063 C1061 1.387 . S
C1063 C1065 1.390 . S
C1063 H1067 0.950 . S
H1064 C1060 0.950 . S
C1065 C1063 1.390 . S
C1065 C1066 1.387 . S
C1065 H1068 0.950 . S
C1066 C1065 1.387 . S
C1066 C1069 1.387 . S
H1067 C1063 0.950 . S
H1068 C1065 0.950 . S
C1069 C1060 1.390 . S
C1069 H1062 0.937 1_556 S
C1069 C1066 1.387 . S
C1070 C1071 1.387 . S
C1070 H1074 0.950 . S
C1070 C1079 1.390 . S
C1071 C1070 1.387 . S
C1071 C1073 1.387 . S
H1072 C1079 0.950 . S
C1073 C1071 1.387 . S
C1073 C1075 1.390 . S
C1073 H1077 0.941 1_545 S
H1074 C1070 0.950 . S
C1075 C1073 1.390 . S
C1075 C1076 1.387 . S
C1075 H1078 0.950 . S
C1076 C1075 1.387 . S
C1076 C1079 1.387 . S
H1077 C1073 0.941 1_565 S
H1078 C1075 0.950 . S
C1079 C1070 1.390 . S
C1079 H1072 0.950 . S
C1079 C1076 1.387 . S
C1080 C1081 1.387 . S
C1080 H1084 0.950 . S
C1080 C1089 1.390 . S
C1081 C1080 1.387 . S
C1081 C1083 1.387 . S
H1082 C1089 0.950 . S
C1083 C1081 1.387 . S
C1083 C1085 1.390 . S
C1083 H1087 0.950 . S
H1084 C1080 0.950 . S
C1085 C1083 1.390 . S
C1085 C1086 1.387 . S
C1085 H1088 0.950 . S
C1086 C1085 1.387 . S
C1086 C1089 1.387 . S
H1087 C1083 0.950 . S
H1088 C1085 0.950 . S
C1089 C1080 1.390 . S
C1089 H1082 0.950 . S
C1089 C1086 1.387 . S
C1090 C1091 1.387 . S
C1090 H1094 0.950 . S
C1090 C1099 1.390 . S
C1091 C1090 1.387 . S
C1091 C1093 1.387 . S
H1092 C1099 0.950 1_565 S
C1093 C1091 1.387 . S
C1093 C1095 1.390 . S
C1093 H1097 0.950 . S
H1094 C1090 0.950 . S
C1095 C1093 1.390 . S
C1095 C1096 1.387 . S
C1095 H1098 0.950 . S
C1096 C1095 1.387 . S
C1096 C1099 1.387 . S
H1097 C1093 0.950 . S
H1098 C1095 0.950 . S
C1099 C1090 1.390 . S
C1099 H1092 0.950 1_545 S
C1099 C1096 1.387 . S
C1100 C1101 1.387 . S
C1100 H1104 0.950 . S
C1100 C1109 1.390 . S
C1101 C1100 1.387 . S
C1101 C1103 1.387 . S
H1102 C1109 0.950 . S
C1103 C1101 1.387 . S
C1103 C1105 1.390 . S
C1103 H1107 0.950 . S
H1104 C1100 0.950 . S
C1105 C1103 1.390 . S
C1105 C1106 1.387 . S
C1105 H1108 0.950 1_554 S
C1106 C1105 1.387 . S
C1106 C1109 1.387 . S
H1107 C1103 0.950 . S
H1108 C1105 0.950 1_556 S
C1109 C1100 1.390 . S
C1109 H1102 0.950 . S
C1109 C1106 1.387 . S
C1110 C1111 1.387 . S
C1110 H1114 0.950 . S
C1110 C1119 1.390 . S
C1111 C1110 1.387 . S
C1111 C1113 1.387 . S
H1112 C1119 0.950 1_545 S
C1113 C1111 1.387 . S
C1113 C1115 1.390 . S
C1113 H1117 0.950 . S
H1114 C1110 0.950 . S
C1115 C1113 1.390 . S
C1115 C1116 1.387 . S
C1115 H1118 0.950 . S
C1116 C1115 1.387 . S
C1116 C1119 1.387 . S
H1117 C1113 0.950 . S
H1118 C1115 0.950 . S
C1119 C1110 1.390 . S
C1119 H1112 0.950 1_565 S
C1119 C1116 1.387 . S
C641 C9 3.013 . S
C646 C409 3.013 . S
C651 C49 3.013 . S
C656 C449 3.013 . S
C661 C89 3.012 . S
C666 C329 3.012 . S
C671 C369 3.013 . S
C676 C129 3.013 . S
C681 C178 3.012 . S
C686 C578 3.012 . S
C691 C618 3.013 . S
C696 C218 3.013 . S
C701 C498 3.012 . S
C706 C258 3.012 . S
C711 C298 3.012 . S
C716 C538 3.012 . S
C721 C15 1.467 1_556 S
C726 C166 1.467 1_554 S
C731 C55 1.472 . S
C736 C526 1.472 . S
C741 C95 1.467 . S
C746 C246 1.467 . S
C751 C135 1.468 . S
C756 C606 1.468 . S
C761 C206 1.472 . S
C766 C375 1.472 . S
C771 C455 1.467 . S
C776 C286 1.467 . S
C781 C486 1.469 . S
C786 C335 1.469 . S
C791 C415 1.467 1_556 S
C796 C566 1.467 1_554 S
C801 C6 1.624 . S
C806 C289 1.914 . S
C811 C46 1.626 . S
C816 C489 1.916 . S
C821 C86 1.623 . S
C826 C209 1.915 . S
C831 C126 1.626 . S
C836 C569 1.916 . S
C841 C138 1.916 . S
C846 C175 1.625 . S
C851 C215 1.622 . S
C856 C338 1.913 . S
C861 C255 1.624 . S
C866 C58 1.916 . S
C871 C418 1.913 . S
C876 C295 1.621 . S
C881 C326 1.621 . S
C886 C609 1.914 . S
C891 C169 1.916 . S
C896 C366 1.625 . S
C901 C529 1.916 . S
C906 C406 1.624 . S
C911 C249 1.916 . S
C916 C446 1.626 . S
C921 C495 1.621 . S
C926 C458 1.913 . S
C931 C535 1.621 . S
C936 C18 1.913 . S
C941 C378 1.915 . S
C946 C575 1.626 . S
C951 C615 1.626 . S
C956 C98 1.916 . S
C961 C19 4.050 1_556 S
C966 C370 4.084 . S
C971 C410 4.084 . S
C976 C59 4.050 . S
C981 C99 4.049 . S
C986 C450 4.083 . S
C991 C330 4.083 . S
C996 C139 4.050 . S
C1001 C539 4.085 . S
C1006 C170 4.051 1_554 S
C1011 C579 4.084 . S
C1016 C210 4.050 . S
C1021 C619 4.084 . S
C1026 C250 4.051 . S
C1031 C499 4.084 . S
C1036 C290 4.050 . S
C1041 C50 4.083 . S
C1046 C339 4.049 . S
C1051 C90 4.083 . S
C1056 C379 4.049 1_565 S
C1061 C130 4.084 . S
C1066 C419 4.050 1_556 S
C1071 C459 4.050 1_545 S
C1076 C10 4.084 . S
C1081 C219 4.084 . S
C1086 C490 4.050 . S
C1091 C259 4.083 . S
C1096 C530 4.049 1_545 S
C1101 C299 4.084 . S
C1106 C570 4.050 1_554 S
C1111 C179 4.083 . S
C1116 C610 4.049 1_565 S
