# Generated by pormake.
# Topology uon, (4)-cn, num edge types: 1
# Building blocks:
#     Node 0, Type 0, BuildingBlock: ICAMEG_clean_sbu_1, # of connection points: 4
#     Node 1, Type 0, BuildingBlock: ICAMEG_clean_sbu_1, # of connection points: 4
#     Node 2, Type 0, BuildingBlock: ICAMEG_clean_sbu_1, # of connection points: 4
#     Node 3, Type 0, BuildingBlock: ICAMEG_clean_sbu_1, # of connection points: 4
#     Node 4, Type 0, BuildingBlock: ICAMEG_clean_sbu_1, # of connection points: 4
#     Node 5, Type 0, BuildingBlock: ICAMEG_clean_sbu_1, # of connection points: 4
#     Edge 6, Type (0, 0), BuildingBlock: MIFKUJ_clean_linker_0, # of connection points: 2
#     Edge 7, Type (0, 0), BuildingBlock: MIFKUJ_clean_linker_0, # of connection points: 2
#     Edge 8, Type (0, 0), BuildingBlock: MIFKUJ_clean_linker_0, # of connection points: 2
#     Edge 9, Type (0, 0), BuildingBlock: MIFKUJ_clean_linker_0, # of connection points: 2
#     Edge 10, Type (0, 0), BuildingBlock: MIFKUJ_clean_linker_0, # of connection points: 2
#     Edge 11, Type (0, 0), BuildingBlock: MIFKUJ_clean_linker_0, # of connection points: 2
#     Edge 12, Type (0, 0), BuildingBlock: MIFKUJ_clean_linker_0, # of connection points: 2
#     Edge 13, Type (0, 0), BuildingBlock: MIFKUJ_clean_linker_0, # of connection points: 2
#     Edge 14, Type (0, 0), BuildingBlock: MIFKUJ_clean_linker_0, # of connection points: 2
#     Edge 15, Type (0, 0), BuildingBlock: MIFKUJ_clean_linker_0, # of connection points: 2
#     Edge 16, Type (0, 0), BuildingBlock: MIFKUJ_clean_linker_0, # of connection points: 2
#     Edge 17, Type (0, 0), BuildingBlock: MIFKUJ_clean_linker_0, # of connection points: 2
# Relax obj value: 0.158
# Max RMSD: 0.296
# Mean RMSD: 0.272
data_MOF--net-uon--node1-ICAMEG_clean_sbu_1--edge1-MIFKUJ_clean_linker_0
_symmetry_space_group_name_H-M    P1
_symmetry_Int_Tables_number       1
_symmetry_cell_setting            triclinic
loop_
_symmetry_equiv_pos_as_xyz
'x, y, z'
_cell_length_a     47.163941
_cell_length_b     47.107691
_cell_length_c     21.939694
_cell_angle_alpha  89.52853
_cell_angle_beta   90.441822
_cell_angle_gamma 120.03667
loop_
_atom_site_label
_atom_site_type_symbol
_atom_site_fract_x
_atom_site_fract_y
_atom_site_fract_z
_atom_type_partial_charge
Co0 Co 0.19275 0.42078 0.99725 0.0
Co1 Co 0.2381 0.42676 0.12595 0.0
O2 O 0.22877 0.41971 0.03924 0.0
C3 C 0.25338 0.47481 0.94838 0.0
O4 O 0.26269 0.47969 0.00554 0.0
C5 C 0.22625 0.36034 0.10151 0.0
O6 O 0.19864 0.35449 0.07584 0.0
O7 O 0.19122 0.39809 0.1456 0.0
O8 O 0.16098 0.39159 0.06129 0.0
H9 H 0.21916 0.44977 0.3404 0.0
H10 H 0.23603 0.40345 0.92932 0.0
O11 O 0.22486 0.45144 0.93419 0.0
H12 H 0.12535 0.30669 0.91384 0.0
H13 H 0.12992 0.42019 0.81049 0.0
H14 H 0.13525 0.42608 0.03493 0.0
H15 H 0.13437 0.35614 0.96849 0.0
H16 H 0.17462 0.41842 0.8665 0.0
O17 O 0.24478 0.38789 0.12694 0.0
H18 H 0.20883 0.44285 0.22967 0.0
H19 H 0.28648 0.42271 0.20846 0.0
H20 H 0.09001 0.42768 0.98088 0.0
H21 H 0.22813 0.35458 0.87403 0.0
H22 H 0.08716 0.42472 0.86782 0.0
H23 H 0.17247 0.30572 0.86619 0.0
O24 O 0.19947 0.45949 0.04379 0.0
H25 H 0.34333 0.45764 0.01782 0.0
H26 H 0.28966 0.49308 0.16674 0.0
H27 H 0.34776 0.53004 0.1412 0.0
H28 H 0.37499 0.51233 0.06634 0.0
H29 H 0.28517 0.42168 0.04399 0.0
H30 H 0.29762 0.42932 0.3191 0.0
H31 H 0.26389 0.44304 0.3858 0.0
O32 O 0.23159 0.46574 0.12484 0.0
C33 C 0.16382 0.38625 0.11773 0.0
C34 C 0.23415 0.44396 0.31179 0.0
C35 C 0.27815 0.43242 0.29983 0.0
N36 N 0.24728 0.43275 0.21262 0.0
C37 C 0.22849 0.44012 0.24903 0.0
C38 C 0.27172 0.42868 0.23726 0.0
C39 C 0.25921 0.44013 0.33723 0.0
C40 C 0.2117 0.38239 0.92555 0.0
N41 N 0.18565 0.38269 0.95167 0.0
C42 C 0.20739 0.35475 0.89442 0.0
C43 C 0.17616 0.32733 0.89011 0.0
C44 C 0.14971 0.32784 0.91686 0.0
C45 C 0.15496 0.35589 0.94777 0.0
C46 C 0.13086 0.42142 0.85976 0.0
C47 C 0.13403 0.42454 0.98576 0.0
C48 C 0.15612 0.42048 0.89167 0.0
N49 N 0.15733 0.42184 0.95389 0.0
C50 C 0.10843 0.42557 0.95539 0.0
C51 C 0.10686 0.42395 0.89196 0.0
C52 C 0.21507 0.47468 0.09148 0.0
C53 C 0.33178 0.46558 0.05069 0.0
C54 C 0.30132 0.48526 0.13398 0.0
C55 C 0.33424 0.50625 0.11981 0.0
C56 C 0.34951 0.49628 0.07785 0.0
N57 N 0.28409 0.45518 0.10716 0.0
C58 C 0.29888 0.44526 0.0659 0.0
Co59 Co 0.80622 0.25484 0.58328 0.0
Co60 Co 0.87596 0.27543 0.66775 0.0
O61 O 0.85243 0.28263 0.60172 0.0
C62 C 0.81524 0.32001 0.61016 0.0
O63 O 0.83375 0.32092 0.6559 0.0
C64 C 0.90495 0.27083 0.55346 0.0
O65 O 0.87461 0.25121 0.53635 0.0
O66 O 0.85333 0.22738 0.65242 0.0
O67 O 0.80949 0.21435 0.59291 0.0
H68 H 0.8885 0.21976 0.85393 0.0
H69 H 0.84793 0.3094 0.49919 0.0
O70 O 0.80192 0.29505 0.57528 0.0
H71 H 0.80425 0.20895 0.37591 0.0
H72 H 0.70249 0.22435 0.46716 0.0
H73 H 0.75214 0.19263 0.63348 0.0
H74 H 0.78898 0.20596 0.48406 0.0
H75 H 0.76095 0.25928 0.49339 0.0
O76 O 0.91103 0.28253 0.60738 0.0
H77 H 0.85796 0.22887 0.77161 0.0
H78 H 0.94646 0.30766 0.70192 0.0
H79 H 0.69364 0.15695 0.60874 0.0
H80 H 0.86361 0.31355 0.39107 0.0
H81 H 0.66854 0.17256 0.52454 0.0
H82 H 0.84177 0.26306 0.32873 0.0
O83 O 0.79484 0.25164 0.67055 0.0
H84 H 0.93648 0.39492 0.61025 0.0
H85 H 0.8885 0.31552 0.77947 0.0
H86 H 0.91464 0.37474 0.80064 0.0
H87 H 0.93887 0.41488 0.71565 0.0
H88 H 0.90988 0.3355 0.59106 0.0
H89 H 0.97803 0.2993 0.78328 0.0
H90 H 0.94898 0.25514 0.86012 0.0
O91 O 0.84051 0.26777 0.72744 0.0
C92 C 0.82785 0.20663 0.62338 0.0
C93 C 0.90142 0.23916 0.82087 0.0
C94 C 0.95167 0.28377 0.78115 0.0
N95 N 0.9004 0.26896 0.73242 0.0
C96 C 0.88425 0.2445 0.77429 0.0
C97 C 0.93369 0.28836 0.73516 0.0
C98 C 0.93536 0.259 0.82427 0.0
C99 C 0.83805 0.28737 0.47215 0.0
N100 N 0.81735 0.25751 0.49772 0.0
C101 C 0.84711 0.28985 0.41103 0.0
C102 C 0.83489 0.2615 0.3761 0.0
C103 C 0.81385 0.23113 0.40256 0.0
C104 C 0.80534 0.22958 0.46383 0.0
C105 C 0.71322 0.21714 0.50358 0.0
C106 C 0.74139 0.1996 0.59684 0.0
C107 C 0.74626 0.23686 0.51877 0.0
N108 N 0.76002 0.22776 0.56436 0.0
C109 C 0.70825 0.1793 0.58303 0.0
C110 C 0.69419 0.18807 0.53577 0.0
C111 C 0.8098 0.25714 0.72154 0.0
C112 C 0.92611 0.37767 0.64769 0.0
C113 C 0.899 0.33285 0.74227 0.0
C114 C 0.9138 0.36634 0.75453 0.0
C115 C 0.9274 0.38885 0.70683 0.0
N116 N 0.89788 0.32208 0.68416 0.0
C117 C 0.91116 0.344 0.63715 0.0
Co118 Co 0.58938 0.78126 0.65196 0.0
Co119 Co 0.58107 0.8208 0.77754 0.0
O120 O 0.59364 0.81976 0.69334 0.0
C121 C 0.5592 0.8111 0.57146 0.0
O122 O 0.57143 0.83694 0.60651 0.0
C123 C 0.65136 0.86912 0.76771 0.0
O124 O 0.65472 0.84585 0.74236 0.0
O125 O 0.6017 0.79526 0.80561 0.0
O126 O 0.60941 0.77123 0.72412 0.0
H127 H 0.53459 0.7727 0.98283 0.0
H128 H 0.62627 0.84803 0.59242 0.0
O129 O 0.56699 0.78896 0.57969 0.0
H130 H 0.70386 0.80712 0.60311 0.0
H131 H 0.59271 0.71771 0.47154 0.0
H132 H 0.56885 0.71327 0.691 0.0
H133 H 0.64759 0.77329 0.64116 0.0
H134 H 0.59921 0.76666 0.52458 0.0
O135 O 0.62367 0.86269 0.789 0.0
H136 H 0.54954 0.77135 0.87584 0.0
H137 H 0.58832 0.87415 0.85975 0.0
H138 H 0.56229 0.66383 0.63997 0.0
H139 H 0.68199 0.88243 0.55375 0.0
H140 H 0.57427 0.66588 0.52944 0.0
H141 H 0.72145 0.86215 0.55893 0.0
O142 O 0.54502 0.75341 0.68598 0.0
H143 H 0.57762 0.91392 0.67054 0.0
H144 H 0.51608 0.81517 0.7983 0.0
H145 H 0.49093 0.84841 0.77005 0.0
H146 H 0.52141 0.89774 0.70469 0.0
H147 H 0.60234 0.88068 0.70143 0.0
H148 H 0.57404 0.87667 0.96674 0.0
H149 H 0.54684 0.82566 0.02895 0.0
O150 O 0.53839 0.77907 0.76589 0.0
C151 C 0.61149 0.77723 0.78122 0.0
C152 C 0.54631 0.79507 0.95613 0.0
C153 C 0.56851 0.85344 0.94712 0.0
N154 N 0.5695 0.82258 0.86146 0.0
C155 C 0.55473 0.79444 0.89547 0.0
C156 C 0.5766 0.85188 0.88662 0.0
C157 C 0.55323 0.8248 0.98199 0.0
C158 C 0.64271 0.83853 0.59403 0.0
N159 N 0.63307 0.80819 0.61802 0.0
C160 C 0.67454 0.85836 0.57236 0.0
C161 C 0.69669 0.84702 0.57542 0.0
C162 C 0.68684 0.81616 0.60019 0.0
C163 C 0.65486 0.79708 0.62159 0.0
C164 C 0.58751 0.71654 0.51975 0.0
C165 C 0.57436 0.7144 0.643 0.0
C166 C 0.59108 0.74413 0.54996 0.0
N167 N 0.58475 0.74286 0.6109 0.0
C168 C 0.57048 0.68631 0.61431 0.0
C169 C 0.57716 0.68747 0.55227 0.0
C170 C 0.52784 0.7551 0.72875 0.0
C171 C 0.56394 0.89228 0.69858 0.0
C172 C 0.52956 0.8366 0.76977 0.0
C173 C 0.51515 0.85531 0.75388 0.0
C174 C 0.53239 0.88316 0.71764 0.0
N175 N 0.56061 0.84582 0.75126 0.0
C176 C 0.57783 0.87337 0.71637 0.0
Co177 Co 0.7314 0.53756 0.24236 0.0
Co178 Co 0.72229 0.59393 0.3271 0.0
O179 O 0.71014 0.56268 0.26053 0.0
C180 C 0.663 0.48711 0.26409 0.0
O181 O 0.66355 0.50503 0.31005 0.0
C182 C 0.73039 0.63086 0.21434 0.0
O183 O 0.74842 0.61852 0.19635 0.0
O184 O 0.76972 0.61425 0.30861 0.0
O185 O 0.77562 0.57631 0.25768 0.0
H186 H 0.7864 0.65764 0.51043 0.0
H187 H 0.68372 0.5379 0.15431 0.0
O188 O 0.68766 0.49759 0.22885 0.0
H189 H 0.78794 0.58408 0.04236 0.0
H190 H 0.74652 0.45468 0.12524 0.0
H191 H 0.78445 0.53029 0.29989 0.0
H192 H 0.78423 0.56535 0.1489 0.0
H193 H 0.72135 0.48846 0.1474 0.0
O194 O 0.71852 0.62482 0.2681 0.0
H195 H 0.77106 0.61728 0.42777 0.0
H196 H 0.69861 0.639 0.36478 0.0
H197 H 0.81045 0.49708 0.27931 0.0
H198 H 0.68627 0.5562 0.04772 0.0
H199 H 0.79149 0.45899 0.19136 0.0
H200 H 0.73871 0.5796 0.99115 0.0
O201 O 0.72904 0.52478 0.32869 0.0
H202 H 0.60311 0.54898 0.27771 0.0
H203 H 0.6834 0.56966 0.44126 0.0
H204 H 0.62466 0.54311 0.46633 0.0
H205 H 0.58407 0.53265 0.38421 0.0
H206 H 0.66202 0.57518 0.25457 0.0
H207 H 0.71331 0.67979 0.44651 0.0
H208 H 0.75742 0.68922 0.52017 0.0
O209 O 0.72645 0.56305 0.3858 0.0
C210 C 0.78731 0.60409 0.28368 0.0
C211 C 0.76705 0.65366 0.47877 0.0
C212 C 0.72606 0.66612 0.44283 0.0
N213 N 0.73375 0.62558 0.39195 0.0
C214 C 0.75818 0.63076 0.43202 0.0
C215 C 0.71788 0.64305 0.39661 0.0
C216 C 0.7508 0.6714 0.48416 0.0
C217 C 0.70651 0.54771 0.12968 0.0
N218 N 0.73373 0.55038 0.15756 0.0
C219 C 0.70785 0.55816 0.06947 0.0
C220 C 0.7373 0.57134 0.03779 0.0
C221 C 0.76494 0.57388 0.06651 0.0
C222 C 0.7627 0.56327 0.12683 0.0
C223 C 0.75513 0.47134 0.16349 0.0
C224 C 0.77636 0.51402 0.26118 0.0
C225 C 0.741 0.49054 0.17621 0.0
N226 N 0.75187 0.51175 0.22425 0.0
C227 C 0.79105 0.49518 0.24992 0.0
C228 C 0.78035 0.47376 0.20062 0.0
C229 C 0.72806 0.5369 0.37976 0.0
C230 C 0.62057 0.55349 0.31391 0.0
C231 C 0.66588 0.56512 0.40527 0.0
C232 C 0.63266 0.55014 0.41975 0.0
C233 C 0.6099 0.5443 0.37367 0.0
N234 N 0.67615 0.57412 0.34657 0.0
C235 C 0.65398 0.56846 0.30113 0.0
Co236 Co 0.23006 0.81766 0.31862 0.0
Co237 Co 0.18876 0.76166 0.43371 0.0
O238 O 0.19302 0.77754 0.35026 0.0
C239 C 0.22962 0.76457 0.25171 0.0
O240 O 0.22551 0.75076 0.30537 0.0
C241 C 0.13072 0.76862 0.41275 0.0
O242 O 0.15074 0.79867 0.39401 0.0
O243 O 0.20249 0.80598 0.46635 0.0
O244 O 0.2294 0.84261 0.39146 0.0
H245 H 0.22396 0.76534 0.65156 0.0
H246 H 0.17176 0.77884 0.24047 0.0
O247 O 0.23152 0.79243 0.24606 0.0
H248 H 0.18094 0.88737 0.25964 0.0
H249 H 0.29478 0.89775 0.1521 0.0
H250 H 0.29048 0.87271 0.37169 0.0
H251 H 0.22137 0.87599 0.30921 0.0
H252 H 0.24825 0.84747 0.19477 0.0
O253 O 0.14195 0.75067 0.43254 0.0
H254 H 0.22986 0.78484 0.5452 0.0
H255 H 0.13632 0.70432 0.50086 0.0
H256 H 0.33734 0.92336 0.33109 0.0
H257 H 0.13088 0.7892 0.18986 0.0
H258 H 0.33968 0.93614 0.22054 0.0
H259 H 0.1353 0.84378 0.19944 0.0
O260 O 0.26227 0.80868 0.36089 0.0
H261 H 0.12683 0.66579 0.29351 0.0
H262 H 0.20794 0.71128 0.46026 0.0
H263 H 0.19363 0.65763 0.41661 0.0
H264 H 0.15288 0.63459 0.33245 0.0
H265 H 0.14202 0.71944 0.33818 0.0
H266 H 0.12929 0.68404 0.60687 0.0
H267 H 0.17338 0.71457 0.68297 0.0
O268 O 0.23531 0.77202 0.43527 0.0
C269 C 0.2185 0.83532 0.44591 0.0
C270 C 0.20463 0.75175 0.61877 0.0
C271 C 0.15148 0.70615 0.5937 0.0
N272 N 0.18359 0.74557 0.51682 0.0
C273 C 0.20788 0.76261 0.55845 0.0
C274 C 0.15556 0.71777 0.5338 0.0
C275 C 0.17623 0.72328 0.63638 0.0
C276 C 0.174 0.80274 0.24436 0.0
N277 N 0.19901 0.82685 0.2774 0.0
C278 C 0.15072 0.80842 0.21581 0.0
C279 C 0.15319 0.83904 0.22127 0.0
C280 C 0.17878 0.86351 0.25507 0.0
C281 C 0.20157 0.85691 0.28309 0.0
C282 C 0.29401 0.89248 0.20037 0.0
C283 C 0.29123 0.87822 0.3236 0.0
C284 C 0.26777 0.86404 0.22474 0.0
N285 N 0.26656 0.85735 0.28569 0.0
C286 C 0.31787 0.90688 0.30085 0.0
C287 C 0.31918 0.91402 0.2388 0.0
C288 C 0.26126 0.79046 0.40515 0.0
C289 C 0.14456 0.67552 0.33027 0.0
C290 C 0.19013 0.70139 0.42378 0.0
C291 C 0.1821 0.67098 0.39926 0.0
C292 C 0.15921 0.65805 0.35208 0.0
N293 N 0.17574 0.71844 0.402 0.0
C294 C 0.15314 0.70583 0.35596 0.0
Co295 Co 0.45002 0.19377 0.90758 0.0
Co296 Co 0.39608 0.12505 0.99026 0.0
O297 O 0.42694 0.14677 0.92336 0.0
C298 C 0.50397 0.18003 0.92457 0.0
O299 O 0.48713 0.16019 0.96934 0.0
C300 C 0.35889 0.09672 0.87781 0.0
O301 O 0.37089 0.12713 0.85925 0.0
O302 O 0.37358 0.15068 0.97477 0.0
O303 O 0.40996 0.19622 0.92503 0.0
H304 H 0.33214 0.11868 0.1771 0.0
H305 H 0.45251 0.14951 0.81568 0.0
O306 O 0.49146 0.19335 0.89155 0.0
H307 H 0.40114 0.20543 0.7107 0.0
H308 H 0.52836 0.29667 0.79419 0.0
H309 H 0.45383 0.25122 0.96976 0.0
H310 H 0.41948 0.21841 0.81763 0.0
H311 H 0.49764 0.23701 0.81333 0.0
O312 O 0.36563 0.09079 0.93116 0.0
H313 H 0.37157 0.14668 0.09392 0.0
H314 H 0.35377 0.05502 0.02585 0.0
H315 H 0.48383 0.31101 0.95207 0.0
H316 H 0.4347 0.13589 0.70856 0.0
H317 H 0.52141 0.33409 0.86371 0.0
H318 H 0.4087 0.16388 0.65549 0.0
O319 O 0.46298 0.2026 0.99403 0.0
H320 H 0.44552 0.05611 0.93272 0.0
H321 H 0.42231 0.10965 0.10191 0.0
H322 H 0.4512 0.0791 0.12296 0.0
H323 H 0.46294 0.05203 0.03801 0.0
H324 H 0.41695 0.08714 0.91362 0.0
H325 H 0.31395 0.02599 0.10805 0.0
H326 H 0.30302 0.05789 0.18452 0.0
O327 O 0.42628 0.15939 0.04963 0.0
C328 C 0.38242 0.17864 0.95094 0.0
C329 C 0.33678 0.10451 0.14419 0.0
C330 C 0.32654 0.05248 0.10538 0.0
N331 N 0.36517 0.10251 0.05547 0.0
C332 C 0.35916 0.12024 0.09712 0.0
C333 C 0.34906 0.06904 0.0589 0.0
C334 C 0.32042 0.0704 0.14829 0.0
C335 C 0.44154 0.16202 0.79259 0.0
N336 N 0.4372 0.18483 0.82264 0.0
C337 C 0.43138 0.15412 0.73207 0.0
C338 C 0.41674 0.1698 0.70235 0.0
C339 C 0.41247 0.1931 0.73331 0.0
C340 C 0.42286 0.20032 0.79386 0.0
C341 C 0.51192 0.2869 0.83265 0.0
C342 C 0.46986 0.26107 0.93085 0.0
C343 C 0.49446 0.25314 0.8437 0.0
N344 N 0.47354 0.24063 0.89202 0.0
C345 C 0.4869 0.29494 0.92122 0.0
C346 C 0.50802 0.30788 0.87169 0.0
C347 C 0.45162 0.18784 0.04454 0.0
C348 C 0.44047 0.06773 0.97014 0.0
C349 C 0.4274 0.098 0.06468 0.0
C350 C 0.44371 0.08069 0.0769 0.0
C351 C 0.45027 0.06548 0.02922 0.0
N352 N 0.41781 0.10004 0.00664 0.0
C353 C 0.42417 0.08522 0.95964 0.0
H354 H 0.19007 0.29561 0.07142 0.0
H355 H 0.21065 0.25875 0.04451 0.0
H356 H 0.30941 0.33586 0.08084 0.0
H357 H 0.28913 0.37261 0.10935 0.0
H358 H 0.29003 0.30037 0.95424 0.0
H359 H 0.28732 0.28518 0.17606 0.0
H360 H 0.25868 0.2699 0.27479 0.0
H361 H 0.191 0.17415 0.20593 0.0
H362 H 0.219 0.18908 0.10642 0.0
H363 H 0.39912 0.24265 0.93838 0.0
H364 H 0.3661 0.26735 0.96062 0.0
H365 H 0.28301 0.17173 0.99823 0.0
H366 H 0.31696 0.1468 0.97975 0.0
H367 H 0.28525 0.21014 0.08024 0.0
H368 H 0.28892 0.21937 0.86542 0.0
H369 H 0.31305 0.23162 0.7626 0.0
H370 H 0.37138 0.33351 0.80842 0.0
H371 H 0.34799 0.32183 0.91184 0.0
C372 C 0.21611 0.30452 0.07468 0.0
C373 C 0.238 0.33697 0.09253 0.0
C374 C 0.22776 0.28347 0.05927 0.0
C375 C 0.26145 0.29477 0.06064 0.0
C376 C 0.28329 0.32685 0.07965 0.0
C377 C 0.27165 0.3477 0.0962 0.0
C378 C 0.27428 0.27385 0.03894 0.0
C379 C 0.28928 0.28074 0.9817 0.0
C380 C 0.27163 0.24733 0.07376 0.0
C381 C 0.25497 0.23839 0.13361 0.0
C382 C 0.26612 0.261 0.18176 0.0
C383 C 0.25006 0.25237 0.23791 0.0
C384 C 0.22296 0.22111 0.24656 0.0
C385 C 0.21195 0.19838 0.19913 0.0
C386 C 0.22791 0.2069 0.14287 0.0
C387 C 0.37375 0.22669 0.95072 0.0
C388 C 0.36071 0.1927 0.95726 0.0
C389 C 0.35471 0.24091 0.96297 0.0
C390 C 0.32175 0.22143 0.9799 0.0
C391 C 0.30834 0.18731 0.98506 0.0
C392 C 0.32771 0.17307 0.97422 0.0
C393 C 0.30232 0.23724 0.99578 0.0
C394 C 0.28579 0.22937 0.05187 0.0
C395 C 0.30282 0.2624 0.95904 0.0
C396 C 0.31679 0.26966 0.89659 0.0
C397 C 0.30703 0.24437 0.85372 0.0
C398 C 0.32057 0.25121 0.79529 0.0
C399 C 0.34376 0.28331 0.77901 0.0
C400 C 0.35341 0.30865 0.82109 0.0
C401 C 0.33997 0.30194 0.87959 0.0
H402 H 0.35423 0.28856 0.73377 0.0
H403 H 0.21057 0.21447 0.29007 0.0
H404 H 0.89801 0.26684 0.43056 0.0
H405 H 0.94048 0.28397 0.35392 0.0
H406 H 0.01385 0.31427 0.49561 0.0
H407 H 0.97117 0.2985 0.57315 0.0
H408 H 0.03596 0.35739 0.40888 0.0
H409 H 0.98508 0.24057 0.41275 0.0
H410 H 0.93937 0.18348 0.40994 0.0
H411 H 0.91429 0.19887 0.22891 0.0
H412 H 0.9596 0.25621 0.23094 0.0
H413 H 0.16091 0.3628 0.23272 0.0
H414 H 0.1143 0.33923 0.30116 0.0
H415 H 0.05255 0.34149 0.1576 0.0
H416 H 0.09949 0.36561 0.08786 0.0
H417 H 0.02441 0.28169 0.24193 0.0
H418 H 0.07771 0.40064 0.24298 0.0
H419 H 0.12741 0.45526 0.24711 0.0
H420 H 0.15126 0.43252 0.42336 0.0
H421 H 0.10189 0.37758 0.4199 0.0
C422 C 0.92317 0.27707 0.44561 0.0
C423 C 0.93125 0.28104 0.50796 0.0
C424 C 0.94745 0.28671 0.40159 0.0
C425 C 0.98034 0.2997 0.41884 0.0
C426 C 0.9886 0.30412 0.48117 0.0
C427 C 0.96425 0.29503 0.52543 0.0
C428 C 0.00595 0.30897 0.37158 0.0
C429 C 0.03348 0.34063 0.37289 0.0
C430 C 0.00267 0.28735 0.32382 0.0
C431 C 0.97556 0.25278 0.32223 0.0
C432 C 0.96969 0.23185 0.37249 0.0
C433 C 0.94387 0.19943 0.37102 0.0
C434 C 0.92389 0.18758 0.31934 0.0
C435 C 0.92976 0.20809 0.26894 0.0
C436 C 0.95554 0.24055 0.2702 0.0
C437 C 0.13739 0.35793 0.215 0.0
C438 C 0.13409 0.36664 0.15489 0.0
C439 C 0.11077 0.34435 0.25434 0.0
C440 C 0.08025 0.33909 0.23454 0.0
C441 C 0.07607 0.34551 0.17353 0.0
C442 C 0.10289 0.3593 0.13386 0.0
C443 C 0.05391 0.32985 0.27961 0.0
C444 C 0.02648 0.29831 0.27788 0.0
C445 C 0.05746 0.35132 0.32749 0.0
C446 C 0.08622 0.38494 0.33102 0.0
C447 C 0.09359 0.40728 0.28256 0.0
C448 C 0.1217 0.43828 0.28477 0.0
C449 C 0.14252 0.44732 0.33541 0.0
C450 C 0.13511 0.42547 0.38417 0.0
C451 C 0.10703 0.39443 0.38216 0.0
H452 H 0.1644 0.47123 0.3369 0.0
H453 H 0.9039 0.16248 0.3183 0.0
H454 H 0.85965 0.17972 0.6847 0.0
H455 H 0.8392 0.12182 0.70649 0.0
H456 H 0.75258 0.09595 0.59941 0.0
H457 H 0.77298 0.15368 0.57644 0.0
H458 H 0.78629 0.08248 0.76915 0.0
H459 H 0.72185 0.02014 0.54124 0.0
H460 H 0.73059 0.03085 0.4308 0.0
H461 H 0.83397 0.09198 0.46113 0.0
H462 H 0.82595 0.08126 0.57163 0.0
H463 H 0.65131 0.92376 0.80834 0.0
H464 H 0.69078 0.98075 0.78425 0.0
H465 H 0.75006 0.95008 0.68732 0.0
H466 H 0.71033 0.89279 0.71033 0.0
H467 H 0.7406 0.99145 0.62004 0.0
H468 H 0.77657 0.99096 0.82271 0.0
H469 H 0.77118 0.98031 0.93343 0.0
H470 H 0.73225 0.04483 0.95399 0.0
H471 H 0.73696 0.05552 0.84325 0.0
C472 C 0.83652 0.16173 0.66472 0.0
C473 C 0.81789 0.17147 0.629 0.0
C474 C 0.82483 0.12862 0.67748 0.0
C475 C 0.7944 0.10454 0.65457 0.0
C476 C 0.77635 0.11405 0.61693 0.0
C477 C 0.78803 0.14716 0.604 0.0
C478 C 0.78023 0.06982 0.67391 0.0
C479 C 0.77654 0.06258 0.73654 0.0
C480 C 0.76812 0.04387 0.63141 0.0
C481 C 0.77323 0.05007 0.56483 0.0
C482 C 0.74647 0.03572 0.52433 0.0
C483 C 0.7513 0.04183 0.46171 0.0
C484 C 0.7828 0.06215 0.43898 0.0
C485 C 0.80957 0.07633 0.47881 0.0
C486 C 0.80489 0.07028 0.54146 0.0
C487 C 0.67303 0.92911 0.78286 0.0
C488 C 0.67766 0.9037 0.76131 0.0
C489 C 0.69565 0.96176 0.76923 0.0
C490 C 0.7235 0.96971 0.73428 0.0
C491 C 0.72875 0.94449 0.71437 0.0
C492 C 0.70609 0.91177 0.72792 0.0
C493 C 0.74576 0.00417 0.71521 0.0
C494 C 0.75084 0.01136 0.65265 0.0
C495 C 0.75968 0.03008 0.7578 0.0
C496 C 0.75695 0.02389 0.82455 0.0
C497 C 0.76665 0.00271 0.85077 0.0
C498 C 0.76375 0.99669 0.91355 0.0
C499 C 0.75134 0.01185 0.95071 0.0
C500 C 0.74186 0.03311 0.92515 0.0
C501 C 0.74469 0.0392 0.86238 0.0
H502 H 0.7491 0.00715 0.9993 0.0
H503 H 0.78648 0.06687 0.39049 0.0
H504 H 0.74726 0.64262 0.09437 0.0
H505 H 0.72898 0.66817 0.01868 0.0
H506 H 0.67434 0.68479 0.15681 0.0
H507 H 0.69212 0.65863 0.23303 0.0
H508 H 0.63806 0.65912 0.05654 0.0
H509 H 0.74598 0.74781 0.09993 0.0
H510 H 0.80592 0.77475 0.11234 0.0
H511 H 0.81565 0.75619 0.92457 0.0
H512 H 0.75568 0.72871 0.91124 0.0
H513 H 0.60845 0.7738 0.9052 0.0
H514 H 0.63049 0.74876 0.97379 0.0
H515 H 0.66902 0.7222 0.82072 0.0
H516 H 0.64666 0.74717 0.75076 0.0
H517 H 0.71378 0.75147 0.92318 0.0
H518 H 0.60518 0.66435 0.88008 0.0
H519 H 0.54532 0.63903 0.86882 0.0
H520 H 0.53716 0.65617 0.05811 0.0
H521 H 0.59708 0.6821 0.07029 0.0
C522 C 0.73163 0.652 0.10897 0.0
C523 C 0.72125 0.64871 0.16988 0.0
C524 C 0.72126 0.66669 0.06554 0.0
C525 C 0.70054 0.67868 0.08215 0.0
C526 C 0.69037 0.67573 0.14303 0.0
C527 C 0.70066 0.66092 0.18658 0.0
C528 C 0.68858 0.69322 0.03551 0.0
C529 C 0.65465 0.67958 0.02795 0.0
C530 C 0.71022 0.7193 0.99695 0.0
C531 C 0.7463 0.7359 0.00477 0.0
C532 C 0.76087 0.74923 0.06141 0.0
C533 C 0.79486 0.76464 0.06859 0.0
C534 C 0.81457 0.7671 0.01932 0.0
C535 C 0.80034 0.75422 0.96272 0.0
C536 C 0.76635 0.73875 0.95531 0.0
C537 C 0.62168 0.76279 0.88574 0.0
C538 C 0.62574 0.76249 0.82229 0.0
C539 C 0.63418 0.74839 0.92518 0.0
C540 C 0.65115 0.73349 0.90224 0.0
C541 C 0.65592 0.7336 0.83914 0.0
C542 C 0.64304 0.74774 0.79932 0.0
C543 C 0.6634 0.71754 0.94488 0.0
C544 C 0.6973 0.73089 0.95163 0.0
C545 C 0.64178 0.6913 0.98295 0.0
C546 C 0.60568 0.67544 0.97596 0.0
C547 C 0.59066 0.66297 0.9192 0.0
C548 C 0.55671 0.64846 0.91267 0.0
C549 C 0.53746 0.64606 0.96268 0.0
C550 C 0.55212 0.65808 0.01939 0.0
C551 C 0.58607 0.67266 0.02615 0.0
H552 H 0.51117 0.63482 0.95753 0.0
H553 H 0.84088 0.77904 0.02497 0.0
H554 H 0.82328 0.66953 0.31049 0.0
H555 H 0.88218 0.70133 0.33206 0.0
H556 H 0.89104 0.61641 0.29455 0.0
H557 H 0.83264 0.58471 0.27143 0.0
H558 H 0.91622 0.64881 0.41268 0.0
H559 H 0.92034 0.67175 0.19578 0.0
H560 H 0.90541 0.69167 0.10355 0.0
H561 H 0.94452 0.78699 0.1836 0.0
H562 H 0.95926 0.76747 0.27675 0.0
H563 H 0.08443 0.70389 0.41146 0.0
H564 H 0.02606 0.67975 0.39155 0.0
H565 H 0.03748 0.77644 0.37837 0.0
H566 H 0.09651 0.80085 0.39539 0.0
H567 H 0.00038 0.742 0.29164 0.0
H568 H 0.00072 0.72273 0.50424 0.0
H569 H 0.01358 0.7044 0.60079 0.0
H570 H 0.96382 0.60495 0.53748 0.0
H571 H 0.95118 0.62272 0.44006 0.0
C572 C 0.83788 0.65779 0.30585 0.0
C573 C 0.82326 0.62457 0.28933 0.0
C574 C 0.87144 0.67597 0.31821 0.0
C575 C 0.89072 0.66108 0.315 0.0
C576 C 0.87642 0.62823 0.29723 0.0
C577 C 0.84306 0.61023 0.28379 0.0
C578 C 0.92553 0.67913 0.33316 0.0
C579 C 0.93482 0.66898 0.38606 0.0
C580 C 0.94921 0.70627 0.29962 0.0
C581 C 0.94054 0.71804 0.2435 0.0
C582 C 0.92547 0.69686 0.19396 0.0
C583 C 0.9171 0.7081 0.14146 0.0
C584 C 0.92391 0.74054 0.13779 0.0
C585 C 0.93921 0.76185 0.18655 0.0
C586 C 0.94759 0.75072 0.23918 0.0
C587 C 0.0745 0.72006 0.40497 0.0
C588 C 0.09502 0.75429 0.40533 0.0
C589 C 0.04102 0.7062 0.39389 0.0
C590 C 0.02714 0.72622 0.3846 0.0
C591 C 0.04757 0.76047 0.38558 0.0
C592 C 0.08126 0.77439 0.39552 0.0
C593 C 0.99162 0.71127 0.37093 0.0
C594 C 0.982 0.72202 0.31891 0.0
C595 C 0.96748 0.68495 0.40602 0.0
C596 C 0.97531 0.67416 0.46447 0.0
C597 C 0.99281 0.697 0.51061 0.0
C598 C 2e-05 0.68669 0.56556 0.0
C599 C 0.98962 0.65355 0.57519 0.0
C600 C 0.97194 0.63063 0.52991 0.0
C601 C 0.96474 0.64081 0.4748 0.0
H602 H 0.9952 0.64562 0.6178 0.0
H603 H 0.91742 0.7492 0.09712 0.0
H604 H 0.35149 0.10109 0.75534 0.0
H605 H 0.3229 0.05631 0.68331 0.0
H606 H 0.2942 0.98618 0.83078 0.0
H607 H 0.32372 0.03098 0.90312 0.0
H608 H 0.31608 0.96726 0.74015 0.0
H609 H 0.2389 0.00439 0.75766 0.0
H610 H 0.22003 0.04465 0.75728 0.0
H611 H 0.24806 0.06773 0.56971 0.0
H612 H 0.26752 0.02791 0.56918 0.0
H613 H 0.20538 0.83055 0.56799 0.0
H614 H 0.22427 0.87508 0.64121 0.0
H615 H 0.26867 0.94591 0.4961 0.0
H616 H 0.24993 0.90148 0.42197 0.0
H617 H 0.2365 0.96338 0.58631 0.0
H618 H 0.31559 0.92728 0.57197 0.0
H619 H 0.3326 0.88558 0.57275 0.0
H620 H 0.2989 0.85945 0.75699 0.0
H621 H 0.28118 0.90067 0.75694 0.0
C622 C 0.33883 0.07616 0.77263 0.0
C623 C 0.33976 0.06956 0.835 0.0
C624 C 0.32235 0.05056 0.73134 0.0
C625 C 0.30596 0.01786 0.75167 0.0
C626 C 0.3066 0.01122 0.81405 0.0
C627 C 0.3234 0.03683 0.85536 0.0
C628 C 0.28948 0.99059 0.70744 0.0
C629 C 0.29826 0.96617 0.70729 0.0
C630 C 0.26676 0.98949 0.6635 0.0
C631 C 0.25493 0.01335 0.66356 0.0
C632 C 0.24126 0.01821 0.71645 0.0
C633 C 0.23042 0.04093 0.71638 0.0
C634 C 0.23291 0.05879 0.66355 0.0
C635 C 0.24617 0.0539 0.61062 0.0
C636 C 0.25708 0.03123 0.61046 0.0
C637 C 0.21875 0.85555 0.55124 0.0
C638 C 0.2264 0.86238 0.489 0.0
C639 C 0.22955 0.88097 0.5933 0.0
C640 C 0.24815 0.91369 0.57405 0.0
C641 C 0.25436 0.92075 0.51173 0.0
C642 C 0.24371 0.89531 0.46952 0.0
C643 C 0.26311 0.94029 0.61952 0.0
C644 C 0.25416 0.96452 0.61964 0.0
C645 C 0.28553 0.94117 0.66371 0.0
C646 C 0.29677 0.91684 0.66424 0.0
C647 C 0.3116 0.91249 0.61251 0.0
C648 C 0.32139 0.88896 0.61283 0.0
C649 C 0.31676 0.86982 0.66483 0.0
C650 C 0.30243 0.87427 0.71671 0.0
C651 C 0.29253 0.89772 0.71658 0.0
H652 H 0.32433 0.8516 0.66498 0.0
H653 H 0.22451 0.07637 0.66359 0.0
H654 H 0.28261 0.76025 0.22477 0.0
H655 H 0.2811 0.71433 0.17167 0.0
H656 H 0.18161 0.68126 0.11496 0.0
H657 H 0.18311 0.7273 0.16917 0.0
H658 H 0.18348 0.63706 0.18154 0.0
H659 H 0.24606 0.69864 0.01013 0.0
H660 H 0.29122 0.74446 0.95452 0.0
H661 H 0.36063 0.72407 0.04302 0.0
H662 H 0.31597 0.6784 0.09981 0.0
H663 H 0.16999 0.49174 0.05831 0.0
H664 H 0.17383 0.54502 0.06939 0.0
H665 H 0.26622 0.58173 0.16332 0.0
H666 H 0.26254 0.52814 0.15261 0.0
H667 H 0.26593 0.62331 0.06661 0.0
H668 H 0.20436 0.56669 0.24529 0.0
H669 H 0.15961 0.52059 0.30109 0.0
H670 H 0.08865 0.53242 0.19724 0.0
H671 H 0.13303 0.57848 0.1404 0.0
C672 C 0.26114 0.74423 0.1979 0.0
C673 C 0.23312 0.74732 0.20003 0.0
C674 C 0.26021 0.71786 0.16775 0.0
C675 C 0.23118 0.69413 0.13966 0.0
C676 C 0.20427 0.69925 0.13637 0.0
C677 C 0.20521 0.72572 0.16664 0.0
C678 C 0.22697 0.66143 0.126 0.0
C679 C 0.20107 0.63405 0.15483 0.0
C680 C 0.25059 0.65754 0.09335 0.0
C681 C 0.27761 0.68513 0.05947 0.0
C682 C 0.27097 0.70406 0.01811 0.0
C683 C 0.29649 0.72999 0.98629 0.0
C684 C 0.32877 0.7372 0.99531 0.0
C685 C 0.33561 0.71845 0.03606 0.0
C686 C 0.31019 0.69248 0.06798 0.0
C687 C 0.19103 0.51103 0.08182 0.0
C688 C 0.21599 0.50578 0.10465 0.0
C689 C 0.19316 0.54144 0.08802 0.0
C690 C 0.22034 0.56722 0.1169 0.0
C691 C 0.24513 0.56205 0.14061 0.0
C692 C 0.24283 0.5314 0.13504 0.0
C693 C 0.22266 0.59955 0.1221 0.0
C694 C 0.24818 0.62659 0.09214 0.0
C695 C 0.19875 0.60326 0.15365 0.0
C696 C 0.17201 0.57577 0.18812 0.0
C697 C 0.17921 0.55929 0.234 0.0
C698 C 0.15391 0.5332 0.26588 0.0
C699 C 0.1213 0.52345 0.2525 0.0
C700 C 0.11392 0.53994 0.20745 0.0
C701 C 0.13914 0.56607 0.17546 0.0
H702 H 0.10175 0.5032 0.27717 0.0
H703 H 0.34849 0.75727 0.97059 0.0
H704 H 0.53675 0.14904 0.96458 0.0
H705 H 0.59526 0.16805 0.95346 0.0
H706 H 0.60887 0.25557 0.86226 0.0
H707 H 0.55056 0.23604 0.87067 0.0
H708 H 0.6373 0.23314 0.80141 0.0
H709 H 0.638 0.25553 0.01054 0.0
H710 H 0.62054 0.245 0.11782 0.0
H711 H 0.6491 0.17171 0.13007 0.0
H712 H 0.66614 0.18133 0.02233 0.0
H713 H 0.81428 0.29959 0.81052 0.0
H714 H 0.7683 0.2915 0.87517 0.0
H715 H 0.71192 0.19153 0.81367 0.0
H716 H 0.75752 0.19936 0.75022 0.0
H717 H 0.71097 0.23085 0.96179 0.0
H718 H 0.65736 0.20574 0.7184 0.0
H719 H 0.67423 0.22331 0.61228 0.0
H720 H 0.75359 0.31502 0.67547 0.0
H721 H 0.73643 0.29858 0.78131 0.0
C722 C 0.5523 0.17228 0.94204 0.0
C723 C 0.53903 0.1908 0.91767 0.0
C724 C 0.58579 0.18333 0.93639 0.0
C725 C 0.60664 0.21347 0.90761 0.0
C726 C 0.59335 0.2322 0.88444 0.0
C727 C 0.55992 0.2209 0.88897 0.0
C728 C 0.64168 0.22428 0.8967 0.0
C729 C 0.65335 0.23301 0.83697 0.0
C730 C 0.66307 0.22477 0.94306 0.0
C731 C 0.65312 0.21898 0.00809 0.0
C732 C 0.64034 0.23698 0.03592 0.0
C733 C 0.63054 0.2312 0.09688 0.0
C734 C 0.63368 0.20768 0.13077 0.0
C735 C 0.64667 0.18992 0.10375 0.0
C736 C 0.65642 0.19554 0.04271 0.0
C737 C 0.79273 0.27545 0.81371 0.0
C738 C 0.78914 0.25008 0.77554 0.0
C739 C 0.76652 0.27085 0.85049 0.0
C740 C 0.73672 0.241 0.84857 0.0
C741 C 0.73475 0.21466 0.81584 0.0
C742 C 0.76075 0.21919 0.7795 0.0
C743 C 0.70577 0.23915 0.86685 0.0
C744 C 0.69481 0.23161 0.92722 0.0
C745 C 0.68517 0.24092 0.82174 0.0
C746 C 0.69611 0.25058 0.75791 0.0
C747 C 0.67854 0.22958 0.70954 0.0
C748 C 0.68815 0.23938 0.64932 0.0
C749 C 0.71543 0.27001 0.63693 0.0
C750 C 0.73294 0.29102 0.6848 0.0
C751 C 0.72323 0.2815 0.74499 0.0
H752 H 0.72272 0.27759 0.59028 0.0
H753 H 0.62608 0.20325 0.17797 0.0
H754 H 0.49285 0.70672 0.64637 0.0
H755 H 0.43876 0.6587 0.65892 0.0
H756 H 0.43204 0.69151 0.8385 0.0
H757 H 0.48603 0.74027 0.8257 0.0
H758 H 0.42325 0.61178 0.73494 0.0
H759 H 0.35651 0.66168 0.88255 0.0
H760 H 0.34986 0.7103 0.88865 0.0
H761 H 0.3709 0.72898 0.69776 0.0
H762 H 0.37834 0.68085 0.69074 0.0
H763 H 0.31899 0.50412 0.95335 0.0
H764 H 0.35858 0.54891 0.89028 0.0
H765 H 0.28025 0.54334 0.77863 0.0
H766 H 0.23996 0.49779 0.84259 0.0
H767 H 0.32358 0.60664 0.81976 0.0
H768 H 0.33092 0.52303 0.71491 0.0
H769 H 0.33473 0.47301 0.7039 0.0
H770 H 0.42784 0.51975 0.79555 0.0
H771 H 0.4244 0.5699 0.80795 0.0
C772 C 0.47981 0.70396 0.68844 0.0
C773 C 0.494 0.72721 0.73542 0.0
C774 C 0.44876 0.6765 0.69537 0.0
C775 C 0.43116 0.67147 0.74945 0.0
C776 C 0.44481 0.69511 0.79581 0.0
C777 C 0.47586 0.72285 0.78872 0.0
C778 C 0.40047 0.63986 0.7601 0.0
C779 C 0.40133 0.61069 0.7527 0.0
C780 C 0.37154 0.63821 0.78201 0.0
C781 C 0.36813 0.66776 0.78624 0.0
C782 C 0.35983 0.67624 0.84192 0.0
C783 C 0.35607 0.70379 0.8456 0.0
C784 C 0.36019 0.72285 0.7937 0.0
C785 C 0.36809 0.7144 0.73804 0.0
C786 C 0.37229 0.68711 0.73427 0.0
C787 C 0.31015 0.51193 0.91463 0.0
C788 C 0.27646 0.49755 0.90273 0.0
C789 C 0.33284 0.5375 0.87849 0.0
C790 C 0.32239 0.54937 0.82961 0.0
C791 C 0.28875 0.53439 0.8161 0.0
C792 C 0.26585 0.5083 0.85218 0.0
C793 C 0.34701 0.57898 0.79654 0.0
C794 C 0.34519 0.60775 0.80026 0.0
C795 C 0.37492 0.58027 0.7703 0.0
C796 C 0.37734 0.55025 0.76246 0.0
C797 C 0.35214 0.5226 0.73301 0.0
C798 C 0.35424 0.49422 0.72649 0.0
C799 C 0.3815 0.4932 0.74903 0.0
C800 C 0.40675 0.52059 0.77805 0.0
C801 C 0.40477 0.54903 0.78472 0.0
H802 H 0.38307 0.47119 0.74398 0.0
H803 H 0.35713 0.74409 0.79655 0.0
H804 H 0.76605 0.56285 0.48181 0.0
H805 H 0.78129 0.53246 0.55411 0.0
H806 H 0.71175 0.44165 0.46766 0.0
H807 H 0.69634 0.47164 0.39696 0.0
H808 H 0.71576 0.43152 0.58559 0.0
H809 H 0.79311 0.49064 0.41804 0.0
H810 H 0.83286 0.54123 0.3642 0.0
H811 H 0.89095 0.57633 0.52701 0.0
H812 H 0.85136 0.52618 0.58212 0.0
H813 H 0.77181 0.32277 0.53075 0.0
H814 H 0.75789 0.36607 0.52146 0.0
H815 H 0.82979 0.42251 0.65871 0.0
H816 H 0.84354 0.37892 0.6694 0.0
H817 H 0.8302 0.45836 0.54775 0.0
H818 H 0.7581 0.39461 0.70908 0.0
H819 H 0.71878 0.34374 0.7623 0.0
H820 H 0.65236 0.3169 0.61057 0.0
H821 H 0.69113 0.36792 0.55682 0.0
C822 C 0.75315 0.53631 0.48023 0.0
C823 C 0.73029 0.51948 0.43376 0.0
C824 C 0.76206 0.51901 0.52103 0.0
C825 C 0.74816 0.48485 0.51536 0.0
C826 C 0.72292 0.46796 0.47286 0.0
C827 C 0.71415 0.48511 0.43234 0.0
C828 C 0.76223 0.46665 0.54662 0.0
C829 C 0.74089 0.43762 0.5779 0.0
C830 C 0.79527 0.47492 0.53789 0.0
C831 C 0.81908 0.50489 0.50442 0.0
C832 C 0.81425 0.50924 0.44245 0.0
C833 C 0.83672 0.53781 0.41171 0.0
C834 C 0.86428 0.562 0.44221 0.0
C835 C 0.86952 0.55763 0.5035 0.0
C836 C 0.84708 0.52916 0.53453 0.0
C837 C 0.78477 0.34439 0.55888 0.0
C838 C 0.8086 0.34728 0.60113 0.0
C839 C 0.77668 0.36903 0.55372 0.0
C840 C 0.79258 0.39722 0.58995 0.0
C841 C 0.81716 0.40079 0.6307 0.0
C842 C 0.82494 0.37588 0.63663 0.0
C843 C 0.78328 0.42279 0.58414 0.0
C844 C 0.80547 0.45298 0.55749 0.0
C845 C 0.75107 0.41564 0.59692 0.0
C846 C 0.72753 0.38501 0.62893 0.0
C847 C 0.73512 0.37782 0.68706 0.0
C848 C 0.71288 0.34905 0.71741 0.0
C849 C 0.68312 0.32705 0.68977 0.0
C850 C 0.67541 0.33397 0.63194 0.0
C851 C 0.69741 0.36293 0.60169 0.0
H852 H 0.66608 0.30463 0.71314 0.0
H853 H 0.88164 0.58406 0.41829 0.0
H854 H 0.32161 0.82535 0.35201 0.0
H855 H 0.36923 0.81892 0.3686 0.0
H856 H 0.3153 0.74252 0.50087 0.0
H857 H 0.26779 0.74938 0.48594 0.0
H858 H 0.37206 0.78124 0.54363 0.0
H859 H 0.33438 0.72351 0.36015 0.0
H860 H 0.31314 0.71146 0.25511 0.0
H861 H 0.40159 0.79453 0.18949 0.0
H862 H 0.42343 0.80707 0.29449 0.0
H863 H 0.5154 0.75365 0.51439 0.0
H864 H 0.462 0.74074 0.47163 0.0
H865 H 0.48578 0.84077 0.49913 0.0
H866 H 0.53903 0.85411 0.54039 0.0
H867 H 0.4386 0.77541 0.37504 0.0
H868 H 0.42238 0.82593 0.60521 0.0
H869 H 0.43707 0.82731 0.71369 0.0
H870 H 0.44685 0.74241 0.6888 0.0
H871 H 0.43152 0.73997 0.58084 0.0
C872 C 0.31983 0.80722 0.3848 0.0
C873 C 0.29079 0.7879 0.41766 0.0
C874 C 0.347 0.80329 0.39366 0.0
C875 C 0.34564 0.77976 0.43505 0.0
C876 C 0.31684 0.76068 0.46837 0.0
C877 C 0.2897 0.76472 0.45987 0.0
C878 C 0.37508 0.77679 0.44653 0.0
C879 C 0.38633 0.7796 0.5067 0.0
C880 C 0.39327 0.77358 0.39863 0.0
C881 C 0.38043 0.76637 0.33528 0.0
C882 C 0.34923 0.73936 0.32339 0.0
C883 C 0.33709 0.73241 0.2638 0.0
C884 C 0.35591 0.75234 0.21558 0.0
C885 C 0.38701 0.77914 0.22689 0.0
C886 C 0.39935 0.78611 0.28644 0.0
C887 C 0.50972 0.77315 0.50923 0.0
C888 C 0.53127 0.80481 0.53156 0.0
C889 C 0.47922 0.76571 0.48488 0.0
C890 C 0.47 0.78976 0.48314 0.0
C891 C 0.49252 0.8219 0.50052 0.0
C892 C 0.52294 0.82942 0.52418 0.0
C893 C 0.43574 0.78109 0.47161 0.0
C894 C 0.42382 0.77641 0.41168 0.0
C895 C 0.41616 0.78124 0.51991 0.0
C896 C 0.42638 0.78316 0.58458 0.0
C897 C 0.42781 0.80763 0.62287 0.0
C898 C 0.43622 0.80855 0.68435 0.0
C899 C 0.44336 0.78519 0.70802 0.0
C900 C 0.44201 0.76084 0.67025 0.0
C901 C 0.43338 0.75964 0.60891 0.0
H902 H 0.44961 0.78572 0.75573 0.0
H903 H 0.34643 0.74697 0.16947 0.0
H904 H 0.5169 0.223 0.05918 0.0
H905 H 0.54654 0.26469 0.13545 0.0
H906 H 0.45595 0.23658 0.22908 0.0
H907 H 0.42587 0.19449 0.15128 0.0
H908 H 0.48619 0.29933 0.1988 0.0
H909 H 0.51963 0.23413 0.30514 0.0
H910 H 0.53899 0.19472 0.32027 0.0
H911 H 0.63042 0.26172 0.2354 0.0
H912 H 0.61146 0.3013 0.21855 0.0
H913 H 0.60556 0.45644 0.32827 0.0
H914 H 0.56356 0.39818 0.32496 0.0
H915 H 0.61821 0.38223 0.18598 0.0
H916 H 0.66 0.44003 0.18866 0.0
H917 H 0.59729 0.33583 0.28151 0.0
H918 H 0.55429 0.38921 0.14672 0.0
H919 H 0.53462 0.42796 0.12543 0.0
H920 H 0.46095 0.38163 0.26327 0.0
H921 H 0.4805 0.34285 0.28585 0.0
C922 C 0.50343 0.22494 0.09722 0.0
C923 C 0.46919 0.20586 0.09938 0.0
C924 C 0.52042 0.24862 0.14121 0.0
C925 C 0.50353 0.2537 0.18838 0.0
C926 C 0.46946 0.23291 0.19328 0.0
C927 C 0.45235 0.20884 0.14914 0.0
C928 C 0.52104 0.2843 0.22421 0.0
C929 C 0.50997 0.30692 0.21908 0.0
C930 C 0.5522 0.29436 0.2502 0.0
C931 C 0.56406 0.27079 0.26069 0.0
C932 C 0.54382 0.24044 0.28941 0.0
C933 C 0.55473 0.21804 0.29825 0.0
C934 C 0.58591 0.22571 0.27878 0.0
C935 C 0.60628 0.25583 0.25052 0.0
C936 C 0.59548 0.2783 0.24143 0.0
C937 C 0.60847 0.44053 0.2967 0.0
C938 C 0.63607 0.45286 0.25862 0.0
C939 C 0.58455 0.40729 0.29512 0.0
C940 C 0.58803 0.38596 0.25568 0.0
C941 C 0.61532 0.39829 0.21723 0.0
C942 C 0.63901 0.43142 0.2184 0.0
C943 C 0.56307 0.3508 0.25232 0.0
C944 C 0.57287 0.32762 0.26382 0.0
C945 C 0.5308 0.34017 0.23211 0.0
C946 C 0.51914 0.3635 0.21859 0.0
C947 C 0.5341 0.38751 0.17287 0.0
C948 C 0.52294 0.40943 0.16048 0.0
C949 C 0.49664 0.40735 0.19315 0.0
C950 C 0.48138 0.38328 0.23814 0.0
C951 C 0.49249 0.36133 0.25075 0.0
H952 H 0.48801 0.42433 0.18347 0.0
H953 H 0.5943 0.20832 0.2856 0.0
loop_
_geom_bond_atom_site_label_1
_geom_bond_atom_site_label_2
_geom_bond_distance
_geom_bond_site_symmetry_2
_ccdc_geom_bond_type
Co0 O2 2.143 . S
Co0 O8 2.074 1_556 S
Co0 O11 2.093 . S
Co0 O24 2.097 1_556 S
Co0 N41 2.151 . S
Co0 N49 2.214 . S
Co1 O2 2.160 1_554 S
Co1 O7 2.058 . S
Co1 O17 2.057 . S
Co1 O32 2.037 . S
Co1 N36 2.145 . S
Co1 N57 2.257 . S
O2 Co0 2.143 . S
O2 Co1 2.160 1_556 S
C3 O4 1.278 . S
C3 O11 1.224 . S
O4 C3 1.278 . S
C5 O6 1.245 1_554 S
C5 O17 1.232 . S
O6 C5 1.245 1_556 S
O7 Co1 2.058 . S
O7 C33 1.269 . S
O8 Co0 2.074 1_554 S
O8 C33 1.257 . S
H9 C34 0.930 . S
H10 C40 0.930 . S
O11 Co0 2.093 . S
O11 C3 1.224 . S
H12 C44 0.929 . S
H13 C46 0.930 . S
H14 C47 0.930 . S
H15 C45 0.929 . S
H16 C48 0.928 . S
O17 Co1 2.057 . S
O17 C5 1.232 . S
H18 C37 0.929 . S
H19 C38 0.929 . S
H20 C50 0.931 . S
H21 C42 0.929 . S
H22 C51 0.930 . S
H23 C43 0.931 . S
O24 Co0 2.097 1_554 S
O24 C52 1.214 . S
H25 C53 0.929 . S
H26 C54 0.929 . S
H27 C55 0.930 . S
H28 C56 0.929 . S
H29 C58 0.930 . S
H30 C35 0.930 . S
H31 C39 0.930 . S
O32 Co1 2.037 . S
O32 C52 1.234 . S
C33 O7 1.269 . S
C33 O8 1.257 . S
C34 H9 0.930 . S
C34 C37 1.388 . S
C34 C39 1.418 . S
C35 H30 0.930 . S
C35 C38 1.404 . S
C35 C39 1.353 . S
N36 Co1 2.145 . S
N36 C37 1.397 . S
N36 C38 1.334 . S
C37 H18 0.929 . S
C37 C34 1.388 . S
C37 N36 1.397 . S
C38 H19 0.929 . S
C38 C35 1.404 . S
C38 N36 1.334 . S
C39 H31 0.930 . S
C39 C34 1.418 . S
C39 C35 1.353 . S
C40 H10 0.930 . S
C40 N41 1.330 . S
C40 C42 1.446 . S
N41 Co0 2.151 . S
N41 C40 1.330 . S
N41 C45 1.418 . S
C42 H21 0.929 . S
C42 C40 1.446 . S
C42 C43 1.332 . S
C43 H23 0.931 . S
C43 C42 1.332 . S
C43 C44 1.267 . S
C44 H12 0.929 . S
C44 C43 1.267 . S
C44 C45 1.251 . S
C45 H15 0.929 . S
C45 N41 1.418 . S
C45 C44 1.251 . S
C46 H13 0.930 . S
C46 C48 1.406 . S
C46 C51 1.261 . S
C47 H14 0.930 . S
C47 N49 1.325 . S
C47 C50 1.357 . S
C48 H16 0.928 . S
C48 C46 1.406 . S
C48 N49 1.261 . S
N49 Co0 2.214 . S
N49 C47 1.325 . S
N49 C48 1.261 . S
C50 H20 0.931 . S
C50 C47 1.357 . S
C50 C51 1.312 . S
C51 H22 0.930 . S
C51 C46 1.261 . S
C51 C50 1.312 . S
C52 O24 1.214 . S
C52 O32 1.234 . S
C53 H25 0.929 . S
C53 C56 1.391 . S
C53 C58 1.391 . S
C54 H26 0.929 . S
C54 C55 1.390 . S
C54 N57 1.391 . S
C55 H27 0.930 . S
C55 C54 1.390 . S
C55 C56 1.392 . S
C56 H28 0.929 . S
C56 C53 1.391 . S
C56 C55 1.392 . S
N57 Co1 2.257 . S
N57 C54 1.391 . S
N57 C58 1.388 . S
C58 H29 0.930 . S
C58 C53 1.391 . S
C58 N57 1.388 . S
Co59 O61 2.143 . S
Co59 O67 2.074 . S
Co59 O70 2.093 . S
Co59 O83 2.097 . S
Co59 N100 2.151 . S
Co59 N108 2.214 . S
Co60 O61 2.160 . S
Co60 O66 2.058 . S
Co60 O76 2.057 . S
Co60 O91 2.037 . S
Co60 N95 2.145 . S
Co60 N116 2.257 . S
O61 Co59 2.143 . S
O61 Co60 2.160 . S
C62 O63 1.278 . S
C62 O70 1.224 . S
O63 C62 1.278 . S
C64 O65 1.245 . S
C64 O76 1.232 . S
O65 C64 1.245 . S
O66 Co60 2.058 . S
O66 C92 1.269 . S
O67 Co59 2.074 . S
O67 C92 1.257 . S
H68 C93 0.930 . S
H69 C99 0.930 . S
O70 Co59 2.093 . S
O70 C62 1.224 . S
H71 C103 0.929 . S
H72 C105 0.930 . S
H73 C106 0.930 . S
H74 C104 0.929 . S
H75 C107 0.928 . S
O76 Co60 2.057 . S
O76 C64 1.232 . S
H77 C96 0.929 . S
H78 C97 0.929 . S
H79 C109 0.931 . S
H80 C101 0.929 . S
H81 C110 0.930 . S
H82 C102 0.931 . S
O83 Co59 2.097 . S
O83 C111 1.214 . S
H84 C112 0.929 . S
H85 C113 0.929 . S
H86 C114 0.930 . S
H87 C115 0.929 . S
H88 C117 0.930 . S
H89 C94 0.930 . S
H90 C98 0.930 . S
O91 Co60 2.037 . S
O91 C111 1.234 . S
C92 O66 1.269 . S
C92 O67 1.257 . S
C93 H68 0.930 . S
C93 C96 1.388 . S
C93 C98 1.418 . S
C94 H89 0.930 . S
C94 C97 1.404 . S
C94 C98 1.353 . S
N95 Co60 2.145 . S
N95 C96 1.397 . S
N95 C97 1.334 . S
C96 H77 0.929 . S
C96 C93 1.388 . S
C96 N95 1.397 . S
C97 H78 0.929 . S
C97 C94 1.404 . S
C97 N95 1.334 . S
C98 H90 0.930 . S
C98 C93 1.418 . S
C98 C94 1.353 . S
C99 H69 0.930 . S
C99 N100 1.330 . S
C99 C101 1.446 . S
N100 Co59 2.151 . S
N100 C99 1.330 . S
N100 C104 1.418 . S
C101 H80 0.929 . S
C101 C99 1.446 . S
C101 C102 1.332 . S
C102 H82 0.931 . S
C102 C101 1.332 . S
C102 C103 1.267 . S
C103 H71 0.929 . S
C103 C102 1.267 . S
C103 C104 1.251 . S
C104 H74 0.929 . S
C104 N100 1.418 . S
C104 C103 1.251 . S
C105 H72 0.930 . S
C105 C107 1.406 . S
C105 C110 1.261 . S
C106 H73 0.930 . S
C106 N108 1.325 . S
C106 C109 1.357 . S
C107 H75 0.928 . S
C107 C105 1.406 . S
C107 N108 1.261 . S
N108 Co59 2.214 . S
N108 C106 1.325 . S
N108 C107 1.261 . S
C109 H79 0.931 . S
C109 C106 1.357 . S
C109 C110 1.312 . S
C110 H81 0.930 . S
C110 C105 1.261 . S
C110 C109 1.312 . S
C111 O83 1.214 . S
C111 O91 1.234 . S
C112 H84 0.929 . S
C112 C115 1.391 . S
C112 C117 1.391 . S
C113 H85 0.929 . S
C113 C114 1.390 . S
C113 N116 1.391 . S
C114 H86 0.930 . S
C114 C113 1.390 . S
C114 C115 1.392 . S
C115 H87 0.929 . S
C115 C112 1.391 . S
C115 C114 1.392 . S
N116 Co60 2.257 . S
N116 C113 1.391 . S
N116 C117 1.388 . S
C117 H88 0.930 . S
C117 C112 1.391 . S
C117 N116 1.388 . S
Co118 O120 2.143 . S
Co118 O126 2.074 . S
Co118 O129 2.093 . S
Co118 O142 2.097 . S
Co118 N159 2.151 . S
Co118 N167 2.214 . S
Co119 O120 2.160 . S
Co119 O125 2.058 . S
Co119 O135 2.057 . S
Co119 O150 2.037 . S
Co119 N154 2.145 . S
Co119 N175 2.257 . S
O120 Co118 2.143 . S
O120 Co119 2.160 . S
C121 O122 1.278 . S
C121 O129 1.224 . S
O122 C121 1.278 . S
C123 O124 1.245 . S
C123 O135 1.232 . S
O124 C123 1.245 . S
O125 Co119 2.058 . S
O125 C151 1.269 . S
O126 Co118 2.074 . S
O126 C151 1.257 . S
H127 C152 0.930 . S
H128 C158 0.930 . S
O129 Co118 2.093 . S
O129 C121 1.224 . S
H130 C162 0.929 . S
H131 C164 0.930 . S
H132 C165 0.930 . S
H133 C163 0.929 . S
H134 C166 0.928 . S
O135 Co119 2.057 . S
O135 C123 1.232 . S
H136 C155 0.929 . S
H137 C156 0.929 . S
H138 C168 0.931 . S
H139 C160 0.929 . S
H140 C169 0.930 . S
H141 C161 0.931 . S
O142 Co118 2.097 . S
O142 C170 1.214 . S
H143 C171 0.929 . S
H144 C172 0.929 . S
H145 C173 0.930 . S
H146 C174 0.929 . S
H147 C176 0.930 . S
H148 C153 0.930 . S
H149 C157 0.930 . S
O150 Co119 2.037 . S
O150 C170 1.234 . S
C151 O125 1.269 . S
C151 O126 1.257 . S
C152 H127 0.930 . S
C152 C155 1.388 . S
C152 C157 1.418 . S
C153 H148 0.930 . S
C153 C156 1.404 . S
C153 C157 1.353 . S
N154 Co119 2.145 . S
N154 C155 1.397 . S
N154 C156 1.334 . S
C155 H136 0.929 . S
C155 C152 1.388 . S
C155 N154 1.397 . S
C156 H137 0.929 . S
C156 C153 1.404 . S
C156 N154 1.334 . S
C157 H149 0.930 . S
C157 C152 1.418 . S
C157 C153 1.353 . S
C158 H128 0.930 . S
C158 N159 1.330 . S
C158 C160 1.446 . S
N159 Co118 2.151 . S
N159 C158 1.330 . S
N159 C163 1.418 . S
C160 H139 0.929 . S
C160 C158 1.446 . S
C160 C161 1.332 . S
C161 H141 0.931 . S
C161 C160 1.332 . S
C161 C162 1.267 . S
C162 H130 0.929 . S
C162 C161 1.267 . S
C162 C163 1.251 . S
C163 H133 0.929 . S
C163 N159 1.418 . S
C163 C162 1.251 . S
C164 H131 0.930 . S
C164 C166 1.406 . S
C164 C169 1.261 . S
C165 H132 0.930 . S
C165 N167 1.325 . S
C165 C168 1.357 . S
C166 H134 0.928 . S
C166 C164 1.406 . S
C166 N167 1.261 . S
N167 Co118 2.214 . S
N167 C165 1.325 . S
N167 C166 1.261 . S
C168 H138 0.931 . S
C168 C165 1.357 . S
C168 C169 1.312 . S
C169 H140 0.930 . S
C169 C164 1.261 . S
C169 C168 1.312 . S
C170 O142 1.214 . S
C170 O150 1.234 . S
C171 H143 0.929 . S
C171 C174 1.391 . S
C171 C176 1.391 . S
C172 H144 0.929 . S
C172 C173 1.390 . S
C172 N175 1.391 . S
C173 H145 0.930 . S
C173 C172 1.390 . S
C173 C174 1.392 . S
C174 H146 0.929 . S
C174 C171 1.391 . S
C174 C173 1.392 . S
N175 Co119 2.257 . S
N175 C172 1.391 . S
N175 C176 1.388 . S
C176 H147 0.930 . S
C176 C171 1.391 . S
C176 N175 1.388 . S
Co177 O179 2.143 . S
Co177 O185 2.074 . S
Co177 O188 2.093 . S
Co177 O201 2.097 . S
Co177 N218 2.151 . S
Co177 N226 2.214 . S
Co178 O179 2.160 . S
Co178 O184 2.058 . S
Co178 O194 2.057 . S
Co178 O209 2.037 . S
Co178 N213 2.145 . S
Co178 N234 2.257 . S
O179 Co177 2.143 . S
O179 Co178 2.160 . S
C180 O181 1.278 . S
C180 O188 1.224 . S
O181 C180 1.278 . S
C182 O183 1.245 . S
C182 O194 1.232 . S
O183 C182 1.245 . S
O184 Co178 2.058 . S
O184 C210 1.269 . S
O185 Co177 2.074 . S
O185 C210 1.257 . S
H186 C211 0.930 . S
H187 C217 0.930 . S
O188 Co177 2.093 . S
O188 C180 1.224 . S
H189 C221 0.929 . S
H190 C223 0.930 . S
H191 C224 0.930 . S
H192 C222 0.929 . S
H193 C225 0.928 . S
O194 Co178 2.057 . S
O194 C182 1.232 . S
H195 C214 0.929 . S
H196 C215 0.929 . S
H197 C227 0.931 . S
H198 C219 0.929 . S
H199 C228 0.930 . S
H200 C220 0.931 . S
O201 Co177 2.097 . S
O201 C229 1.214 . S
H202 C230 0.929 . S
H203 C231 0.929 . S
H204 C232 0.930 . S
H205 C233 0.929 . S
H206 C235 0.930 . S
H207 C212 0.930 . S
H208 C216 0.930 . S
O209 Co178 2.037 . S
O209 C229 1.234 . S
C210 O184 1.269 . S
C210 O185 1.257 . S
C211 H186 0.930 . S
C211 C214 1.388 . S
C211 C216 1.418 . S
C212 H207 0.930 . S
C212 C215 1.404 . S
C212 C216 1.353 . S
N213 Co178 2.145 . S
N213 C214 1.397 . S
N213 C215 1.334 . S
C214 H195 0.929 . S
C214 C211 1.388 . S
C214 N213 1.397 . S
C215 H196 0.929 . S
C215 C212 1.404 . S
C215 N213 1.334 . S
C216 H208 0.930 . S
C216 C211 1.418 . S
C216 C212 1.353 . S
C217 H187 0.930 . S
C217 N218 1.330 . S
C217 C219 1.446 . S
N218 Co177 2.151 . S
N218 C217 1.330 . S
N218 C222 1.418 . S
C219 H198 0.929 . S
C219 C217 1.446 . S
C219 C220 1.332 . S
C220 H200 0.931 . S
C220 C219 1.332 . S
C220 C221 1.267 . S
C221 H189 0.929 . S
C221 C220 1.267 . S
C221 C222 1.251 . S
C222 H192 0.929 . S
C222 N218 1.418 . S
C222 C221 1.251 . S
C223 H190 0.930 . S
C223 C225 1.406 . S
C223 C228 1.261 . S
C224 H191 0.930 . S
C224 N226 1.325 . S
C224 C227 1.357 . S
C225 H193 0.928 . S
C225 C223 1.406 . S
C225 N226 1.261 . S
N226 Co177 2.214 . S
N226 C224 1.325 . S
N226 C225 1.261 . S
C227 H197 0.931 . S
C227 C224 1.357 . S
C227 C228 1.312 . S
C228 H199 0.930 . S
C228 C223 1.261 . S
C228 C227 1.312 . S
C229 O201 1.214 . S
C229 O209 1.234 . S
C230 H202 0.929 . S
C230 C233 1.391 . S
C230 C235 1.391 . S
C231 H203 0.929 . S
C231 C232 1.390 . S
C231 N234 1.391 . S
C232 H204 0.930 . S
C232 C231 1.390 . S
C232 C233 1.392 . S
C233 H205 0.929 . S
C233 C230 1.391 . S
C233 C232 1.392 . S
N234 Co178 2.257 . S
N234 C231 1.391 . S
N234 C235 1.388 . S
C235 H206 0.930 . S
C235 C230 1.391 . S
C235 N234 1.388 . S
Co236 O238 2.143 . S
Co236 O244 2.074 . S
Co236 O247 2.093 . S
Co236 O260 2.097 . S
Co236 N277 2.151 . S
Co236 N285 2.214 . S
Co237 O238 2.160 . S
Co237 O243 2.058 . S
Co237 O253 2.057 . S
Co237 O268 2.037 . S
Co237 N272 2.145 . S
Co237 N293 2.257 . S
O238 Co236 2.143 . S
O238 Co237 2.160 . S
C239 O240 1.278 . S
C239 O247 1.224 . S
O240 C239 1.278 . S
C241 O242 1.245 . S
C241 O253 1.232 . S
O242 C241 1.245 . S
O243 Co237 2.058 . S
O243 C269 1.269 . S
O244 Co236 2.074 . S
O244 C269 1.257 . S
H245 C270 0.930 . S
H246 C276 0.930 . S
O247 Co236 2.093 . S
O247 C239 1.224 . S
H248 C280 0.929 . S
H249 C282 0.930 . S
H250 C283 0.930 . S
H251 C281 0.929 . S
H252 C284 0.928 . S
O253 Co237 2.057 . S
O253 C241 1.232 . S
H254 C273 0.929 . S
H255 C274 0.929 . S
H256 C286 0.931 . S
H257 C278 0.929 . S
H258 C287 0.930 . S
H259 C279 0.931 . S
O260 Co236 2.097 . S
O260 C288 1.214 . S
H261 C289 0.929 . S
H262 C290 0.929 . S
H263 C291 0.930 . S
H264 C292 0.929 . S
H265 C294 0.930 . S
H266 C271 0.930 . S
H267 C275 0.930 . S
O268 Co237 2.037 . S
O268 C288 1.234 . S
C269 O243 1.269 . S
C269 O244 1.257 . S
C270 H245 0.930 . S
C270 C273 1.388 . S
C270 C275 1.418 . S
C271 H266 0.930 . S
C271 C274 1.404 . S
C271 C275 1.353 . S
N272 Co237 2.145 . S
N272 C273 1.397 . S
N272 C274 1.334 . S
C273 H254 0.929 . S
C273 C270 1.388 . S
C273 N272 1.397 . S
C274 H255 0.929 . S
C274 C271 1.404 . S
C274 N272 1.334 . S
C275 H267 0.930 . S
C275 C270 1.418 . S
C275 C271 1.353 . S
C276 H246 0.930 . S
C276 N277 1.330 . S
C276 C278 1.446 . S
N277 Co236 2.151 . S
N277 C276 1.330 . S
N277 C281 1.418 . S
C278 H257 0.929 . S
C278 C276 1.446 . S
C278 C279 1.332 . S
C279 H259 0.931 . S
C279 C278 1.332 . S
C279 C280 1.267 . S
C280 H248 0.929 . S
C280 C279 1.267 . S
C280 C281 1.251 . S
C281 H251 0.929 . S
C281 N277 1.418 . S
C281 C280 1.251 . S
C282 H249 0.930 . S
C282 C284 1.406 . S
C282 C287 1.261 . S
C283 H250 0.930 . S
C283 N285 1.325 . S
C283 C286 1.357 . S
C284 H252 0.928 . S
C284 C282 1.406 . S
C284 N285 1.261 . S
N285 Co236 2.214 . S
N285 C283 1.325 . S
N285 C284 1.261 . S
C286 H256 0.931 . S
C286 C283 1.357 . S
C286 C287 1.312 . S
C287 H258 0.930 . S
C287 C282 1.261 . S
C287 C286 1.312 . S
C288 O260 1.214 . S
C288 O268 1.234 . S
C289 H261 0.929 . S
C289 C292 1.391 . S
C289 C294 1.391 . S
C290 H262 0.929 . S
C290 C291 1.390 . S
C290 N293 1.391 . S
C291 H263 0.930 . S
C291 C290 1.390 . S
C291 C292 1.392 . S
C292 H264 0.929 . S
C292 C289 1.391 . S
C292 C291 1.392 . S
N293 Co237 2.257 . S
N293 C290 1.391 . S
N293 C294 1.388 . S
C294 H265 0.930 . S
C294 C289 1.391 . S
C294 N293 1.388 . S
Co295 O297 2.143 . S
Co295 O303 2.074 . S
Co295 O306 2.093 . S
Co295 O319 2.097 1_556 S
Co295 N336 2.151 . S
Co295 N344 2.214 . S
Co296 O297 2.160 1_554 S
Co296 O302 2.058 . S
Co296 O312 2.057 . S
Co296 O327 2.037 . S
Co296 N331 2.145 . S
Co296 N352 2.257 . S
O297 Co295 2.143 . S
O297 Co296 2.160 1_556 S
C298 O299 1.278 . S
C298 O306 1.224 . S
O299 C298 1.278 . S
C300 O301 1.245 . S
C300 O312 1.232 1_556 S
O301 C300 1.245 . S
O302 Co296 2.058 . S
O302 C328 1.265 1_554 S
O303 Co295 2.074 . S
O303 C328 1.260 . S
H304 C329 0.930 . S
H305 C335 0.930 . S
O306 Co295 2.093 . S
O306 C298 1.224 . S
H307 C339 0.929 . S
H308 C341 0.930 . S
H309 C342 0.930 . S
H310 C340 0.929 . S
H311 C343 0.928 . S
O312 Co296 2.057 . S
O312 C300 1.232 1_554 S
H313 C332 0.929 . S
H314 C333 0.929 . S
H315 C345 0.931 . S
H316 C337 0.929 . S
H317 C346 0.930 . S
H318 C338 0.931 . S
O319 Co295 2.097 1_554 S
O319 C347 1.214 . S
H320 C348 0.929 . S
H321 C349 0.929 . S
H322 C350 0.930 . S
H323 C351 0.929 . S
H324 C353 0.930 . S
H325 C330 0.930 . S
H326 C334 0.930 . S
O327 Co296 2.037 . S
O327 C347 1.234 . S
C328 O302 1.265 1_556 S
C328 O303 1.260 . S
C329 H304 0.930 . S
C329 C332 1.388 . S
C329 C334 1.418 . S
C330 H325 0.930 . S
C330 C333 1.404 . S
C330 C334 1.353 . S
N331 Co296 2.145 . S
N331 C332 1.397 . S
N331 C333 1.334 . S
C332 H313 0.929 . S
C332 C329 1.388 . S
C332 N331 1.397 . S
C333 H314 0.929 . S
C333 C330 1.404 . S
C333 N331 1.334 . S
C334 H326 0.930 . S
C334 C329 1.418 . S
C334 C330 1.353 . S
C335 H305 0.930 . S
C335 N336 1.330 . S
C335 C337 1.446 . S
N336 Co295 2.151 . S
N336 C335 1.330 . S
N336 C340 1.418 . S
C337 H316 0.929 . S
C337 C335 1.446 . S
C337 C338 1.332 . S
C338 H318 0.931 . S
C338 C337 1.332 . S
C338 C339 1.267 . S
C339 H307 0.929 . S
C339 C338 1.267 . S
C339 C340 1.251 . S
C340 H310 0.929 . S
C340 N336 1.418 . S
C340 C339 1.251 . S
C341 H308 0.930 . S
C341 C343 1.406 . S
C341 C346 1.261 . S
C342 H309 0.930 . S
C342 N344 1.325 1_554 S
C342 C345 1.357 . S
C343 H311 0.928 . S
C343 C341 1.406 . S
C343 N344 1.261 . S
N344 Co295 2.214 . S
N344 C342 1.325 1_556 S
N344 C343 1.261 . S
C345 H315 0.931 . S
C345 C342 1.357 . S
C345 C346 1.312 1_554 S
C346 H317 0.930 . S
C346 C341 1.261 . S
C346 C345 1.312 1_556 S
C347 O319 1.214 . S
C347 O327 1.234 . S
C348 H320 0.929 . S
C348 C351 1.391 . S
C348 C353 1.391 . S
C349 H321 0.929 . S
C349 C350 1.390 . S
C349 N352 1.391 . S
C350 H322 0.930 . S
C350 C349 1.390 . S
C350 C351 1.392 . S
C351 H323 0.929 . S
C351 C348 1.391 . S
C351 C350 1.392 . S
N352 Co296 2.257 . S
N352 C349 1.391 . S
N352 C353 1.388 . S
C353 H324 0.930 . S
C353 C348 1.391 . S
C353 N352 1.388 . S
H354 C372 0.951 1_556 S
H355 C374 0.951 1_556 S
H356 C376 0.950 . S
H357 C377 0.950 . S
H358 C379 0.950 . S
H359 C382 0.950 . S
H360 C383 0.950 . S
H361 C385 0.950 . S
H362 C386 0.950 . S
H363 C387 0.951 . S
H364 C389 0.951 . S
H365 C391 0.950 . S
H366 C392 0.950 . S
H367 C394 0.950 . S
H368 C397 0.950 . S
H369 C398 0.950 . S
H370 C400 0.950 . S
H371 C401 0.950 . S
C372 H354 0.951 1_554 S
C372 C373 1.366 . S
C372 C374 1.388 . S
C373 C372 1.366 . S
C373 C377 1.385 . S
C374 H355 0.951 1_554 S
C374 C372 1.388 . S
C374 C375 1.366 . S
C375 C374 1.366 . S
C375 C376 1.414 . S
C375 C378 1.499 . S
C376 H356 0.950 . S
C376 C375 1.414 . S
C376 C377 1.374 . S
C377 H357 0.950 . S
C377 C373 1.385 . S
C377 C376 1.374 . S
C378 C375 1.499 . S
C378 C379 1.373 1_554 S
C378 C380 1.389 . S
C379 H358 0.950 . S
C379 C378 1.373 1_556 S
C379 C395 1.377 . S
C380 C378 1.389 . S
C380 C381 1.524 . S
C380 C394 1.377 . S
C381 C380 1.524 . S
C381 C382 1.397 . S
C381 C386 1.363 . S
C382 H359 0.950 . S
C382 C381 1.397 . S
C382 C383 1.334 . S
C383 H360 0.950 . S
C383 C382 1.334 . S
C383 C384 1.287 . S
C384 C383 1.287 . S
C384 C385 1.524 . S
C384 H403 0.913 . S
C385 H361 0.950 . S
C385 C384 1.524 . S
C385 C386 1.415 . S
C386 H362 0.950 . S
C386 C381 1.363 . S
C386 C385 1.415 . S
C387 H363 0.951 . S
C387 C388 1.366 1_554 S
C387 C389 1.388 . S
C388 C387 1.366 1_556 S
C388 C392 1.385 . S
C389 H364 0.951 . S
C389 C387 1.388 . S
C389 C390 1.368 . S
C390 C389 1.368 . S
C390 C391 1.411 1_554 S
C390 C393 1.499 . S
C391 H365 0.950 . S
C391 C390 1.411 1_556 S
C391 C392 1.374 . S
C392 H366 0.950 . S
C392 C388 1.385 . S
C392 C391 1.374 . S
C393 C390 1.499 . S
C393 C394 1.373 . S
C393 C395 1.389 1_554 S
C394 H367 0.950 . S
C394 C380 1.377 . S
C394 C393 1.373 . S
C395 C379 1.377 . S
C395 C393 1.389 1_556 S
C395 C396 1.524 . S
C396 C395 1.524 . S
C396 C397 1.397 . S
C396 C401 1.363 . S
C397 H368 0.950 . S
C397 C396 1.397 . S
C397 C398 1.334 . S
C398 H369 0.950 . S
C398 C397 1.334 . S
C398 C399 1.287 . S
C399 C398 1.287 . S
C399 C400 1.524 . S
C399 H402 0.999 . S
C400 H370 0.950 . S
C400 C399 1.524 . S
C400 C401 1.415 . S
C401 H371 0.950 . S
C401 C396 1.363 . S
C401 C400 1.415 . S
H402 C399 0.999 . S
H403 C384 0.913 . S
H404 C422 0.951 . S
H405 C424 0.951 . S
H406 C426 0.950 . S
H407 C427 0.947 1_455 S
H408 C429 0.950 . S
H409 C432 0.950 . S
H410 C433 0.950 . S
H411 C435 0.950 . S
H412 C436 0.950 . S
H413 C437 0.951 . S
H414 C439 0.951 . S
H415 C441 0.950 . S
H416 C442 0.950 . S
H417 C444 0.950 . S
H418 C447 0.950 . S
H419 C448 0.950 . S
H420 C450 0.950 . S
H421 C451 0.950 . S
C422 H404 0.951 . S
C422 C423 1.366 . S
C422 C424 1.388 . S
C423 C422 1.366 . S
C423 C427 1.390 . S
C424 H405 0.951 . S
C424 C422 1.388 . S
C424 C425 1.366 . S
C425 C424 1.366 . S
C425 C426 1.414 1_655 S
C425 C428 1.499 1_655 S
C426 H406 0.950 . S
C426 C425 1.414 1_455 S
C426 C427 1.371 1_455 S
C427 H407 0.947 1_655 S
C427 C423 1.390 . S
C427 C426 1.371 1_655 S
C428 C425 1.499 1_455 S
C428 C429 1.373 . S
C428 C430 1.389 . S
C429 H408 0.950 . S
C429 C428 1.373 . S
C429 C445 1.377 . S
C430 C428 1.389 . S
C430 C431 1.526 1_455 S
C430 C444 1.375 . S
C431 C430 1.526 1_655 S
C431 C432 1.397 . S
C431 C436 1.363 . S
C432 H409 0.950 . S
C432 C431 1.397 . S
C432 C433 1.334 . S
C433 H410 0.950 . S
C433 C432 1.334 . S
C433 C434 1.287 . S
C434 C433 1.287 . S
C434 C435 1.524 . S
C434 H453 0.913 . S
C435 H411 0.950 . S
C435 C434 1.524 . S
C435 C436 1.415 . S
C436 H412 0.950 . S
C436 C431 1.363 . S
C436 C435 1.415 . S
C437 H413 0.951 . S
C437 C438 1.366 . S
C437 C439 1.388 . S
C438 C437 1.366 . S
C438 C442 1.385 . S
C439 H414 0.951 . S
C439 C437 1.388 . S
C439 C440 1.366 . S
C440 C439 1.366 . S
C440 C441 1.414 . S
C440 C443 1.499 . S
C441 H415 0.950 . S
C441 C440 1.414 . S
C441 C442 1.374 . S
C442 H416 0.950 . S
C442 C438 1.385 . S
C442 C441 1.374 . S
C443 C440 1.499 . S
C443 C444 1.373 . S
C443 C445 1.389 . S
C444 H417 0.950 . S
C444 C430 1.375 . S
C444 C443 1.373 . S
C445 C429 1.377 . S
C445 C443 1.389 . S
C445 C446 1.524 . S
C446 C445 1.524 . S
C446 C447 1.397 . S
C446 C451 1.363 . S
C447 H418 0.950 . S
C447 C446 1.397 . S
C447 C448 1.334 . S
C448 H419 0.950 . S
C448 C447 1.334 . S
C448 C449 1.287 . S
C449 C448 1.287 . S
C449 C450 1.524 . S
C449 H452 0.999 . S
C450 H420 0.950 . S
C450 C449 1.524 . S
C450 C451 1.415 . S
C451 H421 0.950 . S
C451 C446 1.363 . S
C451 C450 1.415 . S
H452 C449 0.999 . S
H453 C434 0.913 . S
H454 C472 0.951 . S
H455 C474 0.951 . S
H456 C476 0.950 . S
H457 C477 0.950 . S
H458 C479 0.950 . S
H459 C482 0.950 . S
H460 C483 0.950 . S
H461 C485 0.950 . S
H462 C486 0.950 . S
H463 C487 0.951 . S
H464 C489 0.951 . S
H465 C491 0.950 . S
H466 C492 0.950 . S
H467 C494 0.950 . S
H468 C497 0.950 . S
H469 C498 0.950 . S
H470 C500 0.950 . S
H471 C501 0.950 . S
C472 H454 0.951 . S
C472 C473 1.366 . S
C472 C474 1.388 . S
C473 C472 1.366 . S
C473 C477 1.385 . S
C474 H455 0.951 . S
C474 C472 1.388 . S
C474 C475 1.366 . S
C475 C474 1.366 . S
C475 C476 1.414 . S
C475 C478 1.499 . S
C476 H456 0.950 . S
C476 C475 1.414 . S
C476 C477 1.374 . S
C477 H457 0.950 . S
C477 C473 1.385 . S
C477 C476 1.374 . S
C478 C475 1.499 . S
C478 C479 1.373 . S
C478 C480 1.389 . S
C479 H458 0.950 . S
C479 C478 1.373 . S
C479 C495 1.377 . S
C480 C478 1.389 . S
C480 C481 1.524 . S
C480 C494 1.377 . S
C481 C480 1.524 . S
C481 C482 1.397 . S
C481 C486 1.363 . S
C482 H459 0.950 . S
C482 C481 1.397 . S
C482 C483 1.334 . S
C483 H460 0.950 . S
C483 C482 1.334 . S
C483 C484 1.287 . S
C484 C483 1.287 . S
C484 C485 1.524 . S
C484 H503 0.913 . S
C485 H461 0.950 . S
C485 C484 1.524 . S
C485 C486 1.415 . S
C486 H462 0.950 . S
C486 C481 1.363 . S
C486 C485 1.415 . S
C487 H463 0.951 . S
C487 C488 1.366 . S
C487 C489 1.388 . S
C488 C487 1.366 . S
C488 C492 1.385 . S
C489 H464 0.951 . S
C489 C487 1.388 . S
C489 C490 1.366 . S
C490 C489 1.366 . S
C490 C491 1.414 . S
C490 C493 1.499 . S
C491 H465 0.950 . S
C491 C490 1.414 . S
C491 C492 1.374 . S
C492 H466 0.950 . S
C492 C488 1.385 . S
C492 C491 1.374 . S
C493 C490 1.499 . S
C493 C494 1.373 1_565 S
C493 C495 1.389 1_565 S
C494 H467 0.950 . S
C494 C480 1.377 . S
C494 C493 1.373 1_545 S
C495 C479 1.377 . S
C495 C493 1.389 1_545 S
C495 C496 1.524 1_545 S
C496 C495 1.524 1_565 S
C496 C497 1.397 . S
C496 C501 1.363 1_565 S
C497 H468 0.950 . S
C497 C496 1.397 . S
C497 C498 1.334 . S
C498 H469 0.950 . S
C498 C497 1.334 . S
C498 C499 1.287 . S
C499 C498 1.287 . S
C499 C500 1.524 . S
C499 H502 0.999 . S
C500 H470 0.950 . S
C500 C499 1.524 . S
C500 C501 1.415 1_565 S
C501 H471 0.950 . S
C501 C496 1.363 1_545 S
C501 C500 1.415 1_545 S
H502 C499 0.999 . S
H503 C484 0.913 . S
H504 C522 0.951 . S
H505 C524 0.951 . S
H506 C526 0.950 . S
H507 C527 0.950 . S
H508 C529 0.950 . S
H509 C532 0.950 . S
H510 C533 0.950 . S
H511 C535 0.950 . S
H512 C536 0.950 1_556 S
H513 C537 0.951 . S
H514 C539 0.951 . S
H515 C541 0.950 . S
H516 C542 0.950 . S
H517 C544 0.950 . S
H518 C547 0.950 . S
H519 C548 0.950 . S
H520 C550 0.950 . S
H521 C551 0.950 1_554 S
C522 H504 0.951 . S
C522 C523 1.366 . S
C522 C524 1.388 . S
C523 C522 1.366 . S
C523 C527 1.385 . S
C524 H505 0.951 . S
C524 C522 1.388 . S
C524 C525 1.366 . S
C525 C524 1.366 . S
C525 C526 1.414 . S
C525 C528 1.499 . S
C526 H506 0.950 . S
C526 C525 1.414 . S
C526 C527 1.374 . S
C527 H507 0.950 . S
C527 C523 1.385 . S
C527 C526 1.374 . S
C528 C525 1.499 . S
C528 C529 1.373 . S
C528 C530 1.389 . S
C529 H508 0.950 . S
C529 C528 1.373 . S
C529 C545 1.377 1_554 S
C530 C528 1.389 . S
C530 C531 1.524 . S
C530 C544 1.377 1_554 S
C531 C530 1.524 . S
C531 C532 1.397 . S
C531 C536 1.363 . S
C532 H509 0.950 . S
C532 C531 1.397 . S
C532 C533 1.334 . S
C533 H510 0.950 . S
C533 C532 1.334 . S
C533 C534 1.287 . S
C534 C533 1.287 . S
C534 C535 1.524 . S
C534 H553 0.913 . S
C535 H511 0.950 . S
C535 C534 1.524 . S
C535 C536 1.415 . S
C536 H512 0.950 1_554 S
C536 C531 1.363 . S
C536 C535 1.415 . S
C537 H513 0.951 . S
C537 C538 1.366 . S
C537 C539 1.388 . S
C538 C537 1.366 . S
C538 C542 1.385 . S
C539 H514 0.951 . S
C539 C537 1.388 . S
C539 C540 1.366 . S
C540 C539 1.366 . S
C540 C541 1.414 . S
C540 C543 1.499 . S
C541 H515 0.950 . S
C541 C540 1.414 . S
C541 C542 1.374 . S
C542 H516 0.950 . S
C542 C538 1.385 . S
C542 C541 1.374 . S
C543 C540 1.499 . S
C543 C544 1.373 . S
C543 C545 1.389 . S
C544 H517 0.950 . S
C544 C530 1.377 1_556 S
C544 C543 1.373 . S
C545 C529 1.377 1_556 S
C545 C543 1.389 . S
C545 C546 1.524 . S
C546 C545 1.524 . S
C546 C547 1.397 . S
C546 C551 1.363 . S
C547 H518 0.950 . S
C547 C546 1.397 . S
C547 C548 1.334 . S
C548 H519 0.950 . S
C548 C547 1.334 . S
C548 C549 1.287 . S
C549 C548 1.287 . S
C549 C550 1.524 . S
C549 H552 0.999 . S
C550 H520 0.950 . S
C550 C549 1.524 . S
C550 C551 1.415 . S
C551 H521 0.950 1_556 S
C551 C546 1.363 . S
C551 C550 1.415 . S
H552 C549 0.999 . S
H553 C534 0.913 . S
H554 C572 0.951 . S
H555 C574 0.951 . S
H556 C576 0.950 . S
H557 C577 0.950 . S
H558 C579 0.950 . S
H559 C582 0.950 . S
H560 C583 0.950 . S
H561 C585 0.950 . S
H562 C586 0.950 . S
H563 C587 0.951 . S
H564 C589 0.951 . S
H565 C591 0.950 . S
H566 C592 0.950 . S
H567 C594 0.950 . S
H568 C597 0.950 . S
H569 C598 0.950 . S
H570 C600 0.950 . S
H571 C601 0.950 . S
C572 H554 0.951 . S
C572 C573 1.366 . S
C572 C574 1.388 . S
C573 C572 1.366 . S
C573 C577 1.385 . S
C574 H555 0.951 . S
C574 C572 1.388 . S
C574 C575 1.366 . S
C575 C574 1.366 . S
C575 C576 1.414 . S
C575 C578 1.499 . S
C576 H556 0.950 . S
C576 C575 1.414 . S
C576 C577 1.374 . S
C577 H557 0.950 . S
C577 C573 1.385 . S
C577 C576 1.374 . S
C578 C575 1.499 . S
C578 C579 1.373 . S
C578 C580 1.389 . S
C579 H558 0.950 . S
C579 C578 1.373 . S
C579 C595 1.377 . S
C580 C578 1.389 . S
C580 C581 1.524 . S
C580 C594 1.377 . S
C581 C580 1.524 . S
C581 C582 1.397 . S
C581 C586 1.363 . S
C582 H559 0.950 . S
C582 C581 1.397 . S
C582 C583 1.334 . S
C583 H560 0.950 . S
C583 C582 1.334 . S
C583 C584 1.287 . S
C584 C583 1.287 . S
C584 C585 1.524 . S
C584 H603 0.913 . S
C585 H561 0.950 . S
C585 C584 1.524 . S
C585 C586 1.415 . S
C586 H562 0.950 . S
C586 C581 1.363 . S
C586 C585 1.415 . S
C587 H563 0.951 . S
C587 C588 1.366 . S
C587 C589 1.388 . S
C588 C587 1.366 . S
C588 C592 1.385 . S
C589 H564 0.951 . S
C589 C587 1.388 . S
C589 C590 1.366 . S
C590 C589 1.366 . S
C590 C591 1.414 . S
C590 C593 1.499 . S
C591 H565 0.950 . S
C591 C590 1.414 . S
C591 C592 1.374 . S
C592 H566 0.950 . S
C592 C588 1.385 . S
C592 C591 1.374 . S
C593 C590 1.499 . S
C593 C594 1.373 1_455 S
C593 C595 1.389 1_455 S
C594 H567 0.950 . S
C594 C580 1.377 . S
C594 C593 1.373 1_655 S
C595 C579 1.377 . S
C595 C593 1.389 1_655 S
C595 C596 1.502 1_655 S
C596 C595 1.502 1_455 S
C596 C597 1.408 . S
C596 C601 1.372 1_455 S
C597 H568 0.950 . S
C597 C596 1.408 . S
C597 C598 1.334 . S
C598 H569 0.950 . S
C598 C597 1.334 . S
C598 C599 1.287 . S
C599 C598 1.287 . S
C599 C600 1.524 . S
C599 H602 0.999 . S
C600 H570 0.950 . S
C600 C599 1.524 . S
C600 C601 1.415 1_455 S
C601 H571 0.950 . S
C601 C596 1.372 1_655 S
C601 C600 1.415 1_655 S
H602 C599 0.999 . S
H603 C584 0.913 . S
H604 C622 0.951 . S
H605 C624 0.951 . S
H606 C626 0.950 . S
H607 C627 0.950 1_565 S
H608 C629 0.950 . S
H609 C632 0.950 . S
H610 C633 0.950 . S
H611 C635 0.950 . S
H612 C636 0.950 . S
H613 C637 0.951 . S
H614 C639 0.951 . S
H615 C641 0.950 . S
H616 C642 0.950 . S
H617 C644 0.950 . S
H618 C647 0.950 . S
H619 C648 0.950 . S
H620 C650 0.950 . S
H621 C651 0.950 . S
C622 H604 0.951 . S
C622 C623 1.366 . S
C622 C624 1.388 . S
C623 C622 1.366 . S
C623 C627 1.385 . S
C624 H605 0.951 . S
C624 C622 1.388 . S
C624 C625 1.366 . S
C625 C624 1.366 . S
C625 C626 1.414 1_545 S
C625 C628 1.499 1_545 S
C626 H606 0.950 . S
C626 C625 1.414 1_565 S
C626 C627 1.374 1_565 S
C627 H607 0.950 1_545 S
C627 C623 1.385 . S
C627 C626 1.374 1_545 S
C628 C625 1.499 1_565 S
C628 C629 1.373 . S
C628 C630 1.389 . S
C629 H608 0.950 . S
C629 C628 1.373 . S
C629 C645 1.377 . S
C630 C628 1.389 . S
C630 C631 1.524 1_565 S
C630 C644 1.377 . S
C631 C630 1.524 1_545 S
C631 C632 1.397 1_545 S
C631 C636 1.363 . S
C632 H609 0.950 . S
C632 C631 1.397 1_565 S
C632 C633 1.334 1_565 S
C633 H610 0.950 . S
C633 C632 1.334 1_545 S
C633 C634 1.287 . S
C634 C633 1.287 . S
C634 C635 1.524 . S
C634 H653 0.913 . S
C635 H611 0.950 . S
C635 C634 1.524 . S
C635 C636 1.415 . S
C636 H612 0.950 . S
C636 C631 1.363 . S
C636 C635 1.415 . S
C637 H613 0.951 . S
C637 C638 1.366 . S
C637 C639 1.388 . S
C638 C637 1.366 . S
C638 C642 1.385 . S
C639 H614 0.951 . S
C639 C637 1.388 . S
C639 C640 1.366 . S
C640 C639 1.366 . S
C640 C641 1.414 . S
C640 C643 1.499 . S
C641 H615 0.950 . S
C641 C640 1.414 . S
C641 C642 1.374 . S
C642 H616 0.950 . S
C642 C638 1.385 . S
C642 C641 1.374 . S
C643 C640 1.499 . S
C643 C644 1.373 . S
C643 C645 1.389 . S
C644 H617 0.950 . S
C644 C630 1.377 . S
C644 C643 1.373 . S
C645 C629 1.377 . S
C645 C643 1.389 . S
C645 C646 1.524 . S
C646 C645 1.524 . S
C646 C647 1.397 . S
C646 C651 1.363 . S
C647 H618 0.950 . S
C647 C646 1.397 . S
C647 C648 1.334 . S
C648 H619 0.950 . S
C648 C647 1.334 . S
C648 C649 1.287 . S
C649 C648 1.287 . S
C649 C650 1.524 . S
C649 H652 0.999 . S
C650 H620 0.950 . S
C650 C649 1.524 . S
C650 C651 1.415 . S
C651 H621 0.950 . S
C651 C646 1.363 . S
C651 C650 1.415 . S
H652 C649 0.999 . S
H653 C634 0.913 . S
H654 C672 0.951 . S
H655 C674 0.951 . S
H656 C676 0.950 . S
H657 C677 0.950 . S
H658 C679 0.950 . S
H659 C682 0.950 1_554 S
H660 C683 0.950 . S
H661 C685 0.950 . S
H662 C686 0.950 1_554 S
H663 C687 0.951 . S
H664 C689 0.951 . S
H665 C691 0.950 . S
H666 C692 0.950 . S
H667 C694 0.950 . S
H668 C697 0.950 . S
H669 C698 0.950 . S
H670 C700 0.950 . S
H671 C701 0.950 . S
C672 H654 0.951 . S
C672 C673 1.366 . S
C672 C674 1.388 . S
C673 C672 1.366 . S
C673 C677 1.385 . S
C674 H655 0.951 . S
C674 C672 1.388 . S
C674 C675 1.366 . S
C675 C674 1.366 . S
C675 C676 1.414 . S
C675 C678 1.499 . S
C676 H656 0.950 . S
C676 C675 1.414 . S
C676 C677 1.374 . S
C677 H657 0.950 . S
C677 C673 1.385 . S
C677 C676 1.374 . S
C678 C675 1.499 . S
C678 C679 1.373 . S
C678 C680 1.389 . S
C679 H658 0.950 . S
C679 C678 1.373 . S
C679 C695 1.377 . S
C680 C678 1.389 . S
C680 C681 1.524 . S
C680 C694 1.377 . S
C681 C680 1.524 . S
C681 C682 1.397 1_554 S
C681 C686 1.363 1_554 S
C682 H659 0.950 1_556 S
C682 C681 1.397 1_556 S
C682 C683 1.334 . S
C683 H660 0.950 . S
C683 C682 1.334 . S
C683 C684 1.287 . S
C684 C683 1.287 . S
C684 C685 1.524 . S
C684 H703 0.913 . S
C685 H661 0.950 . S
C685 C684 1.524 . S
C685 C686 1.415 . S
C686 H662 0.950 1_556 S
C686 C681 1.363 1_556 S
C686 C685 1.415 . S
C687 H663 0.951 . S
C687 C688 1.366 . S
C687 C689 1.388 . S
C688 C687 1.366 . S
C688 C692 1.385 . S
C689 H664 0.951 . S
C689 C687 1.388 . S
C689 C690 1.366 . S
C690 C689 1.366 . S
C690 C691 1.414 . S
C690 C693 1.499 . S
C691 H665 0.950 . S
C691 C690 1.414 . S
C691 C692 1.374 . S
C692 H666 0.950 . S
C692 C688 1.385 . S
C692 C691 1.374 . S
C693 C690 1.499 . S
C693 C694 1.373 . S
C693 C695 1.389 . S
C694 H667 0.950 . S
C694 C680 1.377 . S
C694 C693 1.373 . S
C695 C679 1.377 . S
C695 C693 1.389 . S
C695 C696 1.524 . S
C696 C695 1.524 . S
C696 C697 1.397 . S
C696 C701 1.363 . S
C697 H668 0.950 . S
C697 C696 1.397 . S
C697 C698 1.334 . S
C698 H669 0.950 . S
C698 C697 1.334 . S
C698 C699 1.287 . S
C699 C698 1.287 . S
C699 C700 1.524 . S
C699 H702 0.999 . S
C700 H670 0.950 . S
C700 C699 1.524 . S
C700 C701 1.415 . S
C701 H671 0.950 . S
C701 C696 1.363 . S
C701 C700 1.415 . S
H702 C699 0.999 . S
H703 C684 0.913 . S
H704 C722 0.951 . S
H705 C724 0.951 . S
H706 C726 0.950 . S
H707 C727 0.950 . S
H708 C729 0.950 . S
H709 C732 0.950 1_554 S
H710 C733 0.950 . S
H711 C735 0.950 . S
H712 C736 0.950 . S
H713 C737 0.951 . S
H714 C739 0.951 . S
H715 C741 0.950 . S
H716 C742 0.950 . S
H717 C744 0.950 . S
H718 C747 0.950 . S
H719 C748 0.950 . S
H720 C750 0.950 . S
H721 C751 0.950 . S
C722 H704 0.951 . S
C722 C723 1.366 . S
C722 C724 1.388 . S
C723 C722 1.366 . S
C723 C727 1.385 . S
C724 H705 0.951 . S
C724 C722 1.388 . S
C724 C725 1.366 . S
C725 C724 1.366 . S
C725 C726 1.414 . S
C725 C728 1.499 . S
C726 H706 0.950 . S
C726 C725 1.414 . S
C726 C727 1.374 . S
C727 H707 0.950 . S
C727 C723 1.385 . S
C727 C726 1.374 . S
C728 C725 1.499 . S
C728 C729 1.373 . S
C728 C730 1.389 . S
C729 H708 0.950 . S
C729 C728 1.373 . S
C729 C745 1.377 . S
C730 C728 1.389 . S
C730 C731 1.524 . S
C730 C744 1.377 . S
C731 C730 1.524 . S
C731 C732 1.397 . S
C731 C736 1.363 . S
C732 H709 0.950 1_556 S
C732 C731 1.397 . S
C732 C733 1.334 1_556 S
C733 H710 0.950 . S
C733 C732 1.334 1_554 S
C733 C734 1.287 1_554 S
C734 C733 1.287 1_556 S
C734 C735 1.524 . S
C734 H753 0.913 1_556 S
C735 H711 0.950 . S
C735 C734 1.524 . S
C735 C736 1.415 . S
C736 H712 0.950 . S
C736 C731 1.363 . S
C736 C735 1.415 . S
C737 H713 0.951 . S
C737 C738 1.366 . S
C737 C739 1.388 . S
C738 C737 1.366 . S
C738 C742 1.385 . S
C739 H714 0.951 . S
C739 C737 1.388 . S
C739 C740 1.366 . S
C740 C739 1.366 . S
C740 C741 1.414 . S
C740 C743 1.499 . S
C741 H715 0.950 . S
C741 C740 1.414 . S
C741 C742 1.374 . S
C742 H716 0.950 . S
C742 C738 1.385 . S
C742 C741 1.374 . S
C743 C740 1.499 . S
C743 C744 1.373 . S
C743 C745 1.389 . S
C744 H717 0.950 . S
C744 C730 1.377 . S
C744 C743 1.373 . S
C745 C729 1.377 . S
C745 C743 1.389 . S
C745 C746 1.524 . S
C746 C745 1.524 . S
C746 C747 1.397 . S
C746 C751 1.363 . S
C747 H718 0.950 . S
C747 C746 1.397 . S
C747 C748 1.334 . S
C748 H719 0.950 . S
C748 C747 1.334 . S
C748 C749 1.287 . S
C749 C748 1.287 . S
C749 C750 1.524 . S
C749 H752 0.999 . S
C750 H720 0.950 . S
C750 C749 1.524 . S
C750 C751 1.415 . S
C751 H721 0.950 . S
C751 C746 1.363 . S
C751 C750 1.415 . S
H752 C749 0.999 . S
H753 C734 0.913 1_554 S
H754 C772 0.951 . S
H755 C774 0.951 . S
H756 C776 0.950 . S
H757 C777 0.950 . S
H758 C779 0.950 . S
H759 C782 0.950 . S
H760 C783 0.950 . S
H761 C785 0.950 . S
H762 C786 0.950 . S
H763 C787 0.951 . S
H764 C789 0.951 . S
H765 C791 0.950 . S
H766 C792 0.950 . S
H767 C794 0.950 . S
H768 C797 0.950 . S
H769 C798 0.950 . S
H770 C800 0.950 . S
H771 C801 0.950 . S
C772 H754 0.951 . S
C772 C773 1.366 . S
C772 C774 1.388 . S
C773 C772 1.366 . S
C773 C777 1.385 . S
C774 H755 0.951 . S
C774 C772 1.388 . S
C774 C775 1.366 . S
C775 C774 1.366 . S
C775 C776 1.414 . S
C775 C778 1.499 . S
C776 H756 0.950 . S
C776 C775 1.414 . S
C776 C777 1.374 . S
C777 H757 0.950 . S
C777 C773 1.385 . S
C777 C776 1.374 . S
C778 C775 1.499 . S
C778 C779 1.373 . S
C778 C780 1.389 . S
C779 H758 0.950 . S
C779 C778 1.373 . S
C779 C795 1.377 . S
C780 C778 1.389 . S
C780 C781 1.524 . S
C780 C794 1.377 . S
C781 C780 1.524 . S
C781 C782 1.397 . S
C781 C786 1.363 . S
C782 H759 0.950 . S
C782 C781 1.397 . S
C782 C783 1.334 . S
C783 H760 0.950 . S
C783 C782 1.334 . S
C783 C784 1.287 . S
C784 C783 1.287 . S
C784 C785 1.524 . S
C784 H803 0.913 . S
C785 H761 0.950 . S
C785 C784 1.524 . S
C785 C786 1.415 . S
C786 H762 0.950 . S
C786 C781 1.363 . S
C786 C785 1.415 . S
C787 H763 0.951 . S
C787 C788 1.366 . S
C787 C789 1.388 . S
C788 C787 1.366 . S
C788 C792 1.385 . S
C789 H764 0.951 . S
C789 C787 1.388 . S
C789 C790 1.366 . S
C790 C789 1.366 . S
C790 C791 1.414 . S
C790 C793 1.499 . S
C791 H765 0.950 . S
C791 C790 1.414 . S
C791 C792 1.374 . S
C792 H766 0.950 . S
C792 C788 1.385 . S
C792 C791 1.374 . S
C793 C790 1.499 . S
C793 C794 1.373 . S
C793 C795 1.389 . S
C794 H767 0.950 . S
C794 C780 1.377 . S
C794 C793 1.373 . S
C795 C779 1.377 . S
C795 C793 1.389 . S
C795 C796 1.524 . S
C796 C795 1.524 . S
C796 C797 1.397 . S
C796 C801 1.363 . S
C797 H768 0.950 . S
C797 C796 1.397 . S
C797 C798 1.334 . S
C798 H769 0.950 . S
C798 C797 1.334 . S
C798 C799 1.287 . S
C799 C798 1.287 . S
C799 C800 1.524 . S
C799 H802 0.999 . S
C800 H770 0.950 . S
C800 C799 1.524 . S
C800 C801 1.415 . S
C801 H771 0.950 . S
C801 C796 1.363 . S
C801 C800 1.415 . S
H802 C799 0.999 . S
H803 C784 0.913 . S
H804 C822 0.951 . S
H805 C824 0.951 . S
H806 C826 0.950 . S
H807 C827 0.950 . S
H808 C829 0.950 . S
H809 C832 0.950 . S
H810 C833 0.950 . S
H811 C835 0.950 . S
H812 C836 0.950 . S
H813 C837 0.951 . S
H814 C839 0.951 . S
H815 C841 0.950 . S
H816 C842 0.950 . S
H817 C844 0.950 . S
H818 C847 0.950 . S
H819 C848 0.950 . S
H820 C850 0.950 . S
H821 C851 0.950 . S
C822 H804 0.951 . S
C822 C823 1.366 . S
C822 C824 1.388 . S
C823 C822 1.366 . S
C823 C827 1.385 . S
C824 H805 0.951 . S
C824 C822 1.388 . S
C824 C825 1.366 . S
C825 C824 1.366 . S
C825 C826 1.414 . S
C825 C828 1.499 . S
C826 H806 0.950 . S
C826 C825 1.414 . S
C826 C827 1.374 . S
C827 H807 0.950 . S
C827 C823 1.385 . S
C827 C826 1.374 . S
C828 C825 1.499 . S
C828 C829 1.373 . S
C828 C830 1.389 . S
C829 H808 0.950 . S
C829 C828 1.373 . S
C829 C845 1.377 . S
C830 C828 1.389 . S
C830 C831 1.524 . S
C830 C844 1.377 . S
C831 C830 1.524 . S
C831 C832 1.397 . S
C831 C836 1.363 . S
C832 H809 0.950 . S
C832 C831 1.397 . S
C832 C833 1.334 . S
C833 H810 0.950 . S
C833 C832 1.334 . S
C833 C834 1.287 . S
C834 C833 1.287 . S
C834 C835 1.524 . S
C834 H853 0.913 . S
C835 H811 0.950 . S
C835 C834 1.524 . S
C835 C836 1.415 . S
C836 H812 0.950 . S
C836 C831 1.363 . S
C836 C835 1.415 . S
C837 H813 0.951 . S
C837 C838 1.366 . S
C837 C839 1.388 . S
C838 C837 1.366 . S
C838 C842 1.385 . S
C839 H814 0.951 . S
C839 C837 1.388 . S
C839 C840 1.366 . S
C840 C839 1.366 . S
C840 C841 1.414 . S
C840 C843 1.499 . S
C841 H815 0.950 . S
C841 C840 1.414 . S
C841 C842 1.374 . S
C842 H816 0.950 . S
C842 C838 1.385 . S
C842 C841 1.374 . S
C843 C840 1.499 . S
C843 C844 1.373 . S
C843 C845 1.389 . S
C844 H817 0.950 . S
C844 C830 1.377 . S
C844 C843 1.373 . S
C845 C829 1.377 . S
C845 C843 1.389 . S
C845 C846 1.524 . S
C846 C845 1.524 . S
C846 C847 1.397 . S
C846 C851 1.363 . S
C847 H818 0.950 . S
C847 C846 1.397 . S
C847 C848 1.334 . S
C848 H819 0.950 . S
C848 C847 1.334 . S
C848 C849 1.287 . S
C849 C848 1.287 . S
C849 C850 1.524 . S
C849 H852 0.999 . S
C850 H820 0.950 . S
C850 C849 1.524 . S
C850 C851 1.415 . S
C851 H821 0.950 . S
C851 C846 1.363 . S
C851 C850 1.415 . S
H852 C849 0.999 . S
H853 C834 0.913 . S
H854 C872 0.951 . S
H855 C874 0.951 . S
H856 C876 0.950 . S
H857 C877 0.950 . S
H858 C879 0.950 . S
H859 C882 0.950 . S
H860 C883 0.950 . S
H861 C885 0.950 . S
H862 C886 0.950 . S
H863 C887 0.951 . S
H864 C889 0.951 . S
H865 C891 0.950 . S
H866 C892 0.950 . S
H867 C894 0.950 . S
H868 C897 0.950 . S
H869 C898 0.950 . S
H870 C900 0.950 . S
H871 C901 0.950 . S
C872 H854 0.951 . S
C872 C873 1.366 . S
C872 C874 1.388 . S
C873 C872 1.366 . S
C873 C877 1.385 . S
C874 H855 0.951 . S
C874 C872 1.388 . S
C874 C875 1.366 . S
C875 C874 1.366 . S
C875 C876 1.414 . S
C875 C878 1.499 . S
C876 H856 0.950 . S
C876 C875 1.414 . S
C876 C877 1.374 . S
C877 H857 0.950 . S
C877 C873 1.385 . S
C877 C876 1.374 . S
C878 C875 1.499 . S
C878 C879 1.373 . S
C878 C880 1.389 . S
C879 H858 0.950 . S
C879 C878 1.373 . S
C879 C895 1.377 . S
C880 C878 1.389 . S
C880 C881 1.524 . S
C880 C894 1.377 . S
C881 C880 1.524 . S
C881 C882 1.397 . S
C881 C886 1.363 . S
C882 H859 0.950 . S
C882 C881 1.397 . S
C882 C883 1.334 . S
C883 H860 0.950 . S
C883 C882 1.334 . S
C883 C884 1.287 . S
C884 C883 1.287 . S
C884 C885 1.524 . S
C884 H903 0.913 . S
C885 H861 0.950 . S
C885 C884 1.524 . S
C885 C886 1.415 . S
C886 H862 0.950 . S
C886 C881 1.363 . S
C886 C885 1.415 . S
C887 H863 0.951 . S
C887 C888 1.366 . S
C887 C889 1.388 . S
C888 C887 1.366 . S
C888 C892 1.385 . S
C889 H864 0.951 . S
C889 C887 1.388 . S
C889 C890 1.366 . S
C890 C889 1.366 . S
C890 C891 1.414 . S
C890 C893 1.499 . S
C891 H865 0.950 . S
C891 C890 1.414 . S
C891 C892 1.374 . S
C892 H866 0.950 . S
C892 C888 1.385 . S
C892 C891 1.374 . S
C893 C890 1.499 . S
C893 C894 1.373 . S
C893 C895 1.389 . S
C894 H867 0.950 . S
C894 C880 1.377 . S
C894 C893 1.373 . S
C895 C879 1.377 . S
C895 C893 1.389 . S
C895 C896 1.524 . S
C896 C895 1.524 . S
C896 C897 1.397 . S
C896 C901 1.363 . S
C897 H868 0.950 . S
C897 C896 1.397 . S
C897 C898 1.334 . S
C898 H869 0.950 . S
C898 C897 1.334 . S
C898 C899 1.287 . S
C899 C898 1.287 . S
C899 C900 1.524 . S
C899 H902 0.999 . S
C900 H870 0.950 . S
C900 C899 1.524 . S
C900 C901 1.415 . S
C901 H871 0.950 . S
C901 C896 1.363 . S
C901 C900 1.415 . S
H902 C899 0.999 . S
H903 C884 0.913 . S
H904 C922 0.951 . S
H905 C924 0.951 . S
H906 C926 0.950 . S
H907 C927 0.950 . S
H908 C929 0.950 . S
H909 C932 0.950 . S
H910 C933 0.950 . S
H911 C935 0.950 . S
H912 C936 0.950 . S
H913 C937 0.951 . S
H914 C939 0.951 . S
H915 C941 0.950 . S
H916 C942 0.950 . S
H917 C944 0.950 . S
H918 C947 0.950 . S
H919 C948 0.950 . S
H920 C950 0.950 . S
H921 C951 0.950 . S
C922 H904 0.951 . S
C922 C923 1.366 . S
C922 C924 1.388 . S
C923 C922 1.366 . S
C923 C927 1.385 . S
C924 H905 0.951 . S
C924 C922 1.388 . S
C924 C925 1.366 . S
C925 C924 1.366 . S
C925 C926 1.414 . S
C925 C928 1.499 . S
C926 H906 0.950 . S
C926 C925 1.414 . S
C926 C927 1.374 . S
C927 H907 0.950 . S
C927 C923 1.385 . S
C927 C926 1.374 . S
C928 C925 1.499 . S
C928 C929 1.373 . S
C928 C930 1.389 . S
C929 H908 0.950 . S
C929 C928 1.373 . S
C929 C945 1.377 . S
C930 C928 1.389 . S
C930 C931 1.524 . S
C930 C944 1.377 . S
C931 C930 1.524 . S
C931 C932 1.397 . S
C931 C936 1.363 . S
C932 H909 0.950 . S
C932 C931 1.397 . S
C932 C933 1.334 . S
C933 H910 0.950 . S
C933 C932 1.334 . S
C933 C934 1.287 . S
C934 C933 1.287 . S
C934 C935 1.524 . S
C934 H953 0.913 . S
C935 H911 0.950 . S
C935 C934 1.524 . S
C935 C936 1.415 . S
C936 H912 0.950 . S
C936 C931 1.363 . S
C936 C935 1.415 . S
C937 H913 0.951 . S
C937 C938 1.366 . S
C937 C939 1.388 . S
C938 C937 1.366 . S
C938 C942 1.385 . S
C939 H914 0.951 . S
C939 C937 1.388 . S
C939 C940 1.366 . S
C940 C939 1.366 . S
C940 C941 1.414 . S
C940 C943 1.499 . S
C941 H915 0.950 . S
C941 C940 1.414 . S
C941 C942 1.374 . S
C942 H916 0.950 . S
C942 C938 1.385 . S
C942 C941 1.374 . S
C943 C940 1.499 . S
C943 C944 1.373 . S
C943 C945 1.389 . S
C944 H917 0.950 . S
C944 C930 1.377 . S
C944 C943 1.373 . S
C945 C929 1.377 . S
C945 C943 1.389 . S
C945 C946 1.524 . S
C946 C945 1.524 . S
C946 C947 1.397 . S
C946 C951 1.363 . S
C947 H918 0.950 . S
C947 C946 1.397 . S
C947 C948 1.334 . S
C948 H919 0.950 . S
C948 C947 1.334 . S
C948 C949 1.287 . S
C949 C948 1.287 . S
C949 C950 1.524 . S
C949 H952 0.999 . S
C950 H920 0.950 . S
C950 C949 1.524 . S
C950 C951 1.415 . S
C951 H921 0.950 . S
C951 C946 1.363 . S
C951 C950 1.415 . S
H952 C949 0.999 . S
H953 C934 0.913 . S
C373 C5 1.318 . S
C388 C328 1.317 . S
C423 C64 2.135 . S
C438 C33 2.132 . S
C473 C92 1.379 . S
C488 C123 1.381 . S
C523 C182 2.142 . S
C538 C151 2.132 . S
C573 C210 1.386 . S
C588 C241 1.387 . S
C623 C300 2.146 . S
C638 C269 2.124 . S
C673 C239 1.350 . S
C688 C52 1.473 . S
C723 C298 1.485 . S
C738 C111 1.400 . S
C773 C170 1.510 . S
C788 C3 1.394 . S
C823 C229 1.448 . S
C838 C62 1.526 . S
C873 C288 1.497 . S
C888 C121 1.383 . S
C923 C347 1.464 . S
C938 C180 1.548 . S
