# Generated by pormake.
# Topology whh, (6)-cn, num edge types: 1
# Building blocks:
#     Node 0, Type 0, BuildingBlock: MAKGUD_clean_sbu_1, # of connection points: 6
#     Node 1, Type 0, BuildingBlock: MAKGUD_clean_sbu_1, # of connection points: 6
#     Node 2, Type 0, BuildingBlock: MAKGUD_clean_sbu_1, # of connection points: 6
#     Node 3, Type 0, BuildingBlock: MAKGUD_clean_sbu_1, # of connection points: 6
#     Node 4, Type 0, BuildingBlock: MAKGUD_clean_sbu_1, # of connection points: 6
#     Node 5, Type 0, BuildingBlock: MAKGUD_clean_sbu_1, # of connection points: 6
#     Node 6, Type 0, BuildingBlock: MAKGUD_clean_sbu_1, # of connection points: 6
#     Node 7, Type 0, BuildingBlock: MAKGUD_clean_sbu_1, # of connection points: 6
#     Node 8, Type 0, BuildingBlock: MAKGUD_clean_sbu_1, # of connection points: 6
#     Node 9, Type 0, BuildingBlock: MAKGUD_clean_sbu_1, # of connection points: 6
#     Node 10, Type 0, BuildingBlock: MAKGUD_clean_sbu_1, # of connection points: 6
#     Node 11, Type 0, BuildingBlock: MAKGUD_clean_sbu_1, # of connection points: 6
#     Node 12, Type 0, BuildingBlock: MAKGUD_clean_sbu_1, # of connection points: 6
#     Node 13, Type 0, BuildingBlock: MAKGUD_clean_sbu_1, # of connection points: 6
#     Node 14, Type 0, BuildingBlock: MAKGUD_clean_sbu_1, # of connection points: 6
#     Node 15, Type 0, BuildingBlock: MAKGUD_clean_sbu_1, # of connection points: 6
#     Edge 16, Type (0, 0), BuildingBlock: CIFDUS_clean_linker_0, # of connection points: 2
#     Edge 17, Type (0, 0), BuildingBlock: CIFDUS_clean_linker_0, # of connection points: 2
#     Edge 18, Type (0, 0), BuildingBlock: CIFDUS_clean_linker_0, # of connection points: 2
#     Edge 19, Type (0, 0), BuildingBlock: CIFDUS_clean_linker_0, # of connection points: 2
#     Edge 20, Type (0, 0), BuildingBlock: CIFDUS_clean_linker_0, # of connection points: 2
#     Edge 21, Type (0, 0), BuildingBlock: CIFDUS_clean_linker_0, # of connection points: 2
#     Edge 22, Type (0, 0), BuildingBlock: CIFDUS_clean_linker_0, # of connection points: 2
#     Edge 23, Type (0, 0), BuildingBlock: CIFDUS_clean_linker_0, # of connection points: 2
#     Edge 24, Type (0, 0), BuildingBlock: CIFDUS_clean_linker_0, # of connection points: 2
#     Edge 25, Type (0, 0), BuildingBlock: CIFDUS_clean_linker_0, # of connection points: 2
#     Edge 26, Type (0, 0), BuildingBlock: CIFDUS_clean_linker_0, # of connection points: 2
#     Edge 27, Type (0, 0), BuildingBlock: CIFDUS_clean_linker_0, # of connection points: 2
#     Edge 28, Type (0, 0), BuildingBlock: CIFDUS_clean_linker_0, # of connection points: 2
#     Edge 29, Type (0, 0), BuildingBlock: CIFDUS_clean_linker_0, # of connection points: 2
#     Edge 30, Type (0, 0), BuildingBlock: CIFDUS_clean_linker_0, # of connection points: 2
#     Edge 31, Type (0, 0), BuildingBlock: CIFDUS_clean_linker_0, # of connection points: 2
#     Edge 32, Type (0, 0), BuildingBlock: CIFDUS_clean_linker_0, # of connection points: 2
#     Edge 33, Type (0, 0), BuildingBlock: CIFDUS_clean_linker_0, # of connection points: 2
#     Edge 34, Type (0, 0), BuildingBlock: CIFDUS_clean_linker_0, # of connection points: 2
#     Edge 35, Type (0, 0), BuildingBlock: CIFDUS_clean_linker_0, # of connection points: 2
#     Edge 36, Type (0, 0), BuildingBlock: CIFDUS_clean_linker_0, # of connection points: 2
#     Edge 37, Type (0, 0), BuildingBlock: CIFDUS_clean_linker_0, # of connection points: 2
#     Edge 38, Type (0, 0), BuildingBlock: CIFDUS_clean_linker_0, # of connection points: 2
#     Edge 39, Type (0, 0), BuildingBlock: CIFDUS_clean_linker_0, # of connection points: 2
#     Edge 40, Type (0, 0), BuildingBlock: CIFDUS_clean_linker_0, # of connection points: 2
#     Edge 41, Type (0, 0), BuildingBlock: CIFDUS_clean_linker_0, # of connection points: 2
#     Edge 42, Type (0, 0), BuildingBlock: CIFDUS_clean_linker_0, # of connection points: 2
#     Edge 43, Type (0, 0), BuildingBlock: CIFDUS_clean_linker_0, # of connection points: 2
#     Edge 44, Type (0, 0), BuildingBlock: CIFDUS_clean_linker_0, # of connection points: 2
#     Edge 45, Type (0, 0), BuildingBlock: CIFDUS_clean_linker_0, # of connection points: 2
#     Edge 46, Type (0, 0), BuildingBlock: CIFDUS_clean_linker_0, # of connection points: 2
#     Edge 47, Type (0, 0), BuildingBlock: CIFDUS_clean_linker_0, # of connection points: 2
#     Edge 48, Type (0, 0), BuildingBlock: CIFDUS_clean_linker_0, # of connection points: 2
#     Edge 49, Type (0, 0), BuildingBlock: CIFDUS_clean_linker_0, # of connection points: 2
#     Edge 50, Type (0, 0), BuildingBlock: CIFDUS_clean_linker_0, # of connection points: 2
#     Edge 51, Type (0, 0), BuildingBlock: CIFDUS_clean_linker_0, # of connection points: 2
#     Edge 52, Type (0, 0), BuildingBlock: CIFDUS_clean_linker_0, # of connection points: 2
#     Edge 53, Type (0, 0), BuildingBlock: CIFDUS_clean_linker_0, # of connection points: 2
#     Edge 54, Type (0, 0), BuildingBlock: CIFDUS_clean_linker_0, # of connection points: 2
#     Edge 55, Type (0, 0), BuildingBlock: CIFDUS_clean_linker_0, # of connection points: 2
#     Edge 56, Type (0, 0), BuildingBlock: CIFDUS_clean_linker_0, # of connection points: 2
#     Edge 57, Type (0, 0), BuildingBlock: CIFDUS_clean_linker_0, # of connection points: 2
#     Edge 58, Type (0, 0), BuildingBlock: CIFDUS_clean_linker_0, # of connection points: 2
#     Edge 59, Type (0, 0), BuildingBlock: CIFDUS_clean_linker_0, # of connection points: 2
#     Edge 60, Type (0, 0), BuildingBlock: CIFDUS_clean_linker_0, # of connection points: 2
#     Edge 61, Type (0, 0), BuildingBlock: CIFDUS_clean_linker_0, # of connection points: 2
#     Edge 62, Type (0, 0), BuildingBlock: CIFDUS_clean_linker_0, # of connection points: 2
#     Edge 63, Type (0, 0), BuildingBlock: CIFDUS_clean_linker_0, # of connection points: 2
# Relax obj value: 0.327
# Max RMSD: 0.216
# Mean RMSD: 0.216
data_MOF--net-whh--node1-MAKGUD_clean_sbu_1--edge1-CIFDUS_clean_linker_0
_symmetry_space_group_name_H-M    P1
_symmetry_Int_Tables_number       1
_symmetry_cell_setting            triclinic
loop_
_symmetry_equiv_pos_as_xyz
'x, y, z'
_cell_length_a     35.695793
_cell_length_b     35.760755
_cell_length_c     30.119433
_cell_angle_alpha  90.239859
_cell_angle_beta   90.75343
_cell_angle_gamma 89.870208
loop_
_atom_site_label
_atom_site_type_symbol
_atom_site_fract_x
_atom_site_fract_y
_atom_site_fract_z
_atom_type_partial_charge
O0 O 0.17223 0.74759 0.01754 0.0
Tb1 Tb 0.13585 0.70888 0.05325 0.0
C2 C 0.08506 0.72986 0.13393 0.0
O3 O 0.06505 0.67482 0.01547 0.0
Tb4 Tb 1.04507 0.66706 0.08168 0.0
C5 C 0.08145 0.61528 0.12974 0.0
O6 O 0.12379 0.65467 0.01962 0.0
O7 O 0.98542 0.65456 0.07833 0.0
C8 C 0.9754 0.62089 0.06496 0.0
O9 O 1.00171 0.59665 0.05515 0.0
O10 O 0.11861 0.71693 0.12276 0.0
O11 O 0.05474 0.72172 0.11028 0.0
O12 O 0.09454 0.75073 0.03349 0.0
C13 C 0.08968 0.65012 0.00302 0.0
C14 C 0.20297 0.74116 0.03996 0.0
O15 O 0.07023 0.61137 0.08889 0.0
O16 O 0.07196 0.64837 0.14334 0.0
C17 C 0.09715 0.78386 0.05263 0.0
O18 O 0.12522 0.79025 0.08029 0.0
O19 O 0.19624 0.71525 0.06927 0.0
O20 O 0.84573 0.15821 0.02171 0.0
Tb21 Tb 0.88696 0.12358 0.05741 0.0
C22 C 0.87426 0.0766 0.14412 0.0
O23 O 0.92378 0.05331 0.02212 0.0
Tb24 Tb 0.93541 1.03654 0.0893 0.0
C25 C 0.9953 0.0668 0.13016 0.0
O26 O 0.94002 0.11325 0.02254 0.0
O27 O 0.94578 0.97699 0.09598 0.0
C28 C 0.95735 0.95745 0.06169 0.0
O29 O 0.95515 0.97234 0.02199 0.0
O30 O 0.88414 0.10969 0.12828 0.0
O31 O 0.88416 1.04477 0.12526 0.0
O32 O 0.84551 0.08086 0.04144 0.0
C33 C 0.94585 0.0792 0.0073 0.0
C34 C 0.85274 0.18951 0.04231 0.0
O35 O 0.99589 1.04389 0.0966 0.0
O36 O 0.96049 0.07408 0.13921 0.0
C37 C 0.81265 0.08423 0.06052 0.0
O38 O 0.80701 0.11302 0.08689 0.0
O39 O 0.88023 0.18404 0.07058 0.0
O40 O 0.50787 0.94557 0.13159 0.0
Tb41 Tb 0.55213 0.92946 0.08556 0.0
C42 C 0.50992 0.94596 0.00506 0.0
O43 O 0.48464 0.87441 0.12282 0.0
Tb44 Tb 0.46693 0.88446 0.05374 0.0
C45 C 0.39904 0.85295 0.04042 0.0
O46 O 0.54937 0.87566 0.11701 0.0
O47 O 0.50729 0.84228 0.03338 0.0
C48 C 0.50142 0.8084 0.04873 0.0
O49 O 0.4724 0.80258 0.07412 0.0
O50 O 0.53671 0.92341 0.01705 0.0
O51 O 0.4769 0.93977 0.02281 0.0
O52 O 0.61076 0.94412 0.09394 0.0
C53 C 0.51863 0.86353 0.13594 0.0
C54 C 0.5153 0.98103 0.13325 0.0
O55 O 0.40745 0.87718 0.07154 0.0
O56 O 0.42852 0.8478 0.01613 0.0
C57 C 0.63124 0.95402 0.05996 0.0
O58 O 0.61838 0.9485 0.01943 0.0
O59 O 0.54252 0.9875 0.1061 0.0
O60 O 0.75409 0.41497 0.00788 0.0
Tb61 Tb 0.71881 0.45756 0.03863 0.0
C62 C 0.72976 0.50831 0.1244 0.0
O63 O 0.67596 0.52031 0.03912 0.0
Tb64 Tb 0.65957 0.55343 0.09424 0.0
C65 C 0.61196 0.52282 0.15018 0.0
O66 O 0.66824 0.47072 -0.00173 0.0
O67 O 0.64986 0.61255 0.08227 0.0
C68 C 0.61744 0.6218 0.06426 0.0
O69 O 0.59356 0.59503 0.05469 0.0
O70 O 0.71213 0.4788 0.10726 0.0
O71 O 0.71469 0.54222 0.12201 0.0
O72 O 0.76952 0.48914 0.0252 0.0
C73 C 0.65446 0.50297 0.01075 0.0
C74 C 0.74605 0.38754 0.03422 0.0
O75 O 0.6044 0.52973 0.10849 0.0
O76 O 0.6458 0.53372 0.15984 0.0
C77 C 0.77495 0.52536 0.02954 0.0
O78 O 0.74671 0.54788 0.03726 0.0
O79 O 0.7213 0.39923 0.06272 0.0
O80 O 0.15968 0.84494 0.48459 0.0
Tb81 Tb 0.11802 0.86988 0.4391 0.0
C82 C 0.08501 0.871 0.34172 0.0
O83 O 0.05351 0.92125 0.44589 0.0
Tb84 Tb 1.03943 0.93806 0.37934 0.0
C85 C 0.07042 0.99988 0.34625 0.0
O86 O 0.11161 0.92403 0.47235 0.0
O87 O 0.98029 0.94625 0.36703 0.0
C88 C 0.95726 0.951 0.40018 0.0
O89 O 0.96807 0.9411 0.44025 0.0
O90 O 0.11258 0.88298 0.36788 0.0
O91 O 0.05229 0.88834 0.34101 0.0
O92 O 0.07838 0.82446 0.44874 0.0
C93 C 0.07868 0.93994 0.46834 0.0
C94 C 0.18431 0.83811 0.45421 0.0
O95 O 1.04759 0.99854 0.37951 0.0
O96 O 0.07764 0.96571 0.33389 0.0
C97 C 1.04401 0.82419 0.43281 0.0
O98 O 1.02979 0.85435 0.41473 0.0
O99 O 0.17223 0.85048 0.41618 0.0
O100 O 0.72808 0.18791 0.44082 0.0
Tb101 Tb 0.71371 0.13364 0.41129 0.0
C102 C 0.71792 0.08264 0.32994 0.0
O103 O 0.67408 0.06489 0.43891 0.0
Tb104 Tb 0.65737 1.03931 0.37676 0.0
C105 C 0.59744 0.06831 0.33499 0.0
O106 O 0.66125 0.12586 0.44625 0.0
O107 O 0.65012 0.97916 0.37563 0.0
C108 C 0.63646 0.96251 0.41066 0.0
O109 O 0.63387 0.98152 0.44783 0.0
O110 O 0.69875 0.11089 0.34646 0.0
O111 O 0.70699 0.04817 0.33788 0.0
O112 O 0.75767 0.09584 0.43284 0.0
C113 C 0.65259 0.09107 0.45511 0.0
C114 C 0.74105 0.20233 0.40451 0.0
O115 O 0.59649 1.04536 0.36838 0.0
O116 O 0.6322 0.0756 0.32654 0.0
C117 C 0.78918 0.09702 0.41087 0.0
O118 O 0.79295 0.12233 0.37979 0.0
O119 O 0.73769 0.17852 0.3721 0.0
O120 O 0.43598 0.72422 0.48351 0.0
Tb121 Tb 0.47395 0.70553 0.43174 0.0
C122 C 0.5098 0.72601 0.34295 0.0
O123 O 0.54667 0.66348 0.45765 0.0
Tb124 Tb 0.55694 0.66686 0.38733 0.0
C125 C 0.52685 0.61786 0.33093 0.0
O126 O 0.48562 0.64997 0.45541 0.0
O127 O 0.61472 0.64908 0.39513 0.0
C128 C 0.61913 0.61271 0.3989 0.0
O129 O 0.58912 0.59159 0.39657 0.0
O130 O 0.47992 0.71047 0.36025 0.0
O131 O 0.54307 0.72142 0.36155 0.0
O132 O 0.51264 0.75051 0.44773 0.0
C133 C 0.51929 0.64184 0.46979 0.0
C134 C 0.40599 0.72331 0.45859 0.0
O135 O 0.51559 0.62283 0.37152 0.0
O136 O 0.55503 0.63958 0.32306 0.0
C137 C 0.50703 0.78281 0.42794 0.0
O138 O 0.47806 0.7867 0.40099 0.0
O139 O 0.41447 0.71308 0.41844 0.0
O140 O 0.83514 0.42814 0.45274 0.0
Tb141 Tb 0.87367 0.46602 0.4208 0.0
C142 C 0.86668 0.51455 0.3345 0.0
O143 O 0.92613 0.51543 0.41049 0.0
Tb144 Tb 0.94346 0.55012 0.35767 0.0
C145 C 0.98899 0.51628 0.3013 0.0
O146 O 0.92262 0.47592 0.46385 0.0
O147 O 0.95673 0.60814 0.37287 0.0
C148 C 0.95146 0.62231 0.41272 0.0
O149 O 0.93505 0.60196 0.44301 0.0
O150 O 0.88159 0.4835 0.35107 0.0
O151 O 0.88633 0.54586 0.3331 0.0
O152 O 0.82733 0.50371 0.43221 0.0
C153 C 0.94241 0.50225 0.44601 0.0
C154 C 0.84277 0.39905 0.42854 0.0
O155 O 0.99625 0.52155 0.34334 0.0
O156 O 0.95656 0.53086 0.29123 0.0
C157 C 0.82872 0.54039 0.43295 0.0
O158 O 0.86098 0.55768 0.42993 0.0
O159 O 0.86901 0.40724 0.40047 0.0
O160 O 0.91883 0.34525 0.96063 0.0
Tb161 Tb 0.96028 0.38035 0.9282 0.0
C162 C 1.00981 0.36707 0.84311 0.0
O163 O 1.02564 0.42055 0.92855 0.0
Tb164 Tb 0.05603 0.43696 0.87183 0.0
C165 C 1.02201 0.48498 0.81779 0.0
O166 O 0.97583 0.43069 0.96758 0.0
O167 O 0.11481 0.4502 0.88416 0.0
C168 C 0.12218 0.48502 0.89544 0.0
O169 O 0.09393 0.50835 0.89887 0.0
O170 O 0.98034 0.38522 0.8592 0.0
O171 O 1.04394 0.38168 0.84576 0.0
O172 O 0.99122 0.32875 0.93952 0.0
C173 C 1.00885 0.44286 0.95594 0.0
C174 C 0.89043 0.35313 0.93484 0.0
O175 O 1.02686 0.49007 0.86035 0.0
O176 O 1.03681 0.45322 0.80614 0.0
C177 C 1.02756 0.32288 0.93812 0.0
O178 O 0.05103 0.35095 0.93616 0.0
O179 O 0.901 0.37801 0.90587 0.0
O180 O 0.24846 0.91684 0.94721 0.0
Tb181 Tb 0.21051 0.95828 0.91684 0.0
C182 C 0.22858 1.0118 0.83824 0.0
O183 O 0.17961 1.02879 0.95669 0.0
Tb184 Tb 0.1695 0.0536 0.89279 0.0
C185 C 0.1146 1.02561 0.8412 0.0
O186 O 0.15847 0.97066 0.9528 0.0
O187 O 0.15926 0.11285 0.90331 0.0
C188 C 0.12448 0.12299 0.91097 0.0
O189 O 0.09859 0.09707 0.9124 0.0
O190 O 0.21484 0.9785 0.8484 0.0
O191 O 0.2229 1.04158 0.86324 0.0
O192 O 0.25531 0.99637 0.93635 0.0
C193 C 0.1547 1.00461 0.96915 0.0
C194 C 0.23715 0.88813 0.92404 0.0
O195 O 0.11397 1.02821 0.88411 0.0
O196 O 0.14637 1.03854 0.82756 0.0
C197 C 0.28807 0.99093 0.91778 0.0
O198 O 0.2923 0.96268 0.89029 0.0
O199 O 0.20987 0.89866 0.89758 0.0
O200 O 0.6626 0.25239 0.94864 0.0
Tb201 Tb 0.62526 0.21395 0.91254 0.0
C202 C 0.576 0.22509 0.82698 0.0
O203 O 0.55386 0.17759 0.94659 0.0
Tb204 Tb 0.53359 0.16559 0.88028 0.0
C205 C 0.56527 0.11033 0.83323 0.0
O206 O 0.61422 0.16188 0.94938 0.0
O207 O 0.47444 0.15195 0.88573 0.0
C208 C 0.46717 0.12034 0.9061 0.0
O209 O 0.49554 0.1008 0.92156 0.0
O210 O 0.60918 0.21343 0.84188 0.0
O211 O 0.54478 0.21847 0.8486 0.0
O212 O 0.5855 0.25982 0.92084 0.0
C213 C 0.5798 0.15552 0.96254 0.0
C214 C 0.69269 0.2457 0.92593 0.0
O215 O 0.56003 0.11032 0.87577 0.0
O216 O 0.55337 0.14206 0.81767 0.0
C217 C 0.59375 0.29051 0.89888 0.0
O218 O 0.62525 0.29106 0.87677 0.0
O219 O 0.68514 0.21988 0.89634 0.0
O220 O 0.35298 0.67308 0.94909 0.0
Tb221 Tb 0.38869 0.63149 0.91588 0.0
C222 C 0.36935 0.58699 0.83004 0.0
O223 O 0.42213 0.55665 0.94111 0.0
Tb224 Tb 0.43152 0.53928 0.87365 0.0
C225 C 0.4817 0.57782 0.82717 0.0
O226 O 0.44076 0.61552 0.95131 0.0
O227 O 0.44679 0.48024 0.8716 0.0
C228 C 0.44684 0.45986 0.90796 0.0
O229 O 0.43171 0.47363 0.94402 0.0
O230 O 0.38776 0.61651 0.84548 0.0
O231 O 0.37706 0.55288 0.84459 0.0
O232 O 0.34092 0.59481 0.92677 0.0
C233 C 0.44638 0.57971 0.95879 0.0
C234 C 0.36384 0.70199 0.92656 0.0
O235 O 0.48752 0.56405 0.8666 0.0
O236 O 0.44797 0.56946 0.81439 0.0
C237 C 0.30915 0.60538 0.90783 0.0
O238 O 0.30874 0.63629 0.88438 0.0
O239 O 0.3899 0.69145 0.89918 0.0
O240 O 0.91783 0.22381 0.52432 0.0
Tb241 Tb 0.97275 0.218 0.55679 0.0
C242 C 1.01974 0.2199 0.64374 0.0
O243 O 1.03623 0.16757 0.53129 0.0
Tb244 Tb 0.05878 0.15466 0.5958 0.0
C245 C 1.02945 0.09465 0.63493 0.0
O246 O 0.97471 0.16232 0.52567 0.0
O247 O 0.11866 0.1467 0.59391 0.0
C248 C 0.13701 0.15092 0.55675 0.0
O249 O 0.11998 0.16622 0.52242 0.0
O250 O 0.98888 0.20588 0.62573 0.0
O251 O 0.05267 0.20491 0.63543 0.0
O252 O 1.00987 0.26175 0.53207 0.0
C253 C 1.00775 0.14808 0.51748 0.0
C254 C 0.90312 0.24449 0.55511 0.0
O255 O 0.05085 0.09436 0.60038 0.0
O256 O 1.0238 0.12924 0.64657 0.0
C257 C 1.04631 0.26115 0.53949 0.0
O258 O 0.06195 0.23078 0.55512 0.0
O259 O 0.92746 0.25003 0.5868 0.0
O260 O 0.35484 0.94842 0.48999 0.0
Tb261 Tb 0.38576 0.98 0.54061 0.0
C262 C 0.3678 1.0097 0.63329 0.0
O263 O 0.42033 0.05423 0.51928 0.0
Tb264 Tb 0.42455 0.06045 0.59067 0.0
C265 C 0.47915 1.02732 0.63798 0.0
O266 O 0.43896 0.99508 0.5117 0.0
O267 O 0.43714 0.11939 0.59247 0.0
C268 C 0.47076 0.12804 0.57871 0.0
O269 O 0.49319 0.10083 0.56651 0.0
O270 O 0.38384 0.98133 0.61287 0.0
O271 O 0.37172 1.04389 0.61816 0.0
O272 O 0.34077 1.02059 0.53572 0.0
C273 C 0.44304 1.03024 0.50096 0.0
C274 C 0.35624 0.91674 0.511 0.0
O275 O 0.4773 1.02851 0.59484 0.0
O276 O 0.45015 1.04447 0.65372 0.0
C277 C 0.30892 1.00989 0.55302 0.0
O278 O 0.30665 0.97593 0.56928 0.0
O279 O 0.37572 0.92045 0.54763 0.0
O280 O 0.6877 0.34716 0.5351 0.0
Tb281 Tb 0.64008 0.3775 0.56093 0.0
C282 C 0.58267 0.37909 0.63756 0.0
O283 O 0.57565 0.42165 0.54544 0.0
Tb284 Tb 0.54281 0.44616 0.59761 0.0
C285 C 0.57813 0.49741 0.6468 0.0
O286 O 0.63207 0.42446 0.5163 0.0
O287 O 0.48426 0.46148 0.58507 0.0
C288 C 0.46507 0.44999 0.54995 0.0
O289 O 0.48015 0.42517 0.52328 0.0
O290 O 0.61124 0.39708 0.62037 0.0
O291 O 0.54896 0.39445 0.6347 0.0
O292 O 0.60934 0.32641 0.54796 0.0
C293 C 0.59931 0.44012 0.52135 0.0
C294 C 0.71061 0.35514 0.56757 0.0
O295 O 0.56816 0.50182 0.60534 0.0
O296 O 0.56748 0.46467 0.65999 0.0
C297 C 0.57274 0.32293 0.54715 0.0
O298 O 0.55102 0.35225 0.55169 0.0
O299 O 0.69415 0.37682 0.59633 0.0
O300 O 0.23151 0.67384 0.49602 0.0
Tb301 Tb 0.21309 0.62773 0.5379 0.0
C302 C 0.22854 0.57744 0.62161 0.0
O303 O 0.16792 0.55682 0.51655 0.0
Tb304 Tb 0.16081 0.5364 0.58242 0.0
C305 C 0.11862 0.57344 0.64052 0.0
O306 O 0.15875 0.61743 0.50542 0.0
O307 O 0.14382 0.47825 0.5745 0.0
C308 C 0.13686 0.46446 0.53458 0.0
O309 O 0.14376 0.48463 0.49934 0.0
O310 O 0.21595 0.61052 0.60801 0.0
O311 O 0.21838 0.54602 0.60188 0.0
O312 O 0.26674 0.5993 0.52806 0.0
C313 C 0.14624 0.58329 0.50176 0.0
C314 C 0.22653 0.70003 0.52546 0.0
O315 O 0.11249 0.57222 0.5979 0.0
O316 O 0.14808 0.5535 0.65003 0.0
C317 C 0.27214 0.56366 0.5189 0.0
O318 O 0.24388 0.54249 0.50655 0.0
O319 O 0.21461 0.68541 0.56223 0.0
H320 H 0.79996 0.59525 0.05291 0.0
H321 H 0.83809 0.48639 0.00979 0.0
H322 H 0.90285 0.50646 0.01736 0.0
H323 H 0.94881 0.55392 0.03734 0.0
H324 H 0.91242 0.66298 0.08126 0.0
H325 H 0.84687 0.64375 0.07223 0.0
C326 C 0.82243 0.57609 0.04467 0.0
C327 C 0.814 0.53941 0.03056 0.0
C328 C 0.85996 0.58771 0.04948 0.0
C329 C 0.84357 0.51483 0.02053 0.0
C330 C 0.88073 0.52621 0.02497 0.0
C331 C 0.92663 0.57363 0.04496 0.0
C332 C 0.93556 0.60987 0.06 0.0
C333 C 0.88924 0.56244 0.03968 0.0
C334 C 0.90635 0.63491 0.06967 0.0
C335 C 0.86887 0.62393 0.06445 0.0
H336 H 0.07447 0.83305 0.11474 0.0
H337 H 0.05276 0.79768 0.97986 0.0
H338 H 1.00591 0.84757 0.97118 0.0
H339 H 0.97357 0.9032 0.00119 0.0
H340 H 0.99354 0.93587 0.13756 0.0
H341 H 1.0384 0.8848 0.14661 0.0
C342 C 0.05941 0.83626 0.08344 0.0
C343 C 0.06733 0.81222 0.04769 0.0
C344 C 1.03214 0.86435 0.07912 0.0
C345 C 1.04714 0.81605 0.00769 0.0
C346 C 1.02046 0.84455 0.00276 0.0
C347 C 0.98733 0.89875 0.03305 0.0
C348 C 0.9801 0.92325 0.06865 0.0
C349 C 1.013 0.86911 0.03813 0.0
C350 C 0.99818 0.91719 0.10976 0.0
C351 C 1.02411 0.88816 0.11488 0.0
H352 H 0.69267 0.96104 0.00754 0.0
H353 H 0.64342 1.00184 0.12857 0.0
H354 H 0.69475 1.04604 0.13866 0.0
H355 H 0.75293 0.07375 0.11294 0.0
H356 H 0.80505 1.03164 -0.00565 0.0
H357 H 0.75358 0.987 0.98367 0.0
C358 C 0.69352 0.97934 0.03633 0.0
C359 C 0.6645 0.97791 0.06747 0.0
C360 C 0.72357 1.00442 0.04235 0.0
C361 C 0.66576 1.00187 0.10456 0.0
C362 C 0.69497 1.02737 0.11021 0.0
C363 C 0.75311 0.05481 0.0847 0.0
C364 C 0.78262 0.05616 0.05427 0.0
C365 C 0.72391 1.02895 0.07929 0.0
C366 C 0.78263 1.03112 0.01822 0.0
C367 C 0.75318 1.00567 0.01209 0.0
H368 H 0.57136 0.79181 0.07898 0.0
H369 H 0.48135 0.75193 -0.00515 0.0
H370 H 0.51195 0.69096 -0.01161 0.0
H371 H 0.55987 0.64716 0.01396 0.0
H372 H 0.64892 0.6849 0.10123 0.0
H373 H 0.6236 0.74868 0.09884 0.0
C374 C 0.55934 0.77005 0.05804 0.0
C375 C 0.52471 0.77623 0.03658 0.0
C376 C 0.57657 0.73462 0.05573 0.0
C377 C 0.50844 0.74773 0.01078 0.0
C378 C 0.52572 0.71285 0.00748 0.0
C379 C 0.57405 0.6694 0.03208 0.0
C380 C 0.60591 0.66125 0.05823 0.0
C381 C 0.55911 0.70566 0.03096 0.0
C382 C 0.62425 0.69046 0.08099 0.0
C383 C 0.6097 0.72689 0.07974 0.0
H384 H 0.90434 0.9694 0.46107 0.0
H385 H 0.93743 0.98964 0.32579 0.0
H386 H 0.88919 1.03738 0.3182 0.0
H387 H 0.83925 0.07483 0.35028 0.0
H388 H 0.80321 0.05365 0.48393 0.0
H389 H 0.85133 1.00496 0.49205 0.0
C390 C 0.90059 0.98384 0.42973 0.0
C391 C 0.9244 0.97575 0.39405 0.0
C392 C 0.87267 1.01139 0.42547 0.0
C393 C 0.91932 0.99493 0.35372 0.0
C394 C 0.89191 1.0225 0.34938 0.0
C395 C 0.84192 0.0596 0.38124 0.0
C396 C 0.81804 0.06791 0.41662 0.0
C397 C 0.86878 1.03123 0.38516 0.0
C398 C 0.82143 0.04767 0.45631 0.0
C399 C 0.84884 1.01987 0.46089 0.0
H400 H 0.61532 0.91594 0.47671 0.0
H401 H 0.61262 0.9284 0.33421 0.0
H402 H 0.57224 0.87362 0.32712 0.0
H403 H 0.53444 0.82461 0.36188 0.0
H404 H 0.54028 0.80915 0.50356 0.0
H405 H 0.58242 0.86304 0.51079 0.0
C406 C 0.60636 0.90631 0.44407 0.0
C407 C 0.61695 0.92623 0.40608 0.0
C408 C 0.58335 0.87462 0.44022 0.0
C409 C 0.60514 0.91343 0.36398 0.0
C410 C 0.58179 0.88227 0.3599 0.0
C411 C 0.5453 0.83292 0.39423 0.0
C412 C 0.53433 0.81336 0.43223 0.0
C413 C 0.57023 0.86308 0.39784 0.0
C414 C 0.54862 0.82392 0.47397 0.0
C415 C 0.57258 0.85468 0.47805 0.0
H416 H 0.68803 0.64631 0.40633 0.0
H417 H 0.63292 0.53887 0.40975 0.0
H418 H 0.69231 0.50812 0.42441 0.0
H419 H 0.75948 0.51081 0.43386 0.0
H420 H 0.81729 0.61648 0.42708 0.0
H421 H 0.75716 0.64885 0.41661 0.0
C422 C 0.68913 0.61621 0.41028 0.0
C423 C 0.65601 0.59504 0.40704 0.0
C424 C 0.72376 0.59834 0.41821 0.0
C425 C 0.65788 0.55599 0.41209 0.0
C426 C 0.69187 0.53825 0.42056 0.0
C427 C 0.75917 0.54099 0.43043 0.0
C428 C 0.79289 0.56119 0.43123 0.0
C429 C 0.72491 0.5591 0.42343 0.0
C430 C 0.79169 0.60027 0.42673 0.0
C431 C 0.75735 0.61874 0.4205 0.0
H432 H 1.01987 0.77214 0.49159 0.0
H433 H 1.031 0.79497 0.35222 0.0
H434 H 1.00514 0.73371 0.33333 0.0
H435 H 0.97768 0.67452 0.35639 0.0
H436 H 0.96243 0.65222 0.49565 0.0
H437 H 0.99094 0.71239 0.51484 0.0
C438 C 1.01617 0.76361 0.45721 0.0
C439 C 1.02659 0.78792 0.42312 0.0
C440 C 1.00025 0.72865 0.44668 0.0
C441 C 1.02232 0.77677 0.3787 0.0
C442 C 1.0077 0.74176 0.36798 0.0
C443 C 0.98039 0.68287 0.39095 0.0
C444 C 0.96759 0.65913 0.42447 0.0
C445 C 0.9962 0.71765 0.40166 0.0
C446 C 0.97159 0.67025 0.46913 0.0
C447 C 0.98804 0.70459 0.48016 0.0
H448 H 0.142 0.55484 0.91925 0.0
H449 H 0.18943 0.44761 0.88517 0.0
H450 H 0.2527 0.47439 0.8903 0.0
H451 H 0.29424 0.53028 0.89954 0.0
H452 H 0.24382 0.63716 0.92873 0.0
H453 H 0.18204 0.60849 0.93074 0.0
C454 C 0.16608 0.53707 0.91315 0.0
C455 C 0.16091 0.49931 0.90153 0.0
C456 C 0.20195 0.55273 0.91535 0.0
C457 C 0.19259 0.47683 0.89404 0.0
C458 C 0.22877 0.49217 0.89691 0.0
C459 C 0.26971 0.54691 0.90724 0.0
C460 C 0.27345 0.58567 0.9145 0.0
C461 C 0.2338 0.53032 0.90694 0.0
C462 C 0.24151 0.60726 0.92332 0.0
C463 C 0.2062 0.59093 0.92432 0.0
H464 H 0.09952 0.29607 0.94458 0.0
H465 H 0.98509 0.26193 0.91937 0.0
H466 H 1.00535 0.19787 0.90819 0.0
H467 H 0.05478 0.1513 0.90565 0.0
H468 H 0.16971 0.18327 0.92982 0.0
H469 H 0.15 0.24835 0.94147 0.0
C470 C 0.07908 0.27454 0.93688 0.0
C471 C 1.04082 0.28386 0.93341 0.0
C472 C 0.09092 0.23735 0.93031 0.0
C473 C 1.01466 0.25563 0.92307 0.0
C474 C 1.02619 0.21889 0.91639 0.0
C475 C 0.07562 0.17243 0.91357 0.0
C476 C 0.11363 0.16253 0.91701 0.0
C477 C 0.06414 0.20945 0.92005 0.0
C478 C 0.14027 0.19031 0.9268 0.0
C479 C 0.12898 0.22745 0.93358 0.0
H480 H 0.30049 0.0614 0.88837 0.0
H481 H 0.34887 0.97216 0.96596 0.0
H482 H 0.40805 1.00624 0.97207 0.0
H483 H 0.44713 0.05836 0.95033 0.0
H484 H 0.40135 0.14681 0.8689 0.0
H485 H 0.33977 0.11639 0.86955 0.0
C486 C 0.32378 0.05013 0.90757 0.0
C487 C 0.32044 1.01487 0.92762 0.0
C488 C 0.35811 0.06946 0.90972 0.0
C489 C 0.3509 0.99964 0.95115 0.0
C490 C 0.3847 1.01897 0.95433 0.0
C491 C 0.42369 0.07131 0.93295 0.0
C492 C 0.4289 0.10472 0.90931 0.0
C493 C 0.38883 0.05345 0.93296 0.0
C494 C 0.39809 0.12107 0.88727 0.0
C495 C 0.36292 0.10364 0.88758 0.0
H496 H 0.53397 0.3092 0.95135 0.0
H497 H 0.59501 0.34421 0.83597 0.0
H498 H 0.55394 0.39797 0.8271 0.0
H499 H 0.5016 0.43634 0.85257 0.0
H500 H 0.44189 0.40442 0.96998 0.0
H501 H 0.48108 0.34845 0.97734 0.0
C502 C 0.53806 0.32854 0.92422 0.0
C503 C 0.56759 0.3226 0.8945 0.0
C504 C 0.51443 0.36004 0.91947 0.0
C505 C 0.57271 0.34811 0.85962 0.0
C506 C 0.54911 0.37892 0.85433 0.0
C507 C 0.49673 0.41688 0.87941 0.0
C508 C 0.46846 0.42435 0.91028 0.0
C509 C 0.51995 0.38527 0.88408 0.0
C510 C 0.46325 0.39921 0.94548 0.0
C511 C 0.48574 0.36722 0.94981 0.0
H512 H 0.17056 0.1038 0.61477 0.0
H513 H 0.18421 0.15363 0.48573 0.0
H514 H 0.24052 0.11585 0.47398 0.0
H515 H 0.28406 0.06591 0.49915 0.0
H516 H 0.26525 1.01273 0.62516 0.0
H517 H 0.21311 0.05488 0.63963 0.0
C518 C 0.1861 0.10693 0.5843 0.0
C519 C 0.1734 0.13177 0.55136 0.0
C520 C 0.21752 0.08435 0.57721 0.0
C521 C 0.19361 0.13495 0.51182 0.0
C522 C 0.22571 0.11323 0.50498 0.0
C523 C 0.26859 0.06393 0.52981 0.0
C524 C 0.27836 1.03651 0.56111 0.0
C525 C 0.23765 0.08745 0.53723 0.0
C526 C 0.25804 1.03364 0.60055 0.0
C527 C 0.22826 0.05771 0.60887 0.0
H528 H 0.50483 0.30099 0.57703 0.0
H529 H 0.60589 0.25999 0.51622 0.0
H530 H 0.5829 0.19605 0.52069 0.0
H531 H 0.53535 0.15193 0.5436 0.0
H532 H 0.43441 0.19157 0.60585 0.0
H533 H 0.45625 0.25617 0.59926 0.0
C534 C 0.52148 0.27807 0.56417 0.0
C535 C 0.55684 0.28509 0.5461 0.0
C536 C 0.50836 0.24126 0.56751 0.0
C537 C 0.57853 0.25519 0.53025 0.0
C538 C 0.56548 0.21865 0.53288 0.0
C539 C 0.51802 0.17464 0.55577 0.0
C540 C 0.48333 0.16707 0.57522 0.0
C541 C 0.53066 0.21139 0.55184 0.0
C542 C 0.46122 0.19679 0.59069 0.0
C543 C 0.47367 0.23367 0.58689 0.0
H544 H 0.30622 0.50461 0.47757 0.0
H545 H 0.32124 0.5845 0.58391 0.0
H546 H 0.38129 0.55595 0.60396 0.0
H547 H 0.42993 0.5083 0.59134 0.0
H548 H 0.41661 0.4301 0.4828 0.0
H549 H 0.35614 0.4581 0.46339 0.0
C550 C 0.32278 0.51579 0.50498 0.0
C551 C 0.30936 0.54679 0.52895 0.0
C552 C 0.35775 0.49953 0.51599 0.0
C553 C 0.33116 0.56104 0.56439 0.0
C554 C 0.36546 0.54458 0.57609 0.0
C555 C 0.41374 0.49718 0.56359 0.0
C556 C 0.42777 0.4667 0.539 0.0
C557 C 0.37909 0.5138 0.55213 0.0
C558 C 0.40648 0.4532 0.50271 0.0
C559 C 0.37183 0.46927 0.49148 0.0
H560 H 0.15212 0.39902 0.57518 0.0
H561 H 0.07655 0.45088 0.4813 0.0
H562 H 1.04025 0.39301 0.47508 0.0
H563 H 1.03027 0.32703 0.49689 0.0
H564 H 0.1124 0.27354 0.58206 0.0
H565 H 0.14618 0.33202 0.59038 0.0
C566 C 0.12778 0.39743 0.5533 0.0
C567 C 0.11649 0.42902 0.52937 0.0
C568 C 0.10844 0.36357 0.54796 0.0
C569 C 0.08536 0.42678 0.50044 0.0
C570 C 0.06473 0.39371 0.49673 0.0
C571 C 0.05576 0.32818 0.51684 0.0
C572 C 0.06847 0.29603 0.53917 0.0
C573 C 0.07605 0.3618 0.52034 0.0
C574 C 0.10184 0.29783 0.56451 0.0
C575 C 0.12119 0.33135 0.56955 0.0
H576 H 0.13935 0.76005 0.18977 0.0
H577 H 1.01968 0.75694 0.16598 0.0
H578 H 1.00982 0.79964 0.22723 0.0
H579 H 1.03413 0.83885 0.28661 0.0
H580 H 0.15291 0.84211 0.31456 0.0
H581 H 0.16399 0.79877 0.25271 0.0
C582 C 0.11116 0.76863 0.19813 0.0
C583 C 0.08042 0.75521 0.17283 0.0
C584 C 0.10539 0.79346 0.23407 0.0
C585 C 1.04405 0.76674 0.18434 0.0
C586 C 1.03823 0.79129 0.21954 0.0
C587 C 0.06255 0.83015 0.2794 0.0
C588 C 0.09259 0.8439 0.30528 0.0
C589 C 0.06861 0.80499 0.24441 0.0
C590 C 0.12915 0.83196 0.29535 0.0
C591 C 0.13551 0.80716 0.25991 0.0
H592 H 0.77096 1.03369 0.30344 0.0
H593 H 0.73243 0.14696 0.28436 0.0
H594 H 0.77948 0.15637 0.2272 0.0
H595 H 0.8289 0.13075 0.17902 0.0
H596 H 0.86626 1.01699 0.19861 0.0
H597 H 0.82272 1.00969 0.25938 0.0
C598 C 0.77286 0.06045 0.28678 0.0
C599 C 0.74794 0.08937 0.29764 0.0
C600 C 0.79982 0.06561 0.25397 0.0
C601 C 0.75124 0.12416 0.27648 0.0
C602 C 0.77809 0.12954 0.24371 0.0
C603 C 0.82778 0.10454 0.19694 0.0
C604 C 0.85051 0.07436 0.1839 0.0
C605 C 0.80217 0.10025 0.23166 0.0
C606 C 0.84872 1.04055 0.20749 0.0
C607 C 0.82381 1.03628 0.2423 0.0
H608 H 0.4659 0.81901 0.17259 0.0
H609 H 0.58118 0.85374 0.18745 0.0
H610 H 0.58866 0.81403 0.2525 0.0
H611 H 0.5626 0.76964 0.30527 0.0
H612 H 0.44742 0.73453 0.29063 0.0
H613 H 0.43996 0.77392 0.22516 0.0
C614 C 0.4926 0.81794 0.19014 0.0
C615 C 0.52285 0.83932 0.17524 0.0
C616 C 0.49685 0.79484 0.22742 0.0
C617 C 0.55743 0.83739 0.19807 0.0
C618 C 0.56178 0.81473 0.23534 0.0
C619 C 0.53589 0.77049 0.2877 0.0
C620 C 0.50561 0.74931 0.30289 0.0
C621 C 0.53171 0.79331 0.25025 0.0
C622 C 0.47115 0.75079 0.2798 0.0
C623 C 0.46683 0.77329 0.24234 0.0
H624 H 0.73259 0.54452 0.20323 0.0
H625 H 0.78798 0.45845 0.12771 0.0
H626 H 0.83384 0.44992 0.18848 0.0
H627 H 0.85951 0.4693 0.26217 0.0
H628 H 0.80442 0.55714 0.33494 0.0
H629 H 0.75626 0.56194 0.27682 0.0
C630 C 0.75474 0.52391 0.19996 0.0
C631 C 0.7572 0.50234 0.16092 0.0
C632 C 0.78055 0.51908 0.23495 0.0
C633 C 0.78559 0.4753 0.15753 0.0
C634 C 0.81173 0.47046 0.19224 0.0
C635 C 0.83638 0.48877 0.26558 0.0
C636 C 0.83485 0.51235 0.30306 0.0
C637 C 0.80955 0.4923 0.2311 0.0
C638 C 0.8056 0.53834 0.30671 0.0
C639 C 0.77835 0.54133 0.27329 0.0
H640 H 0.97188 0.23147 0.71318 0.0
H641 H 0.0651 0.27951 0.64427 0.0
H642 H 0.06877 0.33026 0.69833 0.0
H643 H 0.04874 0.35856 0.76756 0.0
H644 H 0.95737 0.31091 0.84026 0.0
H645 H 0.94996 0.26206 0.78302 0.0
C646 C 0.99261 0.25338 0.70995 0.0
C647 C 1.01828 0.25189 0.67484 0.0
C648 C 0.99532 0.28203 0.74229 0.0
C649 C 1.04526 0.2801 0.67109 0.0
C650 C 1.04743 0.30903 0.70209 0.0
C651 C 1.02721 0.33746 0.77109 0.0
C652 C 1.00386 0.3381 0.80834 0.0
C653 C 1.02322 0.30979 0.73831 0.0
C654 C 0.97564 0.31099 0.81182 0.0
C655 C 0.97147 0.28308 0.77914 0.0
H656 H 0.32994 0.06171 0.6802 0.0
H657 H 0.34898 0.94271 0.67094 0.0
H658 H 0.30633 0.9324 0.73262 0.0
H659 H 0.26408 0.95759 0.78994 0.0
H660 H 0.24624 0.07695 0.79788 0.0
H661 H 0.28769 0.08652 0.73566 0.0
C662 C 0.32491 1.03346 0.69164 0.0
C663 C 0.34274 1.00306 0.6711 0.0
C664 C 0.30036 1.02775 0.72679 0.0
C665 C 0.33571 0.96666 0.68631 0.0
C666 C 0.31124 0.96073 0.72149 0.0
C667 C 0.26909 0.98562 0.7778 0.0
C668 C 0.25217 1.01645 0.79869 0.0
C669 C 0.2934 0.9911 0.74203 0.0
C670 C 0.25909 0.05266 0.78271 0.0
C671 C 0.28281 0.05825 0.74706 0.0
H672 H 0.63144 0.26481 0.7865 0.0
H673 H 0.51388 0.23752 0.77626 0.0
H674 H 0.50632 0.28023 0.71409 0.0
H675 H 0.53159 0.32918 0.66652 0.0
H676 H 0.64874 0.35768 0.67673 0.0
H677 H 0.65792 0.31074 0.73459 0.0
C678 C 0.6043 0.2679 0.77031 0.0
C679 C 0.57322 0.2483 0.78643 0.0
C680 C 0.59994 0.29301 0.7347 0.0
C681 C 0.53822 0.25265 0.76502 0.0
C682 C 0.5338 0.27707 0.72937 0.0
C683 C 0.55921 0.32481 0.68108 0.0
C684 C 0.5893 0.34707 0.66761 0.0
C685 C 0.56424 0.29801 0.71457 0.0
C686 C 0.62505 0.34082 0.6864 0.0
C687 C 0.63031 0.31411 0.71972 0.0
H688 H 0.27075 0.63162 0.66217 0.0
H689 H 0.23745 0.51615 0.67396 0.0
H690 H 0.2769 0.50924 0.73993 0.0
H691 H 0.32263 0.53504 0.79304 0.0
H692 H 0.35691 0.65022 0.78126 0.0
H693 H 0.31544 0.65805 0.71696 0.0
C694 C 0.27199 0.60506 0.67938 0.0
C695 C 0.25137 0.57446 0.66288 0.0
C696 C 0.29514 0.60105 0.71727 0.0
C697 C 0.25337 0.54013 0.68552 0.0
C698 C 0.27589 0.53609 0.72339 0.0
C699 C 0.3211 0.56185 0.77641 0.0
C700 C 0.34318 0.59183 0.79181 0.0
C701 C 0.29727 0.5662 0.73928 0.0
C702 C 0.34038 0.62654 0.77012 0.0
C703 C 0.31665 0.63109 0.73324 0.0
H704 H 0.27802 0.7225 0.04353 0.0
H705 H 0.20267 0.81651 0.03504 0.0
H706 H 0.25567 0.85972 0.03684 0.0
H707 H 0.32417 0.87131 0.04068 0.0
H708 H 0.39971 0.77729 0.03923 0.0
H709 H 0.34671 0.73401 0.0414 0.0
C710 C 0.27332 0.75244 0.04218 0.0
C711 C 0.23635 0.76624 0.03961 0.0
C712 C 0.30422 0.77731 0.04158 0.0
C713 C 0.23079 0.80513 0.03711 0.0
C714 C 0.26114 0.82993 0.03831 0.0
C715 C 0.32891 0.84136 0.04097 0.0
C716 C 0.36589 0.82759 0.04025 0.0
C717 C 0.29807 0.81645 0.04055 0.0
C718 C 0.37155 0.78865 0.03987 0.0
C719 C 0.3412 0.76382 0.04124 0.0
H720 H 0.87258 0.26337 0.04872 0.0
H721 H 0.77732 0.19083 0.03132 0.0
H722 H 0.73507 0.24483 0.03165 0.0
H723 H 0.72499 0.31356 0.03538 0.0
H724 H 0.82109 0.38603 0.0423 0.0
H725 H 0.86288 0.33191 0.0476 0.0
C726 C 0.84258 0.25949 0.04501 0.0
C727 C 0.82811 0.22312 0.04031 0.0
C728 C 0.81845 0.2909 0.04351 0.0
C729 C 0.78919 0.21855 0.03488 0.0
C730 C 0.76495 0.24944 0.03534 0.0
C731 C 0.75504 0.31733 0.03851 0.0
C732 C 0.76995 0.35371 0.03898 0.0
C733 C 0.77918 0.28586 0.03951 0.0
C734 C 0.80899 0.35826 0.04206 0.0
C735 C 0.83293 0.32731 0.04508 0.0
H736 H 0.35134 0.74408 0.404 0.0
H737 H 0.38093 0.72688 0.54193 0.0
H738 H 0.30628 0.76302 0.51932 0.0
H739 H 0.21894 0.8139 0.53957 0.0
H740 H 0.22802 0.81197 0.38177 0.0
H741 H 0.29114 0.775 0.37381 0.0
C742 C 0.34354 0.74626 0.43857 0.0
C743 C 0.36863 0.73548 0.47236 0.0
C744 C 0.30975 0.76246 0.44827 0.0
C745 C 0.36027 0.7371 0.51826 0.0
C746 C 0.32719 0.75149 0.53622 0.0
C747 C 0.23555 0.80439 0.51136 0.0
C748 C 0.21866 0.81611 0.45974 0.0
C749 C 0.29855 0.7674 0.50565 0.0
C750 C 0.24103 0.8034 0.41275 0.0
C751 C 0.28175 0.77934 0.40745 0.0
H752 H 0.85745 0.33329 0.38603 0.0
H753 H 0.77691 0.38849 0.46956 0.0
H754 H 0.73644 0.33388 0.46588 0.0
H755 H 0.7261 0.26822 0.44475 0.0
H756 H 0.80496 0.21315 0.35933 0.0
H757 H 0.84483 0.26882 0.36002 0.0
C758 C 0.83134 0.33296 0.40405 0.0
C759 C 0.82043 0.36453 0.42857 0.0
C760 C 0.80844 0.30103 0.40274 0.0
C761 C 0.78627 0.36419 0.45115 0.0
C762 C 0.76311 0.33294 0.44924 0.0
C763 C 0.75186 0.26872 0.42603 0.0
C764 C 0.76284 0.23697 0.4022 0.0
C765 C 0.77424 0.30092 0.42604 0.0
C766 C 0.79605 0.23762 0.37775 0.0
C767 C 0.81891 0.26929 0.37835 0.0
H768 H 0.76699 0.22581 0.92232 0.0
H769 H 0.69345 0.32112 0.93088 0.0
H770 H 0.74722 0.3634 0.93011 0.0
H771 H 0.81603 0.37362 0.92992 0.0
H772 H 0.88945 0.27789 0.9319 0.0
H773 H 0.83567 0.23584 0.92622 0.0
C774 C 0.76287 0.25584 0.92393 0.0
C775 C 0.72627 0.27031 0.92644 0.0
C776 C 0.79417 0.28007 0.92562 0.0
C777 C 0.72136 0.30927 0.92908 0.0
C778 C 0.75213 0.33352 0.9285 0.0
C779 C 0.82011 0.34358 0.92873 0.0
C780 C 0.85669 0.32891 0.93092 0.0
C781 C 0.78879 0.31933 0.92722 0.0
C782 C 0.86155 0.28987 0.93027 0.0
C783 C 0.83078 0.26576 0.92689 0.0
H784 H 0.28925 0.71808 0.92765 0.0
H785 H 0.39795 0.77007 0.92627 0.0
H786 H 0.3685 0.83214 0.92766 0.0
H787 H 0.31151 0.87186 0.92898 0.0
H788 H 0.20289 0.82001 0.91999 0.0
H789 H 0.23223 0.75788 0.92288 0.0
C790 C 0.30642 0.74307 0.92774 0.0
C791 C 0.3458 0.73955 0.92753 0.0
C792 C 0.28916 0.7787 0.92644 0.0
C793 C 0.36767 0.77209 0.92661 0.0
C794 C 0.35079 0.80756 0.92734 0.0
C795 C 0.29433 0.84689 0.92759 0.0
C796 C 0.25502 0.85048 0.92481 0.0
C797 C 0.31156 0.81126 0.92725 0.0
C798 C 0.23314 0.81796 0.92222 0.0
C799 C 0.24995 0.78244 0.92388 0.0
H800 H 0.87872 0.30631 0.59755 0.0
H801 H 0.84267 0.21724 0.5101 0.0
H802 H 0.77892 0.24242 0.50937 0.0
H803 H 0.73426 0.29096 0.53132 0.0
H804 H 0.77055 0.38254 0.61466 0.0
H805 H 0.8338 0.35551 0.61908 0.0
C806 C 0.85681 0.29258 0.57829 0.0
C807 C 0.86504 0.26002 0.55402 0.0
C808 C 0.82064 0.30795 0.57684 0.0
C809 C 0.8368 0.24248 0.52881 0.0
C810 C 0.80047 0.2569 0.52831 0.0
C811 C 0.75615 0.3051 0.55021 0.0
C812 C 0.74824 0.33885 0.57213 0.0
C813 C 0.79222 0.2898 0.5518 0.0
C814 C 0.7763 0.35656 0.59742 0.0
C815 C 0.81235 0.34119 0.59977 0.0
H816 H 0.32734 0.87168 0.5704 0.0
H817 H 0.33197 0.89556 0.43066 0.0
H818 H 0.28845 0.82775 0.46038 0.0
H819 H 0.23632 0.73983 0.44141 0.0
H820 H 0.24889 0.74606 0.5985 0.0
H821 H 0.2872 0.8168 0.55227 0.0
C822 C 0.31918 0.86394 0.53682 0.0
C823 C 0.33221 0.88447 0.50072 0.0
C824 C 0.29461 0.83075 0.53137 0.0
C825 C 0.32167 0.87718 0.45622 0.0
C826 C 0.2995 0.8473 0.44152 0.0
C827 C 0.24685 0.75666 0.46935 0.0
C828 C 0.23988 0.73858 0.52097 0.0
C829 C 0.28441 0.82003 0.47374 0.0
C830 C 0.2546 0.76044 0.56782 0.0
C831 C 0.27856 0.80087 0.5743 0.0
H832 H 0.98695 0.51525 0.93812 0.0
H833 H 0.07227 0.4506 0.0049 0.0
H834 H 0.10701 0.50775 0.02338 0.0
H835 H 0.11389 0.57704 0.01965 0.0
H836 H 1.0294 0.64077 0.94957 0.0
H837 H 0.99505 0.58373 0.93178 0.0
C838 C 1.01288 0.51381 0.9572 0.0
C839 C 1.02661 0.47869 0.9708 0.0
C840 C 1.03366 0.54684 0.96611 0.0
C841 C 0.06079 0.4773 -0.00543 0.0
C842 C 0.08089 0.51003 0.00484 0.0
C843 C 0.08837 0.57836 -0.0002 0.0
C844 C 0.07444 0.61352 -0.01396 0.0
C845 C 0.06794 0.54509 -0.00968 0.0
C846 C 1.04097 0.61433 0.96067 0.0
C847 C 1.02097 0.58162 0.95076 0.0
H848 H 0.08326 0.98153 0.94667 0.0
H849 H 0.14401 0.06369 0.02376 0.0
H850 H 0.08573 0.09692 0.03949 0.0
H851 H 1.01689 0.10349 0.03029 0.0
H852 H 0.95727 1.02387 0.94833 0.0
H853 H 1.01546 0.99034 0.93359 0.0
C854 C 0.08364 1.00635 0.96749 0.0
C855 C 0.11804 1.01985 -0.01571 0.0
C856 C 0.05019 1.02673 0.97422 0.0
C857 C 0.11794 0.05251 0.01059 0.0
C858 C 0.08463 0.07186 0.01917 0.0
C859 C 1.01685 0.07941 0.00829 0.0
C860 C 0.98268 0.06619 -0.00951 0.0
C861 C 0.05058 0.05967 0.00052 0.0
C862 C 0.98318 1.03463 0.96246 0.0
C863 C 1.01641 1.01509 0.95446 0.0
H864 H 0.60376 0.08467 0.94077 0.0
H865 H 0.52645 0.14411 0.02408 0.0
H866 H 0.49582 0.08529 0.04353 0.0
H867 H 0.48844 1.01658 0.03333 0.0
H868 H 0.5622 0.95887 0.94384 0.0
H869 H 0.59498 1.01705 0.92841 0.0
C870 C 0.58055 0.08467 0.96364 0.0
C871 C 0.56751 0.11886 0.98094 0.0
C872 C 0.56127 0.05098 0.9722 0.0
C873 C 0.5372 0.11821 0.0104 0.0
C874 C 0.5193 0.08458 0.0211 0.0
C875 C 0.51104 1.01699 0.00963 0.0
C876 C 0.52246 0.98333 -0.01069 0.0
C877 C 0.53032 0.05082 0.00118 0.0
C878 C 0.55248 0.98439 0.95949 0.0
C879 C 0.57167 1.01761 0.95111 0.0
H880 H 0.58262 0.48112 0.02948 0.0
H881 H 0.64566 0.56303 0.95774 0.0
H882 H 0.58771 0.59579 0.93682 0.0
H883 H 0.51856 0.60256 0.94098 0.0
H884 H 0.45568 0.52021 0.01246 0.0
H885 H 0.51349 0.48735 0.0327 0.0
C886 C 0.58351 0.50585 0.00882 0.0
C887 C 0.61837 0.51942 -0.00522 0.0
C888 C 0.54996 0.52518 -0.00215 0.0
C889 C 0.61913 0.55187 0.96861 0.0
C890 C 0.58598 0.57077 0.95687 0.0
C891 C 0.51764 0.57772 0.96146 0.0
C892 C 0.48273 0.56401 0.97539 0.0
C893 C 0.55118 0.55814 0.97193 0.0
C894 C 0.48212 0.53139 0.00132 0.0
C895 C 0.51521 0.5124 0.01271 0.0
H896 H 0.07271 0.11507 0.49431 0.0
H897 H 0.95621 0.09066 0.5167 0.0
H898 H 0.96867 1.02389 0.50474 0.0
H899 H 1.01349 0.97253 0.49107 0.0
H900 H 0.12975 0.99727 0.46889 0.0
H901 H 0.11711 0.06408 0.48008 0.0
C902 C 0.04999 0.09521 0.49674 0.0
C903 C 1.01361 0.10789 0.50683 0.0
C904 C 0.05757 0.057 0.4907 0.0
C905 C 0.98441 0.08174 0.50902 0.0
C906 C 0.99163 1.04355 0.5025 0.0
C907 C 1.03585 0.99264 0.48784 0.0
C908 C 0.07231 0.98007 0.47828 0.0
C909 C 1.02816 1.0309 0.49372 0.0
C910 C 0.10149 1.00621 0.47624 0.0
C911 C 0.09416 1.04439 0.48226 0.0
H912 H 0.51228 1.00437 0.52174 0.0
H913 H 0.4542 0.08921 0.44641 0.0
H914 H 0.51408 0.11823 0.4275 0.0
H915 H 0.5835 0.1193 0.43305 0.0
H916 H 0.63995 1.03717 0.51424 0.0
H917 H 0.58015 1.0084 0.53227 0.0
C918 C 0.51279 1.02899 0.50084 0.0
C919 C 0.47911 1.04437 0.48485 0.0
C920 C 0.54698 1.04663 0.49231 0.0
C921 C 0.48001 0.07669 0.45853 0.0
C922 C 0.51414 0.09349 0.44817 0.0
C923 C 0.58243 0.09564 0.45541 0.0
C924 C 0.61585 0.08001 0.47206 0.0
C925 C 0.54785 0.07894 0.46529 0.0
C926 C 0.61438 0.04931 0.50082 0.0
C927 C 0.5803 1.03267 0.51083 0.0
H928 H 0.53331 0.46914 0.49906 0.0
H929 H 0.64913 0.49837 0.52021 0.0
H930 H 0.63362 0.56478 0.51041 0.0
H931 H 0.58676 0.61386 0.4956 0.0
H932 H 0.47093 0.58315 0.47357 0.0
H933 H 0.48658 0.51767 0.48549 0.0
C934 C 0.55503 0.49014 0.50162 0.0
C935 C 0.59203 0.47932 0.51061 0.0
C936 C 0.54583 0.52777 0.49637 0.0
C937 C 0.62041 0.50634 0.51297 0.0
C938 C 0.61147 0.54417 0.50788 0.0
C939 C 0.5649 0.59286 0.49383 0.0
C940 C 0.52784 0.60328 0.4834 0.0
C941 C 0.57421 0.55515 0.4997 0.0
C942 C 0.49971 0.57587 0.48151 0.0
C943 C 0.50864 0.53839 0.48796 0.0
H944 H 0.09972 0.53126 0.53641 0.0
H945 H 0.10427 0.61709 0.4368 0.0
H946 H 1.04148 0.59914 0.41016 0.0
H947 H 0.98771 0.55641 0.41363 0.0
H948 H 0.9811 0.47498 0.51776 0.0
H949 H 1.04294 0.49416 0.54539 0.0
C950 C 0.08707 0.5464 0.50925 0.0
C951 C 0.10694 0.57521 0.48839 0.0
C952 C 0.05088 0.53655 0.49515 0.0
C953 C 0.08961 0.59476 0.4534 0.0
C954 C 0.05385 0.58439 0.43812 0.0
C955 C 0.99942 0.54316 0.44243 0.0
C956 C 0.97971 0.51422 0.46312 0.0
C957 C 1.03455 0.55491 0.45843 0.0
C958 C 0.9957 0.49713 0.50076 0.0
C959 C 1.031 0.50815 0.51663 0.0
H960 H 0.0603 0.53862 0.30463 0.0
H961 H 0.97964 0.48095 0.22204 0.0
H962 H 1.01446 0.49763 0.15575 0.0
H963 H 0.05284 0.54629 0.1226 0.0
H964 H 0.12197 0.61619 0.2066 0.0
H965 H 0.10828 0.57694 0.27051 0.0
C966 C 0.0516 0.52814 0.27223 0.0
C967 C 1.01735 0.50937 0.26764 0.0
C968 C 0.06949 0.54126 0.23426 0.0
C969 C 1.00591 0.49581 0.22588 0.0
C970 C 1.02556 0.50582 0.18802 0.0
C971 C 0.06633 0.55169 0.1545 0.0
C972 C 0.08779 0.58419 0.16046 0.0
C973 C 0.05525 0.53132 0.1917 0.0
C974 C 0.10512 0.59132 0.20167 0.0
C975 C 0.09691 0.56913 0.23824 0.0
H976 H 0.10521 1.00353 0.26672 0.0
H977 H 1.03418 0.06656 0.3544 0.0
H978 H 1.00919 0.10196 0.29162 0.0
H979 H 0.99462 0.1007 0.21129 0.0
H980 H 0.06496 1.03673 0.12369 0.0
H981 H 0.10369 1.01686 0.1866 0.0
C982 C 0.08556 1.02621 0.27231 0.0
C983 C 0.07043 1.03145 0.31475 0.0
C984 C 0.07043 1.04568 0.23577 0.0
C985 C 1.04564 0.06142 0.3218 0.0
C986 C 1.03099 0.08144 0.28576 0.0
C987 C 1.0194 0.08376 0.20578 0.0
C988 C 1.02617 0.06907 0.16324 0.0
C989 C 1.04107 0.07168 0.24236 0.0
C990 C 0.05871 0.04773 0.15635 0.0
C991 C 0.08074 1.0361 0.19241 0.0
H992 H 0.53418 1.02685 0.32706 0.0
H993 H 0.59568 0.11551 0.26479 0.0
H994 H 0.56508 0.10164 0.19375 0.0
H995 H 0.53643 0.0528 0.14708 0.0
H996 H 0.47927 0.96089 0.20862 0.0
H997 H 0.49164 0.98781 0.28188 0.0
C998 C 0.53953 1.04422 0.29838 0.0
C999 C 0.56784 0.07142 0.30065 0.0
C1000 C 0.52327 1.03476 0.2571 0.0
C1001 C 0.57435 0.094 0.26351 0.0
C1002 C 0.55715 0.0858 0.22275 0.0
C1003 C 0.52529 1.03957 0.17645 0.0
C1004 C 0.50803 1.00445 0.17267 0.0
C1005 C 0.53389 0.05443 0.21858 0.0
C1006 C 0.49315 0.98776 0.21076 0.0
C1007 C 0.50055 1.00297 0.25278 0.0
H1008 H 0.55441 0.54859 0.33405 0.0
H1009 H 0.48097 0.62055 0.25882 0.0
H1010 H 0.49329 0.58458 0.19139 0.0
H1011 H 0.54098 0.54828 0.15206 0.0
H1012 H 0.62301 0.48556 0.227 0.0
H1013 H 0.59126 0.50091 0.29595 0.0
C1014 C 0.53952 0.5549 0.30333 0.0
C1015 C 0.51701 0.58702 0.30099 0.0
C1016 C 0.54945 0.53618 0.26421 0.0
C1017 C 0.49819 0.59562 0.26118 0.0
C1018 C 0.50581 0.57544 0.22249 0.0
C1019 C 0.55053 0.53637 0.18331 0.0
C1020 C 0.58439 0.51643 0.18495 0.0
C1021 C 0.5338 0.54784 0.22306 0.0
C1022 C 0.59699 0.50121 0.22535 0.0
C1023 C 0.57908 0.51038 0.2648 0.0
H1024 H 1.04742 0.55074 0.63833 0.0
H1025 H 0.12792 0.61134 0.71804 0.0
H1026 H 0.0918 0.59897 0.78476 0.0
H1027 H 0.0514 0.55357 0.8209 0.0
H1028 H 0.9817 0.48094 0.74118 0.0
H1029 H 0.99776 0.51566 0.67444 0.0
C1030 C 0.0558 0.56284 0.67005 0.0
C1031 C 0.09016 0.58161 0.67378 0.0
C1032 C 1.03694 0.55238 0.70859 0.0
C1033 C 0.10144 0.59677 0.7148 0.0
C1034 C 0.08102 0.58926 0.75294 0.0
C1035 C 1.03821 0.54684 0.78918 0.0
C1036 C 1.0158 0.51481 0.78543 0.0
C1037 C 0.05066 0.56447 0.7506 0.0
C1038 C 0.99907 0.50565 0.74445 0.0
C1039 C 1.00874 0.52516 0.70626 0.0
H1040 H 0.99905 0.09399 0.71728 0.0
H1041 H 0.05798 1.02497 0.62336 0.0
H1042 H 0.08516 0.98848 0.68385 0.0
H1043 H 0.10743 0.99124 0.76168 0.0
H1044 H 0.04773 0.05881 0.85609 0.0
H1045 H 1.00523 0.08061 0.79742 0.0
C1046 C 1.01636 0.0698 0.71002 0.0
C1047 C 1.02818 0.06326 0.66633 0.0
C1048 C 1.03265 0.04948 0.74513 0.0
C1049 C 0.04954 1.03122 0.65703 0.0
C1050 C 0.06545 1.01056 0.69165 0.0
C1051 C 0.0839 1.00921 0.76964 0.0
C1052 C 0.08113 1.0243 0.81247 0.0
C1053 C 0.05972 1.02167 0.73572 0.0
C1054 C 0.05049 0.04722 0.823 0.0
C1055 C 1.02638 0.05995 0.78937 0.0
H1056 H 0.48687 0.99626 0.71888 0.0
H1057 H 0.54786 0.05361 0.61739 0.0
H1058 H 0.59033 0.07985 0.67352 0.0
H1059 H 0.59478 0.10196 0.7514 0.0
H1060 H 0.53453 1.04345 0.85275 0.0
H1061 H 0.50778 1.00133 0.79701 0.0
C1062 C 0.51085 1.01269 0.70895 0.0
C1063 C 0.51376 1.024 0.66456 0.0
C1064 C 0.53458 1.02829 0.74155 0.0
C1065 C 0.54496 1.04491 0.6516 0.0
C1066 C 0.5689 0.06042 0.68381 0.0
C1067 C 0.57744 0.07867 0.76141 0.0
C1068 C 0.56567 0.07635 0.80561 0.0
C1069 C 0.56183 0.05477 0.72902 0.0
C1070 C 0.54363 1.04594 0.8187 0.0
C1071 C 0.52795 1.02208 0.78672 0.0
H1072 H 0.55419 0.55607 0.82821 0.0
H1073 H 0.47309 0.62029 0.75359 0.0
H1074 H 0.50886 0.61111 0.68597 0.0
H1075 H 0.54861 0.5666 0.64637 0.0
H1076 H 0.62218 0.49374 0.72036 0.0
H1077 H 0.60578 0.52533 0.78937 0.0
C1078 C 0.54554 0.56967 0.79758 0.0
C1079 C 0.51075 0.58791 0.79529 0.0
C1080 C 0.56478 0.56184 0.75824 0.0
C1081 C 0.49965 0.60561 0.7557 0.0
C1082 C 0.5199 0.60001 0.71693 0.0
C1083 C 0.56264 0.55924 0.67733 0.0
C1084 C 0.58569 0.52748 0.67886 0.0
C1085 C 0.5505 0.57539 0.7172 0.0
C1086 C 0.60393 0.51798 0.71882 0.0
C1087 C 0.59406 0.53565 0.75838 0.0
loop_
_geom_bond_atom_site_label_1
_geom_bond_atom_site_label_2
_geom_bond_distance
_geom_bond_site_symmetry_2
_ccdc_geom_bond_type
O0 Tb1 2.506 1_556 S
O0 C14 1.265 1_556 S
Tb1 O0 2.506 1_554 S
Tb1 O6 2.312 . S
Tb1 O10 2.271 . S
Tb1 O12 2.338 . S
Tb1 O19 2.441 . S
C2 O10 1.252 . S
C2 O11 1.253 . S
O3 Tb4 2.271 . S
O3 C13 1.252 . S
Tb4 O3 2.271 . S
Tb4 O7 2.338 1_455 S
Tb4 O11 2.312 . S
Tb4 O15 2.441 . S
Tb4 O16 2.506 . S
C5 O15 1.244 . S
C5 O16 1.265 . S
O6 Tb1 2.312 . S
O6 C13 1.253 . S
O7 Tb4 2.338 1_655 S
O7 C8 1.258 . S
C8 O7 1.258 . S
C8 O9 1.251 . S
O9 C8 1.251 . S
O10 Tb1 2.271 . S
O10 C2 1.252 . S
O11 C2 1.253 . S
O11 Tb4 2.312 . S
O12 Tb1 2.338 . S
O12 C17 1.258 . S
C13 O3 1.252 . S
C13 O6 1.253 . S
C14 O0 1.265 1_554 S
C14 O19 1.244 . S
O15 Tb4 2.441 . S
O15 C5 1.244 . S
O16 Tb4 2.506 . S
O16 C5 1.265 . S
C17 O12 1.258 . S
C17 O18 1.251 . S
O18 C17 1.251 . S
O19 Tb1 2.441 . S
O19 C14 1.244 . S
O20 Tb21 2.506 1_556 S
O20 C34 1.265 1_556 S
Tb21 O20 2.506 1_554 S
Tb21 O26 2.312 . S
Tb21 O30 2.271 . S
Tb21 O32 2.338 . S
Tb21 O39 2.441 . S
C22 O30 1.252 . S
C22 O31 1.253 . S
O23 Tb24 2.271 . S
O23 C33 1.252 . S
Tb24 O23 2.271 . S
Tb24 O27 2.338 1_545 S
Tb24 O31 2.312 . S
Tb24 O35 2.441 . S
Tb24 O36 2.506 . S
C25 O35 1.244 . S
C25 O36 1.265 . S
O26 Tb21 2.312 . S
O26 C33 1.253 . S
O27 Tb24 2.338 1_565 S
O27 C28 1.258 . S
C28 O27 1.258 . S
C28 O29 1.251 . S
O29 C28 1.251 . S
O30 Tb21 2.271 . S
O30 C22 1.252 . S
O31 C22 1.253 . S
O31 Tb24 2.312 . S
O32 Tb21 2.338 . S
O32 C37 1.258 . S
C33 O23 1.252 . S
C33 O26 1.253 . S
C34 O20 1.265 1_554 S
C34 O39 1.244 . S
O35 Tb24 2.441 . S
O35 C25 1.244 . S
O36 Tb24 2.506 . S
O36 C25 1.265 . S
C37 O32 1.258 . S
C37 O38 1.251 . S
O38 C37 1.251 . S
O39 Tb21 2.441 . S
O39 C34 1.244 . S
O40 Tb41 2.506 . S
O40 C54 1.265 . S
Tb41 O40 2.506 . S
Tb41 O46 2.312 . S
Tb41 O50 2.271 . S
Tb41 O52 2.338 . S
Tb41 O59 2.441 . S
C42 O50 1.252 . S
C42 O51 1.253 . S
O43 Tb44 2.271 . S
O43 C53 1.252 . S
Tb44 O43 2.271 . S
Tb44 O47 2.338 . S
Tb44 O51 2.312 . S
Tb44 O55 2.441 . S
Tb44 O56 2.506 1_554 S
C45 O55 1.244 . S
C45 O56 1.265 1_554 S
O46 Tb41 2.312 . S
O46 C53 1.253 . S
O47 Tb44 2.338 . S
O47 C48 1.258 . S
C48 O47 1.258 . S
C48 O49 1.251 . S
O49 C48 1.251 . S
O50 Tb41 2.271 . S
O50 C42 1.252 . S
O51 C42 1.253 . S
O51 Tb44 2.312 . S
O52 Tb41 2.338 . S
O52 C57 1.258 . S
C53 O43 1.252 . S
C53 O46 1.253 . S
C54 O40 1.265 . S
C54 O59 1.244 . S
O55 Tb44 2.441 . S
O55 C45 1.244 . S
O56 Tb44 2.506 1_556 S
O56 C45 1.265 1_556 S
C57 O52 1.258 . S
C57 O58 1.251 . S
O58 C57 1.251 . S
O59 Tb41 2.441 . S
O59 C54 1.244 . S
O60 Tb61 2.506 1_556 S
O60 C74 1.265 1_556 S
Tb61 O60 2.506 1_554 S
Tb61 O66 2.312 . S
Tb61 O70 2.271 . S
Tb61 O72 2.338 . S
Tb61 O79 2.441 . S
C62 O70 1.252 . S
C62 O71 1.253 . S
O63 Tb64 2.271 . S
O63 C73 1.252 . S
Tb64 O63 2.271 . S
Tb64 O67 2.338 . S
Tb64 O71 2.312 . S
Tb64 O75 2.441 . S
Tb64 O76 2.506 . S
C65 O75 1.244 . S
C65 O76 1.265 . S
O66 Tb61 2.312 . S
O66 C73 1.253 . S
O67 Tb64 2.338 . S
O67 C68 1.258 . S
C68 O67 1.258 . S
C68 O69 1.251 . S
O69 C68 1.251 . S
O70 Tb61 2.271 . S
O70 C62 1.252 . S
O71 C62 1.253 . S
O71 Tb64 2.312 . S
O72 Tb61 2.338 . S
O72 C77 1.258 . S
C73 O63 1.252 . S
C73 O66 1.253 . S
C74 O60 1.265 1_554 S
C74 O79 1.244 . S
O75 Tb64 2.441 . S
O75 C65 1.244 . S
O76 Tb64 2.506 . S
O76 C65 1.265 . S
C77 O72 1.258 . S
C77 O78 1.251 . S
O78 C77 1.251 . S
O79 Tb61 2.441 . S
O79 C74 1.244 . S
O80 Tb81 2.506 . S
O80 C94 1.265 . S
Tb81 O80 2.506 . S
Tb81 O86 2.312 . S
Tb81 O90 2.271 . S
Tb81 O92 2.338 . S
Tb81 O99 2.441 . S
C82 O90 1.252 . S
C82 O91 1.253 . S
O83 Tb84 2.271 . S
O83 C93 1.252 . S
Tb84 O83 2.271 . S
Tb84 O87 2.338 1_455 S
Tb84 O91 2.312 . S
Tb84 O95 2.441 . S
Tb84 O96 2.506 . S
C85 O95 1.244 . S
C85 O96 1.265 . S
O86 Tb81 2.312 . S
O86 C93 1.253 . S
O87 Tb84 2.338 1_655 S
O87 C88 1.258 . S
C88 O87 1.258 . S
C88 O89 1.251 . S
O89 C88 1.251 . S
O90 Tb81 2.271 . S
O90 C82 1.252 . S
O91 C82 1.253 . S
O91 Tb84 2.312 . S
O92 Tb81 2.338 . S
O92 C97 1.258 . S
C93 O83 1.252 . S
C93 O86 1.253 . S
C94 O80 1.265 . S
C94 O99 1.244 . S
O95 Tb84 2.441 . S
O95 C85 1.244 . S
O96 Tb84 2.506 . S
O96 C85 1.265 . S
C97 O92 1.258 . S
C97 O98 1.251 . S
O98 C97 1.251 . S
O99 Tb81 2.441 . S
O99 C94 1.244 . S
O100 Tb101 2.506 . S
O100 C114 1.265 . S
Tb101 O100 2.506 . S
Tb101 O106 2.312 . S
Tb101 O110 2.271 . S
Tb101 O112 2.338 . S
Tb101 O119 2.441 . S
C102 O110 1.252 . S
C102 O111 1.253 . S
O103 Tb104 2.271 . S
O103 C113 1.252 . S
Tb104 O103 2.271 . S
Tb104 O107 2.338 1_545 S
Tb104 O111 2.312 . S
Tb104 O115 2.441 . S
Tb104 O116 2.506 . S
C105 O115 1.244 . S
C105 O116 1.265 . S
O106 Tb101 2.312 . S
O106 C113 1.253 . S
O107 Tb104 2.338 1_565 S
O107 C108 1.258 . S
C108 O107 1.258 . S
C108 O109 1.251 . S
O109 C108 1.251 . S
O110 Tb101 2.271 . S
O110 C102 1.252 . S
O111 C102 1.253 . S
O111 Tb104 2.312 . S
O112 Tb101 2.338 . S
O112 C117 1.258 . S
C113 O103 1.252 . S
C113 O106 1.253 . S
C114 O100 1.265 . S
C114 O119 1.244 . S
O115 Tb104 2.441 . S
O115 C105 1.244 . S
O116 Tb104 2.506 . S
O116 C105 1.265 . S
C117 O112 1.258 . S
C117 O118 1.251 . S
O118 C117 1.251 . S
O119 Tb101 2.441 . S
O119 C114 1.244 . S
O120 Tb121 2.506 . S
O120 C134 1.265 . S
Tb121 O120 2.506 . S
Tb121 O126 2.312 . S
Tb121 O130 2.271 . S
Tb121 O132 2.338 . S
Tb121 O139 2.441 . S
C122 O130 1.252 . S
C122 O131 1.253 . S
O123 Tb124 2.271 . S
O123 C133 1.252 . S
Tb124 O123 2.271 . S
Tb124 O127 2.338 . S
Tb124 O131 2.312 . S
Tb124 O135 2.441 . S
Tb124 O136 2.506 . S
C125 O135 1.244 . S
C125 O136 1.265 . S
O126 Tb121 2.312 . S
O126 C133 1.253 . S
O127 Tb124 2.338 . S
O127 C128 1.258 . S
C128 O127 1.258 . S
C128 O129 1.251 . S
O129 C128 1.251 . S
O130 Tb121 2.271 . S
O130 C122 1.252 . S
O131 C122 1.253 . S
O131 Tb124 2.312 . S
O132 Tb121 2.338 . S
O132 C137 1.258 . S
C133 O123 1.252 . S
C133 O126 1.253 . S
C134 O120 1.265 . S
C134 O139 1.244 . S
O135 Tb124 2.441 . S
O135 C125 1.244 . S
O136 Tb124 2.506 . S
O136 C125 1.265 . S
C137 O132 1.258 . S
C137 O138 1.251 . S
O138 C137 1.251 . S
O139 Tb121 2.441 . S
O139 C134 1.244 . S
O140 Tb141 2.506 . S
O140 C154 1.265 . S
Tb141 O140 2.506 . S
Tb141 O146 2.312 . S
Tb141 O150 2.271 . S
Tb141 O152 2.338 . S
Tb141 O159 2.441 . S
C142 O150 1.252 . S
C142 O151 1.253 . S
O143 Tb144 2.271 . S
O143 C153 1.252 . S
Tb144 O143 2.271 . S
Tb144 O147 2.338 . S
Tb144 O151 2.312 . S
Tb144 O155 2.441 . S
Tb144 O156 2.506 . S
C145 O155 1.244 . S
C145 O156 1.265 . S
O146 Tb141 2.312 . S
O146 C153 1.253 . S
O147 Tb144 2.338 . S
O147 C148 1.258 . S
C148 O147 1.258 . S
C148 O149 1.251 . S
O149 C148 1.251 . S
O150 Tb141 2.271 . S
O150 C142 1.252 . S
O151 C142 1.253 . S
O151 Tb144 2.312 . S
O152 Tb141 2.338 . S
O152 C157 1.258 . S
C153 O143 1.252 . S
C153 O146 1.253 . S
C154 O140 1.265 . S
C154 O159 1.244 . S
O155 Tb144 2.441 . S
O155 C145 1.244 . S
O156 Tb144 2.506 . S
O156 C145 1.265 . S
C157 O152 1.258 . S
C157 O158 1.251 . S
O158 C157 1.251 . S
O159 Tb141 2.441 . S
O159 C154 1.244 . S
O160 Tb161 2.506 1_554 S
O160 C174 1.265 1_554 S
Tb161 O160 2.506 1_556 S
Tb161 O166 2.312 . S
Tb161 O170 2.271 . S
Tb161 O172 2.338 . S
Tb161 O179 2.441 . S
C162 O170 1.252 . S
C162 O171 1.253 . S
O163 Tb164 2.271 . S
O163 C173 1.252 . S
Tb164 O163 2.271 . S
Tb164 O167 2.338 1_655 S
Tb164 O171 2.312 . S
Tb164 O175 2.441 . S
Tb164 O176 2.506 . S
C165 O175 1.244 . S
C165 O176 1.265 . S
O166 Tb161 2.312 . S
O166 C173 1.253 . S
O167 Tb164 2.338 1_455 S
O167 C168 1.258 . S
C168 O167 1.258 . S
C168 O169 1.251 . S
O169 C168 1.251 . S
O170 Tb161 2.271 . S
O170 C162 1.252 . S
O171 C162 1.253 . S
O171 Tb164 2.312 . S
O172 Tb161 2.338 . S
O172 C177 1.258 . S
C173 O163 1.252 . S
C173 O166 1.253 . S
C174 O160 1.265 1_556 S
C174 O179 1.244 . S
O175 Tb164 2.441 . S
O175 C165 1.244 . S
O176 Tb164 2.506 . S
O176 C165 1.265 . S
C177 O172 1.258 . S
C177 O178 1.251 . S
O178 C177 1.251 . S
O179 Tb161 2.441 . S
O179 C174 1.244 . S
O180 Tb181 2.506 1_554 S
O180 C194 1.265 1_554 S
Tb181 O180 2.506 1_556 S
Tb181 O186 2.312 . S
Tb181 O190 2.271 . S
Tb181 O192 2.338 . S
Tb181 O199 2.441 . S
C182 O190 1.252 . S
C182 O191 1.253 . S
O183 Tb184 2.271 . S
O183 C193 1.252 . S
Tb184 O183 2.271 . S
Tb184 O187 2.338 1_565 S
Tb184 O191 2.312 . S
Tb184 O195 2.441 . S
Tb184 O196 2.506 . S
C185 O195 1.244 . S
C185 O196 1.265 . S
O186 Tb181 2.312 . S
O186 C193 1.253 . S
O187 Tb184 2.338 1_545 S
O187 C188 1.258 . S
C188 O187 1.258 . S
C188 O189 1.251 . S
O189 C188 1.251 . S
O190 Tb181 2.271 . S
O190 C182 1.252 . S
O191 C182 1.253 . S
O191 Tb184 2.312 . S
O192 Tb181 2.338 . S
O192 C197 1.258 . S
C193 O183 1.252 . S
C193 O186 1.253 . S
C194 O180 1.265 1_556 S
C194 O199 1.244 . S
O195 Tb184 2.441 . S
O195 C185 1.244 . S
O196 Tb184 2.506 . S
O196 C185 1.265 . S
C197 O192 1.258 . S
C197 O198 1.251 . S
O198 C197 1.251 . S
O199 Tb181 2.441 . S
O199 C194 1.244 . S
O200 Tb201 2.506 1_554 S
O200 C214 1.265 1_554 S
Tb201 O200 2.506 1_556 S
Tb201 O206 2.312 . S
Tb201 O210 2.271 . S
Tb201 O212 2.338 . S
Tb201 O219 2.441 . S
C202 O210 1.252 . S
C202 O211 1.253 . S
O203 Tb204 2.271 . S
O203 C213 1.252 . S
Tb204 O203 2.271 . S
Tb204 O207 2.338 . S
Tb204 O211 2.312 . S
Tb204 O215 2.441 . S
Tb204 O216 2.506 . S
C205 O215 1.244 . S
C205 O216 1.265 . S
O206 Tb201 2.312 . S
O206 C213 1.253 . S
O207 Tb204 2.338 . S
O207 C208 1.258 . S
C208 O207 1.258 . S
C208 O209 1.251 . S
O209 C208 1.251 . S
O210 Tb201 2.271 . S
O210 C202 1.252 . S
O211 C202 1.253 . S
O211 Tb204 2.312 . S
O212 Tb201 2.338 . S
O212 C217 1.258 . S
C213 O203 1.252 . S
C213 O206 1.253 . S
C214 O200 1.265 1_556 S
C214 O219 1.244 . S
O215 Tb204 2.441 . S
O215 C205 1.244 . S
O216 Tb204 2.506 . S
O216 C205 1.265 . S
C217 O212 1.258 . S
C217 O218 1.251 . S
O218 C217 1.251 . S
O219 Tb201 2.441 . S
O219 C214 1.244 . S
O220 Tb221 2.506 1_554 S
O220 C234 1.265 1_554 S
Tb221 O220 2.506 1_556 S
Tb221 O226 2.312 . S
Tb221 O230 2.271 . S
Tb221 O232 2.338 . S
Tb221 O239 2.441 . S
C222 O230 1.252 . S
C222 O231 1.253 . S
O223 Tb224 2.271 . S
O223 C233 1.252 . S
Tb224 O223 2.271 . S
Tb224 O227 2.338 . S
Tb224 O231 2.312 . S
Tb224 O235 2.441 . S
Tb224 O236 2.506 . S
C225 O235 1.244 . S
C225 O236 1.265 . S
O226 Tb221 2.312 . S
O226 C233 1.253 . S
O227 Tb224 2.338 . S
O227 C228 1.258 . S
C228 O227 1.258 . S
C228 O229 1.251 . S
O229 C228 1.251 . S
O230 Tb221 2.271 . S
O230 C222 1.252 . S
O231 C222 1.253 . S
O231 Tb224 2.312 . S
O232 Tb221 2.338 . S
O232 C237 1.258 . S
C233 O223 1.252 . S
C233 O226 1.253 . S
C234 O220 1.265 1_556 S
C234 O239 1.244 . S
O235 Tb224 2.441 . S
O235 C225 1.244 . S
O236 Tb224 2.506 . S
O236 C225 1.265 . S
C237 O232 1.258 . S
C237 O238 1.251 . S
O238 C237 1.251 . S
O239 Tb221 2.441 . S
O239 C234 1.244 . S
O240 Tb241 2.506 . S
O240 C254 1.265 . S
Tb241 O240 2.506 . S
Tb241 O246 2.312 . S
Tb241 O250 2.271 . S
Tb241 O252 2.338 . S
Tb241 O259 2.441 . S
C242 O250 1.252 . S
C242 O251 1.253 . S
O243 Tb244 2.271 . S
O243 C253 1.252 . S
Tb244 O243 2.271 . S
Tb244 O247 2.338 1_655 S
Tb244 O251 2.312 . S
Tb244 O255 2.441 . S
Tb244 O256 2.506 . S
C245 O255 1.244 . S
C245 O256 1.265 . S
O246 Tb241 2.312 . S
O246 C253 1.253 . S
O247 Tb244 2.338 1_455 S
O247 C248 1.258 . S
C248 O247 1.258 . S
C248 O249 1.251 . S
O249 C248 1.251 . S
O250 Tb241 2.271 . S
O250 C242 1.252 . S
O251 C242 1.253 . S
O251 Tb244 2.312 . S
O252 Tb241 2.338 . S
O252 C257 1.258 . S
C253 O243 1.252 . S
C253 O246 1.253 . S
C254 O240 1.265 . S
C254 O259 1.244 . S
O255 Tb244 2.441 . S
O255 C245 1.244 . S
O256 Tb244 2.506 . S
O256 C245 1.265 . S
C257 O252 1.258 . S
C257 O258 1.251 . S
O258 C257 1.251 . S
O259 Tb241 2.441 . S
O259 C254 1.244 . S
O260 Tb261 2.506 . S
O260 C274 1.265 . S
Tb261 O260 2.506 . S
Tb261 O266 2.312 . S
Tb261 O270 2.271 . S
Tb261 O272 2.338 . S
Tb261 O279 2.441 . S
C262 O270 1.252 . S
C262 O271 1.253 . S
O263 Tb264 2.271 . S
O263 C273 1.252 . S
Tb264 O263 2.271 . S
Tb264 O267 2.338 1_565 S
Tb264 O271 2.312 . S
Tb264 O275 2.441 . S
Tb264 O276 2.506 . S
C265 O275 1.244 . S
C265 O276 1.265 . S
O266 Tb261 2.312 . S
O266 C273 1.253 . S
O267 Tb264 2.338 1_545 S
O267 C268 1.258 . S
C268 O267 1.258 . S
C268 O269 1.251 . S
O269 C268 1.251 . S
O270 Tb261 2.271 . S
O270 C262 1.252 . S
O271 C262 1.253 . S
O271 Tb264 2.312 . S
O272 Tb261 2.338 . S
O272 C277 1.258 . S
C273 O263 1.252 . S
C273 O266 1.253 . S
C274 O260 1.265 . S
C274 O279 1.244 . S
O275 Tb264 2.441 . S
O275 C265 1.244 . S
O276 Tb264 2.506 . S
O276 C265 1.265 . S
C277 O272 1.258 . S
C277 O278 1.251 . S
O278 C277 1.251 . S
O279 Tb261 2.441 . S
O279 C274 1.244 . S
O280 Tb281 2.506 . S
O280 C294 1.265 . S
Tb281 O280 2.506 . S
Tb281 O286 2.312 . S
Tb281 O290 2.271 . S
Tb281 O292 2.338 . S
Tb281 O299 2.441 . S
C282 O290 1.252 . S
C282 O291 1.253 . S
O283 Tb284 2.271 . S
O283 C293 1.252 . S
Tb284 O283 2.271 . S
Tb284 O287 2.338 . S
Tb284 O291 2.312 . S
Tb284 O295 2.441 . S
Tb284 O296 2.506 . S
C285 O295 1.244 . S
C285 O296 1.265 . S
O286 Tb281 2.312 . S
O286 C293 1.253 . S
O287 Tb284 2.338 . S
O287 C288 1.258 . S
C288 O287 1.258 . S
C288 O289 1.251 . S
O289 C288 1.251 . S
O290 Tb281 2.271 . S
O290 C282 1.252 . S
O291 C282 1.253 . S
O291 Tb284 2.312 . S
O292 Tb281 2.338 . S
O292 C297 1.258 . S
C293 O283 1.252 . S
C293 O286 1.253 . S
C294 O280 1.265 . S
C294 O299 1.244 . S
O295 Tb284 2.441 . S
O295 C285 1.244 . S
O296 Tb284 2.506 . S
O296 C285 1.265 . S
C297 O292 1.258 . S
C297 O298 1.251 . S
O298 C297 1.251 . S
O299 Tb281 2.441 . S
O299 C294 1.244 . S
O300 Tb301 2.506 . S
O300 C314 1.265 . S
Tb301 O300 2.506 . S
Tb301 O306 2.312 . S
Tb301 O310 2.271 . S
Tb301 O312 2.338 . S
Tb301 O319 2.441 . S
C302 O310 1.252 . S
C302 O311 1.253 . S
O303 Tb304 2.271 . S
O303 C313 1.252 . S
Tb304 O303 2.271 . S
Tb304 O307 2.338 . S
Tb304 O311 2.312 . S
Tb304 O315 2.441 . S
Tb304 O316 2.506 . S
C305 O315 1.244 . S
C305 O316 1.265 . S
O306 Tb301 2.312 . S
O306 C313 1.253 . S
O307 Tb304 2.338 . S
O307 C308 1.258 . S
C308 O307 1.258 . S
C308 O309 1.251 . S
O309 C308 1.251 . S
O310 Tb301 2.271 . S
O310 C302 1.252 . S
O311 C302 1.253 . S
O311 Tb304 2.312 . S
O312 Tb301 2.338 . S
O312 C317 1.258 . S
C313 O303 1.252 . S
C313 O306 1.253 . S
C314 O300 1.265 . S
C314 O319 1.244 . S
O315 Tb304 2.441 . S
O315 C305 1.244 . S
O316 Tb304 2.506 . S
O316 C305 1.265 . S
C317 O312 1.258 . S
C317 O318 1.251 . S
O318 C317 1.251 . S
O319 Tb301 2.441 . S
O319 C314 1.244 . S
H320 C326 0.930 . S
H321 C329 0.930 . S
H322 C330 0.930 . S
H323 C331 0.930 . S
H324 C334 0.930 . S
H325 C335 0.930 . S
C326 H320 0.930 . S
C326 C327 1.355 . S
C326 C328 1.415 . S
C327 C326 1.355 . S
C327 C329 1.419 . S
C328 C326 1.415 . S
C328 C333 1.425 . S
C328 C335 1.409 . S
C329 H321 0.930 . S
C329 C327 1.419 . S
C329 C330 1.362 . S
C330 H322 0.930 . S
C330 C329 1.362 . S
C330 C333 1.409 . S
C331 H323 0.930 . S
C331 C332 1.355 . S
C331 C333 1.415 . S
C332 C331 1.355 . S
C332 C334 1.419 . S
C333 C328 1.425 . S
C333 C330 1.409 . S
C333 C331 1.415 . S
C334 H324 0.930 . S
C334 C332 1.419 . S
C334 C335 1.362 . S
C335 H325 0.930 . S
C335 C328 1.409 . S
C335 C334 1.362 . S
H336 C342 0.930 . S
H337 C345 0.930 1_556 S
H338 C346 0.930 1_556 S
H339 C347 0.930 . S
H340 C350 0.930 . S
H341 C351 0.930 . S
C342 H336 0.930 . S
C342 C343 1.355 . S
C342 C344 1.415 . S
C343 C342 1.355 . S
C343 C345 1.419 . S
C344 C342 1.415 . S
C344 C349 1.425 . S
C344 C351 1.409 . S
C345 H337 0.930 1_554 S
C345 C343 1.419 . S
C345 C346 1.362 1_455 S
C346 H338 0.930 1_554 S
C346 C345 1.362 1_655 S
C346 C349 1.409 1_655 S
C347 H339 0.930 . S
C347 C348 1.355 . S
C347 C349 1.415 1_655 S
C348 C347 1.355 . S
C348 C350 1.419 1_655 S
C349 C344 1.425 . S
C349 C346 1.409 1_455 S
C349 C347 1.415 1_455 S
C350 H340 0.930 . S
C350 C348 1.419 1_455 S
C350 C351 1.362 . S
C351 H341 0.930 . S
C351 C344 1.409 . S
C351 C350 1.362 . S
H352 C358 0.930 . S
H353 C361 0.930 . S
H354 C362 0.930 . S
H355 C363 0.930 . S
H356 C366 0.930 . S
H357 C367 0.930 . S
C358 H352 0.930 . S
C358 C359 1.355 . S
C358 C360 1.415 . S
C359 C358 1.355 . S
C359 C361 1.419 1_565 S
C360 C358 1.415 . S
C360 C365 1.425 1_565 S
C360 C367 1.409 . S
C361 H353 0.930 . S
C361 C359 1.419 1_545 S
C361 C362 1.362 . S
C362 H354 0.930 . S
C362 C361 1.362 . S
C362 C365 1.409 . S
C363 H355 0.930 . S
C363 C364 1.355 . S
C363 C365 1.415 . S
C364 C363 1.355 . S
C364 C366 1.419 . S
C365 C360 1.425 1_545 S
C365 C362 1.409 . S
C365 C363 1.415 . S
C366 H356 0.930 . S
C366 C364 1.419 . S
C366 C367 1.362 1_545 S
C367 H357 0.930 . S
C367 C360 1.409 . S
C367 C366 1.362 1_565 S
H368 C374 0.930 . S
H369 C377 0.930 . S
H370 C378 0.930 . S
H371 C379 0.930 . S
H372 C382 0.930 . S
H373 C383 0.930 . S
C374 H368 0.930 . S
C374 C375 1.355 . S
C374 C376 1.415 . S
C375 C374 1.355 . S
C375 C377 1.419 . S
C376 C374 1.415 . S
C376 C381 1.425 . S
C376 C383 1.409 . S
C377 H369 0.930 . S
C377 C375 1.419 . S
C377 C378 1.362 . S
C378 H370 0.930 . S
C378 C377 1.362 . S
C378 C381 1.409 . S
C379 H371 0.930 . S
C379 C380 1.355 . S
C379 C381 1.415 . S
C380 C379 1.355 . S
C380 C382 1.419 . S
C381 C376 1.425 . S
C381 C378 1.409 . S
C381 C379 1.415 . S
C382 H372 0.930 . S
C382 C380 1.419 . S
C382 C383 1.362 . S
C383 H373 0.930 . S
C383 C376 1.409 . S
C383 C382 1.362 . S
H384 C390 0.930 . S
H385 C393 0.930 . S
H386 C394 0.930 . S
H387 C395 0.930 . S
H388 C398 0.930 . S
H389 C399 0.952 . S
C390 H384 0.930 . S
C390 C391 1.355 . S
C390 C392 1.410 1_565 S
C391 C390 1.355 . S
C391 C393 1.419 1_565 S
C392 C390 1.410 1_545 S
C392 C397 1.430 . S
C392 C399 1.408 1_545 S
C393 H385 0.930 . S
C393 C391 1.419 1_545 S
C393 C394 1.362 . S
C394 H386 0.930 . S
C394 C393 1.362 . S
C394 C397 1.409 . S
C395 H387 0.930 . S
C395 C396 1.355 . S
C395 C397 1.415 . S
C396 C395 1.355 . S
C396 C398 1.419 . S
C397 C392 1.430 . S
C397 C394 1.409 . S
C397 C395 1.415 . S
C398 H388 0.930 . S
C398 C396 1.419 . S
C398 C399 1.343 1_545 S
C399 H389 0.952 . S
C399 C392 1.408 1_565 S
C399 C398 1.343 1_565 S
H400 C406 0.930 . S
H401 C409 0.930 . S
H402 C410 0.930 . S
H403 C411 0.930 . S
H404 C414 0.930 . S
H405 C415 0.930 . S
C406 H400 0.930 . S
C406 C407 1.355 . S
C406 C408 1.415 . S
C407 C406 1.355 . S
C407 C409 1.419 . S
C408 C406 1.415 . S
C408 C413 1.425 . S
C408 C415 1.409 . S
C409 H401 0.930 . S
C409 C407 1.419 . S
C409 C410 1.362 . S
C410 H402 0.930 . S
C410 C409 1.362 . S
C410 C413 1.409 . S
C411 H403 0.930 . S
C411 C412 1.355 . S
C411 C413 1.415 . S
C412 C411 1.355 . S
C412 C414 1.419 . S
C413 C408 1.425 . S
C413 C410 1.409 . S
C413 C411 1.415 . S
C414 H404 0.930 . S
C414 C412 1.419 . S
C414 C415 1.362 . S
C415 H405 0.930 . S
C415 C408 1.409 . S
C415 C414 1.362 . S
H416 C422 0.930 . S
H417 C425 0.930 . S
H418 C426 0.930 . S
H419 C427 0.930 . S
H420 C430 0.930 . S
H421 C431 0.930 . S
C422 H416 0.930 . S
C422 C423 1.355 . S
C422 C424 1.415 . S
C423 C422 1.355 . S
C423 C425 1.419 . S
C424 C422 1.415 . S
C424 C429 1.425 . S
C424 C431 1.409 . S
C425 H417 0.930 . S
C425 C423 1.419 . S
C425 C426 1.362 . S
C426 H418 0.930 . S
C426 C425 1.362 . S
C426 C429 1.409 . S
C427 H419 0.930 . S
C427 C428 1.355 . S
C427 C429 1.415 . S
C428 C427 1.355 . S
C428 C430 1.419 . S
C429 C424 1.425 . S
C429 C426 1.409 . S
C429 C427 1.415 . S
C430 H420 0.930 . S
C430 C428 1.419 . S
C430 C431 1.362 . S
C431 H421 0.930 . S
C431 C424 1.409 . S
C431 C430 1.362 . S
H432 C438 0.930 . S
H433 C441 0.930 . S
H434 C442 0.930 . S
H435 C443 0.930 . S
H436 C446 0.930 . S
H437 C447 0.930 . S
C438 H432 0.930 . S
C438 C439 1.355 . S
C438 C440 1.415 . S
C439 C438 1.355 . S
C439 C441 1.419 . S
C440 C438 1.415 . S
C440 C445 1.425 . S
C440 C447 1.409 . S
C441 H433 0.930 . S
C441 C439 1.419 . S
C441 C442 1.362 . S
C442 H434 0.930 . S
C442 C441 1.362 . S
C442 C445 1.409 . S
C443 H435 0.930 . S
C443 C444 1.355 . S
C443 C445 1.415 1_655 S
C444 C443 1.355 . S
C444 C446 1.419 . S
C445 C440 1.425 . S
C445 C442 1.409 . S
C445 C443 1.415 1_455 S
C446 H436 0.930 . S
C446 C444 1.419 . S
C446 C447 1.362 1_655 S
C447 H437 0.930 . S
C447 C440 1.409 . S
C447 C446 1.362 1_455 S
H448 C454 0.930 . S
H449 C457 0.930 . S
H450 C458 0.930 . S
H451 C459 0.930 . S
H452 C462 0.930 . S
H453 C463 0.930 . S
C454 H448 0.930 . S
C454 C455 1.355 . S
C454 C456 1.415 . S
C455 C454 1.355 . S
C455 C457 1.419 . S
C456 C454 1.415 . S
C456 C461 1.425 . S
C456 C463 1.409 . S
C457 H449 0.930 . S
C457 C455 1.419 . S
C457 C458 1.362 . S
C458 H450 0.930 . S
C458 C457 1.362 . S
C458 C461 1.409 . S
C459 H451 0.930 . S
C459 C460 1.355 . S
C459 C461 1.415 . S
C460 C459 1.355 . S
C460 C462 1.419 . S
C461 C456 1.425 . S
C461 C458 1.409 . S
C461 C459 1.415 . S
C462 H452 0.930 . S
C462 C460 1.419 . S
C462 C463 1.362 . S
C463 H453 0.930 . S
C463 C456 1.409 . S
C463 C462 1.362 . S
H464 C470 0.930 1_554 S
H465 C473 0.930 . S
H466 C474 0.930 . S
H467 C475 0.930 . S
H468 C478 0.930 1_554 S
H469 C479 0.930 1_554 S
C470 H464 0.930 1_556 S
C470 C471 1.355 . S
C470 C472 1.415 . S
C471 C470 1.355 . S
C471 C473 1.419 . S
C472 C470 1.415 . S
C472 C477 1.425 . S
C472 C479 1.409 1_655 S
C473 H465 0.930 . S
C473 C471 1.419 . S
C473 C474 1.362 . S
C474 H466 0.930 . S
C474 C473 1.362 . S
C474 C477 1.409 . S
C475 H467 0.930 . S
C475 C476 1.355 1_655 S
C475 C477 1.415 . S
C476 C475 1.355 1_455 S
C476 C478 1.419 . S
C477 C472 1.425 . S
C477 C474 1.409 . S
C477 C475 1.415 . S
C478 H468 0.930 1_556 S
C478 C476 1.419 . S
C478 C479 1.362 . S
C479 H469 0.930 1_556 S
C479 C472 1.409 1_455 S
C479 C478 1.362 . S
H480 C486 0.930 . S
H481 C489 0.930 . S
H482 C490 0.930 . S
H483 C491 0.930 . S
H484 C494 0.930 . S
H485 C495 0.930 . S
C486 H480 0.930 . S
C486 C487 1.355 . S
C486 C488 1.415 . S
C487 C486 1.355 . S
C487 C489 1.419 . S
C488 C486 1.415 . S
C488 C493 1.425 . S
C488 C495 1.409 1_565 S
C489 H481 0.930 . S
C489 C487 1.419 . S
C489 C490 1.362 . S
C490 H482 0.930 . S
C490 C489 1.362 . S
C490 C493 1.409 . S
C491 H483 0.930 . S
C491 C492 1.355 1_565 S
C491 C493 1.415 . S
C492 C491 1.355 1_545 S
C492 C494 1.419 . S
C493 C488 1.425 . S
C493 C490 1.409 . S
C493 C491 1.415 . S
C494 H484 0.930 . S
C494 C492 1.419 . S
C494 C495 1.362 . S
C495 H485 0.930 . S
C495 C488 1.409 1_545 S
C495 C494 1.362 . S
H496 C502 0.930 . S
H497 C505 0.930 . S
H498 C506 0.930 . S
H499 C507 0.930 . S
H500 C510 0.930 . S
H501 C511 0.930 1_554 S
C502 H496 0.930 . S
C502 C503 1.355 . S
C502 C504 1.415 . S
C503 C502 1.355 . S
C503 C505 1.419 . S
C504 C502 1.415 . S
C504 C509 1.425 . S
C504 C511 1.409 . S
C505 H497 0.930 . S
C505 C503 1.419 . S
C505 C506 1.362 . S
C506 H498 0.930 . S
C506 C505 1.362 . S
C506 C509 1.409 . S
C507 H499 0.930 . S
C507 C508 1.355 . S
C507 C509 1.415 . S
C508 C507 1.355 . S
C508 C510 1.419 . S
C509 C504 1.425 . S
C509 C506 1.409 . S
C509 C507 1.415 . S
C510 H500 0.930 . S
C510 C508 1.419 . S
C510 C511 1.362 . S
C511 H501 0.930 1_556 S
C511 C504 1.409 . S
C511 C510 1.362 . S
H512 C518 0.930 . S
H513 C521 0.930 . S
H514 C522 0.930 1_565 S
H515 C523 0.930 . S
H516 C526 0.930 . S
H517 C527 0.930 . S
C518 H512 0.930 . S
C518 C519 1.355 . S
C518 C520 1.415 1_545 S
C519 C518 1.355 . S
C519 C521 1.419 . S
C520 C518 1.415 1_565 S
C520 C525 1.425 . S
C520 C527 1.409 . S
C521 H513 0.930 . S
C521 C519 1.419 . S
C521 C522 1.362 . S
C522 H514 0.930 1_545 S
C522 C521 1.362 . S
C522 C525 1.409 1_545 S
C523 H515 0.930 . S
C523 C524 1.355 . S
C523 C525 1.415 . S
C524 C523 1.355 . S
C524 C526 1.419 . S
C525 C520 1.425 . S
C525 C522 1.409 1_565 S
C525 C523 1.415 . S
C526 H516 0.930 . S
C526 C524 1.419 . S
C526 C527 1.362 . S
C527 H517 0.930 . S
C527 C520 1.409 . S
C527 C526 1.362 . S
H528 C534 0.930 . S
H529 C537 0.930 . S
H530 C538 0.930 . S
H531 C539 0.930 . S
H532 C542 0.930 . S
H533 C543 0.930 . S
C534 H528 0.930 . S
C534 C535 1.355 . S
C534 C536 1.415 . S
C535 C534 1.355 . S
C535 C537 1.419 . S
C536 C534 1.415 . S
C536 C541 1.425 . S
C536 C543 1.409 . S
C537 H529 0.930 . S
C537 C535 1.419 . S
C537 C538 1.362 . S
C538 H530 0.930 . S
C538 C537 1.362 . S
C538 C541 1.409 . S
C539 H531 0.930 . S
C539 C540 1.355 . S
C539 C541 1.415 . S
C540 C539 1.355 . S
C540 C542 1.419 . S
C541 C536 1.425 . S
C541 C538 1.409 . S
C541 C539 1.415 . S
C542 H532 0.930 . S
C542 C540 1.419 . S
C542 C543 1.362 . S
C543 H533 0.930 . S
C543 C536 1.409 . S
C543 C542 1.362 . S
H544 C550 0.930 . S
H545 C553 0.930 . S
H546 C554 0.930 . S
H547 C555 0.930 . S
H548 C558 0.930 . S
H549 C559 0.930 . S
C550 H544 0.930 . S
C550 C551 1.355 . S
C550 C552 1.415 . S
C551 C550 1.355 . S
C551 C553 1.419 . S
C552 C550 1.415 . S
C552 C557 1.425 . S
C552 C559 1.409 . S
C553 H545 0.930 . S
C553 C551 1.419 . S
C553 C554 1.362 . S
C554 H546 0.930 . S
C554 C553 1.362 . S
C554 C557 1.409 . S
C555 H547 0.930 . S
C555 C556 1.355 . S
C555 C557 1.415 . S
C556 C555 1.355 . S
C556 C558 1.419 . S
C557 C552 1.425 . S
C557 C554 1.409 . S
C557 C555 1.415 . S
C558 H548 0.930 . S
C558 C556 1.419 . S
C558 C559 1.362 . S
C559 H549 0.930 . S
C559 C552 1.409 . S
C559 C558 1.362 . S
H560 C566 0.930 . S
H561 C569 0.930 . S
H562 C570 0.930 . S
H563 C571 0.930 . S
H564 C574 0.930 . S
H565 C575 0.930 . S
C566 H560 0.930 . S
C566 C567 1.355 . S
C566 C568 1.415 . S
C567 C566 1.355 . S
C567 C569 1.419 1_455 S
C568 C566 1.415 . S
C568 C573 1.425 1_455 S
C568 C575 1.409 . S
C569 H561 0.930 . S
C569 C567 1.419 1_655 S
C569 C570 1.362 . S
C570 H562 0.930 . S
C570 C569 1.362 . S
C570 C573 1.409 . S
C571 H563 0.930 . S
C571 C572 1.355 . S
C571 C573 1.415 . S
C572 C571 1.355 . S
C572 C574 1.419 . S
C573 C568 1.425 1_655 S
C573 C570 1.409 . S
C573 C571 1.415 . S
C574 H564 0.930 . S
C574 C572 1.419 . S
C574 C575 1.362 1_655 S
C575 H565 0.930 . S
C575 C568 1.409 . S
C575 C574 1.362 1_455 S
H576 C582 0.930 . S
H577 C585 0.930 . S
H578 C586 0.930 . S
H579 C587 0.930 . S
H580 C590 0.930 . S
H581 C591 0.930 . S
C582 H576 0.930 . S
C582 C583 1.355 . S
C582 C584 1.415 . S
C583 C582 1.355 . S
C583 C585 1.419 . S
C584 C582 1.415 . S
C584 C589 1.425 . S
C584 C591 1.409 . S
C585 H577 0.930 . S
C585 C583 1.419 . S
C585 C586 1.362 . S
C586 H578 0.930 . S
C586 C585 1.362 . S
C586 C589 1.409 . S
C587 H579 0.930 . S
C587 C588 1.355 . S
C587 C589 1.415 . S
C588 C587 1.355 . S
C588 C590 1.419 . S
C589 C584 1.425 . S
C589 C586 1.409 . S
C589 C587 1.415 . S
C590 H580 0.930 . S
C590 C588 1.419 . S
C590 C591 1.362 . S
C591 H581 0.930 . S
C591 C584 1.409 . S
C591 C590 1.362 . S
H592 C598 0.930 . S
H593 C601 0.930 . S
H594 C602 0.930 . S
H595 C603 0.930 . S
H596 C606 0.930 . S
H597 C607 0.930 . S
C598 H592 0.930 . S
C598 C599 1.355 . S
C598 C600 1.415 . S
C599 C598 1.355 . S
C599 C601 1.419 . S
C600 C598 1.415 . S
C600 C605 1.425 . S
C600 C607 1.409 . S
C601 H593 0.930 . S
C601 C599 1.419 . S
C601 C602 1.362 . S
C602 H594 0.930 . S
C602 C601 1.362 . S
C602 C605 1.409 . S
C603 H595 0.930 . S
C603 C604 1.355 . S
C603 C605 1.415 . S
C604 C603 1.355 . S
C604 C606 1.419 . S
C605 C600 1.425 . S
C605 C602 1.409 . S
C605 C603 1.415 . S
C606 H596 0.930 . S
C606 C604 1.419 . S
C606 C607 1.362 . S
C607 H597 0.930 . S
C607 C600 1.409 . S
C607 C606 1.362 . S
H608 C614 0.930 . S
H609 C617 0.930 . S
H610 C618 0.930 . S
H611 C619 0.930 . S
H612 C622 0.930 . S
H613 C623 0.930 . S
C614 H608 0.930 . S
C614 C615 1.355 . S
C614 C616 1.415 . S
C615 C614 1.355 . S
C615 C617 1.419 . S
C616 C614 1.415 . S
C616 C621 1.425 . S
C616 C623 1.409 . S
C617 H609 0.930 . S
C617 C615 1.419 . S
C617 C618 1.362 . S
C618 H610 0.930 . S
C618 C617 1.362 . S
C618 C621 1.409 . S
C619 H611 0.930 . S
C619 C620 1.355 . S
C619 C621 1.415 . S
C620 C619 1.355 . S
C620 C622 1.419 . S
C621 C616 1.425 . S
C621 C618 1.409 . S
C621 C619 1.415 . S
C622 H612 0.930 . S
C622 C620 1.419 . S
C622 C623 1.362 . S
C623 H613 0.930 . S
C623 C616 1.409 . S
C623 C622 1.362 . S
H624 C630 0.930 . S
H625 C633 0.930 . S
H626 C634 0.930 . S
H627 C635 0.930 . S
H628 C638 0.930 . S
H629 C639 0.930 . S
C630 H624 0.930 . S
C630 C631 1.355 . S
C630 C632 1.415 . S
C631 C630 1.355 . S
C631 C633 1.419 . S
C632 C630 1.415 . S
C632 C637 1.425 . S
C632 C639 1.409 . S
C633 H625 0.930 . S
C633 C631 1.419 . S
C633 C634 1.362 . S
C634 H626 0.930 . S
C634 C633 1.362 . S
C634 C637 1.409 . S
C635 H627 0.930 . S
C635 C636 1.355 . S
C635 C637 1.415 . S
C636 C635 1.355 . S
C636 C638 1.419 . S
C637 C632 1.425 . S
C637 C634 1.409 . S
C637 C635 1.415 . S
C638 H628 0.930 . S
C638 C636 1.419 . S
C638 C639 1.362 . S
C639 H629 0.930 . S
C639 C632 1.409 . S
C639 C638 1.362 . S
H640 C646 0.930 . S
H641 C649 0.930 . S
H642 C650 0.930 . S
H643 C651 0.930 . S
H644 C654 0.930 . S
H645 C655 0.930 . S
C646 H640 0.930 . S
C646 C647 1.355 . S
C646 C648 1.415 . S
C647 C646 1.355 . S
C647 C649 1.419 . S
C648 C646 1.415 . S
C648 C653 1.425 . S
C648 C655 1.409 . S
C649 H641 0.930 . S
C649 C647 1.419 . S
C649 C650 1.362 . S
C650 H642 0.930 . S
C650 C649 1.362 . S
C650 C653 1.409 . S
C651 H643 0.930 . S
C651 C652 1.355 . S
C651 C653 1.415 . S
C652 C651 1.355 . S
C652 C654 1.419 . S
C653 C648 1.425 . S
C653 C650 1.409 . S
C653 C651 1.415 . S
C654 H644 0.930 . S
C654 C652 1.419 . S
C654 C655 1.362 . S
C655 H645 0.930 . S
C655 C648 1.409 . S
C655 C654 1.362 . S
H656 C662 0.930 . S
H657 C665 0.930 . S
H658 C666 0.930 . S
H659 C667 0.930 . S
H660 C670 0.930 . S
H661 C671 0.930 . S
C662 H656 0.930 . S
C662 C663 1.355 . S
C662 C664 1.415 . S
C663 C662 1.355 . S
C663 C665 1.419 . S
C664 C662 1.415 . S
C664 C669 1.425 . S
C664 C671 1.409 . S
C665 H657 0.930 . S
C665 C663 1.419 . S
C665 C666 1.362 . S
C666 H658 0.930 . S
C666 C665 1.362 . S
C666 C669 1.409 . S
C667 H659 0.930 . S
C667 C668 1.355 . S
C667 C669 1.415 . S
C668 C667 1.355 . S
C668 C670 1.419 . S
C669 C664 1.425 . S
C669 C666 1.409 . S
C669 C667 1.415 . S
C670 H660 0.930 . S
C670 C668 1.419 . S
C670 C671 1.362 . S
C671 H661 0.930 . S
C671 C664 1.409 . S
C671 C670 1.362 . S
H672 C678 0.930 . S
H673 C681 0.930 . S
H674 C682 0.930 . S
H675 C683 0.930 . S
H676 C686 0.930 . S
H677 C687 0.930 . S
C678 H672 0.930 . S
C678 C679 1.355 . S
C678 C680 1.415 . S
C679 C678 1.355 . S
C679 C681 1.419 . S
C680 C678 1.415 . S
C680 C685 1.425 . S
C680 C687 1.409 . S
C681 H673 0.930 . S
C681 C679 1.419 . S
C681 C682 1.362 . S
C682 H674 0.930 . S
C682 C681 1.362 . S
C682 C685 1.409 . S
C683 H675 0.930 . S
C683 C684 1.355 . S
C683 C685 1.415 . S
C684 C683 1.355 . S
C684 C686 1.419 . S
C685 C680 1.425 . S
C685 C682 1.409 . S
C685 C683 1.415 . S
C686 H676 0.930 . S
C686 C684 1.419 . S
C686 C687 1.362 . S
C687 H677 0.930 . S
C687 C680 1.409 . S
C687 C686 1.362 . S
H688 C694 0.930 . S
H689 C697 0.930 . S
H690 C698 0.930 . S
H691 C699 0.930 . S
H692 C702 0.930 . S
H693 C703 0.930 . S
C694 H688 0.930 . S
C694 C695 1.355 . S
C694 C696 1.415 . S
C695 C694 1.355 . S
C695 C697 1.419 . S
C696 C694 1.415 . S
C696 C701 1.425 . S
C696 C703 1.409 . S
C697 H689 0.930 . S
C697 C695 1.419 . S
C697 C698 1.362 . S
C698 H690 0.930 . S
C698 C697 1.362 . S
C698 C701 1.409 . S
C699 H691 0.930 . S
C699 C700 1.355 . S
C699 C701 1.415 . S
C700 C699 1.355 . S
C700 C702 1.419 . S
C701 C696 1.425 . S
C701 C698 1.409 . S
C701 C699 1.415 . S
C702 H692 0.930 . S
C702 C700 1.419 . S
C702 C703 1.362 . S
C703 H693 0.930 . S
C703 C696 1.409 . S
C703 C702 1.362 . S
H704 C710 0.930 . S
H705 C713 0.930 . S
H706 C714 0.930 . S
H707 C715 0.930 . S
H708 C718 0.930 . S
H709 C719 0.930 . S
C710 H704 0.930 . S
C710 C711 1.355 . S
C710 C712 1.415 . S
C711 C710 1.355 . S
C711 C713 1.419 . S
C712 C710 1.415 . S
C712 C717 1.425 . S
C712 C719 1.409 . S
C713 H705 0.930 . S
C713 C711 1.419 . S
C713 C714 1.362 . S
C714 H706 0.930 . S
C714 C713 1.362 . S
C714 C717 1.409 . S
C715 H707 0.930 . S
C715 C716 1.355 . S
C715 C717 1.415 . S
C716 C715 1.355 . S
C716 C718 1.419 . S
C717 C712 1.425 . S
C717 C714 1.409 . S
C717 C715 1.415 . S
C718 H708 0.930 . S
C718 C716 1.419 . S
C718 C719 1.362 . S
C719 H709 0.930 . S
C719 C712 1.409 . S
C719 C718 1.362 . S
H720 C726 0.930 1_556 S
H721 C729 0.930 . S
H722 C730 0.930 . S
H723 C731 0.930 . S
H724 C734 0.930 . S
H725 C735 0.930 . S
C726 H720 0.930 1_554 S
C726 C727 1.355 . S
C726 C728 1.415 . S
C727 C726 1.355 . S
C727 C729 1.419 . S
C728 C726 1.415 . S
C728 C733 1.425 . S
C728 C735 1.409 1_554 S
C729 H721 0.930 . S
C729 C727 1.419 . S
C729 C730 1.362 . S
C730 H722 0.930 . S
C730 C729 1.362 . S
C730 C733 1.409 . S
C731 H723 0.930 . S
C731 C732 1.355 . S
C731 C733 1.415 . S
C732 C731 1.355 . S
C732 C734 1.419 1_554 S
C733 C728 1.425 . S
C733 C730 1.409 . S
C733 C731 1.415 . S
C734 H724 0.930 . S
C734 C732 1.419 1_556 S
C734 C735 1.362 . S
C735 H725 0.930 . S
C735 C728 1.409 1_556 S
C735 C734 1.362 . S
H736 C742 0.930 . S
H737 C745 0.930 . S
H738 C746 0.930 . S
H739 C747 0.930 . S
H740 C750 0.930 . S
H741 C751 0.930 . S
C742 H736 0.930 . S
C742 C743 1.355 . S
C742 C744 1.415 . S
C743 C742 1.355 . S
C743 C745 1.419 . S
C744 C742 1.415 . S
C744 C749 1.425 . S
C744 C751 1.409 . S
C745 H737 0.930 . S
C745 C743 1.419 . S
C745 C746 1.362 . S
C746 H738 0.930 . S
C746 C745 1.362 . S
C746 C749 1.409 . S
C747 H739 0.930 . S
C747 C748 1.355 . S
C747 C749 1.415 . S
C748 C747 1.355 . S
C748 C750 1.419 . S
C749 C744 1.425 . S
C749 C746 1.409 . S
C749 C747 1.415 . S
C750 H740 0.930 . S
C750 C748 1.419 . S
C750 C751 1.362 . S
C751 H741 0.930 . S
C751 C744 1.409 . S
C751 C750 1.362 . S
H752 C758 0.930 . S
H753 C761 0.930 . S
H754 C762 0.930 . S
H755 C763 0.930 . S
H756 C766 0.930 . S
H757 C767 0.930 . S
C758 H752 0.930 . S
C758 C759 1.355 . S
C758 C760 1.415 . S
C759 C758 1.355 . S
C759 C761 1.419 . S
C760 C758 1.415 . S
C760 C765 1.425 . S
C760 C767 1.409 . S
C761 H753 0.930 . S
C761 C759 1.419 . S
C761 C762 1.362 . S
C762 H754 0.930 . S
C762 C761 1.362 . S
C762 C765 1.409 . S
C763 H755 0.930 . S
C763 C764 1.355 . S
C763 C765 1.415 . S
C764 C763 1.355 . S
C764 C766 1.419 . S
C765 C760 1.425 . S
C765 C762 1.409 . S
C765 C763 1.415 . S
C766 H756 0.930 . S
C766 C764 1.419 . S
C766 C767 1.362 . S
C767 H757 0.930 . S
C767 C760 1.409 . S
C767 C766 1.362 . S
H768 C774 0.930 1_554 S
H769 C777 0.930 . S
H770 C778 0.930 . S
H771 C779 0.930 . S
H772 C782 0.930 . S
H773 C783 0.930 . S
C774 H768 0.930 1_556 S
C774 C775 1.355 . S
C774 C776 1.415 . S
C775 C774 1.355 . S
C775 C777 1.419 . S
C776 C774 1.415 . S
C776 C781 1.425 . S
C776 C783 1.409 1_556 S
C777 H769 0.930 . S
C777 C775 1.419 . S
C777 C778 1.362 . S
C778 H770 0.930 . S
C778 C777 1.362 . S
C778 C781 1.409 . S
C779 H771 0.930 . S
C779 C780 1.355 . S
C779 C781 1.415 . S
C780 C779 1.355 . S
C780 C782 1.419 1_556 S
C781 C776 1.425 . S
C781 C778 1.409 . S
C781 C779 1.415 . S
C782 H772 0.930 . S
C782 C780 1.419 1_554 S
C782 C783 1.362 . S
C783 H773 0.930 . S
C783 C776 1.409 1_554 S
C783 C782 1.362 . S
H784 C790 0.930 . S
H785 C793 0.930 . S
H786 C794 0.930 . S
H787 C795 0.930 . S
H788 C798 0.930 . S
H789 C799 0.930 . S
C790 H784 0.930 . S
C790 C791 1.355 . S
C790 C792 1.415 . S
C791 C790 1.355 . S
C791 C793 1.419 1_556 S
C792 C790 1.415 . S
C792 C797 1.425 . S
C792 C799 1.409 . S
C793 H785 0.930 . S
C793 C791 1.419 1_554 S
C793 C794 1.362 . S
C794 H786 0.930 . S
C794 C793 1.362 . S
C794 C797 1.409 1_554 S
C795 H787 0.930 . S
C795 C796 1.355 1_554 S
C795 C797 1.415 1_554 S
C796 C795 1.355 1_556 S
C796 C798 1.419 . S
C797 C792 1.425 . S
C797 C794 1.409 1_556 S
C797 C795 1.415 1_556 S
C798 H788 0.930 . S
C798 C796 1.419 . S
C798 C799 1.362 . S
C799 H789 0.930 . S
C799 C792 1.409 . S
C799 C798 1.362 . S
H800 C806 0.930 . S
H801 C809 0.930 . S
H802 C810 0.930 . S
H803 C811 0.930 . S
H804 C814 0.930 . S
H805 C815 0.930 . S
C806 H800 0.930 . S
C806 C807 1.355 . S
C806 C808 1.415 . S
C807 C806 1.355 . S
C807 C809 1.419 . S
C808 C806 1.415 . S
C808 C813 1.425 . S
C808 C815 1.409 . S
C809 H801 0.930 . S
C809 C807 1.419 . S
C809 C810 1.362 . S
C810 H802 0.930 . S
C810 C809 1.362 . S
C810 C813 1.409 . S
C811 H803 0.930 . S
C811 C812 1.355 . S
C811 C813 1.415 . S
C812 C811 1.355 . S
C812 C814 1.419 . S
C813 C808 1.425 . S
C813 C810 1.409 . S
C813 C811 1.415 . S
C814 H804 0.930 . S
C814 C812 1.419 . S
C814 C815 1.362 . S
C815 H805 0.930 . S
C815 C808 1.409 . S
C815 C814 1.362 . S
H816 C822 0.930 . S
H817 C825 0.930 . S
H818 C826 0.930 . S
H819 C827 0.930 . S
H820 C830 0.930 . S
H821 C831 0.930 . S
C822 H816 0.930 . S
C822 C823 1.355 . S
C822 C824 1.415 . S
C823 C822 1.355 . S
C823 C825 1.419 . S
C824 C822 1.415 . S
C824 C829 1.425 . S
C824 C831 1.409 . S
C825 H817 0.930 . S
C825 C823 1.419 . S
C825 C826 1.362 . S
C826 H818 0.930 . S
C826 C825 1.362 . S
C826 C829 1.409 . S
C827 H819 0.930 . S
C827 C828 1.355 . S
C827 C829 1.415 . S
C828 C827 1.355 . S
C828 C830 1.419 . S
C829 C824 1.425 . S
C829 C826 1.409 . S
C829 C827 1.415 . S
C830 H820 0.930 . S
C830 C828 1.419 . S
C830 C831 1.362 . S
C831 H821 0.930 . S
C831 C824 1.409 . S
C831 C830 1.362 . S
H832 C838 0.930 . S
H833 C841 0.930 . S
H834 C842 0.930 . S
H835 C843 0.930 . S
H836 C846 0.930 . S
H837 C847 0.930 . S
C838 H832 0.930 . S
C838 C839 1.355 . S
C838 C840 1.418 . S
C839 C838 1.355 . S
C839 C841 1.419 . S
C840 C838 1.418 . S
C840 C845 1.425 1_656 S
C840 C847 1.407 1_556 S
C841 H833 0.930 . S
C841 C839 1.419 . S
C841 C842 1.362 1_655 S
C842 H834 0.930 . S
C842 C841 1.362 1_455 S
C842 C845 1.407 1_556 S
C843 H835 0.930 . S
C843 C844 1.355 . S
C843 C845 1.418 . S
C844 C843 1.355 . S
C844 C846 1.419 . S
C845 C840 1.425 1_454 S
C845 C842 1.407 1_554 S
C845 C843 1.418 . S
C846 H836 0.930 . S
C846 C844 1.419 . S
C846 C847 1.362 1_455 S
C847 H837 0.930 . S
C847 C840 1.407 1_554 S
C847 C846 1.362 1_655 S
H848 C854 0.930 . S
H849 C857 0.930 . S
H850 C858 0.930 . S
H851 C859 0.930 . S
H852 C862 0.930 . S
H853 C863 0.930 . S
C854 H848 0.930 . S
C854 C855 1.355 . S
C854 C856 1.415 1_455 S
C855 C854 1.355 . S
C855 C857 1.419 1_556 S
C856 C854 1.415 1_655 S
C856 C861 1.425 1_666 S
C856 C863 1.409 . S
C857 H849 0.930 . S
C857 C855 1.419 1_554 S
C857 C858 1.362 1_565 S
C858 H850 0.930 . S
C858 C857 1.362 1_545 S
C858 C861 1.409 . S
C859 H851 0.930 . S
C859 C860 1.355 . S
C859 C861 1.415 1_655 S
C860 C859 1.355 . S
C860 C862 1.419 1_554 S
C861 C856 1.425 1_444 S
C861 C858 1.409 . S
C861 C859 1.415 1_455 S
C862 H852 0.930 . S
C862 C860 1.419 1_556 S
C862 C863 1.362 1_545 S
C863 H853 0.930 . S
C863 C856 1.409 . S
C863 C862 1.362 1_565 S
H864 C870 0.930 . S
H865 C873 0.930 . S
H866 C874 0.930 . S
H867 C875 0.930 . S
H868 C878 0.930 . S
H869 C879 0.930 . S
C870 H864 0.930 . S
C870 C871 1.355 . S
C870 C872 1.415 1_545 S
C871 C870 1.355 . S
C871 C873 1.419 1_556 S
C872 C870 1.415 1_565 S
C872 C877 1.425 1_566 S
C872 C879 1.409 . S
C873 H865 0.930 . S
C873 C871 1.419 1_554 S
C873 C874 1.362 . S
C874 H866 0.930 . S
C874 C873 1.362 . S
C874 C877 1.409 . S
C875 H867 0.930 . S
C875 C876 1.355 . S
C875 C877 1.415 1_565 S
C876 C875 1.355 . S
C876 C878 1.419 1_554 S
C877 C872 1.425 1_544 S
C877 C874 1.409 . S
C877 C875 1.415 1_545 S
C878 H868 0.930 . S
C878 C876 1.419 1_556 S
C878 C879 1.362 . S
C879 H869 0.930 . S
C879 C872 1.409 . S
C879 C878 1.362 . S
H880 C886 0.930 . S
H881 C889 0.930 . S
H882 C890 0.930 . S
H883 C891 0.930 . S
H884 C894 0.930 . S
H885 C895 0.930 . S
C886 H880 0.930 . S
C886 C887 1.355 1_556 S
C886 C888 1.415 . S
C887 C886 1.355 1_554 S
C887 C889 1.419 . S
C888 C886 1.415 . S
C888 C893 1.425 1_556 S
C888 C895 1.409 . S
C889 H881 0.930 . S
C889 C887 1.419 . S
C889 C890 1.362 . S
C890 H882 0.930 . S
C890 C889 1.362 . S
C890 C893 1.409 . S
C891 H883 0.930 . S
C891 C892 1.355 1_554 S
C891 C893 1.415 . S
C892 C891 1.355 1_556 S
C892 C894 1.419 . S
C893 C888 1.425 1_554 S
C893 C890 1.409 . S
C893 C891 1.415 . S
C894 H884 0.930 . S
C894 C892 1.419 . S
C894 C895 1.362 . S
C895 H885 0.930 . S
C895 C888 1.409 . S
C895 C894 1.362 . S
H896 C902 0.934 . S
H897 C905 0.930 . S
H898 C906 0.930 . S
H899 C907 0.934 . S
H900 C910 0.930 . S
H901 C911 0.930 . S
C902 H896 0.934 . S
C902 C903 1.355 . S
C902 C904 1.415 1_655 S
C903 C902 1.355 . S
C903 C905 1.419 . S
C904 C902 1.415 1_455 S
C904 C909 1.425 1_445 S
C904 C911 1.409 . S
C905 H897 0.930 . S
C905 C903 1.419 . S
C905 C906 1.362 1_545 S
C906 H898 0.930 . S
C906 C905 1.362 1_565 S
C906 C909 1.409 . S
C907 H899 0.934 . S
C907 C908 1.355 . S
C907 C909 1.415 1_455 S
C908 C907 1.355 . S
C908 C910 1.419 . S
C909 C904 1.425 1_665 S
C909 C906 1.409 . S
C909 C907 1.415 1_655 S
C910 H900 0.930 . S
C910 C908 1.419 . S
C910 C911 1.362 1_565 S
C911 H901 0.930 . S
C911 C904 1.409 . S
C911 C910 1.362 1_545 S
H912 C918 0.930 . S
H913 C921 0.930 . S
H914 C922 0.930 . S
H915 C923 0.930 . S
H916 C926 0.930 . S
H917 C927 0.930 . S
C918 H912 0.930 . S
C918 C919 1.355 . S
C918 C920 1.415 . S
C919 C918 1.355 . S
C919 C921 1.419 . S
C920 C918 1.415 . S
C920 C925 1.425 1_565 S
C920 C927 1.409 . S
C921 H913 0.930 . S
C921 C919 1.419 . S
C921 C922 1.362 1_565 S
C922 H914 0.930 . S
C922 C921 1.362 1_545 S
C922 C925 1.409 . S
C923 H915 0.930 . S
C923 C924 1.355 . S
C923 C925 1.415 . S
C924 C923 1.355 . S
C924 C926 1.419 . S
C925 C920 1.425 1_545 S
C925 C922 1.409 . S
C925 C923 1.415 . S
C926 H916 0.930 . S
C926 C924 1.419 . S
C926 C927 1.362 1_545 S
C927 H917 0.930 . S
C927 C920 1.409 . S
C927 C926 1.362 1_565 S
H928 C934 0.930 . S
H929 C937 0.930 . S
H930 C938 0.930 . S
H931 C939 0.930 . S
H932 C942 0.930 . S
H933 C943 0.930 . S
C934 H928 0.930 . S
C934 C935 1.355 . S
C934 C936 1.415 . S
C935 C934 1.355 . S
C935 C937 1.419 . S
C936 C934 1.415 . S
C936 C941 1.425 . S
C936 C943 1.409 . S
C937 H929 0.930 . S
C937 C935 1.419 . S
C937 C938 1.362 . S
C938 H930 0.930 . S
C938 C937 1.362 . S
C938 C941 1.409 . S
C939 H931 0.930 . S
C939 C940 1.355 . S
C939 C941 1.415 . S
C940 C939 1.355 . S
C940 C942 1.419 . S
C941 C936 1.425 . S
C941 C938 1.409 . S
C941 C939 1.415 . S
C942 H932 0.930 . S
C942 C940 1.419 . S
C942 C943 1.362 . S
C943 H933 0.930 . S
C943 C936 1.409 . S
C943 C942 1.362 . S
H944 C950 0.930 . S
H945 C953 0.930 . S
H946 C954 0.927 1_655 S
H947 C955 0.930 . S
H948 C958 0.930 . S
H949 C959 0.927 1_455 S
C950 H944 0.930 . S
C950 C951 1.355 . S
C950 C952 1.415 . S
C951 C950 1.355 . S
C951 C953 1.419 . S
C952 C950 1.415 . S
C952 C957 1.425 1_455 S
C952 C959 1.409 1_455 S
C953 H945 0.930 . S
C953 C951 1.419 . S
C953 C954 1.362 . S
C954 H946 0.927 1_455 S
C954 C953 1.362 . S
C954 C957 1.409 1_455 S
C955 H947 0.930 . S
C955 C956 1.355 . S
C955 C957 1.415 . S
C956 C955 1.355 . S
C956 C958 1.419 . S
C957 C952 1.425 1_655 S
C957 C954 1.409 1_655 S
C957 C955 1.415 . S
C958 H948 0.930 . S
C958 C956 1.419 . S
C958 C959 1.362 . S
C959 H949 0.927 1_655 S
C959 C952 1.409 1_655 S
C959 C958 1.362 . S
H960 C966 0.930 . S
H961 C969 0.930 . S
H962 C970 0.930 . S
H963 C971 0.930 . S
H964 C974 0.930 . S
H965 C975 0.930 . S
C966 H960 0.930 . S
C966 C967 1.355 1_455 S
C966 C968 1.415 . S
C967 C966 1.355 1_655 S
C967 C969 1.419 . S
C968 C966 1.415 . S
C968 C973 1.425 1_455 S
C968 C975 1.409 . S
C969 H961 0.930 . S
C969 C967 1.419 . S
C969 C970 1.362 . S
C970 H962 0.930 . S
C970 C969 1.362 . S
C970 C973 1.409 . S
C971 H963 0.930 . S
C971 C972 1.355 1_655 S
C971 C973 1.415 . S
C972 C971 1.355 1_455 S
C972 C974 1.419 . S
C973 C968 1.425 1_655 S
C973 C970 1.409 . S
C973 C971 1.415 . S
C974 H964 0.930 . S
C974 C972 1.419 . S
C974 C975 1.362 . S
C975 H965 0.930 . S
C975 C968 1.409 . S
C975 C974 1.362 . S
H976 C982 0.930 . S
H977 C985 0.930 . S
H978 C986 0.930 . S
H979 C987 0.930 . S
H980 C990 0.930 . S
H981 C991 0.930 . S
C982 H976 0.930 . S
C982 C983 1.355 . S
C982 C984 1.415 . S
C983 C982 1.355 . S
C983 C985 1.419 1_465 S
C984 C982 1.415 . S
C984 C989 1.425 1_465 S
C984 C991 1.409 . S
C985 H977 0.930 . S
C985 C983 1.419 1_645 S
C985 C986 1.362 . S
C986 H978 0.930 . S
C986 C985 1.362 . S
C986 C989 1.409 . S
C987 H979 0.930 . S
C987 C988 1.355 . S
C987 C989 1.415 . S
C988 C987 1.355 . S
C988 C990 1.419 1_645 S
C989 C984 1.425 1_645 S
C989 C986 1.409 . S
C989 C987 1.415 . S
C990 H980 0.930 . S
C990 C988 1.419 1_465 S
C990 C991 1.362 . S
C991 H981 0.930 . S
C991 C984 1.409 . S
C991 C990 1.362 . S
H992 C998 0.930 . S
H993 C1001 0.930 . S
H994 C1002 0.930 . S
H995 C1003 0.930 . S
H996 C1006 0.930 . S
H997 C1007 0.930 . S
C998 H992 0.930 . S
C998 C999 1.355 1_565 S
C998 C1000 1.415 . S
C999 C998 1.355 1_545 S
C999 C1001 1.419 . S
C1000 C998 1.415 . S
C1000 C1005 1.425 1_565 S
C1000 C1007 1.409 . S
C1001 H993 0.930 . S
C1001 C999 1.419 . S
C1001 C1002 1.362 . S
C1002 H994 0.930 . S
C1002 C1001 1.362 . S
C1002 C1005 1.409 . S
C1003 H995 0.930 . S
C1003 C1004 1.355 1_545 S
C1003 C1005 1.415 . S
C1004 C1003 1.355 1_565 S
C1004 C1006 1.419 . S
C1005 C1000 1.425 1_545 S
C1005 C1002 1.409 . S
C1005 C1003 1.415 . S
C1006 H996 0.930 . S
C1006 C1004 1.419 . S
C1006 C1007 1.362 . S
C1007 H997 0.930 . S
C1007 C1000 1.409 . S
C1007 C1006 1.362 . S
H1008 C1014 0.930 . S
H1009 C1017 0.930 . S
H1010 C1018 0.930 . S
H1011 C1019 0.930 . S
H1012 C1022 0.930 . S
H1013 C1023 0.930 . S
C1014 H1008 0.930 . S
C1014 C1015 1.355 . S
C1014 C1016 1.415 . S
C1015 C1014 1.355 . S
C1015 C1017 1.419 . S
C1016 C1014 1.415 . S
C1016 C1021 1.425 . S
C1016 C1023 1.409 . S
C1017 H1009 0.930 . S
C1017 C1015 1.419 . S
C1017 C1018 1.362 . S
C1018 H1010 0.930 . S
C1018 C1017 1.362 . S
C1018 C1021 1.409 . S
C1019 H1011 0.930 . S
C1019 C1020 1.355 . S
C1019 C1021 1.415 . S
C1020 C1019 1.355 . S
C1020 C1022 1.419 . S
C1021 C1016 1.425 . S
C1021 C1018 1.409 . S
C1021 C1019 1.415 . S
C1022 H1012 0.930 . S
C1022 C1020 1.419 . S
C1022 C1023 1.362 . S
C1023 H1013 0.930 . S
C1023 C1016 1.409 . S
C1023 C1022 1.362 . S
H1024 C1030 0.930 . S
H1025 C1033 0.930 . S
H1026 C1034 0.930 . S
H1027 C1035 0.930 . S
H1028 C1038 0.930 . S
H1029 C1039 0.930 . S
C1030 H1024 0.930 . S
C1030 C1031 1.355 1_655 S
C1030 C1032 1.415 . S
C1031 C1030 1.355 1_455 S
C1031 C1033 1.419 . S
C1032 C1030 1.415 . S
C1032 C1037 1.425 1_655 S
C1032 C1039 1.409 . S
C1033 H1025 0.930 . S
C1033 C1031 1.419 . S
C1033 C1034 1.362 . S
C1034 H1026 0.930 . S
C1034 C1033 1.362 . S
C1034 C1037 1.409 . S
C1035 H1027 0.930 . S
C1035 C1036 1.355 1_455 S
C1035 C1037 1.415 . S
C1036 C1035 1.355 1_655 S
C1036 C1038 1.419 . S
C1037 C1032 1.425 1_455 S
C1037 C1034 1.409 . S
C1037 C1035 1.415 . S
C1038 H1028 0.930 . S
C1038 C1036 1.419 . S
C1038 C1039 1.362 . S
C1039 H1029 0.930 . S
C1039 C1032 1.409 . S
C1039 C1038 1.362 . S
H1040 C1046 0.930 . S
H1041 C1049 0.930 . S
H1042 C1050 0.930 . S
H1043 C1051 0.930 . S
H1044 C1054 0.930 . S
H1045 C1055 0.930 . S
C1046 H1040 0.930 . S
C1046 C1047 1.355 . S
C1046 C1048 1.412 1_655 S
C1047 C1046 1.355 . S
C1047 C1049 1.419 1_545 S
C1048 C1046 1.412 1_455 S
C1048 C1053 1.426 1_545 S
C1048 C1055 1.412 . S
C1049 H1041 0.930 . S
C1049 C1047 1.419 1_565 S
C1049 C1050 1.362 . S
C1050 H1042 0.930 . S
C1050 C1049 1.362 . S
C1050 C1053 1.409 1_655 S
C1051 H1043 0.930 . S
C1051 C1052 1.355 . S
C1051 C1053 1.415 . S
C1052 C1051 1.355 . S
C1052 C1054 1.419 1_565 S
C1053 C1048 1.426 1_565 S
C1053 C1050 1.409 1_455 S
C1053 C1051 1.415 . S
C1054 H1044 0.930 . S
C1054 C1052 1.419 1_545 S
C1054 C1055 1.362 . S
C1055 H1045 0.930 . S
C1055 C1048 1.412 . S
C1055 C1054 1.362 . S
H1056 C1062 0.930 1_545 S
H1057 C1065 0.930 . S
H1058 C1066 0.930 . S
H1059 C1067 0.930 . S
H1060 C1070 0.930 . S
H1061 C1071 0.930 . S
C1062 H1056 0.930 1_565 S
C1062 C1063 1.355 . S
C1062 C1064 1.415 1_565 S
C1063 C1062 1.355 . S
C1063 C1065 1.419 . S
C1064 C1062 1.415 1_545 S
C1064 C1069 1.425 . S
C1064 C1071 1.409 . S
C1065 H1057 0.930 . S
C1065 C1063 1.419 . S
C1065 C1066 1.362 . S
C1066 H1058 0.930 . S
C1066 C1065 1.362 . S
C1066 C1069 1.409 1_565 S
C1067 H1059 0.930 . S
C1067 C1068 1.355 . S
C1067 C1069 1.415 . S
C1068 C1067 1.355 . S
C1068 C1070 1.419 . S
C1069 C1064 1.425 . S
C1069 C1066 1.409 1_545 S
C1069 C1067 1.415 . S
C1070 H1060 0.930 . S
C1070 C1068 1.419 . S
C1070 C1071 1.362 . S
C1071 H1061 0.930 . S
C1071 C1064 1.409 . S
C1071 C1070 1.362 . S
H1072 C1078 0.930 . S
H1073 C1081 0.930 . S
H1074 C1082 0.930 . S
H1075 C1083 0.930 . S
H1076 C1086 0.930 . S
H1077 C1087 0.930 . S
C1078 H1072 0.930 . S
C1078 C1079 1.355 . S
C1078 C1080 1.415 . S
C1079 C1078 1.355 . S
C1079 C1081 1.419 . S
C1080 C1078 1.415 . S
C1080 C1085 1.425 . S
C1080 C1087 1.409 . S
C1081 H1073 0.930 . S
C1081 C1079 1.419 . S
C1081 C1082 1.362 . S
C1082 H1074 0.930 . S
C1082 C1081 1.362 . S
C1082 C1085 1.409 . S
C1083 H1075 0.930 . S
C1083 C1084 1.355 . S
C1083 C1085 1.415 . S
C1084 C1083 1.355 . S
C1084 C1086 1.419 . S
C1085 C1080 1.425 . S
C1085 C1082 1.409 . S
C1085 C1083 1.415 . S
C1086 H1076 0.930 . S
C1086 C1084 1.419 . S
C1086 C1087 1.362 . S
C1087 H1077 0.930 . S
C1087 C1080 1.409 . S
C1087 C1086 1.362 . S
C327 C77 2.786 . S
C332 C8 2.880 . S
C343 C17 2.733 . S
C348 C28 2.913 . S
C359 C57 2.910 . S
C364 C37 2.735 . S
C375 C48 2.784 . S
C380 C68 2.880 . S
C391 C88 2.900 . S
C396 C117 2.746 . S
C407 C108 2.883 . S
C412 C137 2.774 . S
C423 C128 2.919 . S
C428 C157 2.732 . S
C439 C97 2.775 . S
C444 C148 2.901 . S
C455 C168 2.880 . S
C460 C237 2.789 . S
C471 C177 2.774 . S
C476 C188 2.902 . S
C487 C197 2.791 . S
C492 C208 2.882 . S
C503 C217 2.780 . S
C508 C228 2.897 . S
C519 C248 2.898 . S
C524 C277 2.778 . S
C535 C297 2.790 . S
C540 C268 2.881 . S
C551 C317 2.771 . S
C556 C288 2.904 . S
C567 C308 2.917 . S
C572 C257 2.747 . S
C583 C2 2.253 . S
C588 C82 2.258 . S
C599 C102 2.263 . S
C604 C22 2.258 . S
C615 C53 2.251 . S
C620 C122 2.252 . S
C631 C62 2.277 . S
C636 C142 2.277 . S
C647 C242 2.276 . S
C652 C162 2.277 . S
C663 C262 2.259 . S
C668 C182 2.255 . S
C679 C202 2.257 . S
C684 C282 2.262 . S
C695 C302 2.260 . S
C700 C222 2.265 . S
C711 C14 1.352 . S
C716 C45 1.356 . S
C727 C34 1.349 . S
C732 C74 1.354 . S
C743 C134 1.340 . S
C748 C94 1.332 . S
C759 C154 1.352 . S
C764 C114 1.347 . S
C775 C214 1.356 . S
C780 C174 1.356 . S
C791 C234 1.316 . S
C796 C194 1.314 . S
C807 C254 1.315 . S
C812 C294 1.315 . S
C823 C274 1.343 . S
C828 C314 1.335 . S
C839 C173 1.699 . S
C844 C13 1.699 . S
C855 C193 1.723 . S
C860 C33 1.723 . S
C871 C213 1.709 . S
C876 C42 1.709 . S
C887 C73 1.705 . S
C892 C233 1.705 . S
C903 C253 1.745 . S
C908 C93 1.745 . S
C919 C273 1.706 . S
C924 C113 1.706 . S
C935 C293 1.738 . S
C940 C133 1.738 . S
C951 C313 1.756 . S
C956 C153 1.756 . S
C967 C145 0.593 . S
C972 C5 0.704 . S
C983 C85 0.836 . S
C988 C25 0.805 . S
C999 C105 0.687 . S
C1004 C54 0.586 . S
C1015 C125 0.677 . S
C1020 C65 0.583 . S
C1031 C305 0.686 . S
C1036 C165 0.586 . S
C1047 C245 0.838 . S
C1052 C185 0.788 . S
C1063 C265 0.839 . S
C1068 C205 0.783 . S
C1079 C225 0.609 . S
C1084 C285 0.591 . S
