# Generated by pormake.
# Topology umo, (4)-cn, num edge types: 1
# Building blocks:
#     Node 0, Type 0, BuildingBlock: ICAMEG_clean_sbu_1, # of connection points: 4
#     Node 1, Type 0, BuildingBlock: ICAMEG_clean_sbu_1, # of connection points: 4
#     Node 2, Type 0, BuildingBlock: ICAMEG_clean_sbu_1, # of connection points: 4
#     Node 3, Type 0, BuildingBlock: ICAMEG_clean_sbu_1, # of connection points: 4
#     Node 4, Type 0, BuildingBlock: ICAMEG_clean_sbu_1, # of connection points: 4
#     Node 5, Type 0, BuildingBlock: ICAMEG_clean_sbu_1, # of connection points: 4
#     Node 6, Type 0, BuildingBlock: ICAMEG_clean_sbu_1, # of connection points: 4
#     Node 7, Type 0, BuildingBlock: ICAMEG_clean_sbu_1, # of connection points: 4
#     Node 8, Type 0, BuildingBlock: ICAMEG_clean_sbu_1, # of connection points: 4
#     Node 9, Type 0, BuildingBlock: ICAMEG_clean_sbu_1, # of connection points: 4
#     Node 10, Type 0, BuildingBlock: ICAMEG_clean_sbu_1, # of connection points: 4
#     Node 11, Type 0, BuildingBlock: ICAMEG_clean_sbu_1, # of connection points: 4
#     Edge 12, Type (0, 0), BuildingBlock: AJUNOK_clean_linker_0, # of connection points: 2
#     Edge 13, Type (0, 0), BuildingBlock: AJUNOK_clean_linker_0, # of connection points: 2
#     Edge 14, Type (0, 0), BuildingBlock: AJUNOK_clean_linker_0, # of connection points: 2
#     Edge 15, Type (0, 0), BuildingBlock: AJUNOK_clean_linker_0, # of connection points: 2
#     Edge 16, Type (0, 0), BuildingBlock: AJUNOK_clean_linker_0, # of connection points: 2
#     Edge 17, Type (0, 0), BuildingBlock: AJUNOK_clean_linker_0, # of connection points: 2
#     Edge 18, Type (0, 0), BuildingBlock: AJUNOK_clean_linker_0, # of connection points: 2
#     Edge 19, Type (0, 0), BuildingBlock: AJUNOK_clean_linker_0, # of connection points: 2
#     Edge 20, Type (0, 0), BuildingBlock: AJUNOK_clean_linker_0, # of connection points: 2
#     Edge 21, Type (0, 0), BuildingBlock: AJUNOK_clean_linker_0, # of connection points: 2
#     Edge 22, Type (0, 0), BuildingBlock: AJUNOK_clean_linker_0, # of connection points: 2
#     Edge 23, Type (0, 0), BuildingBlock: AJUNOK_clean_linker_0, # of connection points: 2
#     Edge 24, Type (0, 0), BuildingBlock: AJUNOK_clean_linker_0, # of connection points: 2
#     Edge 25, Type (0, 0), BuildingBlock: AJUNOK_clean_linker_0, # of connection points: 2
#     Edge 26, Type (0, 0), BuildingBlock: AJUNOK_clean_linker_0, # of connection points: 2
#     Edge 27, Type (0, 0), BuildingBlock: AJUNOK_clean_linker_0, # of connection points: 2
#     Edge 28, Type (0, 0), BuildingBlock: AJUNOK_clean_linker_0, # of connection points: 2
#     Edge 29, Type (0, 0), BuildingBlock: AJUNOK_clean_linker_0, # of connection points: 2
#     Edge 30, Type (0, 0), BuildingBlock: AJUNOK_clean_linker_0, # of connection points: 2
#     Edge 31, Type (0, 0), BuildingBlock: AJUNOK_clean_linker_0, # of connection points: 2
#     Edge 32, Type (0, 0), BuildingBlock: AJUNOK_clean_linker_0, # of connection points: 2
#     Edge 33, Type (0, 0), BuildingBlock: AJUNOK_clean_linker_0, # of connection points: 2
#     Edge 34, Type (0, 0), BuildingBlock: AJUNOK_clean_linker_0, # of connection points: 2
#     Edge 35, Type (0, 0), BuildingBlock: AJUNOK_clean_linker_0, # of connection points: 2
# Relax obj value: 0.092
# Max RMSD: 0.152
# Mean RMSD: 0.151
data_MOF--net-umo--node1-ICAMEG_clean_sbu_1--edge1-AJUNOK_clean_linker_0
_symmetry_space_group_name_H-M    P1
_symmetry_Int_Tables_number       1
_symmetry_cell_setting            triclinic
loop_
_symmetry_equiv_pos_as_xyz
'x, y, z'
_cell_length_a     39.509149
_cell_length_b     39.425177
_cell_length_c     29.987415
_cell_angle_alpha  89.987205
_cell_angle_beta   90.028364
_cell_angle_gamma 120.05902
loop_
_atom_site_label
_atom_site_type_symbol
_atom_site_fract_x
_atom_site_fract_y
_atom_site_fract_z
_atom_type_partial_charge
Co0 Co 0.14057 0.57258 0.41492 0.0
Co1 Co 0.19346 0.52634 0.4322 0.0
O2 O 0.15383 0.53236 0.39975 0.0
C3 C 0.0649 0.49925 0.39963 0.0
O4 O 0.07875 0.479 0.41927 0.0
C5 C 0.216 0.5314 0.33754 0.0
O6 O 0.20774 0.55964 0.33464 0.0
O7 O 0.23234 0.58208 0.42256 0.0
O8 O 0.196 0.61062 0.43132 0.0
H9 H 0.30096 0.56324 0.54449 0.0
H10 H 0.11746 0.53408 0.32616 0.0
O11 O 0.08506 0.53641 0.39797 0.0
H12 H 0.20392 0.67455 0.29427 0.0
H13 H 0.0725 0.65035 0.39174 0.0
H14 H 0.1596 0.62818 0.49008 0.0
H15 H 0.188 0.6511 0.37182 0.0
H16 H 0.09074 0.60078 0.37255 0.0
O17 O 0.2113 0.51348 0.37454 0.0
H18 H 0.25133 0.57121 0.5032 0.0
H19 H 0.22084 0.46858 0.42794 0.0
H20 H 0.1423 0.67817 0.51041 0.0
H21 H 0.13177 0.55643 0.24819 0.0
H22 H 0.0985 0.6896 0.46101 0.0
H23 H 0.17567 0.62699 0.23179 0.0
O24 O 0.12948 0.55365 0.47779 0.0
H25 H 0.09048 0.39153 0.38394 0.0
H26 H 0.16496 0.47397 0.51174 0.0
H27 H 0.11562 0.40456 0.52424 0.0
H28 H 0.07806 0.36282 0.46001 0.0
H29 H 0.13968 0.46127 0.37309 0.0
H30 H 0.27031 0.45966 0.46812 0.0
H31 H 0.31029 0.50682 0.52716 0.0
O32 O 0.17822 0.5411 0.49048 0.0
C33 C 0.22895 0.61221 0.42825 0.0
C34 C 0.28344 0.5423 0.51901 0.0
C35 C 0.26628 0.48418 0.4761 0.0
N36 N 0.23285 0.52009 0.46367 0.0
C37 C 0.25522 0.54659 0.49564 0.0
C38 C 0.23837 0.48942 0.45343 0.0
C39 C 0.28879 0.51074 0.50921 0.0
C40 C 0.13595 0.56497 0.31942 0.0
N41 N 0.15178 0.59122 0.35368 0.0
C42 C 0.1442 0.57742 0.27513 0.0
C43 C 0.16889 0.61703 0.26596 0.0
C44 C 0.18479 0.64368 0.301 0.0
C45 C 0.17583 0.63019 0.34489 0.0
C46 C 0.09172 0.64574 0.41346 0.0
C47 C 0.14063 0.63304 0.46834 0.0
C48 C 0.10213 0.61769 0.40279 0.0
N49 N 0.1266 0.6119 0.42991 0.0
C50 C 0.13088 0.66136 0.48006 0.0
C51 C 0.1063 0.66774 0.45234 0.0
C52 C 0.15194 0.54861 0.50414 0.0
C53 C 0.10673 0.40939 0.41217 0.0
C54 C 0.14851 0.45607 0.4837 0.0
C55 C 0.12074 0.41674 0.49094 0.0
C56 C 0.09972 0.39332 0.45488 0.0
N57 N 0.15518 0.4716 0.44172 0.0
C58 C 0.13477 0.44882 0.40619 0.0
Co59 Co 0.66406 0.19619 0.59948 0.0
Co60 Co 0.56554 0.15188 0.57753 0.0
O61 O 0.61773 0.15991 0.56522 0.0
C62 C 0.68484 0.22048 0.50559 0.0
O63 O 0.64955 0.21549 0.5024 0.0
C64 C 0.55493 0.07224 0.56326 0.0
O65 O 0.58763 0.08288 0.58489 0.0
O66 O 0.56927 0.13873 0.64098 0.0
O67 O 0.63243 0.18122 0.65686 0.0
H68 H 0.46532 0.16489 0.66737 0.0
H69 H 0.67028 0.14004 0.53934 0.0
O70 O 0.69637 0.21352 0.54257 0.0
H71 H 0.69614 0.10856 0.69023 0.0
H72 H 0.80703 0.26429 0.63921 0.0
H73 H 0.67957 0.25304 0.67236 0.0
H74 H 0.68244 0.1625 0.6786 0.0
H75 H 0.74787 0.21764 0.59762 0.0
O76 O 0.54161 0.09558 0.56009 0.0
H77 H 0.53103 0.1756 0.65038 0.0
H78 H 0.48855 0.11017 0.53063 0.0
H79 H 0.7379 0.30002 0.71473 0.0
H80 H 0.68431 0.08614 0.54933 0.0
H81 H 0.80222 0.30572 0.69838 0.0
H82 H 0.69723 0.07003 0.62526 0.0
O83 O 0.65258 0.2388 0.5904 0.0
H84 H 0.57768 0.14252 0.41173 0.0
H85 H 0.54393 0.2059 0.53167 0.0
H86 H 0.54202 0.22406 0.45344 0.0
H87 H 0.55922 0.1923 0.39282 0.0
H88 H 0.58037 0.12611 0.49033 0.0
H89 H 0.42228 0.09833 0.54653 0.0
H90 H 0.41035 0.12593 0.61529 0.0
O91 O 0.58732 0.20813 0.59419 0.0
C92 C 0.59707 0.15735 0.66876 0.0
C93 C 0.47012 0.15266 0.63734 0.0
C94 C 0.44595 0.11526 0.56956 0.0
N95 N 0.51358 0.1433 0.58967 0.0
C96 C 0.50727 0.15862 0.62753 0.0
C97 C 0.4835 0.12186 0.56085 0.0
C98 C 0.43929 0.13079 0.60811 0.0
C99 C 0.6763 0.13344 0.57239 0.0
N100 N 0.67564 0.15438 0.60832 0.0
C101 C 0.68403 0.10278 0.57788 0.0
C102 C 0.6912 0.09372 0.62051 0.0
C103 C 0.69055 0.11529 0.65698 0.0
C104 C 0.68263 0.14569 0.65022 0.0
C105 C 0.77915 0.26193 0.64678 0.0
C106 C 0.70739 0.25517 0.66525 0.0
C107 C 0.74558 0.2356 0.62334 0.0
N108 N 0.71025 0.23233 0.63291 0.0
C109 C 0.74035 0.28193 0.68926 0.0
C110 C 0.77643 0.28519 0.67998 0.0
C111 C 0.62074 0.23919 0.59345 0.0
C112 C 0.5702 0.15656 0.43785 0.0
C113 C 0.55168 0.19218 0.50557 0.0
C114 C 0.55034 0.20243 0.46127 0.0
C115 C 0.55982 0.18453 0.42728 0.0
N116 N 0.56226 0.16495 0.51575 0.0
C117 C 0.57133 0.14713 0.48249 0.0
Co118 Co 0.44871 0.65825 0.76367 0.0
Co119 Co 0.42078 0.56155 0.74947 0.0
O120 O 0.45435 0.61718 0.73388 0.0
C121 C 0.44669 0.67522 0.66737 0.0
O122 O 0.42395 0.63733 0.66202 0.0
C123 C 0.50031 0.57255 0.72777 0.0
O124 O 0.51741 0.61055 0.73376 0.0
O125 O 0.4383 0.57334 0.8126 0.0
O126 O 0.43577 0.62843 0.82252 0.0
H127 H 0.32457 0.44969 0.84477 0.0
H128 H 0.52146 0.68329 0.71249 0.0
O129 O 0.46045 0.68894 0.70597 0.0
H130 H 0.56408 0.72471 0.86739 0.0
H131 H 0.48241 0.79717 0.79587 0.0
H132 H 0.38971 0.65757 0.82491 0.0
H133 H 0.49407 0.69104 0.84765 0.0
H134 H 0.49277 0.74584 0.76244 0.0
O135 O 0.46394 0.55066 0.73544 0.0
H136 H 0.36517 0.51898 0.82304 0.0
H137 H 0.40711 0.48607 0.71013 0.0
H138 H 0.37826 0.70775 0.85912 0.0
H139 H 0.59187 0.71734 0.7306 0.0
H140 H 0.4245 0.77803 0.84418 0.0
H141 H 0.61353 0.73817 0.8086 0.0
O142 O 0.39294 0.63108 0.74765 0.0
H143 H 0.44023 0.56998 0.58324 0.0
H144 H 0.34297 0.5168 0.70447 0.0
H145 H 0.32078 0.50336 0.62623 0.0
H146 H 0.36984 0.52978 0.56504 0.0
H147 H 0.46104 0.58351 0.66155 0.0
H148 H 0.36709 0.41642 0.73083 0.0
H149 H 0.32535 0.39782 0.79853 0.0
O150 O 0.37544 0.56898 0.76373 0.0
C151 C 0.43583 0.59805 0.83796 0.0
C152 C 0.34256 0.45741 0.81513 0.0
C153 C 0.36646 0.43875 0.75122 0.0
N154 N 0.3884 0.50664 0.76523 0.0
C155 C 0.36559 0.49663 0.8026 0.0
C156 C 0.38913 0.47827 0.73972 0.0
C157 C 0.34304 0.42833 0.7892 0.0
C158 C 0.53074 0.69253 0.74641 0.0
N159 N 0.50375 0.68509 0.77897 0.0
C160 C 0.57061 0.71167 0.75651 0.0
C161 C 0.58274 0.7233 0.80029 0.0
C162 C 0.555 0.7157 0.83331 0.0
C163 C 0.51539 0.69644 0.82198 0.0
C164 C 0.46209 0.76657 0.80269 0.0
C165 C 0.41038 0.68811 0.81896 0.0
C166 C 0.46785 0.7374 0.78396 0.0
N167 N 0.44222 0.69873 0.79239 0.0
C168 C 0.40364 0.71641 0.83824 0.0
C169 C 0.42967 0.75588 0.8299 0.0
C170 C 0.36739 0.59572 0.75532 0.0
C171 C 0.4187 0.55803 0.60964 0.0
C172 C 0.3644 0.52859 0.67803 0.0
C173 C 0.35166 0.52078 0.63379 0.0
C174 C 0.3791 0.53557 0.59946 0.0
N175 N 0.40338 0.55047 0.6878 0.0
C176 C 0.43034 0.56527 0.6542 0.0
Co177 Co 0.84664 0.42008 0.91132 0.0
Co178 Co 0.79947 0.47162 0.93236 0.0
O179 O 0.83683 0.46301 0.8989 0.0
C180 C 0.92397 0.49182 0.90235 0.0
O181 O 0.91153 0.50995 0.92854 0.0
C182 C 0.77712 0.46894 0.83779 0.0
O183 O 0.78293 0.43908 0.83461 0.0
O184 O 0.75822 0.4171 0.92198 0.0
O185 O 0.79033 0.38376 0.92631 0.0
H186 H 0.69112 0.43799 0.04248 0.0
H187 H 0.87259 0.46174 0.82437 0.0
O188 O 0.90269 0.45518 0.89549 0.0
H189 H 0.78116 0.32364 0.78614 0.0
H190 H 0.90937 0.338 0.8833 0.0
H191 H 0.82169 0.35929 0.98163 0.0
H192 H 0.79654 0.34407 0.86464 0.0
H193 H 0.89513 0.39102 0.86762 0.0
O194 O 0.78295 0.48689 0.87504 0.0
H195 H 0.73958 0.42783 1.00179 0.0
H196 H 0.77784 0.53384 0.93053 0.0
H197 H 0.83489 0.30575 0.99835 0.0
H198 H 0.85879 0.44236 0.74542 0.0
H199 H 0.87901 0.29482 0.94898 0.0
H200 H 0.81233 0.37301 0.72582 0.0
O201 O 0.85784 0.43605 0.9751 0.0
H202 H 0.90908 0.60364 0.88579 0.0
H203 H 0.83086 0.52269 0.01262 0.0
H204 H 0.88399 0.59048 0.02608 0.0
H205 H 0.92349 0.63143 0.96234 0.0
H206 H 0.856 0.53554 0.87398 0.0
H207 H 0.7295 0.54505 0.96993 0.0
H208 H 0.68577 0.49698 0.02633 0.0
O209 O 0.81343 0.45429 0.99022 0.0
C210 C 0.75881 0.38526 0.92506 0.0
C211 C 0.71022 0.45933 0.01818 0.0
C212 C 0.7317 0.51936 0.9774 0.0
N213 N 0.76206 0.48056 0.96457 0.0
C214 C 0.73793 0.45385 0.99534 0.0
C215 C 0.75903 0.51287 0.95522 0.0
C216 C 0.70718 0.49237 1.00909 0.0
C217 C 0.85291 0.43135 0.81621 0.0
N218 N 0.83542 0.4041 0.84924 0.0
C219 C 0.84498 0.4206 0.77139 0.0
C220 C 0.81889 0.38168 0.76042 0.0
C221 C 0.8013 0.35401 0.79423 0.0
C222 C 0.80999 0.3658 0.83868 0.0
C223 C 0.89006 0.34244 0.90503 0.0
C224 C 0.84078 0.35462 0.95987 0.0
C225 C 0.88197 0.37248 0.89639 0.0
N226 N 0.85744 0.37811 0.92355 0.0
C227 C 0.84821 0.3243 0.96956 0.0
C228 C 0.873 0.31821 0.94188 0.0
C229 C 0.83747 0.4431 1.00255 0.0
C230 C 0.89199 0.58613 0.9138 0.0
C231 C 0.84805 0.5403 0.98479 0.0
C232 C 0.878 0.57869 0.99257 0.0
C233 C 0.90011 0.60168 0.95678 0.0
N234 N 0.84033 0.52528 0.94255 0.0
C235 C 0.86179 0.54764 0.90728 0.0
Co236 Co 0.33768 0.80424 0.09965 0.0
Co237 Co 0.4367 0.85257 0.07465 0.0
O238 O 0.38304 0.84109 0.06448 0.0
C239 C 0.31992 0.77345 1.0073 0.0
O240 O 0.35674 0.78276 1.00542 0.0
C241 C 0.4398 0.92961 0.06844 0.0
O242 O 0.40562 0.91452 0.08809 0.0
O243 O 0.43243 0.85906 0.14031 0.0
O244 O 0.36825 0.82591 0.15681 0.0
H245 H 0.54179 0.83728 0.15046 0.0
H246 H 0.3264 0.85185 0.03117 0.0
O247 O 0.30658 0.78051 0.04283 0.0
H248 H 0.2939 0.89006 0.17441 0.0
H249 H 0.19435 0.72926 0.1374 0.0
H250 H 0.32581 0.75494 0.17951 0.0
H251 H 0.3139 0.84 0.17186 0.0
H252 H 0.25224 0.7751 0.09352 0.0
O253 O 0.45685 0.90965 0.06446 0.0
H254 H 0.47444 0.82346 0.1375 0.0
H255 H 0.51378 0.90676 0.03229 0.0
H256 H 0.26875 0.7091 0.22455 0.0
H257 H 0.30577 0.90145 0.03206 0.0
H258 H 0.20249 0.69624 0.20365 0.0
H259 H 0.28963 0.92106 0.10411 0.0
O260 O 0.35388 0.76424 0.09799 0.0
H261 H 0.42455 0.87666 0.91232 0.0
H262 H 0.46593 0.8095 0.0192 0.0
H263 H 0.47336 0.80286 0.93858 0.0
H264 H 0.45363 0.83766 0.88461 0.0
H265 H 0.41662 0.88156 0.99303 0.0
H266 H 0.58163 0.92185 0.04451 0.0
H267 H 0.59599 0.88686 0.10382 0.0
O268 O 0.41821 0.79599 0.08377 0.0
C269 C 0.40431 0.84583 0.16841 0.0
C270 C 0.53592 0.8527 0.12448 0.0
C271 C 0.55827 0.90022 0.06509 0.0
N272 N 0.49011 0.86425 0.0842 0.0
C273 C 0.49781 0.84494 0.11691 0.0
C274 C 0.51979 0.89168 0.05848 0.0
C275 C 0.56631 0.88055 0.09834 0.0
C276 C 0.3189 0.85985 0.06257 0.0
N277 N 0.32122 0.84299 0.10139 0.0
C278 C 0.30744 0.8881 0.0629 0.0
C279 C 0.29845 0.89913 0.10335 0.0
C280 C 0.3009 0.88179 0.14281 0.0
C281 C 0.3124 0.85359 0.14119 0.0
C282 C 0.2231 0.73477 0.14692 0.0
C283 C 0.29707 0.74957 0.17033 0.0
C284 C 0.25596 0.76063 0.12216 0.0
N285 N 0.29238 0.76796 0.13422 0.0
C286 C 0.26487 0.7235 0.19587 0.0
C287 C 0.22769 0.71621 0.18408 0.0
C288 C 0.38607 0.76486 0.0921 0.0
C289 C 0.43368 0.86178 0.93556 0.0
C290 C 0.45643 0.8239 0.99595 0.0
C291 C 0.46094 0.82026 0.9503 0.0
C292 C 0.44976 0.83964 0.92002 0.0
N293 N 0.44121 0.8462 1.01103 0.0
C294 C 0.42943 0.86459 0.98139 0.0
Co295 Co 0.52921 0.33226 0.26382 0.0
Co296 Co 0.57967 0.43216 0.24261 0.0
O297 O 0.53714 0.37879 0.23151 0.0
C298 C 0.53431 0.31485 0.16861 0.0
O299 O 0.56305 0.35119 0.16584 0.0
C300 C 0.50601 0.4354 0.24026 0.0
O301 O 0.48757 0.40155 0.26087 0.0
O302 O 0.56926 0.42623 0.30812 0.0
O303 O 0.54406 0.36197 0.32275 0.0
H304 H 0.69951 0.53462 0.32197 0.0
H305 H 0.4658 0.32285 0.2031 0.0
O306 O 0.5163 0.30185 0.20564 0.0
H307 H 0.40709 0.29216 0.35325 0.0
H308 H 0.45569 0.18794 0.29852 0.0
H309 H 0.57205 0.31502 0.33289 0.0
H310 H 0.47607 0.31046 0.34235 0.0
H311 H 0.46792 0.24791 0.259 0.0
O312 O 0.54284 0.45245 0.23466 0.0
H313 H 0.64622 0.46757 0.30574 0.0
H314 H 0.60262 0.51107 0.20466 0.0
H315 H 0.56106 0.25617 0.37385 0.0
H316 H 0.39639 0.30349 0.21229 0.0
H317 H 0.50212 0.19184 0.35682 0.0
H318 H 0.36671 0.28838 0.28786 0.0
O319 O 0.58458 0.34716 0.25559 0.0
H320 H 0.54185 0.41817 0.0805 0.0
H321 H 0.6517 0.46915 0.18659 0.0
H322 H 0.66529 0.47547 0.10597 0.0
H323 H 0.61003 0.44992 0.05213 0.0
H324 H 0.5297 0.411 0.16146 0.0
H325 H 0.65512 0.57861 0.22023 0.0
H326 H 0.70418 0.59071 0.27907 0.0
O327 O 0.61784 0.41299 0.24886 0.0
C328 C 0.55852 0.39775 0.33535 0.0
C329 C 0.67839 0.52971 0.29614 0.0
C330 C 0.65342 0.55441 0.23911 0.0
N331 N 0.62149 0.48533 0.25407 0.0
C332 C 0.64823 0.49179 0.28668 0.0
C333 C 0.62363 0.51609 0.23059 0.0
C334 C 0.68096 0.56117 0.2721 0.0
C335 C 0.45293 0.31571 0.23598 0.0
N336 N 0.47492 0.31768 0.27212 0.0
C337 C 0.41368 0.30501 0.24103 0.0
C338 C 0.39706 0.29659 0.28345 0.0
C339 C 0.41972 0.29878 0.32016 0.0
C340 C 0.45883 0.3094 0.31383 0.0
C341 C 0.48122 0.21578 0.30657 0.0
C342 C 0.54632 0.2874 0.32595 0.0
C343 C 0.4883 0.24985 0.28432 0.0
N344 N 0.52026 0.2852 0.29465 0.0
C345 C 0.54028 0.25402 0.34891 0.0
C346 C 0.50734 0.218 0.33925 0.0
C347 C 0.61621 0.37986 0.25192 0.0
C348 C 0.56617 0.42909 0.10355 0.0
C349 C 0.62757 0.45694 0.16346 0.0
C350 C 0.63541 0.46111 0.11777 0.0
C351 C 0.60442 0.44691 0.08765 0.0
N352 N 0.59001 0.43864 0.17886 0.0
C353 C 0.55948 0.42518 0.1495 0.0
Co354 Co 0.4606 0.8037 0.4276 0.0
Co355 Co 0.40853 0.85031 0.45446 0.0
O356 O 0.45168 0.84004 0.46331 0.0
C357 C 0.44868 0.77252 0.52009 0.0
O358 O 0.4223 0.78321 0.52412 0.0
C359 C 0.48152 0.92883 0.45827 0.0
O360 O 0.5018 0.91412 0.44074 0.0
O361 O 0.41724 0.85558 0.3884 0.0
O362 O 0.45191 0.82612 0.37092 0.0
H363 H 0.28674 0.83324 0.38053 0.0
H364 H 0.51867 0.85199 0.49645 0.0
O365 O 0.46809 0.77941 0.48381 0.0
H366 H 0.59053 0.89001 0.35392 0.0
H367 H 0.52955 0.7295 0.38882 0.0
H368 H 0.42387 0.75541 0.34691 0.0
H369 H 0.52078 0.83902 0.35614 0.0
H370 H 0.5171 0.77476 0.43329 0.0
O371 O 0.44464 0.90777 0.46281 0.0
H372 H 0.34116 0.82052 0.3924 0.0
H373 H 0.38385 0.90217 0.49917 0.0
H374 H 0.43557 0.71021 0.30119 0.0
H375 H 0.58855 0.90274 0.49596 0.0
H376 H 0.48898 0.6973 0.32199 0.0
H377 H 0.62488 0.92218 0.42426 0.0
O378 O 0.40438 0.76321 0.42888 0.0
H379 H 0.44961 0.87766 0.6152 0.0
H380 H 0.33814 0.80687 0.5128 0.0
H381 H 0.32661 0.80135 0.59396 0.0
H382 H 0.38262 0.83794 0.64567 0.0
H383 H 0.4599 0.88171 0.53402 0.0
H384 H 0.33018 0.91614 0.48822 0.0
H385 H 0.28101 0.8814 0.42865 0.0
O386 O 0.3712 0.79357 0.44701 0.0
C387 C 0.43384 0.84437 0.36012 0.0
C388 C 0.30802 0.84864 0.40653 0.0
C389 C 0.3324 0.89516 0.46695 0.0
N390 N 0.36581 0.86073 0.44623 0.0
C391 C 0.33893 0.84159 0.41335 0.0
C392 C 0.36287 0.88729 0.47283 0.0
C393 C 0.30482 0.87565 0.43355 0.0
C394 C 0.53442 0.86006 0.46521 0.0
N395 N 0.51571 0.84273 0.42634 0.0
C396 C 0.57392 0.88891 0.4651 0.0
C397 C 0.59427 0.89985 0.42485 0.0
C398 C 0.575 0.88186 0.38536 0.0
C399 C 0.53548 0.85317 0.38676 0.0
C400 C 0.50634 0.73507 0.37933 0.0
C401 C 0.44722 0.75 0.35602 0.0
C402 C 0.4991 0.76059 0.40443 0.0
N403 N 0.47004 0.768 0.39243 0.0
C404 C 0.45363 0.72429 0.33011 0.0
C405 C 0.48351 0.71695 0.34184 0.0
C406 C 0.37264 0.76299 0.43694 0.0
C407 C 0.42496 0.862 0.59296 0.0
C408 C 0.36268 0.82215 0.53507 0.0
C409 C 0.35596 0.81909 0.58102 0.0
C410 C 0.38735 0.83945 0.61005 0.0
N411 N 0.39958 0.84495 0.51848 0.0
C412 C 0.43057 0.86435 0.54686 0.0
Co413 Co 0.5687 0.4215 0.61281 0.0
Co414 Co 0.66743 0.47371 0.59196 0.0
O415 O 0.62135 0.46461 0.62549 0.0
C416 C 0.56282 0.49301 0.62181 0.0
O417 O 0.59322 0.51108 0.59539 0.0
C418 C 0.68734 0.47045 0.68638 0.0
O419 O 0.65149 0.44105 0.68998 0.0
O420 O 0.6545 0.41922 0.60168 0.0
O421 O 0.58904 0.38545 0.59789 0.0
H422 H 0.74123 0.44223 0.47842 0.0
H423 H 0.58433 0.46302 0.69984 0.0
O424 O 0.54748 0.45637 0.62869 0.0
H425 H 0.53824 0.32495 0.73779 0.0
H426 H 0.42394 0.33865 0.64054 0.0
H427 H 0.53331 0.36061 0.54255 0.0
H428 H 0.54296 0.34543 0.65932 0.0
H429 H 0.49099 0.39207 0.65625 0.0
O430 O 0.69923 0.48854 0.64919 0.0
H431 H 0.68288 0.43131 0.52022 0.0
H432 H 0.75147 0.53538 0.59469 0.0
H433 H 0.4668 0.30666 0.52583 0.0
H434 H 0.57945 0.44365 0.77874 0.0
H435 H 0.41154 0.2954 0.57503 0.0
H436 H 0.55665 0.37427 0.79818 0.0
O437 O 0.57337 0.43746 0.54894 0.0
H438 H 0.68885 0.60494 0.64037 0.0
H439 H 0.68725 0.5256 0.51237 0.0
H440 H 0.70148 0.59338 0.49988 0.0
H441 H 0.70235 0.63351 0.5642 0.0
H442 H 0.67429 0.53687 0.65122 0.0
H443 H 0.81072 0.54728 0.55403 0.0
H444 H 0.80577 0.50074 0.4952 0.0
O445 O 0.63633 0.45692 0.53422 0.0
C446 C 0.6222 0.38723 0.59902 0.0
C447 C 0.74375 0.4629 0.50378 0.0
C448 C 0.78275 0.52182 0.54627 0.0
N449 N 0.71368 0.48296 0.55939 0.0
C450 C 0.71076 0.45696 0.52741 0.0
C451 C 0.74912 0.51492 0.5692 0.0
C452 C 0.77995 0.49565 0.51327 0.0
C453 C 0.57376 0.43264 0.70794 0.0
N454 N 0.56394 0.40542 0.67486 0.0
C455 C 0.5713 0.42189 0.75273 0.0
C456 C 0.55856 0.38296 0.76361 0.0
C457 C 0.54834 0.35531 0.72975 0.0
C458 C 0.55123 0.36713 0.68533 0.0
C459 C 0.44778 0.34324 0.61888 0.0
C460 C 0.50945 0.3558 0.56422 0.0
C461 C 0.48579 0.37351 0.62753 0.0
N462 N 0.51606 0.37933 0.60047 0.0
C463 C 0.47184 0.32525 0.55453 0.0
C464 C 0.44085 0.31897 0.58213 0.0
C465 C 0.60119 0.44556 0.5217 0.0
C466 C 0.6887 0.58779 0.6121 0.0
C467 C 0.68745 0.54287 0.54047 0.0
C468 C 0.69565 0.58125 0.53323 0.0
C469 C 0.69619 0.60378 0.56934 0.0
N470 N 0.68007 0.52741 0.5825 0.0
C471 C 0.68067 0.54933 0.61809 0.0
Co472 Co 0.20473 0.65695 0.76425 0.0
Co473 Co 0.1369 0.56009 0.78073 0.0
O474 O 0.15838 0.61596 0.79469 0.0
C475 C 0.22408 0.67603 0.86034 0.0
O476 O 0.20811 0.63827 0.86749 0.0
C477 C 0.06766 0.57069 0.79929 0.0
O478 O 0.08827 0.60855 0.79221 0.0
O479 O 0.13142 0.57032 0.71688 0.0
O480 O 0.1881 0.62621 0.70607 0.0
H481 H 0.12308 0.4467 0.68979 0.0
H482 H 0.15661 0.68208 0.81449 0.0
O483 O 0.22368 0.68865 0.8212 0.0
H484 H 0.15393 0.72031 0.65849 0.0
H485 H 0.30835 0.79597 0.72986 0.0
H486 H 0.26339 0.65641 0.70352 0.0
H487 H 0.19107 0.68772 0.67934 0.0
H488 H 0.24698 0.74453 0.76365 0.0
O489 O 0.08259 0.54896 0.79342 0.0
H490 H 0.15103 0.51638 0.70945 0.0
H491 H 0.07527 0.48521 0.82135 0.0
H492 H 0.32469 0.7067 0.66885 0.0
H493 H 0.11947 0.71511 0.79525 0.0
H494 H 0.34779 0.77697 0.6825 0.0
H495 H 0.11789 0.73432 0.7167 0.0
O496 O 0.23415 0.63078 0.7811 0.0
H497 H 0.12387 0.57126 0.94614 0.0
H498 H 0.17042 0.51705 0.82862 0.0
H499 H 0.17856 0.50522 0.9076 0.0
H500 H 0.15463 0.5321 0.96699 0.0
H501 H 0.11726 0.58326 0.86707 0.0
H502 H 0.04637 0.41521 0.80272 0.0
H503 H 0.07034 0.39554 0.73658 0.0
O504 O 0.19001 0.56785 0.76795 0.0
C505 C 0.15818 0.59508 0.69116 0.0
C506 C 0.11246 0.45489 0.71877 0.0
C507 C 0.06938 0.43722 0.78211 0.0
N508 N 0.11498 0.50492 0.76665 0.0
C509 C 0.12823 0.49433 0.73013 0.0
C510 C 0.08582 0.47694 0.79244 0.0
C511 C 0.08284 0.42621 0.74501 0.0
C512 C 0.15625 0.69063 0.78032 0.0
N513 N 0.17581 0.68286 0.74807 0.0
C514 C 0.13508 0.70919 0.76959 0.0
C515 C 0.13415 0.7199 0.7255 0.0
C516 C 0.15431 0.71199 0.69281 0.0
C517 C 0.17511 0.69333 0.70477 0.0
C518 C 0.29849 0.76538 0.72359 0.0
C519 C 0.27284 0.68692 0.70886 0.0
C520 C 0.26373 0.73614 0.74253 0.0
N521 N 0.25128 0.69745 0.73493 0.0
C522 C 0.30769 0.7153 0.68934 0.0
C523 C 0.32059 0.75476 0.69694 0.0
C524 C 0.22471 0.59526 0.7754 0.0
C525 C 0.13403 0.55912 0.92056 0.0
C526 C 0.16025 0.52909 0.85424 0.0
C527 C 0.16484 0.52217 0.89893 0.0
C528 C 0.15148 0.53724 0.93222 0.0
N529 N 0.14286 0.5504 0.84302 0.0
C530 C 0.13002 0.5655 0.87559 0.0
Co531 Co 0.52634 0.19512 0.92527 0.0
Co532 Co 0.57926 0.14931 0.94738 0.0
O533 O 0.53571 0.1584 0.95945 0.0
C534 C 0.53079 0.22021 0.01904 0.0
O535 O 0.56001 0.21358 0.0228 0.0
C536 C 0.50866 0.07095 0.95998 0.0
O537 O 0.48818 0.08275 0.93702 0.0
O538 O 0.5633 0.13734 0.88351 0.0
O539 O 0.54244 0.17973 0.86788 0.0
H540 H 0.69407 0.16251 0.86073 0.0
H541 H 0.46356 0.14019 0.9858 0.0
O542 O 0.51223 0.21323 0.98211 0.0
H543 H 0.40589 0.10861 0.83508 0.0
H544 H 0.45368 0.26565 0.88631 0.0
H545 H 0.56832 0.25187 0.85248 0.0
H546 H 0.47397 0.1617 0.84634 0.0
H547 H 0.46505 0.21801 0.9274 0.0
O548 O 0.54548 0.09296 0.96384 0.0
H549 H 0.63963 0.17435 0.87679 0.0
H550 H 0.61017 0.10284 0.99245 0.0
H551 H 0.55803 0.29975 0.81046 0.0
H552 H 0.39511 0.08734 0.97621 0.0
H553 H 0.50026 0.30677 0.82722 0.0
H554 H 0.36596 0.07109 0.90036 0.0
O555 O 0.58062 0.23688 0.93417 0.0
H556 H 0.55589 0.13962 0.11287 0.0
H557 H 0.65484 0.20099 0.99429 0.0
H558 H 0.67436 0.21824 0.07283 0.0
H559 H 0.62451 0.18761 0.13274 0.0
H560 H 0.53748 0.1237 0.034 0.0
H561 H 0.6641 0.08999 0.97745 0.0
H562 H 0.7066 0.12006 0.91128 0.0
O563 O 0.61486 0.20574 0.93191 0.0
C564 C 0.5542 0.15612 0.85585 0.0
C565 C 0.67582 0.14931 0.88973 0.0
C566 C 0.65896 0.10857 0.9552 0.0
N567 N 0.62188 0.13949 0.93565 0.0
C568 C 0.64499 0.15597 0.89905 0.0
C569 C 0.6284 0.11587 0.96346 0.0
C570 C 0.68281 0.12547 0.91808 0.0
C571 C 0.45086 0.1336 0.95279 0.0
N572 N 0.47262 0.15401 0.91669 0.0
C573 C 0.41219 0.10352 0.94752 0.0
C574 C 0.39587 0.09438 0.90494 0.0
C575 C 0.41828 0.11538 0.86829 0.0
C576 C 0.45685 0.14529 0.87484 0.0
C577 C 0.47884 0.26271 0.87855 0.0
C578 C 0.54294 0.25452 0.85968 0.0
C579 C 0.48542 0.2358 0.90169 0.0
N580 N 0.51703 0.23182 0.89193 0.0
C581 C 0.53736 0.2818 0.8359 0.0
C582 C 0.50501 0.2858 0.8454 0.0
C583 C 0.61271 0.23696 0.93216 0.0
C584 C 0.57783 0.15311 0.08707 0.0
C585 C 0.63301 0.18756 0.02012 0.0
C586 C 0.64428 0.19736 0.06458 0.0
C587 C 0.61638 0.18009 0.09818 0.0
N588 N 0.59503 0.1613 1.00942 0.0
C589 C 0.56764 0.14398 0.04229 0.0
Co590 Co 0.42849 0.57506 0.1152 0.0
Co591 Co 0.32987 0.52865 0.09474 0.0
O592 O 0.37473 0.53447 0.12874 0.0
C593 C 0.43104 0.50195 0.13289 0.0
O594 O 0.39722 0.48121 0.11284 0.0
C595 C 0.30953 0.53241 0.18865 0.0
O596 O 0.34596 0.56045 0.19316 0.0
O597 O 0.34625 0.58419 0.10504 0.0
O598 O 0.41125 0.61299 0.09766 0.0
H599 H 0.26217 0.56672 0.97985 0.0
H600 H 0.41074 0.53606 0.20381 0.0
O601 O 0.44784 0.53914 0.13351 0.0
H602 H 0.46333 0.67627 0.23596 0.0
H603 H 0.5736 0.6537 0.14331 0.0
H604 H 0.46668 0.63121 0.04084 0.0
H605 H 0.45825 0.6533 0.15853 0.0
H606 H 0.50548 0.60363 0.16036 0.0
O607 O 0.29759 0.51488 0.15123 0.0
H608 H 0.31862 0.57437 0.02332 0.0
H609 H 0.2447 0.47064 0.09593 0.0
H610 H 0.53431 0.68171 0.02263 0.0
H611 H 0.41614 0.55789 0.28173 0.0
H612 H 0.58836 0.6933 0.07411 0.0
H613 H 0.4421 0.62832 0.29826 0.0
O614 O 0.4223 0.55655 0.05217 0.0
H615 H 0.29748 0.39337 0.14172 0.0
H616 H 0.30835 0.47742 0.01435 0.0
H617 H 0.28903 0.40829 1.00108 0.0
H618 H 0.2834 0.36574 0.06508 0.0
H619 H 0.31725 0.46284 0.15336 0.0
H620 H 0.18742 0.46202 0.05352 0.0
H621 H 0.19612 0.50986 0.99462 0.0
O622 O 0.36137 0.54427 0.0376 0.0
C623 C 0.3798 0.61445 0.1001 0.0
C624 C 0.25811 0.54545 1.0052 0.0
C625 C 0.21613 0.48672 0.04661 0.0
N626 N 0.28505 0.52268 0.06165 0.0
C627 C 0.28998 0.54957 0.02981 0.0
C628 C 0.24865 0.49178 0.07055 0.0
C629 C 0.22103 0.51366 0.01359 0.0
C630 C 0.42285 0.5669 0.21064 0.0
N631 N 0.43422 0.59334 0.17647 0.0
C632 C 0.42555 0.57905 0.25488 0.0
C633 C 0.44008 0.61859 0.26412 0.0
C634 C 0.45188 0.64546 0.22919 0.0
C635 C 0.44875 0.63224 0.18534 0.0
C636 C 0.55029 0.649 0.12067 0.0
C637 C 0.48999 0.6361 0.06347 0.0
C638 C 0.51166 0.62065 0.13011 0.0
N639 N 0.48203 0.61474 0.10183 0.0
C640 C 0.52826 0.66473 0.05294 0.0
C641 C 0.55856 0.67121 0.08184 0.0
C642 C 0.39544 0.55191 0.02497 0.0
C643 C 0.29972 0.41158 0.11358 0.0
C644 C 0.30625 0.45916 0.04232 0.0
C645 C 0.29512 0.42 0.03463 0.0
C646 C 0.29191 0.39612 0.07056 0.0
N647 N 0.3139 0.4741 0.0846 0.0
C648 C 0.31069 0.45087 0.12001 0.0
Co649 Co 0.7984 0.32915 0.25924 0.0
Co650 Co 0.84844 0.42831 0.27622 0.0
O651 O 0.83688 0.37541 0.29165 0.0
C652 C 0.77632 0.31047 0.35419 0.0
O653 O 0.7837 0.34669 0.35759 0.0
C654 C 0.92469 0.43279 0.29029 0.0
O655 O 0.912 0.40078 0.26645 0.0
O656 O 0.86081 0.42108 0.2138 0.0
O657 O 0.81236 0.35959 0.20061 0.0
H658 H 0.84414 0.53054 0.18013 0.0
H659 H 0.85404 0.3203 0.31747 0.0
O660 O 0.78178 0.29805 0.31698 0.0
H661 H 0.87934 0.29047 0.16557 0.0
H662 H 0.72662 0.18532 0.22238 0.0
H663 H 0.73711 0.31304 0.19182 0.0
H664 H 0.82813 0.30765 0.17898 0.0
H665 H 0.77539 0.24483 0.26176 0.0
O666 O 0.90387 0.44889 0.29446 0.0
H667 H 0.82892 0.46377 0.20037 0.0
H668 H 0.89605 0.5067 0.31888 0.0
H669 H 0.68824 0.25452 0.15116 0.0
H670 H 0.90496 0.30241 0.30575 0.0
H671 H 0.68298 0.18997 0.16623 0.0
H672 H 0.91807 0.28765 0.22929 0.0
O673 O 0.75838 0.34403 0.26987 0.0
H674 H 0.8552 0.42153 0.44323 0.0
H675 H 0.79782 0.45617 0.31745 0.0
H676 H 0.78002 0.46274 0.3945 0.0
H677 H 0.80873 0.44518 0.458 0.0
H678 H 0.87163 0.41467 0.3658 0.0
H679 H 0.91241 0.57409 0.29972 0.0
H680 H 0.8862 0.58632 0.23002 0.0
O681 O 0.79285 0.40903 0.2584 0.0
C682 C 0.83824 0.3939 0.18709 0.0
C683 C 0.85557 0.52558 0.21072 0.0
C684 C 0.89392 0.55001 0.27781 0.0
N685 N 0.86105 0.48122 0.26108 0.0
C686 C 0.84689 0.48778 0.22245 0.0
C687 C 0.88459 0.5118 0.28846 0.0
C688 C 0.8792 0.55686 0.23869 0.0
C689 C 0.85923 0.31337 0.28422 0.0
N690 N 0.83812 0.31491 0.24898 0.0
C691 C 0.88824 0.30348 0.27773 0.0
C692 C 0.89562 0.29526 0.23481 0.0
C693 C 0.87394 0.29691 0.19903 0.0
C694 C 0.84513 0.30684 0.20679 0.0
C695 C 0.72891 0.2133 0.21518 0.0
C696 C 0.73535 0.28527 0.19798 0.0
C697 C 0.7565 0.2471 0.23733 0.0
N698 N 0.75981 0.2826 0.22811 0.0
C699 C 0.70741 0.25212 0.17514 0.0
C700 C 0.70438 0.21594 0.18371 0.0
C701 C 0.76063 0.37685 0.26254 0.0
C702 C 0.84257 0.42932 0.41582 0.0
C703 C 0.81034 0.44836 0.34489 0.0
C704 C 0.80026 0.45229 0.38846 0.0
C705 C 0.81644 0.44257 0.42408 0.0
N706 N 0.8358 0.43508 0.33701 0.0
C707 C 0.85199 0.42578 0.37185 0.0
C708 C 0.30168 0.65409 0.4243 0.0
C709 C 0.26501 0.65094 0.43143 0.0
C710 C 0.33619 0.69035 0.42612 0.0
C711 C 0.33552 0.72504 0.43517 0.0
H712 H 0.30393 0.62838 0.41697 0.0
H713 H 0.36357 0.69101 0.4203 0.0
S714 S 0.24699 0.73282 0.45726 0.0
N715 N 0.23023 0.68576 0.44891 0.0
N716 N 0.29478 0.75377 0.45166 0.0
C717 C 0.29901 0.72231 0.44261 0.0
C718 C 0.26389 0.68535 0.44094 0.0
C719 C 0.58733 0.27864 0.59567 0.0
C720 C 0.62234 0.27745 0.59547 0.0
C721 C 0.58767 0.3142 0.5964 0.0
C722 C 0.62303 0.35015 0.59751 0.0
H723 H 0.5592 0.25191 0.59508 0.0
H724 H 0.55981 0.31326 0.59621 0.0
S725 S 0.72313 0.36344 0.59829 0.0
N726 N 0.69359 0.31557 0.59668 0.0
N727 N 0.69425 0.38243 0.59881 0.0
C728 C 0.65839 0.34951 0.59765 0.0
C729 C 0.65804 0.31321 0.59653 0.0
C730 C 0.2715 0.58814 0.72802 0.0
C731 C 0.25642 0.58696 0.7707 0.0
C732 C 0.30691 0.5887 0.72291 0.0
C733 C 0.32725 0.58697 0.76033 0.0
H734 H 0.25702 0.59092 0.6987 0.0
H735 H 0.31924 0.5921 0.68982 0.0
S736 S 0.2979 0.58004 0.87866 0.0
N737 N 0.26296 0.58215 0.85062 0.0
N738 N 0.32888 0.58116 0.84087 0.0
C739 C 0.3111 0.58307 0.80291 0.0
C740 C 0.27564 0.58357 0.80818 0.0
C741 C 0.72067 0.31216 0.92735 0.0
C742 C 0.72108 0.34806 0.92716 0.0
C743 C 0.68556 0.2765 0.92869 0.0
C744 C 0.64935 0.27521 0.93033 0.0
H745 H 0.74766 0.31136 0.92631 0.0
H746 H 0.68701 0.24978 0.92851 0.0
S747 S 0.63413 0.36102 0.93181 0.0
N748 N 0.68195 0.38012 0.92919 0.0
N749 N 0.61604 0.31319 0.93253 0.0
C750 C 0.64925 0.31092 0.9306 0.0
C751 C 0.68505 0.34727 0.92886 0.0
C752 C 0.3502 0.69216 0.10181 0.0
C753 C 0.38566 0.72712 0.094 0.0
C754 C 0.34861 0.65599 0.10336 0.0
C755 C 0.3824 0.65315 0.09714 0.0
H756 H 0.32324 0.69252 0.10685 0.0
H757 H 0.32055 0.6301 0.10973 0.0
S758 S 0.4827 0.7358 0.07485 0.0
N759 N 0.45553 0.75646 0.07988 0.0
N760 N 0.45239 0.68854 0.0819 0.0
C761 C 0.41805 0.68782 0.08892 0.0
C762 C 0.41972 0.72473 0.08761 0.0
C763 C 0.69135 0.35164 0.28368 0.0
C764 C 0.72405 0.3776 0.25834 0.0
C765 C 0.65645 0.35239 0.28099 0.0
C766 C 0.65308 0.37911 0.2529 0.0
H767 H 0.69293 0.33105 0.30635 0.0
H768 H 0.63224 0.33232 0.30167 0.0
S769 S 0.72865 0.4491 0.17483 0.0
N770 N 0.75001 0.42815 0.20127 0.0
N771 N 0.68418 0.42921 0.19594 0.0
C772 C 0.68521 0.40426 0.2263 0.0
C773 C 0.72079 0.40359 0.2291 0.0
C774 C 0.12214 0.55289 0.62436 0.0
C775 C 0.15618 0.58509 0.64246 0.0
C776 C 0.12055 0.54103 0.57962 0.0
C777 C 0.15327 0.56017 0.55154 0.0
H778 H 0.09644 0.53646 0.64494 0.0
H779 H 0.09378 0.51635 0.56716 0.0
S780 S 0.24846 0.64741 0.58006 0.0
N781 N 0.22262 0.63718 0.6264 0.0
N782 N 0.21973 0.61399 0.54358 0.0
C783 C 0.18712 0.59258 0.56864 0.0
C784 C 0.18855 0.60526 0.61368 0.0
C785 C 0.59821 0.19061 0.74034 0.0
C786 C 0.58667 0.15557 0.71682 0.0
C787 C 0.58633 0.19029 0.78466 0.0
C788 C 0.56325 0.15491 0.8078 0.0
H789 H 0.61589 0.21861 0.72398 0.0
H790 H 0.59606 0.21806 0.80129 0.0
S791 S 0.52584 0.0551 0.76179 0.0
N792 N 0.55035 0.08448 0.71992 0.0
N793 N 0.52987 0.08389 0.80397 0.0
C794 C 0.55203 0.11966 0.78496 0.0
C795 C 0.56315 0.11998 0.7393 0.0
C796 C 0.4203 0.54483 0.94992 0.0
C797 C 0.40655 0.56393 0.97783 0.0
C798 C 0.43051 0.55657 0.90514 0.0
C799 C 0.42836 0.58854 0.8868 0.0
H800 H 0.42239 0.52018 0.96247 0.0
H801 H 0.43982 0.54011 0.88466 0.0
S802 S 0.39796 0.65073 0.94874 0.0
N803 N 0.39353 0.61755 0.98542 0.0
N804 N 0.4137 0.64049 0.90251 0.0
C805 C 0.4161 0.60874 0.91545 0.0
C806 C 0.40495 0.59621 0.96054 0.0
C807 C 0.87314 0.42992 0.11668 0.0
C808 C 0.83803 0.40487 0.13936 0.0
C809 C 0.87298 0.4426 0.07262 0.0
C810 C 0.8377 0.43208 0.05018 0.0
H811 H 0.90096 0.43953 0.133 0.0
H812 H 0.90066 0.46106 0.05613 0.0
S813 S 0.73782 0.36792 0.09492 0.0
N814 N 0.76709 0.37069 0.13578 0.0
N815 N 0.76684 0.3946 0.05394 0.0
C816 C 0.80253 0.40744 0.07269 0.0
C817 C 0.80268 0.39388 0.11696 0.0
C818 C 0.38398 0.83981 0.24938 0.0
C819 C 0.41393 0.85071 0.21747 0.0
C820 C 0.39116 0.83956 0.29538 0.0
C821 C 0.42842 0.84936 0.31172 0.0
H822 H 0.35437 0.83049 0.23881 0.0
H823 H 0.36683 0.82997 0.31815 0.0
S824 S 0.51802 0.88348 0.24379 0.0
N825 N 0.48359 0.875 0.20696 0.0
N826 N 0.49617 0.87269 0.29285 0.0
C827 C 0.45889 0.86142 0.28066 0.0
C828 C 0.45191 0.86266 0.23384 0.0
C829 C 0.5627 0.43848 0.40272 0.0
C830 C 0.56685 0.4079 0.38386 0.0
C831 C 0.57363 0.45072 0.44734 0.0
C832 C 0.59055 0.43391 0.47425 0.0
H833 H 0.55084 0.45303 0.38283 0.0
H834 H 0.56939 0.47388 0.46062 0.0
S835 S 0.60819 0.35337 0.4417 0.0
N836 N 0.58905 0.36133 0.39673 0.0
N837 N 0.61009 0.38475 0.47943 0.0
C838 C 0.59487 0.40351 0.45596 0.0
C839 C 0.58295 0.39044 0.41113 0.0
C840 C 0.97648 0.48594 0.33629 0.0
C841 C 0.96104 0.44855 0.317 0.0
C842 C 0.00921 0.50127 0.36404 0.0
C843 C 0.02793 0.47983 0.37407 0.0
H844 H 0.96325 0.5038 0.32991 0.0
H845 H 0.02008 0.53041 0.37755 0.0
S846 S -0.00077 0.38033 0.33257 0.0
N847 N 0.96689 0.39016 0.31018 0.0
N848 N 0.02876 0.41918 0.3626 0.0
C849 C 0.01276 0.44222 0.35546 0.0
C850 C 0.97936 0.42661 0.32673 0.0
C851 C 0.53938 0.98238 0.49852 0.0
C852 C 0.50135 0.96725 0.48127 0.0
C853 C 0.55627 0.01581 0.52594 0.0
C854 C 0.53576 0.03533 0.53703 0.0
H855 H 0.55584 0.96772 0.49184 0.0
H856 H 0.58569 0.02652 0.53824 0.0
S857 S 0.43557 0.00789 0.49931 0.0
N858 N 0.44435 0.97527 0.47581 0.0
N859 N 0.47518 0.03673 0.52839 0.0
C860 C 0.49781 0.02054 0.51961 0.0
C861 C 0.48089 0.98694 0.49144 0.0
C862 C 0.50362 0.51368 0.7054 0.0
C863 C 0.52025 0.55462 0.70385 0.0
C864 C 0.51742 0.4944 0.67843 0.0
C865 C 0.54865 0.51511 0.64856 0.0
H866 H 0.47906 0.49606 0.72715 0.0
H867 H 0.50315 0.46279 0.68109 0.0
S868 S 0.60373 0.62307 0.63284 0.0
N869 N 0.57049 0.61564 0.67088 0.0
N870 N 0.59687 0.5793 0.62019 0.0
C871 C 0.56634 0.55625 0.64734 0.0
C872 C 0.55216 0.57602 0.67506 0.0
C873 C 0.0053 0.51191 0.82124 0.0
C874 C 0.02936 0.55289 0.82224 0.0
C875 C 0.97177 0.49283 0.84753 0.0
C876 C 0.96056 0.51377 0.87616 0.0
H877 H 0.01279 0.49413 0.80049 0.0
H878 H 0.95468 0.46117 0.84539 0.0
S879 S 0.0125 0.62193 0.88984 0.0
N880 N 0.03914 0.61421 0.85322 0.0
N881 N 0.97557 0.57822 0.90265 0.0
C882 C 0.98375 0.55496 0.87676 0.0
C883 C 0.01815 0.57453 0.84971 0.0
C884 C 0.51225 0.01909 1.00365 0.0
C885 C 0.4894 0.03432 0.98658 0.0
C886 C 0.49611 0.98617 0.03135 0.0
C887 C 0.45643 0.9671 0.04363 0.0
H888 H 0.54302 0.0326 0.99545 0.0
H889 H 0.51499 0.97541 0.04296 0.0
S890 S 0.38385 0.99553 1.00885 0.0
N891 N 0.42494 0.02809 0.98455 0.0
N892 N 0.39453 0.96604 0.03686 0.0
C893 C 0.4332 0.9822 0.02736 0.0
C894 C 0.44964 0.01572 0.99866 0.0
C895 C 0.4878 0.50595 0.17351 0.0
C896 C 0.44866 0.48312 0.15964 0.0
C897 C 0.50526 0.49055 0.20107 0.0
C898 C 0.48444 0.45158 0.21622 0.0
H899 H 0.50542 0.53615 0.16286 0.0
H900 H 0.53565 0.50942 0.21011 0.0
S901 S 0.38064 0.37956 0.19091 0.0
N902 N 0.38905 0.41966 0.16413 0.0
N903 N 0.4221 0.3905 0.21602 0.0
C904 C 0.44502 0.42843 0.20332 0.0
C905 C 0.42715 0.44417 0.17487 0.0
C906 C 0.27013 0.52312 0.30619 0.0
C907 C 0.23565 0.52456 0.29937 0.0
C908 C 0.2932 0.52407 0.26996 0.0
C909 C 0.28188 0.5251 0.22567 0.0
H910 H 0.28057 0.52363 0.33975 0.0
H911 H 0.32065 0.52509 0.27667 0.0
S912 S 0.19263 0.52628 0.19003 0.0
N913 N 0.19052 0.52556 0.24507 0.0
N914 N 0.23289 0.52552 0.17709 0.0
C915 C 0.24635 0.52428 0.21842 0.0
C916 C 0.2235 0.52451 0.25527 0.0
C917 C 0.76895 0.29657 0.43628 0.0
C918 C 0.75695 0.28346 0.39227 0.0
C919 C 0.74716 0.27432 0.47326 0.0
C920 C 0.71193 0.23877 0.46747 0.0
H921 H 0.79471 0.32488 0.44214 0.0
H922 H 0.75659 0.28626 0.50644 0.0
S923 S 0.66823 0.19099 0.3595 0.0
N924 N 0.70856 0.23163 0.34533 0.0
N925 N 0.66682 0.1908 0.41457 0.0
C926 C 0.70028 0.22481 0.42377 0.0
C927 C 0.72301 0.24686 0.38622 0.0
C928 C 0.45138 0.73685 0.63728 0.0
C929 C 0.4522 0.70204 0.62963 0.0
C930 C 0.4513 0.76003 0.60162 0.0
C931 C 0.45338 0.75004 0.557 0.0
H932 H 0.44893 0.74531 0.67097 0.0
H933 H 0.44899 0.7857 0.60902 0.0
S934 S 0.45829 0.66308 0.51912 0.0
N935 N 0.45615 0.6593 0.57405 0.0
N936 N 0.4577 0.70372 0.50731 0.0
C937 C 0.45595 0.71626 0.54899 0.0
C938 C 0.45488 0.69205 0.58521 0.0
C939 C 0.72455 0.47925 0.8051 0.0
C940 C 0.75908 0.47769 0.79932 0.0
C941 C 0.70237 0.47889 0.76814 0.0
C942 C 0.71461 0.47834 0.72413 0.0
H943 H 0.71325 0.47808 0.83833 0.0
H944 H 0.67472 0.47768 0.77402 0.0
S945 S 0.80425 0.47688 0.69119 0.0
N946 N 0.8052 0.47707 0.74628 0.0
N947 N 0.76447 0.47814 0.67706 0.0
C948 C 0.75023 0.47915 0.71798 0.0
C949 C 0.7722 0.47835 0.75553 0.0
C950 C 0.2558 0.72045 0.97641 0.0
C951 C 0.29385 0.75202 0.96909 0.0
C952 C 0.23296 0.69642 0.94093 0.0
C953 C 0.24681 0.70387 0.89668 0.0
H954 H 0.2443 0.71314 1.01002 0.0
H955 H 0.20444 0.67149 0.94824 0.0
S956 S 0.34373 0.7839 0.85951 0.0
N957 N 0.34391 0.78981 0.91405 0.0
N958 N 0.3006 0.74573 0.84756 0.0
C959 C 0.28415 0.73625 0.88877 0.0
C960 C 0.30775 0.76002 0.92492 0.0
C961 C 0.52119 0.25057 0.13643 0.0
C962 C 0.52644 0.28828 0.12995 0.0
C963 C 0.52075 0.22776 0.10006 0.0
C964 C 0.52402 0.24117 0.05588 0.0
H965 H 0.51981 0.23961 0.16991 0.0
H966 H 0.51903 0.1999 0.1066 0.0
S967 S 0.5358 0.3366 0.02078 0.0
N968 N 0.53365 0.33732 0.07577 0.0
N969 N 0.53108 0.29375 1.00764 0.0
C970 C 0.52714 0.27783 0.04885 0.0
C971 C 0.52878 0.30155 0.08584 0.0
loop_
_geom_bond_atom_site_label_1
_geom_bond_atom_site_label_2
_geom_bond_distance
_geom_bond_site_symmetry_2
_ccdc_geom_bond_type
Co0 O2 2.143 . S
Co0 O8 2.074 . S
Co0 O11 2.093 . S
Co0 O24 2.097 . S
Co0 N41 2.151 . S
Co0 N49 2.214 . S
Co1 O2 2.160 . S
Co1 O7 2.058 . S
Co1 O17 2.057 . S
Co1 O32 2.037 . S
Co1 N36 2.145 . S
Co1 N57 2.257 . S
O2 Co0 2.143 . S
O2 Co1 2.160 . S
C3 O4 1.278 . S
C3 O11 1.224 . S
O4 C3 1.278 . S
C5 O6 1.245 . S
C5 O17 1.232 . S
O6 C5 1.245 . S
O7 Co1 2.058 . S
O7 C33 1.269 . S
O8 Co0 2.074 . S
O8 C33 1.257 . S
H9 C34 0.930 . S
H10 C40 0.930 . S
O11 Co0 2.093 . S
O11 C3 1.224 . S
H12 C44 0.929 . S
H13 C46 0.930 . S
H14 C47 0.930 . S
H15 C45 0.929 . S
H16 C48 0.928 . S
O17 Co1 2.057 . S
O17 C5 1.232 . S
H18 C37 0.929 . S
H19 C38 0.929 . S
H20 C50 0.931 . S
H21 C42 0.929 . S
H22 C51 0.930 . S
H23 C43 0.931 . S
O24 Co0 2.097 . S
O24 C52 1.214 . S
H25 C53 0.929 . S
H26 C54 0.929 . S
H27 C55 0.930 . S
H28 C56 0.929 . S
H29 C58 0.930 . S
H30 C35 0.930 . S
H31 C39 0.930 . S
O32 Co1 2.037 . S
O32 C52 1.234 . S
C33 O7 1.269 . S
C33 O8 1.257 . S
C34 H9 0.930 . S
C34 C37 1.388 . S
C34 C39 1.418 . S
C35 H30 0.930 . S
C35 C38 1.404 . S
C35 C39 1.353 . S
N36 Co1 2.145 . S
N36 C37 1.397 . S
N36 C38 1.334 . S
C37 H18 0.929 . S
C37 C34 1.388 . S
C37 N36 1.397 . S
C38 H19 0.929 . S
C38 C35 1.404 . S
C38 N36 1.334 . S
C39 H31 0.930 . S
C39 C34 1.418 . S
C39 C35 1.353 . S
C40 H10 0.930 . S
C40 N41 1.330 . S
C40 C42 1.446 . S
N41 Co0 2.151 . S
N41 C40 1.330 . S
N41 C45 1.418 . S
C42 H21 0.929 . S
C42 C40 1.446 . S
C42 C43 1.332 . S
C43 H23 0.931 . S
C43 C42 1.332 . S
C43 C44 1.267 . S
C44 H12 0.929 . S
C44 C43 1.267 . S
C44 C45 1.251 . S
C45 H15 0.929 . S
C45 N41 1.418 . S
C45 C44 1.251 . S
C46 H13 0.930 . S
C46 C48 1.406 . S
C46 C51 1.261 . S
C47 H14 0.930 . S
C47 N49 1.325 . S
C47 C50 1.357 . S
C48 H16 0.928 . S
C48 C46 1.406 . S
C48 N49 1.261 . S
N49 Co0 2.214 . S
N49 C47 1.325 . S
N49 C48 1.261 . S
C50 H20 0.931 . S
C50 C47 1.357 . S
C50 C51 1.312 . S
C51 H22 0.930 . S
C51 C46 1.261 . S
C51 C50 1.312 . S
C52 O24 1.214 . S
C52 O32 1.234 . S
C53 H25 0.929 . S
C53 C56 1.391 . S
C53 C58 1.391 . S
C54 H26 0.929 . S
C54 C55 1.390 . S
C54 N57 1.391 . S
C55 H27 0.930 . S
C55 C54 1.390 . S
C55 C56 1.392 . S
C56 H28 0.929 . S
C56 C53 1.391 . S
C56 C55 1.392 . S
N57 Co1 2.257 . S
N57 C54 1.391 . S
N57 C58 1.388 . S
C58 H29 0.930 . S
C58 C53 1.391 . S
C58 N57 1.388 . S
Co59 O61 2.143 . S
Co59 O67 2.074 . S
Co59 O70 2.093 . S
Co59 O83 2.097 . S
Co59 N100 2.151 . S
Co59 N108 2.214 . S
Co60 O61 2.160 . S
Co60 O66 2.058 . S
Co60 O76 2.057 . S
Co60 O91 2.037 . S
Co60 N95 2.145 . S
Co60 N116 2.257 . S
O61 Co59 2.143 . S
O61 Co60 2.160 . S
C62 O63 1.278 . S
C62 O70 1.224 . S
O63 C62 1.278 . S
C64 O65 1.245 . S
C64 O76 1.232 . S
O65 C64 1.245 . S
O66 Co60 2.058 . S
O66 C92 1.269 . S
O67 Co59 2.074 . S
O67 C92 1.257 . S
H68 C93 0.930 . S
H69 C99 0.930 . S
O70 Co59 2.093 . S
O70 C62 1.224 . S
H71 C103 0.929 . S
H72 C105 0.930 . S
H73 C106 0.930 . S
H74 C104 0.929 . S
H75 C107 0.928 . S
O76 Co60 2.057 . S
O76 C64 1.232 . S
H77 C96 0.929 . S
H78 C97 0.929 . S
H79 C109 0.931 . S
H80 C101 0.929 . S
H81 C110 0.930 . S
H82 C102 0.931 . S
O83 Co59 2.097 . S
O83 C111 1.214 . S
H84 C112 0.929 . S
H85 C113 0.929 . S
H86 C114 0.930 . S
H87 C115 0.929 . S
H88 C117 0.930 . S
H89 C94 0.930 . S
H90 C98 0.930 . S
O91 Co60 2.037 . S
O91 C111 1.234 . S
C92 O66 1.269 . S
C92 O67 1.257 . S
C93 H68 0.930 . S
C93 C96 1.388 . S
C93 C98 1.418 . S
C94 H89 0.930 . S
C94 C97 1.404 . S
C94 C98 1.353 . S
N95 Co60 2.145 . S
N95 C96 1.397 . S
N95 C97 1.334 . S
C96 H77 0.929 . S
C96 C93 1.388 . S
C96 N95 1.397 . S
C97 H78 0.929 . S
C97 C94 1.404 . S
C97 N95 1.334 . S
C98 H90 0.930 . S
C98 C93 1.418 . S
C98 C94 1.353 . S
C99 H69 0.930 . S
C99 N100 1.330 . S
C99 C101 1.446 . S
N100 Co59 2.151 . S
N100 C99 1.330 . S
N100 C104 1.418 . S
C101 H80 0.929 . S
C101 C99 1.446 . S
C101 C102 1.332 . S
C102 H82 0.931 . S
C102 C101 1.332 . S
C102 C103 1.267 . S
C103 H71 0.929 . S
C103 C102 1.267 . S
C103 C104 1.251 . S
C104 H74 0.929 . S
C104 N100 1.418 . S
C104 C103 1.251 . S
C105 H72 0.930 . S
C105 C107 1.406 . S
C105 C110 1.261 . S
C106 H73 0.930 . S
C106 N108 1.325 . S
C106 C109 1.357 . S
C107 H75 0.928 . S
C107 C105 1.406 . S
C107 N108 1.261 . S
N108 Co59 2.214 . S
N108 C106 1.325 . S
N108 C107 1.261 . S
C109 H79 0.931 . S
C109 C106 1.357 . S
C109 C110 1.312 . S
C110 H81 0.930 . S
C110 C105 1.261 . S
C110 C109 1.312 . S
C111 O83 1.214 . S
C111 O91 1.234 . S
C112 H84 0.929 . S
C112 C115 1.391 . S
C112 C117 1.391 . S
C113 H85 0.929 . S
C113 C114 1.390 . S
C113 N116 1.391 . S
C114 H86 0.930 . S
C114 C113 1.390 . S
C114 C115 1.392 . S
C115 H87 0.929 . S
C115 C112 1.391 . S
C115 C114 1.392 . S
N116 Co60 2.257 . S
N116 C113 1.391 . S
N116 C117 1.388 . S
C117 H88 0.930 . S
C117 C112 1.391 . S
C117 N116 1.388 . S
Co118 O120 2.143 . S
Co118 O126 2.074 . S
Co118 O129 2.093 . S
Co118 O142 2.097 . S
Co118 N159 2.151 . S
Co118 N167 2.214 . S
Co119 O120 2.160 . S
Co119 O125 2.058 . S
Co119 O135 2.057 . S
Co119 O150 2.037 . S
Co119 N154 2.145 . S
Co119 N175 2.257 . S
O120 Co118 2.143 . S
O120 Co119 2.160 . S
C121 O122 1.278 . S
C121 O129 1.224 . S
O122 C121 1.278 . S
C123 O124 1.245 . S
C123 O135 1.232 . S
O124 C123 1.245 . S
O125 Co119 2.058 . S
O125 C151 1.269 . S
O126 Co118 2.074 . S
O126 C151 1.257 . S
H127 C152 0.930 . S
H128 C158 0.930 . S
O129 Co118 2.093 . S
O129 C121 1.224 . S
H130 C162 0.929 . S
H131 C164 0.930 . S
H132 C165 0.930 . S
H133 C163 0.929 . S
H134 C166 0.928 . S
O135 Co119 2.057 . S
O135 C123 1.232 . S
H136 C155 0.929 . S
H137 C156 0.929 . S
H138 C168 0.931 . S
H139 C160 0.929 . S
H140 C169 0.930 . S
H141 C161 0.931 . S
O142 Co118 2.097 . S
O142 C170 1.214 . S
H143 C171 0.929 . S
H144 C172 0.929 . S
H145 C173 0.930 . S
H146 C174 0.929 . S
H147 C176 0.930 . S
H148 C153 0.930 . S
H149 C157 0.930 . S
O150 Co119 2.037 . S
O150 C170 1.234 . S
C151 O125 1.269 . S
C151 O126 1.257 . S
C152 H127 0.930 . S
C152 C155 1.388 . S
C152 C157 1.418 . S
C153 H148 0.930 . S
C153 C156 1.404 . S
C153 C157 1.353 . S
N154 Co119 2.145 . S
N154 C155 1.397 . S
N154 C156 1.334 . S
C155 H136 0.929 . S
C155 C152 1.388 . S
C155 N154 1.397 . S
C156 H137 0.929 . S
C156 C153 1.404 . S
C156 N154 1.334 . S
C157 H149 0.930 . S
C157 C152 1.418 . S
C157 C153 1.353 . S
C158 H128 0.930 . S
C158 N159 1.330 . S
C158 C160 1.446 . S
N159 Co118 2.151 . S
N159 C158 1.330 . S
N159 C163 1.418 . S
C160 H139 0.929 . S
C160 C158 1.446 . S
C160 C161 1.332 . S
C161 H141 0.931 . S
C161 C160 1.332 . S
C161 C162 1.267 . S
C162 H130 0.929 . S
C162 C161 1.267 . S
C162 C163 1.251 . S
C163 H133 0.929 . S
C163 N159 1.418 . S
C163 C162 1.251 . S
C164 H131 0.930 . S
C164 C166 1.406 . S
C164 C169 1.261 . S
C165 H132 0.930 . S
C165 N167 1.325 . S
C165 C168 1.357 . S
C166 H134 0.928 . S
C166 C164 1.406 . S
C166 N167 1.261 . S
N167 Co118 2.214 . S
N167 C165 1.325 . S
N167 C166 1.261 . S
C168 H138 0.931 . S
C168 C165 1.357 . S
C168 C169 1.312 . S
C169 H140 0.930 . S
C169 C164 1.261 . S
C169 C168 1.312 . S
C170 O142 1.214 . S
C170 O150 1.234 . S
C171 H143 0.929 . S
C171 C174 1.391 . S
C171 C176 1.391 . S
C172 H144 0.929 . S
C172 C173 1.390 . S
C172 N175 1.391 . S
C173 H145 0.930 . S
C173 C172 1.390 . S
C173 C174 1.392 . S
C174 H146 0.929 . S
C174 C171 1.391 . S
C174 C173 1.392 . S
N175 Co119 2.257 . S
N175 C172 1.391 . S
N175 C176 1.388 . S
C176 H147 0.930 . S
C176 C171 1.391 . S
C176 N175 1.388 . S
Co177 O179 2.143 . S
Co177 O185 2.074 . S
Co177 O188 2.093 . S
Co177 O201 2.097 . S
Co177 N218 2.151 . S
Co177 N226 2.214 . S
Co178 O179 2.160 . S
Co178 O184 2.058 . S
Co178 O194 2.057 . S
Co178 O209 2.037 . S
Co178 N213 2.145 . S
Co178 N234 2.257 . S
O179 Co177 2.143 . S
O179 Co178 2.160 . S
C180 O181 1.278 . S
C180 O188 1.224 . S
O181 C180 1.278 . S
C182 O183 1.245 . S
C182 O194 1.232 . S
O183 C182 1.245 . S
O184 Co178 2.058 . S
O184 C210 1.269 . S
O185 Co177 2.074 . S
O185 C210 1.257 . S
H186 C211 0.930 . S
H187 C217 0.930 . S
O188 Co177 2.093 . S
O188 C180 1.224 . S
H189 C221 0.929 . S
H190 C223 0.930 . S
H191 C224 0.930 . S
H192 C222 0.929 . S
H193 C225 0.928 . S
O194 Co178 2.057 . S
O194 C182 1.232 . S
H195 C214 0.922 1_554 S
H196 C215 0.929 . S
H197 C227 0.934 . S
H198 C219 0.929 . S
H199 C228 0.930 . S
H200 C220 0.931 . S
O201 Co177 2.097 . S
O201 C229 1.214 . S
H202 C230 0.929 . S
H203 C231 0.929 . S
H204 C232 0.930 1_554 S
H205 C233 0.929 . S
H206 C235 0.930 . S
H207 C212 0.930 . S
H208 C216 0.930 1_554 S
O209 Co178 2.037 . S
O209 C229 1.234 . S
C210 O184 1.269 . S
C210 O185 1.257 . S
C211 H186 0.930 . S
C211 C214 1.388 1_554 S
C211 C216 1.418 1_554 S
C212 H207 0.930 . S
C212 C215 1.404 . S
C212 C216 1.353 . S
N213 Co178 2.145 . S
N213 C214 1.397 . S
N213 C215 1.334 . S
C214 H195 0.922 1_556 S
C214 C211 1.388 1_556 S
C214 N213 1.397 . S
C215 H196 0.929 . S
C215 C212 1.404 . S
C215 N213 1.334 . S
C216 H208 0.930 1_556 S
C216 C211 1.418 1_556 S
C216 C212 1.353 . S
C217 H187 0.930 . S
C217 N218 1.330 . S
C217 C219 1.446 . S
N218 Co177 2.151 . S
N218 C217 1.330 . S
N218 C222 1.418 . S
C219 H198 0.929 . S
C219 C217 1.446 . S
C219 C220 1.332 . S
C220 H200 0.931 . S
C220 C219 1.332 . S
C220 C221 1.267 . S
C221 H189 0.929 . S
C221 C220 1.267 . S
C221 C222 1.251 . S
C222 H192 0.929 . S
C222 N218 1.418 . S
C222 C221 1.251 . S
C223 H190 0.930 . S
C223 C225 1.406 . S
C223 C228 1.261 . S
C224 H191 0.930 . S
C224 N226 1.325 . S
C224 C227 1.355 1_556 S
C225 H193 0.928 . S
C225 C223 1.406 . S
C225 N226 1.261 . S
N226 Co177 2.214 . S
N226 C224 1.325 . S
N226 C225 1.261 . S
C227 H197 0.934 . S
C227 C224 1.355 1_554 S
C227 C228 1.311 1_554 S
C228 H199 0.930 . S
C228 C223 1.261 . S
C228 C227 1.311 1_556 S
C229 O201 1.214 . S
C229 O209 1.234 . S
C230 H202 0.929 . S
C230 C233 1.391 . S
C230 C235 1.391 . S
C231 H203 0.929 . S
C231 C232 1.390 . S
C231 N234 1.391 . S
C232 H204 0.930 1_556 S
C232 C231 1.390 . S
C232 C233 1.392 . S
C233 H205 0.929 . S
C233 C230 1.391 . S
C233 C232 1.392 . S
N234 Co178 2.257 . S
N234 C231 1.391 . S
N234 C235 1.388 . S
C235 H206 0.930 . S
C235 C230 1.391 . S
C235 N234 1.388 . S
Co236 O238 2.143 . S
Co236 O244 2.074 . S
Co236 O247 2.093 . S
Co236 O260 2.097 . S
Co236 N277 2.151 . S
Co236 N285 2.214 . S
Co237 O238 2.160 . S
Co237 O243 2.058 . S
Co237 O253 2.057 . S
Co237 O268 2.037 . S
Co237 N272 2.145 . S
Co237 N293 2.257 . S
O238 Co236 2.143 . S
O238 Co237 2.160 . S
C239 O240 1.278 . S
C239 O247 1.224 1_556 S
O240 C239 1.278 . S
C241 O242 1.245 . S
C241 O253 1.232 . S
O242 C241 1.245 . S
O243 Co237 2.058 . S
O243 C269 1.269 . S
O244 Co236 2.074 . S
O244 C269 1.257 . S
H245 C270 0.930 . S
H246 C276 0.930 . S
O247 Co236 2.093 . S
O247 C239 1.224 1_554 S
H248 C280 0.929 . S
H249 C282 0.930 . S
H250 C283 0.930 . S
H251 C281 0.929 . S
H252 C284 0.928 . S
O253 Co237 2.057 . S
O253 C241 1.232 . S
H254 C273 0.929 . S
H255 C274 0.929 . S
H256 C286 0.931 . S
H257 C278 0.929 . S
H258 C287 0.930 . S
H259 C279 0.931 . S
O260 Co236 2.097 . S
O260 C288 1.214 . S
H261 C289 0.929 . S
H262 C290 0.929 1_554 S
H263 C291 0.930 . S
H264 C292 0.929 . S
H265 C294 0.930 . S
H266 C271 0.930 . S
H267 C275 0.930 . S
O268 Co237 2.037 . S
O268 C288 1.234 . S
C269 O243 1.269 . S
C269 O244 1.257 . S
C270 H245 0.930 . S
C270 C273 1.388 . S
C270 C275 1.418 . S
C271 H266 0.930 . S
C271 C274 1.404 . S
C271 C275 1.353 . S
N272 Co237 2.145 . S
N272 C273 1.397 . S
N272 C274 1.334 . S
C273 H254 0.929 . S
C273 C270 1.388 . S
C273 N272 1.397 . S
C274 H255 0.929 . S
C274 C271 1.404 . S
C274 N272 1.334 . S
C275 H267 0.930 . S
C275 C270 1.418 . S
C275 C271 1.353 . S
C276 H246 0.930 . S
C276 N277 1.330 . S
C276 C278 1.446 . S
N277 Co236 2.151 . S
N277 C276 1.330 . S
N277 C281 1.418 . S
C278 H257 0.929 . S
C278 C276 1.446 . S
C278 C279 1.332 . S
C279 H259 0.931 . S
C279 C278 1.332 . S
C279 C280 1.267 . S
C280 H248 0.929 . S
C280 C279 1.267 . S
C280 C281 1.251 . S
C281 H251 0.929 . S
C281 N277 1.418 . S
C281 C280 1.251 . S
C282 H249 0.930 . S
C282 C284 1.406 . S
C282 C287 1.261 . S
C283 H250 0.930 . S
C283 N285 1.325 . S
C283 C286 1.357 . S
C284 H252 0.928 . S
C284 C282 1.406 . S
C284 N285 1.261 . S
N285 Co236 2.214 . S
N285 C283 1.325 . S
N285 C284 1.261 . S
C286 H256 0.931 . S
C286 C283 1.357 . S
C286 C287 1.312 . S
C287 H258 0.930 . S
C287 C282 1.261 . S
C287 C286 1.312 . S
C288 O260 1.214 . S
C288 O268 1.234 . S
C289 H261 0.929 . S
C289 C292 1.391 . S
C289 C294 1.391 . S
C290 H262 0.929 1_556 S
C290 C291 1.390 . S
C290 N293 1.391 1_556 S
C291 H263 0.930 . S
C291 C290 1.390 . S
C291 C292 1.392 . S
C292 H264 0.929 . S
C292 C289 1.391 . S
C292 C291 1.392 . S
N293 Co237 2.257 . S
N293 C290 1.391 1_554 S
N293 C294 1.388 1_554 S
C294 H265 0.930 . S
C294 C289 1.391 . S
C294 N293 1.388 1_556 S
Co295 O297 2.143 . S
Co295 O303 2.074 . S
Co295 O306 2.093 . S
Co295 O319 2.097 . S
Co295 N336 2.151 . S
Co295 N344 2.214 . S
Co296 O297 2.160 . S
Co296 O302 2.058 . S
Co296 O312 2.057 . S
Co296 O327 2.037 . S
Co296 N331 2.145 . S
Co296 N352 2.257 . S
O297 Co295 2.143 . S
O297 Co296 2.160 . S
C298 O299 1.278 . S
C298 O306 1.224 . S
O299 C298 1.278 . S
C300 O301 1.245 . S
C300 O312 1.232 . S
O301 C300 1.245 . S
O302 Co296 2.058 . S
O302 C328 1.269 . S
O303 Co295 2.074 . S
O303 C328 1.257 . S
H304 C329 0.930 . S
H305 C335 0.930 . S
O306 Co295 2.093 . S
O306 C298 1.224 . S
H307 C339 0.929 . S
H308 C341 0.930 . S
H309 C342 0.930 . S
H310 C340 0.929 . S
H311 C343 0.928 . S
O312 Co296 2.057 . S
O312 C300 1.232 . S
H313 C332 0.929 . S
H314 C333 0.929 . S
H315 C345 0.931 . S
H316 C337 0.929 . S
H317 C346 0.930 . S
H318 C338 0.931 . S
O319 Co295 2.097 . S
O319 C347 1.214 . S
H320 C348 0.929 . S
H321 C349 0.929 . S
H322 C350 0.930 . S
H323 C351 0.929 . S
H324 C353 0.930 . S
H325 C330 0.930 . S
H326 C334 0.930 . S
O327 Co296 2.037 . S
O327 C347 1.234 . S
C328 O302 1.269 . S
C328 O303 1.257 . S
C329 H304 0.930 . S
C329 C332 1.388 . S
C329 C334 1.418 . S
C330 H325 0.930 . S
C330 C333 1.404 . S
C330 C334 1.353 . S
N331 Co296 2.145 . S
N331 C332 1.397 . S
N331 C333 1.334 . S
C332 H313 0.929 . S
C332 C329 1.388 . S
C332 N331 1.397 . S
C333 H314 0.929 . S
C333 C330 1.404 . S
C333 N331 1.334 . S
C334 H326 0.930 . S
C334 C329 1.418 . S
C334 C330 1.353 . S
C335 H305 0.930 . S
C335 N336 1.330 . S
C335 C337 1.446 . S
N336 Co295 2.151 . S
N336 C335 1.330 . S
N336 C340 1.418 . S
C337 H316 0.929 . S
C337 C335 1.446 . S
C337 C338 1.332 . S
C338 H318 0.931 . S
C338 C337 1.332 . S
C338 C339 1.267 . S
C339 H307 0.929 . S
C339 C338 1.267 . S
C339 C340 1.251 . S
C340 H310 0.929 . S
C340 N336 1.418 . S
C340 C339 1.251 . S
C341 H308 0.930 . S
C341 C343 1.406 . S
C341 C346 1.261 . S
C342 H309 0.930 . S
C342 N344 1.325 . S
C342 C345 1.357 . S
C343 H311 0.928 . S
C343 C341 1.406 . S
C343 N344 1.261 . S
N344 Co295 2.214 . S
N344 C342 1.325 . S
N344 C343 1.261 . S
C345 H315 0.931 . S
C345 C342 1.357 . S
C345 C346 1.312 . S
C346 H317 0.930 . S
C346 C341 1.261 . S
C346 C345 1.312 . S
C347 O319 1.214 . S
C347 O327 1.234 . S
C348 H320 0.929 . S
C348 C351 1.391 . S
C348 C353 1.391 . S
C349 H321 0.929 . S
C349 C350 1.390 . S
C349 N352 1.391 . S
C350 H322 0.930 . S
C350 C349 1.390 . S
C350 C351 1.392 . S
C351 H323 0.929 . S
C351 C348 1.391 . S
C351 C350 1.392 . S
N352 Co296 2.257 . S
N352 C349 1.391 . S
N352 C353 1.388 . S
C353 H324 0.930 . S
C353 C348 1.391 . S
C353 N352 1.388 . S
Co354 O356 2.143 . S
Co354 O362 2.074 . S
Co354 O365 2.093 . S
Co354 O378 2.097 . S
Co354 N395 2.151 . S
Co354 N403 2.214 . S
Co355 O356 2.160 . S
Co355 O361 2.058 . S
Co355 O371 2.057 . S
Co355 O386 2.037 . S
Co355 N390 2.145 . S
Co355 N411 2.257 . S
O356 Co354 2.143 . S
O356 Co355 2.160 . S
C357 O358 1.278 . S
C357 O365 1.224 . S
O358 C357 1.278 . S
C359 O360 1.245 . S
C359 O371 1.232 . S
O360 C359 1.245 . S
O361 Co355 2.058 . S
O361 C387 1.269 . S
O362 Co354 2.074 . S
O362 C387 1.257 . S
H363 C388 0.930 . S
H364 C394 0.930 . S
O365 Co354 2.093 . S
O365 C357 1.224 . S
H366 C398 0.929 . S
H367 C400 0.930 . S
H368 C401 0.930 . S
H369 C399 0.929 . S
H370 C402 0.928 . S
O371 Co355 2.057 . S
O371 C359 1.232 . S
H372 C391 0.929 . S
H373 C392 0.929 . S
H374 C404 0.931 . S
H375 C396 0.929 . S
H376 C405 0.930 . S
H377 C397 0.931 . S
O378 Co354 2.097 . S
O378 C406 1.214 . S
H379 C407 0.929 . S
H380 C408 0.929 . S
H381 C409 0.930 . S
H382 C410 0.929 . S
H383 C412 0.930 . S
H384 C389 0.930 . S
H385 C393 0.930 . S
O386 Co355 2.037 . S
O386 C406 1.234 . S
C387 O361 1.269 . S
C387 O362 1.257 . S
C388 H363 0.930 . S
C388 C391 1.388 . S
C388 C393 1.418 . S
C389 H384 0.930 . S
C389 C392 1.404 . S
C389 C393 1.353 . S
N390 Co355 2.145 . S
N390 C391 1.397 . S
N390 C392 1.334 . S
C391 H372 0.929 . S
C391 C388 1.388 . S
C391 N390 1.397 . S
C392 H373 0.929 . S
C392 C389 1.404 . S
C392 N390 1.334 . S
C393 H385 0.930 . S
C393 C388 1.418 . S
C393 C389 1.353 . S
C394 H364 0.930 . S
C394 N395 1.330 . S
C394 C396 1.446 . S
N395 Co354 2.151 . S
N395 C394 1.330 . S
N395 C399 1.418 . S
C396 H375 0.929 . S
C396 C394 1.446 . S
C396 C397 1.332 . S
C397 H377 0.931 . S
C397 C396 1.332 . S
C397 C398 1.267 . S
C398 H366 0.929 . S
C398 C397 1.267 . S
C398 C399 1.251 . S
C399 H369 0.929 . S
C399 N395 1.418 . S
C399 C398 1.251 . S
C400 H367 0.930 . S
C400 C402 1.406 . S
C400 C405 1.261 . S
C401 H368 0.930 . S
C401 N403 1.325 . S
C401 C404 1.357 . S
C402 H370 0.928 . S
C402 C400 1.406 . S
C402 N403 1.261 . S
N403 Co354 2.214 . S
N403 C401 1.325 . S
N403 C402 1.261 . S
C404 H374 0.931 . S
C404 C401 1.357 . S
C404 C405 1.312 . S
C405 H376 0.930 . S
C405 C400 1.261 . S
C405 C404 1.312 . S
C406 O378 1.214 . S
C406 O386 1.234 . S
C407 H379 0.929 . S
C407 C410 1.391 . S
C407 C412 1.391 . S
C408 H380 0.929 . S
C408 C409 1.390 . S
C408 N411 1.391 . S
C409 H381 0.930 . S
C409 C408 1.390 . S
C409 C410 1.392 . S
C410 H382 0.929 . S
C410 C407 1.391 . S
C410 C409 1.392 . S
N411 Co355 2.257 . S
N411 C408 1.391 . S
N411 C412 1.388 . S
C412 H383 0.930 . S
C412 C407 1.391 . S
C412 N411 1.388 . S
Co413 O415 2.143 . S
Co413 O421 2.074 . S
Co413 O424 2.093 . S
Co413 O437 2.097 . S
Co413 N454 2.151 . S
Co413 N462 2.214 . S
Co414 O415 2.160 . S
Co414 O420 2.058 . S
Co414 O430 2.057 . S
Co414 O445 2.037 . S
Co414 N449 2.145 . S
Co414 N470 2.257 . S
O415 Co413 2.143 . S
O415 Co414 2.160 . S
C416 O417 1.278 . S
C416 O424 1.224 . S
O417 C416 1.278 . S
C418 O419 1.245 . S
C418 O430 1.232 . S
O419 C418 1.245 . S
O420 Co414 2.058 . S
O420 C446 1.269 . S
O421 Co413 2.074 . S
O421 C446 1.257 . S
H422 C447 0.930 . S
H423 C453 0.930 . S
O424 Co413 2.093 . S
O424 C416 1.224 . S
H425 C457 0.929 . S
H426 C459 0.930 . S
H427 C460 0.930 . S
H428 C458 0.929 . S
H429 C461 0.928 . S
O430 Co414 2.057 . S
O430 C418 1.232 . S
H431 C450 0.929 . S
H432 C451 0.929 . S
H433 C463 0.931 . S
H434 C455 0.929 . S
H435 C464 0.930 . S
H436 C456 0.931 . S
O437 Co413 2.097 . S
O437 C465 1.214 . S
H438 C466 0.929 . S
H439 C467 0.929 . S
H440 C468 0.930 . S
H441 C469 0.929 . S
H442 C471 0.930 . S
H443 C448 0.930 . S
H444 C452 0.930 . S
O445 Co414 2.037 . S
O445 C465 1.234 . S
C446 O420 1.269 . S
C446 O421 1.257 . S
C447 H422 0.930 . S
C447 C450 1.388 . S
C447 C452 1.418 . S
C448 H443 0.930 . S
C448 C451 1.404 . S
C448 C452 1.353 . S
N449 Co414 2.145 . S
N449 C450 1.397 . S
N449 C451 1.334 . S
C450 H431 0.929 . S
C450 C447 1.388 . S
C450 N449 1.397 . S
C451 H432 0.929 . S
C451 C448 1.404 . S
C451 N449 1.334 . S
C452 H444 0.930 . S
C452 C447 1.418 . S
C452 C448 1.353 . S
C453 H423 0.930 . S
C453 N454 1.330 . S
C453 C455 1.446 . S
N454 Co413 2.151 . S
N454 C453 1.330 . S
N454 C458 1.418 . S
C455 H434 0.929 . S
C455 C453 1.446 . S
C455 C456 1.332 . S
C456 H436 0.931 . S
C456 C455 1.332 . S
C456 C457 1.267 . S
C457 H425 0.929 . S
C457 C456 1.267 . S
C457 C458 1.251 . S
C458 H428 0.929 . S
C458 N454 1.418 . S
C458 C457 1.251 . S
C459 H426 0.930 . S
C459 C461 1.406 . S
C459 C464 1.261 . S
C460 H427 0.930 . S
C460 N462 1.325 . S
C460 C463 1.357 . S
C461 H429 0.928 . S
C461 C459 1.406 . S
C461 N462 1.261 . S
N462 Co413 2.214 . S
N462 C460 1.325 . S
N462 C461 1.261 . S
C463 H433 0.931 . S
C463 C460 1.357 . S
C463 C464 1.312 . S
C464 H435 0.930 . S
C464 C459 1.261 . S
C464 C463 1.312 . S
C465 O437 1.214 . S
C465 O445 1.234 . S
C466 H438 0.929 . S
C466 C469 1.391 . S
C466 C471 1.391 . S
C467 H439 0.929 . S
C467 C468 1.390 . S
C467 N470 1.391 . S
C468 H440 0.930 . S
C468 C467 1.390 . S
C468 C469 1.392 . S
C469 H441 0.929 . S
C469 C466 1.391 . S
C469 C468 1.392 . S
N470 Co414 2.257 . S
N470 C467 1.391 . S
N470 C471 1.388 . S
C471 H442 0.930 . S
C471 C466 1.391 . S
C471 N470 1.388 . S
Co472 O474 2.143 . S
Co472 O480 2.074 . S
Co472 O483 2.093 . S
Co472 O496 2.097 . S
Co472 N513 2.151 . S
Co472 N521 2.214 . S
Co473 O474 2.160 . S
Co473 O479 2.058 . S
Co473 O489 2.057 . S
Co473 O504 2.037 . S
Co473 N508 2.145 . S
Co473 N529 2.257 . S
O474 Co472 2.143 . S
O474 Co473 2.160 . S
C475 O476 1.278 . S
C475 O483 1.224 . S
O476 C475 1.278 . S
C477 O478 1.245 . S
C477 O489 1.232 . S
O478 C477 1.245 . S
O479 Co473 2.058 . S
O479 C505 1.269 . S
O480 Co472 2.074 . S
O480 C505 1.257 . S
H481 C506 0.930 . S
H482 C512 0.930 . S
O483 Co472 2.093 . S
O483 C475 1.224 . S
H484 C516 0.929 . S
H485 C518 0.930 . S
H486 C519 0.930 . S
H487 C517 0.929 . S
H488 C520 0.928 . S
O489 Co473 2.057 . S
O489 C477 1.232 . S
H490 C509 0.929 . S
H491 C510 0.929 . S
H492 C522 0.931 . S
H493 C514 0.929 . S
H494 C523 0.930 . S
H495 C515 0.931 . S
O496 Co472 2.097 . S
O496 C524 1.214 . S
H497 C525 0.929 . S
H498 C526 0.929 . S
H499 C527 0.930 . S
H500 C528 0.929 . S
H501 C530 0.930 . S
H502 C507 0.930 . S
H503 C511 0.930 . S
O504 Co473 2.037 . S
O504 C524 1.234 . S
C505 O479 1.269 . S
C505 O480 1.257 . S
C506 H481 0.930 . S
C506 C509 1.388 . S
C506 C511 1.418 . S
C507 H502 0.930 . S
C507 C510 1.404 . S
C507 C511 1.353 . S
N508 Co473 2.145 . S
N508 C509 1.397 . S
N508 C510 1.334 . S
C509 H490 0.929 . S
C509 C506 1.388 . S
C509 N508 1.397 . S
C510 H491 0.929 . S
C510 C507 1.404 . S
C510 N508 1.334 . S
C511 H503 0.930 . S
C511 C506 1.418 . S
C511 C507 1.353 . S
C512 H482 0.930 . S
C512 N513 1.330 . S
C512 C514 1.446 . S
N513 Co472 2.151 . S
N513 C512 1.330 . S
N513 C517 1.418 . S
C514 H493 0.929 . S
C514 C512 1.446 . S
C514 C515 1.332 . S
C515 H495 0.931 . S
C515 C514 1.332 . S
C515 C516 1.267 . S
C516 H484 0.929 . S
C516 C515 1.267 . S
C516 C517 1.251 . S
C517 H487 0.929 . S
C517 N513 1.418 . S
C517 C516 1.251 . S
C518 H485 0.930 . S
C518 C520 1.406 . S
C518 C523 1.261 . S
C519 H486 0.930 . S
C519 N521 1.325 . S
C519 C522 1.357 . S
C520 H488 0.928 . S
C520 C518 1.406 . S
C520 N521 1.261 . S
N521 Co472 2.214 . S
N521 C519 1.325 . S
N521 C520 1.261 . S
C522 H492 0.931 . S
C522 C519 1.357 . S
C522 C523 1.312 . S
C523 H494 0.930 . S
C523 C518 1.261 . S
C523 C522 1.312 . S
C524 O496 1.214 . S
C524 O504 1.234 . S
C525 H497 0.929 . S
C525 C528 1.391 . S
C525 C530 1.391 . S
C526 H498 0.929 . S
C526 C527 1.390 . S
C526 N529 1.391 . S
C527 H499 0.930 . S
C527 C526 1.390 . S
C527 C528 1.392 . S
C528 H500 0.929 . S
C528 C525 1.391 . S
C528 C527 1.392 . S
N529 Co473 2.257 . S
N529 C526 1.391 . S
N529 C530 1.388 . S
C530 H501 0.930 . S
C530 C525 1.391 . S
C530 N529 1.388 . S
Co531 O533 2.143 . S
Co531 O539 2.074 . S
Co531 O542 2.093 . S
Co531 O555 2.097 . S
Co531 N572 2.151 . S
Co531 N580 2.214 . S
Co532 O533 2.160 . S
Co532 O538 2.058 . S
Co532 O548 2.057 . S
Co532 O563 2.037 . S
Co532 N567 2.145 . S
Co532 N588 2.257 . S
O533 Co531 2.143 . S
O533 Co532 2.160 . S
C534 O535 1.278 . S
C534 O542 1.224 1_554 S
O535 C534 1.278 . S
C536 O537 1.245 . S
C536 O548 1.232 . S
O537 C536 1.245 . S
O538 Co532 2.058 . S
O538 C564 1.269 . S
O539 Co531 2.074 . S
O539 C564 1.257 . S
H540 C565 0.930 . S
H541 C571 0.930 . S
O542 Co531 2.093 . S
O542 C534 1.224 1_556 S
H543 C575 0.929 . S
H544 C577 0.930 . S
H545 C578 0.930 . S
H546 C576 0.929 . S
H547 C579 0.928 . S
O548 Co532 2.057 . S
O548 C536 1.232 . S
H549 C568 0.929 . S
H550 C569 0.929 . S
H551 C581 0.931 . S
H552 C573 0.929 . S
H553 C582 0.930 . S
H554 C574 0.931 . S
O555 Co531 2.097 . S
O555 C583 1.214 . S
H556 C584 0.929 . S
H557 C585 0.929 1_556 S
H558 C586 0.930 . S
H559 C587 0.929 . S
H560 C589 0.930 . S
H561 C566 0.930 . S
H562 C570 0.930 . S
O563 Co532 2.037 . S
O563 C583 1.234 . S
C564 O538 1.269 . S
C564 O539 1.257 . S
C565 H540 0.930 . S
C565 C568 1.388 . S
C565 C570 1.418 . S
C566 H561 0.930 . S
C566 C569 1.404 . S
C566 C570 1.353 . S
N567 Co532 2.145 . S
N567 C568 1.397 . S
N567 C569 1.334 . S
C568 H549 0.929 . S
C568 C565 1.388 . S
C568 N567 1.397 . S
C569 H550 0.929 . S
C569 C566 1.404 . S
C569 N567 1.334 . S
C570 H562 0.930 . S
C570 C565 1.418 . S
C570 C566 1.353 . S
C571 H541 0.930 . S
C571 N572 1.330 . S
C571 C573 1.446 . S
N572 Co531 2.151 . S
N572 C571 1.330 . S
N572 C576 1.418 . S
C573 H552 0.929 . S
C573 C571 1.446 . S
C573 C574 1.332 . S
C574 H554 0.931 . S
C574 C573 1.332 . S
C574 C575 1.267 . S
C575 H543 0.929 . S
C575 C574 1.267 . S
C575 C576 1.251 . S
C576 H546 0.929 . S
C576 N572 1.418 . S
C576 C575 1.251 . S
C577 H544 0.930 . S
C577 C579 1.406 . S
C577 C582 1.261 . S
C578 H545 0.930 . S
C578 N580 1.325 . S
C578 C581 1.357 . S
C579 H547 0.928 . S
C579 C577 1.406 . S
C579 N580 1.261 . S
N580 Co531 2.214 . S
N580 C578 1.325 . S
N580 C579 1.261 . S
C581 H551 0.931 . S
C581 C578 1.357 . S
C581 C582 1.312 . S
C582 H553 0.930 . S
C582 C577 1.261 . S
C582 C581 1.312 . S
C583 O555 1.214 . S
C583 O563 1.234 . S
C584 H556 0.929 . S
C584 C587 1.391 . S
C584 C589 1.391 . S
C585 H557 0.929 1_554 S
C585 C586 1.390 . S
C585 N588 1.391 1_554 S
C586 H558 0.930 . S
C586 C585 1.390 . S
C586 C587 1.392 . S
C587 H559 0.929 . S
C587 C584 1.391 . S
C587 C586 1.392 . S
N588 Co532 2.257 . S
N588 C585 1.391 1_556 S
N588 C589 1.388 1_556 S
C589 H560 0.930 . S
C589 C584 1.391 . S
C589 N588 1.388 1_554 S
Co590 O592 2.143 . S
Co590 O598 2.074 . S
Co590 O601 2.093 . S
Co590 O614 2.097 . S
Co590 N631 2.151 . S
Co590 N639 2.214 . S
Co591 O592 2.160 . S
Co591 O597 2.058 . S
Co591 O607 2.057 . S
Co591 O622 2.037 . S
Co591 N626 2.145 . S
Co591 N647 2.257 . S
O592 Co590 2.143 . S
O592 Co591 2.160 . S
C593 O594 1.278 . S
C593 O601 1.224 . S
O594 C593 1.278 . S
C595 O596 1.245 . S
C595 O607 1.232 . S
O596 C595 1.245 . S
O597 Co591 2.058 . S
O597 C623 1.269 . S
O598 Co590 2.074 . S
O598 C623 1.257 . S
H599 C624 0.930 . S
H600 C630 0.930 . S
O601 Co590 2.093 . S
O601 C593 1.224 . S
H602 C634 0.929 . S
H603 C636 0.930 . S
H604 C637 0.930 . S
H605 C635 0.929 . S
H606 C638 0.928 . S
O607 Co591 2.057 . S
O607 C595 1.232 . S
H608 C627 0.922 1_556 S
H609 C628 0.929 . S
H610 C640 0.934 . S
H611 C632 0.929 . S
H612 C641 0.930 . S
H613 C633 0.931 . S
O614 Co590 2.097 . S
O614 C642 1.214 . S
H615 C643 0.929 . S
H616 C644 0.929 . S
H617 C645 0.930 1_556 S
H618 C646 0.929 . S
H619 C648 0.930 . S
H620 C625 0.930 . S
H621 C629 0.930 1_556 S
O622 Co591 2.037 . S
O622 C642 1.234 . S
C623 O597 1.269 . S
C623 O598 1.257 . S
C624 H599 0.930 . S
C624 C627 1.388 1_556 S
C624 C629 1.418 1_556 S
C625 H620 0.930 . S
C625 C628 1.404 . S
C625 C629 1.353 . S
N626 Co591 2.145 . S
N626 C627 1.397 . S
N626 C628 1.334 . S
C627 H608 0.922 1_554 S
C627 C624 1.388 1_554 S
C627 N626 1.397 . S
C628 H609 0.929 . S
C628 C625 1.404 . S
C628 N626 1.334 . S
C629 H621 0.930 1_554 S
C629 C624 1.418 1_554 S
C629 C625 1.353 . S
C630 H600 0.930 . S
C630 N631 1.330 . S
C630 C632 1.446 . S
N631 Co590 2.151 . S
N631 C630 1.330 . S
N631 C635 1.418 . S
C632 H611 0.929 . S
C632 C630 1.446 . S
C632 C633 1.332 . S
C633 H613 0.931 . S
C633 C632 1.332 . S
C633 C634 1.267 . S
C634 H602 0.929 . S
C634 C633 1.267 . S
C634 C635 1.251 . S
C635 H605 0.929 . S
C635 N631 1.418 . S
C635 C634 1.251 . S
C636 H603 0.930 . S
C636 C638 1.406 . S
C636 C641 1.261 . S
C637 H604 0.930 . S
C637 N639 1.325 . S
C637 C640 1.355 1_554 S
C638 H606 0.928 . S
C638 C636 1.406 . S
C638 N639 1.261 . S
N639 Co590 2.214 . S
N639 C637 1.325 . S
N639 C638 1.261 . S
C640 H610 0.934 . S
C640 C637 1.355 1_556 S
C640 C641 1.311 1_556 S
C641 H612 0.930 . S
C641 C636 1.261 . S
C641 C640 1.311 1_554 S
C642 O614 1.214 . S
C642 O622 1.234 . S
C643 H615 0.929 . S
C643 C646 1.391 . S
C643 C648 1.391 . S
C644 H616 0.929 . S
C644 C645 1.390 . S
C644 N647 1.391 . S
C645 H617 0.930 1_554 S
C645 C644 1.390 . S
C645 C646 1.392 . S
C646 H618 0.929 . S
C646 C643 1.391 . S
C646 C645 1.392 . S
N647 Co591 2.257 . S
N647 C644 1.391 . S
N647 C648 1.388 . S
C648 H619 0.930 . S
C648 C643 1.391 . S
C648 N647 1.388 . S
Co649 O651 2.143 . S
Co649 O657 2.074 . S
Co649 O660 2.093 . S
Co649 O673 2.097 . S
Co649 N690 2.151 . S
Co649 N698 2.214 . S
Co650 O651 2.160 . S
Co650 O656 2.058 . S
Co650 O666 2.057 . S
Co650 O681 2.037 . S
Co650 N685 2.145 . S
Co650 N706 2.257 . S
O651 Co649 2.143 . S
O651 Co650 2.160 . S
C652 O653 1.278 . S
C652 O660 1.224 . S
O653 C652 1.278 . S
C654 O655 1.245 . S
C654 O666 1.232 . S
O655 C654 1.245 . S
O656 Co650 2.058 . S
O656 C682 1.269 . S
O657 Co649 2.074 . S
O657 C682 1.257 . S
H658 C683 0.930 . S
H659 C689 0.930 . S
O660 Co649 2.093 . S
O660 C652 1.224 . S
H661 C693 0.929 . S
H662 C695 0.930 . S
H663 C696 0.930 . S
H664 C694 0.929 . S
H665 C697 0.928 . S
O666 Co650 2.057 . S
O666 C654 1.232 . S
H667 C686 0.929 . S
H668 C687 0.929 . S
H669 C699 0.931 . S
H670 C691 0.929 . S
H671 C700 0.930 . S
H672 C692 0.931 . S
O673 Co649 2.097 . S
O673 C701 1.214 . S
H674 C702 0.929 . S
H675 C703 0.929 . S
H676 C704 0.930 . S
H677 C705 0.929 . S
H678 C707 0.930 . S
H679 C684 0.930 . S
H680 C688 0.930 . S
O681 Co650 2.037 . S
O681 C701 1.234 . S
C682 O656 1.269 . S
C682 O657 1.257 . S
C683 H658 0.930 . S
C683 C686 1.388 . S
C683 C688 1.418 . S
C684 H679 0.930 . S
C684 C687 1.404 . S
C684 C688 1.353 . S
N685 Co650 2.145 . S
N685 C686 1.397 . S
N685 C687 1.334 . S
C686 H667 0.929 . S
C686 C683 1.388 . S
C686 N685 1.397 . S
C687 H668 0.929 . S
C687 C684 1.404 . S
C687 N685 1.334 . S
C688 H680 0.930 . S
C688 C683 1.418 . S
C688 C684 1.353 . S
C689 H659 0.930 . S
C689 N690 1.330 . S
C689 C691 1.446 . S
N690 Co649 2.151 . S
N690 C689 1.330 . S
N690 C694 1.418 . S
C691 H670 0.929 . S
C691 C689 1.446 . S
C691 C692 1.332 . S
C692 H672 0.931 . S
C692 C691 1.332 . S
C692 C693 1.267 . S
C693 H661 0.929 . S
C693 C692 1.267 . S
C693 C694 1.251 . S
C694 H664 0.929 . S
C694 N690 1.418 . S
C694 C693 1.251 . S
C695 H662 0.930 . S
C695 C697 1.406 . S
C695 C700 1.261 . S
C696 H663 0.930 . S
C696 N698 1.325 . S
C696 C699 1.357 . S
C697 H665 0.928 . S
C697 C695 1.406 . S
C697 N698 1.261 . S
N698 Co649 2.214 . S
N698 C696 1.325 . S
N698 C697 1.261 . S
C699 H669 0.931 . S
C699 C696 1.357 . S
C699 C700 1.312 . S
C700 H671 0.930 . S
C700 C695 1.261 . S
C700 C699 1.312 . S
C701 O673 1.214 . S
C701 O681 1.234 . S
C702 H674 0.929 . S
C702 C705 1.391 . S
C702 C707 1.391 . S
C703 H675 0.929 . S
C703 C704 1.390 . S
C703 N706 1.391 . S
C704 H676 0.930 . S
C704 C703 1.390 . S
C704 C705 1.392 . S
C705 H677 0.929 . S
C705 C702 1.391 . S
C705 C704 1.392 . S
N706 Co650 2.257 . S
N706 C703 1.391 . S
N706 C707 1.388 . S
C707 H678 0.930 . S
C707 C702 1.391 . S
C707 N706 1.388 . S
C708 C709 1.369 . S
C708 C710 1.419 . S
C708 H712 0.930 . S
C709 C708 1.369 . S
C709 C718 1.429 . S
C710 C708 1.419 . S
C710 C711 1.363 . S
C710 H713 0.929 . S
C711 C710 1.363 . S
C711 C717 1.428 . S
H712 C708 0.930 . S
H713 C710 0.929 . S
S714 N715 1.613 . S
S714 N716 1.610 . S
N715 S714 1.613 . S
N715 C718 1.350 . S
N716 S714 1.610 . S
N716 C717 1.351 . S
C717 C711 1.428 . S
C717 N716 1.351 . S
C717 C718 1.434 . S
C718 C709 1.429 . S
C718 N715 1.350 . S
C718 C717 1.434 . S
C719 C720 1.369 . S
C719 C721 1.419 . S
C719 H723 0.930 . S
C720 C719 1.369 . S
C720 C729 1.429 . S
C721 C719 1.419 . S
C721 C722 1.363 . S
C721 H724 0.929 . S
C722 C721 1.363 . S
C722 C728 1.428 . S
H723 C719 0.930 . S
H724 C721 0.929 . S
S725 N726 1.613 . S
S725 N727 1.610 . S
N726 S725 1.613 . S
N726 C729 1.350 . S
N727 S725 1.610 . S
N727 C728 1.351 . S
C728 C722 1.428 . S
C728 N727 1.351 . S
C728 C729 1.434 . S
C729 C720 1.429 . S
C729 N726 1.350 . S
C729 C728 1.434 . S
C730 C731 1.369 . S
C730 C732 1.419 . S
C730 H734 0.930 . S
C731 C730 1.369 . S
C731 C740 1.429 . S
C732 C730 1.419 . S
C732 C733 1.363 . S
C732 H735 0.929 . S
C733 C732 1.363 . S
C733 C739 1.428 . S
H734 C730 0.930 . S
H735 C732 0.929 . S
S736 N737 1.613 . S
S736 N738 1.610 . S
N737 S736 1.613 . S
N737 C740 1.350 . S
N738 S736 1.610 . S
N738 C739 1.351 . S
C739 C733 1.428 . S
C739 N738 1.351 . S
C739 C740 1.434 . S
C740 C731 1.429 . S
C740 N737 1.350 . S
C740 C739 1.434 . S
C741 C742 1.369 . S
C741 C743 1.419 . S
C741 H745 0.930 . S
C742 C741 1.369 . S
C742 C751 1.429 . S
C743 C741 1.419 . S
C743 C744 1.363 . S
C743 H746 0.929 . S
C744 C743 1.363 . S
C744 C750 1.428 . S
H745 C741 0.930 . S
H746 C743 0.929 . S
S747 N748 1.613 . S
S747 N749 1.610 . S
N748 S747 1.613 . S
N748 C751 1.350 . S
N749 S747 1.610 . S
N749 C750 1.351 . S
C750 C744 1.428 . S
C750 N749 1.351 . S
C750 C751 1.434 . S
C751 C742 1.429 . S
C751 N748 1.350 . S
C751 C750 1.434 . S
C752 C753 1.369 . S
C752 C754 1.419 . S
C752 H756 0.930 . S
C753 C752 1.369 . S
C753 C762 1.429 . S
C754 C752 1.419 . S
C754 C755 1.363 . S
C754 H757 0.929 . S
C755 C754 1.363 . S
C755 C761 1.428 . S
H756 C752 0.930 . S
H757 C754 0.929 . S
S758 N759 1.613 . S
S758 N760 1.610 . S
N759 S758 1.613 . S
N759 C762 1.350 . S
N760 S758 1.610 . S
N760 C761 1.351 . S
C761 C755 1.428 . S
C761 N760 1.351 . S
C761 C762 1.434 . S
C762 C753 1.429 . S
C762 N759 1.350 . S
C762 C761 1.434 . S
C763 C764 1.369 . S
C763 C765 1.419 . S
C763 H767 0.930 . S
C764 C763 1.369 . S
C764 C773 1.429 . S
C765 C763 1.419 . S
C765 C766 1.363 . S
C765 H768 0.929 . S
C766 C765 1.363 . S
C766 C772 1.428 . S
H767 C763 0.930 . S
H768 C765 0.929 . S
S769 N770 1.613 . S
S769 N771 1.610 . S
N770 S769 1.613 . S
N770 C773 1.350 . S
N771 S769 1.610 . S
N771 C772 1.351 . S
C772 C766 1.428 . S
C772 N771 1.351 . S
C772 C773 1.434 . S
C773 C764 1.429 . S
C773 N770 1.350 . S
C773 C772 1.434 . S
C774 C775 1.369 . S
C774 C776 1.419 . S
C774 H778 0.930 . S
C775 C774 1.369 . S
C775 C784 1.429 . S
C776 C774 1.419 . S
C776 C777 1.363 . S
C776 H779 0.929 . S
C777 C776 1.363 . S
C777 C783 1.428 . S
H778 C774 0.930 . S
H779 C776 0.929 . S
S780 N781 1.613 . S
S780 N782 1.610 . S
N781 S780 1.613 . S
N781 C784 1.350 . S
N782 S780 1.610 . S
N782 C783 1.351 . S
C783 C777 1.428 . S
C783 N782 1.351 . S
C783 C784 1.434 . S
C784 C775 1.429 . S
C784 N781 1.350 . S
C784 C783 1.434 . S
C785 C786 1.369 . S
C785 C787 1.419 . S
C785 H789 0.930 . S
C786 C785 1.369 . S
C786 C795 1.429 . S
C787 C785 1.419 . S
C787 C788 1.363 . S
C787 H790 0.929 . S
C788 C787 1.363 . S
C788 C794 1.428 . S
H789 C785 0.930 . S
H790 C787 0.929 . S
S791 N792 1.613 . S
S791 N793 1.610 . S
N792 S791 1.613 . S
N792 C795 1.350 . S
N793 S791 1.610 . S
N793 C794 1.351 . S
C794 C788 1.428 . S
C794 N793 1.351 . S
C794 C795 1.434 . S
C795 C786 1.429 . S
C795 N792 1.350 . S
C795 C794 1.434 . S
C796 C797 1.369 . S
C796 C798 1.419 . S
C796 H800 0.930 . S
C797 C796 1.369 . S
C797 C806 1.429 . S
C798 C796 1.419 . S
C798 C799 1.363 . S
C798 H801 0.929 . S
C799 C798 1.363 . S
C799 C805 1.428 . S
H800 C796 0.930 . S
H801 C798 0.929 . S
S802 N803 1.613 . S
S802 N804 1.610 . S
N803 S802 1.613 . S
N803 C806 1.350 . S
N804 S802 1.610 . S
N804 C805 1.351 . S
C805 C799 1.428 . S
C805 N804 1.351 . S
C805 C806 1.434 . S
C806 C797 1.429 . S
C806 N803 1.350 . S
C806 C805 1.434 . S
C807 C808 1.369 . S
C807 C809 1.419 . S
C807 H811 0.930 . S
C808 C807 1.369 . S
C808 C817 1.429 . S
C809 C807 1.419 . S
C809 C810 1.363 . S
C809 H812 0.929 . S
C810 C809 1.363 . S
C810 C816 1.428 . S
H811 C807 0.930 . S
H812 C809 0.929 . S
S813 N814 1.613 . S
S813 N815 1.610 . S
N814 S813 1.613 . S
N814 C817 1.350 . S
N815 S813 1.610 . S
N815 C816 1.351 . S
C816 C810 1.428 . S
C816 N815 1.351 . S
C816 C817 1.434 . S
C817 C808 1.429 . S
C817 N814 1.350 . S
C817 C816 1.434 . S
C818 C819 1.369 . S
C818 C820 1.419 . S
C818 H822 0.930 . S
C819 C818 1.369 . S
C819 C828 1.429 . S
C820 C818 1.419 . S
C820 C821 1.363 . S
C820 H823 0.929 . S
C821 C820 1.363 . S
C821 C827 1.428 . S
H822 C818 0.930 . S
H823 C820 0.929 . S
S824 N825 1.613 . S
S824 N826 1.610 . S
N825 S824 1.613 . S
N825 C828 1.350 . S
N826 S824 1.610 . S
N826 C827 1.351 . S
C827 C821 1.428 . S
C827 N826 1.351 . S
C827 C828 1.434 . S
C828 C819 1.429 . S
C828 N825 1.350 . S
C828 C827 1.434 . S
C829 C830 1.369 . S
C829 C831 1.419 . S
C829 H833 0.930 . S
C830 C829 1.369 . S
C830 C839 1.429 . S
C831 C829 1.419 . S
C831 C832 1.363 . S
C831 H834 0.929 . S
C832 C831 1.363 . S
C832 C838 1.428 . S
H833 C829 0.930 . S
H834 C831 0.929 . S
S835 N836 1.613 . S
S835 N837 1.610 . S
N836 S835 1.613 . S
N836 C839 1.350 . S
N837 S835 1.610 . S
N837 C838 1.351 . S
C838 C832 1.428 . S
C838 N837 1.351 . S
C838 C839 1.434 . S
C839 C830 1.429 . S
C839 N836 1.350 . S
C839 C838 1.434 . S
C840 C841 1.369 . S
C840 C842 1.419 1_655 S
C840 H844 0.930 . S
C841 C840 1.369 . S
C841 C850 1.429 . S
C842 C840 1.419 1_455 S
C842 C843 1.363 . S
C842 H845 0.929 . S
C843 C842 1.363 . S
C843 C849 1.428 . S
H844 C840 0.930 . S
H845 C842 0.929 . S
S846 N847 1.613 1_455 S
S846 N848 1.610 . S
N847 S846 1.613 1_655 S
N847 C850 1.350 . S
N848 S846 1.610 . S
N848 C849 1.351 . S
C849 C843 1.428 . S
C849 N848 1.351 . S
C849 C850 1.434 1_455 S
C850 C841 1.429 . S
C850 N847 1.350 . S
C850 C849 1.434 1_655 S
C851 C852 1.369 . S
C851 C853 1.419 1_565 S
C851 H855 0.930 . S
C852 C851 1.369 . S
C852 C861 1.429 . S
C853 C851 1.419 1_545 S
C853 C854 1.363 . S
C853 H856 0.929 . S
C854 C853 1.363 . S
C854 C860 1.428 . S
H855 C851 0.930 . S
H856 C853 0.929 . S
S857 N858 1.613 . S
S857 N859 1.610 1_565 S
N858 S857 1.613 . S
N858 C861 1.350 . S
N859 S857 1.610 1_545 S
N859 C860 1.351 . S
C860 C854 1.428 . S
C860 N859 1.351 . S
C860 C861 1.434 1_545 S
C861 C852 1.429 . S
C861 N858 1.350 . S
C861 C860 1.434 1_565 S
C862 C863 1.369 . S
C862 C864 1.419 . S
C862 H866 0.930 . S
C863 C862 1.369 . S
C863 C872 1.429 . S
C864 C862 1.419 . S
C864 C865 1.363 . S
C864 H867 0.929 . S
C865 C864 1.363 . S
C865 C871 1.428 . S
H866 C862 0.930 . S
H867 C864 0.929 . S
S868 N869 1.613 . S
S868 N870 1.610 . S
N869 S868 1.613 . S
N869 C872 1.350 . S
N870 S868 1.610 . S
N870 C871 1.351 . S
C871 C865 1.428 . S
C871 N870 1.351 . S
C871 C872 1.434 . S
C872 C863 1.429 . S
C872 N869 1.350 . S
C872 C871 1.434 . S
C873 C874 1.369 . S
C873 C875 1.419 1_455 S
C873 H877 0.930 . S
C874 C873 1.369 . S
C874 C883 1.429 . S
C875 C873 1.419 1_655 S
C875 C876 1.363 . S
C875 H878 0.929 . S
C876 C875 1.363 . S
C876 C882 1.428 . S
H877 C873 0.930 . S
H878 C875 0.929 . S
S879 N880 1.613 . S
S879 N881 1.610 1_455 S
N880 S879 1.613 . S
N880 C883 1.350 . S
N881 S879 1.610 1_655 S
N881 C882 1.351 . S
C882 C876 1.428 . S
C882 N881 1.351 . S
C882 C883 1.434 1_655 S
C883 C874 1.429 . S
C883 N880 1.350 . S
C883 C882 1.434 1_455 S
C884 C885 1.369 . S
C884 C886 1.419 1_545 S
C884 H888 0.930 . S
C885 C884 1.369 . S
C885 C894 1.429 1_556 S
C886 C884 1.419 1_565 S
C886 C887 1.363 1_556 S
C886 H889 0.929 . S
C887 C886 1.363 1_554 S
C887 C893 1.428 . S
H888 C884 0.930 . S
H889 C886 0.929 . S
S890 N891 1.613 . S
S890 N892 1.610 1_545 S
N891 S890 1.613 . S
N891 C894 1.350 . S
N892 S890 1.610 1_565 S
N892 C893 1.351 . S
C893 C887 1.428 . S
C893 N892 1.351 . S
C893 C894 1.434 1_565 S
C894 C885 1.429 1_554 S
C894 N891 1.350 . S
C894 C893 1.434 1_545 S
C895 C896 1.369 . S
C895 C897 1.419 . S
C895 H899 0.930 . S
C896 C895 1.369 . S
C896 C905 1.429 . S
C897 C895 1.419 . S
C897 C898 1.363 . S
C897 H900 0.929 . S
C898 C897 1.363 . S
C898 C904 1.428 . S
H899 C895 0.930 . S
H900 C897 0.929 . S
S901 N902 1.613 . S
S901 N903 1.610 . S
N902 S901 1.613 . S
N902 C905 1.350 . S
N903 S901 1.610 . S
N903 C904 1.351 . S
C904 C898 1.428 . S
C904 N903 1.351 . S
C904 C905 1.434 . S
C905 C896 1.429 . S
C905 N902 1.350 . S
C905 C904 1.434 . S
C906 C907 1.369 . S
C906 C908 1.419 . S
C906 H910 0.930 . S
C907 C906 1.369 . S
C907 C916 1.429 . S
C908 C906 1.419 . S
C908 C909 1.363 . S
C908 H911 0.929 . S
C909 C908 1.363 . S
C909 C915 1.428 . S
H910 C906 0.930 . S
H911 C908 0.929 . S
S912 N913 1.613 . S
S912 N914 1.610 . S
N913 S912 1.613 . S
N913 C916 1.350 . S
N914 S912 1.610 . S
N914 C915 1.351 . S
C915 C909 1.428 . S
C915 N914 1.351 . S
C915 C916 1.434 . S
C916 C907 1.429 . S
C916 N913 1.350 . S
C916 C915 1.434 . S
C917 C918 1.369 . S
C917 C919 1.419 . S
C917 H921 0.930 . S
C918 C917 1.369 . S
C918 C927 1.429 . S
C919 C917 1.419 . S
C919 C920 1.363 . S
C919 H922 0.929 . S
C920 C919 1.363 . S
C920 C926 1.428 . S
H921 C917 0.930 . S
H922 C919 0.929 . S
S923 N924 1.613 . S
S923 N925 1.610 . S
N924 S923 1.613 . S
N924 C927 1.350 . S
N925 S923 1.610 . S
N925 C926 1.351 . S
C926 C920 1.428 . S
C926 N925 1.351 . S
C926 C927 1.434 . S
C927 C918 1.429 . S
C927 N924 1.350 . S
C927 C926 1.434 . S
C928 C929 1.369 . S
C928 C930 1.419 . S
C928 H932 0.930 . S
C929 C928 1.369 . S
C929 C938 1.429 . S
C930 C928 1.419 . S
C930 C931 1.363 . S
C930 H933 0.929 . S
C931 C930 1.363 . S
C931 C937 1.428 . S
H932 C928 0.930 . S
H933 C930 0.929 . S
S934 N935 1.613 . S
S934 N936 1.610 . S
N935 S934 1.613 . S
N935 C938 1.350 . S
N936 S934 1.610 . S
N936 C937 1.351 . S
C937 C931 1.428 . S
C937 N936 1.351 . S
C937 C938 1.434 . S
C938 C929 1.429 . S
C938 N935 1.350 . S
C938 C937 1.434 . S
C939 C940 1.369 . S
C939 C941 1.419 . S
C939 H943 0.930 . S
C940 C939 1.369 . S
C940 C949 1.429 . S
C941 C939 1.419 . S
C941 C942 1.363 . S
C941 H944 0.929 . S
C942 C941 1.363 . S
C942 C948 1.428 . S
H943 C939 0.930 . S
H944 C941 0.929 . S
S945 N946 1.613 . S
S945 N947 1.610 . S
N946 S945 1.613 . S
N946 C949 1.350 . S
N947 S945 1.610 . S
N947 C948 1.351 . S
C948 C942 1.428 . S
C948 N947 1.351 . S
C948 C949 1.434 . S
C949 C940 1.429 . S
C949 N946 1.350 . S
C949 C948 1.434 . S
C950 C951 1.369 . S
C950 C952 1.419 . S
C950 H954 0.930 . S
C951 C950 1.369 . S
C951 C960 1.429 . S
C952 C950 1.419 . S
C952 C953 1.363 . S
C952 H955 0.929 . S
C953 C952 1.363 . S
C953 C959 1.428 . S
H954 C950 0.930 . S
H955 C952 0.929 . S
S956 N957 1.613 . S
S956 N958 1.610 . S
N957 S956 1.613 . S
N957 C960 1.350 . S
N958 S956 1.610 . S
N958 C959 1.351 . S
C959 C953 1.428 . S
C959 N958 1.351 . S
C959 C960 1.434 . S
C960 C951 1.429 . S
C960 N957 1.350 . S
C960 C959 1.434 . S
C961 C962 1.369 . S
C961 C963 1.419 . S
C961 H965 0.930 . S
C962 C961 1.369 . S
C962 C971 1.429 . S
C963 C961 1.419 . S
C963 C964 1.363 . S
C963 H966 0.929 . S
C964 C963 1.363 . S
C964 C970 1.428 . S
H965 C961 0.930 . S
H966 C963 0.929 . S
S967 N968 1.613 . S
S967 N969 1.610 . S
N968 S967 1.613 . S
N968 C971 1.350 . S
N969 S967 1.610 . S
N969 C970 1.351 . S
C970 C964 1.428 . S
C970 N969 1.351 . S
C970 C971 1.434 . S
C971 C962 1.429 . S
C971 N968 1.350 . S
C971 C970 1.434 . S
C709 C33 1.172 . S
C711 C406 1.167 . S
C720 C111 1.162 . S
C722 C446 1.170 . S
C731 C524 1.162 . S
C733 C170 1.166 . S
C742 C210 1.170 . S
C744 C583 1.163 . S
C753 C288 1.166 . S
C755 C623 1.172 . S
C764 C701 1.168 . S
C766 C347 1.164 . S
C775 C505 1.713 . S
C777 C52 1.734 . S
C786 C92 1.717 . S
C788 C564 1.711 . S
C797 C642 1.734 1_556 S
C799 C151 1.713 . S
C808 C682 1.717 . S
C810 C229 1.732 1_554 S
C819 C269 1.709 . S
C821 C387 1.716 . S
C830 C328 1.718 . S
C832 C465 1.732 . S
C841 C654 1.478 . S
C843 C3 1.480 . S
C852 C359 1.476 . S
C854 C64 1.477 . S
C863 C123 1.477 . S
C865 C416 1.480 . S
C874 C477 1.477 . S
C876 C180 1.480 . S
C885 C536 1.475 . S
C887 C241 1.477 . S
C896 C593 1.480 . S
C898 C300 1.478 . S
C907 C5 1.341 . S
C909 C595 1.342 . S
C918 C652 1.323 . S
C920 C62 1.325 . S
C929 C121 1.322 . S
C931 C357 1.323 . S
C940 C182 1.345 . S
C942 C418 1.344 . S
C951 C239 1.328 . S
C953 C475 1.327 . S
C962 C298 1.330 . S
C964 C534 1.329 . S
