# Generated by pormake.
# Topology pcl, (4)-cn, num edge types: 1
# Building blocks:
#     Node 0, Type 0, BuildingBlock: ICAMEG_clean_sbu_1, # of connection points: 4
#     Node 1, Type 0, BuildingBlock: ICAMEG_clean_sbu_1, # of connection points: 4
#     Node 2, Type 0, BuildingBlock: ICAMEG_clean_sbu_1, # of connection points: 4
#     Node 3, Type 0, BuildingBlock: ICAMEG_clean_sbu_1, # of connection points: 4
#     Node 4, Type 0, BuildingBlock: ICAMEG_clean_sbu_1, # of connection points: 4
#     Node 5, Type 0, BuildingBlock: ICAMEG_clean_sbu_1, # of connection points: 4
#     Node 6, Type 0, BuildingBlock: ICAMEG_clean_sbu_1, # of connection points: 4
#     Node 7, Type 0, BuildingBlock: ICAMEG_clean_sbu_1, # of connection points: 4
#     Node 8, Type 0, BuildingBlock: ICAMEG_clean_sbu_1, # of connection points: 4
#     Node 9, Type 0, BuildingBlock: ICAMEG_clean_sbu_1, # of connection points: 4
#     Node 10, Type 0, BuildingBlock: ICAMEG_clean_sbu_1, # of connection points: 4
#     Node 11, Type 0, BuildingBlock: ICAMEG_clean_sbu_1, # of connection points: 4
#     Node 12, Type 0, BuildingBlock: ICAMEG_clean_sbu_1, # of connection points: 4
#     Node 13, Type 0, BuildingBlock: ICAMEG_clean_sbu_1, # of connection points: 4
#     Node 14, Type 0, BuildingBlock: ICAMEG_clean_sbu_1, # of connection points: 4
#     Node 15, Type 0, BuildingBlock: ICAMEG_clean_sbu_1, # of connection points: 4
#     Edge 16, Type (0, 0), BuildingBlock: EZIPEK_clean_linker_0, # of connection points: 2
#     Edge 17, Type (0, 0), BuildingBlock: EZIPEK_clean_linker_0, # of connection points: 2
#     Edge 18, Type (0, 0), BuildingBlock: EZIPEK_clean_linker_0, # of connection points: 2
#     Edge 19, Type (0, 0), BuildingBlock: EZIPEK_clean_linker_0, # of connection points: 2
#     Edge 20, Type (0, 0), BuildingBlock: EZIPEK_clean_linker_0, # of connection points: 2
#     Edge 21, Type (0, 0), BuildingBlock: EZIPEK_clean_linker_0, # of connection points: 2
#     Edge 22, Type (0, 0), BuildingBlock: EZIPEK_clean_linker_0, # of connection points: 2
#     Edge 23, Type (0, 0), BuildingBlock: EZIPEK_clean_linker_0, # of connection points: 2
#     Edge 24, Type (0, 0), BuildingBlock: EZIPEK_clean_linker_0, # of connection points: 2
#     Edge 25, Type (0, 0), BuildingBlock: EZIPEK_clean_linker_0, # of connection points: 2
#     Edge 26, Type (0, 0), BuildingBlock: EZIPEK_clean_linker_0, # of connection points: 2
#     Edge 27, Type (0, 0), BuildingBlock: EZIPEK_clean_linker_0, # of connection points: 2
#     Edge 28, Type (0, 0), BuildingBlock: EZIPEK_clean_linker_0, # of connection points: 2
#     Edge 29, Type (0, 0), BuildingBlock: EZIPEK_clean_linker_0, # of connection points: 2
#     Edge 30, Type (0, 0), BuildingBlock: EZIPEK_clean_linker_0, # of connection points: 2
#     Edge 31, Type (0, 0), BuildingBlock: EZIPEK_clean_linker_0, # of connection points: 2
#     Edge 32, Type (0, 0), BuildingBlock: EZIPEK_clean_linker_0, # of connection points: 2
#     Edge 33, Type (0, 0), BuildingBlock: EZIPEK_clean_linker_0, # of connection points: 2
#     Edge 34, Type (0, 0), BuildingBlock: EZIPEK_clean_linker_0, # of connection points: 2
#     Edge 35, Type (0, 0), BuildingBlock: EZIPEK_clean_linker_0, # of connection points: 2
#     Edge 36, Type (0, 0), BuildingBlock: EZIPEK_clean_linker_0, # of connection points: 2
#     Edge 37, Type (0, 0), BuildingBlock: EZIPEK_clean_linker_0, # of connection points: 2
#     Edge 38, Type (0, 0), BuildingBlock: EZIPEK_clean_linker_0, # of connection points: 2
#     Edge 39, Type (0, 0), BuildingBlock: EZIPEK_clean_linker_0, # of connection points: 2
#     Edge 40, Type (0, 0), BuildingBlock: EZIPEK_clean_linker_0, # of connection points: 2
#     Edge 41, Type (0, 0), BuildingBlock: EZIPEK_clean_linker_0, # of connection points: 2
#     Edge 42, Type (0, 0), BuildingBlock: EZIPEK_clean_linker_0, # of connection points: 2
#     Edge 43, Type (0, 0), BuildingBlock: EZIPEK_clean_linker_0, # of connection points: 2
#     Edge 44, Type (0, 0), BuildingBlock: EZIPEK_clean_linker_0, # of connection points: 2
#     Edge 45, Type (0, 0), BuildingBlock: EZIPEK_clean_linker_0, # of connection points: 2
#     Edge 46, Type (0, 0), BuildingBlock: EZIPEK_clean_linker_0, # of connection points: 2
#     Edge 47, Type (0, 0), BuildingBlock: EZIPEK_clean_linker_0, # of connection points: 2
# Relax obj value: 0.093
# Max RMSD: 0.121
# Mean RMSD: 0.116
data_MOF--net-pcl--node1-ICAMEG_clean_sbu_1--edge1-EZIPEK_clean_linker_0
_symmetry_space_group_name_H-M    P1
_symmetry_Int_Tables_number       1
_symmetry_cell_setting            triclinic
loop_
_symmetry_equiv_pos_as_xyz
'x, y, z'
_cell_length_a     41.298204
_cell_length_b     32.549465
_cell_length_c     34.95876
_cell_angle_alpha  89.987585
_cell_angle_beta   89.997114
_cell_angle_gamma 89.983084
loop_
_atom_site_label
_atom_site_type_symbol
_atom_site_fract_x
_atom_site_fract_y
_atom_site_fract_z
_atom_type_partial_charge
Co0 Co 0.12808 0.38534 0.12627 0.0
Co1 Co 0.11973 0.2864 0.09066 0.0
O2 O 0.13939 0.34159 0.08979 0.0
C3 C 0.13385 0.42734 0.04901 0.0
O4 O 0.14072 0.39246 0.03218 0.0
C5 C 0.19131 0.26986 0.08164 0.0
O6 O 0.19764 0.29875 0.10667 0.0
O7 O 0.13204 0.27973 0.14645 0.0
O8 O 0.12623 0.34433 0.16878 0.0
H9 H 0.04782 0.17353 0.1405 0.0
H10 H 0.18834 0.3903 0.07923 0.0
O11 O 0.12923 0.42898 0.08507 0.0
H12 H 0.22431 0.40352 0.21299 0.0
H13 H 0.13332 0.52698 0.18414 0.0
H14 H 0.08056 0.3912 0.18948 0.0
H15 H 0.16647 0.3952 0.19779 0.0
H16 H 0.15002 0.47159 0.14022 0.0
O17 O 0.16207 0.26102 0.07355 0.0
H18 H 0.07161 0.24284 0.1392 0.0
H19 H 0.12646 0.2123 0.04081 0.0
H20 H 0.06346 0.44555 0.23433 0.0
H21 H 0.24635 0.39868 0.09308 0.0
H22 H 0.08951 0.51423 0.23129 0.0
H23 H 0.26476 0.40541 0.16043 0.0
O24 O 0.08134 0.37778 0.11518 0.0
H25 H 0.14018 0.32172 0.95265 0.0
H26 H 0.05855 0.27546 0.0461 0.0
H27 H 0.04263 0.286 0.97893 0.0
H28 H 0.08358 0.30928 0.93162 0.0
H29 H 0.15497 0.31154 0.02026 0.0
H30 H 0.10355 0.14253 0.04097 0.0
H31 H 0.06388 0.12264 0.09107 0.0
O32 O 0.07622 0.30993 0.10558 0.0
C33 C 0.13084 0.30599 0.17387 0.0
C34 C 0.06529 0.18167 0.1187 0.0
C35 C 0.09656 0.16429 0.06288 0.0
N36 N 0.10097 0.23158 0.09073 0.0
C37 C 0.07895 0.22091 0.11806 0.0
C38 C 0.10965 0.20385 0.06314 0.0
C39 C 0.07428 0.15316 0.09095 0.0
C40 C 0.19596 0.39373 0.1085 0.0
N41 N 0.1738 0.39311 0.13748 0.0
C42 C 0.22895 0.39827 0.11623 0.0
C43 C 0.23927 0.40197 0.15401 0.0
C44 C 0.21659 0.40097 0.1835 0.0
C45 C 0.18383 0.39631 0.17466 0.0
C46 C 0.12167 0.49724 0.18556 0.0
C47 C 0.09238 0.42081 0.18843 0.0
C48 C 0.13097 0.46579 0.16071 0.0
N49 N 0.11632 0.42817 0.16232 0.0
C50 C 0.08249 0.45151 0.21378 0.0
C51 C 0.09714 0.49003 0.2121 0.0
C52 C 0.06413 0.34586 0.10973 0.0
C53 C 0.1221 0.3116 0.973 0.0
C54 C 0.0765 0.28598 0.02585 0.0
C55 C 0.06735 0.29168 0.98776 0.0
C56 C 0.09034 0.30467 0.96123 0.0
N57 N 0.10765 0.29322 0.0373 0.0
C58 C 0.13037 0.30559 0.01133 0.0
Co59 Co 0.88732 0.62712 0.6243 0.0
Co60 Co 0.89366 0.72635 0.58979 0.0
O61 O 0.87438 0.6708 0.58832 0.0
C62 C 0.89201 0.58428 0.54921 0.0
O63 O 0.90692 0.61644 0.53529 0.0
C64 C 0.82322 0.73918 0.56368 0.0
O65 O 0.81657 0.70002 0.56749 0.0
O66 O 0.88037 0.73143 0.64489 0.0
O67 O 0.89222 0.66813 0.66695 0.0
H68 H 0.96295 0.83808 0.64627 0.0
H69 H 0.82585 0.61845 0.5815 0.0
O70 O 0.88197 0.58413 0.58356 0.0
H71 H 0.79555 0.60965 0.71773 0.0
H72 H 0.88518 0.48435 0.68004 0.0
H73 H 0.9382 0.61986 0.68364 0.0
H74 H 0.85255 0.61898 0.69879 0.0
H75 H 0.86546 0.54098 0.63939 0.0
O76 O 0.85112 0.7531 0.57298 0.0
H77 H 0.93969 0.76864 0.6417 0.0
H78 H 0.88777 0.8026 0.54199 0.0
H79 H 0.9585 0.56428 0.72507 0.0
H80 H 0.7684 0.6094 0.59915 0.0
H81 H 0.93248 0.49561 0.72264 0.0
H82 H 0.75296 0.60498 0.66772 0.0
O83 O 0.93338 0.6344 0.60911 0.0
H84 H 0.88116 0.67965 0.45308 0.0
H85 H 0.95289 0.74882 0.54546 0.0
H86 H 0.97054 0.74099 0.47864 0.0
H87 H 0.93461 0.70614 0.43184 0.0
H88 H 0.86419 0.68876 0.51989 0.0
H89 H 0.91016 0.8725 0.54549 0.0
H90 H 0.94816 0.89072 0.59787 0.0
O91 O 0.93743 0.70309 0.60508 0.0
C92 C 0.88438 0.70567 0.6722 0.0
C93 C 0.94632 0.83061 0.62339 0.0
C94 C 0.91667 0.84992 0.56689 0.0
N95 N 0.91205 0.78141 0.59202 0.0
C96 C 0.93301 0.79126 0.62078 0.0
C97 C 0.90385 0.81026 0.56523 0.0
C98 C 0.93802 0.86011 0.59623 0.0
C99 C 0.81924 0.61673 0.61137 0.0
N100 N 0.84244 0.61969 0.63905 0.0
C101 C 0.78671 0.61153 0.62121 0.0
C102 C 0.77806 0.60903 0.65968 0.0
C103 C 0.80193 0.61164 0.68775 0.0
C104 C 0.83418 0.61704 0.67684 0.0
C105 C 0.89691 0.51406 0.68108 0.0
C106 C 0.92635 0.59037 0.68298 0.0
C107 C 0.88587 0.54626 0.6581 0.0
N108 N 0.90074 0.58378 0.65905 0.0
C109 C 0.93803 0.55892 0.70639 0.0
C110 C 0.92336 0.52043 0.70509 0.0
C111 C 0.95005 0.66719 0.60646 0.0
C112 C 0.89689 0.69533 0.47307 0.0
C113 C 0.93668 0.73451 0.52519 0.0
C114 C 0.94699 0.72983 0.48739 0.0
C115 C 0.92688 0.71016 0.46118 0.0
N116 N 0.90693 0.72059 0.53657 0.0
C117 C 0.88736 0.70068 0.51108 0.0
Co118 Co 0.13083 0.6226 0.88754 0.0
Co119 Co 0.12515 0.72118 0.92354 0.0
O120 O 0.14379 0.66531 0.92431 0.0
C121 C 0.12422 0.57849 0.96165 0.0
O122 O 0.10911 0.61052 0.97548 0.0
C123 C 0.1973 0.73538 0.93584 0.0
O124 O 0.20398 0.70335 0.91449 0.0
O125 O 0.13874 0.72713 0.86852 0.0
O126 O 0.1268 0.66432 0.8454 0.0
H127 H 0.05804 0.83636 0.86921 0.0
H128 H 0.19172 0.6126 0.93126 0.0
O129 O 0.13535 0.57894 0.92777 0.0
H130 H 0.22356 0.60509 0.79544 0.0
H131 H 0.13225 0.48079 0.82977 0.0
H132 H 0.08042 0.61714 0.82749 0.0
H133 H 0.16642 0.61511 0.81353 0.0
H134 H 0.15209 0.53643 0.87146 0.0
O135 O 0.16788 0.74571 0.9416 0.0
H136 H 0.07978 0.76601 0.87249 0.0
H137 H 0.13267 0.79602 0.97265 0.0
H138 H 0.06 0.56255 0.78503 0.0
H139 H 0.24923 0.60241 0.91445 0.0
H140 H 0.0854 0.49346 0.7868 0.0
H141 H 0.26546 0.59872 0.84611 0.0
O142 O 0.08466 0.63053 0.90217 0.0
H143 H 0.13747 0.67238 0.05931 0.0
H144 H 0.06624 0.74466 0.96836 0.0
H145 H 0.04906 0.73683 0.03541 0.0
H146 H 0.08479 0.70049 0.08149 0.0
H147 H 0.15376 0.68114 0.99203 0.0
H148 H 0.1118 0.86681 0.97037 0.0
H149 H 0.07411 0.88744 0.91845 0.0
O150 O 0.08109 0.69922 0.9076 0.0
C151 C 0.13477 0.70189 0.84076 0.0
C152 C 0.07456 0.82781 0.8919 0.0
C153 C 0.10475 0.84491 0.94862 0.0
N154 N 0.10779 0.77679 0.92229 0.0
C155 C 0.08699 0.78796 0.89379 0.0
C156 C 0.1167 0.80477 0.94955 0.0
C157 C 0.08357 0.85645 0.91952 0.0
C158 C 0.19863 0.61085 0.90147 0.0
N159 N 0.1758 0.61462 0.87344 0.0
C160 C 0.23121 0.60515 0.89212 0.0
C161 C 0.2403 0.6031 0.85377 0.0
C162 C 0.21682 0.60666 0.82533 0.0
C163 C 0.1845 0.61246 0.83576 0.0
C164 C 0.12079 0.51069 0.829 0.0
C165 C 0.09201 0.58745 0.82786 0.0
C166 C 0.13191 0.54233 0.85255 0.0
N167 N 0.11735 0.58007 0.85199 0.0
C168 C 0.08026 0.55658 0.80386 0.0
C169 C 0.09459 0.51785 0.80479 0.0
C170 C 0.06823 0.66346 0.90554 0.0
C171 C 0.12189 0.68882 0.03967 0.0
C172 C 0.08232 0.72964 0.98835 0.0
C173 C 0.0723 0.72499 0.02627 0.0
C174 C 0.09231 0.70451 0.05207 0.0
N175 N 0.11167 0.71483 0.97652 0.0
C176 C 0.13113 0.69418 1.00156 0.0
Co177 Co 0.89011 0.38777 0.38692 0.0
Co178 Co 0.89254 0.28883 0.424 0.0
O179 O 0.87499 0.34549 0.42343 0.0
C180 C 0.88085 0.43299 0.46226 0.0
O181 O 0.86993 0.39977 0.47898 0.0
C182 C 0.8196 0.27733 0.43751 0.0
O183 O 0.81351 0.3132 0.42203 0.0
O184 O 0.88099 0.28256 0.36813 0.0
O185 O 0.89288 0.34561 0.34548 0.0
H186 H 0.95927 0.17123 0.37401 0.0
H187 H 0.82708 0.39837 0.4283 0.0
O188 O 0.88847 0.43276 0.42688 0.0
H189 H 0.80063 0.40999 0.29136 0.0
H190 H 0.89144 0.52632 0.32233 0.0
H191 H 0.94134 0.38877 0.3276 0.0
H192 H 0.85673 0.39764 0.31201 0.0
H193 H 0.87235 0.47481 0.36891 0.0
O194 O 0.84876 0.2643 0.43933 0.0
H195 H 0.93757 0.24176 0.37462 0.0
H196 H 0.88407 0.21604 0.47526 0.0
H197 H 0.96093 0.43921 0.2803 0.0
H198 H 0.77074 0.41098 0.40894 0.0
H199 H 0.93589 0.50852 0.27742 0.0
H200 H 0.75709 0.41689 0.33997 0.0
O201 O 0.93572 0.37768 0.40215 0.0
H202 H 0.87316 0.33502 0.55928 0.0
H203 H 0.95138 0.271 0.471 0.0
H204 H 0.96692 0.2828 0.53814 0.0
H205 H 0.92767 0.315 0.58286 0.0
H206 H 0.85872 0.3228 0.49177 0.0
H207 H 0.90487 0.14511 0.47579 0.0
H208 H 0.94284 0.12225 0.42495 0.0
O209 O 0.93749 0.30946 0.41058 0.0
C210 C 0.88528 0.30804 0.34057 0.0
C211 C 0.94267 0.18075 0.39627 0.0
C212 C 0.91213 0.16609 0.45335 0.0
N213 N 0.90942 0.23307 0.42457 0.0
C214 C 0.9303 0.22069 0.39663 0.0
C215 C 0.90029 0.20629 0.45275 0.0
C216 C 0.93345 0.1533 0.42484 0.0
C217 C 0.82163 0.40148 0.39835 0.0
N218 N 0.84552 0.39811 0.37155 0.0
C219 C 0.78953 0.40838 0.38749 0.0
C220 C 0.78187 0.41163 0.3488 0.0
C221 C 0.80627 0.40781 0.32153 0.0
C222 C 0.83806 0.40084 0.33348 0.0
C223 C 0.90254 0.49621 0.32331 0.0
C224 C 0.93025 0.41884 0.32647 0.0
C225 C 0.89193 0.46698 0.34976 0.0
N226 N 0.90558 0.42872 0.35084 0.0
C227 C 0.9415 0.4473 0.29967 0.0
C228 C 0.92746 0.48619 0.29809 0.0
C229 C 0.95134 0.34454 0.4079 0.0
C230 C 0.89044 0.32077 0.54015 0.0
C231 C 0.93407 0.28488 0.49025 0.0
C232 C 0.94304 0.29151 0.52827 0.0
C233 C 0.92102 0.30959 0.55334 0.0
N234 N 0.90393 0.29578 0.47754 0.0
C235 C 0.88235 0.31369 0.50192 0.0
Co236 Co 0.86381 0.62098 0.88301 0.0
Co237 Co 0.87097 0.66955 0.97129 0.0
O238 O 0.85206 0.66532 0.91938 0.0
C239 C 0.86487 0.69779 0.8327 0.0
O240 O 0.86869 0.72183 0.86242 0.0
C241 C 0.79989 0.69461 0.98155 0.0
O242 O 0.79409 0.68701 0.94537 0.0
O243 O 0.85912 0.61078 0.98219 0.0
O244 O 0.86678 0.57986 0.92552 0.0
H245 H 0.93543 0.61591 0.08265 0.0
H246 H 0.80446 0.66999 0.87109 0.0
O247 O 0.86129 0.65917 0.83725 0.0
H248 H 0.76715 0.52656 0.88055 0.0
H249 H 0.85376 0.53894 0.7613 0.0
H250 H 0.91322 0.5548 0.88264 0.0
H251 H 0.82521 0.54328 0.88536 0.0
H252 H 0.84002 0.59491 0.80595 0.0
O253 O 0.82819 0.68817 0.99529 0.0
H254 H 0.91108 0.61349 0.01844 0.0
H255 H 0.87042 0.73183 0.03468 0.0
H256 H 0.92729 0.49786 0.83926 0.0
H257 H 0.74611 0.65471 0.86532 0.0
H258 H 0.89693 0.48909 0.77855 0.0
H259 H 0.72713 0.58248 0.87025 0.0
O260 O 0.91076 0.63458 0.88894 0.0
H261 H 0.85275 0.81278 0.9205 0.0
H262 H 0.93098 0.71928 0.98182 0.0
H263 H 0.94737 0.79011 0.96663 0.0
H264 H 0.90807 0.83758 0.93599 0.0
H265 H 0.83756 0.7416 0.93548 0.0
H266 H 0.89371 0.73535 0.09936 0.0
H267 H 0.92677 0.6772 0.12372 0.0
O268 O 0.91471 0.653 0.95071 0.0
C269 C 0.86205 0.5786 0.96151 0.0
C270 C 0.9213 0.64161 0.07227 0.0
C271 C 0.89781 0.70854 0.08169 0.0
N272 N 0.88983 0.67282 0.02227 0.0
C273 C 0.90765 0.64054 0.03573 0.0
C274 C 0.88455 0.70634 0.04499 0.0
C275 C 0.91637 0.67594 0.09533 0.0
C276 C 0.79638 0.6385 0.87237 0.0
N277 N 0.81823 0.60763 0.87777 0.0
C278 C 0.76332 0.63002 0.86947 0.0
C279 C 0.75268 0.58951 0.87234 0.0
C280 C 0.77512 0.55813 0.87814 0.0
C281 C 0.80797 0.56782 0.88088 0.0
C282 C 0.86684 0.54209 0.78798 0.0
C283 C 0.89993 0.55121 0.85631 0.0
C284 C 0.85927 0.57383 0.81333 0.0
N285 N 0.87542 0.57768 0.84731 0.0
C286 C 0.90809 0.51902 0.83174 0.0
C287 C 0.89119 0.51428 0.79754 0.0
C288 C 0.9275 0.64464 0.91827 0.0
C289 C 0.86999 0.79254 0.93423 0.0
C290 C 0.91361 0.73965 0.96855 0.0
C291 C 0.92309 0.77979 0.96002 0.0
C292 C 0.90105 0.8064 0.94283 0.0
N293 N 0.88292 0.72632 0.96052 0.0
C294 C 0.8614 0.75215 0.94313 0.0
Co295 Co 0.15337 0.39268 0.38888 0.0
Co296 Co 0.15209 0.33064 0.47019 0.0
O297 O 0.16915 0.34634 0.41968 0.0
C298 C 0.14696 0.32196 0.33448 0.0
O299 O 0.13748 0.29862 0.3629 0.0
C300 C 0.21361 0.33373 0.51657 0.0
O301 O 0.20207 0.36586 0.53471 0.0
O302 O 0.15539 0.3892 0.48875 0.0
O303 O 0.15165 0.42828 0.43561 0.0
H304 H 0.07819 0.33846 0.58476 0.0
H305 H 0.214 0.34896 0.36958 0.0
O306 O 0.15529 0.35906 0.34044 0.0
H307 H 0.2452 0.49438 0.38336 0.0
H308 H 0.1502 0.48488 0.27309 0.0
H309 H 0.10335 0.45688 0.4001 0.0
H310 H 0.18848 0.47284 0.39252 0.0
H311 H 0.16989 0.4268 0.31185 0.0
O312 O 0.19803 0.31833 0.48829 0.0
H313 H 0.09895 0.35903 0.52169 0.0
H314 H 0.16868 0.26353 0.52496 0.0
H315 H 0.08301 0.51545 0.3624 0.0
H316 H 0.27105 0.36906 0.36014 0.0
H317 H 0.10664 0.52997 0.29852 0.0
H318 H 0.28695 0.44229 0.36703 0.0
O319 O 0.10729 0.37517 0.39655 0.0
H320 H 0.19224 0.20362 0.40367 0.0
H321 H 0.1005 0.26639 0.4725 0.0
H322 H 0.0956 0.19553 0.4483 0.0
H323 H 0.1417 0.16367 0.4136 0.0
H324 H 0.19605 0.27453 0.42815 0.0
H325 H 0.14844 0.24134 0.58788 0.0
H326 H 0.10299 0.27906 0.61841 0.0
O327 O 0.10614 0.34114 0.45274 0.0
C328 C 0.15397 0.42412 0.4718 0.0
C329 C 0.09831 0.3221 0.57202 0.0
C330 C 0.13764 0.26756 0.57373 0.0
N331 N 0.13581 0.31374 0.52008 0.0
C332 C 0.11041 0.33404 0.53641 0.0
C333 C 0.14915 0.28049 0.53814 0.0
C334 C 0.11216 0.28872 0.59084 0.0
C335 C 0.22073 0.38087 0.37232 0.0
N336 N 0.19791 0.4097 0.38116 0.0
C337 C 0.25307 0.39208 0.36707 0.0
C338 C 0.26197 0.43316 0.37097 0.0
C339 C 0.23856 0.4624 0.38009 0.0
C340 C 0.20647 0.45003 0.38519 0.0
C341 C 0.13971 0.47891 0.30091 0.0
C342 C 0.11367 0.46291 0.37233 0.0
C343 C 0.15067 0.44595 0.32296 0.0
N344 N 0.13781 0.43847 0.35834 0.0
C345 C 0.10206 0.49611 0.35106 0.0
C346 C 0.11528 0.50417 0.31517 0.0
C347 C 0.09218 0.35668 0.42342 0.0
C348 C 0.17202 0.21713 0.41882 0.0
C349 C 0.12069 0.25275 0.45746 0.0
C350 C 0.11777 0.21259 0.44384 0.0
C351 C 0.14364 0.19474 0.42437 0.0
N352 N 0.14858 0.27455 0.45184 0.0
C353 C 0.17407 0.25722 0.43285 0.0
Co354 Co 0.85927 0.38949 0.12303 0.0
Co355 Co 0.86867 0.32694 0.04227 0.0
O356 O 0.8475 0.34152 0.09129 0.0
C357 C 0.86661 0.3204 0.17929 0.0
O358 O 0.87838 0.29728 0.15197 0.0
C359 C 0.79622 0.31097 0.02775 0.0
O360 O 0.78776 0.32647 0.06089 0.0
O361 O 0.86289 0.38488 0.02284 0.0
O362 O 0.862 0.42457 0.07587 0.0
H363 H 0.95131 0.34185 0.93682 0.0
H364 H 0.80025 0.34194 0.14117 0.0
O365 O 0.85646 0.35645 0.17186 0.0
H366 H 0.76262 0.48372 0.11902 0.0
H367 H 0.85346 0.48019 0.23975 0.0
H368 H 0.90591 0.45833 0.11477 0.0
H369 H 0.82058 0.46631 0.11385 0.0
H370 H 0.83717 0.42234 0.19861 0.0
O371 O 0.82589 0.31068 0.01744 0.0
H372 H 0.92526 0.35894 0.99786 0.0
H373 H 0.85874 0.26087 0.98369 0.0
H374 H 0.92257 0.51705 0.15467 0.0
H375 H 0.74203 0.35797 0.1471 0.0
H376 H 0.89636 0.52817 0.21779 0.0
H377 H 0.72289 0.42932 0.1358 0.0
O378 O 0.90649 0.37572 0.11944 0.0
H379 H 0.8361 0.1993 0.11412 0.0
H380 H 0.92278 0.26622 0.03992 0.0
H381 H 0.93143 0.19654 0.0653 0.0
H382 H 0.8879 0.16251 0.10271 0.0
H383 H 0.82833 0.26877 0.08796 0.0
H384 H 0.884 0.24268 0.9224 0.0
H385 H 0.93067 0.28329 0.8984 0.0
O386 O 0.91223 0.34121 0.06411 0.0
C387 C 0.86182 0.41999 0.03956 0.0
C388 C 0.93069 0.32426 0.94667 0.0
C389 C 0.89295 0.26866 0.93859 0.0
N390 N 0.88955 0.31224 0.99403 0.0
C391 C 0.91558 0.33416 0.98121 0.0
C392 C 0.87846 0.27948 0.97326 0.0
C393 C 0.91916 0.29137 0.92518 0.0
C394 C 0.79207 0.37307 0.1366 0.0
N395 N 0.81372 0.40311 0.12724 0.0
C396 C 0.7591 0.38197 0.13983 0.0
C397 C 0.74837 0.42199 0.13346 0.0
C398 C 0.77064 0.45252 0.12403 0.0
C399 C 0.80343 0.44247 0.12107 0.0
C400 C 0.86507 0.47567 0.2123 0.0
C401 C 0.8943 0.46306 0.14202 0.0
C402 C 0.85607 0.44281 0.18891 0.0
N403 N 0.87074 0.43672 0.15427 0.0
C404 C 0.90384 0.49635 0.16457 0.0
C405 C 0.88915 0.50257 0.19998 0.0
C406 C 0.9238 0.358 0.09408 0.0
C407 C 0.85515 0.21362 0.09755 0.0
C408 C 0.90343 0.25144 0.05551 0.0
C409 C 0.90859 0.21203 0.07008 0.0
C410 C 0.88421 0.19301 0.09116 0.0
N411 N 0.87465 0.27129 0.06137 0.0
C412 C 0.85086 0.25302 0.08255 0.0
Co413 Co 0.15454 0.62333 0.62805 0.0
Co414 Co 0.14746 0.675 0.54127 0.0
O415 O 0.16708 0.66796 0.59251 0.0
C416 C 0.15231 0.69839 0.67976 0.0
O417 O 0.14546 0.72207 0.65056 0.0
C418 C 0.21953 0.6945 0.5276 0.0
O419 O 0.22779 0.68096 0.56154 0.0
O420 O 0.15745 0.61603 0.52829 0.0
O421 O 0.15069 0.58366 0.58459 0.0
H422 H 0.08044 0.63064 0.42843 0.0
H423 H 0.21479 0.67039 0.64029 0.0
O424 O 0.15808 0.66033 0.67445 0.0
H425 H 0.24948 0.52607 0.62841 0.0
H426 H 0.16383 0.53801 0.74792 0.0
H427 H 0.10398 0.55857 0.62747 0.0
H428 H 0.19174 0.54464 0.62383 0.0
H429 H 0.17823 0.59474 0.70439 0.0
O430 O 0.19001 0.69296 0.51674 0.0
H431 H 0.10539 0.62326 0.49202 0.0
H432 H 0.15009 0.73996 0.48078 0.0
H433 H 0.08926 0.50088 0.66968 0.0
H434 H 0.27283 0.6532 0.64603 0.0
H435 H 0.11981 0.48974 0.72991 0.0
H436 H 0.29048 0.58052 0.63988 0.0
O437 O 0.10767 0.63824 0.62286 0.0
H438 H 0.17082 0.81352 0.59893 0.0
H439 H 0.08897 0.72845 0.53373 0.0
H440 H 0.07515 0.79913 0.55289 0.0
H441 H 0.11629 0.84233 0.58554 0.0
H442 H 0.18349 0.74251 0.5797 0.0
H443 H 0.12613 0.74841 0.41674 0.0
H444 H 0.09074 0.69367 0.39025 0.0
O445 O 0.10361 0.65937 0.5619 0.0
C446 C 0.15459 0.58335 0.54844 0.0
C447 C 0.09545 0.65498 0.43985 0.0
C448 C 0.12115 0.721 0.43325 0.0
N449 N 0.12822 0.6817 0.49086 0.0
C450 C 0.10935 0.65112 0.47609 0.0
C451 C 0.13464 0.71604 0.4696 0.0
C452 C 0.10132 0.69028 0.4184 0.0
C453 C 0.2223 0.63868 0.63857 0.0
N454 N 0.19989 0.60857 0.63268 0.0
C455 C 0.25518 0.62913 0.64141 0.0
C456 C 0.26507 0.58837 0.63785 0.0
C457 C 0.24209 0.55781 0.6314 0.0
C458 C 0.20942 0.56854 0.62878 0.0
C459 C 0.15067 0.54219 0.72143 0.0
C460 C 0.11737 0.55393 0.65358 0.0
C461 C 0.15861 0.57437 0.69671 0.0
N462 N 0.14235 0.5795 0.66294 0.0
C463 C 0.10883 0.52133 0.6775 0.0
C464 C 0.12584 0.51527 0.71144 0.0
C465 C 0.09087 0.64963 0.594 0.0
C466 C 0.15279 0.79517 0.58437 0.0
C467 C 0.10712 0.74705 0.54774 0.0
C468 C 0.0991 0.78707 0.55858 0.0
C469 C 0.12217 0.81128 0.57692 0.0
N470 N 0.13739 0.73161 0.5546 0.0
C471 C 0.1599 0.75496 0.57319 0.0
Co472 Co 0.62675 0.88518 0.12626 0.0
Co473 Co 0.6253 0.78506 0.09358 0.0
O474 O 0.64134 0.84222 0.09008 0.0
C475 C 0.63549 0.9288 0.04973 0.0
O476 O 0.64546 0.89497 0.03319 0.0
C477 C 0.69507 0.77827 0.06396 0.0
O478 O 0.69842 0.81823 0.06618 0.0
O479 O 0.64141 0.78273 0.14784 0.0
O480 O 0.62488 0.84434 0.16924 0.0
H481 H 0.56943 0.66884 0.16131 0.0
H482 H 0.68927 0.89457 0.08375 0.0
O483 O 0.62782 0.92913 0.08512 0.0
H484 H 0.71709 0.91138 0.21981 0.0
H485 H 0.6222 0.02681 0.18449 0.0
H486 H 0.57574 0.8873 0.18569 0.0
H487 H 0.66072 0.89897 0.20031 0.0
H488 H 0.64387 0.97299 0.14195 0.0
O489 O 0.66859 0.76138 0.07492 0.0
H490 H 0.58939 0.7396 0.15322 0.0
H491 H 0.62828 0.70921 0.04475 0.0
H492 H 0.55357 0.94008 0.22897 0.0
H493 H 0.74599 0.90643 0.10197 0.0
H494 H 0.57641 0.01059 0.22801 0.0
H495 H 0.7603 0.9151 0.17049 0.0
O496 O 0.58127 0.87353 0.11199 0.0
H497 H 0.63056 0.8247 0.95416 0.0
H498 H 0.56378 0.76106 0.05482 0.0
H499 H 0.54177 0.76794 0.98976 0.0
H500 H 0.57522 0.79991 0.93877 0.0
H501 H 0.65156 0.81731 0.0195 0.0
H502 H 0.60935 0.63794 0.05166 0.0
H503 H 0.57945 0.61731 0.11025 0.0
O504 O 0.5809 0.80482 0.11041 0.0
C505 C 0.63635 0.80848 0.17486 0.0
C506 C 0.58235 0.67743 0.13559 0.0
C507 C 0.60481 0.66008 0.07413 0.0
N508 N 0.60985 0.72882 0.09847 0.0
C509 C 0.5936 0.71756 0.13083 0.0
C510 C 0.61567 0.70052 0.07041 0.0
C511 C 0.58801 0.64853 0.10697 0.0
C512 C 0.69511 0.89831 0.11352 0.0
N513 N 0.67142 0.8965 0.14069 0.0
C514 C 0.72738 0.90506 0.12373 0.0
C515 C 0.7354 0.90992 0.16216 0.0
C516 C 0.71118 0.90792 0.18982 0.0
C517 C 0.67922 0.90096 0.17852 0.0
C518 C 0.61191 0.99624 0.18498 0.0
C519 C 0.58618 0.91775 0.18553 0.0
C520 C 0.62404 0.96566 0.16089 0.0
N521 N 0.61114 0.92699 0.16136 0.0
C522 C 0.57343 0.94754 0.21 0.0
C523 C 0.5863 0.98709 0.20949 0.0
C524 C 0.5662 0.83948 0.10967 0.0
C525 C 0.6158 0.81048 0.97605 0.0
C526 C 0.57869 0.77481 0.03287 0.0
C527 C 0.56601 0.77867 0.99602 0.0
C528 C 0.58475 0.79663 0.96745 0.0
N529 N 0.60933 0.78822 0.04115 0.0
C530 C 0.62766 0.80612 0.01325 0.0
Co531 Co 0.38547 0.12537 0.62699 0.0
Co532 Co 0.39443 0.22612 0.59883 0.0
O533 O 0.37611 0.17093 0.59211 0.0
C534 C 0.40235 0.05633 0.57575 0.0
O535 O 0.42773 0.0509 0.59773 0.0
C536 C 0.32491 0.2391 0.57076 0.0
O537 O 0.31967 0.19943 0.57121 0.0
O538 O 0.3785 0.22785 0.65325 0.0
O539 O 0.38768 0.1629 0.67169 0.0
H540 H 0.45238 0.33762 0.67113 0.0
H541 H 0.32805 0.11741 0.57642 0.0
O542 O 0.38317 0.08637 0.58202 0.0
H543 H 0.28475 0.11367 0.7078 0.0
H544 H 0.37062 0.98343 0.68294 0.0
H545 H 0.43142 0.11339 0.69125 0.0
H546 H 0.34341 0.11941 0.69657 0.0
H547 H 0.35788 0.04104 0.63993 0.0
O548 O 0.35233 0.25362 0.5813 0.0
H549 H 0.42954 0.26847 0.66159 0.0
H550 H 0.3949 0.30279 0.55189 0.0
H551 H 0.44461 0.05681 0.73543 0.0
H552 H 0.26919 0.11091 0.58642 0.0
H553 H 0.41476 0.99075 0.73056 0.0
H554 H 0.24714 0.10925 0.6525 0.0
O555 O 0.43303 0.13329 0.61794 0.0
H556 H 0.38765 0.19328 0.45806 0.0
H557 H 0.45705 0.24688 0.5613 0.0
H558 H 0.47867 0.24228 0.4958 0.0
H559 H 0.44381 0.21561 0.44351 0.0
H560 H 0.36717 0.1979 0.52392 0.0
H561 H 0.41682 0.37262 0.56043 0.0
H562 H 0.44612 0.39032 0.62025 0.0
O563 O 0.43755 0.20169 0.61576 0.0
C564 C 0.38099 0.20019 0.67906 0.0
C565 C 0.44007 0.33014 0.6447 0.0
C566 C 0.42005 0.3498 0.58263 0.0
N567 N 0.41206 0.28099 0.60563 0.0
C568 C 0.42741 0.29084 0.63898 0.0
C569 C 0.40774 0.31016 0.57793 0.0
C570 C 0.43647 0.35972 0.6162 0.0
C571 C 0.31871 0.11631 0.60527 0.0
N572 N 0.33925 0.11888 0.63578 0.0
C573 C 0.28532 0.11277 0.61075 0.0
C574 C 0.27296 0.1119 0.64783 0.0
C575 C 0.29404 0.11443 0.67885 0.0
C576 C 0.32728 0.11789 0.67227 0.0
C577 C 0.38421 0.01178 0.68483 0.0
C578 C 0.41806 0.08494 0.68922 0.0
C579 C 0.37722 0.04446 0.66031 0.0
N580 N 0.3946 0.08016 0.66201 0.0
C581 C 0.42569 0.05297 0.7143 0.0
C582 C 0.40886 0.016 0.7117 0.0
C583 C 0.45038 0.16583 0.6189 0.0
C584 C 0.40296 0.2054 0.48051 0.0
C585 C 0.44159 0.23544 0.53874 0.0
C586 C 0.45403 0.23285 0.50167 0.0
C587 C 0.43449 0.21785 0.47237 0.0
N588 N 0.4104 0.2239 0.54645 0.0
C589 C 0.39137 0.20839 0.51794 0.0
Co590 Co 0.62663 0.12466 0.88787 0.0
Co591 Co 0.62276 0.22272 0.92412 0.0
O592 O 0.64132 0.16684 0.92431 0.0
C593 C 0.62774 0.08076 0.96286 0.0
O594 O 0.61992 0.11515 0.97994 0.0
C595 C 0.69468 0.23691 0.93347 0.0
O596 O 0.70078 0.20816 0.90818 0.0
O597 O 0.63538 0.22913 0.86876 0.0
O598 O 0.62043 0.1671 0.84674 0.0
H599 H 0.55513 0.33885 0.87268 0.0
H600 H 0.68929 0.11367 0.92746 0.0
O601 O 0.63249 0.07981 0.92691 0.0
H602 H 0.7155 0.11212 0.78982 0.0
H603 H 0.6285 0.98682 0.82216 0.0
H604 H 0.57307 0.12061 0.83166 0.0
H605 H 0.65907 0.12006 0.81149 0.0
H606 H 0.64756 0.03937 0.86774 0.0
O607 O 0.66556 0.2464 0.9415 0.0
H608 H 0.57718 0.26854 0.87422 0.0
H609 H 0.63046 0.29623 0.97461 0.0
H610 H 0.55338 0.06908 0.7855 0.0
H611 H 0.74614 0.10549 0.90707 0.0
H612 H 0.58113 1.0016 0.78059 0.0
H613 H 0.75954 0.10476 0.83778 0.0
O614 O 0.58147 0.13221 0.906 0.0
H615 H 0.64224 0.18396 0.0614 0.0
H616 H 0.56255 0.23823 0.9693 0.0
H617 H 0.54681 0.22916 0.03677 0.0
H618 H 0.5868 0.20186 0.08338 0.0
H619 H 0.65685 0.19302 0.99354 0.0
H620 H 0.60929 0.36694 0.97415 0.0
H621 H 0.57126 0.38872 0.92297 0.0
O622 O 0.57849 0.20103 0.9089 0.0
C623 C 0.62962 0.20407 0.84132 0.0
C624 C 0.57178 0.32981 0.89507 0.0
C625 C 0.60218 0.34557 0.95198 0.0
N626 N 0.60534 0.27822 0.92405 0.0
C627 C 0.58437 0.28999 0.89595 0.0
C628 C 0.61424 0.30548 0.95193 0.0
C629 C 0.58082 0.35776 0.92328 0.0
C630 C 0.69495 0.11309 0.89729 0.0
N631 N 0.67092 0.1173 0.87075 0.0
C632 C 0.72717 0.10856 0.8859 0.0
C633 C 0.73467 0.10821 0.84702 0.0
C634 C 0.70999 0.11233 0.8201 0.0
C635 C 0.67807 0.11693 0.83256 0.0
C636 C 0.6162 0.01612 0.82406 0.0
C637 C 0.58537 0.0914 0.82957 0.0
C638 C 0.62682 0.04596 0.84989 0.0
N639 N 0.61156 0.08315 0.85219 0.0
C640 C 0.57407 0.0623 0.80343 0.0
C641 C 0.58965 0.02444 0.8007 0.0
C642 C 0.56539 0.16537 0.90949 0.0
C643 C 0.62461 0.19595 0.04139 0.0
C644 C 0.58008 0.2262 0.98934 0.0
C645 C 0.57104 0.22125 0.02755 0.0
C646 C 0.5935 0.20595 0.05369 0.0
N647 N 0.6106 0.21609 0.97742 0.0
C648 C 0.63279 0.20133 1.00294 0.0
Co649 Co 0.38968 0.88144 0.39424 0.0
Co650 Co 0.39449 0.78083 0.42499 0.0
O651 O 0.37679 0.83696 0.42921 0.0
C652 C 0.39354 0.91951 0.47185 0.0
O653 O 0.39941 0.88344 0.48687 0.0
C654 C 0.32262 0.76662 0.43383 0.0
O655 O 0.31692 0.795 0.40798 0.0
O656 O 0.38095 0.77804 0.36969 0.0
O657 O 0.39148 0.84248 0.3504 0.0
H658 H 0.4554 0.66629 0.36098 0.0
H659 H 0.33073 0.89179 0.44125 0.0
O660 O 0.38809 0.92339 0.43626 0.0
H661 H 0.2935 0.9019 0.3076 0.0
H662 H 0.38581 0.02416 0.33849 0.0
H663 H 0.43951 0.88898 0.33371 0.0
H664 H 0.3513 0.89159 0.32226 0.0
H665 H 0.36854 0.96821 0.38149 0.0
O666 O 0.35166 0.75706 0.4423 0.0
H667 H 0.43406 0.73671 0.36753 0.0
H668 H 0.38945 0.70506 0.47289 0.0
H669 H 0.45727 0.94387 0.28982 0.0
H670 H 0.27268 0.90265 0.42795 0.0
H671 H 0.43056 0.01218 0.29237 0.0
H672 H 0.25373 0.90763 0.36066 0.0
O673 O 0.43613 0.8711 0.40651 0.0
H674 H 0.37795 0.80986 0.5649 0.0
H675 H 0.45585 0.76293 0.46734 0.0
H676 H 0.47319 0.76822 0.53457 0.0
H677 H 0.4341 0.79167 0.58395 0.0
H678 H 0.36179 0.8051 0.49719 0.0
H679 H 0.4099 0.63415 0.46727 0.0
H680 H 0.44331 0.61442 0.41111 0.0
O681 O 0.43879 0.80228 0.40998 0.0
C682 C 0.38428 0.80519 0.34348 0.0
C683 C 0.44107 0.67458 0.38572 0.0
C684 C 0.4155 0.65653 0.44535 0.0
N685 N 0.41108 0.72524 0.42086 0.0
C686 C 0.42911 0.71449 0.38969 0.0
C687 C 0.40397 0.69674 0.44836 0.0
C688 C 0.43423 0.64548 0.41383 0.0
C689 C 0.32268 0.89442 0.41198 0.0
N690 N 0.34439 0.89128 0.38267 0.0
C691 C 0.28978 0.90038 0.40458 0.0
C692 C 0.27916 0.90308 0.36682 0.0
C693 C 0.30145 0.89985 0.33704 0.0
C694 C 0.33416 0.89389 0.34554 0.0
C695 C 0.39766 0.99453 0.33715 0.0
C696 C 0.42748 0.91842 0.33459 0.0
C697 C 0.38802 0.96274 0.36146 0.0
N698 N 0.40281 0.9252 0.35985 0.0
C699 C 0.43773 0.94945 0.3098 0.0
C700 C 0.42272 0.98777 0.31122 0.0
C701 C 0.45225 0.83768 0.40864 0.0
C702 C 0.39519 0.79951 0.54367 0.0
C703 C 0.43873 0.77356 0.48853 0.0
C704 C 0.44867 0.77627 0.52663 0.0
C705 C 0.42671 0.78938 0.55432 0.0
N706 N 0.40781 0.78377 0.47824 0.0
C707 C 0.38612 0.79648 0.50529 0.0
Co708 Co 0.36437 0.12128 0.89639 0.0
Co709 Co 0.36727 0.17448 0.98199 0.0
O710 O 0.34917 0.16602 0.93002 0.0
C711 C 0.36566 0.19317 0.84155 0.0
O712 O 0.37388 0.21858 0.86891 0.0
C713 C 0.29492 0.19448 0.99123 0.0
O714 O 0.28789 0.18046 0.95705 0.0
O715 O 0.35689 0.11584 0.99575 0.0
O716 O 0.36926 0.08352 0.94094 0.0
H717 H 0.4311 0.13352 0.09841 0.0
H718 H 0.30283 0.16262 0.87686 0.0
O719 O 0.35983 0.15564 0.84885 0.0
H720 H 0.27373 0.01763 0.89904 0.0
H721 H 0.36296 0.03055 0.77952 0.0
H722 H 0.41864 0.06205 0.90069 0.0
H723 H 0.33046 0.04038 0.90416 0.0
H724 H 0.34359 0.08674 0.82091 0.0
O725 O 0.32393 0.19294 1.00376 0.0
H726 H 0.40852 0.12463 0.03371 0.0
H727 H 0.36184 0.24051 0.04119 0.0
H728 H 0.43865 0.0054 0.86039 0.0
H729 H 0.24578 0.14103 0.87082 0.0
H730 H 0.41057 0.98901 0.79958 0.0
H731 H 0.23091 0.0681 0.88215 0.0
O732 O 0.41006 0.14067 0.90241 0.0
H733 H 0.34688 0.31047 0.91776 0.0
H734 H 0.42505 0.22861 0.99224 0.0
H735 H 0.4398 0.29847 0.97158 0.0
H736 H 0.40052 0.34006 0.93423 0.0
H737 H 0.33319 0.24037 0.93874 0.0
H738 H 0.38347 0.25045 0.10622 0.0
H739 H 0.41861 0.19687 0.13517 0.0
O740 O 0.41202 0.15846 0.96432 0.0
C741 C 0.36254 0.08317 0.97645 0.0
C742 C 0.41612 0.15731 0.08596 0.0
C743 C 0.38933 0.22287 0.09038 0.0
N744 N 0.38469 0.18248 0.03312 0.0
C745 C 0.40351 0.15258 0.04915 0.0
C746 C 0.37715 0.21705 0.0535 0.0
C747 C 0.40904 0.19281 0.1066 0.0
C748 C 0.29656 0.13076 0.88143 0.0
N749 N 0.31994 0.10285 0.89083 0.0
C750 C 0.26422 0.11874 0.87813 0.0
C751 C 0.25589 0.07783 0.88454 0.0
C752 C 0.27989 0.0495 0.89405 0.0
C753 C 0.31198 0.06263 0.89706 0.0
C754 C 0.37528 0.03719 0.80613 0.0
C755 C 0.40621 0.05505 0.87434 0.0
C756 C 0.36444 0.069 0.82969 0.0
N757 N 0.37967 0.07727 0.86356 0.0
C758 C 0.41773 0.02303 0.85154 0.0
C759 C 0.40202 0.01397 0.81732 0.0
C760 C 0.42582 0.15095 0.93238 0.0
C761 C 0.36408 0.29285 0.93439 0.0
C762 C 0.40764 0.24657 0.97631 0.0
C763 C 0.41621 0.28611 0.96458 0.0
C764 C 0.39419 0.3094 0.94357 0.0
N765 N 0.37782 0.23072 0.96776 0.0
C766 C 0.3564 0.25314 0.94652 0.0
Co767 Co 0.65398 0.89108 0.38725 0.0
Co768 Co 0.64863 0.84244 0.47503 0.0
O769 O 0.66719 0.84746 0.42317 0.0
C770 C 0.659 0.81498 0.33553 0.0
O771 O 0.66051 0.78929 0.36437 0.0
C772 C 0.72033 0.83555 0.49147 0.0
O773 O 0.72597 0.86712 0.46909 0.0
O774 O 0.65977 0.90129 0.48667 0.0
O775 O 0.65009 0.93193 0.43023 0.0
H776 H 0.58257 0.88917 0.58763 0.0
H777 H 0.71494 0.84485 0.37618 0.0
O778 O 0.65736 0.85361 0.34119 0.0
H779 H 0.74769 0.99019 0.38424 0.0
H780 H 0.66171 0.9743 0.26595 0.0
H781 H 0.60068 0.95238 0.38527 0.0
H782 H 0.69016 0.97065 0.38901 0.0
H783 H 0.67778 0.91977 0.31105 0.0
O784 O 0.69147 0.82272 0.4962 0.0
H785 H 0.60541 0.89414 0.52263 0.0
H786 H 0.65407 0.78032 0.53767 0.0
H787 H 0.58424 0.008 0.34158 0.0
H788 H 0.77272 0.863 0.37059 0.0
H789 H 0.61527 0.01975 0.28175 0.0
H790 H 0.78943 0.93618 0.37471 0.0
O791 O 0.60755 0.87431 0.39352 0.0
H792 H 0.67042 0.70017 0.42551 0.0
H793 H 0.58864 0.79166 0.48303 0.0
H794 H 0.57367 0.72067 0.46621 0.0
H795 H 0.61472 0.67432 0.4373 0.0
H796 H 0.68423 0.77169 0.44211 0.0
H797 H 0.63205 0.77432 0.60297 0.0
H798 H 0.5959 0.82892 0.62831 0.0
O799 O 0.60468 0.85961 0.45627 0.0
C800 C 0.65537 0.93347 0.46621 0.0
C801 C 0.59817 0.86508 0.57685 0.0
C802 C 0.62597 0.80065 0.58548 0.0
N803 N 0.63075 0.83737 0.52616 0.0
C804 C 0.61107 0.86766 0.54 0.0
C805 C 0.63839 0.80425 0.54847 0.0
C806 C 0.60569 0.83129 0.59968 0.0
C807 C 0.72197 0.87677 0.37716 0.0
N808 N 0.69912 0.90666 0.38191 0.0
C809 C 0.75475 0.88687 0.37433 0.0
C810 C 0.7641 0.92791 0.37676 0.0
C811 C 0.7407 0.95822 0.3821 0.0
C812 C 0.70815 0.94696 0.38478 0.0
C813 C 0.64837 0.96999 0.29231 0.0
C814 C 0.61452 0.95764 0.35966 0.0
C815 C 0.65732 0.93912 0.31798 0.0
N816 N 0.64082 0.93378 0.35157 0.0
C817 C 0.60493 0.98893 0.33477 0.0
C818 C 0.62221 0.99533 0.30107 0.0
C819 C 0.59144 0.86579 0.42379 0.0
C820 C 0.65233 0.72004 0.43816 0.0
C821 C 0.60663 0.77182 0.47025 0.0
C822 C 0.59802 0.73157 0.46092 0.0
C823 C 0.62107 0.70558 0.44473 0.0
N824 N 0.63732 0.78587 0.46352 0.0
C825 C 0.66006 0.76051 0.44779 0.0
Co826 Co 0.36382 0.88624 0.12879 0.0
Co827 Co 0.36636 0.82758 0.04526 0.0
O828 O 0.34866 0.84084 0.09622 0.0
C829 C 0.3685 0.81328 0.18156 0.0
O830 O 0.37593 0.7892 0.15281 0.0
C831 C 0.30657 0.83005 0.99651 0.0
O832 O 0.31904 0.86165 0.97841 0.0
O833 O 0.36246 0.88685 0.02881 0.0
O834 O 0.36528 0.92357 0.08343 0.0
H835 H 0.44096 0.84245 0.93196 0.0
H836 H 0.30393 0.84076 0.14769 0.0
O837 O 0.36234 0.85111 0.17611 0.0
H838 H 0.27064 0.98578 0.13666 0.0
H839 H 0.36668 0.97298 0.24828 0.0
H840 H 0.41306 0.9518 0.11988 0.0
H841 H 0.32764 0.9657 0.12693 0.0
H842 H 0.34681 0.91707 0.20695 0.0
O843 O 0.32091 0.81532 0.02598 0.0
H844 H 0.41893 0.86008 0.99521 0.0
H845 H 0.35195 0.76175 0.98823 0.0
H846 H 0.43333 0.00847 0.16001 0.0
H847 H 0.24663 0.85943 0.1577 0.0
H848 H 0.41003 0.01944 0.22467 0.0
H849 H 0.22968 0.93243 0.15218 0.0
O850 O 0.41007 0.86978 0.12089 0.0
H851 H 0.32672 0.6969 0.10581 0.0
H852 H 0.41878 0.76437 0.04159 0.0
H853 H 0.42411 0.69253 0.06303 0.0
H854 H 0.37786 0.6583 0.09539 0.0
H855 H 0.3225 0.76884 0.08417 0.0
H856 H 0.37356 0.7424 0.92512 0.0
H857 H 0.41826 0.78304 0.89636 0.0
O858 O 0.41189 0.83804 0.06362 0.0
C859 C 0.36324 0.92098 0.04713 0.0
C860 C 0.42119 0.8248 0.94393 0.0
C861 C 0.38347 0.7686 0.94014 0.0
N862 N 0.38342 0.81311 0.99505 0.0
C863 C 0.40838 0.83506 0.97966 0.0
C864 C 0.37119 0.77991 0.97586 0.0
C865 C 0.40852 0.79141 0.92403 0.0
C866 C 0.29672 0.87258 0.14542 0.0
N867 N 0.31909 0.9021 0.13694 0.0
C868 C 0.26426 0.88297 0.15105 0.0
C869 C 0.25476 0.92393 0.14793 0.0
C870 C 0.27773 0.95388 0.13925 0.0
C871 C 0.30997 0.94233 0.13378 0.0
C872 C 0.37698 0.96857 0.2201 0.0
C873 C 0.40276 0.95639 0.1479 0.0
C874 C 0.36593 0.93683 0.1966 0.0
N875 N 0.37877 0.93112 0.16091 0.0
C876 C 0.41436 0.9885 0.17056 0.0
C877 C 0.40132 0.99459 0.20688 0.0
C878 C 0.42548 0.85255 0.09357 0.0
C879 C 0.34703 0.71145 0.09168 0.0
C880 C 0.39853 0.74972 0.05567 0.0
C881 C 0.40169 0.709 0.0677 0.0
C882 C 0.37573 0.68982 0.08585 0.0
N883 N 0.37033 0.77079 0.06158 0.0
C884 C 0.34474 0.75214 0.07926 0.0
Co885 Co 0.65568 0.12516 0.62523 0.0
Co886 Co 0.64736 0.18649 0.54391 0.0
O887 O 0.66742 0.17256 0.59331 0.0
C888 C 0.64608 0.19531 0.67961 0.0
O889 O 0.63448 0.21765 0.65157 0.0
C890 C 0.70519 0.18725 0.4914 0.0
O891 O 0.69099 0.15849 0.47109 0.0
O892 O 0.65128 0.12786 0.52584 0.0
O893 O 0.65432 0.089 0.57908 0.0
H894 H 0.56871 0.16921 0.43521 0.0
H895 H 0.71382 0.17475 0.64274 0.0
O896 O 0.65708 0.15945 0.67319 0.0
H897 H 0.75392 0.03352 0.62374 0.0
H898 H 0.66086 0.0372 0.74377 0.0
H899 H 0.61048 0.05468 0.61704 0.0
H900 H 0.69563 0.04906 0.61855 0.0
H901 H 0.67673 0.09476 0.70203 0.0
O902 O 0.69203 0.19992 0.52244 0.0
H903 H 0.59459 0.15141 0.49649 0.0
H904 H 0.6574 0.25395 0.48693 0.0
H905 H 0.59422 0.99631 0.65759 0.0
H906 H 0.77235 0.1606 0.64844 0.0
H907 H 0.61947 0.98729 0.72153 0.0
H908 H 0.79272 0.08953 0.63884 0.0
O909 O 0.60842 0.13797 0.61973 0.0
H910 H 0.688 0.3157 0.60617 0.0
H911 H 0.59517 0.25026 0.54175 0.0
H912 H 0.59051 0.32192 0.56393 0.0
H913 H 0.63712 0.35508 0.59652 0.0
H914 H 0.69167 0.24415 0.58338 0.0
H915 H 0.63196 0.27334 0.42576 0.0
H916 H 0.58734 0.23074 0.3994 0.0
O917 O 0.60268 0.17485 0.5654 0.0
C918 C 0.65338 0.0931 0.54285 0.0
C919 C 0.58826 0.1879 0.44627 0.0
C920 C 0.62369 0.24636 0.441 0.0
N921 N 0.6278 0.2011 0.4951 0.0
C922 C 0.60313 0.17775 0.48089 0.0
C923 C 0.63809 0.23512 0.47562 0.0
C924 C 0.59868 0.22245 0.42622 0.0
C925 C 0.72253 0.14373 0.6389 0.0
N926 N 0.70136 0.11275 0.63067 0.0
C927 C 0.75567 0.1359 0.64202 0.0
C928 C 0.76709 0.09603 0.63658 0.0
C929 C 0.74534 0.06459 0.62813 0.0
C930 C 0.71236 0.07357 0.62523 0.0
C931 C 0.64967 0.04081 0.71597 0.0
C932 C 0.62155 0.05101 0.64472 0.0
C933 C 0.65842 0.0735 0.69224 0.0
N934 N 0.6443 0.07839 0.65712 0.0
C935 C 0.61227 0.01786 0.66761 0.0
C936 C 0.62643 0.01284 0.70349 0.0
C937 C 0.59105 0.15694 0.59508 0.0
C938 C 0.66751 0.30159 0.59202 0.0
C939 C 0.61563 0.26453 0.55573 0.0
C940 C 0.61282 0.30511 0.56828 0.0
C941 C 0.63897 0.32368 0.58659 0.0
N942 N 0.64364 0.24298 0.56132 0.0
C943 C 0.66944 0.26108 0.57905 0.0
C944 C 0.0139 0.38227 0.08463 0.0
C945 C 0.02807 0.35074 0.10742 0.0
C946 C 0.97393 0.32193 0.11815 0.0
C947 C 0.95958 0.35618 0.09967 0.0
N948 N 0.96624 0.42353 0.0722 0.0
N949 N 0.01955 0.29856 0.1553 0.0
C950 C 0.97969 0.38789 0.0852 0.0
C951 C 1.00749 0.32274 0.12684 0.0
N952 N 0.03263 0.40537 0.06066 0.0
N953 N 0.95586 0.28814 0.1268 0.0
H954 H 0.04326 0.30161 0.16489 0.0
H955 H 1.00504 0.27992 0.17246 0.0
H956 H 0.93129 0.28625 0.12059 0.0
H957 H 0.96597 0.26089 0.13697 0.0
H958 H 0.02298 0.42585 0.04077 0.0
H959 H 0.05743 0.40093 0.05751 0.0
H960 H 0.97989 0.44922 0.06468 0.0
H961 H 0.94137 0.42864 0.07257 0.0
C962 C 1.00607 0.67192 0.63538 0.0
C963 C 0.98599 0.6632 0.60357 0.0
C964 C 0.03372 0.64021 0.56765 0.0
C965 C 0.05455 0.6533 0.59785 0.0
N966 N 0.05934 0.69174 0.65689 0.0
N967 N 0.98185 0.64751 0.53645 0.0
C968 C 0.04039 0.67177 0.63088 0.0
C969 C 1.00018 0.64988 0.56886 0.0
N970 N 0.99245 0.67975 0.67018 0.0
N971 N 0.0454 0.61675 0.53842 0.0
H972 H 0.95738 0.65487 0.53612 0.0
H973 H 0.99161 0.64264 0.50934 0.0
H974 H 0.06934 0.60767 0.53668 0.0
H975 H 0.03063 0.60256 0.51819 0.0
H976 H 1.00582 0.68187 0.69539 0.0
H977 H 0.96749 0.68027 0.67429 0.0
H978 H 0.04986 0.70896 0.67937 0.0
H979 H 0.08417 0.69535 0.65352 0.0
C980 C 0.98477 0.63549 0.94438 0.0
C981 C 0.96378 0.6488 0.91445 0.0
C982 C 0.01203 0.66851 0.87699 0.0
C983 C 0.03226 0.65965 0.90864 0.0
N984 N 0.03646 0.64369 0.9757 0.0
N985 N 0.95864 0.68875 0.85626 0.0
C986 C 0.01818 0.64585 0.94327 0.0
C987 C 0.97773 0.66815 0.88171 0.0
N988 N 0.97343 0.61123 0.97323 0.0
N989 N 0.02546 0.67671 0.84216 0.0
H990 H 0.93386 0.6926 0.86004 0.0
H991 H 0.96804 0.70637 0.83399 0.0
H992 H 0.05039 0.6772 0.83787 0.0
H993 H 0.01192 0.67909 0.8171 0.0
H994 H 0.98842 0.59709 0.99327 0.0
H995 H 0.94966 0.6014 0.97473 0.0
H996 H 0.02672 0.63827 1.00274 0.0
H997 H 0.06073 0.65194 0.97615 0.0
C998 C 0.03574 0.38385 0.43587 0.0
C999 C 0.05615 0.35302 0.42032 0.0
C1000 C 1.0083 0.31935 0.39285 0.0
C1001 C 0.98753 0.34717 0.41235 0.0
N1002 N 0.98259 0.39978 0.46089 0.0
N1003 N 0.06062 0.28605 0.39136 0.0
C1004 C 1.00156 0.37779 0.43628 0.0
C1005 C 0.04203 0.31901 0.40124 0.0
N1006 N 0.04883 0.41937 0.44959 0.0
N1007 N 0.99636 0.29509 0.36438 0.0
H1008 H 0.08533 0.28479 0.39696 0.0
H1009 H 0.05093 0.25875 0.38079 0.0
H1010 H 0.97253 0.29738 0.35516 0.0
H1011 H 0.01095 0.2769 0.34691 0.0
H1012 H 0.0349 0.44452 0.45795 0.0
H1013 H 0.07362 0.42509 0.44892 0.0
H1014 H 0.99204 0.41972 0.48136 0.0
H1015 H 0.95784 0.39461 0.46396 0.0
C1016 C 0.48207 0.87928 0.08246 0.0
C1017 C 0.46136 0.84839 0.09709 0.0
C1018 C 0.50886 0.81203 0.12244 0.0
C1019 C 0.52995 0.84084 0.10438 0.0
N1020 N 0.5347 0.89337 0.05557 0.0
N1021 N 0.45599 0.77997 0.12263 0.0
C1022 C 0.51601 0.87211 0.08103 0.0
C1023 C 0.47507 0.81299 0.11427 0.0
N1024 N 0.46953 0.91579 0.07036 0.0
N1025 N 0.52034 0.78528 0.14919 0.0
H1026 H 0.43106 0.78007 0.11828 0.0
H1027 H 0.46531 0.75163 0.13111 0.0
H1028 H 0.54429 0.78486 0.15787 0.0
H1029 H 0.50536 0.76676 0.16587 0.0
H1030 H 0.48393 0.94072 0.06255 0.0
H1031 H 0.44491 0.92237 0.072 0.0
H1032 H 0.52507 0.91409 0.03588 0.0
H1033 H 0.55893 0.88629 0.0505 0.0
C1034 C 0.53621 0.12302 0.60128 0.0
C1035 C 0.55525 0.1592 0.60248 0.0
C1036 C 0.5073 0.1978 0.62464 0.0
C1037 C 0.48742 0.16223 0.62 0.0
N1038 N 0.4893 0.0881 0.62563 0.0
N1039 N 0.55896 0.23166 0.61524 0.0
C1040 C 0.50348 0.12386 0.61416 0.0
C1041 C 0.54069 0.19678 0.61392 0.0
N1042 N 0.54914 0.0876 0.58703 0.0
N1043 N 0.49554 0.23078 0.64431 0.0
H1044 H 0.58401 0.23117 0.61283 0.0
H1045 H 0.5493 0.26115 0.61702 0.0
H1046 H 0.47404 0.22922 0.6595 0.0
H1047 H 0.50889 0.25683 0.65115 0.0
H1048 H 0.53532 0.06168 0.58073 0.0
H1049 H 0.57312 0.08545 0.57825 0.0
H1050 H 0.50077 0.0596 0.62447 0.0
H1051 H 0.469 0.08763 0.64304 0.0
C1052 C 0.51793 0.14474 0.95059 0.0
C1053 C 0.52979 0.16231 0.91617 0.0
C1054 C 0.47435 0.18107 0.8987 0.0
C1055 C 0.46185 0.15705 0.92924 0.0
N1056 N 0.47307 0.11477 0.98475 0.0
N1057 N 0.51826 0.19032 0.85393 0.0
C1058 C 0.48401 0.13866 0.95545 0.0
C1059 C 0.5077 0.17858 0.88922 0.0
N1060 N 0.53893 0.13557 0.97954 0.0
N1061 N 0.45489 0.20865 0.88046 0.0
H1062 H 0.54223 0.18643 0.84548 0.0
H1063 H 0.50259 0.1992 0.83204 0.0
H1064 H 0.43122 0.21416 0.88933 0.0
H1065 H 0.46346 0.22935 0.86008 0.0
H1066 H 0.53157 0.12731 1.00697 0.0
H1067 H 0.56374 0.14035 0.97734 0.0
H1068 H 0.48803 0.09562 1.00082 0.0
H1069 H 0.44888 0.11248 0.99203 0.0
C1070 C 0.51078 0.8197 0.39077 0.0
C1071 C 0.48825 0.84084 0.41446 0.0
C1072 C 0.53334 0.87783 0.44508 0.0
C1073 C 0.55584 0.85747 0.42081 0.0
N1074 N 0.56638 0.79875 0.38076 0.0
N1075 N 0.48003 0.87708 0.47365 0.0
C1076 C 0.54467 0.82566 0.39632 0.0
C1077 C 0.5001 0.86642 0.44423 0.0
N1078 N 0.50013 0.79386 0.36281 0.0
N1079 N 0.5435 0.90821 0.46912 0.0
H1080 H 0.45653 0.86585 0.47576 0.0
H1081 H 0.48774 0.89234 0.49819 0.0
H1082 H 0.56774 0.91493 0.47361 0.0
H1083 H 0.5277 0.92809 0.48318 0.0
H1084 H 0.51491 0.78305 0.34083 0.0
H1085 H 0.47636 0.78391 0.36107 0.0
H1086 H 0.55951 0.77176 0.36699 0.0
H1087 H 0.59125 0.80072 0.38548 0.0
C1088 C 0.16804 0.29889 0.23054 0.0
C1089 C 0.1367 0.29372 0.21454 0.0
C1090 C 0.11249 0.3015 0.27821 0.0
C1091 C 0.14371 0.30748 0.29424 0.0
N1092 N 0.20152 0.30163 0.28774 0.0
N1093 N 0.08137 0.27508 0.22499 0.0
C1094 C 0.17165 0.3028 0.271 0.0
C1095 C 0.10968 0.29002 0.23914 0.0
N1096 N 0.19416 0.30158 0.2068 0.0
N1097 N 0.08541 0.30941 0.29944 0.0
H1098 H 0.08009 0.26406 0.19717 0.0
H1099 H 0.06115 0.26867 0.24179 0.0
H1100 H 0.08635 0.31939 0.32772 0.0
H1101 H 0.06212 0.30973 0.28798 0.0
H1102 H 0.21716 0.31048 0.21571 0.0
H1103 H 0.19225 0.29616 0.17755 0.0
H1104 H 0.22277 0.29505 0.27297 0.0
H1105 H 0.20463 0.30355 0.31729 0.0
C1106 C 0.84525 0.71099 0.72664 0.0
C1107 C 0.87695 0.71766 0.71247 0.0
C1108 C 0.89553 0.73086 0.77814 0.0
C1109 C 0.86623 0.71418 0.79258 0.0
N1110 N 0.81139 0.6927 0.78071 0.0
N1111 N 0.93275 0.73423 0.72476 0.0
C1112 C 0.84041 0.70596 0.76678 0.0
C1113 C 0.90214 0.72827 0.73822 0.0
N1114 N 0.81986 0.7095 0.70162 0.0
N1115 N 0.9169 0.74964 0.80222 0.0
H1116 H 0.93794 0.73437 0.6957 0.0
H1117 H 0.95301 0.73661 0.74237 0.0
H1118 H 0.91237 0.75375 0.83124 0.0
H1119 H 0.93734 0.76535 0.79269 0.0
H1120 H 0.79572 0.70815 0.7101 0.0
H1121 H 0.82289 0.71301 0.67216 0.0
H1122 H 0.79303 0.68061 0.76369 0.0
H1123 H 0.80607 0.69327 0.8098 0.0
C1124 C 0.11645 0.72659 0.77562 0.0
C1125 C 0.14185 0.71475 0.8006 0.0
C1126 C 0.1777 0.70485 0.74528 0.0
C1127 C 0.15159 0.71413 0.72019 0.0
N1128 N 0.10118 0.75101 0.71277 0.0
N1129 N 0.19894 0.70489 0.81016 0.0
C1130 C 0.12261 0.73071 0.7357 0.0
C1131 C 0.17331 0.70808 0.78565 0.0
N1132 N 0.08601 0.73227 0.78973 0.0
N1133 N 0.2066 0.69237 0.73036 0.0
H1134 H 0.19617 0.70679 0.83973 0.0
H1135 H 0.22299 0.70356 0.80135 0.0
H1136 H 0.21165 0.69468 0.70126 0.0
H1137 H 0.22515 0.6794 0.7465 0.0
H1138 H 0.06557 0.73548 0.77251 0.0
H1139 H 0.08108 0.73114 0.81884 0.0
H1140 H 0.081 0.76655 0.7233 0.0
H1141 H 0.10548 0.75683 0.68398 0.0
C1142 C 0.90204 0.30374 0.23582 0.0
C1143 C 0.87052 0.30807 0.22012 0.0
C1144 C 0.84725 0.30138 0.28464 0.0
C1145 C 0.87884 0.29629 0.29999 0.0
N1146 N 0.93438 0.27891 0.28866 0.0
N1147 N 0.81284 0.30167 0.22818 0.0
C1148 C 0.90555 0.29278 0.2749 0.0
C1149 C 0.84298 0.30374 0.24414 0.0
N1150 N 0.9287 0.31311 0.21437 0.0
N1151 N 0.8216 0.30612 0.30888 0.0
H1152 H 0.80917 0.30283 0.19869 0.0
H1153 H 0.79197 0.29507 0.24371 0.0
H1154 H 0.82404 0.30389 0.33849 0.0
H1155 H 0.79851 0.31463 0.29992 0.0
H1156 H 0.95204 0.31439 0.2256 0.0
H1157 H 0.9272 0.32393 0.18641 0.0
H1158 H 0.95437 0.2727 0.27142 0.0
H1159 H 0.93644 0.2686 0.31666 0.0
C1160 C 0.68219 0.80953 0.26875 0.0
C1161 C 0.65709 0.80004 0.29511 0.0
C1162 C 0.61979 0.78811 0.24182 0.0
C1163 C 0.64463 0.79793 0.21526 0.0
N1164 N 0.70145 0.80768 0.20297 0.0
N1165 N 0.60638 0.76565 0.30593 0.0
C1166 C 0.6766 0.80494 0.22864 0.0
C1167 C 0.62737 0.78428 0.28133 0.0
N1168 N 0.71108 0.82397 0.28209 0.0
N1169 N 0.58856 0.78461 0.22967 0.0
H1170 H 0.61221 0.76047 0.3345 0.0
H1171 H 0.5853 0.75089 0.29703 0.0
H1172 H 0.58227 0.7876 0.20107 0.0
H1173 H 0.56887 0.78218 0.24818 0.0
H1174 H 0.72889 0.83665 0.26462 0.0
H1175 H 0.71668 0.82435 0.31114 0.0
H1176 H 0.72572 0.80941 0.21088 0.0
H1177 H 0.69794 0.80501 0.17352 0.0
C1178 C 0.34668 0.22257 0.77857 0.0
C1179 C 0.3715 0.20419 0.80086 0.0
C1180 C 0.40569 0.19902 0.74382 0.0
C1181 C 0.3791 0.21061 0.72051 0.0
N1182 N 0.32339 0.23185 0.71522 0.0
N1183 N 0.42347 0.1702 0.8038 0.0
C1184 C 0.34945 0.22277 0.73776 0.0
C1185 C 0.40086 0.19161 0.78332 0.0
N1186 N 0.32033 0.23913 0.79644 0.0
N1187 N 0.43566 0.19461 0.72788 0.0
H1188 H 0.42098 0.16374 0.83278 0.0
H1189 H 0.44341 0.15579 0.79143 0.0
H1190 H 0.43972 0.19885 0.69879 0.0
H1191 H 0.45674 0.19054 0.74381 0.0
H1192 H 0.30266 0.25615 0.78229 0.0
H1193 H 0.31756 0.23858 0.82612 0.0
H1194 H 0.30008 0.23614 0.72581 0.0
H1195 H 0.32475 0.23287 0.68546 0.0
C1196 C 0.6659 0.21586 0.78417 0.0
C1197 C 0.63438 0.21635 0.80046 0.0
C1198 C 0.61041 0.20987 0.7364 0.0
C1199 C 0.64188 0.20842 0.72012 0.0
N1200 N 0.69909 0.22004 0.72678 0.0
N1201 N 0.57751 0.22743 0.79133 0.0
C1202 C 0.6695 0.21475 0.74354 0.0
C1203 C 0.60694 0.21788 0.77617 0.0
N1204 N 0.69232 0.21441 0.80757 0.0
N1205 N 0.58387 0.20088 0.71455 0.0
H1206 H 0.57495 0.23469 0.82011 0.0
H1207 H 0.55682 0.23266 0.77499 0.0
H1208 H 0.58517 0.19441 0.68541 0.0
H1209 H 0.56079 0.19661 0.72587 0.0
H1210 H 0.71574 0.20858 0.79799 0.0
H1211 H 0.69048 0.21728 0.83714 0.0
H1212 H 0.7199 0.22821 0.74176 0.0
H1213 H 0.70218 0.21995 0.69716 0.0
C1214 C 0.34679 0.78966 0.24526 0.0
C1215 C 0.37364 0.79956 0.22166 0.0
C1216 C 0.40895 0.80255 0.27791 0.0
C1217 C 0.38192 0.79421 0.30202 0.0
N1218 N 0.32676 0.7712 0.30845 0.0
N1219 N 0.43124 0.80703 0.21389 0.0
C1220 C 0.3514 0.78455 0.28554 0.0
C1221 C 0.40508 0.80275 0.23753 0.0
N1222 N 0.3167 0.78684 0.2292 0.0
N1223 N 0.43801 0.81284 0.29387 0.0
H1224 H 0.42906 0.8103 0.18441 0.0
H1225 H 0.45517 0.80453 0.22295 0.0
H1226 H 0.44191 0.81199 0.32318 0.0
H1227 H 0.45756 0.82469 0.27868 0.0
H1228 H 0.29533 0.78474 0.24484 0.0
H1229 H 0.31301 0.78823 0.1997 0.0
H1230 H 0.30466 0.76053 0.29819 0.0
H1231 H 0.32931 0.76754 0.33787 0.0
C1232 C 0.269 0.25629 0.02328 0.0
C1233 C 0.26888 0.21334 0.01561 0.0
C1234 C 0.21994 0.20658 0.05568 0.0
C1235 C 0.21815 0.25009 0.05936 0.0
N1236 N 0.23674 0.31637 0.03749 0.0
N1237 N 0.2421 0.14782 0.02165 0.0
C1238 C 0.24158 0.27495 0.04077 0.0
C1239 C 0.24354 0.1886 0.03077 0.0
N1240 N 0.29533 0.27962 0.01425 0.0
N1241 N 0.20016 0.18229 0.07739 0.0
H1242 H 0.2599 0.13298 1.00563 0.0
H1243 H 0.22226 0.12926 0.02794 0.0
H1244 H 0.18341 0.19414 0.09679 0.0
H1245 H 0.20239 0.15047 0.07895 0.0
H1246 H 0.29805 0.31001 0.02307 0.0
H1247 H 0.31587 0.26761 1.00144 0.0
H1248 H 0.25135 0.33534 0.02079 0.0
H1249 H 0.21604 0.33113 0.04754 0.0
C1250 C 0.76978 0.77741 0.5673 0.0
C1251 C 0.79823 0.76724 0.54651 0.0
C1252 C 0.77487 0.79994 0.48917 0.0
C1253 C 0.74768 0.81324 0.51072 0.0
N1254 N 0.72296 0.82217 0.57275 0.0
N1255 N 0.83073 0.77797 0.4899 0.0
C1256 C 0.74612 0.80399 0.55051 0.0
C1257 C 0.80172 0.78157 0.50825 0.0
N1258 N 0.76528 0.76172 0.60318 0.0
N1259 N 0.77439 0.80232 0.45012 0.0
H1260 H 0.85098 0.7652 0.50276 0.0
H1261 H 0.83558 0.79165 0.46357 0.0
H1262 H 0.75463 0.81335 0.4347 0.0
H1263 H 0.79207 0.78907 0.4328 0.0
H1264 H 0.74344 0.76387 0.61794 0.0
H1265 H 0.78279 0.74426 0.61728 0.0
H1266 H 0.72237 0.81973 0.60244 0.0
H1267 H 0.70626 0.84327 0.56202 0.0
C1268 C 0.25136 0.79753 1.00473 0.0
C1269 C 0.27749 0.8084 0.98037 0.0
C1270 C 0.24798 0.77773 0.92602 0.0
C1271 C 0.22433 0.76156 0.95134 0.0
N1272 N 0.20673 0.75125 0.01649 0.0
N1273 N 0.30286 0.80184 0.91809 0.0
C1274 C 0.22679 0.77036 0.99116 0.0
C1275 C 0.27637 0.79676 0.94104 0.0
N1276 N 0.24932 0.81424 0.04053 0.0
N1277 N 0.24283 0.7765 0.88741 0.0
H1278 H 0.32443 0.81501 0.92725 0.0
H1279 H 0.30451 0.78928 0.89073 0.0
H1280 H 0.22187 0.76433 0.87526 0.0
H1281 H 0.25758 0.79162 0.86777 0.0
H1282 H 0.22915 0.81079 0.05812 0.0
H1283 H 0.26621 0.83518 0.05111 0.0
H1284 H 0.20966 0.75286 0.04607 0.0
H1285 H 0.18919 0.73043 1.00793 0.0
C1286 C 0.7364 0.22509 0.43942 0.0
C1287 C 0.73551 0.20745 0.47673 0.0
C1288 C 0.79046 0.23438 0.48865 0.0
C1289 C 0.79183 0.25061 0.45073 0.0
N1290 N 0.76942 0.25015 0.38711 0.0
N1291 N 0.76478 0.18717 0.53323 0.0
C1292 C 0.76571 0.24271 0.42534 0.0
C1293 C 0.76346 0.2098 0.50029 0.0
N1294 N 0.70895 0.22668 0.41766 0.0
N1295 N 0.81429 0.24356 0.51426 0.0
H1296 H 0.74588 0.16828 0.54232 0.0
H1297 H 0.78569 0.18385 0.54959 0.0
H1298 H 0.83494 0.25979 0.50689 0.0
H1299 H 0.81258 0.23748 0.54343 0.0
H1300 H 0.70715 0.24397 0.39267 0.0
H1301 H 0.68707 0.21364 0.4259 0.0
H1302 H 0.75261 0.2411 0.36655 0.0
H1303 H 0.79099 0.26094 0.37542 0.0
C1304 C 0.71531 0.72301 0.0175 0.0
C1305 C 0.72181 0.75333 0.04589 0.0
C1306 C 0.77971 0.74731 0.03045 0.0
C1307 C 0.77352 0.71331 1.00582 0.0
N1308 N 0.73494 0.66201 0.98543 0.0
N1309 N 0.7621 0.78507 0.08633 0.0
C1310 C 0.74118 0.69891 1.00249 0.0
C1311 C 0.75463 0.7624 0.05468 0.0
N1312 N 0.68509 0.71922 1.00225 0.0
N1313 N 0.80852 0.76766 0.02874 0.0
H1314 H 0.74463 0.79511 0.10576 0.0
H1315 H 0.78587 0.78963 0.09547 0.0
H1316 H 0.82605 0.76099 0.00837 0.0
H1317 H 0.81304 0.79462 0.04393 0.0
H1318 H 0.67995 0.69985 0.97929 0.0
H1319 H 0.66641 0.73934 0.00884 0.0
H1320 H 0.71192 0.64886 0.98513 0.0
H1321 H 0.75321 0.64251 0.97569 0.0
C1322 C 0.29955 0.28843 0.52306 0.0
C1323 C 0.29793 0.26709 0.55857 0.0
C1324 C 0.2429 0.29445 0.5689 0.0
C1325 C 0.24323 0.31233 0.53163 0.0
N1326 N 0.27119 0.32488 0.47229 0.0
N1327 N 0.26748 0.24738 0.61441 0.0
C1328 C 0.27142 0.30889 0.50848 0.0
C1329 C 0.26944 0.26958 0.58123 0.0
N1330 N 0.32813 0.28949 0.50338 0.0
N1331 N 0.21732 0.30145 0.5929 0.0
H1332 H 0.28706 0.23143 0.62603 0.0
H1333 H 0.24607 0.24279 0.62951 0.0
H1334 H 0.19655 0.31731 0.58491 0.0
H1335 H 0.2174 0.29393 0.62184 0.0
H1336 H 0.33224 0.30797 0.47959 0.0
H1337 H 0.34881 0.27406 0.51244 0.0
H1338 H 0.28906 0.31912 0.45201 0.0
H1339 H 0.25214 0.34253 0.46161 0.0
C1340 C 0.77031 0.24901 0.99592 0.0
C1341 C 0.77099 0.29226 1.00213 0.0
C1342 C 0.72422 0.29959 0.95871 0.0
C1343 C 0.72157 0.25609 0.95603 0.0
N1344 N 0.73792 0.18955 0.97965 0.0
N1345 N 0.74659 0.35869 0.99204 0.0
C1346 C 0.74359 0.23083 0.9765 0.0
C1347 C 0.7472 0.3175 0.98442 0.0
N1348 N 0.7952 0.22495 0.00842 0.0
N1349 N 0.70575 0.32386 0.93538 0.0
H1350 H 0.76413 0.37338 0.00856 0.0
H1351 H 0.72765 0.37793 0.98391 0.0
H1352 H 0.68937 0.31195 0.91556 0.0
H1353 H 0.7087 0.35552 0.93303 0.0
H1354 H 0.79791 0.19423 1.00066 0.0
H1355 H 0.81471 0.23642 0.02369 0.0
H1356 H 0.75102 0.17038 0.99782 0.0
H1357 H 0.71798 0.17496 0.96744 0.0
C1358 C 0.24483 0.75521 0.49285 0.0
C1359 C 0.24487 0.71246 0.50152 0.0
C1360 C 0.2932 0.70436 0.46058 0.0
C1361 C 0.29533 0.74775 0.45615 0.0
N1362 N 0.27713 0.81471 0.47666 0.0
N1363 N 0.2712 0.64656 0.4961 0.0
C1364 C 0.27213 0.77325 0.47446 0.0
C1365 C 0.26983 0.68716 0.48626 0.0
N1366 N 0.21871 0.77895 0.50187 0.0
N1367 N 0.3125 0.67939 0.43891 0.0
H1368 H 0.25351 0.63221 0.51265 0.0
H1369 H 0.29086 0.62769 0.4898 0.0
H1370 H 0.32902 0.69067 0.41893 0.0
H1371 H 0.31 0.64758 0.43792 0.0
H1372 H 0.21601 0.80915 0.4925 0.0
H1373 H 0.19826 0.76737 0.51524 0.0
H1374 H 0.2628 0.83422 0.49314 0.0
H1375 H 0.2977 0.8291 0.46581 0.0
C1376 C 0.14614 0.53858 0.01736 0.0
C1377 C 0.12626 0.5401 0.98433 0.0
C1378 C 0.11012 0.46821 0.99451 0.0
C1379 C 0.13186 0.46577 0.02599 0.0
N1380 N 0.17526 0.49611 0.06262 0.0
N1381 N 0.0913 0.50602 0.939 0.0
C1382 C 0.151 0.50037 0.03631 0.0
C1383 C 0.10899 0.50472 0.97208 0.0
N1384 N 0.16056 0.57365 0.03056 0.0
N1385 N 0.08928 0.43649 0.98718 0.0
H1386 H 0.08715 0.53298 0.92364 0.0
H1387 H 0.08206 0.48001 0.92555 0.0
H1388 H 0.08935 0.40898 1.00238 0.0
H1389 H 0.07013 0.43837 0.96791 0.0
H1390 H 0.17187 0.57571 0.0571 0.0
H1391 H 0.15942 0.60166 0.01615 0.0
H1392 H 0.19228 0.51883 0.06847 0.0
H1393 H 0.18052 0.46837 0.07604 0.0
C1394 C 0.86967 0.54483 0.49337 0.0
C1395 C 0.88966 0.54601 0.52633 0.0
C1396 C 0.90417 0.47331 0.51729 0.0
C1397 C 0.88377 0.47187 0.4845 0.0
N1398 N 0.84306 0.5037 0.44481 0.0
N1399 N 0.93006 0.51458 0.56656 0.0
C1400 C 0.86571 0.50712 0.47318 0.0
C1401 C 0.90781 0.51097 0.53769 0.0
N1402 N 0.85469 0.58 0.4812 0.0
N1403 N 0.91984 0.43849 0.52916 0.0
H1404 H 0.93393 0.54178 0.58163 0.0
H1405 H 0.94659 0.49187 0.57405 0.0
H1406 H 0.91996 0.41118 0.51366 0.0
H1407 H 0.9316 0.43561 0.55531 0.0
H1408 H 0.84322 0.58298 0.45486 0.0
H1409 H 0.85525 0.60746 0.49655 0.0
H1410 H 0.82657 0.52661 0.43768 0.0
H1411 H 0.8387 0.47649 0.43009 0.0
C1412 C 0.83186 0.48203 0.01399 0.0
C1413 C 0.86088 0.45851 0.01598 0.0
C1414 C 0.88994 0.51259 0.98049 0.0
C1415 C 0.86133 0.53703 0.97998 0.0
N1416 N 0.80407 0.54354 0.99105 0.0
N1417 N 0.91671 0.4491 0.99881 0.0
C1418 C 0.83199 0.52137 0.9955 0.0
C1419 C 0.88963 0.47317 0.99836 0.0
N1420 N 0.80415 0.46628 0.02961 0.0
N1421 N 0.9178 0.52781 0.9648 0.0
H1422 H 0.91784 0.42187 0.01413 0.0
H1423 H 0.93779 0.45486 0.98349 0.0
H1424 H 0.91852 0.55501 0.94932 0.0
H1425 H 0.94057 0.51458 0.96752 0.0
H1426 H 0.78265 0.48246 0.03288 0.0
H1427 H 0.80271 0.43626 0.03994 0.0
H1428 H 0.78122 0.53356 0.9993 0.0
H1429 H 0.80336 0.57192 0.97722 0.0
C1430 C 0.18377 0.48761 0.49404 0.0
C1431 C 0.15537 0.46287 0.49488 0.0
C1432 C 0.12688 0.51682 0.53098 0.0
C1433 C 0.15499 0.54209 0.52945 0.0
N1434 N 0.21182 0.54924 0.51577 0.0
N1435 N 0.10159 0.45095 0.51863 0.0
C1436 C 0.18389 0.52691 0.51247 0.0
C1437 C 0.12748 0.47666 0.51477 0.0
N1438 N 0.21073 0.47314 0.47578 0.0
N1439 N 0.09908 0.53182 0.54693 0.0
H1440 H 0.10053 0.42262 0.50515 0.0
H1441 H 0.082 0.45623 0.53668 0.0
H1442 H 0.0982 0.55949 0.56163 0.0
H1443 H 0.07646 0.5181 0.54432 0.0
H1444 H 0.23105 0.49081 0.46967 0.0
H1445 H 0.21247 0.44305 0.46568 0.0
H1446 H 0.23452 0.53892 0.50723 0.0
H1447 H 0.21278 0.57764 0.52954 0.0
C1448 C 0.65364 0.03767 0.01404 0.0
C1449 C 0.62974 0.04206 0.98523 0.0
C1450 C 0.61159 0.9711 0.99632 0.0
C1451 C 0.63382 0.96767 0.02723 0.0
N1452 N 0.67412 0.99896 0.06801 0.0
N1453 N 0.58233 0.01612 0.95306 0.0
C1454 C 0.65415 1.00145 0.03694 0.0
C1455 C 0.60782 0.00955 0.97733 0.0
N1456 N 0.67689 0.06727 0.01823 0.0
N1457 N 0.594 0.93763 0.98503 0.0
H1458 H 0.57841 0.04397 0.93904 0.0
H1459 H 0.5634 0.9954 0.94934 0.0
H1460 H 0.59445 0.90958 0.99937 0.0
H1461 H 0.58052 0.93669 0.95989 0.0
H1462 H 0.69723 0.06394 0.03554 0.0
H1463 H 0.67741 0.09412 1.00194 0.0
H1464 H 0.68611 0.02411 0.07972 0.0
H1465 H 0.67747 0.97209 0.08358 0.0
C1466 C 0.3683 0.96472 0.5215 0.0
C1467 C 0.39428 0.95677 0.49608 0.0
C1468 C 0.42185 0.0197 0.51724 0.0
C1469 C 0.39664 0.02652 0.54412 0.0
N1470 N 0.34162 0.0127 0.56391 0.0
N1471 N 0.44633 0.97473 0.46976 0.0
C1472 C 0.36854 1.00123 0.54388 0.0
C1473 C 0.42104 0.98407 0.49354 0.0
N1474 N 0.34388 0.93657 0.52516 0.0
N1475 N 0.4458 0.0485 0.51348 0.0
H1476 H 0.44629 0.94941 0.45149 0.0
H1477 H 0.46821 0.9905 0.46921 0.0
H1478 H 0.44618 0.07561 0.52941 0.0
H1479 H 0.46382 0.04766 0.49275 0.0
H1480 H 0.32646 0.93754 0.54665 0.0
H1481 H 0.34218 0.91025 0.50829 0.0
H1482 H 0.31936 0.99788 0.56195 0.0
H1483 H 0.34015 0.03979 0.57936 0.0
C1484 C 0.39031 0.97633 0.00825 0.0
C1485 C 0.36191 0.96075 0.02576 0.0
C1486 C 0.33308 0.02509 0.00991 0.0
C1487 C 0.36236 0.04189 0.99533 0.0
N1488 N 0.41931 0.03419 0.98163 0.0
N1489 N 0.30603 0.96929 0.04351 0.0
C1490 C 0.39099 0.01749 0.99453 0.0
C1491 C 0.33322 0.98496 0.02667 0.0
N1492 N 0.41665 0.95138 1.0042 0.0
N1493 N 0.30483 0.0466 1.00575 0.0
H1494 H 0.30439 0.93878 0.05249 0.0
H1495 H 0.28551 0.98656 0.04983 0.0
H1496 H 0.30379 0.07574 0.99343 0.0
H1497 H 0.28204 0.03478 0.01199 0.0
H1498 H 0.43673 0.95826 0.9874 0.0
H1499 H 0.41759 0.92218 0.01598 0.0
H1500 H 0.44198 0.02081 0.98522 0.0
H1501 H 0.4205 0.06291 0.96886 0.0
C1502 C 0.62624 0.03879 0.50257 0.0
C1503 C 0.65472 0.0545 0.51974 0.0
C1504 C 0.68361 0.99052 0.50334 0.0
C1505 C 0.65532 0.97521 0.48486 0.0
N1506 N 0.60128 0.98866 0.46122 0.0
N1507 N 0.71207 0.04933 0.53025 0.0
C1508 C 0.62723 1.00065 0.48263 0.0
C1509 C 0.68385 0.03138 0.51845 0.0
N1510 N 0.59766 0.0594 0.50687 0.0
N1511 N 0.71043 0.96616 0.50624 0.0
H1512 H 0.71309 0.07943 0.54047 0.0
H1513 H 0.73483 0.03609 0.52691 0.0
H1514 H 0.7123 0.9378 0.49276 0.0
H1515 H 0.73025 0.97306 0.52346 0.0
H1516 H 0.57514 0.04709 0.49997 0.0
H1517 H 0.59618 0.08791 0.52013 0.0
H1518 H 0.5822 0.00806 0.45392 0.0
H1519 H 0.59967 0.96002 0.44848 0.0
loop_
_geom_bond_atom_site_label_1
_geom_bond_atom_site_label_2
_geom_bond_distance
_geom_bond_site_symmetry_2
_ccdc_geom_bond_type
Co0 O2 2.143 . S
Co0 O8 2.074 . S
Co0 O11 2.093 . S
Co0 O24 2.097 . S
Co0 N41 2.151 . S
Co0 N49 2.214 . S
Co1 O2 2.160 . S
Co1 O7 2.058 . S
Co1 O17 2.057 . S
Co1 O32 2.037 . S
Co1 N36 2.145 . S
Co1 N57 2.257 . S
O2 Co0 2.143 . S
O2 Co1 2.160 . S
C3 O4 1.278 . S
C3 O11 1.224 . S
O4 C3 1.278 . S
C5 O6 1.245 . S
C5 O17 1.232 . S
O6 C5 1.245 . S
O7 Co1 2.058 . S
O7 C33 1.269 . S
O8 Co0 2.074 . S
O8 C33 1.257 . S
H9 C34 0.930 . S
H10 C40 0.930 . S
O11 Co0 2.093 . S
O11 C3 1.224 . S
H12 C44 0.929 . S
H13 C46 0.930 . S
H14 C47 0.930 . S
H15 C45 0.929 . S
H16 C48 0.928 . S
O17 Co1 2.057 . S
O17 C5 1.232 . S
H18 C37 0.929 . S
H19 C38 0.929 . S
H20 C50 0.931 . S
H21 C42 0.929 . S
H22 C51 0.930 . S
H23 C43 0.931 . S
O24 Co0 2.097 . S
O24 C52 1.214 . S
H25 C53 0.929 . S
H26 C54 0.929 . S
H27 C55 0.930 . S
H28 C56 0.929 . S
H29 C58 0.930 . S
H30 C35 0.930 . S
H31 C39 0.930 . S
O32 Co1 2.037 . S
O32 C52 1.234 . S
C33 O7 1.269 . S
C33 O8 1.257 . S
C34 H9 0.930 . S
C34 C37 1.388 . S
C34 C39 1.418 . S
C35 H30 0.930 . S
C35 C38 1.404 . S
C35 C39 1.353 . S
N36 Co1 2.145 . S
N36 C37 1.397 . S
N36 C38 1.334 . S
C37 H18 0.929 . S
C37 C34 1.388 . S
C37 N36 1.397 . S
C38 H19 0.929 . S
C38 C35 1.404 . S
C38 N36 1.334 . S
C39 H31 0.930 . S
C39 C34 1.418 . S
C39 C35 1.353 . S
C40 H10 0.930 . S
C40 N41 1.330 . S
C40 C42 1.446 . S
N41 Co0 2.151 . S
N41 C40 1.330 . S
N41 C45 1.418 . S
C42 H21 0.929 . S
C42 C40 1.446 . S
C42 C43 1.332 . S
C43 H23 0.931 . S
C43 C42 1.332 . S
C43 C44 1.267 . S
C44 H12 0.929 . S
C44 C43 1.267 . S
C44 C45 1.251 . S
C45 H15 0.929 . S
C45 N41 1.418 . S
C45 C44 1.251 . S
C46 H13 0.930 . S
C46 C48 1.406 . S
C46 C51 1.261 . S
C47 H14 0.930 . S
C47 N49 1.325 . S
C47 C50 1.357 . S
C48 H16 0.928 . S
C48 C46 1.406 . S
C48 N49 1.261 . S
N49 Co0 2.214 . S
N49 C47 1.325 . S
N49 C48 1.261 . S
C50 H20 0.931 . S
C50 C47 1.357 . S
C50 C51 1.312 . S
C51 H22 0.930 . S
C51 C46 1.261 . S
C51 C50 1.312 . S
C52 O24 1.214 . S
C52 O32 1.234 . S
C53 H25 0.929 . S
C53 C56 1.391 . S
C53 C58 1.391 . S
C54 H26 0.929 . S
C54 C55 1.390 1_554 S
C54 N57 1.391 . S
C55 H27 0.930 . S
C55 C54 1.390 1_556 S
C55 C56 1.392 . S
C56 H28 0.929 . S
C56 C53 1.391 . S
C56 C55 1.392 . S
N57 Co1 2.257 . S
N57 C54 1.391 . S
N57 C58 1.388 1_554 S
C58 H29 0.930 . S
C58 C53 1.391 . S
C58 N57 1.388 1_556 S
Co59 O61 2.143 . S
Co59 O67 2.074 . S
Co59 O70 2.093 . S
Co59 O83 2.097 . S
Co59 N100 2.151 . S
Co59 N108 2.214 . S
Co60 O61 2.160 . S
Co60 O66 2.058 . S
Co60 O76 2.057 . S
Co60 O91 2.037 . S
Co60 N95 2.145 . S
Co60 N116 2.257 . S
O61 Co59 2.143 . S
O61 Co60 2.160 . S
C62 O63 1.278 . S
C62 O70 1.224 . S
O63 C62 1.278 . S
C64 O65 1.245 . S
C64 O76 1.232 . S
O65 C64 1.245 . S
O66 Co60 2.058 . S
O66 C92 1.269 . S
O67 Co59 2.074 . S
O67 C92 1.257 . S
H68 C93 0.930 . S
H69 C99 0.930 . S
O70 Co59 2.093 . S
O70 C62 1.224 . S
H71 C103 0.929 . S
H72 C105 0.930 . S
H73 C106 0.930 . S
H74 C104 0.929 . S
H75 C107 0.928 . S
O76 Co60 2.057 . S
O76 C64 1.232 . S
H77 C96 0.929 . S
H78 C97 0.929 . S
H79 C109 0.931 . S
H80 C101 0.929 . S
H81 C110 0.930 . S
H82 C102 0.931 . S
O83 Co59 2.097 . S
O83 C111 1.214 . S
H84 C112 0.929 . S
H85 C113 0.929 . S
H86 C114 0.930 . S
H87 C115 0.929 . S
H88 C117 0.930 . S
H89 C94 0.930 . S
H90 C98 0.930 . S
O91 Co60 2.037 . S
O91 C111 1.234 . S
C92 O66 1.269 . S
C92 O67 1.257 . S
C93 H68 0.930 . S
C93 C96 1.388 . S
C93 C98 1.418 . S
C94 H89 0.930 . S
C94 C97 1.404 . S
C94 C98 1.353 . S
N95 Co60 2.145 . S
N95 C96 1.397 . S
N95 C97 1.334 . S
C96 H77 0.929 . S
C96 C93 1.388 . S
C96 N95 1.397 . S
C97 H78 0.929 . S
C97 C94 1.404 . S
C97 N95 1.334 . S
C98 H90 0.930 . S
C98 C93 1.418 . S
C98 C94 1.353 . S
C99 H69 0.930 . S
C99 N100 1.330 . S
C99 C101 1.446 . S
N100 Co59 2.151 . S
N100 C99 1.330 . S
N100 C104 1.418 . S
C101 H80 0.929 . S
C101 C99 1.446 . S
C101 C102 1.332 . S
C102 H82 0.931 . S
C102 C101 1.332 . S
C102 C103 1.267 . S
C103 H71 0.929 . S
C103 C102 1.267 . S
C103 C104 1.251 . S
C104 H74 0.929 . S
C104 N100 1.418 . S
C104 C103 1.251 . S
C105 H72 0.930 . S
C105 C107 1.406 . S
C105 C110 1.261 . S
C106 H73 0.930 . S
C106 N108 1.325 . S
C106 C109 1.357 . S
C107 H75 0.928 . S
C107 C105 1.406 . S
C107 N108 1.261 . S
N108 Co59 2.214 . S
N108 C106 1.325 . S
N108 C107 1.261 . S
C109 H79 0.931 . S
C109 C106 1.357 . S
C109 C110 1.312 . S
C110 H81 0.930 . S
C110 C105 1.261 . S
C110 C109 1.312 . S
C111 O83 1.214 . S
C111 O91 1.234 . S
C112 H84 0.929 . S
C112 C115 1.391 . S
C112 C117 1.391 . S
C113 H85 0.929 . S
C113 C114 1.390 . S
C113 N116 1.391 . S
C114 H86 0.930 . S
C114 C113 1.390 . S
C114 C115 1.392 . S
C115 H87 0.929 . S
C115 C112 1.391 . S
C115 C114 1.392 . S
N116 Co60 2.257 . S
N116 C113 1.391 . S
N116 C117 1.388 . S
C117 H88 0.930 . S
C117 C112 1.391 . S
C117 N116 1.388 . S
Co118 O120 2.143 . S
Co118 O126 2.074 . S
Co118 O129 2.093 . S
Co118 O142 2.097 . S
Co118 N159 2.151 . S
Co118 N167 2.214 . S
Co119 O120 2.160 . S
Co119 O125 2.058 . S
Co119 O135 2.057 . S
Co119 O150 2.037 . S
Co119 N154 2.145 . S
Co119 N175 2.257 . S
O120 Co118 2.143 . S
O120 Co119 2.160 . S
C121 O122 1.278 . S
C121 O129 1.224 . S
O122 C121 1.278 . S
C123 O124 1.245 . S
C123 O135 1.232 . S
O124 C123 1.245 . S
O125 Co119 2.058 . S
O125 C151 1.269 . S
O126 Co118 2.074 . S
O126 C151 1.257 . S
H127 C152 0.930 . S
H128 C158 0.930 . S
O129 Co118 2.093 . S
O129 C121 1.224 . S
H130 C162 0.929 . S
H131 C164 0.930 . S
H132 C165 0.930 . S
H133 C163 0.929 . S
H134 C166 0.928 . S
O135 Co119 2.057 . S
O135 C123 1.232 . S
H136 C155 0.929 . S
H137 C156 0.929 . S
H138 C168 0.931 . S
H139 C160 0.929 . S
H140 C169 0.930 . S
H141 C161 0.931 . S
O142 Co118 2.097 . S
O142 C170 1.214 . S
H143 C171 0.929 . S
H144 C172 0.929 . S
H145 C173 0.930 . S
H146 C174 0.929 . S
H147 C176 0.930 . S
H148 C153 0.930 . S
H149 C157 0.930 . S
O150 Co119 2.037 . S
O150 C170 1.234 . S
C151 O125 1.269 . S
C151 O126 1.257 . S
C152 H127 0.930 . S
C152 C155 1.388 . S
C152 C157 1.418 . S
C153 H148 0.930 . S
C153 C156 1.404 . S
C153 C157 1.353 . S
N154 Co119 2.145 . S
N154 C155 1.397 . S
N154 C156 1.334 . S
C155 H136 0.929 . S
C155 C152 1.388 . S
C155 N154 1.397 . S
C156 H137 0.929 . S
C156 C153 1.404 . S
C156 N154 1.334 . S
C157 H149 0.930 . S
C157 C152 1.418 . S
C157 C153 1.353 . S
C158 H128 0.930 . S
C158 N159 1.330 . S
C158 C160 1.446 . S
N159 Co118 2.151 . S
N159 C158 1.330 . S
N159 C163 1.418 . S
C160 H139 0.929 . S
C160 C158 1.446 . S
C160 C161 1.332 . S
C161 H141 0.931 . S
C161 C160 1.332 . S
C161 C162 1.267 . S
C162 H130 0.929 . S
C162 C161 1.267 . S
C162 C163 1.251 . S
C163 H133 0.929 . S
C163 N159 1.418 . S
C163 C162 1.251 . S
C164 H131 0.930 . S
C164 C166 1.406 . S
C164 C169 1.261 . S
C165 H132 0.930 . S
C165 N167 1.325 . S
C165 C168 1.357 . S
C166 H134 0.928 . S
C166 C164 1.406 . S
C166 N167 1.261 . S
N167 Co118 2.214 . S
N167 C165 1.325 . S
N167 C166 1.261 . S
C168 H138 0.931 . S
C168 C165 1.357 . S
C168 C169 1.312 . S
C169 H140 0.930 . S
C169 C164 1.261 . S
C169 C168 1.312 . S
C170 O142 1.214 . S
C170 O150 1.234 . S
C171 H143 0.929 . S
C171 C174 1.391 . S
C171 C176 1.391 . S
C172 H144 0.929 . S
C172 C173 1.390 1_556 S
C172 N175 1.391 . S
C173 H145 0.930 . S
C173 C172 1.390 1_554 S
C173 C174 1.392 . S
C174 H146 0.929 . S
C174 C171 1.391 . S
C174 C173 1.392 . S
N175 Co119 2.257 . S
N175 C172 1.391 . S
N175 C176 1.388 1_556 S
C176 H147 0.930 . S
C176 C171 1.391 . S
C176 N175 1.388 1_554 S
Co177 O179 2.143 . S
Co177 O185 2.074 . S
Co177 O188 2.093 . S
Co177 O201 2.097 . S
Co177 N218 2.151 . S
Co177 N226 2.214 . S
Co178 O179 2.160 . S
Co178 O184 2.058 . S
Co178 O194 2.057 . S
Co178 O209 2.037 . S
Co178 N213 2.145 . S
Co178 N234 2.257 . S
O179 Co177 2.143 . S
O179 Co178 2.160 . S
C180 O181 1.278 . S
C180 O188 1.224 . S
O181 C180 1.278 . S
C182 O183 1.245 . S
C182 O194 1.232 . S
O183 C182 1.245 . S
O184 Co178 2.058 . S
O184 C210 1.269 . S
O185 Co177 2.074 . S
O185 C210 1.257 . S
H186 C211 0.930 . S
H187 C217 0.930 . S
O188 Co177 2.093 . S
O188 C180 1.224 . S
H189 C221 0.929 . S
H190 C223 0.930 . S
H191 C224 0.930 . S
H192 C222 0.929 . S
H193 C225 0.928 . S
O194 Co178 2.057 . S
O194 C182 1.232 . S
H195 C214 0.929 . S
H196 C215 0.929 . S
H197 C227 0.931 . S
H198 C219 0.929 . S
H199 C228 0.930 . S
H200 C220 0.931 . S
O201 Co177 2.097 . S
O201 C229 1.214 . S
H202 C230 0.929 . S
H203 C231 0.929 . S
H204 C232 0.930 . S
H205 C233 0.929 . S
H206 C235 0.930 . S
H207 C212 0.930 . S
H208 C216 0.930 . S
O209 Co178 2.037 . S
O209 C229 1.234 . S
C210 O184 1.269 . S
C210 O185 1.257 . S
C211 H186 0.930 . S
C211 C214 1.388 . S
C211 C216 1.418 . S
C212 H207 0.930 . S
C212 C215 1.404 . S
C212 C216 1.353 . S
N213 Co178 2.145 . S
N213 C214 1.397 . S
N213 C215 1.334 . S
C214 H195 0.929 . S
C214 C211 1.388 . S
C214 N213 1.397 . S
C215 H196 0.929 . S
C215 C212 1.404 . S
C215 N213 1.334 . S
C216 H208 0.930 . S
C216 C211 1.418 . S
C216 C212 1.353 . S
C217 H187 0.930 . S
C217 N218 1.330 . S
C217 C219 1.446 . S
N218 Co177 2.151 . S
N218 C217 1.330 . S
N218 C222 1.418 . S
C219 H198 0.929 . S
C219 C217 1.446 . S
C219 C220 1.332 . S
C220 H200 0.931 . S
C220 C219 1.332 . S
C220 C221 1.267 . S
C221 H189 0.929 . S
C221 C220 1.267 . S
C221 C222 1.251 . S
C222 H192 0.929 . S
C222 N218 1.418 . S
C222 C221 1.251 . S
C223 H190 0.930 . S
C223 C225 1.406 . S
C223 C228 1.261 . S
C224 H191 0.930 . S
C224 N226 1.325 . S
C224 C227 1.357 . S
C225 H193 0.928 . S
C225 C223 1.406 . S
C225 N226 1.261 . S
N226 Co177 2.214 . S
N226 C224 1.325 . S
N226 C225 1.261 . S
C227 H197 0.931 . S
C227 C224 1.357 . S
C227 C228 1.312 . S
C228 H199 0.930 . S
C228 C223 1.261 . S
C228 C227 1.312 . S
C229 O201 1.214 . S
C229 O209 1.234 . S
C230 H202 0.929 . S
C230 C233 1.391 . S
C230 C235 1.391 . S
C231 H203 0.929 . S
C231 C232 1.390 . S
C231 N234 1.391 . S
C232 H204 0.930 . S
C232 C231 1.390 . S
C232 C233 1.392 . S
C233 H205 0.929 . S
C233 C230 1.391 . S
C233 C232 1.392 . S
N234 Co178 2.257 . S
N234 C231 1.391 . S
N234 C235 1.388 . S
C235 H206 0.930 . S
C235 C230 1.391 . S
C235 N234 1.388 . S
Co236 O238 2.143 . S
Co236 O244 2.074 . S
Co236 O247 2.093 . S
Co236 O260 2.097 . S
Co236 N277 2.151 . S
Co236 N285 2.214 . S
Co237 O238 2.160 . S
Co237 O243 2.058 . S
Co237 O253 2.057 . S
Co237 O268 2.037 . S
Co237 N272 2.145 1_556 S
Co237 N293 2.257 . S
O238 Co236 2.143 . S
O238 Co237 2.160 . S
C239 O240 1.278 . S
C239 O247 1.224 . S
O240 C239 1.278 . S
C241 O242 1.245 . S
C241 O253 1.232 . S
O242 C241 1.245 . S
O243 Co237 2.058 . S
O243 C269 1.269 . S
O244 Co236 2.074 . S
O244 C269 1.257 . S
H245 C270 0.930 . S
H246 C276 0.930 . S
O247 Co236 2.093 . S
O247 C239 1.224 . S
H248 C280 0.929 . S
H249 C282 0.930 . S
H250 C283 0.930 . S
H251 C281 0.929 . S
H252 C284 0.928 . S
O253 Co237 2.057 . S
O253 C241 1.232 . S
H254 C273 0.929 . S
H255 C274 0.929 . S
H256 C286 0.931 . S
H257 C278 0.929 . S
H258 C287 0.930 . S
H259 C279 0.931 . S
O260 Co236 2.097 . S
O260 C288 1.214 . S
H261 C289 0.929 . S
H262 C290 0.929 . S
H263 C291 0.930 . S
H264 C292 0.929 . S
H265 C294 0.930 . S
H266 C271 0.930 . S
H267 C275 0.930 . S
O268 Co237 2.037 . S
O268 C288 1.234 . S
C269 O243 1.269 . S
C269 O244 1.257 . S
C270 H245 0.930 . S
C270 C273 1.388 . S
C270 C275 1.418 . S
C271 H266 0.930 . S
C271 C274 1.404 . S
C271 C275 1.353 . S
N272 Co237 2.145 1_554 S
N272 C273 1.397 . S
N272 C274 1.334 . S
C273 H254 0.929 . S
C273 C270 1.388 . S
C273 N272 1.397 . S
C274 H255 0.929 . S
C274 C271 1.404 . S
C274 N272 1.334 . S
C275 H267 0.930 . S
C275 C270 1.418 . S
C275 C271 1.353 . S
C276 H246 0.930 . S
C276 N277 1.330 . S
C276 C278 1.446 . S
N277 Co236 2.151 . S
N277 C276 1.330 . S
N277 C281 1.418 . S
C278 H257 0.929 . S
C278 C276 1.446 . S
C278 C279 1.332 . S
C279 H259 0.931 . S
C279 C278 1.332 . S
C279 C280 1.267 . S
C280 H248 0.929 . S
C280 C279 1.267 . S
C280 C281 1.251 . S
C281 H251 0.929 . S
C281 N277 1.418 . S
C281 C280 1.251 . S
C282 H249 0.930 . S
C282 C284 1.406 . S
C282 C287 1.261 . S
C283 H250 0.930 . S
C283 N285 1.325 . S
C283 C286 1.357 . S
C284 H252 0.928 . S
C284 C282 1.406 . S
C284 N285 1.261 . S
N285 Co236 2.214 . S
N285 C283 1.325 . S
N285 C284 1.261 . S
C286 H256 0.931 . S
C286 C283 1.357 . S
C286 C287 1.312 . S
C287 H258 0.930 . S
C287 C282 1.261 . S
C287 C286 1.312 . S
C288 O260 1.214 . S
C288 O268 1.234 . S
C289 H261 0.929 . S
C289 C292 1.391 . S
C289 C294 1.391 . S
C290 H262 0.929 . S
C290 C291 1.390 . S
C290 N293 1.391 . S
C291 H263 0.930 . S
C291 C290 1.390 . S
C291 C292 1.392 . S
C292 H264 0.929 . S
C292 C289 1.391 . S
C292 C291 1.392 . S
N293 Co237 2.257 . S
N293 C290 1.391 . S
N293 C294 1.388 . S
C294 H265 0.930 . S
C294 C289 1.391 . S
C294 N293 1.388 . S
Co295 O297 2.143 . S
Co295 O303 2.074 . S
Co295 O306 2.093 . S
Co295 O319 2.097 . S
Co295 N336 2.151 . S
Co295 N344 2.214 . S
Co296 O297 2.160 . S
Co296 O302 2.058 . S
Co296 O312 2.057 . S
Co296 O327 2.037 . S
Co296 N331 2.145 . S
Co296 N352 2.257 . S
O297 Co295 2.143 . S
O297 Co296 2.160 . S
C298 O299 1.278 . S
C298 O306 1.224 . S
O299 C298 1.278 . S
C300 O301 1.245 . S
C300 O312 1.232 . S
O301 C300 1.245 . S
O302 Co296 2.058 . S
O302 C328 1.269 . S
O303 Co295 2.074 . S
O303 C328 1.257 . S
H304 C329 0.930 . S
H305 C335 0.930 . S
O306 Co295 2.093 . S
O306 C298 1.224 . S
H307 C339 0.929 . S
H308 C341 0.930 . S
H309 C342 0.930 . S
H310 C340 0.929 . S
H311 C343 0.928 . S
O312 Co296 2.057 . S
O312 C300 1.232 . S
H313 C332 0.929 . S
H314 C333 0.929 . S
H315 C345 0.931 . S
H316 C337 0.929 . S
H317 C346 0.930 . S
H318 C338 0.931 . S
O319 Co295 2.097 . S
O319 C347 1.214 . S
H320 C348 0.929 . S
H321 C349 0.929 . S
H322 C350 0.930 . S
H323 C351 0.929 . S
H324 C353 0.930 . S
H325 C330 0.930 . S
H326 C334 0.930 . S
O327 Co296 2.037 . S
O327 C347 1.234 . S
C328 O302 1.269 . S
C328 O303 1.257 . S
C329 H304 0.930 . S
C329 C332 1.388 . S
C329 C334 1.418 . S
C330 H325 0.930 . S
C330 C333 1.404 . S
C330 C334 1.353 . S
N331 Co296 2.145 . S
N331 C332 1.397 . S
N331 C333 1.334 . S
C332 H313 0.929 . S
C332 C329 1.388 . S
C332 N331 1.397 . S
C333 H314 0.929 . S
C333 C330 1.404 . S
C333 N331 1.334 . S
C334 H326 0.930 . S
C334 C329 1.418 . S
C334 C330 1.353 . S
C335 H305 0.930 . S
C335 N336 1.330 . S
C335 C337 1.446 . S
N336 Co295 2.151 . S
N336 C335 1.330 . S
N336 C340 1.418 . S
C337 H316 0.929 . S
C337 C335 1.446 . S
C337 C338 1.332 . S
C338 H318 0.931 . S
C338 C337 1.332 . S
C338 C339 1.267 . S
C339 H307 0.929 . S
C339 C338 1.267 . S
C339 C340 1.251 . S
C340 H310 0.929 . S
C340 N336 1.418 . S
C340 C339 1.251 . S
C341 H308 0.930 . S
C341 C343 1.406 . S
C341 C346 1.261 . S
C342 H309 0.930 . S
C342 N344 1.325 . S
C342 C345 1.357 . S
C343 H311 0.928 . S
C343 C341 1.406 . S
C343 N344 1.261 . S
N344 Co295 2.214 . S
N344 C342 1.325 . S
N344 C343 1.261 . S
C345 H315 0.931 . S
C345 C342 1.357 . S
C345 C346 1.312 . S
C346 H317 0.930 . S
C346 C341 1.261 . S
C346 C345 1.312 . S
C347 O319 1.214 . S
C347 O327 1.234 . S
C348 H320 0.929 . S
C348 C351 1.391 . S
C348 C353 1.391 . S
C349 H321 0.929 . S
C349 C350 1.390 . S
C349 N352 1.391 . S
C350 H322 0.930 . S
C350 C349 1.390 . S
C350 C351 1.392 . S
C351 H323 0.929 . S
C351 C348 1.391 . S
C351 C350 1.392 . S
N352 Co296 2.257 . S
N352 C349 1.391 . S
N352 C353 1.388 . S
C353 H324 0.930 . S
C353 C348 1.391 . S
C353 N352 1.388 . S
Co354 O356 2.143 . S
Co354 O362 2.074 . S
Co354 O365 2.093 . S
Co354 O378 2.097 . S
Co354 N395 2.151 . S
Co354 N403 2.214 . S
Co355 O356 2.160 . S
Co355 O361 2.058 . S
Co355 O371 2.057 . S
Co355 O386 2.037 . S
Co355 N390 2.145 1_554 S
Co355 N411 2.257 . S
O356 Co354 2.143 . S
O356 Co355 2.160 . S
C357 O358 1.278 . S
C357 O365 1.224 . S
O358 C357 1.278 . S
C359 O360 1.245 . S
C359 O371 1.232 . S
O360 C359 1.245 . S
O361 Co355 2.058 . S
O361 C387 1.269 . S
O362 Co354 2.074 . S
O362 C387 1.257 . S
H363 C388 0.930 . S
H364 C394 0.930 . S
O365 Co354 2.093 . S
O365 C357 1.224 . S
H366 C398 0.929 . S
H367 C400 0.930 . S
H368 C401 0.930 . S
H369 C399 0.929 . S
H370 C402 0.928 . S
O371 Co355 2.057 . S
O371 C359 1.232 . S
H372 C391 0.929 . S
H373 C392 0.929 . S
H374 C404 0.931 . S
H375 C396 0.929 . S
H376 C405 0.930 . S
H377 C397 0.931 . S
O378 Co354 2.097 . S
O378 C406 1.214 . S
H379 C407 0.929 . S
H380 C408 0.929 . S
H381 C409 0.930 . S
H382 C410 0.929 . S
H383 C412 0.930 . S
H384 C389 0.930 . S
H385 C393 0.930 . S
O386 Co355 2.037 . S
O386 C406 1.234 . S
C387 O361 1.269 . S
C387 O362 1.257 . S
C388 H363 0.930 . S
C388 C391 1.388 . S
C388 C393 1.418 . S
C389 H384 0.930 . S
C389 C392 1.404 . S
C389 C393 1.353 . S
N390 Co355 2.145 1_556 S
N390 C391 1.397 . S
N390 C392 1.334 . S
C391 H372 0.929 . S
C391 C388 1.388 . S
C391 N390 1.397 . S
C392 H373 0.929 . S
C392 C389 1.404 . S
C392 N390 1.334 . S
C393 H385 0.930 . S
C393 C388 1.418 . S
C393 C389 1.353 . S
C394 H364 0.930 . S
C394 N395 1.330 . S
C394 C396 1.446 . S
N395 Co354 2.151 . S
N395 C394 1.330 . S
N395 C399 1.418 . S
C396 H375 0.929 . S
C396 C394 1.446 . S
C396 C397 1.332 . S
C397 H377 0.931 . S
C397 C396 1.332 . S
C397 C398 1.267 . S
C398 H366 0.929 . S
C398 C397 1.267 . S
C398 C399 1.251 . S
C399 H369 0.929 . S
C399 N395 1.418 . S
C399 C398 1.251 . S
C400 H367 0.930 . S
C400 C402 1.406 . S
C400 C405 1.261 . S
C401 H368 0.930 . S
C401 N403 1.325 . S
C401 C404 1.357 . S
C402 H370 0.928 . S
C402 C400 1.406 . S
C402 N403 1.261 . S
N403 Co354 2.214 . S
N403 C401 1.325 . S
N403 C402 1.261 . S
C404 H374 0.931 . S
C404 C401 1.357 . S
C404 C405 1.312 . S
C405 H376 0.930 . S
C405 C400 1.261 . S
C405 C404 1.312 . S
C406 O378 1.214 . S
C406 O386 1.234 . S
C407 H379 0.929 . S
C407 C410 1.391 . S
C407 C412 1.391 . S
C408 H380 0.929 . S
C408 C409 1.390 . S
C408 N411 1.391 . S
C409 H381 0.930 . S
C409 C408 1.390 . S
C409 C410 1.392 . S
C410 H382 0.929 . S
C410 C407 1.391 . S
C410 C409 1.392 . S
N411 Co355 2.257 . S
N411 C408 1.391 . S
N411 C412 1.388 . S
C412 H383 0.930 . S
C412 C407 1.391 . S
C412 N411 1.388 . S
Co413 O415 2.143 . S
Co413 O421 2.074 . S
Co413 O424 2.093 . S
Co413 O437 2.097 . S
Co413 N454 2.151 . S
Co413 N462 2.214 . S
Co414 O415 2.160 . S
Co414 O420 2.058 . S
Co414 O430 2.057 . S
Co414 O445 2.037 . S
Co414 N449 2.145 . S
Co414 N470 2.257 . S
O415 Co413 2.143 . S
O415 Co414 2.160 . S
C416 O417 1.278 . S
C416 O424 1.224 . S
O417 C416 1.278 . S
C418 O419 1.245 . S
C418 O430 1.232 . S
O419 C418 1.245 . S
O420 Co414 2.058 . S
O420 C446 1.269 . S
O421 Co413 2.074 . S
O421 C446 1.257 . S
H422 C447 0.930 . S
H423 C453 0.930 . S
O424 Co413 2.093 . S
O424 C416 1.224 . S
H425 C457 0.929 . S
H426 C459 0.930 . S
H427 C460 0.930 . S
H428 C458 0.929 . S
H429 C461 0.928 . S
O430 Co414 2.057 . S
O430 C418 1.232 . S
H431 C450 0.929 . S
H432 C451 0.929 . S
H433 C463 0.931 . S
H434 C455 0.929 . S
H435 C464 0.930 . S
H436 C456 0.931 . S
O437 Co413 2.097 . S
O437 C465 1.214 . S
H438 C466 0.929 . S
H439 C467 0.929 . S
H440 C468 0.930 . S
H441 C469 0.929 . S
H442 C471 0.930 . S
H443 C448 0.930 . S
H444 C452 0.930 . S
O445 Co414 2.037 . S
O445 C465 1.234 . S
C446 O420 1.269 . S
C446 O421 1.257 . S
C447 H422 0.930 . S
C447 C450 1.388 . S
C447 C452 1.418 . S
C448 H443 0.930 . S
C448 C451 1.404 . S
C448 C452 1.353 . S
N449 Co414 2.145 . S
N449 C450 1.397 . S
N449 C451 1.334 . S
C450 H431 0.929 . S
C450 C447 1.388 . S
C450 N449 1.397 . S
C451 H432 0.929 . S
C451 C448 1.404 . S
C451 N449 1.334 . S
C452 H444 0.930 . S
C452 C447 1.418 . S
C452 C448 1.353 . S
C453 H423 0.930 . S
C453 N454 1.330 . S
C453 C455 1.446 . S
N454 Co413 2.151 . S
N454 C453 1.330 . S
N454 C458 1.418 . S
C455 H434 0.929 . S
C455 C453 1.446 . S
C455 C456 1.332 . S
C456 H436 0.931 . S
C456 C455 1.332 . S
C456 C457 1.267 . S
C457 H425 0.929 . S
C457 C456 1.267 . S
C457 C458 1.251 . S
C458 H428 0.929 . S
C458 N454 1.418 . S
C458 C457 1.251 . S
C459 H426 0.930 . S
C459 C461 1.406 . S
C459 C464 1.261 . S
C460 H427 0.930 . S
C460 N462 1.325 . S
C460 C463 1.357 . S
C461 H429 0.928 . S
C461 C459 1.406 . S
C461 N462 1.261 . S
N462 Co413 2.214 . S
N462 C460 1.325 . S
N462 C461 1.261 . S
C463 H433 0.931 . S
C463 C460 1.357 . S
C463 C464 1.312 . S
C464 H435 0.930 . S
C464 C459 1.261 . S
C464 C463 1.312 . S
C465 O437 1.214 . S
C465 O445 1.234 . S
C466 H438 0.929 . S
C466 C469 1.391 . S
C466 C471 1.391 . S
C467 H439 0.929 . S
C467 C468 1.390 . S
C467 N470 1.391 . S
C468 H440 0.930 . S
C468 C467 1.390 . S
C468 C469 1.392 . S
C469 H441 0.929 . S
C469 C466 1.391 . S
C469 C468 1.392 . S
N470 Co414 2.257 . S
N470 C467 1.391 . S
N470 C471 1.388 . S
C471 H442 0.930 . S
C471 C466 1.391 . S
C471 N470 1.388 . S
Co472 O474 2.143 . S
Co472 O480 2.074 . S
Co472 O483 2.093 . S
Co472 O496 2.097 . S
Co472 N513 2.151 . S
Co472 N521 2.214 . S
Co473 O474 2.160 . S
Co473 O479 2.058 . S
Co473 O489 2.057 . S
Co473 O504 2.037 . S
Co473 N508 2.145 . S
Co473 N529 2.257 . S
O474 Co472 2.143 . S
O474 Co473 2.160 . S
C475 O476 1.278 . S
C475 O483 1.224 . S
O476 C475 1.278 . S
C477 O478 1.245 . S
C477 O489 1.232 . S
O478 C477 1.245 . S
O479 Co473 2.058 . S
O479 C505 1.269 . S
O480 Co472 2.074 . S
O480 C505 1.257 . S
H481 C506 0.930 . S
H482 C512 0.930 . S
O483 Co472 2.093 . S
O483 C475 1.224 . S
H484 C516 0.929 . S
H485 C518 0.930 1_545 S
H486 C519 0.930 . S
H487 C517 0.929 . S
H488 C520 0.928 . S
O489 Co473 2.057 . S
O489 C477 1.232 . S
H490 C509 0.929 . S
H491 C510 0.929 . S
H492 C522 0.931 . S
H493 C514 0.929 . S
H494 C523 0.930 . S
H495 C515 0.931 . S
O496 Co472 2.097 . S
O496 C524 1.214 . S
H497 C525 0.929 . S
H498 C526 0.929 . S
H499 C527 0.930 . S
H500 C528 0.929 . S
H501 C530 0.930 . S
H502 C507 0.930 . S
H503 C511 0.930 . S
O504 Co473 2.037 . S
O504 C524 1.234 . S
C505 O479 1.269 . S
C505 O480 1.257 . S
C506 H481 0.930 . S
C506 C509 1.388 . S
C506 C511 1.418 . S
C507 H502 0.930 . S
C507 C510 1.404 . S
C507 C511 1.353 . S
N508 Co473 2.145 . S
N508 C509 1.397 . S
N508 C510 1.334 . S
C509 H490 0.929 . S
C509 C506 1.388 . S
C509 N508 1.397 . S
C510 H491 0.929 . S
C510 C507 1.404 . S
C510 N508 1.334 . S
C511 H503 0.930 . S
C511 C506 1.418 . S
C511 C507 1.353 . S
C512 H482 0.930 . S
C512 N513 1.330 . S
C512 C514 1.446 . S
N513 Co472 2.151 . S
N513 C512 1.330 . S
N513 C517 1.418 . S
C514 H493 0.929 . S
C514 C512 1.446 . S
C514 C515 1.332 . S
C515 H495 0.931 . S
C515 C514 1.332 . S
C515 C516 1.267 . S
C516 H484 0.929 . S
C516 C515 1.267 . S
C516 C517 1.251 . S
C517 H487 0.929 . S
C517 N513 1.418 . S
C517 C516 1.251 . S
C518 H485 0.930 1_565 S
C518 C520 1.406 . S
C518 C523 1.261 . S
C519 H486 0.930 . S
C519 N521 1.325 . S
C519 C522 1.357 . S
C520 H488 0.928 . S
C520 C518 1.406 . S
C520 N521 1.261 . S
N521 Co472 2.214 . S
N521 C519 1.325 . S
N521 C520 1.261 . S
C522 H492 0.931 . S
C522 C519 1.357 . S
C522 C523 1.312 . S
C523 H494 0.930 . S
C523 C518 1.261 . S
C523 C522 1.312 . S
C524 O496 1.214 . S
C524 O504 1.234 . S
C525 H497 0.929 . S
C525 C528 1.391 . S
C525 C530 1.391 . S
C526 H498 0.929 . S
C526 C527 1.390 1_554 S
C526 N529 1.391 . S
C527 H499 0.930 . S
C527 C526 1.390 1_556 S
C527 C528 1.392 . S
C528 H500 0.929 . S
C528 C525 1.391 . S
C528 C527 1.392 . S
N529 Co473 2.257 . S
N529 C526 1.391 . S
N529 C530 1.388 1_554 S
C530 H501 0.930 . S
C530 C525 1.391 . S
C530 N529 1.388 1_556 S
Co531 O533 2.143 . S
Co531 O539 2.074 . S
Co531 O542 2.093 . S
Co531 O555 2.097 . S
Co531 N572 2.151 . S
Co531 N580 2.214 . S
Co532 O533 2.160 . S
Co532 O538 2.058 . S
Co532 O548 2.057 . S
Co532 O563 2.037 . S
Co532 N567 2.145 . S
Co532 N588 2.257 . S
O533 Co531 2.143 . S
O533 Co532 2.160 . S
C534 O535 1.278 . S
C534 O542 1.224 . S
O535 C534 1.278 . S
C536 O537 1.245 . S
C536 O548 1.232 . S
O537 C536 1.245 . S
O538 Co532 2.058 . S
O538 C564 1.269 . S
O539 Co531 2.074 . S
O539 C564 1.257 . S
H540 C565 0.930 . S
H541 C571 0.930 . S
O542 Co531 2.093 . S
O542 C534 1.224 . S
H543 C575 0.929 . S
H544 C577 0.930 1_565 S
H545 C578 0.930 . S
H546 C576 0.929 . S
H547 C579 0.928 . S
O548 Co532 2.057 . S
O548 C536 1.232 . S
H549 C568 0.929 . S
H550 C569 0.929 . S
H551 C581 0.931 . S
H552 C573 0.929 . S
H553 C582 0.930 . S
H554 C574 0.931 . S
O555 Co531 2.097 . S
O555 C583 1.214 . S
H556 C584 0.929 . S
H557 C585 0.929 . S
H558 C586 0.930 . S
H559 C587 0.929 . S
H560 C589 0.930 . S
H561 C566 0.930 . S
H562 C570 0.930 . S
O563 Co532 2.037 . S
O563 C583 1.234 . S
C564 O538 1.269 . S
C564 O539 1.257 . S
C565 H540 0.930 . S
C565 C568 1.388 . S
C565 C570 1.418 . S
C566 H561 0.930 . S
C566 C569 1.404 . S
C566 C570 1.353 . S
N567 Co532 2.145 . S
N567 C568 1.397 . S
N567 C569 1.334 . S
C568 H549 0.929 . S
C568 C565 1.388 . S
C568 N567 1.397 . S
C569 H550 0.929 . S
C569 C566 1.404 . S
C569 N567 1.334 . S
C570 H562 0.930 . S
C570 C565 1.418 . S
C570 C566 1.353 . S
C571 H541 0.930 . S
C571 N572 1.330 . S
C571 C573 1.446 . S
N572 Co531 2.151 . S
N572 C571 1.330 . S
N572 C576 1.418 . S
C573 H552 0.929 . S
C573 C571 1.446 . S
C573 C574 1.332 . S
C574 H554 0.931 . S
C574 C573 1.332 . S
C574 C575 1.267 . S
C575 H543 0.929 . S
C575 C574 1.267 . S
C575 C576 1.251 . S
C576 H546 0.929 . S
C576 N572 1.418 . S
C576 C575 1.251 . S
C577 H544 0.930 1_545 S
C577 C579 1.406 . S
C577 C582 1.261 . S
C578 H545 0.930 . S
C578 N580 1.325 . S
C578 C581 1.357 . S
C579 H547 0.928 . S
C579 C577 1.406 . S
C579 N580 1.261 . S
N580 Co531 2.214 . S
N580 C578 1.325 . S
N580 C579 1.261 . S
C581 H551 0.931 . S
C581 C578 1.357 . S
C581 C582 1.312 . S
C582 H553 0.930 . S
C582 C577 1.261 . S
C582 C581 1.312 . S
C583 O555 1.214 . S
C583 O563 1.234 . S
C584 H556 0.929 . S
C584 C587 1.391 . S
C584 C589 1.391 . S
C585 H557 0.929 . S
C585 C586 1.390 . S
C585 N588 1.391 . S
C586 H558 0.930 . S
C586 C585 1.390 . S
C586 C587 1.392 . S
C587 H559 0.929 . S
C587 C584 1.391 . S
C587 C586 1.392 . S
N588 Co532 2.257 . S
N588 C585 1.391 . S
N588 C589 1.388 . S
C589 H560 0.930 . S
C589 C584 1.391 . S
C589 N588 1.388 . S
Co590 O592 2.143 . S
Co590 O598 2.074 . S
Co590 O601 2.093 . S
Co590 O614 2.097 . S
Co590 N631 2.151 . S
Co590 N639 2.214 . S
Co591 O592 2.160 . S
Co591 O597 2.058 . S
Co591 O607 2.057 . S
Co591 O622 2.037 . S
Co591 N626 2.145 . S
Co591 N647 2.257 . S
O592 Co590 2.143 . S
O592 Co591 2.160 . S
C593 O594 1.278 . S
C593 O601 1.224 . S
O594 C593 1.278 . S
C595 O596 1.245 . S
C595 O607 1.232 . S
O596 C595 1.245 . S
O597 Co591 2.058 . S
O597 C623 1.269 . S
O598 Co590 2.074 . S
O598 C623 1.257 . S
H599 C624 0.930 . S
H600 C630 0.930 . S
O601 Co590 2.093 . S
O601 C593 1.224 . S
H602 C634 0.929 . S
H603 C636 0.930 1_565 S
H604 C637 0.930 . S
H605 C635 0.929 . S
H606 C638 0.928 . S
O607 Co591 2.057 . S
O607 C595 1.232 . S
H608 C627 0.929 . S
H609 C628 0.929 . S
H610 C640 0.931 . S
H611 C632 0.929 . S
H612 C641 0.930 . S
H613 C633 0.931 . S
O614 Co590 2.097 . S
O614 C642 1.214 . S
H615 C643 0.929 . S
H616 C644 0.929 . S
H617 C645 0.930 . S
H618 C646 0.929 . S
H619 C648 0.930 . S
H620 C625 0.930 . S
H621 C629 0.930 . S
O622 Co591 2.037 . S
O622 C642 1.234 . S
C623 O597 1.269 . S
C623 O598 1.257 . S
C624 H599 0.930 . S
C624 C627 1.388 . S
C624 C629 1.418 . S
C625 H620 0.930 . S
C625 C628 1.404 . S
C625 C629 1.353 . S
N626 Co591 2.145 . S
N626 C627 1.397 . S
N626 C628 1.334 . S
C627 H608 0.929 . S
C627 C624 1.388 . S
C627 N626 1.397 . S
C628 H609 0.929 . S
C628 C625 1.404 . S
C628 N626 1.334 . S
C629 H621 0.930 . S
C629 C624 1.418 . S
C629 C625 1.353 . S
C630 H600 0.930 . S
C630 N631 1.330 . S
C630 C632 1.446 . S
N631 Co590 2.151 . S
N631 C630 1.330 . S
N631 C635 1.418 . S
C632 H611 0.929 . S
C632 C630 1.446 . S
C632 C633 1.332 . S
C633 H613 0.931 . S
C633 C632 1.332 . S
C633 C634 1.267 . S
C634 H602 0.929 . S
C634 C633 1.267 . S
C634 C635 1.251 . S
C635 H605 0.929 . S
C635 N631 1.418 . S
C635 C634 1.251 . S
C636 H603 0.930 1_545 S
C636 C638 1.406 . S
C636 C641 1.261 . S
C637 H604 0.930 . S
C637 N639 1.325 . S
C637 C640 1.357 . S
C638 H606 0.928 . S
C638 C636 1.406 . S
C638 N639 1.261 . S
N639 Co590 2.214 . S
N639 C637 1.325 . S
N639 C638 1.261 . S
C640 H610 0.931 . S
C640 C637 1.357 . S
C640 C641 1.312 . S
C641 H612 0.930 . S
C641 C636 1.261 . S
C641 C640 1.312 . S
C642 O614 1.214 . S
C642 O622 1.234 . S
C643 H615 0.929 . S
C643 C646 1.391 . S
C643 C648 1.391 . S
C644 H616 0.929 . S
C644 C645 1.390 1_556 S
C644 N647 1.391 . S
C645 H617 0.930 . S
C645 C644 1.390 1_554 S
C645 C646 1.392 . S
C646 H618 0.929 . S
C646 C643 1.391 . S
C646 C645 1.392 . S
N647 Co591 2.257 . S
N647 C644 1.391 . S
N647 C648 1.388 1_556 S
C648 H619 0.930 . S
C648 C643 1.391 . S
C648 N647 1.388 1_554 S
Co649 O651 2.143 . S
Co649 O657 2.074 . S
Co649 O660 2.093 . S
Co649 O673 2.097 . S
Co649 N690 2.151 . S
Co649 N698 2.214 . S
Co650 O651 2.160 . S
Co650 O656 2.058 . S
Co650 O666 2.057 . S
Co650 O681 2.037 . S
Co650 N685 2.145 . S
Co650 N706 2.257 . S
O651 Co649 2.143 . S
O651 Co650 2.160 . S
C652 O653 1.278 . S
C652 O660 1.224 . S
O653 C652 1.278 . S
C654 O655 1.245 . S
C654 O666 1.232 . S
O655 C654 1.245 . S
O656 Co650 2.058 . S
O656 C682 1.269 . S
O657 Co649 2.074 . S
O657 C682 1.257 . S
H658 C683 0.930 . S
H659 C689 0.930 . S
O660 Co649 2.093 . S
O660 C652 1.224 . S
H661 C693 0.929 . S
H662 C695 0.930 1_545 S
H663 C696 0.930 . S
H664 C694 0.929 . S
H665 C697 0.928 . S
O666 Co650 2.057 . S
O666 C654 1.232 . S
H667 C686 0.929 . S
H668 C687 0.929 . S
H669 C699 0.931 . S
H670 C691 0.929 . S
H671 C700 0.930 . S
H672 C692 0.931 . S
O673 Co649 2.097 . S
O673 C701 1.214 . S
H674 C702 0.929 . S
H675 C703 0.929 . S
H676 C704 0.930 . S
H677 C705 0.929 . S
H678 C707 0.930 . S
H679 C684 0.930 . S
H680 C688 0.930 . S
O681 Co650 2.037 . S
O681 C701 1.234 . S
C682 O656 1.269 . S
C682 O657 1.257 . S
C683 H658 0.930 . S
C683 C686 1.388 . S
C683 C688 1.418 . S
C684 H679 0.930 . S
C684 C687 1.404 . S
C684 C688 1.353 . S
N685 Co650 2.145 . S
N685 C686 1.397 . S
N685 C687 1.334 . S
C686 H667 0.929 . S
C686 C683 1.388 . S
C686 N685 1.397 . S
C687 H668 0.929 . S
C687 C684 1.404 . S
C687 N685 1.334 . S
C688 H680 0.930 . S
C688 C683 1.418 . S
C688 C684 1.353 . S
C689 H659 0.930 . S
C689 N690 1.330 . S
C689 C691 1.446 . S
N690 Co649 2.151 . S
N690 C689 1.330 . S
N690 C694 1.418 . S
C691 H670 0.929 . S
C691 C689 1.446 . S
C691 C692 1.332 . S
C692 H672 0.931 . S
C692 C691 1.332 . S
C692 C693 1.267 . S
C693 H661 0.929 . S
C693 C692 1.267 . S
C693 C694 1.251 . S
C694 H664 0.929 . S
C694 N690 1.418 . S
C694 C693 1.251 . S
C695 H662 0.930 1_565 S
C695 C697 1.406 . S
C695 C700 1.261 . S
C696 H663 0.930 . S
C696 N698 1.325 . S
C696 C699 1.357 . S
C697 H665 0.928 . S
C697 C695 1.406 . S
C697 N698 1.261 . S
N698 Co649 2.214 . S
N698 C696 1.325 . S
N698 C697 1.261 . S
C699 H669 0.931 . S
C699 C696 1.357 . S
C699 C700 1.312 . S
C700 H671 0.930 . S
C700 C695 1.261 . S
C700 C699 1.312 . S
C701 O673 1.214 . S
C701 O681 1.234 . S
C702 H674 0.929 . S
C702 C705 1.391 . S
C702 C707 1.391 . S
C703 H675 0.929 . S
C703 C704 1.390 . S
C703 N706 1.391 . S
C704 H676 0.930 . S
C704 C703 1.390 . S
C704 C705 1.392 . S
C705 H677 0.929 . S
C705 C702 1.391 . S
C705 C704 1.392 . S
N706 Co650 2.257 . S
N706 C703 1.391 . S
N706 C707 1.388 . S
C707 H678 0.930 . S
C707 C702 1.391 . S
C707 N706 1.388 . S
Co708 O710 2.143 . S
Co708 O716 2.074 . S
Co708 O719 2.093 . S
Co708 O732 2.097 . S
Co708 N749 2.151 . S
Co708 N757 2.214 . S
Co709 O710 2.160 . S
Co709 O715 2.058 . S
Co709 O725 2.057 . S
Co709 O740 2.037 . S
Co709 N744 2.145 1_556 S
Co709 N765 2.257 . S
O710 Co708 2.143 . S
O710 Co709 2.160 . S
C711 O712 1.278 . S
C711 O719 1.224 . S
O712 C711 1.278 . S
C713 O714 1.245 . S
C713 O725 1.232 . S
O714 C713 1.245 . S
O715 Co709 2.058 . S
O715 C741 1.269 . S
O716 Co708 2.074 . S
O716 C741 1.257 . S
H717 C742 0.930 . S
H718 C748 0.930 . S
O719 Co708 2.093 . S
O719 C711 1.224 . S
H720 C752 0.929 1_565 S
H721 C754 0.921 1_565 S
H722 C755 0.930 . S
H723 C753 0.929 . S
H724 C756 0.928 . S
O725 Co709 2.057 . S
O725 C713 1.232 . S
H726 C745 0.929 . S
H727 C746 0.929 . S
H728 C758 0.931 . S
H729 C750 0.929 . S
H730 C759 0.932 . S
H731 C751 0.931 . S
O732 Co708 2.097 . S
O732 C760 1.214 . S
H733 C761 0.929 . S
H734 C762 0.929 . S
H735 C763 0.930 . S
H736 C764 0.929 . S
H737 C766 0.930 . S
H738 C743 0.930 . S
H739 C747 0.930 . S
O740 Co709 2.037 . S
O740 C760 1.234 . S
C741 O715 1.269 . S
C741 O716 1.257 . S
C742 H717 0.930 . S
C742 C745 1.388 . S
C742 C747 1.418 . S
C743 H738 0.930 . S
C743 C746 1.404 . S
C743 C747 1.353 . S
N744 Co709 2.145 1_554 S
N744 C745 1.397 . S
N744 C746 1.334 . S
C745 H726 0.929 . S
C745 C742 1.388 . S
C745 N744 1.397 . S
C746 H727 0.929 . S
C746 C743 1.404 . S
C746 N744 1.334 . S
C747 H739 0.930 . S
C747 C742 1.418 . S
C747 C743 1.353 . S
C748 H718 0.930 . S
C748 N749 1.330 . S
C748 C750 1.446 . S
N749 Co708 2.151 . S
N749 C748 1.330 . S
N749 C753 1.418 . S
C750 H729 0.929 . S
C750 C748 1.446 . S
C750 C751 1.332 . S
C751 H731 0.931 . S
C751 C750 1.332 . S
C751 C752 1.267 . S
C752 H720 0.929 1_545 S
C752 C751 1.267 . S
C752 C753 1.251 . S
C753 H723 0.929 . S
C753 N749 1.418 . S
C753 C752 1.251 . S
C754 H721 0.921 1_545 S
C754 C756 1.406 . S
C754 C759 1.260 1_545 S
C755 H722 0.930 . S
C755 N757 1.325 . S
C755 C758 1.357 . S
C756 H724 0.928 . S
C756 C754 1.406 . S
C756 N757 1.261 . S
N757 Co708 2.214 . S
N757 C755 1.325 . S
N757 C756 1.261 . S
C758 H728 0.931 . S
C758 C755 1.357 . S
C758 C759 1.311 1_545 S
C759 H730 0.932 . S
C759 C754 1.260 1_565 S
C759 C758 1.311 1_565 S
C760 O732 1.214 . S
C760 O740 1.234 . S
C761 H733 0.929 . S
C761 C764 1.391 . S
C761 C766 1.391 . S
C762 H734 0.929 . S
C762 C763 1.390 . S
C762 N765 1.391 . S
C763 H735 0.930 . S
C763 C762 1.390 . S
C763 C764 1.392 . S
C764 H736 0.929 . S
C764 C761 1.391 . S
C764 C763 1.392 . S
N765 Co709 2.257 . S
N765 C762 1.391 . S
N765 C766 1.388 . S
C766 H737 0.930 . S
C766 C761 1.391 . S
C766 N765 1.388 . S
Co767 O769 2.143 . S
Co767 O775 2.074 . S
Co767 O778 2.093 . S
Co767 O791 2.097 . S
Co767 N808 2.151 . S
Co767 N816 2.214 . S
Co768 O769 2.160 . S
Co768 O774 2.058 . S
Co768 O784 2.057 . S
Co768 O799 2.037 . S
Co768 N803 2.145 . S
Co768 N824 2.257 . S
O769 Co767 2.143 . S
O769 Co768 2.160 . S
C770 O771 1.278 . S
C770 O778 1.224 . S
O771 C770 1.278 . S
C772 O773 1.245 . S
C772 O784 1.232 . S
O773 C772 1.245 . S
O774 Co768 2.058 . S
O774 C800 1.269 . S
O775 Co767 2.074 . S
O775 C800 1.257 . S
H776 C801 0.930 . S
H777 C807 0.930 . S
O778 Co767 2.093 . S
O778 C770 1.224 . S
H779 C811 0.929 1_545 S
H780 C813 0.921 1_545 S
H781 C814 0.930 . S
H782 C812 0.929 . S
H783 C815 0.928 . S
O784 Co768 2.057 . S
O784 C772 1.232 . S
H785 C804 0.929 . S
H786 C805 0.929 . S
H787 C817 0.931 . S
H788 C809 0.929 . S
H789 C818 0.932 . S
H790 C810 0.931 . S
O791 Co767 2.097 . S
O791 C819 1.214 . S
H792 C820 0.929 . S
H793 C821 0.929 . S
H794 C822 0.930 . S
H795 C823 0.929 . S
H796 C825 0.930 . S
H797 C802 0.930 . S
H798 C806 0.930 . S
O799 Co768 2.037 . S
O799 C819 1.234 . S
C800 O774 1.269 . S
C800 O775 1.257 . S
C801 H776 0.930 . S
C801 C804 1.388 . S
C801 C806 1.418 . S
C802 H797 0.930 . S
C802 C805 1.404 . S
C802 C806 1.353 . S
N803 Co768 2.145 . S
N803 C804 1.397 . S
N803 C805 1.334 . S
C804 H785 0.929 . S
C804 C801 1.388 . S
C804 N803 1.397 . S
C805 H786 0.929 . S
C805 C802 1.404 . S
C805 N803 1.334 . S
C806 H798 0.930 . S
C806 C801 1.418 . S
C806 C802 1.353 . S
C807 H777 0.930 . S
C807 N808 1.330 . S
C807 C809 1.446 . S
N808 Co767 2.151 . S
N808 C807 1.330 . S
N808 C812 1.418 . S
C809 H788 0.929 . S
C809 C807 1.446 . S
C809 C810 1.332 . S
C810 H790 0.931 . S
C810 C809 1.332 . S
C810 C811 1.267 . S
C811 H779 0.929 1_565 S
C811 C810 1.267 . S
C811 C812 1.251 . S
C812 H782 0.929 . S
C812 N808 1.418 . S
C812 C811 1.251 . S
C813 H780 0.921 1_565 S
C813 C815 1.406 . S
C813 C818 1.260 1_565 S
C814 H781 0.930 . S
C814 N816 1.325 . S
C814 C817 1.357 . S
C815 H783 0.928 . S
C815 C813 1.406 . S
C815 N816 1.261 . S
N816 Co767 2.214 . S
N816 C814 1.325 . S
N816 C815 1.261 . S
C817 H787 0.931 . S
C817 C814 1.357 . S
C817 C818 1.311 1_565 S
C818 H789 0.932 . S
C818 C813 1.260 1_545 S
C818 C817 1.311 1_545 S
C819 O791 1.214 . S
C819 O799 1.234 . S
C820 H792 0.929 . S
C820 C823 1.391 . S
C820 C825 1.391 . S
C821 H793 0.929 . S
C821 C822 1.390 . S
C821 N824 1.391 . S
C822 H794 0.930 . S
C822 C821 1.390 . S
C822 C823 1.392 . S
C823 H795 0.929 . S
C823 C820 1.391 . S
C823 C822 1.392 . S
N824 Co768 2.257 . S
N824 C821 1.391 . S
N824 C825 1.388 . S
C825 H796 0.930 . S
C825 C820 1.391 . S
C825 N824 1.388 . S
Co826 O828 2.143 . S
Co826 O834 2.074 . S
Co826 O837 2.093 . S
Co826 O850 2.097 . S
Co826 N867 2.151 . S
Co826 N875 2.214 . S
Co827 O828 2.160 . S
Co827 O833 2.058 . S
Co827 O843 2.057 . S
Co827 O858 2.037 . S
Co827 N862 2.145 1_554 S
Co827 N883 2.257 . S
O828 Co826 2.143 . S
O828 Co827 2.160 . S
C829 O830 1.278 . S
C829 O837 1.224 . S
O830 C829 1.278 . S
C831 O832 1.245 . S
C831 O843 1.232 . S
O832 C831 1.245 . S
O833 Co827 2.058 . S
O833 C859 1.269 . S
O834 Co826 2.074 . S
O834 C859 1.257 . S
H835 C860 0.930 . S
H836 C866 0.930 . S
O837 Co826 2.093 . S
O837 C829 1.224 . S
H838 C870 0.929 1_545 S
H839 C872 0.921 1_545 S
H840 C873 0.930 . S
H841 C871 0.929 . S
H842 C874 0.928 . S
O843 Co827 2.057 . S
O843 C831 1.232 . S
H844 C863 0.929 . S
H845 C864 0.929 . S
H846 C876 0.931 . S
H847 C868 0.929 . S
H848 C877 0.932 . S
H849 C869 0.931 . S
O850 Co826 2.097 . S
O850 C878 1.214 . S
H851 C879 0.929 . S
H852 C880 0.929 . S
H853 C881 0.930 . S
H854 C882 0.929 . S
H855 C884 0.930 . S
H856 C861 0.930 . S
H857 C865 0.930 . S
O858 Co827 2.037 . S
O858 C878 1.234 . S
C859 O833 1.269 . S
C859 O834 1.257 . S
C860 H835 0.930 . S
C860 C863 1.388 . S
C860 C865 1.418 . S
C861 H856 0.930 . S
C861 C864 1.404 . S
C861 C865 1.353 . S
N862 Co827 2.145 1_556 S
N862 C863 1.397 . S
N862 C864 1.334 . S
C863 H844 0.929 . S
C863 C860 1.388 . S
C863 N862 1.397 . S
C864 H845 0.929 . S
C864 C861 1.404 . S
C864 N862 1.334 . S
C865 H857 0.930 . S
C865 C860 1.418 . S
C865 C861 1.353 . S
C866 H836 0.930 . S
C866 N867 1.330 . S
C866 C868 1.446 . S
N867 Co826 2.151 . S
N867 C866 1.330 . S
N867 C871 1.418 . S
C868 H847 0.929 . S
C868 C866 1.446 . S
C868 C869 1.332 . S
C869 H849 0.931 . S
C869 C868 1.332 . S
C869 C870 1.267 . S
C870 H838 0.929 1_565 S
C870 C869 1.267 . S
C870 C871 1.251 . S
C871 H841 0.929 . S
C871 N867 1.418 . S
C871 C870 1.251 . S
C872 H839 0.921 1_565 S
C872 C874 1.406 . S
C872 C877 1.260 1_565 S
C873 H840 0.930 . S
C873 N875 1.325 . S
C873 C876 1.357 . S
C874 H842 0.928 . S
C874 C872 1.406 . S
C874 N875 1.261 . S
N875 Co826 2.214 . S
N875 C873 1.325 . S
N875 C874 1.261 . S
C876 H846 0.931 . S
C876 C873 1.357 . S
C876 C877 1.311 1_565 S
C877 H848 0.932 . S
C877 C872 1.260 1_545 S
C877 C876 1.311 1_545 S
C878 O850 1.214 . S
C878 O858 1.234 . S
C879 H851 0.929 . S
C879 C882 1.391 . S
C879 C884 1.391 . S
C880 H852 0.929 . S
C880 C881 1.390 . S
C880 N883 1.391 . S
C881 H853 0.930 . S
C881 C880 1.390 . S
C881 C882 1.392 . S
C882 H854 0.929 . S
C882 C879 1.391 . S
C882 C881 1.392 . S
N883 Co827 2.257 . S
N883 C880 1.391 . S
N883 C884 1.388 . S
C884 H855 0.930 . S
C884 C879 1.391 . S
C884 N883 1.388 . S
Co885 O887 2.143 . S
Co885 O893 2.074 . S
Co885 O896 2.093 . S
Co885 O909 2.097 . S
Co885 N926 2.151 . S
Co885 N934 2.214 . S
Co886 O887 2.160 . S
Co886 O892 2.058 . S
Co886 O902 2.057 . S
Co886 O917 2.037 . S
Co886 N921 2.145 . S
Co886 N942 2.257 . S
O887 Co885 2.143 . S
O887 Co886 2.160 . S
C888 O889 1.278 . S
C888 O896 1.224 . S
O889 C888 1.278 . S
C890 O891 1.245 . S
C890 O902 1.232 . S
O891 C890 1.245 . S
O892 Co886 2.058 . S
O892 C918 1.269 . S
O893 Co885 2.074 . S
O893 C918 1.257 . S
H894 C919 0.930 . S
H895 C925 0.930 . S
O896 Co885 2.093 . S
O896 C888 1.224 . S
H897 C929 0.929 1_565 S
H898 C931 0.921 1_565 S
H899 C932 0.930 . S
H900 C930 0.929 . S
H901 C933 0.928 . S
O902 Co886 2.057 . S
O902 C890 1.232 . S
H903 C922 0.929 . S
H904 C923 0.929 . S
H905 C935 0.931 . S
H906 C927 0.929 . S
H907 C936 0.932 . S
H908 C928 0.931 . S
O909 Co885 2.097 . S
O909 C937 1.214 . S
H910 C938 0.929 . S
H911 C939 0.929 . S
H912 C940 0.930 . S
H913 C941 0.929 . S
H914 C943 0.930 . S
H915 C920 0.930 . S
H916 C924 0.930 . S
O917 Co886 2.037 . S
O917 C937 1.234 . S
C918 O892 1.269 . S
C918 O893 1.257 . S
C919 H894 0.930 . S
C919 C922 1.388 . S
C919 C924 1.418 . S
C920 H915 0.930 . S
C920 C923 1.404 . S
C920 C924 1.353 . S
N921 Co886 2.145 . S
N921 C922 1.397 . S
N921 C923 1.334 . S
C922 H903 0.929 . S
C922 C919 1.388 . S
C922 N921 1.397 . S
C923 H904 0.929 . S
C923 C920 1.404 . S
C923 N921 1.334 . S
C924 H916 0.930 . S
C924 C919 1.418 . S
C924 C920 1.353 . S
C925 H895 0.930 . S
C925 N926 1.330 . S
C925 C927 1.446 . S
N926 Co885 2.151 . S
N926 C925 1.330 . S
N926 C930 1.418 . S
C927 H906 0.929 . S
C927 C925 1.446 . S
C927 C928 1.332 . S
C928 H908 0.931 . S
C928 C927 1.332 . S
C928 C929 1.267 . S
C929 H897 0.929 1_545 S
C929 C928 1.267 . S
C929 C930 1.251 . S
C930 H900 0.929 . S
C930 N926 1.418 . S
C930 C929 1.251 . S
C931 H898 0.921 1_545 S
C931 C933 1.406 . S
C931 C936 1.260 1_545 S
C932 H899 0.930 . S
C932 N934 1.325 . S
C932 C935 1.357 . S
C933 H901 0.928 . S
C933 C931 1.406 . S
C933 N934 1.261 . S
N934 Co885 2.214 . S
N934 C932 1.325 . S
N934 C933 1.261 . S
C935 H905 0.931 . S
C935 C932 1.357 . S
C935 C936 1.311 1_545 S
C936 H907 0.932 . S
C936 C931 1.260 1_565 S
C936 C935 1.311 1_565 S
C937 O909 1.214 . S
C937 O917 1.234 . S
C938 H910 0.929 . S
C938 C941 1.391 . S
C938 C943 1.391 . S
C939 H911 0.929 . S
C939 C940 1.390 . S
C939 N942 1.391 . S
C940 H912 0.930 . S
C940 C939 1.390 . S
C940 C941 1.392 . S
C941 H913 0.929 . S
C941 C938 1.391 . S
C941 C940 1.392 . S
N942 Co886 2.257 . S
N942 C939 1.391 . S
N942 C943 1.388 . S
C943 H914 0.930 . S
C943 C938 1.391 . S
C943 N942 1.388 . S
C944 C945 1.363 . S
C944 C950 1.379 1_455 S
C944 N952 1.356 . S
C945 C944 1.363 . S
C945 C951 1.363 . S
C946 C947 1.363 . S
C946 C951 1.379 1_655 S
C946 N953 1.356 . S
C947 C946 1.363 . S
C947 C950 1.363 . S
N948 C950 1.356 . S
N948 H960 0.984 1_554 S
N948 H961 0.985 . S
N949 C951 1.356 . S
N949 H954 0.984 . S
N949 H955 0.985 . S
C950 C944 1.379 1_655 S
C950 C947 1.363 . S
C950 N948 1.356 . S
C951 C945 1.363 . S
C951 C946 1.379 1_455 S
C951 N949 1.356 . S
N952 C944 1.356 . S
N952 H958 0.984 . S
N952 H959 0.984 . S
N953 C946 1.356 . S
N953 H956 0.984 . S
N953 H957 0.985 . S
H954 N949 0.984 . S
H955 N949 0.985 . S
H956 N953 0.984 . S
H957 N953 0.985 . S
H958 N952 0.984 . S
H959 N952 0.984 . S
H960 N948 0.984 1_556 S
H961 N948 0.985 . S
C962 C963 1.363 . S
C962 C968 1.379 1_655 S
C962 N970 1.356 . S
C963 C962 1.363 . S
C963 C969 1.363 . S
C964 C965 1.363 . S
C964 C969 1.379 1_455 S
C964 N971 1.356 . S
C965 C964 1.363 . S
C965 C968 1.363 . S
N966 C968 1.356 . S
N966 H978 0.984 . S
N966 H979 0.985 . S
N967 C969 1.356 . S
N967 H972 0.984 . S
N967 H973 0.985 . S
C968 C962 1.379 1_455 S
C968 C965 1.363 . S
C968 N966 1.356 . S
C969 C963 1.363 . S
C969 C964 1.379 1_655 S
C969 N967 1.356 . S
N970 C962 1.356 . S
N970 H976 0.984 . S
N970 H977 0.984 . S
N971 C964 1.356 . S
N971 H974 0.984 . S
N971 H975 0.985 . S
H972 N967 0.984 . S
H973 N967 0.985 . S
H974 N971 0.984 . S
H975 N971 0.985 . S
H976 N970 0.984 . S
H977 N970 0.984 . S
H978 N966 0.984 . S
H979 N966 0.985 . S
C980 C981 1.363 . S
C980 C986 1.379 1_655 S
C980 N988 1.356 . S
C981 C980 1.363 . S
C981 C987 1.363 . S
C982 C983 1.363 . S
C982 C987 1.379 1_455 S
C982 N989 1.356 . S
C983 C982 1.363 . S
C983 C986 1.363 . S
N984 C986 1.356 . S
N984 H996 0.984 . S
N984 H997 0.985 . S
N985 C987 1.356 . S
N985 H990 0.984 . S
N985 H991 0.985 . S
C986 C980 1.379 1_455 S
C986 C983 1.363 . S
C986 N984 1.356 . S
C987 C981 1.363 . S
C987 C982 1.379 1_655 S
C987 N985 1.356 . S
N988 C980 1.356 . S
N988 H994 0.984 . S
N988 H995 0.984 . S
N989 C982 1.356 . S
N989 H992 0.984 . S
N989 H993 0.985 . S
H990 N985 0.984 . S
H991 N985 0.985 . S
H992 N989 0.984 . S
H993 N989 0.985 . S
H994 N988 0.984 . S
H995 N988 0.984 . S
H996 N984 0.984 . S
H997 N984 0.985 . S
C998 C999 1.363 . S
C998 C1004 1.379 1_455 S
C998 N1006 1.356 . S
C999 C998 1.363 . S
C999 C1005 1.363 . S
C1000 C1001 1.363 . S
C1000 C1005 1.379 1_655 S
C1000 N1007 1.356 . S
C1001 C1000 1.363 . S
C1001 C1004 1.363 . S
N1002 C1004 1.356 . S
N1002 H1014 0.984 . S
N1002 H1015 0.985 . S
N1003 C1005 1.356 . S
N1003 H1008 0.984 . S
N1003 H1009 0.985 . S
C1004 C998 1.379 1_655 S
C1004 C1001 1.363 . S
C1004 N1002 1.356 . S
C1005 C999 1.363 . S
C1005 C1000 1.379 1_455 S
C1005 N1003 1.356 . S
N1006 C998 1.356 . S
N1006 H1012 0.984 . S
N1006 H1013 0.984 . S
N1007 C1000 1.356 . S
N1007 H1010 0.984 . S
N1007 H1011 0.985 . S
H1008 N1003 0.984 . S
H1009 N1003 0.985 . S
H1010 N1007 0.984 . S
H1011 N1007 0.985 . S
H1012 N1006 0.984 . S
H1013 N1006 0.984 . S
H1014 N1002 0.984 . S
H1015 N1002 0.985 . S
C1016 C1017 1.363 . S
C1016 C1022 1.379 . S
C1016 N1024 1.356 . S
C1017 C1016 1.363 . S
C1017 C1023 1.363 . S
C1018 C1019 1.363 . S
C1018 C1023 1.379 . S
C1018 N1025 1.356 . S
C1019 C1018 1.363 . S
C1019 C1022 1.363 . S
N1020 C1022 1.356 . S
N1020 H1032 0.984 . S
N1020 H1033 0.985 . S
N1021 C1023 1.356 . S
N1021 H1026 0.984 . S
N1021 H1027 0.985 . S
C1022 C1016 1.379 . S
C1022 C1019 1.363 . S
C1022 N1020 1.356 . S
C1023 C1017 1.363 . S
C1023 C1018 1.379 . S
C1023 N1021 1.356 . S
N1024 C1016 1.356 . S
N1024 H1030 0.984 . S
N1024 H1031 0.984 . S
N1025 C1018 1.356 . S
N1025 H1028 0.984 . S
N1025 H1029 0.985 . S
H1026 N1021 0.984 . S
H1027 N1021 0.985 . S
H1028 N1025 0.984 . S
H1029 N1025 0.985 . S
H1030 N1024 0.984 . S
H1031 N1024 0.984 . S
H1032 N1020 0.984 . S
H1033 N1020 0.985 . S
C1034 C1035 1.363 . S
C1034 C1040 1.379 . S
C1034 N1042 1.356 . S
C1035 C1034 1.363 . S
C1035 C1041 1.363 . S
C1036 C1037 1.363 . S
C1036 C1041 1.379 . S
C1036 N1043 1.356 . S
C1037 C1036 1.363 . S
C1037 C1040 1.363 . S
N1038 C1040 1.356 . S
N1038 H1050 0.984 . S
N1038 H1051 0.985 . S
N1039 C1041 1.356 . S
N1039 H1044 0.984 . S
N1039 H1045 0.985 . S
C1040 C1034 1.379 . S
C1040 C1037 1.363 . S
C1040 N1038 1.356 . S
C1041 C1035 1.363 . S
C1041 C1036 1.379 . S
C1041 N1039 1.356 . S
N1042 C1034 1.356 . S
N1042 H1048 0.984 . S
N1042 H1049 0.984 . S
N1043 C1036 1.356 . S
N1043 H1046 0.984 . S
N1043 H1047 0.985 . S
H1044 N1039 0.984 . S
H1045 N1039 0.985 . S
H1046 N1043 0.984 . S
H1047 N1043 0.985 . S
H1048 N1042 0.984 . S
H1049 N1042 0.984 . S
H1050 N1038 0.984 . S
H1051 N1038 0.985 . S
C1052 C1053 1.363 . S
C1052 C1058 1.379 . S
C1052 N1060 1.356 . S
C1053 C1052 1.363 . S
C1053 C1059 1.363 . S
C1054 C1055 1.363 . S
C1054 C1059 1.379 . S
C1054 N1061 1.356 . S
C1055 C1054 1.363 . S
C1055 C1058 1.363 . S
N1056 C1058 1.356 . S
N1056 H1068 0.984 1_556 S
N1056 H1069 0.985 . S
N1057 C1059 1.356 . S
N1057 H1062 0.984 . S
N1057 H1063 0.985 . S
C1058 C1052 1.379 . S
C1058 C1055 1.363 . S
C1058 N1056 1.356 . S
C1059 C1053 1.363 . S
C1059 C1054 1.379 . S
C1059 N1057 1.356 . S
N1060 C1052 1.356 . S
N1060 H1066 0.984 . S
N1060 H1067 0.984 . S
N1061 C1054 1.356 . S
N1061 H1064 0.984 . S
N1061 H1065 0.985 . S
H1062 N1057 0.984 . S
H1063 N1057 0.985 . S
H1064 N1061 0.984 . S
H1065 N1061 0.985 . S
H1066 N1060 0.984 . S
H1067 N1060 0.984 . S
H1068 N1056 0.984 1_554 S
H1069 N1056 0.985 . S
C1070 C1071 1.363 . S
C1070 C1076 1.379 . S
C1070 N1078 1.356 . S
C1071 C1070 1.363 . S
C1071 C1077 1.363 . S
C1072 C1073 1.363 . S
C1072 C1077 1.379 . S
C1072 N1079 1.356 . S
C1073 C1072 1.363 . S
C1073 C1076 1.363 . S
N1074 C1076 1.356 . S
N1074 H1086 0.984 . S
N1074 H1087 0.985 . S
N1075 C1077 1.356 . S
N1075 H1080 0.984 . S
N1075 H1081 0.985 . S
C1076 C1070 1.379 . S
C1076 C1073 1.363 . S
C1076 N1074 1.356 . S
C1077 C1071 1.363 . S
C1077 C1072 1.379 . S
C1077 N1075 1.356 . S
N1078 C1070 1.356 . S
N1078 H1084 0.984 . S
N1078 H1085 0.984 . S
N1079 C1072 1.356 . S
N1079 H1082 0.984 . S
N1079 H1083 0.985 . S
H1080 N1075 0.984 . S
H1081 N1075 0.985 . S
H1082 N1079 0.984 . S
H1083 N1079 0.985 . S
H1084 N1078 0.984 . S
H1085 N1078 0.984 . S
H1086 N1074 0.984 . S
H1087 N1074 0.985 . S
C1088 C1089 1.363 . S
C1088 C1094 1.379 . S
C1088 N1096 1.356 . S
C1089 C1088 1.363 . S
C1089 C1095 1.363 . S
C1090 C1091 1.363 . S
C1090 C1095 1.379 . S
C1090 N1097 1.356 . S
C1091 C1090 1.363 . S
C1091 C1094 1.363 . S
N1092 C1094 1.356 . S
N1092 H1104 0.984 . S
N1092 H1105 0.985 . S
N1093 C1095 1.356 . S
N1093 H1098 0.984 . S
N1093 H1099 0.985 . S
C1094 C1088 1.379 . S
C1094 C1091 1.363 . S
C1094 N1092 1.356 . S
C1095 C1089 1.363 . S
C1095 C1090 1.379 . S
C1095 N1093 1.356 . S
N1096 C1088 1.356 . S
N1096 H1102 0.984 . S
N1096 H1103 0.984 . S
N1097 C1090 1.356 . S
N1097 H1100 0.984 . S
N1097 H1101 0.985 . S
H1098 N1093 0.984 . S
H1099 N1093 0.985 . S
H1100 N1097 0.984 . S
H1101 N1097 0.985 . S
H1102 N1096 0.984 . S
H1103 N1096 0.984 . S
H1104 N1092 0.984 . S
H1105 N1092 0.985 . S
C1106 C1107 1.363 . S
C1106 C1112 1.379 . S
C1106 N1114 1.356 . S
C1107 C1106 1.363 . S
C1107 C1113 1.363 . S
C1108 C1109 1.363 . S
C1108 C1113 1.379 . S
C1108 N1115 1.356 . S
C1109 C1108 1.363 . S
C1109 C1112 1.363 . S
N1110 C1112 1.356 . S
N1110 H1122 0.984 . S
N1110 H1123 0.985 . S
N1111 C1113 1.356 . S
N1111 H1116 0.984 . S
N1111 H1117 0.985 . S
C1112 C1106 1.379 . S
C1112 C1109 1.363 . S
C1112 N1110 1.356 . S
C1113 C1107 1.363 . S
C1113 C1108 1.379 . S
C1113 N1111 1.356 . S
N1114 C1106 1.356 . S
N1114 H1120 0.984 . S
N1114 H1121 0.984 . S
N1115 C1108 1.356 . S
N1115 H1118 0.984 . S
N1115 H1119 0.985 . S
H1116 N1111 0.984 . S
H1117 N1111 0.985 . S
H1118 N1115 0.984 . S
H1119 N1115 0.985 . S
H1120 N1114 0.984 . S
H1121 N1114 0.984 . S
H1122 N1110 0.984 . S
H1123 N1110 0.985 . S
C1124 C1125 1.363 . S
C1124 C1130 1.379 . S
C1124 N1132 1.356 . S
C1125 C1124 1.363 . S
C1125 C1131 1.363 . S
C1126 C1127 1.363 . S
C1126 C1131 1.379 . S
C1126 N1133 1.356 . S
C1127 C1126 1.363 . S
C1127 C1130 1.363 . S
N1128 C1130 1.356 . S
N1128 H1140 0.984 . S
N1128 H1141 0.985 . S
N1129 C1131 1.356 . S
N1129 H1134 0.984 . S
N1129 H1135 0.985 . S
C1130 C1124 1.379 . S
C1130 C1127 1.363 . S
C1130 N1128 1.356 . S
C1131 C1125 1.363 . S
C1131 C1126 1.379 . S
C1131 N1129 1.356 . S
N1132 C1124 1.356 . S
N1132 H1138 0.984 . S
N1132 H1139 0.984 . S
N1133 C1126 1.356 . S
N1133 H1136 0.984 . S
N1133 H1137 0.985 . S
H1134 N1129 0.984 . S
H1135 N1129 0.985 . S
H1136 N1133 0.984 . S
H1137 N1133 0.985 . S
H1138 N1132 0.984 . S
H1139 N1132 0.984 . S
H1140 N1128 0.984 . S
H1141 N1128 0.985 . S
C1142 C1143 1.363 . S
C1142 C1148 1.379 . S
C1142 N1150 1.356 . S
C1143 C1142 1.363 . S
C1143 C1149 1.363 . S
C1144 C1145 1.363 . S
C1144 C1149 1.379 . S
C1144 N1151 1.356 . S
C1145 C1144 1.363 . S
C1145 C1148 1.363 . S
N1146 C1148 1.356 . S
N1146 H1158 0.984 . S
N1146 H1159 0.985 . S
N1147 C1149 1.356 . S
N1147 H1152 0.984 . S
N1147 H1153 0.985 . S
C1148 C1142 1.379 . S
C1148 C1145 1.363 . S
C1148 N1146 1.356 . S
C1149 C1143 1.363 . S
C1149 C1144 1.379 . S
C1149 N1147 1.356 . S
N1150 C1142 1.356 . S
N1150 H1156 0.984 . S
N1150 H1157 0.984 . S
N1151 C1144 1.356 . S
N1151 H1154 0.984 . S
N1151 H1155 0.985 . S
H1152 N1147 0.984 . S
H1153 N1147 0.985 . S
H1154 N1151 0.984 . S
H1155 N1151 0.985 . S
H1156 N1150 0.984 . S
H1157 N1150 0.984 . S
H1158 N1146 0.984 . S
H1159 N1146 0.985 . S
C1160 C1161 1.363 . S
C1160 C1166 1.379 . S
C1160 N1168 1.356 . S
C1161 C1160 1.363 . S
C1161 C1167 1.363 . S
C1162 C1163 1.363 . S
C1162 C1167 1.379 . S
C1162 N1169 1.356 . S
C1163 C1162 1.363 . S
C1163 C1166 1.363 . S
N1164 C1166 1.356 . S
N1164 H1176 0.984 . S
N1164 H1177 0.985 . S
N1165 C1167 1.356 . S
N1165 H1170 0.984 . S
N1165 H1171 0.985 . S
C1166 C1160 1.379 . S
C1166 C1163 1.363 . S
C1166 N1164 1.356 . S
C1167 C1161 1.363 . S
C1167 C1162 1.379 . S
C1167 N1165 1.356 . S
N1168 C1160 1.356 . S
N1168 H1174 0.984 . S
N1168 H1175 0.984 . S
N1169 C1162 1.356 . S
N1169 H1172 0.984 . S
N1169 H1173 0.985 . S
H1170 N1165 0.984 . S
H1171 N1165 0.985 . S
H1172 N1169 0.984 . S
H1173 N1169 0.985 . S
H1174 N1168 0.984 . S
H1175 N1168 0.984 . S
H1176 N1164 0.984 . S
H1177 N1164 0.985 . S
C1178 C1179 1.363 . S
C1178 C1184 1.379 . S
C1178 N1186 1.356 . S
C1179 C1178 1.363 . S
C1179 C1185 1.363 . S
C1180 C1181 1.363 . S
C1180 C1185 1.379 . S
C1180 N1187 1.356 . S
C1181 C1180 1.363 . S
C1181 C1184 1.363 . S
N1182 C1184 1.356 . S
N1182 H1194 0.984 . S
N1182 H1195 0.985 . S
N1183 C1185 1.356 . S
N1183 H1188 0.984 . S
N1183 H1189 0.985 . S
C1184 C1178 1.379 . S
C1184 C1181 1.363 . S
C1184 N1182 1.356 . S
C1185 C1179 1.363 . S
C1185 C1180 1.379 . S
C1185 N1183 1.356 . S
N1186 C1178 1.356 . S
N1186 H1192 0.984 . S
N1186 H1193 0.984 . S
N1187 C1180 1.356 . S
N1187 H1190 0.984 . S
N1187 H1191 0.985 . S
H1188 N1183 0.984 . S
H1189 N1183 0.985 . S
H1190 N1187 0.984 . S
H1191 N1187 0.985 . S
H1192 N1186 0.984 . S
H1193 N1186 0.984 . S
H1194 N1182 0.984 . S
H1195 N1182 0.985 . S
C1196 C1197 1.363 . S
C1196 C1202 1.379 . S
C1196 N1204 1.356 . S
C1197 C1196 1.363 . S
C1197 C1203 1.363 . S
C1198 C1199 1.363 . S
C1198 C1203 1.379 . S
C1198 N1205 1.356 . S
C1199 C1198 1.363 . S
C1199 C1202 1.363 . S
N1200 C1202 1.356 . S
N1200 H1212 0.984 . S
N1200 H1213 0.985 . S
N1201 C1203 1.356 . S
N1201 H1206 0.984 . S
N1201 H1207 0.985 . S
C1202 C1196 1.379 . S
C1202 C1199 1.363 . S
C1202 N1200 1.356 . S
C1203 C1197 1.363 . S
C1203 C1198 1.379 . S
C1203 N1201 1.356 . S
N1204 C1196 1.356 . S
N1204 H1210 0.984 . S
N1204 H1211 0.984 . S
N1205 C1198 1.356 . S
N1205 H1208 0.984 . S
N1205 H1209 0.985 . S
H1206 N1201 0.984 . S
H1207 N1201 0.985 . S
H1208 N1205 0.984 . S
H1209 N1205 0.985 . S
H1210 N1204 0.984 . S
H1211 N1204 0.984 . S
H1212 N1200 0.984 . S
H1213 N1200 0.985 . S
C1214 C1215 1.363 . S
C1214 C1220 1.379 . S
C1214 N1222 1.356 . S
C1215 C1214 1.363 . S
C1215 C1221 1.363 . S
C1216 C1217 1.363 . S
C1216 C1221 1.379 . S
C1216 N1223 1.356 . S
C1217 C1216 1.363 . S
C1217 C1220 1.363 . S
N1218 C1220 1.356 . S
N1218 H1230 0.984 . S
N1218 H1231 0.985 . S
N1219 C1221 1.356 . S
N1219 H1224 0.984 . S
N1219 H1225 0.985 . S
C1220 C1214 1.379 . S
C1220 C1217 1.363 . S
C1220 N1218 1.356 . S
C1221 C1215 1.363 . S
C1221 C1216 1.379 . S
C1221 N1219 1.356 . S
N1222 C1214 1.356 . S
N1222 H1228 0.984 . S
N1222 H1229 0.984 . S
N1223 C1216 1.356 . S
N1223 H1226 0.984 . S
N1223 H1227 0.985 . S
H1224 N1219 0.984 . S
H1225 N1219 0.985 . S
H1226 N1223 0.984 . S
H1227 N1223 0.985 . S
H1228 N1222 0.984 . S
H1229 N1222 0.984 . S
H1230 N1218 0.984 . S
H1231 N1218 0.985 . S
C1232 C1233 1.363 . S
C1232 C1238 1.379 1_556 S
C1232 N1240 1.356 . S
C1233 C1232 1.363 . S
C1233 C1239 1.363 . S
C1234 C1235 1.363 . S
C1234 C1239 1.379 1_554 S
C1234 N1241 1.356 . S
C1235 C1234 1.363 . S
C1235 C1238 1.363 . S
N1236 C1238 1.356 . S
N1236 H1248 0.984 . S
N1236 H1249 0.985 . S
N1237 C1239 1.356 . S
N1237 H1242 0.984 . S
N1237 H1243 0.985 . S
C1238 C1232 1.379 1_554 S
C1238 C1235 1.363 . S
C1238 N1236 1.356 . S
C1239 C1233 1.363 . S
C1239 C1234 1.379 1_556 S
C1239 N1237 1.356 . S
N1240 C1232 1.356 . S
N1240 H1246 0.984 . S
N1240 H1247 0.984 . S
N1241 C1234 1.356 . S
N1241 H1244 0.984 . S
N1241 H1245 0.985 . S
H1242 N1237 0.984 . S
H1243 N1237 0.985 . S
H1244 N1241 0.984 . S
H1245 N1241 0.985 . S
H1246 N1240 0.984 . S
H1247 N1240 0.984 . S
H1248 N1236 0.984 . S
H1249 N1236 0.985 . S
C1250 C1251 1.363 . S
C1250 C1256 1.379 . S
C1250 N1258 1.356 . S
C1251 C1250 1.363 . S
C1251 C1257 1.363 . S
C1252 C1253 1.363 . S
C1252 C1257 1.379 . S
C1252 N1259 1.356 . S
C1253 C1252 1.363 . S
C1253 C1256 1.363 . S
N1254 C1256 1.356 . S
N1254 H1266 0.984 . S
N1254 H1267 0.985 . S
N1255 C1257 1.356 . S
N1255 H1260 0.984 . S
N1255 H1261 0.985 . S
C1256 C1250 1.379 . S
C1256 C1253 1.363 . S
C1256 N1254 1.356 . S
C1257 C1251 1.363 . S
C1257 C1252 1.379 . S
C1257 N1255 1.356 . S
N1258 C1250 1.356 . S
N1258 H1264 0.984 . S
N1258 H1265 0.984 . S
N1259 C1252 1.356 . S
N1259 H1262 0.984 . S
N1259 H1263 0.985 . S
H1260 N1255 0.984 . S
H1261 N1255 0.985 . S
H1262 N1259 0.984 . S
H1263 N1259 0.985 . S
H1264 N1258 0.984 . S
H1265 N1258 0.984 . S
H1266 N1254 0.984 . S
H1267 N1254 0.985 . S
C1268 C1269 1.363 . S
C1268 C1274 1.379 . S
C1268 N1276 1.356 . S
C1269 C1268 1.363 . S
C1269 C1275 1.363 1_554 S
C1270 C1271 1.363 . S
C1270 C1275 1.379 . S
C1270 N1277 1.356 . S
C1271 C1270 1.363 . S
C1271 C1274 1.363 1_556 S
N1272 C1274 1.356 . S
N1272 H1284 0.984 . S
N1272 H1285 0.985 1_554 S
N1273 C1275 1.356 . S
N1273 H1278 0.984 1_556 S
N1273 H1279 0.985 . S
C1274 C1268 1.379 . S
C1274 C1271 1.363 1_554 S
C1274 N1272 1.356 . S
C1275 C1269 1.363 1_556 S
C1275 C1270 1.379 . S
C1275 N1273 1.356 . S
N1276 C1268 1.356 . S
N1276 H1282 0.984 . S
N1276 H1283 0.984 . S
N1277 C1270 1.356 . S
N1277 H1280 0.984 . S
N1277 H1281 0.985 . S
H1278 N1273 0.984 1_554 S
H1279 N1273 0.985 . S
H1280 N1277 0.984 . S
H1281 N1277 0.985 . S
H1282 N1276 0.984 . S
H1283 N1276 0.984 . S
H1284 N1272 0.984 . S
H1285 N1272 0.985 1_556 S
C1286 C1287 1.363 . S
C1286 C1292 1.379 . S
C1286 N1294 1.356 . S
C1287 C1286 1.363 . S
C1287 C1293 1.363 . S
C1288 C1289 1.363 . S
C1288 C1293 1.379 . S
C1288 N1295 1.356 . S
C1289 C1288 1.363 . S
C1289 C1292 1.363 . S
N1290 C1292 1.356 . S
N1290 H1302 0.984 . S
N1290 H1303 0.985 . S
N1291 C1293 1.356 . S
N1291 H1296 0.984 . S
N1291 H1297 0.985 . S
C1292 C1286 1.379 . S
C1292 C1289 1.363 . S
C1292 N1290 1.356 . S
C1293 C1287 1.363 . S
C1293 C1288 1.379 . S
C1293 N1291 1.356 . S
N1294 C1286 1.356 . S
N1294 H1300 0.984 . S
N1294 H1301 0.984 . S
N1295 C1288 1.356 . S
N1295 H1298 0.984 . S
N1295 H1299 0.985 . S
H1296 N1291 0.984 . S
H1297 N1291 0.985 . S
H1298 N1295 0.984 . S
H1299 N1295 0.985 . S
H1300 N1294 0.984 . S
H1301 N1294 0.984 . S
H1302 N1290 0.984 . S
H1303 N1290 0.985 . S
C1304 C1305 1.363 . S
C1304 C1310 1.379 1_554 S
C1304 N1312 1.356 . S
C1305 C1304 1.363 . S
C1305 C1311 1.363 . S
C1306 C1307 1.363 1_554 S
C1306 C1311 1.379 . S
C1306 N1313 1.356 1_554 S
C1307 C1306 1.363 1_556 S
C1307 C1310 1.363 . S
N1308 C1310 1.356 . S
N1308 H1320 0.984 . S
N1308 H1321 0.985 . S
N1309 C1311 1.356 . S
N1309 H1314 0.984 . S
N1309 H1315 0.985 . S
C1310 C1304 1.379 1_556 S
C1310 C1307 1.363 . S
C1310 N1308 1.356 . S
C1311 C1305 1.363 . S
C1311 C1306 1.379 . S
C1311 N1309 1.356 . S
N1312 C1304 1.356 . S
N1312 H1318 0.984 . S
N1312 H1319 0.984 . S
N1313 C1306 1.356 1_556 S
N1313 H1316 0.984 . S
N1313 H1317 0.985 1_556 S
H1314 N1309 0.984 . S
H1315 N1309 0.985 . S
H1316 N1313 0.984 . S
H1317 N1313 0.985 1_554 S
H1318 N1312 0.984 . S
H1319 N1312 0.984 . S
H1320 N1308 0.984 . S
H1321 N1308 0.985 . S
C1322 C1323 1.363 . S
C1322 C1328 1.379 . S
C1322 N1330 1.356 . S
C1323 C1322 1.363 . S
C1323 C1329 1.363 . S
C1324 C1325 1.363 . S
C1324 C1329 1.379 . S
C1324 N1331 1.356 . S
C1325 C1324 1.363 . S
C1325 C1328 1.363 . S
N1326 C1328 1.356 . S
N1326 H1338 0.984 . S
N1326 H1339 0.985 . S
N1327 C1329 1.356 . S
N1327 H1332 0.984 . S
N1327 H1333 0.985 . S
C1328 C1322 1.379 . S
C1328 C1325 1.363 . S
C1328 N1326 1.356 . S
C1329 C1323 1.363 . S
C1329 C1324 1.379 . S
C1329 N1327 1.356 . S
N1330 C1322 1.356 . S
N1330 H1336 0.984 . S
N1330 H1337 0.984 . S
N1331 C1324 1.356 . S
N1331 H1334 0.984 . S
N1331 H1335 0.985 . S
H1332 N1327 0.984 . S
H1333 N1327 0.985 . S
H1334 N1331 0.984 . S
H1335 N1331 0.985 . S
H1336 N1330 0.984 . S
H1337 N1330 0.984 . S
H1338 N1326 0.984 . S
H1339 N1326 0.985 . S
C1340 C1341 1.363 . S
C1340 C1346 1.379 1_554 S
C1340 N1348 1.356 . S
C1341 C1340 1.363 . S
C1341 C1347 1.363 . S
C1342 C1343 1.363 . S
C1342 C1347 1.379 1_556 S
C1342 N1349 1.356 . S
C1343 C1342 1.363 . S
C1343 C1346 1.363 . S
N1344 C1346 1.356 . S
N1344 H1356 0.984 . S
N1344 H1357 0.985 . S
N1345 C1347 1.356 . S
N1345 H1350 0.984 . S
N1345 H1351 0.985 . S
C1346 C1340 1.379 1_556 S
C1346 C1343 1.363 . S
C1346 N1344 1.356 . S
C1347 C1341 1.363 . S
C1347 C1342 1.379 1_554 S
C1347 N1345 1.356 . S
N1348 C1340 1.356 . S
N1348 H1354 0.984 . S
N1348 H1355 0.984 . S
N1349 C1342 1.356 . S
N1349 H1352 0.984 . S
N1349 H1353 0.985 . S
H1350 N1345 0.984 . S
H1351 N1345 0.985 . S
H1352 N1349 0.984 . S
H1353 N1349 0.985 . S
H1354 N1348 0.984 . S
H1355 N1348 0.984 . S
H1356 N1344 0.984 . S
H1357 N1344 0.985 . S
C1358 C1359 1.363 . S
C1358 C1364 1.379 . S
C1358 N1366 1.356 . S
C1359 C1358 1.363 . S
C1359 C1365 1.363 . S
C1360 C1361 1.363 . S
C1360 C1365 1.379 . S
C1360 N1367 1.356 . S
C1361 C1360 1.363 . S
C1361 C1364 1.363 . S
N1362 C1364 1.356 . S
N1362 H1374 0.984 . S
N1362 H1375 0.985 . S
N1363 C1365 1.356 . S
N1363 H1368 0.984 . S
N1363 H1369 0.985 . S
C1364 C1358 1.379 . S
C1364 C1361 1.363 . S
C1364 N1362 1.356 . S
C1365 C1359 1.363 . S
C1365 C1360 1.379 . S
C1365 N1363 1.356 . S
N1366 C1358 1.356 . S
N1366 H1372 0.984 . S
N1366 H1373 0.984 . S
N1367 C1360 1.356 . S
N1367 H1370 0.984 . S
N1367 H1371 0.985 . S
H1368 N1363 0.984 . S
H1369 N1363 0.985 . S
H1370 N1367 0.984 . S
H1371 N1367 0.985 . S
H1372 N1366 0.984 . S
H1373 N1366 0.984 . S
H1374 N1362 0.984 . S
H1375 N1362 0.985 . S
C1376 C1377 1.363 1_554 S
C1376 C1382 1.379 . S
C1376 N1384 1.356 . S
C1377 C1376 1.363 1_556 S
C1377 C1383 1.363 . S
C1378 C1379 1.363 1_556 S
C1378 C1383 1.379 . S
C1378 N1385 1.356 . S
C1379 C1378 1.363 1_554 S
C1379 C1382 1.363 . S
N1380 C1382 1.356 . S
N1380 H1392 0.984 . S
N1380 H1393 0.985 . S
N1381 C1383 1.356 . S
N1381 H1386 0.984 . S
N1381 H1387 0.985 . S
C1382 C1376 1.379 . S
C1382 C1379 1.363 . S
C1382 N1380 1.356 . S
C1383 C1377 1.363 . S
C1383 C1378 1.379 . S
C1383 N1381 1.356 . S
N1384 C1376 1.356 . S
N1384 H1390 0.984 . S
N1384 H1391 0.984 . S
N1385 C1378 1.356 . S
N1385 H1388 0.984 . S
N1385 H1389 0.985 . S
H1386 N1381 0.984 . S
H1387 N1381 0.985 . S
H1388 N1385 0.984 . S
H1389 N1385 0.985 . S
H1390 N1384 0.984 . S
H1391 N1384 0.984 . S
H1392 N1380 0.984 . S
H1393 N1380 0.985 . S
C1394 C1395 1.363 . S
C1394 C1400 1.379 . S
C1394 N1402 1.356 . S
C1395 C1394 1.363 . S
C1395 C1401 1.363 . S
C1396 C1397 1.363 . S
C1396 C1401 1.379 . S
C1396 N1403 1.356 . S
C1397 C1396 1.363 . S
C1397 C1400 1.363 . S
N1398 C1400 1.356 . S
N1398 H1410 0.984 . S
N1398 H1411 0.985 . S
N1399 C1401 1.356 . S
N1399 H1404 0.984 . S
N1399 H1405 0.985 . S
C1400 C1394 1.379 . S
C1400 C1397 1.363 . S
C1400 N1398 1.356 . S
C1401 C1395 1.363 . S
C1401 C1396 1.379 . S
C1401 N1399 1.356 . S
N1402 C1394 1.356 . S
N1402 H1408 0.984 . S
N1402 H1409 0.984 . S
N1403 C1396 1.356 . S
N1403 H1406 0.984 . S
N1403 H1407 0.985 . S
H1404 N1399 0.984 . S
H1405 N1399 0.985 . S
H1406 N1403 0.984 . S
H1407 N1403 0.985 . S
H1408 N1402 0.984 . S
H1409 N1402 0.984 . S
H1410 N1398 0.984 . S
H1411 N1398 0.985 . S
C1412 C1413 1.363 . S
C1412 C1418 1.379 . S
C1412 N1420 1.356 . S
C1413 C1412 1.363 . S
C1413 C1419 1.363 1_554 S
C1414 C1415 1.363 . S
C1414 C1419 1.379 . S
C1414 N1421 1.356 . S
C1415 C1414 1.363 . S
C1415 C1418 1.363 1_556 S
N1416 C1418 1.356 . S
N1416 H1428 0.984 . S
N1416 H1429 0.985 . S
N1417 C1419 1.356 . S
N1417 H1422 0.984 . S
N1417 H1423 0.985 . S
C1418 C1412 1.379 . S
C1418 C1415 1.363 1_554 S
C1418 N1416 1.356 . S
C1419 C1413 1.363 1_556 S
C1419 C1414 1.379 . S
C1419 N1417 1.356 . S
N1420 C1412 1.356 . S
N1420 H1426 0.984 . S
N1420 H1427 0.984 . S
N1421 C1414 1.356 . S
N1421 H1424 0.984 . S
N1421 H1425 0.985 . S
H1422 N1417 0.984 . S
H1423 N1417 0.985 . S
H1424 N1421 0.984 . S
H1425 N1421 0.985 . S
H1426 N1420 0.984 . S
H1427 N1420 0.984 . S
H1428 N1416 0.984 . S
H1429 N1416 0.985 . S
C1430 C1431 1.363 . S
C1430 C1436 1.379 . S
C1430 N1438 1.356 . S
C1431 C1430 1.363 . S
C1431 C1437 1.363 . S
C1432 C1433 1.363 . S
C1432 C1437 1.379 . S
C1432 N1439 1.356 . S
C1433 C1432 1.363 . S
C1433 C1436 1.363 . S
N1434 C1436 1.356 . S
N1434 H1446 0.984 . S
N1434 H1447 0.985 . S
N1435 C1437 1.356 . S
N1435 H1440 0.984 . S
N1435 H1441 0.985 . S
C1436 C1430 1.379 . S
C1436 C1433 1.363 . S
C1436 N1434 1.356 . S
C1437 C1431 1.363 . S
C1437 C1432 1.379 . S
C1437 N1435 1.356 . S
N1438 C1430 1.356 . S
N1438 H1444 0.984 . S
N1438 H1445 0.984 . S
N1439 C1432 1.356 . S
N1439 H1442 0.984 . S
N1439 H1443 0.985 . S
H1440 N1435 0.984 . S
H1441 N1435 0.985 . S
H1442 N1439 0.984 . S
H1443 N1439 0.985 . S
H1444 N1438 0.984 . S
H1445 N1438 0.984 . S
H1446 N1434 0.984 . S
H1447 N1434 0.985 . S
C1448 C1449 1.363 1_554 S
C1448 C1454 1.379 1_545 S
C1448 N1456 1.356 . S
C1449 C1448 1.363 1_556 S
C1449 C1455 1.363 . S
C1450 C1451 1.363 1_556 S
C1450 C1455 1.379 1_565 S
C1450 N1457 1.356 . S
C1451 C1450 1.363 1_554 S
C1451 C1454 1.363 . S
N1452 C1454 1.356 . S
N1452 H1464 0.984 . S
N1452 H1465 0.985 . S
N1453 C1455 1.356 . S
N1453 H1458 0.984 . S
N1453 H1459 0.985 . S
C1454 C1448 1.379 1_565 S
C1454 C1451 1.363 . S
C1454 N1452 1.356 . S
C1455 C1449 1.363 . S
C1455 C1450 1.379 1_545 S
C1455 N1453 1.356 . S
N1456 C1448 1.356 . S
N1456 H1462 0.984 . S
N1456 H1463 0.984 . S
N1457 C1450 1.356 . S
N1457 H1460 0.984 . S
N1457 H1461 0.985 . S
H1458 N1453 0.984 . S
H1459 N1453 0.985 . S
H1460 N1457 0.984 . S
H1461 N1457 0.985 . S
H1462 N1456 0.984 . S
H1463 N1456 0.984 . S
H1464 N1452 0.984 . S
H1465 N1452 0.985 . S
C1466 C1467 1.363 . S
C1466 C1472 1.379 1_565 S
C1466 N1474 1.356 . S
C1467 C1466 1.363 . S
C1467 C1473 1.363 . S
C1468 C1469 1.363 . S
C1468 C1473 1.379 1_545 S
C1468 N1475 1.356 . S
C1469 C1468 1.363 . S
C1469 C1472 1.363 . S
N1470 C1472 1.356 . S
N1470 H1482 0.984 . S
N1470 H1483 0.985 . S
N1471 C1473 1.356 . S
N1471 H1476 0.984 . S
N1471 H1477 0.985 . S
C1472 C1466 1.379 1_545 S
C1472 C1469 1.363 . S
C1472 N1470 1.356 . S
C1473 C1467 1.363 . S
C1473 C1468 1.379 1_565 S
C1473 N1471 1.356 . S
N1474 C1466 1.356 . S
N1474 H1480 0.984 . S
N1474 H1481 0.984 . S
N1475 C1468 1.356 . S
N1475 H1478 0.984 . S
N1475 H1479 0.985 . S
H1476 N1471 0.984 . S
H1477 N1471 0.985 . S
H1478 N1475 0.984 . S
H1479 N1475 0.985 . S
H1480 N1474 0.984 . S
H1481 N1474 0.984 . S
H1482 N1470 0.984 . S
H1483 N1470 0.985 . S
C1484 C1485 1.363 1_556 S
C1484 C1490 1.379 1_565 S
C1484 N1492 1.356 . S
C1485 C1484 1.363 1_554 S
C1485 C1491 1.363 . S
C1486 C1487 1.363 1_554 S
C1486 C1491 1.379 1_545 S
C1486 N1493 1.356 . S
C1487 C1486 1.363 1_556 S
C1487 C1490 1.363 . S
N1488 C1490 1.356 . S
N1488 H1500 0.984 . S
N1488 H1501 0.985 . S
N1489 C1491 1.356 . S
N1489 H1494 0.984 . S
N1489 H1495 0.985 . S
C1490 C1484 1.379 1_545 S
C1490 C1487 1.363 . S
C1490 N1488 1.356 . S
C1491 C1485 1.363 . S
C1491 C1486 1.379 1_565 S
C1491 N1489 1.356 . S
N1492 C1484 1.356 . S
N1492 H1498 0.984 . S
N1492 H1499 0.984 . S
N1493 C1486 1.356 . S
N1493 H1496 0.984 . S
N1493 H1497 0.985 . S
H1494 N1489 0.984 . S
H1495 N1489 0.985 . S
H1496 N1493 0.984 . S
H1497 N1493 0.985 . S
H1498 N1492 0.984 . S
H1499 N1492 0.984 . S
H1500 N1488 0.984 . S
H1501 N1488 0.985 . S
C1502 C1503 1.363 . S
C1502 C1508 1.379 1_545 S
C1502 N1510 1.356 . S
C1503 C1502 1.363 . S
C1503 C1509 1.363 . S
C1504 C1505 1.363 . S
C1504 C1509 1.379 1_565 S
C1504 N1511 1.356 . S
C1505 C1504 1.363 . S
C1505 C1508 1.363 . S
N1506 C1508 1.356 . S
N1506 H1518 0.984 . S
N1506 H1519 0.985 . S
N1507 C1509 1.356 . S
N1507 H1512 0.984 . S
N1507 H1513 0.985 . S
C1508 C1502 1.379 1_565 S
C1508 C1505 1.363 . S
C1508 N1506 1.356 . S
C1509 C1503 1.363 . S
C1509 C1504 1.379 1_545 S
C1509 N1507 1.356 . S
N1510 C1502 1.356 . S
N1510 H1516 0.984 . S
N1510 H1517 0.984 . S
N1511 C1504 1.356 . S
N1511 H1514 0.984 . S
N1511 H1515 0.985 . S
H1512 N1507 0.984 . S
H1513 N1507 0.985 . S
H1514 N1511 0.984 . S
H1515 N1511 0.985 . S
H1516 N1510 0.984 . S
H1517 N1510 0.984 . S
H1518 N1506 0.984 . S
H1519 N1506 0.985 . S
C945 C52 1.531 . S
C947 C406 1.538 . S
C963 C111 1.531 . S
C965 C465 1.538 . S
C981 C288 1.538 . S
C983 C170 1.531 . S
C999 C347 1.538 . S
C1001 C229 1.531 . S
C1017 C878 1.538 . S
C1019 C524 1.531 . S
C1035 C937 1.538 . S
C1037 C583 1.531 . S
C1053 C642 1.531 . S
C1055 C760 1.538 . S
C1071 C701 1.531 . S
C1073 C819 1.538 . S
C1089 C33 1.593 . S
C1091 C298 1.580 . S
C1107 C92 1.593 . S
C1109 C239 1.580 . S
C1125 C151 1.593 . S
C1127 C416 1.580 . S
C1143 C357 1.580 . S
C1145 C210 1.593 . S
C1161 C770 1.580 . S
C1163 C505 1.593 . S
C1179 C711 1.580 . S
C1181 C564 1.593 . S
C1197 C623 1.593 . S
C1199 C888 1.580 . S
C1215 C829 1.580 . S
C1217 C682 1.593 . S
C1233 C713 1.567 . S
C1235 C5 1.572 . S
C1251 C64 1.572 . S
C1253 C772 1.567 . S
C1269 C831 1.567 . S
C1271 C123 1.572 . S
C1287 C890 1.567 . S
C1289 C182 1.572 . S
C1305 C477 1.572 . S
C1307 C241 1.567 . S
C1323 C536 1.572 . S
C1325 C300 1.567 . S
C1341 C359 1.567 . S
C1343 C595 1.572 . S
C1359 C418 1.567 . S
C1361 C654 1.572 . S
C1377 C121 1.289 . S
C1379 C3 1.289 . S
C1395 C62 1.289 . S
C1397 C180 1.289 . S
C1413 C387 1.899 . S
C1415 C269 1.899 . S
C1431 C328 1.899 . S
C1433 C446 1.899 . S
C1449 C593 1.289 . S
C1451 C475 1.289 . S
C1467 C652 1.289 . S
C1469 C534 1.289 . S
C1485 C859 1.899 . S
C1487 C741 1.899 . S
C1503 C918 1.899 . S
C1505 C800 1.899 . S
