# Generated by pormake.
# Topology utk, (3)-cn, num edge types: 1
# Building blocks:
#     Node 0, Type 0, BuildingBlock: OLANEW_clean_sbu_2, # of connection points: 3
#     Node 1, Type 0, BuildingBlock: OLANEW_clean_sbu_2, # of connection points: 3
#     Node 2, Type 0, BuildingBlock: OLANEW_clean_sbu_2, # of connection points: 3
#     Node 3, Type 0, BuildingBlock: OLANEW_clean_sbu_2, # of connection points: 3
#     Node 4, Type 0, BuildingBlock: OLANEW_clean_sbu_2, # of connection points: 3
#     Node 5, Type 0, BuildingBlock: OLANEW_clean_sbu_2, # of connection points: 3
#     Node 6, Type 0, BuildingBlock: OLANEW_clean_sbu_2, # of connection points: 3
#     Node 7, Type 0, BuildingBlock: OLANEW_clean_sbu_2, # of connection points: 3
#     Edge 8, Type (0, 0), BuildingBlock: FUNLAD_clean_linker_1, # of connection points: 2
#     Edge 9, Type (0, 0), BuildingBlock: FUNLAD_clean_linker_1, # of connection points: 2
#     Edge 10, Type (0, 0), BuildingBlock: FUNLAD_clean_linker_1, # of connection points: 2
#     Edge 11, Type (0, 0), BuildingBlock: FUNLAD_clean_linker_1, # of connection points: 2
#     Edge 12, Type (0, 0), BuildingBlock: FUNLAD_clean_linker_1, # of connection points: 2
#     Edge 13, Type (0, 0), BuildingBlock: FUNLAD_clean_linker_1, # of connection points: 2
#     Edge 14, Type (0, 0), BuildingBlock: FUNLAD_clean_linker_1, # of connection points: 2
#     Edge 15, Type (0, 0), BuildingBlock: FUNLAD_clean_linker_1, # of connection points: 2
#     Edge 16, Type (0, 0), BuildingBlock: FUNLAD_clean_linker_1, # of connection points: 2
#     Edge 17, Type (0, 0), BuildingBlock: FUNLAD_clean_linker_1, # of connection points: 2
#     Edge 18, Type (0, 0), BuildingBlock: FUNLAD_clean_linker_1, # of connection points: 2
#     Edge 19, Type (0, 0), BuildingBlock: FUNLAD_clean_linker_1, # of connection points: 2
# Relax obj value: 0.000
# Max RMSD: 0.044
# Mean RMSD: 0.044
data_MOF--net-utk--node1-OLANEW_clean_sbu_2--edge1-FUNLAD_clean_linker_1
_symmetry_space_group_name_H-M    P1
_symmetry_Int_Tables_number       1
_symmetry_cell_setting            triclinic
loop_
_symmetry_equiv_pos_as_xyz
'x, y, z'
_cell_length_a     45.226136
_cell_length_b     45.181817
_cell_length_c     32.595728
_cell_angle_alpha  89.982115
_cell_angle_beta   90.017723
_cell_angle_gamma 89.872625
loop_
_atom_site_label
_atom_site_type_symbol
_atom_site_fract_x
_atom_site_fract_y
_atom_site_fract_z
_atom_type_partial_charge
O0 O 0.1547 0.42985 0.28075 0.0
Cd1 Cd 0.14005 0.38043 0.25795 0.0
O2 O 0.11367 0.45217 0.26126 0.0
Cd3 Cd 0.09447 0.41293 0.23277 0.0
O4 O 0.07074 0.38648 0.18739 0.0
C5 C 0.0463 0.39675 0.17442 0.0
O6 O 0.03622 0.42171 0.18975 0.0
C7 C 0.13905 0.45314 0.27797 0.0
C8 C 0.16937 0.33753 0.30415 0.0
O9 O 0.18146 0.34898 0.27239 0.0
O10 O 0.14326 0.34604 0.31398 0.0
O11 O 0.59235 0.16514 0.37795 0.0
Cd12 Cd 0.64295 0.15732 0.35381 0.0
O13 O 0.58922 0.1201 0.40347 0.0
Cd14 Cd 0.63123 0.10547 0.37738 0.0
O15 O 0.65945 0.08151 0.33439 0.0
C16 C 0.66993 0.05628 0.34364 0.0
O17 O 0.66527 0.04546 0.38049 0.0
C18 C 0.57796 0.14556 0.3975 0.0
C19 C 0.68324 0.17851 0.41124 0.0
O20 O 0.67334 0.152 0.41353 0.0
O21 O 0.67442 0.19491 0.3816 0.0
O22 O 0.84137 0.56046 0.73436 0.0
Cd23 Cd 0.85312 0.61227 0.7197 0.0
O24 O 0.88822 0.54924 0.74446 0.0
Cd25 Cd 0.90503 0.59218 0.72488 0.0
O26 O 0.93139 0.62087 0.68543 0.0
C27 C 0.95835 0.61363 0.68115 0.0
O28 O 0.96871 0.59087 0.70179 0.0
C29 C 0.86116 0.54166 0.7439 0.0
C30 C 0.82845 0.65124 0.77642 0.0
O31 O 0.81483 0.6449 0.74308 0.0
O32 O 0.8536 0.63909 0.78312 0.0
O33 O 0.37391 0.87915 0.91346 0.0
Cd34 Cd 0.32098 0.87495 0.89973 0.0
O35 O 0.36732 0.91405 0.95979 0.0
Cd36 Cd 0.32273 0.92345 0.93772 0.0
O37 O 0.29349 0.94352 0.89225 0.0
C38 C 0.3074 0.954 0.86174 0.0
O39 O 0.33635 0.95139 0.86068 0.0
C40 C 0.38417 0.89572 0.9416 0.0
C41 C 0.29766 0.84176 0.96394 0.0
O42 O 0.30653 0.82916 0.93098 0.0
O43 O 0.29868 0.87006 0.96595 0.0
O44 O 0.22743 0.67371 0.31929 0.0
Cd45 Cd 0.25311 0.72096 0.32474 0.0
O46 O 0.19469 0.68934 0.36388 0.0
Cd47 Cd 0.15585 0.6828 0.40254 0.0
O48 O 0.12142 0.67505 0.44812 0.0
C49 C 0.12846 0.67587 0.48585 0.0
O50 O 0.15593 0.68152 0.49615 0.0
C51 C 0.20426 0.66909 0.34034 0.0
C52 C 0.25351 0.75114 0.25032 0.0
O53 O 0.27393 0.7325 0.25925 0.0
O54 O 0.23288 0.75559 0.27651 0.0
O55 O 0.35292 0.15049 0.52155 0.0
Cd56 Cd 0.3044 0.15486 0.55402 0.0
O57 O 0.34261 0.10916 0.48878 0.0
Cd58 Cd 0.30272 0.10216 0.52513 0.0
O59 O 0.28507 0.08295 0.58145 0.0
C60 C 0.29952 0.08913 0.61377 0.0
O61 O 0.32192 0.10747 0.61132 0.0
C62 C 0.36019 0.1304 0.49613 0.0
C63 C 0.26576 0.18557 0.50275 0.0
O64 O 0.28324 0.19935 0.52705 0.0
O65 O 0.26616 0.15723 0.50299 0.0
O66 O 0.84339 0.30115 0.74375 0.0
Cd67 Cd 0.84212 0.24744 0.73529 0.0
O68 O 0.86959 0.29519 0.79973 0.0
Cd69 Cd 0.8942 0.31222 0.85236 0.0
O70 O 0.91833 0.32674 0.90679 0.0
C71 C 0.90433 0.33217 0.93976 0.0
O72 O 0.87548 0.32919 0.94052 0.0
C73 C 0.85719 0.31229 0.77398 0.0
C74 C 0.80446 0.2302 0.67213 0.0
O75 O 0.79518 0.23182 0.70918 0.0
O76 O 0.83152 0.23672 0.66481 0.0
O77 O 0.63002 0.84887 0.97074 0.0
Cd78 Cd 0.68216 0.85064 0.99018 0.0
O79 O 0.61728 0.88599 0.01089 0.0
Cd80 Cd 0.66027 0.893 0.03973 0.0
O81 O 0.68289 0.91366 0.09142 0.0
C82 C 0.69316 0.89871 0.12125 0.0
O83 O 0.69247 0.86969 0.11969 0.0
C84 C 0.61046 0.86647 0.98448 0.0
C85 C 0.71497 0.81363 0.93912 0.0
O86 O 0.70483 0.80416 0.9734 0.0
O87 O 0.70997 0.84059 0.92918 0.0
H88 H 0.17404 0.48174 0.30338 0.0
C89 C 0.15141 0.48157 0.29207 0.0
H90 H 0.11413 0.50743 0.27644 0.0
H91 H 0.20097 0.59612 0.38924 0.0
H92 H 0.19022 0.56322 0.44601 0.0
H93 H 0.16049 0.51813 0.43559 0.0
H94 H 0.14179 0.50543 0.36809 0.0
C95 C 0.13639 0.50718 0.28898 0.0
C96 C 0.1511 0.53608 0.29679 0.0
C97 C 0.16081 0.5438 0.33676 0.0
C98 C 0.17681 0.57051 0.34311 0.0
C99 C 0.18772 0.57678 0.3829 0.0
C100 C 0.18187 0.55796 0.41576 0.0
C101 C 0.16522 0.53252 0.40986 0.0
C102 C 0.15477 0.52541 0.3709 0.0
H103 H 0.16742 0.63836 0.35339 0.0
C104 C 0.18841 0.64064 0.33748 0.0
H105 H 0.21964 0.62013 0.2986 0.0
H106 H 0.13492 0.52831 0.21641 0.0
H107 H 0.14347 0.5624 0.1603 0.0
H108 H 0.16926 0.60971 0.17187 0.0
H109 H 0.18685 0.6231 0.23958 0.0
C110 C 0.19906 0.61782 0.3155 0.0
C111 C 0.18194 0.59003 0.30974 0.0
C112 C 0.17138 0.58273 0.27005 0.0
C113 C 0.15605 0.5557 0.26354 0.0
C114 C 0.14633 0.54873 0.22334 0.0
C115 C 0.15113 0.56808 0.19076 0.0
C116 C 0.16569 0.59469 0.19726 0.0
C117 C 0.17574 0.60205 0.23633 0.0
H118 H 0.53917 0.17455 0.40743 0.0
C119 C 0.5478 0.15232 0.41205 0.0
H120 H 0.53907 0.10945 0.43491 0.0
H121 H 0.43609 0.14496 0.55445 0.0
H122 H 0.47575 0.13605 0.60294 0.0
H123 H 0.52697 0.12846 0.57912 0.0
H124 H 0.53879 0.12954 0.50656 0.0
C125 C 0.53054 0.13158 0.42928 0.0
C126 C 0.49995 0.13829 0.44327 0.0
C127 C 0.49347 0.13803 0.4858 0.0
C128 C 0.46401 0.14286 0.49954 0.0
C129 C 0.45811 0.14183 0.54222 0.0
C130 C 0.48067 0.13668 0.57045 0.0
C131 C 0.5095 0.13237 0.55704 0.0
C132 C 0.51596 0.13299 0.51528 0.0
H133 H 0.39545 0.11206 0.45685 0.0
C134 C 0.3897 0.13043 0.47689 0.0
H135 H 0.40498 0.16904 0.50654 0.0
H136 H 0.50428 0.13832 0.35927 0.0
H137 H 0.4651 0.1495 0.31095 0.0
H138 H 0.41478 0.16144 0.33511 0.0
H139 H 0.40326 0.1617 0.40779 0.0
C140 C 0.41007 0.15117 0.48536 0.0
C141 C 0.44109 0.14807 0.47069 0.0
C142 C 0.44775 0.14936 0.42821 0.0
C143 C 0.47709 0.14381 0.4144 0.0
C144 C 0.4827 0.14347 0.37164 0.0
C145 C 0.46035 0.14969 0.3435 0.0
C146 C 0.432 0.15631 0.35709 0.0
C147 C 0.42565 0.15619 0.3989 0.0
H148 H 0.82973 0.50434 0.74789 0.0
C149 C 0.85283 0.51052 0.75117 0.0
H150 H 0.89655 0.49528 0.75991 0.0
H151 H 0.81827 0.378 0.81844 0.0
H152 H 0.80197 0.40815 0.87574 0.0
H153 H 0.81528 0.46099 0.87993 0.0
H154 H 0.84465 0.48409 0.82654 0.0
C155 C 0.87327 0.48948 0.75823 0.0
C156 C 0.86573 0.45747 0.75697 0.0
C157 C 0.84918 0.44418 0.78897 0.0
C158 C 0.84237 0.41346 0.78726 0.0
C159 C 0.82487 0.40099 0.81882 0.0
C160 C 0.81523 0.41809 0.85179 0.0
C161 C 0.82265 0.44786 0.85409 0.0
C162 C 0.83943 0.46088 0.82315 0.0
H163 H 0.87356 0.35323 0.80324 0.0
C164 C 0.85982 0.34467 0.7786 0.0
H165 H 0.83376 0.35537 0.7269 0.0
H166 H 0.8973 0.47621 0.69007 0.0
H167 H 0.91463 0.44584 0.6337 0.0
H168 H 0.90418 0.39231 0.63182 0.0
H169 H 0.87623 0.36885 0.68621 0.0
C170 C 0.84679 0.36364 0.75244 0.0
C171 C 0.85287 0.39597 0.75414 0.0
C172 C 0.86938 0.40931 0.72215 0.0
C173 C 0.87579 0.44007 0.72355 0.0
C174 C 0.89211 0.45285 0.69094 0.0
C175 C 0.90215 0.43569 0.65828 0.0
C176 C 0.89624 0.40557 0.6572 0.0
C177 C 0.88009 0.3924 0.68865 0.0
H178 H 0.57453 0.84731 0.94692 0.0
C179 C 0.5797 0.86405 0.96976 0.0
H180 H 0.56279 0.89793 0.00788 0.0
H181 H 0.45699 0.89383 0.86833 0.0
H182 H 0.49385 0.91273 0.82114 0.0
H183 H 0.54613 0.91675 0.84194 0.0
H184 H 0.5619 0.90177 0.90991 0.0
C185 C 0.55814 0.88178 0.98404 0.0
C186 C 0.5269 0.87856 0.97058 0.0
C187 C 0.51812 0.88746 0.93065 0.0
C188 C 0.4879 0.8855 0.91884 0.0
C189 C 0.47964 0.89478 0.87892 0.0
C190 C 0.50057 0.90574 0.85153 0.0
C191 C 0.53 0.90797 0.86322 0.0
C192 C 0.53878 0.89912 0.90231 0.0
H193 H 0.42336 0.90887 0.97741 0.0
C194 C 0.41559 0.89409 0.95341 0.0
H195 H 0.42758 0.86097 0.91068 0.0
H196 H 0.53655 0.85902 0.04899 0.0
H197 H 0.49977 0.83954 0.09587 0.0
H198 H 0.44753 0.83528 0.0749 0.0
H199 H 0.43175 0.85064 0.00706 0.0
C200 C 0.43469 0.87527 0.93558 0.0
C201 C 0.46651 0.87515 0.94718 0.0
C202 C 0.47543 0.86553 0.98673 0.0
C203 C 0.50561 0.86754 0.99857 0.0
C204 C 0.5139 0.85804 0.0384 0.0
C205 C 0.49303 0.84673 0.06559 0.0
C206 C 0.46362 0.84436 0.0538 0.0
C207 C 0.45481 0.85348 0.01484 0.0
H208 H 0.20929 0.31301 0.32295 0.0
C209 C 0.18586 0.31594 0.32925 0.0
H210 H 0.14984 0.30363 0.36657 0.0
H211 H 0.26146 0.20655 0.39718 0.0
H212 H 0.2561 0.19366 0.3255 0.0
H213 H 0.21951 0.21919 0.28183 0.0
H214 H 0.18876 0.25844 0.30942 0.0
C215 C 0.17314 0.30046 0.35971 0.0
C216 C 0.19101 0.28111 0.38738 0.0
C217 C 0.20733 0.25681 0.37145 0.0
C218 C 0.22692 0.24067 0.39736 0.0
C219 C 0.24496 0.2184 0.37966 0.0
C220 C 0.24231 0.21093 0.33837 0.0
C221 C 0.22183 0.2254 0.31374 0.0
C222 C 0.20449 0.24808 0.3299 0.0
H223 H 0.22872 0.18927 0.45886 0.0
C224 C 0.24578 0.20169 0.47479 0.0
H225 H 0.26561 0.24337 0.48386 0.0
H226 H 0.1621 0.32564 0.42835 0.0
H227 H 0.1646 0.33604 0.50111 0.0
H228 H 0.19569 0.30567 0.54696 0.0
H229 H 0.22475 0.26493 0.52018 0.0
C230 C 0.24882 0.23081 0.4676 0.0
C231 C 0.22844 0.24738 0.43988 0.0
C232 C 0.21099 0.2707 0.45616 0.0
C233 C 0.19249 0.28775 0.42986 0.0
C234 C 0.17611 0.31155 0.44688 0.0
C235 C 0.17737 0.31784 0.48866 0.0
C236 C 0.19491 0.30079 0.51446 0.0
C237 C 0.21156 0.27749 0.49861 0.0
H238 H 0.71288 0.21238 0.4373 0.0
C239 C 0.70393 0.19033 0.44207 0.0
H240 H 0.70281 0.1529 0.48085 0.0
H241 H 0.82237 0.17709 0.57318 0.0
H242 H 0.83504 0.13376 0.53301 0.0
H243 H 0.80095 0.11474 0.48019 0.0
H244 H 0.75387 0.1388 0.46746 0.0
C245 C 0.71112 0.17519 0.47614 0.0
C246 C 0.73189 0.1875 0.5072 0.0
C247 C 0.75951 0.17341 0.5139 0.0
C248 C 0.77939 0.18469 0.54387 0.0
C249 C 0.80657 0.16976 0.55045 0.0
C250 C 0.81413 0.14481 0.52764 0.0
C251 C 0.79492 0.13408 0.49794 0.0
C252 C 0.76792 0.14809 0.49101 0.0
H253 H 0.76219 0.21358 0.6477 0.0
C254 C 0.78426 0.22081 0.63915 0.0
H255 H 0.81437 0.22758 0.59056 0.0
H256 H 0.67929 0.218 0.50577 0.0
H257 H 0.66783 0.26297 0.54297 0.0
H258 H 0.70435 0.28534 0.5898 0.0
H259 H 0.75222 0.26239 0.60045 0.0
C260 C 0.79215 0.22104 0.59941 0.0
C261 C 0.77173 0.21022 0.56685 0.0
C262 C 0.74448 0.22489 0.55923 0.0
C263 C 0.72415 0.21299 0.53034 0.0
C264 C 0.6962 0.22684 0.52571 0.0
C265 C 0.68922 0.25258 0.54715 0.0
C266 C 0.70971 0.2651 0.57365 0.0
C267 C 0.73705 0.25153 0.57973 0.0
H268 H 0.82721 0.67472 0.83575 0.0
C269 C 0.81581 0.67199 0.80664 0.0
H270 H 0.77924 0.6847 0.77038 0.0
H271 H 0.6974 0.72776 0.91419 0.0
H272 H 0.67147 0.68406 0.89077 0.0
H273 H 0.69411 0.65046 0.84004 0.0
H274 H 0.74272 0.66052 0.81214 0.0
C275 C 0.79116 0.68773 0.79902 0.0
C276 C 0.77811 0.70788 0.83038 0.0
C277 C 0.74983 0.70144 0.84686 0.0
C278 C 0.73702 0.72051 0.87673 0.0
C279 C 0.70845 0.71384 0.89195 0.0
C280 C 0.69324 0.68883 0.8787 0.0
C281 C 0.70597 0.66994 0.8501 0.0
C282 C 0.7339 0.67604 0.83427 0.0
H283 H 0.73723 0.80267 0.88088 0.0
C284 C 0.73134 0.79405 0.91092 0.0
H285 H 0.73207 0.757 0.95036 0.0
H286 H 0.831 0.729 0.8014 0.0
H287 H 0.85808 0.77125 0.82734 0.0
H288 H 0.83807 0.80143 0.88399 0.0
H289 H 0.79052 0.78995 0.91427 0.0
C290 C 0.73854 0.76607 0.92082 0.0
C291 C 0.75265 0.74583 0.89044 0.0
C292 C 0.78126 0.7519 0.87468 0.0
C293 C 0.7936 0.73344 0.8437 0.0
C294 C 0.82121 0.74132 0.82638 0.0
C295 C 0.83691 0.76569 0.84077 0.0
C296 C 0.82559 0.78276 0.87253 0.0
C297 C 0.79813 0.77604 0.88942 0.0
H298 H 0.28928 0.79983 0.99655 0.0
C299 C 0.28861 0.82379 0.9995 0.0
H300 H 0.28299 0.85994 0.03977 0.0
H301 H 0.22789 0.74458 0.14332 0.0
H302 H 0.18923 0.7436 0.09179 0.0
H303 H 0.19093 0.77711 0.03207 0.0
H304 H 0.23158 0.81148 0.02322 0.0
C305 C 0.28239 0.83604 0.03604 0.0
C306 C 0.27965 0.81753 0.07359 0.0
C307 C 0.25519 0.79834 0.079 0.0
C308 C 0.25361 0.77987 0.1143 0.0
C309 C 0.22969 0.75987 0.11792 0.0
C310 C 0.20742 0.75894 0.08841 0.0
C311 C 0.20842 0.77774 0.05472 0.0
C312 C 0.23197 0.79726 0.04991 0.0
H313 H 0.23693 0.78448 0.2064 0.0
C314 C 0.25377 0.76764 0.2113 0.0
H315 H 0.29179 0.74662 0.18741 0.0
H316 H 0.32979 0.85156 0.07235 0.0
H317 H 0.36773 0.85353 0.12476 0.0
H318 H 0.364 0.82294 0.18722 0.0
H319 H 0.32241 0.79002 0.19747 0.0
C320 C 0.27434 0.7628 0.18235 0.0
C321 C 0.27596 0.78146 0.1448 0.0
C322 C 0.30026 0.80086 0.13953 0.0
C323 C 0.30214 0.81886 0.10386 0.0
C324 C 0.32695 0.83768 0.09909 0.0
C325 C 0.34896 0.839 0.12892 0.0
C326 C 0.34689 0.82175 0.16405 0.0
C327 C 0.32289 0.80289 0.16948 0.0
H328 H 0.04066 0.3622 0.12709 0.0
C329 C 0.03065 0.38181 0.14058 0.0
H330 H 0.99564 0.41271 0.13742 0.0
H331 H 0.96651 0.39488 0.95097 0.0
H332 H 0.98891 0.44358 0.95042 0.0
H333 H 0.01309 0.4635 0.01235 0.0
H334 H 0.01487 0.43493 0.07525 0.0
C335 C 0.00526 0.39254 0.12506 0.0
C336 C 0.99151 0.3797 0.08761 0.0
C337 C 0.99094 0.3966 0.05093 0.0
C338 C 0.97738 0.38496 0.01506 0.0
C339 C 0.97678 0.4025 0.97901 0.0
C340 C 0.98954 0.43052 0.97826 0.0
C341 C 0.00312 0.44175 0.01314 0.0
C342 C 0.0039 0.4251 0.0491 0.0
H343 H 0.90686 0.34698 0.00413 0.0
C344 C 0.91997 0.34193 0.97706 0.0
H345 H 0.96286 0.34083 0.95135 0.0
H346 H 0.98669 0.34234 0.15358 0.0
H347 H 0.96603 0.29288 0.15331 0.0
H348 H 0.94538 0.27147 0.08988 0.0
H349 H 0.94483 0.29961 0.02652 0.0
C350 C 0.9495 0.3449 0.97849 0.0
C351 C 0.96447 0.35642 0.01586 0.0
C352 C 0.9656 0.33922 0.05227 0.0
C353 C 0.97863 0.3511 0.08842 0.0
C354 C 0.97807 0.33404 0.12487 0.0
C355 C 0.96611 0.30566 0.12521 0.0
C356 C 0.9544 0.29364 0.08954 0.0
C357 C 0.95408 0.31011 0.05342 0.0
H358 H 0.68301 0.04679 0.27996 0.0
C359 C 0.68265 0.03774 0.31088 0.0
H360 H 0.68886 0.99962 0.34736 0.0
H361 H 0.64908 0.92019 0.1966 0.0
H362 H 0.60906 0.91281 0.24462 0.0
H363 H 0.60765 0.93989 0.31025 0.0
H364 H 0.64619 0.9747 0.32799 0.0
C365 C 0.6902 0.0093 0.3169 0.0
C366 C 0.69441 0.98925 0.28115 0.0
C367 C 0.67231 0.96801 0.27205 0.0
C368 C 0.67343 0.952 0.23453 0.0
C369 C 0.64999 0.93235 0.2251 0.0
C370 C 0.62668 0.92801 0.25233 0.0
C371 C 0.62586 0.94328 0.28924 0.0
C372 C 0.64822 0.96319 0.29904 0.0
H373 H 0.70677 0.8998 0.18633 0.0
C374 C 0.70078 0.9135 0.16019 0.0
H375 H 0.69074 0.95676 0.13963 0.0
H376 H 0.74242 0.02494 0.29238 0.0
H377 H 0.78347 0.03147 0.24515 0.0
H378 H 0.78547 0.00375 0.17997 0.0
H379 H 0.74648 0.96924 0.16167 0.0
C380 C 0.69657 0.94271 0.16546 0.0
C381 C 0.69716 0.95668 0.20675 0.0
C382 C 0.72004 0.97673 0.21693 0.0
C383 C 0.71875 0.99294 0.25429 0.0
C384 C 0.74207 0.01257 0.26396 0.0
C385 C 0.76581 0.01638 0.23726 0.0
C386 C 0.76694 0.00075 0.20057 0.0
C387 C 0.74441 0.98109 0.19038 0.0
H388 H 0.9668 0.64604 0.63171 0.0
C389 C 0.97685 0.62887 0.65051 0.0
H390 H 0.01488 0.60289 0.66143 0.0
H391 H 0.0691 0.6104 0.48551 0.0
H392 H 0.05146 0.5598 0.48671 0.0
H393 H 0.0199 0.54199 0.54323 0.0
H394 H 0.00596 0.57461 0.599 0.0
C395 C 0.00504 0.62079 0.64377 0.0
C396 C 0.02229 0.6326 0.60857 0.0
C397 C 0.02986 0.61334 0.57584 0.0
C398 C 0.04765 0.62373 0.54293 0.0
C399 C 0.05536 0.60382 0.51107 0.0
C400 C 0.04541 0.57467 0.51138 0.0
C401 C 0.02767 0.56463 0.54321 0.0
C402 C 0.01991 0.58361 0.57512 0.0
H403 H 0.11436 0.66852 0.54972 0.0
C404 C 0.10665 0.66928 0.51813 0.0
H405 H 0.07036 0.66307 0.47826 0.0
H406 H 0.01285 0.67508 0.66724 0.0
H407 H 0.02838 0.72637 0.6642 0.0
H408 H 0.05655 0.74516 0.60489 0.0
H409 H 0.06978 0.7126 0.54858 0.0
C410 C 0.07821 0.66332 0.50977 0.0
C411 C 0.05774 0.6534 0.54273 0.0
C412 C 0.0492 0.67301 0.5746 0.0
C413 C 0.0319 0.66246 0.60798 0.0
C414 C 0.02506 0.68212 0.64046 0.0
C415 C 0.03397 0.7116 0.63921 0.0
C416 C 0.04992 0.72216 0.60589 0.0
C417 C 0.05752 0.7032 0.57388 0.0
H418 H 0.26756 0.97142 0.8301 0.0
C419 C 0.2915 0.96955 0.82855 0.0
H420 H 0.33011 0.97923 0.79483 0.0
H421 H 0.27976 0.00049 0.62134 0.0
H422 H 0.29499 0.94931 0.61405 0.0
H423 H 0.30817 0.91938 0.67472 0.0
H424 H 0.30632 0.94063 0.74312 0.0
C425 C 0.30627 0.98178 0.7971 0.0
C426 C 0.29136 0.99748 0.76278 0.0
C427 C 0.29165 0.98455 0.7232 0.0
C428 C 0.28368 0.00171 0.68833 0.0
C429 C 0.28532 0.98849 0.64899 0.0
C430 C 0.29403 0.95908 0.64434 0.0
C431 C 0.30148 0.94224 0.67849 0.0
C432 C 0.30042 0.95472 0.71752 0.0
H433 H 0.30963 0.07768 0.67763 0.0
C434 C 0.29446 0.07316 0.65251 0.0
H435 H 0.25968 0.04607 0.63137 0.0
H436 H 0.28551 0.02832 0.83488 0.0
H437 H 0.26626 0.07813 0.84265 0.0
H438 H 0.2497 0.1068 0.78239 0.0
H439 H 0.25283 0.08586 0.71378 0.0
C440 C 0.27431 0.05154 0.65667 0.0
C441 C 0.27539 0.03178 0.69327 0.0
C442 C 0.27192 0.04363 0.73326 0.0
C443 C 0.28045 0.02668 0.7681 0.0
C444 C 0.27866 0.03985 0.80742 0.0
C445 C 0.26769 0.06849 0.81232 0.0
C446 C 0.25843 0.08466 0.77838 0.0
C447 C 0.26051 0.0725 0.73922 0.0
loop_
_geom_bond_atom_site_label_1
_geom_bond_atom_site_label_2
_geom_bond_distance
_geom_bond_site_symmetry_2
_ccdc_geom_bond_type
O0 Cd1 2.300 . S
O0 C7 1.275 . S
Cd1 O0 2.300 . S
Cd1 O9 2.381 . S
Cd1 O10 2.378 . S
O2 Cd3 2.385 . S
O2 C7 1.255 . S
Cd3 O2 2.385 . S
Cd3 O4 2.317 . S
O4 Cd3 2.317 . S
O4 C5 1.232 . S
C5 O4 1.232 . S
C5 O6 1.218 . S
O6 C5 1.218 . S
C7 O0 1.275 . S
C7 O2 1.255 . S
C8 O9 1.258 . S
C8 O10 1.256 . S
O9 Cd1 2.381 . S
O9 C8 1.258 . S
O10 Cd1 2.378 . S
O10 C8 1.256 . S
O11 Cd12 2.300 . S
O11 C18 1.275 . S
Cd12 O11 2.300 . S
Cd12 O20 2.381 . S
Cd12 O21 2.378 . S
O13 Cd14 2.385 . S
O13 C18 1.255 . S
Cd14 O13 2.385 . S
Cd14 O15 2.317 . S
O15 Cd14 2.317 . S
O15 C16 1.232 . S
C16 O15 1.232 . S
C16 O17 1.218 . S
O17 C16 1.218 . S
C18 O11 1.275 . S
C18 O13 1.255 . S
C19 O20 1.258 . S
C19 O21 1.256 . S
O20 Cd12 2.381 . S
O20 C19 1.258 . S
O21 Cd12 2.378 . S
O21 C19 1.256 . S
O22 Cd23 2.300 . S
O22 C29 1.275 . S
Cd23 O22 2.300 . S
Cd23 O31 2.381 . S
Cd23 O32 2.378 . S
O24 Cd25 2.385 . S
O24 C29 1.255 . S
Cd25 O24 2.385 . S
Cd25 O26 2.317 . S
O26 Cd25 2.317 . S
O26 C27 1.232 . S
C27 O26 1.232 . S
C27 O28 1.218 . S
O28 C27 1.218 . S
C29 O22 1.275 . S
C29 O24 1.255 . S
C30 O31 1.258 . S
C30 O32 1.256 . S
O31 Cd23 2.381 . S
O31 C30 1.258 . S
O32 Cd23 2.378 . S
O32 C30 1.256 . S
O33 Cd34 2.300 . S
O33 C40 1.275 1_554 S
Cd34 O33 2.300 . S
Cd34 O42 2.381 . S
Cd34 O43 2.378 . S
O35 Cd36 2.385 . S
O35 C40 1.255 . S
Cd36 O35 2.385 . S
Cd36 O37 2.317 . S
O37 Cd36 2.317 . S
O37 C38 1.232 . S
C38 O37 1.232 . S
C38 O39 1.218 . S
O39 C38 1.218 . S
C40 O33 1.275 1_556 S
C40 O35 1.255 . S
C41 O42 1.258 . S
C41 O43 1.256 . S
O42 Cd34 2.381 . S
O42 C41 1.258 . S
O43 Cd34 2.378 . S
O43 C41 1.256 . S
O44 Cd45 2.300 . S
O44 C51 1.275 . S
Cd45 O44 2.300 . S
Cd45 O53 2.381 . S
Cd45 O54 2.378 . S
O46 Cd47 2.385 . S
O46 C51 1.255 . S
Cd47 O46 2.385 . S
Cd47 O48 2.317 . S
O48 Cd47 2.317 . S
O48 C49 1.232 . S
C49 O48 1.232 . S
C49 O50 1.218 . S
O50 C49 1.218 . S
C51 O44 1.275 . S
C51 O46 1.255 . S
C52 O53 1.258 . S
C52 O54 1.256 . S
O53 Cd45 2.381 . S
O53 C52 1.258 . S
O54 Cd45 2.378 . S
O54 C52 1.256 . S
O55 Cd56 2.300 . S
O55 C62 1.275 . S
Cd56 O55 2.300 . S
Cd56 O64 2.381 . S
Cd56 O65 2.378 . S
O57 Cd58 2.385 . S
O57 C62 1.255 . S
Cd58 O57 2.385 . S
Cd58 O59 2.317 . S
O59 Cd58 2.317 . S
O59 C60 1.232 . S
C60 O59 1.232 . S
C60 O61 1.218 . S
O61 C60 1.218 . S
C62 O55 1.275 . S
C62 O57 1.255 . S
C63 O64 1.258 . S
C63 O65 1.256 . S
O64 Cd56 2.381 . S
O64 C63 1.258 . S
O65 Cd56 2.378 . S
O65 C63 1.256 . S
O66 Cd67 2.300 . S
O66 C73 1.275 . S
Cd67 O66 2.300 . S
Cd67 O75 2.381 . S
Cd67 O76 2.378 . S
O68 Cd69 2.385 . S
O68 C73 1.255 . S
Cd69 O68 2.385 . S
Cd69 O70 2.317 . S
O70 Cd69 2.317 . S
O70 C71 1.232 . S
C71 O70 1.232 . S
C71 O72 1.218 . S
O72 C71 1.218 . S
C73 O66 1.275 . S
C73 O68 1.255 . S
C74 O75 1.258 . S
C74 O76 1.256 . S
O75 Cd67 2.381 . S
O75 C74 1.258 . S
O76 Cd67 2.378 . S
O76 C74 1.256 . S
O77 Cd78 2.300 . S
O77 C84 1.275 1_556 S
Cd78 O77 2.300 . S
Cd78 O86 2.381 . S
Cd78 O87 2.378 . S
O79 Cd80 2.385 . S
O79 C84 1.255 . S
Cd80 O79 2.385 . S
Cd80 O81 2.317 . S
O81 Cd80 2.317 . S
O81 C82 1.232 . S
C82 O81 1.232 . S
C82 O83 1.218 . S
O83 C82 1.218 . S
C84 O77 1.275 1_554 S
C84 O79 1.255 . S
C85 O86 1.258 . S
C85 O87 1.256 . S
O86 Cd78 2.381 . S
O86 C85 1.258 . S
O87 Cd78 2.378 . S
O87 C85 1.256 . S
H88 C89 0.951 . S
C89 H88 0.951 . S
C89 C95 1.265 . S
H90 C95 0.950 . S
H91 C99 0.949 . S
H92 C100 0.950 . S
H93 C101 0.951 . S
H94 C102 0.951 . S
C95 C89 1.265 . S
C95 H90 0.950 . S
C95 C96 1.478 . S
C96 C95 1.478 . S
C96 C97 1.397 . S
C96 C113 1.394 . S
C97 C96 1.397 . S
C97 C98 1.438 . S
C97 C102 1.429 . S
C98 C97 1.438 . S
C98 C99 1.428 . S
C98 C111 1.394 . S
C99 H91 0.949 . S
C99 C98 1.428 . S
C99 C100 1.345 . S
C100 H92 0.950 . S
C100 C99 1.345 . S
C100 C101 1.424 . S
C101 H93 0.951 . S
C101 C100 1.424 . S
C101 C102 1.347 . S
C102 H94 0.951 . S
C102 C97 1.429 . S
C102 C101 1.347 . S
H103 C104 0.951 . S
C104 H103 0.951 . S
C104 C110 1.265 . S
H105 C110 0.950 . S
H106 C114 0.949 . S
H107 C115 0.950 . S
H108 C116 0.951 . S
H109 C117 0.951 . S
C110 C104 1.265 . S
C110 H105 0.950 . S
C110 C111 1.478 . S
C111 C98 1.394 . S
C111 C110 1.478 . S
C111 C112 1.397 . S
C112 C111 1.397 . S
C112 C113 1.438 . S
C112 C117 1.429 . S
C113 C96 1.394 . S
C113 C112 1.438 . S
C113 C114 1.428 . S
C114 H106 0.949 . S
C114 C113 1.428 . S
C114 C115 1.345 . S
C115 H107 0.950 . S
C115 C114 1.345 . S
C115 C116 1.424 . S
C116 H108 0.951 . S
C116 C115 1.424 . S
C116 C117 1.347 . S
C117 H109 0.951 . S
C117 C112 1.429 . S
C117 C116 1.347 . S
H118 C119 0.951 . S
C119 H118 0.951 . S
C119 C125 1.265 . S
H120 C125 0.950 . S
H121 C129 0.949 . S
H122 C130 0.950 . S
H123 C131 0.951 . S
H124 C132 0.951 . S
C125 C119 1.265 . S
C125 H120 0.950 . S
C125 C126 1.478 . S
C126 C125 1.478 . S
C126 C127 1.397 . S
C126 C143 1.394 . S
C127 C126 1.397 . S
C127 C128 1.438 . S
C127 C132 1.429 . S
C128 C127 1.438 . S
C128 C129 1.428 . S
C128 C141 1.394 . S
C129 H121 0.949 . S
C129 C128 1.428 . S
C129 C130 1.345 . S
C130 H122 0.950 . S
C130 C129 1.345 . S
C130 C131 1.424 . S
C131 H123 0.951 . S
C131 C130 1.424 . S
C131 C132 1.347 . S
C132 H124 0.951 . S
C132 C127 1.429 . S
C132 C131 1.347 . S
H133 C134 0.951 . S
C134 H133 0.951 . S
C134 C140 1.265 . S
H135 C140 0.950 . S
H136 C144 0.949 . S
H137 C145 0.950 . S
H138 C146 0.951 . S
H139 C147 0.951 . S
C140 C134 1.265 . S
C140 H135 0.950 . S
C140 C141 1.478 . S
C141 C128 1.394 . S
C141 C140 1.478 . S
C141 C142 1.397 . S
C142 C141 1.397 . S
C142 C143 1.438 . S
C142 C147 1.429 . S
C143 C126 1.394 . S
C143 C142 1.438 . S
C143 C144 1.428 . S
C144 H136 0.949 . S
C144 C143 1.428 . S
C144 C145 1.345 . S
C145 H137 0.950 . S
C145 C144 1.345 . S
C145 C146 1.424 . S
C146 H138 0.951 . S
C146 C145 1.424 . S
C146 C147 1.347 . S
C147 H139 0.951 . S
C147 C142 1.429 . S
C147 C146 1.347 . S
H148 C149 0.951 . S
C149 H148 0.951 . S
C149 C155 1.265 . S
H150 C155 0.950 . S
H151 C159 0.949 . S
H152 C160 0.950 . S
H153 C161 0.951 . S
H154 C162 0.951 . S
C155 C149 1.265 . S
C155 H150 0.950 . S
C155 C156 1.478 . S
C156 C155 1.478 . S
C156 C157 1.397 . S
C156 C173 1.394 . S
C157 C156 1.397 . S
C157 C158 1.438 . S
C157 C162 1.429 . S
C158 C157 1.438 . S
C158 C159 1.428 . S
C158 C171 1.394 . S
C159 H151 0.949 . S
C159 C158 1.428 . S
C159 C160 1.345 . S
C160 H152 0.950 . S
C160 C159 1.345 . S
C160 C161 1.424 . S
C161 H153 0.951 . S
C161 C160 1.424 . S
C161 C162 1.347 . S
C162 H154 0.951 . S
C162 C157 1.429 . S
C162 C161 1.347 . S
H163 C164 0.951 . S
C164 H163 0.951 . S
C164 C170 1.265 . S
H165 C170 0.950 . S
H166 C174 0.949 . S
H167 C175 0.950 . S
H168 C176 0.951 . S
H169 C177 0.951 . S
C170 C164 1.265 . S
C170 H165 0.950 . S
C170 C171 1.478 . S
C171 C158 1.394 . S
C171 C170 1.478 . S
C171 C172 1.397 . S
C172 C171 1.397 . S
C172 C173 1.438 . S
C172 C177 1.429 . S
C173 C156 1.394 . S
C173 C172 1.438 . S
C173 C174 1.428 . S
C174 H166 0.949 . S
C174 C173 1.428 . S
C174 C175 1.345 . S
C175 H167 0.950 . S
C175 C174 1.345 . S
C175 C176 1.424 . S
C176 H168 0.951 . S
C176 C175 1.424 . S
C176 C177 1.347 . S
C177 H169 0.951 . S
C177 C172 1.429 . S
C177 C176 1.347 . S
H178 C179 0.951 . S
C179 H178 0.951 . S
C179 C185 1.265 1_554 S
H180 C185 0.950 . S
H181 C189 0.949 . S
H182 C190 0.950 . S
H183 C191 0.951 . S
H184 C192 0.951 . S
C185 C179 1.265 1_556 S
C185 H180 0.950 . S
C185 C186 1.478 . S
C186 C185 1.478 . S
C186 C187 1.397 . S
C186 C203 1.394 1_556 S
C187 C186 1.397 . S
C187 C188 1.438 . S
C187 C192 1.429 . S
C188 C187 1.438 . S
C188 C189 1.428 . S
C188 C201 1.394 1_556 S
C189 H181 0.949 . S
C189 C188 1.428 . S
C189 C190 1.345 . S
C190 H182 0.950 . S
C190 C189 1.345 . S
C190 C191 1.424 . S
C191 H183 0.951 . S
C191 C190 1.424 . S
C191 C192 1.347 . S
C192 H184 0.951 . S
C192 C187 1.429 . S
C192 C191 1.347 . S
H193 C194 0.951 . S
C194 H193 0.951 . S
C194 C200 1.265 1_556 S
H195 C200 0.950 . S
H196 C204 0.949 . S
H197 C205 0.950 . S
H198 C206 0.951 . S
H199 C207 0.951 . S
C200 C194 1.265 1_554 S
C200 H195 0.950 . S
C200 C201 1.478 . S
C201 C188 1.394 1_554 S
C201 C200 1.478 . S
C201 C202 1.397 . S
C202 C201 1.397 . S
C202 C203 1.438 . S
C202 C207 1.429 . S
C203 C186 1.394 1_554 S
C203 C202 1.438 . S
C203 C204 1.428 . S
C204 H196 0.949 . S
C204 C203 1.428 . S
C204 C205 1.345 . S
C205 H197 0.950 . S
C205 C204 1.345 . S
C205 C206 1.424 . S
C206 H198 0.951 . S
C206 C205 1.424 . S
C206 C207 1.347 . S
C207 H199 0.951 . S
C207 C202 1.429 . S
C207 C206 1.347 . S
H208 C209 0.951 . S
C209 H208 0.951 . S
C209 C215 1.265 . S
H210 C215 0.950 . S
H211 C219 0.949 . S
H212 C220 0.950 . S
H213 C221 0.951 . S
H214 C222 0.951 . S
C215 C209 1.265 . S
C215 H210 0.950 . S
C215 C216 1.478 . S
C216 C215 1.478 . S
C216 C217 1.397 . S
C216 C233 1.394 . S
C217 C216 1.397 . S
C217 C218 1.438 . S
C217 C222 1.429 . S
C218 C217 1.438 . S
C218 C219 1.428 . S
C218 C231 1.394 . S
C219 H211 0.949 . S
C219 C218 1.428 . S
C219 C220 1.345 . S
C220 H212 0.950 . S
C220 C219 1.345 . S
C220 C221 1.424 . S
C221 H213 0.951 . S
C221 C220 1.424 . S
C221 C222 1.347 . S
C222 H214 0.951 . S
C222 C217 1.429 . S
C222 C221 1.347 . S
H223 C224 0.951 . S
C224 H223 0.951 . S
C224 C230 1.265 . S
H225 C230 0.950 . S
H226 C234 0.949 . S
H227 C235 0.950 . S
H228 C236 0.951 . S
H229 C237 0.951 . S
C230 C224 1.265 . S
C230 H225 0.950 . S
C230 C231 1.478 . S
C231 C218 1.394 . S
C231 C230 1.478 . S
C231 C232 1.397 . S
C232 C231 1.397 . S
C232 C233 1.438 . S
C232 C237 1.429 . S
C233 C216 1.394 . S
C233 C232 1.438 . S
C233 C234 1.428 . S
C234 H226 0.949 . S
C234 C233 1.428 . S
C234 C235 1.345 . S
C235 H227 0.950 . S
C235 C234 1.345 . S
C235 C236 1.424 . S
C236 H228 0.951 . S
C236 C235 1.424 . S
C236 C237 1.347 . S
C237 H229 0.951 . S
C237 C232 1.429 . S
C237 C236 1.347 . S
H238 C239 0.951 . S
C239 H238 0.951 . S
C239 C245 1.265 . S
H240 C245 0.950 . S
H241 C249 0.949 . S
H242 C250 0.950 . S
H243 C251 0.951 . S
H244 C252 0.951 . S
C245 C239 1.265 . S
C245 H240 0.950 . S
C245 C246 1.478 . S
C246 C245 1.478 . S
C246 C247 1.397 . S
C246 C263 1.394 . S
C247 C246 1.397 . S
C247 C248 1.438 . S
C247 C252 1.429 . S
C248 C247 1.438 . S
C248 C249 1.428 . S
C248 C261 1.394 . S
C249 H241 0.949 . S
C249 C248 1.428 . S
C249 C250 1.345 . S
C250 H242 0.950 . S
C250 C249 1.345 . S
C250 C251 1.424 . S
C251 H243 0.951 . S
C251 C250 1.424 . S
C251 C252 1.347 . S
C252 H244 0.951 . S
C252 C247 1.429 . S
C252 C251 1.347 . S
H253 C254 0.951 . S
C254 H253 0.951 . S
C254 C260 1.265 . S
H255 C260 0.950 . S
H256 C264 0.949 . S
H257 C265 0.950 . S
H258 C266 0.951 . S
H259 C267 0.951 . S
C260 C254 1.265 . S
C260 H255 0.950 . S
C260 C261 1.478 . S
C261 C248 1.394 . S
C261 C260 1.478 . S
C261 C262 1.397 . S
C262 C261 1.397 . S
C262 C263 1.438 . S
C262 C267 1.429 . S
C263 C246 1.394 . S
C263 C262 1.438 . S
C263 C264 1.428 . S
C264 H256 0.949 . S
C264 C263 1.428 . S
C264 C265 1.345 . S
C265 H257 0.950 . S
C265 C264 1.345 . S
C265 C266 1.424 . S
C266 H258 0.951 . S
C266 C265 1.424 . S
C266 C267 1.347 . S
C267 H259 0.951 . S
C267 C262 1.429 . S
C267 C266 1.347 . S
H268 C269 0.951 . S
C269 H268 0.951 . S
C269 C275 1.265 . S
H270 C275 0.950 . S
H271 C279 0.949 . S
H272 C280 0.950 . S
H273 C281 0.951 . S
H274 C282 0.951 . S
C275 C269 1.265 . S
C275 H270 0.950 . S
C275 C276 1.478 . S
C276 C275 1.478 . S
C276 C277 1.397 . S
C276 C293 1.394 . S
C277 C276 1.397 . S
C277 C278 1.438 . S
C277 C282 1.429 . S
C278 C277 1.438 . S
C278 C279 1.428 . S
C278 C291 1.394 . S
C279 H271 0.949 . S
C279 C278 1.428 . S
C279 C280 1.345 . S
C280 H272 0.950 . S
C280 C279 1.345 . S
C280 C281 1.424 . S
C281 H273 0.951 . S
C281 C280 1.424 . S
C281 C282 1.347 . S
C282 H274 0.951 . S
C282 C277 1.429 . S
C282 C281 1.347 . S
H283 C284 0.951 . S
C284 H283 0.951 . S
C284 C290 1.265 . S
H285 C290 0.950 . S
H286 C294 0.949 . S
H287 C295 0.950 . S
H288 C296 0.951 . S
H289 C297 0.951 . S
C290 C284 1.265 . S
C290 H285 0.950 . S
C290 C291 1.478 . S
C291 C278 1.394 . S
C291 C290 1.478 . S
C291 C292 1.397 . S
C292 C291 1.397 . S
C292 C293 1.438 . S
C292 C297 1.429 . S
C293 C276 1.394 . S
C293 C292 1.438 . S
C293 C294 1.428 . S
C294 H286 0.949 . S
C294 C293 1.428 . S
C294 C295 1.345 . S
C295 H287 0.950 . S
C295 C294 1.345 . S
C295 C296 1.424 . S
C296 H288 0.951 . S
C296 C295 1.424 . S
C296 C297 1.347 . S
C297 H289 0.951 . S
C297 C292 1.429 . S
C297 C296 1.347 . S
H298 C299 0.951 . S
C299 H298 0.951 . S
C299 C305 1.265 . S
H300 C305 0.950 . S
H301 C309 0.949 . S
H302 C310 0.950 . S
H303 C311 0.951 . S
H304 C312 0.951 . S
C305 C299 1.265 . S
C305 H300 0.950 . S
C305 C306 1.478 . S
C306 C305 1.478 . S
C306 C307 1.397 . S
C306 C323 1.394 . S
C307 C306 1.397 . S
C307 C308 1.438 . S
C307 C312 1.429 . S
C308 C307 1.438 . S
C308 C309 1.428 . S
C308 C321 1.394 . S
C309 H301 0.949 . S
C309 C308 1.428 . S
C309 C310 1.345 . S
C310 H302 0.950 . S
C310 C309 1.345 . S
C310 C311 1.424 . S
C311 H303 0.951 . S
C311 C310 1.424 . S
C311 C312 1.347 . S
C312 H304 0.951 . S
C312 C307 1.429 . S
C312 C311 1.347 . S
H313 C314 0.951 . S
C314 H313 0.951 . S
C314 C320 1.265 . S
H315 C320 0.950 . S
H316 C324 0.949 . S
H317 C325 0.950 . S
H318 C326 0.951 . S
H319 C327 0.951 . S
C320 C314 1.265 . S
C320 H315 0.950 . S
C320 C321 1.478 . S
C321 C308 1.394 . S
C321 C320 1.478 . S
C321 C322 1.397 . S
C322 C321 1.397 . S
C322 C323 1.438 . S
C322 C327 1.429 . S
C323 C306 1.394 . S
C323 C322 1.438 . S
C323 C324 1.428 . S
C324 H316 0.949 . S
C324 C323 1.428 . S
C324 C325 1.345 . S
C325 H317 0.950 . S
C325 C324 1.345 . S
C325 C326 1.424 . S
C326 H318 0.951 . S
C326 C325 1.424 . S
C326 C327 1.347 . S
C327 H319 0.951 . S
C327 C322 1.429 . S
C327 C326 1.347 . S
H328 C329 0.951 . S
C329 H328 0.951 . S
C329 C335 1.265 . S
H330 C335 0.950 . S
H331 C339 0.949 . S
H332 C340 0.950 . S
H333 C341 0.951 . S
H334 C342 0.951 . S
C335 C329 1.265 . S
C335 H330 0.950 . S
C335 C336 1.478 . S
C336 C335 1.478 . S
C336 C337 1.397 1_455 S
C336 C353 1.394 . S
C337 C336 1.397 1_655 S
C337 C338 1.438 1_554 S
C337 C342 1.429 . S
C338 C337 1.438 1_556 S
C338 C339 1.428 . S
C338 C351 1.394 . S
C339 H331 0.949 . S
C339 C338 1.428 . S
C339 C340 1.345 . S
C340 H332 0.950 . S
C340 C339 1.345 . S
C340 C341 1.424 1_556 S
C341 H333 0.951 . S
C341 C340 1.424 1_554 S
C341 C342 1.347 . S
C342 H334 0.951 . S
C342 C337 1.429 . S
C342 C341 1.347 . S
H343 C344 0.951 . S
C344 H343 0.951 . S
C344 C350 1.265 . S
H345 C350 0.950 . S
H346 C354 0.949 . S
H347 C355 0.950 . S
H348 C356 0.951 . S
H349 C357 0.951 . S
C350 C344 1.265 . S
C350 H345 0.950 . S
C350 C351 1.478 . S
C351 C338 1.394 . S
C351 C350 1.478 . S
C351 C352 1.397 1_655 S
C352 C351 1.397 1_455 S
C352 C353 1.438 1_556 S
C352 C357 1.429 . S
C353 C336 1.394 . S
C353 C352 1.438 1_554 S
C353 C354 1.428 . S
C354 H346 0.949 . S
C354 C353 1.428 . S
C354 C355 1.345 . S
C355 H347 0.950 . S
C355 C354 1.345 . S
C355 C356 1.424 1_554 S
C356 H348 0.951 . S
C356 C355 1.424 1_556 S
C356 C357 1.347 . S
C357 H349 0.951 . S
C357 C352 1.429 . S
C357 C356 1.347 . S
H358 C359 0.951 . S
C359 H358 0.951 . S
C359 C365 1.265 . S
H360 C365 0.950 . S
H361 C369 0.949 . S
H362 C370 0.950 . S
H363 C371 0.951 . S
H364 C372 0.939 1_545 S
C365 C359 1.265 . S
C365 H360 0.950 . S
C365 C366 1.478 . S
C366 C365 1.478 . S
C366 C367 1.391 1_545 S
C366 C383 1.394 . S
C367 C366 1.391 1_565 S
C367 C368 1.444 . S
C367 C372 1.429 . S
C368 C367 1.444 . S
C368 C369 1.428 . S
C368 C381 1.394 . S
C369 H361 0.949 . S
C369 C368 1.428 . S
C369 C370 1.345 . S
C370 H362 0.950 . S
C370 C369 1.345 . S
C370 C371 1.424 . S
C371 H363 0.951 . S
C371 C370 1.424 . S
C371 C372 1.361 . S
C372 H364 0.939 1_565 S
C372 C367 1.429 . S
C372 C371 1.361 . S
H373 C374 0.951 . S
C374 H373 0.951 . S
C374 C380 1.265 . S
H375 C380 0.950 . S
H376 C384 0.949 . S
H377 C385 0.950 . S
H378 C386 0.951 . S
H379 C387 0.939 1_565 S
C380 C374 1.265 . S
C380 H375 0.950 . S
C380 C381 1.478 . S
C381 C368 1.394 . S
C381 C380 1.478 . S
C381 C382 1.391 1_565 S
C382 C381 1.391 1_545 S
C382 C383 1.444 . S
C382 C387 1.429 . S
C383 C366 1.394 . S
C383 C382 1.444 . S
C383 C384 1.428 . S
C384 H376 0.949 . S
C384 C383 1.428 . S
C384 C385 1.345 . S
C385 H377 0.950 . S
C385 C384 1.345 . S
C385 C386 1.424 . S
C386 H378 0.951 . S
C386 C385 1.424 . S
C386 C387 1.360 . S
C387 H379 0.939 1_545 S
C387 C382 1.429 . S
C387 C386 1.360 . S
H388 C389 0.951 . S
C389 H388 0.951 . S
C389 C395 1.265 . S
H390 C395 0.950 . S
H391 C399 0.949 . S
H392 C400 0.950 . S
H393 C401 0.951 . S
H394 C402 0.951 . S
C395 C389 1.265 . S
C395 H390 0.950 . S
C395 C396 1.478 . S
C396 C395 1.478 . S
C396 C397 1.397 1_655 S
C396 C413 1.394 . S
C397 C396 1.397 1_455 S
C397 C398 1.438 . S
C397 C402 1.429 . S
C398 C397 1.438 . S
C398 C399 1.428 . S
C398 C411 1.394 . S
C399 H391 0.949 . S
C399 C398 1.428 . S
C399 C400 1.345 . S
C400 H392 0.950 . S
C400 C399 1.345 . S
C400 C401 1.424 . S
C401 H393 0.951 . S
C401 C400 1.424 . S
C401 C402 1.347 . S
C402 H394 0.951 . S
C402 C397 1.429 . S
C402 C401 1.347 . S
H403 C404 0.951 . S
C404 H403 0.951 . S
C404 C410 1.265 . S
H405 C410 0.950 . S
H406 C414 0.949 . S
H407 C415 0.950 . S
H408 C416 0.951 . S
H409 C417 0.951 . S
C410 C404 1.265 . S
C410 H405 0.950 . S
C410 C411 1.478 . S
C411 C398 1.394 . S
C411 C410 1.478 . S
C411 C412 1.397 1_455 S
C412 C411 1.397 1_655 S
C412 C413 1.438 . S
C412 C417 1.429 . S
C413 C396 1.394 . S
C413 C412 1.438 . S
C413 C414 1.428 . S
C414 H406 0.949 . S
C414 C413 1.428 . S
C414 C415 1.345 . S
C415 H407 0.950 . S
C415 C414 1.345 . S
C415 C416 1.424 . S
C416 H408 0.951 . S
C416 C415 1.424 . S
C416 C417 1.347 . S
C417 H409 0.951 . S
C417 C412 1.429 . S
C417 C416 1.347 . S
H418 C419 0.951 . S
C419 H418 0.951 . S
C419 C425 1.265 . S
H420 C425 0.950 . S
H421 C429 0.949 . S
H422 C430 0.950 . S
H423 C431 0.951 . S
H424 C432 0.951 . S
C425 C419 1.265 . S
C425 H420 0.950 . S
C425 C426 1.478 . S
C426 C425 1.478 . S
C426 C427 1.397 . S
C426 C443 1.394 1_565 S
C427 C426 1.397 . S
C427 C428 1.438 . S
C427 C432 1.429 . S
C428 C427 1.438 . S
C428 C429 1.428 . S
C428 C441 1.394 1_565 S
C429 H421 0.949 . S
C429 C428 1.428 . S
C429 C430 1.345 . S
C430 H422 0.950 . S
C430 C429 1.345 . S
C430 C431 1.424 . S
C431 H423 0.951 . S
C431 C430 1.424 . S
C431 C432 1.347 . S
C432 H424 0.951 . S
C432 C427 1.429 . S
C432 C431 1.347 . S
H433 C434 0.951 . S
C434 H433 0.951 . S
C434 C440 1.265 . S
H435 C440 0.950 . S
H436 C444 0.949 . S
H437 C445 0.950 . S
H438 C446 0.951 . S
H439 C447 0.951 . S
C440 C434 1.265 . S
C440 H435 0.950 . S
C440 C441 1.478 . S
C441 C428 1.394 1_545 S
C441 C440 1.478 . S
C441 C442 1.397 . S
C442 C441 1.397 . S
C442 C443 1.438 . S
C442 C447 1.429 . S
C443 C426 1.394 1_545 S
C443 C442 1.438 . S
C443 C444 1.428 . S
C444 H436 0.949 . S
C444 C443 1.428 . S
C444 C445 1.345 . S
C445 H437 0.950 . S
C445 C444 1.345 . S
C445 C446 1.424 . S
C446 H438 0.951 . S
C446 C445 1.424 . S
C446 C447 1.347 . S
C447 H439 0.951 . S
C447 C442 1.429 . S
C447 C446 1.347 . S
C89 C7 1.490 . S
C104 C51 1.487 . S
C119 C18 1.512 . S
C134 C62 1.509 . S
C149 C29 1.481 . S
C164 C73 1.478 . S
C179 C84 1.517 . S
C194 C40 1.516 . S
C209 C8 1.510 . S
C224 C63 1.503 . S
C239 C19 1.509 . S
C254 C74 1.515 . S
C269 C30 1.497 . S
C284 C85 1.503 . S
C299 C41 1.516 . S
C314 C52 1.512 . S
C329 C5 1.415 . S
C344 C71 1.414 . S
C359 C16 1.417 . S
C374 C82 1.408 . S
C389 C27 1.414 . S
C404 C49 1.415 . S
C419 C38 1.343 . S
C434 C60 1.306 . S
