# Generated by pormake.
# Topology mdf, (4)-cn, num edge types: 1
# Building blocks:
#     Node 0, Type 0, BuildingBlock: QUQFOY_clean_sbu_3, # of connection points: 4
#     Node 1, Type 0, BuildingBlock: QUQFOY_clean_sbu_3, # of connection points: 4
#     Node 2, Type 0, BuildingBlock: QUQFOY_clean_sbu_3, # of connection points: 4
#     Node 3, Type 0, BuildingBlock: QUQFOY_clean_sbu_3, # of connection points: 4
#     Node 4, Type 0, BuildingBlock: QUQFOY_clean_sbu_3, # of connection points: 4
#     Node 5, Type 0, BuildingBlock: QUQFOY_clean_sbu_3, # of connection points: 4
#     Node 6, Type 0, BuildingBlock: QUQFOY_clean_sbu_3, # of connection points: 4
#     Node 7, Type 0, BuildingBlock: QUQFOY_clean_sbu_3, # of connection points: 4
#     Edge 8, Type (0, 0), BuildingBlock: ZUJKAS_clean_linker_0, # of connection points: 2
#     Edge 9, Type (0, 0), BuildingBlock: ZUJKAS_clean_linker_0, # of connection points: 2
#     Edge 10, Type (0, 0), BuildingBlock: ZUJKAS_clean_linker_0, # of connection points: 2
#     Edge 11, Type (0, 0), BuildingBlock: ZUJKAS_clean_linker_0, # of connection points: 2
#     Edge 12, Type (0, 0), BuildingBlock: ZUJKAS_clean_linker_0, # of connection points: 2
#     Edge 13, Type (0, 0), BuildingBlock: ZUJKAS_clean_linker_0, # of connection points: 2
#     Edge 14, Type (0, 0), BuildingBlock: ZUJKAS_clean_linker_0, # of connection points: 2
#     Edge 15, Type (0, 0), BuildingBlock: ZUJKAS_clean_linker_0, # of connection points: 2
#     Edge 16, Type (0, 0), BuildingBlock: ZUJKAS_clean_linker_0, # of connection points: 2
#     Edge 17, Type (0, 0), BuildingBlock: ZUJKAS_clean_linker_0, # of connection points: 2
#     Edge 18, Type (0, 0), BuildingBlock: ZUJKAS_clean_linker_0, # of connection points: 2
#     Edge 19, Type (0, 0), BuildingBlock: ZUJKAS_clean_linker_0, # of connection points: 2
#     Edge 20, Type (0, 0), BuildingBlock: ZUJKAS_clean_linker_0, # of connection points: 2
#     Edge 21, Type (0, 0), BuildingBlock: ZUJKAS_clean_linker_0, # of connection points: 2
#     Edge 22, Type (0, 0), BuildingBlock: ZUJKAS_clean_linker_0, # of connection points: 2
#     Edge 23, Type (0, 0), BuildingBlock: ZUJKAS_clean_linker_0, # of connection points: 2
# Relax obj value: 0.015
# Max RMSD: 0.038
# Mean RMSD: 0.038
data_MOF--net-mdf--node1-QUQFOY_clean_sbu_3--edge1-ZUJKAS_clean_linker_0
_symmetry_space_group_name_H-M    P1
_symmetry_Int_Tables_number       1
_symmetry_cell_setting            triclinic
loop_
_symmetry_equiv_pos_as_xyz
'x, y, z'
_cell_length_a     50.992378
_cell_length_b     50.947689
_cell_length_c     15.487014
_cell_angle_alpha  90.091209
_cell_angle_beta   89.934215
_cell_angle_gamma 91.804562
loop_
_atom_site_label
_atom_site_type_symbol
_atom_site_fract_x
_atom_site_fract_y
_atom_site_fract_z
_atom_type_partial_charge
C0 C 0.25946 0.53449 0.2012 0.0
O1 O 0.24967 0.51493 0.16031 0.0
Cd2 Cd 0.22774 0.47976 0.23608 0.0
O3 O 0.25621 0.53655 0.28241 0.0
Cd4 Cd 0.23379 0.51521 0.4056 0.0
C5 C 0.27642 0.46657 0.38525 0.0
O6 O 0.19573 0.49926 0.32637 0.0
O7 O 0.2015 0.48116 0.45062 0.0
O8 O 0.21904 0.55902 0.43152 0.0
C9 C 0.18702 0.48404 0.38501 0.0
O10 O 0.26259 0.45981 0.31992 0.0
C11 C 0.22266 0.55921 0.51248 0.0
O12 O 0.27155 0.48731 0.42786 0.0
O13 O 0.23243 0.53882 0.54527 0.0
C14 C 0.44092 0.71393 0.79158 0.0
O15 O 0.45961 0.72345 0.83707 0.0
Cd16 Cd 0.49591 0.74697 0.77357 0.0
O17 O 0.44006 0.71823 0.71066 0.0
Cd18 Cd 0.46295 0.74294 0.59462 0.0
C19 C 0.51275 0.70137 0.61687 0.0
O20 O 0.47696 0.77941 0.68499 0.0
O21 O 0.49506 0.77838 0.55942 0.0
O22 O 0.41861 0.75544 0.56459 0.0
C23 C 0.49225 0.79032 0.63057 0.0
O24 O 0.51734 0.71374 0.68711 0.0
C25 C 0.42022 0.7542 0.48302 0.0
O26 O 0.4932 0.70696 0.56967 0.0
O27 O 0.44183 0.74671 0.4517 0.0
C28 C 0.22093 0.94169 0.69234 0.0
O29 O 0.23097 0.96067 0.64926 0.0
Cd30 Cd 0.25302 -0.00284 0.71679 0.0
O31 O 0.22398 0.94042 0.77388 0.0
Cd32 Cd 0.24679 0.9625 0.89597 0.0
C33 C 0.20517 0.01226 0.8691 0.0
O34 O 0.28347 0.97749 0.81027 0.0
O35 O 0.2823 -0.00599 0.93806 0.0
O36 O 0.25953 0.91816 0.92549 0.0
C37 C 0.29419 -0.00769 0.86641 0.0
O38 O 0.21814 0.01714 0.80023 0.0
C39 C 0.2566 0.91916 0.00672 0.0
O40 O 0.21064 -0.0072 0.91694 0.0
O41 O 0.24804 0.9404 0.03777 0.0
C42 C 0.03671 0.76471 0.28711 0.0
O43 O 0.01771 0.7559 0.33281 0.0
Cd44 Cd 0.98028 0.73428 0.26915 0.0
O45 O 0.03727 0.76061 0.20596 0.0
Cd46 Cd 0.01435 0.73772 0.08617 0.0
C47 C 0.96621 0.78126 0.11253 0.0
O48 O -0.00141 0.70253 0.17673 0.0
O49 O 0.98272 0.70192 0.04798 0.0
O50 O 0.05866 0.7245 0.061 0.0
C51 C 0.98379 0.69124 0.12174 0.0
O52 O 0.96156 0.76915 0.18316 0.0
C53 C 0.0581 0.72595 0.97933 0.0
O54 O 0.98495 0.77461 0.06312 0.0
O55 O 0.03703 0.73388 0.94549 0.0
C56 C 0.75828 0.03425 0.68483 0.0
O57 O 0.749 0.0141 0.64576 0.0
Cd58 Cd 0.72597 0.97966 0.72141 0.0
O59 O 0.75439 0.03731 0.76542 0.0
Cd60 Cd 0.73149 0.01709 0.89008 0.0
C61 C 0.77308 0.9669 0.87654 0.0
O62 O 0.69419 0.00053 0.80849 0.0
O63 O 0.69694 0.98562 0.93812 0.0
O64 O 0.71771 0.0615 0.91141 0.0
C65 C 0.68409 0.98661 0.8682 0.0
O66 O 0.75991 0.96035 0.80959 0.0
C67 C 0.72095 0.06223 0.99253 0.0
O68 O 0.76803 0.98776 0.91837 0.0
O69 O 0.73016 0.04189 0.02748 0.0
C70 C 0.94389 0.21225 0.28927 0.0
O71 O 0.96276 0.22111 0.33527 0.0
Cd72 Cd -0.00143 0.24557 0.272 0.0
O73 O 0.94283 0.21759 0.20911 0.0
Cd74 Cd 0.96556 0.24335 0.09559 0.0
C75 C 0.01498 0.20137 0.11057 0.0
O76 O 0.98019 0.27946 0.18726 0.0
O77 O -0.00083 0.27721 0.0628 0.0
O78 O 0.92192 0.25839 0.07087 0.0
C79 C -0.00415 0.28976 0.13254 0.0
O80 O 0.01991 0.2133 0.18139 0.0
C81 C 0.92229 0.25681 0.98922 0.0
O82 O -0.00489 0.20716 0.06515 0.0
O83 O 0.94298 0.24804 0.95497 0.0
C84 C 0.71945 0.4412 0.19427 0.0
O85 O 0.72625 0.46168 0.15215 0.0
Cd86 Cd 0.74846 0.49872 0.21692 0.0
O87 O 0.72442 0.43924 0.27454 0.0
Cd88 Cd 0.74564 0.46277 0.39626 0.0
C89 C 0.70203 0.51158 0.37516 0.0
O90 O 0.78053 0.48031 0.30765 0.0
O91 O 0.78058 0.4948 0.43832 0.0
O92 O 0.76193 0.41969 0.42384 0.0
C93 C 0.79136 0.49481 0.36448 0.0
O94 O 0.71431 0.51723 0.30559 0.0
C95 C 0.75796 0.41959 0.50465 0.0
O96 O 0.70834 0.49191 0.42096 0.0
O97 O 0.74727 0.43967 0.53655 0.0
C98 C 0.53691 0.26322 0.80003 0.0
O99 O 0.51569 0.25743 0.83963 0.0
Cd100 Cd 0.47967 0.23435 0.77147 0.0
O101 O 0.5398 0.25745 0.72066 0.0
Cd102 Cd 0.51665 0.23627 0.5986 0.0
C103 C 0.46711 0.27929 0.61093 0.0
O104 O 0.49935 0.20112 0.68739 0.0
O105 O 0.48489 0.20097 0.55681 0.0
O106 O 0.55983 0.2201 0.56993 0.0
C107 C 0.48531 0.18993 0.63011 0.0
O108 O 0.46017 0.26687 0.67896 0.0
C109 C 0.5599 0.22438 0.48933 0.0
O110 O 0.48805 0.27367 0.57056 0.0
O111 O 0.53977 0.23506 0.45822 0.0
H112 H 0.40105 0.68629 0.71179 0.0
H113 H 0.36767 0.65763 0.77899 0.0
H114 H 0.3998 0.67591 0.0303 0.0
H115 H 0.43366 0.70422 0.96368 0.0
H116 H 0.39231 0.62314 0.00255 0.0
H117 H 0.3026 0.67611 0.91552 0.0
H118 H 0.3231 0.66873 0.82494 0.0
H119 H 0.33511 0.69098 0.90713 0.0
C120 C 0.40092 0.6844 0.78145 0.0
C121 C 0.42003 0.69751 0.83245 0.0
C122 C 0.38169 0.66817 0.81971 0.0
C123 C 0.38106 0.66502 0.90959 0.0
C124 C 0.39993 0.67824 0.96077 0.0
H125 H 0.28567 0.57686 0.27122 0.0
H126 H 0.3142 0.60893 0.19702 0.0
C127 C 0.41926 0.69437 0.92258 0.0
C128 C 0.36178 0.64663 0.94994 0.0
H129 H 0.29618 0.6333 0.97523 0.0
C130 C 0.3713 0.62543 -0.00306 0.0
C131 C 0.3344 0.6497 0.94212 0.0
C132 C 0.32314 0.67274 0.89538 0.0
C133 C 0.35412 0.60706 0.03597 0.0
C134 C 0.32684 0.61008 0.0278 0.0
C135 C 0.31721 0.63113 0.98061 0.0
C136 C 0.30813 0.59182 0.07055 0.0
C137 C 0.36514 0.58444 0.0855 0.0
C138 C 0.29508 0.57197 0.02312 0.0
C139 C 0.27884 0.55348 0.06524 0.0
C140 C 0.27537 0.55476 0.15527 0.0
C141 C 0.28796 0.57525 0.20189 0.0
C142 C 0.30425 0.5936 0.15979 0.0
H143 H 0.38665 0.58297 0.07618 0.0
H144 H 0.3612 0.5871 0.15542 0.0
H145 H 0.35536 0.56565 0.06515 0.0
H146 H 0.29797 0.57045 0.954 0.0
H147 H 0.26933 0.538 0.0275 0.0
H148 H 0.42184 0.76668 0.31104 0.0
H149 H 0.38842 0.78975 0.22932 0.0
H150 H 0.33695 0.78658 0.45028 0.0
H151 H 0.37014 0.76369 0.53247 0.0
H152 H 0.31298 0.77688 0.26991 0.0
H153 H 0.37408 0.86841 0.31512 0.0
H154 H 0.39037 0.84015 0.27389 0.0
H155 H 0.37772 0.83976 0.38203 0.0
C156 C 0.40318 0.77036 0.34153 0.0
C157 C 0.39871 0.76364 0.42841 0.0
C158 C 0.38417 0.78357 0.2949 0.0
C159 C 0.3604 0.79 0.33429 0.0
C160 C 0.3552 0.78177 0.41897 0.0
H161 H 0.26271 0.91886 0.18253 0.0
H162 H 0.28415 0.88539 0.2687 0.0
C163 C 0.37423 0.76877 0.4658 0.0
C164 C 0.34217 0.80766 0.2908 0.0
H165 H 0.33568 0.87161 0.23207 0.0
C166 C 0.31785 0.79759 0.26144 0.0
C167 C 0.34847 0.83472 0.28172 0.0
C168 C 0.37398 0.8466 0.31524 0.0
C169 C 0.29986 0.81392 0.22098 0.0
C170 C 0.30652 0.84087 0.2097 0.0
C171 C 0.33061 0.85095 0.24096 0.0
C172 C 0.28965 0.85886 0.16137 0.0
C173 C 0.27385 0.8023 0.19114 0.0
C174 C 0.2852 0.85476 0.07301 0.0
C175 C 0.27307 0.87382 0.02377 0.0
C176 C 0.26524 0.89741 0.06192 0.0
C177 C 0.26846 0.90088 0.15136 0.0
C178 C 0.28074 0.88181 0.20059 0.0
H179 H 0.26878 0.78364 0.22519 0.0
H180 H 0.25786 0.81626 0.2016 0.0
H181 H 0.27497 0.79799 0.12099 0.0
H182 H 0.29233 0.83743 0.04113 0.0
H183 H 0.27085 0.87053 0.95501 0.0
H184 H 0.07769 0.79037 0.20683 0.0
H185 H 0.11249 0.81742 0.27362 0.0
H186 H 0.07978 0.80101 0.52535 0.0
H187 H 0.04476 0.77387 0.45942 0.0
H188 H 0.10128 0.86251 0.38445 0.0
H189 H 0.16057 0.78693 0.54537 0.0
H190 H 0.13894 0.77936 0.45574 0.0
H191 H 0.12564 0.78434 0.56161 0.0
C192 C 0.07797 0.79229 0.27649 0.0
C193 C 0.05839 0.78005 0.32788 0.0
C194 C 0.09789 0.80771 0.31437 0.0
C195 C 0.09873 0.81089 0.40415 0.0
C196 C 0.07956 0.79839 0.45591 0.0
H197 H 0.18926 0.90371 0.76565 0.0
H198 H 0.16091 0.87137 0.69179 0.0
C199 C 0.05951 0.78307 0.41808 0.0
C200 C 0.1185 0.8289 0.44312 0.0
H201 H 0.17129 0.83148 0.578 0.0
C202 C 0.11675 0.8558 0.42628 0.0
C203 C 0.1384 0.81988 0.49782 0.0
C204 C 0.14126 0.79104 0.51602 0.0
C205 C 0.13407 0.87416 0.46473 0.0
C206 C 0.15408 0.8652 0.51952 0.0
C207 C 0.15598 0.83821 0.53564 0.0
C208 C 0.17255 0.88367 0.5633 0.0
C209 C 0.1302 0.90301 0.4487 0.0
C210 C 0.18889 0.90085 0.51532 0.0
C211 C 0.20488 0.91957 0.55722 0.0
C212 C 0.20508 0.92109 0.64786 0.0
C213 C 0.18948 0.90311 0.69574 0.0
C214 C 0.17331 0.88458 0.65373 0.0
H215 H 0.1102 0.90672 0.42405 0.0
H216 H 0.13341 0.91465 0.50865 0.0
H217 H 0.14453 0.91018 0.39951 0.0
H218 H 0.18902 0.89999 0.44543 0.0
H219 H 0.21695 0.93292 0.5186 0.0
H220 H 0.05921 0.71539 0.80565 0.0
H221 H 0.09343 0.69229 0.72707 0.0
H222 H 0.14073 0.6913 0.95736 0.0
H223 H 0.10679 0.7142 0.03642 0.0
H224 H 0.16354 0.70414 0.75175 0.0
H225 H 0.10977 0.61105 0.84143 0.0
H226 H 0.09173 0.63966 0.81256 0.0
H227 H 0.10982 0.63938 0.9116 0.0
C228 C 0.07716 0.71082 0.83895 0.0
C229 C 0.08021 0.71639 0.92737 0.0
C230 C 0.09665 0.69765 0.79404 0.0
C231 C 0.11945 0.69013 0.83681 0.0
C232 C 0.12325 0.69706 0.92347 0.0
H233 H 0.22062 0.56293 0.68917 0.0
H234 H 0.19961 0.59711 0.77409 0.0
C235 C 0.10379 0.71006 0.96845 0.0
C236 C 0.13787 0.67243 0.79442 0.0
H237 H 0.14762 0.60753 0.7566 0.0
C238 C 0.16018 0.68301 0.75265 0.0
C239 C 0.13353 0.64495 0.79741 0.0
C240 C 0.10998 0.63285 0.84316 0.0
C241 C 0.17815 0.66663 0.712 0.0
C242 C 0.17336 0.63909 0.71265 0.0
C243 C 0.15131 0.62861 0.75638 0.0
C244 C 0.18974 0.62075 0.66343 0.0
C245 C 0.20212 0.67891 0.66929 0.0
C246 C 0.19153 0.62294 0.57339 0.0
C247 C 0.20349 0.60353 0.52498 0.0
C248 C 0.21372 0.58139 0.56555 0.0
C249 C 0.21296 0.57976 0.6561 0.0
C250 C 0.20094 0.59925 0.70462 0.0
H251 H 0.20725 0.69847 0.69751 0.0
H252 H 0.21928 0.66617 0.67538 0.0
H253 H 0.19805 0.68173 0.5996 0.0
H254 H 0.18254 0.63901 0.54002 0.0
H255 H 0.20374 0.60539 0.45531 0.0
H256 H 0.77725 0.08156 0.74461 0.0
H257 H 0.80591 0.1132 0.66905 0.0
H258 H 0.80431 0.06374 0.44279 0.0
H259 H 0.77565 0.0318 0.51783 0.0
H260 H 0.85545 0.07979 0.50387 0.0
H261 H 0.78932 0.16366 0.4668 0.0
H262 H 0.7906 0.15009 0.57374 0.0
H263 H 0.77726 0.13049 0.48682 0.0
C264 C 0.78276 0.07748 0.6785 0.0
C265 C 0.77424 0.05411 0.63726 0.0
C266 C 0.79899 0.09567 0.63533 0.0
C267 C 0.80691 0.09085 0.55029 0.0
C268 C 0.7982 0.06779 0.50837 0.0
H269 H 0.89834 0.19435 0.21398 0.0
H270 H 0.86463 0.16499 0.2766 0.0
C271 C 0.78185 0.0496 0.55134 0.0
C272 C 0.82585 0.109 0.50754 0.0
H273 H 0.83469 0.17215 0.43794 0.0
C274 C 0.8509 0.09993 0.48884 0.0
C275 C 0.81967 0.13516 0.48787 0.0
C276 C 0.79269 0.14546 0.50407 0.0
C277 C 0.87027 0.11662 0.4526 0.0
C278 C 0.86436 0.143 0.43552 0.0
C279 C 0.83911 0.15192 0.45217 0.0
C280 C 0.88421 0.16154 0.3996 0.0
C281 C 0.89687 0.10594 0.43256 0.0
C282 C 0.90607 0.16953 0.44897 0.0
C283 C 0.92536 0.18634 0.41363 0.0
C284 C 0.92305 0.19534 0.32829 0.0
C285 C 0.90079 0.18764 0.27972 0.0
C286 C 0.88148 0.17094 0.31532 0.0
H287 H 0.89657 0.08413 0.43331 0.0
H288 H 0.90389 0.11286 0.36836 0.0
H289 H 0.91118 0.11318 0.48174 0.0
H290 H 0.90826 0.16262 0.5146 0.0
H291 H 0.9422 0.19198 0.45278 0.0
H292 H 0.91952 0.26334 0.81341 0.0
H293 H 0.8854 0.28602 0.73325 0.0
H294 H 0.84177 0.29598 0.96886 0.0
H295 H 0.87547 0.27342 0.04927 0.0
H296 H 0.82107 0.27706 0.74451 0.0
H297 H 0.86699 0.37204 0.85512 0.0
H298 H 0.88573 0.34271 0.84431 0.0
H299 H 0.8629 0.3456 0.9316 0.0
C300 C 0.90241 0.26989 0.84777 0.0
C301 C 0.90032 0.26681 0.93775 0.0
C302 C 0.88297 0.28279 0.80196 0.0
C303 C 0.86125 0.29271 0.84555 0.0
C304 C 0.85844 0.28845 0.93437 0.0
H305 H 0.7564 0.41498 0.68127 0.0
H306 H 0.77739 0.3816 0.76913 0.0
C307 C 0.87778 0.2756 0.98009 0.0
C308 C 0.84281 0.30971 0.80036 0.0
H309 H 0.8294 0.37412 0.7687 0.0
C310 C 0.82277 0.29828 0.74964 0.0
C311 C 0.84499 0.3373 0.80853 0.0
C312 C 0.86632 0.35035 0.86249 0.0
C313 C 0.80483 0.3139 0.70598 0.0
C314 C 0.80749 0.34161 0.71204 0.0
C315 C 0.82729 0.35291 0.76434 0.0
C316 C 0.7914 0.35944 0.65989 0.0
C317 C 0.78311 0.30058 0.65457 0.0
C318 C 0.79199 0.35786 0.56953 0.0
C319 C 0.77996 0.37676 0.51945 0.0
C320 C 0.76736 0.39788 0.55865 0.0
C321 C 0.76593 0.39895 0.64921 0.0
C322 C 0.77793 0.37991 0.69941 0.0
H323 H 0.77831 0.2806 0.67981 0.0
H324 H 0.76503 0.31218 0.65546 0.0
H325 H 0.78958 0.29847 0.58655 0.0
H326 H 0.80279 0.34268 0.53747 0.0
H327 H 0.78148 0.37536 0.44984 0.0
H328 H 0.7191 0.38933 0.23626 0.0
H329 H 0.69416 0.35342 0.16649 0.0
H330 H 0.66139 0.4086 0.98824 0.0
H331 H 0.68743 0.44421 0.05454 0.0
H332 H 0.64487 0.34477 0.15869 0.0
H333 H 0.67975 0.35311 0.82296 0.0
H334 H 0.69583 0.37065 0.91024 0.0
H335 H 0.66777 0.38409 0.85719 0.0
C336 C 0.70684 0.39366 0.18132 0.0
C337 C 0.70523 0.41946 0.15034 0.0
C338 C 0.69263 0.37316 0.14153 0.0
C339 C 0.67628 0.37819 0.07099 0.0
C340 C 0.67458 0.40403 0.04045 0.0
H341 H 0.5335 0.29735 0.93471 0.0
H342 H 0.56945 0.3222 0.00389 0.0
C343 C 0.68927 0.42443 0.07886 0.0
C344 C 0.65941 0.35689 0.03359 0.0
H345 H 0.63664 0.33233 0.84223 0.0
C346 C 0.64343 0.34171 0.0895 0.0
C347 C 0.65798 0.35231 0.94358 0.0
C348 C 0.67652 0.36572 0.88036 0.0
C349 C 0.62506 0.32312 0.0576 0.0
C350 C 0.62174 0.32055 0.96726 0.0
C351 C 0.63873 0.33466 0.91154 0.0
C352 C 0.60011 0.30437 0.92883 0.0
C353 C 0.60953 0.30647 0.1213 0.0
C354 C 0.60523 0.28673 0.86162 0.0
C355 C 0.58463 0.27324 0.82005 0.0
C356 C 0.55859 0.27683 0.84597 0.0
C357 C 0.55346 0.29402 0.91432 0.0
C358 C 0.57402 0.30802 0.95442 0.0
H359 H 0.62097 0.30337 0.18127 0.0
H360 H 0.5915 0.31675 0.13977 0.0
H361 H 0.60383 0.28698 0.09374 0.0
H362 H 0.62517 0.28366 0.84052 0.0
H363 H 0.58909 0.25997 0.76769 0.0
H364 H 0.71762 0.06697 0.16878 0.0
H365 H 0.69575 0.10159 0.24948 0.0
H366 H 0.68177 0.14281 0.01196 0.0
H367 H 0.70347 0.10852 0.93094 0.0
H368 H 0.70265 0.16288 0.24502 0.0
H369 H 0.60772 0.11995 0.12419 0.0
H370 H 0.63736 0.10148 0.12635 0.0
H371 H 0.63327 0.12635 0.04606 0.0
C372 C 0.71039 0.08369 0.134 0.0
C373 C 0.71198 0.08485 0.04343 0.0
C374 C 0.69794 0.10342 0.18014 0.0
C375 C 0.68697 0.12451 0.1363 0.0
C376 C 0.68999 0.12656 0.04667 0.0
H377 H 0.56538 0.2287 0.3135 0.0
H378 H 0.59899 0.20888 0.22315 0.0
C379 C 0.70238 0.10691 0.00059 0.0
C380 C 0.67005 0.14289 0.18263 0.0
H381 H 0.6058 0.15714 0.21303 0.0
C382 C 0.68148 0.16177 0.23802 0.0
C383 C 0.64251 0.14144 0.17246 0.0
C384 C 0.62932 0.12116 0.11452 0.0
C385 C 0.66593 0.17929 0.28414 0.0
C386 C 0.63826 0.17734 0.2759 0.0
C387 C 0.62699 0.15874 0.21899 0.0
C388 C 0.62038 0.19275 0.3304 0.0
C389 C 0.67929 0.1998 0.34061 0.0
C390 C 0.62144 0.19057 0.42056 0.0
C391 C 0.60242 0.20194 0.4721 0.0
C392 C 0.58168 0.21545 0.43451 0.0
C393 C 0.5811 0.21841 0.34434 0.0
C394 C 0.60028 0.20711 0.29271 0.0
H395 H 0.69944 0.20475 0.31713 0.0
H396 H 0.668 0.21807 0.34323 0.0
H397 H 0.68099 0.19199 0.40714 0.0
H398 H 0.63629 0.17903 0.45112 0.0
H399 H 0.60342 0.19922 0.54136 0.0
H400 H 0.31879 0.48018 0.48709 0.0
H401 H 0.35674 0.45347 0.51941 0.0
H402 H 0.322 0.38933 0.3725 0.0
H403 H 0.28472 0.41605 0.33759 0.0
H404 H 0.36094 0.40943 0.60412 0.0
H405 H 0.39385 0.39166 0.27057 0.0
H406 H 0.36977 0.4157 0.2961 0.0
H407 H 0.36006 0.3816 0.28228 0.0
C408 C 0.31933 0.4604 0.46152 0.0
C409 C 0.29885 0.45031 0.4092 0.0
C410 C 0.34105 0.4452 0.47976 0.0
C411 C 0.34261 0.41962 0.44634 0.0
C412 C 0.32179 0.40931 0.39631 0.0
H413 H 0.41631 0.28737 0.65368 0.0
H414 H 0.3893 0.32379 0.61263 0.0
C415 C 0.30031 0.42456 0.37715 0.0
C416 C 0.36518 0.40301 0.46731 0.0
H417 H 0.40772 0.36024 0.37747 0.0
C418 C 0.37146 0.39903 0.55441 0.0
C419 C 0.3795 0.38992 0.40262 0.0
C420 C 0.37564 0.3952 0.30771 0.0
C421 C 0.39041 0.38108 0.57868 0.0
C422 C 0.4028 0.36607 0.51426 0.0
C423 C 0.39782 0.37131 0.427 0.0
C424 C 0.41947 0.34367 0.53645 0.0
C425 C 0.39675 0.37828 0.67332 0.0
C426 C 0.44506 0.34191 0.5035 0.0
C427 C 0.46052 0.32066 0.52562 0.0
C428 C 0.45061 0.30092 0.58123 0.0
C429 C 0.42473 0.30244 0.61184 0.0
C430 C 0.40929 0.32341 0.58902 0.0
H431 H 0.39343 0.39685 0.70886 0.0
H432 H 0.38362 0.36284 0.70195 0.0
H433 H 0.41741 0.37273 0.6832 0.0
H434 H 0.45319 0.35717 0.46182 0.0
H435 H 0.48037 0.32001 0.50091 0.0
H436 H 0.65288 0.98568 0.72558 0.0
H437 H 0.61656 0.95483 0.69325 0.0
H438 H 0.62622 0.91799 0.94122 0.0
H439 H 0.66271 0.94879 0.97423 0.0
H440 H 0.62654 0.88348 0.79596 0.0
H441 H 0.54097 0.94829 0.7923 0.0
H442 H 0.56871 0.96002 0.73013 0.0
H443 H 0.57149 0.95733 0.84537 0.0
C444 C 0.64706 0.97125 0.77376 0.0
C445 C 0.66069 0.96956 0.85231 0.0
C446 C 0.62621 0.95377 0.75537 0.0
C447 C 0.61861 0.93438 0.81526 0.0
C448 C 0.63176 0.93299 0.89453 0.0
H449 H 0.48998 0.8194 0.77813 0.0
H450 H 0.51995 0.85531 0.823 0.0
C451 C 0.65256 0.95056 0.91322 0.0
C452 C 0.5985 0.91419 0.79181 0.0
H453 H 0.53429 0.90529 0.73373 0.0
C454 C 0.60632 0.88818 0.78294 0.0
C455 C 0.57219 0.92048 0.77528 0.0
C456 C 0.56268 0.948 0.78689 0.0
C457 C 0.58859 0.8683 0.75597 0.0
C458 C 0.56249 0.87473 0.73675 0.0
C459 C 0.55445 0.9006 0.74765 0.0
C460 C 0.54325 0.85461 0.70635 0.0
C461 C 0.59782 0.84053 0.74843 0.0
C462 C 0.5462 0.84289 0.62507 0.0
C463 C 0.52911 0.82245 0.59909 0.0
C464 C 0.50889 0.81341 0.65427 0.0
C465 C 0.50548 0.82585 0.73445 0.0
C466 C 0.5225 0.84637 0.76015 0.0
H467 H 0.61683 0.83797 0.7819 0.0
H468 H 0.58303 0.8264 0.77584 0.0
H469 H 0.60048 0.83559 0.67921 0.0
H470 H 0.56201 0.84927 0.58247 0.0
H471 H 0.53214 0.81332 0.53681 0.0
H472 H 0.0113 0.16983 0.96597 0.0
H473 H 0.04137 0.13553 0.92208 0.0
H474 H 0.08838 0.15108 0.14878 0.0
H475 H 0.0589 0.18528 0.19258 0.0
H476 H 0.11726 0.14977 -0.00388 0.0
H477 H 0.05056 0.0619 0.02938 0.0
H478 H 0.03847 0.08813 0.96444 0.0
H479 H 0.04357 0.09316 0.07802 0.0
C480 C 0.02799 0.16587 0.00656 0.0
C481 C 0.03266 0.18036 0.08276 0.0
C482 C 0.04504 0.14615 0.98171 0.0
C483 C 0.06692 0.14059 0.03278 0.0
C484 C 0.07155 0.15499 0.10865 0.0
H485 H 0.17582 0.0125 0.01847 0.0
H486 H 0.14137 0.04302 0.05705 0.0
C487 C 0.05462 0.17459 0.13349 0.0
C488 C 0.08588 0.12067 0.00607 0.0
H489 H 0.09296 0.05496 0.9725 0.0
C490 C 0.11194 0.12905 0.99077 0.0
C491 C 0.07893 0.09363 0.00034 0.0
C492 C 0.05142 0.0835 0.01953 0.0
C493 C 0.13126 0.11115 0.96955 0.0
C494 C 0.12423 0.08416 0.96201 0.0
C495 C 0.09821 0.07569 0.97789 0.0
C496 C 0.14377 0.06462 0.93699 0.0
C497 C 0.15915 0.12126 0.95695 0.0
C498 C 0.15606 0.06636 0.85618 0.0
C499 C 0.17577 0.04918 0.83425 0.0
C500 C 0.18347 0.02967 0.89243 0.0
C501 C 0.17047 0.02737 0.97239 0.0
C502 C 0.15075 0.04472 0.99443 0.0
H503 H 0.16249 0.14098 0.98641 0.0
H504 H 0.1733 0.10759 0.9854 0.0
H505 H 0.16333 0.12293 0.88681 0.0
H506 H 0.15061 0.08126 0.8103 0.0
H507 H 0.18506 0.05135 0.77164 0.0
H508 H 0.97633 0.67058 0.28222 0.0
H509 H 0.94567 0.63499 0.32432 0.0
H510 H 0.9212 0.62571 0.05936 0.0
H511 H 0.95175 0.66148 0.01636 0.0
H512 H 0.88758 0.63609 0.28135 0.0
H513 H 0.94007 0.5497 0.15568 0.0
H514 H 0.95695 0.58033 0.18295 0.0
H515 H 0.9378 0.57785 0.08611 0.0
C516 C 0.96461 0.66083 0.2327 0.0
C517 C 0.96638 0.66881 0.14597 0.0
C518 C 0.94713 0.64055 0.25694 0.0
C519 C 0.93144 0.62776 0.19476 0.0
C520 C 0.93343 0.6353 0.10793 0.0
H521 H 0.8117 0.50496 0.20496 0.0
H522 H 0.84626 0.53715 0.16692 0.0
C523 C 0.95078 0.65574 0.08362 0.0
C524 C 0.91192 0.60748 0.22162 0.0
H525 H 0.89777 0.5417 0.21406 0.0
C526 C 0.88976 0.61541 0.26713 0.0
C527 C 0.91498 0.58069 0.20219 0.0
C528 C 0.93877 0.57143 0.15445 0.0
C529 C 0.87014 0.59716 0.29258 0.0
C530 C 0.87326 0.57024 0.27392 0.0
C531 C 0.89554 0.56234 0.22859 0.0
C532 C 0.85316 0.55007 0.29836 0.0
C533 C 0.84593 0.607 0.33675 0.0
C534 C 0.846 0.54633 0.38511 0.0
C535 C 0.82607 0.52812 0.40702 0.0
C536 C 0.81329 0.51312 0.34253 0.0
C537 C 0.82115 0.51628 0.25606 0.0
C538 C 0.8409 0.53463 0.2342 0.0
H539 H 0.84347 0.62831 0.32538 0.0
H540 H 0.82801 0.59616 0.31394 0.0
H541 H 0.84768 0.60397 0.40741 0.0
H542 H 0.8557 0.55763 0.43577 0.0
H543 H 0.82057 0.52589 0.47426 0.0
H544 H 0.31951 0.02855 0.96982 0.0
H545 H 0.35481 0.05979 0.92764 0.0
H546 H 0.35495 0.02685 0.67115 0.0
H547 H 0.31981 -0.00445 0.71228 0.0
H548 H 0.40913 0.04299 0.81328 0.0
H549 H 0.33778 0.11381 0.68397 0.0
H550 H 0.32954 0.09283 0.7746 0.0
H551 H 0.33206 0.07898 0.66868 0.0
C552 C 0.32725 0.02778 0.90473 0.0
C553 C 0.31682 0.00972 0.84419 0.0
C554 C 0.34737 0.04557 0.88093 0.0
C555 C 0.35724 0.04548 0.79646 0.0
C556 C 0.34746 0.02705 0.73664 0.0
H557 H 0.45321 0.16152 0.52101 0.0
H558 H 0.42355 0.12451 0.55861 0.0
C559 C 0.32741 0.00926 0.76031 0.0
C560 C 0.37683 0.06556 0.76912 0.0
H561 H 0.38258 0.12562 0.6734 0.0
C562 C 0.40346 0.06109 0.7827 0.0
C563 C 0.36913 0.08885 0.72857 0.0
C564 C 0.34059 0.09415 0.71285 0.0
C565 C 0.42282 0.0796 0.75662 0.0
C566 C 0.4151 0.10324 0.71761 0.0
C567 C 0.3884 0.10746 0.70325 0.0
C568 C 0.43428 0.12434 0.6938 0.0
C569 C 0.45129 0.07352 0.76996 0.0
C570 C 0.44999 0.13647 0.75746 0.0
C571 C 0.46696 0.15746 0.73619 0.0
C572 C 0.46826 0.1669 0.651 0.0
C573 C 0.45261 0.15464 0.58715 0.0
C574 C 0.4357 0.13354 0.60848 0.0
H575 H 0.45407 0.05205 0.77615 0.0
H576 H 0.46361 0.08111 0.71578 0.0
H577 H 0.45835 0.08303 0.83048 0.0
H578 H 0.4487 0.13009 0.82406 0.0
H579 H 0.47866 0.16662 0.78693 0.0
H580 H 0.78698 0.92046 0.80479 0.0
H581 H 0.82208 0.89208 0.84867 0.0
H582 H 0.84359 0.94596 0.05335 0.0
H583 H 0.8083 0.97488 0.00962 0.0
H584 H 0.88727 0.92546 0.94698 0.0
H585 H 0.81899 0.84797 0.07612 0.0
H586 H 0.8115 0.85897 0.969 0.0
H587 H 0.80925 0.8813 0.05841 0.0
C588 C 0.79909 0.92642 0.85923 0.0
C589 C 0.79465 0.94993 0.9041 0.0
C590 C 0.81916 0.9101 0.88417 0.0
C591 C 0.83521 0.91683 0.9546 0.0
C592 C 0.83129 0.94045 -0.00115 0.0
H593 H 0.93157 0.80578 0.21662 0.0
H594 H 0.90206 0.84058 0.17917 0.0
C595 C 0.81108 0.95686 0.97402 0.0
C596 C 0.85562 0.89866 0.98249 0.0
H597 H 0.86347 0.83674 0.05955 0.0
C598 C 0.88217 0.90612 0.97225 0.0
C599 C 0.84881 0.87356 0.01584 0.0
C600 C 0.8206 0.86496 0.03132 0.0
C601 C 0.90216 0.8888 0.99298 0.0
C602 C 0.89529 0.86335 0.02365 0.0
C603 C 0.86871 0.85618 0.03533 0.0
C604 C 0.91515 0.84389 0.04663 0.0
C605 C 0.93041 0.89798 0.98285 0.0
C606 C 0.93255 0.83425 0.98458 0.0
C607 C 0.94968 0.81426 0.00593 0.0
C608 C 0.94939 0.8034 0.0894 0.0
C609 C 0.93221 0.81349 0.15147 0.0
C610 C 0.91532 0.83347 0.13031 0.0
H611 H 0.9324 0.91974 0.97997 0.0
H612 H 0.94255 0.89088 0.03696 0.0
H613 H 0.93831 0.88997 0.9218 0.0
H614 H 0.93239 0.84164 0.91907 0.0
H615 H 0.9626 0.80688 0.95661 0.0
H616 H 0.98401 0.3285 0.24551 0.0
H617 H 0.01179 0.3664 0.2877 0.0
H618 H 0.07271 0.34028 0.1169 0.0
H619 H 0.04437 0.30337 0.07081 0.0
H620 H 0.05518 0.36831 0.36884 0.0
H621 H 0.07389 0.41515 0.05313 0.0
H622 H 0.04947 0.38913 0.06679 0.0
H623 H 0.08344 0.38166 0.04957 0.0
C624 C 0.00318 0.33117 0.21602 0.0
C625 C 0.01203 0.31321 0.15452 0.0
C626 C 0.01905 0.35277 0.24021 0.0
C627 C 0.04419 0.35652 0.20436 0.0
C628 C 0.05307 0.33841 0.14323 0.0
H629 H 0.17679 0.43452 0.44464 0.0
H630 H 0.13982 0.40527 0.40542 0.0
C631 C 0.03695 0.31719 0.11741 0.0
C632 C 0.06181 0.37828 0.23509 0.0
H633 H 0.10513 0.42598 0.16562 0.0
C634 C 0.06578 0.38122 0.32439 0.0
C635 C 0.07524 0.39556 0.17751 0.0
C636 C 0.07003 0.39539 0.08157 0.0
C637 C 0.08354 0.40023 0.35744 0.0
C638 C 0.09864 0.41595 0.29943 0.0
C639 C 0.0939 0.4137 0.21032 0.0
C640 C 0.12003 0.43423 0.32884 0.0
C641 C 0.08564 0.40334 0.45415 0.0
C642 C 0.12167 0.46005 0.29722 0.0
C643 C 0.14326 0.47644 0.31711 0.0
C644 C 0.16333 0.46747 0.37036 0.0
C645 C 0.16134 0.44199 0.40445 0.0
C646 C 0.14009 0.42535 0.38261 0.0
H647 H 0.06681 0.39771 0.48634 0.0
H648 H 0.10077 0.39011 0.47893 0.0
H649 H 0.09113 0.42384 0.47272 0.0
H650 H 0.1065 0.46737 0.25554 0.0
H651 H 0.1444 0.49606 0.29018 0.0
H652 H 0.55536 0.68457 0.70493 0.0
H653 H 0.58508 0.65017 0.66429 0.0
H654 H 0.54049 0.63517 0.43216 0.0
H655 H 0.51022 0.66968 0.47261 0.0
H656 H 0.55578 0.58857 0.52865 0.0
H657 H 0.63899 0.65889 0.46468 0.0
H658 H 0.62362 0.66259 0.56826 0.0
H659 H 0.60543 0.66898 0.47166 0.0
C660 C 0.55174 0.67404 0.64511 0.0
C661 C 0.53046 0.6801 0.59162 0.0
C662 C 0.56882 0.65436 0.62205 0.0
C663 C 0.56514 0.64038 0.54487 0.0
C664 C 0.54366 0.64586 0.49197 0.0
H665 H 0.68115 0.55118 0.28261 0.0
H666 H 0.64661 0.58036 0.32513 0.0
C667 C 0.52647 0.66563 0.51501 0.0
C668 C 0.58425 0.62054 0.51896 0.0
H669 H 0.64863 0.61375 0.466 0.0
C670 C 0.57607 0.594 0.51459 0.0
C671 C 0.61063 0.62779 0.50027 0.0
C672 C 0.62023 0.65612 0.50062 0.0
C673 C 0.59378 0.57442 0.49289 0.0
C674 C 0.6203 0.58165 0.47608 0.0
C675 C 0.62833 0.60823 0.47975 0.0
C676 C 0.63992 0.56232 0.44982 0.0
C677 C 0.58392 0.54626 0.48652 0.0
C678 C 0.6476 0.54231 0.50587 0.0
C679 C 0.66752 0.52539 0.48166 0.0
C680 C 0.68015 0.52841 0.40129 0.0
C681 C 0.67204 0.5483 0.34522 0.0
C682 C 0.65221 0.56503 0.36928 0.0
H683 H 0.56216 0.5447 0.48344 0.0
H684 H 0.59213 0.53662 0.42856 0.0
H685 H 0.59039 0.53536 0.54428 0.0
H686 H 0.63864 0.54016 0.569 0.0
H687 H 0.67333 0.51033 0.52639 0.0
loop_
_geom_bond_atom_site_label_1
_geom_bond_atom_site_label_2
_geom_bond_distance
_geom_bond_site_symmetry_2
_ccdc_geom_bond_type
C0 O1 1.306 . S
C0 O3 1.160 . S
O1 C0 1.306 . S
O1 Cd2 2.228 . S
Cd2 O1 2.228 . S
Cd2 O6 2.273 . S
Cd2 O10 2.277 . S
O3 C0 1.160 . S
O3 Cd4 2.203 . S
Cd4 O3 2.203 . S
Cd4 O6 2.411 . S
Cd4 O7 2.333 . S
Cd4 O8 2.352 . S
Cd4 O12 2.277 . S
Cd4 O13 2.356 . S
C5 O10 1.209 . S
C5 O12 1.226 . S
O6 Cd2 2.273 . S
O6 Cd4 2.411 . S
O6 C9 1.320 . S
O7 Cd4 2.333 . S
O7 C9 1.214 . S
O8 Cd4 2.352 . S
O8 C11 1.258 . S
C9 O6 1.320 . S
C9 O7 1.214 . S
O10 Cd2 2.277 . S
O10 C5 1.209 . S
C11 O8 1.258 . S
C11 O13 1.282 . S
O12 Cd4 2.277 . S
O12 C5 1.226 . S
O13 Cd4 2.356 . S
O13 C11 1.282 . S
C14 O15 1.306 . S
C14 O17 1.160 . S
O15 C14 1.306 . S
O15 Cd16 2.228 . S
Cd16 O15 2.228 . S
Cd16 O20 2.273 . S
Cd16 O24 2.277 . S
O17 C14 1.160 . S
O17 Cd18 2.203 . S
Cd18 O17 2.203 . S
Cd18 O20 2.411 . S
Cd18 O21 2.333 . S
Cd18 O22 2.352 . S
Cd18 O26 2.277 . S
Cd18 O27 2.356 . S
C19 O24 1.209 . S
C19 O26 1.226 . S
O20 Cd16 2.273 . S
O20 Cd18 2.411 . S
O20 C23 1.320 . S
O21 Cd18 2.333 . S
O21 C23 1.214 . S
O22 Cd18 2.352 . S
O22 C25 1.258 . S
C23 O20 1.320 . S
C23 O21 1.214 . S
O24 Cd16 2.277 . S
O24 C19 1.209 . S
C25 O22 1.258 . S
C25 O27 1.282 . S
O26 Cd18 2.277 . S
O26 C19 1.226 . S
O27 Cd18 2.356 . S
O27 C25 1.282 . S
C28 O29 1.306 . S
C28 O31 1.160 . S
O29 C28 1.306 . S
O29 Cd30 2.228 1_565 S
Cd30 O29 2.228 1_545 S
Cd30 O34 2.273 1_545 S
Cd30 O38 2.277 . S
O31 C28 1.160 . S
O31 Cd32 2.203 . S
Cd32 O31 2.203 . S
Cd32 O34 2.411 . S
Cd32 O35 2.333 1_565 S
Cd32 O36 2.352 . S
Cd32 O40 2.277 . S
Cd32 O41 2.356 1_556 S
C33 O38 1.209 . S
C33 O40 1.226 1_545 S
O34 Cd30 2.273 1_565 S
O34 Cd32 2.411 . S
O34 C37 1.320 1_565 S
O35 Cd32 2.333 1_545 S
O35 C37 1.214 . S
O36 Cd32 2.352 . S
O36 C39 1.258 . S
C37 O34 1.320 1_545 S
C37 O35 1.214 . S
O38 Cd30 2.277 . S
O38 C33 1.209 . S
C39 O36 1.258 . S
C39 O41 1.282 1_556 S
O40 Cd32 2.277 . S
O40 C33 1.226 1_565 S
O41 Cd32 2.356 1_554 S
O41 C39 1.282 1_554 S
C42 O43 1.306 . S
C42 O45 1.160 . S
O43 C42 1.306 . S
O43 Cd44 2.228 1_455 S
Cd44 O43 2.228 1_655 S
Cd44 O48 2.273 1_655 S
Cd44 O52 2.277 . S
O45 C42 1.160 . S
O45 Cd46 2.203 . S
Cd46 O45 2.203 . S
Cd46 O48 2.411 . S
Cd46 O49 2.333 1_455 S
Cd46 O50 2.352 . S
Cd46 O54 2.277 . S
Cd46 O55 2.356 1_554 S
C47 O52 1.209 . S
C47 O54 1.226 1_655 S
O48 Cd44 2.273 1_455 S
O48 Cd46 2.411 . S
O48 C51 1.320 1_455 S
O49 Cd46 2.333 1_655 S
O49 C51 1.214 . S
O50 Cd46 2.352 . S
O50 C53 1.258 . S
C51 O48 1.320 1_655 S
C51 O49 1.214 . S
O52 Cd44 2.277 . S
O52 C47 1.209 . S
C53 O50 1.258 . S
C53 O55 1.282 1_554 S
O54 Cd46 2.277 . S
O54 C47 1.226 1_455 S
O55 Cd46 2.356 1_556 S
O55 C53 1.282 1_556 S
C56 O57 1.306 . S
C56 O59 1.160 . S
O57 C56 1.306 . S
O57 Cd58 2.228 1_545 S
Cd58 O57 2.228 1_565 S
Cd58 O62 2.273 1_565 S
Cd58 O66 2.277 . S
O59 C56 1.160 . S
O59 Cd60 2.203 . S
Cd60 O59 2.203 . S
Cd60 O62 2.411 . S
Cd60 O63 2.333 1_545 S
Cd60 O64 2.352 . S
Cd60 O68 2.277 . S
Cd60 O69 2.356 1_556 S
C61 O66 1.209 . S
C61 O68 1.226 1_565 S
O62 Cd58 2.273 1_545 S
O62 Cd60 2.411 . S
O62 C65 1.320 1_545 S
O63 Cd60 2.333 1_565 S
O63 C65 1.214 . S
O64 Cd60 2.352 . S
O64 C67 1.258 . S
C65 O62 1.320 1_565 S
C65 O63 1.214 . S
O66 Cd58 2.277 . S
O66 C61 1.209 . S
C67 O64 1.258 . S
C67 O69 1.282 1_556 S
O68 Cd60 2.277 . S
O68 C61 1.226 1_545 S
O69 Cd60 2.356 1_554 S
O69 C67 1.282 1_554 S
C70 O71 1.306 . S
C70 O73 1.160 . S
O71 C70 1.306 . S
O71 Cd72 2.228 1_655 S
Cd72 O71 2.228 1_455 S
Cd72 O76 2.273 1_455 S
Cd72 O80 2.277 . S
O73 C70 1.160 . S
O73 Cd74 2.203 . S
Cd74 O73 2.203 . S
Cd74 O76 2.411 . S
Cd74 O77 2.333 1_655 S
Cd74 O78 2.352 . S
Cd74 O82 2.277 . S
Cd74 O83 2.356 1_554 S
C75 O80 1.209 . S
C75 O82 1.226 1_455 S
O76 Cd72 2.273 1_655 S
O76 Cd74 2.411 . S
O76 C79 1.320 1_655 S
O77 Cd74 2.333 1_455 S
O77 C79 1.214 . S
O78 Cd74 2.352 . S
O78 C81 1.258 . S
C79 O76 1.320 1_455 S
C79 O77 1.214 . S
O80 Cd72 2.277 . S
O80 C75 1.209 . S
C81 O78 1.258 . S
C81 O83 1.282 1_554 S
O82 Cd74 2.277 . S
O82 C75 1.226 1_655 S
O83 Cd74 2.356 1_556 S
O83 C81 1.282 1_556 S
C84 O85 1.306 . S
C84 O87 1.160 . S
O85 C84 1.306 . S
O85 Cd86 2.228 . S
Cd86 O85 2.228 . S
Cd86 O90 2.273 . S
Cd86 O94 2.277 . S
O87 C84 1.160 . S
O87 Cd88 2.203 . S
Cd88 O87 2.203 . S
Cd88 O90 2.411 . S
Cd88 O91 2.333 . S
Cd88 O92 2.352 . S
Cd88 O96 2.277 . S
Cd88 O97 2.356 . S
C89 O94 1.209 . S
C89 O96 1.226 . S
O90 Cd86 2.273 . S
O90 Cd88 2.411 . S
O90 C93 1.320 . S
O91 Cd88 2.333 . S
O91 C93 1.214 . S
O92 Cd88 2.352 . S
O92 C95 1.258 . S
C93 O90 1.320 . S
C93 O91 1.214 . S
O94 Cd86 2.277 . S
O94 C89 1.209 . S
C95 O92 1.258 . S
C95 O97 1.282 . S
O96 Cd88 2.277 . S
O96 C89 1.226 . S
O97 Cd88 2.356 . S
O97 C95 1.282 . S
C98 O99 1.306 . S
C98 O101 1.160 . S
O99 C98 1.306 . S
O99 Cd100 2.228 . S
Cd100 O99 2.228 . S
Cd100 O104 2.273 . S
Cd100 O108 2.277 . S
O101 C98 1.160 . S
O101 Cd102 2.203 . S
Cd102 O101 2.203 . S
Cd102 O104 2.411 . S
Cd102 O105 2.333 . S
Cd102 O106 2.352 . S
Cd102 O110 2.277 . S
Cd102 O111 2.356 . S
C103 O108 1.209 . S
C103 O110 1.226 . S
O104 Cd100 2.273 . S
O104 Cd102 2.411 . S
O104 C107 1.320 . S
O105 Cd102 2.333 . S
O105 C107 1.214 . S
O106 Cd102 2.352 . S
O106 C109 1.258 . S
C107 O104 1.320 . S
C107 O105 1.214 . S
O108 Cd100 2.277 . S
O108 C103 1.209 . S
C109 O106 1.258 . S
C109 O111 1.282 . S
O110 Cd102 2.277 . S
O110 C103 1.226 . S
O111 Cd102 2.356 . S
O111 C109 1.282 . S
H112 C120 0.929 . S
H113 C122 0.930 . S
H114 C124 0.930 . S
H115 C127 0.929 . S
H116 C130 0.930 . S
H117 C132 0.960 . S
H118 C132 0.960 . S
H119 C132 0.960 . S
C120 H112 0.929 . S
C120 C121 1.377 . S
C120 C122 1.384 . S
C121 C120 1.377 . S
C121 C127 1.390 . S
C122 H113 0.930 . S
C122 C120 1.384 . S
C122 C123 1.372 . S
C123 C122 1.372 . S
C123 C124 1.400 . S
C123 C128 1.490 . S
C124 H114 0.930 . S
C124 C123 1.400 . S
C124 C127 1.386 . S
H125 C141 0.930 . S
H126 C142 0.931 . S
C127 H115 0.929 . S
C127 C121 1.390 . S
C127 C124 1.386 . S
C128 C123 1.490 . S
C128 C130 1.395 1_556 S
C128 C131 1.403 . S
H129 C135 0.930 . S
C130 H116 0.930 . S
C130 C128 1.395 1_554 S
C130 C133 1.403 . S
C131 C128 1.403 . S
C131 C132 1.524 . S
C131 C135 1.400 . S
C132 H117 0.960 . S
C132 H118 0.960 . S
C132 H119 0.960 . S
C132 C131 1.524 . S
C133 C130 1.403 . S
C133 C134 1.392 . S
C133 C137 1.495 . S
C134 C133 1.392 . S
C134 C135 1.385 1_554 S
C134 C136 1.478 . S
C135 H129 0.930 . S
C135 C131 1.400 . S
C135 C134 1.385 1_556 S
C136 C134 1.478 . S
C136 C138 1.381 . S
C136 C142 1.383 . S
C137 C133 1.495 . S
C137 H143 0.959 . S
C137 H144 0.961 . S
C137 H145 0.960 . S
C138 C136 1.381 . S
C138 C139 1.394 . S
C138 H146 0.930 . S
C139 C138 1.394 . S
C139 C140 1.383 . S
C139 H147 0.929 . S
C140 C139 1.383 . S
C140 C141 1.377 . S
C141 H125 0.930 . S
C141 C140 1.377 . S
C141 C142 1.379 . S
C142 H126 0.931 . S
C142 C136 1.383 . S
C142 C141 1.379 . S
H143 C137 0.959 . S
H144 C137 0.961 . S
H145 C137 0.960 . S
H146 C138 0.930 . S
H147 C139 0.929 . S
H148 C156 0.929 . S
H149 C158 0.930 . S
H150 C160 0.930 . S
H151 C163 0.929 . S
H152 C166 0.930 . S
H153 C168 0.960 . S
H154 C168 0.960 . S
H155 C168 0.960 . S
C156 H148 0.929 . S
C156 C157 1.377 . S
C156 C158 1.384 . S
C157 C156 1.377 . S
C157 C163 1.390 . S
C158 H149 0.930 . S
C158 C156 1.384 . S
C158 C159 1.372 . S
C159 C158 1.372 . S
C159 C160 1.400 . S
C159 C164 1.490 . S
C160 H150 0.930 . S
C160 C159 1.400 . S
C160 C163 1.386 . S
H161 C177 0.930 . S
H162 C178 0.931 . S
C163 H151 0.929 . S
C163 C157 1.390 . S
C163 C160 1.386 . S
C164 C159 1.490 . S
C164 C166 1.395 . S
C164 C167 1.403 . S
H165 C171 0.930 . S
C166 H152 0.930 . S
C166 C164 1.395 . S
C166 C169 1.403 . S
C167 C164 1.403 . S
C167 C168 1.524 . S
C167 C171 1.400 . S
C168 H153 0.960 . S
C168 H154 0.960 . S
C168 H155 0.960 . S
C168 C167 1.524 . S
C169 C166 1.403 . S
C169 C170 1.392 . S
C169 C173 1.495 . S
C170 C169 1.392 . S
C170 C171 1.385 . S
C170 C172 1.478 . S
C171 H165 0.930 . S
C171 C167 1.400 . S
C171 C170 1.385 . S
C172 C170 1.478 . S
C172 C174 1.381 . S
C172 C178 1.383 . S
C173 C169 1.495 . S
C173 H179 0.959 . S
C173 H180 0.961 . S
C173 H181 0.960 . S
C174 C172 1.381 . S
C174 C175 1.399 . S
C174 H182 0.930 . S
C175 C174 1.399 . S
C175 C176 1.387 . S
C175 H183 0.921 1_554 S
C176 C175 1.387 . S
C176 C177 1.377 . S
C177 H161 0.930 . S
C177 C176 1.377 . S
C177 C178 1.379 . S
C178 H162 0.931 . S
C178 C172 1.383 . S
C178 C177 1.379 . S
H179 C173 0.959 . S
H180 C173 0.961 . S
H181 C173 0.960 . S
H182 C174 0.930 . S
H183 C175 0.921 1_556 S
H184 C192 0.929 . S
H185 C194 0.930 . S
H186 C196 0.930 . S
H187 C199 0.929 . S
H188 C202 0.930 . S
H189 C204 0.960 . S
H190 C204 0.960 . S
H191 C204 0.960 . S
C192 H184 0.929 . S
C192 C193 1.377 . S
C192 C194 1.384 . S
C193 C192 1.377 . S
C193 C199 1.390 . S
C194 H185 0.930 . S
C194 C192 1.384 . S
C194 C195 1.372 . S
C195 C194 1.372 . S
C195 C196 1.400 . S
C195 C200 1.490 . S
C196 H186 0.930 . S
C196 C195 1.400 . S
C196 C199 1.386 . S
H197 C213 0.930 . S
H198 C214 0.931 . S
C199 H187 0.929 . S
C199 C193 1.390 . S
C199 C196 1.386 . S
C200 C195 1.490 . S
C200 C202 1.395 . S
C200 C203 1.403 . S
H201 C207 0.930 . S
C202 H188 0.930 . S
C202 C200 1.395 . S
C202 C205 1.403 . S
C203 C200 1.403 . S
C203 C204 1.524 . S
C203 C207 1.400 . S
C204 H189 0.960 . S
C204 H190 0.960 . S
C204 H191 0.960 . S
C204 C203 1.524 . S
C205 C202 1.403 . S
C205 C206 1.392 . S
C205 C209 1.495 . S
C206 C205 1.392 . S
C206 C207 1.385 . S
C206 C208 1.478 . S
C207 H201 0.930 . S
C207 C203 1.400 . S
C207 C206 1.385 . S
C208 C206 1.478 . S
C208 C210 1.381 . S
C208 C214 1.383 . S
C209 C205 1.495 . S
C209 H215 0.959 . S
C209 H216 0.961 . S
C209 H217 0.960 . S
C210 C208 1.381 . S
C210 C211 1.394 . S
C210 H218 0.930 . S
C211 C210 1.394 . S
C211 C212 1.383 . S
C211 H219 0.929 . S
C212 C211 1.383 . S
C212 C213 1.377 . S
C213 H197 0.930 . S
C213 C212 1.377 . S
C213 C214 1.379 . S
C214 H198 0.931 . S
C214 C208 1.383 . S
C214 C213 1.379 . S
H215 C209 0.959 . S
H216 C209 0.961 . S
H217 C209 0.960 . S
H218 C210 0.930 . S
H219 C211 0.929 . S
H220 C228 0.929 . S
H221 C230 0.930 . S
H222 C232 0.930 . S
H223 C235 0.929 1_554 S
H224 C238 0.930 . S
H225 C240 0.960 . S
H226 C240 0.960 . S
H227 C240 0.960 . S
C228 H220 0.929 . S
C228 C229 1.377 . S
C228 C230 1.384 . S
C229 C228 1.377 . S
C229 C235 1.390 . S
C230 H221 0.930 . S
C230 C228 1.384 . S
C230 C231 1.372 . S
C231 C230 1.372 . S
C231 C232 1.400 . S
C231 C236 1.490 . S
C232 H222 0.930 . S
C232 C231 1.400 . S
C232 C235 1.386 . S
H233 C249 0.930 . S
H234 C250 0.931 . S
C235 H223 0.929 1_556 S
C235 C229 1.390 . S
C235 C232 1.386 . S
C236 C231 1.490 . S
C236 C238 1.395 . S
C236 C239 1.403 . S
H237 C243 0.930 . S
C238 H224 0.930 . S
C238 C236 1.395 . S
C238 C241 1.403 . S
C239 C236 1.403 . S
C239 C240 1.524 . S
C239 C243 1.400 . S
C240 H225 0.960 . S
C240 H226 0.960 . S
C240 H227 0.960 . S
C240 C239 1.524 . S
C241 C238 1.403 . S
C241 C242 1.392 . S
C241 C245 1.495 . S
C242 C241 1.392 . S
C242 C243 1.385 . S
C242 C244 1.478 . S
C243 H237 0.930 . S
C243 C239 1.400 . S
C243 C242 1.385 . S
C244 C242 1.478 . S
C244 C246 1.381 . S
C244 C250 1.383 . S
C245 C241 1.495 . S
C245 H251 0.959 . S
C245 H252 0.961 . S
C245 H253 0.960 . S
C246 C244 1.381 . S
C246 C247 1.394 . S
C246 H254 0.930 . S
C247 C246 1.394 . S
C247 C248 1.383 . S
C247 H255 0.929 . S
C248 C247 1.383 . S
C248 C249 1.377 . S
C249 H233 0.930 . S
C249 C248 1.377 . S
C249 C250 1.379 . S
C250 H234 0.931 . S
C250 C244 1.383 . S
C250 C249 1.379 . S
H251 C245 0.959 . S
H252 C245 0.961 . S
H253 C245 0.960 . S
H254 C246 0.930 . S
H255 C247 0.929 . S
H256 C264 0.929 . S
H257 C266 0.930 . S
H258 C268 0.930 . S
H259 C271 0.929 . S
H260 C274 0.930 . S
H261 C276 0.960 . S
H262 C276 0.960 . S
H263 C276 0.960 . S
C264 H256 0.929 . S
C264 C265 1.377 . S
C264 C266 1.384 . S
C265 C264 1.377 . S
C265 C271 1.390 . S
C266 H257 0.930 . S
C266 C264 1.384 . S
C266 C267 1.372 . S
C267 C266 1.372 . S
C267 C268 1.400 . S
C267 C272 1.490 . S
C268 H258 0.930 . S
C268 C267 1.400 . S
C268 C271 1.386 . S
H269 C285 0.930 . S
H270 C286 0.931 . S
C271 H259 0.929 . S
C271 C265 1.390 . S
C271 C268 1.386 . S
C272 C267 1.490 . S
C272 C274 1.395 . S
C272 C275 1.403 . S
H273 C279 0.930 . S
C274 H260 0.930 . S
C274 C272 1.395 . S
C274 C277 1.403 . S
C275 C272 1.403 . S
C275 C276 1.524 . S
C275 C279 1.400 . S
C276 H261 0.960 . S
C276 H262 0.960 . S
C276 H263 0.960 . S
C276 C275 1.524 . S
C277 C274 1.403 . S
C277 C278 1.392 . S
C277 C281 1.495 . S
C278 C277 1.392 . S
C278 C279 1.385 . S
C278 C280 1.478 . S
C279 H273 0.930 . S
C279 C275 1.400 . S
C279 C278 1.385 . S
C280 C278 1.478 . S
C280 C282 1.381 . S
C280 C286 1.383 . S
C281 C277 1.495 . S
C281 H287 0.959 . S
C281 H288 0.961 . S
C281 H289 0.960 . S
C282 C280 1.381 . S
C282 C283 1.394 . S
C282 H290 0.930 . S
C283 C282 1.394 . S
C283 C284 1.383 . S
C283 H291 0.929 . S
C284 C283 1.383 . S
C284 C285 1.377 . S
C285 H269 0.930 . S
C285 C284 1.377 . S
C285 C286 1.379 . S
C286 H270 0.931 . S
C286 C280 1.383 . S
C286 C285 1.379 . S
H287 C281 0.959 . S
H288 C281 0.961 . S
H289 C281 0.960 . S
H290 C282 0.930 . S
H291 C283 0.929 . S
H292 C300 0.929 . S
H293 C302 0.930 . S
H294 C304 0.930 . S
H295 C307 0.929 1_554 S
H296 C310 0.930 . S
H297 C312 0.960 . S
H298 C312 0.960 . S
H299 C312 0.960 . S
C300 H292 0.929 . S
C300 C301 1.377 . S
C300 C302 1.384 . S
C301 C300 1.377 . S
C301 C307 1.390 . S
C302 H293 0.930 . S
C302 C300 1.384 . S
C302 C303 1.372 . S
C303 C302 1.372 . S
C303 C304 1.400 . S
C303 C308 1.490 . S
C304 H294 0.930 . S
C304 C303 1.400 . S
C304 C307 1.386 . S
H305 C321 0.930 . S
H306 C322 0.931 . S
C307 H295 0.929 1_556 S
C307 C301 1.390 . S
C307 C304 1.386 . S
C308 C303 1.490 . S
C308 C310 1.395 . S
C308 C311 1.403 . S
H309 C315 0.930 . S
C310 H296 0.930 . S
C310 C308 1.395 . S
C310 C313 1.403 . S
C311 C308 1.403 . S
C311 C312 1.524 . S
C311 C315 1.400 . S
C312 H297 0.960 . S
C312 H298 0.960 . S
C312 H299 0.960 . S
C312 C311 1.524 . S
C313 C310 1.403 . S
C313 C314 1.392 . S
C313 C317 1.495 . S
C314 C313 1.392 . S
C314 C315 1.385 . S
C314 C316 1.478 . S
C315 H309 0.930 . S
C315 C311 1.400 . S
C315 C314 1.385 . S
C316 C314 1.478 . S
C316 C318 1.381 . S
C316 C322 1.383 . S
C317 C313 1.495 . S
C317 H323 0.959 . S
C317 H324 0.961 . S
C317 H325 0.960 . S
C318 C316 1.381 . S
C318 C319 1.394 . S
C318 H326 0.930 . S
C319 C318 1.394 . S
C319 C320 1.383 . S
C319 H327 0.929 . S
C320 C319 1.383 . S
C320 C321 1.377 . S
C321 H305 0.930 . S
C321 C320 1.377 . S
C321 C322 1.379 . S
C322 H306 0.931 . S
C322 C316 1.383 . S
C322 C321 1.379 . S
H323 C317 0.959 . S
H324 C317 0.961 . S
H325 C317 0.960 . S
H326 C318 0.930 . S
H327 C319 0.929 . S
H328 C336 0.929 . S
H329 C338 0.930 . S
H330 C340 0.930 . S
H331 C343 0.929 . S
H332 C346 0.930 . S
H333 C348 0.960 . S
H334 C348 0.960 . S
H335 C348 0.960 . S
C336 H328 0.929 . S
C336 C337 1.377 . S
C336 C338 1.384 . S
C337 C336 1.377 . S
C337 C343 1.390 . S
C338 H329 0.930 . S
C338 C336 1.384 . S
C338 C339 1.372 . S
C339 C338 1.372 . S
C339 C340 1.400 . S
C339 C344 1.490 . S
C340 H330 0.930 . S
C340 C339 1.400 . S
C340 C343 1.386 . S
H341 C357 0.930 . S
H342 C358 0.931 . S
C343 H331 0.929 . S
C343 C337 1.390 . S
C343 C340 1.386 . S
C344 C339 1.490 . S
C344 C346 1.395 . S
C344 C347 1.403 1_554 S
H345 C351 0.930 . S
C346 H332 0.930 . S
C346 C344 1.395 . S
C346 C349 1.403 . S
C347 C344 1.403 1_556 S
C347 C348 1.524 . S
C347 C351 1.400 . S
C348 H333 0.960 . S
C348 H334 0.960 . S
C348 H335 0.960 . S
C348 C347 1.524 . S
C349 C346 1.403 . S
C349 C350 1.392 1_554 S
C349 C353 1.495 . S
C350 C349 1.392 1_556 S
C350 C351 1.385 . S
C350 C352 1.478 . S
C351 H345 0.930 . S
C351 C347 1.400 . S
C351 C350 1.385 . S
C352 C350 1.478 . S
C352 C354 1.381 . S
C352 C358 1.383 . S
C353 C349 1.495 . S
C353 H359 0.959 . S
C353 H360 0.961 . S
C353 H361 0.960 . S
C354 C352 1.381 . S
C354 C355 1.394 . S
C354 H362 0.930 . S
C355 C354 1.394 . S
C355 C356 1.383 . S
C355 H363 0.929 . S
C356 C355 1.383 . S
C356 C357 1.377 . S
C357 H341 0.930 . S
C357 C356 1.377 . S
C357 C358 1.379 . S
C358 H342 0.931 . S
C358 C352 1.383 . S
C358 C357 1.379 . S
H359 C353 0.959 . S
H360 C353 0.961 . S
H361 C353 0.960 . S
H362 C354 0.930 . S
H363 C355 0.929 . S
H364 C372 0.929 . S
H365 C374 0.930 . S
H366 C376 0.930 . S
H367 C379 0.929 1_556 S
H368 C382 0.930 . S
H369 C384 0.960 . S
H370 C384 0.960 . S
H371 C384 0.960 . S
C372 H364 0.929 . S
C372 C373 1.377 . S
C372 C374 1.384 . S
C373 C372 1.377 . S
C373 C379 1.390 . S
C374 H365 0.930 . S
C374 C372 1.384 . S
C374 C375 1.372 . S
C375 C374 1.372 . S
C375 C376 1.400 . S
C375 C380 1.490 . S
C376 H366 0.930 . S
C376 C375 1.400 . S
C376 C379 1.386 . S
H377 C393 0.930 . S
H378 C394 0.931 . S
C379 H367 0.929 1_554 S
C379 C373 1.390 . S
C379 C376 1.386 . S
C380 C375 1.490 . S
C380 C382 1.395 . S
C380 C383 1.403 . S
H381 C387 0.930 . S
C382 H368 0.930 . S
C382 C380 1.395 . S
C382 C385 1.403 . S
C383 C380 1.403 . S
C383 C384 1.524 . S
C383 C387 1.400 . S
C384 H369 0.960 . S
C384 H370 0.960 . S
C384 H371 0.960 . S
C384 C383 1.524 . S
C385 C382 1.403 . S
C385 C386 1.392 . S
C385 C389 1.495 . S
C386 C385 1.392 . S
C386 C387 1.385 . S
C386 C388 1.478 . S
C387 H381 0.930 . S
C387 C383 1.400 . S
C387 C386 1.385 . S
C388 C386 1.478 . S
C388 C390 1.381 . S
C388 C394 1.383 . S
C389 C385 1.495 . S
C389 H395 0.959 . S
C389 H396 0.961 . S
C389 H397 0.960 . S
C390 C388 1.381 . S
C390 C391 1.394 . S
C390 H398 0.930 . S
C391 C390 1.394 . S
C391 C392 1.383 . S
C391 H399 0.929 . S
C392 C391 1.383 . S
C392 C393 1.377 . S
C393 H377 0.930 . S
C393 C392 1.377 . S
C393 C394 1.379 . S
C394 H378 0.931 . S
C394 C388 1.383 . S
C394 C393 1.379 . S
H395 C389 0.959 . S
H396 C389 0.961 . S
H397 C389 0.960 . S
H398 C390 0.930 . S
H399 C391 0.929 . S
H400 C408 0.929 . S
H401 C410 0.930 . S
H402 C412 0.930 . S
H403 C415 0.929 . S
H404 C418 0.930 . S
H405 C420 0.960 . S
H406 C420 0.960 . S
H407 C420 0.960 . S
C408 H400 0.929 . S
C408 C409 1.377 . S
C408 C410 1.384 . S
C409 C408 1.377 . S
C409 C415 1.390 . S
C410 H401 0.930 . S
C410 C408 1.384 . S
C410 C411 1.372 . S
C411 C410 1.372 . S
C411 C412 1.400 . S
C411 C416 1.490 . S
C412 H402 0.930 . S
C412 C411 1.400 . S
C412 C415 1.386 . S
H413 C429 0.930 . S
H414 C430 0.931 . S
C415 H403 0.929 . S
C415 C409 1.390 . S
C415 C412 1.386 . S
C416 C411 1.490 . S
C416 C418 1.395 . S
C416 C419 1.403 . S
H417 C423 0.930 . S
C418 H404 0.930 . S
C418 C416 1.395 . S
C418 C421 1.403 . S
C419 C416 1.403 . S
C419 C420 1.524 . S
C419 C423 1.400 . S
C420 H405 0.960 . S
C420 H406 0.960 . S
C420 H407 0.960 . S
C420 C419 1.524 . S
C421 C418 1.403 . S
C421 C422 1.392 . S
C421 C425 1.495 . S
C422 C421 1.392 . S
C422 C423 1.385 . S
C422 C424 1.478 . S
C423 H417 0.930 . S
C423 C419 1.400 . S
C423 C422 1.385 . S
C424 C422 1.478 . S
C424 C426 1.381 . S
C424 C430 1.383 . S
C425 C421 1.495 . S
C425 H431 0.959 . S
C425 H432 0.961 . S
C425 H433 0.960 . S
C426 C424 1.381 . S
C426 C427 1.394 . S
C426 H434 0.930 . S
C427 C426 1.394 . S
C427 C428 1.383 . S
C427 H435 0.929 . S
C428 C427 1.383 . S
C428 C429 1.377 . S
C429 H413 0.930 . S
C429 C428 1.377 . S
C429 C430 1.379 . S
C430 H414 0.931 . S
C430 C424 1.383 . S
C430 C429 1.379 . S
H431 C425 0.959 . S
H432 C425 0.961 . S
H433 C425 0.960 . S
H434 C426 0.930 . S
H435 C427 0.929 . S
H436 C444 0.929 . S
H437 C446 0.930 . S
H438 C448 0.930 . S
H439 C451 0.929 . S
H440 C454 0.930 . S
H441 C456 0.960 . S
H442 C456 0.960 . S
H443 C456 0.960 . S
C444 H436 0.929 . S
C444 C445 1.377 . S
C444 C446 1.384 . S
C445 C444 1.377 . S
C445 C451 1.390 . S
C446 H437 0.930 . S
C446 C444 1.384 . S
C446 C447 1.372 . S
C447 C446 1.372 . S
C447 C448 1.400 . S
C447 C452 1.490 . S
C448 H438 0.930 . S
C448 C447 1.400 . S
C448 C451 1.386 . S
H449 C465 0.930 . S
H450 C466 0.931 . S
C451 H439 0.929 . S
C451 C445 1.390 . S
C451 C448 1.386 . S
C452 C447 1.490 . S
C452 C454 1.395 . S
C452 C455 1.403 . S
H453 C459 0.930 . S
C454 H440 0.930 . S
C454 C452 1.395 . S
C454 C457 1.403 . S
C455 C452 1.403 . S
C455 C456 1.524 . S
C455 C459 1.400 . S
C456 H441 0.960 . S
C456 H442 0.960 . S
C456 H443 0.960 . S
C456 C455 1.524 . S
C457 C454 1.403 . S
C457 C458 1.392 . S
C457 C461 1.495 . S
C458 C457 1.392 . S
C458 C459 1.385 . S
C458 C460 1.478 . S
C459 H453 0.930 . S
C459 C455 1.400 . S
C459 C458 1.385 . S
C460 C458 1.478 . S
C460 C462 1.381 . S
C460 C466 1.383 . S
C461 C457 1.495 . S
C461 H467 0.959 . S
C461 H468 0.961 . S
C461 H469 0.960 . S
C462 C460 1.381 . S
C462 C463 1.394 . S
C462 H470 0.930 . S
C463 C462 1.394 . S
C463 C464 1.383 . S
C463 H471 0.929 . S
C464 C463 1.383 . S
C464 C465 1.377 . S
C465 H449 0.930 . S
C465 C464 1.377 . S
C465 C466 1.379 . S
C466 H450 0.931 . S
C466 C460 1.383 . S
C466 C465 1.379 . S
H467 C461 0.959 . S
H468 C461 0.961 . S
H469 C461 0.960 . S
H470 C462 0.930 . S
H471 C463 0.929 . S
H472 C480 0.929 . S
H473 C482 0.930 . S
H474 C484 0.930 . S
H475 C487 0.929 . S
H476 C490 0.930 . S
H477 C492 0.960 . S
H478 C492 0.960 . S
H479 C492 0.960 . S
C480 H472 0.929 . S
C480 C481 1.377 1_556 S
C480 C482 1.384 . S
C481 C480 1.377 1_554 S
C481 C487 1.390 . S
C482 H473 0.930 . S
C482 C480 1.384 . S
C482 C483 1.372 1_556 S
C483 C482 1.372 1_554 S
C483 C484 1.400 . S
C483 C488 1.490 . S
C484 H474 0.930 . S
C484 C483 1.400 . S
C484 C487 1.386 . S
H485 C501 0.930 1_554 S
H486 C502 0.931 . S
C487 H475 0.929 . S
C487 C481 1.390 . S
C487 C484 1.386 . S
C488 C483 1.490 . S
C488 C490 1.395 1_554 S
C488 C491 1.403 . S
H489 C495 0.930 . S
C490 H476 0.930 . S
C490 C488 1.395 1_556 S
C490 C493 1.403 . S
C491 C488 1.403 . S
C491 C492 1.524 . S
C491 C495 1.400 . S
C492 H477 0.960 . S
C492 H478 0.960 . S
C492 H479 0.960 . S
C492 C491 1.524 . S
C493 C490 1.403 . S
C493 C494 1.392 . S
C493 C497 1.495 . S
C494 C493 1.392 . S
C494 C495 1.385 1_556 S
C494 C496 1.478 . S
C495 H489 0.930 . S
C495 C491 1.400 . S
C495 C494 1.385 1_554 S
C496 C494 1.478 . S
C496 C498 1.381 . S
C496 C502 1.383 1_556 S
C497 C493 1.495 . S
C497 H503 0.959 . S
C497 H504 0.961 . S
C497 H505 0.960 . S
C498 C496 1.381 . S
C498 C499 1.394 . S
C498 H506 0.930 . S
C499 C498 1.394 . S
C499 C500 1.383 . S
C499 H507 0.929 . S
C500 C499 1.383 . S
C500 C501 1.377 . S
C501 H485 0.930 1_556 S
C501 C500 1.377 . S
C501 C502 1.379 1_556 S
C502 H486 0.931 . S
C502 C496 1.383 1_554 S
C502 C501 1.379 1_554 S
H503 C497 0.959 . S
H504 C497 0.961 . S
H505 C497 0.960 . S
H506 C498 0.930 . S
H507 C499 0.929 . S
H508 C516 0.929 . S
H509 C518 0.930 . S
H510 C520 0.930 . S
H511 C523 0.929 . S
H512 C526 0.930 . S
H513 C528 0.960 . S
H514 C528 0.960 . S
H515 C528 0.960 . S
C516 H508 0.929 . S
C516 C517 1.377 . S
C516 C518 1.384 . S
C517 C516 1.377 . S
C517 C523 1.390 . S
C518 H509 0.930 . S
C518 C516 1.384 . S
C518 C519 1.372 . S
C519 C518 1.372 . S
C519 C520 1.400 . S
C519 C524 1.490 . S
C520 H510 0.930 . S
C520 C519 1.400 . S
C520 C523 1.386 . S
H521 C537 0.930 . S
H522 C538 0.931 . S
C523 H511 0.929 . S
C523 C517 1.390 . S
C523 C520 1.386 . S
C524 C519 1.490 . S
C524 C526 1.395 . S
C524 C527 1.403 . S
H525 C531 0.930 . S
C526 H512 0.930 . S
C526 C524 1.395 . S
C526 C529 1.403 . S
C527 C524 1.403 . S
C527 C528 1.524 . S
C527 C531 1.400 . S
C528 H513 0.960 . S
C528 H514 0.960 . S
C528 H515 0.960 . S
C528 C527 1.524 . S
C529 C526 1.403 . S
C529 C530 1.392 . S
C529 C533 1.495 . S
C530 C529 1.392 . S
C530 C531 1.385 . S
C530 C532 1.478 . S
C531 H525 0.930 . S
C531 C527 1.400 . S
C531 C530 1.385 . S
C532 C530 1.478 . S
C532 C534 1.381 . S
C532 C538 1.383 . S
C533 C529 1.495 . S
C533 H539 0.959 . S
C533 H540 0.961 . S
C533 H541 0.960 . S
C534 C532 1.381 . S
C534 C535 1.394 . S
C534 H542 0.930 . S
C535 C534 1.394 . S
C535 C536 1.383 . S
C535 H543 0.929 . S
C536 C535 1.383 . S
C536 C537 1.377 . S
C537 H521 0.930 . S
C537 C536 1.377 . S
C537 C538 1.379 . S
C538 H522 0.931 . S
C538 C532 1.383 . S
C538 C537 1.379 . S
H539 C533 0.959 . S
H540 C533 0.961 . S
H541 C533 0.960 . S
H542 C534 0.930 . S
H543 C535 0.929 . S
H544 C552 0.929 . S
H545 C554 0.930 . S
H546 C556 0.930 . S
H547 C559 0.929 . S
H548 C562 0.930 . S
H549 C564 0.960 . S
H550 C564 0.960 . S
H551 C564 0.960 . S
C552 H544 0.929 . S
C552 C553 1.377 . S
C552 C554 1.384 . S
C553 C552 1.377 . S
C553 C559 1.390 . S
C554 H545 0.930 . S
C554 C552 1.384 . S
C554 C555 1.372 . S
C555 C554 1.372 . S
C555 C556 1.400 . S
C555 C560 1.490 . S
C556 H546 0.930 . S
C556 C555 1.400 . S
C556 C559 1.386 . S
H557 C573 0.930 . S
H558 C574 0.931 . S
C559 H547 0.929 . S
C559 C553 1.390 . S
C559 C556 1.386 . S
C560 C555 1.490 . S
C560 C562 1.395 . S
C560 C563 1.403 . S
H561 C567 0.930 . S
C562 H548 0.930 . S
C562 C560 1.395 . S
C562 C565 1.403 . S
C563 C560 1.403 . S
C563 C564 1.524 . S
C563 C567 1.400 . S
C564 H549 0.960 . S
C564 H550 0.960 . S
C564 H551 0.960 . S
C564 C563 1.524 . S
C565 C562 1.403 . S
C565 C566 1.392 . S
C565 C569 1.495 . S
C566 C565 1.392 . S
C566 C567 1.385 . S
C566 C568 1.478 . S
C567 H561 0.930 . S
C567 C563 1.400 . S
C567 C566 1.385 . S
C568 C566 1.478 . S
C568 C570 1.381 . S
C568 C574 1.383 . S
C569 C565 1.495 . S
C569 H575 0.959 . S
C569 H576 0.961 . S
C569 H577 0.960 . S
C570 C568 1.381 . S
C570 C571 1.394 . S
C570 H578 0.930 . S
C571 C570 1.394 . S
C571 C572 1.383 . S
C571 H579 0.929 . S
C572 C571 1.383 . S
C572 C573 1.377 . S
C573 H557 0.930 . S
C573 C572 1.377 . S
C573 C574 1.379 . S
C574 H558 0.931 . S
C574 C568 1.383 . S
C574 C573 1.379 . S
H575 C569 0.959 . S
H576 C569 0.961 . S
H577 C569 0.960 . S
H578 C570 0.930 . S
H579 C571 0.929 . S
H580 C588 0.929 . S
H581 C590 0.930 . S
H582 C592 0.930 . S
H583 C595 0.929 1_554 S
H584 C598 0.930 . S
H585 C600 0.960 . S
H586 C600 0.960 . S
H587 C600 0.960 . S
C588 H580 0.929 . S
C588 C589 1.377 . S
C588 C590 1.384 . S
C589 C588 1.377 . S
C589 C595 1.390 . S
C590 H581 0.930 . S
C590 C588 1.384 . S
C590 C591 1.372 . S
C591 C590 1.372 . S
C591 C592 1.400 1_556 S
C591 C596 1.490 . S
C592 H582 0.930 . S
C592 C591 1.400 1_554 S
C592 C595 1.386 1_554 S
H593 C609 0.930 . S
H594 C610 0.931 . S
C595 H583 0.929 1_556 S
C595 C589 1.390 . S
C595 C592 1.386 1_556 S
C596 C591 1.490 . S
C596 C598 1.395 . S
C596 C599 1.403 1_556 S
H597 C603 0.930 . S
C598 H584 0.930 . S
C598 C596 1.395 . S
C598 C601 1.403 . S
C599 C596 1.403 1_554 S
C599 C600 1.524 . S
C599 C603 1.400 . S
C600 H585 0.960 . S
C600 H586 0.960 . S
C600 H587 0.960 . S
C600 C599 1.524 . S
C601 C598 1.403 . S
C601 C602 1.392 . S
C601 C605 1.495 . S
C602 C601 1.392 . S
C602 C603 1.385 1_556 S
C602 C604 1.478 1_556 S
C603 H597 0.930 . S
C603 C599 1.400 . S
C603 C602 1.385 1_554 S
C604 C602 1.478 1_554 S
C604 C606 1.381 1_554 S
C604 C610 1.383 . S
C605 C601 1.495 . S
C605 H611 0.959 . S
C605 H612 0.961 . S
C605 H613 0.960 . S
C606 C604 1.381 1_556 S
C606 C607 1.394 1_556 S
C606 H614 0.930 . S
C607 C606 1.394 1_554 S
C607 C608 1.383 . S
C607 H615 0.929 1_554 S
C608 C607 1.383 . S
C608 C609 1.377 . S
C609 H593 0.930 . S
C609 C608 1.377 . S
C609 C610 1.379 . S
C610 H594 0.931 . S
C610 C604 1.383 . S
C610 C609 1.379 . S
H611 C605 0.959 . S
H612 C605 0.961 . S
H613 C605 0.960 . S
H614 C606 0.930 . S
H615 C607 0.929 1_556 S
H616 C624 0.929 . S
H617 C626 0.930 . S
H618 C628 0.930 . S
H619 C631 0.929 . S
H620 C634 0.930 . S
H621 C636 0.960 . S
H622 C636 0.960 . S
H623 C636 0.960 . S
C624 H616 0.929 . S
C624 C625 1.377 . S
C624 C626 1.384 . S
C625 C624 1.377 . S
C625 C631 1.390 . S
C626 H617 0.930 . S
C626 C624 1.384 . S
C626 C627 1.372 . S
C627 C626 1.372 . S
C627 C628 1.400 . S
C627 C632 1.490 . S
C628 H618 0.930 . S
C628 C627 1.400 . S
C628 C631 1.386 . S
H629 C645 0.930 . S
H630 C646 0.931 . S
C631 H619 0.929 . S
C631 C625 1.390 . S
C631 C628 1.386 . S
C632 C627 1.490 . S
C632 C634 1.395 . S
C632 C635 1.403 . S
H633 C639 0.930 . S
C634 H620 0.930 . S
C634 C632 1.395 . S
C634 C637 1.403 . S
C635 C632 1.403 . S
C635 C636 1.524 . S
C635 C639 1.400 . S
C636 H621 0.960 . S
C636 H622 0.960 . S
C636 H623 0.960 . S
C636 C635 1.524 . S
C637 C634 1.403 . S
C637 C638 1.392 . S
C637 C641 1.495 . S
C638 C637 1.392 . S
C638 C639 1.385 . S
C638 C640 1.478 . S
C639 H633 0.930 . S
C639 C635 1.400 . S
C639 C638 1.385 . S
C640 C638 1.478 . S
C640 C642 1.381 . S
C640 C646 1.383 . S
C641 C637 1.495 . S
C641 H647 0.959 . S
C641 H648 0.961 . S
C641 H649 0.960 . S
C642 C640 1.381 . S
C642 C643 1.394 . S
C642 H650 0.930 . S
C643 C642 1.394 . S
C643 C644 1.383 . S
C643 H651 0.929 . S
C644 C643 1.383 . S
C644 C645 1.377 . S
C645 H629 0.930 . S
C645 C644 1.377 . S
C645 C646 1.379 . S
C646 H630 0.931 . S
C646 C640 1.383 . S
C646 C645 1.379 . S
H647 C641 0.959 . S
H648 C641 0.961 . S
H649 C641 0.960 . S
H650 C642 0.930 . S
H651 C643 0.929 . S
H652 C660 0.929 . S
H653 C662 0.930 . S
H654 C664 0.930 . S
H655 C667 0.929 . S
H656 C670 0.930 . S
H657 C672 0.960 . S
H658 C672 0.960 . S
H659 C672 0.960 . S
C660 H652 0.929 . S
C660 C661 1.377 . S
C660 C662 1.384 . S
C661 C660 1.377 . S
C661 C667 1.390 . S
C662 H653 0.930 . S
C662 C660 1.384 . S
C662 C663 1.372 . S
C663 C662 1.372 . S
C663 C664 1.400 . S
C663 C668 1.490 . S
C664 H654 0.930 . S
C664 C663 1.400 . S
C664 C667 1.386 . S
H665 C681 0.930 . S
H666 C682 0.931 . S
C667 H655 0.929 . S
C667 C661 1.390 . S
C667 C664 1.386 . S
C668 C663 1.490 . S
C668 C670 1.395 . S
C668 C671 1.403 . S
H669 C675 0.930 . S
C670 H656 0.930 . S
C670 C668 1.395 . S
C670 C673 1.403 . S
C671 C668 1.403 . S
C671 C672 1.524 . S
C671 C675 1.400 . S
C672 H657 0.960 . S
C672 H658 0.960 . S
C672 H659 0.960 . S
C672 C671 1.524 . S
C673 C670 1.403 . S
C673 C674 1.392 . S
C673 C677 1.495 . S
C674 C673 1.392 . S
C674 C675 1.385 . S
C674 C676 1.478 . S
C675 H669 0.930 . S
C675 C671 1.400 . S
C675 C674 1.385 . S
C676 C674 1.478 . S
C676 C678 1.381 . S
C676 C682 1.383 . S
C677 C673 1.495 . S
C677 H683 0.959 . S
C677 H684 0.961 . S
C677 H685 0.960 . S
C678 C676 1.381 . S
C678 C679 1.394 . S
C678 H686 0.930 . S
C679 C678 1.394 . S
C679 C680 1.383 . S
C679 H687 0.929 . S
C680 C679 1.383 . S
C680 C681 1.377 . S
C681 H665 0.930 . S
C681 C680 1.377 . S
C681 C682 1.379 . S
C682 H666 0.931 . S
C682 C676 1.383 . S
C682 C681 1.379 . S
H683 C677 0.959 . S
H684 C677 0.961 . S
H685 C677 0.960 . S
H686 C678 0.930 . S
H687 C679 0.929 . S
C121 C14 1.423 . S
C140 C0 1.420 . S
C157 C25 1.411 . S
C176 C39 1.417 1_554 S
C193 C42 1.424 . S
C212 C28 1.412 . S
C229 C53 1.411 1_556 S
C248 C11 1.417 . S
C265 C56 1.424 . S
C284 C70 1.412 . S
C301 C81 1.411 1_556 S
C320 C95 1.417 . S
C337 C84 1.424 . S
C356 C98 1.415 . S
C373 C67 1.411 1_554 S
C392 C109 1.417 . S
C409 C5 1.436 . S
C428 C103 1.432 . S
C445 C65 1.453 . S
C464 C23 1.450 . S
C481 C75 1.438 . S
C500 C33 1.427 . S
C517 C51 1.452 . S
C536 C93 1.444 . S
C553 C37 1.452 . S
C572 C107 1.458 . S
C589 C61 1.436 . S
C608 C47 1.440 . S
C625 C79 1.449 . S
C644 C9 1.437 . S
C661 C19 1.435 . S
C680 C89 1.436 . S
