# Generated by pormake.
# Topology wna, (6)-cn, num edge types: 1
# Building blocks:
#     Node 0, Type 0, BuildingBlock: BETDIP_clean_sbu_0, # of connection points: 6
#     Node 1, Type 0, BuildingBlock: BETDIP_clean_sbu_0, # of connection points: 6
#     Node 2, Type 0, BuildingBlock: BETDIP_clean_sbu_0, # of connection points: 6
#     Node 3, Type 0, BuildingBlock: BETDIP_clean_sbu_0, # of connection points: 6
#     Node 4, Type 0, BuildingBlock: BETDIP_clean_sbu_0, # of connection points: 6
#     Node 5, Type 0, BuildingBlock: BETDIP_clean_sbu_0, # of connection points: 6
#     Node 6, Type 0, BuildingBlock: BETDIP_clean_sbu_0, # of connection points: 6
#     Node 7, Type 0, BuildingBlock: BETDIP_clean_sbu_0, # of connection points: 6
#     Node 8, Type 0, BuildingBlock: BETDIP_clean_sbu_0, # of connection points: 6
#     Node 9, Type 0, BuildingBlock: BETDIP_clean_sbu_0, # of connection points: 6
#     Node 10, Type 0, BuildingBlock: BETDIP_clean_sbu_0, # of connection points: 6
#     Node 11, Type 0, BuildingBlock: BETDIP_clean_sbu_0, # of connection points: 6
#     Node 12, Type 0, BuildingBlock: BETDIP_clean_sbu_0, # of connection points: 6
#     Node 13, Type 0, BuildingBlock: BETDIP_clean_sbu_0, # of connection points: 6
#     Node 14, Type 0, BuildingBlock: BETDIP_clean_sbu_0, # of connection points: 6
#     Node 15, Type 0, BuildingBlock: BETDIP_clean_sbu_0, # of connection points: 6
#     Node 16, Type 0, BuildingBlock: BETDIP_clean_sbu_0, # of connection points: 6
#     Node 17, Type 0, BuildingBlock: BETDIP_clean_sbu_0, # of connection points: 6
#     Node 18, Type 0, BuildingBlock: BETDIP_clean_sbu_0, # of connection points: 6
#     Node 19, Type 0, BuildingBlock: BETDIP_clean_sbu_0, # of connection points: 6
#     Node 20, Type 0, BuildingBlock: BETDIP_clean_sbu_0, # of connection points: 6
#     Node 21, Type 0, BuildingBlock: BETDIP_clean_sbu_0, # of connection points: 6
#     Node 22, Type 0, BuildingBlock: BETDIP_clean_sbu_0, # of connection points: 6
#     Node 23, Type 0, BuildingBlock: BETDIP_clean_sbu_0, # of connection points: 6
#     Node 24, Type 0, BuildingBlock: BETDIP_clean_sbu_0, # of connection points: 6
#     Node 25, Type 0, BuildingBlock: BETDIP_clean_sbu_0, # of connection points: 6
#     Node 26, Type 0, BuildingBlock: BETDIP_clean_sbu_0, # of connection points: 6
#     Node 27, Type 0, BuildingBlock: BETDIP_clean_sbu_0, # of connection points: 6
#     Node 28, Type 0, BuildingBlock: BETDIP_clean_sbu_0, # of connection points: 6
#     Node 29, Type 0, BuildingBlock: BETDIP_clean_sbu_0, # of connection points: 6
#     Node 30, Type 0, BuildingBlock: BETDIP_clean_sbu_0, # of connection points: 6
#     Node 31, Type 0, BuildingBlock: BETDIP_clean_sbu_0, # of connection points: 6
#     Node 32, Type 0, BuildingBlock: BETDIP_clean_sbu_0, # of connection points: 6
#     Node 33, Type 0, BuildingBlock: BETDIP_clean_sbu_0, # of connection points: 6
#     Node 34, Type 0, BuildingBlock: BETDIP_clean_sbu_0, # of connection points: 6
#     Node 35, Type 0, BuildingBlock: BETDIP_clean_sbu_0, # of connection points: 6
#     Edge 36, Type (0, 0), BuildingBlock: AJUNOK_clean_linker_0, # of connection points: 2
#     Edge 37, Type (0, 0), BuildingBlock: AJUNOK_clean_linker_0, # of connection points: 2
#     Edge 38, Type (0, 0), BuildingBlock: AJUNOK_clean_linker_0, # of connection points: 2
#     Edge 39, Type (0, 0), BuildingBlock: AJUNOK_clean_linker_0, # of connection points: 2
#     Edge 40, Type (0, 0), BuildingBlock: AJUNOK_clean_linker_0, # of connection points: 2
#     Edge 41, Type (0, 0), BuildingBlock: AJUNOK_clean_linker_0, # of connection points: 2
#     Edge 42, Type (0, 0), BuildingBlock: AJUNOK_clean_linker_0, # of connection points: 2
#     Edge 43, Type (0, 0), BuildingBlock: AJUNOK_clean_linker_0, # of connection points: 2
#     Edge 44, Type (0, 0), BuildingBlock: AJUNOK_clean_linker_0, # of connection points: 2
#     Edge 45, Type (0, 0), BuildingBlock: AJUNOK_clean_linker_0, # of connection points: 2
#     Edge 46, Type (0, 0), BuildingBlock: AJUNOK_clean_linker_0, # of connection points: 2
#     Edge 47, Type (0, 0), BuildingBlock: AJUNOK_clean_linker_0, # of connection points: 2
#     Edge 48, Type (0, 0), BuildingBlock: AJUNOK_clean_linker_0, # of connection points: 2
#     Edge 49, Type (0, 0), BuildingBlock: AJUNOK_clean_linker_0, # of connection points: 2
#     Edge 50, Type (0, 0), BuildingBlock: AJUNOK_clean_linker_0, # of connection points: 2
#     Edge 51, Type (0, 0), BuildingBlock: AJUNOK_clean_linker_0, # of connection points: 2
#     Edge 52, Type (0, 0), BuildingBlock: AJUNOK_clean_linker_0, # of connection points: 2
#     Edge 53, Type (0, 0), BuildingBlock: AJUNOK_clean_linker_0, # of connection points: 2
#     Edge 54, Type (0, 0), BuildingBlock: AJUNOK_clean_linker_0, # of connection points: 2
#     Edge 55, Type (0, 0), BuildingBlock: AJUNOK_clean_linker_0, # of connection points: 2
#     Edge 56, Type (0, 0), BuildingBlock: AJUNOK_clean_linker_0, # of connection points: 2
#     Edge 57, Type (0, 0), BuildingBlock: AJUNOK_clean_linker_0, # of connection points: 2
#     Edge 58, Type (0, 0), BuildingBlock: AJUNOK_clean_linker_0, # of connection points: 2
#     Edge 59, Type (0, 0), BuildingBlock: AJUNOK_clean_linker_0, # of connection points: 2
#     Edge 60, Type (0, 0), BuildingBlock: AJUNOK_clean_linker_0, # of connection points: 2
#     Edge 61, Type (0, 0), BuildingBlock: AJUNOK_clean_linker_0, # of connection points: 2
#     Edge 62, Type (0, 0), BuildingBlock: AJUNOK_clean_linker_0, # of connection points: 2
#     Edge 63, Type (0, 0), BuildingBlock: AJUNOK_clean_linker_0, # of connection points: 2
#     Edge 64, Type (0, 0), BuildingBlock: AJUNOK_clean_linker_0, # of connection points: 2
#     Edge 65, Type (0, 0), BuildingBlock: AJUNOK_clean_linker_0, # of connection points: 2
#     Edge 66, Type (0, 0), BuildingBlock: AJUNOK_clean_linker_0, # of connection points: 2
#     Edge 67, Type (0, 0), BuildingBlock: AJUNOK_clean_linker_0, # of connection points: 2
#     Edge 68, Type (0, 0), BuildingBlock: AJUNOK_clean_linker_0, # of connection points: 2
#     Edge 69, Type (0, 0), BuildingBlock: AJUNOK_clean_linker_0, # of connection points: 2
#     Edge 70, Type (0, 0), BuildingBlock: AJUNOK_clean_linker_0, # of connection points: 2
#     Edge 71, Type (0, 0), BuildingBlock: AJUNOK_clean_linker_0, # of connection points: 2
#     Edge 72, Type (0, 0), BuildingBlock: AJUNOK_clean_linker_0, # of connection points: 2
#     Edge 73, Type (0, 0), BuildingBlock: AJUNOK_clean_linker_0, # of connection points: 2
#     Edge 74, Type (0, 0), BuildingBlock: AJUNOK_clean_linker_0, # of connection points: 2
#     Edge 75, Type (0, 0), BuildingBlock: AJUNOK_clean_linker_0, # of connection points: 2
#     Edge 76, Type (0, 0), BuildingBlock: AJUNOK_clean_linker_0, # of connection points: 2
#     Edge 77, Type (0, 0), BuildingBlock: AJUNOK_clean_linker_0, # of connection points: 2
#     Edge 78, Type (0, 0), BuildingBlock: AJUNOK_clean_linker_0, # of connection points: 2
#     Edge 79, Type (0, 0), BuildingBlock: AJUNOK_clean_linker_0, # of connection points: 2
#     Edge 80, Type (0, 0), BuildingBlock: AJUNOK_clean_linker_0, # of connection points: 2
#     Edge 81, Type (0, 0), BuildingBlock: AJUNOK_clean_linker_0, # of connection points: 2
#     Edge 82, Type (0, 0), BuildingBlock: AJUNOK_clean_linker_0, # of connection points: 2
#     Edge 83, Type (0, 0), BuildingBlock: AJUNOK_clean_linker_0, # of connection points: 2
#     Edge 84, Type (0, 0), BuildingBlock: AJUNOK_clean_linker_0, # of connection points: 2
#     Edge 85, Type (0, 0), BuildingBlock: AJUNOK_clean_linker_0, # of connection points: 2
#     Edge 86, Type (0, 0), BuildingBlock: AJUNOK_clean_linker_0, # of connection points: 2
#     Edge 87, Type (0, 0), BuildingBlock: AJUNOK_clean_linker_0, # of connection points: 2
#     Edge 88, Type (0, 0), BuildingBlock: AJUNOK_clean_linker_0, # of connection points: 2
#     Edge 89, Type (0, 0), BuildingBlock: AJUNOK_clean_linker_0, # of connection points: 2
#     Edge 90, Type (0, 0), BuildingBlock: AJUNOK_clean_linker_0, # of connection points: 2
#     Edge 91, Type (0, 0), BuildingBlock: AJUNOK_clean_linker_0, # of connection points: 2
#     Edge 92, Type (0, 0), BuildingBlock: AJUNOK_clean_linker_0, # of connection points: 2
#     Edge 93, Type (0, 0), BuildingBlock: AJUNOK_clean_linker_0, # of connection points: 2
#     Edge 94, Type (0, 0), BuildingBlock: AJUNOK_clean_linker_0, # of connection points: 2
#     Edge 95, Type (0, 0), BuildingBlock: AJUNOK_clean_linker_0, # of connection points: 2
#     Edge 96, Type (0, 0), BuildingBlock: AJUNOK_clean_linker_0, # of connection points: 2
#     Edge 97, Type (0, 0), BuildingBlock: AJUNOK_clean_linker_0, # of connection points: 2
#     Edge 98, Type (0, 0), BuildingBlock: AJUNOK_clean_linker_0, # of connection points: 2
#     Edge 99, Type (0, 0), BuildingBlock: AJUNOK_clean_linker_0, # of connection points: 2
#     Edge 100, Type (0, 0), BuildingBlock: AJUNOK_clean_linker_0, # of connection points: 2
#     Edge 101, Type (0, 0), BuildingBlock: AJUNOK_clean_linker_0, # of connection points: 2
#     Edge 102, Type (0, 0), BuildingBlock: AJUNOK_clean_linker_0, # of connection points: 2
#     Edge 103, Type (0, 0), BuildingBlock: AJUNOK_clean_linker_0, # of connection points: 2
#     Edge 104, Type (0, 0), BuildingBlock: AJUNOK_clean_linker_0, # of connection points: 2
#     Edge 105, Type (0, 0), BuildingBlock: AJUNOK_clean_linker_0, # of connection points: 2
#     Edge 106, Type (0, 0), BuildingBlock: AJUNOK_clean_linker_0, # of connection points: 2
#     Edge 107, Type (0, 0), BuildingBlock: AJUNOK_clean_linker_0, # of connection points: 2
#     Edge 108, Type (0, 0), BuildingBlock: AJUNOK_clean_linker_0, # of connection points: 2
#     Edge 109, Type (0, 0), BuildingBlock: AJUNOK_clean_linker_0, # of connection points: 2
#     Edge 110, Type (0, 0), BuildingBlock: AJUNOK_clean_linker_0, # of connection points: 2
#     Edge 111, Type (0, 0), BuildingBlock: AJUNOK_clean_linker_0, # of connection points: 2
#     Edge 112, Type (0, 0), BuildingBlock: AJUNOK_clean_linker_0, # of connection points: 2
#     Edge 113, Type (0, 0), BuildingBlock: AJUNOK_clean_linker_0, # of connection points: 2
#     Edge 114, Type (0, 0), BuildingBlock: AJUNOK_clean_linker_0, # of connection points: 2
#     Edge 115, Type (0, 0), BuildingBlock: AJUNOK_clean_linker_0, # of connection points: 2
#     Edge 116, Type (0, 0), BuildingBlock: AJUNOK_clean_linker_0, # of connection points: 2
#     Edge 117, Type (0, 0), BuildingBlock: AJUNOK_clean_linker_0, # of connection points: 2
#     Edge 118, Type (0, 0), BuildingBlock: AJUNOK_clean_linker_0, # of connection points: 2
#     Edge 119, Type (0, 0), BuildingBlock: AJUNOK_clean_linker_0, # of connection points: 2
#     Edge 120, Type (0, 0), BuildingBlock: AJUNOK_clean_linker_0, # of connection points: 2
#     Edge 121, Type (0, 0), BuildingBlock: AJUNOK_clean_linker_0, # of connection points: 2
#     Edge 122, Type (0, 0), BuildingBlock: AJUNOK_clean_linker_0, # of connection points: 2
#     Edge 123, Type (0, 0), BuildingBlock: AJUNOK_clean_linker_0, # of connection points: 2
#     Edge 124, Type (0, 0), BuildingBlock: AJUNOK_clean_linker_0, # of connection points: 2
#     Edge 125, Type (0, 0), BuildingBlock: AJUNOK_clean_linker_0, # of connection points: 2
#     Edge 126, Type (0, 0), BuildingBlock: AJUNOK_clean_linker_0, # of connection points: 2
#     Edge 127, Type (0, 0), BuildingBlock: AJUNOK_clean_linker_0, # of connection points: 2
#     Edge 128, Type (0, 0), BuildingBlock: AJUNOK_clean_linker_0, # of connection points: 2
#     Edge 129, Type (0, 0), BuildingBlock: AJUNOK_clean_linker_0, # of connection points: 2
#     Edge 130, Type (0, 0), BuildingBlock: AJUNOK_clean_linker_0, # of connection points: 2
#     Edge 131, Type (0, 0), BuildingBlock: AJUNOK_clean_linker_0, # of connection points: 2
#     Edge 132, Type (0, 0), BuildingBlock: AJUNOK_clean_linker_0, # of connection points: 2
#     Edge 133, Type (0, 0), BuildingBlock: AJUNOK_clean_linker_0, # of connection points: 2
#     Edge 134, Type (0, 0), BuildingBlock: AJUNOK_clean_linker_0, # of connection points: 2
#     Edge 135, Type (0, 0), BuildingBlock: AJUNOK_clean_linker_0, # of connection points: 2
#     Edge 136, Type (0, 0), BuildingBlock: AJUNOK_clean_linker_0, # of connection points: 2
#     Edge 137, Type (0, 0), BuildingBlock: AJUNOK_clean_linker_0, # of connection points: 2
#     Edge 138, Type (0, 0), BuildingBlock: AJUNOK_clean_linker_0, # of connection points: 2
#     Edge 139, Type (0, 0), BuildingBlock: AJUNOK_clean_linker_0, # of connection points: 2
#     Edge 140, Type (0, 0), BuildingBlock: AJUNOK_clean_linker_0, # of connection points: 2
#     Edge 141, Type (0, 0), BuildingBlock: AJUNOK_clean_linker_0, # of connection points: 2
#     Edge 142, Type (0, 0), BuildingBlock: AJUNOK_clean_linker_0, # of connection points: 2
#     Edge 143, Type (0, 0), BuildingBlock: AJUNOK_clean_linker_0, # of connection points: 2
# Relax obj value: 0.155
# Max RMSD: 0.235
# Mean RMSD: 0.216
data_MOF--net-wna--node1-BETDIP_clean_sbu_0--edge1-AJUNOK_clean_linker_0
_symmetry_space_group_name_H-M    P1
_symmetry_Int_Tables_number       1
_symmetry_cell_setting            triclinic
loop_
_symmetry_equiv_pos_as_xyz
'x, y, z'
_cell_length_a     29.796923
_cell_length_b     29.77761
_cell_length_c     128.38701
_cell_angle_alpha  90.097658
_cell_angle_beta   90.031957
_cell_angle_gamma 119.89314
loop_
_atom_site_label
_atom_site_type_symbol
_atom_site_fract_x
_atom_site_fract_y
_atom_site_fract_z
_atom_type_partial_charge
Tb0 Tb 0.13952 0.26898 0.17603 0.0
Tb1 Tb 0.1458 0.26306 0.1989 0.0
C2 C 0.1346 0.29733 0.15771 0.0
C3 C 0.15938 0.31587 0.14737 0.0
C4 C 0.1568 0.35697 0.14263 0.0
C5 C 0.17031 0.36926 0.13214 0.0
C6 C 0.18698 0.34081 0.1261 0.0
C7 C 0.19133 0.30078 0.13097 0.0
C8 C 0.17774 0.28844 0.14148 0.0
C9 C 0.15692 0.19386 0.18203 0.0
C10 C 0.25125 0.33132 0.18686 0.0
C11 C 0.14417 0.23987 0.21797 0.0
C12 C 0.11535 0.22963 0.22795 0.0
C13 C 0.11134 0.18968 0.23438 0.0
C14 C 0.08966 0.18204 0.24435 0.0
C15 C 0.07115 0.21407 0.24819 0.0
C16 C 0.07401 0.25342 0.24165 0.0
C17 C 0.09597 0.2612 0.23164 0.0
C18 C 0.12003 0.33308 0.19222 0.0
C19 C 0.04101 0.18459 0.18739 0.0
O20 O 0.15075 0.3291 0.1657 0.0
O21 O 0.12081 0.24981 0.16035 0.0
O22 O 0.17503 0.23784 0.18631 0.0
O23 O 0.13445 0.19428 0.17344 0.0
O24 O 0.22216 0.32782 0.1787 0.0
O25 O 0.22913 0.30296 0.19527 0.0
O26 O 0.1234 0.20565 0.21051 0.0
O27 O 0.16774 0.28718 0.21438 0.0
O28 O 0.10508 0.28851 0.18859 0.0
O29 O 0.14817 0.338 0.20025 0.0
O30 O 0.07083 0.19334 0.19566 0.0
O31 O 0.05776 0.21713 0.17945 0.0
H32 H 0.14178 0.37806 0.1469 0.0
H33 H 0.1652 0.39945 0.12863 0.0
H34 H 0.20411 0.27815 0.12656 0.0
H35 H 0.17971 0.25617 0.14486 0.0
H36 H 0.12624 0.16499 0.23177 0.0
H37 H 0.08775 0.15114 0.24911 0.0
H38 H 0.06078 0.27925 0.24439 0.0
H39 H 0.09885 0.29259 0.2269 0.0
Tb40 Tb 0.79034 0.88477 0.17627 0.0
Tb41 Tb 0.79591 0.89674 0.19924 0.0
C42 C 0.76161 0.85089 0.15798 0.0
C43 C 0.74269 0.85628 0.14759 0.0
C44 C 0.70102 0.81246 0.14301 0.0
C45 C 0.68892 0.81237 0.13245 0.0
C46 C 0.71819 0.85618 0.12618 0.0
C47 C 0.75838 0.90099 0.13089 0.0
C48 C 0.77054 0.90104 0.14147 0.0
C49 C 0.86412 0.97736 0.18234 0.0
C50 C 0.72619 0.93257 0.18711 0.0
C51 C 0.81938 0.9173 0.21836 0.0
C52 C 0.83028 0.89764 0.2282 0.0
C53 C 0.87986 0.92479 0.23272 0.0
C54 C 0.88955 0.91166 0.24265 0.0
C55 C 0.84981 0.8712 0.24841 0.0
C56 C 0.80055 0.84288 0.24374 0.0
C57 C 0.79084 0.85603 0.2338 0.0
C58 C 0.72805 0.80057 0.19237 0.0
C59 C 0.87676 0.87356 0.1876 0.0
O60 O 0.73008 0.83535 0.16597 0.0
O61 O 0.80904 0.88494 0.16058 0.0
O62 O 0.82032 0.95107 0.18665 0.0
O63 O 0.86381 0.95505 0.17367 0.0
O64 O 0.73089 0.90764 0.17895 0.0
O65 O 0.75427 0.93913 0.19563 0.0
O66 O 0.85339 0.93198 0.21085 0.0
O67 O 0.77201 0.89397 0.21476 0.0
O68 O 0.7723 0.83134 0.18881 0.0
O69 O 0.72218 0.82273 0.20048 0.0
O70 O 0.86664 0.89282 0.196 0.0
O71 O 0.84504 0.8581 0.17951 0.0
H72 H 0.67932 0.77721 0.14747 0.0
H73 H 0.65754 0.77733 0.1291 0.0
H74 H 0.78225 0.93515 0.12628 0.0
H75 H 0.80332 0.93531 0.14471 0.0
H76 H 0.91096 0.95743 0.22871 0.0
H77 H 0.9279 0.93447 0.24596 0.0
H78 H 0.76927 0.81069 0.24781 0.0
H79 H 0.75209 0.83427 0.23063 0.0
Tb80 Tb 0.1785 0.92192 0.17646 0.0
Tb81 Tb 0.16104 0.91516 0.20055 0.0
C82 C 0.21826 0.92821 0.1588 0.0
C83 C 0.21127 0.90653 0.14814 0.0
C84 C 0.25002 0.89818 0.14395 0.0
C85 C 0.24994 0.88699 0.13335 0.0
C86 C 0.21108 0.88394 0.12668 0.0
C87 C 0.17118 0.89046 0.13095 0.0
C88 C 0.17123 0.90158 0.14157 0.0
C89 C 0.086 0.90608 0.18201 0.0
C90 C 0.12746 0.80991 0.18746 0.0
C91 C 0.1286 0.9113 0.21888 0.0
C92 C 0.1456 0.93636 0.2293 0.0
C93 C 0.11486 0.95285 0.2345 0.0
C94 C 0.12784 0.97425 0.24453 0.0
C95 C 0.17204 0.9798 0.24969 0.0
C96 C 0.20308 0.9635 0.24445 0.0
C97 C 0.19007 0.9421 0.23437 0.0
C98 C 0.26291 0.95477 0.19554 0.0
C99 C 0.18976 1.01837 0.18837 0.0
O100 O 0.22322 0.90263 0.16661 0.0
O101 O 0.19197 0.95109 0.16131 0.0
O102 O 0.11225 0.8896 0.18681 0.0
O103 O 0.10881 0.92552 0.17321 0.0
O104 O 0.14776 0.83828 0.17891 0.0
O105 O 0.12581 0.83149 0.1965 0.0
O106 O 0.12488 0.93943 0.21145 0.0
O107 O 0.14719 0.88217 0.2155 0.0
O108 O 0.22362 0.9405 0.18995 0.0
O109 O 0.24433 0.94541 0.20488 0.0
O110 O 0.16353 0.98761 0.19622 0.0
O111 O 0.21044 1.00287 0.18106 0.0
H112 H 0.28169 0.90246 0.14881 0.0
H113 H 0.28103 0.88188 0.13032 0.0
H114 H 0.14116 0.88929 0.12601 0.0
H115 H 0.14111 0.90842 0.14453 0.0
H116 H 0.08025 0.9487 0.23081 0.0
H117 H 0.10319 0.98662 0.24825 0.0
H118 H 0.23684 0.96621 0.24823 0.0
H119 H 0.21446 0.92951 0.23061 0.0
Tb120 Tb 0.27754 0.12637 0.36478 0.0
Tb121 Tb 0.26716 0.13451 0.34063 0.0
C122 C 0.30892 0.11942 0.38266 0.0
C123 C 0.3264 0.14295 0.39312 0.0
C124 C 0.36115 0.13288 0.39861 0.0
C125 C 0.37175 0.14619 0.40916 0.0
C126 C 0.34771 0.16982 0.4145 0.0
C127 C 0.31483 0.18228 0.40883 0.0
C128 C 0.30408 0.16876 0.39826 0.0
C129 C 0.20018 0.13964 0.35878 0.0
C130 C 0.33778 0.23889 0.35393 0.0
C131 C 0.23893 0.14052 0.3224 0.0
C132 C 0.23006 0.11388 0.31216 0.0
C133 C 0.18788 0.10634 0.306 0.0
C134 C 0.17962 0.08351 0.2961 0.0
C135 C 0.21354 0.06778 0.29204 0.0
C136 C 0.25541 0.07461 0.2983 0.0
C137 C 0.26359 0.09738 0.30824 0.0
C138 C 0.33109 0.09701 0.34535 0.0
C139 C 0.19507 0.02928 0.35244 0.0
O140 O 0.33995 0.13993 0.37466 0.0
O141 O 0.26039 0.10241 0.38025 0.0
O142 O 0.24398 0.15873 0.35445 0.0
O143 O 0.20112 0.11753 0.36741 0.0
O144 O 0.32941 0.21068 0.36254 0.0
O145 O 0.31557 0.21722 0.34486 0.0
O146 O 0.20649 0.11453 0.32992 0.0
O147 O 0.28693 0.16739 0.32572 0.0
O148 O 0.30549 0.10979 0.35116 0.0
O149 O 0.32069 0.10585 0.33606 0.0
O150 O 0.19929 0.06003 0.3446 0.0
O151 O 0.23046 0.04531 0.35995 0.0
H152 H 0.37843 0.11254 0.39486 0.0
H153 H 0.39711 0.13586 0.41325 0.0
H154 H 0.29665 0.20164 0.41262 0.0
H155 H 0.27706 0.17694 0.39421 0.0
H156 H 0.16149 0.11875 0.30881 0.0
H157 H 0.14711 0.07906 0.29152 0.0
H158 H 0.2817 0.06201 0.29554 0.0
H159 H 0.29627 0.10232 0.31282 0.0
Tb160 Tb 0.92829 0.16231 0.36354 0.0
Tb161 Tb 0.92023 0.14776 0.34076 0.0
C162 C 0.93447 0.19828 0.38167 0.0
C163 C 0.90986 0.19216 0.39203 0.0
C164 C 0.91217 0.23577 0.39678 0.0
C165 C 0.89939 0.23485 0.40731 0.0
C166 C 0.88387 0.1902 0.41339 0.0
C167 C 0.87909 0.14564 0.4085 0.0
C168 C 0.892 0.1466 0.39794 0.0
C169 C 0.90775 0.06807 0.35816 0.0
C170 C 0.81582 0.11293 0.35286 0.0
C171 C 0.92317 0.12612 0.32171 0.0
C172 C 0.94961 0.14654 0.31154 0.0
C173 C 0.97278 0.12117 0.30656 0.0
C174 C 0.9935 0.13544 0.29652 0.0
C175 C 0.99144 0.17541 0.2911 0.0
C176 C 0.9692 0.20169 0.29617 0.0
C177 C 0.94836 0.18732 0.30626 0.0
C178 C 0.94909 0.24494 0.34716 0.0
C179 C 1.02253 0.16773 0.35213 0.0
O180 O 0.91689 0.21207 0.37364 0.0
O181 O 0.94946 0.16528 0.37914 0.0
O182 O 0.8908 0.0943 0.35356 0.0
O183 O 0.9306 0.09181 0.36667 0.0
O184 O 0.8456 0.13933 0.36091 0.0
O185 O 0.83719 0.10516 0.34449 0.0
O186 O 0.94963 0.11977 0.32909 0.0
O187 O 0.89304 0.14259 0.32539 0.0
O188 O 0.9631 0.21471 0.35083 0.0
O189 O 0.92053 0.2217 0.33918 0.0
O190 O 0.99037 0.14444 0.34433 0.0
O191 O 1.00953 0.18838 0.35986 0.0
H192 H 0.92635 0.27156 0.39247 0.0
H193 H 0.90321 0.26974 0.41081 0.0
H194 H 0.868 0.11083 0.41297 0.0
H195 H 0.89029 0.11244 0.39456 0.0
H196 H 0.97376 0.08919 0.31036 0.0
H197 H 1.00994 0.11407 0.29288 0.0
H198 H 0.96786 0.23337 0.29235 0.0
H199 H 0.93067 0.20764 0.30984 0.0
Tb200 Tb 0.89491 0.77916 0.36462 0.0
Tb201 Tb 0.91093 0.78733 0.34034 0.0
C202 C 0.85707 0.74775 0.38251 0.0
C203 C 0.86407 0.73211 0.39307 0.0
C204 C 0.82015 0.69502 0.39842 0.0
C205 C 0.82309 0.6849 0.40897 0.0
C206 C 0.87012 0.71176 0.41447 0.0
C207 C 0.91473 0.74729 0.40895 0.0
C208 C 0.91171 0.75756 0.39837 0.0
C209 C 0.98699 0.85428 0.35849 0.0
C210 C 0.94362 0.71584 0.35369 0.0
C211 C 0.94343 0.81316 0.32193 0.0
C212 C 0.9261 0.82093 0.31153 0.0
C213 C 0.96215 0.85985 0.30496 0.0
C214 C 0.94808 0.86682 0.29491 0.0
C215 C 0.89738 0.83511 0.29114 0.0
C216 C 0.8611 0.79627 0.29778 0.0
C217 C 0.87525 0.7893 0.30786 0.0
C218 C 0.80983 0.72565 0.34559 0.0
C219 C 0.88096 0.86198 0.35228 0.0
O220 O 0.84916 0.71649 0.37464 0.0
O221 O 0.8858 0.79658 0.37999 0.0
O222 O 0.95981 0.81096 0.354 0.0
O223 O 0.96564 0.85254 0.3674 0.0
O224 O 0.92442 0.7252 0.36226 0.0
O225 O 0.94506 0.73833 0.34459 0.0
O226 O 0.94963 0.84643 0.32928 0.0
O227 O 0.92246 0.76556 0.32545 0.0
O228 O 0.84916 0.75127 0.35116 0.0
O229 O 0.82786 0.73418 0.3362 0.0
O230 O 0.90618 0.85652 0.34432 0.0
O231 O 0.86283 0.82805 0.36003 0.0
H232 H 0.78288 0.67528 0.39454 0.0
H233 H 0.78794 0.65747 0.41295 0.0
H234 H 0.95184 0.76777 0.41286 0.0
H235 H 0.94621 0.78641 0.39442 0.0
H236 H 1.0016 0.88473 0.30757 0.0
H237 H 0.97699 0.89733 0.29009 0.0
H238 H 0.82198 0.77047 0.29511 0.0
H239 H 0.84662 0.75881 0.31273 0.0
Tb240 Tb 0.92186 0.78343 0.84115 0.0
Tb241 Tb 0.93108 0.77983 0.86402 0.0
C242 C 0.92294 0.80672 0.8221 0.0
C243 C 0.9495 0.81501 0.81187 0.0
C244 C 0.96236 0.86044 0.8063 0.0
C245 C 0.98163 0.86745 0.79612 0.0
C246 C 0.98844 0.82909 0.79117 0.0
C247 C 0.97751 0.78437 0.79688 0.0
C248 C 0.95792 0.77722 0.8071 0.0
C249 C 0.94912 0.71455 0.84786 0.0
C250 C 1.02791 0.86244 0.85229 0.0
C251 C 0.93627 0.75298 0.88247 0.0
C252 C 0.91166 0.73916 0.89296 0.0
C253 C 0.87974 0.68713 0.89588 0.0
C254 C 0.8646 0.67402 0.90631 0.0
C255 C 0.88115 0.71256 0.91407 0.0
C256 C 0.91175 0.76462 0.91107 0.0
C257 C 0.92675 0.77771 0.90068 0.0
C258 C 0.91322 0.85472 0.85807 0.0
C259 C 0.81819 0.71604 0.85379 0.0
O260 O 0.94721 0.84057 0.82947 0.0
O261 O 0.8965 0.75965 0.82576 0.0
O262 O 0.96352 0.75909 0.85139 0.0
O263 O 0.92123 0.709 0.83975 0.0
O264 O 0.99704 0.85382 0.8442 0.0
O265 O 1.01233 0.82998 0.86023 0.0
O266 O 0.91589 0.72003 0.87473 0.0
O267 O 0.95517 0.8009 0.87943 0.0
O268 O 0.8943 0.81039 0.85386 0.0
O269 O 0.9367 0.85454 0.86652 0.0
O270 O 0.84903 0.72073 0.86168 0.0
O271 O 0.83844 0.74334 0.84516 0.0
H272 H 0.9562 0.89017 0.80975 0.0
H273 H 0.99071 0.90285 0.79206 0.0
H274 H 0.98251 0.75417 0.79331 0.0
H275 H 0.94828 0.74168 0.81115 0.0
H276 H 0.86807 0.65635 0.8902 0.0
H277 H 0.84096 0.63353 0.90834 0.0
H278 H 0.92642 0.79528 0.91684 0.0
H279 H 0.95232 0.8181 0.89879 0.0
Tb280 Tb 0.27298 0.15047 0.84102 0.0
Tb281 Tb 0.28006 0.1627 0.86391 0.0
C282 C 0.24744 0.12817 0.82205 0.0
C283 C 0.23742 0.14642 0.81201 0.0
C284 C 0.19422 0.11162 0.80612 0.0
C285 C 0.18495 0.12522 0.79624 0.0
C286 C 0.21849 0.17428 0.79198 0.0
C287 C 0.26186 0.20933 0.7979 0.0
C288 C 0.27121 0.1956 0.80783 0.0
C289 C 0.34243 0.24647 0.84769 0.0
C290 C 0.19528 0.17683 0.85272 0.0
C291 C 0.30803 0.19545 0.8823 0.0
C292 C 0.32244 0.18682 0.89292 0.0
C293 C 0.37462 0.20865 0.89591 0.0
C294 C 0.38813 0.20943 0.90643 0.0
C295 C 0.34983 0.18916 0.91423 0.0
C296 C 0.29763 0.16518 0.91116 0.0
C297 C 0.28414 0.16417 0.90068 0.0
C298 C 0.20455 0.07017 0.85802 0.0
C299 C 0.34215 0.11352 0.85288 0.0
O300 O 0.21446 0.11827 0.82959 0.0
O301 O 0.29502 0.14944 0.82548 0.0
O302 O 0.29855 0.21622 0.85142 0.0
O303 O 0.34684 0.22421 0.83943 0.0
O304 O 0.20277 0.15441 0.84453 0.0
O305 O 0.2292 0.19395 0.86044 0.0
O306 O 0.34062 0.20727 0.87454 0.0
O307 O 0.26001 0.16601 0.87936 0.0
O308 O 0.24819 0.09579 0.85361 0.0
O309 O 0.20589 0.09344 0.86662 0.0
O310 O 0.33909 0.13928 0.86106 0.0
O311 O 0.31333 0.10711 0.8445 0.0
H312 H 0.168 0.07319 0.80908 0.0
H313 H 0.15202 0.09664 0.79183 0.0
H314 H 0.28852 0.2474 0.79486 0.0
H315 H 0.30507 0.22315 0.81216 0.0
H316 H 0.40517 0.22697 0.89019 0.0
H317 H 0.4287 0.2271 0.90847 0.0
H318 H 0.2671 0.14939 0.91693 0.0
H319 H 0.24357 0.14778 0.89873 0.0
Tb320 Tb 0.90923 0.13709 0.8414 0.0
Tb321 Tb 0.89671 0.13063 0.86446 0.0
C322 C 0.93221 0.13594 0.82242 0.0
C323 C 0.91402 0.10727 0.81239 0.0
C324 C 0.94879 0.09897 0.80645 0.0
C325 C 0.93552 0.07751 0.79643 0.0
C326 C 0.88696 0.0636 0.79206 0.0
C327 C 0.85159 0.07085 0.79811 0.0
C328 C 0.86496 0.09247 0.80817 0.0
C329 C 0.81342 0.11033 0.84807 0.0
C330 C 0.88286 0.03214 0.8529 0.0
C331 C 0.86267 0.1257 0.88269 0.0
C332 C 0.86917 0.15049 0.89305 0.0
C333 C 0.82603 0.14931 0.89773 0.0
C334 C 0.82729 0.16282 0.90824 0.0
C335 C 0.87187 0.17799 0.91434 0.0
C336 C 0.91577 0.181 0.90954 0.0
C337 C 0.91449 0.16748 0.89901 0.0
C338 C 0.9887 0.14754 0.85838 0.0
C339 C 0.94644 0.24249 0.85373 0.0
O340 O 0.94486 0.11464 0.82991 0.0
O341 O 0.90872 0.16002 0.82595 0.0
O342 O 0.84383 0.09662 0.85177 0.0
O343 O 0.83553 0.13739 0.83987 0.0
O344 O 0.90314 0.06156 0.84457 0.0
O345 O 0.86796 0.04902 0.86099 0.0
O346 O 0.84818 0.14291 0.8747 0.0
O347 O 0.89563 0.11077 0.88008 0.0
O348 O 0.96274 0.16563 0.85414 0.0
O349 O 0.96652 0.12602 0.86708 0.0
O350 O 0.92107 0.2134 0.86188 0.0
O351 O 0.95221 0.22047 0.84521 0.0
H352 H 0.98698 0.11035 0.80946 0.0
H353 H 0.96358 0.07219 0.79204 0.0
H354 H 0.81418 0.06138 0.79495 0.0
H355 H 0.83742 0.09876 0.81251 0.0
H356 H 0.79027 0.13537 0.8934 0.0
H357 H 0.79236 0.15882 0.9117 0.0
H358 H 0.95073 0.19261 0.914 0.0
H359 H 0.9483 0.16837 0.89567 0.0
Tb360 Tb 0.79684 0.9124 0.69954 0.0
Tb361 Tb 0.78861 0.91775 0.67658 0.0
C362 C 0.82305 0.91532 0.71844 0.0
C363 C 0.83141 0.94273 0.72858 0.0
C364 C 0.87842 0.95952 0.73387 0.0
C365 C 0.88603 0.98047 0.74393 0.0
C366 C 0.84666 0.985 0.74902 0.0
C367 C 0.79995 0.96939 0.74362 0.0
C368 C 0.79232 0.94835 0.73352 0.0
C369 C 0.72689 0.93865 0.6931 0.0
C370 C 0.87363 1.0163 0.68782 0.0
C371 C 0.7595 0.92245 0.65829 0.0
C372 C 0.74528 0.89942 0.64765 0.0
C373 C 0.69315 0.86857 0.64468 0.0
C374 C 0.67964 0.85569 0.63417 0.0
C375 C 0.71787 0.87409 0.62635 0.0
C376 C 0.77006 0.90283 0.6294 0.0
C377 C 0.78356 0.91543 0.63988 0.0
C378 C 0.86417 0.9002 0.68218 0.0
C379 C 0.72688 0.80697 0.68761 0.0
O380 O 0.85569 0.93988 0.71092 0.0
O381 O 0.7757 0.88725 0.71498 0.0
O382 O 0.77056 0.95219 0.68926 0.0
O383 O 0.7231 0.91258 0.70139 0.0
O384 O 0.86645 0.98664 0.69601 0.0
O385 O 0.84014 0.99958 0.68003 0.0
O386 O 0.72731 0.90095 0.66608 0.0
O387 O 0.80774 0.94197 0.66116 0.0
O388 O 0.82092 0.8827 0.68672 0.0
O389 O 0.86218 0.92163 0.67358 0.0
O390 O 0.72943 0.83581 0.6795 0.0
O391 O 0.75652 0.82905 0.6959 0.0
H392 H 0.90902 0.95516 0.73031 0.0
H393 H 0.92236 0.99179 0.74785 0.0
H394 H 0.76918 0.9733 0.7472 0.0
H395 H 0.75559 0.93576 0.72967 0.0
H396 H 0.66261 0.85602 0.65042 0.0
H397 H 0.63909 0.83239 0.63214 0.0
H398 H 0.80055 0.91785 0.62362 0.0
H399 H 0.82409 0.93998 0.64182 0.0
Tb400 Tb 0.14475 0.89352 0.69887 0.0
Tb401 Tb 0.1396 0.88313 0.67597 0.0
C402 C 0.14081 0.91316 0.718 0.0
C403 C 0.11187 0.89404 0.72797 0.0
C404 C 0.09668 0.92563 0.73326 0.0
C405 C 0.07412 0.91215 0.74317 0.0
C406 C 0.06571 0.86637 0.74809 0.0
C407 C 0.08063 0.83444 0.74276 0.0
C408 C 0.10343 0.84808 0.73281 0.0
C409 C 0.12022 0.79874 0.6918 0.0
C410 C 0.04043 0.8679 0.68726 0.0
C411 C 0.13537 0.85074 0.65758 0.0
C412 C 0.15987 0.85611 0.64725 0.0
C413 C 0.15037 0.81098 0.64192 0.0
C414 C 0.1634 0.81277 0.63139 0.0
C415 C 0.18616 0.85982 0.62587 0.0
C416 C 0.19834 0.90553 0.63138 0.0
C417 C 0.1851 0.90369 0.64193 0.0
C418 C 0.15503 0.97471 0.68223 0.0
C419 C 0.25089 0.93279 0.68698 0.0
O420 O 0.1189 0.9251 0.71053 0.0
O421 O 0.16662 0.89159 0.7144 0.0
O422 O 0.10507 0.82835 0.68828 0.0
O423 O 0.14776 0.8212 0.69995 0.0
O424 O 0.06963 0.88789 0.69563 0.0
O425 O 0.05767 0.85352 0.67915 0.0
O426 O 0.15028 0.83394 0.66556 0.0
O427 O 0.12312 0.88565 0.66023 0.0
O428 O 0.17391 0.94932 0.68646 0.0
O429 O 0.13269 0.95164 0.67363 0.0
O430 O 0.22226 0.90756 0.67874 0.0
O431 O 0.22829 0.93822 0.69543 0.0
H432 H 0.10358 0.96176 0.72983 0.0
H433 H 0.06465 0.93854 0.7471 0.0
H434 H 0.0748 0.79894 0.7463 0.0
H435 H 0.11516 0.82309 0.729 0.0
H436 H 0.1304 0.77373 0.64578 0.0
H437 H 0.15334 0.77681 0.62743 0.0
H438 H 0.21708 0.94263 0.62746 0.0
H439 H 0.19285 0.93917 0.64582 0.0
Tb440 Tb 0.15944 0.26196 0.69922 0.0
Tb441 Tb 0.17336 0.26697 0.67633 0.0
C442 C 0.13659 0.23765 0.7182 0.0
C443 C 0.15522 0.22935 0.72839 0.0
C444 C 0.12615 0.18134 0.73338 0.0
C445 C 0.13813 0.17373 0.74355 0.0
C446 C 0.17942 0.21407 0.74905 0.0
C447 C 0.20992 0.2616 0.74392 0.0
C448 C 0.19778 0.26931 0.73372 0.0
C449 C 0.25559 0.3306 0.69272 0.0
C450 C 0.18584 0.18267 0.68797 0.0
C451 C 0.2068 0.29475 0.65802 0.0
C452 C 0.19645 0.30811 0.64745 0.0
C453 C 0.22398 0.35952 0.64387 0.0
C454 C 0.22253 0.37101 0.63331 0.0
C455 C 0.19385 0.33126 0.62608 0.0
C456 C 0.16473 0.28018 0.62973 0.0
C457 C 0.16593 0.26873 0.64027 0.0
C458 C 0.08016 0.19287 0.68202 0.0
C459 C 0.1252 0.33152 0.68676 0.0
O460 O 0.12783 0.20424 0.71077 0.0
O461 O 0.1564 0.28481 0.71461 0.0
O462 O 0.22562 0.28635 0.68908 0.0
O463 O 0.23319 0.33584 0.70085 0.0
O464 O 0.16334 0.19113 0.69602 0.0
O465 O 0.20336 0.2156 0.68011 0.0
O466 O 0.21764 0.32752 0.66573 0.0
O467 O 0.1788 0.24667 0.66102 0.0
O468 O 0.10592 0.23671 0.68638 0.0
O469 O 0.10358 0.19333 0.67352 0.0
O470 O 0.15141 0.32696 0.67886 0.0
O471 O 0.11706 0.30312 0.69528 0.0
H472 H 0.09303 0.1499 0.72951 0.0
H473 H 0.11455 0.13629 0.74716 0.0
H474 H 0.24209 0.29339 0.74793 0.0
H475 H 0.22088 0.30688 0.73013 0.0
H476 H 0.24866 0.39062 0.64913 0.0
H477 H 0.24602 0.41068 0.63073 0.0
H478 H 0.14212 0.24875 0.62436 0.0
H479 H 0.14469 0.22856 0.64266 0.0
Tb480 Tb 0.80344 0.59938 0.50906 0.0
Tb481 Tb 0.81062 0.59255 0.53191 0.0
C482 C 0.79884 0.62939 0.49088 0.0
C483 C 0.82479 0.64935 0.48069 0.0
C484 C 0.82195 0.69046 0.47602 0.0
C485 C 0.8365 0.70385 0.46561 0.0
C486 C 0.85448 0.6765 0.45958 0.0
C487 C 0.85928 0.63662 0.46439 0.0
C488 C 0.84467 0.6232 0.47482 0.0
C489 C 0.82124 0.52406 0.51464 0.0
C490 C 0.91534 0.66179 0.51977 0.0
C491 C 0.8087 0.56801 0.55091 0.0
C492 C 0.78186 0.55921 0.56114 0.0
C493 C 0.76834 0.51332 0.56659 0.0
C494 C 0.74903 0.50597 0.57678 0.0
C495 C 0.74285 0.54447 0.58186 0.0
C496 C 0.75453 0.5897 0.57626 0.0
C497 C 0.77412 0.59717 0.56604 0.0
C498 C 0.78413 0.66234 0.52545 0.0
C499 C 0.70591 0.51383 0.52034 0.0
O500 O 0.814 0.66022 0.49901 0.0
O501 O 0.78542 0.58173 0.49332 0.0
O502 O 0.83952 0.56769 0.51913 0.0
O503 O 0.79827 0.52512 0.50617 0.0
O504 O 0.8856 0.65837 0.51175 0.0
O505 O 0.89409 0.63267 0.52815 0.0
O506 O 0.78482 0.53457 0.54345 0.0
O507 O 0.83518 0.61529 0.54737 0.0
O508 O 0.76936 0.61797 0.52177 0.0
O509 O 0.81229 0.66719 0.53347 0.0
O510 O 0.73588 0.52256 0.52858 0.0
O511 O 0.72202 0.54626 0.51238 0.0
H512 H 0.80588 0.71063 0.48028 0.0
H513 H 0.83107 0.73391 0.46213 0.0
H514 H 0.87309 0.61486 0.45999 0.0
H515 H 0.84696 0.59101 0.47815 0.0
H516 H 0.77403 0.48347 0.56305 0.0
H517 H 0.73934 0.47016 0.58074 0.0
H518 H 0.75008 0.62006 0.57992 0.0
H519 H 0.78432 0.6331 0.56209 0.0
Tb520 Tb 0.45359 0.21263 0.50949 0.0
Tb521 Tb 0.4621 0.22675 0.53226 0.0
C522 C 0.42309 0.17808 0.49131 0.0
C523 C 0.40497 0.18524 0.48098 0.0
C524 C 0.36255 0.14267 0.47626 0.0
C525 C 0.3505 0.14435 0.46577 0.0
C526 C 0.38056 0.18881 0.45971 0.0
C527 C 0.42187 0.2322 0.46455 0.0
C528 C 0.43393 0.2305 0.47507 0.0
C529 C 0.52951 0.30553 0.51495 0.0
C530 C 0.39296 0.26391 0.52045 0.0
C531 C 0.48796 0.2499 0.55121 0.0
C532 C 0.49824 0.2325 0.56133 0.0
C533 C 0.53823 0.26925 0.56764 0.0
C534 C 0.54739 0.25612 0.57757 0.0
C535 C 0.51703 0.20558 0.58149 0.0
C536 C 0.47684 0.16858 0.57514 0.0
C537 C 0.46756 0.18186 0.56516 0.0
C538 C 0.39166 0.13029 0.52591 0.0
C539 C 0.53989 0.2002 0.52054 0.0
O540 O 0.39191 0.16457 0.49935 0.0
O541 O 0.47121 0.21011 0.49385 0.0
O542 O 0.48626 0.2805 0.51953 0.0
O543 O 0.52772 0.2813 0.50646 0.0
O544 O 0.39544 0.2374 0.51233 0.0
O545 O 0.42219 0.27064 0.52877 0.0
O546 O 0.52086 0.25963 0.54366 0.0
O547 O 0.44032 0.22802 0.54781 0.0
O548 O 0.4357 0.15974 0.52212 0.0
O549 O 0.38758 0.154 0.53396 0.0
O550 O 0.53215 0.22241 0.52874 0.0
O551 O 0.50601 0.18296 0.51281 0.0
H552 H 0.34021 0.10696 0.48056 0.0
H553 H 0.31919 0.10978 0.46227 0.0
H554 H 0.44573 0.26707 0.46013 0.0
H555 H 0.4672 0.26388 0.47843 0.0
H556 H 0.56194 0.30874 0.56495 0.0
H557 H 0.57765 0.28609 0.58229 0.0
H558 H 0.45265 0.12933 0.5779 0.0
H559 H 0.43619 0.15277 0.56049 0.0
Tb560 Tb 0.8396 0.2483 0.50883 0.0
Tb561 Tb 0.8292 0.24377 0.53179 0.0
C562 C 0.87224 0.25233 0.4905 0.0
C563 C 0.86643 0.22777 0.48012 0.0
C564 C 0.90987 0.22897 0.47557 0.0
C565 C 0.90978 0.21693 0.46501 0.0
C566 C 0.86619 0.20336 0.4587 0.0
C567 C 0.82171 0.19962 0.46338 0.0
C568 C 0.82182 0.21173 0.47396 0.0
C569 C 0.74757 0.23094 0.51503 0.0
C570 C 0.79189 0.13729 0.51992 0.0
C571 C 0.80839 0.24683 0.55086 0.0
C572 C 0.82672 0.27728 0.5607 0.0
C573 C 0.7919 0.28618 0.56649 0.0
C574 C 0.8053 0.30924 0.57638 0.0
C575 C 0.85395 0.32389 0.5808 0.0
C576 C 0.8895 0.31641 0.57486 0.0
C577 C 0.87601 0.29324 0.56494 0.0
C578 C 0.92486 0.27082 0.52483 0.0
C579 C 0.85309 0.34736 0.52005 0.0
O580 O 0.8883 0.23667 0.49848 0.0
O581 O 0.8383 0.2659 0.49314 0.0
O582 O 0.77394 0.21336 0.51932 0.0
O583 O 0.76957 0.2524 0.50632 0.0
O584 O 0.81617 0.16584 0.51163 0.0
O585 O 0.7867 0.15992 0.5284 0.0
O586 O 0.79305 0.26544 0.54332 0.0
O587 O 0.83338 0.22424 0.54735 0.0
O588 O 0.894 0.2843 0.52125 0.0
O589 O 0.90301 0.24339 0.533 0.0
O590 O 0.83417 0.31871 0.52851 0.0
O591 O 0.86739 0.33003 0.51194 0.0
H592 H 0.945 0.24186 0.48007 0.0
H593 H 0.94456 0.21992 0.46168 0.0
H594 H 0.78775 0.19009 0.45873 0.0
H595 H 0.78786 0.21099 0.47718 0.0
H596 H 0.7535 0.27387 0.56348 0.0
H597 H 0.77684 0.31413 0.58071 0.0
H598 H 0.92771 0.32824 0.57791 0.0
H599 H 0.90381 0.28698 0.56069 0.0
Tb600 Tb 0.94522 0.46531 0.69731 0.0
Tb601 Tb 0.93648 0.46715 0.67324 0.0
C602 C 0.97064 0.47307 0.71612 0.0
C603 C 0.98462 0.4796 0.72738 0.0
C604 C 1.00607 0.45204 0.73212 0.0
C605 C 1.01675 0.45707 0.74287 0.0
C606 C 1.00578 0.4894 0.7491 0.0
C607 C 0.98533 0.51765 0.74428 0.0
C608 C 0.97483 0.51277 0.73359 0.0
C609 C 0.86567 0.4734 0.69033 0.0
C610 C 1.0104 0.57212 0.68523 0.0
C611 C 0.9087 0.46918 0.65474 0.0
C612 C 0.90292 0.44527 0.64427 0.0
C613 C 0.857 0.42967 0.63865 0.0
C614 C 0.85102 0.40999 0.6285 0.0
C615 C 0.89085 0.40526 0.62366 0.0
C616 C 0.93683 0.42055 0.62934 0.0
C617 C 0.94279 0.44028 0.63953 0.0
C618 C 1.00403 0.43547 0.67876 0.0
C619 C 0.86217 0.36414 0.68618 0.0
O620 O 0.97657 0.44194 0.70971 0.0
O621 O 0.95157 0.49973 0.7118 0.0
O622 O 0.91035 0.49412 0.68626 0.0
O623 O 0.86635 0.45017 0.69879 0.0
O624 O 1.00818 0.54321 0.69327 0.0
O625 O 0.98083 0.55083 0.67687 0.0
O626 O 0.87702 0.43973 0.66205 0.0
O627 O 0.95564 0.49992 0.65829 0.0
O628 O 0.97798 0.44856 0.68439 0.0
O629 O 0.9927 0.44132 0.66933 0.0
O630 O 0.86978 0.39186 0.67759 0.0
O631 O 0.89287 0.38309 0.69445 0.0
H632 H 1.01407 0.4262 0.72757 0.0
H633 H 1.03266 0.4349 0.74635 0.0
H634 H 0.97758 0.54382 0.74879 0.0
H635 H 0.95856 0.53483 0.7302 0.0
H636 H 0.82575 0.43334 0.64208 0.0
H637 H 0.815 0.39837 0.62443 0.0
H638 H 0.96873 0.41842 0.62582 0.0
H639 H 0.97882 0.45227 0.64362 0.0
Tb640 Tb 0.59352 0.4956 0.69743 0.0
Tb641 Tb 0.58688 0.4857 0.67419 0.0
C642 C 0.59981 0.52956 0.71574 0.0
C643 C 0.57642 0.52489 0.72617 0.0
C644 C 0.58739 0.57041 0.73152 0.0
C645 C 0.5749 0.56903 0.74208 0.0
C646 C 0.55121 0.52199 0.7476 0.0
C647 C 0.53774 0.47596 0.74208 0.0
C648 C 0.55044 0.4774 0.7315 0.0
C649 C 0.57696 0.40463 0.69087 0.0
C650 C 0.48194 0.44782 0.68658 0.0
C651 C 0.58798 0.46647 0.65493 0.0
C652 C 0.61851 0.48424 0.64508 0.0
C653 C 0.63217 0.451 0.63997 0.0
C654 C 0.65513 0.46319 0.63007 0.0
C655 C 0.66543 0.50923 0.62499 0.0
C656 C 0.65239 0.54293 0.63017 0.0
C657 C 0.62922 0.53062 0.64009 0.0
C658 C 0.61355 0.58028 0.68163 0.0
C659 C 0.69125 0.50919 0.68562 0.0
O660 O 0.58361 0.54538 0.70781 0.0
O661 O 0.6121 0.49464 0.71309 0.0
O662 O 0.55879 0.43085 0.68672 0.0
O663 O 0.59733 0.42521 0.69976 0.0
O664 O 0.51095 0.4717 0.69487 0.0
O665 O 0.50371 0.44304 0.67793 0.0
O666 O 0.60487 0.44846 0.66229 0.0
O667 O 0.56793 0.49331 0.65873 0.0
O668 O 0.62762 0.54948 0.68494 0.0
O669 O 0.58565 0.55909 0.67345 0.0
O670 O 0.66235 0.49149 0.67713 0.0
O671 O 0.67467 0.5229 0.69394 0.0
H672 H 0.60797 0.60759 0.72764 0.0
H673 H 0.58599 0.60522 0.74604 0.0
H674 H 0.51829 0.43889 0.746 0.0
H675 H 0.54157 0.44164 0.72759 0.0
H676 H 0.62354 0.41452 0.64349 0.0
H677 H 0.66322 0.43553 0.62626 0.0
H678 H 0.65978 0.57874 0.62652 0.0
H679 H 0.61875 0.55694 0.64373 0.0
Tb680 Tb 0.56141 0.11319 0.69743 0.0
Tb681 Tb 0.57426 0.1171 0.67456 0.0
C682 C 0.52616 0.08468 0.71562 0.0
C683 C 0.53158 0.06592 0.72599 0.0
C684 C 0.48653 0.03094 0.73135 0.0
C685 C 0.48866 1.01937 0.74185 0.0
C686 C 0.53598 0.0427 0.7473 0.0
C687 C 0.58154 0.07578 0.74177 0.0
C688 C 0.57936 0.08747 0.73124 0.0
C689 C 0.65443 0.18721 0.69168 0.0
C690 C 0.61063 0.04939 0.68696 0.0
C691 C 0.59562 0.13977 0.65546 0.0
C692 C 0.57677 0.14831 0.64528 0.0
C693 C 0.60262 0.19789 0.64077 0.0
C694 C 0.59119 0.20606 0.6306 0.0
C695 C 0.55376 0.1648 0.62458 0.0
C696 C 0.52634 0.11552 0.62921 0.0
C697 C 0.53794 0.10725 0.63942 0.0
C698 C 0.47803 0.04955 0.68129 0.0
C699 C 0.55146 0.19908 0.68559 0.0
O700 O 0.51147 0.05304 0.70762 0.0
O701 O 0.56031 0.13214 0.71307 0.0
O702 O 0.62868 0.14328 0.6873 0.0
O703 O 0.63085 0.187 0.70016 0.0
O704 O 0.58538 0.05405 0.69506 0.0
O705 O 0.61701 0.07694 0.67842 0.0
O706 O 0.60621 0.17386 0.66283 0.0
O707 O 0.57493 0.09275 0.65916 0.0
O708 O 0.50854 0.0941 0.68476 0.0
O709 O 0.50034 0.04317 0.67327 0.0
O710 O 0.57211 0.18834 0.67755 0.0
O711 O 0.5344 0.16758 0.69371 0.0
H712 H 0.44914 1.01426 0.72753 0.0
H713 H 0.45281 0.99385 0.74584 0.0
H714 H 0.61882 0.09343 0.74563 0.0
H715 H 0.61478 0.11466 0.72732 0.0
H716 H 0.63298 0.23028 0.64503 0.0
H717 H 0.61229 0.24473 0.62737 0.0
H718 H 0.49721 0.08292 0.62481 0.0
H719 H 0.5175 0.06843 0.64259 0.0
Tb720 Tb 0.59317 0.12304 0.17465 0.0
Tb721 Tb 0.5981 0.11207 0.19869 0.0
C722 C 0.59441 0.15024 0.15589 0.0
C723 C 0.62055 0.15835 0.14559 0.0
C724 C 0.63789 0.20577 0.14043 0.0
C725 C 0.65668 0.21293 0.1302 0.0
C726 C 0.65843 0.17273 0.12477 0.0
C727 C 0.64294 0.12581 0.13006 0.0
C728 C 0.62394 0.11857 0.14033 0.0
C729 C 0.61688 0.0512 0.18117 0.0
C730 C 0.69667 0.20154 0.1871 0.0
C731 C 0.60893 0.07982 0.2161 0.0
C732 C 0.58596 0.06413 0.22664 0.0
C733 C 0.58593 1.02193 0.2315 0.0
C734 C 0.57151 1.01036 0.24196 0.0
C735 C 0.55661 0.04069 0.24784 0.0
C736 C 0.55533 0.0822 0.24289 0.0
C737 C 0.56971 0.09374 0.23239 0.0
C738 C 0.56474 0.17807 0.19409 0.0
C739 C 0.48846 0.05597 0.1874 0.0
O740 O 0.61995 0.18262 0.16343 0.0
O741 O 0.56593 0.10279 0.15928 0.0
O742 O 0.63005 0.09458 0.18527 0.0
O743 O 0.59296 0.04939 0.17264 0.0
O744 O 0.67013 0.19001 0.17822 0.0
O745 O 0.67759 0.17286 0.1956 0.0
O746 O 0.58459 0.04887 0.20822 0.0
O747 O 0.62945 0.12895 0.21368 0.0
O748 O 0.57654 0.15211 0.18811 0.0
O749 O 0.57025 0.16552 0.2035 0.0
O750 O 0.5173 0.05375 0.19508 0.0
O751 O 0.51048 0.08646 0.17917 0.0
H752 H 0.63563 0.23708 0.14424 0.0
H753 H 0.6694 0.24998 0.12649 0.0
H754 H 0.64392 0.09409 0.12613 0.0
H755 H 0.61075 0.08143 0.14404 0.0
H756 H 0.59901 0.99899 0.22729 0.0
H757 H 0.57417 0.9789 0.24556 0.0
H758 H 0.54399 0.10628 0.24719 0.0
H759 H 0.56956 0.12672 0.22888 0.0
Tb760 Tb 0.94176 0.48693 0.17408 0.0
Tb761 Tb 0.94967 0.50055 0.19807 0.0
C762 C 0.91743 0.46362 0.15512 0.0
C763 C 0.90949 0.48343 0.14501 0.0
C764 C 0.86103 0.45644 0.14006 0.0
C765 C 0.85366 0.46989 0.13 0.0
C766 C 0.89459 0.51076 0.12456 0.0
C767 C 0.94293 0.5386 0.12959 0.0
C768 C 0.95033 0.52509 0.13969 0.0
C769 C 1.01105 0.58231 0.18111 0.0
C770 C 0.85824 0.50461 0.18619 0.0
C771 C 0.97955 0.54359 0.21561 0.0
C772 C 0.9945 0.53696 0.22628 0.0
C773 C 1.02987 0.58108 0.23187 0.0
C774 C 0.03959 0.57768 0.24243 0.0
C775 C 1.01396 0.52998 0.2477 0.0
C776 C 0.98006 0.48532 0.24197 0.0
C777 C 0.97029 0.48878 0.23137 0.0
C778 C 0.88565 0.40121 0.19325 0.0
C779 C 1.00926 0.45041 0.1868 0.0
O780 O 0.88378 0.45393 0.16254 0.0
O781 O 0.96459 0.48339 0.15875 0.0
O782 O 0.96726 0.55142 0.18492 0.0
O783 O 1.01488 0.56083 0.17266 0.0
O784 O 0.87314 0.494 0.17724 0.0
O785 O 0.88475 0.51324 0.19498 0.0
O786 O 1.0114 0.55067 0.2079 0.0
O787 O 0.93089 0.51399 0.21299 0.0
O788 O 0.91145 0.43905 0.18727 0.0
O789 O 0.89811 0.4191 0.20269 0.0
O790 O 1.00982 0.48022 0.19459 0.0
O791 O 0.97886 0.44143 0.17854 0.0
H792 H 0.82896 0.42385 0.14389 0.0
H793 H 0.81584 0.44778 0.12642 0.0
H794 H 0.97558 0.56973 0.1256 0.0
H795 H 0.98839 0.54641 0.1432 0.0
H796 H 0.04873 0.61872 0.22815 0.0
H797 H 0.06579 0.61286 0.24659 0.0
H798 H 0.96058 0.44776 0.2457 0.0
H799 H 0.94285 0.45407 0.22724 0.0
Tb800 Tb 0.57485 0.46624 0.17497 0.0
Tb801 Tb 0.56027 0.46111 0.19795 0.0
C802 C 0.59863 0.46327 0.1561 0.0
C803 C 0.58101 0.43466 0.14602 0.0
C804 C 0.61261 0.41856 0.14103 0.0
C805 C 0.60143 0.39817 0.13089 0.0
C806 C 0.55844 0.39359 0.1254 0.0
C807 C 0.52554 0.40774 0.13054 0.0
C808 C 0.53681 0.42831 0.1407 0.0
C809 C 0.47858 0.44087 0.18127 0.0
C810 C 0.54568 0.36146 0.18682 0.0
C811 C 0.52546 0.45702 0.21607 0.0
C812 C 0.53162 0.48163 0.22643 0.0
C813 C 0.48706 0.47356 0.23174 0.0
C814 C 0.48942 0.48679 0.24229 0.0
C815 C 0.53647 0.50823 0.2478 0.0
C816 C 0.58168 0.51897 0.24231 0.0
C817 C 0.57927 0.50562 0.23174 0.0
C818 C 0.651 0.47378 0.19232 0.0
C819 C 0.61259 0.57262 0.18693 0.0
O820 O 0.60991 0.44166 0.16375 0.0
O821 O 0.57619 0.48874 0.15942 0.0
O822 O 0.50846 0.42703 0.18516 0.0
O823 O 0.50139 0.46715 0.17303 0.0
O824 O 0.56853 0.3909 0.17861 0.0
O825 O 0.52879 0.37896 0.19448 0.0
O826 O 0.51188 0.47463 0.20802 0.0
O827 O 0.55833 0.44178 0.21362 0.0
O828 O 0.62757 0.49424 0.18791 0.0
O829 O 0.62688 0.45173 0.20083 0.0
O830 O 0.58656 0.54418 0.19511 0.0
O831 O 0.6185 0.54986 0.17855 0.0
H832 H 0.64704 0.42316 0.14488 0.0
H833 H 0.62694 0.38654 0.1273 0.0
H834 H 0.49202 0.4046 0.12656 0.0
H835 H 0.51171 0.44053 0.14427 0.0
H836 H 0.44976 0.45456 0.22786 0.0
H837 H 0.45386 0.47788 0.24625 0.0
H838 H 0.61877 0.53662 0.24625 0.0
H839 H 0.6143 0.51223 0.22786 0.0
Tb840 Tb 0.46108 0.23965 0.03332 0.0
Tb841 Tb 0.45083 0.24564 1.0093 0.0
C842 C 0.48843 0.24037 0.05205 0.0
C843 C 0.49981 0.26901 0.06212 0.0
C844 C 0.54439 0.27883 0.06769 0.0
C845 C 0.5543 0.30132 0.07764 0.0
C846 C 0.51995 0.31489 0.08231 0.0
C847 C 0.47539 0.30541 0.07669 0.0
C848 C 0.46546 0.28283 0.0667 0.0
C849 C 0.39013 0.26451 0.02679 0.0
C850 C 0.53994 0.34329 0.02112 0.0
C851 C 0.42136 0.25748 0.99161 0.0
C852 C 0.41133 0.23724 0.98073 0.0
C853 C 0.3607 0.21259 0.97667 0.0
C854 C 0.35171 0.20114 0.966 0.0
C855 C 0.39322 0.21474 0.9591 0.0
C856 C 0.44358 0.23731 0.96322 0.0
C857 C 0.45256 0.24848 0.97388 0.0
C858 C 0.51629 0.21143 1.01388 0.0
C859 C 0.39157 0.13624 0.02047 0.0
O860 O 0.52099 0.26243 0.04438 0.0
O861 O 0.44039 0.21531 0.0488 0.0
O862 O 0.43347 0.27756 0.02274 0.0
O863 O 0.38777 0.23997 0.03526 0.0
O864 O 0.52771 0.31698 0.03001 0.0
O865 O 0.51141 0.32475 1.01258 0.0
O866 O 0.3891 0.22931 0.99901 0.0
O867 O 0.46962 0.28164 0.99477 0.0
O868 O 0.49011 0.22293 1.01985 0.0
O869 O 0.5039 0.2173 1.00449 0.0
O870 O 0.39007 0.16636 1.01301 0.0
O871 O 0.42278 0.15689 0.02868 0.0
H872 H 0.57113 0.26789 0.06444 0.0
H873 H 0.58831 0.30678 0.08179 0.0
H874 H 0.44814 0.31542 0.08002 0.0
H875 H 0.43055 0.2755 0.06264 0.0
H876 H 0.32818 0.20397 0.98169 0.0
H877 H 0.31246 0.18376 0.96306 0.0
H878 H 0.47627 0.24744 0.95815 0.0
H879 H 0.49215 0.26764 0.97666 0.0
Tb880 Tb 0.80946 0.22774 0.03218 0.0
Tb881 Tb 0.80348 0.21373 1.00929 0.0
C882 C 0.80674 0.25126 0.05111 0.0
C883 C 0.7788 0.23409 0.06123 0.0
C884 C 0.77023 0.26939 0.06694 0.0
C885 C 0.74828 0.25708 0.07691 0.0
C886 C 0.73381 0.2088 0.08148 0.0
C887 C 0.74219 0.1732 0.07574 0.0
C888 C 0.76438 0.18565 0.06572 0.0
C889 C 0.78188 0.131 0.02576 0.0
C890 C 0.70471 0.20039 0.02041 0.0
C891 C 0.79872 0.17909 0.9911 0.0
C892 C 0.82351 0.18545 0.98078 0.0
C893 C 0.81433 0.14086 0.97529 0.0
C894 C 0.8283 0.14375 0.96479 0.0
C895 C 0.85169 0.1914 0.95949 0.0
C896 C 0.86342 0.23654 0.96516 0.0
C897 C 0.84927 0.23359 0.97569 0.0
C898 C 0.8215 0.30696 1.01494 0.0
C899 C 0.91482 0.26188 0.02021 0.0
O900 O 0.78406 0.26144 0.04351 0.0
O901 O 0.83238 0.22907 0.04776 0.0
O902 O 0.7686 0.16149 0.02196 0.0
O903 O 0.80896 0.15353 0.03396 0.0
O904 O 0.73482 0.22343 0.02857 0.0
O905 O 0.72168 0.18338 1.0127 0.0
O906 O 0.81616 0.1651 0.99911 0.0
O907 O 0.78385 0.21219 0.99362 0.0
O908 O 0.83938 0.28125 1.01941 0.0
O909 O 0.79875 0.28313 1.00644 0.0
O910 O 0.88528 0.23579 1.01214 0.0
O911 O 0.89334 0.26989 0.02857 0.0
H912 H 0.78176 0.30732 0.06376 0.0
H913 H 0.74394 0.28614 0.08116 0.0
H914 H 0.73159 0.13568 0.07899 0.0
H915 H 0.77085 0.15772 0.06156 0.0
H916 H 0.79401 0.10322 0.979 0.0
H917 H 0.81857 0.10821 0.96069 0.0
H918 H 0.88256 0.27405 0.96141 0.0
H919 H 0.85679 0.26866 0.97972 0.0
Tb920 Tb 0.82742 0.59427 0.03188 0.0
Tb921 Tb 0.83775 0.59797 1.00895 0.0
C922 C 0.80668 0.57147 0.05099 0.0
C923 C 0.82527 0.563 0.06115 0.0
C924 C 0.78983 0.52276 0.06755 0.0
C925 C 0.8039 0.5156 0.07756 0.0
C926 C 0.85396 0.54858 0.08149 0.0
C927 C 0.88995 0.58838 0.07497 0.0
C928 C 0.87572 0.59564 0.06492 0.0
C929 C 0.92221 0.66363 0.02477 0.0
C930 C 0.85379 0.51544 0.02048 0.0
C931 C 0.86844 0.62449 0.99043 0.0
C932 C 0.85783 0.63822 0.97991 0.0
C933 C 0.88315 0.69007 0.97655 0.0
C934 C 0.88152 0.70221 0.96603 0.0
C935 C 0.85492 0.66275 0.95862 0.0
C936 C 0.82809 0.61112 0.96205 0.0
C937 C 0.82947 0.59901 0.97254 0.0
C938 C 0.74618 0.52267 1.01524 0.0
C939 C 0.78984 0.66181 1.01968 0.0
O940 O 0.79634 0.53738 0.04362 0.0
O941 O 0.82782 0.61856 0.04731 0.0
O942 O 0.89223 0.61892 0.02133 0.0
O943 O 0.90063 0.66907 0.03302 0.0
O944 O 0.83275 0.52429 0.02873 0.0
O945 O 0.86925 0.54757 1.01248 0.0
O946 O 0.88134 0.65765 0.99814 0.0
O947 O 0.83952 0.57668 0.99352 0.0
O948 O 0.77159 0.56707 1.01942 0.0
O949 O 0.76895 0.52312 1.00664 0.0
O950 O 0.81481 0.65725 1.01155 0.0
O951 O 0.78347 0.63395 0.02819 0.0
H952 H 0.75059 0.49729 0.06488 0.0
H953 H 0.775 0.48479 0.08233 0.0
H954 H 0.92918 0.61384 0.07762 0.0
H955 H 0.90392 0.62699 0.06015 0.0
H956 H 0.90624 0.72116 0.98195 0.0
H957 H 0.9033 0.74233 0.96362 0.0
H958 H 0.80712 0.57986 0.95655 0.0
H959 H 0.81014 0.55857 0.97476 0.0
Tb960 Tb 0.47483 0.93417 0.8424 0.0
Tb961 Tb 0.48066 0.92843 0.86535 0.0
C962 C 0.47013 0.96257 0.82408 0.0
C963 C 0.49457 0.98095 0.8137 0.0
C964 C 0.49406 0.0236 0.80917 0.0
C965 C 0.50724 0.03615 0.79867 0.0
C966 C 0.5214 1.00637 0.79241 0.0
C967 C 0.52363 0.96468 0.79704 0.0
C968 C 0.51042 0.95212 0.80756 0.0
C969 C 0.4921 0.85909 0.84846 0.0
C970 C 0.58611 0.9972 0.85341 0.0
C971 C 0.47789 0.90478 0.88441 0.0
C972 C 0.44768 0.89417 0.89426 0.0
C973 C 0.42459 0.84435 0.89865 0.0
C974 C 0.40194 0.8347 0.90857 0.0
C975 C 0.40177 0.87464 0.91442 0.0
C976 C 0.42391 0.92433 0.90994 0.0
C977 C 0.44663 0.93401 0.9 0.0
C978 C 0.45398 0.99758 0.8585 0.0
C979 C 0.37599 0.85025 0.8538 0.0
O980 O 0.48665 0.99441 0.83205 0.0
O981 O 0.45602 0.91498 0.82672 0.0
O982 O 0.51017 0.90308 0.85277 0.0
O983 O 0.4697 0.85955 0.83986 0.0
O984 O 0.55721 0.99326 0.84518 0.0
O985 O 0.56403 0.96903 0.86184 0.0
O986 O 0.45804 0.87079 0.87688 0.0
O987 O 0.50219 0.95219 0.88087 0.0
O988 O 0.44012 0.95322 0.85491 0.0
O989 O 0.48132 1.00284 0.86669 0.0
O990 O 0.40571 0.85883 0.86207 0.0
O991 O 0.39301 0.88261 0.84583 0.0
H992 H 0.48094 0.04581 0.81363 0.0
H993 H 0.50381 0.06769 0.79534 0.0
H994 H 0.53444 0.941 0.79246 0.0
H995 H 0.51071 0.91863 0.81076 0.0
H996 H 0.42533 0.81297 0.89452 0.0
H997 H 0.38506 0.79593 0.91172 0.0
H998 H 0.42538 0.95626 0.91428 0.0
H999 H 0.4647 0.97308 0.89697 0.0
Tb1000 Tb 0.12522 0.55041 0.84374 0.0
Tb1001 Tb 0.13191 0.56644 0.86676 0.0
C1002 C 0.09519 0.51144 0.82583 0.0
C1003 C 0.07684 0.51548 0.81528 0.0
C1004 C 1.02983 0.47459 0.81152 0.0
C1005 C 1.01618 0.47218 0.80099 0.0
C1006 C 0.04938 0.51054 0.79395 0.0
C1007 C 0.09566 0.55234 0.79778 0.0
C1008 C 0.1092 0.55489 0.80831 0.0
C1009 C 0.1969 0.6449 0.84909 0.0
C1010 C 0.06049 0.59875 0.85424 0.0
C1011 C 0.15538 0.59146 0.88572 0.0
C1012 C 0.16697 0.57497 0.89581 0.0
C1013 C 0.20037 0.61333 0.90282 0.0
C1014 C 0.21008 0.60017 0.91271 0.0
C1015 C 0.18695 0.54806 0.91585 0.0
C1016 C 0.15341 0.50947 0.90879 0.0
C1017 C 0.14358 0.52276 0.89886 0.0
C1018 C 0.06559 0.46907 0.86037 0.0
C1019 C 0.21491 0.54619 0.85548 0.0
O1020 O 0.06389 0.49951 0.83383 0.0
O1021 O 0.1432 0.54451 0.82827 0.0
O1022 O 0.15408 0.61794 0.8537 0.0
O1023 O 0.19616 0.62217 0.84044 0.0
O1024 O 0.06513 0.5732 0.84616 0.0
O1025 O 0.08889 0.60638 0.86274 0.0
O1026 O 0.18937 0.60448 0.87825 0.0
O1027 O 0.10797 0.56582 0.88219 0.0
O1028 O 0.1094 0.5001 0.8567 0.0
O1029 O 0.05954 0.49132 0.86845 0.0
O1030 O 0.20463 0.56716 0.86355 0.0
O1031 O 0.18279 0.52747 0.84747 0.0
H1032 H 1.00466 0.4431 0.81663 0.0
H1033 H 0.98069 0.439 0.79828 0.0
H1034 H 0.12194 0.58261 0.79256 0.0
H1035 H 0.14601 0.58672 0.81089 0.0
H1036 H 0.21837 0.65389 0.90072 0.0
H1037 H 0.23492 0.63107 0.91799 0.0
H1038 H 0.1349 0.46897 0.91094 0.0
H1039 H 0.1174 0.49237 0.89362 0.0
Tb1040 Tb 0.51045 0.58614 0.84254 0.0
Tb1041 Tb 0.49222 0.57862 0.86676 0.0
C1042 C 0.54803 0.59207 0.82463 0.0
C1043 C 0.54054 0.56793 0.81416 0.0
C1044 C 0.58261 0.56735 0.80937 0.0
C1045 C 0.58041 0.55364 0.79886 0.0
C1046 C 0.5359 0.53997 0.79283 0.0
C1047 C 0.49309 0.53893 0.79772 0.0
C1048 C 0.49532 0.55269 0.80826 0.0
C1049 C 0.42023 0.57381 0.84853 0.0
C1050 C 0.45779 0.47386 0.8534 0.0
C1051 C 0.4571 0.5711 0.88497 0.0
C1052 C 0.47246 0.595 0.89551 0.0
C1053 C 0.43407 0.59219 0.90226 0.0
C1054 C 0.4463 0.61139 0.91247 0.0
C1055 C 0.49736 0.63387 0.91627 0.0
C1056 C 0.53615 0.63789 0.9094 0.0
C1057 C 0.52382 0.61848 0.89915 0.0
C1058 C 0.59345 0.61583 0.86194 0.0
C1059 C 0.52469 0.68334 0.85476 0.0
O1060 O 0.55792 0.57083 0.8326 0.0
O1061 O 0.51827 0.61113 0.82712 0.0
O1062 O 0.44487 0.55469 0.85293 0.0
O1063 O 0.44304 0.59508 0.83984 0.0
O1064 O 0.47766 0.50191 0.84479 0.0
O1065 O 0.45753 0.49572 0.86248 0.0
O1066 O 0.45204 0.59872 0.87759 0.0
O1067 O 0.4788 0.54482 0.88159 0.0
O1068 O 0.5549 0.60266 0.85617 0.0
O1069 O 0.57454 0.60754 0.87126 0.0
O1070 O 0.49836 0.653 0.86267 0.0
O1071 O 0.54448 0.66716 0.84736 0.0
H1072 H 0.61827 0.57985 0.81366 0.0
H1073 H 0.61458 0.55615 0.79533 0.0
H1074 H 0.45819 0.52852 0.79333 0.0
H1075 H 0.46234 0.55315 0.81168 0.0
H1076 H 0.39423 0.57451 0.89965 0.0
H1077 H 0.41564 0.60876 0.91741 0.0
H1078 H 0.57588 0.65508 0.91203 0.0
H1079 H 0.55427 0.62126 0.89412 0.0
Tb1080 Tb 0.61056 0.79152 0.03101 0.0
Tb1081 Tb 0.60156 0.79749 1.00815 0.0
C1082 C 0.64071 0.78757 0.04923 0.0
C1083 C 0.66018 0.8127 0.05954 0.0
C1084 C 0.70191 0.81061 0.06412 0.0
C1085 C 0.71441 0.82339 0.07465 0.0
C1086 C 0.68549 0.83866 0.08089 0.0
C1087 C 0.64528 0.84323 0.07617 0.0
C1088 C 0.63271 0.83036 0.06563 0.0
C1089 C 0.53312 0.80541 0.02546 0.0
C1090 C 0.67004 0.90335 0.02013 0.0
C1091 C 0.57552 0.7936 0.98917 0.0
C1092 C 0.56456 0.76308 0.97928 0.0
C1093 C 0.51366 0.73578 0.97538 0.0
C1094 C 0.50316 0.71238 0.96549 0.0
C1095 C 0.54329 0.71561 0.95917 0.0
C1096 C 0.59419 0.74242 0.96312 0.0
C1097 C 0.6047 0.76581 0.97303 0.0
C1098 C 0.67308 0.77285 1.01441 0.0
C1099 C 0.52565 0.69244 1.01985 0.0
O1100 O 0.67166 0.80303 0.04114 0.0
O1101 O 0.59305 0.77392 0.04674 0.0
O1102 O 0.5769 0.82581 0.02105 0.0
O1103 O 0.5344 0.78183 0.0338 0.0
O1104 O 0.66768 0.87451 0.02824 0.0
O1105 O 0.64105 0.88097 1.01176 0.0
O1106 O 0.54251 0.77357 0.99683 0.0
O1107 O 0.62322 0.81895 0.99255 0.0
O1108 O 0.62897 0.75769 1.01822 0.0
O1109 O 0.67669 0.80048 1.00639 0.0
O1110 O 0.53282 0.72208 1.01164 0.0
O1111 O 0.55967 0.70943 0.02757 0.0
H1112 H 0.72333 0.79651 0.05969 0.0
H1113 H 0.7458 0.81973 0.078 0.0
H1114 H 0.62167 0.85408 0.08076 0.0
H1115 H 0.5999 0.83184 0.06239 0.0
H1116 H 0.48193 0.73385 0.97986 0.0
H1117 H 0.46366 0.69321 0.96266 0.0
H1118 H 0.62607 0.74568 0.95849 0.0
H1119 H 0.64451 0.78705 0.97566 0.0
Tb1120 Tb 0.25437 0.82063 0.03034 0.0
Tb1121 Tb 0.25362 0.81136 1.00616 0.0
C1122 C 0.2476 0.8402 0.04905 0.0
C1123 C 0.24191 0.84802 0.06029 0.0
C1124 C 0.26101 0.89775 0.06456 0.0
C1125 C 0.25472 0.90398 0.07522 0.0
C1126 C 0.22917 0.8606 0.0818 0.0
C1127 C 0.21087 0.81104 0.07751 0.0
C1128 C 0.21692 0.80483 0.0669 0.0
C1129 C 0.24174 0.73173 0.02313 0.0
C1130 C 0.1482 0.78146 1.01801 0.0
C1131 C 0.24927 0.78155 0.98759 0.0
C1132 C 0.27504 0.79928 0.97731 0.0
C1133 C 0.2777 0.76315 0.97068 0.0
C1134 C 0.29923 0.77744 0.96071 0.0
C1135 C 0.31863 0.82835 0.95705 0.0
C1136 C 0.31676 0.86487 0.96379 0.0
C1137 C 0.29513 0.85048 0.97381 0.0
C1138 C 0.28937 0.91108 1.01205 0.0
C1139 C 0.35364 0.83179 1.01931 0.0
O1140 O 0.27831 0.87672 0.04253 0.0
O1141 O 0.22105 0.79409 0.04488 0.0
O1142 O 0.22386 0.75829 1.01904 0.0
O1143 O 0.26337 0.75299 0.03191 0.0
O1144 O 0.17639 0.80638 0.0263 0.0
O1145 O 0.17014 0.77472 1.00958 0.0
O1146 O 0.27546 0.77425 0.99496 0.0
O1147 O 0.22272 0.8027 0.99112 0.0
O1148 O 0.27431 0.87116 1.01753 0.0
O1149 O 0.28373 0.89452 1.00256 0.0
O1150 O 0.32638 0.81442 1.01058 0.0
O1151 O 0.33574 0.84376 0.02773 0.0
H1152 H 0.28052 0.93175 0.05967 0.0
H1153 H 0.26942 0.94272 0.07829 0.0
H1154 H 0.19247 0.77691 0.08238 0.0
H1155 H 0.20229 0.76597 0.0639 0.0
H1156 H 0.26238 0.72341 0.97318 0.0
H1157 H 0.29978 0.74822 0.95576 0.0
H1158 H 0.33232 0.90468 0.96134 0.0
H1159 H 0.29386 0.87926 0.97877 0.0
Tb1160 Tb 0.22517 0.44096 0.03084 0.0
Tb1161 Tb 0.23917 0.44467 1.00809 0.0
C1162 C 0.19097 0.41388 0.04914 0.0
C1163 C 0.19724 0.39589 0.05953 0.0
C1164 C 0.15279 0.35938 0.06485 0.0
C1165 C 0.15525 0.34859 0.07539 0.0
C1166 C 0.20229 0.37425 0.08091 0.0
C1167 C 0.2474 0.4088 0.07542 0.0
C1168 C 0.24489 0.41969 0.06486 0.0
C1169 C 0.31785 0.51556 0.02504 0.0
C1170 C 0.2744 0.37647 0.02068 0.0
C1171 C 0.26123 0.46682 0.989 0.0
C1172 C 0.24311 0.47812 0.97899 0.0
C1173 C 0.26407 0.52958 0.97555 0.0
C1174 C 0.25347 0.54056 0.96552 0.0
C1175 C 0.22206 0.5004 0.95856 0.0
C1176 C 0.19957 0.44898 0.96212 0.0
C1177 C 0.21019 0.43796 0.97217 0.0
C1178 C 0.14265 0.37605 1.01466 0.0
C1179 C 0.21209 0.52451 1.01883 0.0
O1180 O 0.17563 0.38166 0.04123 0.0
O1181 O 0.22488 0.46115 0.04643 0.0
O1182 O 0.29287 0.47111 0.02088 0.0
O1183 O 0.29373 0.51597 0.03338 0.0
O1184 O 0.24863 0.38148 0.02863 0.0
O1185 O 0.28174 0.40408 1.0121 0.0
O1186 O 0.27621 0.50121 0.99647 0.0
O1187 O 0.23648 0.41961 0.99264 0.0
O1188 O 0.17234 0.4209 1.01812 0.0
O1189 O 0.16629 0.36985 1.00685 0.0
O1190 O 0.23402 0.51498 1.01082 0.0
O1191 O 0.19547 0.49261 0.02687 0.0
H1192 H 0.11549 0.34091 0.06097 0.0
H1193 H 0.11974 0.32186 0.07934 0.0
H1194 H 0.28451 0.42828 0.07934 0.0
H1195 H 0.27987 0.44808 0.06097 0.0
H1196 H 0.28999 0.56153 0.98052 0.0
H1197 H 0.27053 0.58066 0.96315 0.0
H1198 H 0.17523 0.41709 0.95698 0.0
H1199 H 0.19386 0.39783 0.97445 0.0
Tb1200 Tb 0.25869 0.45261 0.50756 0.0
Tb1201 Tb 0.26067 0.4414 0.53161 0.0
C1202 C 0.26044 0.47988 0.48883 0.0
C1203 C 0.28856 0.49015 0.47878 0.0
C1204 C 0.29433 0.53173 0.47267 0.0
C1205 C 0.31667 0.54055 0.46275 0.0
C1206 C 0.33424 0.50815 0.45867 0.0
C1207 C 0.32869 0.46651 0.46482 0.0
C1208 C 0.30617 0.45764 0.47479 0.0
C1209 C 0.28285 0.38161 0.51442 0.0
C1210 C 0.36085 0.53061 0.52022 0.0
C1211 C 0.27108 0.41152 0.54935 0.0
C1212 C 0.24948 0.39989 0.5601 0.0
C1213 C 0.21628 0.34856 0.56329 0.0
C1214 C 0.20214 0.33706 0.5738 0.0
C1215 C 0.22103 0.37655 0.58138 0.0
C1216 C 0.25341 0.42795 0.57814 0.0
C1217 C 0.26741 0.43945 0.56766 0.0
C1218 C 0.22715 0.50696 0.52674 0.0
C1219 C 0.15295 0.38365 0.5197 0.0
O1220 O 0.28347 0.5125 0.49648 0.0
O1221 O 0.23437 0.4319 0.49206 0.0
O1222 O 0.29463 0.42467 0.51847 0.0
O1223 O 0.26001 0.37945 0.50571 0.0
O1224 O 0.33553 0.51897 0.5112 0.0
O1225 O 0.34051 0.50231 0.52872 0.0
O1226 O 0.24475 0.37944 0.54173 0.0
O1227 O 0.2941 0.4601 0.54641 0.0
O1228 O 0.23998 0.48149 0.52083 0.0
O1229 O 0.23158 0.49404 0.53618 0.0
O1230 O 0.18085 0.38146 0.52758 0.0
O1231 O 0.17582 0.41504 0.51166 0.0
H1232 H 0.2804 0.55691 0.47549 0.0
H1233 H 0.31899 0.57213 0.45817 0.0
H1234 H 0.34179 0.44082 0.46193 0.0
H1235 H 0.30195 0.42504 0.47929 0.0
H1236 H 0.20248 0.31702 0.55773 0.0
H1237 H 0.17716 0.29703 0.57602 0.0
H1238 H 0.26989 0.45922 0.58377 0.0
H1239 H 0.29399 0.47933 0.56558 0.0
Tb1240 Tb 0.60411 0.81435 0.50732 0.0
Tb1241 Tb 0.61491 0.8289 0.53136 0.0
C1242 C 0.57713 0.78916 0.48852 0.0
C1243 C 0.56971 0.80863 0.47835 0.0
C1244 C 0.52351 0.77847 0.4728 0.0
C1245 C 0.51692 0.79242 0.46273 0.0
C1246 C 0.55639 0.83708 0.45789 0.0
C1247 C 0.60242 0.8679 0.46352 0.0
C1248 C 0.60903 0.85385 0.47363 0.0
C1249 C 0.67444 0.90984 0.51407 0.0
C1250 C 0.52395 0.8357 0.51992 0.0
C1251 C 0.64487 0.86988 0.54908 0.0
C1252 C 0.65533 0.85982 0.55993 0.0
C1253 C 0.70595 0.88669 0.56397 0.0
C1254 C 0.71522 0.88436 0.57462 0.0
C1255 C 0.67398 0.85569 0.58151 0.0
C1256 C 0.62367 0.82706 0.57741 0.0
C1257 C 0.61441 0.8291 0.56676 0.0
C1258 C 0.54976 0.72952 0.52663 0.0
C1259 C 0.67395 0.77976 0.51974 0.0
O1260 O 0.54472 0.78238 0.49603 0.0
O1261 O 0.62442 0.8073 0.49198 0.0
O1262 O 0.63143 0.87883 0.51811 0.0
O1263 O 0.67675 0.88878 0.50542 0.0
O1264 O 0.53627 0.8224 0.51094 0.0
O1265 O 0.55282 0.84586 0.52841 0.0
O1266 O 0.67691 0.87391 0.54163 0.0
O1267 O 0.59651 0.84584 0.54598 0.0
O1268 O 0.57532 0.76733 0.52066 0.0
O1269 O 0.56277 0.7475 0.53604 0.0
O1270 O 0.67584 0.81068 0.5274 0.0
O1271 O 0.6419 0.76934 0.5117 0.0
H1272 H 0.49271 0.74322 0.47618 0.0
H1273 H 0.48087 0.76791 0.45868 0.0
H1274 H 0.63401 0.90206 0.46001 0.0
H1275 H 0.64533 0.87775 0.47765 0.0
H1276 H 0.7382 0.9112 0.55895 0.0
H1277 H 0.75441 0.9069 0.57756 0.0
H1278 H 0.5912 0.80395 0.58249 0.0
H1279 H 0.57484 0.80798 0.56399 0.0
Tb1280 Tb 0.2391 0.7971 0.50819 0.0
Tb1281 Tb 0.22374 0.79047 0.53098 0.0
C1282 C 0.26251 0.79421 0.48927 0.0
C1283 C 0.24361 0.76734 0.47907 0.0
C1284 C 0.27712 0.75752 0.47304 0.0
C1285 C 0.26339 0.73719 0.46293 0.0
C1286 C 0.21556 0.72588 0.45855 0.0
C1287 C 0.18141 0.73471 0.46468 0.0
C1288 C 0.19529 0.7553 0.47482 0.0
C1289 C 0.14264 0.77173 0.51428 0.0
C1290 C 0.2102 0.69187 0.5198 0.0
C1291 C 0.18947 0.78655 0.54917 0.0
C1292 C 0.19706 0.81228 0.55946 0.0
C1293 C 0.15459 0.81211 0.56424 0.0
C1294 C 0.15688 0.82661 0.5747 0.0
C1295 C 0.20186 0.84183 0.58068 0.0
C1296 C 0.24511 0.84387 0.57578 0.0
C1297 C 0.2428 0.82934 0.56529 0.0
C1298 C 0.31642 0.80647 0.52557 0.0
C1299 C 0.27466 0.9024 0.52028 0.0
O1300 O 0.27017 0.76921 0.49677 0.0
O1301 O 0.24341 0.82246 0.49275 0.0
O1302 O 0.1717 0.75682 0.51817 0.0
O1303 O 0.16655 0.7992 0.50624 0.0
O1304 O 0.2344 0.72238 0.5118 0.0
O1305 O 0.1921 0.70855 0.52737 0.0
O1306 O 0.17576 0.80411 0.54113 0.0
O1307 O 0.22142 0.77027 0.54662 0.0
O1308 O 0.29192 0.82561 0.5211 0.0
O1309 O 0.29181 0.78351 0.53397 0.0
O1310 O 0.24749 0.87282 0.52822 0.0
O1311 O 0.2829 0.88076 0.51197 0.0
H1312 H 0.31471 0.76673 0.47607 0.0
H1313 H 0.2905 0.73058 0.45851 0.0
H1314 H 0.14458 0.72717 0.46152 0.0
H1315 H 0.16875 0.76279 0.47923 0.0
H1316 H 0.11856 0.79822 0.56001 0.0
H1317 H 0.12242 0.82334 0.57825 0.0
H1318 H 0.28038 0.85552 0.58013 0.0
H1319 H 0.27612 0.82952 0.56188 0.0
Tb1320 Tb 0.12883 0.57706 0.3656 0.0
Tb1321 Tb 0.12184 0.58479 0.34278 0.0
C1322 C 0.15379 0.57964 0.38462 0.0
C1323 C 0.16129 0.60663 0.39481 0.0
C1324 C 0.20792 0.62328 0.40025 0.0
C1325 C 0.21491 0.64404 0.41032 0.0
C1326 C 0.17533 0.64861 0.41532 0.0
C1327 C 0.12894 0.63305 0.40978 0.0
C1328 C 0.12191 0.61215 0.39966 0.0
C1329 C 0.05881 0.60353 0.3593 0.0
C1330 C 0.20689 0.68221 0.3542 0.0
C1331 C 0.09237 0.5904 0.32459 0.0
C1332 C 0.07328 0.56606 0.31421 0.0
C1333 C 1.03175 0.56857 0.30965 0.0
C1334 C 1.01906 0.55581 0.29913 0.0
C1335 C 0.04754 0.54001 0.29289 0.0
C1336 C 0.0879 0.53554 0.29757 0.0
C1337 C 0.10063 0.54837 0.30811 0.0
C1338 C 0.19758 0.56751 0.34838 0.0
C1339 C 0.05996 0.47243 0.35328 0.0
O1340 O 0.18679 0.60467 0.37719 0.0
O1341 O 0.10679 0.5513 0.38101 0.0
O1342 O 0.10296 0.6183 0.35555 0.0
O1343 O 0.05442 0.57551 0.3673 0.0
O1344 O 0.19922 0.65136 0.36223 0.0
O1345 O 0.17314 0.66639 0.34646 0.0
O1346 O 0.06109 0.57377 0.33263 0.0
O1347 O 0.14005 0.60425 0.32711 0.0
O1348 O 0.1538 0.54876 0.35275 0.0
O1349 O 0.19654 0.59071 0.33995 0.0
O1350 O 0.06305 0.50243 0.34535 0.0
O1351 O 0.08915 0.49356 0.36169 0.0
H1352 H 0.23876 0.61903 0.39678 0.0
H1353 H 0.25102 0.65523 0.41432 0.0
H1354 H 0.09799 0.63701 0.41325 0.0
H1355 H 0.08544 0.59967 0.39571 0.0
H1356 H 1.01068 0.58304 0.31409 0.0
H1357 H 0.98859 0.56095 0.29577 0.0
H1358 H 0.11053 0.52337 0.293 0.0
H1359 H 0.13319 0.54643 0.31135 0.0
Tb1360 Tb 0.47942 0.5629 0.36577 0.0
Tb1361 Tb 0.47308 0.55018 0.34284 0.0
C1362 C 0.47662 0.58533 0.38474 0.0
C1363 C 0.44969 0.56681 0.39492 0.0
C1364 C 0.42862 0.59466 0.39969 0.0
C1365 C 0.40931 0.58329 0.40987 0.0
C1366 C 0.4108 0.54387 0.41562 0.0
C1367 C 0.42994 0.51447 0.41072 0.0
C1368 C 0.44951 0.52601 0.4005 0.0
C1369 C 0.4523 0.46663 0.35916 0.0
C1370 C 0.37506 0.53737 0.35408 0.0
C1371 C 0.4685 0.51598 0.32461 0.0
C1372 C 0.49325 0.52226 0.31427 0.0
C1373 C 0.49016 0.47851 0.30943 0.0
C1374 C 0.50375 0.47993 0.29894 0.0
C1375 C 0.52096 0.52531 0.29301 0.0
C1376 C 0.5258 0.56974 0.29797 0.0
C1377 C 0.51217 0.56829 0.30848 0.0
C1378 C 0.48952 0.64245 0.34875 0.0
C1379 C 0.58506 0.60073 0.35359 0.0
O1380 O 0.45192 0.59365 0.37727 0.0
O1381 O 0.50459 0.56598 0.38122 0.0
O1382 O 0.43875 0.49708 0.35543 0.0
O1383 O 0.47942 0.48899 0.36736 0.0
O1384 O 0.4048 0.55856 0.36236 0.0
O1385 O 0.39152 0.52122 0.34614 0.0
O1386 O 0.48564 0.50162 0.33262 0.0
O1387 O 0.45363 0.54905 0.32717 0.0
O1388 O 0.50806 0.61707 0.35311 0.0
O1389 O 0.46736 0.61913 0.34016 0.0
O1390 O 0.55574 0.57505 0.34546 0.0
O1391 O 0.5631 0.60655 0.36211 0.0
H1392 H 0.42848 0.62648 0.39563 0.0
H1393 H 0.39385 0.60597 0.41332 0.0
H1394 H 0.43148 0.48376 0.41492 0.0
H1395 H 0.46573 0.50394 0.39709 0.0
H1396 H 0.47471 0.44226 0.31363 0.0
H1397 H 0.49829 0.44463 0.29534 0.0
H1398 H 0.539 0.60532 0.29364 0.0
H1399 H 0.51453 0.60258 0.31196 0.0
Tb1400 Tb 0.49313 0.92979 0.36581 0.0
Tb1401 Tb 0.5058 0.93368 0.34279 0.0
C1402 C 0.47122 0.90706 0.38486 0.0
C1403 C 0.4901 0.89631 0.39478 0.0
C1404 C 0.45625 0.85242 0.4006 0.0
C1405 C 0.47017 0.84381 0.41052 0.0
C1406 C 0.51837 0.87903 0.41495 0.0
C1407 C 0.55298 0.92229 0.40899 0.0
C1408 C 0.53898 0.93093 0.39904 0.0
C1409 C 0.589 0.99763 0.35903 0.0
C1410 C 0.51919 0.84988 0.3545 0.0
C1411 C 0.54046 0.96182 0.32459 0.0
C1412 C 0.5363 0.98134 0.31423 0.0
C1413 C 0.58211 1.01596 0.30905 0.0
C1414 C 0.58126 0.02793 0.29853 0.0
C1415 C 0.53449 1.00538 0.2929 0.0
C1416 C 0.48816 0.97284 0.29826 0.0
C1417 C 0.48906 0.96073 0.30881 0.0
C1418 C 0.41373 0.85946 0.34898 0.0
C1419 C 0.45721 0.99798 0.35316 0.0
O1420 O 0.45683 0.87267 0.3774 0.0
O1421 O 0.49536 0.95435 0.38125 0.0
O1422 O 0.55851 0.95318 0.3555 0.0
O1423 O 0.56696 1.00378 0.36713 0.0
O1424 O 0.49878 0.85963 0.36277 0.0
O1425 O 0.53471 0.88141 0.34641 0.0
O1426 O 0.55613 0.99342 0.3326 0.0
O1427 O 0.50527 0.91465 0.3271 0.0
O1428 O 0.43953 0.90396 0.35306 0.0
O1429 O 0.43618 0.85904 0.34038 0.0
O1430 O 0.48249 0.9927 0.34517 0.0
O1431 O 0.4508 0.97108 0.36184 0.0
H1432 H 0.4182 0.82531 0.39757 0.0
H1433 H 0.44241 0.81021 0.41486 0.0
H1434 H 0.59089 0.94961 0.41203 0.0
H1435 H 0.56606 0.96514 0.39476 0.0
H1436 H 0.61907 0.03191 0.31301 0.0
H1437 H 0.61765 0.05299 0.29467 0.0
H1438 H 0.45131 0.95582 0.29425 0.0
H1439 H 0.45309 0.93386 0.3126 0.0
C1440 C 0.16736 0.13227 0.19389 0.0
C1441 C 0.174 0.15542 0.18406 0.0
C1442 C 0.17479 0.08942 0.19536 0.0
C1443 C 0.19012 0.06864 0.18709 0.0
H1444 H 0.15368 0.14551 0.20037 0.0
H1445 H 0.16685 0.07147 0.20297 0.0
S1446 S 0.21795 0.11954 0.16003 0.0
N1447 N 0.20014 0.15701 0.16611 0.0
N1448 N 0.21542 0.07804 0.16884 0.0
C1449 C 0.19982 0.09374 0.17736 0.0
C1450 C 0.19134 0.1366 0.17585 0.0
C1451 C 0.97227 0.09922 0.19494 0.0
C1452 C 0.99002 0.13518 0.18664 0.0
C1453 C 0.92888 0.04913 0.19382 0.0
C1454 C 0.90187 0.0329 0.18433 0.0
H1455 H 0.99326 0.10896 0.20225 0.0
H1456 H 0.91839 1.02206 0.20021 0.0
S1457 S 0.92786 0.11278 0.16057 0.0
N1458 N 0.97303 0.15143 0.16888 0.0
N1459 N 0.89287 0.05761 0.1668 0.0
C1460 C 0.91731 0.06906 0.17618 0.0
C1461 C 0.9609 0.12008 0.17734 0.0
C1462 C 1.00228 0.89538 0.17548 0.0
C1463 C 1.03093 0.89208 0.18389 0.0
C1464 C 0.95184 0.88676 0.17674 0.0
C1465 C 0.92775 0.87573 0.18655 0.0
H1466 H 1.01916 0.90542 0.16777 0.0
H1467 H 0.9324 0.891 0.17 0.0
S1468 S 0.98371 0.85885 0.21107 0.0
N1469 N 1.02922 0.8724 0.20228 0.0
N1470 N 0.93553 0.85959 0.20483 0.0
C1471 C 0.95525 0.8712 0.19505 0.0
C1472 C 1.00639 0.87837 0.19367 0.0
C1473 C 0.16268 0.1973 0.35487 0.0
C1474 C 0.15647 0.14734 0.35577 0.0
C1475 C 0.11935 0.20431 0.35372 0.0
C1476 C 0.06882 0.1615 0.35309 0.0
H1477 H 0.2009 0.23108 0.35552 0.0
H1478 H 0.12535 0.24326 0.35334 0.0
S1479 S 1.03244 0.02304 0.35468 0.0
N1480 N 0.09605 0.05489 0.35598 0.0
N1481 N 1.01567 0.06776 0.35313 0.0
C1482 C 0.06266 0.11159 0.35361 0.0
C1483 C 0.10623 0.10459 0.35514 0.0
C1484 C 0.882 0.93173 0.36337 0.0
C1485 C 0.87953 0.91122 0.35336 0.0
C1486 C 0.88892 0.98157 0.36476 0.0
C1487 C 0.89224 1.01279 0.35623 0.0
H1488 H 0.88139 0.91027 0.37022 0.0
H1489 H 0.89304 0.99628 0.37263 0.0
S1490 S 0.88292 0.97572 0.32841 0.0
N1491 N 0.87828 0.92527 0.33473 0.0
N1492 N 0.8886 1.01792 0.33743 0.0
C1493 C 0.88668 0.9917 0.3462 0.0
C1494 C 0.88115 0.94131 0.34474 0.0
C1495 C 0.05894 0.91643 0.34666 0.0
C1496 C 0.04255 0.89212 0.35639 0.0
C1497 C 0.10935 0.95891 0.34527 0.0
C1498 C 0.14568 0.97842 0.35352 0.0
H1499 H 1.03187 0.90464 0.34025 0.0
H1500 H 0.11911 0.97792 0.33776 0.0
S1501 S 0.1232 0.92371 0.38026 0.0
N1502 N 0.06772 0.88762 0.37417 0.0
N1503 N 0.16198 0.96617 0.37159 0.0
C1504 C 0.13046 0.952 0.36311 0.0
C1505 C 0.07907 0.90936 0.36454 0.0
C1506 C 0.8946 0.9221 0.86493 0.0
C1507 C 0.89692 0.89402 0.8563 0.0
C1508 C 0.88684 0.96454 0.86371 0.0
C1509 C 0.88237 0.98191 0.85378 0.0
H1510 H 0.90012 0.91204 0.87274 0.0
H1511 H 0.88708 0.9855 0.87064 0.0
S1512 S 0.88142 0.91948 0.82866 0.0
N1513 N 0.88949 0.88392 0.83752 0.0
N1514 N 0.87752 0.96543 0.83514 0.0
C1515 C 0.88268 0.9531 0.84508 0.0
C1516 C 0.88917 0.90872 0.84636 0.0
C1517 C 0.13589 0.98455 0.86462 0.0
C1518 C 0.16481 1.0149 0.8561 0.0
C1519 C 0.09377 0.93441 0.86327 0.0
C1520 C 0.07747 0.91256 0.8533 0.0
H1521 H 0.14518 1.00003 0.87246 0.0
H1522 H 0.07225 0.91364 0.87012 0.0
S1523 S 0.14208 0.97387 0.82841 0.0
N1524 N 0.17673 1.01746 0.83737 0.0
N1525 N 0.0955 0.92418 0.83473 0.0
C1526 C 0.10684 0.94169 0.84469 0.0
C1527 C 0.15104 0.99249 0.84612 0.0
C1528 C 0.05945 0.15373 0.84674 0.0
C1529 C 0.04394 0.16453 0.85631 0.0
C1530 C 0.10939 0.16027 0.84546 0.0
C1531 C 0.14594 0.17842 0.85367 0.0
H1532 H 1.03197 0.13735 0.8404 0.0
H1533 H 0.1186 0.14905 0.83809 0.0
S1534 S 0.12558 0.21818 0.87991 0.0
N1535 N 0.06993 0.19812 0.87384 0.0
N1536 N 0.16358 0.21157 0.87145 0.0
C1537 C 0.13158 0.19244 0.86307 0.0
C1538 C 0.08066 0.1851 0.86439 0.0
C1539 C 0.93142 0.88156 0.67526 0.0
C1540 C 0.90354 0.88397 0.6839 0.0
C1541 C 0.97339 0.87306 0.67645 0.0
C1542 C 0.99045 0.86786 0.68635 0.0
H1543 H 0.92152 0.88748 0.66746 0.0
H1544 H 0.99426 0.87327 0.66952 0.0
S1545 S 0.92844 0.86703 0.7115 0.0
N1546 N 0.89333 0.87602 0.70267 0.0
N1547 N 0.97396 0.86261 0.705 0.0
C1548 C 0.96186 0.86833 0.69507 0.0
C1549 C 0.91797 0.87563 0.69382 0.0
C1550 C 0.18185 0.11138 0.67699 0.0
C1551 C 0.18548 0.13251 0.68698 0.0
C1552 C 0.17393 0.06118 0.67563 0.0
C1553 C 0.1707 0.03007 0.68417 0.0
H1554 H 0.18253 0.13277 0.67011 0.0
H1555 H 0.16922 0.04623 0.66777 0.0
S1556 S 0.18344 0.06891 0.71195 0.0
N1557 N 0.18811 0.1193 0.7056 0.0
N1558 N 0.1762 0.02597 0.70297 0.0
C1559 C 0.17744 0.05176 0.69419 0.0
C1560 C 0.18395 0.10259 0.69561 0.0
C1561 C 0.94429 0.08249 0.67672 0.0
C1562 C 0.92298 0.06629 0.68671 0.0
C1563 C 0.99431 0.1247 0.67536 0.0
C1564 C 1.02489 0.15364 0.68389 0.0
H1565 H 0.92329 0.06073 0.66989 0.0
H1566 H 1.00961 0.13392 0.66752 0.0
S1567 S 0.98499 0.13126 0.7116 0.0
N1568 N 0.93514 0.08459 0.70529 0.0
N1569 N 1.02815 0.16589 0.70262 0.0
C1570 C 1.00286 0.14009 0.69387 0.0
C1571 C 0.95226 0.0959 0.69531 0.0
C1572 C 0.84532 0.41251 0.50912 0.0
C1573 C 0.85249 0.39702 0.51904 0.0
C1574 C 0.83698 0.45457 0.50786 0.0
C1575 C 0.83676 0.48415 0.51641 0.0
H1576 H 0.84358 0.39043 0.50226 0.0
H1577 H 0.82962 0.46329 0.50006 0.0
S1578 S 0.85905 0.46349 0.54396 0.0
N1579 N 0.8616 0.41656 0.53758 0.0
N1580 N 0.84864 0.49743 0.53509 0.0
C1581 C 0.84688 0.47114 0.52632 0.0
C1582 C 0.85394 0.42711 0.52766 0.0
C1583 C 0.59935 0.3902 0.50815 0.0
C1584 C 0.56961 0.36084 0.5167 0.0
C1585 C 0.6413 0.44057 0.50941 0.0
C1586 C 0.6565 0.4636 0.51931 0.0
H1587 H 0.5908 0.37381 0.50038 0.0
H1588 H 0.66351 0.46062 0.50257 0.0
S1589 S 0.58964 0.40498 0.5442 0.0
N1590 N 0.55593 0.36033 0.53534 0.0
N1591 N 0.6367 0.45403 0.53782 0.0
C1592 C 0.62636 0.43537 0.52792 0.0
C1593 C 0.58242 0.38436 0.52658 0.0
C1594 C 0.62595 0.21701 0.52787 0.0
C1595 C 0.58961 0.19912 0.51961 0.0
C1596 C 0.67607 0.22381 0.52663 0.0
C1597 C 0.69208 0.21356 0.51706 0.0
H1598 H 0.61638 0.22777 0.53525 0.0
H1599 H 0.7033 0.23995 0.53302 0.0
S1600 S 0.61133 0.16106 0.4933 0.0
N1601 N 0.5729 0.16706 0.50175 0.0
N1602 N 0.66675 0.1809 0.49946 0.0
C1603 C 0.65561 0.19334 0.50893 0.0
C1604 C 0.60452 0.18576 0.5102 0.0
C1605 C 0.79761 0.49045 0.69734 0.0
C1606 C 0.82587 0.48913 0.68867 0.0
C1607 C 0.75633 0.50003 0.69626 0.0
C1608 C 0.7403 0.50744 0.68642 0.0
H1609 H 0.80689 0.4832 0.70509 0.0
H1610 H 0.73529 0.49913 0.70321 0.0
S1611 S 0.8032 0.51116 0.66123 0.0
N1612 N 0.83737 0.5002 0.66996 0.0
N1613 N 0.75766 0.5152 0.6678 0.0
C1614 C 0.76898 0.50763 0.67767 0.0
C1615 C 0.81231 0.49937 0.67883 0.0
C1616 C 0.52646 0.26045 0.6939 0.0
C1617 C 0.55176 0.24952 0.68584 0.0
C1618 C 0.53215 0.31009 0.69508 0.0
C1619 C 0.56288 0.35068 0.6882 0.0
H1620 H 0.5035 0.23101 0.69958 0.0
H1621 H 0.51382 0.31728 0.70165 0.0
S1622 S 0.63864 0.34382 0.666 0.0
N1623 N 0.60895 0.28459 0.67081 0.0
N1624 N 0.62 0.37725 0.67328 0.0
C1625 C 0.58743 0.34021 0.68001 0.0
C1626 C 0.58166 0.28979 0.67875 0.0
C1627 C 0.7906 0.29742 0.69719 0.0
C1628 C 0.81265 0.31372 0.68725 0.0
C1629 C 0.74034 0.2553 0.69847 0.0
C1630 C 0.70997 0.22648 0.6899 0.0
H1631 H 0.81117 0.31899 0.70407 0.0
H1632 H 0.72468 0.24608 0.70628 0.0
S1633 S 0.75108 0.24914 0.66226 0.0
N1634 N 0.80096 0.29534 0.66866 0.0
N1635 N 0.70739 0.21469 0.67117 0.0
C1636 C 0.73253 0.24014 0.67996 0.0
C1637 C 0.78349 0.28409 0.67861 0.0
C1638 C 0.57281 0.2498 0.18236 0.0
C1639 C 0.55295 0.21977 0.19141 0.0
C1640 C 0.56825 0.29422 0.18067 0.0
C1641 C 0.54316 0.31007 0.18793 0.0
H1642 H 0.59422 0.24046 0.17679 0.0
H1643 H 0.58629 0.31733 0.17381 0.0
S1644 S 0.47871 0.24011 0.21227 0.0
N1645 N 0.50356 0.2062 0.20727 0.0
N1646 N 0.49395 0.28829 0.20409 0.0
C1647 C 0.52056 0.27829 0.19672 0.0
C1648 C 0.52576 0.23361 0.19846 0.0
C1649 C 0.81099 0.33824 0.18182 0.0
C1650 C 0.84263 0.34809 0.19065 0.0
C1651 C 0.76502 0.29006 0.18045 0.0
C1652 C 0.74898 0.24975 0.18784 0.0
H1653 H 0.82032 0.36876 0.17621 0.0
H1654 H 0.74082 0.28525 0.17376 0.0
S1655 S 0.8225 0.25428 0.21163 0.0
N1656 N 0.85723 0.31218 0.20638 0.0
N1657 N 0.77237 0.22229 0.20381 0.0
C1658 C 0.78221 0.25855 0.19639 0.0
C1659 C 0.82851 0.30744 0.19779 0.0
C1660 C 0.79036 0.53033 0.18248 0.0
C1661 C 0.80501 0.49636 0.18697 0.0
C1662 C 0.73973 0.52238 0.18384 0.0
C1663 C 0.70245 0.48007 0.18966 0.0
H1664 H 0.81844 0.56379 0.17815 0.0
H1665 H 0.73028 0.55022 0.1806 0.0
S1666 S 0.71993 0.37599 0.2015 0.0
N1667 N 0.77705 0.41659 0.1965 0.0
N1668 N 0.68264 0.401 0.19889 0.0
C1669 C 0.71633 0.44465 0.19366 0.0
C1670 C 0.76743 0.45297 0.19236 0.0
C1671 C 0.63673 0.22157 0.02678 0.0
C1672 C 0.6525 0.19631 1.01954 0.0
C1673 C 0.59092 0.22392 0.0253 0.0
C1674 C 0.55929 0.20145 1.0165 0.0
H1675 H 0.66089 0.24145 0.03344 0.0
H1676 H 0.58174 0.24575 0.0308 0.0
S1677 S 0.57892 0.1255 0.99589 0.0
N1678 N 0.62901 0.14399 1.00374 0.0
N1679 N 0.54437 0.14947 1.00095 0.0
C1680 C 0.57314 0.17404 1.00951 0.0
C1681 C 0.61925 0.17115 1.01103 0.0
C1682 C 0.83791 0.39235 1.00821 0.0
C1683 C 0.8374 0.36244 1.01675 0.0
C1684 C 0.84639 0.44277 1.00951 0.0
C1685 C 0.85338 0.46533 1.01944 0.0
H1686 H 0.83059 0.3763 1.00041 0.0
H1687 H 0.8448 0.46318 1.00266 0.0
S1688 S 0.85962 0.40539 0.04433 0.0
N1689 N 0.84928 0.36107 0.03542 0.0
N1690 N 0.8622 0.45486 0.03798 0.0
C1691 C 0.85463 0.43665 0.02805 0.0
C1692 C 0.84754 0.38558 0.02667 0.0
C1693 C 0.61143 0.40996 1.01017 0.0
C1694 C 0.58987 0.39347 0.02016 0.0
C1695 C 0.6609 0.45288 1.00878 0.0
C1696 C 0.69121 0.48249 1.01726 0.0
H1697 H 0.59096 0.38823 1.0033 0.0
H1698 H 0.67595 0.46219 1.00092 0.0
S1699 S 0.65153 0.45981 0.045 0.0
N1700 N 0.60204 0.41247 0.03873 0.0
N1701 N 0.69438 0.49478 0.03599 0.0
C1702 C 0.6693 0.46858 0.02726 0.0
C1703 C 0.61896 0.4237 0.02874 0.0
C1704 C 0.50506 0.79899 0.86035 0.0
C1705 C 0.50922 0.82057 0.85042 0.0
C1706 C 0.5125 0.75611 0.86181 0.0
C1707 C 0.52547 0.73381 0.85344 0.0
H1708 H 0.49329 0.81347 0.86692 0.0
H1709 H 0.50642 0.73933 0.86952 0.0
S1710 S 0.54553 0.77965 0.82601 0.0
N1711 N 0.53007 0.81864 0.83221 0.0
N1712 N 0.54524 0.73964 0.83492 0.0
C1713 C 0.53252 0.7572 0.84358 0.0
C1714 C 0.52401 0.80004 0.84208 0.0
C1715 C 0.26195 0.71658 0.8605 0.0
C1716 C 0.23475 0.70038 0.85104 0.0
C1717 C 0.30615 0.76613 0.86152 0.0
C1718 C 0.32445 0.80158 0.85314 0.0
H1719 H 0.25115 0.68972 0.86693 0.0
H1720 H 0.32733 0.77575 0.86881 0.0
S1721 S 0.26189 0.77944 0.82713 0.0
N1722 N 0.22607 0.72477 0.83346 0.0
N1723 N 0.30768 0.81777 0.83536 0.0
C1724 C 0.29508 0.78672 0.84387 0.0
C1725 C 0.25071 0.73618 0.84282 0.0
C1726 C 0.32865 0.52033 0.85528 0.0
C1727 C 0.3695 0.56778 0.85162 0.0
C1728 C 0.27828 0.51302 0.85661 0.0
C1729 C 0.26772 0.55328 0.85452 0.0
H1730 H 0.3351 0.48813 0.85669 0.0
H1731 H 0.24742 0.47564 0.85916 0.0
S1732 S 0.36241 0.68598 0.84571 0.0
N1733 N 0.39632 0.656 0.84645 0.0
N1734 N 0.30303 0.64284 0.84926 0.0
C1735 C 0.30883 0.60127 0.85129 0.0
C1736 C 0.35939 0.60838 0.84977 0.0
C1737 C 0.49375 0.8588 1.01899 0.0
C1738 C 0.48813 0.81185 0.02278 0.0
C1739 C 0.45026 0.86572 1.01786 0.0
C1740 C 0.40006 0.82576 0.02042 0.0
H1741 H 0.53194 0.89079 1.01724 0.0
H1742 H 0.45598 0.90254 1.01509 0.0
S1743 S 0.36452 0.69379 0.02945 0.0
N1744 N 0.42812 0.72397 0.02831 0.0
N1745 N 0.34744 0.73662 0.02605 0.0
C1746 C 0.39419 0.77826 0.02378 0.0
C1747 C 0.43797 0.77141 0.025 0.0
C1748 C 0.23912 0.66093 1.01197 0.0
C1749 C 0.22379 0.67628 0.02101 0.0
C1750 C 0.23264 0.61078 1.01107 0.0
C1751 C 0.21041 0.57401 1.01917 0.0
H1752 H 0.25916 0.68873 1.00584 0.0
H1753 H 0.24741 0.60171 1.00415 0.0
S1754 S 0.15875 0.5943 0.04401 0.0
N1755 N 0.18197 0.65011 0.03785 0.0
N1756 N 0.1689 0.55621 0.03619 0.0
C1757 C 0.19211 0.58834 0.02798 0.0
C1758 C 0.19912 0.63935 0.0289 0.0
C1759 C 0.39184 0.57671 1.01352 0.0
C1760 C 0.37351 0.55414 0.02334 0.0
C1761 C 0.44195 0.62002 1.01234 0.0
C1762 C 0.47603 0.64187 0.0209 0.0
H1763 H 0.36641 0.56268 1.00682 0.0
H1764 H 0.45338 0.63749 1.0047 0.0
S1765 S 0.44749 0.59352 0.04814 0.0
N1766 N 0.39411 0.55469 0.04165 0.0
N1767 N 0.48788 0.63456 0.03946 0.0
C1768 C 0.45876 0.61756 0.03065 0.0
C1769 C 0.40766 0.57422 0.03186 0.0
C1770 C 0.23642 0.57962 0.51509 0.0
C1771 C 0.21564 0.54887 0.52404 0.0
C1772 C 0.2325 0.62451 0.51352 0.0
C1773 C 0.20725 0.64018 0.52077 0.0
H1774 H 0.25809 0.57051 0.50955 0.0
H1775 H 0.25117 0.64812 0.50674 0.0
S1776 S 0.14052 0.56848 0.54481 0.0
N1777 N 0.16511 0.53446 0.53976 0.0
N1778 N 0.15688 0.61745 0.53679 0.0
C1779 C 0.18369 0.60768 0.52943 0.0
C1780 C 0.18816 0.56249 0.53106 0.0
C1781 C 0.47606 0.66657 0.51506 0.0
C1782 C 0.50671 0.67649 0.52405 0.0
C1783 C 0.43015 0.6185 0.5136 0.0
C1784 C 0.41323 0.57843 0.52107 0.0
H1785 H 0.48612 0.69693 0.50937 0.0
H1786 H 0.40668 0.61362 0.50679 0.0
S1787 S 0.48437 0.58288 0.54521 0.0
N1788 N 0.51976 0.64069 0.53997 0.0
N1789 N 0.43489 0.55094 0.53724 0.0
C1790 C 0.44558 0.58717 0.52976 0.0
C1791 C 0.49185 0.63596 0.53125 0.0
C1792 C 0.44951 0.82398 0.53083 0.0
C1793 C 0.47335 0.8344 0.52098 0.0
C1794 C 0.39957 0.81647 0.53215 0.0
C1795 C 0.37121 0.82015 0.52375 0.0
H1796 H 0.46869 0.81944 0.53758 0.0
H1797 H 0.38276 0.80688 0.53987 0.0
S1798 S 0.41697 0.85088 0.49646 0.0
N1799 N 0.46522 0.85016 0.50267 0.0
N1800 N 0.37197 0.83831 0.50531 0.0
C1801 C 0.39523 0.83295 0.51393 0.0
C1802 C 0.44598 0.83937 0.5125 0.0
C1803 C 0.26719 0.55177 0.3417 0.0
C1804 C 0.23777 0.55248 0.35022 0.0
C1805 C 0.30949 0.5439 0.34305 0.0
C1806 C 0.3254 0.53779 0.35301 0.0
H1807 H 0.25809 0.55835 0.33388 0.0
H1808 H 0.3314 0.54514 0.33621 0.0
S1809 S 0.25974 0.53318 0.37788 0.0
N1810 N 0.22523 0.54232 0.36893 0.0
N1811 N 0.30664 0.53045 0.37156 0.0
C1812 C 0.29558 0.53699 0.36161 0.0
C1813 C 0.25128 0.54346 0.36018 0.0
C1814 C 0.50637 0.72812 0.34219 0.0
C1815 C 0.5046 0.69759 0.3507 0.0
C1816 C 0.51394 0.77813 0.34355 0.0
C1817 C 0.51875 0.79971 0.35353 0.0
H1818 H 0.50081 0.71289 0.33433 0.0
H1819 H 0.51353 0.79902 0.33668 0.0
S1820 S 0.52065 0.73762 0.37845 0.0
N1821 N 0.51262 0.69438 0.36947 0.0
N1822 N 0.52398 0.78751 0.37213 0.0
C1823 C 0.51862 0.77035 0.36215 0.0
C1824 C 0.5124 0.71965 0.36071 0.0
C1825 C 0.29313 0.75029 0.36161 0.0
C1826 C 0.2564 0.73308 0.35343 0.0
C1827 C 0.34309 0.79375 0.36044 0.0
C1828 C 0.35843 0.82142 0.35103 0.0
H1829 H 0.28405 0.72888 0.36884 0.0
H1830 H 0.37072 0.80383 0.36673 0.0
S1831 S 0.27659 0.79658 0.32758 0.0
N1832 N 0.23865 0.75098 0.33585 0.0
N1833 N 0.33227 0.83128 0.3337 0.0
C1834 C 0.32161 0.80637 0.34301 0.0
C1835 C 0.2707 0.7627 0.3442 0.0
C1836 C 0.33399 0.39522 0.17752 0.0
C1837 C 0.30962 0.36148 0.18599 0.0
C1838 C 0.38835 0.42152 0.17621 0.0
C1839 C 0.42117 0.41501 0.18322 0.0
H1840 H 0.31086 0.40117 0.17177 0.0
H1841 H 0.40469 0.44648 0.1695 0.0
S1842 S 0.37814 0.33204 0.20681 0.0
N1843 N 0.32391 0.32429 0.20166 0.0
N1844 N 0.42498 0.37272 0.19907 0.0
C1845 C 0.39753 0.38199 0.19178 0.0
C1846 C 0.34227 0.35558 0.19319 0.0
C1847 C 0.6768 0.02914 0.19143 0.0
C1848 C 0.64149 1.01824 0.18317 0.0
C1849 C 0.70265 1.00044 0.19286 0.0
C1850 C 0.69482 0.95968 0.18606 0.0
H1851 H 0.68528 0.06072 0.19673 0.0
H1852 H 0.73012 1.01136 0.19921 0.0
S1853 S 0.60373 0.91314 0.1636 0.0
N1854 N 0.5982 0.96155 0.16844 0.0
N1855 N 0.6466 0.9087 0.17102 0.0
C1856 C 0.65855 0.94765 0.17795 0.0
C1857 C 0.63204 0.97653 0.17655 0.0
C1858 C 0.05982 0.71827 0.19309 0.0
C1859 C 0.10089 0.75149 0.18643 0.0
C1860 C 1.0315 0.66378 0.19152 0.0
C1861 C 0.04324 0.6398 0.18329 0.0
H1862 H 0.04829 0.73459 0.19938 0.0
H1863 H 0.9996 0.64038 0.1967 0.0
S1864 S 0.14989 0.7082 0.16418 0.0
N1865 N 0.15326 0.75504 0.17162 0.0
N1866 N 0.10134 0.65406 0.1688 0.0
C1867 C 0.08541 0.67244 0.17684 0.0
C1868 C 0.11375 0.72767 0.17837 0.0
C1869 C 0.40212 0.32144 0.3633 0.0
C1870 C 0.36883 0.29726 0.35475 0.0
C1871 C 0.42976 0.37589 0.36451 0.0
C1872 C 0.42491 0.40902 0.35731 0.0
H1873 H 0.40689 0.29809 0.36918 0.0
H1874 H 0.45445 0.39207 0.37127 0.0
S1875 S 0.34319 0.36647 0.3335 0.0
N1876 N 0.33351 0.31192 0.33883 0.0
N1877 N 0.3843 0.41331 0.34124 0.0
C1878 C 0.39212 0.38556 0.34869 0.0
C1879 C 0.36449 0.33015 0.34737 0.0
C1880 C 0.67952 0.06911 0.36362 0.0
C1881 C 0.64627 0.02829 0.35692 0.0
C1882 C 0.73378 0.09663 0.36217 0.0
C1883 C 0.75756 0.0852 0.35388 0.0
H1884 H 0.66361 0.07941 0.37018 0.0
H1885 H 0.75728 0.12694 0.36768 0.0
S1886 S 0.6878 0.98264 0.3339 0.0
N1887 N 0.64143 0.9784 0.34157 0.0
N1888 N 0.74233 0.03013 0.3387 0.0
C1889 C 0.72449 0.04511 0.34698 0.0
C1890 C 0.66933 1.01674 0.34854 0.0
C1891 C 1.00924 0.69009 0.34774 0.0
C1892 C 0.96973 0.68372 0.35469 0.0
C1893 C 0.03732 0.6637 0.34915 0.0
C1894 C 1.02681 0.62916 0.35752 0.0
H1895 H 1.01972 0.7169 0.34129 0.0
H1896 H 0.06798 0.67095 0.34372 0.0
S1897 S 0.92488 0.59549 0.37754 0.0
N1898 N 0.92033 0.63797 0.37002 0.0
N1899 N 0.97199 0.58831 0.37256 0.0
C1900 C 0.98631 0.62117 0.36431 0.0
C1901 C 0.95819 0.64839 0.36295 0.0
C1902 C 0.67113 0.66098 0.8497 0.0
C1903 C 0.64959 0.63676 0.85928 0.0
C1904 C 0.72522 0.68521 0.84782 0.0
C1905 C 0.76011 0.68585 0.8554 0.0
H1906 H 0.64633 0.66276 0.84374 0.0
H1907 H 0.73987 0.70463 0.84044 0.0
S1908 S 0.72226 0.6234 0.88147 0.0
N1909 N 0.6672 0.61238 0.87618 0.0
N1910 N 0.76714 0.65628 0.87268 0.0
C1911 C 0.73831 0.65972 0.86484 0.0
C1912 C 0.68369 0.63573 0.86676 0.0
C1913 C 0.40783 0.09637 0.86199 0.0
C1914 C 0.3727 0.08558 0.8537 0.0
C1915 C 0.43464 0.06874 0.8633 0.0
C1916 C 0.42731 0.02842 0.85648 0.0
H1917 H 0.41452 0.12627 0.8676 0.0
H1918 H 0.46071 0.07856 0.86987 0.0
S1919 S 0.3406 0.98458 0.83339 0.0
N1920 N 0.33322 0.03164 0.83838 0.0
N1921 N 0.38276 0.97981 0.84098 0.0
C1922 C 0.39289 1.01756 0.84808 0.0
C1923 C 0.36592 0.04601 0.84666 0.0
C1924 C 0.96467 0.32487 0.86317 0.0
C1925 C 0.97526 0.30078 0.8548 0.0
C1926 C 0.99323 0.37902 0.86475 0.0
C1927 C 0.03438 0.4119 0.85813 0.0
H1928 H 0.93415 0.30166 0.86864 0.0
H1929 H 0.98343 0.39513 0.87135 0.0
S1930 S 0.07834 0.36954 0.83498 0.0
N1931 N 1.02997 0.31532 0.83964 0.0
N1932 N 0.08382 0.41615 0.84278 0.0
C1933 C 0.04519 0.3886 0.84968 0.0
C1934 C 1.01569 0.33349 0.84797 0.0
C1935 C 0.63259 0.67071 0.67721 0.0
C1936 C 0.64045 0.63745 0.68382 0.0
C1937 C 0.65983 0.72496 0.6786 0.0
C1938 C 0.69589 0.74875 0.68676 0.0
H1939 H 0.60583 0.65483 0.67073 0.0
H1940 H 0.65277 0.74846 0.67314 0.0
S1941 S 0.72939 0.67893 0.70655 0.0
N1942 N 0.68631 0.63243 0.699 0.0
N1943 N 0.73664 0.73361 0.70177 0.0
C1944 C 0.7031 0.7157 0.69361 0.0
C1945 C 0.67571 0.66044 0.6921 0.0
C1946 C 0.38796 0.97792 0.67658 0.0
C1947 C 0.42067 1.01883 0.68331 0.0
C1948 C 0.33367 0.95007 0.67792 0.0
C1949 C 0.30923 0.96117 0.68614 0.0
H1950 H 0.40432 0.96776 0.67008 0.0
H1951 H 0.31065 0.91968 0.67238 0.0
S1952 S 0.37735 0.06381 0.70616 0.0
N1953 N 0.42433 0.06849 0.69862 0.0
N1954 N 0.3232 1.01606 0.70127 0.0
C1955 C 0.34172 1.00135 0.69307 0.0
C1956 C 0.39699 0.03011 0.69162 0.0
C1957 C 0.03387 0.38746 0.69091 0.0
C1958 C 0.03922 0.4147 0.6816 0.0
C1959 C 0.06281 0.3621 0.69272 0.0
C1960 C 0.09861 0.36314 0.68532 0.0
H1961 H 1.00564 0.38386 0.69665 0.0
H1962 H 0.05588 0.34023 0.69985 0.0
S1963 S 0.13063 0.43396 0.66011 0.0
N1964 N 0.08566 0.44406 0.66524 0.0
N1965 N 0.13989 0.39787 0.66861 0.0
C1966 C 0.10575 0.39243 0.6762 0.0
C1967 C 0.07616 0.41768 0.67436 0.0
C1968 C 1.00623 0.68498 0.5255 0.0
C1969 C 0.97355 0.69301 0.5187 0.0
C1970 C 0.06061 0.71096 0.52415 0.0
C1971 C 0.08508 0.74659 0.51598 0.0
H1972 H 0.98964 0.65739 0.53181 0.0
H1973 H 0.08358 0.70251 0.52949 0.0
S1974 S 1.01831 0.78442 0.49636 0.0
N1975 N 0.97093 0.74137 0.50369 0.0
N1976 N 0.07211 0.79005 0.50126 0.0
C1977 C 0.05309 0.75609 0.50932 0.0
C1978 C 0.9978 0.72943 0.51064 0.0
C1979 C 0.32821 0.28201 0.51118 0.0
C1980 C 0.36268 0.29222 0.51957 0.0
C1981 C 0.30182 0.31001 0.50979 0.0
C1982 C 0.30873 0.3501 0.51664 0.0
H1983 H 0.3218 0.25233 0.50553 0.0
H1984 H 0.27637 0.30065 0.50312 0.0
S1985 S 0.39384 0.39267 0.53997 0.0
N1986 N 0.40119 0.34552 0.53501 0.0
N1987 N 0.35236 0.398 0.53227 0.0
C1988 C 0.34242 0.36036 0.52515 0.0
C1989 C 0.36908 0.33158 0.52664 0.0
C1990 C 0.74486 1.00009 0.5092 0.0
C1991 C 0.70598 0.96715 0.51624 0.0
C1992 C 0.77286 0.05442 0.51056 0.0
C1993 C 0.76393 0.07881 0.51911 0.0
H1994 H 0.75318 0.98387 0.50241 0.0
H1995 H 0.80147 0.07752 0.50475 0.0
S1996 S 0.66743 1.0101 0.54008 0.0
N1997 N 0.6608 0.96319 0.53223 0.0
N1998 N 0.71351 0.06443 0.53494 0.0
C1999 C 0.72596 0.04608 0.52637 0.0
C2000 C 0.69708 0.99071 0.5249 0.0
C2001 C 0.05839 0.71768 0.68163 0.0
C2002 C 0.09572 0.74157 0.68958 0.0
C2003 C 1.03261 0.66341 0.67997 0.0
C2004 C 0.04264 0.63035 0.68623 0.0
H2005 H 0.04823 0.74095 0.67676 0.0
H2006 H 1.00331 0.64713 0.67393 0.0
S2007 S 0.13984 0.6738 0.7076 0.0
N2008 N 0.14345 0.72779 0.70336 0.0
N2009 N 0.09531 0.62693 0.70035 0.0
C2010 C 0.08113 0.65415 0.69398 0.0
C2011 C 0.1075 0.70926 0.69561 0.0
C2012 C 0.34576 0.40149 0.69754 0.0
C2013 C 0.31269 0.36194 0.69061 0.0
C2014 C 0.39994 0.42947 0.69609 0.0
C2015 C 0.42376 0.41982 0.68754 0.0
H2016 H 0.3298 0.41033 0.7043 0.0
H2017 H 0.42336 0.45871 0.70179 0.0
S2018 S 0.35427 0.32142 0.66684 0.0
N2019 N 0.30785 0.3154 0.67473 0.0
N2020 N 0.40876 0.36802 0.67186 0.0
C2021 C 0.39083 0.38114 0.6804 0.0
C2022 C 0.33572 0.35228 0.68196 0.0
C2023 C 0.65707 0.95955 0.69809 0.0
C2024 C 0.6956 0.96466 0.69103 0.0
C2025 C 0.62936 0.98618 0.69665 0.0
C2026 C 0.63837 1.01883 0.688 0.0
H2027 H 0.64884 0.93547 0.70494 0.0
H2028 H 0.60092 0.98141 0.70244 0.0
S2029 S 0.73396 0.04399 0.66695 0.0
N2030 N 0.74037 1.00411 0.67492 0.0
N2031 N 0.68842 0.05326 0.67208 0.0
C2032 C 0.67605 0.02321 0.68074 0.0
C2033 C 0.70454 0.99647 0.68228 0.0
C2034 C 0.35433 0.97906 0.20022 0.0
C2035 C 0.31924 0.97761 0.19267 0.0
C2036 C 0.40801 1.00287 0.1983 0.0
C2037 C 0.43006 0.02733 0.18873 0.0
H2038 H 0.34024 0.96195 0.20781 0.0
H2039 H 0.43254 1.00295 0.20453 0.0
S2040 S 0.35524 0.03471 0.16622 0.0
N2041 N 0.31065 1.00273 0.17515 0.0
N2042 N 0.41104 0.04763 0.17149 0.0
C2043 C 0.39523 0.0257 0.18103 0.0
C2044 C 0.3402 1.0009 0.18299 0.0
C2045 C 1.02953 0.37988 0.18145 0.0
C2046 C 0.04031 0.42301 0.1878 0.0
C2047 C 0.05577 0.35155 0.18276 0.0
C2048 C 0.09437 0.36515 0.19044 0.0
H2049 H 0.99963 0.36699 0.17554 0.0
H2050 H 0.04518 0.31827 0.1778 0.0
S2051 S 0.1402 0.47663 0.20868 0.0
N2052 N 0.09453 0.47884 0.2018 0.0
N2053 N 0.14357 0.42648 0.20416 0.0
C2054 C 0.10653 0.40898 0.19662 0.0
C2055 C 0.07968 0.43756 0.19535 0.0
C2056 C 0.63016 0.65579 0.196 0.0
C2057 C 0.64076 0.63114 0.18773 0.0
C2058 C 0.65763 0.71021 0.19726 0.0
C2059 C 0.69766 0.74297 0.1904 0.0
H2060 H 0.60046 0.63284 0.20163 0.0
H2061 H 0.64787 0.72665 0.20381 0.0
S2062 S 0.74087 0.69928 0.16734 0.0
N2063 N 0.69418 0.64507 0.17239 0.0
N2064 N 0.74578 0.74645 0.1749 0.0
C2065 C 0.70838 0.71911 0.18204 0.0
C2066 C 0.68005 0.66367 0.18067 0.0
C2067 C 0.33846 0.98894 0.02428 0.0
C2068 C 0.31009 0.96696 1.01505 0.0
C2069 C 0.36349 0.04324 0.02616 0.0
C2070 C 0.36085 0.0779 1.01896 0.0
H2071 H 0.34317 0.96445 0.02987 0.0
H2072 H 0.38617 0.05822 0.03322 0.0
S2073 S 0.28717 0.03869 0.994 0.0
N2074 N 0.27845 0.98387 0.99896 0.0
N2075 N 0.32377 0.084 1.00247 0.0
C2076 C 0.33057 0.05556 1.00992 0.0
C2077 C 0.30581 1.00082 1.008 0.0
C2078 C 0.0606 0.35794 0.02433 0.0
C2079 C 0.08491 0.34469 1.01643 0.0
C2080 C 1.00614 0.33026 0.02572 0.0
C2081 C 0.97315 0.28824 1.0192 0.0
H2082 H 0.0838 0.39041 0.02944 0.0
H2083 H 0.98972 0.34286 0.0318 0.0
S2084 S 1.01723 0.23603 0.99764 0.0
N2085 N 0.07126 0.28487 1.00228 0.0
N2086 N 0.97009 0.23388 1.00475 0.0
C2087 C 0.99722 0.27407 1.0114 0.0
C2088 C 0.05255 0.3019 1.01007 0.0
C2089 C 0.72293 0.68584 0.02557 0.0
C2090 C 0.76298 0.69326 1.01867 0.0
C2091 C 0.69466 0.7121 0.02428 0.0
C2092 C 0.7054 0.74747 1.01607 0.0
H2093 H 0.7123 0.65847 0.03192 0.0
H2094 H 0.6637 0.70409 0.02969 0.0
S2095 S 0.80836 0.78376 0.99617 0.0
N2096 N 0.81294 0.74076 1.00351 0.0
N2097 N 0.76078 0.79006 1.00119 0.0
C2098 C 0.7463 0.7564 1.0093 0.0
C2099 C 0.77473 0.72941 1.01056 0.0
C2100 C 0.72294 0.08958 0.84298 0.0
C2101 C 0.75599 0.08347 0.85 0.0
C2102 C 0.66858 0.06239 0.84422 0.0
C2103 C 0.64444 0.02813 0.85262 0.0
H2104 H 0.73909 0.11493 0.83632 0.0
H2105 H 0.64528 0.06807 0.83847 0.0
S2106 S 0.71361 0.99959 0.87344 0.0
N2107 N 0.76034 0.04109 0.86578 0.0
N2108 N 0.65913 0.99097 0.86826 0.0
C2109 C 0.67729 0.02265 0.85984 0.0
C2110 C 0.73261 0.04995 0.85849 0.0
C2111 C 0.96937 0.64381 0.84309 0.0
C2112 C 0.97535 0.68342 0.84998 0.0
C2113 C 0.99608 0.61617 0.84459 0.0
C2114 C 1.02962 0.62624 0.85315 0.0
H2115 H 0.94456 0.63468 0.83632 0.0
H2116 H 0.99066 0.58691 0.83892 0.0
S2117 S 0.0573 0.72495 0.87376 0.0
N2118 N 1.01668 0.73041 0.86583 0.0
N2119 N 0.06582 0.67855 0.86881 0.0
C2120 C 0.03486 0.66502 0.86025 0.0
C2121 C 1.00811 0.69348 0.85863 0.0
C2122 C 0.41156 0.33701 0.84259 0.0
C2123 C 0.37324 0.30391 0.8497 0.0
C2124 C 0.43896 0.39136 0.84392 0.0
C2125 C 0.43006 0.41549 0.85253 0.0
H2126 H 0.41989 0.3209 0.83578 0.0
H2127 H 0.46728 0.41469 0.83809 0.0
S2128 S 0.33456 0.34627 0.87361 0.0
N2129 N 0.32841 0.29952 0.86577 0.0
N2130 N 0.37995 0.40079 0.86841 0.0
C2131 C 0.39253 0.38261 0.85983 0.0
C2132 C 0.36422 0.32727 0.85839 0.0
C2133 C 0.73521 0.98612 0.02934 0.0
C2134 C 0.70041 0.96179 0.021 0.0
C2135 C 0.76205 0.04051 0.03067 0.0
C2136 C 0.75516 0.07348 0.02378 0.0
H2137 H 0.74162 0.96293 0.035 0.0
H2138 H 0.78785 0.05678 0.03728 0.0
S2139 S 0.66949 0.03065 1.00052 0.0
N2140 N 0.66171 0.97625 1.00557 0.0
N2141 N 0.7114 0.07751 1.00816 0.0
C2142 C 0.72109 0.04992 1.01533 0.0
C2143 C 0.69403 0.99455 1.01392 0.0
C2144 C 1.01227 0.73677 0.02895 0.0
C2145 C 0.97901 0.69569 0.02233 0.0
C2146 C 0.06629 0.76519 0.0273 0.0
C2147 C 0.0899 0.75447 1.01885 0.0
H2148 H 0.99663 0.74637 0.03566 0.0
H2149 H 0.08983 0.79534 0.03283 0.0
S2150 S 1.0197 0.65244 0.99882 0.0
N2151 N 0.97364 0.64701 1.00674 0.0
N2152 N 0.07429 0.70035 1.00351 0.0
C2153 C 0.0567 0.71452 1.01195 0.0
C2154 C 1.0017 0.68524 1.01372 0.0
C2155 C 0.3409 0.35119 1.01505 0.0
C2156 C 0.30102 0.34479 0.02192 0.0
C2157 C 0.36882 0.32461 1.0165 0.0
C2158 C 0.35795 0.28993 0.02485 0.0
H2159 H 0.35167 0.37799 1.0086 0.0
H2160 H 0.39968 0.33192 1.01112 0.0
S2161 S 0.25519 0.25618 0.0447 0.0
N2162 N 0.25103 0.29885 0.03718 0.0
N2163 N 0.30243 0.24898 0.0398 0.0
C2164 C 0.31719 0.282 0.03158 0.0
C2165 C 0.2891 0.30929 0.03016 0.0
C2166 C 0.06957 0.31672 0.52841 0.0
C2167 C 0.09437 0.35318 0.52036 0.0
C2168 C 1.01517 0.28974 0.5296 0.0
C2169 C 0.98246 0.298 0.52289 0.0
H2170 H 0.09239 0.30908 0.53394 0.0
H2171 H 0.99868 0.26269 0.536 0.0
S2172 S 1.02635 0.38796 0.50037 0.0
N2173 N 0.08052 0.3948 0.50536 0.0
N2174 N 0.97913 0.34467 0.5077 0.0
C2175 C 1.0064 0.33365 0.51472 0.0
C2176 C 0.06188 0.36097 0.51344 0.0
C2177 C 0.69373 0.70878 0.51454 0.0
C2178 C 0.7052 0.75262 0.52071 0.0
C2179 C 0.71983 0.68039 0.51594 0.0
C2180 C 0.75888 0.69461 0.52354 0.0
H2181 H 0.66334 0.69532 0.50873 0.0
H2182 H 0.7087 0.64653 0.51113 0.0
S2183 S 0.80682 0.80824 0.54125 0.0
N2184 N 0.76081 0.80999 0.53441 0.0
N2185 N 0.80944 0.75734 0.53695 0.0
C2186 C 0.77182 0.73919 0.52953 0.0
C2187 C 0.74521 0.76792 0.52815 0.0
C2188 C 0.34316 0.99337 0.51471 0.0
C2189 C 0.3018 0.96078 0.52136 0.0
C2190 C 0.37146 0.04786 0.51609 0.0
C2191 C 0.35957 0.07258 0.52414 0.0
H2192 H 0.35472 0.97662 0.5085 0.0
H2193 H 0.40335 0.07074 0.51087 0.0
S2194 S 0.2531 1.00613 0.54333 0.0
N2195 N 0.24949 0.95858 0.53609 0.0
N2196 N 0.30174 0.05983 0.53858 0.0
C2197 C 0.31747 0.04065 0.53065 0.0
C2198 C 0.28895 0.98528 0.5293 0.0
C2199 C 0.03762 0.38111 0.35863 0.0
C2200 C 1.02882 0.41415 0.35209 0.0
C2201 C 1.01151 0.3267 0.35712 0.0
C2202 C 0.97496 0.30257 0.34905 0.0
H2203 H 0.06589 0.39745 0.36485 0.0
H2204 H 1.02049 0.30343 0.36225 0.0
S2205 S 0.9349 0.37039 0.33012 0.0
N2206 N 0.97878 0.41743 0.33744 0.0
N2207 N 0.92989 0.31634 0.33472 0.0
C2208 C 0.96477 0.33496 0.34265 0.0
C2209 C 0.99155 0.39023 0.34413 0.0
C2210 C 0.71913 0.65768 0.34092 0.0
C2211 C 0.75383 0.69165 0.34848 0.0
C2212 C 0.66553 0.62753 0.3428 0.0
C2213 C 0.64332 0.62991 0.35234 0.0
H2214 H 0.73344 0.65474 0.33334 0.0
H2215 H 0.6412 0.60292 0.33656 0.0
S2216 S 0.71716 0.71262 0.3749 0.0
N2217 N 0.76197 0.72558 0.36599 0.0
N2218 N 0.66166 0.66922 0.36961 0.0
C2219 C 0.6778 0.66315 0.36009 0.0
C2220 C 0.73272 0.69383 0.35815 0.0
C2221 C 0.36462 0.05226 0.35749 0.0
C2222 C 0.36683 0.07656 0.34794 0.0
C2223 C 0.39495 0.02837 0.35929 0.0
C2224 C 0.42913 0.02812 0.35165 0.0
H2225 H 0.33804 0.0501 0.36348 0.0
H2226 H 0.39051 1.00882 0.36664 0.0
S2227 S 0.45258 0.09103 0.32566 0.0
N2228 N 0.40837 0.10157 0.33102 0.0
N2229 N 0.4652 0.05819 0.33437 0.0
C2230 C 0.433 0.05437 0.34225 0.0
C2231 C 0.40196 0.07807 0.34041 0.0
C2232 C 0.1762 0.31639 0.09673 0.0
C2233 C 0.20312 0.36655 0.09244 0.0
C2234 C 0.17278 0.30841 0.10757 0.0
C2235 C 0.19575 0.35025 0.11462 0.0
H2236 H 0.15701 0.28292 0.09166 0.0
H2237 H 0.15043 0.26912 0.11044 0.0
S2238 S 0.27242 0.48926 0.10749 0.0
N2239 N 0.25413 0.45875 0.09619 0.0
N2240 N 0.24858 0.44367 0.11648 0.0
C2241 C 0.22392 0.40052 0.11044 0.0
C2242 C 0.22749 0.40867 0.0994 0.0
C2243 C 0.69835 0.80689 0.09815 0.0
C2244 C 0.6945 0.84513 0.09241 0.0
C2245 C 0.70548 0.81073 0.109 0.0
C2246 C 0.70949 0.85321 0.11464 0.0
H2247 H 0.69515 0.77316 0.09423 0.0
H2248 H 0.7085 0.78032 0.11299 0.0
S2249 S 0.70233 0.96425 0.1034 0.0
N2250 N 0.69569 0.92728 0.09324 0.0
N2251 N 0.70878 0.93436 0.11363 0.0
C2252 C 0.70593 0.89191 0.10902 0.0
C2253 C 0.69833 0.88783 0.09794 0.0
C2254 C 0.26122 0.90785 0.10991 0.0
C2255 C 0.21421 0.87723 0.11521 0.0
C2256 C 0.26543 0.9029 0.09912 0.0
C2257 C 0.22291 0.86686 0.09317 0.0
H2258 H 0.29507 0.93626 0.11412 0.0
H2259 H 0.3026 0.92691 0.09544 0.0
S2260 S 0.09082 0.77784 0.10323 0.0
N2261 N 0.12417 0.80958 0.11365 0.0
N2262 N 0.13171 0.80095 0.09338 0.0
C2263 C 0.17551 0.83629 0.09836 0.0
C2264 C 0.17123 0.84138 0.10935 0.0
C2265 C 0.41322 0.20463 0.44123 0.0
C2266 C 0.37149 0.18822 0.44821 0.0
C2267 C 0.40536 0.19991 0.43038 0.0
C2268 C 0.35547 0.17892 0.42602 0.0
H2269 H 0.45222 0.21967 0.44416 0.0
H2270 H 0.43869 0.2122 0.42537 0.0
S2271 S 0.23333 0.13272 0.44087 0.0
N2272 N 0.27864 0.15261 0.44993 0.0
N2273 N 0.26372 0.14273 0.42962 0.0
C2274 C 0.31355 0.16377 0.43291 0.0
C2275 C 0.32157 0.16853 0.44396 0.0
C2276 C 0.91597 0.2334 0.43077 0.0
C2277 C 0.87742 0.19205 0.42492 0.0
C2278 C 0.91205 0.2362 0.44162 0.0
C2279 C 0.86922 0.198 0.44716 0.0
H2280 H 0.94994 0.26372 0.42693 0.0
H2281 H 0.94269 0.2691 0.4457 0.0
S2282 S 0.7573 0.08171 0.43559 0.0
N2283 N 0.79464 0.11205 0.42552 0.0
N2284 N 0.78739 0.11719 0.44592 0.0
C2285 C 0.83022 0.15645 0.44142 0.0
C2286 C 0.83438 0.15341 0.43034 0.0
C2287 C 0.8453 0.65343 0.43018 0.0
C2288 C 0.87133 0.70381 0.42598 0.0
C2289 C 0.84175 0.64501 0.441 0.0
C2290 C 0.86377 0.68659 0.44813 0.0
H2291 H 0.82679 0.62011 0.42506 0.0
H2292 H 0.81995 0.60554 0.44381 0.0
S2293 S 0.9384 0.82603 0.44124 0.0
N2294 N 0.92083 0.79595 0.42989 0.0
N2295 N 0.9151 0.78004 0.45015 0.0
C2296 C 0.89127 0.7371 0.44404 0.0
C2297 C 0.89493 0.74571 0.43301 0.0
C2298 C 0.87842 0.65914 0.92949 0.0
C2299 C 0.87049 0.69845 0.92536 0.0
C2300 C 0.87249 0.64748 0.94018 0.0
C2301 C 0.85851 0.67468 0.94723 0.0
H2302 H 0.89082 0.63811 0.92447 0.0
H2303 H 0.88027 0.61773 0.94298 0.0
S2304 S 0.82817 0.77759 0.94035 0.0
N2305 N 0.84415 0.76204 0.92914 0.0
N2306 N 0.83359 0.74044 0.94921 0.0
C2307 C 0.84924 0.71322 0.9432 0.0
C2308 C 0.85504 0.72497 0.93229 0.0
C2309 C 0.3367 0.15415 0.93258 0.0
C2310 C 0.36374 0.19551 0.92558 0.0
C2311 C 0.34667 0.16036 0.94337 0.0
C2312 C 0.38433 0.2081 0.9476 0.0
H2313 H 0.30736 0.11662 0.92972 0.0
H2314 H 0.32474 0.1275 0.94844 0.0
S2315 S 0.46336 0.32965 0.93283 0.0
N2316 N 0.42811 0.28672 0.92384 0.0
N2317 N 0.44723 0.29803 0.94399 0.0
C2318 C 0.41165 0.24973 0.9407 0.0
C2319 C 0.40133 0.24353 0.92975 0.0
C2320 C 0.88798 0.16162 0.93284 0.0
C2321 C 0.87097 0.1864 0.92582 0.0
C2322 C 0.88295 0.16462 0.94367 0.0
C2323 C 0.86109 0.19288 0.948 0.0
H2324 H 0.90373 0.13817 0.92992 0.0
H2325 H 0.8957 0.14399 0.94871 0.0
S2326 S 0.81299 0.26721 0.93307 0.0
N2327 N 0.83378 0.24239 0.92404 0.0
N2328 N 0.82339 0.24724 0.94433 0.0
C2329 C 0.84532 0.21912 0.94108 0.0
C2330 C 0.85037 0.21597 0.93004 0.0
C2331 C 0.72127 0.8487 0.59719 0.0
C2332 C 0.68302 0.85806 0.593 0.0
C2333 C 0.73136 0.85259 0.60797 0.0
C2334 C 0.70386 0.86635 0.61501 0.0
H2335 H 0.74356 0.83823 0.59209 0.0
H2336 H 0.76115 0.84496 0.6108 0.0
S2337 S 0.60262 0.89894 0.60788 0.0
N2338 N 0.61906 0.8838 0.59669 0.0
N2339 N 0.63843 0.89194 0.61683 0.0
C2340 C 0.6657 0.87608 0.61089 0.0
C2341 C 0.65524 0.8718 0.59994 0.0
C2342 C 0.21952 0.82706 0.59919 0.0
C2343 C 0.20206 0.85133 0.59215 0.0
C2344 C 0.21558 0.83116 0.61003 0.0
C2345 C 0.19437 0.86007 0.61434 0.0
H2346 H 0.2348 0.80316 0.59631 0.0
H2347 H 0.22867 0.81091 0.61509 0.0
S2348 S 0.14546 0.93347 0.59933 0.0
N2349 N 0.16518 0.90759 0.59032 0.0
N2350 N 0.15675 0.91444 0.61062 0.0
C2351 C 0.17814 0.88578 0.60739 0.0
C2352 C 0.1821 0.88153 0.59635 0.0
C2353 C 0.21584 0.3234 0.59703 0.0
C2354 C 0.21039 0.3639 0.59272 0.0
C2355 C 0.20953 0.31272 0.60775 0.0
C2356 C 0.19765 0.34214 0.61466 0.0
H2357 H 0.22653 0.30059 0.59213 0.0
H2358 H 0.21537 0.28194 0.61071 0.0
S2359 S 0.17411 0.449 0.60726 0.0
N2360 N 0.18856 0.43111 0.59616 0.0
N2361 N 0.17735 0.41132 0.61631 0.0
C2362 C 0.19086 0.38191 0.61044 0.0
C2363 C 0.19704 0.39268 0.5995 0.0
C2364 C 0.06415 0.50433 0.7645 0.0
C2365 C 1.01577 0.49398 0.76058 0.0
C2366 C 0.07484 0.5103 0.77525 0.0
C2367 C 0.03737 0.5055 0.78255 0.0
H2368 H 0.09429 0.50854 0.7592 0.0
H2369 H 0.1126 0.51807 0.77788 0.0
S2370 S 0.90427 0.47773 0.77637 0.0
N2371 N 0.92973 0.47838 0.76491 0.0
N2372 N 0.94992 0.48987 0.78504 0.0
C2373 C 0.98874 0.49483 0.77874 0.0
C2374 C 0.97797 0.48911 0.76779 0.0
C2375 C 0.52323 0.55192 0.76347 0.0
C2376 C 0.54323 0.52197 0.75914 0.0
C2377 C 0.51938 0.55603 0.77431 0.0
C2378 C 0.53574 0.53073 0.78134 0.0
H2379 H 0.51097 0.57293 0.75843 0.0
H2380 H 0.50501 0.58067 0.77722 0.0
S2381 S 0.58901 0.44576 0.7741 0.0
N2382 N 0.57858 0.46561 0.76283 0.0
N2383 N 0.57032 0.47248 0.78313 0.0
C2384 C 0.55453 0.49956 0.77712 0.0
C2385 C 0.55839 0.4953 0.76607 0.0
C2386 C 0.5078 0.9838 0.76297 0.0
C2387 C 0.53679 0.03403 0.75879 0.0
C2388 C 0.50454 0.97511 0.77379 0.0
C2389 C 0.52975 1.0163 0.78093 0.0
H2390 H 0.4869 0.95085 0.75784 0.0
H2391 H 0.48062 0.93587 0.77658 0.0
S2392 S 0.6123 0.15508 0.77409 0.0
N2393 N 0.59214 0.12553 0.76274 0.0
N2394 N 0.5868 0.10906 0.78298 0.0
C2395 C 0.55993 0.06656 0.77686 0.0
C2396 C 0.56335 0.07543 0.76584 0.0
C2397 C 0.57059 0.07251 0.2664 0.0
C2398 C 0.54607 0.03121 0.25927 0.0
C2399 C 0.56543 0.06406 0.27722 0.0
C2400 C 0.53515 1.01398 0.28139 0.0
H2401 H 0.59549 0.11158 0.26361 0.0
H2402 H 0.58598 0.09701 0.28237 0.0
S2403 S 0.46046 0.89289 0.26607 0.0
N2404 N 0.48807 0.93865 0.25718 0.0
N2405 N 0.47914 0.92259 0.27744 0.0
C2406 C 0.50912 0.97253 0.27434 0.0
C2407 C 0.51448 0.98116 0.26332 0.0
C2408 C 0.07976 0.55665 0.27437 0.0
C2409 C 0.038 0.53257 0.28138 0.0
C2410 C 0.07174 0.55452 0.26354 0.0
C2411 C 1.02161 0.52788 0.2592 0.0
H2412 H 0.11902 0.57886 0.27729 0.0
H2413 H 0.10516 0.57449 0.25851 0.0
S2414 S 0.89911 0.45597 0.2741 0.0
N2415 N 0.94469 0.47899 0.28313 0.0
N2416 N 0.92953 0.47581 0.26285 0.0
C2417 C 0.97957 0.50239 0.26611 0.0
C2418 C 0.98776 0.50465 0.27715 0.0
C2419 C 0.51039 0.5398 0.26368 0.0
C2420 C 0.53723 0.51649 0.25934 0.0
C2421 C 0.50694 0.54413 0.27453 0.0
C2422 C 0.52978 0.5249 0.28153 0.0
H2423 H 0.49129 0.55432 0.25865 0.0
H2424 H 0.48468 0.56115 0.27746 0.0
S2425 S 0.60608 0.46212 0.27422 0.0
N2426 N 0.58798 0.47481 0.26296 0.0
N2427 N 0.58231 0.48383 0.28327 0.0
C2428 C 0.55784 0.50269 0.27729 0.0
C2429 C 0.56146 0.49838 0.26624 0.0
C2430 C 0.05985 0.19233 0.27765 0.0
C2431 C 1.01209 0.18866 0.28018 0.0
C2432 C 0.07874 0.20128 0.26738 0.0
C2433 C 0.05088 0.2071 0.25912 0.0
H2434 H 0.08292 0.18809 0.28368 0.0
H2435 H 0.11564 0.20364 0.2659 0.0
S2436 S 0.92294 0.19915 0.26138 0.0
N2437 N 0.93681 0.19058 0.27342 0.0
N2438 N 0.97249 0.20772 0.25418 0.0
C2439 C 1.00337 0.20417 0.26153 0.0
C2440 C 0.984 0.1949 0.27201 0.0
C2441 C 0.91654 0.84941 0.27185 0.0
C2442 C 0.88322 0.84239 0.28027 0.0
C2443 C 0.90514 0.8579 0.26164 0.0
C2444 C 0.85983 0.85975 0.25931 0.0
H2445 H 0.9518 0.84814 0.27316 0.0
H2446 H 0.93211 0.86291 0.25548 0.0
S2447 S 0.76118 0.84703 0.27858 0.0
N2448 N 0.80374 0.83989 0.28557 0.0
N2449 N 0.78241 0.85583 0.26646 0.0
C2450 C 0.82616 0.85283 0.26765 0.0
C2451 C 0.83779 0.84417 0.27806 0.0
C2452 C 0.15485 1.00593 0.27822 0.0
C2453 C 0.20479 0.04445 0.28133 0.0
C2454 C 0.14496 0.98495 0.26809 0.0
C2455 C 0.1845 1.00151 0.26056 0.0
H2456 H 0.12297 0.99171 0.28368 0.0
H2457 H 0.10584 0.95529 0.26616 0.0
S2458 S 0.32167 0.10328 0.26452 0.0
N2459 N 0.2941 0.09928 0.2759 0.0
N2460 N 0.27555 0.06012 0.25692 0.0
C2461 C 0.23471 0.03987 0.26358 0.0
C2462 C 0.24482 0.06121 0.27391 0.0
C2463 C 0.04742 0.82873 0.777 0.0
C2464 C 1.00576 0.83559 0.78003 0.0
C2465 C 0.06581 0.83754 0.76665 0.0
C2466 C 0.04316 0.85334 0.75887 0.0
H2467 H 0.06692 0.81785 0.78274 0.0
H2468 H 0.09899 0.83333 0.76481 0.0
S2469 S 0.92847 0.86985 0.76243 0.0
N2470 N 0.93951 0.85464 0.77414 0.0
N2471 N 0.9734 0.8705 0.7548 0.0
C2472 C 1.00011 0.85823 0.76173 0.0
C2473 C 0.98163 0.84954 0.77225 0.0
C2474 C 0.23954 0.21935 0.76354 0.0
C2475 C 0.18952 0.20661 0.76018 0.0
C2476 C 0.24892 0.21002 0.77386 0.0
C2477 C 0.20871 0.18774 0.78127 0.0
H2478 H 0.27144 0.23538 0.75808 0.0
H2479 H 0.28772 0.21898 0.77597 0.0
S2480 S 0.07222 0.15401 0.77681 0.0
N2481 N 0.10032 0.17495 0.76538 0.0
N2482 N 0.11789 0.15796 0.78468 0.0
C2483 C 0.15899 0.17685 0.7781 0.0
C2484 C 0.14944 0.18613 0.7676 0.0
C2485 C 0.91113 0.0685 0.77311 0.0
C2486 C 0.87456 0.04352 0.78109 0.0
C2487 C 0.90145 0.04989 0.7628 0.0
C2488 C 0.85467 1.00541 0.75997 0.0
H2489 H 0.94763 0.10303 0.77482 0.0
H2490 H 0.93094 0.07067 0.75698 0.0
S2491 S 0.74701 0.92402 0.77799 0.0
N2492 N 0.79014 0.97089 0.78547 0.0
N2493 N 0.77195 0.93591 0.76616 0.0
C2494 C 0.81763 0.9801 0.76787 0.0
C2495 C 0.82754 0.99911 0.77838 0.0
C2496 C 0.66629 0.53798 0.60638 0.0
C2497 C 0.68768 0.52079 0.61416 0.0
C2498 C 0.68468 0.54629 0.59604 0.0
C2499 C 0.72515 0.53757 0.59299 0.0
H2500 H 0.63412 0.54387 0.60822 0.0
H2501 H 0.66619 0.55847 0.59032 0.0
S2502 S 0.79885 0.49864 0.61057 0.0
N2503 N 0.75487 0.49985 0.61819 0.0
N2504 N 0.78886 0.51487 0.59886 0.0
C2505 C 0.74792 0.52192 0.60076 0.0
C2506 C 0.72938 0.51369 0.61128 0.0
C2507 C 0.49423 0.15564 0.60962 0.0
C2508 C 0.54468 0.17315 0.61342 0.0
C2509 C 0.48544 0.16518 0.59927 0.0
C2510 C 0.52671 0.19243 0.59225 0.0
H2511 H 0.46132 0.13552 0.61477 0.0
H2512 H 0.44605 0.15228 0.59682 0.0
S2513 S 0.66563 0.24024 0.5979 0.0
N2514 N 0.63605 0.21498 0.60903 0.0
N2515 N 0.61966 0.23233 0.58967 0.0
C2516 C 0.57715 0.20829 0.59586 0.0
C2517 C 0.58608 0.19881 0.60639 0.0
C2518 C 0.86328 0.40347 0.605 0.0
C2519 C 0.88428 0.38543 0.61268 0.0
C2520 C 0.85457 0.38417 0.59474 0.0
C2521 C 0.86656 0.34593 0.59164 0.0
H2522 H 0.8535 0.43297 0.60692 0.0
H2523 H 0.83825 0.39942 0.58918 0.0
S2524 S 0.92023 0.28376 0.6088 0.0
N2525 N 0.91563 0.32588 0.61646 0.0
N2526 N 0.89942 0.28975 0.59724 0.0
C2527 C 0.88793 0.32774 0.59921 0.0
C2528 C 0.89675 0.3474 0.60968 0.0
C2529 C 0.73022 0.17501 0.09977 0.0
C2530 C 0.7117 0.1967 0.09232 0.0
C2531 C 0.71237 0.16657 0.11016 0.0
C2532 C 0.67534 0.17964 0.11357 0.0
H2533 H 0.75982 0.16571 0.09763 0.0
H2534 H 0.72868 0.1509 0.11562 0.0
S2535 S 0.60936 0.2311 0.09691 0.0
N2536 N 0.65041 0.22642 0.08897 0.0
N2537 N 0.61745 0.21107 0.10837 0.0
C2538 C 0.65523 0.19965 0.10612 0.0
C2539 C 0.6732 0.20804 0.09556 0.0
C2540 C 0.86135 0.48145 0.10631 0.0
C2541 C 0.88691 0.52228 0.11352 0.0
C2542 C 0.85201 0.49051 0.096 0.0
C2543 C 0.86767 0.54086 0.09237 0.0
H2544 H 0.8485 0.44194 0.10864 0.0
H2545 H 0.83223 0.45758 0.09081 0.0
S2546 S 0.93451 0.66135 0.10817 0.0
N2547 N 0.92705 0.61516 0.11629 0.0
N2548 N 0.90928 0.63218 0.09698 0.0
C2549 C 0.89368 0.58219 0.09946 0.0
C2550 C 0.90331 0.57293 0.10999 0.0
C2551 C 0.49932 0.33657 0.11098 0.0
C2552 C 0.54883 0.37526 0.11429 0.0
C2553 C 0.49009 0.31792 0.10064 0.0
C2554 C 0.52993 0.33724 0.09313 0.0
H2555 H 0.46763 0.31973 0.11649 0.0
H2556 H 0.45164 0.28722 0.09858 0.0
S2557 S 0.66502 0.44329 0.09743 0.0
N2558 N 0.63717 0.43516 0.10892 0.0
N2559 N 0.61988 0.40055 0.08961 0.0
C2560 C 0.5792 0.3771 0.09627 0.0
C2561 C 0.5886 0.39594 0.10678 0.0
C2562 C 0.39417 0.83686 0.93233 0.0
C2563 C 0.38075 0.86463 0.92531 0.0
C2564 C 0.37463 0.82612 0.94255 0.0
C2565 C 0.34067 0.84261 0.94626 0.0
H2566 H 0.42041 0.82352 0.92993 0.0
H2567 H 0.38645 0.80479 0.94761 0.0
S2568 S 0.29107 0.91433 0.93089 0.0
N2569 N 0.32994 0.90708 0.92276 0.0
N2570 N 0.29316 0.88685 0.9419 0.0
C2571 C 0.32693 0.8705 0.93934 0.0
C2572 C 0.34691 0.88149 0.92891 0.0
C2573 C 0.16405 0.48783 0.9431 0.0
C2574 C 0.21396 0.51203 0.94756 0.0
C2575 C 0.15571 0.49889 0.93283 0.0
C2576 C 0.19694 0.53454 0.92656 0.0
H2577 H 0.13093 0.46082 0.94765 0.0
H2578 H 0.11643 0.48021 0.92988 0.0
S2579 S 0.33586 0.60397 0.93408 0.0
N2580 N 0.30569 0.57039 0.94455 0.0
N2581 N 0.29019 0.5908 0.92536 0.0
C2582 C 0.24721 0.55779 0.93083 0.0
C2583 C 0.25566 0.54667 0.94127 0.0
C2584 C 0.55193 0.70265 0.92957 0.0
C2585 C 0.50983 0.65309 0.92732 0.0
C2586 C 0.56289 0.72215 0.93985 0.0
C2587 C 0.53231 0.69299 0.94835 0.0
H2588 H 0.57598 0.72712 0.92331 0.0
H2589 H 0.59495 0.76097 0.9411 0.0
S2590 S 0.4217 0.55839 0.94688 0.0
N2591 N 0.44021 0.57358 0.93465 0.0
N2592 N 0.46065 0.61005 0.95383 0.0
C2593 C 0.49108 0.64276 0.94624 0.0
C2594 C 0.47994 0.62292 0.93579 0.0
C2595 C 0.34016 0.47612 0.44072 0.0
C2596 C 0.35682 0.51726 0.44792 0.0
C2597 C 0.35833 0.48468 0.43037 0.0
C2598 C 0.39376 0.53477 0.42677 0.0
H2599 H 0.31174 0.43714 0.44302 0.0
H2600 H 0.34349 0.45202 0.42507 0.0
S2601 S 0.45479 0.65458 0.44281 0.0
N2602 N 0.41478 0.6092 0.4509 0.0
N2603 N 0.44835 0.62526 0.43153 0.0
C2604 C 0.41211 0.57586 0.43399 0.0
C2605 C 0.39383 0.56715 0.44451 0.0
C2606 C 0.52063 0.82071 0.42895 0.0
C2607 C 0.53149 0.87047 0.42581 0.0
C2608 C 0.52957 0.81072 0.43922 0.0
C2609 C 0.54966 0.84989 0.44689 0.0
H2610 H 0.50502 0.78901 0.4234 0.0
H2611 H 0.52074 0.77183 0.44118 0.0
S2612 S 0.58339 0.98665 0.44289 0.0
N2613 N 0.56289 0.95938 0.43135 0.0
N2614 N 0.57958 0.94055 0.4506 0.0
C2615 C 0.56128 0.9 0.44385 0.0
C2616 C 0.55221 0.91025 0.43336 0.0
C2617 C 0.23995 0.73099 0.43958 0.0
C2618 C 0.20282 0.70668 0.4475 0.0
C2619 C 0.23027 0.71272 0.42924 0.0
C2620 C 0.18297 0.66913 0.42629 0.0
H2621 H 0.27704 0.76462 0.44138 0.0
H2622 H 0.26031 0.733 0.4235 0.0
S2623 S 0.07332 0.59 0.4441 0.0
N2624 N 0.11698 0.63593 0.45167 0.0
N2625 N 0.09888 0.6014 0.43232 0.0
C2626 C 0.14525 0.64465 0.43412 0.0
C2627 C 0.15511 0.6634 0.44467 0.0
loop_
_geom_bond_atom_site_label_1
_geom_bond_atom_site_label_2
_geom_bond_distance
_geom_bond_site_symmetry_2
_ccdc_geom_bond_type
Tb0 C2 2.809 . S
Tb0 O20 2.484 . S
Tb0 O21 2.440 . S
Tb0 O22 2.658 . S
Tb0 O23 2.409 . S
Tb0 O24 2.378 . S
Tb0 O28 2.325 . S
Tb0 O31 2.341 . S
Tb1 C11 2.809 . S
Tb1 O22 2.325 . S
Tb1 O25 2.341 . S
Tb1 O26 2.484 . S
Tb1 O27 2.440 . S
Tb1 O28 2.658 . S
Tb1 O29 2.409 . S
Tb1 O30 2.378 . S
C2 Tb0 2.809 . S
C2 C3 1.514 . S
C2 O20 1.248 . S
C2 O21 1.266 . S
C3 C2 1.514 . S
C3 C4 1.359 . S
C3 C8 1.348 . S
C4 C3 1.359 . S
C4 C5 1.380 . S
C4 H32 0.929 . S
C5 C4 1.380 . S
C5 C6 1.347 . S
C5 H33 0.931 . S
C6 C5 1.347 . S
C6 C7 1.369 . S
C7 C6 1.369 . S
C7 C8 1.408 . S
C7 H34 0.930 . S
C8 C3 1.348 . S
C8 C7 1.408 . S
C8 H35 0.930 . S
C9 O22 1.281 . S
C9 O23 1.254 . S
C10 O24 1.236 . S
C10 O25 1.266 . S
C11 Tb1 2.809 . S
C11 C12 1.514 . S
C11 O26 1.248 . S
C11 O27 1.266 . S
C12 C11 1.514 . S
C12 C13 1.359 . S
C12 C17 1.348 . S
C13 C12 1.359 . S
C13 C14 1.380 . S
C13 H36 0.929 . S
C14 C13 1.380 . S
C14 C15 1.347 . S
C14 H37 0.931 . S
C15 C14 1.347 . S
C15 C16 1.369 . S
C16 C15 1.369 . S
C16 C17 1.408 . S
C16 H38 0.930 . S
C17 C12 1.348 . S
C17 C16 1.408 . S
C17 H39 0.930 . S
C18 O28 1.281 . S
C18 O29 1.254 . S
C19 O30 1.236 . S
C19 O31 1.266 . S
O20 Tb0 2.484 . S
O20 C2 1.248 . S
O21 Tb0 2.440 . S
O21 C2 1.266 . S
O22 Tb0 2.658 . S
O22 Tb1 2.325 . S
O22 C9 1.281 . S
O23 Tb0 2.409 . S
O23 C9 1.254 . S
O24 Tb0 2.378 . S
O24 C10 1.236 . S
O25 Tb1 2.341 . S
O25 C10 1.266 . S
O26 Tb1 2.484 . S
O26 C11 1.248 . S
O27 Tb1 2.440 . S
O27 C11 1.266 . S
O28 Tb0 2.325 . S
O28 Tb1 2.658 . S
O28 C18 1.281 . S
O29 Tb1 2.409 . S
O29 C18 1.254 . S
O30 Tb1 2.378 . S
O30 C19 1.236 . S
O31 Tb0 2.341 . S
O31 C19 1.266 . S
H32 C4 0.929 . S
H33 C5 0.931 . S
H34 C7 0.930 . S
H35 C8 0.930 . S
H36 C13 0.929 . S
H37 C14 0.931 . S
H38 C16 0.930 . S
H39 C17 0.930 . S
Tb40 C42 2.809 . S
Tb40 O60 2.484 . S
Tb40 O61 2.440 . S
Tb40 O62 2.658 . S
Tb40 O63 2.409 . S
Tb40 O64 2.378 . S
Tb40 O68 2.325 . S
Tb40 O71 2.341 . S
Tb41 C51 2.809 . S
Tb41 O62 2.325 . S
Tb41 O65 2.341 . S
Tb41 O66 2.484 . S
Tb41 O67 2.440 . S
Tb41 O68 2.658 . S
Tb41 O69 2.409 . S
Tb41 O70 2.378 . S
C42 Tb40 2.809 . S
C42 C43 1.514 . S
C42 O60 1.248 . S
C42 O61 1.266 . S
C43 C42 1.514 . S
C43 C44 1.359 . S
C43 C48 1.348 . S
C44 C43 1.359 . S
C44 C45 1.380 . S
C44 H72 0.929 . S
C45 C44 1.380 . S
C45 C46 1.347 . S
C45 H73 0.931 . S
C46 C45 1.347 . S
C46 C47 1.369 . S
C47 C46 1.369 . S
C47 C48 1.408 . S
C47 H74 0.930 . S
C48 C43 1.348 . S
C48 C47 1.408 . S
C48 H75 0.930 . S
C49 O62 1.281 . S
C49 O63 1.254 . S
C50 O64 1.236 . S
C50 O65 1.266 . S
C51 Tb41 2.809 . S
C51 C52 1.514 . S
C51 O66 1.248 . S
C51 O67 1.266 . S
C52 C51 1.514 . S
C52 C53 1.359 . S
C52 C57 1.348 . S
C53 C52 1.359 . S
C53 C54 1.380 . S
C53 H76 0.929 . S
C54 C53 1.380 . S
C54 C55 1.347 . S
C54 H77 0.931 . S
C55 C54 1.347 . S
C55 C56 1.369 . S
C56 C55 1.369 . S
C56 C57 1.408 . S
C56 H78 0.930 . S
C57 C52 1.348 . S
C57 C56 1.408 . S
C57 H79 0.930 . S
C58 O68 1.281 . S
C58 O69 1.254 . S
C59 O70 1.236 . S
C59 O71 1.266 . S
O60 Tb40 2.484 . S
O60 C42 1.248 . S
O61 Tb40 2.440 . S
O61 C42 1.266 . S
O62 Tb40 2.658 . S
O62 Tb41 2.325 . S
O62 C49 1.281 . S
O63 Tb40 2.409 . S
O63 C49 1.254 . S
O64 Tb40 2.378 . S
O64 C50 1.236 . S
O65 Tb41 2.341 . S
O65 C50 1.266 . S
O66 Tb41 2.484 . S
O66 C51 1.248 . S
O67 Tb41 2.440 . S
O67 C51 1.266 . S
O68 Tb40 2.325 . S
O68 Tb41 2.658 . S
O68 C58 1.281 . S
O69 Tb41 2.409 . S
O69 C58 1.254 . S
O70 Tb41 2.378 . S
O70 C59 1.236 . S
O71 Tb40 2.341 . S
O71 C59 1.266 . S
H72 C44 0.929 . S
H73 C45 0.931 . S
H74 C47 0.930 . S
H75 C48 0.930 . S
H76 C53 0.929 . S
H77 C54 0.931 . S
H78 C56 0.930 . S
H79 C57 0.930 . S
Tb80 C82 2.809 . S
Tb80 O100 2.484 . S
Tb80 O101 2.440 . S
Tb80 O102 2.658 . S
Tb80 O103 2.409 . S
Tb80 O104 2.378 . S
Tb80 O108 2.325 . S
Tb80 O111 2.341 . S
Tb81 C91 2.809 . S
Tb81 O102 2.325 . S
Tb81 O105 2.341 . S
Tb81 O106 2.484 . S
Tb81 O107 2.440 . S
Tb81 O108 2.658 . S
Tb81 O109 2.409 . S
Tb81 O110 2.378 . S
C82 Tb80 2.809 . S
C82 C83 1.514 . S
C82 O100 1.248 . S
C82 O101 1.266 . S
C83 C82 1.514 . S
C83 C84 1.359 . S
C83 C88 1.348 . S
C84 C83 1.359 . S
C84 C85 1.380 . S
C84 H112 0.929 . S
C85 C84 1.380 . S
C85 C86 1.347 . S
C85 H113 0.931 . S
C86 C85 1.347 . S
C86 C87 1.369 . S
C87 C86 1.369 . S
C87 C88 1.408 . S
C87 H114 0.930 . S
C88 C83 1.348 . S
C88 C87 1.408 . S
C88 H115 0.930 . S
C89 O102 1.281 . S
C89 O103 1.254 . S
C90 O104 1.236 . S
C90 O105 1.266 . S
C91 Tb81 2.809 . S
C91 C92 1.514 . S
C91 O106 1.248 . S
C91 O107 1.266 . S
C92 C91 1.514 . S
C92 C93 1.359 . S
C92 C97 1.348 . S
C93 C92 1.359 . S
C93 C94 1.380 . S
C93 H116 0.929 . S
C94 C93 1.380 . S
C94 C95 1.347 . S
C94 H117 0.931 . S
C95 C94 1.347 . S
C95 C96 1.369 . S
C96 C95 1.369 . S
C96 C97 1.408 . S
C96 H118 0.930 . S
C97 C92 1.348 . S
C97 C96 1.408 . S
C97 H119 0.930 . S
C98 O108 1.281 . S
C98 O109 1.254 . S
C99 O110 1.236 . S
C99 O111 1.266 . S
O100 Tb80 2.484 . S
O100 C82 1.248 . S
O101 Tb80 2.440 . S
O101 C82 1.266 . S
O102 Tb80 2.658 . S
O102 Tb81 2.325 . S
O102 C89 1.281 . S
O103 Tb80 2.409 . S
O103 C89 1.254 . S
O104 Tb80 2.378 . S
O104 C90 1.236 . S
O105 Tb81 2.341 . S
O105 C90 1.266 . S
O106 Tb81 2.484 . S
O106 C91 1.248 . S
O107 Tb81 2.440 . S
O107 C91 1.266 . S
O108 Tb80 2.325 . S
O108 Tb81 2.658 . S
O108 C98 1.281 . S
O109 Tb81 2.409 . S
O109 C98 1.254 . S
O110 Tb81 2.378 . S
O110 C99 1.236 . S
O111 Tb80 2.341 . S
O111 C99 1.266 . S
H112 C84 0.929 . S
H113 C85 0.931 . S
H114 C87 0.930 . S
H115 C88 0.930 . S
H116 C93 0.929 . S
H117 C94 0.931 . S
H118 C96 0.930 . S
H119 C97 0.930 . S
Tb120 C122 2.809 . S
Tb120 O140 2.484 . S
Tb120 O141 2.440 . S
Tb120 O142 2.658 . S
Tb120 O143 2.409 . S
Tb120 O144 2.378 . S
Tb120 O148 2.325 . S
Tb120 O151 2.341 . S
Tb121 C131 2.809 . S
Tb121 O142 2.325 . S
Tb121 O145 2.341 . S
Tb121 O146 2.484 . S
Tb121 O147 2.440 . S
Tb121 O148 2.658 . S
Tb121 O149 2.409 . S
Tb121 O150 2.378 . S
C122 Tb120 2.809 . S
C122 C123 1.514 . S
C122 O140 1.248 . S
C122 O141 1.266 . S
C123 C122 1.514 . S
C123 C124 1.359 . S
C123 C128 1.348 . S
C124 C123 1.359 . S
C124 C125 1.380 . S
C124 H152 0.929 . S
C125 C124 1.380 . S
C125 C126 1.347 . S
C125 H153 0.931 . S
C126 C125 1.347 . S
C126 C127 1.369 . S
C127 C126 1.369 . S
C127 C128 1.408 . S
C127 H154 0.930 . S
C128 C123 1.348 . S
C128 C127 1.408 . S
C128 H155 0.930 . S
C129 O142 1.281 . S
C129 O143 1.254 . S
C130 O144 1.236 . S
C130 O145 1.266 . S
C131 Tb121 2.809 . S
C131 C132 1.514 . S
C131 O146 1.248 . S
C131 O147 1.266 . S
C132 C131 1.514 . S
C132 C133 1.359 . S
C132 C137 1.348 . S
C133 C132 1.359 . S
C133 C134 1.380 . S
C133 H156 0.929 . S
C134 C133 1.380 . S
C134 C135 1.347 . S
C134 H157 0.931 . S
C135 C134 1.347 . S
C135 C136 1.369 . S
C136 C135 1.369 . S
C136 C137 1.408 . S
C136 H158 0.930 . S
C137 C132 1.348 . S
C137 C136 1.408 . S
C137 H159 0.930 . S
C138 O148 1.281 . S
C138 O149 1.254 . S
C139 O150 1.236 . S
C139 O151 1.266 . S
O140 Tb120 2.484 . S
O140 C122 1.248 . S
O141 Tb120 2.440 . S
O141 C122 1.266 . S
O142 Tb120 2.658 . S
O142 Tb121 2.325 . S
O142 C129 1.281 . S
O143 Tb120 2.409 . S
O143 C129 1.254 . S
O144 Tb120 2.378 . S
O144 C130 1.236 . S
O145 Tb121 2.341 . S
O145 C130 1.266 . S
O146 Tb121 2.484 . S
O146 C131 1.248 . S
O147 Tb121 2.440 . S
O147 C131 1.266 . S
O148 Tb120 2.325 . S
O148 Tb121 2.658 . S
O148 C138 1.281 . S
O149 Tb121 2.409 . S
O149 C138 1.254 . S
O150 Tb121 2.378 . S
O150 C139 1.236 . S
O151 Tb120 2.341 . S
O151 C139 1.266 . S
H152 C124 0.929 . S
H153 C125 0.931 . S
H154 C127 0.930 . S
H155 C128 0.930 . S
H156 C133 0.929 . S
H157 C134 0.931 . S
H158 C136 0.930 . S
H159 C137 0.930 . S
Tb160 C162 2.809 . S
Tb160 O180 2.484 . S
Tb160 O181 2.440 . S
Tb160 O182 2.658 . S
Tb160 O183 2.409 . S
Tb160 O184 2.378 . S
Tb160 O188 2.325 . S
Tb160 O191 2.341 . S
Tb161 C171 2.809 . S
Tb161 O182 2.325 . S
Tb161 O185 2.341 . S
Tb161 O186 2.484 . S
Tb161 O187 2.440 . S
Tb161 O188 2.658 . S
Tb161 O189 2.409 . S
Tb161 O190 2.378 . S
C162 Tb160 2.809 . S
C162 C163 1.514 . S
C162 O180 1.248 . S
C162 O181 1.266 . S
C163 C162 1.514 . S
C163 C164 1.359 . S
C163 C168 1.348 . S
C164 C163 1.359 . S
C164 C165 1.380 . S
C164 H192 0.929 . S
C165 C164 1.380 . S
C165 C166 1.347 . S
C165 H193 0.931 . S
C166 C165 1.347 . S
C166 C167 1.369 . S
C167 C166 1.369 . S
C167 C168 1.408 . S
C167 H194 0.930 . S
C168 C163 1.348 . S
C168 C167 1.408 . S
C168 H195 0.930 . S
C169 O182 1.281 . S
C169 O183 1.254 . S
C170 O184 1.236 . S
C170 O185 1.266 . S
C171 Tb161 2.809 . S
C171 C172 1.514 . S
C171 O186 1.248 . S
C171 O187 1.266 . S
C172 C171 1.514 . S
C172 C173 1.359 . S
C172 C177 1.348 . S
C173 C172 1.359 . S
C173 C174 1.380 . S
C173 H196 0.929 . S
C174 C173 1.380 . S
C174 C175 1.347 . S
C174 H197 0.931 . S
C175 C174 1.347 . S
C175 C176 1.369 . S
C176 C175 1.369 . S
C176 C177 1.408 . S
C176 H198 0.930 . S
C177 C172 1.348 . S
C177 C176 1.408 . S
C177 H199 0.930 . S
C178 O188 1.281 . S
C178 O189 1.254 . S
C179 O190 1.236 . S
C179 O191 1.266 . S
O180 Tb160 2.484 . S
O180 C162 1.248 . S
O181 Tb160 2.440 . S
O181 C162 1.266 . S
O182 Tb160 2.658 . S
O182 Tb161 2.325 . S
O182 C169 1.281 . S
O183 Tb160 2.409 . S
O183 C169 1.254 . S
O184 Tb160 2.378 . S
O184 C170 1.236 . S
O185 Tb161 2.341 . S
O185 C170 1.266 . S
O186 Tb161 2.484 . S
O186 C171 1.248 . S
O187 Tb161 2.440 . S
O187 C171 1.266 . S
O188 Tb160 2.325 . S
O188 Tb161 2.658 . S
O188 C178 1.281 . S
O189 Tb161 2.409 . S
O189 C178 1.254 . S
O190 Tb161 2.378 . S
O190 C179 1.236 . S
O191 Tb160 2.341 . S
O191 C179 1.266 . S
H192 C164 0.929 . S
H193 C165 0.931 . S
H194 C167 0.930 . S
H195 C168 0.930 . S
H196 C173 0.929 . S
H197 C174 0.931 . S
H198 C176 0.930 . S
H199 C177 0.930 . S
Tb200 C202 2.809 . S
Tb200 O220 2.484 . S
Tb200 O221 2.440 . S
Tb200 O222 2.658 . S
Tb200 O223 2.409 . S
Tb200 O224 2.378 . S
Tb200 O228 2.325 . S
Tb200 O231 2.341 . S
Tb201 C211 2.809 . S
Tb201 O222 2.325 . S
Tb201 O225 2.341 . S
Tb201 O226 2.484 . S
Tb201 O227 2.440 . S
Tb201 O228 2.658 . S
Tb201 O229 2.409 . S
Tb201 O230 2.378 . S
C202 Tb200 2.809 . S
C202 C203 1.514 . S
C202 O220 1.248 . S
C202 O221 1.266 . S
C203 C202 1.514 . S
C203 C204 1.359 . S
C203 C208 1.348 . S
C204 C203 1.359 . S
C204 C205 1.380 . S
C204 H232 0.929 . S
C205 C204 1.380 . S
C205 C206 1.347 . S
C205 H233 0.931 . S
C206 C205 1.347 . S
C206 C207 1.369 . S
C207 C206 1.369 . S
C207 C208 1.408 . S
C207 H234 0.930 . S
C208 C203 1.348 . S
C208 C207 1.408 . S
C208 H235 0.930 . S
C209 O222 1.281 . S
C209 O223 1.254 . S
C210 O224 1.236 . S
C210 O225 1.266 . S
C211 Tb201 2.809 . S
C211 C212 1.514 . S
C211 O226 1.248 . S
C211 O227 1.266 . S
C212 C211 1.514 . S
C212 C213 1.359 . S
C212 C217 1.348 . S
C213 C212 1.359 . S
C213 C214 1.380 . S
C213 H236 0.929 . S
C214 C213 1.380 . S
C214 C215 1.347 . S
C214 H237 0.931 . S
C215 C214 1.347 . S
C215 C216 1.369 . S
C216 C215 1.369 . S
C216 C217 1.408 . S
C216 H238 0.930 . S
C217 C212 1.348 . S
C217 C216 1.408 . S
C217 H239 0.930 . S
C218 O228 1.281 . S
C218 O229 1.254 . S
C219 O230 1.236 . S
C219 O231 1.266 . S
O220 Tb200 2.484 . S
O220 C202 1.248 . S
O221 Tb200 2.440 . S
O221 C202 1.266 . S
O222 Tb200 2.658 . S
O222 Tb201 2.325 . S
O222 C209 1.281 . S
O223 Tb200 2.409 . S
O223 C209 1.254 . S
O224 Tb200 2.378 . S
O224 C210 1.236 . S
O225 Tb201 2.341 . S
O225 C210 1.266 . S
O226 Tb201 2.484 . S
O226 C211 1.248 . S
O227 Tb201 2.440 . S
O227 C211 1.266 . S
O228 Tb200 2.325 . S
O228 Tb201 2.658 . S
O228 C218 1.281 . S
O229 Tb201 2.409 . S
O229 C218 1.254 . S
O230 Tb201 2.378 . S
O230 C219 1.236 . S
O231 Tb200 2.341 . S
O231 C219 1.266 . S
H232 C204 0.929 . S
H233 C205 0.931 . S
H234 C207 0.930 . S
H235 C208 0.930 . S
H236 C213 0.929 . S
H237 C214 0.931 . S
H238 C216 0.930 . S
H239 C217 0.930 . S
Tb240 C242 2.809 . S
Tb240 O260 2.484 . S
Tb240 O261 2.440 . S
Tb240 O262 2.658 . S
Tb240 O263 2.409 . S
Tb240 O264 2.378 . S
Tb240 O268 2.325 . S
Tb240 O271 2.341 . S
Tb241 C251 2.809 . S
Tb241 O262 2.325 . S
Tb241 O265 2.341 . S
Tb241 O266 2.484 . S
Tb241 O267 2.440 . S
Tb241 O268 2.658 . S
Tb241 O269 2.409 . S
Tb241 O270 2.378 . S
C242 Tb240 2.809 . S
C242 C243 1.514 . S
C242 O260 1.248 . S
C242 O261 1.266 . S
C243 C242 1.514 . S
C243 C244 1.359 . S
C243 C248 1.348 . S
C244 C243 1.359 . S
C244 C245 1.380 . S
C244 H272 0.929 . S
C245 C244 1.380 . S
C245 C246 1.347 . S
C245 H273 0.931 . S
C246 C245 1.347 . S
C246 C247 1.369 . S
C247 C246 1.369 . S
C247 C248 1.408 . S
C247 H274 0.930 . S
C248 C243 1.348 . S
C248 C247 1.408 . S
C248 H275 0.930 . S
C249 O262 1.281 . S
C249 O263 1.254 . S
C250 O264 1.236 . S
C250 O265 1.266 . S
C251 Tb241 2.809 . S
C251 C252 1.514 . S
C251 O266 1.248 . S
C251 O267 1.266 . S
C252 C251 1.514 . S
C252 C253 1.359 . S
C252 C257 1.348 . S
C253 C252 1.359 . S
C253 C254 1.380 . S
C253 H276 0.929 . S
C254 C253 1.380 . S
C254 C255 1.347 . S
C254 H277 0.931 . S
C255 C254 1.347 . S
C255 C256 1.369 . S
C256 C255 1.369 . S
C256 C257 1.408 . S
C256 H278 0.930 . S
C257 C252 1.348 . S
C257 C256 1.408 . S
C257 H279 0.930 . S
C258 O268 1.281 . S
C258 O269 1.254 . S
C259 O270 1.236 . S
C259 O271 1.266 . S
O260 Tb240 2.484 . S
O260 C242 1.248 . S
O261 Tb240 2.440 . S
O261 C242 1.266 . S
O262 Tb240 2.658 . S
O262 Tb241 2.325 . S
O262 C249 1.281 . S
O263 Tb240 2.409 . S
O263 C249 1.254 . S
O264 Tb240 2.378 . S
O264 C250 1.236 . S
O265 Tb241 2.341 . S
O265 C250 1.266 . S
O266 Tb241 2.484 . S
O266 C251 1.248 . S
O267 Tb241 2.440 . S
O267 C251 1.266 . S
O268 Tb240 2.325 . S
O268 Tb241 2.658 . S
O268 C258 1.281 . S
O269 Tb241 2.409 . S
O269 C258 1.254 . S
O270 Tb241 2.378 . S
O270 C259 1.236 . S
O271 Tb240 2.341 . S
O271 C259 1.266 . S
H272 C244 0.929 . S
H273 C245 0.931 . S
H274 C247 0.930 . S
H275 C248 0.930 . S
H276 C253 0.929 . S
H277 C254 0.931 . S
H278 C256 0.930 . S
H279 C257 0.930 . S
Tb280 C282 2.809 . S
Tb280 O300 2.484 . S
Tb280 O301 2.440 . S
Tb280 O302 2.658 . S
Tb280 O303 2.409 . S
Tb280 O304 2.378 . S
Tb280 O308 2.325 . S
Tb280 O311 2.341 . S
Tb281 C291 2.809 . S
Tb281 O302 2.325 . S
Tb281 O305 2.341 . S
Tb281 O306 2.484 . S
Tb281 O307 2.440 . S
Tb281 O308 2.658 . S
Tb281 O309 2.409 . S
Tb281 O310 2.378 . S
C282 Tb280 2.809 . S
C282 C283 1.514 . S
C282 O300 1.248 . S
C282 O301 1.266 . S
C283 C282 1.514 . S
C283 C284 1.359 . S
C283 C288 1.348 . S
C284 C283 1.359 . S
C284 C285 1.380 . S
C284 H312 0.929 . S
C285 C284 1.380 . S
C285 C286 1.347 . S
C285 H313 0.931 . S
C286 C285 1.347 . S
C286 C287 1.369 . S
C287 C286 1.369 . S
C287 C288 1.408 . S
C287 H314 0.930 . S
C288 C283 1.348 . S
C288 C287 1.408 . S
C288 H315 0.930 . S
C289 O302 1.281 . S
C289 O303 1.254 . S
C290 O304 1.236 . S
C290 O305 1.266 . S
C291 Tb281 2.809 . S
C291 C292 1.514 . S
C291 O306 1.248 . S
C291 O307 1.266 . S
C292 C291 1.514 . S
C292 C293 1.359 . S
C292 C297 1.348 . S
C293 C292 1.359 . S
C293 C294 1.380 . S
C293 H316 0.929 . S
C294 C293 1.380 . S
C294 C295 1.347 . S
C294 H317 0.931 . S
C295 C294 1.347 . S
C295 C296 1.369 . S
C296 C295 1.369 . S
C296 C297 1.408 . S
C296 H318 0.930 . S
C297 C292 1.348 . S
C297 C296 1.408 . S
C297 H319 0.930 . S
C298 O308 1.281 . S
C298 O309 1.254 . S
C299 O310 1.236 . S
C299 O311 1.266 . S
O300 Tb280 2.484 . S
O300 C282 1.248 . S
O301 Tb280 2.440 . S
O301 C282 1.266 . S
O302 Tb280 2.658 . S
O302 Tb281 2.325 . S
O302 C289 1.281 . S
O303 Tb280 2.409 . S
O303 C289 1.254 . S
O304 Tb280 2.378 . S
O304 C290 1.236 . S
O305 Tb281 2.341 . S
O305 C290 1.266 . S
O306 Tb281 2.484 . S
O306 C291 1.248 . S
O307 Tb281 2.440 . S
O307 C291 1.266 . S
O308 Tb280 2.325 . S
O308 Tb281 2.658 . S
O308 C298 1.281 . S
O309 Tb281 2.409 . S
O309 C298 1.254 . S
O310 Tb281 2.378 . S
O310 C299 1.236 . S
O311 Tb280 2.341 . S
O311 C299 1.266 . S
H312 C284 0.929 . S
H313 C285 0.931 . S
H314 C287 0.930 . S
H315 C288 0.930 . S
H316 C293 0.929 . S
H317 C294 0.931 . S
H318 C296 0.930 . S
H319 C297 0.930 . S
Tb320 C322 2.809 . S
Tb320 O340 2.484 . S
Tb320 O341 2.440 . S
Tb320 O342 2.658 . S
Tb320 O343 2.409 . S
Tb320 O344 2.378 . S
Tb320 O348 2.325 . S
Tb320 O351 2.341 . S
Tb321 C331 2.809 . S
Tb321 O342 2.325 . S
Tb321 O345 2.341 . S
Tb321 O346 2.484 . S
Tb321 O347 2.440 . S
Tb321 O348 2.658 . S
Tb321 O349 2.409 . S
Tb321 O350 2.378 . S
C322 Tb320 2.809 . S
C322 C323 1.514 . S
C322 O340 1.248 . S
C322 O341 1.266 . S
C323 C322 1.514 . S
C323 C324 1.359 . S
C323 C328 1.348 . S
C324 C323 1.359 . S
C324 C325 1.380 . S
C324 H352 0.929 . S
C325 C324 1.380 . S
C325 C326 1.347 . S
C325 H353 0.931 . S
C326 C325 1.347 . S
C326 C327 1.369 . S
C327 C326 1.369 . S
C327 C328 1.408 . S
C327 H354 0.930 . S
C328 C323 1.348 . S
C328 C327 1.408 . S
C328 H355 0.930 . S
C329 O342 1.281 . S
C329 O343 1.254 . S
C330 O344 1.236 . S
C330 O345 1.266 . S
C331 Tb321 2.809 . S
C331 C332 1.514 . S
C331 O346 1.248 . S
C331 O347 1.266 . S
C332 C331 1.514 . S
C332 C333 1.359 . S
C332 C337 1.348 . S
C333 C332 1.359 . S
C333 C334 1.380 . S
C333 H356 0.929 . S
C334 C333 1.380 . S
C334 C335 1.347 . S
C334 H357 0.931 . S
C335 C334 1.347 . S
C335 C336 1.369 . S
C336 C335 1.369 . S
C336 C337 1.408 . S
C336 H358 0.930 . S
C337 C332 1.348 . S
C337 C336 1.408 . S
C337 H359 0.930 . S
C338 O348 1.281 . S
C338 O349 1.254 . S
C339 O350 1.236 . S
C339 O351 1.266 . S
O340 Tb320 2.484 . S
O340 C322 1.248 . S
O341 Tb320 2.440 . S
O341 C322 1.266 . S
O342 Tb320 2.658 . S
O342 Tb321 2.325 . S
O342 C329 1.281 . S
O343 Tb320 2.409 . S
O343 C329 1.254 . S
O344 Tb320 2.378 . S
O344 C330 1.236 . S
O345 Tb321 2.341 . S
O345 C330 1.266 . S
O346 Tb321 2.484 . S
O346 C331 1.248 . S
O347 Tb321 2.440 . S
O347 C331 1.266 . S
O348 Tb320 2.325 . S
O348 Tb321 2.658 . S
O348 C338 1.281 . S
O349 Tb321 2.409 . S
O349 C338 1.254 . S
O350 Tb321 2.378 . S
O350 C339 1.236 . S
O351 Tb320 2.341 . S
O351 C339 1.266 . S
H352 C324 0.929 . S
H353 C325 0.931 . S
H354 C327 0.930 . S
H355 C328 0.930 . S
H356 C333 0.929 . S
H357 C334 0.931 . S
H358 C336 0.930 . S
H359 C337 0.930 . S
Tb360 C362 2.809 . S
Tb360 O380 2.484 . S
Tb360 O381 2.440 . S
Tb360 O382 2.658 . S
Tb360 O383 2.409 . S
Tb360 O384 2.378 . S
Tb360 O388 2.325 . S
Tb360 O391 2.341 . S
Tb361 C371 2.809 . S
Tb361 O382 2.325 . S
Tb361 O385 2.341 . S
Tb361 O386 2.484 . S
Tb361 O387 2.440 . S
Tb361 O388 2.658 . S
Tb361 O389 2.409 . S
Tb361 O390 2.378 . S
C362 Tb360 2.809 . S
C362 C363 1.514 . S
C362 O380 1.248 . S
C362 O381 1.266 . S
C363 C362 1.514 . S
C363 C364 1.359 . S
C363 C368 1.348 . S
C364 C363 1.359 . S
C364 C365 1.380 . S
C364 H392 0.929 . S
C365 C364 1.380 . S
C365 C366 1.347 . S
C365 H393 0.931 . S
C366 C365 1.347 . S
C366 C367 1.369 . S
C367 C366 1.369 . S
C367 C368 1.408 . S
C367 H394 0.930 . S
C368 C363 1.348 . S
C368 C367 1.408 . S
C368 H395 0.930 . S
C369 O382 1.281 . S
C369 O383 1.254 . S
C370 O384 1.236 . S
C370 O385 1.266 . S
C371 Tb361 2.809 . S
C371 C372 1.514 . S
C371 O386 1.248 . S
C371 O387 1.266 . S
C372 C371 1.514 . S
C372 C373 1.359 . S
C372 C377 1.348 . S
C373 C372 1.359 . S
C373 C374 1.380 . S
C373 H396 0.929 . S
C374 C373 1.380 . S
C374 C375 1.347 . S
C374 H397 0.931 . S
C375 C374 1.347 . S
C375 C376 1.369 . S
C376 C375 1.369 . S
C376 C377 1.408 . S
C376 H398 0.930 . S
C377 C372 1.348 . S
C377 C376 1.408 . S
C377 H399 0.930 . S
C378 O388 1.281 . S
C378 O389 1.254 . S
C379 O390 1.236 . S
C379 O391 1.266 . S
O380 Tb360 2.484 . S
O380 C362 1.248 . S
O381 Tb360 2.440 . S
O381 C362 1.266 . S
O382 Tb360 2.658 . S
O382 Tb361 2.325 . S
O382 C369 1.281 . S
O383 Tb360 2.409 . S
O383 C369 1.254 . S
O384 Tb360 2.378 . S
O384 C370 1.236 . S
O385 Tb361 2.341 . S
O385 C370 1.266 . S
O386 Tb361 2.484 . S
O386 C371 1.248 . S
O387 Tb361 2.440 . S
O387 C371 1.266 . S
O388 Tb360 2.325 . S
O388 Tb361 2.658 . S
O388 C378 1.281 . S
O389 Tb361 2.409 . S
O389 C378 1.254 . S
O390 Tb361 2.378 . S
O390 C379 1.236 . S
O391 Tb360 2.341 . S
O391 C379 1.266 . S
H392 C364 0.929 . S
H393 C365 0.931 . S
H394 C367 0.930 . S
H395 C368 0.930 . S
H396 C373 0.929 . S
H397 C374 0.931 . S
H398 C376 0.930 . S
H399 C377 0.930 . S
Tb400 C402 2.809 . S
Tb400 O420 2.484 . S
Tb400 O421 2.440 . S
Tb400 O422 2.658 . S
Tb400 O423 2.409 . S
Tb400 O424 2.378 . S
Tb400 O428 2.325 . S
Tb400 O431 2.341 . S
Tb401 C411 2.809 . S
Tb401 O422 2.325 . S
Tb401 O425 2.341 . S
Tb401 O426 2.484 . S
Tb401 O427 2.440 . S
Tb401 O428 2.658 . S
Tb401 O429 2.409 . S
Tb401 O430 2.378 . S
C402 Tb400 2.809 . S
C402 C403 1.514 . S
C402 O420 1.248 . S
C402 O421 1.266 . S
C403 C402 1.514 . S
C403 C404 1.359 . S
C403 C408 1.348 . S
C404 C403 1.359 . S
C404 C405 1.380 . S
C404 H432 0.929 . S
C405 C404 1.380 . S
C405 C406 1.347 . S
C405 H433 0.931 . S
C406 C405 1.347 . S
C406 C407 1.369 . S
C407 C406 1.369 . S
C407 C408 1.408 . S
C407 H434 0.930 . S
C408 C403 1.348 . S
C408 C407 1.408 . S
C408 H435 0.930 . S
C409 O422 1.281 . S
C409 O423 1.254 . S
C410 O424 1.236 . S
C410 O425 1.266 . S
C411 Tb401 2.809 . S
C411 C412 1.514 . S
C411 O426 1.248 . S
C411 O427 1.266 . S
C412 C411 1.514 . S
C412 C413 1.359 . S
C412 C417 1.348 . S
C413 C412 1.359 . S
C413 C414 1.380 . S
C413 H436 0.929 . S
C414 C413 1.380 . S
C414 C415 1.347 . S
C414 H437 0.931 . S
C415 C414 1.347 . S
C415 C416 1.369 . S
C416 C415 1.369 . S
C416 C417 1.408 . S
C416 H438 0.930 . S
C417 C412 1.348 . S
C417 C416 1.408 . S
C417 H439 0.930 . S
C418 O428 1.281 . S
C418 O429 1.254 . S
C419 O430 1.236 . S
C419 O431 1.266 . S
O420 Tb400 2.484 . S
O420 C402 1.248 . S
O421 Tb400 2.440 . S
O421 C402 1.266 . S
O422 Tb400 2.658 . S
O422 Tb401 2.325 . S
O422 C409 1.281 . S
O423 Tb400 2.409 . S
O423 C409 1.254 . S
O424 Tb400 2.378 . S
O424 C410 1.236 . S
O425 Tb401 2.341 . S
O425 C410 1.266 . S
O426 Tb401 2.484 . S
O426 C411 1.248 . S
O427 Tb401 2.440 . S
O427 C411 1.266 . S
O428 Tb400 2.325 . S
O428 Tb401 2.658 . S
O428 C418 1.281 . S
O429 Tb401 2.409 . S
O429 C418 1.254 . S
O430 Tb401 2.378 . S
O430 C419 1.236 . S
O431 Tb400 2.341 . S
O431 C419 1.266 . S
H432 C404 0.929 . S
H433 C405 0.931 . S
H434 C407 0.930 . S
H435 C408 0.930 . S
H436 C413 0.929 . S
H437 C414 0.931 . S
H438 C416 0.930 . S
H439 C417 0.930 . S
Tb440 C442 2.809 . S
Tb440 O460 2.484 . S
Tb440 O461 2.440 . S
Tb440 O462 2.658 . S
Tb440 O463 2.409 . S
Tb440 O464 2.378 . S
Tb440 O468 2.325 . S
Tb440 O471 2.341 . S
Tb441 C451 2.809 . S
Tb441 O462 2.325 . S
Tb441 O465 2.341 . S
Tb441 O466 2.484 . S
Tb441 O467 2.440 . S
Tb441 O468 2.658 . S
Tb441 O469 2.409 . S
Tb441 O470 2.378 . S
C442 Tb440 2.809 . S
C442 C443 1.514 . S
C442 O460 1.248 . S
C442 O461 1.266 . S
C443 C442 1.514 . S
C443 C444 1.359 . S
C443 C448 1.348 . S
C444 C443 1.359 . S
C444 C445 1.380 . S
C444 H472 0.929 . S
C445 C444 1.380 . S
C445 C446 1.347 . S
C445 H473 0.931 . S
C446 C445 1.347 . S
C446 C447 1.369 . S
C447 C446 1.369 . S
C447 C448 1.408 . S
C447 H474 0.930 . S
C448 C443 1.348 . S
C448 C447 1.408 . S
C448 H475 0.930 . S
C449 O462 1.281 . S
C449 O463 1.254 . S
C450 O464 1.236 . S
C450 O465 1.266 . S
C451 Tb441 2.809 . S
C451 C452 1.514 . S
C451 O466 1.248 . S
C451 O467 1.266 . S
C452 C451 1.514 . S
C452 C453 1.359 . S
C452 C457 1.348 . S
C453 C452 1.359 . S
C453 C454 1.380 . S
C453 H476 0.929 . S
C454 C453 1.380 . S
C454 C455 1.347 . S
C454 H477 0.931 . S
C455 C454 1.347 . S
C455 C456 1.369 . S
C456 C455 1.369 . S
C456 C457 1.408 . S
C456 H478 0.930 . S
C457 C452 1.348 . S
C457 C456 1.408 . S
C457 H479 0.930 . S
C458 O468 1.281 . S
C458 O469 1.254 . S
C459 O470 1.236 . S
C459 O471 1.266 . S
O460 Tb440 2.484 . S
O460 C442 1.248 . S
O461 Tb440 2.440 . S
O461 C442 1.266 . S
O462 Tb440 2.658 . S
O462 Tb441 2.325 . S
O462 C449 1.281 . S
O463 Tb440 2.409 . S
O463 C449 1.254 . S
O464 Tb440 2.378 . S
O464 C450 1.236 . S
O465 Tb441 2.341 . S
O465 C450 1.266 . S
O466 Tb441 2.484 . S
O466 C451 1.248 . S
O467 Tb441 2.440 . S
O467 C451 1.266 . S
O468 Tb440 2.325 . S
O468 Tb441 2.658 . S
O468 C458 1.281 . S
O469 Tb441 2.409 . S
O469 C458 1.254 . S
O470 Tb441 2.378 . S
O470 C459 1.236 . S
O471 Tb440 2.341 . S
O471 C459 1.266 . S
H472 C444 0.929 . S
H473 C445 0.931 . S
H474 C447 0.930 . S
H475 C448 0.930 . S
H476 C453 0.929 . S
H477 C454 0.931 . S
H478 C456 0.930 . S
H479 C457 0.930 . S
Tb480 C482 2.809 . S
Tb480 O500 2.484 . S
Tb480 O501 2.440 . S
Tb480 O502 2.658 . S
Tb480 O503 2.409 . S
Tb480 O504 2.378 . S
Tb480 O508 2.325 . S
Tb480 O511 2.341 . S
Tb481 C491 2.809 . S
Tb481 O502 2.325 . S
Tb481 O505 2.341 . S
Tb481 O506 2.484 . S
Tb481 O507 2.440 . S
Tb481 O508 2.658 . S
Tb481 O509 2.409 . S
Tb481 O510 2.378 . S
C482 Tb480 2.809 . S
C482 C483 1.514 . S
C482 O500 1.248 . S
C482 O501 1.266 . S
C483 C482 1.514 . S
C483 C484 1.359 . S
C483 C488 1.348 . S
C484 C483 1.359 . S
C484 C485 1.380 . S
C484 H512 0.929 . S
C485 C484 1.380 . S
C485 C486 1.347 . S
C485 H513 0.931 . S
C486 C485 1.347 . S
C486 C487 1.369 . S
C487 C486 1.369 . S
C487 C488 1.408 . S
C487 H514 0.930 . S
C488 C483 1.348 . S
C488 C487 1.408 . S
C488 H515 0.930 . S
C489 O502 1.281 . S
C489 O503 1.254 . S
C490 O504 1.236 . S
C490 O505 1.266 . S
C491 Tb481 2.809 . S
C491 C492 1.514 . S
C491 O506 1.248 . S
C491 O507 1.266 . S
C492 C491 1.514 . S
C492 C493 1.359 . S
C492 C497 1.348 . S
C493 C492 1.359 . S
C493 C494 1.380 . S
C493 H516 0.929 . S
C494 C493 1.380 . S
C494 C495 1.347 . S
C494 H517 0.931 . S
C495 C494 1.347 . S
C495 C496 1.369 . S
C496 C495 1.369 . S
C496 C497 1.408 . S
C496 H518 0.930 . S
C497 C492 1.348 . S
C497 C496 1.408 . S
C497 H519 0.930 . S
C498 O508 1.281 . S
C498 O509 1.254 . S
C499 O510 1.236 . S
C499 O511 1.266 . S
O500 Tb480 2.484 . S
O500 C482 1.248 . S
O501 Tb480 2.440 . S
O501 C482 1.266 . S
O502 Tb480 2.658 . S
O502 Tb481 2.325 . S
O502 C489 1.281 . S
O503 Tb480 2.409 . S
O503 C489 1.254 . S
O504 Tb480 2.378 . S
O504 C490 1.236 . S
O505 Tb481 2.341 . S
O505 C490 1.266 . S
O506 Tb481 2.484 . S
O506 C491 1.248 . S
O507 Tb481 2.440 . S
O507 C491 1.266 . S
O508 Tb480 2.325 . S
O508 Tb481 2.658 . S
O508 C498 1.281 . S
O509 Tb481 2.409 . S
O509 C498 1.254 . S
O510 Tb481 2.378 . S
O510 C499 1.236 . S
O511 Tb480 2.341 . S
O511 C499 1.266 . S
H512 C484 0.929 . S
H513 C485 0.931 . S
H514 C487 0.930 . S
H515 C488 0.930 . S
H516 C493 0.929 . S
H517 C494 0.931 . S
H518 C496 0.930 . S
H519 C497 0.930 . S
Tb520 C522 2.809 . S
Tb520 O540 2.484 . S
Tb520 O541 2.440 . S
Tb520 O542 2.658 . S
Tb520 O543 2.409 . S
Tb520 O544 2.378 . S
Tb520 O548 2.325 . S
Tb520 O551 2.341 . S
Tb521 C531 2.809 . S
Tb521 O542 2.325 . S
Tb521 O545 2.341 . S
Tb521 O546 2.484 . S
Tb521 O547 2.440 . S
Tb521 O548 2.658 . S
Tb521 O549 2.409 . S
Tb521 O550 2.378 . S
C522 Tb520 2.809 . S
C522 C523 1.514 . S
C522 O540 1.248 . S
C522 O541 1.266 . S
C523 C522 1.514 . S
C523 C524 1.359 . S
C523 C528 1.348 . S
C524 C523 1.359 . S
C524 C525 1.380 . S
C524 H552 0.929 . S
C525 C524 1.380 . S
C525 C526 1.347 . S
C525 H553 0.931 . S
C526 C525 1.347 . S
C526 C527 1.369 . S
C527 C526 1.369 . S
C527 C528 1.408 . S
C527 H554 0.930 . S
C528 C523 1.348 . S
C528 C527 1.408 . S
C528 H555 0.930 . S
C529 O542 1.281 . S
C529 O543 1.254 . S
C530 O544 1.236 . S
C530 O545 1.266 . S
C531 Tb521 2.809 . S
C531 C532 1.514 . S
C531 O546 1.248 . S
C531 O547 1.266 . S
C532 C531 1.514 . S
C532 C533 1.359 . S
C532 C537 1.348 . S
C533 C532 1.359 . S
C533 C534 1.380 . S
C533 H556 0.929 . S
C534 C533 1.380 . S
C534 C535 1.347 . S
C534 H557 0.931 . S
C535 C534 1.347 . S
C535 C536 1.369 . S
C536 C535 1.369 . S
C536 C537 1.408 . S
C536 H558 0.930 . S
C537 C532 1.348 . S
C537 C536 1.408 . S
C537 H559 0.930 . S
C538 O548 1.281 . S
C538 O549 1.254 . S
C539 O550 1.236 . S
C539 O551 1.266 . S
O540 Tb520 2.484 . S
O540 C522 1.248 . S
O541 Tb520 2.440 . S
O541 C522 1.266 . S
O542 Tb520 2.658 . S
O542 Tb521 2.325 . S
O542 C529 1.281 . S
O543 Tb520 2.409 . S
O543 C529 1.254 . S
O544 Tb520 2.378 . S
O544 C530 1.236 . S
O545 Tb521 2.341 . S
O545 C530 1.266 . S
O546 Tb521 2.484 . S
O546 C531 1.248 . S
O547 Tb521 2.440 . S
O547 C531 1.266 . S
O548 Tb520 2.325 . S
O548 Tb521 2.658 . S
O548 C538 1.281 . S
O549 Tb521 2.409 . S
O549 C538 1.254 . S
O550 Tb521 2.378 . S
O550 C539 1.236 . S
O551 Tb520 2.341 . S
O551 C539 1.266 . S
H552 C524 0.929 . S
H553 C525 0.931 . S
H554 C527 0.930 . S
H555 C528 0.930 . S
H556 C533 0.929 . S
H557 C534 0.931 . S
H558 C536 0.930 . S
H559 C537 0.930 . S
Tb560 C562 2.809 . S
Tb560 O580 2.484 . S
Tb560 O581 2.440 . S
Tb560 O582 2.658 . S
Tb560 O583 2.409 . S
Tb560 O584 2.378 . S
Tb560 O588 2.325 . S
Tb560 O591 2.341 . S
Tb561 C571 2.809 . S
Tb561 O582 2.325 . S
Tb561 O585 2.341 . S
Tb561 O586 2.484 . S
Tb561 O587 2.440 . S
Tb561 O588 2.658 . S
Tb561 O589 2.409 . S
Tb561 O590 2.378 . S
C562 Tb560 2.809 . S
C562 C563 1.514 . S
C562 O580 1.248 . S
C562 O581 1.266 . S
C563 C562 1.514 . S
C563 C564 1.359 . S
C563 C568 1.348 . S
C564 C563 1.359 . S
C564 C565 1.380 . S
C564 H592 0.929 . S
C565 C564 1.380 . S
C565 C566 1.347 . S
C565 H593 0.931 . S
C566 C565 1.347 . S
C566 C567 1.369 . S
C567 C566 1.369 . S
C567 C568 1.408 . S
C567 H594 0.930 . S
C568 C563 1.348 . S
C568 C567 1.408 . S
C568 H595 0.930 . S
C569 O582 1.281 . S
C569 O583 1.254 . S
C570 O584 1.236 . S
C570 O585 1.266 . S
C571 Tb561 2.809 . S
C571 C572 1.514 . S
C571 O586 1.248 . S
C571 O587 1.266 . S
C572 C571 1.514 . S
C572 C573 1.359 . S
C572 C577 1.348 . S
C573 C572 1.359 . S
C573 C574 1.380 . S
C573 H596 0.929 . S
C574 C573 1.380 . S
C574 C575 1.347 . S
C574 H597 0.931 . S
C575 C574 1.347 . S
C575 C576 1.369 . S
C576 C575 1.369 . S
C576 C577 1.408 . S
C576 H598 0.930 . S
C577 C572 1.348 . S
C577 C576 1.408 . S
C577 H599 0.930 . S
C578 O588 1.281 . S
C578 O589 1.254 . S
C579 O590 1.236 . S
C579 O591 1.266 . S
O580 Tb560 2.484 . S
O580 C562 1.248 . S
O581 Tb560 2.440 . S
O581 C562 1.266 . S
O582 Tb560 2.658 . S
O582 Tb561 2.325 . S
O582 C569 1.281 . S
O583 Tb560 2.409 . S
O583 C569 1.254 . S
O584 Tb560 2.378 . S
O584 C570 1.236 . S
O585 Tb561 2.341 . S
O585 C570 1.266 . S
O586 Tb561 2.484 . S
O586 C571 1.248 . S
O587 Tb561 2.440 . S
O587 C571 1.266 . S
O588 Tb560 2.325 . S
O588 Tb561 2.658 . S
O588 C578 1.281 . S
O589 Tb561 2.409 . S
O589 C578 1.254 . S
O590 Tb561 2.378 . S
O590 C579 1.236 . S
O591 Tb560 2.341 . S
O591 C579 1.266 . S
H592 C564 0.929 . S
H593 C565 0.931 . S
H594 C567 0.930 . S
H595 C568 0.930 . S
H596 C573 0.929 . S
H597 C574 0.931 . S
H598 C576 0.930 . S
H599 C577 0.930 . S
Tb600 C602 2.809 . S
Tb600 O620 2.484 . S
Tb600 O621 2.440 . S
Tb600 O622 2.658 . S
Tb600 O623 2.409 . S
Tb600 O624 2.378 . S
Tb600 O628 2.325 . S
Tb600 O631 2.341 . S
Tb601 C611 2.809 . S
Tb601 O622 2.325 . S
Tb601 O625 2.341 . S
Tb601 O626 2.484 . S
Tb601 O627 2.440 . S
Tb601 O628 2.658 . S
Tb601 O629 2.409 . S
Tb601 O630 2.378 . S
C602 Tb600 2.809 . S
C602 C603 1.514 . S
C602 O620 1.248 . S
C602 O621 1.266 . S
C603 C602 1.514 . S
C603 C604 1.359 1_655 S
C603 C608 1.348 . S
C604 C603 1.359 1_455 S
C604 C605 1.380 . S
C604 H632 0.929 . S
C605 C604 1.380 . S
C605 C606 1.347 . S
C605 H633 0.931 . S
C606 C605 1.347 . S
C606 C607 1.369 1_455 S
C607 C606 1.369 1_655 S
C607 C608 1.408 . S
C607 H634 0.930 . S
C608 C603 1.348 . S
C608 C607 1.408 . S
C608 H635 0.930 . S
C609 O622 1.281 . S
C609 O623 1.254 . S
C610 O624 1.236 . S
C610 O625 1.266 . S
C611 Tb601 2.809 . S
C611 C612 1.514 . S
C611 O626 1.248 . S
C611 O627 1.266 . S
C612 C611 1.514 . S
C612 C613 1.359 . S
C612 C617 1.348 . S
C613 C612 1.359 . S
C613 C614 1.380 . S
C613 H636 0.929 . S
C614 C613 1.380 . S
C614 C615 1.347 . S
C614 H637 0.931 . S
C615 C614 1.347 . S
C615 C616 1.369 . S
C616 C615 1.369 . S
C616 C617 1.408 . S
C616 H638 0.930 . S
C617 C612 1.348 . S
C617 C616 1.408 . S
C617 H639 0.930 . S
C618 O628 1.281 . S
C618 O629 1.254 . S
C619 O630 1.236 . S
C619 O631 1.266 . S
O620 Tb600 2.484 . S
O620 C602 1.248 . S
O621 Tb600 2.440 . S
O621 C602 1.266 . S
O622 Tb600 2.658 . S
O622 Tb601 2.325 . S
O622 C609 1.281 . S
O623 Tb600 2.409 . S
O623 C609 1.254 . S
O624 Tb600 2.378 . S
O624 C610 1.236 . S
O625 Tb601 2.341 . S
O625 C610 1.266 . S
O626 Tb601 2.484 . S
O626 C611 1.248 . S
O627 Tb601 2.440 . S
O627 C611 1.266 . S
O628 Tb600 2.325 . S
O628 Tb601 2.658 . S
O628 C618 1.281 . S
O629 Tb601 2.409 . S
O629 C618 1.254 . S
O630 Tb601 2.378 . S
O630 C619 1.236 . S
O631 Tb600 2.341 . S
O631 C619 1.266 . S
H632 C604 0.929 . S
H633 C605 0.931 . S
H634 C607 0.930 . S
H635 C608 0.930 . S
H636 C613 0.929 . S
H637 C614 0.931 . S
H638 C616 0.930 . S
H639 C617 0.930 . S
Tb640 C642 2.809 . S
Tb640 O660 2.484 . S
Tb640 O661 2.440 . S
Tb640 O662 2.658 . S
Tb640 O663 2.409 . S
Tb640 O664 2.378 . S
Tb640 O668 2.325 . S
Tb640 O671 2.341 . S
Tb641 C651 2.809 . S
Tb641 O662 2.325 . S
Tb641 O665 2.341 . S
Tb641 O666 2.484 . S
Tb641 O667 2.440 . S
Tb641 O668 2.658 . S
Tb641 O669 2.409 . S
Tb641 O670 2.378 . S
C642 Tb640 2.809 . S
C642 C643 1.514 . S
C642 O660 1.248 . S
C642 O661 1.266 . S
C643 C642 1.514 . S
C643 C644 1.359 . S
C643 C648 1.348 . S
C644 C643 1.359 . S
C644 C645 1.380 . S
C644 H672 0.929 . S
C645 C644 1.380 . S
C645 C646 1.347 . S
C645 H673 0.931 . S
C646 C645 1.347 . S
C646 C647 1.369 . S
C647 C646 1.369 . S
C647 C648 1.408 . S
C647 H674 0.930 . S
C648 C643 1.348 . S
C648 C647 1.408 . S
C648 H675 0.930 . S
C649 O662 1.281 . S
C649 O663 1.254 . S
C650 O664 1.236 . S
C650 O665 1.266 . S
C651 Tb641 2.809 . S
C651 C652 1.514 . S
C651 O666 1.248 . S
C651 O667 1.266 . S
C652 C651 1.514 . S
C652 C653 1.359 . S
C652 C657 1.348 . S
C653 C652 1.359 . S
C653 C654 1.380 . S
C653 H676 0.929 . S
C654 C653 1.380 . S
C654 C655 1.347 . S
C654 H677 0.931 . S
C655 C654 1.347 . S
C655 C656 1.369 . S
C656 C655 1.369 . S
C656 C657 1.408 . S
C656 H678 0.930 . S
C657 C652 1.348 . S
C657 C656 1.408 . S
C657 H679 0.930 . S
C658 O668 1.281 . S
C658 O669 1.254 . S
C659 O670 1.236 . S
C659 O671 1.266 . S
O660 Tb640 2.484 . S
O660 C642 1.248 . S
O661 Tb640 2.440 . S
O661 C642 1.266 . S
O662 Tb640 2.658 . S
O662 Tb641 2.325 . S
O662 C649 1.281 . S
O663 Tb640 2.409 . S
O663 C649 1.254 . S
O664 Tb640 2.378 . S
O664 C650 1.236 . S
O665 Tb641 2.341 . S
O665 C650 1.266 . S
O666 Tb641 2.484 . S
O666 C651 1.248 . S
O667 Tb641 2.440 . S
O667 C651 1.266 . S
O668 Tb640 2.325 . S
O668 Tb641 2.658 . S
O668 C658 1.281 . S
O669 Tb641 2.409 . S
O669 C658 1.254 . S
O670 Tb641 2.378 . S
O670 C659 1.236 . S
O671 Tb640 2.341 . S
O671 C659 1.266 . S
H672 C644 0.929 . S
H673 C645 0.931 . S
H674 C647 0.930 . S
H675 C648 0.930 . S
H676 C653 0.929 . S
H677 C654 0.931 . S
H678 C656 0.930 . S
H679 C657 0.930 . S
Tb680 C682 2.809 . S
Tb680 O700 2.484 . S
Tb680 O701 2.440 . S
Tb680 O702 2.658 . S
Tb680 O703 2.409 . S
Tb680 O704 2.378 . S
Tb680 O708 2.325 . S
Tb680 O711 2.341 . S
Tb681 C691 2.809 . S
Tb681 O702 2.325 . S
Tb681 O705 2.341 . S
Tb681 O706 2.484 . S
Tb681 O707 2.440 . S
Tb681 O708 2.658 . S
Tb681 O709 2.409 . S
Tb681 O710 2.378 . S
C682 Tb680 2.809 . S
C682 C683 1.514 . S
C682 O700 1.248 . S
C682 O701 1.266 . S
C683 C682 1.514 . S
C683 C684 1.359 1_545 S
C683 C688 1.348 . S
C684 C683 1.359 1_565 S
C684 C685 1.380 . S
C684 H712 0.929 . S
C685 C684 1.380 . S
C685 C686 1.347 . S
C685 H713 0.931 . S
C686 C685 1.347 . S
C686 C687 1.369 1_565 S
C687 C686 1.369 1_545 S
C687 C688 1.408 . S
C687 H714 0.930 . S
C688 C683 1.348 . S
C688 C687 1.408 . S
C688 H715 0.930 . S
C689 O702 1.281 . S
C689 O703 1.254 . S
C690 O704 1.236 . S
C690 O705 1.266 . S
C691 Tb681 2.809 . S
C691 C692 1.514 . S
C691 O706 1.248 . S
C691 O707 1.266 . S
C692 C691 1.514 . S
C692 C693 1.359 . S
C692 C697 1.348 . S
C693 C692 1.359 . S
C693 C694 1.380 . S
C693 H716 0.929 . S
C694 C693 1.380 . S
C694 C695 1.347 . S
C694 H717 0.931 . S
C695 C694 1.347 . S
C695 C696 1.369 . S
C696 C695 1.369 . S
C696 C697 1.408 . S
C696 H718 0.930 . S
C697 C692 1.348 . S
C697 C696 1.408 . S
C697 H719 0.930 . S
C698 O708 1.281 . S
C698 O709 1.254 . S
C699 O710 1.236 . S
C699 O711 1.266 . S
O700 Tb680 2.484 . S
O700 C682 1.248 . S
O701 Tb680 2.440 . S
O701 C682 1.266 . S
O702 Tb680 2.658 . S
O702 Tb681 2.325 . S
O702 C689 1.281 . S
O703 Tb680 2.409 . S
O703 C689 1.254 . S
O704 Tb680 2.378 . S
O704 C690 1.236 . S
O705 Tb681 2.341 . S
O705 C690 1.266 . S
O706 Tb681 2.484 . S
O706 C691 1.248 . S
O707 Tb681 2.440 . S
O707 C691 1.266 . S
O708 Tb680 2.325 . S
O708 Tb681 2.658 . S
O708 C698 1.281 . S
O709 Tb681 2.409 . S
O709 C698 1.254 . S
O710 Tb681 2.378 . S
O710 C699 1.236 . S
O711 Tb680 2.341 . S
O711 C699 1.266 . S
H712 C684 0.929 . S
H713 C685 0.931 . S
H714 C687 0.930 . S
H715 C688 0.930 . S
H716 C693 0.929 . S
H717 C694 0.931 . S
H718 C696 0.930 . S
H719 C697 0.930 . S
Tb720 C722 2.809 . S
Tb720 O740 2.484 . S
Tb720 O741 2.440 . S
Tb720 O742 2.658 . S
Tb720 O743 2.409 . S
Tb720 O744 2.378 . S
Tb720 O748 2.325 . S
Tb720 O751 2.341 . S
Tb721 C731 2.809 . S
Tb721 O742 2.325 . S
Tb721 O745 2.341 . S
Tb721 O746 2.484 . S
Tb721 O747 2.440 . S
Tb721 O748 2.658 . S
Tb721 O749 2.409 . S
Tb721 O750 2.378 . S
C722 Tb720 2.809 . S
C722 C723 1.514 . S
C722 O740 1.248 . S
C722 O741 1.266 . S
C723 C722 1.514 . S
C723 C724 1.359 . S
C723 C728 1.348 . S
C724 C723 1.359 . S
C724 C725 1.380 . S
C724 H752 0.929 . S
C725 C724 1.380 . S
C725 C726 1.347 . S
C725 H753 0.931 . S
C726 C725 1.347 . S
C726 C727 1.369 . S
C727 C726 1.369 . S
C727 C728 1.408 . S
C727 H754 0.930 . S
C728 C723 1.348 . S
C728 C727 1.408 . S
C728 H755 0.930 . S
C729 O742 1.281 . S
C729 O743 1.254 . S
C730 O744 1.236 . S
C730 O745 1.266 . S
C731 Tb721 2.809 . S
C731 C732 1.514 . S
C731 O746 1.248 . S
C731 O747 1.266 . S
C732 C731 1.514 . S
C732 C733 1.359 1_545 S
C732 C737 1.348 . S
C733 C732 1.359 1_565 S
C733 C734 1.380 . S
C733 H756 0.929 . S
C734 C733 1.380 . S
C734 C735 1.347 . S
C734 H757 0.931 . S
C735 C734 1.347 . S
C735 C736 1.369 1_565 S
C736 C735 1.369 1_545 S
C736 C737 1.408 . S
C736 H758 0.930 . S
C737 C732 1.348 . S
C737 C736 1.408 . S
C737 H759 0.930 . S
C738 O748 1.281 . S
C738 O749 1.254 . S
C739 O750 1.236 . S
C739 O751 1.266 . S
O740 Tb720 2.484 . S
O740 C722 1.248 . S
O741 Tb720 2.440 . S
O741 C722 1.266 . S
O742 Tb720 2.658 . S
O742 Tb721 2.325 . S
O742 C729 1.281 . S
O743 Tb720 2.409 . S
O743 C729 1.254 . S
O744 Tb720 2.378 . S
O744 C730 1.236 . S
O745 Tb721 2.341 . S
O745 C730 1.266 . S
O746 Tb721 2.484 . S
O746 C731 1.248 . S
O747 Tb721 2.440 . S
O747 C731 1.266 . S
O748 Tb720 2.325 . S
O748 Tb721 2.658 . S
O748 C738 1.281 . S
O749 Tb721 2.409 . S
O749 C738 1.254 . S
O750 Tb721 2.378 . S
O750 C739 1.236 . S
O751 Tb720 2.341 . S
O751 C739 1.266 . S
H752 C724 0.929 . S
H753 C725 0.931 . S
H754 C727 0.930 . S
H755 C728 0.930 . S
H756 C733 0.929 . S
H757 C734 0.931 . S
H758 C736 0.930 . S
H759 C737 0.930 . S
Tb760 C762 2.809 . S
Tb760 O780 2.484 . S
Tb760 O781 2.440 . S
Tb760 O782 2.658 . S
Tb760 O783 2.409 . S
Tb760 O784 2.378 . S
Tb760 O788 2.325 . S
Tb760 O791 2.341 . S
Tb761 C771 2.809 . S
Tb761 O782 2.325 . S
Tb761 O785 2.341 . S
Tb761 O786 2.484 . S
Tb761 O787 2.440 . S
Tb761 O788 2.658 . S
Tb761 O789 2.409 . S
Tb761 O790 2.378 . S
C762 Tb760 2.809 . S
C762 C763 1.514 . S
C762 O780 1.248 . S
C762 O781 1.266 . S
C763 C762 1.514 . S
C763 C764 1.359 . S
C763 C768 1.348 . S
C764 C763 1.359 . S
C764 C765 1.380 . S
C764 H792 0.929 . S
C765 C764 1.380 . S
C765 C766 1.347 . S
C765 H793 0.931 . S
C766 C765 1.347 . S
C766 C767 1.369 . S
C767 C766 1.369 . S
C767 C768 1.408 . S
C767 H794 0.930 . S
C768 C763 1.348 . S
C768 C767 1.408 . S
C768 H795 0.930 . S
C769 O782 1.281 . S
C769 O783 1.254 . S
C770 O784 1.236 . S
C770 O785 1.266 . S
C771 Tb761 2.809 . S
C771 C772 1.514 . S
C771 O786 1.248 . S
C771 O787 1.266 . S
C772 C771 1.514 . S
C772 C773 1.359 1_655 S
C772 C777 1.348 . S
C773 C772 1.359 1_455 S
C773 C774 1.380 . S
C773 H796 0.929 . S
C774 C773 1.380 . S
C774 C775 1.347 . S
C774 H797 0.931 . S
C775 C774 1.347 . S
C775 C776 1.369 1_455 S
C776 C775 1.369 1_655 S
C776 C777 1.408 . S
C776 H798 0.930 . S
C777 C772 1.348 . S
C777 C776 1.408 . S
C777 H799 0.930 . S
C778 O788 1.281 . S
C778 O789 1.254 . S
C779 O790 1.236 . S
C779 O791 1.266 . S
O780 Tb760 2.484 . S
O780 C762 1.248 . S
O781 Tb760 2.440 . S
O781 C762 1.266 . S
O782 Tb760 2.658 . S
O782 Tb761 2.325 . S
O782 C769 1.281 . S
O783 Tb760 2.409 . S
O783 C769 1.254 . S
O784 Tb760 2.378 . S
O784 C770 1.236 . S
O785 Tb761 2.341 . S
O785 C770 1.266 . S
O786 Tb761 2.484 . S
O786 C771 1.248 . S
O787 Tb761 2.440 . S
O787 C771 1.266 . S
O788 Tb760 2.325 . S
O788 Tb761 2.658 . S
O788 C778 1.281 . S
O789 Tb761 2.409 . S
O789 C778 1.254 . S
O790 Tb761 2.378 . S
O790 C779 1.236 . S
O791 Tb760 2.341 . S
O791 C779 1.266 . S
H792 C764 0.929 . S
H793 C765 0.931 . S
H794 C767 0.930 . S
H795 C768 0.930 . S
H796 C773 0.929 . S
H797 C774 0.931 . S
H798 C776 0.930 . S
H799 C777 0.930 . S
Tb800 C802 2.809 . S
Tb800 O820 2.484 . S
Tb800 O821 2.440 . S
Tb800 O822 2.658 . S
Tb800 O823 2.409 . S
Tb800 O824 2.378 . S
Tb800 O828 2.325 . S
Tb800 O831 2.341 . S
Tb801 C811 2.809 . S
Tb801 O822 2.325 . S
Tb801 O825 2.341 . S
Tb801 O826 2.484 . S
Tb801 O827 2.440 . S
Tb801 O828 2.658 . S
Tb801 O829 2.409 . S
Tb801 O830 2.378 . S
C802 Tb800 2.809 . S
C802 C803 1.514 . S
C802 O820 1.248 . S
C802 O821 1.266 . S
C803 C802 1.514 . S
C803 C804 1.359 . S
C803 C808 1.348 . S
C804 C803 1.359 . S
C804 C805 1.380 . S
C804 H832 0.929 . S
C805 C804 1.380 . S
C805 C806 1.347 . S
C805 H833 0.931 . S
C806 C805 1.347 . S
C806 C807 1.369 . S
C807 C806 1.369 . S
C807 C808 1.408 . S
C807 H834 0.930 . S
C808 C803 1.348 . S
C808 C807 1.408 . S
C808 H835 0.930 . S
C809 O822 1.281 . S
C809 O823 1.254 . S
C810 O824 1.236 . S
C810 O825 1.266 . S
C811 Tb801 2.809 . S
C811 C812 1.514 . S
C811 O826 1.248 . S
C811 O827 1.266 . S
C812 C811 1.514 . S
C812 C813 1.359 . S
C812 C817 1.348 . S
C813 C812 1.359 . S
C813 C814 1.380 . S
C813 H836 0.929 . S
C814 C813 1.380 . S
C814 C815 1.347 . S
C814 H837 0.931 . S
C815 C814 1.347 . S
C815 C816 1.369 . S
C816 C815 1.369 . S
C816 C817 1.408 . S
C816 H838 0.930 . S
C817 C812 1.348 . S
C817 C816 1.408 . S
C817 H839 0.930 . S
C818 O828 1.281 . S
C818 O829 1.254 . S
C819 O830 1.236 . S
C819 O831 1.266 . S
O820 Tb800 2.484 . S
O820 C802 1.248 . S
O821 Tb800 2.440 . S
O821 C802 1.266 . S
O822 Tb800 2.658 . S
O822 Tb801 2.325 . S
O822 C809 1.281 . S
O823 Tb800 2.409 . S
O823 C809 1.254 . S
O824 Tb800 2.378 . S
O824 C810 1.236 . S
O825 Tb801 2.341 . S
O825 C810 1.266 . S
O826 Tb801 2.484 . S
O826 C811 1.248 . S
O827 Tb801 2.440 . S
O827 C811 1.266 . S
O828 Tb800 2.325 . S
O828 Tb801 2.658 . S
O828 C818 1.281 . S
O829 Tb801 2.409 . S
O829 C818 1.254 . S
O830 Tb801 2.378 . S
O830 C819 1.236 . S
O831 Tb800 2.341 . S
O831 C819 1.266 . S
H832 C804 0.929 . S
H833 C805 0.931 . S
H834 C807 0.930 . S
H835 C808 0.930 . S
H836 C813 0.929 . S
H837 C814 0.931 . S
H838 C816 0.930 . S
H839 C817 0.930 . S
Tb840 C842 2.809 . S
Tb840 O860 2.484 . S
Tb840 O861 2.440 . S
Tb840 O862 2.658 1_554 S
Tb840 O863 2.409 . S
Tb840 O864 2.378 . S
Tb840 O868 2.325 . S
Tb840 O871 2.341 . S
Tb841 C851 2.809 . S
Tb841 O862 2.325 . S
Tb841 O865 2.341 . S
Tb841 O866 2.484 . S
Tb841 O867 2.440 . S
Tb841 O868 2.658 1_556 S
Tb841 O869 2.409 . S
Tb841 O870 2.378 . S
C842 Tb840 2.809 . S
C842 C843 1.514 . S
C842 O860 1.248 . S
C842 O861 1.266 . S
C843 C842 1.514 . S
C843 C844 1.359 . S
C843 C848 1.348 . S
C844 C843 1.359 . S
C844 C845 1.380 . S
C844 H872 0.929 . S
C845 C844 1.380 . S
C845 C846 1.347 . S
C845 H873 0.931 . S
C846 C845 1.347 . S
C846 C847 1.369 . S
C847 C846 1.369 . S
C847 C848 1.408 . S
C847 H874 0.930 . S
C848 C843 1.348 . S
C848 C847 1.408 . S
C848 H875 0.930 . S
C849 O862 1.281 1_554 S
C849 O863 1.254 . S
C850 O864 1.236 . S
C850 O865 1.266 1_554 S
C851 Tb841 2.809 . S
C851 C852 1.514 . S
C851 O866 1.248 . S
C851 O867 1.266 . S
C852 C851 1.514 . S
C852 C853 1.359 . S
C852 C857 1.348 . S
C853 C852 1.359 . S
C853 C854 1.380 . S
C853 H876 0.929 . S
C854 C853 1.380 . S
C854 C855 1.347 . S
C854 H877 0.931 . S
C855 C854 1.347 . S
C855 C856 1.369 . S
C856 C855 1.369 . S
C856 C857 1.408 . S
C856 H878 0.930 . S
C857 C852 1.348 . S
C857 C856 1.408 . S
C857 H879 0.930 . S
C858 O868 1.281 1_556 S
C858 O869 1.254 . S
C859 O870 1.236 . S
C859 O871 1.266 1_556 S
O860 Tb840 2.484 . S
O860 C842 1.248 . S
O861 Tb840 2.440 . S
O861 C842 1.266 . S
O862 Tb840 2.658 1_556 S
O862 Tb841 2.325 . S
O862 C849 1.281 1_556 S
O863 Tb840 2.409 . S
O863 C849 1.254 . S
O864 Tb840 2.378 . S
O864 C850 1.236 . S
O865 Tb841 2.341 . S
O865 C850 1.266 1_556 S
O866 Tb841 2.484 . S
O866 C851 1.248 . S
O867 Tb841 2.440 . S
O867 C851 1.266 . S
O868 Tb840 2.325 . S
O868 Tb841 2.658 1_554 S
O868 C858 1.281 1_554 S
O869 Tb841 2.409 . S
O869 C858 1.254 . S
O870 Tb841 2.378 . S
O870 C859 1.236 . S
O871 Tb840 2.341 . S
O871 C859 1.266 1_554 S
H872 C844 0.929 . S
H873 C845 0.931 . S
H874 C847 0.930 . S
H875 C848 0.930 . S
H876 C853 0.929 . S
H877 C854 0.931 . S
H878 C856 0.930 . S
H879 C857 0.930 . S
Tb880 C882 2.809 . S
Tb880 O900 2.484 . S
Tb880 O901 2.440 . S
Tb880 O902 2.658 1_554 S
Tb880 O903 2.409 . S
Tb880 O904 2.378 . S
Tb880 O908 2.325 . S
Tb880 O911 2.341 . S
Tb881 C891 2.809 . S
Tb881 O902 2.325 . S
Tb881 O905 2.341 . S
Tb881 O906 2.484 . S
Tb881 O907 2.440 . S
Tb881 O908 2.658 1_556 S
Tb881 O909 2.409 . S
Tb881 O910 2.378 . S
C882 Tb880 2.809 . S
C882 C883 1.514 . S
C882 O900 1.248 . S
C882 O901 1.266 . S
C883 C882 1.514 . S
C883 C884 1.359 . S
C883 C888 1.348 . S
C884 C883 1.359 . S
C884 C885 1.380 . S
C884 H912 0.929 . S
C885 C884 1.380 . S
C885 C886 1.347 . S
C885 H913 0.931 . S
C886 C885 1.347 . S
C886 C887 1.369 . S
C887 C886 1.369 . S
C887 C888 1.408 . S
C887 H914 0.930 . S
C888 C883 1.348 . S
C888 C887 1.408 . S
C888 H915 0.930 . S
C889 O902 1.281 1_554 S
C889 O903 1.254 . S
C890 O904 1.236 . S
C890 O905 1.266 1_554 S
C891 Tb881 2.809 . S
C891 C892 1.514 . S
C891 O906 1.248 . S
C891 O907 1.266 . S
C892 C891 1.514 . S
C892 C893 1.359 . S
C892 C897 1.348 . S
C893 C892 1.359 . S
C893 C894 1.380 . S
C893 H916 0.929 . S
C894 C893 1.380 . S
C894 C895 1.347 . S
C894 H917 0.931 . S
C895 C894 1.347 . S
C895 C896 1.369 . S
C896 C895 1.369 . S
C896 C897 1.408 . S
C896 H918 0.930 . S
C897 C892 1.348 . S
C897 C896 1.408 . S
C897 H919 0.930 . S
C898 O908 1.281 1_556 S
C898 O909 1.254 . S
C899 O910 1.236 . S
C899 O911 1.266 1_556 S
O900 Tb880 2.484 . S
O900 C882 1.248 . S
O901 Tb880 2.440 . S
O901 C882 1.266 . S
O902 Tb880 2.658 1_556 S
O902 Tb881 2.325 . S
O902 C889 1.281 1_556 S
O903 Tb880 2.409 . S
O903 C889 1.254 . S
O904 Tb880 2.378 . S
O904 C890 1.236 . S
O905 Tb881 2.341 . S
O905 C890 1.266 1_556 S
O906 Tb881 2.484 . S
O906 C891 1.248 . S
O907 Tb881 2.440 . S
O907 C891 1.266 . S
O908 Tb880 2.325 . S
O908 Tb881 2.658 1_554 S
O908 C898 1.281 1_554 S
O909 Tb881 2.409 . S
O909 C898 1.254 . S
O910 Tb881 2.378 . S
O910 C899 1.236 . S
O911 Tb880 2.341 . S
O911 C899 1.266 1_554 S
H912 C884 0.929 . S
H913 C885 0.931 . S
H914 C887 0.930 . S
H915 C888 0.930 . S
H916 C893 0.929 . S
H917 C894 0.931 . S
H918 C896 0.930 . S
H919 C897 0.930 . S
Tb920 C922 2.809 . S
Tb920 O940 2.484 . S
Tb920 O941 2.440 . S
Tb920 O942 2.658 1_554 S
Tb920 O943 2.409 . S
Tb920 O944 2.378 . S
Tb920 O948 2.325 . S
Tb920 O951 2.341 . S
Tb921 C931 2.809 . S
Tb921 O942 2.325 . S
Tb921 O945 2.341 . S
Tb921 O946 2.484 . S
Tb921 O947 2.440 . S
Tb921 O948 2.658 1_556 S
Tb921 O949 2.409 . S
Tb921 O950 2.378 . S
C922 Tb920 2.809 . S
C922 C923 1.514 . S
C922 O940 1.248 . S
C922 O941 1.266 . S
C923 C922 1.514 . S
C923 C924 1.359 . S
C923 C928 1.348 . S
C924 C923 1.359 . S
C924 C925 1.380 . S
C924 H952 0.929 . S
C925 C924 1.380 . S
C925 C926 1.347 . S
C925 H953 0.931 . S
C926 C925 1.347 . S
C926 C927 1.369 . S
C927 C926 1.369 . S
C927 C928 1.408 . S
C927 H954 0.930 . S
C928 C923 1.348 . S
C928 C927 1.408 . S
C928 H955 0.930 . S
C929 O942 1.281 1_554 S
C929 O943 1.254 . S
C930 O944 1.236 . S
C930 O945 1.266 1_554 S
C931 Tb921 2.809 . S
C931 C932 1.514 . S
C931 O946 1.248 . S
C931 O947 1.266 . S
C932 C931 1.514 . S
C932 C933 1.359 . S
C932 C937 1.348 . S
C933 C932 1.359 . S
C933 C934 1.380 . S
C933 H956 0.929 . S
C934 C933 1.380 . S
C934 C935 1.347 . S
C934 H957 0.931 . S
C935 C934 1.347 . S
C935 C936 1.369 . S
C936 C935 1.369 . S
C936 C937 1.408 . S
C936 H958 0.930 . S
C937 C932 1.348 . S
C937 C936 1.408 . S
C937 H959 0.930 . S
C938 O948 1.281 1_556 S
C938 O949 1.254 . S
C939 O950 1.236 . S
C939 O951 1.266 1_556 S
O940 Tb920 2.484 . S
O940 C922 1.248 . S
O941 Tb920 2.440 . S
O941 C922 1.266 . S
O942 Tb920 2.658 1_556 S
O942 Tb921 2.325 . S
O942 C929 1.281 1_556 S
O943 Tb920 2.409 . S
O943 C929 1.254 . S
O944 Tb920 2.378 . S
O944 C930 1.236 . S
O945 Tb921 2.341 . S
O945 C930 1.266 1_556 S
O946 Tb921 2.484 . S
O946 C931 1.248 . S
O947 Tb921 2.440 . S
O947 C931 1.266 . S
O948 Tb920 2.325 . S
O948 Tb921 2.658 1_554 S
O948 C938 1.281 1_554 S
O949 Tb921 2.409 . S
O949 C938 1.254 . S
O950 Tb921 2.378 . S
O950 C939 1.236 . S
O951 Tb920 2.341 . S
O951 C939 1.266 1_554 S
H952 C924 0.929 . S
H953 C925 0.931 . S
H954 C927 0.930 . S
H955 C928 0.930 . S
H956 C933 0.929 . S
H957 C934 0.931 . S
H958 C936 0.930 . S
H959 C937 0.930 . S
Tb960 C962 2.809 . S
Tb960 O980 2.484 . S
Tb960 O981 2.440 . S
Tb960 O982 2.658 . S
Tb960 O983 2.409 . S
Tb960 O984 2.378 . S
Tb960 O988 2.325 . S
Tb960 O991 2.341 . S
Tb961 C971 2.809 . S
Tb961 O982 2.325 . S
Tb961 O985 2.341 . S
Tb961 O986 2.484 . S
Tb961 O987 2.440 . S
Tb961 O988 2.658 . S
Tb961 O989 2.409 . S
Tb961 O990 2.378 . S
C962 Tb960 2.809 . S
C962 C963 1.514 . S
C962 O980 1.248 . S
C962 O981 1.266 . S
C963 C962 1.514 . S
C963 C964 1.359 1_565 S
C963 C968 1.348 . S
C964 C963 1.359 1_545 S
C964 C965 1.380 . S
C964 H992 0.929 . S
C965 C964 1.380 . S
C965 C966 1.347 . S
C965 H993 0.931 . S
C966 C965 1.347 . S
C966 C967 1.369 1_545 S
C967 C966 1.369 1_565 S
C967 C968 1.408 . S
C967 H994 0.930 . S
C968 C963 1.348 . S
C968 C967 1.408 . S
C968 H995 0.930 . S
C969 O982 1.281 . S
C969 O983 1.254 . S
C970 O984 1.236 . S
C970 O985 1.266 . S
C971 Tb961 2.809 . S
C971 C972 1.514 . S
C971 O986 1.248 . S
C971 O987 1.266 . S
C972 C971 1.514 . S
C972 C973 1.359 . S
C972 C977 1.348 . S
C973 C972 1.359 . S
C973 C974 1.380 . S
C973 H996 0.929 . S
C974 C973 1.380 . S
C974 C975 1.347 . S
C974 H997 0.931 . S
C975 C974 1.347 . S
C975 C976 1.369 . S
C976 C975 1.369 . S
C976 C977 1.408 . S
C976 H998 0.930 . S
C977 C972 1.348 . S
C977 C976 1.408 . S
C977 H999 0.930 . S
C978 O988 1.281 . S
C978 O989 1.254 . S
C979 O990 1.236 . S
C979 O991 1.266 . S
O980 Tb960 2.484 . S
O980 C962 1.248 . S
O981 Tb960 2.440 . S
O981 C962 1.266 . S
O982 Tb960 2.658 . S
O982 Tb961 2.325 . S
O982 C969 1.281 . S
O983 Tb960 2.409 . S
O983 C969 1.254 . S
O984 Tb960 2.378 . S
O984 C970 1.236 . S
O985 Tb961 2.341 . S
O985 C970 1.266 . S
O986 Tb961 2.484 . S
O986 C971 1.248 . S
O987 Tb961 2.440 . S
O987 C971 1.266 . S
O988 Tb960 2.325 . S
O988 Tb961 2.658 . S
O988 C978 1.281 . S
O989 Tb961 2.409 . S
O989 C978 1.254 . S
O990 Tb961 2.378 . S
O990 C979 1.236 . S
O991 Tb960 2.341 . S
O991 C979 1.266 . S
H992 C964 0.929 . S
H993 C965 0.931 . S
H994 C967 0.930 . S
H995 C968 0.930 . S
H996 C973 0.929 . S
H997 C974 0.931 . S
H998 C976 0.930 . S
H999 C977 0.930 . S
Tb1000 C1002 2.809 . S
Tb1000 O1020 2.484 . S
Tb1000 O1021 2.440 . S
Tb1000 O1022 2.658 . S
Tb1000 O1023 2.409 . S
Tb1000 O1024 2.378 . S
Tb1000 O1028 2.325 . S
Tb1000 O1031 2.341 . S
Tb1001 C1011 2.809 . S
Tb1001 O1022 2.325 . S
Tb1001 O1025 2.341 . S
Tb1001 O1026 2.484 . S
Tb1001 O1027 2.440 . S
Tb1001 O1028 2.658 . S
Tb1001 O1029 2.409 . S
Tb1001 O1030 2.378 . S
C1002 Tb1000 2.809 . S
C1002 C1003 1.514 . S
C1002 O1020 1.248 . S
C1002 O1021 1.266 . S
C1003 C1002 1.514 . S
C1003 C1004 1.359 1_455 S
C1003 C1008 1.348 . S
C1004 C1003 1.359 1_655 S
C1004 C1005 1.380 . S
C1004 H1032 0.929 . S
C1005 C1004 1.380 . S
C1005 C1006 1.347 . S
C1005 H1033 0.931 . S
C1006 C1005 1.347 . S
C1006 C1007 1.369 1_655 S
C1007 C1006 1.369 1_455 S
C1007 C1008 1.408 . S
C1007 H1034 0.930 . S
C1008 C1003 1.348 . S
C1008 C1007 1.408 . S
C1008 H1035 0.930 . S
C1009 O1022 1.281 . S
C1009 O1023 1.254 . S
C1010 O1024 1.236 . S
C1010 O1025 1.266 . S
C1011 Tb1001 2.809 . S
C1011 C1012 1.514 . S
C1011 O1026 1.248 . S
C1011 O1027 1.266 . S
C1012 C1011 1.514 . S
C1012 C1013 1.359 . S
C1012 C1017 1.348 . S
C1013 C1012 1.359 . S
C1013 C1014 1.380 . S
C1013 H1036 0.929 . S
C1014 C1013 1.380 . S
C1014 C1015 1.347 . S
C1014 H1037 0.931 . S
C1015 C1014 1.347 . S
C1015 C1016 1.369 . S
C1016 C1015 1.369 . S
C1016 C1017 1.408 . S
C1016 H1038 0.930 . S
C1017 C1012 1.348 . S
C1017 C1016 1.408 . S
C1017 H1039 0.930 . S
C1018 O1028 1.281 . S
C1018 O1029 1.254 . S
C1019 O1030 1.236 . S
C1019 O1031 1.266 . S
O1020 Tb1000 2.484 . S
O1020 C1002 1.248 . S
O1021 Tb1000 2.440 . S
O1021 C1002 1.266 . S
O1022 Tb1000 2.658 . S
O1022 Tb1001 2.325 . S
O1022 C1009 1.281 . S
O1023 Tb1000 2.409 . S
O1023 C1009 1.254 . S
O1024 Tb1000 2.378 . S
O1024 C1010 1.236 . S
O1025 Tb1001 2.341 . S
O1025 C1010 1.266 . S
O1026 Tb1001 2.484 . S
O1026 C1011 1.248 . S
O1027 Tb1001 2.440 . S
O1027 C1011 1.266 . S
O1028 Tb1000 2.325 . S
O1028 Tb1001 2.658 . S
O1028 C1018 1.281 . S
O1029 Tb1001 2.409 . S
O1029 C1018 1.254 . S
O1030 Tb1001 2.378 . S
O1030 C1019 1.236 . S
O1031 Tb1000 2.341 . S
O1031 C1019 1.266 . S
H1032 C1004 0.929 . S
H1033 C1005 0.931 . S
H1034 C1007 0.930 . S
H1035 C1008 0.930 . S
H1036 C1013 0.929 . S
H1037 C1014 0.931 . S
H1038 C1016 0.930 . S
H1039 C1017 0.930 . S
Tb1040 C1042 2.809 . S
Tb1040 O1060 2.484 . S
Tb1040 O1061 2.440 . S
Tb1040 O1062 2.658 . S
Tb1040 O1063 2.409 . S
Tb1040 O1064 2.378 . S
Tb1040 O1068 2.325 . S
Tb1040 O1071 2.341 . S
Tb1041 C1051 2.809 . S
Tb1041 O1062 2.325 . S
Tb1041 O1065 2.341 . S
Tb1041 O1066 2.484 . S
Tb1041 O1067 2.440 . S
Tb1041 O1068 2.658 . S
Tb1041 O1069 2.409 . S
Tb1041 O1070 2.378 . S
C1042 Tb1040 2.809 . S
C1042 C1043 1.514 . S
C1042 O1060 1.248 . S
C1042 O1061 1.266 . S
C1043 C1042 1.514 . S
C1043 C1044 1.359 . S
C1043 C1048 1.348 . S
C1044 C1043 1.359 . S
C1044 C1045 1.380 . S
C1044 H1072 0.929 . S
C1045 C1044 1.380 . S
C1045 C1046 1.347 . S
C1045 H1073 0.931 . S
C1046 C1045 1.347 . S
C1046 C1047 1.369 . S
C1047 C1046 1.369 . S
C1047 C1048 1.408 . S
C1047 H1074 0.930 . S
C1048 C1043 1.348 . S
C1048 C1047 1.408 . S
C1048 H1075 0.930 . S
C1049 O1062 1.281 . S
C1049 O1063 1.254 . S
C1050 O1064 1.236 . S
C1050 O1065 1.266 . S
C1051 Tb1041 2.809 . S
C1051 C1052 1.514 . S
C1051 O1066 1.248 . S
C1051 O1067 1.266 . S
C1052 C1051 1.514 . S
C1052 C1053 1.359 . S
C1052 C1057 1.348 . S
C1053 C1052 1.359 . S
C1053 C1054 1.380 . S
C1053 H1076 0.929 . S
C1054 C1053 1.380 . S
C1054 C1055 1.347 . S
C1054 H1077 0.931 . S
C1055 C1054 1.347 . S
C1055 C1056 1.369 . S
C1056 C1055 1.369 . S
C1056 C1057 1.408 . S
C1056 H1078 0.930 . S
C1057 C1052 1.348 . S
C1057 C1056 1.408 . S
C1057 H1079 0.930 . S
C1058 O1068 1.281 . S
C1058 O1069 1.254 . S
C1059 O1070 1.236 . S
C1059 O1071 1.266 . S
O1060 Tb1040 2.484 . S
O1060 C1042 1.248 . S
O1061 Tb1040 2.440 . S
O1061 C1042 1.266 . S
O1062 Tb1040 2.658 . S
O1062 Tb1041 2.325 . S
O1062 C1049 1.281 . S
O1063 Tb1040 2.409 . S
O1063 C1049 1.254 . S
O1064 Tb1040 2.378 . S
O1064 C1050 1.236 . S
O1065 Tb1041 2.341 . S
O1065 C1050 1.266 . S
O1066 Tb1041 2.484 . S
O1066 C1051 1.248 . S
O1067 Tb1041 2.440 . S
O1067 C1051 1.266 . S
O1068 Tb1040 2.325 . S
O1068 Tb1041 2.658 . S
O1068 C1058 1.281 . S
O1069 Tb1041 2.409 . S
O1069 C1058 1.254 . S
O1070 Tb1041 2.378 . S
O1070 C1059 1.236 . S
O1071 Tb1040 2.341 . S
O1071 C1059 1.266 . S
H1072 C1044 0.929 . S
H1073 C1045 0.931 . S
H1074 C1047 0.930 . S
H1075 C1048 0.930 . S
H1076 C1053 0.929 . S
H1077 C1054 0.931 . S
H1078 C1056 0.930 . S
H1079 C1057 0.930 . S
Tb1080 C1082 2.809 . S
Tb1080 O1100 2.484 . S
Tb1080 O1101 2.440 . S
Tb1080 O1102 2.658 1_554 S
Tb1080 O1103 2.409 . S
Tb1080 O1104 2.378 . S
Tb1080 O1108 2.325 . S
Tb1080 O1111 2.341 . S
Tb1081 C1091 2.809 . S
Tb1081 O1102 2.325 . S
Tb1081 O1105 2.341 . S
Tb1081 O1106 2.484 . S
Tb1081 O1107 2.440 . S
Tb1081 O1108 2.658 1_556 S
Tb1081 O1109 2.409 . S
Tb1081 O1110 2.378 . S
C1082 Tb1080 2.809 . S
C1082 C1083 1.514 . S
C1082 O1100 1.248 . S
C1082 O1101 1.266 . S
C1083 C1082 1.514 . S
C1083 C1084 1.359 . S
C1083 C1088 1.348 . S
C1084 C1083 1.359 . S
C1084 C1085 1.380 . S
C1084 H1112 0.929 . S
C1085 C1084 1.380 . S
C1085 C1086 1.347 . S
C1085 H1113 0.931 . S
C1086 C1085 1.347 . S
C1086 C1087 1.369 . S
C1087 C1086 1.369 . S
C1087 C1088 1.408 . S
C1087 H1114 0.930 . S
C1088 C1083 1.348 . S
C1088 C1087 1.408 . S
C1088 H1115 0.930 . S
C1089 O1102 1.281 1_554 S
C1089 O1103 1.254 . S
C1090 O1104 1.236 . S
C1090 O1105 1.266 1_554 S
C1091 Tb1081 2.809 . S
C1091 C1092 1.514 . S
C1091 O1106 1.248 . S
C1091 O1107 1.266 . S
C1092 C1091 1.514 . S
C1092 C1093 1.359 . S
C1092 C1097 1.348 . S
C1093 C1092 1.359 . S
C1093 C1094 1.380 . S
C1093 H1116 0.929 . S
C1094 C1093 1.380 . S
C1094 C1095 1.347 . S
C1094 H1117 0.931 . S
C1095 C1094 1.347 . S
C1095 C1096 1.369 . S
C1096 C1095 1.369 . S
C1096 C1097 1.408 . S
C1096 H1118 0.930 . S
C1097 C1092 1.348 . S
C1097 C1096 1.408 . S
C1097 H1119 0.930 . S
C1098 O1108 1.281 1_556 S
C1098 O1109 1.254 . S
C1099 O1110 1.236 . S
C1099 O1111 1.266 1_556 S
O1100 Tb1080 2.484 . S
O1100 C1082 1.248 . S
O1101 Tb1080 2.440 . S
O1101 C1082 1.266 . S
O1102 Tb1080 2.658 1_556 S
O1102 Tb1081 2.325 . S
O1102 C1089 1.281 1_556 S
O1103 Tb1080 2.409 . S
O1103 C1089 1.254 . S
O1104 Tb1080 2.378 . S
O1104 C1090 1.236 . S
O1105 Tb1081 2.341 . S
O1105 C1090 1.266 1_556 S
O1106 Tb1081 2.484 . S
O1106 C1091 1.248 . S
O1107 Tb1081 2.440 . S
O1107 C1091 1.266 . S
O1108 Tb1080 2.325 . S
O1108 Tb1081 2.658 1_554 S
O1108 C1098 1.281 1_554 S
O1109 Tb1081 2.409 . S
O1109 C1098 1.254 . S
O1110 Tb1081 2.378 . S
O1110 C1099 1.236 . S
O1111 Tb1080 2.341 . S
O1111 C1099 1.266 1_554 S
H1112 C1084 0.929 . S
H1113 C1085 0.931 . S
H1114 C1087 0.930 . S
H1115 C1088 0.930 . S
H1116 C1093 0.929 . S
H1117 C1094 0.931 . S
H1118 C1096 0.930 . S
H1119 C1097 0.930 . S
Tb1120 C1122 2.809 . S
Tb1120 O1140 2.484 . S
Tb1120 O1141 2.440 . S
Tb1120 O1142 2.658 1_554 S
Tb1120 O1143 2.409 . S
Tb1120 O1144 2.378 . S
Tb1120 O1148 2.325 . S
Tb1120 O1151 2.341 . S
Tb1121 C1131 2.809 . S
Tb1121 O1142 2.325 . S
Tb1121 O1145 2.341 . S
Tb1121 O1146 2.484 . S
Tb1121 O1147 2.440 . S
Tb1121 O1148 2.658 1_556 S
Tb1121 O1149 2.409 . S
Tb1121 O1150 2.378 . S
C1122 Tb1120 2.809 . S
C1122 C1123 1.514 . S
C1122 O1140 1.248 . S
C1122 O1141 1.266 . S
C1123 C1122 1.514 . S
C1123 C1124 1.359 . S
C1123 C1128 1.348 . S
C1124 C1123 1.359 . S
C1124 C1125 1.380 . S
C1124 H1152 0.929 . S
C1125 C1124 1.380 . S
C1125 C1126 1.347 . S
C1125 H1153 0.931 . S
C1126 C1125 1.347 . S
C1126 C1127 1.369 . S
C1127 C1126 1.369 . S
C1127 C1128 1.408 . S
C1127 H1154 0.930 . S
C1128 C1123 1.348 . S
C1128 C1127 1.408 . S
C1128 H1155 0.930 . S
C1129 O1142 1.281 1_554 S
C1129 O1143 1.254 . S
C1130 O1144 1.236 . S
C1130 O1145 1.266 1_554 S
C1131 Tb1121 2.809 . S
C1131 C1132 1.514 . S
C1131 O1146 1.248 . S
C1131 O1147 1.266 . S
C1132 C1131 1.514 . S
C1132 C1133 1.359 . S
C1132 C1137 1.348 . S
C1133 C1132 1.359 . S
C1133 C1134 1.380 . S
C1133 H1156 0.929 . S
C1134 C1133 1.380 . S
C1134 C1135 1.347 . S
C1134 H1157 0.931 . S
C1135 C1134 1.347 . S
C1135 C1136 1.369 . S
C1136 C1135 1.369 . S
C1136 C1137 1.408 . S
C1136 H1158 0.930 . S
C1137 C1132 1.348 . S
C1137 C1136 1.408 . S
C1137 H1159 0.930 . S
C1138 O1148 1.281 1_556 S
C1138 O1149 1.254 . S
C1139 O1150 1.236 . S
C1139 O1151 1.266 1_556 S
O1140 Tb1120 2.484 . S
O1140 C1122 1.248 . S
O1141 Tb1120 2.440 . S
O1141 C1122 1.266 . S
O1142 Tb1120 2.658 1_556 S
O1142 Tb1121 2.325 . S
O1142 C1129 1.281 1_556 S
O1143 Tb1120 2.409 . S
O1143 C1129 1.254 . S
O1144 Tb1120 2.378 . S
O1144 C1130 1.236 . S
O1145 Tb1121 2.341 . S
O1145 C1130 1.266 1_556 S
O1146 Tb1121 2.484 . S
O1146 C1131 1.248 . S
O1147 Tb1121 2.440 . S
O1147 C1131 1.266 . S
O1148 Tb1120 2.325 . S
O1148 Tb1121 2.658 1_554 S
O1148 C1138 1.281 1_554 S
O1149 Tb1121 2.409 . S
O1149 C1138 1.254 . S
O1150 Tb1121 2.378 . S
O1150 C1139 1.236 . S
O1151 Tb1120 2.341 . S
O1151 C1139 1.266 1_554 S
H1152 C1124 0.929 . S
H1153 C1125 0.931 . S
H1154 C1127 0.930 . S
H1155 C1128 0.930 . S
H1156 C1133 0.929 . S
H1157 C1134 0.931 . S
H1158 C1136 0.930 . S
H1159 C1137 0.930 . S
Tb1160 C1162 2.809 . S
Tb1160 O1180 2.484 . S
Tb1160 O1181 2.440 . S
Tb1160 O1182 2.658 1_554 S
Tb1160 O1183 2.409 . S
Tb1160 O1184 2.378 . S
Tb1160 O1188 2.325 . S
Tb1160 O1191 2.341 . S
Tb1161 C1171 2.809 . S
Tb1161 O1182 2.325 . S
Tb1161 O1185 2.341 . S
Tb1161 O1186 2.484 . S
Tb1161 O1187 2.440 . S
Tb1161 O1188 2.658 1_556 S
Tb1161 O1189 2.409 . S
Tb1161 O1190 2.378 . S
C1162 Tb1160 2.809 . S
C1162 C1163 1.514 . S
C1162 O1180 1.248 . S
C1162 O1181 1.266 . S
C1163 C1162 1.514 . S
C1163 C1164 1.359 . S
C1163 C1168 1.348 . S
C1164 C1163 1.359 . S
C1164 C1165 1.380 . S
C1164 H1192 0.929 . S
C1165 C1164 1.380 . S
C1165 C1166 1.347 . S
C1165 H1193 0.931 . S
C1166 C1165 1.347 . S
C1166 C1167 1.369 . S
C1167 C1166 1.369 . S
C1167 C1168 1.408 . S
C1167 H1194 0.930 . S
C1168 C1163 1.348 . S
C1168 C1167 1.408 . S
C1168 H1195 0.930 . S
C1169 O1182 1.281 1_554 S
C1169 O1183 1.254 . S
C1170 O1184 1.236 . S
C1170 O1185 1.266 1_554 S
C1171 Tb1161 2.809 . S
C1171 C1172 1.514 . S
C1171 O1186 1.248 . S
C1171 O1187 1.266 . S
C1172 C1171 1.514 . S
C1172 C1173 1.359 . S
C1172 C1177 1.348 . S
C1173 C1172 1.359 . S
C1173 C1174 1.380 . S
C1173 H1196 0.929 . S
C1174 C1173 1.380 . S
C1174 C1175 1.347 . S
C1174 H1197 0.931 . S
C1175 C1174 1.347 . S
C1175 C1176 1.369 . S
C1176 C1175 1.369 . S
C1176 C1177 1.408 . S
C1176 H1198 0.930 . S
C1177 C1172 1.348 . S
C1177 C1176 1.408 . S
C1177 H1199 0.930 . S
C1178 O1188 1.281 1_556 S
C1178 O1189 1.254 . S
C1179 O1190 1.236 . S
C1179 O1191 1.266 1_556 S
O1180 Tb1160 2.484 . S
O1180 C1162 1.248 . S
O1181 Tb1160 2.440 . S
O1181 C1162 1.266 . S
O1182 Tb1160 2.658 1_556 S
O1182 Tb1161 2.325 . S
O1182 C1169 1.281 1_556 S
O1183 Tb1160 2.409 . S
O1183 C1169 1.254 . S
O1184 Tb1160 2.378 . S
O1184 C1170 1.236 . S
O1185 Tb1161 2.341 . S
O1185 C1170 1.266 1_556 S
O1186 Tb1161 2.484 . S
O1186 C1171 1.248 . S
O1187 Tb1161 2.440 . S
O1187 C1171 1.266 . S
O1188 Tb1160 2.325 . S
O1188 Tb1161 2.658 1_554 S
O1188 C1178 1.281 1_554 S
O1189 Tb1161 2.409 . S
O1189 C1178 1.254 . S
O1190 Tb1161 2.378 . S
O1190 C1179 1.236 . S
O1191 Tb1160 2.341 . S
O1191 C1179 1.266 1_554 S
H1192 C1164 0.929 . S
H1193 C1165 0.931 . S
H1194 C1167 0.930 . S
H1195 C1168 0.930 . S
H1196 C1173 0.929 . S
H1197 C1174 0.931 . S
H1198 C1176 0.930 . S
H1199 C1177 0.930 . S
Tb1200 C1202 2.809 . S
Tb1200 O1220 2.484 . S
Tb1200 O1221 2.440 . S
Tb1200 O1222 2.658 . S
Tb1200 O1223 2.409 . S
Tb1200 O1224 2.378 . S
Tb1200 O1228 2.325 . S
Tb1200 O1231 2.341 . S
Tb1201 C1211 2.809 . S
Tb1201 O1222 2.325 . S
Tb1201 O1225 2.341 . S
Tb1201 O1226 2.484 . S
Tb1201 O1227 2.440 . S
Tb1201 O1228 2.658 . S
Tb1201 O1229 2.409 . S
Tb1201 O1230 2.378 . S
C1202 Tb1200 2.809 . S
C1202 C1203 1.514 . S
C1202 O1220 1.248 . S
C1202 O1221 1.266 . S
C1203 C1202 1.514 . S
C1203 C1204 1.359 . S
C1203 C1208 1.348 . S
C1204 C1203 1.359 . S
C1204 C1205 1.380 . S
C1204 H1232 0.929 . S
C1205 C1204 1.380 . S
C1205 C1206 1.347 . S
C1205 H1233 0.931 . S
C1206 C1205 1.347 . S
C1206 C1207 1.369 . S
C1207 C1206 1.369 . S
C1207 C1208 1.408 . S
C1207 H1234 0.930 . S
C1208 C1203 1.348 . S
C1208 C1207 1.408 . S
C1208 H1235 0.930 . S
C1209 O1222 1.281 . S
C1209 O1223 1.254 . S
C1210 O1224 1.236 . S
C1210 O1225 1.266 . S
C1211 Tb1201 2.809 . S
C1211 C1212 1.514 . S
C1211 O1226 1.248 . S
C1211 O1227 1.266 . S
C1212 C1211 1.514 . S
C1212 C1213 1.359 . S
C1212 C1217 1.348 . S
C1213 C1212 1.359 . S
C1213 C1214 1.380 . S
C1213 H1236 0.929 . S
C1214 C1213 1.380 . S
C1214 C1215 1.347 . S
C1214 H1237 0.931 . S
C1215 C1214 1.347 . S
C1215 C1216 1.369 . S
C1216 C1215 1.369 . S
C1216 C1217 1.408 . S
C1216 H1238 0.930 . S
C1217 C1212 1.348 . S
C1217 C1216 1.408 . S
C1217 H1239 0.930 . S
C1218 O1228 1.281 . S
C1218 O1229 1.254 . S
C1219 O1230 1.236 . S
C1219 O1231 1.266 . S
O1220 Tb1200 2.484 . S
O1220 C1202 1.248 . S
O1221 Tb1200 2.440 . S
O1221 C1202 1.266 . S
O1222 Tb1200 2.658 . S
O1222 Tb1201 2.325 . S
O1222 C1209 1.281 . S
O1223 Tb1200 2.409 . S
O1223 C1209 1.254 . S
O1224 Tb1200 2.378 . S
O1224 C1210 1.236 . S
O1225 Tb1201 2.341 . S
O1225 C1210 1.266 . S
O1226 Tb1201 2.484 . S
O1226 C1211 1.248 . S
O1227 Tb1201 2.440 . S
O1227 C1211 1.266 . S
O1228 Tb1200 2.325 . S
O1228 Tb1201 2.658 . S
O1228 C1218 1.281 . S
O1229 Tb1201 2.409 . S
O1229 C1218 1.254 . S
O1230 Tb1201 2.378 . S
O1230 C1219 1.236 . S
O1231 Tb1200 2.341 . S
O1231 C1219 1.266 . S
H1232 C1204 0.929 . S
H1233 C1205 0.931 . S
H1234 C1207 0.930 . S
H1235 C1208 0.930 . S
H1236 C1213 0.929 . S
H1237 C1214 0.931 . S
H1238 C1216 0.930 . S
H1239 C1217 0.930 . S
Tb1240 C1242 2.809 . S
Tb1240 O1260 2.484 . S
Tb1240 O1261 2.440 . S
Tb1240 O1262 2.658 . S
Tb1240 O1263 2.409 . S
Tb1240 O1264 2.378 . S
Tb1240 O1268 2.325 . S
Tb1240 O1271 2.341 . S
Tb1241 C1251 2.809 . S
Tb1241 O1262 2.325 . S
Tb1241 O1265 2.341 . S
Tb1241 O1266 2.484 . S
Tb1241 O1267 2.440 . S
Tb1241 O1268 2.658 . S
Tb1241 O1269 2.409 . S
Tb1241 O1270 2.378 . S
C1242 Tb1240 2.809 . S
C1242 C1243 1.514 . S
C1242 O1260 1.248 . S
C1242 O1261 1.266 . S
C1243 C1242 1.514 . S
C1243 C1244 1.359 . S
C1243 C1248 1.348 . S
C1244 C1243 1.359 . S
C1244 C1245 1.380 . S
C1244 H1272 0.929 . S
C1245 C1244 1.380 . S
C1245 C1246 1.347 . S
C1245 H1273 0.931 . S
C1246 C1245 1.347 . S
C1246 C1247 1.369 . S
C1247 C1246 1.369 . S
C1247 C1248 1.408 . S
C1247 H1274 0.930 . S
C1248 C1243 1.348 . S
C1248 C1247 1.408 . S
C1248 H1275 0.930 . S
C1249 O1262 1.281 . S
C1249 O1263 1.254 . S
C1250 O1264 1.236 . S
C1250 O1265 1.266 . S
C1251 Tb1241 2.809 . S
C1251 C1252 1.514 . S
C1251 O1266 1.248 . S
C1251 O1267 1.266 . S
C1252 C1251 1.514 . S
C1252 C1253 1.359 . S
C1252 C1257 1.348 . S
C1253 C1252 1.359 . S
C1253 C1254 1.380 . S
C1253 H1276 0.929 . S
C1254 C1253 1.380 . S
C1254 C1255 1.347 . S
C1254 H1277 0.931 . S
C1255 C1254 1.347 . S
C1255 C1256 1.369 . S
C1256 C1255 1.369 . S
C1256 C1257 1.408 . S
C1256 H1278 0.930 . S
C1257 C1252 1.348 . S
C1257 C1256 1.408 . S
C1257 H1279 0.930 . S
C1258 O1268 1.281 . S
C1258 O1269 1.254 . S
C1259 O1270 1.236 . S
C1259 O1271 1.266 . S
O1260 Tb1240 2.484 . S
O1260 C1242 1.248 . S
O1261 Tb1240 2.440 . S
O1261 C1242 1.266 . S
O1262 Tb1240 2.658 . S
O1262 Tb1241 2.325 . S
O1262 C1249 1.281 . S
O1263 Tb1240 2.409 . S
O1263 C1249 1.254 . S
O1264 Tb1240 2.378 . S
O1264 C1250 1.236 . S
O1265 Tb1241 2.341 . S
O1265 C1250 1.266 . S
O1266 Tb1241 2.484 . S
O1266 C1251 1.248 . S
O1267 Tb1241 2.440 . S
O1267 C1251 1.266 . S
O1268 Tb1240 2.325 . S
O1268 Tb1241 2.658 . S
O1268 C1258 1.281 . S
O1269 Tb1241 2.409 . S
O1269 C1258 1.254 . S
O1270 Tb1241 2.378 . S
O1270 C1259 1.236 . S
O1271 Tb1240 2.341 . S
O1271 C1259 1.266 . S
H1272 C1244 0.929 . S
H1273 C1245 0.931 . S
H1274 C1247 0.930 . S
H1275 C1248 0.930 . S
H1276 C1253 0.929 . S
H1277 C1254 0.931 . S
H1278 C1256 0.930 . S
H1279 C1257 0.930 . S
Tb1280 C1282 2.809 . S
Tb1280 O1300 2.484 . S
Tb1280 O1301 2.440 . S
Tb1280 O1302 2.658 . S
Tb1280 O1303 2.409 . S
Tb1280 O1304 2.378 . S
Tb1280 O1308 2.325 . S
Tb1280 O1311 2.341 . S
Tb1281 C1291 2.809 . S
Tb1281 O1302 2.325 . S
Tb1281 O1305 2.341 . S
Tb1281 O1306 2.484 . S
Tb1281 O1307 2.440 . S
Tb1281 O1308 2.658 . S
Tb1281 O1309 2.409 . S
Tb1281 O1310 2.378 . S
C1282 Tb1280 2.809 . S
C1282 C1283 1.514 . S
C1282 O1300 1.248 . S
C1282 O1301 1.266 . S
C1283 C1282 1.514 . S
C1283 C1284 1.359 . S
C1283 C1288 1.348 . S
C1284 C1283 1.359 . S
C1284 C1285 1.380 . S
C1284 H1312 0.929 . S
C1285 C1284 1.380 . S
C1285 C1286 1.347 . S
C1285 H1313 0.931 . S
C1286 C1285 1.347 . S
C1286 C1287 1.369 . S
C1287 C1286 1.369 . S
C1287 C1288 1.408 . S
C1287 H1314 0.930 . S
C1288 C1283 1.348 . S
C1288 C1287 1.408 . S
C1288 H1315 0.930 . S
C1289 O1302 1.281 . S
C1289 O1303 1.254 . S
C1290 O1304 1.236 . S
C1290 O1305 1.266 . S
C1291 Tb1281 2.809 . S
C1291 C1292 1.514 . S
C1291 O1306 1.248 . S
C1291 O1307 1.266 . S
C1292 C1291 1.514 . S
C1292 C1293 1.359 . S
C1292 C1297 1.348 . S
C1293 C1292 1.359 . S
C1293 C1294 1.380 . S
C1293 H1316 0.929 . S
C1294 C1293 1.380 . S
C1294 C1295 1.347 . S
C1294 H1317 0.931 . S
C1295 C1294 1.347 . S
C1295 C1296 1.369 . S
C1296 C1295 1.369 . S
C1296 C1297 1.408 . S
C1296 H1318 0.930 . S
C1297 C1292 1.348 . S
C1297 C1296 1.408 . S
C1297 H1319 0.930 . S
C1298 O1308 1.281 . S
C1298 O1309 1.254 . S
C1299 O1310 1.236 . S
C1299 O1311 1.266 . S
O1300 Tb1280 2.484 . S
O1300 C1282 1.248 . S
O1301 Tb1280 2.440 . S
O1301 C1282 1.266 . S
O1302 Tb1280 2.658 . S
O1302 Tb1281 2.325 . S
O1302 C1289 1.281 . S
O1303 Tb1280 2.409 . S
O1303 C1289 1.254 . S
O1304 Tb1280 2.378 . S
O1304 C1290 1.236 . S
O1305 Tb1281 2.341 . S
O1305 C1290 1.266 . S
O1306 Tb1281 2.484 . S
O1306 C1291 1.248 . S
O1307 Tb1281 2.440 . S
O1307 C1291 1.266 . S
O1308 Tb1280 2.325 . S
O1308 Tb1281 2.658 . S
O1308 C1298 1.281 . S
O1309 Tb1281 2.409 . S
O1309 C1298 1.254 . S
O1310 Tb1281 2.378 . S
O1310 C1299 1.236 . S
O1311 Tb1280 2.341 . S
O1311 C1299 1.266 . S
H1312 C1284 0.929 . S
H1313 C1285 0.931 . S
H1314 C1287 0.930 . S
H1315 C1288 0.930 . S
H1316 C1293 0.929 . S
H1317 C1294 0.931 . S
H1318 C1296 0.930 . S
H1319 C1297 0.930 . S
Tb1320 C1322 2.809 . S
Tb1320 O1340 2.484 . S
Tb1320 O1341 2.440 . S
Tb1320 O1342 2.658 . S
Tb1320 O1343 2.409 . S
Tb1320 O1344 2.378 . S
Tb1320 O1348 2.325 . S
Tb1320 O1351 2.341 . S
Tb1321 C1331 2.809 . S
Tb1321 O1342 2.325 . S
Tb1321 O1345 2.341 . S
Tb1321 O1346 2.484 . S
Tb1321 O1347 2.440 . S
Tb1321 O1348 2.658 . S
Tb1321 O1349 2.409 . S
Tb1321 O1350 2.378 . S
C1322 Tb1320 2.809 . S
C1322 C1323 1.514 . S
C1322 O1340 1.248 . S
C1322 O1341 1.266 . S
C1323 C1322 1.514 . S
C1323 C1324 1.359 . S
C1323 C1328 1.348 . S
C1324 C1323 1.359 . S
C1324 C1325 1.380 . S
C1324 H1352 0.929 . S
C1325 C1324 1.380 . S
C1325 C1326 1.347 . S
C1325 H1353 0.931 . S
C1326 C1325 1.347 . S
C1326 C1327 1.369 . S
C1327 C1326 1.369 . S
C1327 C1328 1.408 . S
C1327 H1354 0.930 . S
C1328 C1323 1.348 . S
C1328 C1327 1.408 . S
C1328 H1355 0.930 . S
C1329 O1342 1.281 . S
C1329 O1343 1.254 . S
C1330 O1344 1.236 . S
C1330 O1345 1.266 . S
C1331 Tb1321 2.809 . S
C1331 C1332 1.514 . S
C1331 O1346 1.248 . S
C1331 O1347 1.266 . S
C1332 C1331 1.514 . S
C1332 C1333 1.359 1_455 S
C1332 C1337 1.348 . S
C1333 C1332 1.359 1_655 S
C1333 C1334 1.380 . S
C1333 H1356 0.929 . S
C1334 C1333 1.380 . S
C1334 C1335 1.347 . S
C1334 H1357 0.931 . S
C1335 C1334 1.347 . S
C1335 C1336 1.369 1_655 S
C1336 C1335 1.369 1_455 S
C1336 C1337 1.408 . S
C1336 H1358 0.930 . S
C1337 C1332 1.348 . S
C1337 C1336 1.408 . S
C1337 H1359 0.930 . S
C1338 O1348 1.281 . S
C1338 O1349 1.254 . S
C1339 O1350 1.236 . S
C1339 O1351 1.266 . S
O1340 Tb1320 2.484 . S
O1340 C1322 1.248 . S
O1341 Tb1320 2.440 . S
O1341 C1322 1.266 . S
O1342 Tb1320 2.658 . S
O1342 Tb1321 2.325 . S
O1342 C1329 1.281 . S
O1343 Tb1320 2.409 . S
O1343 C1329 1.254 . S
O1344 Tb1320 2.378 . S
O1344 C1330 1.236 . S
O1345 Tb1321 2.341 . S
O1345 C1330 1.266 . S
O1346 Tb1321 2.484 . S
O1346 C1331 1.248 . S
O1347 Tb1321 2.440 . S
O1347 C1331 1.266 . S
O1348 Tb1320 2.325 . S
O1348 Tb1321 2.658 . S
O1348 C1338 1.281 . S
O1349 Tb1321 2.409 . S
O1349 C1338 1.254 . S
O1350 Tb1321 2.378 . S
O1350 C1339 1.236 . S
O1351 Tb1320 2.341 . S
O1351 C1339 1.266 . S
H1352 C1324 0.929 . S
H1353 C1325 0.931 . S
H1354 C1327 0.930 . S
H1355 C1328 0.930 . S
H1356 C1333 0.929 . S
H1357 C1334 0.931 . S
H1358 C1336 0.930 . S
H1359 C1337 0.930 . S
Tb1360 C1362 2.809 . S
Tb1360 O1380 2.484 . S
Tb1360 O1381 2.440 . S
Tb1360 O1382 2.658 . S
Tb1360 O1383 2.409 . S
Tb1360 O1384 2.378 . S
Tb1360 O1388 2.325 . S
Tb1360 O1391 2.341 . S
Tb1361 C1371 2.809 . S
Tb1361 O1382 2.325 . S
Tb1361 O1385 2.341 . S
Tb1361 O1386 2.484 . S
Tb1361 O1387 2.440 . S
Tb1361 O1388 2.658 . S
Tb1361 O1389 2.409 . S
Tb1361 O1390 2.378 . S
C1362 Tb1360 2.809 . S
C1362 C1363 1.514 . S
C1362 O1380 1.248 . S
C1362 O1381 1.266 . S
C1363 C1362 1.514 . S
C1363 C1364 1.359 . S
C1363 C1368 1.348 . S
C1364 C1363 1.359 . S
C1364 C1365 1.380 . S
C1364 H1392 0.929 . S
C1365 C1364 1.380 . S
C1365 C1366 1.347 . S
C1365 H1393 0.931 . S
C1366 C1365 1.347 . S
C1366 C1367 1.369 . S
C1367 C1366 1.369 . S
C1367 C1368 1.408 . S
C1367 H1394 0.930 . S
C1368 C1363 1.348 . S
C1368 C1367 1.408 . S
C1368 H1395 0.930 . S
C1369 O1382 1.281 . S
C1369 O1383 1.254 . S
C1370 O1384 1.236 . S
C1370 O1385 1.266 . S
C1371 Tb1361 2.809 . S
C1371 C1372 1.514 . S
C1371 O1386 1.248 . S
C1371 O1387 1.266 . S
C1372 C1371 1.514 . S
C1372 C1373 1.359 . S
C1372 C1377 1.348 . S
C1373 C1372 1.359 . S
C1373 C1374 1.380 . S
C1373 H1396 0.929 . S
C1374 C1373 1.380 . S
C1374 C1375 1.347 . S
C1374 H1397 0.931 . S
C1375 C1374 1.347 . S
C1375 C1376 1.369 . S
C1376 C1375 1.369 . S
C1376 C1377 1.408 . S
C1376 H1398 0.930 . S
C1377 C1372 1.348 . S
C1377 C1376 1.408 . S
C1377 H1399 0.930 . S
C1378 O1388 1.281 . S
C1378 O1389 1.254 . S
C1379 O1390 1.236 . S
C1379 O1391 1.266 . S
O1380 Tb1360 2.484 . S
O1380 C1362 1.248 . S
O1381 Tb1360 2.440 . S
O1381 C1362 1.266 . S
O1382 Tb1360 2.658 . S
O1382 Tb1361 2.325 . S
O1382 C1369 1.281 . S
O1383 Tb1360 2.409 . S
O1383 C1369 1.254 . S
O1384 Tb1360 2.378 . S
O1384 C1370 1.236 . S
O1385 Tb1361 2.341 . S
O1385 C1370 1.266 . S
O1386 Tb1361 2.484 . S
O1386 C1371 1.248 . S
O1387 Tb1361 2.440 . S
O1387 C1371 1.266 . S
O1388 Tb1360 2.325 . S
O1388 Tb1361 2.658 . S
O1388 C1378 1.281 . S
O1389 Tb1361 2.409 . S
O1389 C1378 1.254 . S
O1390 Tb1361 2.378 . S
O1390 C1379 1.236 . S
O1391 Tb1360 2.341 . S
O1391 C1379 1.266 . S
H1392 C1364 0.929 . S
H1393 C1365 0.931 . S
H1394 C1367 0.930 . S
H1395 C1368 0.930 . S
H1396 C1373 0.929 . S
H1397 C1374 0.931 . S
H1398 C1376 0.930 . S
H1399 C1377 0.930 . S
Tb1400 C1402 2.809 . S
Tb1400 O1420 2.484 . S
Tb1400 O1421 2.440 . S
Tb1400 O1422 2.658 . S
Tb1400 O1423 2.409 . S
Tb1400 O1424 2.378 . S
Tb1400 O1428 2.325 . S
Tb1400 O1431 2.341 . S
Tb1401 C1411 2.809 . S
Tb1401 O1422 2.325 . S
Tb1401 O1425 2.341 . S
Tb1401 O1426 2.484 . S
Tb1401 O1427 2.440 . S
Tb1401 O1428 2.658 . S
Tb1401 O1429 2.409 . S
Tb1401 O1430 2.378 . S
C1402 Tb1400 2.809 . S
C1402 C1403 1.514 . S
C1402 O1420 1.248 . S
C1402 O1421 1.266 . S
C1403 C1402 1.514 . S
C1403 C1404 1.359 . S
C1403 C1408 1.348 . S
C1404 C1403 1.359 . S
C1404 C1405 1.380 . S
C1404 H1432 0.929 . S
C1405 C1404 1.380 . S
C1405 C1406 1.347 . S
C1405 H1433 0.931 . S
C1406 C1405 1.347 . S
C1406 C1407 1.369 . S
C1407 C1406 1.369 . S
C1407 C1408 1.408 . S
C1407 H1434 0.930 . S
C1408 C1403 1.348 . S
C1408 C1407 1.408 . S
C1408 H1435 0.930 . S
C1409 O1422 1.281 . S
C1409 O1423 1.254 . S
C1410 O1424 1.236 . S
C1410 O1425 1.266 . S
C1411 Tb1401 2.809 . S
C1411 C1412 1.514 . S
C1411 O1426 1.248 . S
C1411 O1427 1.266 . S
C1412 C1411 1.514 . S
C1412 C1413 1.359 1_565 S
C1412 C1417 1.348 . S
C1413 C1412 1.359 1_545 S
C1413 C1414 1.380 . S
C1413 H1436 0.929 . S
C1414 C1413 1.380 . S
C1414 C1415 1.347 . S
C1414 H1437 0.931 . S
C1415 C1414 1.347 . S
C1415 C1416 1.369 1_545 S
C1416 C1415 1.369 1_565 S
C1416 C1417 1.408 . S
C1416 H1438 0.930 . S
C1417 C1412 1.348 . S
C1417 C1416 1.408 . S
C1417 H1439 0.930 . S
C1418 O1428 1.281 . S
C1418 O1429 1.254 . S
C1419 O1430 1.236 . S
C1419 O1431 1.266 . S
O1420 Tb1400 2.484 . S
O1420 C1402 1.248 . S
O1421 Tb1400 2.440 . S
O1421 C1402 1.266 . S
O1422 Tb1400 2.658 . S
O1422 Tb1401 2.325 . S
O1422 C1409 1.281 . S
O1423 Tb1400 2.409 . S
O1423 C1409 1.254 . S
O1424 Tb1400 2.378 . S
O1424 C1410 1.236 . S
O1425 Tb1401 2.341 . S
O1425 C1410 1.266 . S
O1426 Tb1401 2.484 . S
O1426 C1411 1.248 . S
O1427 Tb1401 2.440 . S
O1427 C1411 1.266 . S
O1428 Tb1400 2.325 . S
O1428 Tb1401 2.658 . S
O1428 C1418 1.281 . S
O1429 Tb1401 2.409 . S
O1429 C1418 1.254 . S
O1430 Tb1401 2.378 . S
O1430 C1419 1.236 . S
O1431 Tb1400 2.341 . S
O1431 C1419 1.266 . S
H1432 C1404 0.929 . S
H1433 C1405 0.931 . S
H1434 C1407 0.930 . S
H1435 C1408 0.930 . S
H1436 C1413 0.929 . S
H1437 C1414 0.931 . S
H1438 C1416 0.930 . S
H1439 C1417 0.930 . S
C1440 C1441 1.369 . S
C1440 C1442 1.419 . S
C1440 H1444 0.930 . S
C1441 C1440 1.369 . S
C1441 C1450 1.429 . S
C1442 C1440 1.419 . S
C1442 C1443 1.363 . S
C1442 H1445 0.929 . S
C1443 C1442 1.363 . S
C1443 C1449 1.428 . S
H1444 C1440 0.930 . S
H1445 C1442 0.929 . S
S1446 N1447 1.613 . S
S1446 N1448 1.610 . S
N1447 S1446 1.613 . S
N1447 C1450 1.350 . S
N1448 S1446 1.610 . S
N1448 C1449 1.351 . S
C1449 C1443 1.428 . S
C1449 N1448 1.351 . S
C1449 C1450 1.434 . S
C1450 C1441 1.429 . S
C1450 N1447 1.350 . S
C1450 C1449 1.434 . S
C1451 C1452 1.369 . S
C1451 C1453 1.419 . S
C1451 H1455 0.930 . S
C1452 C1451 1.369 . S
C1452 C1461 1.429 . S
C1453 C1451 1.419 . S
C1453 C1454 1.363 . S
C1453 H1456 0.929 . S
C1454 C1453 1.363 . S
C1454 C1460 1.428 . S
H1455 C1451 0.930 . S
H1456 C1453 0.929 . S
S1457 N1458 1.613 . S
S1457 N1459 1.610 . S
N1458 S1457 1.613 . S
N1458 C1461 1.350 . S
N1459 S1457 1.610 . S
N1459 C1460 1.351 . S
C1460 C1454 1.428 . S
C1460 N1459 1.351 . S
C1460 C1461 1.434 . S
C1461 C1452 1.429 . S
C1461 N1458 1.350 . S
C1461 C1460 1.434 . S
C1462 C1463 1.369 . S
C1462 C1464 1.419 . S
C1462 H1466 0.930 . S
C1463 C1462 1.369 . S
C1463 C1472 1.429 . S
C1464 C1462 1.419 . S
C1464 C1465 1.363 . S
C1464 H1467 0.929 . S
C1465 C1464 1.363 . S
C1465 C1471 1.428 . S
H1466 C1462 0.930 . S
H1467 C1464 0.929 . S
S1468 N1469 1.613 . S
S1468 N1470 1.610 . S
N1469 S1468 1.613 . S
N1469 C1472 1.350 . S
N1470 S1468 1.610 . S
N1470 C1471 1.351 . S
C1471 C1465 1.428 . S
C1471 N1470 1.351 . S
C1471 C1472 1.434 . S
C1472 C1463 1.429 . S
C1472 N1469 1.350 . S
C1472 C1471 1.434 . S
C1473 C1474 1.369 . S
C1473 C1475 1.419 . S
C1473 H1477 0.930 . S
C1474 C1473 1.369 . S
C1474 C1483 1.429 . S
C1475 C1473 1.419 . S
C1475 C1476 1.363 . S
C1475 H1478 0.929 . S
C1476 C1475 1.363 . S
C1476 C1482 1.428 . S
H1477 C1473 0.930 . S
H1478 C1475 0.929 . S
S1479 N1480 1.613 . S
S1479 N1481 1.610 . S
N1480 S1479 1.613 . S
N1480 C1483 1.350 . S
N1481 S1479 1.610 . S
N1481 C1482 1.351 . S
C1482 C1476 1.428 . S
C1482 N1481 1.351 . S
C1482 C1483 1.434 . S
C1483 C1474 1.429 . S
C1483 N1480 1.350 . S
C1483 C1482 1.434 . S
C1484 C1485 1.369 . S
C1484 C1486 1.419 . S
C1484 H1488 0.930 . S
C1485 C1484 1.369 . S
C1485 C1494 1.429 . S
C1486 C1484 1.419 . S
C1486 C1487 1.363 . S
C1486 H1489 0.929 . S
C1487 C1486 1.363 . S
C1487 C1493 1.428 . S
H1488 C1484 0.930 . S
H1489 C1486 0.929 . S
S1490 N1491 1.613 . S
S1490 N1492 1.610 . S
N1491 S1490 1.613 . S
N1491 C1494 1.350 . S
N1492 S1490 1.610 . S
N1492 C1493 1.351 . S
C1493 C1487 1.428 . S
C1493 N1492 1.351 . S
C1493 C1494 1.434 . S
C1494 C1485 1.429 . S
C1494 N1491 1.350 . S
C1494 C1493 1.434 . S
C1495 C1496 1.369 . S
C1495 C1497 1.419 . S
C1495 H1499 0.930 . S
C1496 C1495 1.369 . S
C1496 C1505 1.429 . S
C1497 C1495 1.419 . S
C1497 C1498 1.363 . S
C1497 H1500 0.929 . S
C1498 C1497 1.363 . S
C1498 C1504 1.428 . S
H1499 C1495 0.930 . S
H1500 C1497 0.929 . S
S1501 N1502 1.613 . S
S1501 N1503 1.610 . S
N1502 S1501 1.613 . S
N1502 C1505 1.350 . S
N1503 S1501 1.610 . S
N1503 C1504 1.351 . S
C1504 C1498 1.428 . S
C1504 N1503 1.351 . S
C1504 C1505 1.434 . S
C1505 C1496 1.429 . S
C1505 N1502 1.350 . S
C1505 C1504 1.434 . S
C1506 C1507 1.369 . S
C1506 C1508 1.419 . S
C1506 H1510 0.930 . S
C1507 C1506 1.369 . S
C1507 C1516 1.429 . S
C1508 C1506 1.419 . S
C1508 C1509 1.363 . S
C1508 H1511 0.929 . S
C1509 C1508 1.363 . S
C1509 C1515 1.428 . S
H1510 C1506 0.930 . S
H1511 C1508 0.929 . S
S1512 N1513 1.613 . S
S1512 N1514 1.610 . S
N1513 S1512 1.613 . S
N1513 C1516 1.350 . S
N1514 S1512 1.610 . S
N1514 C1515 1.351 . S
C1515 C1509 1.428 . S
C1515 N1514 1.351 . S
C1515 C1516 1.434 . S
C1516 C1507 1.429 . S
C1516 N1513 1.350 . S
C1516 C1515 1.434 . S
C1517 C1518 1.369 . S
C1517 C1519 1.419 . S
C1517 H1521 0.930 . S
C1518 C1517 1.369 . S
C1518 C1527 1.429 . S
C1519 C1517 1.419 . S
C1519 C1520 1.363 . S
C1519 H1522 0.929 . S
C1520 C1519 1.363 . S
C1520 C1526 1.428 . S
H1521 C1517 0.930 . S
H1522 C1519 0.929 . S
S1523 N1524 1.613 . S
S1523 N1525 1.610 . S
N1524 S1523 1.613 . S
N1524 C1527 1.350 . S
N1525 S1523 1.610 . S
N1525 C1526 1.351 . S
C1526 C1520 1.428 . S
C1526 N1525 1.351 . S
C1526 C1527 1.434 . S
C1527 C1518 1.429 . S
C1527 N1524 1.350 . S
C1527 C1526 1.434 . S
C1528 C1529 1.369 . S
C1528 C1530 1.419 . S
C1528 H1532 0.930 . S
C1529 C1528 1.369 . S
C1529 C1538 1.429 . S
C1530 C1528 1.419 . S
C1530 C1531 1.363 . S
C1530 H1533 0.929 . S
C1531 C1530 1.363 . S
C1531 C1537 1.428 . S
H1532 C1528 0.930 . S
H1533 C1530 0.929 . S
S1534 N1535 1.613 . S
S1534 N1536 1.610 . S
N1535 S1534 1.613 . S
N1535 C1538 1.350 . S
N1536 S1534 1.610 . S
N1536 C1537 1.351 . S
C1537 C1531 1.428 . S
C1537 N1536 1.351 . S
C1537 C1538 1.434 . S
C1538 C1529 1.429 . S
C1538 N1535 1.350 . S
C1538 C1537 1.434 . S
C1539 C1540 1.369 . S
C1539 C1541 1.419 . S
C1539 H1543 0.930 . S
C1540 C1539 1.369 . S
C1540 C1549 1.429 . S
C1541 C1539 1.419 . S
C1541 C1542 1.363 . S
C1541 H1544 0.929 . S
C1542 C1541 1.363 . S
C1542 C1548 1.428 . S
H1543 C1539 0.930 . S
H1544 C1541 0.929 . S
S1545 N1546 1.613 . S
S1545 N1547 1.610 . S
N1546 S1545 1.613 . S
N1546 C1549 1.350 . S
N1547 S1545 1.610 . S
N1547 C1548 1.351 . S
C1548 C1542 1.428 . S
C1548 N1547 1.351 . S
C1548 C1549 1.434 . S
C1549 C1540 1.429 . S
C1549 N1546 1.350 . S
C1549 C1548 1.434 . S
C1550 C1551 1.369 . S
C1550 C1552 1.419 . S
C1550 H1554 0.930 . S
C1551 C1550 1.369 . S
C1551 C1560 1.429 . S
C1552 C1550 1.419 . S
C1552 C1553 1.363 . S
C1552 H1555 0.929 . S
C1553 C1552 1.363 . S
C1553 C1559 1.428 . S
H1554 C1550 0.930 . S
H1555 C1552 0.929 . S
S1556 N1557 1.613 . S
S1556 N1558 1.610 1_545 S
N1557 S1556 1.613 . S
N1557 C1560 1.350 . S
N1558 S1556 1.610 1_565 S
N1558 C1559 1.351 1_565 S
C1559 C1553 1.428 . S
C1559 N1558 1.351 1_545 S
C1559 C1560 1.434 . S
C1560 C1551 1.429 . S
C1560 N1557 1.350 . S
C1560 C1559 1.434 . S
C1561 C1562 1.369 . S
C1561 C1563 1.419 . S
C1561 H1565 0.930 . S
C1562 C1561 1.369 . S
C1562 C1571 1.429 . S
C1563 C1561 1.419 . S
C1563 C1564 1.363 . S
C1563 H1566 0.929 . S
C1564 C1563 1.363 . S
C1564 C1570 1.428 . S
H1565 C1561 0.930 . S
H1566 C1563 0.929 . S
S1567 N1568 1.613 . S
S1567 N1569 1.610 1_655 S
N1568 S1567 1.613 . S
N1568 C1571 1.350 . S
N1569 S1567 1.610 1_455 S
N1569 C1570 1.351 1_455 S
C1570 C1564 1.428 . S
C1570 N1569 1.351 1_655 S
C1570 C1571 1.434 . S
C1571 C1562 1.429 . S
C1571 N1568 1.350 . S
C1571 C1570 1.434 . S
C1572 C1573 1.369 . S
C1572 C1574 1.419 . S
C1572 H1576 0.930 . S
C1573 C1572 1.369 . S
C1573 C1582 1.429 . S
C1574 C1572 1.419 . S
C1574 C1575 1.363 . S
C1574 H1577 0.929 . S
C1575 C1574 1.363 . S
C1575 C1581 1.428 . S
H1576 C1572 0.930 . S
H1577 C1574 0.929 . S
S1578 N1579 1.613 . S
S1578 N1580 1.610 . S
N1579 S1578 1.613 . S
N1579 C1582 1.350 . S
N1580 S1578 1.610 . S
N1580 C1581 1.351 . S
C1581 C1575 1.428 . S
C1581 N1580 1.351 . S
C1581 C1582 1.434 . S
C1582 C1573 1.429 . S
C1582 N1579 1.350 . S
C1582 C1581 1.434 . S
C1583 C1584 1.369 . S
C1583 C1585 1.419 . S
C1583 H1587 0.930 . S
C1584 C1583 1.369 . S
C1584 C1593 1.429 . S
C1585 C1583 1.419 . S
C1585 C1586 1.363 . S
C1585 H1588 0.929 . S
C1586 C1585 1.363 . S
C1586 C1592 1.428 . S
H1587 C1583 0.930 . S
H1588 C1585 0.929 . S
S1589 N1590 1.613 . S
S1589 N1591 1.610 . S
N1590 S1589 1.613 . S
N1590 C1593 1.350 . S
N1591 S1589 1.610 . S
N1591 C1592 1.351 . S
C1592 C1586 1.428 . S
C1592 N1591 1.351 . S
C1592 C1593 1.434 . S
C1593 C1584 1.429 . S
C1593 N1590 1.350 . S
C1593 C1592 1.434 . S
C1594 C1595 1.369 . S
C1594 C1596 1.419 . S
C1594 H1598 0.930 . S
C1595 C1594 1.369 . S
C1595 C1604 1.429 . S
C1596 C1594 1.419 . S
C1596 C1597 1.363 . S
C1596 H1599 0.929 . S
C1597 C1596 1.363 . S
C1597 C1603 1.428 . S
H1598 C1594 0.930 . S
H1599 C1596 0.929 . S
S1600 N1601 1.613 . S
S1600 N1602 1.610 . S
N1601 S1600 1.613 . S
N1601 C1604 1.350 . S
N1602 S1600 1.610 . S
N1602 C1603 1.351 . S
C1603 C1597 1.428 . S
C1603 N1602 1.351 . S
C1603 C1604 1.434 . S
C1604 C1595 1.429 . S
C1604 N1601 1.350 . S
C1604 C1603 1.434 . S
C1605 C1606 1.369 . S
C1605 C1607 1.419 . S
C1605 H1609 0.930 . S
C1606 C1605 1.369 . S
C1606 C1615 1.429 . S
C1607 C1605 1.419 . S
C1607 C1608 1.363 . S
C1607 H1610 0.929 . S
C1608 C1607 1.363 . S
C1608 C1614 1.428 . S
H1609 C1605 0.930 . S
H1610 C1607 0.929 . S
S1611 N1612 1.613 . S
S1611 N1613 1.610 . S
N1612 S1611 1.613 . S
N1612 C1615 1.350 . S
N1613 S1611 1.610 . S
N1613 C1614 1.351 . S
C1614 C1608 1.428 . S
C1614 N1613 1.351 . S
C1614 C1615 1.434 . S
C1615 C1606 1.429 . S
C1615 N1612 1.350 . S
C1615 C1614 1.434 . S
C1616 C1617 1.369 . S
C1616 C1618 1.419 . S
C1616 H1620 0.930 . S
C1617 C1616 1.369 . S
C1617 C1626 1.429 . S
C1618 C1616 1.419 . S
C1618 C1619 1.363 . S
C1618 H1621 0.929 . S
C1619 C1618 1.363 . S
C1619 C1625 1.428 . S
H1620 C1616 0.930 . S
H1621 C1618 0.929 . S
S1622 N1623 1.613 . S
S1622 N1624 1.610 . S
N1623 S1622 1.613 . S
N1623 C1626 1.350 . S
N1624 S1622 1.610 . S
N1624 C1625 1.351 . S
C1625 C1619 1.428 . S
C1625 N1624 1.351 . S
C1625 C1626 1.434 . S
C1626 C1617 1.429 . S
C1626 N1623 1.350 . S
C1626 C1625 1.434 . S
C1627 C1628 1.369 . S
C1627 C1629 1.419 . S
C1627 H1631 0.930 . S
C1628 C1627 1.369 . S
C1628 C1637 1.429 . S
C1629 C1627 1.419 . S
C1629 C1630 1.363 . S
C1629 H1632 0.929 . S
C1630 C1629 1.363 . S
C1630 C1636 1.428 . S
H1631 C1627 0.930 . S
H1632 C1629 0.929 . S
S1633 N1634 1.613 . S
S1633 N1635 1.610 . S
N1634 S1633 1.613 . S
N1634 C1637 1.350 . S
N1635 S1633 1.610 . S
N1635 C1636 1.351 . S
C1636 C1630 1.428 . S
C1636 N1635 1.351 . S
C1636 C1637 1.434 . S
C1637 C1628 1.429 . S
C1637 N1634 1.350 . S
C1637 C1636 1.434 . S
C1638 C1639 1.369 . S
C1638 C1640 1.419 . S
C1638 H1642 0.930 . S
C1639 C1638 1.369 . S
C1639 C1648 1.429 . S
C1640 C1638 1.419 . S
C1640 C1641 1.363 . S
C1640 H1643 0.929 . S
C1641 C1640 1.363 . S
C1641 C1647 1.428 . S
H1642 C1638 0.930 . S
H1643 C1640 0.929 . S
S1644 N1645 1.613 . S
S1644 N1646 1.610 . S
N1645 S1644 1.613 . S
N1645 C1648 1.350 . S
N1646 S1644 1.610 . S
N1646 C1647 1.351 . S
C1647 C1641 1.428 . S
C1647 N1646 1.351 . S
C1647 C1648 1.434 . S
C1648 C1639 1.429 . S
C1648 N1645 1.350 . S
C1648 C1647 1.434 . S
C1649 C1650 1.369 . S
C1649 C1651 1.419 . S
C1649 H1653 0.930 . S
C1650 C1649 1.369 . S
C1650 C1659 1.429 . S
C1651 C1649 1.419 . S
C1651 C1652 1.363 . S
C1651 H1654 0.929 . S
C1652 C1651 1.363 . S
C1652 C1658 1.428 . S
H1653 C1649 0.930 . S
H1654 C1651 0.929 . S
S1655 N1656 1.613 . S
S1655 N1657 1.610 . S
N1656 S1655 1.613 . S
N1656 C1659 1.350 . S
N1657 S1655 1.610 . S
N1657 C1658 1.351 . S
C1658 C1652 1.428 . S
C1658 N1657 1.351 . S
C1658 C1659 1.434 . S
C1659 C1650 1.429 . S
C1659 N1656 1.350 . S
C1659 C1658 1.434 . S
C1660 C1661 1.369 . S
C1660 C1662 1.419 . S
C1660 H1664 0.930 . S
C1661 C1660 1.369 . S
C1661 C1670 1.429 . S
C1662 C1660 1.419 . S
C1662 C1663 1.363 . S
C1662 H1665 0.929 . S
C1663 C1662 1.363 . S
C1663 C1669 1.428 . S
H1664 C1660 0.930 . S
H1665 C1662 0.929 . S
S1666 N1667 1.613 . S
S1666 N1668 1.610 . S
N1667 S1666 1.613 . S
N1667 C1670 1.350 . S
N1668 S1666 1.610 . S
N1668 C1669 1.351 . S
C1669 C1663 1.428 . S
C1669 N1668 1.351 . S
C1669 C1670 1.434 . S
C1670 C1661 1.429 . S
C1670 N1667 1.350 . S
C1670 C1669 1.434 . S
C1671 C1672 1.369 . S
C1671 C1673 1.419 . S
C1671 H1675 0.930 . S
C1672 C1671 1.369 . S
C1672 C1681 1.429 1_554 S
C1673 C1671 1.419 . S
C1673 C1674 1.363 . S
C1673 H1676 0.929 . S
C1674 C1673 1.363 . S
C1674 C1680 1.428 1_554 S
H1675 C1671 0.930 . S
H1676 C1673 0.929 . S
S1677 N1678 1.613 . S
S1677 N1679 1.610 . S
N1678 S1677 1.613 . S
N1678 C1681 1.350 . S
N1679 S1677 1.610 . S
N1679 C1680 1.351 . S
C1680 C1674 1.428 1_556 S
C1680 N1679 1.351 . S
C1680 C1681 1.434 . S
C1681 C1672 1.429 1_556 S
C1681 N1678 1.350 . S
C1681 C1680 1.434 . S
C1682 C1683 1.369 1_556 S
C1682 C1684 1.419 . S
C1682 H1686 0.930 . S
C1683 C1682 1.369 1_554 S
C1683 C1692 1.429 . S
C1684 C1682 1.419 . S
C1684 C1685 1.363 1_556 S
C1684 H1687 0.929 . S
C1685 C1684 1.363 1_554 S
C1685 C1691 1.428 . S
H1686 C1682 0.930 . S
H1687 C1684 0.929 . S
S1688 N1689 1.613 . S
S1688 N1690 1.610 . S
N1689 S1688 1.613 . S
N1689 C1692 1.350 . S
N1690 S1688 1.610 . S
N1690 C1691 1.351 . S
C1691 C1685 1.428 . S
C1691 N1690 1.351 . S
C1691 C1692 1.434 . S
C1692 C1683 1.429 . S
C1692 N1689 1.350 . S
C1692 C1691 1.434 . S
C1693 C1694 1.369 1_556 S
C1693 C1695 1.419 . S
C1693 H1697 0.930 . S
C1694 C1693 1.369 1_554 S
C1694 C1703 1.429 . S
C1695 C1693 1.419 . S
C1695 C1696 1.363 1_556 S
C1695 H1698 0.929 . S
C1696 C1695 1.363 1_554 S
C1696 C1702 1.428 . S
H1697 C1693 0.930 . S
H1698 C1695 0.929 . S
S1699 N1700 1.613 . S
S1699 N1701 1.610 . S
N1700 S1699 1.613 . S
N1700 C1703 1.350 . S
N1701 S1699 1.610 . S
N1701 C1702 1.351 . S
C1702 C1696 1.428 . S
C1702 N1701 1.351 . S
C1702 C1703 1.434 . S
C1703 C1694 1.429 . S
C1703 N1700 1.350 . S
C1703 C1702 1.434 . S
C1704 C1705 1.369 . S
C1704 C1706 1.419 . S
C1704 H1708 0.930 . S
C1705 C1704 1.369 . S
C1705 C1714 1.429 . S
C1706 C1704 1.419 . S
C1706 C1707 1.363 . S
C1706 H1709 0.929 . S
C1707 C1706 1.363 . S
C1707 C1713 1.428 . S
H1708 C1704 0.930 . S
H1709 C1706 0.929 . S
S1710 N1711 1.613 . S
S1710 N1712 1.610 . S
N1711 S1710 1.613 . S
N1711 C1714 1.350 . S
N1712 S1710 1.610 . S
N1712 C1713 1.351 . S
C1713 C1707 1.428 . S
C1713 N1712 1.351 . S
C1713 C1714 1.434 . S
C1714 C1705 1.429 . S
C1714 N1711 1.350 . S
C1714 C1713 1.434 . S
C1715 C1716 1.369 . S
C1715 C1717 1.419 . S
C1715 H1719 0.930 . S
C1716 C1715 1.369 . S
C1716 C1725 1.429 . S
C1717 C1715 1.419 . S
C1717 C1718 1.363 . S
C1717 H1720 0.929 . S
C1718 C1717 1.363 . S
C1718 C1724 1.428 . S
H1719 C1715 0.930 . S
H1720 C1717 0.929 . S
S1721 N1722 1.613 . S
S1721 N1723 1.610 . S
N1722 S1721 1.613 . S
N1722 C1725 1.350 . S
N1723 S1721 1.610 . S
N1723 C1724 1.351 . S
C1724 C1718 1.428 . S
C1724 N1723 1.351 . S
C1724 C1725 1.434 . S
C1725 C1716 1.429 . S
C1725 N1722 1.350 . S
C1725 C1724 1.434 . S
C1726 C1727 1.369 . S
C1726 C1728 1.419 . S
C1726 H1730 0.930 . S
C1727 C1726 1.369 . S
C1727 C1736 1.429 . S
C1728 C1726 1.419 . S
C1728 C1729 1.363 . S
C1728 H1731 0.929 . S
C1729 C1728 1.363 . S
C1729 C1735 1.428 . S
H1730 C1726 0.930 . S
H1731 C1728 0.929 . S
S1732 N1733 1.613 . S
S1732 N1734 1.610 . S
N1733 S1732 1.613 . S
N1733 C1736 1.350 . S
N1734 S1732 1.610 . S
N1734 C1735 1.351 . S
C1735 C1729 1.428 . S
C1735 N1734 1.351 . S
C1735 C1736 1.434 . S
C1736 C1727 1.429 . S
C1736 N1733 1.350 . S
C1736 C1735 1.434 . S
C1737 C1738 1.369 . S
C1737 C1739 1.419 . S
C1737 H1741 0.930 . S
C1738 C1737 1.369 . S
C1738 C1747 1.429 1_556 S
C1739 C1737 1.419 . S
C1739 C1740 1.363 . S
C1739 H1742 0.929 . S
C1740 C1739 1.363 . S
C1740 C1746 1.428 1_556 S
H1741 C1737 0.930 . S
H1742 C1739 0.929 . S
S1743 N1744 1.613 . S
S1743 N1745 1.610 . S
N1744 S1743 1.613 . S
N1744 C1747 1.350 . S
N1745 S1743 1.610 . S
N1745 C1746 1.351 . S
C1746 C1740 1.428 1_554 S
C1746 N1745 1.351 . S
C1746 C1747 1.434 . S
C1747 C1738 1.429 1_554 S
C1747 N1744 1.350 . S
C1747 C1746 1.434 . S
C1748 C1749 1.369 . S
C1748 C1750 1.419 . S
C1748 H1752 0.930 . S
C1749 C1748 1.369 . S
C1749 C1758 1.429 1_556 S
C1750 C1748 1.419 . S
C1750 C1751 1.363 . S
C1750 H1753 0.929 . S
C1751 C1750 1.363 . S
C1751 C1757 1.428 1_556 S
H1752 C1748 0.930 . S
H1753 C1750 0.929 . S
S1754 N1755 1.613 . S
S1754 N1756 1.610 . S
N1755 S1754 1.613 . S
N1755 C1758 1.350 . S
N1756 S1754 1.610 . S
N1756 C1757 1.351 . S
C1757 C1751 1.428 1_554 S
C1757 N1756 1.351 . S
C1757 C1758 1.434 . S
C1758 C1749 1.429 1_554 S
C1758 N1755 1.350 . S
C1758 C1757 1.434 . S
C1759 C1760 1.369 . S
C1759 C1761 1.419 . S
C1759 H1763 0.930 . S
C1760 C1759 1.369 . S
C1760 C1769 1.429 1_556 S
C1761 C1759 1.419 . S
C1761 C1762 1.363 . S
C1761 H1764 0.929 . S
C1762 C1761 1.363 . S
C1762 C1768 1.428 1_556 S
H1763 C1759 0.930 . S
H1764 C1761 0.929 . S
S1765 N1766 1.613 . S
S1765 N1767 1.610 . S
N1766 S1765 1.613 . S
N1766 C1769 1.350 . S
N1767 S1765 1.610 . S
N1767 C1768 1.351 . S
C1768 C1762 1.428 1_554 S
C1768 N1767 1.351 . S
C1768 C1769 1.434 . S
C1769 C1760 1.429 1_554 S
C1769 N1766 1.350 . S
C1769 C1768 1.434 . S
C1770 C1771 1.369 . S
C1770 C1772 1.419 . S
C1770 H1774 0.930 . S
C1771 C1770 1.369 . S
C1771 C1780 1.429 . S
C1772 C1770 1.419 . S
C1772 C1773 1.363 . S
C1772 H1775 0.929 . S
C1773 C1772 1.363 . S
C1773 C1779 1.428 . S
H1774 C1770 0.930 . S
H1775 C1772 0.929 . S
S1776 N1777 1.613 . S
S1776 N1778 1.610 . S
N1777 S1776 1.613 . S
N1777 C1780 1.350 . S
N1778 S1776 1.610 . S
N1778 C1779 1.351 . S
C1779 C1773 1.428 . S
C1779 N1778 1.351 . S
C1779 C1780 1.434 . S
C1780 C1771 1.429 . S
C1780 N1777 1.350 . S
C1780 C1779 1.434 . S
C1781 C1782 1.369 . S
C1781 C1783 1.419 . S
C1781 H1785 0.930 . S
C1782 C1781 1.369 . S
C1782 C1791 1.429 . S
C1783 C1781 1.419 . S
C1783 C1784 1.363 . S
C1783 H1786 0.929 . S
C1784 C1783 1.363 . S
C1784 C1790 1.428 . S
H1785 C1781 0.930 . S
H1786 C1783 0.929 . S
S1787 N1788 1.613 . S
S1787 N1789 1.610 . S
N1788 S1787 1.613 . S
N1788 C1791 1.350 . S
N1789 S1787 1.610 . S
N1789 C1790 1.351 . S
C1790 C1784 1.428 . S
C1790 N1789 1.351 . S
C1790 C1791 1.434 . S
C1791 C1782 1.429 . S
C1791 N1788 1.350 . S
C1791 C1790 1.434 . S
C1792 C1793 1.369 . S
C1792 C1794 1.419 . S
C1792 H1796 0.930 . S
C1793 C1792 1.369 . S
C1793 C1802 1.429 . S
C1794 C1792 1.419 . S
C1794 C1795 1.363 . S
C1794 H1797 0.929 . S
C1795 C1794 1.363 . S
C1795 C1801 1.428 . S
H1796 C1792 0.930 . S
H1797 C1794 0.929 . S
S1798 N1799 1.613 . S
S1798 N1800 1.610 . S
N1799 S1798 1.613 . S
N1799 C1802 1.350 . S
N1800 S1798 1.610 . S
N1800 C1801 1.351 . S
C1801 C1795 1.428 . S
C1801 N1800 1.351 . S
C1801 C1802 1.434 . S
C1802 C1793 1.429 . S
C1802 N1799 1.350 . S
C1802 C1801 1.434 . S
C1803 C1804 1.369 . S
C1803 C1805 1.419 . S
C1803 H1807 0.930 . S
C1804 C1803 1.369 . S
C1804 C1813 1.429 . S
C1805 C1803 1.419 . S
C1805 C1806 1.363 . S
C1805 H1808 0.929 . S
C1806 C1805 1.363 . S
C1806 C1812 1.428 . S
H1807 C1803 0.930 . S
H1808 C1805 0.929 . S
S1809 N1810 1.613 . S
S1809 N1811 1.610 . S
N1810 S1809 1.613 . S
N1810 C1813 1.350 . S
N1811 S1809 1.610 . S
N1811 C1812 1.351 . S
C1812 C1806 1.428 . S
C1812 N1811 1.351 . S
C1812 C1813 1.434 . S
C1813 C1804 1.429 . S
C1813 N1810 1.350 . S
C1813 C1812 1.434 . S
C1814 C1815 1.369 . S
C1814 C1816 1.419 . S
C1814 H1818 0.930 . S
C1815 C1814 1.369 . S
C1815 C1824 1.429 . S
C1816 C1814 1.419 . S
C1816 C1817 1.363 . S
C1816 H1819 0.929 . S
C1817 C1816 1.363 . S
C1817 C1823 1.428 . S
H1818 C1814 0.930 . S
H1819 C1816 0.929 . S
S1820 N1821 1.613 . S
S1820 N1822 1.610 . S
N1821 S1820 1.613 . S
N1821 C1824 1.350 . S
N1822 S1820 1.610 . S
N1822 C1823 1.351 . S
C1823 C1817 1.428 . S
C1823 N1822 1.351 . S
C1823 C1824 1.434 . S
C1824 C1815 1.429 . S
C1824 N1821 1.350 . S
C1824 C1823 1.434 . S
C1825 C1826 1.369 . S
C1825 C1827 1.419 . S
C1825 H1829 0.930 . S
C1826 C1825 1.369 . S
C1826 C1835 1.429 . S
C1827 C1825 1.419 . S
C1827 C1828 1.363 . S
C1827 H1830 0.929 . S
C1828 C1827 1.363 . S
C1828 C1834 1.428 . S
H1829 C1825 0.930 . S
H1830 C1827 0.929 . S
S1831 N1832 1.613 . S
S1831 N1833 1.610 . S
N1832 S1831 1.613 . S
N1832 C1835 1.350 . S
N1833 S1831 1.610 . S
N1833 C1834 1.351 . S
C1834 C1828 1.428 . S
C1834 N1833 1.351 . S
C1834 C1835 1.434 . S
C1835 C1826 1.429 . S
C1835 N1832 1.350 . S
C1835 C1834 1.434 . S
C1836 C1837 1.369 . S
C1836 C1838 1.419 . S
C1836 H1840 0.930 . S
C1837 C1836 1.369 . S
C1837 C1846 1.429 . S
C1838 C1836 1.419 . S
C1838 C1839 1.363 . S
C1838 H1841 0.929 . S
C1839 C1838 1.363 . S
C1839 C1845 1.428 . S
H1840 C1836 0.930 . S
H1841 C1838 0.929 . S
S1842 N1843 1.613 . S
S1842 N1844 1.610 . S
N1843 S1842 1.613 . S
N1843 C1846 1.350 . S
N1844 S1842 1.610 . S
N1844 C1845 1.351 . S
C1845 C1839 1.428 . S
C1845 N1844 1.351 . S
C1845 C1846 1.434 . S
C1846 C1837 1.429 . S
C1846 N1843 1.350 . S
C1846 C1845 1.434 . S
C1847 C1848 1.369 1_545 S
C1847 C1849 1.426 . S
C1847 H1851 0.930 . S
C1848 C1847 1.369 1_565 S
C1848 C1857 1.429 . S
C1849 C1847 1.426 . S
C1849 C1850 1.354 1_545 S
C1849 H1852 0.931 . S
C1850 C1849 1.354 1_565 S
C1850 C1856 1.428 . S
H1851 C1847 0.930 . S
H1852 C1849 0.931 . S
S1853 N1854 1.613 . S
S1853 N1855 1.610 . S
N1854 S1853 1.613 . S
N1854 C1857 1.350 . S
N1855 S1853 1.610 . S
N1855 C1856 1.351 . S
C1856 C1850 1.428 . S
C1856 N1855 1.351 . S
C1856 C1857 1.434 . S
C1857 C1848 1.429 . S
C1857 N1854 1.350 . S
C1857 C1856 1.434 . S
C1858 C1859 1.369 1_655 S
C1858 C1860 1.419 . S
C1858 H1862 0.930 . S
C1859 C1858 1.369 1_455 S
C1859 C1868 1.429 . S
C1860 C1858 1.419 . S
C1860 C1861 1.363 1_655 S
C1860 H1863 0.929 . S
C1861 C1860 1.363 1_455 S
C1861 C1867 1.428 . S
H1862 C1858 0.930 . S
H1863 C1860 0.929 . S
S1864 N1865 1.613 . S
S1864 N1866 1.610 . S
N1865 S1864 1.613 . S
N1865 C1868 1.350 . S
N1866 S1864 1.610 . S
N1866 C1867 1.351 . S
C1867 C1861 1.428 . S
C1867 N1866 1.351 . S
C1867 C1868 1.434 . S
C1868 C1859 1.429 . S
C1868 N1865 1.350 . S
C1868 C1867 1.434 . S
C1869 C1870 1.369 . S
C1869 C1871 1.419 . S
C1869 H1873 0.930 . S
C1870 C1869 1.369 . S
C1870 C1879 1.429 . S
C1871 C1869 1.419 . S
C1871 C1872 1.363 . S
C1871 H1874 0.929 . S
C1872 C1871 1.363 . S
C1872 C1878 1.428 . S
H1873 C1869 0.930 . S
H1874 C1871 0.929 . S
S1875 N1876 1.613 . S
S1875 N1877 1.610 . S
N1876 S1875 1.613 . S
N1876 C1879 1.350 . S
N1877 S1875 1.610 . S
N1877 C1878 1.351 . S
C1878 C1872 1.428 . S
C1878 N1877 1.351 . S
C1878 C1879 1.434 . S
C1879 C1870 1.429 . S
C1879 N1876 1.350 . S
C1879 C1878 1.434 . S
C1880 C1881 1.369 1_565 S
C1880 C1882 1.419 1_565 S
C1880 H1884 0.930 . S
C1881 C1880 1.369 1_545 S
C1881 C1890 1.429 . S
C1882 C1880 1.419 1_545 S
C1882 C1883 1.363 . S
C1882 H1885 0.929 1_545 S
C1883 C1882 1.363 . S
C1883 C1889 1.428 . S
H1884 C1880 0.930 . S
H1885 C1882 0.929 1_565 S
S1886 N1887 1.613 . S
S1886 N1888 1.610 . S
N1887 S1886 1.613 . S
N1887 C1890 1.350 . S
N1888 S1886 1.610 . S
N1888 C1889 1.351 . S
C1889 C1883 1.428 . S
C1889 N1888 1.351 . S
C1889 C1890 1.434 . S
C1890 C1881 1.429 . S
C1890 N1887 1.350 . S
C1890 C1889 1.434 . S
C1891 C1892 1.369 1_455 S
C1891 C1893 1.419 . S
C1891 H1895 0.930 . S
C1892 C1891 1.369 1_655 S
C1892 C1901 1.429 . S
C1893 C1891 1.419 . S
C1893 C1894 1.363 1_455 S
C1893 H1896 0.929 . S
C1894 C1893 1.363 1_655 S
C1894 C1900 1.428 . S
H1895 C1891 0.930 . S
H1896 C1893 0.929 . S
S1897 N1898 1.613 . S
S1897 N1899 1.610 . S
N1898 S1897 1.613 . S
N1898 C1901 1.350 . S
N1899 S1897 1.610 . S
N1899 C1900 1.351 . S
C1900 C1894 1.428 . S
C1900 N1899 1.351 . S
C1900 C1901 1.434 . S
C1901 C1892 1.429 . S
C1901 N1898 1.350 . S
C1901 C1900 1.434 . S
C1902 C1903 1.369 . S
C1902 C1904 1.419 . S
C1902 H1906 0.930 . S
C1903 C1902 1.369 . S
C1903 C1912 1.429 . S
C1904 C1902 1.419 . S
C1904 C1905 1.363 . S
C1904 H1907 0.929 . S
C1905 C1904 1.363 . S
C1905 C1911 1.428 . S
H1906 C1902 0.930 . S
H1907 C1904 0.929 . S
S1908 N1909 1.613 . S
S1908 N1910 1.610 . S
N1909 S1908 1.613 . S
N1909 C1912 1.350 . S
N1910 S1908 1.610 . S
N1910 C1911 1.351 . S
C1911 C1905 1.428 . S
C1911 N1910 1.351 . S
C1911 C1912 1.434 . S
C1912 C1903 1.429 . S
C1912 N1909 1.350 . S
C1912 C1911 1.434 . S
C1913 C1914 1.369 . S
C1913 C1915 1.419 1_545 S
C1913 H1917 0.930 1_545 S
C1914 C1913 1.369 . S
C1914 C1923 1.429 . S
C1915 C1913 1.419 1_565 S
C1915 C1916 1.363 1_565 S
C1915 H1918 0.929 . S
C1916 C1915 1.363 1_545 S
C1916 C1922 1.428 . S
H1917 C1913 0.930 1_565 S
H1918 C1915 0.929 . S
S1919 N1920 1.613 . S
S1919 N1921 1.610 . S
N1920 S1919 1.613 . S
N1920 C1923 1.350 . S
N1921 S1919 1.610 . S
N1921 C1922 1.351 . S
C1922 C1916 1.428 . S
C1922 N1921 1.351 . S
C1922 C1923 1.434 . S
C1923 C1914 1.429 . S
C1923 N1920 1.350 . S
C1923 C1922 1.434 . S
C1924 C1925 1.369 . S
C1924 C1926 1.419 . S
C1924 H1928 0.930 . S
C1925 C1924 1.369 . S
C1925 C1934 1.429 . S
C1926 C1924 1.419 . S
C1926 C1927 1.363 . S
C1926 H1929 0.929 1_655 S
C1927 C1926 1.363 . S
C1927 C1933 1.428 . S
H1928 C1924 0.930 . S
H1929 C1926 0.929 1_455 S
S1930 N1931 1.613 . S
S1930 N1932 1.610 . S
N1931 S1930 1.613 . S
N1931 C1934 1.350 . S
N1932 S1930 1.610 . S
N1932 C1933 1.351 . S
C1933 C1927 1.428 . S
C1933 N1932 1.351 . S
C1933 C1934 1.434 . S
C1934 C1925 1.429 . S
C1934 N1931 1.350 . S
C1934 C1933 1.434 . S
C1935 C1936 1.369 . S
C1935 C1937 1.419 . S
C1935 H1939 0.930 . S
C1936 C1935 1.369 . S
C1936 C1945 1.429 . S
C1937 C1935 1.419 . S
C1937 C1938 1.363 . S
C1937 H1940 0.929 . S
C1938 C1937 1.363 . S
C1938 C1944 1.428 . S
H1939 C1935 0.930 . S
H1940 C1937 0.929 . S
S1941 N1942 1.613 . S
S1941 N1943 1.610 . S
N1942 S1941 1.613 . S
N1942 C1945 1.350 . S
N1943 S1941 1.610 . S
N1943 C1944 1.351 . S
C1944 C1938 1.428 . S
C1944 N1943 1.351 . S
C1944 C1945 1.434 . S
C1945 C1936 1.429 . S
C1945 N1942 1.350 . S
C1945 C1944 1.434 . S
C1946 C1947 1.369 . S
C1946 C1948 1.419 . S
C1946 H1950 0.930 . S
C1947 C1946 1.369 . S
C1947 C1956 1.429 1_565 S
C1948 C1946 1.419 . S
C1948 C1949 1.363 . S
C1948 H1951 0.929 . S
C1949 C1948 1.363 . S
C1949 C1955 1.428 1_565 S
H1950 C1946 0.930 . S
H1951 C1948 0.929 . S
S1952 N1953 1.613 . S
S1952 N1954 1.610 . S
N1953 S1952 1.613 . S
N1953 C1956 1.350 . S
N1954 S1952 1.610 . S
N1954 C1955 1.351 . S
C1955 C1949 1.428 1_545 S
C1955 N1954 1.351 . S
C1955 C1956 1.434 . S
C1956 C1947 1.429 1_545 S
C1956 N1953 1.350 . S
C1956 C1955 1.434 . S
C1957 C1958 1.369 1_655 S
C1957 C1959 1.419 1_655 S
C1957 H1961 0.930 . S
C1958 C1957 1.369 1_455 S
C1958 C1967 1.429 . S
C1959 C1957 1.419 1_455 S
C1959 C1960 1.363 . S
C1959 H1962 0.929 1_455 S
C1960 C1959 1.363 . S
C1960 C1966 1.428 . S
H1961 C1957 0.930 . S
H1962 C1959 0.929 1_655 S
S1963 N1964 1.613 . S
S1963 N1965 1.610 . S
N1964 S1963 1.613 . S
N1964 C1967 1.350 . S
N1965 S1963 1.610 . S
N1965 C1966 1.351 . S
C1966 C1960 1.428 . S
C1966 N1965 1.351 . S
C1966 C1967 1.434 . S
C1967 C1958 1.429 . S
C1967 N1964 1.350 . S
C1967 C1966 1.434 . S
C1968 C1969 1.369 1_455 S
C1968 C1970 1.419 . S
C1968 H1972 0.930 1_455 S
C1969 C1968 1.369 1_655 S
C1969 C1978 1.429 1_655 S
C1970 C1968 1.419 . S
C1970 C1971 1.363 . S
C1970 H1973 0.929 . S
C1971 C1970 1.363 . S
C1971 C1977 1.428 . S
H1972 C1968 0.930 1_655 S
H1973 C1970 0.929 . S
S1974 N1975 1.613 1_455 S
S1974 N1976 1.610 . S
N1975 S1974 1.613 1_655 S
N1975 C1978 1.350 1_655 S
N1976 S1974 1.610 . S
N1976 C1977 1.351 . S
C1977 C1971 1.428 . S
C1977 N1976 1.351 . S
C1977 C1978 1.434 . S
C1978 C1969 1.429 1_455 S
C1978 N1975 1.350 1_455 S
C1978 C1977 1.434 . S
C1979 C1980 1.369 . S
C1979 C1981 1.419 . S
C1979 H1983 0.930 . S
C1980 C1979 1.369 . S
C1980 C1989 1.429 . S
C1981 C1979 1.419 . S
C1981 C1982 1.363 . S
C1981 H1984 0.929 . S
C1982 C1981 1.363 . S
C1982 C1988 1.428 . S
H1983 C1979 0.930 . S
H1984 C1981 0.929 . S
S1985 N1986 1.613 . S
S1985 N1987 1.610 . S
N1986 S1985 1.613 . S
N1986 C1989 1.350 . S
N1987 S1985 1.610 . S
N1987 C1988 1.351 . S
C1988 C1982 1.428 . S
C1988 N1987 1.351 . S
C1988 C1989 1.434 . S
C1989 C1980 1.429 . S
C1989 N1986 1.350 . S
C1989 C1988 1.434 . S
C1990 C1991 1.369 . S
C1990 C1992 1.419 . S
C1990 H1994 0.930 . S
C1991 C1990 1.369 . S
C1991 C2000 1.429 . S
C1992 C1990 1.419 . S
C1992 C1993 1.363 1_565 S
C1992 H1995 0.929 1_565 S
C1993 C1992 1.363 1_545 S
C1993 C1999 1.428 . S
H1994 C1990 0.930 . S
H1995 C1992 0.929 1_545 S
S1996 N1997 1.613 . S
S1996 N1998 1.610 1_565 S
N1997 S1996 1.613 . S
N1997 C2000 1.350 . S
N1998 S1996 1.610 1_545 S
N1998 C1999 1.351 . S
C1999 C1993 1.428 . S
C1999 N1998 1.351 . S
C1999 C2000 1.434 1_545 S
C2000 C1991 1.429 . S
C2000 N1997 1.350 . S
C2000 C1999 1.434 1_565 S
C2001 C2002 1.369 . S
C2001 C2003 1.419 . S
C2001 H2005 0.930 . S
C2002 C2001 1.369 . S
C2002 C2011 1.429 . S
C2003 C2001 1.419 . S
C2003 C2004 1.363 . S
C2003 H2006 0.929 . S
C2004 C2003 1.363 . S
C2004 C2010 1.428 . S
H2005 C2001 0.930 . S
H2006 C2003 0.929 . S
S2007 N2008 1.613 1_655 S
S2007 N2009 1.610 . S
N2008 S2007 1.613 1_455 S
N2008 C2011 1.350 . S
N2009 S2007 1.610 . S
N2009 C2010 1.351 1_655 S
C2010 C2004 1.428 . S
C2010 N2009 1.351 1_455 S
C2010 C2011 1.434 . S
C2011 C2002 1.429 . S
C2011 N2008 1.350 . S
C2011 C2010 1.434 . S
C2012 C2013 1.369 . S
C2012 C2014 1.419 . S
C2012 H2016 0.930 . S
C2013 C2012 1.369 . S
C2013 C2022 1.429 . S
C2014 C2012 1.419 . S
C2014 C2015 1.363 . S
C2014 H2017 0.929 . S
C2015 C2014 1.363 . S
C2015 C2021 1.428 . S
H2016 C2012 0.930 . S
H2017 C2014 0.929 . S
S2018 N2019 1.613 . S
S2018 N2020 1.610 . S
N2019 S2018 1.613 . S
N2019 C2022 1.350 . S
N2020 S2018 1.610 . S
N2020 C2021 1.351 . S
C2021 C2015 1.428 . S
C2021 N2020 1.351 . S
C2021 C2022 1.434 . S
C2022 C2013 1.429 . S
C2022 N2019 1.350 . S
C2022 C2021 1.434 . S
C2023 C2024 1.369 . S
C2023 C2025 1.419 . S
C2023 H2027 0.930 . S
C2024 C2023 1.369 . S
C2024 C2033 1.429 . S
C2025 C2023 1.419 . S
C2025 C2026 1.363 . S
C2025 H2028 0.929 . S
C2026 C2025 1.363 . S
C2026 C2032 1.428 . S
H2027 C2023 0.930 . S
H2028 C2025 0.929 . S
S2029 N2030 1.613 . S
S2029 N2031 1.610 . S
N2030 S2029 1.613 . S
N2030 C2033 1.350 . S
N2031 S2029 1.610 . S
N2031 C2032 1.351 . S
C2032 C2026 1.428 . S
C2032 N2031 1.351 . S
C2032 C2033 1.434 . S
C2033 C2024 1.429 . S
C2033 N2030 1.350 . S
C2033 C2032 1.434 . S
C2034 C2035 1.369 . S
C2034 C2036 1.419 . S
C2034 H2038 0.930 . S
C2035 C2034 1.369 . S
C2035 C2044 1.429 . S
C2036 C2034 1.419 . S
C2036 C2037 1.363 . S
C2036 H2039 0.929 . S
C2037 C2036 1.363 . S
C2037 C2043 1.428 . S
H2038 C2034 0.930 . S
H2039 C2036 0.929 . S
S2040 N2041 1.613 1_545 S
S2040 N2042 1.610 . S
N2041 S2040 1.613 1_565 S
N2041 C2044 1.350 . S
N2042 S2040 1.610 . S
N2042 C2043 1.351 1_545 S
C2043 C2037 1.428 . S
C2043 N2042 1.351 1_565 S
C2043 C2044 1.434 . S
C2044 C2035 1.429 . S
C2044 N2041 1.350 . S
C2044 C2043 1.434 . S
C2045 C2046 1.369 . S
C2045 C2047 1.419 . S
C2045 H2049 0.930 1_455 S
C2046 C2045 1.369 . S
C2046 C2055 1.429 . S
C2047 C2045 1.419 . S
C2047 C2048 1.363 . S
C2047 H2050 0.929 . S
C2048 C2047 1.363 . S
C2048 C2054 1.428 . S
H2049 C2045 0.930 1_655 S
H2050 C2047 0.929 . S
S2051 N2052 1.613 . S
S2051 N2053 1.610 . S
N2052 S2051 1.613 . S
N2052 C2055 1.350 . S
N2053 S2051 1.610 . S
N2053 C2054 1.351 . S
C2054 C2048 1.428 . S
C2054 N2053 1.351 . S
C2054 C2055 1.434 . S
C2055 C2046 1.429 . S
C2055 N2052 1.350 . S
C2055 C2054 1.434 . S
C2056 C2057 1.369 . S
C2056 C2058 1.419 . S
C2056 H2060 0.930 . S
C2057 C2056 1.369 . S
C2057 C2066 1.429 . S
C2058 C2056 1.419 . S
C2058 C2059 1.363 . S
C2058 H2061 0.929 . S
C2059 C2058 1.363 . S
C2059 C2065 1.428 . S
H2060 C2056 0.930 . S
H2061 C2058 0.929 . S
S2062 N2063 1.613 . S
S2062 N2064 1.610 . S
N2063 S2062 1.613 . S
N2063 C2066 1.350 . S
N2064 S2062 1.610 . S
N2064 C2065 1.351 . S
C2065 C2059 1.428 . S
C2065 N2064 1.351 . S
C2065 C2066 1.434 . S
C2066 C2057 1.429 . S
C2066 N2063 1.350 . S
C2066 C2065 1.434 . S
C2067 C2068 1.343 1_554 S
C2067 C2069 1.419 1_565 S
C2067 H2071 0.930 . S
C2068 C2067 1.343 1_556 S
C2068 C2077 1.464 . S
C2069 C2067 1.419 1_545 S
C2069 C2070 1.363 1_554 S
C2069 H2072 0.929 . S
C2070 C2069 1.363 1_556 S
C2070 C2076 1.428 1_545 S
H2071 C2067 0.930 . S
H2072 C2069 0.929 . S
S2073 N2074 1.613 . S
S2073 N2075 1.610 1_565 S
N2074 S2073 1.613 . S
N2074 C2077 1.350 . S
N2075 S2073 1.610 1_545 S
N2075 C2076 1.351 1_545 S
C2076 C2070 1.428 1_565 S
C2076 N2075 1.351 1_565 S
C2076 C2077 1.434 . S
C2077 C2068 1.464 . S
C2077 N2074 1.350 . S
C2077 C2076 1.434 . S
C2078 C2079 1.379 . S
C2078 C2080 1.419 . S
C2078 H2082 0.930 . S
C2079 C2078 1.379 . S
C2079 C2088 1.424 1_556 S
C2080 C2078 1.419 . S
C2080 C2081 1.363 1_455 S
C2080 H2083 0.929 1_455 S
C2081 C2080 1.363 1_655 S
C2081 C2087 1.429 1_556 S
H2082 C2078 0.930 . S
H2083 C2080 0.929 1_655 S
S2084 N2085 1.613 . S
S2084 N2086 1.610 1_455 S
N2085 S2084 1.613 . S
N2085 C2088 1.350 . S
N2086 S2084 1.610 1_655 S
N2086 C2087 1.351 . S
C2087 C2081 1.429 1_554 S
C2087 N2086 1.351 . S
C2087 C2088 1.434 1_655 S
C2088 C2079 1.424 1_554 S
C2088 N2085 1.350 . S
C2088 C2087 1.434 1_455 S
C2089 C2090 1.369 1_554 S
C2089 C2091 1.419 . S
C2089 H2093 0.930 . S
C2090 C2089 1.369 1_556 S
C2090 C2099 1.429 . S
C2091 C2089 1.419 . S
C2091 C2092 1.336 1_554 S
C2091 H2094 0.929 . S
C2092 C2091 1.336 1_556 S
C2092 C2098 1.470 . S
H2093 C2089 0.930 . S
H2094 C2091 0.929 . S
S2095 N2096 1.613 . S
S2095 N2097 1.610 . S
N2096 S2095 1.613 . S
N2096 C2099 1.350 . S
N2097 S2095 1.610 . S
N2097 C2098 1.351 . S
C2098 C2092 1.470 . S
C2098 N2097 1.351 . S
C2098 C2099 1.434 . S
C2099 C2090 1.429 . S
C2099 N2096 1.350 . S
C2099 C2098 1.434 . S
C2100 C2101 1.369 . S
C2100 C2102 1.419 . S
C2100 H2104 0.930 . S
C2101 C2100 1.369 . S
C2101 C2110 1.429 . S
C2102 C2100 1.419 . S
C2102 C2103 1.363 . S
C2102 H2105 0.929 . S
C2103 C2102 1.363 . S
C2103 C2109 1.428 . S
H2104 C2100 0.930 . S
H2105 C2102 0.929 . S
S2106 N2107 1.613 1_565 S
S2106 N2108 1.610 . S
N2107 S2106 1.613 1_545 S
N2107 C2110 1.350 . S
N2108 S2106 1.610 . S
N2108 C2109 1.351 1_565 S
C2109 C2103 1.428 . S
C2109 N2108 1.351 1_545 S
C2109 C2110 1.434 . S
C2110 C2101 1.429 . S
C2110 N2107 1.350 . S
C2110 C2109 1.434 . S
C2111 C2112 1.369 . S
C2111 C2113 1.419 . S
C2111 H2115 0.930 . S
C2112 C2111 1.369 . S
C2112 C2121 1.429 . S
C2113 C2111 1.419 . S
C2113 C2114 1.363 . S
C2113 H2116 0.929 . S
C2114 C2113 1.363 . S
C2114 C2120 1.428 . S
H2115 C2111 0.930 . S
H2116 C2113 0.929 . S
S2117 N2118 1.613 1_455 S
S2117 N2119 1.610 . S
N2118 S2117 1.613 1_655 S
N2118 C2121 1.350 . S
N2119 S2117 1.610 . S
N2119 C2120 1.351 1_455 S
C2120 C2114 1.428 . S
C2120 N2119 1.351 1_655 S
C2120 C2121 1.434 . S
C2121 C2112 1.429 . S
C2121 N2118 1.350 . S
C2121 C2120 1.434 . S
C2122 C2123 1.369 . S
C2122 C2124 1.419 . S
C2122 H2126 0.930 . S
C2123 C2122 1.369 . S
C2123 C2132 1.429 . S
C2124 C2122 1.419 . S
C2124 C2125 1.363 . S
C2124 H2127 0.929 . S
C2125 C2124 1.363 . S
C2125 C2131 1.428 . S
H2126 C2122 0.930 . S
H2127 C2124 0.929 . S
S2128 N2129 1.613 . S
S2128 N2130 1.610 . S
N2129 S2128 1.613 . S
N2129 C2132 1.350 . S
N2130 S2128 1.610 . S
N2130 C2131 1.351 . S
C2131 C2125 1.428 . S
C2131 N2130 1.351 . S
C2131 C2132 1.434 . S
C2132 C2123 1.429 . S
C2132 N2129 1.350 . S
C2132 C2131 1.434 . S
C2133 C2134 1.369 . S
C2133 C2135 1.419 1_565 S
C2133 H2137 0.930 . S
C2134 C2133 1.369 . S
C2134 C2143 1.408 1_564 S
C2135 C2133 1.419 1_545 S
C2135 C2136 1.385 . S
C2135 H2138 0.929 . S
C2136 C2135 1.385 . S
C2136 C2142 1.413 1_554 S
H2137 C2133 0.930 . S
H2138 C2135 0.929 . S
S2139 N2140 1.613 1_545 S
S2139 N2141 1.610 . S
N2140 S2139 1.613 1_565 S
N2140 C2143 1.352 1_565 S
N2141 S2139 1.610 . S
N2141 C2142 1.351 . S
C2142 C2136 1.413 1_556 S
C2142 N2141 1.351 . S
C2142 C2143 1.455 . S
C2143 C2134 1.408 1_546 S
C2143 N2140 1.352 1_545 S
C2143 C2142 1.455 . S
C2144 C2145 1.381 . S
C2144 C2146 1.419 . S
C2144 H2148 0.930 . S
C2145 C2144 1.381 . S
C2145 C2154 1.419 1_554 S
C2146 C2144 1.419 . S
C2146 C2147 1.363 1_655 S
C2146 H2149 0.929 1_655 S
C2147 C2146 1.363 1_455 S
C2147 C2153 1.428 1_554 S
H2148 C2144 0.930 . S
H2149 C2146 0.929 1_455 S
S2150 N2151 1.613 . S
S2150 N2152 1.610 1_655 S
N2151 S2150 1.613 . S
N2151 C2154 1.350 . S
N2152 S2150 1.610 1_455 S
N2152 C2153 1.351 . S
C2153 C2147 1.428 1_556 S
C2153 N2152 1.351 . S
C2153 C2154 1.434 1_455 S
C2154 C2145 1.419 1_556 S
C2154 N2151 1.350 . S
C2154 C2153 1.434 1_655 S
C2155 C2156 1.369 1_556 S
C2155 C2157 1.419 . S
C2155 H2159 0.930 . S
C2156 C2155 1.369 1_554 S
C2156 C2165 1.429 . S
C2157 C2155 1.419 . S
C2157 C2158 1.317 1_556 S
C2157 H2160 0.929 . S
C2158 C2157 1.317 1_554 S
C2158 C2164 1.488 . S
H2159 C2155 0.930 . S
H2160 C2157 0.929 . S
S2161 N2162 1.613 . S
S2161 N2163 1.610 . S
N2162 S2161 1.613 . S
N2162 C2165 1.350 . S
N2163 S2161 1.610 . S
N2163 C2164 1.351 . S
C2164 C2158 1.488 . S
C2164 N2163 1.351 . S
C2164 C2165 1.434 . S
C2165 C2156 1.429 . S
C2165 N2162 1.350 . S
C2165 C2164 1.434 . S
C2166 C2167 1.369 . S
C2166 C2168 1.419 1_455 S
C2166 H2170 0.930 . S
C2167 C2166 1.369 . S
C2167 C2176 1.429 1_455 S
C2168 C2166 1.419 1_655 S
C2168 C2169 1.363 . S
C2168 H2171 0.929 . S
C2169 C2168 1.363 . S
C2169 C2175 1.428 . S
H2170 C2166 0.930 . S
H2171 C2168 0.929 . S
S2172 N2173 1.613 1_655 S
S2172 N2174 1.610 . S
N2173 S2172 1.613 1_455 S
N2173 C2176 1.350 1_455 S
N2174 S2172 1.610 . S
N2174 C2175 1.351 . S
C2175 C2169 1.428 . S
C2175 N2174 1.351 . S
C2175 C2176 1.434 . S
C2176 C2167 1.429 1_655 S
C2176 N2173 1.350 1_655 S
C2176 C2175 1.434 . S
C2177 C2178 1.369 . S
C2177 C2179 1.419 . S
C2177 H2181 0.930 . S
C2178 C2177 1.369 . S
C2178 C2187 1.429 . S
C2179 C2177 1.419 . S
C2179 C2180 1.363 . S
C2179 H2182 0.929 . S
C2180 C2179 1.363 . S
C2180 C2186 1.428 . S
H2181 C2177 0.930 . S
H2182 C2179 0.929 . S
S2183 N2184 1.613 . S
S2183 N2185 1.610 . S
N2184 S2183 1.613 . S
N2184 C2187 1.350 . S
N2185 S2183 1.610 . S
N2185 C2186 1.351 . S
C2186 C2180 1.428 . S
C2186 N2185 1.351 . S
C2186 C2187 1.434 . S
C2187 C2178 1.429 . S
C2187 N2184 1.350 . S
C2187 C2186 1.434 . S
C2188 C2189 1.369 1_545 S
C2188 C2190 1.419 . S
C2188 H2192 0.930 1_545 S
C2189 C2188 1.369 1_565 S
C2189 C2198 1.429 1_565 S
C2190 C2188 1.419 . S
C2190 C2191 1.363 . S
C2190 H2193 0.929 . S
C2191 C2190 1.363 . S
C2191 C2197 1.428 . S
H2192 C2188 0.930 1_565 S
H2193 C2190 0.929 . S
S2194 N2195 1.613 1_545 S
S2194 N2196 1.610 . S
N2195 S2194 1.613 1_565 S
N2195 C2198 1.350 1_565 S
N2196 S2194 1.610 . S
N2196 C2197 1.351 . S
C2197 C2191 1.428 . S
C2197 N2196 1.351 . S
C2197 C2198 1.434 . S
C2198 C2189 1.429 1_545 S
C2198 N2195 1.350 1_545 S
C2198 C2197 1.434 . S
C2199 C2200 1.369 . S
C2199 C2201 1.419 . S
C2199 H2203 0.930 . S
C2200 C2199 1.369 . S
C2200 C2209 1.429 . S
C2201 C2199 1.419 . S
C2201 C2202 1.363 . S
C2201 H2204 0.929 . S
C2202 C2201 1.363 . S
C2202 C2208 1.428 . S
H2203 C2199 0.930 . S
H2204 C2201 0.929 . S
S2205 N2206 1.613 . S
S2205 N2207 1.610 . S
N2206 S2205 1.613 . S
N2206 C2209 1.350 . S
N2207 S2205 1.610 . S
N2207 C2208 1.351 . S
C2208 C2202 1.428 . S
C2208 N2207 1.351 . S
C2208 C2209 1.434 . S
C2209 C2200 1.429 . S
C2209 N2206 1.350 . S
C2209 C2208 1.434 . S
C2210 C2211 1.369 . S
C2210 C2212 1.419 . S
C2210 H2214 0.930 . S
C2211 C2210 1.369 . S
C2211 C2220 1.429 . S
C2212 C2210 1.419 . S
C2212 C2213 1.363 . S
C2212 H2215 0.929 . S
C2213 C2212 1.363 . S
C2213 C2219 1.428 . S
H2214 C2210 0.930 . S
H2215 C2212 0.929 . S
S2216 N2217 1.613 . S
S2216 N2218 1.610 . S
N2217 S2216 1.613 . S
N2217 C2220 1.350 . S
N2218 S2216 1.610 . S
N2218 C2219 1.351 . S
C2219 C2213 1.428 . S
C2219 N2218 1.351 . S
C2219 C2220 1.434 . S
C2220 C2211 1.429 . S
C2220 N2217 1.350 . S
C2220 C2219 1.434 . S
C2221 C2222 1.369 . S
C2221 C2223 1.419 . S
C2221 H2225 0.930 . S
C2222 C2221 1.369 . S
C2222 C2231 1.429 . S
C2223 C2221 1.419 . S
C2223 C2224 1.363 . S
C2223 H2226 0.929 1_545 S
C2224 C2223 1.363 . S
C2224 C2230 1.428 . S
H2225 C2221 0.930 . S
H2226 C2223 0.929 1_565 S
S2227 N2228 1.613 . S
S2227 N2229 1.610 . S
N2228 S2227 1.613 . S
N2228 C2231 1.350 . S
N2229 S2227 1.610 . S
N2229 C2230 1.351 . S
C2230 C2224 1.428 . S
C2230 N2229 1.351 . S
C2230 C2231 1.434 . S
C2231 C2222 1.429 . S
C2231 N2228 1.350 . S
C2231 C2230 1.434 . S
C2232 C2233 1.369 . S
C2232 C2234 1.419 . S
C2232 H2236 0.930 . S
C2233 C2232 1.369 . S
C2233 C2242 1.429 . S
C2234 C2232 1.419 . S
C2234 C2235 1.363 . S
C2234 H2237 0.929 . S
C2235 C2234 1.363 . S
C2235 C2241 1.428 . S
H2236 C2232 0.930 . S
H2237 C2234 0.929 . S
S2238 N2239 1.613 . S
S2238 N2240 1.610 . S
N2239 S2238 1.613 . S
N2239 C2242 1.350 . S
N2240 S2238 1.610 . S
N2240 C2241 1.351 . S
C2241 C2235 1.428 . S
C2241 N2240 1.351 . S
C2241 C2242 1.434 . S
C2242 C2233 1.429 . S
C2242 N2239 1.350 . S
C2242 C2241 1.434 . S
C2243 C2244 1.369 . S
C2243 C2245 1.419 . S
C2243 H2247 0.930 . S
C2244 C2243 1.369 . S
C2244 C2253 1.429 . S
C2245 C2243 1.419 . S
C2245 C2246 1.363 . S
C2245 H2248 0.929 . S
C2246 C2245 1.363 . S
C2246 C2252 1.428 . S
H2247 C2243 0.930 . S
H2248 C2245 0.929 . S
S2249 N2250 1.613 . S
S2249 N2251 1.610 . S
N2250 S2249 1.613 . S
N2250 C2253 1.350 1_545 S
N2251 S2249 1.610 . S
N2251 C2252 1.351 1_545 S
C2252 C2246 1.428 . S
C2252 N2251 1.351 1_565 S
C2252 C2253 1.434 . S
C2253 C2244 1.429 . S
C2253 N2250 1.350 1_565 S
C2253 C2252 1.434 . S
C2254 C2255 1.369 . S
C2254 C2256 1.419 . S
C2254 H2258 0.930 . S
C2255 C2254 1.369 . S
C2255 C2264 1.429 . S
C2256 C2254 1.419 . S
C2256 C2257 1.363 . S
C2256 H2259 0.929 . S
C2257 C2256 1.363 . S
C2257 C2263 1.428 . S
H2258 C2254 0.930 . S
H2259 C2256 0.929 . S
S2260 N2261 1.613 1_655 S
S2260 N2262 1.610 . S
N2261 S2260 1.613 1_455 S
N2261 C2264 1.350 . S
N2262 S2260 1.610 . S
N2262 C2263 1.351 1_655 S
C2263 C2257 1.428 . S
C2263 N2262 1.351 1_455 S
C2263 C2264 1.434 . S
C2264 C2255 1.429 . S
C2264 N2261 1.350 . S
C2264 C2263 1.434 . S
C2265 C2266 1.369 . S
C2265 C2267 1.419 . S
C2265 H2269 0.930 . S
C2266 C2265 1.369 . S
C2266 C2275 1.429 . S
C2267 C2265 1.419 . S
C2267 C2268 1.363 . S
C2267 H2270 0.929 . S
C2268 C2267 1.363 . S
C2268 C2274 1.428 . S
H2269 C2265 0.930 . S
H2270 C2267 0.929 . S
S2271 N2272 1.613 . S
S2271 N2273 1.610 . S
N2272 S2271 1.613 . S
N2272 C2275 1.350 . S
N2273 S2271 1.610 . S
N2273 C2274 1.351 . S
C2274 C2268 1.428 . S
C2274 N2273 1.351 . S
C2274 C2275 1.434 . S
C2275 C2266 1.429 . S
C2275 N2272 1.350 . S
C2275 C2274 1.434 . S
C2276 C2277 1.369 . S
C2276 C2278 1.419 . S
C2276 H2280 0.930 . S
C2277 C2276 1.369 . S
C2277 C2286 1.429 . S
C2278 C2276 1.419 . S
C2278 C2279 1.363 . S
C2278 H2281 0.929 . S
C2279 C2278 1.363 . S
C2279 C2285 1.428 . S
H2280 C2276 0.930 . S
H2281 C2278 0.929 . S
S2282 N2283 1.613 . S
S2282 N2284 1.610 . S
N2283 S2282 1.613 . S
N2283 C2286 1.350 1_565 S
N2284 S2282 1.610 . S
N2284 C2285 1.351 1_565 S
C2285 C2279 1.428 . S
C2285 N2284 1.351 1_545 S
C2285 C2286 1.434 . S
C2286 C2277 1.429 . S
C2286 N2283 1.350 1_545 S
C2286 C2285 1.434 . S
C2287 C2288 1.369 . S
C2287 C2289 1.419 . S
C2287 H2291 0.930 . S
C2288 C2287 1.369 . S
C2288 C2297 1.429 . S
C2289 C2287 1.419 . S
C2289 C2290 1.363 . S
C2289 H2292 0.929 . S
C2290 C2289 1.363 . S
C2290 C2296 1.428 . S
H2291 C2287 0.930 . S
H2292 C2289 0.929 . S
S2293 N2294 1.613 . S
S2293 N2295 1.610 . S
N2294 S2293 1.613 . S
N2294 C2297 1.350 . S
N2295 S2293 1.610 . S
N2295 C2296 1.351 . S
C2296 C2290 1.428 . S
C2296 N2295 1.351 . S
C2296 C2297 1.434 . S
C2297 C2288 1.429 . S
C2297 N2294 1.350 . S
C2297 C2296 1.434 . S
C2298 C2299 1.369 . S
C2298 C2300 1.419 . S
C2298 H2302 0.930 . S
C2299 C2298 1.369 . S
C2299 C2308 1.429 . S
C2300 C2298 1.419 . S
C2300 C2301 1.363 . S
C2300 H2303 0.929 . S
C2301 C2300 1.363 . S
C2301 C2307 1.428 . S
H2302 C2298 0.930 . S
H2303 C2300 0.929 . S
S2304 N2305 1.613 . S
S2304 N2306 1.610 . S
N2305 S2304 1.613 . S
N2305 C2308 1.350 . S
N2306 S2304 1.610 . S
N2306 C2307 1.351 . S
C2307 C2301 1.428 . S
C2307 N2306 1.351 . S
C2307 C2308 1.434 . S
C2308 C2299 1.429 . S
C2308 N2305 1.350 . S
C2308 C2307 1.434 . S
C2309 C2310 1.369 . S
C2309 C2311 1.419 . S
C2309 H2313 0.930 1_545 S
C2310 C2309 1.369 . S
C2310 C2319 1.429 . S
C2311 C2309 1.419 . S
C2311 C2312 1.363 . S
C2311 H2314 0.929 1_545 S
C2312 C2311 1.363 . S
C2312 C2318 1.428 . S
H2313 C2309 0.930 1_565 S
H2314 C2311 0.929 1_565 S
S2315 N2316 1.613 . S
S2315 N2317 1.610 . S
N2316 S2315 1.613 . S
N2316 C2319 1.350 . S
N2317 S2315 1.610 . S
N2317 C2318 1.351 . S
C2318 C2312 1.428 . S
C2318 N2317 1.351 . S
C2318 C2319 1.434 . S
C2319 C2310 1.429 . S
C2319 N2316 1.350 . S
C2319 C2318 1.434 . S
C2320 C2321 1.369 . S
C2320 C2322 1.419 . S
C2320 H2324 0.930 . S
C2321 C2320 1.369 . S
C2321 C2330 1.429 . S
C2322 C2320 1.419 . S
C2322 C2323 1.363 . S
C2322 H2325 0.929 . S
C2323 C2322 1.363 . S
C2323 C2329 1.428 . S
H2324 C2320 0.930 . S
H2325 C2322 0.929 . S
S2326 N2327 1.613 . S
S2326 N2328 1.610 . S
N2327 S2326 1.613 . S
N2327 C2330 1.350 . S
N2328 S2326 1.610 . S
N2328 C2329 1.351 . S
C2329 C2323 1.428 . S
C2329 N2328 1.351 . S
C2329 C2330 1.434 . S
C2330 C2321 1.429 . S
C2330 N2327 1.350 . S
C2330 C2329 1.434 . S
C2331 C2332 1.369 . S
C2331 C2333 1.419 . S
C2331 H2335 0.930 . S
C2332 C2331 1.369 . S
C2332 C2341 1.429 . S
C2333 C2331 1.419 . S
C2333 C2334 1.363 . S
C2333 H2336 0.929 . S
C2334 C2333 1.363 . S
C2334 C2340 1.428 . S
H2335 C2331 0.930 . S
H2336 C2333 0.929 . S
S2337 N2338 1.613 . S
S2337 N2339 1.610 . S
N2338 S2337 1.613 . S
N2338 C2341 1.350 . S
N2339 S2337 1.610 . S
N2339 C2340 1.351 . S
C2340 C2334 1.428 . S
C2340 N2339 1.351 . S
C2340 C2341 1.434 . S
C2341 C2332 1.429 . S
C2341 N2338 1.350 . S
C2341 C2340 1.434 . S
C2342 C2343 1.369 . S
C2342 C2344 1.419 . S
C2342 H2346 0.930 . S
C2343 C2342 1.369 . S
C2343 C2352 1.429 . S
C2344 C2342 1.419 . S
C2344 C2345 1.363 . S
C2344 H2347 0.929 . S
C2345 C2344 1.363 . S
C2345 C2351 1.428 . S
H2346 C2342 0.930 . S
H2347 C2344 0.929 . S
S2348 N2349 1.613 . S
S2348 N2350 1.601 1_545 S
N2349 S2348 1.613 . S
N2349 C2352 1.350 1_545 S
N2350 S2348 1.601 1_565 S
N2350 C2351 1.362 . S
C2351 C2345 1.428 . S
C2351 N2350 1.362 . S
C2351 C2352 1.434 . S
C2352 C2343 1.429 . S
C2352 N2349 1.350 1_565 S
C2352 C2351 1.434 . S
C2353 C2354 1.369 . S
C2353 C2355 1.419 . S
C2353 H2357 0.930 . S
C2354 C2353 1.369 . S
C2354 C2363 1.429 . S
C2355 C2353 1.419 . S
C2355 C2356 1.363 . S
C2355 H2358 0.929 . S
C2356 C2355 1.363 . S
C2356 C2362 1.428 . S
H2357 C2353 0.930 . S
H2358 C2355 0.929 . S
S2359 N2360 1.613 . S
S2359 N2361 1.610 . S
N2360 S2359 1.613 . S
N2360 C2363 1.350 . S
N2361 S2359 1.610 . S
N2361 C2362 1.351 . S
C2362 C2356 1.428 . S
C2362 N2361 1.351 . S
C2362 C2363 1.434 . S
C2363 C2354 1.429 . S
C2363 N2360 1.350 . S
C2363 C2362 1.434 . S
C2364 C2365 1.369 . S
C2364 C2366 1.419 . S
C2364 H2368 0.930 . S
C2365 C2364 1.369 . S
C2365 C2374 1.429 1_455 S
C2366 C2364 1.419 . S
C2366 C2367 1.363 1_455 S
C2366 H2369 0.929 . S
C2367 C2366 1.363 1_655 S
C2367 C2373 1.428 . S
H2368 C2364 0.930 . S
H2369 C2366 0.929 . S
S2370 N2371 1.613 . S
S2370 N2372 1.610 . S
N2371 S2370 1.613 . S
N2371 C2374 1.350 . S
N2372 S2370 1.610 . S
N2372 C2373 1.351 . S
C2373 C2367 1.428 . S
C2373 N2372 1.351 . S
C2373 C2374 1.434 . S
C2374 C2365 1.429 1_655 S
C2374 N2371 1.350 . S
C2374 C2373 1.434 . S
C2375 C2376 1.369 . S
C2375 C2377 1.419 . S
C2375 H2379 0.930 . S
C2376 C2375 1.369 . S
C2376 C2385 1.429 . S
C2377 C2375 1.419 . S
C2377 C2378 1.363 . S
C2377 H2380 0.929 . S
C2378 C2377 1.363 . S
C2378 C2384 1.428 . S
H2379 C2375 0.930 . S
H2380 C2377 0.929 . S
S2381 N2382 1.613 . S
S2381 N2383 1.610 . S
N2382 S2381 1.613 . S
N2382 C2385 1.350 . S
N2383 S2381 1.610 . S
N2383 C2384 1.351 . S
C2384 C2378 1.428 . S
C2384 N2383 1.351 . S
C2384 C2385 1.434 . S
C2385 C2376 1.429 . S
C2385 N2382 1.350 . S
C2385 C2384 1.434 . S
C2386 C2387 1.369 . S
C2386 C2388 1.419 . S
C2386 H2390 0.930 . S
C2387 C2386 1.369 . S
C2387 C2396 1.429 1_565 S
C2388 C2386 1.419 . S
C2388 C2389 1.363 1_565 S
C2388 H2391 0.929 . S
C2389 C2388 1.363 1_545 S
C2389 C2395 1.428 . S
H2390 C2386 0.930 . S
H2391 C2388 0.929 . S
S2392 N2393 1.613 . S
S2392 N2394 1.610 . S
N2393 S2392 1.613 . S
N2393 C2396 1.350 . S
N2394 S2392 1.610 . S
N2394 C2395 1.351 . S
C2395 C2389 1.428 . S
C2395 N2394 1.351 . S
C2395 C2396 1.434 . S
C2396 C2387 1.429 1_545 S
C2396 N2393 1.350 . S
C2396 C2395 1.434 . S
C2397 C2398 1.369 1_545 S
C2397 C2399 1.419 . S
C2397 H2401 0.930 . S
C2398 C2397 1.369 1_565 S
C2398 C2407 1.429 . S
C2399 C2397 1.419 . S
C2399 C2400 1.363 . S
C2399 H2402 0.929 . S
C2400 C2399 1.363 . S
C2400 C2406 1.428 1_545 S
H2401 C2397 0.930 . S
H2402 C2399 0.929 . S
S2403 N2404 1.613 . S
S2403 N2405 1.610 . S
N2404 S2403 1.613 . S
N2404 C2407 1.350 . S
N2405 S2403 1.610 . S
N2405 C2406 1.351 . S
C2406 C2400 1.428 1_565 S
C2406 N2405 1.351 . S
C2406 C2407 1.434 . S
C2407 C2398 1.429 . S
C2407 N2404 1.350 . S
C2407 C2406 1.434 . S
C2408 C2409 1.369 1_455 S
C2408 C2410 1.419 . S
C2408 H2412 0.930 . S
C2409 C2408 1.369 1_655 S
C2409 C2418 1.429 . S
C2410 C2408 1.419 . S
C2410 C2411 1.363 . S
C2410 H2413 0.929 . S
C2411 C2410 1.363 . S
C2411 C2417 1.428 1_455 S
H2412 C2408 0.930 . S
H2413 C2410 0.929 . S
S2414 N2415 1.613 . S
S2414 N2416 1.610 . S
N2415 S2414 1.613 . S
N2415 C2418 1.350 . S
N2416 S2414 1.610 . S
N2416 C2417 1.351 . S
C2417 C2411 1.428 1_655 S
C2417 N2416 1.351 . S
C2417 C2418 1.434 . S
C2418 C2409 1.429 . S
C2418 N2415 1.350 . S
C2418 C2417 1.434 . S
C2419 C2420 1.369 . S
C2419 C2421 1.419 . S
C2419 H2423 0.930 . S
C2420 C2419 1.369 . S
C2420 C2429 1.429 . S
C2421 C2419 1.419 . S
C2421 C2422 1.363 . S
C2421 H2424 0.929 . S
C2422 C2421 1.363 . S
C2422 C2428 1.428 . S
H2423 C2419 0.930 . S
H2424 C2421 0.929 . S
S2425 N2426 1.613 . S
S2425 N2427 1.610 . S
N2426 S2425 1.613 . S
N2426 C2429 1.350 . S
N2427 S2425 1.610 . S
N2427 C2428 1.351 . S
C2428 C2422 1.428 . S
C2428 N2427 1.351 . S
C2428 C2429 1.434 . S
C2429 C2420 1.429 . S
C2429 N2426 1.350 . S
C2429 C2428 1.434 . S
C2430 C2431 1.369 1_455 S
C2430 C2432 1.419 . S
C2430 H2434 0.930 . S
C2431 C2430 1.369 1_655 S
C2431 C2440 1.429 . S
C2432 C2430 1.419 . S
C2432 C2433 1.363 . S
C2432 H2435 0.929 . S
C2433 C2432 1.363 . S
C2433 C2439 1.428 1_455 S
H2434 C2430 0.930 . S
H2435 C2432 0.929 . S
S2436 N2437 1.613 . S
S2436 N2438 1.610 . S
N2437 S2436 1.613 . S
N2437 C2440 1.350 . S
N2438 S2436 1.610 . S
N2438 C2439 1.351 . S
C2439 C2433 1.428 1_655 S
C2439 N2438 1.351 . S
C2439 C2440 1.434 . S
C2440 C2431 1.429 . S
C2440 N2437 1.350 . S
C2440 C2439 1.434 . S
C2441 C2442 1.369 . S
C2441 C2443 1.419 . S
C2441 H2445 0.930 . S
C2442 C2441 1.369 . S
C2442 C2451 1.429 . S
C2443 C2441 1.419 . S
C2443 C2444 1.363 . S
C2443 H2446 0.929 . S
C2444 C2443 1.363 . S
C2444 C2450 1.428 . S
H2445 C2441 0.930 . S
H2446 C2443 0.929 . S
S2447 N2448 1.613 . S
S2447 N2449 1.610 . S
N2448 S2447 1.613 . S
N2448 C2451 1.350 . S
N2449 S2447 1.610 . S
N2449 C2450 1.351 . S
C2450 C2444 1.428 . S
C2450 N2449 1.351 . S
C2450 C2451 1.434 . S
C2451 C2442 1.429 . S
C2451 N2448 1.350 . S
C2451 C2450 1.434 . S
C2452 C2453 1.369 1_565 S
C2452 C2454 1.419 . S
C2452 H2456 0.930 . S
C2453 C2452 1.369 1_545 S
C2453 C2462 1.429 . S
C2454 C2452 1.419 . S
C2454 C2455 1.363 . S
C2454 H2457 0.929 . S
C2455 C2454 1.363 . S
C2455 C2461 1.428 1_565 S
H2456 C2452 0.930 . S
H2457 C2454 0.929 . S
S2458 N2459 1.613 . S
S2458 N2460 1.610 . S
N2459 S2458 1.613 . S
N2459 C2462 1.350 . S
N2460 S2458 1.610 . S
N2460 C2461 1.351 . S
C2461 C2455 1.428 1_545 S
C2461 N2460 1.351 . S
C2461 C2462 1.434 . S
C2462 C2453 1.429 . S
C2462 N2459 1.350 . S
C2462 C2461 1.434 . S
C2463 C2464 1.369 1_455 S
C2463 C2465 1.419 . S
C2463 H2467 0.930 . S
C2464 C2463 1.369 1_655 S
C2464 C2473 1.429 . S
C2465 C2463 1.419 . S
C2465 C2466 1.363 . S
C2465 H2468 0.929 . S
C2466 C2465 1.363 . S
C2466 C2472 1.428 1_455 S
H2467 C2463 0.930 . S
H2468 C2465 0.929 . S
S2469 N2470 1.613 . S
S2469 N2471 1.610 . S
N2470 S2469 1.613 . S
N2470 C2473 1.350 . S
N2471 S2469 1.610 . S
N2471 C2472 1.351 . S
C2472 C2466 1.428 1_655 S
C2472 N2471 1.351 . S
C2472 C2473 1.434 . S
C2473 C2464 1.429 . S
C2473 N2470 1.350 . S
C2473 C2472 1.434 . S
C2474 C2475 1.369 . S
C2474 C2476 1.419 . S
C2474 H2478 0.930 . S
C2475 C2474 1.369 . S
C2475 C2484 1.429 . S
C2476 C2474 1.419 . S
C2476 C2477 1.363 . S
C2476 H2479 0.929 . S
C2477 C2476 1.363 . S
C2477 C2483 1.428 . S
H2478 C2474 0.930 . S
H2479 C2476 0.929 . S
S2480 N2481 1.613 . S
S2480 N2482 1.610 . S
N2481 S2480 1.613 . S
N2481 C2484 1.350 . S
N2482 S2480 1.610 . S
N2482 C2483 1.351 . S
C2483 C2477 1.428 . S
C2483 N2482 1.351 . S
C2483 C2484 1.434 . S
C2484 C2475 1.429 . S
C2484 N2481 1.350 . S
C2484 C2483 1.434 . S
C2485 C2486 1.369 . S
C2485 C2487 1.419 . S
C2485 H2489 0.930 . S
C2486 C2485 1.369 . S
C2486 C2495 1.429 1_545 S
C2487 C2485 1.419 . S
C2487 C2488 1.363 1_545 S
C2487 H2490 0.929 . S
C2488 C2487 1.363 1_565 S
C2488 C2494 1.428 . S
H2489 C2485 0.930 . S
H2490 C2487 0.929 . S
S2491 N2492 1.613 . S
S2491 N2493 1.610 . S
N2492 S2491 1.613 . S
N2492 C2495 1.350 . S
N2493 S2491 1.610 . S
N2493 C2494 1.351 . S
C2494 C2488 1.428 . S
C2494 N2493 1.351 . S
C2494 C2495 1.434 . S
C2495 C2486 1.429 1_565 S
C2495 N2492 1.350 . S
C2495 C2494 1.434 . S
C2496 C2497 1.369 . S
C2496 C2498 1.419 . S
C2496 H2500 0.930 . S
C2497 C2496 1.369 . S
C2497 C2506 1.429 . S
C2498 C2496 1.419 . S
C2498 C2499 1.363 . S
C2498 H2501 0.929 . S
C2499 C2498 1.363 . S
C2499 C2505 1.428 . S
H2500 C2496 0.930 . S
H2501 C2498 0.929 . S
S2502 N2503 1.613 . S
S2502 N2504 1.610 . S
N2503 S2502 1.613 . S
N2503 C2506 1.350 . S
N2504 S2502 1.610 . S
N2504 C2505 1.351 . S
C2505 C2499 1.428 . S
C2505 N2504 1.351 . S
C2505 C2506 1.434 . S
C2506 C2497 1.429 . S
C2506 N2503 1.350 . S
C2506 C2505 1.434 . S
C2507 C2508 1.369 . S
C2507 C2509 1.419 . S
C2507 H2511 0.930 . S
C2508 C2507 1.369 . S
C2508 C2517 1.429 . S
C2509 C2507 1.419 . S
C2509 C2510 1.363 . S
C2509 H2512 0.929 . S
C2510 C2509 1.363 . S
C2510 C2516 1.428 . S
H2511 C2507 0.930 . S
H2512 C2509 0.929 . S
S2513 N2514 1.613 . S
S2513 N2515 1.610 . S
N2514 S2513 1.613 . S
N2514 C2517 1.350 . S
N2515 S2513 1.610 . S
N2515 C2516 1.351 . S
C2516 C2510 1.428 . S
C2516 N2515 1.351 . S
C2516 C2517 1.434 . S
C2517 C2508 1.429 . S
C2517 N2514 1.350 . S
C2517 C2516 1.434 . S
C2518 C2519 1.369 . S
C2518 C2520 1.419 . S
C2518 H2522 0.930 . S
C2519 C2518 1.369 . S
C2519 C2528 1.429 . S
C2520 C2518 1.419 . S
C2520 C2521 1.363 . S
C2520 H2523 0.929 . S
C2521 C2520 1.363 . S
C2521 C2527 1.428 . S
H2522 C2518 0.930 . S
H2523 C2520 0.929 . S
S2524 N2525 1.613 . S
S2524 N2526 1.610 . S
N2525 S2524 1.613 . S
N2525 C2528 1.350 . S
N2526 S2524 1.610 . S
N2526 C2527 1.351 . S
C2527 C2521 1.428 . S
C2527 N2526 1.351 . S
C2527 C2528 1.434 . S
C2528 C2519 1.429 . S
C2528 N2525 1.350 . S
C2528 C2527 1.434 . S
C2529 C2530 1.369 . S
C2529 C2531 1.419 . S
C2529 H2533 0.930 . S
C2530 C2529 1.369 . S
C2530 C2539 1.429 . S
C2531 C2529 1.419 . S
C2531 C2532 1.363 . S
C2531 H2534 0.929 . S
C2532 C2531 1.363 . S
C2532 C2538 1.428 . S
H2533 C2529 0.930 . S
H2534 C2531 0.929 . S
S2535 N2536 1.613 . S
S2535 N2537 1.610 . S
N2536 S2535 1.613 . S
N2536 C2539 1.350 . S
N2537 S2535 1.610 . S
N2537 C2538 1.351 . S
C2538 C2532 1.428 . S
C2538 N2537 1.351 . S
C2538 C2539 1.434 . S
C2539 C2530 1.429 . S
C2539 N2536 1.350 . S
C2539 C2538 1.434 . S
C2540 C2541 1.369 . S
C2540 C2542 1.419 . S
C2540 H2544 0.930 . S
C2541 C2540 1.369 . S
C2541 C2550 1.429 . S
C2542 C2540 1.419 . S
C2542 C2543 1.363 . S
C2542 H2545 0.929 . S
C2543 C2542 1.363 . S
C2543 C2549 1.428 . S
H2544 C2540 0.930 . S
H2545 C2542 0.929 . S
S2546 N2547 1.613 . S
S2546 N2548 1.610 . S
N2547 S2546 1.613 . S
N2547 C2550 1.350 . S
N2548 S2546 1.610 . S
N2548 C2549 1.351 . S
C2549 C2543 1.428 . S
C2549 N2548 1.351 . S
C2549 C2550 1.434 . S
C2550 C2541 1.429 . S
C2550 N2547 1.350 . S
C2550 C2549 1.434 . S
C2551 C2552 1.369 . S
C2551 C2553 1.419 . S
C2551 H2555 0.930 . S
C2552 C2551 1.369 . S
C2552 C2561 1.429 . S
C2553 C2551 1.419 . S
C2553 C2554 1.363 . S
C2553 H2556 0.929 . S
C2554 C2553 1.363 . S
C2554 C2560 1.428 . S
H2555 C2551 0.930 . S
H2556 C2553 0.929 . S
S2557 N2558 1.613 . S
S2557 N2559 1.610 . S
N2558 S2557 1.613 . S
N2558 C2561 1.350 . S
N2559 S2557 1.610 . S
N2559 C2560 1.351 . S
C2560 C2554 1.428 . S
C2560 N2559 1.351 . S
C2560 C2561 1.434 . S
C2561 C2552 1.429 . S
C2561 N2558 1.350 . S
C2561 C2560 1.434 . S
C2562 C2563 1.369 . S
C2562 C2564 1.419 . S
C2562 H2566 0.930 . S
C2563 C2562 1.369 . S
C2563 C2572 1.429 . S
C2564 C2562 1.419 . S
C2564 C2565 1.363 . S
C2564 H2567 0.929 . S
C2565 C2564 1.363 . S
C2565 C2571 1.428 . S
H2566 C2562 0.930 . S
H2567 C2564 0.929 . S
S2568 N2569 1.613 . S
S2568 N2570 1.610 . S
N2569 S2568 1.613 . S
N2569 C2572 1.350 . S
N2570 S2568 1.610 . S
N2570 C2571 1.351 . S
C2571 C2565 1.428 . S
C2571 N2570 1.351 . S
C2571 C2572 1.434 . S
C2572 C2563 1.429 . S
C2572 N2569 1.350 . S
C2572 C2571 1.434 . S
C2573 C2574 1.369 . S
C2573 C2575 1.419 . S
C2573 H2577 0.930 . S
C2574 C2573 1.369 . S
C2574 C2583 1.429 . S
C2575 C2573 1.419 . S
C2575 C2576 1.363 . S
C2575 H2578 0.929 . S
C2576 C2575 1.363 . S
C2576 C2582 1.428 . S
H2577 C2573 0.930 . S
H2578 C2575 0.929 . S
S2579 N2580 1.613 . S
S2579 N2581 1.610 . S
N2580 S2579 1.613 . S
N2580 C2583 1.350 . S
N2581 S2579 1.610 . S
N2581 C2582 1.351 . S
C2582 C2576 1.428 . S
C2582 N2581 1.351 . S
C2582 C2583 1.434 . S
C2583 C2574 1.429 . S
C2583 N2580 1.350 . S
C2583 C2582 1.434 . S
C2584 C2585 1.369 . S
C2584 C2586 1.419 . S
C2584 H2588 0.930 . S
C2585 C2584 1.369 . S
C2585 C2594 1.429 . S
C2586 C2584 1.419 . S
C2586 C2587 1.363 . S
C2586 H2589 0.929 . S
C2587 C2586 1.363 . S
C2587 C2593 1.428 . S
H2588 C2584 0.930 . S
H2589 C2586 0.929 . S
S2590 N2591 1.613 . S
S2590 N2592 1.610 . S
N2591 S2590 1.613 . S
N2591 C2594 1.350 . S
N2592 S2590 1.610 . S
N2592 C2593 1.351 . S
C2593 C2587 1.428 . S
C2593 N2592 1.351 . S
C2593 C2594 1.434 . S
C2594 C2585 1.429 . S
C2594 N2591 1.350 . S
C2594 C2593 1.434 . S
C2595 C2596 1.369 . S
C2595 C2597 1.419 . S
C2595 H2599 0.930 . S
C2596 C2595 1.369 . S
C2596 C2605 1.429 . S
C2597 C2595 1.419 . S
C2597 C2598 1.363 . S
C2597 H2600 0.929 . S
C2598 C2597 1.363 . S
C2598 C2604 1.428 . S
H2599 C2595 0.930 . S
H2600 C2597 0.929 . S
S2601 N2602 1.613 . S
S2601 N2603 1.610 . S
N2602 S2601 1.613 . S
N2602 C2605 1.350 . S
N2603 S2601 1.610 . S
N2603 C2604 1.351 . S
C2604 C2598 1.428 . S
C2604 N2603 1.351 . S
C2604 C2605 1.434 . S
C2605 C2596 1.429 . S
C2605 N2602 1.350 . S
C2605 C2604 1.434 . S
C2606 C2607 1.369 . S
C2606 C2608 1.419 . S
C2606 H2610 0.930 . S
C2607 C2606 1.369 . S
C2607 C2616 1.429 . S
C2608 C2606 1.419 . S
C2608 C2609 1.363 . S
C2608 H2611 0.929 . S
C2609 C2608 1.363 . S
C2609 C2615 1.428 . S
H2610 C2606 0.930 . S
H2611 C2608 0.929 . S
S2612 N2613 1.613 . S
S2612 N2614 1.610 . S
N2613 S2612 1.613 . S
N2613 C2616 1.350 . S
N2614 S2612 1.610 . S
N2614 C2615 1.351 . S
C2615 C2609 1.428 . S
C2615 N2614 1.351 . S
C2615 C2616 1.434 . S
C2616 C2607 1.429 . S
C2616 N2613 1.350 . S
C2616 C2615 1.434 . S
C2617 C2618 1.369 . S
C2617 C2619 1.419 . S
C2617 H2621 0.930 . S
C2618 C2617 1.369 . S
C2618 C2627 1.429 . S
C2619 C2617 1.419 . S
C2619 C2620 1.363 . S
C2619 H2622 0.929 . S
C2620 C2619 1.363 . S
C2620 C2626 1.428 . S
H2621 C2617 0.930 . S
H2622 C2619 0.929 . S
S2623 N2624 1.613 . S
S2623 N2625 1.610 . S
N2624 S2623 1.613 . S
N2624 C2627 1.350 . S
N2625 S2623 1.610 . S
N2625 C2626 1.351 . S
C2626 C2620 1.428 . S
C2626 N2625 1.351 . S
C2626 C2627 1.434 . S
C2627 C2618 1.429 . S
C2627 N2624 1.350 . S
C2627 C2626 1.434 . S
C1441 C9 1.754 . S
C1443 C99 1.850 1_545 S
C1452 C19 1.850 1_655 S
C1454 C49 1.755 1_545 S
C1463 C89 1.757 1_655 S
C1465 C59 1.853 . S
C1474 C129 1.814 . S
C1476 C179 1.917 1_455 S
C1485 C219 1.920 . S
C1487 C169 1.818 1_565 S
C1496 C209 1.820 1_455 S
C1498 C139 1.916 1_565 S
C1507 C258 1.750 . S
C1509 C330 1.854 1_565 S
C1518 C298 1.758 1_565 S
C1520 C250 1.852 1_455 S
C1529 C338 1.754 1_455 S
C1531 C290 1.849 . S
C1540 C378 1.821 . S
C1542 C410 1.920 1_655 S
C1551 C450 1.921 . S
C1553 C418 1.819 1_545 S
C1562 C370 1.921 1_545 S
C1564 C458 1.820 1_655 S
C1573 C579 1.911 . S
C1575 C489 1.811 . S
C1584 C529 1.812 . S
C1586 C499 1.907 . S
C1595 C539 1.906 . S
C1597 C569 1.810 . S
C1606 C609 1.838 . S
C1608 C659 1.935 . S
C1617 C699 1.931 . S
C1619 C649 1.830 . S
C1628 C619 1.936 . S
C1630 C689 1.836 . S
C1639 C738 1.775 . S
C1641 C810 1.878 . S
C1650 C778 1.778 . S
C1652 C730 1.876 . S
C1661 C770 1.879 . S
C1663 C818 1.776 . S
C1672 C890 1.775 . S
C1674 C858 1.691 1_554 S
C1683 C898 1.693 1_554 S
C1685 C930 1.778 . S
C1694 C850 1.778 . S
C1696 C938 1.696 1_554 S
C1705 C969 1.783 . S
C1707 C1059 1.877 . S
C1716 C1009 1.783 . S
C1718 C979 1.877 . S
C1727 C1049 1.776 . S
C1729 C1019 1.879 . S
C1738 C1089 1.690 1_556 S
C1740 C1139 1.776 . S
C1749 C1129 1.690 1_556 S
C1751 C1179 1.774 . S
C1760 C1169 1.689 1_556 S
C1762 C1099 1.774 . S
C1771 C1218 1.804 . S
C1773 C1290 1.906 . S
C1782 C1258 1.806 . S
C1784 C1210 1.906 . S
C1793 C1250 1.907 . S
C1795 C1298 1.812 . S
C1804 C1338 1.840 . S
C1806 C1370 1.934 . S
C1815 C1378 1.834 . S
C1817 C1410 1.934 . S
C1826 C1330 1.930 . S
C1828 C1418 1.835 . S
C1837 C10 1.883 . S
C1839 C809 1.860 . S
C1848 C729 1.861 1_565 S
C1850 C50 1.888 . S
C1859 C90 1.888 . S
C1861 C769 1.860 1_455 S
C1870 C130 1.806 . S
C1872 C1369 1.770 . S
C1881 C1409 1.772 1_545 S
C1883 C170 1.804 . S
C1892 C210 1.807 . S
C1894 C1329 1.769 1_655 S
C1903 C1058 1.856 . S
C1905 C259 1.887 . S
C1914 C299 1.886 . S
C1916 C978 1.863 1_545 S
C1925 C339 1.884 . S
C1927 C1018 1.862 1_655 S
C1936 C658 1.769 . S
C1938 C379 1.802 . S
C1947 C698 1.769 1_565 S
C1949 C419 1.802 . S
C1958 C618 1.766 1_455 S
C1960 C459 1.806 . S
C1969 C490 1.845 . S
C1971 C1289 1.811 . S
C1980 C530 1.847 . S
C1982 C1209 1.816 . S
C1991 C1249 1.818 . S
C1993 C570 1.847 . S
C2002 C409 1.800 . S
C2004 C610 1.838 1_455 S
C2013 C449 1.808 . S
C2015 C650 1.837 . S
C2024 C369 1.808 . S
C2026 C690 1.837 1_565 S
C2035 C98 1.857 . S
C2037 C739 1.877 1_565 S
C2046 C779 1.882 1_455 S
C2048 C18 1.856 . S
C2057 C819 1.879 . S
C2059 C58 1.858 . S
C2068 C1138 1.823 . S
C2070 C859 1.873 . S
C2079 C1178 1.827 . S
C2081 C899 1.873 . S
C2090 C939 1.872 . S
C2092 C1098 1.823 . S
C2101 C329 1.854 . S
C2103 C970 1.877 1_545 S
C2112 C249 1.855 . S
C2114 C1010 1.878 1_655 S
C2123 C289 1.854 . S
C2125 C1050 1.878 . S
C2134 C1090 1.867 . S
C2136 C889 1.826 . S
C2145 C929 1.827 . S
C2147 C1130 1.869 . S
C2156 C1170 1.873 . S
C2158 C849 1.823 . S
C2167 C1219 1.844 . S
C2169 C578 1.812 . S
C2178 C1259 1.847 . S
C2180 C498 1.816 . S
C2189 C1299 1.847 . S
C2191 C538 1.812 . S
C2200 C1339 1.840 1_655 S
C2202 C178 1.801 . S
C2211 C218 1.809 . S
C2213 C1379 1.837 . S
C2222 C138 1.803 . S
C2224 C1419 1.841 1_545 S
C2233 C1166 2.292 . S
C2235 C6 2.290 . S
C2244 C1086 2.297 . S
C2246 C46 2.289 . S
C2255 C86 2.304 . S
C2257 C1126 2.281 . S
C2266 C526 2.467 . S
C2268 C126 2.460 . S
C2277 C166 2.465 . S
C2279 C566 2.465 . S
C2288 C206 2.460 . S
C2290 C486 2.467 . S
C2299 C255 2.299 . S
C2301 C935 2.284 . S
C2310 C295 2.303 . S
C2312 C855 2.279 . S
C2321 C335 2.304 . S
C2323 C895 2.281 . S
C2332 C1255 2.463 . S
C2334 C375 2.462 . S
C2343 C1295 2.468 . S
C2345 C415 2.462 . S
C2354 C1215 2.462 . S
C2356 C455 2.465 . S
C2365 C606 2.495 . S
C2367 C1006 2.502 . S
C2376 C646 2.493 . S
C2378 C1046 2.501 . S
C2387 C686 2.494 . S
C2389 C966 2.502 . S
C2398 C735 2.502 . S
C2400 C1415 2.493 . S
C2409 C1335 2.498 . S
C2411 C775 2.499 . S
C2420 C815 2.496 . S
C2422 C1375 2.495 . S
C2431 C175 1.246 . S
C2433 C15 1.251 . S
C2442 C215 1.248 . S
C2444 C55 1.247 . S
C2453 C135 1.245 . S
C2455 C95 1.250 . S
C2464 C246 1.247 . S
C2466 C406 1.249 . S
C2475 C446 1.246 . S
C2477 C286 1.251 . S
C2486 C326 1.251 . S
C2488 C366 1.246 . S
C2497 C655 1.315 . S
C2499 C495 1.313 . S
C2508 C695 1.316 . S
C2510 C535 1.316 . S
C2519 C615 1.313 . S
C2521 C575 1.313 . S
C2530 C886 1.545 . S
C2532 C726 1.573 . S
C2541 C766 1.562 . S
C2543 C926 1.551 . S
C2552 C806 1.558 . S
C2554 C846 1.555 . S
C2563 C975 1.560 . S
C2565 C1135 1.552 . S
C2574 C1175 1.544 . S
C2576 C1015 1.574 . S
C2585 C1055 1.561 . S
C2587 C1095 1.555 . S
C2596 C1206 1.317 . S
C2598 C1366 1.315 . S
C2607 C1406 1.312 . S
C2609 C1246 1.315 . S
C2618 C1286 1.317 . S
C2620 C1326 1.313 . S
