# Generated by pormake.
# Topology sod, (4)-cn, num edge types: 1
# Building blocks:
#     Node 0, Type 0, BuildingBlock: UXUYUI_clean_sbu_0, # of connection points: 4
#     Node 1, Type 0, BuildingBlock: UXUYUI_clean_sbu_0, # of connection points: 4
#     Node 2, Type 0, BuildingBlock: UXUYUI_clean_sbu_0, # of connection points: 4
#     Node 3, Type 0, BuildingBlock: UXUYUI_clean_sbu_0, # of connection points: 4
#     Node 4, Type 0, BuildingBlock: UXUYUI_clean_sbu_0, # of connection points: 4
#     Node 5, Type 0, BuildingBlock: UXUYUI_clean_sbu_0, # of connection points: 4
#     Node 6, Type 0, BuildingBlock: UXUYUI_clean_sbu_0, # of connection points: 4
#     Node 7, Type 0, BuildingBlock: UXUYUI_clean_sbu_0, # of connection points: 4
#     Node 8, Type 0, BuildingBlock: UXUYUI_clean_sbu_0, # of connection points: 4
#     Node 9, Type 0, BuildingBlock: UXUYUI_clean_sbu_0, # of connection points: 4
#     Node 10, Type 0, BuildingBlock: UXUYUI_clean_sbu_0, # of connection points: 4
#     Node 11, Type 0, BuildingBlock: UXUYUI_clean_sbu_0, # of connection points: 4
#     Edge 12, Type (0, 0), BuildingBlock: OJICUG_clean_linker_0, # of connection points: 2
#     Edge 13, Type (0, 0), BuildingBlock: OJICUG_clean_linker_0, # of connection points: 2
#     Edge 14, Type (0, 0), BuildingBlock: OJICUG_clean_linker_0, # of connection points: 2
#     Edge 15, Type (0, 0), BuildingBlock: OJICUG_clean_linker_0, # of connection points: 2
#     Edge 16, Type (0, 0), BuildingBlock: OJICUG_clean_linker_0, # of connection points: 2
#     Edge 17, Type (0, 0), BuildingBlock: OJICUG_clean_linker_0, # of connection points: 2
#     Edge 18, Type (0, 0), BuildingBlock: OJICUG_clean_linker_0, # of connection points: 2
#     Edge 19, Type (0, 0), BuildingBlock: OJICUG_clean_linker_0, # of connection points: 2
#     Edge 20, Type (0, 0), BuildingBlock: OJICUG_clean_linker_0, # of connection points: 2
#     Edge 21, Type (0, 0), BuildingBlock: OJICUG_clean_linker_0, # of connection points: 2
#     Edge 22, Type (0, 0), BuildingBlock: OJICUG_clean_linker_0, # of connection points: 2
#     Edge 23, Type (0, 0), BuildingBlock: OJICUG_clean_linker_0, # of connection points: 2
#     Edge 24, Type (0, 0), BuildingBlock: OJICUG_clean_linker_0, # of connection points: 2
#     Edge 25, Type (0, 0), BuildingBlock: OJICUG_clean_linker_0, # of connection points: 2
#     Edge 26, Type (0, 0), BuildingBlock: OJICUG_clean_linker_0, # of connection points: 2
#     Edge 27, Type (0, 0), BuildingBlock: OJICUG_clean_linker_0, # of connection points: 2
#     Edge 28, Type (0, 0), BuildingBlock: OJICUG_clean_linker_0, # of connection points: 2
#     Edge 29, Type (0, 0), BuildingBlock: OJICUG_clean_linker_0, # of connection points: 2
#     Edge 30, Type (0, 0), BuildingBlock: OJICUG_clean_linker_0, # of connection points: 2
#     Edge 31, Type (0, 0), BuildingBlock: OJICUG_clean_linker_0, # of connection points: 2
#     Edge 32, Type (0, 0), BuildingBlock: OJICUG_clean_linker_0, # of connection points: 2
#     Edge 33, Type (0, 0), BuildingBlock: OJICUG_clean_linker_0, # of connection points: 2
#     Edge 34, Type (0, 0), BuildingBlock: OJICUG_clean_linker_0, # of connection points: 2
#     Edge 35, Type (0, 0), BuildingBlock: OJICUG_clean_linker_0, # of connection points: 2
# Relax obj value: 0.150
# Max RMSD: 0.167
# Mean RMSD: 0.167
data_MOF--net-sod--node1-UXUYUI_clean_sbu_0--edge1-OJICUG_clean_linker_0
_symmetry_space_group_name_H-M    P1
_symmetry_Int_Tables_number       1
_symmetry_cell_setting            triclinic
loop_
_symmetry_equiv_pos_as_xyz
'x, y, z'
_cell_length_a     51.021979
_cell_length_b     51.021982
_cell_length_c     51.021978
_cell_angle_alpha  90.000087
_cell_angle_beta   89.999968
_cell_angle_gamma 89.999882
loop_
_atom_site_label
_atom_site_type_symbol
_atom_site_fract_x
_atom_site_fract_y
_atom_site_fract_z
_atom_type_partial_charge
Li0 Li 0.975 0.23337 0.49961 0.0
Li1 Li -0.00014 0.26616 0.52448 0.0
Li2 Li 0.99964 0.26614 0.47497 0.0
Li3 Li 0.02451 0.23336 0.49985 0.0
C4 C 0.94376 0.27673 0.4992 0.0
N5 N 0.89037 0.28586 0.49785 0.0
C6 C 0.93061 0.28502 0.52176 0.0
C7 C 0.92981 0.27355 0.47584 0.0
C8 C 0.9036 0.28941 0.52071 0.0
C9 C 0.90282 0.27812 0.47558 0.0
C10 C 0.00035 0.22272 0.55571 0.0
C11 C 0.02411 0.2211 0.59655 0.0
N12 N 0.00187 0.21342 0.60906 0.0
C13 C 0.97781 0.21448 0.56891 0.0
C14 C 0.02377 0.22576 0.56958 0.0
C15 C 0.97894 0.21 0.5959 0.0
C16 C 0.94466 0.19098 0.48222 0.0
N17 N 0.94479 0.21142 0.49929 0.0
C18 C 0.90303 0.19857 0.51624 0.0
C19 C 0.92456 0.21547 0.51617 0.0
C20 C 0.90238 0.17729 0.49879 0.0
C21 C 0.9235 0.17369 0.48152 0.0
H22 H 0.96124 0.18779 0.46944 0.0
H23 H 0.92533 0.23151 0.52995 0.0
C24 C 0.01719 0.30861 0.55477 0.0
N25 N 0.00018 0.28811 0.55469 0.0
C26 C 0.01789 0.3259 0.57593 0.0
C27 C 0.98329 0.30092 0.59648 0.0
C28 C 0.98336 0.28401 0.57496 0.0
C29 C 0.00068 0.32224 0.5971 0.0
H30 H 0.02991 0.31185 0.53816 0.0
H31 H 0.96962 0.26793 0.57421 0.0
C32 C 0.99934 0.22274 0.44374 0.0
N33 N 0.9982 0.21353 0.39036 0.0
C34 C 0.02196 0.21447 0.43069 0.0
C35 C 0.97603 0.22586 0.42971 0.0
C36 C 0.02102 0.21003 0.40368 0.0
C37 C 0.97587 0.22124 0.40272 0.0
C38 C 0.05572 0.27684 0.50028 0.0
C39 C 0.06886 0.28518 0.47774 0.0
C40 C 0.06964 0.27374 0.52366 0.0
C41 C 0.09585 0.28971 0.47883 0.0
C42 C 0.09661 0.27845 0.52397 0.0
N43 N 0.10906 0.28623 0.50172 0.0
C44 C 0.98227 0.30855 0.44464 0.0
C45 C 0.01617 0.28401 0.4245 0.0
C46 C 0.98156 0.32584 0.42348 0.0
N47 N 0.99931 0.28808 0.44475 0.0
C48 C 0.01623 0.30092 0.40297 0.0
C49 C 0.9988 0.32222 0.40234 0.0
H50 H 0.96951 0.31175 0.46123 0.0
H51 H 0.02994 0.26796 0.42526 0.0
C52 C 0.05473 0.19083 0.51711 0.0
N53 N 0.05473 0.21141 0.5002 0.0
C54 C 0.07588 0.17353 0.51783 0.0
C55 C 0.0966 0.19867 0.48344 0.0
C56 C 0.07507 0.21557 0.48348 0.0
C57 C 0.09713 0.17726 0.50074 0.0
H58 H 0.03806 0.18755 0.52974 0.0
H59 H 0.07439 0.2317 0.46981 0.0
O60 O 0.9702 0.2722 0.49989 0.0
O61 O 0.99957 0.22733 0.52928 0.0
O62 O -6e-05 0.2273 0.47018 0.0
O63 O 0.0293 0.27219 0.49954 0.0
H64 H 0.94109 0.28792 0.53991 0.0
H65 H 0.93973 0.2678 0.45806 0.0
H66 H 0.89316 0.29565 0.53808 0.0
H67 H 0.89178 0.27561 0.45765 0.0
H68 H 0.0421 0.2235 0.60753 0.0
H69 H 0.9596 0.21168 0.55849 0.0
H70 H 0.04154 0.23146 0.55961 0.0
H71 H 0.96158 0.20379 0.60639 0.0
H72 H 0.88712 0.20206 0.52986 0.0
H73 H 0.92404 0.15723 0.46812 0.0
H74 H 0.03124 0.34239 0.57536 0.0
H75 H 0.96972 0.29739 0.61242 0.0
H76 H 0.04008 0.21161 0.44124 0.0
H77 H 0.9582 0.23159 0.43955 0.0
H78 H 0.03843 0.2038 0.39332 0.0
H79 H 0.95798 0.2237 0.39162 0.0
H80 H 0.0584 0.28803 0.45957 0.0
H81 H 0.05972 0.26797 0.54143 0.0
H82 H 0.10628 0.29599 0.46148 0.0
H83 H 0.10763 0.27601 0.54192 0.0
H84 H 0.96818 0.34231 0.42404 0.0
H85 H 0.02982 0.29741 0.38705 0.0
H86 H 0.07525 0.15698 0.5311 0.0
H87 H 0.1126 0.20226 0.46996 0.0
Li88 Li 0.73337 -0.00015 0.52447 0.0
Li89 Li 0.76615 0.975 0.4996 0.0
Li90 Li 0.76616 0.0245 0.49984 0.0
Li91 Li 0.73338 0.99964 0.47496 0.0
C92 C 0.7768 0.00031 0.5557 0.0
N93 N 0.78609 0.00176 0.60905 0.0
C94 C 0.78507 0.97776 0.56887 0.0
C95 C 0.77372 0.0237 0.5696 0.0
C96 C 0.78954 0.97885 0.59587 0.0
C97 C 0.77838 0.02402 0.59658 0.0
C98 C 0.72276 0.94376 0.49918 0.0
C99 C 0.72129 0.90283 0.47554 0.0
N100 N 0.71356 0.89039 0.49781 0.0
C101 C 0.71448 0.93061 0.52174 0.0
C102 C 0.7259 0.92982 0.47581 0.0
C103 C 0.71005 0.90361 0.52068 0.0
C104 C 0.6909 0.01716 0.55475 0.0
N105 N 0.71141 0.00018 0.55468 0.0
C106 C 0.69861 0.9833 0.59649 0.0
C107 C 0.71552 0.98337 0.57496 0.0
C108 C 0.67727 0.00068 0.59709 0.0
C109 C 0.67361 0.01787 0.57591 0.0
H110 H 0.68766 0.02988 0.53813 0.0
H111 H 0.7316 0.96964 0.57423 0.0
C112 C 0.80856 0.94467 0.48223 0.0
N113 N 0.7881 0.94478 0.49927 0.0
C114 C 0.82585 0.92351 0.48152 0.0
C115 C 0.80093 0.903 0.51619 0.0
C116 C 0.78403 0.92453 0.51612 0.0
C117 C 0.82223 0.90236 0.49876 0.0
H118 H 0.81177 0.96126 0.46947 0.0
H119 H 0.76797 0.92529 0.52989 0.0
C120 C 0.72269 0.05572 0.50026 0.0
N121 N 0.71334 0.10906 0.50166 0.0
C122 C 0.71438 0.06885 0.47771 0.0
C123 C 0.72579 0.06965 0.52364 0.0
C124 C 0.70987 0.09584 0.47878 0.0
C125 C 0.7211 0.09663 0.52392 0.0
C126 C 0.77679 0.99929 0.44374 0.0
C127 C 0.78507 0.02189 0.43065 0.0
C128 C 0.77367 0.97596 0.42973 0.0
C129 C 0.78953 0.0209 0.40365 0.0
C130 C 0.77831 0.97576 0.40275 0.0
N131 N 0.78604 0.99806 0.39037 0.0
C132 C 0.80866 0.05475 0.51713 0.0
C133 C 0.78396 0.07504 0.48343 0.0
C134 C 0.82595 0.0759 0.51784 0.0
N135 N 0.78811 0.05472 0.50018 0.0
C136 C 0.80087 0.09657 0.48338 0.0
C137 C 0.82225 0.09713 0.50071 0.0
H138 H 0.81192 0.0381 0.52979 0.0
H139 H 0.76785 0.07434 0.46973 0.0
C140 C 0.69093 0.98229 0.44467 0.0
N141 N 0.71143 0.99931 0.44475 0.0
C142 C 0.67364 0.98159 0.42351 0.0
C143 C 0.6986 0.0162 0.40295 0.0
C144 C 0.71551 0.01613 0.42448 0.0
C145 C 0.67728 0.9988 0.40234 0.0
H146 H 0.68771 0.96956 0.46127 0.0
H147 H 0.73158 0.02988 0.42522 0.0
O148 O 0.77219 0.99956 0.52927 0.0
O149 O 0.72732 0.97019 0.49989 0.0
O150 O 0.72733 0.02929 0.49954 0.0
O151 O 0.77221 -7e-05 0.47017 0.0
H152 H 0.78789 0.95957 0.55843 0.0
H153 H 0.768 0.04148 0.55966 0.0
H154 H 0.79577 0.96149 0.60632 0.0
H155 H 0.77595 0.04198 0.60758 0.0
H156 H 0.72376 0.89181 0.4576 0.0
H157 H 0.71161 0.94108 0.5399 0.0
H158 H 0.73164 0.93974 0.45803 0.0
H159 H 0.70381 0.89317 0.53805 0.0
H160 H 0.70216 0.96975 0.61244 0.0
H161 H 0.6571 0.03121 0.57533 0.0
H162 H 0.84232 0.92406 0.46814 0.0
H163 H 0.79742 0.88708 0.52978 0.0
H164 H 0.71153 0.05838 0.45954 0.0
H165 H 0.73155 0.05974 0.54141 0.0
H166 H 0.7036 0.10627 0.46141 0.0
H167 H 0.72355 0.10765 0.54186 0.0
H168 H 0.78793 0.04003 0.44117 0.0
H169 H 0.76793 0.95815 0.43961 0.0
H170 H 0.79577 0.0383 0.39326 0.0
H171 H 0.77585 0.95785 0.39168 0.0
H172 H 0.84248 0.07529 0.53115 0.0
H173 H 0.7973 0.11255 0.46988 0.0
H174 H 0.65715 0.96823 0.42408 0.0
H175 H 0.70213 0.02976 0.38701 0.0
Li176 Li 0.02452 0.76613 0.4996 0.0
Li177 Li 0.99966 0.73335 0.52448 0.0
Li178 Li -0.00012 0.73337 0.47497 0.0
Li179 Li 0.97501 0.76615 0.49983 0.0
C180 C 0.05576 0.72277 0.49931 0.0
N181 N 0.10915 0.71363 0.49817 0.0
C182 C 0.06882 0.71449 0.52192 0.0
C183 C 0.06981 0.72594 0.47601 0.0
C184 C 0.09583 0.71009 0.52099 0.0
C185 C 0.0968 0.72136 0.47586 0.0
C186 C 0.99918 0.77686 0.55568 0.0
C187 C 0.97543 0.77854 0.59653 0.0
N188 N 0.99767 0.78629 0.60901 0.0
C189 C 0.02171 0.78517 0.56886 0.0
C190 C 0.97577 0.77381 0.56957 0.0
C191 C 0.02058 0.78972 0.59584 0.0
C192 C 0.05487 0.80852 0.4822 0.0
N193 N 0.05474 0.78808 0.49927 0.0
C194 C 0.09649 0.80095 0.51624 0.0
C195 C 0.07496 0.78404 0.51616 0.0
C196 C 0.09715 0.82222 0.49877 0.0
C197 C 0.07603 0.82581 0.4815 0.0
H198 H 0.0383 0.8117 0.46941 0.0
H199 H 0.07419 0.76801 0.52995 0.0
C200 C 0.98242 0.69081 0.55469 0.0
N201 N 0.99931 0.7114 0.55469 0.0
C202 C 0.9817 0.67351 0.57584 0.0
C203 C 0.01607 0.69867 0.59657 0.0
C204 C 0.01602 0.71558 0.57504 0.0
C205 C 0.99878 0.67726 0.5971 0.0
H206 H 0.9698 0.68751 0.53801 0.0
H207 H 0.02968 0.73172 0.57437 0.0
C208 C 0.00023 0.77672 0.44372 0.0
N209 N 0.00145 0.78581 0.39033 0.0
C210 C 0.97763 0.78498 0.43062 0.0
C211 C 0.02355 0.77354 0.42972 0.0
C212 C 0.97861 0.78936 0.40361 0.0
C213 C 0.02374 0.7781 0.40273 0.0
C214 C 0.9438 0.72267 0.50036 0.0
C215 C 0.93059 0.71439 0.47784 0.0
C216 C 0.92995 0.72572 0.52379 0.0
C217 C 0.9036 0.70986 0.47901 0.0
C218 C 0.90299 0.72101 0.52417 0.0
N219 N 0.89047 0.71328 0.50195 0.0
C220 C 0.01731 0.69101 0.4446 0.0
C221 C 0.98328 0.71545 0.42455 0.0
C222 C 0.018 0.67372 0.42344 0.0
N223 N 0.0002 0.71143 0.44475 0.0
C224 C 0.9832 0.69854 0.40302 0.0
C225 C 0.00069 0.67729 0.40234 0.0
H226 H 0.03012 0.68784 0.46115 0.0
H227 H 0.96948 0.73147 0.42535 0.0
C228 C 0.94477 0.80867 0.5171 0.0
N229 N 0.9448 0.78811 0.50017 0.0
C230 C 0.92361 0.82596 0.51781 0.0
C231 C 0.90295 0.80086 0.48336 0.0
C232 C 0.92448 0.78395 0.48342 0.0
C233 C 0.90239 0.82224 0.50069 0.0
H234 H 0.96142 0.81194 0.52976 0.0
H235 H 0.92518 0.76783 0.46973 0.0
O236 O 0.02932 0.7273 0.4999 0.0
O237 O -5e-05 0.77218 0.52927 0.0
O238 O 0.99959 0.7722 0.47017 0.0
O239 O 0.97022 0.72733 0.49954 0.0
H240 H 0.05826 0.71159 0.54004 0.0
H241 H 0.05996 0.73168 0.45819 0.0
H242 H 0.1062 0.70385 0.5384 0.0
H243 H 0.1079 0.72386 0.45797 0.0
H244 H 0.95745 0.77613 0.60752 0.0
H245 H 0.0399 0.78798 0.55842 0.0
H246 H 0.958 0.76805 0.55962 0.0
H247 H 0.03793 0.79599 0.6063 0.0
H248 H 0.1124 0.79746 0.52985 0.0
H249 H 0.07549 0.84226 0.46809 0.0
H250 H 0.96844 0.65695 0.57521 0.0
H251 H 0.02953 0.70228 0.61258 0.0
H252 H 0.9595 0.78788 0.44115 0.0
H253 H 0.04135 0.76781 0.4396 0.0
H254 H 0.96121 0.79559 0.39321 0.0
H255 H 0.04165 0.77559 0.39165 0.0
H256 H 0.94099 0.71159 0.45962 0.0
H257 H 0.93994 0.73145 0.54154 0.0
H258 H 0.89311 0.70362 0.46167 0.0
H259 H 0.89203 0.72341 0.54216 0.0
H260 H 0.03143 0.65729 0.42395 0.0
H261 H 0.96956 0.70202 0.38714 0.0
H262 H 0.92422 0.8425 0.5311 0.0
H263 H 0.88697 0.79728 0.46986 0.0
Li264 Li 0.23338 0.02451 0.49964 0.0
Li265 Li 0.26615 0.99965 0.5245 0.0
Li266 Li 0.26615 -0.00012 0.47499 0.0
Li267 Li 0.23336 0.97501 0.49985 0.0
C268 C 0.27675 0.05575 0.49926 0.0
N269 N 0.2859 0.10914 0.49797 0.0
C270 C 0.28501 0.06888 0.52185 0.0
C271 C 0.27361 0.06973 0.47592 0.0
C272 C 0.28941 0.09589 0.52083 0.0
C273 C 0.2782 0.09671 0.47568 0.0
C274 C 0.22271 0.99916 0.55572 0.0
C275 C 0.22112 0.9754 0.59657 0.0
N276 N 0.21339 0.99764 0.60907 0.0
C277 C 0.21443 0.02169 0.56892 0.0
C278 C 0.22579 0.97575 0.5696 0.0
C279 C 0.20994 0.02056 0.5959 0.0
C280 C 0.19099 0.05486 0.48224 0.0
N281 N 0.21143 0.05473 0.49932 0.0
C282 C 0.19857 0.09648 0.51629 0.0
C283 C 0.21547 0.07495 0.51621 0.0
C284 C 0.17729 0.09714 0.49883 0.0
C285 C 0.1737 0.07602 0.48155 0.0
H286 H 0.1878 0.03829 0.46946 0.0
H287 H 0.23151 0.07417 0.52999 0.0
C288 C 0.30862 0.98232 0.55478 0.0
N289 N 0.2881 0.9993 0.55472 0.0
C290 C 0.32591 0.9816 0.57594 0.0
C291 C 0.30089 0.01615 0.59654 0.0
C292 C 0.28398 0.01609 0.57501 0.0
C293 C 0.32223 0.99878 0.59713 0.0
H294 H 0.31187 0.96962 0.53816 0.0
H295 H 0.26789 0.02982 0.57428 0.0
C296 C 0.22275 0.00023 0.44376 0.0
N297 N 0.21354 0.00147 0.39038 0.0
C298 C 0.21445 0.97764 0.43067 0.0
C299 C 0.2259 0.02356 0.42976 0.0
C300 C 0.21002 0.97863 0.40367 0.0
C301 C 0.22129 0.02376 0.40277 0.0
C302 C 0.27683 0.94379 0.50028 0.0
C303 C 0.28514 0.93065 0.47772 0.0
C304 C 0.27375 0.92986 0.52366 0.0
C305 C 0.28964 0.90366 0.47879 0.0
C306 C 0.27844 0.90288 0.52394 0.0
N307 N 0.28619 0.89044 0.50168 0.0
C308 C 0.30857 0.01725 0.44467 0.0
C309 C 0.28402 0.98338 0.42452 0.0
C310 C 0.32586 0.01796 0.42351 0.0
N311 N 0.28809 0.00022 0.44477 0.0
C312 C 0.30092 0.98331 0.40299 0.0
C313 C 0.32223 0.00073 0.40236 0.0
H314 H 0.31178 0.03 0.46127 0.0
H315 H 0.26796 0.96962 0.42527 0.0
C316 C 0.19086 0.94476 0.51712 0.0
N317 N 0.21141 0.94479 0.50018 0.0
C318 C 0.17356 0.92361 0.51783 0.0
C319 C 0.19865 0.90295 0.48337 0.0
C320 C 0.21555 0.92448 0.48343 0.0
C321 C 0.17727 0.90239 0.5007 0.0
H322 H 0.18759 0.96141 0.52979 0.0
H323 H 0.23167 0.92518 0.46973 0.0
O324 O 0.27221 0.02931 0.49993 0.0
O325 O 0.22733 -6e-05 0.5293 0.0
O326 O 0.22732 0.99959 0.4702 0.0
O327 O 0.27219 0.97021 0.49956 0.0
H328 H 0.28788 0.05838 0.54 0.0
H329 H 0.26789 0.05982 0.45812 0.0
H330 H 0.29564 0.1063 0.53822 0.0
H331 H 0.27573 0.10777 0.45776 0.0
H332 H 0.22354 0.95743 0.60756 0.0
H333 H 0.2116 0.03989 0.55849 0.0
H334 H 0.23151 0.95799 0.55964 0.0
H335 H 0.2037 0.03791 0.60638 0.0
H336 H 0.20205 0.11238 0.52991 0.0
H337 H 0.15725 0.07549 0.46814 0.0
H338 H 0.34241 0.96827 0.57536 0.0
H339 H 0.29734 0.02969 0.6125 0.0
H340 H 0.21157 0.95951 0.44119 0.0
H341 H 0.23166 0.04136 0.43963 0.0
H342 H 0.20376 0.96124 0.39328 0.0
H343 H 0.22377 0.04167 0.39169 0.0
H344 H 0.28797 0.94112 0.45955 0.0
H345 H 0.268 0.93977 0.54144 0.0
H346 H 0.2959 0.89323 0.46143 0.0
H347 H 0.27601 0.89186 0.54189 0.0
H348 H 0.34233 0.03133 0.42407 0.0
H349 H 0.2974 0.96973 0.38706 0.0
H350 H 0.15703 0.92422 0.53113 0.0
H351 H 0.20222 0.88697 0.46987 0.0
Li352 Li 0.49986 0.0245 0.23335 0.0
Li353 Li 0.47499 0.99964 0.26613 0.0
Li354 Li 0.5245 -0.00013 0.26612 0.0
Li355 Li 0.49963 0.97499 0.23334 0.0
C356 C 0.50025 0.05574 0.27673 0.0
N357 N 0.50157 0.10912 0.28592 0.0
C358 C 0.47767 0.06887 0.285 0.0
C359 C 0.52361 0.0697 0.27361 0.0
C360 C 0.4787 0.09587 0.28942 0.0
C361 C 0.52385 0.09669 0.27821 0.0
C362 C 0.44377 0.99917 0.22269 0.0
C363 C 0.4029 0.97545 0.22111 0.0
N364 N 0.39042 0.9977 0.21337 0.0
C365 C 0.4306 0.02171 0.21439 0.0
C366 C 0.42987 0.97578 0.22578 0.0
C367 C 0.40361 0.02061 0.20991 0.0
C368 C 0.51725 0.05484 0.19095 0.0
N369 N 0.50019 0.05472 0.2114 0.0
C370 C 0.48325 0.09649 0.19856 0.0
C371 C 0.48332 0.07496 0.21546 0.0
C372 C 0.50069 0.09714 0.17727 0.0
C373 C 0.51795 0.076 0.17366 0.0
H374 H 0.53002 0.03826 0.18775 0.0
H375 H 0.46954 0.07418 0.23151 0.0
C376 C 0.44473 0.98234 0.30861 0.0
N377 N 0.44478 0.99931 0.28808 0.0
C378 C 0.42357 0.98164 0.3259 0.0
C379 C 0.40296 0.01616 0.30087 0.0
C380 C 0.42449 0.0161 0.28396 0.0
C381 C 0.40238 0.9988 0.32222 0.0
H382 H 0.46136 0.96965 0.31186 0.0
H383 H 0.42521 0.02981 0.26786 0.0
C384 C 0.55573 0.00022 0.22272 0.0
N385 N 0.60911 0.00148 0.21349 0.0
C386 C 0.56883 0.97764 0.21442 0.0
C387 C 0.56973 0.02355 0.22586 0.0
C388 C 0.59583 0.97863 0.20997 0.0
C389 C 0.59671 0.02377 0.22124 0.0
C390 C 0.4992 0.94378 0.2768 0.0
C391 C 0.52176 0.93064 0.2851 0.0
C392 C 0.47583 0.92985 0.27373 0.0
C393 C 0.52069 0.90365 0.2896 0.0
C394 C 0.47554 0.90288 0.27841 0.0
N395 N 0.4978 0.89043 0.28615 0.0
C396 C 0.55481 0.01722 0.30855 0.0
C397 C 0.57498 0.98337 0.28398 0.0
C398 C 0.57597 0.01793 0.32585 0.0
N399 N 0.55472 0.0002 0.28807 0.0
C400 C 0.59651 0.98331 0.30089 0.0
C401 C 0.59713 0.00071 0.3222 0.0
H402 H 0.5382 0.02995 0.31177 0.0
H403 H 0.57424 0.96962 0.26792 0.0
C404 C 0.48234 0.94474 0.19085 0.0
N405 N 0.4993 0.94478 0.21139 0.0
C406 C 0.48163 0.92358 0.17355 0.0
C407 C 0.51612 0.90294 0.19862 0.0
C408 C 0.51606 0.92447 0.21552 0.0
C409 C 0.49878 0.90237 0.17725 0.0
H410 H 0.46966 0.96138 0.18759 0.0
H411 H 0.52977 0.92518 0.23163 0.0
O412 O 0.49957 0.0293 0.27218 0.0
O413 O 0.4702 -7e-05 0.2273 0.0
O414 O 0.5293 0.99957 0.22729 0.0
O415 O 0.49993 0.9702 0.27217 0.0
H416 H 0.45952 0.05838 0.28786 0.0
H417 H 0.5414 0.0598 0.26788 0.0
H418 H 0.46132 0.1063 0.29565 0.0
H419 H 0.54178 0.10774 0.27575 0.0
H420 H 0.3919 0.95749 0.22354 0.0
H421 H 0.44104 0.0399 0.21156 0.0
H422 H 0.43982 0.95801 0.23152 0.0
H423 H 0.39314 0.03796 0.20366 0.0
H424 H 0.46965 0.1124 0.20206 0.0
H425 H 0.53135 0.07546 0.1572 0.0
H426 H 0.42416 0.96831 0.34242 0.0
H427 H 0.387 0.0297 0.29731 0.0
H428 H 0.55831 0.9595 0.21154 0.0
H429 H 0.55985 0.04135 0.23161 0.0
H430 H 0.60623 0.96125 0.20372 0.0
H431 H 0.60778 0.04168 0.22372 0.0
H432 H 0.53994 0.94111 0.28792 0.0
H433 H 0.45804 0.93977 0.26798 0.0
H434 H 0.53806 0.89322 0.29585 0.0
H435 H 0.45759 0.89186 0.27599 0.0
H436 H 0.5754 0.03129 0.34233 0.0
H437 H 0.61245 0.96974 0.29736 0.0
H438 H 0.46832 0.92418 0.15703 0.0
H439 H 0.52964 0.88697 0.20219 0.0
Li440 Li 0.97501 0.49986 0.23333 0.0
Li441 Li -0.00012 0.475 0.26611 0.0
Li442 Li 0.99965 0.52451 0.26612 0.0
Li443 Li 0.02451 0.49964 0.23334 0.0
C444 C 0.94379 0.5003 0.27679 0.0
N445 N 0.89044 0.50171 0.28614 0.0
C446 C 0.93063 0.47773 0.28503 0.0
C447 C 0.92987 0.52369 0.27377 0.0
C448 C 0.90364 0.4788 0.28953 0.0
C449 C 0.9029 0.52399 0.27845 0.0
C450 C 0.00027 0.44376 0.22272 0.0
C451 C 0.02386 0.40281 0.2213 0.0
N452 N 0.0016 0.39039 0.21352 0.0
C453 C 0.97771 0.43065 0.21438 0.0
C454 C 0.02361 0.42979 0.22591 0.0
C455 C 0.97875 0.40364 0.20995 0.0
C456 C 0.94472 0.51717 0.19086 0.0
N457 N 0.94479 0.50019 0.21138 0.0
C458 C 0.90298 0.48332 0.19859 0.0
C459 C 0.92451 0.48339 0.21549 0.0
C460 C 0.90238 0.5007 0.17724 0.0
C461 C 0.92356 0.51788 0.17357 0.0
H462 H 0.96134 0.52988 0.18762 0.0
H463 H 0.92525 0.46966 0.23157 0.0
C464 C 0.01722 0.4447 0.30856 0.0
N465 N 0.00021 0.44478 0.28806 0.0
C466 C 0.01793 0.42355 0.32585 0.0
C467 C 0.98333 0.40298 0.30087 0.0
C468 C 0.98339 0.42451 0.28397 0.0
C469 C 0.00073 0.40237 0.3222 0.0
H470 H 0.02995 0.46131 0.31178 0.0
H471 H 0.96965 0.42525 0.26789 0.0
C472 C 0.99917 0.55572 0.22266 0.0
N473 N 0.99766 0.60906 0.2133 0.0
C474 C 0.02169 0.56889 0.21431 0.0
C475 C 0.97577 0.56962 0.22579 0.0
C476 C 0.02056 0.59588 0.2098 0.0
C477 C 0.97544 0.59659 0.2211 0.0
C478 C 0.05575 0.4993 0.27674 0.0
C479 C 0.06884 0.52191 0.28497 0.0
C480 C 0.06975 0.47596 0.27365 0.0
C481 C 0.09584 0.52094 0.2894 0.0
C482 C 0.09673 0.47577 0.27827 0.0
N483 N 0.10912 0.49809 0.28594 0.0
C484 C 0.98238 0.55473 0.30865 0.0
C485 C 0.01603 0.57505 0.28392 0.0
C486 C 0.98167 0.57588 0.32595 0.0
N487 N 0.9993 0.55472 0.28808 0.0
C488 C 0.01608 0.59658 0.30082 0.0
C489 C 0.99877 0.59712 0.32222 0.0
H490 H 0.96974 0.53807 0.31193 0.0
H491 H 0.02971 0.57437 0.26779 0.0
C492 C 0.05486 0.48224 0.19096 0.0
N493 N 0.05473 0.49931 0.2114 0.0
C494 C 0.07603 0.48154 0.17367 0.0
C495 C 0.09649 0.51627 0.19855 0.0
C496 C 0.07496 0.5162 0.21545 0.0
C497 C 0.09715 0.49882 0.17727 0.0
H498 H 0.03829 0.46946 0.18776 0.0
H499 H 0.07418 0.52999 0.23148 0.0
O500 O 0.97021 0.49957 0.27216 0.0
O501 O 0.99959 0.4702 0.22728 0.0
O502 O -6e-05 0.5293 0.2273 0.0
O503 O 0.02931 0.49993 0.27217 0.0
H504 H 0.94109 0.45954 0.28781 0.0
H505 H 0.93981 0.54148 0.26807 0.0
H506 H 0.8932 0.46143 0.29574 0.0
H507 H 0.89189 0.54195 0.27607 0.0
H508 H 0.04178 0.39176 0.22382 0.0
H509 H 0.95957 0.44114 0.21147 0.0
H510 H 0.04139 0.43969 0.2317 0.0
H511 H 0.96138 0.39323 0.20367 0.0
H512 H 0.88703 0.46977 0.20213 0.0
H513 H 0.92414 0.53122 0.15707 0.0
H514 H 0.03128 0.42412 0.34234 0.0
H515 H 0.96978 0.38703 0.29733 0.0
H516 H 0.03987 0.55845 0.21144 0.0
H517 H 0.95802 0.55967 0.23157 0.0
H518 H 0.0379 0.60634 0.20351 0.0
H519 H 0.95748 0.60758 0.22356 0.0
H520 H 0.05832 0.54006 0.2878 0.0
H521 H 0.05987 0.45814 0.26795 0.0
H522 H 0.10624 0.53834 0.2956 0.0
H523 H 0.10781 0.45786 0.27583 0.0
H524 H 0.96839 0.57526 0.34249 0.0
H525 H 0.02956 0.61258 0.29723 0.0
H526 H 0.07549 0.46814 0.15722 0.0
H527 H 0.1124 0.52989 0.20204 0.0
Li528 Li 0.47502 -0.00016 0.73333 0.0
Li529 Li 0.49988 0.97498 0.76611 0.0
Li530 Li 0.49966 0.02449 0.76614 0.0
Li531 Li 0.52453 0.99961 0.73335 0.0
C532 C 0.44381 0.00041 0.77681 0.0
N533 N 0.39047 0.00209 0.7862 0.0
C534 C 0.43054 0.97791 0.78507 0.0
C535 C 0.43 0.02387 0.77379 0.0
C536 C 0.40356 0.97912 0.7896 0.0
C537 C 0.40304 0.0243 0.7785 0.0
C538 C 0.50026 0.94373 0.72279 0.0
C539 C 0.52382 0.90275 0.72143 0.0
N540 N 0.50154 0.89033 0.71373 0.0
C541 C 0.47768 0.9306 0.71453 0.0
C542 C 0.5236 0.92975 0.72597 0.0
C543 C 0.47869 0.90358 0.71017 0.0
C544 C 0.44475 0.01713 0.69084 0.0
N545 N 0.4448 0.00017 0.71138 0.0
C546 C 0.40297 0.98333 0.69862 0.0
C547 C 0.4245 0.9834 0.71552 0.0
C548 C 0.40239 0.00069 0.67726 0.0
C549 C 0.42359 0.01784 0.67356 0.0
H550 H 0.46139 0.02981 0.68758 0.0
H551 H 0.42522 0.96969 0.73163 0.0
C552 C 0.51733 0.94458 0.80845 0.0
N553 N 0.5002 0.94476 0.78805 0.0
C554 C 0.51802 0.92341 0.82573 0.0
C555 C 0.48316 0.90305 0.80095 0.0
C556 C 0.48325 0.92458 0.78405 0.0
C557 C 0.50068 0.90234 0.82218 0.0
H558 H 0.53016 0.96112 0.8116 0.0
H559 H 0.46943 0.92539 0.76805 0.0
C560 C 0.4992 0.05568 0.72261 0.0
N561 N 0.49773 0.10901 0.71312 0.0
C562 C 0.52174 0.06883 0.71427 0.0
C563 C 0.4758 0.0696 0.72566 0.0
C564 C 0.52063 0.09581 0.70969 0.0
C565 C 0.47548 0.09655 0.7209 0.0
C566 C 0.55576 0.99936 0.77673 0.0
C567 C 0.56877 0.02199 0.78502 0.0
C568 C 0.56985 0.97608 0.77356 0.0
C569 C 0.59578 0.0211 0.78944 0.0
C570 C 0.59684 0.97598 0.77816 0.0
N571 N 0.60915 0.99832 0.7859 0.0
C572 C 0.48246 0.05464 0.80873 0.0
C573 C 0.51596 0.07508 0.7839 0.0
C574 C 0.48174 0.07579 0.82604 0.0
N575 N 0.49931 0.05469 0.7881 0.0
C576 C 0.51601 0.0966 0.80081 0.0
C577 C 0.49876 0.09708 0.82226 0.0
H578 H 0.46988 0.03794 0.81205 0.0
H579 H 0.5296 0.07443 0.76773 0.0
C580 C 0.55485 0.98222 0.69095 0.0
N581 N 0.55475 0.99928 0.71141 0.0
C582 C 0.57601 0.98151 0.67365 0.0
C583 C 0.59651 0.0162 0.69855 0.0
C584 C 0.57499 0.01614 0.71546 0.0
C585 C 0.59715 0.99876 0.67726 0.0
H586 H 0.53827 0.96945 0.68776 0.0
H587 H 0.57423 0.02992 0.7315 0.0
O588 O 0.47022 0.99955 0.77215 0.0
O589 O 0.4996 0.97017 0.72728 0.0
O590 O 0.49996 0.02927 0.72731 0.0
O591 O 0.52932 -0.0001 0.77219 0.0
H592 H 0.44091 0.95967 0.78785 0.0
H593 H 0.44002 0.04161 0.76808 0.0
H594 H 0.39304 0.9618 0.79582 0.0
H595 H 0.39212 0.04232 0.77612 0.0
H596 H 0.54174 0.8917 0.72395 0.0
H597 H 0.45953 0.9411 0.71162 0.0
H598 H 0.54139 0.93966 0.7317 0.0
H599 H 0.4613 0.89316 0.70395 0.0
H600 H 0.387 0.96981 0.70219 0.0
H601 H 0.42418 0.03115 0.65703 0.0
H602 H 0.53147 0.92391 0.84215 0.0
H603 H 0.4695 0.88718 0.79749 0.0
H604 H 0.53992 0.05838 0.71146 0.0
H605 H 0.45804 0.05967 0.73143 0.0
H606 H 0.53798 0.10625 0.70341 0.0
H607 H 0.45752 0.10756 0.7233 0.0
H608 H 0.55819 0.04009 0.78792 0.0
H609 H 0.56004 0.95825 0.76781 0.0
H610 H 0.60611 0.03853 0.79569 0.0
H611 H 0.60798 0.95811 0.77566 0.0
H612 H 0.46851 0.07512 0.84263 0.0
H613 H 0.52943 0.11264 0.79718 0.0
H614 H 0.57545 0.96812 0.65719 0.0
H615 H 0.61244 0.0298 0.70205 0.0
Li616 Li -0.00012 0.52451 0.73335 0.0
Li617 Li 0.97501 0.49965 0.76613 0.0
Li618 Li 0.02452 0.49988 0.76611 0.0
Li619 Li 0.99965 0.475 0.73333 0.0
C620 C 0.00023 0.55576 0.7767 0.0
N621 N 0.00147 0.60915 0.78581 0.0
C622 C 0.97764 0.56886 0.78495 0.0
C623 C 0.02357 0.56975 0.77355 0.0
C624 C 0.97863 0.59588 0.78934 0.0
C625 C 0.02377 0.59674 0.77811 0.0
C626 C 0.94379 0.49914 0.72266 0.0
C627 C 0.90297 0.47534 0.72103 0.0
N628 N 0.89045 0.49756 0.71329 0.0
C629 C 0.93058 0.52165 0.71436 0.0
C630 C 0.92994 0.47571 0.72573 0.0
C631 C 0.9036 0.5205 0.70985 0.0
C632 C 0.01731 0.55489 0.69099 0.0
N633 N 0.00021 0.55473 0.71141 0.0
C634 C 0.98321 0.59646 0.69852 0.0
C635 C 0.98329 0.57493 0.71543 0.0
C636 C 0.0007 0.59715 0.67727 0.0
C637 C 0.01801 0.57605 0.6737 0.0
H638 H 0.03012 0.53833 0.68782 0.0
H639 H 0.96948 0.57414 0.73144 0.0
C640 C 0.94477 0.48238 0.80864 0.0
N641 N 0.9448 0.49932 0.78809 0.0
C642 C 0.92361 0.48167 0.82593 0.0
C643 C 0.90295 0.51613 0.80084 0.0
C644 C 0.92448 0.51607 0.78394 0.0
C645 C 0.90239 0.4988 0.82222 0.0
H646 H 0.96142 0.46972 0.81191 0.0
H647 H 0.92518 0.52976 0.76782 0.0
C648 C 0.05575 0.50018 0.72273 0.0
N649 N 0.10914 0.50134 0.71357 0.0
C650 C 0.06881 0.47758 0.71443 0.0
C651 C 0.06979 0.52349 0.72591 0.0
C652 C 0.09582 0.47853 0.71002 0.0
C653 C 0.09678 0.52365 0.72132 0.0
C654 C 0.99919 0.4438 0.77682 0.0
C655 C 0.02173 0.43063 0.78511 0.0
C656 C 0.97579 0.4299 0.77378 0.0
C657 C 0.02063 0.40365 0.78965 0.0
C658 C 0.97546 0.40293 0.7785 0.0
N659 N 0.99772 0.39046 0.78624 0.0
C660 C 0.05484 0.51725 0.80852 0.0
C661 C 0.07498 0.48335 0.784 0.0
C662 C 0.076 0.51796 0.82581 0.0
N663 N 0.05474 0.5002 0.78806 0.0
C664 C 0.09651 0.48328 0.8009 0.0
C665 C 0.09715 0.50072 0.8222 0.0
H666 H 0.03826 0.53001 0.81172 0.0
H667 H 0.07422 0.46958 0.76795 0.0
C668 C 0.98238 0.44478 0.69081 0.0
N669 N 0.9993 0.44479 0.71138 0.0
C670 C 0.98166 0.42362 0.67351 0.0
C671 C 0.01609 0.40293 0.69862 0.0
C672 C 0.01603 0.42446 0.71553 0.0
C673 C 0.99877 0.40239 0.67723 0.0
H674 H 0.96973 0.46144 0.68753 0.0
H675 H 0.02972 0.42515 0.73166 0.0
O676 O 0.99959 0.52931 0.77218 0.0
O677 O 0.97021 0.49995 0.72731 0.0
O678 O 0.02931 0.49958 0.72728 0.0
O679 O -5e-05 0.47021 0.77216 0.0
H680 H 0.9595 0.55835 0.78783 0.0
H681 H 0.04137 0.55986 0.76783 0.0
H682 H 0.96123 0.60628 0.79555 0.0
H683 H 0.04168 0.60781 0.77563 0.0
H684 H 0.892 0.45735 0.72345 0.0
H685 H 0.94099 0.53986 0.71154 0.0
H686 H 0.93991 0.45796 0.73147 0.0
H687 H 0.89311 0.53783 0.70359 0.0
H688 H 0.96956 0.61235 0.702 0.0
H689 H 0.03144 0.57554 0.65727 0.0
H690 H 0.92422 0.46837 0.84247 0.0
H691 H 0.88697 0.52963 0.79727 0.0
H692 H 0.05827 0.45946 0.71152 0.0
H693 H 0.05994 0.5413 0.73168 0.0
H694 H 0.10619 0.46113 0.70376 0.0
H695 H 0.10788 0.54154 0.72383 0.0
H696 H 0.03993 0.44108 0.78791 0.0
H697 H 0.95801 0.43984 0.76804 0.0
H698 H 0.03798 0.3932 0.7959 0.0
H699 H 0.9575 0.39193 0.77611 0.0
H700 H 0.07545 0.53134 0.84228 0.0
H701 H 0.11244 0.46969 0.79739 0.0
H702 H 0.96837 0.42424 0.65697 0.0
H703 H 0.02958 0.38694 0.7022 0.0
Li704 Li 0.23337 0.49985 0.02449 0.0
Li705 Li 0.26614 0.47499 0.99961 0.0
Li706 Li 0.26616 0.5245 -0.00015 0.0
Li707 Li 0.23337 0.49963 0.97498 0.0
C708 C 0.27683 0.5003 0.0557 0.0
N709 N 0.28617 0.50175 0.10905 0.0
C710 C 0.28514 0.47776 0.06886 0.0
C711 C 0.27373 0.52369 0.06962 0.0
C712 C 0.28965 0.47886 0.09585 0.0
C713 C 0.27841 0.524 0.09659 0.0
C714 C 0.22274 0.44376 0.99925 0.0
C715 C 0.22124 0.40279 0.9757 0.0
N716 N 0.21352 0.39039 0.99799 0.0
C717 C 0.21448 0.43066 0.02185 0.0
C718 C 0.22586 0.42977 0.97591 0.0
C719 C 0.21004 0.40365 0.02085 0.0
C720 C 0.19087 0.51714 0.05473 0.0
N721 N 0.21141 0.50019 0.0547 0.0
C722 C 0.19865 0.48339 0.09655 0.0
C723 C 0.21556 0.48344 0.07502 0.0
C724 C 0.17728 0.50072 0.09711 0.0
C725 C 0.17357 0.51785 0.07589 0.0
H726 H 0.1876 0.52981 0.03809 0.0
H727 H 0.23167 0.46974 0.07431 0.0
C728 C 0.30855 0.44465 0.98223 0.0
N729 N 0.28809 0.44477 0.99928 0.0
C730 C 0.32584 0.42349 0.98153 0.0
C731 C 0.30093 0.40299 0.01621 0.0
C732 C 0.28402 0.42453 0.01614 0.0
C733 C 0.32222 0.40235 0.99877 0.0
H734 H 0.31175 0.46124 0.96947 0.0
H735 H 0.26798 0.42529 0.02991 0.0
C736 C 0.2227 0.55571 0.0003 0.0
N737 N 0.21336 0.60906 0.00173 0.0
C738 C 0.21443 0.56888 0.97774 0.0
C739 C 0.22577 0.56963 0.02369 0.0
C740 C 0.20993 0.59587 0.97883 0.0
C741 C 0.22108 0.5966 0.02399 0.0
C742 C 0.27677 0.49925 0.94375 0.0
C743 C 0.28507 0.52183 0.93063 0.0
C744 C 0.27361 0.47591 0.92977 0.0
C745 C 0.28951 0.52081 0.90363 0.0
C746 C 0.27822 0.47568 0.90278 0.0
N747 N 0.28598 0.49796 0.89037 0.0
C748 C 0.30863 0.55477 0.01716 0.0
C749 C 0.28398 0.575 0.9834 0.0
C750 C 0.32592 0.57593 0.01787 0.0
N751 N 0.28811 0.55471 0.00018 0.0
C752 C 0.30089 0.59654 0.98334 0.0
C753 C 0.32224 0.59713 0.00071 0.0
H754 H 0.31188 0.53814 0.02985 0.0
H755 H 0.26789 0.57428 0.96968 0.0
C756 C 0.19094 0.48229 0.94468 0.0
N757 N 0.21142 0.49931 0.94476 0.0
C758 C 0.17364 0.48158 0.92352 0.0
C759 C 0.1986 0.5162 0.90297 0.0
C760 C 0.21551 0.51614 0.9245 0.0
C761 C 0.17728 0.4988 0.90236 0.0
H762 H 0.18772 0.46955 0.96128 0.0
H763 H 0.23157 0.52989 0.92525 0.0
O764 O 0.27219 0.49956 0.02928 0.0
O765 O 0.22732 0.4702 -9e-05 0.0
O766 O 0.22733 0.52929 0.99956 0.0
O767 O 0.2722 0.49992 0.97018 0.0
H768 H 0.28799 0.45958 0.05841 0.0
H769 H 0.26797 0.54146 0.05968 0.0
H770 H 0.29591 0.46151 0.1063 0.0
H771 H 0.27597 0.54196 0.1076 0.0
H772 H 0.22369 0.39173 0.95778 0.0
H773 H 0.21163 0.44116 0.03999 0.0
H774 H 0.23158 0.43966 0.95811 0.0
H775 H 0.20381 0.39325 0.03824 0.0
H776 H 0.20223 0.46988 0.11253 0.0
H777 H 0.15704 0.53116 0.07528 0.0
H778 H 0.3423 0.42404 0.96814 0.0
H779 H 0.29742 0.38707 0.02981 0.0
H780 H 0.21161 0.55842 0.95956 0.0
H781 H 0.23149 0.55969 0.04147 0.0
H782 H 0.20369 0.60632 0.96147 0.0
H783 H 0.2235 0.60761 0.04195 0.0
H784 H 0.28796 0.53997 0.94114 0.0
H785 H 0.26785 0.45812 0.93966 0.0
H786 H 0.29577 0.53819 0.89322 0.0
H787 H 0.27573 0.45776 0.89172 0.0
H788 H 0.34243 0.57534 0.0312 0.0
H789 H 0.29733 0.6125 0.9698 0.0
H790 H 0.15716 0.46822 0.92409 0.0
H791 H 0.20213 0.52977 0.88703 0.0
Li792 Li 0.52452 0.26613 0.99961 0.0
Li793 Li 0.49965 0.23335 0.02449 0.0
Li794 Li 0.49987 0.23336 0.97499 0.0
Li795 Li 0.47501 0.26614 -0.00016 0.0
C796 C 0.55575 0.22274 0.9993 0.0
N797 N 0.60913 0.21356 0.99813 0.0
C798 C 0.56881 0.21443 0.0219 0.0
C799 C 0.56978 0.22592 0.976 0.0
C800 C 0.59582 0.21001 0.02094 0.0
C801 C 0.59677 0.22132 0.97582 0.0
C802 C 0.49921 0.27684 0.05569 0.0
C803 C 0.47553 0.27853 0.09658 0.0
N804 N 0.49779 0.28626 0.10903 0.0
C805 C 0.52177 0.28513 0.06884 0.0
C806 C 0.47582 0.27381 0.06962 0.0
C807 C 0.52069 0.28967 0.09582 0.0
C808 C 0.55483 0.30854 0.98223 0.0
N809 N 0.55474 0.28807 0.99927 0.0
C810 C 0.59652 0.30091 0.01618 0.0
C811 C 0.57499 0.284 0.01612 0.0
C812 C 0.59714 0.32221 0.99875 0.0
C813 C 0.57599 0.32584 0.98152 0.0
H814 H 0.53824 0.31175 0.96948 0.0
H815 H 0.57424 0.26795 0.02988 0.0
C816 C 0.48238 0.19084 0.05473 0.0
N817 N 0.49931 0.2114 0.05471 0.0
C818 C 0.48167 0.17354 0.07589 0.0
C819 C 0.5161 0.19865 0.09657 0.0
C820 C 0.51604 0.21556 0.07504 0.0
C821 C 0.49878 0.17726 0.09712 0.0
H822 H 0.46973 0.18756 0.03807 0.0
H823 H 0.52973 0.23168 0.07434 0.0
C824 C 0.50023 0.2767 0.94373 0.0
N825 N 0.50149 0.28579 0.89033 0.0
C826 C 0.47764 0.28492 0.93061 0.0
C827 C 0.52358 0.27356 0.92975 0.0
C828 C 0.47863 0.2893 0.90359 0.0
C829 C 0.52379 0.27812 0.90275 0.0
C830 C 0.44379 0.22269 0.00038 0.0
C831 C 0.43056 0.21438 0.97787 0.0
C832 C 0.42994 0.22578 0.02381 0.0
C833 C 0.40358 0.20988 0.97904 0.0
C834 C 0.40297 0.2211 0.02419 0.0
N835 N 0.39044 0.21335 0.00198 0.0
C836 C 0.51731 0.191 0.94461 0.0
C837 C 0.48325 0.21541 0.92458 0.0
C838 C 0.518 0.17371 0.92345 0.0
N839 N 0.50019 0.2114 0.94477 0.0
C840 C 0.48317 0.1985 0.90306 0.0
C841 C 0.50067 0.17726 0.90237 0.0
H842 H 0.53013 0.18784 0.96116 0.0
H843 H 0.46944 0.23142 0.92539 0.0
C844 C 0.44476 0.30865 0.01712 0.0
N845 N 0.44479 0.2881 0.00017 0.0
C846 C 0.4236 0.32594 0.01783 0.0
C847 C 0.40295 0.30085 0.98336 0.0
C848 C 0.42448 0.28395 0.98342 0.0
C849 C 0.40238 0.32223 0.00069 0.0
H850 H 0.4614 0.31192 0.02978 0.0
H851 H 0.42519 0.26784 0.96972 0.0
O852 O 0.52931 0.22729 -9e-05 0.0
O853 O 0.49995 0.27218 0.02927 0.0
O854 O 0.49958 0.27218 0.97017 0.0
O855 O 0.47021 0.22732 0.99956 0.0
H856 H 0.55827 0.21152 0.04002 0.0
H857 H 0.55993 0.23169 0.95819 0.0
H858 H 0.60619 0.20374 0.03834 0.0
H859 H 0.60787 0.22383 0.95793 0.0
H860 H 0.45757 0.27613 0.1076 0.0
H861 H 0.53996 0.28793 0.05837 0.0
H862 H 0.45804 0.26808 0.05969 0.0
H863 H 0.53806 0.29592 0.10625 0.0
H864 H 0.61245 0.2974 0.02976 0.0
H865 H 0.57543 0.34231 0.96815 0.0
H866 H 0.46838 0.157 0.07527 0.0
H867 H 0.52959 0.20224 0.11256 0.0
H868 H 0.45949 0.28779 0.94111 0.0
H869 H 0.54138 0.26786 0.93965 0.0
H870 H 0.46124 0.29549 0.89318 0.0
H871 H 0.54171 0.27564 0.89169 0.0
H872 H 0.44097 0.21154 0.95966 0.0
H873 H 0.43992 0.23152 0.04155 0.0
H874 H 0.39308 0.20362 0.96172 0.0
H875 H 0.39201 0.22353 0.04218 0.0
H876 H 0.53144 0.15729 0.92396 0.0
H877 H 0.46951 0.20196 0.88718 0.0
H878 H 0.4242 0.34247 0.03113 0.0
H879 H 0.38697 0.29728 0.96985 0.0
Li880 Li 0.73337 0.5245 0.99962 0.0
Li881 Li 0.76615 0.49963 0.02448 0.0
Li882 Li 0.76615 0.49986 0.97497 0.0
Li883 Li 0.73337 0.47499 -0.00017 0.0
C884 C 0.77679 0.55572 0.99922 0.0
N885 N 0.78605 0.60909 0.99789 0.0
C886 C 0.7851 0.56884 0.02179 0.0
C887 C 0.77365 0.56969 0.97587 0.0
C888 C 0.78956 0.59584 0.02075 0.0
C889 C 0.77829 0.59667 0.97562 0.0
C890 C 0.72271 0.49922 0.0557 0.0
C891 C 0.72114 0.47559 0.09663 0.0
N892 N 0.71342 0.49787 0.10906 0.0
C893 C 0.71444 0.52179 0.06883 0.0
C894 C 0.7258 0.47585 0.06965 0.0
C895 C 0.70996 0.52075 0.09583 0.0
C896 C 0.6909 0.55477 0.9823 0.0
N897 N 0.71142 0.55471 0.99928 0.0
C898 C 0.69862 0.59652 0.01615 0.0
C899 C 0.71552 0.575 0.01608 0.0
C900 C 0.67727 0.59712 0.99877 0.0
C901 C 0.67361 0.57593 0.98159 0.0
H902 H 0.68767 0.53815 0.96959 0.0
H903 H 0.73161 0.57427 0.02981 0.0
C904 C 0.8086 0.48229 0.05477 0.0
N905 N 0.7881 0.49929 0.0547 0.0
C906 C 0.82589 0.48158 0.07593 0.0
C907 C 0.8009 0.51616 0.09651 0.0
C908 C 0.78399 0.5161 0.07498 0.0
C909 C 0.82223 0.49877 0.09711 0.0
H910 H 0.81184 0.46958 0.03815 0.0
H911 H 0.76792 0.52983 0.07424 0.0
C912 C 0.72274 0.50027 0.94374 0.0
N913 N 0.71349 0.50162 0.89038 0.0
C914 C 0.71448 0.47769 0.93061 0.0
C915 C 0.72583 0.52363 0.9298 0.0
C916 C 0.71003 0.47874 0.90361 0.0
C917 C 0.7212 0.5239 0.90282 0.0
C918 C 0.77679 0.44376 0.00027 0.0
C919 C 0.7851 0.43061 0.97772 0.0
C920 C 0.77367 0.42984 0.02364 0.0
C921 C 0.78956 0.40362 0.9788 0.0
C922 C 0.77832 0.40286 0.02394 0.0
N923 N 0.78607 0.3904 0.00168 0.0
C924 C 0.80857 0.51723 0.94466 0.0
C925 C 0.78402 0.48335 0.9245 0.0
C926 C 0.82586 0.51794 0.9235 0.0
N927 N 0.7881 0.5002 0.94475 0.0
C928 C 0.80092 0.48328 0.90297 0.0
C929 C 0.82223 0.50071 0.90234 0.0
H930 H 0.81178 0.52997 0.96125 0.0
H931 H 0.76796 0.46959 0.92526 0.0
C932 C 0.6909 0.44471 0.01715 0.0
N933 N 0.71141 0.44478 0.00016 0.0
C934 C 0.6736 0.42356 0.01785 0.0
C935 C 0.69862 0.40296 0.9833 0.0
C936 C 0.71553 0.42449 0.98337 0.0
C937 C 0.67727 0.40237 0.00068 0.0
H938 H 0.68766 0.46134 0.02985 0.0
H939 H 0.73161 0.42522 0.96964 0.0
O940 O 0.7722 0.52929 -9e-05 0.0
O941 O 0.72732 0.49992 0.02927 0.0
O942 O 0.72732 0.49957 0.97018 0.0
O943 O 0.77219 0.47019 0.99954 0.0
H944 H 0.78797 0.55835 0.03994 0.0
H945 H 0.76789 0.55979 0.95808 0.0
H946 H 0.79582 0.60626 0.03812 0.0
H947 H 0.77582 0.60772 0.95769 0.0
H948 H 0.72357 0.45765 0.10766 0.0
H949 H 0.71161 0.53996 0.05835 0.0
H950 H 0.73152 0.45806 0.05974 0.0
H951 H 0.70373 0.53812 0.10625 0.0
H952 H 0.70216 0.61248 0.02969 0.0
H953 H 0.6571 0.57534 0.96825 0.0
H954 H 0.84239 0.46824 0.07535 0.0
H955 H 0.79736 0.52971 0.11246 0.0
H956 H 0.71164 0.45953 0.94108 0.0
H957 H 0.73155 0.54143 0.93971 0.0
H958 H 0.70381 0.46136 0.89318 0.0
H959 H 0.72364 0.54183 0.89178 0.0
H960 H 0.78796 0.44108 0.95955 0.0
H961 H 0.76792 0.43976 0.04142 0.0
H962 H 0.79582 0.39318 0.96144 0.0
H963 H 0.77586 0.39184 0.04188 0.0
H964 H 0.84233 0.53131 0.92405 0.0
H965 H 0.79741 0.4697 0.88704 0.0
H966 H 0.6571 0.42415 0.03119 0.0
H967 H 0.70217 0.38701 0.96976 0.0
Li968 Li 0.49987 0.76613 0.02449 0.0
Li969 Li 0.475 0.73335 0.99963 0.0
Li970 Li 0.52451 0.73336 -0.00014 0.0
Li971 Li 0.49964 0.76614 0.97498 0.0
C972 C 0.50027 0.72276 0.05573 0.0
N973 N 0.5016 0.7136 0.10912 0.0
C974 C 0.47771 0.71447 0.06887 0.0
C975 C 0.52362 0.72593 0.06969 0.0
C976 C 0.47874 0.71006 0.09588 0.0
C977 C 0.52387 0.72134 0.09668 0.0
C978 C 0.44378 0.7768 0.99916 0.0
C979 C 0.40293 0.77843 0.97541 0.0
N980 N 0.39043 0.78613 0.99767 0.0
C981 C 0.43059 0.78505 0.0217 0.0
C982 C 0.4299 0.77376 0.97574 0.0
C983 C 0.4036 0.78955 0.02059 0.0
C984 C 0.51726 0.80853 0.05483 0.0
N985 N 0.5002 0.78808 0.05471 0.0
C986 C 0.48326 0.80092 0.09648 0.0
C987 C 0.48333 0.78402 0.07495 0.0
C988 C 0.5007 0.82221 0.09712 0.0
C989 C 0.51796 0.82582 0.07599 0.0
H990 H 0.53003 0.81173 0.03824 0.0
H991 H 0.46956 0.76797 0.07418 0.0
C992 C 0.44471 0.69089 0.98232 0.0
N993 N 0.44479 0.7114 0.9993 0.0
C994 C 0.42355 0.6736 0.98161 0.0
C995 C 0.40298 0.69861 0.01618 0.0
C996 C 0.42451 0.71551 0.01611 0.0
C997 C 0.40237 0.67727 0.99879 0.0
H998 H 0.46133 0.68764 0.96961 0.0
H999 H 0.42524 0.7316 0.02984 0.0
C1000 C 0.55574 0.77676 0.00017 0.0
N1001 N 0.60912 0.78596 0.00134 0.0
C1002 C 0.56881 0.78502 0.97755 0.0
C1003 C 0.56977 0.77364 0.02349 0.0
C1004 C 0.59581 0.78945 0.97851 0.0
C1005 C 0.59675 0.77825 0.02366 0.0
C1006 C 0.49919 0.72266 0.94378 0.0
C1007 C 0.52173 0.71431 0.93063 0.0
C1008 C 0.47581 0.72577 0.92986 0.0
C1009 C 0.52063 0.70979 0.90364 0.0
C1010 C 0.4755 0.72106 0.90289 0.0
N1011 N 0.49774 0.71327 0.89044 0.0
C1012 C 0.55483 0.69095 0.01723 0.0
C1013 C 0.57497 0.71547 0.98333 0.0
C1014 C 0.57599 0.67365 0.01794 0.0
N1015 N 0.55473 0.71141 0.00019 0.0
C1016 C 0.5965 0.69857 0.98326 0.0
C1017 C 0.59713 0.67727 0.00069 0.0
H1018 H 0.53825 0.68774 0.02999 0.0
H1019 H 0.57421 0.73152 0.96956 0.0
C1020 C 0.48239 0.80867 0.94477 0.0
N1021 N 0.4993 0.78809 0.94477 0.0
C1022 C 0.48167 0.82597 0.92361 0.0
C1023 C 0.51605 0.80082 0.90289 0.0
C1024 C 0.51601 0.78392 0.92442 0.0
C1025 C 0.49875 0.82223 0.90236 0.0
H1026 H 0.46975 0.81196 0.96143 0.0
H1027 H 0.52968 0.76778 0.92511 0.0
O1028 O 0.49958 0.7273 0.0293 0.0
O1029 O 0.47021 0.77217 -8e-05 0.0
O1030 O 0.52931 0.77219 0.99956 0.0
O1031 O 0.49994 0.72731 0.9702 0.0
H1032 H 0.45955 0.71157 0.05838 0.0
H1033 H 0.5414 0.73168 0.05978 0.0
H1034 H 0.46137 0.70381 0.1063 0.0
H1035 H 0.5418 0.72384 0.10772 0.0
H1036 H 0.39194 0.77604 0.95744 0.0
H1037 H 0.44102 0.78785 0.0399 0.0
H1038 H 0.43986 0.76805 0.95797 0.0
H1039 H 0.39313 0.79576 0.03794 0.0
H1040 H 0.46966 0.79742 0.11239 0.0
H1041 H 0.53135 0.84228 0.07544 0.0
H1042 H 0.42413 0.6571 0.96827 0.0
H1043 H 0.38703 0.70215 0.02973 0.0
H1044 H 0.55827 0.78787 0.95943 0.0
H1045 H 0.55991 0.76791 0.04131 0.0
H1046 H 0.60619 0.79568 0.9611 0.0
H1047 H 0.60785 0.77579 0.04156 0.0
H1048 H 0.5399 0.71146 0.94109 0.0
H1049 H 0.45804 0.73155 0.93978 0.0
H1050 H 0.53798 0.7035 0.89321 0.0
H1051 H 0.45755 0.72351 0.89187 0.0
H1052 H 0.57544 0.65719 0.03132 0.0
H1053 H 0.61242 0.70208 0.96967 0.0
H1054 H 0.4684 0.84252 0.92424 0.0
H1055 H 0.52952 0.79722 0.88689 0.0
C1056 C 0.9758 0.35121 0.36995 0.0
C1057 C 0.99929 0.34128 0.38039 0.0
H1058 H 0.95785 0.37828 0.3434 0.0
C1059 C 0.02326 0.35061 0.37054 0.0
H1060 H 0.95703 0.34421 0.37697 0.0
C1061 C 0.02373 0.37002 0.35123 0.0
C1062 C 0.00025 0.38042 0.34126 0.0
H1063 H 0.04169 0.3435 0.37832 0.0
H1064 H 0.04251 0.37708 0.34426 0.0
C1065 C 0.97628 0.37052 0.35054 0.0
C1066 C 0.64891 0.02325 0.37052 0.0
C1067 C 0.65822 0.99928 0.38039 0.0
H1068 H 0.62246 0.04249 0.34423 0.0
C1069 C 0.64827 0.97579 0.36998 0.0
H1070 H 0.65604 0.04167 0.37829 0.0
C1071 C 0.62896 0.97626 0.35057 0.0
C1072 C 0.61908 0.00023 0.34127 0.0
H1073 H 0.65525 0.95702 0.37702 0.0
H1074 H 0.62119 0.95784 0.34345 0.0
C1075 C 0.6295 0.02372 0.35121 0.0
C1076 C 0.02321 0.62906 0.35048 0.0
C1077 C 0.99924 0.61908 0.34128 0.0
H1078 H 0.04245 0.65544 0.37684 0.0
C1079 C 0.97575 0.6294 0.35132 0.0
H1080 H 0.04163 0.62137 0.34327 0.0
C1081 C 0.97623 0.64882 0.37062 0.0
C1082 C 0.0002 0.65822 0.38039 0.0
H1083 H 0.95698 0.62228 0.34442 0.0
H1084 H 0.9578 0.65587 0.37847 0.0
C1085 C 0.02368 0.64838 0.36988 0.0
C1086 C 0.35062 0.97627 0.37056 0.0
C1087 C 0.34129 0.00025 0.38041 0.0
H1088 H 0.3771 0.95703 0.3443 0.0
C1089 C 0.35121 0.02373 0.36997 0.0
H1090 H 0.34351 0.95785 0.37836 0.0
C1091 C 0.37052 0.02326 0.35056 0.0
C1092 C 0.38042 0.99928 0.34129 0.0
H1093 H 0.34421 0.0425 0.37698 0.0
H1094 H 0.37827 0.04168 0.34341 0.0
C1095 C 0.37003 0.9758 0.35126 0.0
C1096 C 0.97623 0.62885 0.64879 0.0
C1097 C 0.00021 0.61909 0.65821 0.0
H1098 H 0.95699 0.65504 0.62223 0.0
C1099 C 0.02369 0.62962 0.64837 0.0
H1100 H 0.95781 0.621 0.65583 0.0
C1101 C 0.02321 0.64902 0.62905 0.0
C1102 C 0.99925 0.6582 0.61906 0.0
H1103 H 0.04246 0.62266 0.65544 0.0
H1104 H 0.04164 0.65623 0.62136 0.0
C1105 C 0.97576 0.64815 0.62937 0.0
C1106 C 0.37002 0.02369 0.64826 0.0
C1107 C 0.38042 0.00021 0.65821 0.0
H1108 H 0.34348 0.04165 0.62118 0.0
C1109 C 0.37054 0.97624 0.64892 0.0
H1110 H 0.37708 0.04246 0.65523 0.0
C1111 C 0.35123 0.97577 0.62951 0.0
C1112 C 0.34129 0.99925 0.61909 0.0
H1113 H 0.3783 0.95781 0.65605 0.0
H1114 H 0.34423 0.957 0.62247 0.0
C1115 C 0.3506 0.02323 0.62895 0.0
C1116 C 0.97623 0.35066 0.62888 0.0
C1117 C 0.0002 0.34131 0.61905 0.0
H1118 H 0.95698 0.37715 0.65512 0.0
C1119 C 0.02368 0.3512 0.62951 0.0
H1120 H 0.9578 0.34356 0.62107 0.0
C1121 C 0.02321 0.37051 0.64892 0.0
C1122 C 0.99924 0.38043 0.65817 0.0
H1123 H 0.04245 0.34418 0.6225 0.0
H1124 H 0.04164 0.37824 0.65609 0.0
C1125 C 0.97575 0.37007 0.64818 0.0
C1126 C 0.62954 0.97576 0.64827 0.0
C1127 C 0.6191 0.99924 0.65819 0.0
H1128 H 0.65608 0.95781 0.6212 0.0
C1129 C 0.62894 0.02322 0.64885 0.0
H1130 H 0.62252 0.95699 0.65527 0.0
C1131 C 0.64825 0.02369 0.62944 0.0
C1132 C 0.65821 0.0002 0.61905 0.0
H1133 H 0.62115 0.04164 0.65596 0.0
H1134 H 0.65521 0.04246 0.62238 0.0
C1135 C 0.64894 0.97623 0.62895 0.0
C1136 C 0.37049 0.35053 0.97625 0.0
C1137 C 0.38042 0.34129 0.00022 0.0
H1138 H 0.34415 0.37694 0.957 0.0
C1139 C 0.37006 0.35128 0.02371 0.0
H1140 H 0.37822 0.34337 0.95782 0.0
C1141 C 0.35064 0.37058 0.02323 0.0
C1142 C 0.34128 0.3804 0.99926 0.0
H1143 H 0.37714 0.34434 0.04248 0.0
H1144 H 0.34355 0.37839 0.04166 0.0
C1145 C 0.35118 0.36994 0.97578 0.0
C1146 C 0.35058 0.62897 0.97626 0.0
C1147 C 0.34129 0.61908 0.00023 0.0
H1148 H 0.37703 0.65527 0.95702 0.0
C1149 C 0.35125 0.62949 0.02372 0.0
H1150 H 0.34345 0.62121 0.95783 0.0
C1151 C 0.37055 0.6489 0.02325 0.0
C1152 C 0.38042 0.65821 0.99927 0.0
H1153 H 0.34427 0.62243 0.04249 0.0
H1154 H 0.37833 0.65602 0.04167 0.0
C1155 C 0.36999 0.64828 0.97579 0.0
C1156 C 0.62953 0.35121 0.97575 0.0
C1157 C 0.61909 0.34128 0.99924 0.0
H1158 H 0.65608 0.37827 0.9578 0.0
C1159 C 0.62894 0.35061 0.02321 0.0
H1160 H 0.6225 0.3442 0.95698 0.0
C1161 C 0.64824 0.37002 0.02368 0.0
C1162 C 0.65821 0.38042 0.0002 0.0
H1163 H 0.62115 0.3435 0.04163 0.0
H1164 H 0.65521 0.37708 0.04245 0.0
C1165 C 0.64893 0.37052 0.97623 0.0
C1166 C 0.64894 0.62898 0.02322 0.0
C1167 C 0.65821 0.61907 0.99925 0.0
H1168 H 0.62252 0.6553 0.04246 0.0
C1169 C 0.64823 0.62946 0.97576 0.0
H1170 H 0.65609 0.62123 0.04164 0.0
C1171 C 0.62893 0.64887 0.97623 0.0
C1172 C 0.61908 0.6582 0.00021 0.0
H1173 H 0.65519 0.62239 0.95699 0.0
H1174 H 0.62113 0.65597 0.95781 0.0
C1175 C 0.62953 0.64829 0.02369 0.0
C1176 C 0.52319 0.85046 0.87039 0.0
C1177 C 0.49922 0.84128 0.8804 0.0
H1178 H 0.54244 0.87679 0.84399 0.0
C1179 C 0.47573 0.85134 0.8701 0.0
H1180 H 0.54162 0.84324 0.87807 0.0
C1181 C 0.47621 0.87064 0.85068 0.0
C1182 C 0.50018 0.88039 0.84125 0.0
H1183 H 0.45696 0.84446 0.87724 0.0
H1184 H 0.45779 0.87851 0.84364 0.0
C1185 C 0.52366 0.86985 0.85107 0.0
C1186 C 0.14893 0.52325 0.87051 0.0
C1187 C 0.15822 0.49927 0.8804 0.0
H1188 H 0.1225 0.54249 0.8442 0.0
C1189 C 0.14826 0.47579 0.87 0.0
H1190 H 0.15607 0.54167 0.87827 0.0
C1191 C 0.12896 0.47626 0.85059 0.0
C1192 C 0.1191 0.50023 0.84127 0.0
H1193 H 0.15524 0.45702 0.87705 0.0
H1194 H 0.12118 0.45784 0.84347 0.0
C1195 C 0.12953 0.52372 0.8512 0.0
C1196 C 0.47573 0.12931 0.85141 0.0
C1197 C 0.49922 0.11904 0.84132 0.0
H1198 H 0.45778 0.15575 0.87858 0.0
C1199 C 0.52319 0.12907 0.85047 0.0
H1200 H 0.45696 0.12215 0.84454 0.0
C1201 C 0.52366 0.14839 0.86987 0.0
C1202 C 0.50018 0.15819 0.88042 0.0
H1203 H 0.54162 0.12141 0.84323 0.0
H1204 H 0.54243 0.15549 0.87679 0.0
C1205 C 0.4762 0.14873 0.8707 0.0
C1206 C 0.8705 0.52324 0.85053 0.0
C1207 C 0.88043 0.49927 0.84128 0.0
H1208 H 0.84417 0.54248 0.87694 0.0
C1209 C 0.87006 0.47578 0.85127 0.0
H1210 H 0.87824 0.54166 0.84337 0.0
C1211 C 0.85065 0.47625 0.87057 0.0
C1212 C 0.84129 0.50022 0.88039 0.0
H1213 H 0.87715 0.45701 0.84432 0.0
H1214 H 0.84356 0.45783 0.87837 0.0
C1215 C 0.85119 0.52371 0.86993 0.0
C1216 C 0.52369 0.12957 0.14833 0.0
C1217 C 0.50021 0.11909 0.15821 0.0
H1218 H 0.54165 0.15615 0.1213 0.0
C1219 C 0.47623 0.12889 0.14884 0.0
H1220 H 0.54246 0.12258 0.15537 0.0
C1221 C 0.47576 0.1482 0.12942 0.0
C1222 C 0.49925 0.15821 0.11907 0.0
H1223 H 0.45781 0.12107 0.15591 0.0
H1224 H 0.45699 0.15512 0.12232 0.0
C1225 C 0.52322 0.14897 0.12902 0.0
C1226 C 0.87055 0.47624 0.14889 0.0
C1227 C 0.88043 0.50021 0.15819 0.0
H1228 H 0.84425 0.457 0.12244 0.0
C1229 C 0.87001 0.5237 0.14824 0.0
H1230 H 0.87832 0.45782 0.15602 0.0
C1231 C 0.8506 0.52323 0.12893 0.0
C1232 C 0.84129 0.49925 0.11906 0.0
H1233 H 0.87706 0.54247 0.15522 0.0
H1234 H 0.84347 0.54165 0.12116 0.0
C1235 C 0.85124 0.47577 0.12948 0.0
C1236 C 0.47624 0.85064 0.12889 0.0
C1237 C 0.50022 0.84128 0.11907 0.0
H1238 H 0.457 0.87713 0.15513 0.0
C1239 C 0.5237 0.85117 0.12954 0.0
H1240 H 0.45782 0.84355 0.12108 0.0
C1241 C 0.52322 0.87049 0.14894 0.0
C1242 C 0.49925 0.88042 0.15819 0.0
H1243 H 0.54247 0.84415 0.12254 0.0
H1244 H 0.54165 0.87822 0.15611 0.0
C1245 C 0.47577 0.87005 0.14819 0.0
C1246 C 0.14821 0.52374 0.12942 0.0
C1247 C 0.15822 0.50026 0.11907 0.0
H1248 H 0.12109 0.5417 0.15591 0.0
C1249 C 0.14899 0.47629 0.12902 0.0
H1250 H 0.15514 0.54251 0.12232 0.0
C1251 C 0.12958 0.47582 0.14833 0.0
C1252 C 0.1191 0.4993 0.15821 0.0
H1253 H 0.15617 0.45786 0.1213 0.0
H1254 H 0.1226 0.45705 0.15537 0.0
C1255 C 0.12891 0.52327 0.14883 0.0
C1256 C 0.85119 0.86995 0.47577 0.0
C1257 C 0.84129 0.88041 0.49925 0.0
H1258 H 0.87823 0.84337 0.45781 0.0
C1259 C 0.85065 0.8706 0.52322 0.0
H1260 H 0.84416 0.87694 0.45699 0.0
C1261 C 0.87007 0.85129 0.5237 0.0
C1262 C 0.88043 0.8413 0.50021 0.0
H1263 H 0.84356 0.87841 0.54165 0.0
H1264 H 0.87716 0.84436 0.54247 0.0
C1265 C 0.8705 0.85054 0.47624 0.0
C1266 C 0.87062 0.14884 0.52325 0.0
C1267 C 0.88043 0.15822 0.49928 0.0
H1268 H 0.84439 0.12233 0.5425 0.0
C1269 C 0.86994 0.14834 0.4758 0.0
H1270 H 0.87845 0.15592 0.54168 0.0
C1271 C 0.85054 0.12903 0.47627 0.0
C1272 C 0.84131 0.11908 0.50024 0.0
H1273 H 0.87693 0.15538 0.45703 0.0
H1274 H 0.84336 0.12131 0.45784 0.0
C1275 C 0.85132 0.12943 0.52373 0.0
C1276 C 0.12958 0.85117 0.47578 0.0
C1277 C 0.11909 0.84129 0.49926 0.0
H1278 H 0.15616 0.87821 0.45783 0.0
C1279 C 0.1289 0.85066 0.52324 0.0
H1280 H 0.12259 0.84413 0.45701 0.0
C1281 C 0.1482 0.87008 0.52371 0.0
C1282 C 0.15821 0.88043 0.50023 0.0
H1283 H 0.12107 0.84359 0.54166 0.0
H1284 H 0.15512 0.87718 0.54248 0.0
C1285 C 0.14898 0.87049 0.47626 0.0
C1286 C 0.12941 0.14817 0.52376 0.0
C1287 C 0.11908 0.1582 0.50027 0.0
H1288 H 0.15588 0.12103 0.54171 0.0
C1289 C 0.12905 0.14899 0.4763 0.0
H1290 H 0.12229 0.15508 0.54253 0.0
C1291 C 0.14837 0.12959 0.47583 0.0
C1292 C 0.15822 0.11909 0.49931 0.0
H1293 H 0.12136 0.15619 0.45788 0.0
H1294 H 0.15543 0.12262 0.45706 0.0
C1295 C 0.14883 0.12887 0.52329 0.0
loop_
_geom_bond_atom_site_label_1
_geom_bond_atom_site_label_2
_geom_bond_distance
_geom_bond_site_symmetry_2
_ccdc_geom_bond_type
Li0 N17 1.990 . S
Li0 O60 1.956 . S
Li0 O61 1.974 . S
Li0 O62 1.950 1_655 S
Li1 N25 1.991 . S
Li1 O60 1.955 1_455 S
Li1 O61 1.956 1_455 S
Li1 O63 1.976 . S
Li2 N47 1.991 . S
Li2 O60 1.969 . S
Li2 O62 1.956 1_655 S
Li2 O63 1.962 1_655 S
Li3 N53 1.990 . S
Li3 O61 1.957 1_455 S
Li3 O62 1.981 . S
Li3 O63 1.956 . S
C4 C6 1.348 . S
C4 C7 1.356 . S
C4 O60 1.325 . S
N5 C8 1.314 . S
N5 C9 1.279 . S
C6 C4 1.348 . S
C6 C8 1.353 . S
C6 H64 0.929 . S
C7 C4 1.356 . S
C7 C9 1.358 . S
C7 H65 0.930 . S
C8 N5 1.314 . S
C8 C6 1.353 . S
C8 H66 0.930 . S
C9 N5 1.279 . S
C9 C7 1.358 . S
C9 H67 0.930 . S
C10 C13 1.345 1_455 S
C10 C14 1.359 . S
C10 O61 1.325 1_455 S
C11 N12 1.279 . S
C11 C14 1.358 . S
C11 H68 0.930 . S
N12 C11 1.279 . S
N12 C15 1.314 1_455 S
C13 C10 1.345 1_655 S
C13 C15 1.353 . S
C13 H69 0.929 . S
C14 C10 1.359 . S
C14 C11 1.358 . S
C14 H70 0.930 . S
C15 N12 1.314 1_655 S
C15 C13 1.353 . S
C15 H71 0.930 . S
C16 N17 1.314 . S
C16 C21 1.353 . S
C16 H22 0.930 . S
N17 Li0 1.990 . S
N17 C16 1.314 . S
N17 C19 1.279 . S
C18 C19 1.358 . S
C18 C20 1.356 . S
C18 H72 0.930 . S
C19 N17 1.279 . S
C19 C18 1.358 . S
C19 H23 0.930 . S
C20 C18 1.356 . S
C20 C21 1.348 . S
C21 C16 1.353 . S
C21 C20 1.348 . S
C21 H73 0.929 . S
H22 C16 0.930 . S
H23 C19 0.930 . S
C24 N25 1.314 . S
C24 C26 1.353 . S
C24 H30 0.930 . S
N25 Li1 1.991 . S
N25 C24 1.314 . S
N25 C28 1.279 1_455 S
C26 C24 1.353 . S
C26 C29 1.346 . S
C26 H74 0.929 . S
C27 C28 1.358 . S
C27 C29 1.357 1_655 S
C27 H75 0.930 . S
C28 N25 1.279 1_655 S
C28 C27 1.358 . S
C28 H31 0.930 . S
C29 C26 1.346 . S
C29 C27 1.357 1_455 S
H30 C24 0.930 . S
H31 C28 0.930 . S
C32 C34 1.345 . S
C32 C35 1.359 1_455 S
C32 O62 1.325 . S
N33 C36 1.314 1_655 S
N33 C37 1.279 . S
C34 C32 1.345 . S
C34 C36 1.353 . S
C34 H76 0.929 . S
C35 C32 1.359 1_655 S
C35 C37 1.358 . S
C35 H77 0.930 . S
C36 N33 1.314 1_455 S
C36 C34 1.353 . S
C36 H78 0.930 . S
C37 N33 1.279 . S
C37 C35 1.358 . S
C37 H79 0.930 . S
C38 C39 1.348 . S
C38 C40 1.356 . S
C38 O63 1.325 . S
C39 C38 1.348 . S
C39 C41 1.353 . S
C39 H80 0.929 . S
C40 C38 1.356 . S
C40 C42 1.358 . S
C40 H81 0.930 . S
C41 C39 1.353 . S
C41 N43 1.314 . S
C41 H82 0.930 . S
C42 C40 1.358 . S
C42 N43 1.279 . S
C42 H83 0.930 . S
N43 C41 1.314 . S
N43 C42 1.279 . S
C44 C46 1.353 . S
C44 N47 1.314 . S
C44 H50 0.930 . S
C45 N47 1.279 1_455 S
C45 C48 1.358 . S
C45 H51 0.930 . S
C46 C44 1.353 . S
C46 C49 1.346 1_655 S
C46 H84 0.929 . S
N47 Li2 1.991 . S
N47 C44 1.314 . S
N47 C45 1.279 1_655 S
C48 C45 1.358 . S
C48 C49 1.357 . S
C48 H85 0.930 . S
C49 C46 1.346 1_455 S
C49 C48 1.357 . S
H50 C44 0.930 . S
H51 C45 0.930 . S
C52 N53 1.314 . S
C52 C54 1.353 . S
C52 H58 0.930 . S
N53 Li3 1.990 . S
N53 C52 1.314 . S
N53 C56 1.279 . S
C54 C52 1.353 . S
C54 C57 1.348 . S
C54 H86 0.929 . S
C55 C56 1.358 . S
C55 C57 1.356 . S
C55 H87 0.930 . S
C56 N53 1.279 . S
C56 C55 1.358 . S
C56 H59 0.930 . S
C57 C54 1.348 . S
C57 C55 1.356 . S
H58 C52 0.930 . S
H59 C56 0.930 . S
O60 Li0 1.956 . S
O60 Li1 1.955 1_655 S
O60 Li2 1.969 . S
O60 C4 1.325 . S
O61 Li0 1.974 . S
O61 Li1 1.956 1_655 S
O61 Li3 1.957 1_655 S
O61 C10 1.325 1_655 S
O62 Li0 1.950 1_455 S
O62 Li2 1.956 1_455 S
O62 Li3 1.981 . S
O62 C32 1.325 . S
O63 Li1 1.976 . S
O63 Li2 1.962 1_455 S
O63 Li3 1.956 . S
O63 C38 1.325 . S
H64 C6 0.929 . S
H65 C7 0.930 . S
H66 C8 0.930 . S
H67 C9 0.930 . S
H68 C11 0.930 . S
H69 C13 0.929 . S
H70 C14 0.930 . S
H71 C15 0.930 . S
H72 C18 0.930 . S
H73 C21 0.929 . S
H74 C26 0.929 . S
H75 C27 0.930 . S
H76 C34 0.929 . S
H77 C35 0.930 . S
H78 C36 0.930 . S
H79 C37 0.930 . S
H80 C39 0.929 . S
H81 C40 0.930 . S
H82 C41 0.930 . S
H83 C42 0.930 . S
H84 C46 0.929 . S
H85 C48 0.930 . S
H86 C54 0.929 . S
H87 C55 0.930 . S
Li88 N105 1.991 . S
Li88 O148 1.956 1_545 S
Li88 O149 1.955 1_545 S
Li88 O150 1.976 . S
Li89 N113 1.990 . S
Li89 O148 1.974 . S
Li89 O149 1.956 . S
Li89 O151 1.950 1_565 S
Li90 N135 1.990 . S
Li90 O148 1.957 1_545 S
Li90 O150 1.956 . S
Li90 O151 1.981 . S
Li91 N141 1.991 . S
Li91 O149 1.969 . S
Li91 O150 1.962 1_565 S
Li91 O151 1.956 1_565 S
C92 C94 1.345 1_545 S
C92 C95 1.359 . S
C92 O148 1.325 1_545 S
N93 C96 1.314 1_545 S
N93 C97 1.279 . S
C94 C92 1.345 1_565 S
C94 C96 1.353 . S
C94 H152 0.929 . S
C95 C92 1.359 . S
C95 C97 1.358 . S
C95 H153 0.930 . S
C96 N93 1.314 1_565 S
C96 C94 1.353 . S
C96 H154 0.930 . S
C97 N93 1.279 . S
C97 C95 1.358 . S
C97 H155 0.930 . S
C98 C101 1.348 . S
C98 C102 1.356 . S
C98 O149 1.325 . S
C99 N100 1.279 . S
C99 C102 1.358 . S
C99 H156 0.930 . S
N100 C99 1.279 . S
N100 C103 1.314 . S
C101 C98 1.348 . S
C101 C103 1.353 . S
C101 H157 0.929 . S
C102 C98 1.356 . S
C102 C99 1.358 . S
C102 H158 0.930 . S
C103 N100 1.314 . S
C103 C101 1.353 . S
C103 H159 0.930 . S
C104 N105 1.314 . S
C104 C109 1.353 . S
C104 H110 0.930 . S
N105 Li88 1.991 . S
N105 C104 1.314 . S
N105 C107 1.279 1_545 S
C106 C107 1.358 . S
C106 C108 1.357 1_565 S
C106 H160 0.930 . S
C107 N105 1.279 1_565 S
C107 C106 1.358 . S
C107 H111 0.930 . S
C108 C106 1.357 1_545 S
C108 C109 1.346 . S
C109 C104 1.353 . S
C109 C108 1.346 . S
C109 H161 0.929 . S
H110 C104 0.930 . S
H111 C107 0.930 . S
C112 N113 1.314 . S
C112 C114 1.353 . S
C112 H118 0.930 . S
N113 Li89 1.990 . S
N113 C112 1.314 . S
N113 C116 1.279 . S
C114 C112 1.353 . S
C114 C117 1.348 . S
C114 H162 0.929 . S
C115 C116 1.358 . S
C115 C117 1.356 . S
C115 H163 0.930 . S
C116 N113 1.279 . S
C116 C115 1.358 . S
C116 H119 0.930 . S
C117 C114 1.348 . S
C117 C115 1.356 . S
H118 C112 0.930 . S
H119 C116 0.930 . S
C120 C122 1.348 . S
C120 C123 1.356 . S
C120 O150 1.325 . S
N121 C124 1.314 . S
N121 C125 1.279 . S
C122 C120 1.348 . S
C122 C124 1.353 . S
C122 H164 0.929 . S
C123 C120 1.356 . S
C123 C125 1.358 . S
C123 H165 0.930 . S
C124 N121 1.314 . S
C124 C122 1.353 . S
C124 H166 0.930 . S
C125 N121 1.279 . S
C125 C123 1.358 . S
C125 H167 0.930 . S
C126 C127 1.345 . S
C126 C128 1.359 1_545 S
C126 O151 1.325 . S
C127 C126 1.345 . S
C127 C129 1.353 . S
C127 H168 0.929 . S
C128 C126 1.359 1_565 S
C128 C130 1.358 . S
C128 H169 0.930 . S
C129 C127 1.353 . S
C129 N131 1.314 1_545 S
C129 H170 0.930 . S
C130 C128 1.358 . S
C130 N131 1.279 . S
C130 H171 0.930 . S
N131 C129 1.314 1_565 S
N131 C130 1.279 . S
C132 C134 1.353 . S
C132 N135 1.314 . S
C132 H138 0.930 . S
C133 N135 1.279 . S
C133 C136 1.358 . S
C133 H139 0.930 . S
C134 C132 1.353 . S
C134 C137 1.348 . S
C134 H172 0.929 . S
N135 Li90 1.990 . S
N135 C132 1.314 . S
N135 C133 1.279 . S
C136 C133 1.358 . S
C136 C137 1.356 . S
C136 H173 0.930 . S
C137 C134 1.348 . S
C137 C136 1.356 . S
H138 C132 0.930 . S
H139 C133 0.930 . S
C140 N141 1.314 . S
C140 C142 1.353 . S
C140 H146 0.930 . S
N141 Li91 1.991 . S
N141 C140 1.314 . S
N141 C144 1.279 1_565 S
C142 C140 1.353 . S
C142 C145 1.346 1_565 S
C142 H174 0.929 . S
C143 C144 1.358 . S
C143 C145 1.357 . S
C143 H175 0.930 . S
C144 N141 1.279 1_545 S
C144 C143 1.358 . S
C144 H147 0.930 . S
C145 C142 1.346 1_545 S
C145 C143 1.357 . S
H146 C140 0.930 . S
H147 C144 0.930 . S
O148 Li88 1.956 1_565 S
O148 Li89 1.974 . S
O148 Li90 1.957 1_565 S
O148 C92 1.325 1_565 S
O149 Li88 1.955 1_565 S
O149 Li89 1.956 . S
O149 Li91 1.969 . S
O149 C98 1.325 . S
O150 Li88 1.976 . S
O150 Li90 1.956 . S
O150 Li91 1.962 1_545 S
O150 C120 1.325 . S
O151 Li89 1.950 1_545 S
O151 Li90 1.981 . S
O151 Li91 1.956 1_545 S
O151 C126 1.325 . S
H152 C94 0.929 . S
H153 C95 0.930 . S
H154 C96 0.930 . S
H155 C97 0.930 . S
H156 C99 0.930 . S
H157 C101 0.929 . S
H158 C102 0.930 . S
H159 C103 0.930 . S
H160 C106 0.930 . S
H161 C109 0.929 . S
H162 C114 0.929 . S
H163 C115 0.930 . S
H164 C122 0.929 . S
H165 C123 0.930 . S
H166 C124 0.930 . S
H167 C125 0.930 . S
H168 C127 0.929 . S
H169 C128 0.930 . S
H170 C129 0.930 . S
H171 C130 0.930 . S
H172 C134 0.929 . S
H173 C136 0.930 . S
H174 C142 0.929 . S
H175 C143 0.930 . S
Li176 N193 1.990 . S
Li176 O236 1.956 . S
Li176 O237 1.981 . S
Li176 O238 1.957 1_455 S
Li177 N201 1.991 . S
Li177 O236 1.962 1_655 S
Li177 O237 1.956 1_655 S
Li177 O239 1.969 . S
Li178 N223 1.991 . S
Li178 O236 1.976 . S
Li178 O238 1.956 1_455 S
Li178 O239 1.955 1_455 S
Li179 N229 1.990 . S
Li179 O237 1.950 1_655 S
Li179 O238 1.974 . S
Li179 O239 1.956 . S
C180 C182 1.348 . S
C180 C183 1.356 . S
C180 O236 1.325 . S
N181 C184 1.314 . S
N181 C185 1.279 . S
C182 C180 1.348 . S
C182 C184 1.353 . S
C182 H240 0.929 . S
C183 C180 1.356 . S
C183 C185 1.358 . S
C183 H241 0.930 . S
C184 N181 1.314 . S
C184 C182 1.353 . S
C184 H242 0.930 . S
C185 N181 1.279 . S
C185 C183 1.358 . S
C185 H243 0.930 . S
C186 C189 1.345 . S
C186 C190 1.359 1_455 S
C186 O237 1.325 . S
C187 N188 1.279 . S
C187 C190 1.358 . S
C187 H244 0.930 . S
N188 C187 1.279 . S
N188 C191 1.314 1_655 S
C189 C186 1.345 . S
C189 C191 1.353 . S
C189 H245 0.929 . S
C190 C186 1.359 1_655 S
C190 C187 1.358 . S
C190 H246 0.930 . S
C191 N188 1.314 1_455 S
C191 C189 1.353 . S
C191 H247 0.930 . S
C192 N193 1.314 . S
C192 C197 1.353 . S
C192 H198 0.930 . S
N193 Li176 1.990 . S
N193 C192 1.314 . S
N193 C195 1.279 . S
C194 C195 1.358 . S
C194 C196 1.356 . S
C194 H248 0.930 . S
C195 N193 1.279 . S
C195 C194 1.358 . S
C195 H199 0.930 . S
C196 C194 1.356 . S
C196 C197 1.348 . S
C197 C192 1.353 . S
C197 C196 1.348 . S
C197 H249 0.929 . S
H198 C192 0.930 . S
H199 C195 0.930 . S
C200 N201 1.314 . S
C200 C202 1.353 . S
C200 H206 0.930 . S
N201 Li177 1.991 . S
N201 C200 1.314 . S
N201 C204 1.279 1_655 S
C202 C200 1.353 . S
C202 C205 1.346 1_655 S
C202 H250 0.929 . S
C203 C204 1.358 . S
C203 C205 1.357 . S
C203 H251 0.930 . S
C204 N201 1.279 1_455 S
C204 C203 1.358 . S
C204 H207 0.930 . S
C205 C202 1.346 1_455 S
C205 C203 1.357 . S
H206 C200 0.930 . S
H207 C204 0.930 . S
C208 C210 1.345 1_455 S
C208 C211 1.359 . S
C208 O238 1.325 1_455 S
N209 C212 1.314 1_455 S
N209 C213 1.279 . S
C210 C208 1.345 1_655 S
C210 C212 1.353 . S
C210 H252 0.929 . S
C211 C208 1.359 . S
C211 C213 1.358 . S
C211 H253 0.930 . S
C212 N209 1.314 1_655 S
C212 C210 1.353 . S
C212 H254 0.930 . S
C213 N209 1.279 . S
C213 C211 1.358 . S
C213 H255 0.930 . S
C214 C215 1.348 . S
C214 C216 1.356 . S
C214 O239 1.325 . S
C215 C214 1.348 . S
C215 C217 1.353 . S
C215 H256 0.929 . S
C216 C214 1.356 . S
C216 C218 1.358 . S
C216 H257 0.930 . S
C217 C215 1.353 . S
C217 N219 1.314 . S
C217 H258 0.930 . S
C218 C216 1.358 . S
C218 N219 1.279 . S
C218 H259 0.930 . S
N219 C217 1.314 . S
N219 C218 1.279 . S
C220 C222 1.353 . S
C220 N223 1.314 . S
C220 H226 0.930 . S
C221 N223 1.279 1_655 S
C221 C224 1.358 . S
C221 H227 0.930 . S
C222 C220 1.353 . S
C222 C225 1.346 . S
C222 H260 0.929 . S
N223 Li178 1.991 . S
N223 C220 1.314 . S
N223 C221 1.279 1_455 S
C224 C221 1.358 . S
C224 C225 1.357 1_655 S
C224 H261 0.930 . S
C225 C222 1.346 . S
C225 C224 1.357 1_455 S
H226 C220 0.930 . S
H227 C221 0.930 . S
C228 N229 1.314 . S
C228 C230 1.353 . S
C228 H234 0.930 . S
N229 Li179 1.990 . S
N229 C228 1.314 . S
N229 C232 1.279 . S
C230 C228 1.353 . S
C230 C233 1.348 . S
C230 H262 0.929 . S
C231 C232 1.358 . S
C231 C233 1.356 . S
C231 H263 0.930 . S
C232 N229 1.279 . S
C232 C231 1.358 . S
C232 H235 0.930 . S
C233 C230 1.348 . S
C233 C231 1.356 . S
H234 C228 0.930 . S
H235 C232 0.930 . S
O236 Li176 1.956 . S
O236 Li177 1.962 1_455 S
O236 Li178 1.976 . S
O236 C180 1.325 . S
O237 Li176 1.981 . S
O237 Li177 1.956 1_455 S
O237 Li179 1.950 1_455 S
O237 C186 1.325 . S
O238 Li176 1.957 1_655 S
O238 Li178 1.956 1_655 S
O238 Li179 1.974 . S
O238 C208 1.325 1_655 S
O239 Li177 1.969 . S
O239 Li178 1.955 1_655 S
O239 Li179 1.956 . S
O239 C214 1.325 . S
H240 C182 0.929 . S
H241 C183 0.930 . S
H242 C184 0.930 . S
H243 C185 0.930 . S
H244 C187 0.930 . S
H245 C189 0.929 . S
H246 C190 0.930 . S
H247 C191 0.930 . S
H248 C194 0.930 . S
H249 C197 0.929 . S
H250 C202 0.929 . S
H251 C203 0.930 . S
H252 C210 0.929 . S
H253 C211 0.930 . S
H254 C212 0.930 . S
H255 C213 0.930 . S
H256 C215 0.929 . S
H257 C216 0.930 . S
H258 C217 0.930 . S
H259 C218 0.930 . S
H260 C222 0.929 . S
H261 C224 0.930 . S
H262 C230 0.929 . S
H263 C231 0.930 . S
Li264 N281 1.990 . S
Li264 O324 1.956 . S
Li264 O325 1.981 . S
Li264 O326 1.957 1_545 S
Li265 N289 1.991 . S
Li265 O324 1.962 1_565 S
Li265 O325 1.956 1_565 S
Li265 O327 1.969 . S
Li266 N311 1.991 . S
Li266 O324 1.976 . S
Li266 O326 1.956 1_545 S
Li266 O327 1.955 1_545 S
Li267 N317 1.990 . S
Li267 O325 1.950 1_565 S
Li267 O326 1.974 . S
Li267 O327 1.956 . S
C268 C270 1.348 . S
C268 C271 1.356 . S
C268 O324 1.325 . S
N269 C272 1.314 . S
N269 C273 1.279 . S
C270 C268 1.348 . S
C270 C272 1.353 . S
C270 H328 0.929 . S
C271 C268 1.356 . S
C271 C273 1.358 . S
C271 H329 0.930 . S
C272 N269 1.314 . S
C272 C270 1.353 . S
C272 H330 0.930 . S
C273 N269 1.279 . S
C273 C271 1.358 . S
C273 H331 0.930 . S
C274 C277 1.345 . S
C274 C278 1.359 1_545 S
C274 O325 1.325 . S
C275 N276 1.279 . S
C275 C278 1.358 . S
C275 H332 0.930 . S
N276 C275 1.279 . S
N276 C279 1.314 1_565 S
C277 C274 1.345 . S
C277 C279 1.353 . S
C277 H333 0.929 . S
C278 C274 1.359 1_565 S
C278 C275 1.358 . S
C278 H334 0.930 . S
C279 N276 1.314 1_545 S
C279 C277 1.353 . S
C279 H335 0.930 . S
C280 N281 1.314 . S
C280 C285 1.353 . S
C280 H286 0.930 . S
N281 Li264 1.990 . S
N281 C280 1.314 . S
N281 C283 1.279 . S
C282 C283 1.358 . S
C282 C284 1.356 . S
C282 H336 0.930 . S
C283 N281 1.279 . S
C283 C282 1.358 . S
C283 H287 0.930 . S
C284 C282 1.356 . S
C284 C285 1.348 . S
C285 C280 1.353 . S
C285 C284 1.348 . S
C285 H337 0.929 . S
H286 C280 0.930 . S
H287 C283 0.930 . S
C288 N289 1.314 . S
C288 C290 1.353 . S
C288 H294 0.930 . S
N289 Li265 1.991 . S
N289 C288 1.314 . S
N289 C292 1.279 1_565 S
C290 C288 1.353 . S
C290 C293 1.346 1_565 S
C290 H338 0.929 . S
C291 C292 1.358 . S
C291 C293 1.357 . S
C291 H339 0.930 . S
C292 N289 1.279 1_545 S
C292 C291 1.358 . S
C292 H295 0.930 . S
C293 C290 1.346 1_545 S
C293 C291 1.357 . S
H294 C288 0.930 . S
H295 C292 0.930 . S
C296 C298 1.345 1_545 S
C296 C299 1.359 . S
C296 O326 1.325 1_545 S
N297 C300 1.314 1_545 S
N297 C301 1.279 . S
C298 C296 1.345 1_565 S
C298 C300 1.353 . S
C298 H340 0.929 . S
C299 C296 1.359 . S
C299 C301 1.358 . S
C299 H341 0.930 . S
C300 N297 1.314 1_565 S
C300 C298 1.353 . S
C300 H342 0.930 . S
C301 N297 1.279 . S
C301 C299 1.358 . S
C301 H343 0.930 . S
C302 C303 1.348 . S
C302 C304 1.356 . S
C302 O327 1.325 . S
C303 C302 1.348 . S
C303 C305 1.353 . S
C303 H344 0.929 . S
C304 C302 1.356 . S
C304 C306 1.358 . S
C304 H345 0.930 . S
C305 C303 1.353 . S
C305 N307 1.314 . S
C305 H346 0.930 . S
C306 C304 1.358 . S
C306 N307 1.279 . S
C306 H347 0.930 . S
N307 C305 1.314 . S
N307 C306 1.279 . S
C308 C310 1.353 . S
C308 N311 1.314 . S
C308 H314 0.930 . S
C309 N311 1.279 1_565 S
C309 C312 1.358 . S
C309 H315 0.930 . S
C310 C308 1.353 . S
C310 C313 1.346 . S
C310 H348 0.929 . S
N311 Li266 1.991 . S
N311 C308 1.314 . S
N311 C309 1.279 1_545 S
C312 C309 1.358 . S
C312 C313 1.357 1_565 S
C312 H349 0.930 . S
C313 C310 1.346 . S
C313 C312 1.357 1_545 S
H314 C308 0.930 . S
H315 C309 0.930 . S
C316 N317 1.314 . S
C316 C318 1.353 . S
C316 H322 0.930 . S
N317 Li267 1.990 . S
N317 C316 1.314 . S
N317 C320 1.279 . S
C318 C316 1.353 . S
C318 C321 1.348 . S
C318 H350 0.929 . S
C319 C320 1.358 . S
C319 C321 1.356 . S
C319 H351 0.930 . S
C320 N317 1.279 . S
C320 C319 1.358 . S
C320 H323 0.930 . S
C321 C318 1.348 . S
C321 C319 1.356 . S
H322 C316 0.930 . S
H323 C320 0.930 . S
O324 Li264 1.956 . S
O324 Li265 1.962 1_545 S
O324 Li266 1.976 . S
O324 C268 1.325 . S
O325 Li264 1.981 . S
O325 Li265 1.956 1_545 S
O325 Li267 1.950 1_545 S
O325 C274 1.325 . S
O326 Li264 1.957 1_565 S
O326 Li266 1.956 1_565 S
O326 Li267 1.974 . S
O326 C296 1.325 1_565 S
O327 Li265 1.969 . S
O327 Li266 1.955 1_565 S
O327 Li267 1.956 . S
O327 C302 1.325 . S
H328 C270 0.929 . S
H329 C271 0.930 . S
H330 C272 0.930 . S
H331 C273 0.930 . S
H332 C275 0.930 . S
H333 C277 0.929 . S
H334 C278 0.930 . S
H335 C279 0.930 . S
H336 C282 0.930 . S
H337 C285 0.929 . S
H338 C290 0.929 . S
H339 C291 0.930 . S
H340 C298 0.929 . S
H341 C299 0.930 . S
H342 C300 0.930 . S
H343 C301 0.930 . S
H344 C303 0.929 . S
H345 C304 0.930 . S
H346 C305 0.930 . S
H347 C306 0.930 . S
H348 C310 0.929 . S
H349 C312 0.930 . S
H350 C318 0.929 . S
H351 C319 0.930 . S
Li352 N369 1.990 . S
Li352 O412 1.956 . S
Li352 O413 1.981 . S
Li352 O414 1.957 1_545 S
Li353 N377 1.991 . S
Li353 O412 1.962 1_565 S
Li353 O413 1.956 1_565 S
Li353 O415 1.969 . S
Li354 N399 1.991 . S
Li354 O412 1.976 . S
Li354 O414 1.956 1_545 S
Li354 O415 1.955 1_545 S
Li355 N405 1.990 . S
Li355 O413 1.950 1_565 S
Li355 O414 1.974 . S
Li355 O415 1.956 . S
C356 C358 1.348 . S
C356 C359 1.356 . S
C356 O412 1.325 . S
N357 C360 1.314 . S
N357 C361 1.279 . S
C358 C356 1.348 . S
C358 C360 1.353 . S
C358 H416 0.929 . S
C359 C356 1.356 . S
C359 C361 1.358 . S
C359 H417 0.930 . S
C360 N357 1.314 . S
C360 C358 1.353 . S
C360 H418 0.930 . S
C361 N357 1.279 . S
C361 C359 1.358 . S
C361 H419 0.930 . S
C362 C365 1.345 . S
C362 C366 1.359 1_545 S
C362 O413 1.325 . S
C363 N364 1.279 . S
C363 C366 1.358 . S
C363 H420 0.930 . S
N364 C363 1.279 . S
N364 C367 1.314 1_565 S
C365 C362 1.345 . S
C365 C367 1.353 . S
C365 H421 0.929 . S
C366 C362 1.359 1_565 S
C366 C363 1.358 . S
C366 H422 0.930 . S
C367 N364 1.314 1_545 S
C367 C365 1.353 . S
C367 H423 0.930 . S
C368 N369 1.314 . S
C368 C373 1.353 . S
C368 H374 0.930 . S
N369 Li352 1.990 . S
N369 C368 1.314 . S
N369 C371 1.279 . S
C370 C371 1.358 . S
C370 C372 1.356 . S
C370 H424 0.930 . S
C371 N369 1.279 . S
C371 C370 1.358 . S
C371 H375 0.930 . S
C372 C370 1.356 . S
C372 C373 1.348 . S
C373 C368 1.353 . S
C373 C372 1.348 . S
C373 H425 0.929 . S
H374 C368 0.930 . S
H375 C371 0.930 . S
C376 N377 1.314 . S
C376 C378 1.353 . S
C376 H382 0.930 . S
N377 Li353 1.991 . S
N377 C376 1.314 . S
N377 C380 1.279 1_565 S
C378 C376 1.353 . S
C378 C381 1.346 1_565 S
C378 H426 0.929 . S
C379 C380 1.358 . S
C379 C381 1.357 . S
C379 H427 0.930 . S
C380 N377 1.279 1_545 S
C380 C379 1.358 . S
C380 H383 0.930 . S
C381 C378 1.346 1_545 S
C381 C379 1.357 . S
H382 C376 0.930 . S
H383 C380 0.930 . S
C384 C386 1.345 1_545 S
C384 C387 1.359 . S
C384 O414 1.325 1_545 S
N385 C388 1.314 1_545 S
N385 C389 1.279 . S
C386 C384 1.345 1_565 S
C386 C388 1.353 . S
C386 H428 0.929 . S
C387 C384 1.359 . S
C387 C389 1.358 . S
C387 H429 0.930 . S
C388 N385 1.314 1_565 S
C388 C386 1.353 . S
C388 H430 0.930 . S
C389 N385 1.279 . S
C389 C387 1.358 . S
C389 H431 0.930 . S
C390 C391 1.348 . S
C390 C392 1.356 . S
C390 O415 1.325 . S
C391 C390 1.348 . S
C391 C393 1.353 . S
C391 H432 0.929 . S
C392 C390 1.356 . S
C392 C394 1.358 . S
C392 H433 0.930 . S
C393 C391 1.353 . S
C393 N395 1.314 . S
C393 H434 0.930 . S
C394 C392 1.358 . S
C394 N395 1.279 . S
C394 H435 0.930 . S
N395 C393 1.314 . S
N395 C394 1.279 . S
C396 C398 1.353 . S
C396 N399 1.314 . S
C396 H402 0.930 . S
C397 N399 1.279 1_565 S
C397 C400 1.358 . S
C397 H403 0.930 . S
C398 C396 1.353 . S
C398 C401 1.346 . S
C398 H436 0.929 . S
N399 Li354 1.991 . S
N399 C396 1.314 . S
N399 C397 1.279 1_545 S
C400 C397 1.358 . S
C400 C401 1.357 1_565 S
C400 H437 0.930 . S
C401 C398 1.346 . S
C401 C400 1.357 1_545 S
H402 C396 0.930 . S
H403 C397 0.930 . S
C404 N405 1.314 . S
C404 C406 1.353 . S
C404 H410 0.930 . S
N405 Li355 1.990 . S
N405 C404 1.314 . S
N405 C408 1.279 . S
C406 C404 1.353 . S
C406 C409 1.348 . S
C406 H438 0.929 . S
C407 C408 1.358 . S
C407 C409 1.356 . S
C407 H439 0.930 . S
C408 N405 1.279 . S
C408 C407 1.358 . S
C408 H411 0.930 . S
C409 C406 1.348 . S
C409 C407 1.356 . S
H410 C404 0.930 . S
H411 C408 0.930 . S
O412 Li352 1.956 . S
O412 Li353 1.962 1_545 S
O412 Li354 1.976 . S
O412 C356 1.325 . S
O413 Li352 1.981 . S
O413 Li353 1.956 1_545 S
O413 Li355 1.950 1_545 S
O413 C362 1.325 . S
O414 Li352 1.957 1_565 S
O414 Li354 1.956 1_565 S
O414 Li355 1.974 . S
O414 C384 1.325 1_565 S
O415 Li353 1.969 . S
O415 Li354 1.955 1_565 S
O415 Li355 1.956 . S
O415 C390 1.325 . S
H416 C358 0.929 . S
H417 C359 0.930 . S
H418 C360 0.930 . S
H419 C361 0.930 . S
H420 C363 0.930 . S
H421 C365 0.929 . S
H422 C366 0.930 . S
H423 C367 0.930 . S
H424 C370 0.930 . S
H425 C373 0.929 . S
H426 C378 0.929 . S
H427 C379 0.930 . S
H428 C386 0.929 . S
H429 C387 0.930 . S
H430 C388 0.930 . S
H431 C389 0.930 . S
H432 C391 0.929 . S
H433 C392 0.930 . S
H434 C393 0.930 . S
H435 C394 0.930 . S
H436 C398 0.929 . S
H437 C400 0.930 . S
H438 C406 0.929 . S
H439 C407 0.930 . S
Li440 N457 1.990 . S
Li440 O500 1.956 . S
Li440 O501 1.974 . S
Li440 O502 1.950 1_655 S
Li441 N465 1.991 . S
Li441 O500 1.955 1_455 S
Li441 O501 1.956 1_455 S
Li441 O503 1.976 . S
Li442 N487 1.991 . S
Li442 O500 1.969 . S
Li442 O502 1.956 1_655 S
Li442 O503 1.962 1_655 S
Li443 N493 1.990 . S
Li443 O501 1.957 1_455 S
Li443 O502 1.981 . S
Li443 O503 1.956 . S
C444 C446 1.348 . S
C444 C447 1.356 . S
C444 O500 1.325 . S
N445 C448 1.314 . S
N445 C449 1.279 . S
C446 C444 1.348 . S
C446 C448 1.353 . S
C446 H504 0.929 . S
C447 C444 1.356 . S
C447 C449 1.358 . S
C447 H505 0.930 . S
C448 N445 1.314 . S
C448 C446 1.353 . S
C448 H506 0.930 . S
C449 N445 1.279 . S
C449 C447 1.358 . S
C449 H507 0.930 . S
C450 C453 1.345 1_455 S
C450 C454 1.359 . S
C450 O501 1.325 1_455 S
C451 N452 1.279 . S
C451 C454 1.358 . S
C451 H508 0.930 . S
N452 C451 1.279 . S
N452 C455 1.314 1_455 S
C453 C450 1.345 1_655 S
C453 C455 1.353 . S
C453 H509 0.929 . S
C454 C450 1.359 . S
C454 C451 1.358 . S
C454 H510 0.930 . S
C455 N452 1.314 1_655 S
C455 C453 1.353 . S
C455 H511 0.930 . S
C456 N457 1.314 . S
C456 C461 1.353 . S
C456 H462 0.930 . S
N457 Li440 1.990 . S
N457 C456 1.314 . S
N457 C459 1.279 . S
C458 C459 1.358 . S
C458 C460 1.356 . S
C458 H512 0.930 . S
C459 N457 1.279 . S
C459 C458 1.358 . S
C459 H463 0.930 . S
C460 C458 1.356 . S
C460 C461 1.348 . S
C461 C456 1.353 . S
C461 C460 1.348 . S
C461 H513 0.929 . S
H462 C456 0.930 . S
H463 C459 0.930 . S
C464 N465 1.314 . S
C464 C466 1.353 . S
C464 H470 0.930 . S
N465 Li441 1.991 . S
N465 C464 1.314 . S
N465 C468 1.279 1_455 S
C466 C464 1.353 . S
C466 C469 1.346 . S
C466 H514 0.929 . S
C467 C468 1.358 . S
C467 C469 1.357 1_655 S
C467 H515 0.930 . S
C468 N465 1.279 1_655 S
C468 C467 1.358 . S
C468 H471 0.930 . S
C469 C466 1.346 . S
C469 C467 1.357 1_455 S
H470 C464 0.930 . S
H471 C468 0.930 . S
C472 C474 1.345 . S
C472 C475 1.359 1_455 S
C472 O502 1.325 . S
N473 C476 1.314 1_655 S
N473 C477 1.279 . S
C474 C472 1.345 . S
C474 C476 1.353 . S
C474 H516 0.929 . S
C475 C472 1.359 1_655 S
C475 C477 1.358 . S
C475 H517 0.930 . S
C476 N473 1.314 1_455 S
C476 C474 1.353 . S
C476 H518 0.930 . S
C477 N473 1.279 . S
C477 C475 1.358 . S
C477 H519 0.930 . S
C478 C479 1.348 . S
C478 C480 1.356 . S
C478 O503 1.325 . S
C479 C478 1.348 . S
C479 C481 1.353 . S
C479 H520 0.929 . S
C480 C478 1.356 . S
C480 C482 1.358 . S
C480 H521 0.930 . S
C481 C479 1.353 . S
C481 N483 1.314 . S
C481 H522 0.930 . S
C482 C480 1.358 . S
C482 N483 1.279 . S
C482 H523 0.930 . S
N483 C481 1.314 . S
N483 C482 1.279 . S
C484 C486 1.353 . S
C484 N487 1.314 . S
C484 H490 0.930 . S
C485 N487 1.279 1_455 S
C485 C488 1.358 . S
C485 H491 0.930 . S
C486 C484 1.353 . S
C486 C489 1.346 1_655 S
C486 H524 0.929 . S
N487 Li442 1.991 . S
N487 C484 1.314 . S
N487 C485 1.279 1_655 S
C488 C485 1.358 . S
C488 C489 1.357 . S
C488 H525 0.930 . S
C489 C486 1.346 1_455 S
C489 C488 1.357 . S
H490 C484 0.930 . S
H491 C485 0.930 . S
C492 N493 1.314 . S
C492 C494 1.353 . S
C492 H498 0.930 . S
N493 Li443 1.990 . S
N493 C492 1.314 . S
N493 C496 1.279 . S
C494 C492 1.353 . S
C494 C497 1.348 . S
C494 H526 0.929 . S
C495 C496 1.358 . S
C495 C497 1.356 . S
C495 H527 0.930 . S
C496 N493 1.279 . S
C496 C495 1.358 . S
C496 H499 0.930 . S
C497 C494 1.348 . S
C497 C495 1.356 . S
H498 C492 0.930 . S
H499 C496 0.930 . S
O500 Li440 1.956 . S
O500 Li441 1.955 1_655 S
O500 Li442 1.969 . S
O500 C444 1.325 . S
O501 Li440 1.974 . S
O501 Li441 1.956 1_655 S
O501 Li443 1.957 1_655 S
O501 C450 1.325 1_655 S
O502 Li440 1.950 1_455 S
O502 Li442 1.956 1_455 S
O502 Li443 1.981 . S
O502 C472 1.325 . S
O503 Li441 1.976 . S
O503 Li442 1.962 1_455 S
O503 Li443 1.956 . S
O503 C478 1.325 . S
H504 C446 0.929 . S
H505 C447 0.930 . S
H506 C448 0.930 . S
H507 C449 0.930 . S
H508 C451 0.930 . S
H509 C453 0.929 . S
H510 C454 0.930 . S
H511 C455 0.930 . S
H512 C458 0.930 . S
H513 C461 0.929 . S
H514 C466 0.929 . S
H515 C467 0.930 . S
H516 C474 0.929 . S
H517 C475 0.930 . S
H518 C476 0.930 . S
H519 C477 0.930 . S
H520 C479 0.929 . S
H521 C480 0.930 . S
H522 C481 0.930 . S
H523 C482 0.930 . S
H524 C486 0.929 . S
H525 C488 0.930 . S
H526 C494 0.929 . S
H527 C495 0.930 . S
Li528 N545 1.991 . S
Li528 O588 1.956 1_545 S
Li528 O589 1.955 1_545 S
Li528 O590 1.976 . S
Li529 N553 1.990 . S
Li529 O588 1.974 . S
Li529 O589 1.956 . S
Li529 O591 1.950 1_565 S
Li530 N575 1.990 . S
Li530 O588 1.957 1_545 S
Li530 O590 1.956 . S
Li530 O591 1.981 . S
Li531 N581 1.991 . S
Li531 O589 1.969 . S
Li531 O590 1.962 1_565 S
Li531 O591 1.956 1_565 S
C532 C534 1.345 1_545 S
C532 C535 1.359 . S
C532 O588 1.325 1_545 S
N533 C536 1.314 1_545 S
N533 C537 1.279 . S
C534 C532 1.345 1_565 S
C534 C536 1.353 . S
C534 H592 0.929 . S
C535 C532 1.359 . S
C535 C537 1.358 . S
C535 H593 0.930 . S
C536 N533 1.314 1_565 S
C536 C534 1.353 . S
C536 H594 0.930 . S
C537 N533 1.279 . S
C537 C535 1.358 . S
C537 H595 0.930 . S
C538 C541 1.348 . S
C538 C542 1.356 . S
C538 O589 1.325 . S
C539 N540 1.279 . S
C539 C542 1.358 . S
C539 H596 0.930 . S
N540 C539 1.279 . S
N540 C543 1.314 . S
C541 C538 1.348 . S
C541 C543 1.353 . S
C541 H597 0.929 . S
C542 C538 1.356 . S
C542 C539 1.358 . S
C542 H598 0.930 . S
C543 N540 1.314 . S
C543 C541 1.353 . S
C543 H599 0.930 . S
C544 N545 1.314 . S
C544 C549 1.353 . S
C544 H550 0.930 . S
N545 Li528 1.991 . S
N545 C544 1.314 . S
N545 C547 1.279 1_545 S
C546 C547 1.358 . S
C546 C548 1.357 1_565 S
C546 H600 0.930 . S
C547 N545 1.279 1_565 S
C547 C546 1.358 . S
C547 H551 0.930 . S
C548 C546 1.357 1_545 S
C548 C549 1.346 . S
C549 C544 1.353 . S
C549 C548 1.346 . S
C549 H601 0.929 . S
H550 C544 0.930 . S
H551 C547 0.930 . S
C552 N553 1.314 . S
C552 C554 1.353 . S
C552 H558 0.930 . S
N553 Li529 1.990 . S
N553 C552 1.314 . S
N553 C556 1.279 . S
C554 C552 1.353 . S
C554 C557 1.348 . S
C554 H602 0.929 . S
C555 C556 1.358 . S
C555 C557 1.356 . S
C555 H603 0.930 . S
C556 N553 1.279 . S
C556 C555 1.358 . S
C556 H559 0.930 . S
C557 C554 1.348 . S
C557 C555 1.356 . S
H558 C552 0.930 . S
H559 C556 0.930 . S
C560 C562 1.348 . S
C560 C563 1.356 . S
C560 O590 1.325 . S
N561 C564 1.314 . S
N561 C565 1.279 . S
C562 C560 1.348 . S
C562 C564 1.353 . S
C562 H604 0.929 . S
C563 C560 1.356 . S
C563 C565 1.358 . S
C563 H605 0.930 . S
C564 N561 1.314 . S
C564 C562 1.353 . S
C564 H606 0.930 . S
C565 N561 1.279 . S
C565 C563 1.358 . S
C565 H607 0.930 . S
C566 C567 1.345 . S
C566 C568 1.359 1_545 S
C566 O591 1.325 . S
C567 C566 1.345 . S
C567 C569 1.353 . S
C567 H608 0.929 . S
C568 C566 1.359 1_565 S
C568 C570 1.358 . S
C568 H609 0.930 . S
C569 C567 1.353 . S
C569 N571 1.314 1_545 S
C569 H610 0.930 . S
C570 C568 1.358 . S
C570 N571 1.279 . S
C570 H611 0.930 . S
N571 C569 1.314 1_565 S
N571 C570 1.279 . S
C572 C574 1.353 . S
C572 N575 1.314 . S
C572 H578 0.930 . S
C573 N575 1.279 . S
C573 C576 1.358 . S
C573 H579 0.930 . S
C574 C572 1.353 . S
C574 C577 1.348 . S
C574 H612 0.929 . S
N575 Li530 1.990 . S
N575 C572 1.314 . S
N575 C573 1.279 . S
C576 C573 1.358 . S
C576 C577 1.356 . S
C576 H613 0.930 . S
C577 C574 1.348 . S
C577 C576 1.356 . S
H578 C572 0.930 . S
H579 C573 0.930 . S
C580 N581 1.314 . S
C580 C582 1.353 . S
C580 H586 0.930 . S
N581 Li531 1.991 . S
N581 C580 1.314 . S
N581 C584 1.279 1_565 S
C582 C580 1.353 . S
C582 C585 1.346 1_565 S
C582 H614 0.929 . S
C583 C584 1.358 . S
C583 C585 1.357 . S
C583 H615 0.930 . S
C584 N581 1.279 1_545 S
C584 C583 1.358 . S
C584 H587 0.930 . S
C585 C582 1.346 1_545 S
C585 C583 1.357 . S
H586 C580 0.930 . S
H587 C584 0.930 . S
O588 Li528 1.956 1_565 S
O588 Li529 1.974 . S
O588 Li530 1.957 1_565 S
O588 C532 1.325 1_565 S
O589 Li528 1.955 1_565 S
O589 Li529 1.956 . S
O589 Li531 1.969 . S
O589 C538 1.325 . S
O590 Li528 1.976 . S
O590 Li530 1.956 . S
O590 Li531 1.962 1_545 S
O590 C560 1.325 . S
O591 Li529 1.950 1_545 S
O591 Li530 1.981 . S
O591 Li531 1.956 1_545 S
O591 C566 1.325 . S
H592 C534 0.929 . S
H593 C535 0.930 . S
H594 C536 0.930 . S
H595 C537 0.930 . S
H596 C539 0.930 . S
H597 C541 0.929 . S
H598 C542 0.930 . S
H599 C543 0.930 . S
H600 C546 0.930 . S
H601 C549 0.929 . S
H602 C554 0.929 . S
H603 C555 0.930 . S
H604 C562 0.929 . S
H605 C563 0.930 . S
H606 C564 0.930 . S
H607 C565 0.930 . S
H608 C567 0.929 . S
H609 C568 0.930 . S
H610 C569 0.930 . S
H611 C570 0.930 . S
H612 C574 0.929 . S
H613 C576 0.930 . S
H614 C582 0.929 . S
H615 C583 0.930 . S
Li616 N633 1.991 . S
Li616 O676 1.956 1_455 S
Li616 O677 1.955 1_455 S
Li616 O678 1.976 . S
Li617 N641 1.990 . S
Li617 O676 1.974 . S
Li617 O677 1.956 . S
Li617 O679 1.950 1_655 S
Li618 N663 1.990 . S
Li618 O676 1.957 1_455 S
Li618 O678 1.956 . S
Li618 O679 1.981 . S
Li619 N669 1.991 . S
Li619 O677 1.969 . S
Li619 O678 1.962 1_655 S
Li619 O679 1.956 1_655 S
C620 C622 1.345 1_455 S
C620 C623 1.359 . S
C620 O676 1.325 1_455 S
N621 C624 1.314 1_455 S
N621 C625 1.279 . S
C622 C620 1.345 1_655 S
C622 C624 1.353 . S
C622 H680 0.929 . S
C623 C620 1.359 . S
C623 C625 1.358 . S
C623 H681 0.930 . S
C624 N621 1.314 1_655 S
C624 C622 1.353 . S
C624 H682 0.930 . S
C625 N621 1.279 . S
C625 C623 1.358 . S
C625 H683 0.930 . S
C626 C629 1.348 . S
C626 C630 1.356 . S
C626 O677 1.325 . S
C627 N628 1.279 . S
C627 C630 1.358 . S
C627 H684 0.930 . S
N628 C627 1.279 . S
N628 C631 1.314 . S
C629 C626 1.348 . S
C629 C631 1.353 . S
C629 H685 0.929 . S
C630 C626 1.356 . S
C630 C627 1.358 . S
C630 H686 0.930 . S
C631 N628 1.314 . S
C631 C629 1.353 . S
C631 H687 0.930 . S
C632 N633 1.314 . S
C632 C637 1.353 . S
C632 H638 0.930 . S
N633 Li616 1.991 . S
N633 C632 1.314 . S
N633 C635 1.279 1_455 S
C634 C635 1.358 . S
C634 C636 1.357 1_655 S
C634 H688 0.930 . S
C635 N633 1.279 1_655 S
C635 C634 1.358 . S
C635 H639 0.930 . S
C636 C634 1.357 1_455 S
C636 C637 1.346 . S
C637 C632 1.353 . S
C637 C636 1.346 . S
C637 H689 0.929 . S
H638 C632 0.930 . S
H639 C635 0.930 . S
C640 N641 1.314 . S
C640 C642 1.353 . S
C640 H646 0.930 . S
N641 Li617 1.990 . S
N641 C640 1.314 . S
N641 C644 1.279 . S
C642 C640 1.353 . S
C642 C645 1.348 . S
C642 H690 0.929 . S
C643 C644 1.358 . S
C643 C645 1.356 . S
C643 H691 0.930 . S
C644 N641 1.279 . S
C644 C643 1.358 . S
C644 H647 0.930 . S
C645 C642 1.348 . S
C645 C643 1.356 . S
H646 C640 0.930 . S
H647 C644 0.930 . S
C648 C650 1.348 . S
C648 C651 1.356 . S
C648 O678 1.325 . S
N649 C652 1.314 . S
N649 C653 1.279 . S
C650 C648 1.348 . S
C650 C652 1.353 . S
C650 H692 0.929 . S
C651 C648 1.356 . S
C651 C653 1.358 . S
C651 H693 0.930 . S
C652 N649 1.314 . S
C652 C650 1.353 . S
C652 H694 0.930 . S
C653 N649 1.279 . S
C653 C651 1.358 . S
C653 H695 0.930 . S
C654 C655 1.345 . S
C654 C656 1.359 1_455 S
C654 O679 1.325 . S
C655 C654 1.345 . S
C655 C657 1.353 . S
C655 H696 0.929 . S
C656 C654 1.359 1_655 S
C656 C658 1.358 . S
C656 H697 0.930 . S
C657 C655 1.353 . S
C657 N659 1.314 1_455 S
C657 H698 0.930 . S
C658 C656 1.358 . S
C658 N659 1.279 . S
C658 H699 0.930 . S
N659 C657 1.314 1_655 S
N659 C658 1.279 . S
C660 C662 1.353 . S
C660 N663 1.314 . S
C660 H666 0.930 . S
C661 N663 1.279 . S
C661 C664 1.358 . S
C661 H667 0.930 . S
C662 C660 1.353 . S
C662 C665 1.348 . S
C662 H700 0.929 . S
N663 Li618 1.990 . S
N663 C660 1.314 . S
N663 C661 1.279 . S
C664 C661 1.358 . S
C664 C665 1.356 . S
C664 H701 0.930 . S
C665 C662 1.348 . S
C665 C664 1.356 . S
H666 C660 0.930 . S
H667 C661 0.930 . S
C668 N669 1.314 . S
C668 C670 1.353 . S
C668 H674 0.930 . S
N669 Li619 1.991 . S
N669 C668 1.314 . S
N669 C672 1.279 1_655 S
C670 C668 1.353 . S
C670 C673 1.346 1_655 S
C670 H702 0.929 . S
C671 C672 1.358 . S
C671 C673 1.357 . S
C671 H703 0.930 . S
C672 N669 1.279 1_455 S
C672 C671 1.358 . S
C672 H675 0.930 . S
C673 C670 1.346 1_455 S
C673 C671 1.357 . S
H674 C668 0.930 . S
H675 C672 0.930 . S
O676 Li616 1.956 1_655 S
O676 Li617 1.974 . S
O676 Li618 1.957 1_655 S
O676 C620 1.325 1_655 S
O677 Li616 1.955 1_655 S
O677 Li617 1.956 . S
O677 Li619 1.969 . S
O677 C626 1.325 . S
O678 Li616 1.976 . S
O678 Li618 1.956 . S
O678 Li619 1.962 1_455 S
O678 C648 1.325 . S
O679 Li617 1.950 1_455 S
O679 Li618 1.981 . S
O679 Li619 1.956 1_455 S
O679 C654 1.325 . S
H680 C622 0.929 . S
H681 C623 0.930 . S
H682 C624 0.930 . S
H683 C625 0.930 . S
H684 C627 0.930 . S
H685 C629 0.929 . S
H686 C630 0.930 . S
H687 C631 0.930 . S
H688 C634 0.930 . S
H689 C637 0.929 . S
H690 C642 0.929 . S
H691 C643 0.930 . S
H692 C650 0.929 . S
H693 C651 0.930 . S
H694 C652 0.930 . S
H695 C653 0.930 . S
H696 C655 0.929 . S
H697 C656 0.930 . S
H698 C657 0.930 . S
H699 C658 0.930 . S
H700 C662 0.929 . S
H701 C664 0.930 . S
H702 C670 0.929 . S
H703 C671 0.930 . S
Li704 N721 1.990 . S
Li704 O764 1.956 . S
Li704 O765 1.981 . S
Li704 O766 1.957 1_554 S
Li705 N729 1.991 . S
Li705 O764 1.962 1_556 S
Li705 O765 1.956 1_556 S
Li705 O767 1.969 . S
Li706 N751 1.991 . S
Li706 O764 1.976 . S
Li706 O766 1.956 1_554 S
Li706 O767 1.955 1_554 S
Li707 N757 1.990 . S
Li707 O765 1.950 1_556 S
Li707 O766 1.974 . S
Li707 O767 1.956 . S
C708 C710 1.348 . S
C708 C711 1.356 . S
C708 O764 1.325 . S
N709 C712 1.314 . S
N709 C713 1.279 . S
C710 C708 1.348 . S
C710 C712 1.353 . S
C710 H768 0.929 . S
C711 C708 1.356 . S
C711 C713 1.358 . S
C711 H769 0.930 . S
C712 N709 1.314 . S
C712 C710 1.353 . S
C712 H770 0.930 . S
C713 N709 1.279 . S
C713 C711 1.358 . S
C713 H771 0.930 . S
C714 C717 1.345 . S
C714 C718 1.359 1_554 S
C714 O765 1.325 . S
C715 N716 1.279 . S
C715 C718 1.358 . S
C715 H772 0.930 . S
N716 C715 1.279 . S
N716 C719 1.314 1_556 S
C717 C714 1.345 . S
C717 C719 1.353 . S
C717 H773 0.929 . S
C718 C714 1.359 1_556 S
C718 C715 1.358 . S
C718 H774 0.930 . S
C719 N716 1.314 1_554 S
C719 C717 1.353 . S
C719 H775 0.930 . S
C720 N721 1.314 . S
C720 C725 1.353 . S
C720 H726 0.930 . S
N721 Li704 1.990 . S
N721 C720 1.314 . S
N721 C723 1.279 . S
C722 C723 1.358 . S
C722 C724 1.356 . S
C722 H776 0.930 . S
C723 N721 1.279 . S
C723 C722 1.358 . S
C723 H727 0.930 . S
C724 C722 1.356 . S
C724 C725 1.348 . S
C725 C720 1.353 . S
C725 C724 1.348 . S
C725 H777 0.929 . S
H726 C720 0.930 . S
H727 C723 0.930 . S
C728 N729 1.314 . S
C728 C730 1.353 . S
C728 H734 0.930 . S
N729 Li705 1.991 . S
N729 C728 1.314 . S
N729 C732 1.279 1_556 S
C730 C728 1.353 . S
C730 C733 1.346 1_556 S
C730 H778 0.929 . S
C731 C732 1.358 . S
C731 C733 1.357 . S
C731 H779 0.930 . S
C732 N729 1.279 1_554 S
C732 C731 1.358 . S
C732 H735 0.930 . S
C733 C730 1.346 1_554 S
C733 C731 1.357 . S
H734 C728 0.930 . S
H735 C732 0.930 . S
C736 C738 1.345 1_554 S
C736 C739 1.359 . S
C736 O766 1.325 1_554 S
N737 C740 1.314 1_554 S
N737 C741 1.279 . S
C738 C736 1.345 1_556 S
C738 C740 1.353 . S
C738 H780 0.929 . S
C739 C736 1.359 . S
C739 C741 1.358 . S
C739 H781 0.930 . S
C740 N737 1.314 1_556 S
C740 C738 1.353 . S
C740 H782 0.930 . S
C741 N737 1.279 . S
C741 C739 1.358 . S
C741 H783 0.930 . S
C742 C743 1.348 . S
C742 C744 1.356 . S
C742 O767 1.325 . S
C743 C742 1.348 . S
C743 C745 1.353 . S
C743 H784 0.929 . S
C744 C742 1.356 . S
C744 C746 1.358 . S
C744 H785 0.930 . S
C745 C743 1.353 . S
C745 N747 1.314 . S
C745 H786 0.930 . S
C746 C744 1.358 . S
C746 N747 1.279 . S
C746 H787 0.930 . S
N747 C745 1.314 . S
N747 C746 1.279 . S
C748 C750 1.353 . S
C748 N751 1.314 . S
C748 H754 0.930 . S
C749 N751 1.279 1_556 S
C749 C752 1.358 . S
C749 H755 0.930 . S
C750 C748 1.353 . S
C750 C753 1.346 . S
C750 H788 0.929 . S
N751 Li706 1.991 . S
N751 C748 1.314 . S
N751 C749 1.279 1_554 S
C752 C749 1.358 . S
C752 C753 1.357 1_556 S
C752 H789 0.930 . S
C753 C750 1.346 . S
C753 C752 1.357 1_554 S
H754 C748 0.930 . S
H755 C749 0.930 . S
C756 N757 1.314 . S
C756 C758 1.353 . S
C756 H762 0.930 . S
N757 Li707 1.990 . S
N757 C756 1.314 . S
N757 C760 1.279 . S
C758 C756 1.353 . S
C758 C761 1.348 . S
C758 H790 0.929 . S
C759 C760 1.358 . S
C759 C761 1.356 . S
C759 H791 0.930 . S
C760 N757 1.279 . S
C760 C759 1.358 . S
C760 H763 0.930 . S
C761 C758 1.348 . S
C761 C759 1.356 . S
H762 C756 0.930 . S
H763 C760 0.930 . S
O764 Li704 1.956 . S
O764 Li705 1.962 1_554 S
O764 Li706 1.976 . S
O764 C708 1.325 . S
O765 Li704 1.981 . S
O765 Li705 1.956 1_554 S
O765 Li707 1.950 1_554 S
O765 C714 1.325 . S
O766 Li704 1.957 1_556 S
O766 Li706 1.956 1_556 S
O766 Li707 1.974 . S
O766 C736 1.325 1_556 S
O767 Li705 1.969 . S
O767 Li706 1.955 1_556 S
O767 Li707 1.956 . S
O767 C742 1.325 . S
H768 C710 0.929 . S
H769 C711 0.930 . S
H770 C712 0.930 . S
H771 C713 0.930 . S
H772 C715 0.930 . S
H773 C717 0.929 . S
H774 C718 0.930 . S
H775 C719 0.930 . S
H776 C722 0.930 . S
H777 C725 0.929 . S
H778 C730 0.929 . S
H779 C731 0.930 . S
H780 C738 0.929 . S
H781 C739 0.930 . S
H782 C740 0.930 . S
H783 C741 0.930 . S
H784 C743 0.929 . S
H785 C744 0.930 . S
H786 C745 0.930 . S
H787 C746 0.930 . S
H788 C750 0.929 . S
H789 C752 0.930 . S
H790 C758 0.929 . S
H791 C759 0.930 . S
Li792 N809 1.991 . S
Li792 O852 1.956 1_556 S
Li792 O853 1.962 1_556 S
Li792 O854 1.969 . S
Li793 N817 1.990 . S
Li793 O852 1.981 . S
Li793 O853 1.956 . S
Li793 O855 1.957 1_554 S
Li794 N839 1.990 . S
Li794 O852 1.950 1_556 S
Li794 O854 1.956 . S
Li794 O855 1.974 . S
Li795 N845 1.991 . S
Li795 O853 1.976 . S
Li795 O854 1.955 1_554 S
Li795 O855 1.956 1_554 S
C796 C798 1.345 . S
C796 C799 1.359 1_554 S
C796 O852 1.325 . S
N797 C800 1.314 1_556 S
N797 C801 1.279 . S
C798 C796 1.345 . S
C798 C800 1.353 . S
C798 H856 0.929 . S
C799 C796 1.359 1_556 S
C799 C801 1.358 . S
C799 H857 0.930 . S
C800 N797 1.314 1_554 S
C800 C798 1.353 . S
C800 H858 0.930 . S
C801 N797 1.279 . S
C801 C799 1.358 . S
C801 H859 0.930 . S
C802 C805 1.348 . S
C802 C806 1.356 . S
C802 O853 1.325 . S
C803 N804 1.279 . S
C803 C806 1.358 . S
C803 H860 0.930 . S
N804 C803 1.279 . S
N804 C807 1.314 . S
C805 C802 1.348 . S
C805 C807 1.353 . S
C805 H861 0.929 . S
C806 C802 1.356 . S
C806 C803 1.358 . S
C806 H862 0.930 . S
C807 N804 1.314 . S
C807 C805 1.353 . S
C807 H863 0.930 . S
C808 N809 1.314 . S
C808 C813 1.353 . S
C808 H814 0.930 . S
N809 Li792 1.991 . S
N809 C808 1.314 . S
N809 C811 1.279 1_556 S
C810 C811 1.358 . S
C810 C812 1.357 . S
C810 H864 0.930 . S
C811 N809 1.279 1_554 S
C811 C810 1.358 . S
C811 H815 0.930 . S
C812 C810 1.357 . S
C812 C813 1.346 1_554 S
C813 C808 1.353 . S
C813 C812 1.346 1_556 S
C813 H865 0.929 . S
H814 C808 0.930 . S
H815 C811 0.930 . S
C816 N817 1.314 . S
C816 C818 1.353 . S
C816 H822 0.930 . S
N817 Li793 1.990 . S
N817 C816 1.314 . S
N817 C820 1.279 . S
C818 C816 1.353 . S
C818 C821 1.348 . S
C818 H866 0.929 . S
C819 C820 1.358 . S
C819 C821 1.356 . S
C819 H867 0.930 . S
C820 N817 1.279 . S
C820 C819 1.358 . S
C820 H823 0.930 . S
C821 C818 1.348 . S
C821 C819 1.356 . S
H822 C816 0.930 . S
H823 C820 0.930 . S
C824 C826 1.348 . S
C824 C827 1.356 . S
C824 O854 1.325 . S
N825 C828 1.314 . S
N825 C829 1.279 . S
C826 C824 1.348 . S
C826 C828 1.353 . S
C826 H868 0.929 . S
C827 C824 1.356 . S
C827 C829 1.358 . S
C827 H869 0.930 . S
C828 N825 1.314 . S
C828 C826 1.353 . S
C828 H870 0.930 . S
C829 N825 1.279 . S
C829 C827 1.358 . S
C829 H871 0.930 . S
C830 C831 1.345 1_554 S
C830 C832 1.359 . S
C830 O855 1.325 1_554 S
C831 C830 1.345 1_556 S
C831 C833 1.353 . S
C831 H872 0.929 . S
C832 C830 1.359 . S
C832 C834 1.358 . S
C832 H873 0.930 . S
C833 C831 1.353 . S
C833 N835 1.314 1_556 S
C833 H874 0.930 . S
C834 C832 1.358 . S
C834 N835 1.279 . S
C834 H875 0.930 . S
N835 C833 1.314 1_554 S
N835 C834 1.279 . S
C836 C838 1.353 . S
C836 N839 1.314 . S
C836 H842 0.930 . S
C837 N839 1.279 . S
C837 C840 1.358 . S
C837 H843 0.930 . S
C838 C836 1.353 . S
C838 C841 1.348 . S
C838 H876 0.929 . S
N839 Li794 1.990 . S
N839 C836 1.314 . S
N839 C837 1.279 . S
C840 C837 1.358 . S
C840 C841 1.356 . S
C840 H877 0.930 . S
C841 C838 1.348 . S
C841 C840 1.356 . S
H842 C836 0.930 . S
H843 C837 0.930 . S
C844 N845 1.314 . S
C844 C846 1.353 . S
C844 H850 0.930 . S
N845 Li795 1.991 . S
N845 C844 1.314 . S
N845 C848 1.279 1_554 S
C846 C844 1.353 . S
C846 C849 1.346 . S
C846 H878 0.929 . S
C847 C848 1.358 . S
C847 C849 1.357 1_556 S
C847 H879 0.930 . S
C848 N845 1.279 1_556 S
C848 C847 1.358 . S
C848 H851 0.930 . S
C849 C846 1.346 . S
C849 C847 1.357 1_554 S
H850 C844 0.930 . S
H851 C848 0.930 . S
O852 Li792 1.956 1_554 S
O852 Li793 1.981 . S
O852 Li794 1.950 1_554 S
O852 C796 1.325 . S
O853 Li792 1.962 1_554 S
O853 Li793 1.956 . S
O853 Li795 1.976 . S
O853 C802 1.325 . S
O854 Li792 1.969 . S
O854 Li794 1.956 . S
O854 Li795 1.955 1_556 S
O854 C824 1.325 . S
O855 Li793 1.957 1_556 S
O855 Li794 1.974 . S
O855 Li795 1.956 1_556 S
O855 C830 1.325 1_556 S
H856 C798 0.929 . S
H857 C799 0.930 . S
H858 C800 0.930 . S
H859 C801 0.930 . S
H860 C803 0.930 . S
H861 C805 0.929 . S
H862 C806 0.930 . S
H863 C807 0.930 . S
H864 C810 0.930 . S
H865 C813 0.929 . S
H866 C818 0.929 . S
H867 C819 0.930 . S
H868 C826 0.929 . S
H869 C827 0.930 . S
H870 C828 0.930 . S
H871 C829 0.930 . S
H872 C831 0.929 . S
H873 C832 0.930 . S
H874 C833 0.930 . S
H875 C834 0.930 . S
H876 C838 0.929 . S
H877 C840 0.930 . S
H878 C846 0.929 . S
H879 C847 0.930 . S
Li880 N897 1.991 . S
Li880 O940 1.956 1_556 S
Li880 O941 1.962 1_556 S
Li880 O942 1.969 . S
Li881 N905 1.990 . S
Li881 O940 1.981 . S
Li881 O941 1.956 . S
Li881 O943 1.957 1_554 S
Li882 N927 1.990 . S
Li882 O940 1.950 1_556 S
Li882 O942 1.956 . S
Li882 O943 1.974 . S
Li883 N933 1.991 . S
Li883 O941 1.976 . S
Li883 O942 1.955 1_554 S
Li883 O943 1.956 1_554 S
C884 C886 1.345 . S
C884 C887 1.359 1_554 S
C884 O940 1.325 . S
N885 C888 1.314 1_556 S
N885 C889 1.279 . S
C886 C884 1.345 . S
C886 C888 1.353 . S
C886 H944 0.929 . S
C887 C884 1.359 1_556 S
C887 C889 1.358 . S
C887 H945 0.930 . S
C888 N885 1.314 1_554 S
C888 C886 1.353 . S
C888 H946 0.930 . S
C889 N885 1.279 . S
C889 C887 1.358 . S
C889 H947 0.930 . S
C890 C893 1.348 . S
C890 C894 1.356 . S
C890 O941 1.325 . S
C891 N892 1.279 . S
C891 C894 1.358 . S
C891 H948 0.930 . S
N892 C891 1.279 . S
N892 C895 1.314 . S
C893 C890 1.348 . S
C893 C895 1.353 . S
C893 H949 0.929 . S
C894 C890 1.356 . S
C894 C891 1.358 . S
C894 H950 0.930 . S
C895 N892 1.314 . S
C895 C893 1.353 . S
C895 H951 0.930 . S
C896 N897 1.314 . S
C896 C901 1.353 . S
C896 H902 0.930 . S
N897 Li880 1.991 . S
N897 C896 1.314 . S
N897 C899 1.279 1_556 S
C898 C899 1.358 . S
C898 C900 1.357 . S
C898 H952 0.930 . S
C899 N897 1.279 1_554 S
C899 C898 1.358 . S
C899 H903 0.930 . S
C900 C898 1.357 . S
C900 C901 1.346 1_554 S
C901 C896 1.353 . S
C901 C900 1.346 1_556 S
C901 H953 0.929 . S
H902 C896 0.930 . S
H903 C899 0.930 . S
C904 N905 1.314 . S
C904 C906 1.353 . S
C904 H910 0.930 . S
N905 Li881 1.990 . S
N905 C904 1.314 . S
N905 C908 1.279 . S
C906 C904 1.353 . S
C906 C909 1.348 . S
C906 H954 0.929 . S
C907 C908 1.358 . S
C907 C909 1.356 . S
C907 H955 0.930 . S
C908 N905 1.279 . S
C908 C907 1.358 . S
C908 H911 0.930 . S
C909 C906 1.348 . S
C909 C907 1.356 . S
H910 C904 0.930 . S
H911 C908 0.930 . S
C912 C914 1.348 . S
C912 C915 1.356 . S
C912 O942 1.325 . S
N913 C916 1.314 . S
N913 C917 1.279 . S
C914 C912 1.348 . S
C914 C916 1.353 . S
C914 H956 0.929 . S
C915 C912 1.356 . S
C915 C917 1.358 . S
C915 H957 0.930 . S
C916 N913 1.314 . S
C916 C914 1.353 . S
C916 H958 0.930 . S
C917 N913 1.279 . S
C917 C915 1.358 . S
C917 H959 0.930 . S
C918 C919 1.345 1_554 S
C918 C920 1.359 . S
C918 O943 1.325 1_554 S
C919 C918 1.345 1_556 S
C919 C921 1.353 . S
C919 H960 0.929 . S
C920 C918 1.359 . S
C920 C922 1.358 . S
C920 H961 0.930 . S
C921 C919 1.353 . S
C921 N923 1.314 1_556 S
C921 H962 0.930 . S
C922 C920 1.358 . S
C922 N923 1.279 . S
C922 H963 0.930 . S
N923 C921 1.314 1_554 S
N923 C922 1.279 . S
C924 C926 1.353 . S
C924 N927 1.314 . S
C924 H930 0.930 . S
C925 N927 1.279 . S
C925 C928 1.358 . S
C925 H931 0.930 . S
C926 C924 1.353 . S
C926 C929 1.348 . S
C926 H964 0.929 . S
N927 Li882 1.990 . S
N927 C924 1.314 . S
N927 C925 1.279 . S
C928 C925 1.358 . S
C928 C929 1.356 . S
C928 H965 0.930 . S
C929 C926 1.348 . S
C929 C928 1.356 . S
H930 C924 0.930 . S
H931 C925 0.930 . S
C932 N933 1.314 . S
C932 C934 1.353 . S
C932 H938 0.930 . S
N933 Li883 1.991 . S
N933 C932 1.314 . S
N933 C936 1.279 1_554 S
C934 C932 1.353 . S
C934 C937 1.346 . S
C934 H966 0.929 . S
C935 C936 1.358 . S
C935 C937 1.357 1_556 S
C935 H967 0.930 . S
C936 N933 1.279 1_556 S
C936 C935 1.358 . S
C936 H939 0.930 . S
C937 C934 1.346 . S
C937 C935 1.357 1_554 S
H938 C932 0.930 . S
H939 C936 0.930 . S
O940 Li880 1.956 1_554 S
O940 Li881 1.981 . S
O940 Li882 1.950 1_554 S
O940 C884 1.325 . S
O941 Li880 1.962 1_554 S
O941 Li881 1.956 . S
O941 Li883 1.976 . S
O941 C890 1.325 . S
O942 Li880 1.969 . S
O942 Li882 1.956 . S
O942 Li883 1.955 1_556 S
O942 C912 1.325 . S
O943 Li881 1.957 1_556 S
O943 Li882 1.974 . S
O943 Li883 1.956 1_556 S
O943 C918 1.325 1_556 S
H944 C886 0.929 . S
H945 C887 0.930 . S
H946 C888 0.930 . S
H947 C889 0.930 . S
H948 C891 0.930 . S
H949 C893 0.929 . S
H950 C894 0.930 . S
H951 C895 0.930 . S
H952 C898 0.930 . S
H953 C901 0.929 . S
H954 C906 0.929 . S
H955 C907 0.930 . S
H956 C914 0.929 . S
H957 C915 0.930 . S
H958 C916 0.930 . S
H959 C917 0.930 . S
H960 C919 0.929 . S
H961 C920 0.930 . S
H962 C921 0.930 . S
H963 C922 0.930 . S
H964 C926 0.929 . S
H965 C928 0.930 . S
H966 C934 0.929 . S
H967 C935 0.930 . S
Li968 N985 1.990 . S
Li968 O1028 1.956 . S
Li968 O1029 1.981 . S
Li968 O1030 1.957 1_554 S
Li969 N993 1.991 . S
Li969 O1028 1.962 1_556 S
Li969 O1029 1.956 1_556 S
Li969 O1031 1.969 . S
Li970 N1015 1.991 . S
Li970 O1028 1.976 . S
Li970 O1030 1.956 1_554 S
Li970 O1031 1.955 1_554 S
Li971 N1021 1.990 . S
Li971 O1029 1.950 1_556 S
Li971 O1030 1.974 . S
Li971 O1031 1.956 . S
C972 C974 1.348 . S
C972 C975 1.356 . S
C972 O1028 1.325 . S
N973 C976 1.314 . S
N973 C977 1.279 . S
C974 C972 1.348 . S
C974 C976 1.353 . S
C974 H1032 0.929 . S
C975 C972 1.356 . S
C975 C977 1.358 . S
C975 H1033 0.930 . S
C976 N973 1.314 . S
C976 C974 1.353 . S
C976 H1034 0.930 . S
C977 N973 1.279 . S
C977 C975 1.358 . S
C977 H1035 0.930 . S
C978 C981 1.345 . S
C978 C982 1.359 1_554 S
C978 O1029 1.325 . S
C979 N980 1.279 . S
C979 C982 1.358 . S
C979 H1036 0.930 . S
N980 C979 1.279 . S
N980 C983 1.314 1_556 S
C981 C978 1.345 . S
C981 C983 1.353 . S
C981 H1037 0.929 . S
C982 C978 1.359 1_556 S
C982 C979 1.358 . S
C982 H1038 0.930 . S
C983 N980 1.314 1_554 S
C983 C981 1.353 . S
C983 H1039 0.930 . S
C984 N985 1.314 . S
C984 C989 1.353 . S
C984 H990 0.930 . S
N985 Li968 1.990 . S
N985 C984 1.314 . S
N985 C987 1.279 . S
C986 C987 1.358 . S
C986 C988 1.356 . S
C986 H1040 0.930 . S
C987 N985 1.279 . S
C987 C986 1.358 . S
C987 H991 0.930 . S
C988 C986 1.356 . S
C988 C989 1.348 . S
C989 C984 1.353 . S
C989 C988 1.348 . S
C989 H1041 0.929 . S
H990 C984 0.930 . S
H991 C987 0.930 . S
C992 N993 1.314 . S
C992 C994 1.353 . S
C992 H998 0.930 . S
N993 Li969 1.991 . S
N993 C992 1.314 . S
N993 C996 1.279 1_556 S
C994 C992 1.353 . S
C994 C997 1.346 1_556 S
C994 H1042 0.929 . S
C995 C996 1.358 . S
C995 C997 1.357 . S
C995 H1043 0.930 . S
C996 N993 1.279 1_554 S
C996 C995 1.358 . S
C996 H999 0.930 . S
C997 C994 1.346 1_554 S
C997 C995 1.357 . S
H998 C992 0.930 . S
H999 C996 0.930 . S
C1000 C1002 1.345 1_554 S
C1000 C1003 1.359 . S
C1000 O1030 1.325 1_554 S
N1001 C1004 1.314 1_554 S
N1001 C1005 1.279 . S
C1002 C1000 1.345 1_556 S
C1002 C1004 1.353 . S
C1002 H1044 0.929 . S
C1003 C1000 1.359 . S
C1003 C1005 1.358 . S
C1003 H1045 0.930 . S
C1004 N1001 1.314 1_556 S
C1004 C1002 1.353 . S
C1004 H1046 0.930 . S
C1005 N1001 1.279 . S
C1005 C1003 1.358 . S
C1005 H1047 0.930 . S
C1006 C1007 1.348 . S
C1006 C1008 1.356 . S
C1006 O1031 1.325 . S
C1007 C1006 1.348 . S
C1007 C1009 1.353 . S
C1007 H1048 0.929 . S
C1008 C1006 1.356 . S
C1008 C1010 1.358 . S
C1008 H1049 0.930 . S
C1009 C1007 1.353 . S
C1009 N1011 1.314 . S
C1009 H1050 0.930 . S
C1010 C1008 1.358 . S
C1010 N1011 1.279 . S
C1010 H1051 0.930 . S
N1011 C1009 1.314 . S
N1011 C1010 1.279 . S
C1012 C1014 1.353 . S
C1012 N1015 1.314 . S
C1012 H1018 0.930 . S
C1013 N1015 1.279 1_556 S
C1013 C1016 1.358 . S
C1013 H1019 0.930 . S
C1014 C1012 1.353 . S
C1014 C1017 1.346 . S
C1014 H1052 0.929 . S
N1015 Li970 1.991 . S
N1015 C1012 1.314 . S
N1015 C1013 1.279 1_554 S
C1016 C1013 1.358 . S
C1016 C1017 1.357 1_556 S
C1016 H1053 0.930 . S
C1017 C1014 1.346 . S
C1017 C1016 1.357 1_554 S
H1018 C1012 0.930 . S
H1019 C1013 0.930 . S
C1020 N1021 1.314 . S
C1020 C1022 1.353 . S
C1020 H1026 0.930 . S
N1021 Li971 1.990 . S
N1021 C1020 1.314 . S
N1021 C1024 1.279 . S
C1022 C1020 1.353 . S
C1022 C1025 1.348 . S
C1022 H1054 0.929 . S
C1023 C1024 1.358 . S
C1023 C1025 1.356 . S
C1023 H1055 0.930 . S
C1024 N1021 1.279 . S
C1024 C1023 1.358 . S
C1024 H1027 0.930 . S
C1025 C1022 1.348 . S
C1025 C1023 1.356 . S
H1026 C1020 0.930 . S
H1027 C1024 0.930 . S
O1028 Li968 1.956 . S
O1028 Li969 1.962 1_554 S
O1028 Li970 1.976 . S
O1028 C972 1.325 . S
O1029 Li968 1.981 . S
O1029 Li969 1.956 1_554 S
O1029 Li971 1.950 1_554 S
O1029 C978 1.325 . S
O1030 Li968 1.957 1_556 S
O1030 Li970 1.956 1_556 S
O1030 Li971 1.974 . S
O1030 C1000 1.325 1_556 S
O1031 Li969 1.969 . S
O1031 Li970 1.955 1_556 S
O1031 Li971 1.956 . S
O1031 C1006 1.325 . S
H1032 C974 0.929 . S
H1033 C975 0.930 . S
H1034 C976 0.930 . S
H1035 C977 0.930 . S
H1036 C979 0.930 . S
H1037 C981 0.929 . S
H1038 C982 0.930 . S
H1039 C983 0.930 . S
H1040 C986 0.930 . S
H1041 C989 0.929 . S
H1042 C994 0.929 . S
H1043 C995 0.930 . S
H1044 C1002 0.929 . S
H1045 C1003 0.930 . S
H1046 C1004 0.930 . S
H1047 C1005 0.930 . S
H1048 C1007 0.929 . S
H1049 C1008 0.930 . S
H1050 C1009 0.930 . S
H1051 C1010 0.930 . S
H1052 C1014 0.929 . S
H1053 C1016 0.930 . S
H1054 C1022 0.929 . S
H1055 C1023 0.930 . S
C1056 C1057 1.373 1_655 S
C1056 H1060 0.950 . S
C1056 C1065 1.390 . S
C1057 C1056 1.373 1_455 S
C1057 C1059 1.402 . S
H1058 C1065 0.950 . S
C1059 C1057 1.402 . S
C1059 C1061 1.390 . S
C1059 H1063 0.950 . S
H1060 C1056 0.950 . S
C1061 C1059 1.390 . S
C1061 C1062 1.381 1_455 S
C1061 H1064 0.950 . S
C1062 C1061 1.381 1_655 S
C1062 C1065 1.393 . S
H1063 C1059 0.950 . S
H1064 C1061 0.950 . S
C1065 C1056 1.390 . S
C1065 H1058 0.950 . S
C1065 C1062 1.393 . S
C1066 C1067 1.402 . S
C1066 H1070 0.950 . S
C1066 C1075 1.390 . S
C1067 C1066 1.402 . S
C1067 C1069 1.373 1_545 S
H1068 C1075 0.950 . S
C1069 C1067 1.373 1_565 S
C1069 C1071 1.390 . S
C1069 H1073 0.950 . S
H1070 C1066 0.950 . S
C1071 C1069 1.390 . S
C1071 C1072 1.393 . S
C1071 H1074 0.950 . S
C1072 C1071 1.393 . S
C1072 C1075 1.382 1_565 S
H1073 C1069 0.950 . S
H1074 C1071 0.950 . S
C1075 C1066 1.390 . S
C1075 H1068 0.950 . S
C1075 C1072 1.382 1_545 S
C1076 C1077 1.402 . S
C1076 H1080 0.950 . S
C1076 C1085 1.390 . S
C1077 C1076 1.402 . S
C1077 C1079 1.373 1_455 S
H1078 C1085 0.950 . S
C1079 C1077 1.373 1_655 S
C1079 C1081 1.390 . S
C1079 H1083 0.950 . S
H1080 C1076 0.950 . S
C1081 C1079 1.390 . S
C1081 C1082 1.393 . S
C1081 H1084 0.950 . S
C1082 C1081 1.393 . S
C1082 C1085 1.382 1_655 S
H1083 C1079 0.950 . S
H1084 C1081 0.950 . S
C1085 C1076 1.390 . S
C1085 H1078 0.950 . S
C1085 C1082 1.382 1_455 S
C1086 C1087 1.393 . S
C1086 H1090 0.950 . S
C1086 C1095 1.390 . S
C1087 C1086 1.393 . S
C1087 C1089 1.382 1_565 S
H1088 C1095 0.950 . S
C1089 C1087 1.382 1_545 S
C1089 C1091 1.390 . S
C1089 H1093 0.950 . S
H1090 C1086 0.950 . S
C1091 C1089 1.390 . S
C1091 C1092 1.402 . S
C1091 H1094 0.950 . S
C1092 C1091 1.402 . S
C1092 C1095 1.373 1_545 S
H1093 C1089 0.950 . S
H1094 C1091 0.950 . S
C1095 C1086 1.390 . S
C1095 H1088 0.950 . S
C1095 C1092 1.373 1_565 S
C1096 C1097 1.393 . S
C1096 H1100 0.950 . S
C1096 C1105 1.390 . S
C1097 C1096 1.393 . S
C1097 C1099 1.382 1_655 S
H1098 C1105 0.950 . S
C1099 C1097 1.382 1_455 S
C1099 C1101 1.390 . S
C1099 H1103 0.950 . S
H1100 C1096 0.950 . S
C1101 C1099 1.390 . S
C1101 C1102 1.402 . S
C1101 H1104 0.950 . S
C1102 C1101 1.402 . S
C1102 C1105 1.373 1_455 S
H1103 C1099 0.950 . S
H1104 C1101 0.950 . S
C1105 C1096 1.390 . S
C1105 H1098 0.950 . S
C1105 C1102 1.373 1_655 S
C1106 C1107 1.382 1_545 S
C1106 H1110 0.950 . S
C1106 C1115 1.390 . S
C1107 C1106 1.382 1_565 S
C1107 C1109 1.393 . S
H1108 C1115 0.950 . S
C1109 C1107 1.393 . S
C1109 C1111 1.390 . S
C1109 H1113 0.950 . S
H1110 C1106 0.950 . S
C1111 C1109 1.390 . S
C1111 C1112 1.373 1_565 S
C1111 H1114 0.950 . S
C1112 C1111 1.373 1_545 S
C1112 C1115 1.402 . S
H1113 C1109 0.950 . S
H1114 C1111 0.950 . S
C1115 C1106 1.390 . S
C1115 H1108 0.950 . S
C1115 C1112 1.402 . S
C1116 C1117 1.393 . S
C1116 H1120 0.950 . S
C1116 C1125 1.390 . S
C1117 C1116 1.393 . S
C1117 C1119 1.382 1_655 S
H1118 C1125 0.950 . S
C1119 C1117 1.382 1_455 S
C1119 C1121 1.390 . S
C1119 H1123 0.950 . S
H1120 C1116 0.950 . S
C1121 C1119 1.390 . S
C1121 C1122 1.401 . S
C1121 H1124 0.950 . S
C1122 C1121 1.401 . S
C1122 C1125 1.373 1_455 S
H1123 C1119 0.950 . S
H1124 C1121 0.950 . S
C1125 C1116 1.390 . S
C1125 H1118 0.950 . S
C1125 C1122 1.373 1_655 S
C1126 C1127 1.373 1_565 S
C1126 H1130 0.950 . S
C1126 C1135 1.390 . S
C1127 C1126 1.373 1_545 S
C1127 C1129 1.402 . S
H1128 C1135 0.950 . S
C1129 C1127 1.402 . S
C1129 C1131 1.390 . S
C1129 H1133 0.950 . S
H1130 C1126 0.950 . S
C1131 C1129 1.390 . S
C1131 C1132 1.382 1_545 S
C1131 H1134 0.950 . S
C1132 C1131 1.382 1_565 S
C1132 C1135 1.393 . S
H1133 C1129 0.950 . S
H1134 C1131 0.950 . S
C1135 C1126 1.390 . S
C1135 H1128 0.950 . S
C1135 C1132 1.393 . S
C1136 C1137 1.393 . S
C1136 H1140 0.950 . S
C1136 C1145 1.390 . S
C1137 C1136 1.393 . S
C1137 C1139 1.382 1_556 S
H1138 C1145 0.950 . S
C1139 C1137 1.382 1_554 S
C1139 C1141 1.390 . S
C1139 H1143 0.950 . S
H1140 C1136 0.950 . S
C1141 C1139 1.390 . S
C1141 C1142 1.402 . S
C1141 H1144 0.950 . S
C1142 C1141 1.402 . S
C1142 C1145 1.373 1_554 S
H1143 C1139 0.950 . S
H1144 C1141 0.950 . S
C1145 C1136 1.390 . S
C1145 H1138 0.950 . S
C1145 C1142 1.373 1_556 S
C1146 C1147 1.393 . S
C1146 H1150 0.950 . S
C1146 C1155 1.390 . S
C1147 C1146 1.393 . S
C1147 C1149 1.382 1_556 S
H1148 C1155 0.950 . S
C1149 C1147 1.382 1_554 S
C1149 C1151 1.390 . S
C1149 H1153 0.950 . S
H1150 C1146 0.950 . S
C1151 C1149 1.390 . S
C1151 C1152 1.402 . S
C1151 H1154 0.950 . S
C1152 C1151 1.402 . S
C1152 C1155 1.373 1_554 S
H1153 C1149 0.950 . S
H1154 C1151 0.950 . S
C1155 C1146 1.390 . S
C1155 H1148 0.950 . S
C1155 C1152 1.373 1_556 S
C1156 C1157 1.373 1_556 S
C1156 H1160 0.950 . S
C1156 C1165 1.390 . S
C1157 C1156 1.373 1_554 S
C1157 C1159 1.402 . S
H1158 C1165 0.950 . S
C1159 C1157 1.402 . S
C1159 C1161 1.390 . S
C1159 H1163 0.950 . S
H1160 C1156 0.950 . S
C1161 C1159 1.390 . S
C1161 C1162 1.382 1_554 S
C1161 H1164 0.950 . S
C1162 C1161 1.382 1_556 S
C1162 C1165 1.393 . S
H1163 C1159 0.950 . S
H1164 C1161 0.950 . S
C1165 C1156 1.390 . S
C1165 H1158 0.950 . S
C1165 C1162 1.393 . S
C1166 C1167 1.402 . S
C1166 H1170 0.950 . S
C1166 C1175 1.390 . S
C1167 C1166 1.402 . S
C1167 C1169 1.373 1_554 S
H1168 C1175 0.950 . S
C1169 C1167 1.373 1_556 S
C1169 C1171 1.390 . S
C1169 H1173 0.950 . S
H1170 C1166 0.950 . S
C1171 C1169 1.390 . S
C1171 C1172 1.393 . S
C1171 H1174 0.950 . S
C1172 C1171 1.393 . S
C1172 C1175 1.382 1_556 S
H1173 C1169 0.950 . S
H1174 C1171 0.950 . S
C1175 C1166 1.390 . S
C1175 H1168 0.950 . S
C1175 C1172 1.382 1_554 S
C1176 C1177 1.387 . S
C1176 H1180 0.950 . S
C1176 C1185 1.390 . S
C1177 C1176 1.387 . S
C1177 C1179 1.387 . S
H1178 C1185 0.950 . S
C1179 C1177 1.387 . S
C1179 C1181 1.390 . S
C1179 H1183 0.950 . S
H1180 C1176 0.950 . S
C1181 C1179 1.390 . S
C1181 C1182 1.387 . S
C1181 H1184 0.950 . S
C1182 C1181 1.387 . S
C1182 C1185 1.387 . S
H1183 C1179 0.950 . S
H1184 C1181 0.950 . S
C1185 C1176 1.390 . S
C1185 H1178 0.950 . S
C1185 C1182 1.387 . S
C1186 C1187 1.387 . S
C1186 H1190 0.950 . S
C1186 C1195 1.390 . S
C1187 C1186 1.387 . S
C1187 C1189 1.387 . S
H1188 C1195 0.950 . S
C1189 C1187 1.387 . S
C1189 C1191 1.390 . S
C1189 H1193 0.950 . S
H1190 C1186 0.950 . S
C1191 C1189 1.390 . S
C1191 C1192 1.387 . S
C1191 H1194 0.950 . S
C1192 C1191 1.387 . S
C1192 C1195 1.387 . S
H1193 C1189 0.950 . S
H1194 C1191 0.950 . S
C1195 C1186 1.390 . S
C1195 H1188 0.950 . S
C1195 C1192 1.387 . S
C1196 C1197 1.387 . S
C1196 H1200 0.950 . S
C1196 C1205 1.390 . S
C1197 C1196 1.387 . S
C1197 C1199 1.387 . S
H1198 C1205 0.950 . S
C1199 C1197 1.387 . S
C1199 C1201 1.390 . S
C1199 H1203 0.950 . S
H1200 C1196 0.950 . S
C1201 C1199 1.390 . S
C1201 C1202 1.387 . S
C1201 H1204 0.950 . S
C1202 C1201 1.387 . S
C1202 C1205 1.387 . S
H1203 C1199 0.950 . S
H1204 C1201 0.950 . S
C1205 C1196 1.390 . S
C1205 H1198 0.950 . S
C1205 C1202 1.387 . S
C1206 C1207 1.387 . S
C1206 H1210 0.950 . S
C1206 C1215 1.390 . S
C1207 C1206 1.387 . S
C1207 C1209 1.387 . S
H1208 C1215 0.950 . S
C1209 C1207 1.387 . S
C1209 C1211 1.390 . S
C1209 H1213 0.950 . S
H1210 C1206 0.950 . S
C1211 C1209 1.390 . S
C1211 C1212 1.387 . S
C1211 H1214 0.950 . S
C1212 C1211 1.387 . S
C1212 C1215 1.387 . S
H1213 C1209 0.950 . S
H1214 C1211 0.950 . S
C1215 C1206 1.390 . S
C1215 H1208 0.950 . S
C1215 C1212 1.387 . S
C1216 C1217 1.387 . S
C1216 H1220 0.950 . S
C1216 C1225 1.390 . S
C1217 C1216 1.387 . S
C1217 C1219 1.387 . S
H1218 C1225 0.950 . S
C1219 C1217 1.387 . S
C1219 C1221 1.390 . S
C1219 H1223 0.950 . S
H1220 C1216 0.950 . S
C1221 C1219 1.390 . S
C1221 C1222 1.387 . S
C1221 H1224 0.950 . S
C1222 C1221 1.387 . S
C1222 C1225 1.387 . S
H1223 C1219 0.950 . S
H1224 C1221 0.950 . S
C1225 C1216 1.390 . S
C1225 H1218 0.950 . S
C1225 C1222 1.387 . S
C1226 C1227 1.387 . S
C1226 H1230 0.950 . S
C1226 C1235 1.390 . S
C1227 C1226 1.387 . S
C1227 C1229 1.387 . S
H1228 C1235 0.950 . S
C1229 C1227 1.387 . S
C1229 C1231 1.390 . S
C1229 H1233 0.950 . S
H1230 C1226 0.950 . S
C1231 C1229 1.390 . S
C1231 C1232 1.387 . S
C1231 H1234 0.950 . S
C1232 C1231 1.387 . S
C1232 C1235 1.387 . S
H1233 C1229 0.950 . S
H1234 C1231 0.950 . S
C1235 C1226 1.390 . S
C1235 H1228 0.950 . S
C1235 C1232 1.387 . S
C1236 C1237 1.387 . S
C1236 H1240 0.950 . S
C1236 C1245 1.390 . S
C1237 C1236 1.387 . S
C1237 C1239 1.387 . S
H1238 C1245 0.950 . S
C1239 C1237 1.387 . S
C1239 C1241 1.390 . S
C1239 H1243 0.950 . S
H1240 C1236 0.950 . S
C1241 C1239 1.390 . S
C1241 C1242 1.387 . S
C1241 H1244 0.950 . S
C1242 C1241 1.387 . S
C1242 C1245 1.387 . S
H1243 C1239 0.950 . S
H1244 C1241 0.950 . S
C1245 C1236 1.390 . S
C1245 H1238 0.950 . S
C1245 C1242 1.387 . S
C1246 C1247 1.387 . S
C1246 H1250 0.950 . S
C1246 C1255 1.390 . S
C1247 C1246 1.387 . S
C1247 C1249 1.387 . S
H1248 C1255 0.950 . S
C1249 C1247 1.387 . S
C1249 C1251 1.390 . S
C1249 H1253 0.950 . S
H1250 C1246 0.950 . S
C1251 C1249 1.390 . S
C1251 C1252 1.387 . S
C1251 H1254 0.950 . S
C1252 C1251 1.387 . S
C1252 C1255 1.387 . S
H1253 C1249 0.950 . S
H1254 C1251 0.950 . S
C1255 C1246 1.390 . S
C1255 H1248 0.950 . S
C1255 C1252 1.387 . S
C1256 C1257 1.387 . S
C1256 H1260 0.950 . S
C1256 C1265 1.390 . S
C1257 C1256 1.387 . S
C1257 C1259 1.387 . S
H1258 C1265 0.950 . S
C1259 C1257 1.387 . S
C1259 C1261 1.390 . S
C1259 H1263 0.950 . S
H1260 C1256 0.950 . S
C1261 C1259 1.390 . S
C1261 C1262 1.387 . S
C1261 H1264 0.950 . S
C1262 C1261 1.387 . S
C1262 C1265 1.387 . S
H1263 C1259 0.950 . S
H1264 C1261 0.950 . S
C1265 C1256 1.390 . S
C1265 H1258 0.950 . S
C1265 C1262 1.387 . S
C1266 C1267 1.387 . S
C1266 H1270 0.950 . S
C1266 C1275 1.390 . S
C1267 C1266 1.387 . S
C1267 C1269 1.387 . S
H1268 C1275 0.950 . S
C1269 C1267 1.387 . S
C1269 C1271 1.390 . S
C1269 H1273 0.950 . S
H1270 C1266 0.950 . S
C1271 C1269 1.390 . S
C1271 C1272 1.387 . S
C1271 H1274 0.950 . S
C1272 C1271 1.387 . S
C1272 C1275 1.387 . S
H1273 C1269 0.950 . S
H1274 C1271 0.950 . S
C1275 C1266 1.390 . S
C1275 H1268 0.950 . S
C1275 C1272 1.387 . S
C1276 C1277 1.387 . S
C1276 H1280 0.950 . S
C1276 C1285 1.390 . S
C1277 C1276 1.387 . S
C1277 C1279 1.387 . S
H1278 C1285 0.950 . S
C1279 C1277 1.387 . S
C1279 C1281 1.390 . S
C1279 H1283 0.950 . S
H1280 C1276 0.950 . S
C1281 C1279 1.390 . S
C1281 C1282 1.387 . S
C1281 H1284 0.950 . S
C1282 C1281 1.387 . S
C1282 C1285 1.387 . S
H1283 C1279 0.950 . S
H1284 C1281 0.950 . S
C1285 C1276 1.390 . S
C1285 H1278 0.950 . S
C1285 C1282 1.387 . S
C1286 C1287 1.387 . S
C1286 H1290 0.950 . S
C1286 C1295 1.390 . S
C1287 C1286 1.387 . S
C1287 C1289 1.387 . S
H1288 C1295 0.950 . S
C1289 C1287 1.387 . S
C1289 C1291 1.390 . S
C1289 H1293 0.950 . S
H1290 C1286 0.950 . S
C1291 C1289 1.390 . S
C1291 C1292 1.387 . S
C1291 H1294 0.950 . S
C1292 C1291 1.387 . S
C1292 C1295 1.387 . S
H1293 C1289 0.950 . S
H1294 C1291 0.950 . S
C1295 C1286 1.390 . S
C1295 H1288 0.950 . S
C1295 C1292 1.387 . S
C1057 C49 1.287 . S
C1062 C469 1.286 1_655 S
C1067 C145 1.286 . S
C1072 C401 1.287 1_565 S
C1077 C489 1.286 . S
C1082 C225 1.287 1_655 S
C1087 C313 1.286 1_565 S
C1092 C381 1.287 . S
C1097 C636 1.286 1_655 S
C1102 C205 1.287 . S
C1107 C548 1.287 1_565 S
C1112 C293 1.286 . S
C1117 C29 1.286 1_655 S
C1122 C673 1.287 . S
C1127 C585 1.287 . S
C1132 C108 1.286 1_565 S
C1137 C849 1.286 1_556 S
C1142 C733 1.287 . S
C1147 C753 1.286 1_556 S
C1152 C997 1.287 . S
C1157 C812 1.287 . S
C1162 C937 1.286 1_556 S
C1167 C900 1.286 . S
C1172 C1017 1.287 1_556 S
C1177 C1025 1.286 . S
C1182 C557 1.290 . S
C1187 C761 1.286 . S
C1192 C665 1.287 . S
C1197 C577 1.287 . S
C1202 C841 1.286 . S
C1207 C645 1.286 . S
C1212 C929 1.290 . S
C1217 C372 1.287 . S
C1222 C821 1.282 . S
C1227 C460 1.286 . S
C1232 C909 1.286 . S
C1237 C988 1.286 . S
C1242 C409 1.286 . S
C1247 C724 1.287 . S
C1252 C497 1.282 . S
C1257 C117 1.287 . S
C1262 C233 1.288 . S
C1267 C20 1.286 . S
C1272 C137 1.286 . S
C1277 C196 1.287 . S
C1282 C321 1.286 . S
C1287 C57 1.287 . S
C1292 C284 1.283 . S
