# Generated by pormake.
# Topology afw, (4)-cn, num edge types: 1
# Building blocks:
#     Node 0, Type 0, BuildingBlock: QUQFOY_clean_sbu_3, # of connection points: 4
#     Node 1, Type 0, BuildingBlock: QUQFOY_clean_sbu_3, # of connection points: 4
#     Node 2, Type 0, BuildingBlock: QUQFOY_clean_sbu_3, # of connection points: 4
#     Node 3, Type 0, BuildingBlock: QUQFOY_clean_sbu_3, # of connection points: 4
#     Node 4, Type 0, BuildingBlock: QUQFOY_clean_sbu_3, # of connection points: 4
#     Node 5, Type 0, BuildingBlock: QUQFOY_clean_sbu_3, # of connection points: 4
#     Node 6, Type 0, BuildingBlock: QUQFOY_clean_sbu_3, # of connection points: 4
#     Node 7, Type 0, BuildingBlock: QUQFOY_clean_sbu_3, # of connection points: 4
#     Node 8, Type 0, BuildingBlock: QUQFOY_clean_sbu_3, # of connection points: 4
#     Edge 9, Type (0, 0), BuildingBlock: FUNLAD_clean_linker_1, # of connection points: 2
#     Edge 10, Type (0, 0), BuildingBlock: FUNLAD_clean_linker_1, # of connection points: 2
#     Edge 11, Type (0, 0), BuildingBlock: FUNLAD_clean_linker_1, # of connection points: 2
#     Edge 12, Type (0, 0), BuildingBlock: FUNLAD_clean_linker_1, # of connection points: 2
#     Edge 13, Type (0, 0), BuildingBlock: FUNLAD_clean_linker_1, # of connection points: 2
#     Edge 14, Type (0, 0), BuildingBlock: FUNLAD_clean_linker_1, # of connection points: 2
#     Edge 15, Type (0, 0), BuildingBlock: FUNLAD_clean_linker_1, # of connection points: 2
#     Edge 16, Type (0, 0), BuildingBlock: FUNLAD_clean_linker_1, # of connection points: 2
#     Edge 17, Type (0, 0), BuildingBlock: FUNLAD_clean_linker_1, # of connection points: 2
#     Edge 18, Type (0, 0), BuildingBlock: FUNLAD_clean_linker_1, # of connection points: 2
#     Edge 19, Type (0, 0), BuildingBlock: FUNLAD_clean_linker_1, # of connection points: 2
#     Edge 20, Type (0, 0), BuildingBlock: FUNLAD_clean_linker_1, # of connection points: 2
#     Edge 21, Type (0, 0), BuildingBlock: FUNLAD_clean_linker_1, # of connection points: 2
#     Edge 22, Type (0, 0), BuildingBlock: FUNLAD_clean_linker_1, # of connection points: 2
#     Edge 23, Type (0, 0), BuildingBlock: FUNLAD_clean_linker_1, # of connection points: 2
#     Edge 24, Type (0, 0), BuildingBlock: FUNLAD_clean_linker_1, # of connection points: 2
#     Edge 25, Type (0, 0), BuildingBlock: FUNLAD_clean_linker_1, # of connection points: 2
#     Edge 26, Type (0, 0), BuildingBlock: FUNLAD_clean_linker_1, # of connection points: 2
# Relax obj value: 0.197
# Max RMSD: 0.207
# Mean RMSD: 0.200
data_MOF--net-afw--node1-QUQFOY_clean_sbu_3--edge1-FUNLAD_clean_linker_1
_symmetry_space_group_name_H-M    P1
_symmetry_Int_Tables_number       1
_symmetry_cell_setting            triclinic
loop_
_symmetry_equiv_pos_as_xyz
'x, y, z'
_cell_length_a     45.20347
_cell_length_b     45.633518
_cell_length_c     33.835624
_cell_angle_alpha  91.002639
_cell_angle_beta   91.118
_cell_angle_gamma 120.18674
loop_
_atom_site_label
_atom_site_type_symbol
_atom_site_fract_x
_atom_site_fract_y
_atom_site_fract_z
_atom_type_partial_charge
C0 C 0.09064 0.19352 0.06737 0.0
O1 O 0.07974 0.19114 0.1021 0.0
Cd2 Cd 0.02875 0.19227 0.11307 0.0
O3 O 0.07708 0.20096 0.0388 0.0
Cd4 Cd 0.03306 0.21819 0.029 0.0
C5 C 0.97675 0.13608 0.03804 0.0
O6 O 0.03846 0.24641 0.09276 0.0
O7 O -0.0089 0.22951 0.05935 0.0
O8 O 0.07693 0.26594 0.99369 0.0
C9 C 0.01093 0.24705 0.08801 0.0
O10 O 0.98605 0.14206 0.07447 0.0
C11 C 0.05668 0.26523 0.96676 0.0
O12 O 0.98961 0.15951 0.01315 0.0
O13 O 0.02562 0.24162 0.96751 0.0
C14 C 0.89328 0.794 0.98538 0.0
O15 O 0.88733 0.79189 0.94837 0.0
Cd16 Cd 0.84669 0.80603 0.92205 0.0
O17 O 0.87443 0.79841 0.00944 0.0
Cd18 Cd 0.81955 0.79855 0.00897 0.0
C19 C 0.8643 0.87818 0.97675 0.0
O20 O 0.79272 0.76575 0.94788 0.0
O21 O 0.76913 0.79222 0.97429 0.0
O22 O 0.7963 0.75217 0.05412 0.0
C23 C 0.76836 0.77195 0.94763 0.0
O24 O 0.86761 0.86501 0.94487 0.0
C25 C 0.79005 0.76771 0.0812 0.0
O26 O 0.8479 0.85991 0.0054 0.0
O27 O 0.79811 0.7982 0.07519 0.0
C28 C 0.14298 0.92919 0.05466 0.0
O29 O 0.15622 0.93264 0.08912 0.0
Cd30 Cd 0.2123 0.97997 0.1062 0.0
O31 O 0.15997 0.94866 0.02713 0.0
Cd32 Cd 0.21746 0.99481 0.01176 0.0
C33 C 0.20275 0.0458 0.07165 0.0
O34 O 0.24914 0.97953 0.05685 0.0
O35 O 0.27843 0.02795 0.02961 0.0
O36 O 0.21434 0.96288 0.9528 0.0
C37 C 0.27784 0.00612 0.05269 0.0
O38 O 0.20569 0.03005 0.1008 0.0
C39 C 0.22113 0.98659 0.92919 0.0
O40 O 0.2048 0.03739 0.03616 0.0
O41 O 0.22569 0.01447 0.9438 0.0
C42 C 0.58598 0.45155 0.30523 0.0
O43 O 0.59432 0.45986 0.26977 0.0
Cd44 Cd 0.63629 0.516 0.25013 0.0
O45 O 0.59807 0.47371 0.33337 0.0
Cd46 Cd 0.63709 0.53548 0.34334 0.0
C47 C 0.70188 0.52475 0.3122 0.0
O48 O 0.62777 0.55781 0.28237 0.0
O49 O 0.6725 0.59166 0.31873 0.0
O50 O 0.59736 0.54257 0.38359 0.0
C51 C 0.65408 0.58701 0.28789 0.0
O52 O 0.68928 0.52183 0.27734 0.0
C53 C 0.61647 0.55251 0.41468 0.0
O54 O 0.6872 0.52805 0.34235 0.0
O55 O 0.64514 0.55374 0.41309 0.0
C56 C 0.58049 0.17024 0.259 0.0
O57 O 0.56114 0.16635 0.22928 0.0
Cd58 Cd 0.4999 0.13844 0.22824 0.0
O59 O 0.56833 0.15976 0.2929 0.0
Cd60 Cd 0.51117 0.13196 0.32265 0.0
C61 C 0.49915 0.19654 0.29282 0.0
O62 O 0.48176 0.09101 0.26912 0.0
O63 O 0.44928 0.09337 0.31314 0.0
O64 O 0.53204 0.10365 0.36628 0.0
C65 C 0.45188 0.07939 0.28183 0.0
O66 O 0.49122 0.18212 0.25864 0.0
C67 C 0.51749 0.10663 0.39655 0.0
O68 O 0.50949 0.18517 0.32085 0.0
O69 O 0.5022 0.12345 0.39309 0.0
C70 C 0.88123 0.45481 0.2574 0.0
O71 O 0.88585 0.44474 0.22411 0.0
Cd72 Cd 0.90509 0.40409 0.21631 0.0
O73 O 0.88679 0.44382 0.28932 0.0
Cd74 Cd 0.90474 0.40379 0.30946 0.0
C75 C 0.83818 0.3384 0.2598 0.0
O76 O 0.95029 0.41615 0.2635 0.0
O77 O 0.93012 0.36932 0.29473 0.0
O78 O 0.93872 0.43935 0.36556 0.0
C79 C 0.95204 0.39 0.27148 0.0
O80 O 0.85565 0.34826 0.22878 0.0
C81 C 0.92199 0.41763 0.39122 0.0
O82 O 0.84847 0.35577 0.29213 0.0
O83 O 0.89668 0.38952 0.37897 0.0
C84 C 0.3788 0.87862 0.7455 0.0
O85 O 0.36162 0.88207 0.77253 0.0
Cd86 Cd 0.31544 0.89258 0.75792 0.0
O87 O 0.37392 0.88315 0.70946 0.0
Cd88 Cd 0.34004 0.89952 0.66703 0.0
C89 C 0.27257 0.82421 0.69245 0.0
O90 O 0.33489 0.93756 0.71276 0.0
O91 O 0.30105 0.92215 0.66108 0.0
O92 O 0.3941 0.93871 0.63855 0.0
C93 C 0.3121 0.93987 0.6929 0.0
O94 O 0.2736 0.83897 0.72517 0.0
C95 C 0.38325 0.93137 0.60282 0.0
O96 O 0.29467 0.83944 0.66614 0.0
O97 O 0.35237 0.90789 0.59659 0.0
C98 C 0.16937 0.48275 0.64294 0.0
O99 O 0.15476 0.47691 0.60898 0.0
Cd100 Cd 0.10681 0.486 0.60079 0.0
O101 O 0.15594 0.48774 0.67315 0.0
Cd102 Cd 0.10515 0.48726 0.69852 0.0
C103 C 0.13934 0.56284 0.65477 0.0
O104 O 0.06575 0.45126 0.64713 0.0
O105 O 0.04644 0.47546 0.68597 0.0
O106 O 0.10629 0.44491 0.73813 0.0
C107 C 0.04137 0.45603 0.65623 0.0
O108 O 0.13108 0.54564 0.62225 0.0
C109 C 0.09992 0.45443 0.7707 0.0
O110 O 0.1338 0.54854 0.68809 0.0
O111 O 0.09666 0.48057 0.77052 0.0
C112 C 0.41863 0.60344 0.72598 0.0
O113 O 0.4246 0.6073 0.76307 0.0
Cd114 Cd 0.47643 0.65604 0.78906 0.0
O115 O 0.44149 0.62195 0.70207 0.0
Cd116 Cd 0.50292 0.66445 0.70162 0.0
C117 C 0.47962 0.72007 0.73248 0.0
O118 O 0.52392 0.65339 0.76334 0.0
O119 O 0.55755 0.70067 0.73521 0.0
O120 O 0.51221 0.62697 0.65907 0.0
C121 C 0.55287 0.68035 0.76269 0.0
O122 O 0.47445 0.70579 0.76571 0.0
C123 C 0.52403 0.6472 0.63075 0.0
O124 O 0.48933 0.70964 0.70309 0.0
O125 O 0.5257 0.67572 0.63493 0.0
H126 H 0.18921 0.07662 0.10982 0.0
C127 C 0.19384 0.07221 0.07946 0.0
H128 H 0.19291 0.08482 0.01966 0.0
H129 H 0.07639 0.11317 0.09703 0.0
H130 H 0.04216 0.05189 0.098 0.0
H131 H 0.06684 0.01625 0.07985 0.0
H132 H 0.1259 0.04169 0.06088 0.0
C133 C 0.18807 0.08839 0.05019 0.0
C134 C 0.17268 0.10982 0.05847 0.0
C135 C 0.13786 0.09438 0.06889 0.0
C136 C 0.1235 0.11487 0.07867 0.0
C137 C 0.08871 0.09886 0.08931 0.0
C138 C 0.06869 0.06366 0.08991 0.0
C139 C 0.08259 0.04361 0.07973 0.0
C140 C 0.11668 0.05861 0.06918 0.0
H141 H 0.12226 0.18199 0.02831 0.0
C142 C 0.11621 0.18345 0.05897 0.0
H143 H 0.121 0.17141 0.11787 0.0
H144 H 0.23949 0.14701 0.03747 0.0
H145 H 0.27328 0.20842 0.03435 0.0
H146 H 0.24815 0.24401 0.05094 0.0
H147 H 0.18907 0.21844 0.07075 0.0
C148 C 0.1281 0.17147 0.08735 0.0
C149 C 0.14371 0.15066 0.07699 0.0
C150 C 0.17816 0.16605 0.06542 0.0
C151 C 0.19267 0.14554 0.05603 0.0
C152 C 0.22723 0.16146 0.04485 0.0
C153 C 0.24688 0.19664 0.04298 0.0
C154 C 0.23273 0.21669 0.0523 0.0
C155 C 0.19879 0.20171 0.06351 0.0
H156 H 0.90664 0.93018 0.96899 0.0
C157 C 0.88142 0.91532 0.98119 0.0
H158 H 0.8412 0.91548 0.01101 0.0
H159 H 0.92467 0.05376 0.10592 0.0
H160 H 0.89398 0.01382 0.15669 0.0
H161 H 0.86014 0.95245 0.14087 0.0
H162 H 0.85619 0.93074 0.0742 0.0
C163 C 0.86673 0.93081 -0.00025 0.0
C164 C 0.88566 0.96819 0.0086 0.0
C165 C 0.88847 0.98033 0.04821 0.0
C166 C 0.90913 0.01561 0.05768 0.0
C167 C 0.91032 0.02715 0.0972 0.0
C168 C 0.89267 0.00451 0.12668 0.0
C169 C 0.87355 0.96999 0.11775 0.0
C170 C 0.87143 0.95788 0.07913 0.0
H171 H 0.9343 0.0972 -0.00015 0.0
C172 C 0.95203 0.10115 0.02426 0.0
H173 H 0.97122 0.0793 0.06391 0.0
H174 H 0.87734 0.95557 0.92842 0.0
H175 H 0.9107 0.99475 0.8779 0.0
H176 H 0.95504 0.05362 0.89595 0.0
H177 H 0.965 0.07403 0.96409 0.0
C178 C 0.95289 0.07469 0.03991 0.0
C179 C 0.92833 0.03859 0.02802 0.0
C180 C 0.92523 0.02648 0.98829 0.0
C181 C 0.90224 0.99164 0.97832 0.0
C182 C 0.89647 0.98107 0.93792 0.0
C183 C 0.91516 0.00339 0.90859 0.0
C184 C 0.93994 0.03658 0.91872 0.0
C185 C 0.94509 0.0481 0.95804 0.0
H186 H 0.93133 0.77719 0.98812 0.0
C187 C 0.92462 0.79524 0.00015 0.0
H188 H 0.94004 0.83974 0.03431 0.0
H189 H 0.06346 0.8651 0.1376 0.0
H190 H 0.02118 0.85441 0.18674 0.0
H191 H 0.96024 0.83014 0.16721 0.0
H192 H 0.94137 0.81705 0.09826 0.0
C193 C 0.94713 0.82166 0.02321 0.0
C194 C 0.98195 0.82816 0.03472 0.0
C195 C -0.0077 0.83402 0.07535 0.0
C196 C 0.02728 0.84715 0.08675 0.0
C197 C 0.03722 0.85478 0.12728 0.0
C198 C 0.01316 0.84868 0.15585 0.0
C199 C 0.97886 0.83505 0.14486 0.0
C200 C 0.96841 0.8278 0.10515 0.0
H201 H 0.09458 0.90889 0.02113 0.0
C202 C 0.10687 0.90404 0.04609 0.0
H203 H 0.10091 0.871 0.09199 0.0
H204 H 0.97329 0.82305 0.95285 0.0
H205 H 0.01365 0.82493 0.90595 0.0
H206 H 0.07092 0.83641 0.9282 0.0
H207 H 0.08846 0.84796 -0.00212 0.0
C208 C 0.08884 0.87601 0.06701 0.0
C209 C 0.05155 0.85321 0.05753 0.0
C210 C 0.04017 0.84216 0.01786 0.0
C211 C 0.00599 0.83198 0.00577 0.0
C212 C -0.00247 0.82743 0.96468 0.0
C213 C 0.0208 0.82902 0.93714 0.0
C214 C 0.0531 0.83571 0.9496 0.0
C215 C 0.06289 0.84244 0.98948 0.0
H216 H 0.85553 0.48045 0.23118 0.0
C217 C 0.86475 0.47565 0.25885 0.0
H218 H 0.86463 0.47856 0.32121 0.0
H219 H 0.79769 0.57321 0.26424 0.0
H220 H 0.85474 0.61371 0.24323 0.0
H221 H 0.90118 0.6002 0.24618 0.0
H222 H 0.89079 0.54601 0.27005 0.0
C223 C 0.85652 0.48431 0.29338 0.0
C224 C 0.82987 0.49419 0.29465 0.0
C225 C 0.8365 0.52603 0.28101 0.0
C226 C 0.8098 0.53389 0.27959 0.0
C227 C 0.81702 0.56586 0.26572 0.0
C228 C 0.84967 0.58937 0.2537 0.0
C229 C 0.87581 0.58176 0.25534 0.0
C230 C 0.86947 0.55052 0.26891 0.0
H231 H 0.74197 0.52203 0.34782 0.0
C232 C 0.73282 0.52202 0.31787 0.0
H233 H 0.73987 0.51782 0.25683 0.0
H234 H 0.80909 0.43131 0.32418 0.0
H235 H 0.75222 0.39084 0.34498 0.0
H236 H 0.70554 0.40387 0.34112 0.0
H237 H 0.71543 0.45734 0.31633 0.0
C238 C 0.74821 0.51706 0.28695 0.0
C239 C 0.77667 0.50997 0.29209 0.0
C240 C 0.77019 0.47831 0.30646 0.0
C241 C 0.79698 0.4706 0.30819 0.0
C242 C 0.7898 0.43867 0.32232 0.0
C243 C 0.75719 0.41507 0.33427 0.0
C244 C 0.73092 0.42241 0.33208 0.0
C245 C 0.7371 0.45345 0.31809 0.0
H246 H 0.49051 0.23717 0.2726 0.0
C247 C 0.50038 0.22932 0.29733 0.0
H248 H 0.53019 0.24531 0.35045 0.0
H249 H 0.61699 0.3938 0.28614 0.0
H250 H 0.65831 0.37481 0.28694 0.0
H251 H 0.64125 0.31618 0.30405 0.0
H252 H 0.58272 0.27617 0.32021 0.0
C253 C 0.51829 0.25193 0.32672 0.0
C254 C 0.52911 0.2883 0.32184 0.0
C255 C 0.56362 0.3115 0.31299 0.0
C256 C 0.57342 0.34521 0.30282 0.0
C257 C 0.60801 0.36778 0.29372 0.0
C258 C 0.63207 0.35726 0.29419 0.0
C259 C 0.62246 0.32426 0.30379 0.0
C260 C 0.5887 0.30153 0.31305 0.0
H261 H 0.55957 0.40937 0.34593 0.0
C262 C 0.56566 0.41545 0.31515 0.0
H263 H 0.56701 0.39641 0.25836 0.0
H264 H 0.46209 0.25147 0.34189 0.0
H265 H 0.42052 0.27042 0.34077 0.0
H266 H 0.43716 0.32847 0.32138 0.0
H267 H 0.49548 0.36803 0.30322 0.0
C268 C 0.55919 0.39048 0.28872 0.0
C269 C 0.54876 0.35573 0.30171 0.0
C270 C 0.51457 0.33296 0.31199 0.0
C271 C 0.50479 0.29925 0.32235 0.0
C272 C 0.4706 0.2771 0.33296 0.0
C273 C 0.44658 0.28771 0.33262 0.0
C274 C 0.45597 0.32042 0.32177 0.0
C275 C 0.48953 0.3429 0.31151 0.0
H276 H 0.62665 0.21002 0.2323 0.0
C277 C 0.61766 0.19095 0.2548 0.0
H278 H 0.63105 0.16915 0.30096 0.0
H279 H 0.76331 0.28875 0.19812 0.0
H280 H 0.73649 0.25265 0.13991 0.0
H281 H 0.68418 0.19676 0.14492 0.0
H282 H 0.65749 0.17773 0.20822 0.0
C283 C 0.64028 0.18842 0.27874 0.0
C284 C 0.67751 0.21431 0.27833 0.0
C285 C 0.69492 0.22309 0.24216 0.0
C286 C 0.72704 0.25349 0.24007 0.0
C287 C 0.74078 0.2644 0.2023 0.0
C288 C 0.72531 0.24411 0.16842 0.0
C289 C 0.69575 0.21277 0.17118 0.0
C290 C 0.68055 0.2023 0.20755 0.0
H291 H 0.80362 0.28466 0.24242 0.0
C292 C 0.80534 0.30644 0.25818 0.0
H293 H 0.77999 0.32693 0.28958 0.0
H294 H 0.65293 0.20306 0.35368 0.0
H295 H 0.68332 0.23451 0.41334 0.0
H296 H 0.74244 0.28261 0.41122 0.0
H297 H 0.77114 0.29999 0.34914 0.0
C298 C 0.77762 0.30459 0.2744 0.0
C299 C 0.74398 0.2725 0.27532 0.0
C300 C 0.72819 0.26148 0.31222 0.0
C301 C 0.6946 0.23287 0.31365 0.0
C302 C 0.67867 0.22397 0.35067 0.0
C303 C 0.69584 0.24187 0.38533 0.0
C304 C 0.72907 0.26898 0.38413 0.0
C305 C 0.74518 0.27879 0.34816 0.0
H306 H 0.40007 0.85535 0.78501 0.0
C307 C 0.40091 0.86443 0.75532 0.0
H308 H 0.41774 0.86601 0.69726 0.0
H309 H 0.50288 0.80657 0.80097 0.0
H310 H 0.53329 0.86207 0.83402 0.0
H311 H 0.51693 0.90516 0.82103 0.0
H312 H 0.46997 0.89299 0.77501 0.0
C313 C 0.41769 0.85794 0.7273 0.0
C314 C 0.42936 0.83318 0.73383 0.0
C315 C 0.457 0.84083 0.76058 0.0
C316 C 0.46665 0.81609 0.76773 0.0
C317 C 0.49441 0.82438 0.79453 0.0
C318 C 0.51213 0.85616 0.81363 0.0
C319 C 0.5029 0.88042 0.80635 0.0
C320 C 0.47577 0.87303 0.78005 0.0
H321 H 0.47671 0.75919 0.69802 0.0
C322 C 0.47258 0.74798 0.72694 0.0
H323 H 0.45542 0.74784 0.7847 0.0
H324 H 0.37535 0.81048 0.68015 0.0
H325 H 0.34489 0.7551 0.64746 0.0
H326 H 0.36035 0.71157 0.66156 0.0
H327 H 0.40676 0.72343 0.7079 0.0
C328 C 0.45913 0.75822 0.75536 0.0
C329 C 0.4489 0.78397 0.74777 0.0
C330 C 0.4211 0.77626 0.72113 0.0
C331 C 0.41167 0.80109 0.71372 0.0
C332 C 0.38388 0.79276 0.68683 0.0
C333 C 0.36602 0.76096 0.66788 0.0
C334 C 0.37476 0.73648 0.67577 0.0
C335 C 0.40172 0.74378 0.70226 0.0
H336 H 0.22585 0.77741 0.70781 0.0
C337 C 0.24698 0.78786 0.68765 0.0
H338 H 0.27406 0.77626 0.64605 0.0
H339 H 0.22403 0.63203 0.71729 0.0
H340 H 0.28315 0.66302 0.74126 0.0
H341 H 0.31846 0.7247 0.733 0.0
H342 H 0.29528 0.75565 0.69945 0.0
C343 C 0.2516 0.76664 0.66408 0.0
C344 C 0.23007 0.72931 0.66835 0.0
C345 C 0.2441 0.71159 0.68789 0.0
C346 C 0.22344 0.67615 0.69364 0.0
C347 C 0.23833 0.65903 0.71267 0.0
C348 C 0.27228 0.67649 0.72655 0.0
C349 C 0.29221 0.71121 0.72176 0.0
C350 C 0.27852 0.72866 0.7025 0.0
H351 H 0.16208 0.61079 0.62333 0.0
C352 C 0.15693 0.6001 0.65258 0.0
H353 H 0.16406 0.61103 0.71406 0.0
H354 H 0.1958 0.75534 0.62818 0.0
H355 H 0.13565 0.72518 0.60782 0.0
H356 H 0.09876 0.66459 0.62176 0.0
H357 H 0.12188 0.63369 0.65556 0.0
C358 C 0.1678 0.62112 0.68456 0.0
C359 C 0.18867 0.65855 0.68019 0.0
C360 C 0.17439 0.67651 0.66162 0.0
C361 C 0.19531 0.71178 0.65499 0.0
C362 C 0.1808 0.72878 0.63494 0.0
C363 C 0.14635 0.71175 0.62297 0.0
C364 C 0.12561 0.67761 0.6307 0.0
C365 C 0.13929 0.66009 0.64986 0.0
H366 H 0.20836 0.46848 0.62936 0.0
C367 C 0.20267 0.48458 0.64791 0.0
H368 H 0.21929 0.52236 0.69284 0.0
H369 H 0.33329 0.52339 0.79011 0.0
H370 H 0.28764 0.50245 0.83662 0.0
H371 H 0.22811 0.48263 0.81418 0.0
H372 H 0.21413 0.48435 0.74499 0.0
C373 C 0.22583 0.50657 0.6748 0.0
C374 C 0.25917 0.50891 0.68479 0.0
C375 C 0.26669 0.50603 0.72499 0.0
C376 C 0.30083 0.51651 0.73773 0.0
C377 C 0.30787 0.51545 0.77851 0.0
C378 C 0.28181 0.50337 0.80564 0.0
C379 C 0.24831 0.49225 0.79303 0.0
C380 C 0.24069 0.49356 0.75326 0.0
H381 H 0.37465 0.58965 0.68632 0.0
C382 C 0.38393 0.58032 0.71005 0.0
H383 H 0.37359 0.54006 0.74711 0.0
H384 H 0.25475 0.51762 0.60458 0.0
H385 H 0.29809 0.52863 0.55705 0.0
H386 H 0.35421 0.53646 0.57836 0.0
H387 H 0.36764 0.53501 0.64812 0.0
C388 C 0.36374 0.54916 0.72377 0.0
C389 C 0.32709 0.52866 0.70984 0.0
C390 C 0.31823 0.52556 0.66888 0.0
C391 C 0.2848 0.5178 0.65635 0.0
C392 C 0.27858 0.52047 0.61574 0.0
C393 C 0.30349 0.5272 0.58804 0.0
C394 C 0.33514 0.5318 0.60004 0.0
C395 C 0.34261 0.53114 0.64002 0.0
H396 H 0.09619 0.30736 0.93344 0.0
C397 C 0.06877 0.29192 0.93741 0.0
H398 H 0.01984 0.28441 0.92248 0.0
H399 H 0.13331 0.4425 0.87038 0.0
H400 H 0.14852 0.45446 0.94027 0.0
H401 H 0.12184 0.40916 0.98858 0.0
H402 H 0.08055 0.35152 0.96713 0.0
C403 C 0.04727 0.29957 0.91846 0.0
C404 C 0.05991 0.32797 0.89055 0.0
C405 C 0.08253 0.36196 0.90398 0.0
C406 C 0.09635 0.38849 0.87645 0.0
C407 C 0.12083 0.42169 0.8902 0.0
C408 C 0.12996 0.42887 0.93025 0.0
C409 C 0.11506 0.40335 0.95742 0.0
C410 C 0.09159 0.37027 0.94464 0.0
H411 H 0.08065 0.43793 0.83064 0.0
C412 C 0.09348 0.43391 0.80609 0.0
H413 H 0.11252 0.4042 0.78134 0.0
H414 H 0.01615 0.26591 0.85528 0.0
H415 H -0.00226 0.25463 0.78622 0.0
H416 H 0.01863 0.30113 0.73925 0.0
H417 H 0.05828 0.35908 0.76095 0.0
C418 C 0.10019 0.40833 0.80637 0.0
C419 C 0.08584 0.38129 0.83599 0.0
C420 C 0.06195 0.34756 0.82294 0.0
C421 C 0.04925 0.32086 0.85017 0.0
C422 C 0.02621 0.28729 0.83605 0.0
C423 C 0.01544 0.28041 0.79643 0.0
C424 C 0.02725 0.30657 0.76998 0.0
C425 C 0.05018 0.33976 0.78287 0.0
H426 H 0.74535 0.74598 0.89027 0.0
C427 C 0.74123 0.7573 0.91658 0.0
H428 H 0.70788 0.76919 0.94637 0.0
H429 H 0.62588 0.77458 0.79831 0.0
H430 H 0.6541 0.83259 0.82376 0.0
H431 H 0.69777 0.85188 0.8779 0.0
H432 H 0.71307 0.81312 0.90726 0.0
C433 C 0.71189 0.75764 0.92019 0.0
C434 C 0.68575 0.74561 0.88733 0.0
C435 C 0.67766 0.76887 0.86995 0.0
C436 C 0.65322 0.75801 0.83801 0.0
C437 C 0.64482 0.78154 0.82204 0.0
C438 C 0.66076 0.81497 0.83645 0.0
C439 C 0.68529 0.82581 0.86696 0.0
C440 C 0.69375 0.80319 0.88363 0.0
H441 H 0.57146 0.67455 0.8211 0.0
C442 C 0.57907 0.68863 0.79401 0.0
H443 H 0.6192 0.72735 0.76281 0.0
H444 H 0.69092 0.69297 0.91802 0.0
H445 H 0.66571 0.63593 0.88979 0.0
H446 H 0.62921 0.61917 0.82896 0.0
H447 H 0.61684 0.65905 0.79686 0.0
C448 C 0.61171 0.71314 0.78981 0.0
C449 C 0.63756 0.72412 0.82288 0.0
C450 C 0.64633 0.70107 0.83959 0.0
C451 C 0.66938 0.71145 0.87291 0.0
C452 C 0.67526 0.68708 0.89126 0.0
C453 C 0.66069 0.65412 0.87556 0.0
C454 C 0.63999 0.64464 0.84146 0.0
C455 C 0.63284 0.66773 0.82353 0.0
H456 H 0.27704 0.96042 0.69007 0.0
C457 C 0.295 0.95746 0.70902 0.0
H458 H 0.31717 0.96424 0.7662 0.0
H459 H 0.2906 0.06597 0.85368 0.0
H460 H 0.35036 0.10257 0.83865 0.0
H461 H 0.37807 0.08446 0.7895 0.0
H462 H 0.34615 0.0294 0.75535 0.0
C463 C 0.29886 0.96679 0.74741 0.0
C464 C 0.2795 0.98127 0.76639 0.0
C465 C 0.29805 0.01397 0.78481 0.0
C466 C 0.28199 0.02457 0.81272 0.0
C467 C 0.30154 0.05667 0.83219 0.0
C468 C 0.33584 0.07797 0.82372 0.0
C469 C 0.35145 0.06778 0.79606 0.0
C470 C 0.33293 0.03612 0.77681 0.0
H471 H 0.22576 0.95874 0.8789 0.0
C472 C 0.22629 0.98212 0.88736 0.0
H473 H 0.23642 0.03021 0.86914 0.0
H474 H 0.23444 0.91788 0.73308 0.0
H475 H 0.17339 0.88539 0.74201 0.0
H476 H 0.14502 0.90694 0.78572 0.0
H477 H 0.17832 0.96114 0.82175 0.0
C478 C 0.23477 0.00636 0.8607 0.0
C479 C 0.2474 0.00235 0.82181 0.0
C480 C 0.22749 0.97241 0.79835 0.0
C481 C 0.24367 0.96104 0.77158 0.0
C482 C 0.22359 0.92887 0.75228 0.0
C483 C 0.18838 0.90972 0.75737 0.0
C484 C 0.17241 0.92179 0.78208 0.0
C485 C 0.19168 0.9527 0.80261 0.0
H486 H 0.39643 0.05027 0.26871 0.0
C487 C 0.42135 0.05782 0.25677 0.0
H488 H 0.4483 0.05906 0.20578 0.0
H489 H 0.31743 0.94778 0.10805 0.0
H490 H 0.3469 0.91653 0.12063 0.0
H491 H 0.39752 0.94006 0.16609 0.0
H492 H 0.41922 -0.00484 0.19897 0.0
C493 C 0.42368 0.05176 0.21834 0.0
C494 C 0.39308 0.03744 0.19128 0.0
C495 C 0.38059 0.00511 0.17273 0.0
C496 C 0.35118 0.99137 0.14694 0.0
C497 C 0.33954 0.95928 0.12817 0.0
C498 C 0.3562 0.94108 0.13513 0.0
C499 C 0.38472 0.95434 0.16071 0.0
C500 C 0.39691 0.98598 0.17938 0.0
H501 H 0.33149 0.03777 0.07305 0.0
C502 C 0.30767 0.01455 0.07848 0.0
H503 H 0.28175 0.97363 0.11676 0.0
H504 H 0.41348 0.10274 0.21683 0.0
H505 H 0.38181 0.13208 0.20809 0.0
H506 H 0.32655 0.10489 0.17066 0.0
H507 H 0.3034 0.04871 0.14066 0.0
C508 C 0.30526 -0.00304 0.11081 0.0
C509 C 0.33426 0.00993 0.14015 0.0
C510 C 0.34592 0.04166 0.16009 0.0
C511 C 0.37628 0.05616 0.18419 0.0
C512 C 0.38935 0.08946 0.20034 0.0
C513 C 0.37159 0.1068 0.19522 0.0
C514 C 0.3406 0.09159 0.17398 0.0
C515 C 0.32778 0.05942 0.15657 0.0
H516 H 0.97513 0.26092 0.11344 0.0
C517 C 0.00137 0.26605 0.11522 0.0
H518 H 0.05041 0.29549 0.14268 0.0
H519 H 0.94968 0.36276 0.17649 0.0
H520 H 0.95134 0.3714 0.10614 0.0
H521 H 0.98374 0.35414 0.06311 0.0
H522 H 0.01355 0.32689 0.09036 0.0
C523 C 0.02417 0.29026 0.14053 0.0
C524 C 0.01351 0.30921 0.16734 0.0
C525 C -0.00109 0.32783 0.15149 0.0
C526 C 0.9827 0.34029 0.17675 0.0
C527 C 0.96461 0.35499 0.15936 0.0
C528 C 0.96499 0.35977 0.11879 0.0
C529 C 0.98304 0.34988 0.09454 0.0
C530 C -0.00021 0.33402 0.11052 0.0
H531 H -0.0065 0.39985 0.23087 0.0
C532 C 0.9734 0.38064 0.24834 0.0
H533 H 0.94586 0.32898 0.26269 0.0
H534 H 0.04225 0.27752 0.20755 0.0
H535 H 0.04547 0.27347 0.27867 0.0
H536 H 0.02159 0.29923 0.32311 0.0
H537 H -0.00605 0.32883 0.29662 0.0
C538 C 0.96591 0.34822 0.24518 0.0
C539 C 0.98412 0.33695 0.21832 0.0
C540 C 0.00118 0.3207 0.23437 0.0
C541 C 0.0156 0.3065 0.20882 0.0
C542 C 0.03126 0.2892 0.22557 0.0
C543 C 0.03328 0.28667 0.26639 0.0
C544 C 0.0198 0.30113 0.2914 0.0
C545 C 0.00391 0.31796 0.27577 0.0
H546 H 0.65339 0.60398 0.22736 0.0
C547 C 0.66659 0.61168 0.25614 0.0
H548 H 0.7093 0.64918 0.2895 0.0
H549 H 0.80657 0.70455 0.14608 0.0
H550 H 0.83273 0.6788 0.18473 0.0
H551 H 0.80417 0.64508 0.24267 0.0
H552 H 0.74956 0.63726 0.26257 0.0
C553 C 0.69555 0.64183 0.26104 0.0
C554 C 0.71281 0.66303 0.22674 0.0
C555 C 0.74472 0.66716 0.21544 0.0
C556 C 0.76081 0.68593 0.18155 0.0
C557 C 0.79289 0.69003 0.17117 0.0
C558 C 0.80826 0.67546 0.19316 0.0
C559 C 0.79222 0.65654 0.22582 0.0
C560 C 0.76085 0.65234 0.23696 0.0
H561 H 0.77125 0.76599 0.14146 0.0
C562 C 0.7736 0.75094 0.11779 0.0
H563 H 0.76366 0.70249 0.09852 0.0
H564 H 0.6542 0.66382 0.24351 0.0
H565 H 0.62691 0.68779 0.20357 0.0
H566 H 0.65243 0.71641 0.14175 0.0
H567 H 0.70565 0.72185 0.11996 0.0
C568 C 0.76081 0.71751 0.12181 0.0
C569 C 0.74478 0.70014 0.15874 0.0
C570 C 0.71295 0.69618 0.17017 0.0
C571 C 0.69736 0.67827 0.20478 0.0
C572 C 0.66645 0.67605 0.21667 0.0
C573 C 0.65062 0.68986 0.19414 0.0
C574 C 0.66505 0.70608 0.15942 0.0
C575 C 0.69579 0.70922 0.14738 0.0
H576 H 0.98885 0.44503 0.64184 0.0
C577 C 0.01048 0.44358 0.6307 0.0
H578 H 0.03153 0.43196 0.58198 0.0
H579 H 0.90642 0.34229 0.47245 0.0
H580 H 0.91976 0.30053 0.49683 0.0
H581 H 0.96021 0.31424 0.55354 0.0
H582 H 0.98788 0.37005 0.58587 0.0
C583 C 0.01 0.43365 0.59306 0.0
C584 C 0.98048 0.42378 0.56518 0.0
C585 C 0.96355 0.39068 0.54761 0.0
C586 C 0.93976 0.38258 0.51545 0.0
C587 C 0.92448 0.34981 0.49721 0.0
C588 C 0.93187 0.32552 0.51096 0.0
C589 C 0.95466 0.33325 0.54286 0.0
C590 C 0.97045 0.36541 0.56104 0.0
H591 H 0.9585 0.44639 0.43982 0.0
C592 C 0.93359 0.4242 0.43289 0.0
H593 H 0.89152 0.38029 0.45475 0.0
H594 H 0.00797 0.49033 0.5919 0.0
H595 H 0.98911 0.52921 0.57271 0.0
H596 H 0.9425 0.51218 0.52257 0.0
H597 H 0.91535 0.45615 0.49039 0.0
C598 C 0.91611 0.40284 0.46158 0.0
C599 C 0.93267 0.40756 0.50145 0.0
C600 C 0.94608 0.43904 0.52244 0.0
C601 C 0.97119 0.44786 0.55325 0.0
C602 C 0.98721 0.48119 0.57016 0.0
C603 C 0.97685 0.50402 0.5591 0.0
C604 C 0.95073 0.4945 0.53074 0.0
C605 C 0.93554 0.46245 0.51239 0.0
H606 H 0.62147 0.56747 0.47795 0.0
C607 C 0.60637 0.56316 0.45081 0.0
H608 H 0.56483 0.56464 0.4233 0.0
H609 H 0.48401 0.55483 0.57563 0.0
H610 H 0.44549 0.50141 0.54139 0.0
H611 H 0.46356 0.48307 0.4821 0.0
H612 H 0.52012 0.5182 0.45649 0.0
C613 C 0.58015 0.56916 0.4503 0.0
C614 C 0.56991 0.58027 0.48652 0.0
C615 C 0.53691 0.55914 0.50144 0.0
C616 C 0.52677 0.56936 0.53608 0.0
C617 C 0.49334 0.54809 0.54983 0.0
C618 C 0.47089 0.51735 0.5304 0.0
C619 C 0.48104 0.50706 0.49699 0.0
C620 C 0.5136 0.52756 0.48255 0.0
H621 H 0.54232 0.65468 0.56965 0.0
C622 C 0.53569 0.63813 0.59468 0.0
H623 H 0.53188 0.5936 0.61738 0.0
H624 H 0.6329 0.62955 0.46232 0.0
H625 H 0.67251 0.68158 0.49834 0.0
H626 H 0.65737 0.69622 0.56243 0.0
H627 H 0.60215 0.6594 0.59021 0.0
C628 C 0.53898 0.61048 0.59264 0.0
C629 C 0.54983 0.60046 0.55609 0.0
C630 C 0.58307 0.6214 0.54153 0.0
C631 C 0.59267 0.61186 0.50592 0.0
C632 C 0.62494 0.63454 0.49034 0.0
C633 C 0.64786 0.66469 0.51056 0.0
C634 C 0.63927 0.67302 0.54653 0.0
C635 C 0.60732 0.65173 0.56199 0.0
H636 H 0.39152 0.9487 0.54161 0.0
C637 C 0.40421 0.95181 0.57028 0.0
H638 H 0.44949 0.97991 0.60521 0.0
H639 H 0.47645 0.02365 0.41335 0.0
H640 H 0.46283 0.96607 0.39898 0.0
H641 H 0.44761 0.92511 0.45221 0.0
H642 H 0.4449 0.94149 0.52011 0.0
C643 C 0.43704 0.97648 0.57634 0.0
C644 C 0.45491 0.0029 0.54647 0.0
C645 C 0.45895 0.99372 0.50755 0.0
C646 C 0.47005 0.01804 0.47739 0.0
C647 C 0.47026 0.00706 0.438 0.0
C648 C 0.46216 0.97386 0.4292 0.0
C649 C 0.45343 0.95075 0.45912 0.0
C650 C 0.45173 0.96041 0.49788 0.0
H651 H 0.53197 0.07765 0.43633 0.0
C652 C 0.51467 0.08746 0.43219 0.0
H653 H 0.47005 0.08662 0.451 0.0
H654 H 0.45308 0.02997 0.61906 0.0
H655 H 0.47169 0.08875 0.63476 0.0
H656 H 0.49502 0.13175 0.58349 0.0
H657 H 0.49947 0.116 0.51595 0.0
C658 C 0.48766 0.0772 0.45542 0.0
C659 C 0.47963 0.05221 0.487 0.0
C660 C 0.47832 0.06195 0.52663 0.0
C661 C 0.46563 0.03726 0.55635 0.0
C662 C 0.46312 0.04759 0.59531 0.0
C663 C 0.47366 0.08134 0.60479 0.0
C664 C 0.48673 0.10553 0.57592 0.0
C665 C 0.48904 0.09611 0.53725 0.0
loop_
_geom_bond_atom_site_label_1
_geom_bond_atom_site_label_2
_geom_bond_distance
_geom_bond_site_symmetry_2
_ccdc_geom_bond_type
C0 O1 1.306 . S
C0 O3 1.160 . S
O1 C0 1.306 . S
O1 Cd2 2.228 . S
Cd2 O1 2.228 . S
Cd2 O6 2.273 . S
Cd2 O10 2.277 1_455 S
O3 C0 1.160 . S
O3 Cd4 2.203 . S
Cd4 O3 2.203 . S
Cd4 O6 2.411 . S
Cd4 O7 2.333 1_455 S
Cd4 O8 2.352 1_554 S
Cd4 O12 2.277 1_454 S
Cd4 O13 2.356 1_554 S
C5 O10 1.209 . S
C5 O12 1.226 1_554 S
O6 Cd2 2.273 . S
O6 Cd4 2.411 . S
O6 C9 1.320 1_455 S
O7 Cd4 2.333 1_655 S
O7 C9 1.214 . S
O8 Cd4 2.352 1_556 S
O8 C11 1.258 . S
C9 O6 1.320 1_655 S
C9 O7 1.214 . S
O10 Cd2 2.277 1_655 S
O10 C5 1.209 . S
C11 O8 1.258 . S
C11 O13 1.282 . S
O12 Cd4 2.277 1_656 S
O12 C5 1.226 1_556 S
O13 Cd4 2.356 1_556 S
O13 C11 1.282 . S
C14 O15 1.306 1_554 S
C14 O17 1.160 . S
O15 C14 1.306 1_556 S
O15 Cd16 2.228 . S
Cd16 O15 2.228 . S
Cd16 O20 2.273 . S
Cd16 O24 2.277 . S
O17 C14 1.160 . S
O17 Cd18 2.203 . S
Cd18 O17 2.203 . S
Cd18 O20 2.411 1_554 S
Cd18 O21 2.333 . S
Cd18 O22 2.352 . S
Cd18 O26 2.277 . S
Cd18 O27 2.356 . S
C19 O24 1.209 1_554 S
C19 O26 1.226 . S
O20 Cd16 2.273 . S
O20 Cd18 2.411 1_556 S
O20 C23 1.320 . S
O21 Cd18 2.333 . S
O21 C23 1.214 1_554 S
O22 Cd18 2.352 . S
O22 C25 1.258 . S
C23 O20 1.320 . S
C23 O21 1.214 1_556 S
O24 Cd16 2.277 . S
O24 C19 1.209 1_556 S
C25 O22 1.258 . S
C25 O27 1.282 . S
O26 Cd18 2.277 . S
O26 C19 1.226 . S
O27 Cd18 2.356 . S
O27 C25 1.282 . S
C28 O29 1.306 . S
C28 O31 1.160 1_554 S
O29 C28 1.306 . S
O29 Cd30 2.228 1_565 S
Cd30 O29 2.228 1_545 S
Cd30 O34 2.273 . S
Cd30 O38 2.277 . S
O31 C28 1.160 1_556 S
O31 Cd32 2.203 1_566 S
Cd32 O31 2.203 1_544 S
Cd32 O34 2.411 . S
Cd32 O35 2.333 . S
Cd32 O36 2.352 1_544 S
Cd32 O40 2.277 1_554 S
Cd32 O41 2.356 1_554 S
C33 O38 1.209 . S
C33 O40 1.226 1_554 S
O34 Cd30 2.273 . S
O34 Cd32 2.411 . S
O34 C37 1.320 . S
O35 Cd32 2.333 . S
O35 C37 1.214 . S
O36 Cd32 2.352 1_566 S
O36 C39 1.258 . S
C37 O34 1.320 . S
C37 O35 1.214 . S
O38 Cd30 2.277 . S
O38 C33 1.209 . S
C39 O36 1.258 . S
C39 O41 1.282 1_565 S
O40 Cd32 2.277 1_556 S
O40 C33 1.226 1_556 S
O41 Cd32 2.356 1_556 S
O41 C39 1.282 1_545 S
C42 O43 1.306 . S
C42 O45 1.160 . S
O43 C42 1.306 . S
O43 Cd44 2.228 . S
Cd44 O43 2.228 . S
Cd44 O48 2.273 . S
Cd44 O52 2.277 . S
O45 C42 1.160 . S
O45 Cd46 2.203 . S
Cd46 O45 2.203 . S
Cd46 O48 2.411 . S
Cd46 O49 2.333 . S
Cd46 O50 2.352 . S
Cd46 O54 2.277 . S
Cd46 O55 2.356 . S
C47 O52 1.209 . S
C47 O54 1.226 . S
O48 Cd44 2.273 . S
O48 Cd46 2.411 . S
O48 C51 1.320 . S
O49 Cd46 2.333 . S
O49 C51 1.214 . S
O50 Cd46 2.352 . S
O50 C53 1.258 . S
C51 O48 1.320 . S
C51 O49 1.214 . S
O52 Cd44 2.277 . S
O52 C47 1.209 . S
C53 O50 1.258 . S
C53 O55 1.282 . S
O54 Cd46 2.277 . S
O54 C47 1.226 . S
O55 Cd46 2.356 . S
O55 C53 1.282 . S
C56 O57 1.306 . S
C56 O59 1.160 . S
O57 C56 1.306 . S
O57 Cd58 2.228 . S
Cd58 O57 2.228 . S
Cd58 O62 2.273 . S
Cd58 O66 2.277 . S
O59 C56 1.160 . S
O59 Cd60 2.203 . S
Cd60 O59 2.203 . S
Cd60 O62 2.411 . S
Cd60 O63 2.333 . S
Cd60 O64 2.352 . S
Cd60 O68 2.277 . S
Cd60 O69 2.356 . S
C61 O66 1.209 . S
C61 O68 1.226 . S
O62 Cd58 2.273 . S
O62 Cd60 2.411 . S
O62 C65 1.320 . S
O63 Cd60 2.333 . S
O63 C65 1.214 . S
O64 Cd60 2.352 . S
O64 C67 1.258 . S
C65 O62 1.320 . S
C65 O63 1.214 . S
O66 Cd58 2.277 . S
O66 C61 1.209 . S
C67 O64 1.258 . S
C67 O69 1.282 . S
O68 Cd60 2.277 . S
O68 C61 1.226 . S
O69 Cd60 2.356 . S
O69 C67 1.282 . S
C70 O71 1.306 . S
C70 O73 1.160 . S
O71 C70 1.306 . S
O71 Cd72 2.228 . S
Cd72 O71 2.228 . S
Cd72 O76 2.273 . S
Cd72 O80 2.277 . S
O73 C70 1.160 . S
O73 Cd74 2.203 . S
Cd74 O73 2.203 . S
Cd74 O76 2.411 . S
Cd74 O77 2.333 . S
Cd74 O78 2.352 . S
Cd74 O82 2.277 . S
Cd74 O83 2.356 . S
C75 O80 1.209 . S
C75 O82 1.226 . S
O76 Cd72 2.273 . S
O76 Cd74 2.411 . S
O76 C79 1.320 . S
O77 Cd74 2.333 . S
O77 C79 1.214 . S
O78 Cd74 2.352 . S
O78 C81 1.258 . S
C79 O76 1.320 . S
C79 O77 1.214 . S
O80 Cd72 2.277 . S
O80 C75 1.209 . S
C81 O78 1.258 . S
C81 O83 1.282 . S
O82 Cd74 2.277 . S
O82 C75 1.226 . S
O83 Cd74 2.356 . S
O83 C81 1.282 . S
C84 O85 1.306 . S
C84 O87 1.160 . S
O85 C84 1.306 . S
O85 Cd86 2.228 . S
Cd86 O85 2.228 . S
Cd86 O90 2.273 . S
Cd86 O94 2.277 . S
O87 C84 1.160 . S
O87 Cd88 2.203 . S
Cd88 O87 2.203 . S
Cd88 O90 2.411 . S
Cd88 O91 2.333 . S
Cd88 O92 2.352 . S
Cd88 O96 2.277 . S
Cd88 O97 2.356 . S
C89 O94 1.209 . S
C89 O96 1.226 . S
O90 Cd86 2.273 . S
O90 Cd88 2.411 . S
O90 C93 1.320 . S
O91 Cd88 2.333 . S
O91 C93 1.214 . S
O92 Cd88 2.352 . S
O92 C95 1.258 . S
C93 O90 1.320 . S
C93 O91 1.214 . S
O94 Cd86 2.277 . S
O94 C89 1.209 . S
C95 O92 1.258 . S
C95 O97 1.282 . S
O96 Cd88 2.277 . S
O96 C89 1.226 . S
O97 Cd88 2.356 . S
O97 C95 1.282 . S
C98 O99 1.306 . S
C98 O101 1.160 . S
O99 C98 1.306 . S
O99 Cd100 2.228 . S
Cd100 O99 2.228 . S
Cd100 O104 2.273 . S
Cd100 O108 2.277 . S
O101 C98 1.160 . S
O101 Cd102 2.203 . S
Cd102 O101 2.203 . S
Cd102 O104 2.411 . S
Cd102 O105 2.333 . S
Cd102 O106 2.352 . S
Cd102 O110 2.277 . S
Cd102 O111 2.356 . S
C103 O108 1.209 . S
C103 O110 1.226 . S
O104 Cd100 2.273 . S
O104 Cd102 2.411 . S
O104 C107 1.320 . S
O105 Cd102 2.333 . S
O105 C107 1.214 . S
O106 Cd102 2.352 . S
O106 C109 1.258 . S
C107 O104 1.320 . S
C107 O105 1.214 . S
O108 Cd100 2.277 . S
O108 C103 1.209 . S
C109 O106 1.258 . S
C109 O111 1.282 . S
O110 Cd102 2.277 . S
O110 C103 1.226 . S
O111 Cd102 2.356 . S
O111 C109 1.282 . S
C112 O113 1.306 . S
C112 O115 1.160 . S
O113 C112 1.306 . S
O113 Cd114 2.228 . S
Cd114 O113 2.228 . S
Cd114 O118 2.273 . S
Cd114 O122 2.277 . S
O115 C112 1.160 . S
O115 Cd116 2.203 . S
Cd116 O115 2.203 . S
Cd116 O118 2.411 . S
Cd116 O119 2.333 . S
Cd116 O120 2.352 . S
Cd116 O124 2.277 . S
Cd116 O125 2.356 . S
C117 O122 1.209 . S
C117 O124 1.226 . S
O118 Cd114 2.273 . S
O118 Cd116 2.411 . S
O118 C121 1.320 . S
O119 Cd116 2.333 . S
O119 C121 1.214 . S
O120 Cd116 2.352 . S
O120 C123 1.258 . S
C121 O118 1.320 . S
C121 O119 1.214 . S
O122 Cd114 2.277 . S
O122 C117 1.209 . S
C123 O120 1.258 . S
C123 O125 1.282 . S
O124 Cd116 2.277 . S
O124 C117 1.226 . S
O125 Cd116 2.356 . S
O125 C123 1.282 . S
H126 C127 0.951 . S
C127 H126 0.951 . S
C127 C133 1.265 . S
H128 C133 0.950 . S
H129 C137 0.949 . S
H130 C138 0.950 . S
H131 C139 0.951 . S
H132 C140 0.951 . S
C133 C127 1.265 . S
C133 H128 0.950 . S
C133 C134 1.478 . S
C134 C133 1.478 . S
C134 C135 1.397 . S
C134 C151 1.394 1_554 S
C135 C134 1.397 . S
C135 C136 1.438 . S
C135 C140 1.429 . S
C136 C135 1.438 . S
C136 C137 1.428 . S
C136 C149 1.394 . S
C137 H129 0.949 . S
C137 C136 1.428 . S
C137 C138 1.345 . S
C138 H130 0.950 . S
C138 C137 1.345 . S
C138 C139 1.424 . S
C139 H131 0.951 . S
C139 C138 1.424 . S
C139 C140 1.347 . S
C140 H132 0.951 . S
C140 C135 1.429 . S
C140 C139 1.347 . S
H141 C142 0.951 . S
C142 H141 0.951 . S
C142 C148 1.265 . S
H143 C148 0.950 . S
H144 C152 0.949 . S
H145 C153 0.950 . S
H146 C154 0.951 . S
H147 C155 0.951 . S
C148 C142 1.265 . S
C148 H143 0.950 . S
C148 C149 1.478 . S
C149 C136 1.394 . S
C149 C148 1.478 . S
C149 C150 1.397 1_554 S
C150 C149 1.397 1_556 S
C150 C151 1.438 . S
C150 C155 1.429 . S
C151 C134 1.394 1_556 S
C151 C150 1.438 . S
C151 C152 1.428 . S
C152 H144 0.949 . S
C152 C151 1.428 . S
C152 C153 1.345 . S
C153 H145 0.950 . S
C153 C152 1.345 . S
C153 C154 1.424 . S
C154 H146 0.951 . S
C154 C153 1.424 . S
C154 C155 1.347 . S
C155 H147 0.951 . S
C155 C150 1.429 . S
C155 C154 1.347 . S
H156 C157 0.951 . S
C157 H156 0.951 . S
C157 C163 1.265 . S
H158 C163 0.950 . S
H159 C167 0.949 . S
H160 C168 0.950 . S
H161 C169 0.951 . S
H162 C170 0.951 . S
C163 C157 1.265 . S
C163 H158 0.950 . S
C163 C164 1.478 . S
C164 C163 1.478 . S
C164 C165 1.397 1_565 S
C164 C181 1.394 1_554 S
C165 C164 1.397 1_545 S
C165 C166 1.438 . S
C165 C170 1.429 1_545 S
C166 C165 1.438 . S
C166 C167 1.428 . S
C166 C179 1.394 . S
C167 H159 0.949 . S
C167 C166 1.428 . S
C167 C168 1.345 . S
C168 H160 0.950 . S
C168 C167 1.345 . S
C168 C169 1.424 . S
C169 H161 0.951 . S
C169 C168 1.424 . S
C169 C170 1.347 1_545 S
C170 H162 0.951 . S
C170 C165 1.429 1_565 S
C170 C169 1.347 1_565 S
H171 C172 0.951 . S
C172 H171 0.951 . S
C172 C178 1.265 . S
H173 C178 0.950 . S
H174 C182 0.949 . S
H175 C183 0.950 . S
H176 C184 0.951 . S
H177 C185 0.951 . S
C178 C172 1.265 . S
C178 H173 0.950 . S
C178 C179 1.478 . S
C179 C166 1.394 . S
C179 C178 1.478 . S
C179 C180 1.397 1_554 S
C180 C179 1.397 1_556 S
C180 C181 1.438 1_545 S
C180 C185 1.429 . S
C181 C164 1.394 1_556 S
C181 C180 1.438 1_565 S
C181 C182 1.428 . S
C182 H174 0.949 . S
C182 C181 1.428 . S
C182 C183 1.345 . S
C183 H175 0.950 . S
C183 C182 1.345 . S
C183 C184 1.424 1_565 S
C184 H176 0.951 . S
C184 C183 1.424 1_545 S
C184 C185 1.347 . S
C185 H177 0.951 . S
C185 C180 1.429 . S
C185 C184 1.347 . S
H186 C187 0.951 . S
C187 H186 0.951 . S
C187 C193 1.265 . S
H188 C193 0.950 . S
H189 C197 0.949 . S
H190 C198 0.950 . S
H191 C199 0.949 1_655 S
H192 C200 0.951 . S
C193 C187 1.265 . S
C193 H188 0.950 . S
C193 C194 1.478 . S
C194 C193 1.478 . S
C194 C195 1.397 1_655 S
C194 C211 1.394 1_554 S
C195 C194 1.397 1_455 S
C195 C196 1.438 . S
C195 C200 1.429 1_455 S
C196 C195 1.438 . S
C196 C197 1.428 . S
C196 C209 1.394 . S
C197 H189 0.949 . S
C197 C196 1.428 . S
C197 C198 1.345 . S
C198 H190 0.950 . S
C198 C197 1.345 . S
C198 C199 1.424 . S
C199 H191 0.949 1_455 S
C199 C198 1.424 . S
C199 C200 1.347 1_455 S
C200 H192 0.951 . S
C200 C195 1.429 1_655 S
C200 C199 1.347 1_655 S
H201 C202 0.951 . S
C202 H201 0.951 . S
C202 C208 1.265 . S
H203 C208 0.950 . S
H204 C212 0.949 . S
H205 C213 0.950 . S
H206 C214 0.951 . S
H207 C215 0.951 . S
C208 C202 1.265 . S
C208 H203 0.950 . S
C208 C209 1.478 . S
C209 C196 1.394 . S
C209 C208 1.478 . S
C209 C210 1.397 1_554 S
C210 C209 1.397 1_556 S
C210 C211 1.438 1_455 S
C210 C215 1.429 . S
C211 C194 1.394 1_556 S
C211 C210 1.438 1_655 S
C211 C212 1.428 . S
C212 H204 0.949 . S
C212 C211 1.428 . S
C212 C213 1.345 . S
C213 H205 0.950 . S
C213 C212 1.345 . S
C213 C214 1.424 1_655 S
C214 H206 0.951 . S
C214 C213 1.424 1_455 S
C214 C215 1.347 . S
C215 H207 0.951 . S
C215 C210 1.429 . S
C215 C214 1.347 . S
H216 C217 0.951 . S
C217 H216 0.951 . S
C217 C223 1.265 . S
H218 C223 0.950 . S
H219 C227 0.949 . S
H220 C228 0.950 . S
H221 C229 0.951 . S
H222 C230 0.951 . S
C223 C217 1.265 . S
C223 H218 0.950 . S
C223 C224 1.478 . S
C224 C223 1.478 . S
C224 C225 1.397 . S
C224 C241 1.394 . S
C225 C224 1.397 . S
C225 C226 1.438 . S
C225 C230 1.429 . S
C226 C225 1.438 . S
C226 C227 1.428 . S
C226 C239 1.394 . S
C227 H219 0.949 . S
C227 C226 1.428 . S
C227 C228 1.345 . S
C228 H220 0.950 . S
C228 C227 1.345 . S
C228 C229 1.424 . S
C229 H221 0.951 . S
C229 C228 1.424 . S
C229 C230 1.347 . S
C230 H222 0.951 . S
C230 C225 1.429 . S
C230 C229 1.347 . S
H231 C232 0.951 . S
C232 H231 0.951 . S
C232 C238 1.265 . S
H233 C238 0.950 . S
H234 C242 0.949 . S
H235 C243 0.950 . S
H236 C244 0.951 . S
H237 C245 0.951 . S
C238 C232 1.265 . S
C238 H233 0.950 . S
C238 C239 1.478 . S
C239 C226 1.394 . S
C239 C238 1.478 . S
C239 C240 1.397 . S
C240 C239 1.397 . S
C240 C241 1.438 . S
C240 C245 1.429 . S
C241 C224 1.394 . S
C241 C240 1.438 . S
C241 C242 1.428 . S
C242 H234 0.949 . S
C242 C241 1.428 . S
C242 C243 1.345 . S
C243 H235 0.950 . S
C243 C242 1.345 . S
C243 C244 1.424 . S
C244 H236 0.951 . S
C244 C243 1.424 . S
C244 C245 1.347 . S
C245 H237 0.951 . S
C245 C240 1.429 . S
C245 C244 1.347 . S
H246 C247 0.951 . S
C247 H246 0.951 . S
C247 C253 1.265 . S
H248 C253 0.950 . S
H249 C257 0.949 . S
H250 C258 0.950 . S
H251 C259 0.951 . S
H252 C260 0.951 . S
C253 C247 1.265 . S
C253 H248 0.950 . S
C253 C254 1.478 . S
C254 C253 1.478 . S
C254 C255 1.397 . S
C254 C271 1.394 . S
C255 C254 1.397 . S
C255 C256 1.438 . S
C255 C260 1.429 . S
C256 C255 1.438 . S
C256 C257 1.428 . S
C256 C269 1.394 . S
C257 H249 0.949 . S
C257 C256 1.428 . S
C257 C258 1.345 . S
C258 H250 0.950 . S
C258 C257 1.345 . S
C258 C259 1.424 . S
C259 H251 0.951 . S
C259 C258 1.424 . S
C259 C260 1.347 . S
C260 H252 0.951 . S
C260 C255 1.429 . S
C260 C259 1.347 . S
H261 C262 0.951 . S
C262 H261 0.951 . S
C262 C268 1.265 . S
H263 C268 0.950 . S
H264 C272 0.949 . S
H265 C273 0.950 . S
H266 C274 0.951 . S
H267 C275 0.951 . S
C268 C262 1.265 . S
C268 H263 0.950 . S
C268 C269 1.478 . S
C269 C256 1.394 . S
C269 C268 1.478 . S
C269 C270 1.397 . S
C270 C269 1.397 . S
C270 C271 1.438 . S
C270 C275 1.429 . S
C271 C254 1.394 . S
C271 C270 1.438 . S
C271 C272 1.428 . S
C272 H264 0.949 . S
C272 C271 1.428 . S
C272 C273 1.345 . S
C273 H265 0.950 . S
C273 C272 1.345 . S
C273 C274 1.424 . S
C274 H266 0.951 . S
C274 C273 1.424 . S
C274 C275 1.347 . S
C275 H267 0.951 . S
C275 C270 1.429 . S
C275 C274 1.347 . S
H276 C277 0.951 . S
C277 H276 0.951 . S
C277 C283 1.265 . S
H278 C283 0.950 . S
H279 C287 0.949 . S
H280 C288 0.950 . S
H281 C289 0.951 . S
H282 C290 0.951 . S
C283 C277 1.265 . S
C283 H278 0.950 . S
C283 C284 1.478 . S
C284 C283 1.478 . S
C284 C285 1.397 . S
C284 C301 1.394 . S
C285 C284 1.397 . S
C285 C286 1.438 . S
C285 C290 1.429 . S
C286 C285 1.438 . S
C286 C287 1.428 . S
C286 C299 1.394 . S
C287 H279 0.949 . S
C287 C286 1.428 . S
C287 C288 1.345 . S
C288 H280 0.950 . S
C288 C287 1.345 . S
C288 C289 1.424 . S
C289 H281 0.951 . S
C289 C288 1.424 . S
C289 C290 1.347 . S
C290 H282 0.951 . S
C290 C285 1.429 . S
C290 C289 1.347 . S
H291 C292 0.951 . S
C292 H291 0.951 . S
C292 C298 1.265 . S
H293 C298 0.950 . S
H294 C302 0.949 . S
H295 C303 0.950 . S
H296 C304 0.951 . S
H297 C305 0.951 . S
C298 C292 1.265 . S
C298 H293 0.950 . S
C298 C299 1.478 . S
C299 C286 1.394 . S
C299 C298 1.478 . S
C299 C300 1.397 . S
C300 C299 1.397 . S
C300 C301 1.438 . S
C300 C305 1.429 . S
C301 C284 1.394 . S
C301 C300 1.438 . S
C301 C302 1.428 . S
C302 H294 0.949 . S
C302 C301 1.428 . S
C302 C303 1.345 . S
C303 H295 0.950 . S
C303 C302 1.345 . S
C303 C304 1.424 . S
C304 H296 0.951 . S
C304 C303 1.424 . S
C304 C305 1.347 . S
C305 H297 0.951 . S
C305 C300 1.429 . S
C305 C304 1.347 . S
H306 C307 0.951 . S
C307 H306 0.951 . S
C307 C313 1.265 . S
H308 C313 0.950 . S
H309 C317 0.949 . S
H310 C318 0.950 . S
H311 C319 0.951 . S
H312 C320 0.951 . S
C313 C307 1.265 . S
C313 H308 0.950 . S
C313 C314 1.478 . S
C314 C313 1.478 . S
C314 C315 1.397 . S
C314 C331 1.394 . S
C315 C314 1.397 . S
C315 C316 1.438 . S
C315 C320 1.429 . S
C316 C315 1.438 . S
C316 C317 1.428 . S
C316 C329 1.394 . S
C317 H309 0.949 . S
C317 C316 1.428 . S
C317 C318 1.345 . S
C318 H310 0.950 . S
C318 C317 1.345 . S
C318 C319 1.424 . S
C319 H311 0.951 . S
C319 C318 1.424 . S
C319 C320 1.347 . S
C320 H312 0.951 . S
C320 C315 1.429 . S
C320 C319 1.347 . S
H321 C322 0.951 . S
C322 H321 0.951 . S
C322 C328 1.265 . S
H323 C328 0.950 . S
H324 C332 0.949 . S
H325 C333 0.950 . S
H326 C334 0.951 . S
H327 C335 0.951 . S
C328 C322 1.265 . S
C328 H323 0.950 . S
C328 C329 1.478 . S
C329 C316 1.394 . S
C329 C328 1.478 . S
C329 C330 1.397 . S
C330 C329 1.397 . S
C330 C331 1.438 . S
C330 C335 1.429 . S
C331 C314 1.394 . S
C331 C330 1.438 . S
C331 C332 1.428 . S
C332 H324 0.949 . S
C332 C331 1.428 . S
C332 C333 1.345 . S
C333 H325 0.950 . S
C333 C332 1.345 . S
C333 C334 1.424 . S
C334 H326 0.951 . S
C334 C333 1.424 . S
C334 C335 1.347 . S
C335 H327 0.951 . S
C335 C330 1.429 . S
C335 C334 1.347 . S
H336 C337 0.951 . S
C337 H336 0.951 . S
C337 C343 1.265 . S
H338 C343 0.950 . S
H339 C347 0.949 . S
H340 C348 0.950 . S
H341 C349 0.951 . S
H342 C350 0.951 . S
C343 C337 1.265 . S
C343 H338 0.950 . S
C343 C344 1.478 . S
C344 C343 1.478 . S
C344 C345 1.397 . S
C344 C361 1.394 . S
C345 C344 1.397 . S
C345 C346 1.438 . S
C345 C350 1.429 . S
C346 C345 1.438 . S
C346 C347 1.428 . S
C346 C359 1.394 . S
C347 H339 0.949 . S
C347 C346 1.428 . S
C347 C348 1.345 . S
C348 H340 0.950 . S
C348 C347 1.345 . S
C348 C349 1.424 . S
C349 H341 0.951 . S
C349 C348 1.424 . S
C349 C350 1.347 . S
C350 H342 0.951 . S
C350 C345 1.429 . S
C350 C349 1.347 . S
H351 C352 0.951 . S
C352 H351 0.951 . S
C352 C358 1.265 . S
H353 C358 0.950 . S
H354 C362 0.949 . S
H355 C363 0.950 . S
H356 C364 0.951 . S
H357 C365 0.951 . S
C358 C352 1.265 . S
C358 H353 0.950 . S
C358 C359 1.478 . S
C359 C346 1.394 . S
C359 C358 1.478 . S
C359 C360 1.397 . S
C360 C359 1.397 . S
C360 C361 1.438 . S
C360 C365 1.429 . S
C361 C344 1.394 . S
C361 C360 1.438 . S
C361 C362 1.428 . S
C362 H354 0.949 . S
C362 C361 1.428 . S
C362 C363 1.345 . S
C363 H355 0.950 . S
C363 C362 1.345 . S
C363 C364 1.424 . S
C364 H356 0.951 . S
C364 C363 1.424 . S
C364 C365 1.347 . S
C365 H357 0.951 . S
C365 C360 1.429 . S
C365 C364 1.347 . S
H366 C367 0.951 . S
C367 H366 0.951 . S
C367 C373 1.265 . S
H368 C373 0.950 . S
H369 C377 0.949 . S
H370 C378 0.950 . S
H371 C379 0.951 . S
H372 C380 0.951 . S
C373 C367 1.265 . S
C373 H368 0.950 . S
C373 C374 1.478 . S
C374 C373 1.478 . S
C374 C375 1.397 . S
C374 C391 1.394 . S
C375 C374 1.397 . S
C375 C376 1.438 . S
C375 C380 1.429 . S
C376 C375 1.438 . S
C376 C377 1.428 . S
C376 C389 1.394 . S
C377 H369 0.949 . S
C377 C376 1.428 . S
C377 C378 1.345 . S
C378 H370 0.950 . S
C378 C377 1.345 . S
C378 C379 1.424 . S
C379 H371 0.951 . S
C379 C378 1.424 . S
C379 C380 1.347 . S
C380 H372 0.951 . S
C380 C375 1.429 . S
C380 C379 1.347 . S
H381 C382 0.951 . S
C382 H381 0.951 . S
C382 C388 1.265 . S
H383 C388 0.950 . S
H384 C392 0.949 . S
H385 C393 0.950 . S
H386 C394 0.951 . S
H387 C395 0.951 . S
C388 C382 1.265 . S
C388 H383 0.950 . S
C388 C389 1.478 . S
C389 C376 1.394 . S
C389 C388 1.478 . S
C389 C390 1.397 . S
C390 C389 1.397 . S
C390 C391 1.438 . S
C390 C395 1.429 . S
C391 C374 1.394 . S
C391 C390 1.438 . S
C391 C392 1.428 . S
C392 H384 0.949 . S
C392 C391 1.428 . S
C392 C393 1.345 . S
C393 H385 0.950 . S
C393 C392 1.345 . S
C393 C394 1.424 . S
C394 H386 0.951 . S
C394 C393 1.424 . S
C394 C395 1.347 . S
C395 H387 0.951 . S
C395 C390 1.429 . S
C395 C394 1.347 . S
H396 C397 0.951 . S
C397 H396 0.951 . S
C397 C403 1.265 . S
H398 C403 0.950 . S
H399 C407 0.949 . S
H400 C408 0.950 . S
H401 C409 0.951 . S
H402 C410 0.951 . S
C403 C397 1.265 . S
C403 H398 0.950 . S
C403 C404 1.478 . S
C404 C403 1.478 . S
C404 C405 1.397 . S
C404 C421 1.394 . S
C405 C404 1.397 . S
C405 C406 1.438 . S
C405 C410 1.429 . S
C406 C405 1.438 . S
C406 C407 1.428 . S
C406 C419 1.394 . S
C407 H399 0.949 . S
C407 C406 1.428 . S
C407 C408 1.345 . S
C408 H400 0.950 . S
C408 C407 1.345 . S
C408 C409 1.424 . S
C409 H401 0.951 . S
C409 C408 1.424 . S
C409 C410 1.347 . S
C410 H402 0.951 . S
C410 C405 1.429 . S
C410 C409 1.347 . S
H411 C412 0.951 . S
C412 H411 0.951 . S
C412 C418 1.265 . S
H413 C418 0.950 . S
H414 C422 0.949 . S
H415 C423 0.950 . S
H416 C424 0.951 . S
H417 C425 0.951 . S
C418 C412 1.265 . S
C418 H413 0.950 . S
C418 C419 1.478 . S
C419 C406 1.394 . S
C419 C418 1.478 . S
C419 C420 1.397 . S
C420 C419 1.397 . S
C420 C421 1.438 . S
C420 C425 1.429 . S
C421 C404 1.394 . S
C421 C420 1.438 . S
C421 C422 1.428 . S
C422 H414 0.949 . S
C422 C421 1.428 . S
C422 C423 1.345 . S
C423 H415 0.950 . S
C423 C422 1.345 . S
C423 C424 1.424 . S
C424 H416 0.951 . S
C424 C423 1.424 . S
C424 C425 1.347 . S
C425 H417 0.951 . S
C425 C420 1.429 . S
C425 C424 1.347 . S
H426 C427 0.951 . S
C427 H426 0.951 . S
C427 C433 1.265 . S
H428 C433 0.950 . S
H429 C437 0.949 . S
H430 C438 0.950 . S
H431 C439 0.951 . S
H432 C440 0.951 . S
C433 C427 1.265 . S
C433 H428 0.950 . S
C433 C434 1.478 . S
C434 C433 1.478 . S
C434 C435 1.397 . S
C434 C451 1.394 . S
C435 C434 1.397 . S
C435 C436 1.438 . S
C435 C440 1.429 . S
C436 C435 1.438 . S
C436 C437 1.428 . S
C436 C449 1.394 . S
C437 H429 0.949 . S
C437 C436 1.428 . S
C437 C438 1.345 . S
C438 H430 0.950 . S
C438 C437 1.345 . S
C438 C439 1.424 . S
C439 H431 0.951 . S
C439 C438 1.424 . S
C439 C440 1.347 . S
C440 H432 0.951 . S
C440 C435 1.429 . S
C440 C439 1.347 . S
H441 C442 0.951 . S
C442 H441 0.951 . S
C442 C448 1.265 . S
H443 C448 0.950 . S
H444 C452 0.949 . S
H445 C453 0.950 . S
H446 C454 0.951 . S
H447 C455 0.951 . S
C448 C442 1.265 . S
C448 H443 0.950 . S
C448 C449 1.478 . S
C449 C436 1.394 . S
C449 C448 1.478 . S
C449 C450 1.397 . S
C450 C449 1.397 . S
C450 C451 1.438 . S
C450 C455 1.429 . S
C451 C434 1.394 . S
C451 C450 1.438 . S
C451 C452 1.428 . S
C452 H444 0.949 . S
C452 C451 1.428 . S
C452 C453 1.345 . S
C453 H445 0.950 . S
C453 C452 1.345 . S
C453 C454 1.424 . S
C454 H446 0.951 . S
C454 C453 1.424 . S
C454 C455 1.347 . S
C455 H447 0.951 . S
C455 C450 1.429 . S
C455 C454 1.347 . S
H456 C457 0.951 . S
C457 H456 0.951 . S
C457 C463 1.265 . S
H458 C463 0.950 . S
H459 C467 0.949 . S
H460 C468 0.950 . S
H461 C469 0.951 . S
H462 C470 0.951 . S
C463 C457 1.265 . S
C463 H458 0.950 . S
C463 C464 1.478 . S
C464 C463 1.478 . S
C464 C465 1.397 . S
C464 C481 1.394 . S
C465 C464 1.397 . S
C465 C466 1.438 . S
C465 C470 1.429 . S
C466 C465 1.438 . S
C466 C467 1.428 1_565 S
C466 C479 1.394 . S
C467 H459 0.949 . S
C467 C466 1.428 1_545 S
C467 C468 1.345 . S
C468 H460 0.950 . S
C468 C467 1.345 . S
C468 C469 1.424 . S
C469 H461 0.951 . S
C469 C468 1.424 . S
C469 C470 1.347 1_545 S
C470 H462 0.951 . S
C470 C465 1.429 . S
C470 C469 1.347 1_565 S
H471 C472 0.951 . S
C472 H471 0.951 . S
C472 C478 1.265 . S
H473 C478 0.950 . S
H474 C482 0.949 . S
H475 C483 0.950 . S
H476 C484 0.951 . S
H477 C485 0.951 . S
C478 C472 1.265 . S
C478 H473 0.950 . S
C478 C479 1.478 . S
C479 C466 1.394 . S
C479 C478 1.478 . S
C479 C480 1.397 . S
C480 C479 1.397 . S
C480 C481 1.438 . S
C480 C485 1.429 . S
C481 C464 1.394 . S
C481 C480 1.438 . S
C481 C482 1.428 . S
C482 H474 0.949 . S
C482 C481 1.428 . S
C482 C483 1.345 . S
C483 H475 0.950 . S
C483 C482 1.345 . S
C483 C484 1.424 . S
C484 H476 0.951 . S
C484 C483 1.424 . S
C484 C485 1.347 . S
C485 H477 0.951 . S
C485 C480 1.429 . S
C485 C484 1.347 . S
H486 C487 0.951 . S
C487 H486 0.951 . S
C487 C493 1.265 . S
H488 C493 0.950 . S
H489 C497 0.949 . S
H490 C498 0.950 . S
H491 C499 0.951 1_565 S
H492 C500 0.951 . S
C493 C487 1.265 . S
C493 H488 0.950 . S
C493 C494 1.478 . S
C494 C493 1.478 . S
C494 C495 1.397 . S
C494 C511 1.394 . S
C495 C494 1.397 . S
C495 C496 1.438 . S
C495 C500 1.429 . S
C496 C495 1.438 . S
C496 C497 1.428 . S
C496 C509 1.394 . S
C497 H489 0.949 . S
C497 C496 1.428 . S
C497 C498 1.345 1_545 S
C498 H490 0.950 . S
C498 C497 1.345 1_565 S
C498 C499 1.424 1_565 S
C499 H491 0.951 1_545 S
C499 C498 1.424 1_545 S
C499 C500 1.347 . S
C500 H492 0.951 . S
C500 C495 1.429 . S
C500 C499 1.347 . S
H501 C502 0.951 . S
C502 H501 0.951 . S
C502 C508 1.265 . S
H503 C508 0.950 . S
H504 C512 0.949 . S
H505 C513 0.950 . S
H506 C514 0.951 . S
H507 C515 0.951 . S
C508 C502 1.265 . S
C508 H503 0.950 . S
C508 C509 1.478 . S
C509 C496 1.394 . S
C509 C508 1.478 . S
C509 C510 1.397 . S
C510 C509 1.397 . S
C510 C511 1.438 . S
C510 C515 1.429 . S
C511 C494 1.394 . S
C511 C510 1.438 . S
C511 C512 1.428 . S
C512 H504 0.949 . S
C512 C511 1.428 . S
C512 C513 1.345 . S
C513 H505 0.950 . S
C513 C512 1.345 . S
C513 C514 1.424 . S
C514 H506 0.951 . S
C514 C513 1.424 . S
C514 C515 1.347 . S
C515 H507 0.951 . S
C515 C510 1.429 . S
C515 C514 1.347 . S
H516 C517 0.951 . S
C517 H516 0.951 . S
C517 C523 1.265 . S
H518 C523 0.950 . S
H519 C527 0.949 . S
H520 C528 0.950 . S
H521 C529 0.951 . S
H522 C530 0.951 . S
C523 C517 1.265 . S
C523 H518 0.950 . S
C523 C524 1.478 . S
C524 C523 1.478 . S
C524 C525 1.397 . S
C524 C541 1.394 . S
C525 C524 1.397 . S
C525 C526 1.438 . S
C525 C530 1.429 . S
C526 C525 1.438 . S
C526 C527 1.428 . S
C526 C539 1.394 . S
C527 H519 0.949 . S
C527 C526 1.428 . S
C527 C528 1.345 . S
C528 H520 0.950 . S
C528 C527 1.345 . S
C528 C529 1.424 . S
C529 H521 0.951 . S
C529 C528 1.424 . S
C529 C530 1.347 . S
C530 H522 0.951 . S
C530 C525 1.429 . S
C530 C529 1.347 . S
H531 C532 0.951 . S
C532 H531 0.951 . S
C532 C538 1.265 . S
H533 C538 0.950 . S
H534 C542 0.949 . S
H535 C543 0.950 . S
H536 C544 0.951 . S
H537 C545 0.951 . S
C538 C532 1.265 . S
C538 H533 0.950 . S
C538 C539 1.478 . S
C539 C526 1.394 . S
C539 C538 1.478 . S
C539 C540 1.397 . S
C540 C539 1.397 . S
C540 C541 1.438 . S
C540 C545 1.429 . S
C541 C524 1.394 . S
C541 C540 1.438 . S
C541 C542 1.428 1_655 S
C542 H534 0.949 . S
C542 C541 1.428 1_455 S
C542 C543 1.345 . S
C543 H535 0.950 . S
C543 C542 1.345 . S
C543 C544 1.424 . S
C544 H536 0.951 . S
C544 C543 1.424 . S
C544 C545 1.347 1_455 S
C545 H537 0.951 . S
C545 C540 1.429 . S
C545 C544 1.347 1_655 S
H546 C547 0.951 . S
C547 H546 0.951 . S
C547 C553 1.265 . S
H548 C553 0.950 . S
H549 C557 0.949 . S
H550 C558 0.950 . S
H551 C559 0.951 . S
H552 C560 0.951 . S
C553 C547 1.265 . S
C553 H548 0.950 . S
C553 C554 1.478 . S
C554 C553 1.478 . S
C554 C555 1.397 . S
C554 C571 1.394 . S
C555 C554 1.397 . S
C555 C556 1.438 . S
C555 C560 1.429 . S
C556 C555 1.438 . S
C556 C557 1.428 . S
C556 C569 1.394 . S
C557 H549 0.949 . S
C557 C556 1.428 . S
C557 C558 1.345 . S
C558 H550 0.950 . S
C558 C557 1.345 . S
C558 C559 1.424 . S
C559 H551 0.951 . S
C559 C558 1.424 . S
C559 C560 1.347 . S
C560 H552 0.951 . S
C560 C555 1.429 . S
C560 C559 1.347 . S
H561 C562 0.951 . S
C562 H561 0.951 . S
C562 C568 1.265 . S
H563 C568 0.950 . S
H564 C572 0.949 . S
H565 C573 0.950 . S
H566 C574 0.951 . S
H567 C575 0.951 . S
C568 C562 1.265 . S
C568 H563 0.950 . S
C568 C569 1.478 . S
C569 C556 1.394 . S
C569 C568 1.478 . S
C569 C570 1.397 . S
C570 C569 1.397 . S
C570 C571 1.438 . S
C570 C575 1.429 . S
C571 C554 1.394 . S
C571 C570 1.438 . S
C571 C572 1.428 . S
C572 H564 0.949 . S
C572 C571 1.428 . S
C572 C573 1.345 . S
C573 H565 0.950 . S
C573 C572 1.345 . S
C573 C574 1.424 . S
C574 H566 0.951 . S
C574 C573 1.424 . S
C574 C575 1.347 . S
C575 H567 0.951 . S
C575 C570 1.429 . S
C575 C574 1.347 . S
H576 C577 0.951 . S
C577 H576 0.951 . S
C577 C583 1.265 . S
H578 C583 0.950 . S
H579 C587 0.949 . S
H580 C588 0.950 . S
H581 C589 0.951 . S
H582 C590 0.951 . S
C583 C577 1.265 . S
C583 H578 0.950 . S
C583 C584 1.478 . S
C584 C583 1.478 . S
C584 C585 1.397 . S
C584 C601 1.394 . S
C585 C584 1.397 . S
C585 C586 1.438 . S
C585 C590 1.429 . S
C586 C585 1.438 . S
C586 C587 1.428 1_455 S
C586 C599 1.394 1_455 S
C587 H579 0.949 . S
C587 C586 1.428 1_655 S
C587 C588 1.345 . S
C588 H580 0.950 . S
C588 C587 1.345 . S
C588 C589 1.424 1_655 S
C589 H581 0.951 . S
C589 C588 1.424 1_455 S
C589 C590 1.347 . S
C590 H582 0.951 . S
C590 C585 1.429 . S
C590 C589 1.347 . S
H591 C592 0.951 . S
C592 H591 0.951 . S
C592 C598 1.265 . S
H593 C598 0.950 . S
H594 C602 0.949 . S
H595 C603 0.950 . S
H596 C604 0.951 . S
H597 C605 0.951 1_655 S
C598 C592 1.265 . S
C598 H593 0.950 . S
C598 C599 1.478 . S
C599 C586 1.394 1_655 S
C599 C598 1.478 . S
C599 C600 1.397 1_655 S
C600 C599 1.397 1_455 S
C600 C601 1.438 . S
C600 C605 1.429 . S
C601 C584 1.394 . S
C601 C600 1.438 . S
C601 C602 1.428 . S
C602 H594 0.949 . S
C602 C601 1.428 . S
C602 C603 1.345 . S
C603 H595 0.950 . S
C603 C602 1.345 . S
C603 C604 1.424 . S
C604 H596 0.951 . S
C604 C603 1.424 . S
C604 C605 1.347 . S
C605 H597 0.951 1_455 S
C605 C600 1.429 . S
C605 C604 1.347 . S
H606 C607 0.951 . S
C607 H606 0.951 . S
C607 C613 1.265 . S
H608 C613 0.950 . S
H609 C617 0.949 . S
H610 C618 0.950 . S
H611 C619 0.951 . S
H612 C620 0.951 . S
C613 C607 1.265 . S
C613 H608 0.950 . S
C613 C614 1.478 . S
C614 C613 1.478 . S
C614 C615 1.397 . S
C614 C631 1.394 . S
C615 C614 1.397 . S
C615 C616 1.438 . S
C615 C620 1.429 . S
C616 C615 1.438 . S
C616 C617 1.428 . S
C616 C629 1.394 . S
C617 H609 0.949 . S
C617 C616 1.428 . S
C617 C618 1.345 . S
C618 H610 0.950 . S
C618 C617 1.345 . S
C618 C619 1.424 . S
C619 H611 0.951 . S
C619 C618 1.424 . S
C619 C620 1.347 . S
C620 H612 0.951 . S
C620 C615 1.429 . S
C620 C619 1.347 . S
H621 C622 0.951 . S
C622 H621 0.951 . S
C622 C628 1.265 . S
H623 C628 0.950 . S
H624 C632 0.949 . S
H625 C633 0.950 . S
H626 C634 0.951 . S
H627 C635 0.951 . S
C628 C622 1.265 . S
C628 H623 0.950 . S
C628 C629 1.478 . S
C629 C616 1.394 . S
C629 C628 1.478 . S
C629 C630 1.397 . S
C630 C629 1.397 . S
C630 C631 1.438 . S
C630 C635 1.429 . S
C631 C614 1.394 . S
C631 C630 1.438 . S
C631 C632 1.428 . S
C632 H624 0.949 . S
C632 C631 1.428 . S
C632 C633 1.345 . S
C633 H625 0.950 . S
C633 C632 1.345 . S
C633 C634 1.424 . S
C634 H626 0.951 . S
C634 C633 1.424 . S
C634 C635 1.347 . S
C635 H627 0.951 . S
C635 C630 1.429 . S
C635 C634 1.347 . S
H636 C637 0.951 . S
C637 H636 0.951 . S
C637 C643 1.265 . S
H638 C643 0.950 . S
H639 C647 0.949 . S
H640 C648 0.950 . S
H641 C649 0.951 . S
H642 C650 0.951 . S
C643 C637 1.265 . S
C643 H638 0.950 . S
C643 C644 1.478 . S
C644 C643 1.478 . S
C644 C645 1.397 . S
C644 C661 1.394 1_565 S
C645 C644 1.397 . S
C645 C646 1.438 1_565 S
C645 C650 1.429 . S
C646 C645 1.438 1_545 S
C646 C647 1.428 . S
C646 C659 1.394 . S
C647 H639 0.949 . S
C647 C646 1.428 . S
C647 C648 1.345 1_545 S
C648 H640 0.950 . S
C648 C647 1.345 1_565 S
C648 C649 1.424 . S
C649 H641 0.951 . S
C649 C648 1.424 . S
C649 C650 1.347 . S
C650 H642 0.951 . S
C650 C645 1.429 . S
C650 C649 1.347 . S
H651 C652 0.951 . S
C652 H651 0.951 . S
C652 C658 1.265 . S
H653 C658 0.950 . S
H654 C662 0.949 . S
H655 C663 0.950 . S
H656 C664 0.951 . S
H657 C665 0.951 . S
C658 C652 1.265 . S
C658 H653 0.950 . S
C658 C659 1.478 . S
C659 C646 1.394 . S
C659 C658 1.478 . S
C659 C660 1.397 . S
C660 C659 1.397 . S
C660 C661 1.438 . S
C660 C665 1.429 . S
C661 C644 1.394 1_545 S
C661 C660 1.438 . S
C661 C662 1.428 . S
C662 H654 0.949 . S
C662 C661 1.428 . S
C662 C663 1.345 . S
C663 H655 0.950 . S
C663 C662 1.345 . S
C663 C664 1.424 . S
C664 H656 0.951 . S
C664 C663 1.424 . S
C664 C665 1.347 . S
C665 H657 0.951 . S
C665 C660 1.429 . S
C665 C664 1.347 . S
C127 C33 1.062 . S
C142 C0 0.960 . S
C157 C19 0.998 . S
C172 C5 1.084 . S
C187 C14 1.057 . S
C202 C28 0.947 . S
C217 C70 0.935 . S
C232 C47 1.043 . S
C247 C61 1.020 . S
C262 C42 0.910 . S
C277 C56 0.960 . S
C292 C75 1.066 . S
C307 C84 0.913 . S
C322 C117 1.020 . S
C337 C89 1.026 . S
C352 C103 0.935 . S
C367 C98 1.003 . S
C382 C112 0.889 . S
C397 C11 1.371 . S
C412 C109 1.362 . S
C427 C23 1.413 . S
C442 C121 1.412 . S
C457 C93 1.371 . S
C472 C39 1.384 . S
C487 C65 1.348 . S
C502 C37 1.350 . S
C517 C9 1.419 . S
C532 C79 1.421 . S
C547 C51 1.410 . S
C562 C25 1.392 . S
C577 C107 1.376 . S
C592 C81 1.390 . S
C607 C53 1.357 . S
C622 C123 1.354 . S
C637 C95 1.401 . S
C652 C67 1.409 . S
