# Generated by pormake.
# Topology rob, (6)-cn, num edge types: 1
# Building blocks:
#     Node 0, Type 0, BuildingBlock: LEVNOQ01_clean_sbu_1, # of connection points: 6
#     Node 1, Type 0, BuildingBlock: LEVNOQ01_clean_sbu_1, # of connection points: 6
#     Node 2, Type 0, BuildingBlock: LEVNOQ01_clean_sbu_1, # of connection points: 6
#     Node 3, Type 0, BuildingBlock: LEVNOQ01_clean_sbu_1, # of connection points: 6
#     Edge 4, Type (0, 0), BuildingBlock: MIFKUJ_clean_linker_0, # of connection points: 2
#     Edge 5, Type (0, 0), BuildingBlock: MIFKUJ_clean_linker_0, # of connection points: 2
#     Edge 6, Type (0, 0), BuildingBlock: MIFKUJ_clean_linker_0, # of connection points: 2
#     Edge 7, Type (0, 0), BuildingBlock: MIFKUJ_clean_linker_0, # of connection points: 2
#     Edge 8, Type (0, 0), BuildingBlock: MIFKUJ_clean_linker_0, # of connection points: 2
#     Edge 9, Type (0, 0), BuildingBlock: MIFKUJ_clean_linker_0, # of connection points: 2
#     Edge 10, Type (0, 0), BuildingBlock: MIFKUJ_clean_linker_0, # of connection points: 2
#     Edge 11, Type (0, 0), BuildingBlock: MIFKUJ_clean_linker_0, # of connection points: 2
#     Edge 12, Type (0, 0), BuildingBlock: MIFKUJ_clean_linker_0, # of connection points: 2
#     Edge 13, Type (0, 0), BuildingBlock: MIFKUJ_clean_linker_0, # of connection points: 2
#     Edge 14, Type (0, 0), BuildingBlock: MIFKUJ_clean_linker_0, # of connection points: 2
#     Edge 15, Type (0, 0), BuildingBlock: MIFKUJ_clean_linker_0, # of connection points: 2
# Relax obj value: 0.200
# Max RMSD: 0.225
# Mean RMSD: 0.225
data_MOF--net-rob--node1-LEVNOQ01_clean_sbu_1--edge1-MIFKUJ_clean_linker_0
_symmetry_space_group_name_H-M    P1
_symmetry_Int_Tables_number       1
_symmetry_cell_setting            triclinic
loop_
_symmetry_equiv_pos_as_xyz
'x, y, z'
_cell_length_a     19.485066
_cell_length_b     35.352559
_cell_length_c     34.972052
_cell_angle_alpha  107.25347
_cell_angle_beta   89.931262
_cell_angle_gamma 89.644797
loop_
_atom_site_label
_atom_site_type_symbol
_atom_site_fract_x
_atom_site_fract_y
_atom_site_fract_z
_atom_type_partial_charge
O0 O 0.15169 0.29027 0.06538 0.0
Mg1 Mg 0.24181 0.31048 0.04791 0.0
O2 O 0.15218 0.23434 0.0163 0.0
Mg3 Mg 0.24139 0.23108 0.97182 0.0
O4 O 0.2738 0.29594 -0.0107 0.0
O5 O 0.20315 0.34507 0.01324 0.0
O6 O 0.33073 0.22349 0.92552 0.0
O7 O 0.16766 0.24461 0.92687 0.0
Mg8 Mg 0.23162 0.15292 0.89444 0.0
O9 O 0.21226 0.1666 0.95331 0.0
O10 O 0.33707 0.16084 0.88817 0.0
O11 O 0.16201 0.19018 0.87452 0.0
O12 O 0.19665 0.10598 0.91295 0.0
C13 C 0.3432 0.24253 0.0495 0.0
C14 C 0.12547 0.25733 0.04783 0.0
C15 C 0.24878 0.32894 -0.01277 0.0
C16 C 0.36165 0.19545 0.89941 0.0
C17 C 0.14438 0.22575 0.8926 0.0
C18 C 0.19176 0.1309 0.94822 0.0
O19 O 0.32653 0.27899 0.06411 0.0
O20 O 0.31535 0.21984 0.01807 0.0
O21 O 0.62004 0.80503 0.04114 0.0
Mg22 Mg 0.72718 0.80101 0.03337 0.0
O23 O 0.65048 0.7434 0.0273 0.0
Mg24 Mg 0.72799 0.73551 -0.02513 0.0
O25 O 0.77015 0.79945 -0.01957 0.0
O26 O 0.76305 0.8541 0.03365 0.0
O27 O 0.81059 0.72649 0.92253 0.0
O28 O 0.64086 0.75566 0.94009 0.0
Mg29 Mg 0.7218 0.68095 0.91651 0.0
O30 O 0.68377 0.67033 0.9666 0.0
O31 O 0.82191 0.66222 0.90037 0.0
O32 O 0.68363 0.71803 0.88418 0.0
O33 O 0.66012 0.63466 0.90315 0.0
C34 C 0.82355 0.74082 0.05058 0.0
C35 C 0.60948 0.77121 0.04472 0.0
C36 C 0.78167 0.83684 -0.00275 0.0
C37 C 0.8426 0.69608 0.90094 0.0
C38 C 0.64601 0.74671 0.90244 0.0
C39 C 0.657 0.63934 0.94107 0.0
O40 O 0.79116 0.77299 0.06625 0.0
O41 O 0.81291 0.7206 0.01433 0.0
O42 O 0.10958 0.68074 0.41614 0.0
Mg43 Mg 0.21758 0.67715 0.41725 0.0
O44 O 0.15269 0.73922 0.42732 0.0
Mg45 Mg 0.23371 0.74044 0.47722 0.0
O46 O 0.26701 0.67369 0.46668 0.0
O47 O 0.2487 0.62169 0.41204 0.0
O48 O 0.3139 0.74488 0.52731 0.0
O49 O 0.15153 0.73006 0.5194 0.0
Mg50 Mg 0.24497 0.81353 0.54568 0.0
O51 O 0.20327 0.80564 0.49088 0.0
O52 O 0.35237 0.80518 0.54356 0.0
O53 O 0.18624 0.77744 0.57323 0.0
O54 O 0.2066 0.8646 0.53731 0.0
C55 C 0.32151 0.73203 0.39871 0.0
C56 C 0.10591 0.7147 0.41167 0.0
C57 C 0.2737 0.6363 0.44742 0.0
C58 C 0.35908 0.76995 0.54438 0.0
C59 C 0.15119 0.74654 0.55708 0.0
C60 C 0.18922 0.84308 0.50204 0.0
O61 O 0.28173 0.70334 0.38294 0.0
O62 O 0.3176 0.75072 0.4358 0.0
O63 O 0.6125 0.18042 0.41141 0.0
Mg64 Mg 0.71855 0.16853 0.40384 0.0
O65 O 0.65551 0.23967 0.42889 0.0
Mg66 Mg 0.73923 0.2379 0.47567 0.0
O67 O 0.76135 0.17136 0.45701 0.0
O68 O 0.75127 0.1146 0.40789 0.0
O69 O 0.822 0.23666 0.52274 0.0
O70 O 0.66015 0.22773 0.5183 0.0
Mg71 Mg 0.75907 0.30981 0.54945 0.0
O72 O 0.71516 0.3039 0.49616 0.0
O73 O 0.86441 0.2961 0.53998 0.0
O74 O 0.69234 0.27415 0.57397 0.0
O75 O 0.72291 0.36232 0.54243 0.0
C76 C 0.82136 0.23259 0.39523 0.0
C77 C 0.60805 0.21612 0.41196 0.0
C78 C 0.77114 0.13357 0.44353 0.0
C79 C 0.86871 0.26054 0.54003 0.0
C80 C 0.65566 0.24447 0.55577 0.0
C81 C 0.7016 0.34131 0.50783 0.0
O82 O 0.78309 0.20359 0.37748 0.0
O83 O 0.81937 0.24842 0.43295 0.0
H84 H 0.65005 0.56339 0.89651 0.0
H85 H 0.59317 0.50934 0.91238 0.0
H86 H 0.54323 0.58583 0.0303 0.0
H87 H 0.60172 0.64123 0.0145 0.0
H88 H 0.58415 0.49693 0.01889 0.0
H89 H 0.4233 0.58062 -0.0185 0.0
H90 H 0.37769 0.62422 0.944 0.0
H91 H 0.38577 0.52793 0.83503 0.0
H92 H 0.43273 0.48385 0.87183 0.0
H93 H 0.29432 0.39209 0.04411 0.0
H94 H 0.37792 0.44014 0.03852 0.0
H95 H 0.40542 0.37795 0.91302 0.0
H96 H 0.31858 0.32888 0.91836 0.0
H97 H 0.37932 0.46009 0.93151 0.0
H98 H 0.53259 0.37526 -0.02122 0.0
H99 H 0.56427 0.33615 0.02404 0.0
H100 H 0.55344 0.44085 0.12488 0.0
H101 H 0.5212 0.48057 0.08032 0.0
C102 C 0.62759 0.56893 0.92603 0.0
C103 C 0.62847 0.60678 0.95395 0.0
C104 C 0.59583 0.53782 0.93513 0.0
C105 C 0.56364 0.54394 0.97217 0.0
C106 C 0.56812 0.58088 0.0015 0.0
C107 C 0.60081 0.61238 -0.00761 0.0
C108 C 0.51803 0.51274 -0.0233 0.0
C109 C 0.53868 0.48908 0.00043 0.0
C110 C 0.45953 0.50262 0.95202 0.0
C111 C 0.43226 0.52901 0.92939 0.0
C112 C 0.41624 0.56884 0.94946 0.0
C113 C 0.38995 0.59362 0.92835 0.0
C114 C 0.37895 0.57886 0.88715 0.0
C115 C 0.39439 0.53931 0.86696 0.0
C116 C 0.42083 0.5144 0.88794 0.0
C117 C 0.3174 0.38864 0.01505 0.0
C118 C 0.29881 0.35741 -0.01872 0.0
C119 C 0.36621 0.41578 0.01218 0.0
C120 C 0.39857 0.4121 -0.02434 0.0
C121 C 0.38108 0.38077 0.94161 0.0
C122 C 0.33165 0.35308 0.94453 0.0
C123 C 0.44557 0.44365 0.97331 0.0
C124 C 0.42503 0.46758 0.94984 0.0
C125 C 0.50249 0.45463 -0.00057 0.0
C126 C 0.52434 0.43092 0.02612 0.0
C127 C 0.53686 0.38996 0.0106 0.0
C128 C 0.55494 0.36768 0.03615 0.0
C129 C 0.56082 0.386 0.0773 0.0
C130 C 0.549 0.4267 0.09298 0.0
C131 C 0.53106 0.44914 0.06756 0.0
H132 H 0.57453 0.36868 0.09704 0.0
H133 H 0.35817 0.59803 0.87091 0.0
H134 H 0.4024 0.61722 0.42319 0.0
H135 H 0.47125 0.56335 0.43424 0.0
H136 H 0.31548 0.54379 0.51404 0.0
H137 H 0.24621 0.59817 0.50294 0.0
H138 H 0.45866 0.53429 0.53654 0.0
H139 H 0.30251 0.48979 0.42648 0.0
H140 H 0.24564 0.4928 0.36452 0.0
H141 H 0.43979 0.47565 0.30337 0.0
H142 H 0.49806 0.47318 0.36524 0.0
H143 H 0.56796 0.34436 0.52472 0.0
H144 H 0.48465 0.39028 0.51023 0.0
H145 H 0.63362 0.42357 0.43489 0.0
H146 H 0.71778 0.37793 0.45009 0.0
H147 H 0.48568 0.42354 0.41069 0.0
H148 H 0.64221 0.4727 0.52137 0.0
H149 H 0.70054 0.47103 0.58333 0.0
H150 H 0.50622 0.4811 0.64367 0.0
H151 H 0.44651 0.48183 0.58164 0.0
C152 C 0.38406 0.60213 0.44403 0.0
C153 C 0.31964 0.61133 0.46231 0.0
C154 C 0.42306 0.57143 0.45017 0.0
C155 C 0.3976 0.54939 0.47435 0.0
C156 C 0.33554 0.56058 0.4952 0.0
C157 C 0.29628 0.59148 0.48899 0.0
C158 C 0.43261 0.51234 0.47408 0.0
C159 C 0.46359 0.50976 0.5093 0.0
C160 C 0.43965 0.48082 0.43815 0.0
C161 C 0.40473 0.48159 0.40062 0.0
C162 C 0.33318 0.48693 0.39992 0.0
C163 C 0.30067 0.48851 0.3648 0.0
C164 C 0.3391 0.48449 0.33005 0.0
C165 C 0.41011 0.47878 0.33033 0.0
C166 C 0.4429 0.47724 0.36541 0.0
C167 C 0.58168 0.36028 0.5037 0.0
C168 C 0.64854 0.358 0.48834 0.0
C169 C 0.53432 0.38644 0.49555 0.0
C170 C 0.55364 0.41046 0.47197 0.0
C171 C 0.61814 0.40508 0.45311 0.0
C172 C 0.66598 0.37915 0.4617 0.0
C173 C 0.51196 0.44559 0.47311 0.0
C174 C 0.47996 0.44785 0.43804 0.0
C175 C 0.50402 0.47687 0.50918 0.0
C176 C 0.53978 0.47669 0.54665 0.0
C177 C 0.6118 0.47403 0.54767 0.0
C178 C 0.64515 0.47334 0.58283 0.0
C179 C 0.60709 0.47581 0.61738 0.0
C180 C 0.53561 0.47906 0.61683 0.0
C181 C 0.50197 0.47957 0.58166 0.0
H182 H 0.63301 0.47536 0.64461 0.0
H183 H 0.31384 0.48572 0.30289 0.0
H184 H 0.23173 0.08501 -0.00603 0.0
H185 H 0.15366 0.03756 0.0093 0.0
H186 H 0.98125 0.09903 -0.0228 0.0
H187 H 0.05899 0.14792 0.96486 0.0
H188 H 0.93761 0.05874 0.02287 0.0
H189 H 0.08223 0.02688 0.90315 0.0
H190 H 0.19102 0.01633 0.86502 0.0
H191 H 0.25628 0.93193 0.92429 0.0
H192 H 0.14803 0.94209 0.9628 0.0
H193 H 0.73363 0.88943 0.96093 0.0
H194 H 0.8008 0.94372 0.94974 0.0
H195 H 0.98521 0.89251 -0.01741 0.0
H196 H 0.91861 0.83749 -0.00861 0.0
H197 H 0.01661 0.92928 0.93232 0.0
H198 H 0.87231 0.96178 0.05289 0.0
H199 H 0.76123 0.96998 0.08852 0.0
H200 H 0.69425 0.05204 0.02685 0.0
H201 H 0.80469 0.044 -0.00942 0.0
C202 C 0.17687 0.08988 -0.00694 0.0
C203 C 0.15095 0.11955 -0.02209 0.0
C204 C 0.13233 0.06234 0.00095 0.0
C205 C 0.06218 0.06354 -0.00794 0.0
C206 C 0.0354 0.09701 -0.0166 0.0
C207 C 0.0798 0.12523 -0.02324 0.0
C208 C 0.01959 0.02755 -0.01518 0.0
C209 C 0.95473 0.03048 0.00294 0.0
C210 C 0.04157 -0.00935 0.95846 0.0
C211 C 0.10735 0.98547 0.93604 0.0
C212 C 0.12001 0.00628 0.90821 0.0
C213 C 0.1815 0.00031 0.88648 0.0
C214 C 0.23057 0.97353 0.89228 0.0
C215 C 0.21829 0.95268 0.91983 0.0
C216 C 0.15687 0.95849 0.94156 0.0
C217 C 0.78898 0.88905 0.96376 0.0
C218 C 0.82158 0.85973 -0.0231 0.0
C219 C 0.82711 0.92024 0.95802 0.0
C220 C 0.89753 0.92296 0.96693 0.0
C221 C 0.93082 0.8913 -0.02403 0.0
C222 C 0.89298 0.85975 -0.01921 0.0
C223 C 0.93573 0.96007 0.97142 0.0
C224 C -0.0005 0.95752 0.95234 0.0
C225 C 0.91268 -0.00283 -0.00313 0.0
C226 C 0.84645 0.00202 0.0188 0.0
C227 C 0.83374 0.98143 0.04682 0.0
C228 C 0.77092 -0.01394 0.06713 0.0
C229 C 0.72067 0.01146 0.0599 0.0
C230 C 0.73317 0.03234 0.03239 0.0
C231 C 0.79586 0.02778 0.01197 0.0
H232 H 0.6721 0.01502 0.07567 0.0
H233 H 0.27804 0.96888 0.87537 0.0
H234 H 0.72462 0.07354 0.469 0.0
H235 H 0.79679 0.02391 0.48592 0.0
H236 H 0.97614 0.09374 0.48229 0.0
H237 H 0.90342 0.1442 0.46681 0.0
H238 H 0.96375 0.01844 0.42057 0.0
H239 H 0.95692 0.07334 0.56249 0.0
H240 H 0.90517 0.101 0.6294 0.0
H241 H 0.79702 -0.00765 0.6157 0.0
H242 H 0.84744 0.96415 0.54842 0.0
H243 H 0.22378 0.90065 0.46971 0.0
H244 H 0.14262 0.94656 0.45359 0.0
H245 H 0.97418 0.87357 0.46883 0.0
H246 H 0.056 0.82691 0.48388 0.0
H247 H 0.97591 0.94862 0.52415 0.0
H248 H 0.9853 0.89328 0.38236 0.0
H249 H 0.03922 0.86579 0.31599 0.0
H250 H 0.14389 0.97557 0.32996 0.0
H251 H 0.09118 0.00363 0.39662 0.0
C252 C 0.77903 0.07908 0.47387 0.0
C253 C 0.80907 0.11217 0.46657 0.0
C254 C 0.8201 0.05087 0.48354 0.0
C255 C 0.89157 0.05516 0.48488 0.0
C256 C 0.92091 0.09018 0.48146 0.0
C257 C 0.87954 0.11891 0.47276 0.0
C258 C 0.93483 0.01988 0.48051 0.0
C259 C 0.96759 0.00345 0.44345 0.0
C260 C 0.93667 -0.00024 0.50981 0.0
C261 C 0.90527 0.0168 0.55007 0.0
C262 C 0.92141 0.05549 0.57347 0.0
C263 C 0.89251 0.07123 0.61156 0.0
C264 C 0.8476 0.04851 0.62672 0.0
C265 C 0.83169 0.00995 0.60387 0.0
C266 C 0.86048 -0.00594 0.56576 0.0
C267 C 0.16967 0.89345 0.46745 0.0
C268 C 0.14558 0.86067 0.47797 0.0
C269 C 0.12334 0.91962 0.45834 0.0
C270 C 0.05253 0.91359 0.46054 0.0
C271 C 0.02873 0.87861 0.46703 0.0
C272 C 0.07532 0.85194 0.47533 0.0
C273 C 0.00542 0.94728 0.46426 0.0
C274 C 0.97172 0.96344 0.50115 0.0
C275 C 0.00266 0.96722 0.43481 0.0
C276 C 0.03469 0.95045 0.39471 0.0
C277 C 0.02027 0.91147 0.37145 0.0
C278 C 0.05048 0.89581 0.33371 0.0
C279 C 0.09508 0.91889 0.31881 0.0
C280 C 0.10936 0.95772 0.34156 0.0
C281 C 0.07921 0.97355 0.37929 0.0
H282 H 0.11848 0.9067 0.28961 0.0
H283 H 0.8253 0.06073 0.65622 0.0
H284 H 0.49035 0.18083 0.37749 0.0
H285 H 0.44696 0.18028 0.31165 0.0
H286 H 0.59912 0.26657 0.3055 0.0
H287 H 0.64042 0.26854 0.37162 0.0
H288 H 0.48698 0.28084 0.27352 0.0
H289 H 0.62609 0.16288 0.25814 0.0
H290 H 0.65932 0.10112 0.27276 0.0
H291 H 0.45871 0.05355 0.23855 0.0
H292 H 0.42436 0.11506 0.22369 0.0
H293 H 0.47272 0.26396 0.07478 0.0
H294 H 0.52926 0.24955 0.13148 0.0
H295 H 0.36364 0.17138 0.13864 0.0
H296 H 0.30952 0.18383 0.08037 0.0
H297 H 0.48338 0.15029 0.16895 0.0
H298 H 0.34528 0.27039 0.18677 0.0
H299 H 0.31471 0.33233 0.17172 0.0
H300 H 0.51881 0.37604 0.20214 0.0
H301 H 0.55053 0.31425 0.21723 0.0
C302 C 0.51284 0.20062 0.36256 0.0
C303 C 0.56886 0.22453 0.3795 0.0
C304 C 0.48887 0.1998 0.32474 0.0
C305 C 0.52148 0.22233 0.30315 0.0
C306 C 0.57365 0.24863 0.32149 0.0
C307 C 0.59679 0.25 0.35952 0.0
C308 C 0.503 0.21798 0.26107 0.0
C309 C 0.48712 0.25231 0.25065 0.0
C310 C 0.50207 0.18067 0.23129 0.0
C311 C 0.52259 0.1436 0.24 0.0
C312 C 0.58904 0.13927 0.25386 0.0
C313 C 0.6081 0.1043 0.26212 0.0
C314 C 0.56113 0.07345 0.25662 0.0
C315 C 0.49506 0.07745 0.24274 0.0
C316 C 0.47584 0.1123 0.23427 0.0
C317 C 0.45039 0.2423 0.08739 0.0
C318 C 0.38695 0.22517 0.07383 0.0
C319 C 0.48234 0.23418 0.11976 0.0
C320 C 0.44931 0.21045 0.13996 0.0
C321 C 0.38972 0.18993 0.12359 0.0
C322 C 0.35885 0.19708 0.09039 0.0
C323 C 0.46874 0.21327 0.18155 0.0
C324 C 0.48397 0.17874 0.1919 0.0
C325 C 0.4696 0.25044 0.21144 0.0
C326 C 0.45026 0.28777 0.20299 0.0
C327 C 0.38357 0.29323 0.1902 0.0
C328 C 0.36606 0.32828 0.18167 0.0
C329 C 0.41479 0.3581 0.18597 0.0
C330 C 0.4811 0.35295 0.19889 0.0
C331 C 0.49882 0.31799 0.20752 0.0
H332 H 0.40117 0.3852 0.17933 0.0
H333 H 0.57594 0.04642 0.26308 0.0
H334 H 0.54286 0.82999 0.10146 0.0
H335 H 0.50228 0.8262 0.16631 0.0
H336 H 0.54358 0.70052 0.12983 0.0
H337 H 0.58463 0.70398 0.06505 0.0
H338 H 0.42188 0.72075 0.1703 0.0
H339 H 0.65896 0.75492 0.18875 0.0
H340 H 0.76453 0.79207 0.18556 0.0
H341 H 0.66881 0.89935 0.25761 0.0
H342 H 0.56262 0.86275 0.26122 0.0
H343 H 0.41359 0.68298 0.35177 0.0
H344 H 0.47622 0.69457 0.29574 0.0
H345 H 0.40367 0.81559 0.33057 0.0
H346 H 0.3417 0.80418 0.38747 0.0
H347 H 0.54482 0.79916 0.29218 0.0
H348 H 0.30567 0.75596 0.27426 0.0
H349 H 0.20944 0.71172 0.27657 0.0
H350 H 0.32023 0.61292 0.19946 0.0
H351 H 0.418 0.65637 0.19767 0.0
C352 C 0.5418 0.80137 0.10685 0.0
C353 C 0.56774 0.76732 0.07837 0.0
C354 C 0.51945 0.79939 0.14405 0.0
C355 C 0.52195 0.76331 0.15298 0.0
C356 C 0.54227 0.72871 0.12348 0.0
C357 C 0.56511 0.73069 0.0864 0.0
C358 C 0.50384 0.76165 0.19326 0.0
C359 C 0.44905 0.73762 0.19692 0.0
C360 C 0.53961 0.7838 0.22775 0.0
C361 C 0.60264 0.80619 0.22493 0.0
C362 C 0.66023 0.7865 0.20361 0.0
C363 C 0.72027 0.80741 0.20186 0.0
C364 C 0.7233 0.84806 0.22129 0.0
C365 C 0.66635 0.86786 0.24256 0.0
C366 C 0.6063 0.84703 0.24457 0.0
C367 C 0.41314 0.71241 0.34819 0.0
C368 C 0.37254 0.7426 0.37314 0.0
C369 C 0.44891 0.719 0.31639 0.0
C370 C 0.44322 0.75564 0.30883 0.0
C371 C 0.40843 0.78714 0.33616 0.0
C372 C 0.37313 0.78064 0.36845 0.0
C373 C 0.46248 0.75845 0.2691 0.0
C374 C 0.51746 0.78257 0.26555 0.0
C375 C 0.42793 0.73559 0.2344 0.0
C376 C 0.36948 0.70938 0.2362 0.0
C377 C 0.3099 0.72472 0.25823 0.0
C378 C 0.25497 0.6998 0.25934 0.0
C379 C 0.25864 0.65955 0.23811 0.0
C380 C 0.31743 0.6441 0.2159 0.0
C381 C 0.37267 0.66884 0.2149 0.0
H382 H 0.2159 0.64036 0.23883 0.0
H383 H 0.76982 0.86421 0.21994 0.0
H384 H 0.50936 0.76465 0.89961 0.0
H385 H 0.45478 0.77711 0.84113 0.0
H386 H 0.65557 0.78688 0.79211 0.0
H387 H 0.70851 0.77791 0.8513 0.0
H388 H 0.58134 0.82298 0.76137 0.0
H389 H 0.55528 0.69288 0.78051 0.0
H390 H 0.51487 0.64378 0.81289 0.0
H391 H 0.30591 0.67751 0.80057 0.0
H392 H 0.34507 0.72715 0.76861 0.0
H393 H 0.49294 0.75048 0.55481 0.0
H394 H 0.5438 0.7458 0.61794 0.0
H395 H 0.34619 0.7729 0.67598 0.0
H396 H 0.2965 0.77778 0.61384 0.0
H397 H 0.41839 0.715 0.69936 0.0
H398 H 0.45702 0.85037 0.68586 0.0
H399 H 0.50295 0.89251 0.64681 0.0
H400 H 0.70034 0.83634 0.64131 0.0
H401 H 0.65521 0.7938 0.68015 0.0
C402 C 0.54108 0.77166 0.8772 0.0
C403 C 0.61272 0.76938 0.87894 0.0
C404 C 0.5102 0.77792 0.84344 0.0
C405 C 0.55112 0.78051 0.81105 0.0
C406 C 0.62249 0.78405 0.81602 0.0
C407 C 0.65294 0.77892 0.84994 0.0
C408 C 0.52226 0.77474 0.77049 0.0
C409 C 0.54627 0.79901 0.74798 0.0
C410 C 0.47658 0.74334 0.7524 0.0
C411 C 0.4532 0.71406 0.77253 0.0
C412 C 0.50076 0.69004 0.78499 0.0
C413 C 0.47806 0.66209 0.80325 0.0
C414 C 0.40791 0.6576 0.80886 0.0
C415 C 0.36026 0.68109 0.7963 0.0
C416 C 0.38267 0.70915 0.77813 0.0
C417 C 0.46081 0.75486 0.58109 0.0
C418 C 0.39111 0.76423 0.57992 0.0
C419 C 0.48949 0.7521 0.61687 0.0
C420 C 0.44846 0.75905 0.65146 0.0
C421 C 0.37839 0.767 0.64954 0.0
C422 C 0.35012 0.76984 0.61412 0.0
C423 C 0.47851 0.76279 0.69101 0.0
C424 C 0.45423 0.73844 0.71315 0.0
C425 C 0.52564 0.79304 0.70841 0.0
C426 C 0.55304 0.81929 0.6861 0.0
C427 C 0.51027 0.84722 0.67643 0.0
C428 C 0.53608 0.87107 0.65428 0.0
C429 C 0.60457 0.86718 0.64168 0.0
C430 C 0.6474 0.83945 0.65124 0.0
C431 C 0.62183 0.81559 0.67344 0.0
H432 H 0.62442 0.88562 0.62447 0.0
H433 H 0.39045 0.63584 0.8228 0.0
H434 H 0.5383 0.27835 0.59017 0.0
H435 H 0.47765 0.26216 0.64462 0.0
H436 H 0.60959 0.1603 0.62985 0.0
H437 H 0.66952 0.17614 0.57474 0.0
H438 H 0.46257 0.15663 0.66083 0.0
H439 H 0.67579 0.23349 0.68575 0.0
H440 H 0.75019 0.28746 0.67919 0.0
H441 H 0.59202 0.37259 0.7306 0.0
H442 H 0.51647 0.31897 0.73705 0.0
H443 H 0.46084 0.14634 0.85683 0.0
H444 H 0.50996 0.1511 0.79412 0.0
H445 H 0.42365 0.26847 0.81722 0.0
H446 H 0.37523 0.26409 0.88014 0.0
H447 H 0.54435 0.26245 0.77984 0.0
H448 H 0.3322 0.18988 0.75771 0.0
H449 H 0.24922 0.13827 0.76047 0.0
H450 H 0.39512 0.04773 0.70275 0.0
H451 H 0.4789 0.09885 0.69962 0.0
C452 C 0.55223 0.25168 0.59765 0.0
C453 C 0.60854 0.22869 0.57929 0.0
C454 C 0.51758 0.24235 0.62841 0.0
C455 C 0.54024 0.21051 0.6414 0.0
C456 C 0.59156 0.1849 0.61997 0.0
C457 C 0.62584 0.19404 0.58883 0.0
C458 C 0.52209 0.20976 0.6819 0.0
C459 C 0.48095 0.17935 0.68697 0.0
C460 C 0.54518 0.24005 0.71563 0.0
C461 C 0.59046 0.27227 0.7117 0.0
C462 C 0.65677 0.26369 0.6954 0.0
C463 C 0.69917 0.29421 0.69176 0.0
C464 C 0.67583 0.33344 0.70447 0.0
C465 C 0.61003 0.3422 0.72079 0.0
C466 C 0.56746 0.31178 0.7245 0.0
C467 C 0.45473 0.17376 0.84926 0.0
C468 C 0.41331 0.20459 0.8729 0.0
C469 C 0.48184 0.17618 0.8132 0.0
C470 C 0.46782 0.20943 0.80044 0.0
C471 C 0.43391 0.24225 0.82635 0.0
C472 C 0.40706 0.23994 0.86258 0.0
C473 C 0.48488 0.20908 0.75924 0.0
C474 C 0.52596 0.23947 0.75391 0.0
C475 C 0.46101 0.17894 0.72537 0.0
C476 C 0.41202 0.14816 0.72883 0.0
C477 C 0.34682 0.15896 0.74601 0.0
C478 C 0.29953 0.12981 0.74746 0.0
C479 C 0.31695 0.08975 0.73188 0.0
C480 C 0.38171 0.07877 0.71483 0.0
C481 C 0.42904 0.10781 0.71313 0.0
H482 H 0.28023 0.06722 0.73292 0.0
H483 H 0.70876 0.35705 0.70172 0.0
H484 H 0.92789 0.7831 0.0917 0.0
H485 H -0.01263 0.77112 0.14836 0.0
H486 H 0.88575 0.65844 0.12531 0.0
H487 H 0.82613 0.67053 0.06801 0.0
H488 H 0.8595 0.70698 0.19998 0.0
H489 H 0.06155 0.66158 0.12162 0.0
H490 H 0.15329 0.66325 0.07351 0.0
H491 H 0.22306 0.77451 0.15113 0.0
H492 H 0.13144 0.77366 0.19964 0.0
H493 H 0.01795 0.66243 0.36318 0.0
H494 H 0.97813 0.66335 0.29756 0.0
H495 H 0.06529 0.77933 0.31648 0.0
H496 H 0.10669 0.77846 0.38231 0.0
H497 H 0.10305 0.72507 0.24242 0.0
H498 H 0.89704 0.77317 0.31729 0.0
H499 H 0.81133 0.77059 0.36839 0.0
H500 H 0.75283 0.65381 0.29803 0.0
H501 H 0.8387 0.6556 0.2466 0.0
C502 C 0.92038 0.75511 0.09786 0.0
C503 C 0.87268 0.72772 0.07582 0.0
C504 C 0.95444 0.74822 0.13016 0.0
C505 C 0.94079 0.71396 0.14118 0.0
C506 C 0.89697 0.68507 0.11724 0.0
C507 C 0.8634 0.69179 0.08443 0.0
C508 C 0.96369 0.7118 0.18087 0.0
C509 C 0.91298 0.70998 0.20891 0.0
C510 C 0.03318 0.71725 0.19298 0.0
C511 C 0.08916 0.71768 0.16416 0.0
C512 C 0.09619 0.68652 0.12835 0.0
C513 C 0.14827 0.68728 0.10104 0.0
C514 C 0.19386 0.71902 0.10922 0.0
C515 C 0.1877 0.74994 0.14485 0.0
C516 C 0.13581 0.74928 0.17233 0.0
C517 C 0.02737 0.68858 0.3539 0.0
C518 C 0.06609 0.72017 0.37781 0.0
C519 C 0.00494 0.68893 0.31623 0.0
C520 C 0.01962 0.72117 0.30203 0.0
C521 C 0.05444 0.75393 0.32676 0.0
C522 C 0.07717 0.75357 0.36454 0.0
C523 C -0.00105 0.72005 0.26106 0.0
C524 C 0.04983 0.72158 0.23311 0.0
C525 C 0.92973 0.71449 0.24894 0.0
C526 C 0.87427 0.7145 0.27811 0.0
C527 C 0.86563 0.74702 0.31262 0.0
C528 C 0.81717 0.74566 0.34169 0.0
C529 C 0.77668 0.71204 0.33646 0.0
C530 C 0.78415 0.67986 0.30197 0.0
C531 C 0.83253 0.68108 0.27277 0.0
H532 H 0.73953 0.71093 0.35913 0.0
H533 H 0.234 0.71961 0.08798 0.0
H534 H 0.95508 0.21576 0.37606 0.0
H535 H 0.01545 0.22926 0.31994 0.0
H536 H 0.84338 0.29991 0.3027 0.0
H537 H 0.783 0.28602 0.35848 0.0
H538 H 0.86472 0.23319 0.24027 0.0
H539 H -0.00138 0.34166 0.31902 0.0
H540 H 0.07533 0.37582 0.37436 0.0
H541 H 0.23258 0.28865 0.32779 0.0
H542 H 0.15659 0.25373 0.27231 0.0
H543 H 0.00125 0.28804 0.0745 0.0
H544 H 0.95316 0.28605 0.13858 0.0
H545 H 0.10152 0.19646 0.14323 0.0
H546 H 0.14793 0.19728 0.07827 0.0
H547 H 0.09769 0.27462 0.21244 0.0
H548 H 0.96342 0.16371 0.13836 0.0
H549 H 0.89122 0.13007 0.08058 0.0
H550 H 0.73814 0.22151 0.11905 0.0
H551 H 0.81014 0.25605 0.17678 0.0
C552 C 0.93172 0.23543 0.36117 0.0
C553 C 0.86473 0.24966 0.37079 0.0
C554 C 0.96615 0.24331 0.32936 0.0
C555 C 0.93341 0.26525 0.30705 0.0
C556 C 0.86923 0.28284 0.31956 0.0
C557 C 0.83487 0.27491 0.35124 0.0
C558 C 0.9582 0.26216 0.2664 0.0
C559 C 0.91525 0.24295 0.23434 0.0
C560 C 0.02508 0.27349 0.25875 0.0
C561 C 0.07153 0.29481 0.29168 0.0
C562 C 0.04937 0.32959 0.3207 0.0
C563 C 0.0928 0.34915 0.35206 0.0
C564 C 0.15869 0.33433 0.35467 0.0
C565 C 0.18148 0.30007 0.32575 0.0
C566 C 0.1383 0.28043 0.29428 0.0
C567 C 0.02062 0.26628 0.08809 0.0
C568 C 0.07738 0.24248 0.0716 0.0
C569 C -0.00556 0.26583 0.12499 0.0
C570 C 0.02552 0.24199 0.14579 0.0
C571 C 0.07797 0.21547 0.12764 0.0
C572 C 0.10306 0.21521 0.09021 0.0
C573 C 0.00386 0.24597 0.18704 0.0
C574 C 0.04726 0.26511 0.21885 0.0
C575 C 0.93771 0.23435 0.19478 0.0
C576 C 0.89222 0.21253 0.16173 0.0
C577 C 0.91436 0.17665 0.13446 0.0
C578 C 0.87357 0.15745 0.1017 0.0
C579 C 0.81017 0.17368 0.09612 0.0
C580 C 0.78727 0.20899 0.12345 0.0
C581 C 0.82799 0.22836 0.15624 0.0
H582 H 0.77877 0.15887 0.07063 0.0
H583 H 0.19214 0.34944 0.37904 0.0
H584 H -0.01287 0.29431 0.5742 0.0
H585 H 0.02849 0.29645 0.6409 0.0
H586 H 0.86957 0.21536 0.65061 0.0
H587 H 0.8288 0.21234 0.58373 0.0
H588 H 0.87797 0.28797 0.71787 0.0
H589 H 0.01209 0.17859 0.64144 0.0
H590 H 0.08616 0.14335 0.58475 0.0
H591 H 0.24314 0.2306 0.62615 0.0
H592 H 0.16931 0.2668 0.68282 0.0
H593 H 0.01477 0.20776 0.86669 0.0
H594 H 0.95803 0.22903 0.81407 0.0
H595 H 0.1244 0.30941 0.81529 0.0
H596 H 0.18015 0.28898 0.86896 0.0
H597 H 0.11078 0.24403 0.74449 0.0
H598 H 0.97167 0.34913 0.82789 0.0
H599 H 0.89398 0.37741 0.8851 0.0
H600 H 0.74268 0.28981 0.83212 0.0
H601 H 0.81964 0.26087 0.77462 0.0
C602 C 0.96249 0.27601 0.59008 0.0
C603 C 0.90515 0.25308 0.5738 0.0
C604 C 0.98545 0.27766 0.62824 0.0
C605 C 0.95092 0.25671 0.65068 0.0
C606 C 0.89598 0.23214 0.63376 0.0
C607 C 0.87372 0.22991 0.5953 0.0
C608 C 0.97303 0.26039 0.6918 0.0
C609 C 0.92866 0.27824 0.72387 0.0
C610 C 0.03921 0.24793 0.69922 0.0
C611 C 0.0849 0.22566 0.66608 0.0
C612 C 0.06224 0.19042 0.63831 0.0
C613 C 0.10417 0.17025 0.6062 0.0
C614 C 0.16924 0.18481 0.60176 0.0
C615 C 0.19265 0.21942 0.6296 0.0
C616 C 0.1508 0.23977 0.66175 0.0
C617 C 0.03741 0.23121 0.85684 0.0
C618 C 0.10162 0.24657 0.8711 0.0
C619 C 0.00502 0.24348 0.82703 0.0
C620 C 0.03757 0.27045 0.81071 0.0
C621 C 0.09864 0.28864 0.82774 0.0
C622 C 0.13029 0.27701 0.85824 0.0
C623 C 0.01631 0.27216 0.77091 0.0
C624 C 0.06065 0.25473 0.73875 0.0
C625 C 0.94962 0.2842 0.7636 0.0
C626 C 0.90161 0.30271 0.79702 0.0
C627 C 0.92184 0.33587 0.82844 0.0
C628 C 0.87793 0.35204 0.86091 0.0
C629 C 0.8135 0.33536 0.86229 0.0
C630 C 0.79259 0.30272 0.83099 0.0
C631 C 0.83625 0.28651 0.79836 0.0
H632 H 0.77976 0.34775 0.88758 0.0
H633 H 0.20159 0.16922 0.57681 0.0
H634 H 0.21485 0.72653 0.61581 0.0
H635 H 0.16227 0.70771 0.6702 0.0
H636 H 0.96501 0.70044 0.61216 0.0
H637 H 0.01846 0.72093 0.55764 0.0
H638 H 0.96019 0.75114 0.68291 0.0
H639 H 0.04574 0.61647 0.63685 0.0
H640 H 0.13132 0.56293 0.61242 0.0
H641 H 0.25549 0.6131 0.71629 0.0
H642 H 0.17081 0.66692 0.74125 0.0
H643 H 0.78877 0.68213 0.82819 0.0
H644 H 0.84272 0.69156 0.76858 0.0
H645 H 0.02986 0.72789 0.83489 0.0
H646 H 0.97452 0.71968 0.89548 0.0
H647 H 0.04038 0.66371 0.76162 0.0
H648 H 0.95186 0.79419 0.81062 0.0
H649 H 0.8685 0.84848 0.83651 0.0
H650 H 0.75243 0.80868 0.72791 0.0
H651 H 0.83396 0.75347 0.70163 0.0
C652 C 0.16044 0.72025 0.61437 0.0
C653 C 0.11997 0.7264 0.58364 0.0
C654 C 0.13054 0.70872 0.64512 0.0
C655 C 0.05956 0.70277 0.64545 0.0
C656 C 0.01994 0.7051 0.61252 0.0
C657 C 0.05019 0.71678 0.58152 0.0
C658 C 0.0263 0.70208 0.68326 0.0
C659 C 0.97621 0.73118 0.69959 0.0
C660 C 0.05049 0.67777 0.70613 0.0
C661 C 0.1022 0.64589 0.69068 0.0
C662 C 0.09159 0.61625 0.65427 0.0
C663 C 0.13983 0.58577 0.64042 0.0
C664 C 0.19888 0.58466 0.66273 0.0
C665 C 0.20976 0.61397 0.69901 0.0
C666 C 0.16157 0.64439 0.71307 0.0
C667 C 0.84142 0.69223 0.82994 0.0
C668 C 0.87842 0.69977 0.86576 0.0
C669 C 0.87171 0.69803 0.79618 0.0
C670 C 0.93969 0.71086 0.79772 0.0
C671 C 0.97697 0.71835 0.83355 0.0
C672 C 0.94595 0.71335 0.86777 0.0
C673 C 0.97326 0.71186 0.76043 0.0
C674 C 0.02375 0.68318 0.74452 0.0
C675 C 0.94942 0.73661 0.73804 0.0
C676 C 0.89867 0.76909 0.75438 0.0
C677 C 0.90792 0.79647 0.79248 0.0
C678 C 0.86106 0.82756 0.80718 0.0
C679 C 0.80498 0.83188 0.78394 0.0
C680 C 0.79569 0.80516 0.74593 0.0
C681 C 0.8422 0.77393 0.73115 0.0
H682 H 0.76886 0.856 0.79532 0.0
H683 H 0.23615 0.56106 0.65193 0.0
loop_
_geom_bond_atom_site_label_1
_geom_bond_atom_site_label_2
_geom_bond_distance
_geom_bond_site_symmetry_2
_ccdc_geom_bond_type
O0 Mg1 1.990 . S
O0 C14 1.253 . S
Mg1 O0 1.990 . S
Mg1 O4 2.180 . S
Mg1 O5 2.117 . S
Mg1 O19 2.030 . S
O2 Mg3 2.084 . S
O2 C14 1.260 . S
Mg3 O2 2.084 . S
Mg3 O4 2.101 . S
Mg3 O6 2.067 1_554 S
Mg3 O7 2.060 1_554 S
Mg3 O9 2.097 1_554 S
Mg3 O20 2.090 . S
O4 Mg1 2.180 . S
O4 Mg3 2.101 . S
O4 C15 1.279 . S
O5 Mg1 2.117 . S
O5 C15 1.250 . S
O6 Mg3 2.067 1_556 S
O6 C16 1.264 . S
O7 Mg3 2.060 1_556 S
O7 C17 1.260 . S
Mg8 O9 2.180 . S
Mg8 O10 2.030 . S
Mg8 O11 1.990 . S
Mg8 O12 2.117 . S
O9 Mg3 2.097 1_556 S
O9 Mg8 2.180 . S
O9 C18 1.279 . S
O10 Mg8 2.030 . S
O10 C16 1.248 . S
O11 Mg8 1.990 . S
O11 C17 1.253 . S
O12 Mg8 2.117 . S
O12 C18 1.250 . S
C13 O19 1.248 . S
C13 O20 1.264 . S
C14 O0 1.253 . S
C14 O2 1.260 . S
C15 O4 1.279 . S
C15 O5 1.250 . S
C16 O6 1.264 . S
C16 O10 1.248 . S
C17 O7 1.260 . S
C17 O11 1.253 . S
C18 O9 1.279 . S
C18 O12 1.250 . S
O19 Mg1 2.030 . S
O19 C13 1.248 . S
O20 Mg3 2.090 . S
O20 C13 1.264 . S
O21 Mg22 1.990 . S
O21 C35 1.253 . S
Mg22 O21 1.990 . S
Mg22 O25 2.180 . S
Mg22 O26 2.117 . S
Mg22 O40 2.030 . S
O23 Mg24 2.084 . S
O23 C35 1.260 . S
Mg24 O23 2.084 . S
Mg24 O25 2.101 . S
Mg24 O27 2.067 1_554 S
Mg24 O28 2.060 1_554 S
Mg24 O30 2.097 1_554 S
Mg24 O41 2.091 . S
O25 Mg22 2.180 . S
O25 Mg24 2.101 . S
O25 C36 1.279 . S
O26 Mg22 2.117 . S
O26 C36 1.250 . S
O27 Mg24 2.067 1_556 S
O27 C37 1.264 . S
O28 Mg24 2.060 1_556 S
O28 C38 1.260 . S
Mg29 O30 2.180 . S
Mg29 O31 2.030 . S
Mg29 O32 1.990 . S
Mg29 O33 2.117 . S
O30 Mg24 2.097 1_556 S
O30 Mg29 2.180 . S
O30 C39 1.279 . S
O31 Mg29 2.030 . S
O31 C37 1.248 . S
O32 Mg29 1.990 . S
O32 C38 1.253 . S
O33 Mg29 2.117 . S
O33 C39 1.250 . S
C34 O40 1.248 . S
C34 O41 1.264 . S
C35 O21 1.253 . S
C35 O23 1.260 . S
C36 O25 1.279 . S
C36 O26 1.250 . S
C37 O27 1.264 . S
C37 O31 1.248 . S
C38 O28 1.260 . S
C38 O32 1.253 . S
C39 O30 1.279 . S
C39 O33 1.250 . S
O40 Mg22 2.030 . S
O40 C34 1.248 . S
O41 Mg24 2.091 . S
O41 C34 1.264 . S
O42 Mg43 1.990 . S
O42 C56 1.253 . S
Mg43 O42 1.990 . S
Mg43 O46 2.180 . S
Mg43 O47 2.117 . S
Mg43 O61 2.030 . S
O44 Mg45 2.072 . S
O44 C56 1.260 . S
Mg45 O44 2.072 . S
Mg45 O46 2.099 . S
Mg45 O48 2.079 . S
Mg45 O49 2.072 . S
Mg45 O51 2.099 . S
Mg45 O62 2.079 . S
O46 Mg43 2.180 . S
O46 Mg45 2.099 . S
O46 C57 1.279 . S
O47 Mg43 2.117 . S
O47 C57 1.250 . S
O48 Mg45 2.079 . S
O48 C58 1.264 . S
O49 Mg45 2.072 . S
O49 C59 1.260 . S
Mg50 O51 2.180 . S
Mg50 O52 2.030 . S
Mg50 O53 1.990 . S
Mg50 O54 2.117 . S
O51 Mg45 2.099 . S
O51 Mg50 2.180 . S
O51 C60 1.279 . S
O52 Mg50 2.030 . S
O52 C58 1.248 . S
O53 Mg50 1.990 . S
O53 C59 1.253 . S
O54 Mg50 2.117 . S
O54 C60 1.250 . S
C55 O61 1.248 . S
C55 O62 1.264 . S
C56 O42 1.253 . S
C56 O44 1.260 . S
C57 O46 1.279 . S
C57 O47 1.250 . S
C58 O48 1.264 . S
C58 O52 1.248 . S
C59 O49 1.260 . S
C59 O53 1.253 . S
C60 O51 1.279 . S
C60 O54 1.250 . S
O61 Mg43 2.030 . S
O61 C55 1.248 . S
O62 Mg45 2.079 . S
O62 C55 1.264 . S
O63 Mg64 1.990 . S
O63 C77 1.253 . S
Mg64 O63 1.990 . S
Mg64 O67 2.180 . S
Mg64 O68 2.117 . S
Mg64 O82 2.030 . S
O65 Mg66 2.072 . S
O65 C77 1.260 . S
Mg66 O65 2.072 . S
Mg66 O67 2.099 . S
Mg66 O69 2.079 . S
Mg66 O70 2.072 . S
Mg66 O72 2.099 . S
Mg66 O83 2.079 . S
O67 Mg64 2.180 . S
O67 Mg66 2.099 . S
O67 C78 1.279 . S
O68 Mg64 2.117 . S
O68 C78 1.250 . S
O69 Mg66 2.079 . S
O69 C79 1.264 . S
O70 Mg66 2.072 . S
O70 C80 1.260 . S
Mg71 O72 2.180 . S
Mg71 O73 2.030 . S
Mg71 O74 1.990 . S
Mg71 O75 2.117 . S
O72 Mg66 2.099 . S
O72 Mg71 2.180 . S
O72 C81 1.279 . S
O73 Mg71 2.030 . S
O73 C79 1.248 . S
O74 Mg71 1.990 . S
O74 C80 1.253 . S
O75 Mg71 2.117 . S
O75 C81 1.250 . S
C76 O82 1.248 . S
C76 O83 1.264 . S
C77 O63 1.253 . S
C77 O65 1.260 . S
C78 O67 1.279 . S
C78 O68 1.250 . S
C79 O69 1.264 . S
C79 O73 1.248 . S
C80 O70 1.260 . S
C80 O74 1.253 . S
C81 O72 1.279 . S
C81 O75 1.250 . S
O82 Mg64 2.030 . S
O82 C76 1.248 . S
O83 Mg66 2.079 . S
O83 C76 1.264 . S
H84 C102 0.951 . S
H85 C104 0.951 . S
H86 C106 0.950 . S
H87 C107 0.950 . S
H88 C109 0.950 . S
H89 C112 0.950 . S
H90 C113 0.950 . S
H91 C115 0.950 . S
H92 C116 0.950 . S
H93 C117 0.951 . S
H94 C119 0.951 . S
H95 C121 0.950 . S
H96 C122 0.950 . S
H97 C124 0.950 . S
H98 C127 0.950 . S
H99 C128 0.950 . S
H100 C130 0.950 . S
H101 C131 0.950 . S
C102 H84 0.951 . S
C102 C103 1.358 1_556 S
C102 C104 1.388 . S
C103 C102 1.358 1_554 S
C103 C107 1.394 . S
C104 H85 0.951 . S
C104 C102 1.388 . S
C104 C105 1.347 1_556 S
C105 C104 1.347 1_554 S
C105 C106 1.428 . S
C105 C108 1.503 . S
C106 H86 0.950 . S
C106 C105 1.428 . S
C106 C107 1.374 . S
C107 H87 0.950 . S
C107 C103 1.394 . S
C107 C106 1.374 . S
C108 C105 1.503 . S
C108 C109 1.373 . S
C108 C110 1.389 1_554 S
C109 H88 0.950 . S
C109 C108 1.373 . S
C109 C125 1.377 . S
C110 C108 1.389 1_556 S
C110 C111 1.524 . S
C110 C124 1.377 . S
C111 C110 1.524 . S
C111 C112 1.397 . S
C111 C116 1.363 . S
C112 H89 0.950 . S
C112 C111 1.397 . S
C112 C113 1.334 . S
C113 H90 0.950 . S
C113 C112 1.334 . S
C113 C114 1.287 . S
C114 C113 1.287 . S
C114 C115 1.524 . S
C114 H133 0.913 . S
C115 H91 0.950 . S
C115 C114 1.524 . S
C115 C116 1.415 . S
C116 H92 0.950 . S
C116 C111 1.363 . S
C116 C115 1.415 . S
C117 H93 0.951 . S
C117 C118 1.366 . S
C117 C119 1.388 . S
C118 C117 1.366 . S
C118 C122 1.385 1_554 S
C119 H94 0.951 . S
C119 C117 1.388 . S
C119 C120 1.366 . S
C120 C119 1.366 . S
C120 C121 1.414 1_554 S
C120 C123 1.502 . S
C121 H95 0.950 . S
C121 C120 1.414 1_556 S
C121 C122 1.374 . S
C122 H96 0.950 . S
C122 C118 1.385 1_556 S
C122 C121 1.374 . S
C123 C120 1.502 . S
C123 C124 1.360 1_554 S
C123 C125 1.400 . S
C124 H97 0.950 . S
C124 C110 1.377 . S
C124 C123 1.360 1_556 S
C125 C109 1.377 . S
C125 C123 1.400 . S
C125 C126 1.524 . S
C126 C125 1.524 . S
C126 C127 1.397 . S
C126 C131 1.363 . S
C127 H98 0.950 . S
C127 C126 1.397 . S
C127 C128 1.334 . S
C128 H99 0.950 . S
C128 C127 1.334 . S
C128 C129 1.287 . S
C129 C128 1.287 . S
C129 C130 1.524 . S
C129 H132 0.999 . S
C130 H100 0.950 . S
C130 C129 1.524 . S
C130 C131 1.415 . S
C131 H101 0.950 . S
C131 C126 1.363 . S
C131 C130 1.415 . S
H132 C129 0.999 . S
H133 C114 0.913 . S
H134 C152 0.951 . S
H135 C154 0.951 . S
H136 C156 0.950 . S
H137 C157 0.950 . S
H138 C159 0.950 . S
H139 C162 0.950 . S
H140 C163 0.950 . S
H141 C165 0.950 . S
H142 C166 0.950 . S
H143 C167 0.951 . S
H144 C169 0.951 . S
H145 C171 0.950 . S
H146 C172 0.950 . S
H147 C174 0.950 . S
H148 C177 0.950 . S
H149 C178 0.950 . S
H150 C180 0.950 . S
H151 C181 0.950 . S
C152 H134 0.951 . S
C152 C153 1.366 . S
C152 C154 1.388 . S
C153 C152 1.366 . S
C153 C157 1.385 . S
C154 H135 0.951 . S
C154 C152 1.388 . S
C154 C155 1.366 . S
C155 C154 1.366 . S
C155 C156 1.414 . S
C155 C158 1.499 . S
C156 H136 0.950 . S
C156 C155 1.414 . S
C156 C157 1.374 . S
C157 H137 0.950 . S
C157 C153 1.385 . S
C157 C156 1.374 . S
C158 C155 1.499 . S
C158 C159 1.373 . S
C158 C160 1.389 . S
C159 H138 0.950 . S
C159 C158 1.373 . S
C159 C175 1.377 . S
C160 C158 1.389 . S
C160 C161 1.524 . S
C160 C174 1.377 . S
C161 C160 1.524 . S
C161 C162 1.397 . S
C161 C166 1.363 . S
C162 H139 0.950 . S
C162 C161 1.397 . S
C162 C163 1.334 . S
C163 H140 0.950 . S
C163 C162 1.334 . S
C163 C164 1.287 . S
C164 C163 1.287 . S
C164 C165 1.524 . S
C164 H183 0.913 . S
C165 H141 0.950 . S
C165 C164 1.524 . S
C165 C166 1.415 . S
C166 H142 0.950 . S
C166 C161 1.363 . S
C166 C165 1.415 . S
C167 H143 0.951 . S
C167 C168 1.366 . S
C167 C169 1.388 . S
C168 C167 1.366 . S
C168 C172 1.385 . S
C169 H144 0.951 . S
C169 C167 1.388 . S
C169 C170 1.366 . S
C170 C169 1.366 . S
C170 C171 1.414 . S
C170 C173 1.499 . S
C171 H145 0.950 . S
C171 C170 1.414 . S
C171 C172 1.374 . S
C172 H146 0.950 . S
C172 C168 1.385 . S
C172 C171 1.374 . S
C173 C170 1.499 . S
C173 C174 1.373 . S
C173 C175 1.389 . S
C174 H147 0.950 . S
C174 C160 1.377 . S
C174 C173 1.373 . S
C175 C159 1.377 . S
C175 C173 1.389 . S
C175 C176 1.524 . S
C176 C175 1.524 . S
C176 C177 1.397 . S
C176 C181 1.363 . S
C177 H148 0.950 . S
C177 C176 1.397 . S
C177 C178 1.334 . S
C178 H149 0.950 . S
C178 C177 1.334 . S
C178 C179 1.287 . S
C179 C178 1.287 . S
C179 C180 1.524 . S
C179 H182 0.999 . S
C180 H150 0.950 . S
C180 C179 1.524 . S
C180 C181 1.415 . S
C181 H151 0.950 . S
C181 C176 1.363 . S
C181 C180 1.415 . S
H182 C179 0.999 . S
H183 C164 0.913 . S
H184 C202 0.951 . S
H185 C204 0.951 . S
H186 C206 0.950 1_655 S
H187 C207 0.950 . S
H188 C209 0.950 . S
H189 C212 0.950 . S
H190 C213 0.950 1_545 S
H191 C215 0.950 . S
H192 C216 0.950 . S
H193 C217 0.951 . S
H194 C219 0.951 . S
H195 C221 0.950 . S
H196 C222 0.950 . S
H197 C224 0.950 . S
H198 C227 0.950 1_565 S
H199 C228 0.950 1_565 S
H200 C230 0.950 . S
H201 C231 0.950 . S
C202 H184 0.951 . S
C202 C203 1.372 . S
C202 C204 1.388 . S
C203 C202 1.372 . S
C203 C207 1.381 1_554 S
C204 H185 0.951 . S
C204 C202 1.388 . S
C204 C205 1.366 1_554 S
C205 C204 1.366 1_556 S
C205 C206 1.414 . S
C205 C208 1.499 . S
C206 H186 0.950 1_455 S
C206 C205 1.414 . S
C206 C207 1.374 . S
C207 H187 0.950 . S
C207 C203 1.381 1_556 S
C207 C206 1.374 . S
C208 C205 1.499 . S
C208 C209 1.373 1_456 S
C208 C210 1.389 1_545 S
C209 H188 0.950 . S
C209 C208 1.373 1_654 S
C209 C225 1.377 . S
C210 C208 1.389 1_565 S
C210 C211 1.524 . S
C210 C224 1.377 . S
C211 C210 1.524 . S
C211 C212 1.397 1_565 S
C211 C216 1.363 . S
C212 H189 0.950 . S
C212 C211 1.397 1_545 S
C212 C213 1.334 1_545 S
C213 H190 0.950 1_565 S
C213 C212 1.334 1_565 S
C213 C214 1.287 . S
C214 C213 1.287 . S
C214 C215 1.524 . S
C214 H233 0.913 . S
C215 H191 0.950 . S
C215 C214 1.524 . S
C215 C216 1.415 . S
C216 H192 0.950 . S
C216 C211 1.363 . S
C216 C215 1.415 . S
C217 H193 0.951 . S
C217 C218 1.366 1_556 S
C217 C219 1.388 . S
C218 C217 1.366 1_554 S
C218 C222 1.385 . S
C219 H194 0.951 . S
C219 C217 1.388 . S
C219 C220 1.366 1_556 S
C220 C219 1.366 1_554 S
C220 C221 1.414 . S
C220 C223 1.499 . S
C221 H195 0.950 . S
C221 C220 1.414 . S
C221 C222 1.374 . S
C222 H196 0.950 . S
C222 C218 1.385 . S
C222 C221 1.374 . S
C223 C220 1.499 . S
C223 C224 1.373 1_654 S
C223 C225 1.389 1_565 S
C224 H197 0.950 . S
C224 C210 1.377 . S
C224 C223 1.373 1_456 S
C225 C209 1.377 . S
C225 C223 1.389 1_545 S
C225 C226 1.524 . S
C226 C225 1.524 . S
C226 C227 1.397 . S
C226 C231 1.363 . S
C227 H198 0.950 1_545 S
C227 C226 1.397 . S
C227 C228 1.334 . S
C228 H199 0.950 1_545 S
C228 C227 1.334 . S
C228 C229 1.287 . S
C229 C228 1.287 . S
C229 C230 1.524 . S
C229 H232 0.999 . S
C230 H200 0.950 . S
C230 C229 1.524 . S
C230 C231 1.415 . S
C231 H201 0.950 . S
C231 C226 1.363 . S
C231 C230 1.415 . S
H232 C229 0.999 . S
H233 C214 0.913 . S
H234 C252 0.951 . S
H235 C254 0.951 . S
H236 C256 0.950 . S
H237 C257 0.950 . S
H238 C259 0.950 . S
H239 C262 0.950 . S
H240 C263 0.950 . S
H241 C265 0.950 . S
H242 C266 0.950 1_565 S
H243 C267 0.951 . S
H244 C269 0.951 . S
H245 C271 0.950 1_655 S
H246 C272 0.950 . S
H247 C274 0.950 . S
H248 C277 0.950 . S
H249 C278 0.950 . S
H250 C280 0.950 . S
H251 C281 0.950 1_545 S
C252 H234 0.951 . S
C252 C253 1.366 . S
C252 C254 1.388 . S
C253 C252 1.366 . S
C253 C257 1.385 . S
C254 H235 0.951 . S
C254 C252 1.388 . S
C254 C255 1.366 . S
C255 C254 1.366 . S
C255 C256 1.414 . S
C255 C258 1.499 . S
C256 H236 0.950 . S
C256 C255 1.414 . S
C256 C257 1.374 . S
C257 H237 0.950 . S
C257 C253 1.385 . S
C257 C256 1.374 . S
C258 C255 1.499 . S
C258 C259 1.373 . S
C258 C260 1.389 . S
C259 H238 0.950 . S
C259 C258 1.373 . S
C259 C275 1.377 1_645 S
C260 C258 1.389 . S
C260 C261 1.524 . S
C260 C274 1.377 1_545 S
C261 C260 1.524 . S
C261 C262 1.397 . S
C261 C266 1.363 . S
C262 H239 0.950 . S
C262 C261 1.397 . S
C262 C263 1.334 . S
C263 H240 0.950 . S
C263 C262 1.334 . S
C263 C264 1.287 . S
C264 C263 1.287 . S
C264 C265 1.524 . S
C264 H283 0.913 . S
C265 H241 0.950 . S
C265 C264 1.524 . S
C265 C266 1.415 . S
C266 H242 0.950 1_545 S
C266 C261 1.363 . S
C266 C265 1.415 . S
C267 H243 0.951 . S
C267 C268 1.366 . S
C267 C269 1.388 . S
C268 C267 1.366 . S
C268 C272 1.385 . S
C269 H244 0.951 . S
C269 C267 1.388 . S
C269 C270 1.366 . S
C270 C269 1.366 . S
C270 C271 1.414 . S
C270 C273 1.499 . S
C271 H245 0.950 1_455 S
C271 C270 1.414 . S
C271 C272 1.374 . S
C272 H246 0.950 . S
C272 C268 1.385 . S
C272 C271 1.374 . S
C273 C270 1.499 . S
C273 C274 1.373 1_455 S
C273 C275 1.389 . S
C274 H247 0.950 . S
C274 C260 1.377 1_565 S
C274 C273 1.373 1_655 S
C275 C259 1.377 1_465 S
C275 C273 1.389 . S
C275 C276 1.524 . S
C276 C275 1.524 . S
C276 C277 1.397 . S
C276 C281 1.363 . S
C277 H248 0.950 . S
C277 C276 1.397 . S
C277 C278 1.334 . S
C278 H249 0.950 . S
C278 C277 1.334 . S
C278 C279 1.287 . S
C279 C278 1.287 . S
C279 C280 1.524 . S
C279 H282 0.999 . S
C280 H250 0.950 . S
C280 C279 1.524 . S
C280 C281 1.415 . S
C281 H251 0.950 1_565 S
C281 C276 1.363 . S
C281 C280 1.415 . S
H282 C279 0.999 . S
H283 C264 0.913 . S
H284 C302 0.951 . S
H285 C304 0.951 . S
H286 C306 0.950 . S
H287 C307 0.950 . S
H288 C309 0.950 . S
H289 C312 0.950 . S
H290 C313 0.950 . S
H291 C315 0.950 . S
H292 C316 0.950 . S
H293 C317 0.951 . S
H294 C319 0.951 . S
H295 C321 0.950 . S
H296 C322 0.950 . S
H297 C324 0.950 . S
H298 C327 0.950 . S
H299 C328 0.950 . S
H300 C330 0.950 . S
H301 C331 0.950 . S
C302 H284 0.951 . S
C302 C303 1.366 . S
C302 C304 1.388 . S
C303 C302 1.366 . S
C303 C307 1.385 . S
C304 H285 0.951 . S
C304 C302 1.388 . S
C304 C305 1.366 . S
C305 C304 1.366 . S
C305 C306 1.414 . S
C305 C308 1.499 . S
C306 H286 0.950 . S
C306 C305 1.414 . S
C306 C307 1.374 . S
C307 H287 0.950 . S
C307 C303 1.385 . S
C307 C306 1.374 . S
C308 C305 1.499 . S
C308 C309 1.373 . S
C308 C310 1.389 . S
C309 H288 0.950 . S
C309 C308 1.373 . S
C309 C325 1.377 . S
C310 C308 1.389 . S
C310 C311 1.524 . S
C310 C324 1.377 . S
C311 C310 1.524 . S
C311 C312 1.397 . S
C311 C316 1.363 . S
C312 H289 0.950 . S
C312 C311 1.397 . S
C312 C313 1.334 . S
C313 H290 0.950 . S
C313 C312 1.334 . S
C313 C314 1.287 . S
C314 C313 1.287 . S
C314 C315 1.524 . S
C314 H333 0.913 . S
C315 H291 0.950 . S
C315 C314 1.524 . S
C315 C316 1.415 . S
C316 H292 0.950 . S
C316 C311 1.363 . S
C316 C315 1.415 . S
C317 H293 0.951 . S
C317 C318 1.366 . S
C317 C319 1.388 . S
C318 C317 1.366 . S
C318 C322 1.385 . S
C319 H294 0.951 . S
C319 C317 1.388 . S
C319 C320 1.366 . S
C320 C319 1.366 . S
C320 C321 1.414 . S
C320 C323 1.499 . S
C321 H295 0.950 . S
C321 C320 1.414 . S
C321 C322 1.374 . S
C322 H296 0.950 . S
C322 C318 1.385 . S
C322 C321 1.374 . S
C323 C320 1.499 . S
C323 C324 1.373 . S
C323 C325 1.389 . S
C324 H297 0.950 . S
C324 C310 1.377 . S
C324 C323 1.373 . S
C325 C309 1.377 . S
C325 C323 1.389 . S
C325 C326 1.524 . S
C326 C325 1.524 . S
C326 C327 1.397 . S
C326 C331 1.363 . S
C327 H298 0.950 . S
C327 C326 1.397 . S
C327 C328 1.334 . S
C328 H299 0.950 . S
C328 C327 1.334 . S
C328 C329 1.287 . S
C329 C328 1.287 . S
C329 C330 1.524 . S
C329 H332 0.999 . S
C330 H300 0.950 . S
C330 C329 1.524 . S
C330 C331 1.415 . S
C331 H301 0.950 . S
C331 C326 1.363 . S
C331 C330 1.415 . S
H332 C329 0.999 . S
H333 C314 0.913 . S
H334 C352 0.951 . S
H335 C354 0.951 . S
H336 C356 0.950 . S
H337 C357 0.950 . S
H338 C359 0.950 . S
H339 C362 0.950 . S
H340 C363 0.950 . S
H341 C365 0.950 . S
H342 C366 0.950 . S
H343 C367 0.951 . S
H344 C369 0.951 . S
H345 C371 0.950 . S
H346 C372 0.950 . S
H347 C374 0.950 . S
H348 C377 0.950 . S
H349 C378 0.950 . S
H350 C380 0.950 . S
H351 C381 0.950 . S
C352 H334 0.951 . S
C352 C353 1.366 . S
C352 C354 1.388 . S
C353 C352 1.366 . S
C353 C357 1.385 . S
C354 H335 0.951 . S
C354 C352 1.388 . S
C354 C355 1.366 . S
C355 C354 1.366 . S
C355 C356 1.414 . S
C355 C358 1.499 . S
C356 H336 0.950 . S
C356 C355 1.414 . S
C356 C357 1.374 . S
C357 H337 0.950 . S
C357 C353 1.385 . S
C357 C356 1.374 . S
C358 C355 1.499 . S
C358 C359 1.373 . S
C358 C360 1.389 . S
C359 H338 0.950 . S
C359 C358 1.373 . S
C359 C375 1.377 . S
C360 C358 1.389 . S
C360 C361 1.524 . S
C360 C374 1.377 . S
C361 C360 1.524 . S
C361 C362 1.397 . S
C361 C366 1.363 . S
C362 H339 0.950 . S
C362 C361 1.397 . S
C362 C363 1.334 . S
C363 H340 0.950 . S
C363 C362 1.334 . S
C363 C364 1.287 . S
C364 C363 1.287 . S
C364 C365 1.524 . S
C364 H383 0.913 . S
C365 H341 0.950 . S
C365 C364 1.524 . S
C365 C366 1.415 . S
C366 H342 0.950 . S
C366 C361 1.363 . S
C366 C365 1.415 . S
C367 H343 0.951 . S
C367 C368 1.366 . S
C367 C369 1.388 . S
C368 C367 1.366 . S
C368 C372 1.385 . S
C369 H344 0.951 . S
C369 C367 1.388 . S
C369 C370 1.366 . S
C370 C369 1.366 . S
C370 C371 1.414 . S
C370 C373 1.499 . S
C371 H345 0.950 . S
C371 C370 1.414 . S
C371 C372 1.374 . S
C372 H346 0.950 . S
C372 C368 1.385 . S
C372 C371 1.374 . S
C373 C370 1.499 . S
C373 C374 1.373 . S
C373 C375 1.389 . S
C374 H347 0.950 . S
C374 C360 1.377 . S
C374 C373 1.373 . S
C375 C359 1.377 . S
C375 C373 1.389 . S
C375 C376 1.524 . S
C376 C375 1.524 . S
C376 C377 1.397 . S
C376 C381 1.363 . S
C377 H348 0.950 . S
C377 C376 1.397 . S
C377 C378 1.334 . S
C378 H349 0.950 . S
C378 C377 1.334 . S
C378 C379 1.287 . S
C379 C378 1.287 . S
C379 C380 1.524 . S
C379 H382 0.999 . S
C380 H350 0.950 . S
C380 C379 1.524 . S
C380 C381 1.415 . S
C381 H351 0.950 . S
C381 C376 1.363 . S
C381 C380 1.415 . S
H382 C379 0.999 . S
H383 C364 0.913 . S
H384 C402 0.951 . S
H385 C404 0.951 . S
H386 C406 0.950 . S
H387 C407 0.950 . S
H388 C409 0.950 . S
H389 C412 0.950 . S
H390 C413 0.950 . S
H391 C415 0.950 . S
H392 C416 0.950 . S
H393 C417 0.951 . S
H394 C419 0.951 . S
H395 C421 0.950 . S
H396 C422 0.950 . S
H397 C424 0.950 . S
H398 C427 0.950 . S
H399 C428 0.950 . S
H400 C430 0.950 . S
H401 C431 0.950 . S
C402 H384 0.951 . S
C402 C403 1.366 . S
C402 C404 1.388 . S
C403 C402 1.366 . S
C403 C407 1.385 . S
C404 H385 0.951 . S
C404 C402 1.388 . S
C404 C405 1.366 . S
C405 C404 1.366 . S
C405 C406 1.414 . S
C405 C408 1.499 . S
C406 H386 0.950 . S
C406 C405 1.414 . S
C406 C407 1.374 . S
C407 H387 0.950 . S
C407 C403 1.385 . S
C407 C406 1.374 . S
C408 C405 1.499 . S
C408 C409 1.373 . S
C408 C410 1.389 . S
C409 H388 0.950 . S
C409 C408 1.373 . S
C409 C425 1.377 . S
C410 C408 1.389 . S
C410 C411 1.524 . S
C410 C424 1.377 . S
C411 C410 1.524 . S
C411 C412 1.397 . S
C411 C416 1.363 . S
C412 H389 0.950 . S
C412 C411 1.397 . S
C412 C413 1.334 . S
C413 H390 0.950 . S
C413 C412 1.334 . S
C413 C414 1.287 . S
C414 C413 1.287 . S
C414 C415 1.524 . S
C414 H433 0.913 . S
C415 H391 0.950 . S
C415 C414 1.524 . S
C415 C416 1.415 . S
C416 H392 0.950 . S
C416 C411 1.363 . S
C416 C415 1.415 . S
C417 H393 0.951 . S
C417 C418 1.366 . S
C417 C419 1.388 . S
C418 C417 1.366 . S
C418 C422 1.385 . S
C419 H394 0.951 . S
C419 C417 1.388 . S
C419 C420 1.366 . S
C420 C419 1.366 . S
C420 C421 1.414 . S
C420 C423 1.499 . S
C421 H395 0.950 . S
C421 C420 1.414 . S
C421 C422 1.374 . S
C422 H396 0.950 . S
C422 C418 1.385 . S
C422 C421 1.374 . S
C423 C420 1.499 . S
C423 C424 1.373 . S
C423 C425 1.389 . S
C424 H397 0.950 . S
C424 C410 1.377 . S
C424 C423 1.373 . S
C425 C409 1.377 . S
C425 C423 1.389 . S
C425 C426 1.524 . S
C426 C425 1.524 . S
C426 C427 1.397 . S
C426 C431 1.363 . S
C427 H398 0.950 . S
C427 C426 1.397 . S
C427 C428 1.334 . S
C428 H399 0.950 . S
C428 C427 1.334 . S
C428 C429 1.287 . S
C429 C428 1.287 . S
C429 C430 1.524 . S
C429 H432 0.999 . S
C430 H400 0.950 . S
C430 C429 1.524 . S
C430 C431 1.415 . S
C431 H401 0.950 . S
C431 C426 1.363 . S
C431 C430 1.415 . S
H432 C429 0.999 . S
H433 C414 0.913 . S
H434 C452 0.951 . S
H435 C454 0.951 . S
H436 C456 0.950 . S
H437 C457 0.950 . S
H438 C459 0.950 . S
H439 C462 0.950 . S
H440 C463 0.950 . S
H441 C465 0.950 . S
H442 C466 0.950 . S
H443 C467 0.951 . S
H444 C469 0.951 . S
H445 C471 0.950 . S
H446 C472 0.950 . S
H447 C474 0.950 . S
H448 C477 0.950 . S
H449 C478 0.950 . S
H450 C480 0.950 . S
H451 C481 0.950 . S
C452 H434 0.951 . S
C452 C453 1.366 . S
C452 C454 1.388 . S
C453 C452 1.366 . S
C453 C457 1.385 . S
C454 H435 0.951 . S
C454 C452 1.388 . S
C454 C455 1.366 . S
C455 C454 1.366 . S
C455 C456 1.414 . S
C455 C458 1.499 . S
C456 H436 0.950 . S
C456 C455 1.414 . S
C456 C457 1.374 . S
C457 H437 0.950 . S
C457 C453 1.385 . S
C457 C456 1.374 . S
C458 C455 1.499 . S
C458 C459 1.373 . S
C458 C460 1.389 . S
C459 H438 0.950 . S
C459 C458 1.373 . S
C459 C475 1.377 . S
C460 C458 1.389 . S
C460 C461 1.524 . S
C460 C474 1.377 . S
C461 C460 1.524 . S
C461 C462 1.397 . S
C461 C466 1.363 . S
C462 H439 0.950 . S
C462 C461 1.397 . S
C462 C463 1.334 . S
C463 H440 0.950 . S
C463 C462 1.334 . S
C463 C464 1.287 . S
C464 C463 1.287 . S
C464 C465 1.524 . S
C464 H483 0.913 . S
C465 H441 0.950 . S
C465 C464 1.524 . S
C465 C466 1.415 . S
C466 H442 0.950 . S
C466 C461 1.363 . S
C466 C465 1.415 . S
C467 H443 0.951 . S
C467 C468 1.366 . S
C467 C469 1.388 . S
C468 C467 1.366 . S
C468 C472 1.385 . S
C469 H444 0.951 . S
C469 C467 1.388 . S
C469 C470 1.366 . S
C470 C469 1.366 . S
C470 C471 1.414 . S
C470 C473 1.499 . S
C471 H445 0.950 . S
C471 C470 1.414 . S
C471 C472 1.374 . S
C472 H446 0.950 . S
C472 C468 1.385 . S
C472 C471 1.374 . S
C473 C470 1.499 . S
C473 C474 1.373 . S
C473 C475 1.389 . S
C474 H447 0.950 . S
C474 C460 1.377 . S
C474 C473 1.373 . S
C475 C459 1.377 . S
C475 C473 1.389 . S
C475 C476 1.524 . S
C476 C475 1.524 . S
C476 C477 1.397 . S
C476 C481 1.363 . S
C477 H448 0.950 . S
C477 C476 1.397 . S
C477 C478 1.334 . S
C478 H449 0.950 . S
C478 C477 1.334 . S
C478 C479 1.287 . S
C479 C478 1.287 . S
C479 C480 1.524 . S
C479 H482 0.999 . S
C480 H450 0.950 . S
C480 C479 1.524 . S
C480 C481 1.415 . S
C481 H451 0.950 . S
C481 C476 1.363 . S
C481 C480 1.415 . S
H482 C479 0.999 . S
H483 C464 0.913 . S
H484 C502 0.951 . S
H485 C504 0.951 . S
H486 C506 0.950 . S
H487 C507 0.950 . S
H488 C509 0.950 . S
H489 C512 0.950 . S
H490 C513 0.950 . S
H491 C515 0.950 . S
H492 C516 0.950 . S
H493 C517 0.951 . S
H494 C519 0.951 . S
H495 C521 0.950 . S
H496 C522 0.950 . S
H497 C524 0.950 . S
H498 C527 0.950 . S
H499 C528 0.950 . S
H500 C530 0.950 . S
H501 C531 0.950 . S
C502 H484 0.951 . S
C502 C503 1.366 . S
C502 C504 1.388 . S
C503 C502 1.366 . S
C503 C507 1.385 . S
C504 H485 0.951 . S
C504 C502 1.388 . S
C504 C505 1.366 . S
C505 C504 1.366 . S
C505 C506 1.414 . S
C505 C508 1.499 . S
C506 H486 0.950 . S
C506 C505 1.414 . S
C506 C507 1.374 . S
C507 H487 0.950 . S
C507 C503 1.385 . S
C507 C506 1.374 . S
C508 C505 1.499 . S
C508 C509 1.373 . S
C508 C510 1.389 1_655 S
C509 H488 0.950 . S
C509 C508 1.373 . S
C509 C525 1.377 . S
C510 C508 1.389 1_455 S
C510 C511 1.524 . S
C510 C524 1.377 . S
C511 C510 1.524 . S
C511 C512 1.397 . S
C511 C516 1.363 . S
C512 H489 0.950 . S
C512 C511 1.397 . S
C512 C513 1.334 . S
C513 H490 0.950 . S
C513 C512 1.334 . S
C513 C514 1.287 . S
C514 C513 1.287 . S
C514 C515 1.524 . S
C514 H533 0.913 . S
C515 H491 0.950 . S
C515 C514 1.524 . S
C515 C516 1.415 . S
C516 H492 0.950 . S
C516 C511 1.363 . S
C516 C515 1.415 . S
C517 H493 0.951 . S
C517 C518 1.366 . S
C517 C519 1.388 . S
C518 C517 1.366 . S
C518 C522 1.385 . S
C519 H494 0.951 . S
C519 C517 1.388 . S
C519 C520 1.366 . S
C520 C519 1.366 . S
C520 C521 1.414 . S
C520 C523 1.499 . S
C521 H495 0.950 . S
C521 C520 1.414 . S
C521 C522 1.374 . S
C522 H496 0.950 . S
C522 C518 1.385 . S
C522 C521 1.374 . S
C523 C520 1.499 . S
C523 C524 1.373 . S
C523 C525 1.389 1_455 S
C524 H497 0.950 . S
C524 C510 1.377 . S
C524 C523 1.373 . S
C525 C509 1.377 . S
C525 C523 1.389 1_655 S
C525 C526 1.524 . S
C526 C525 1.524 . S
C526 C527 1.397 . S
C526 C531 1.363 . S
C527 H498 0.950 . S
C527 C526 1.397 . S
C527 C528 1.334 . S
C528 H499 0.950 . S
C528 C527 1.334 . S
C528 C529 1.287 . S
C529 C528 1.287 . S
C529 C530 1.524 . S
C529 H532 0.999 . S
C530 H500 0.950 . S
C530 C529 1.524 . S
C530 C531 1.415 . S
C531 H501 0.950 . S
C531 C526 1.363 . S
C531 C530 1.415 . S
H532 C529 0.999 . S
H533 C514 0.913 . S
H534 C552 0.951 . S
H535 C554 0.951 1_455 S
H536 C556 0.950 . S
H537 C557 0.950 . S
H538 C559 0.950 . S
H539 C562 0.950 . S
H540 C563 0.950 . S
H541 C565 0.950 . S
H542 C566 0.950 . S
H543 C567 0.951 . S
H544 C569 0.951 1_655 S
H545 C571 0.950 . S
H546 C572 0.950 . S
H547 C574 0.950 . S
H548 C577 0.950 . S
H549 C578 0.950 . S
H550 C580 0.950 . S
H551 C581 0.950 . S
C552 H534 0.951 . S
C552 C553 1.366 . S
C552 C554 1.388 . S
C553 C552 1.366 . S
C553 C557 1.385 . S
C554 H535 0.951 1_655 S
C554 C552 1.388 . S
C554 C555 1.366 . S
C555 C554 1.366 . S
C555 C556 1.414 . S
C555 C558 1.499 . S
C556 H536 0.950 . S
C556 C555 1.414 . S
C556 C557 1.374 . S
C557 H537 0.950 . S
C557 C553 1.385 . S
C557 C556 1.374 . S
C558 C555 1.499 . S
C558 C559 1.373 . S
C558 C560 1.389 1_655 S
C559 H538 0.950 . S
C559 C558 1.373 . S
C559 C575 1.377 . S
C560 C558 1.389 1_455 S
C560 C561 1.524 . S
C560 C574 1.377 . S
C561 C560 1.524 . S
C561 C562 1.397 . S
C561 C566 1.363 . S
C562 H539 0.950 . S
C562 C561 1.397 . S
C562 C563 1.334 . S
C563 H540 0.950 . S
C563 C562 1.334 . S
C563 C564 1.287 . S
C564 C563 1.287 . S
C564 C565 1.524 . S
C564 H583 0.913 . S
C565 H541 0.950 . S
C565 C564 1.524 . S
C565 C566 1.415 . S
C566 H542 0.950 . S
C566 C561 1.363 . S
C566 C565 1.415 . S
C567 H543 0.951 . S
C567 C568 1.366 . S
C567 C569 1.388 . S
C568 C567 1.366 . S
C568 C572 1.385 . S
C569 H544 0.951 1_455 S
C569 C567 1.388 . S
C569 C570 1.366 . S
C570 C569 1.366 . S
C570 C571 1.414 . S
C570 C573 1.499 . S
C571 H545 0.950 . S
C571 C570 1.414 . S
C571 C572 1.374 . S
C572 H546 0.950 . S
C572 C568 1.385 . S
C572 C571 1.374 . S
C573 C570 1.499 . S
C573 C574 1.373 . S
C573 C575 1.389 1_455 S
C574 H547 0.950 . S
C574 C560 1.377 . S
C574 C573 1.373 . S
C575 C559 1.377 . S
C575 C573 1.389 1_655 S
C575 C576 1.524 . S
C576 C575 1.524 . S
C576 C577 1.397 . S
C576 C581 1.363 . S
C577 H548 0.950 . S
C577 C576 1.397 . S
C577 C578 1.334 . S
C578 H549 0.950 . S
C578 C577 1.334 . S
C578 C579 1.287 . S
C579 C578 1.287 . S
C579 C580 1.524 . S
C579 H582 0.999 . S
C580 H550 0.950 . S
C580 C579 1.524 . S
C580 C581 1.415 . S
C581 H551 0.950 . S
C581 C576 1.363 . S
C581 C580 1.415 . S
H582 C579 0.999 . S
H583 C564 0.913 . S
H584 C602 0.951 . S
H585 C604 0.951 1_455 S
H586 C606 0.950 . S
H587 C607 0.950 . S
H588 C609 0.950 . S
H589 C612 0.950 . S
H590 C613 0.950 . S
H591 C615 0.950 . S
H592 C616 0.950 . S
H593 C617 0.951 . S
H594 C619 0.951 1_655 S
H595 C621 0.950 . S
H596 C622 0.950 . S
H597 C624 0.950 . S
H598 C627 0.950 1_455 S
H599 C628 0.950 . S
H600 C630 0.950 . S
H601 C631 0.950 . S
C602 H584 0.951 . S
C602 C603 1.366 . S
C602 C604 1.388 . S
C603 C602 1.366 . S
C603 C607 1.385 . S
C604 H585 0.951 1_655 S
C604 C602 1.388 . S
C604 C605 1.366 . S
C605 C604 1.366 . S
C605 C606 1.414 . S
C605 C608 1.499 . S
C606 H586 0.950 . S
C606 C605 1.414 . S
C606 C607 1.374 . S
C607 H587 0.950 . S
C607 C603 1.385 . S
C607 C606 1.374 . S
C608 C605 1.499 . S
C608 C609 1.373 . S
C608 C610 1.389 1_655 S
C609 H588 0.950 . S
C609 C608 1.373 . S
C609 C625 1.377 . S
C610 C608 1.389 1_455 S
C610 C611 1.524 . S
C610 C624 1.377 . S
C611 C610 1.524 . S
C611 C612 1.397 . S
C611 C616 1.363 . S
C612 H589 0.950 . S
C612 C611 1.397 . S
C612 C613 1.334 . S
C613 H590 0.950 . S
C613 C612 1.334 . S
C613 C614 1.287 . S
C614 C613 1.287 . S
C614 C615 1.524 . S
C614 H633 0.913 . S
C615 H591 0.950 . S
C615 C614 1.524 . S
C615 C616 1.415 . S
C616 H592 0.950 . S
C616 C611 1.363 . S
C616 C615 1.415 . S
C617 H593 0.951 . S
C617 C618 1.366 . S
C617 C619 1.388 . S
C618 C617 1.366 . S
C618 C622 1.385 . S
C619 H594 0.951 1_455 S
C619 C617 1.388 . S
C619 C620 1.366 . S
C620 C619 1.366 . S
C620 C621 1.414 . S
C620 C623 1.499 . S
C621 H595 0.950 . S
C621 C620 1.414 . S
C621 C622 1.374 . S
C622 H596 0.950 . S
C622 C618 1.385 . S
C622 C621 1.374 . S
C623 C620 1.499 . S
C623 C624 1.373 . S
C623 C625 1.389 1_455 S
C624 H597 0.950 . S
C624 C610 1.377 . S
C624 C623 1.373 . S
C625 C609 1.377 . S
C625 C623 1.389 1_655 S
C625 C626 1.524 . S
C626 C625 1.524 . S
C626 C627 1.397 . S
C626 C631 1.363 . S
C627 H598 0.950 1_655 S
C627 C626 1.397 . S
C627 C628 1.334 . S
C628 H599 0.950 . S
C628 C627 1.334 . S
C628 C629 1.287 . S
C629 C628 1.287 . S
C629 C630 1.524 . S
C629 H632 0.999 . S
C630 H600 0.950 . S
C630 C629 1.524 . S
C630 C631 1.415 . S
C631 H601 0.950 . S
C631 C626 1.363 . S
C631 C630 1.415 . S
H632 C629 0.999 . S
H633 C614 0.913 . S
H634 C652 0.951 . S
H635 C654 0.951 . S
H636 C656 0.950 1_655 S
H637 C657 0.950 . S
H638 C659 0.950 . S
H639 C662 0.950 . S
H640 C663 0.950 . S
H641 C665 0.950 . S
H642 C666 0.950 . S
H643 C667 0.951 . S
H644 C669 0.951 . S
H645 C671 0.950 1_455 S
H646 C672 0.950 . S
H647 C674 0.950 . S
H648 C677 0.950 . S
H649 C678 0.950 . S
H650 C680 0.950 . S
H651 C681 0.950 . S
C652 H634 0.951 . S
C652 C653 1.366 . S
C652 C654 1.388 . S
C653 C652 1.366 . S
C653 C657 1.385 . S
C654 H635 0.951 . S
C654 C652 1.388 . S
C654 C655 1.366 . S
C655 C654 1.366 . S
C655 C656 1.414 . S
C655 C658 1.499 . S
C656 H636 0.950 1_455 S
C656 C655 1.414 . S
C656 C657 1.374 . S
C657 H637 0.950 . S
C657 C653 1.385 . S
C657 C656 1.374 . S
C658 C655 1.499 . S
C658 C659 1.373 1_455 S
C658 C660 1.389 . S
C659 H638 0.950 . S
C659 C658 1.373 1_655 S
C659 C675 1.377 . S
C660 C658 1.389 . S
C660 C661 1.524 . S
C660 C674 1.377 . S
C661 C660 1.524 . S
C661 C662 1.397 . S
C661 C666 1.363 . S
C662 H639 0.950 . S
C662 C661 1.397 . S
C662 C663 1.334 . S
C663 H640 0.950 . S
C663 C662 1.334 . S
C663 C664 1.287 . S
C664 C663 1.287 . S
C664 C665 1.524 . S
C664 H683 0.913 . S
C665 H641 0.950 . S
C665 C664 1.524 . S
C665 C666 1.415 . S
C666 H642 0.950 . S
C666 C661 1.363 . S
C666 C665 1.415 . S
C667 H643 0.951 . S
C667 C668 1.366 . S
C667 C669 1.388 . S
C668 C667 1.366 . S
C668 C672 1.385 . S
C669 H644 0.951 . S
C669 C667 1.388 . S
C669 C670 1.366 . S
C670 C669 1.366 . S
C670 C671 1.414 . S
C670 C673 1.499 . S
C671 H645 0.950 1_655 S
C671 C670 1.414 . S
C671 C672 1.374 . S
C672 H646 0.950 . S
C672 C668 1.385 . S
C672 C671 1.374 . S
C673 C670 1.499 . S
C673 C674 1.373 1_655 S
C673 C675 1.389 . S
C674 H647 0.950 . S
C674 C660 1.377 . S
C674 C673 1.373 1_455 S
C675 C659 1.377 . S
C675 C673 1.389 . S
C675 C676 1.524 . S
C676 C675 1.524 . S
C676 C677 1.397 . S
C676 C681 1.363 . S
C677 H648 0.950 . S
C677 C676 1.397 . S
C677 C678 1.334 . S
C678 H649 0.950 . S
C678 C677 1.334 . S
C678 C679 1.287 . S
C679 C678 1.287 . S
C679 C680 1.524 . S
C679 H682 0.999 . S
C680 H650 0.950 . S
C680 C679 1.524 . S
C680 C681 1.415 . S
C681 H651 0.950 . S
C681 C676 1.363 . S
C681 C680 1.415 . S
H682 C679 0.999 . S
H683 C664 0.913 . S
C103 C39 1.371 1_554 S
C118 C15 1.378 . S
C153 C57 1.378 . S
C168 C81 1.378 . S
C203 C18 1.371 1_554 S
C218 C36 1.378 . S
C253 C78 1.376 . S
C268 C60 1.376 . S
C303 C77 0.838 . S
C318 C13 0.826 . S
C353 C35 0.838 . S
C368 C55 0.826 . S
C403 C38 0.843 . S
C418 C58 0.848 . S
C453 C80 0.843 . S
C468 C16 0.849 . S
C503 C34 0.824 . S
C518 C56 0.836 . S
C553 C76 0.824 . S
C568 C14 0.836 . S
C603 C79 0.847 . S
C618 C17 0.840 . S
C653 C59 0.840 . S
C668 C37 0.848 . S
