# Generated by pormake.
# Topology yfb, (5)-cn, num edge types: 1
# Building blocks:
#     Node 0, Type 0, BuildingBlock: XOMCOT_clean_sbu_1, # of connection points: 5
#     Node 1, Type 0, BuildingBlock: XOMCOT_clean_sbu_1, # of connection points: 5
#     Node 2, Type 0, BuildingBlock: XOMCOT_clean_sbu_1, # of connection points: 5
#     Node 3, Type 0, BuildingBlock: XOMCOT_clean_sbu_1, # of connection points: 5
#     Node 4, Type 0, BuildingBlock: XOMCOT_clean_sbu_1, # of connection points: 5
#     Node 5, Type 0, BuildingBlock: XOMCOT_clean_sbu_1, # of connection points: 5
#     Node 6, Type 0, BuildingBlock: XOMCOT_clean_sbu_1, # of connection points: 5
#     Node 7, Type 0, BuildingBlock: XOMCOT_clean_sbu_1, # of connection points: 5
#     Node 8, Type 0, BuildingBlock: XOMCOT_clean_sbu_1, # of connection points: 5
#     Node 9, Type 0, BuildingBlock: XOMCOT_clean_sbu_1, # of connection points: 5
#     Node 10, Type 0, BuildingBlock: XOMCOT_clean_sbu_1, # of connection points: 5
#     Node 11, Type 0, BuildingBlock: XOMCOT_clean_sbu_1, # of connection points: 5
#     Node 12, Type 0, BuildingBlock: XOMCOT_clean_sbu_1, # of connection points: 5
#     Node 13, Type 0, BuildingBlock: XOMCOT_clean_sbu_1, # of connection points: 5
#     Node 14, Type 0, BuildingBlock: XOMCOT_clean_sbu_1, # of connection points: 5
#     Node 15, Type 0, BuildingBlock: XOMCOT_clean_sbu_1, # of connection points: 5
#     Edge 16, Type (0, 0), BuildingBlock: UVAHIK_clean_linker_0, # of connection points: 2
#     Edge 17, Type (0, 0), BuildingBlock: UVAHIK_clean_linker_0, # of connection points: 2
#     Edge 18, Type (0, 0), BuildingBlock: UVAHIK_clean_linker_0, # of connection points: 2
#     Edge 19, Type (0, 0), BuildingBlock: UVAHIK_clean_linker_0, # of connection points: 2
#     Edge 20, Type (0, 0), BuildingBlock: UVAHIK_clean_linker_0, # of connection points: 2
#     Edge 21, Type (0, 0), BuildingBlock: UVAHIK_clean_linker_0, # of connection points: 2
#     Edge 22, Type (0, 0), BuildingBlock: UVAHIK_clean_linker_0, # of connection points: 2
#     Edge 23, Type (0, 0), BuildingBlock: UVAHIK_clean_linker_0, # of connection points: 2
#     Edge 24, Type (0, 0), BuildingBlock: UVAHIK_clean_linker_0, # of connection points: 2
#     Edge 25, Type (0, 0), BuildingBlock: UVAHIK_clean_linker_0, # of connection points: 2
#     Edge 26, Type (0, 0), BuildingBlock: UVAHIK_clean_linker_0, # of connection points: 2
#     Edge 27, Type (0, 0), BuildingBlock: UVAHIK_clean_linker_0, # of connection points: 2
#     Edge 28, Type (0, 0), BuildingBlock: UVAHIK_clean_linker_0, # of connection points: 2
#     Edge 29, Type (0, 0), BuildingBlock: UVAHIK_clean_linker_0, # of connection points: 2
#     Edge 30, Type (0, 0), BuildingBlock: UVAHIK_clean_linker_0, # of connection points: 2
#     Edge 31, Type (0, 0), BuildingBlock: UVAHIK_clean_linker_0, # of connection points: 2
#     Edge 32, Type (0, 0), BuildingBlock: UVAHIK_clean_linker_0, # of connection points: 2
#     Edge 33, Type (0, 0), BuildingBlock: UVAHIK_clean_linker_0, # of connection points: 2
#     Edge 34, Type (0, 0), BuildingBlock: UVAHIK_clean_linker_0, # of connection points: 2
#     Edge 35, Type (0, 0), BuildingBlock: UVAHIK_clean_linker_0, # of connection points: 2
#     Edge 36, Type (0, 0), BuildingBlock: UVAHIK_clean_linker_0, # of connection points: 2
#     Edge 37, Type (0, 0), BuildingBlock: UVAHIK_clean_linker_0, # of connection points: 2
#     Edge 38, Type (0, 0), BuildingBlock: UVAHIK_clean_linker_0, # of connection points: 2
#     Edge 39, Type (0, 0), BuildingBlock: UVAHIK_clean_linker_0, # of connection points: 2
#     Edge 40, Type (0, 0), BuildingBlock: UVAHIK_clean_linker_0, # of connection points: 2
#     Edge 41, Type (0, 0), BuildingBlock: UVAHIK_clean_linker_0, # of connection points: 2
#     Edge 42, Type (0, 0), BuildingBlock: UVAHIK_clean_linker_0, # of connection points: 2
#     Edge 43, Type (0, 0), BuildingBlock: UVAHIK_clean_linker_0, # of connection points: 2
#     Edge 44, Type (0, 0), BuildingBlock: UVAHIK_clean_linker_0, # of connection points: 2
#     Edge 45, Type (0, 0), BuildingBlock: UVAHIK_clean_linker_0, # of connection points: 2
#     Edge 46, Type (0, 0), BuildingBlock: UVAHIK_clean_linker_0, # of connection points: 2
#     Edge 47, Type (0, 0), BuildingBlock: UVAHIK_clean_linker_0, # of connection points: 2
#     Edge 48, Type (0, 0), BuildingBlock: UVAHIK_clean_linker_0, # of connection points: 2
#     Edge 49, Type (0, 0), BuildingBlock: UVAHIK_clean_linker_0, # of connection points: 2
#     Edge 50, Type (0, 0), BuildingBlock: UVAHIK_clean_linker_0, # of connection points: 2
#     Edge 51, Type (0, 0), BuildingBlock: UVAHIK_clean_linker_0, # of connection points: 2
#     Edge 52, Type (0, 0), BuildingBlock: UVAHIK_clean_linker_0, # of connection points: 2
#     Edge 53, Type (0, 0), BuildingBlock: UVAHIK_clean_linker_0, # of connection points: 2
#     Edge 54, Type (0, 0), BuildingBlock: UVAHIK_clean_linker_0, # of connection points: 2
#     Edge 55, Type (0, 0), BuildingBlock: UVAHIK_clean_linker_0, # of connection points: 2
# Relax obj value: 0.746
# Max RMSD: 0.274
# Mean RMSD: 0.274
data_MOF--net-yfb--node1-XOMCOT_clean_sbu_1--edge1-UVAHIK_clean_linker_0
_symmetry_space_group_name_H-M    P1
_symmetry_Int_Tables_number       1
_symmetry_cell_setting            triclinic
loop_
_symmetry_equiv_pos_as_xyz
'x, y, z'
_cell_length_a     52.45402
_cell_length_b     52.465623
_cell_length_c     56.012821
_cell_angle_alpha  89.997292
_cell_angle_beta   90.080204
_cell_angle_gamma 90.008911
loop_
_atom_site_label
_atom_site_type_symbol
_atom_site_fract_x
_atom_site_fract_y
_atom_site_fract_z
_atom_type_partial_charge
C0 C 0.63264 0.03001 0.1031 0.0
C1 C 0.61178 0.01555 0.09637 0.0
N2 N 0.59746 0.02938 0.0811 0.0
N3 N 0.63139 0.05287 0.09214 0.0
C4 C 0.60981 0.05184 0.07901 0.0
H5 H 0.64841 0.02365 0.11404 0.0
Co6 Co 0.65549 0.07885 0.08833 0.0
C7 C 0.61965 0.11558 0.08902 0.0
O8 O 0.62143 0.11105 0.06602 0.0
N9 N 0.67896 0.10524 0.08355 0.0
C10 C 0.70611 0.13193 0.06615 0.0
C11 C 0.69253 0.10971 0.06351 0.0
C12 C 0.6842 0.12531 0.09793 0.0
N13 N 0.70069 0.14178 0.08772 0.0
O14 O 0.67181 0.07131 0.11871 0.0
H15 H 0.69201 0.098 0.04764 0.0
H16 H 0.67563 0.12813 0.1153 0.0
O17 O 0.63317 0.1026 0.10338 0.0
C18 C 0.66345 0.07096 0.14008 0.0
O19 O 0.63904 0.07454 0.1441 0.0
N20 N 0.67699 0.05612 0.07227 0.0
C21 C 0.71032 0.03428 0.03946 0.0
C22 C 0.68432 0.03692 0.0341 0.0
C23 C 0.66807 0.04824 0.05064 0.0
C24 C 0.70162 0.05136 0.07883 0.0
C25 C 0.71865 0.04044 0.06261 0.0
H26 H 0.64873 0.05262 0.04539 0.0
H27 H 0.70894 0.05821 0.09566 0.0
H28 H 0.60439 0.0665 0.06647 0.0
H29 H 0.60802 0.99606 0.10163 0.0
H30 H 0.71805 0.14086 0.0528 0.0
H31 H 0.67696 0.03208 0.0166 0.0
H32 H 0.73859 0.03907 0.06747 0.0
C33 C 0.49349 0.64509 0.10537 0.0
C34 C 0.50477 0.62271 0.0979 0.0
N35 N 0.48657 0.60746 0.0887 0.0
N36 N 0.46824 0.64396 0.10103 0.0
C37 C 0.46458 0.62057 0.09141 0.0
H38 H 0.50341 0.66191 0.11153 0.0
Co39 Co 0.44608 0.672 0.10026 0.0
C40 C 0.39754 0.65069 0.08306 0.0
O41 O 0.39568 0.66986 0.06804 0.0
N42 N 0.42356 0.70058 0.09988 0.0
C43 C 0.4046 0.73823 0.09476 0.0
C44 C 0.42639 0.72428 0.09077 0.0
C45 C 0.40025 0.70125 0.11034 0.0
N46 N 0.38799 0.72359 0.10687 0.0
O47 O 0.4429 0.67174 0.13434 0.0
H48 H 0.44304 0.73145 0.08177 0.0
H49 H 0.39224 0.68539 0.12012 0.0
O50 O 0.41673 0.64898 0.09708 0.0
C51 C 0.45771 0.68895 0.14253 0.0
O52 O 0.47339 0.70012 0.12752 0.0
N53 N 0.45157 0.67398 0.06695 0.0
C54 C 0.46041 0.6858 0.01901 0.0
C55 C 0.44856 0.66274 0.02549 0.0
C56 C 0.44434 0.65717 0.04956 0.0
C57 C 0.46724 0.69366 0.06118 0.0
C58 C 0.47112 0.70057 0.03744 0.0
H59 H 0.43461 0.6397 0.05389 0.0
H60 H 0.47577 0.70495 0.07522 0.0
H61 H 0.44639 0.61388 0.08488 0.0
H62 H 0.52506 0.61899 0.09728 0.0
H63 H 0.40104 0.75743 0.08854 0.0
H64 H 0.44167 0.64943 0.01223 0.0
H65 H 0.48119 0.71815 0.03402 0.0
C66 C 0.8579 0.49902 0.10591 0.0
C67 C 0.88072 0.50911 0.09827 0.0
N68 N 0.89321 0.49123 0.08553 0.0
N69 N 0.85588 0.47481 0.09816 0.0
C70 C 0.87787 0.47048 0.08617 0.0
H71 H 0.84311 0.50922 0.11533 0.0
Co72 Co 0.82594 0.45535 0.09898 0.0
C73 C 0.84099 0.40341 0.08435 0.0
O74 O 0.82054 0.40231 0.07076 0.0
N75 N 0.79533 0.43583 0.1004 0.0
C76 C 0.75673 0.41884 0.09544 0.0
C77 C 0.77217 0.43935 0.09029 0.0
C78 C 0.79275 0.41374 0.11272 0.0
N79 N 0.7699 0.40248 0.10925 0.0
O80 O 0.82762 0.45287 0.13311 0.0
H81 H 0.76665 0.45529 0.07933 0.0
H82 H 0.80799 0.40539 0.12315 0.0
O83 O 0.84608 0.42381 0.09596 0.0
C84 C 0.81176 0.46832 0.1425 0.0
O85 O 0.80052 0.48499 0.12847 0.0
N86 N 0.82283 0.45986 0.06567 0.0
C87 C 0.80881 0.46798 0.0182 0.0
C88 C 0.82975 0.45242 0.02392 0.0
C89 C 0.83655 0.44869 0.04778 0.0
C90 C 0.80536 0.47813 0.06023 0.0
C91 C 0.79746 0.48198 0.03673 0.0
H92 H 0.85237 0.43626 0.05159 0.0
H93 H 0.7962 0.48858 0.07449 0.0
H94 H 0.88187 0.45299 0.07675 0.0
H95 H 0.88706 0.52849 0.10114 0.0
H96 H 0.73781 0.41556 0.08832 0.0
H97 H 0.84025 0.44238 0.0102 0.0
H98 H 0.78152 0.49462 0.03353 0.0
C99 C 0.01766 0.86219 0.10878 0.0
C100 C 0.00766 0.88508 0.10112 0.0
N101 N 0.02686 0.89963 0.09278 0.0
N102 N 0.04311 0.86227 0.10551 0.0
C103 C 0.04814 0.88555 0.09616 0.0
H104 H 0.00672 0.84578 0.11434 0.0
Co105 Co 0.06416 0.83332 0.10573 0.0
C106 C 0.11302 0.85197 0.08674 0.0
O107 O 0.11378 0.83224 0.0723 0.0
N108 N 0.08564 0.80397 0.10636 0.0
C109 C 0.10448 0.76619 0.10169 0.0
C110 C 0.08257 0.78006 0.09782 0.0
C111 C 0.10912 0.80345 0.11652 0.0
N112 N 0.12139 0.7811 0.11319 0.0
O113 O 0.06828 0.83524 0.13962 0.0
H114 H 0.06583 0.77278 0.089 0.0
H115 H 0.11739 0.81959 0.12571 0.0
O116 O 0.0943 0.85492 0.10107 0.0
C117 C 0.05152 0.82129 0.14964 0.0
O118 O 0.03343 0.81141 0.13629 0.0
N119 N 0.05791 0.82991 0.07267 0.0
C120 C 0.04873 0.81619 0.02528 0.0
C121 C 0.06076 0.83943 0.03086 0.0
C122 C 0.06506 0.84601 0.0547 0.0
C123 C 0.04193 0.8102 0.06769 0.0
C124 C 0.03786 0.80236 0.04423 0.0
H125 H 0.07492 0.86359 0.05844 0.0
H126 H 0.03341 0.79959 0.08217 0.0
H127 H 0.06684 0.89147 0.0903 0.0
H128 H 0.98759 0.88966 0.09981 0.0
H129 H 0.10798 0.74696 0.09554 0.0
H130 H 0.06781 0.852 0.01705 0.0
H131 H 0.02763 0.78473 0.04141 0.0
C132 C 0.64233 0.4825 0.40555 0.0
C133 C 0.62048 0.49386 0.41404 0.0
N134 N 0.60822 0.47711 0.42825 0.0
N135 N 0.64395 0.45861 0.41421 0.0
C136 C 0.62273 0.45578 0.42771 0.0
H137 H 0.65669 0.49158 0.39465 0.0
Co138 Co 0.6724 0.43713 0.41201 0.0
C139 C 0.65337 0.38486 0.42059 0.0
O140 O 0.67382 0.38009 0.43342 0.0
N141 N 0.70143 0.41557 0.40935 0.0
C142 C 0.73763 0.39416 0.41474 0.0
C143 C 0.72358 0.41506 0.42168 0.0
C144 C 0.70324 0.39552 0.3942 0.0
N145 N 0.72457 0.38158 0.39769 0.0
O146 O 0.67141 0.43846 0.37771 0.0
H147 H 0.72903 0.42825 0.43553 0.0
H148 H 0.68827 0.39036 0.3818 0.0
O149 O 0.64975 0.40715 0.4119 0.0
C150 C 0.68903 0.45347 0.37071 0.0
O151 O 0.70104 0.467 0.38697 0.0
N152 N 0.6753 0.43813 0.44551 0.0
C153 C 0.69036 0.44307 0.49304 0.0
C154 C 0.67044 0.4265 0.4867 0.0
C155 C 0.66288 0.42457 0.4628 0.0
C156 C 0.69225 0.45657 0.45182 0.0
C157 C 0.70042 0.45911 0.47536 0.0
H158 H 0.64743 0.41187 0.45846 0.0
H159 H 0.70088 0.46821 0.43808 0.0
H160 H 0.61874 0.4389 0.43808 0.0
H161 H 0.61457 0.51326 0.41054 0.0
H162 H 0.75531 0.38787 0.42278 0.0
H163 H 0.66134 0.41453 0.49993 0.0
H164 H 0.71573 0.47233 0.47921 0.0
C165 C 0.02518 0.63094 0.40346 0.0
C166 C 0.0159 0.60827 0.41229 0.0
N167 N 0.0344 0.59694 0.42524 0.0
N168 N 0.04952 0.63398 0.41061 0.0
C169 C 0.05466 0.61282 0.42362 0.0
H170 H 0.01428 0.64499 0.39373 0.0
Co171 Co 0.06855 0.66406 0.40809 0.0
C172 C 0.12152 0.64973 0.42047 0.0
O173 O 0.12379 0.67066 0.43321 0.0
N174 N 0.08759 0.69472 0.40511 0.0
C175 C 0.10477 0.73331 0.40917 0.0
C176 C 0.08464 0.71782 0.41539 0.0
C177 C 0.10892 0.6973 0.39169 0.0
N178 N 0.12032 0.72017 0.39455 0.0
O179 O 0.06975 0.66121 0.37404 0.0
H180 H 0.06945 0.72317 0.42732 0.0
H181 H 0.11675 0.68201 0.38102 0.0
O182 O 0.10027 0.64432 0.41045 0.0
C183 C 0.05295 0.67526 0.36417 0.0
O184 O 0.0358 0.68625 0.3778 0.0
N185 N 0.06533 0.6683 0.44133 0.0
C186 C 0.05741 0.68427 0.4882 0.0
C187 C 0.0748 0.66465 0.48312 0.0
C188 C 0.07821 0.65662 0.45953 0.0
C189 C 0.04595 0.68466 0.44637 0.0
C190 C 0.04197 0.69334 0.46956 0.0
H191 H 0.09158 0.64148 0.45614 0.0
H192 H 0.03463 0.69239 0.43192 0.0
H193 H 0.07263 0.60963 0.43258 0.0
H194 H 0.99646 0.60158 0.41059 0.0
H195 H 0.10845 0.75221 0.41611 0.0
H196 H 0.0863 0.6562 0.4971 0.0
H197 H 0.02809 0.7083 0.47242 0.0
C198 C 0.86118 0.0178 0.39164 0.0
C199 C 0.88359 0.00837 0.40097 0.0
N200 N 0.8958 0.0274 0.41243 0.0
N201 N 0.85919 0.04275 0.39698 0.0
C202 C 0.88072 0.04809 0.40941 0.0
H203 H 0.84655 0.00668 0.38292 0.0
Co204 Co 0.82966 0.06259 0.39343 0.0
C205 C 0.84506 0.11487 0.40723 0.0
O206 O 0.82372 0.11732 0.41932 0.0
N207 N 0.79962 0.08251 0.3894 0.0
C208 C 0.7613 0.1006 0.39211 0.0
C209 C 0.77584 0.07976 0.39828 0.0
C210 C 0.79836 0.10444 0.37665 0.0
N211 N 0.7757 0.11642 0.37885 0.0
O212 O 0.83369 0.06365 0.35939 0.0
H213 H 0.7693 0.0642 0.40924 0.0
H214 H 0.81442 0.11226 0.36701 0.0
O215 O 0.85016 0.09384 0.39668 0.0
C216 C 0.81985 0.04675 0.34935 0.0
O217 O 0.80842 0.02987 0.36296 0.0
N218 N 0.82419 0.05948 0.42661 0.0
C219 C 0.8077 0.05254 0.47352 0.0
C220 C 0.82886 0.06805 0.46847 0.0
C221 C 0.83699 0.07107 0.44489 0.0
C222 C 0.80622 0.04155 0.43158 0.0
C223 C 0.79714 0.03825 0.45476 0.0
H224 H 0.85327 0.08307 0.4416 0.0
H225 H 0.79779 0.03075 0.41713 0.0
H226 H 0.88478 0.06655 0.41704 0.0
H227 H 0.88949 0.98861 0.40071 0.0
H228 H 0.74216 0.10452 0.39827 0.0
H229 H 0.83865 0.07836 0.48249 0.0
H230 H 0.78107 0.02567 0.45754 0.0
C231 C 0.48539 0.86198 0.4044 0.0
C232 C 0.49658 0.88413 0.41245 0.0
N233 N 0.47949 0.89697 0.42582 0.0
N234 N 0.46126 0.86075 0.41252 0.0
C235 C 0.45813 0.88252 0.42518 0.0
H236 H 0.49474 0.84711 0.39435 0.0
Co237 Co 0.44002 0.83208 0.41128 0.0
C238 C 0.38799 0.85092 0.42143 0.0
O239 O 0.38394 0.83084 0.43495 0.0
N240 N 0.41867 0.80281 0.40961 0.0
C241 C 0.39827 0.76615 0.41568 0.0
C242 C 0.41926 0.78055 0.42173 0.0
C243 C 0.39783 0.80072 0.39542 0.0
N244 N 0.38452 0.7791 0.39938 0.0
O245 O 0.44 0.83263 0.37702 0.0
H246 H 0.43338 0.77516 0.43479 0.0
H247 H 0.39175 0.81561 0.38332 0.0
O248 O 0.40983 0.85437 0.41179 0.0
C249 C 0.45504 0.81535 0.3694 0.0
O250 O 0.46961 0.80364 0.38506 0.0
N251 N 0.44225 0.82975 0.44477 0.0
C252 C 0.44906 0.81651 0.4926 0.0
C253 C 0.43272 0.8366 0.48616 0.0
C254 C 0.42976 0.84313 0.46212 0.0
C255 C 0.46062 0.81267 0.45097 0.0
C256 C 0.46399 0.80532 0.47466 0.0
H257 H 0.41715 0.85863 0.45774 0.0
H258 H 0.47157 0.80337 0.43712 0.0
H259 H 0.44102 0.88691 0.43505 0.0
H260 H 0.51613 0.8898 0.40935 0.0
H261 H 0.39279 0.74827 0.42382 0.0
H262 H 0.4217 0.84669 0.49949 0.0
H263 H 0.47701 0.78985 0.47851 0.0
C264 C 0.36267 0.97489 0.89253 0.0
C265 C 0.38467 0.98553 0.90155 0.0
N266 N 0.3958 0.96855 0.91634 0.0
N267 N 0.35982 0.95122 0.90145 0.0
C268 C 0.38056 0.94775 0.91555 0.0
H269 H 0.34892 0.98445 0.88129 0.0
Co270 Co 0.3301 0.93145 0.89939 0.0
C271 C 0.34571 0.87813 0.90819 0.0
O272 O 0.32471 0.87457 0.92052 0.0
N273 N 0.29971 0.91181 0.89683 0.0
C274 C 0.26201 0.8932 0.90216 0.0
C275 C 0.27765 0.91291 0.90919 0.0
C276 C 0.29629 0.89205 0.88156 0.0
N277 N 0.27395 0.87975 0.88499 0.0
O278 O 0.33104 0.93236 0.86507 0.0
H279 H 0.27327 0.92641 0.9231 0.0
H280 H 0.3108 0.8859 0.86913 0.0
O281 O 0.35094 0.90013 0.89961 0.0
C282 C 0.31438 0.94828 0.85773 0.0
O283 O 0.30338 0.963 0.87368 0.0
N284 N 0.32744 0.93281 0.93293 0.0
C285 C 0.31459 0.93949 0.98085 0.0
C286 C 0.33306 0.92151 0.97413 0.0
C287 C 0.33943 0.91862 0.95006 0.0
C288 C 0.31183 0.95231 0.93944 0.0
C289 C 0.30473 0.95572 0.96319 0.0
H290 H 0.35387 0.90487 0.94554 0.0
H291 H 0.30354 0.96434 0.9258 0.0
H292 H 0.38356 0.93097 0.92634 0.0
H293 H 0.39131 0.00472 0.89819 0.0
H294 H 0.24398 0.88823 0.91029 0.0
H295 H 0.34205 0.9093 0.98726 0.0
H296 H 0.29047 0.96996 0.9673 0.0
C297 C 0.52727 0.36742 0.90214 0.0
C298 C 0.51767 0.38984 0.91132 0.0
N299 N 0.53494 0.39979 0.92661 0.0
N300 N 0.55056 0.36322 0.91145 0.0
C301 C 0.55481 0.38335 0.92603 0.0
H302 H 0.5172 0.3543 0.89061 0.0
Co303 Co 0.56975 0.33323 0.91002 0.0
C304 C 0.62426 0.35021 0.91502 0.0
O305 O 0.63112 0.32883 0.92541 0.0
N306 N 0.5889 0.30278 0.90853 0.0
C307 C 0.60851 0.2664 0.9173 0.0
C308 C 0.5888 0.28251 0.92335 0.0
C309 C 0.60785 0.29776 0.89285 0.0
N310 N 0.62087 0.27634 0.89838 0.0
O311 O 0.56882 0.33335 0.87573 0.0
H312 H 0.57632 0.28023 0.93853 0.0
H313 H 0.61346 0.31092 0.87894 0.0
O314 O 0.60093 0.35407 0.90939 0.0
C315 C 0.55276 0.31692 0.86826 0.0
O316 O 0.53757 0.30625 0.88402 0.0
N317 N 0.56841 0.33143 0.9435 0.0
C318 C 0.55963 0.31843 0.99115 0.0
C319 C 0.58222 0.33091 0.98434 0.0
C320 C 0.58602 0.33775 0.96047 0.0
C321 C 0.54555 0.32138 0.95007 0.0
C322 C 0.54059 0.31511 0.97377 0.0
H323 H 0.60327 0.34761 0.95599 0.0
H324 H 0.53139 0.31731 0.93654 0.0
H325 H 0.57174 0.38515 0.93691 0.0
H326 H 0.49874 0.39726 0.90807 0.0
H327 H 0.61456 0.24986 0.92738 0.0
H328 H 0.59746 0.33435 0.99698 0.0
H329 H 0.52233 0.30674 0.97811 0.0
C330 C 0.13865 0.51796 0.90221 0.0
C331 C 0.11656 0.50796 0.91157 0.0
N332 N 0.10531 0.52589 0.92523 0.0
N333 N 0.14144 0.54217 0.90974 0.0
C334 C 0.12064 0.54656 0.92346 0.0
H335 H 0.15237 0.50773 0.89149 0.0
Co336 Co 0.1709 0.56196 0.90578 0.0
C337 C 0.15692 0.61469 0.91795 0.0
O338 O 0.17869 0.61673 0.92944 0.0
N339 N 0.20093 0.58184 0.90112 0.0
C340 C 0.23821 0.60199 0.90364 0.0
C341 C 0.22412 0.58153 0.91164 0.0
C342 C 0.20211 0.6019 0.88592 0.0
N343 N 0.22413 0.61514 0.88769 0.0
O344 O 0.16671 0.56192 0.87173 0.0
H345 H 0.23032 0.56819 0.92508 0.0
H346 H 0.1862 0.6076 0.87485 0.0
O347 O 0.15047 0.59346 0.9084 0.0
C348 C 0.1823 0.54592 0.86274 0.0
O349 O 0.19429 0.53042 0.87739 0.0
N350 N 0.17664 0.55971 0.93895 0.0
C351 C 0.19374 0.55285 0.98569 0.0
C352 C 0.17339 0.56941 0.98071 0.0
C353 C 0.16485 0.57232 0.95722 0.0
C354 C 0.19407 0.54123 0.9439 0.0
C355 C 0.20331 0.53782 0.96702 0.0
H356 H 0.14915 0.58508 0.95397 0.0
H357 H 0.20206 0.53016 0.92944 0.0
H358 H 0.11751 0.56412 0.93309 0.0
H359 H 0.10979 0.48867 0.90903 0.0
H360 H 0.2567 0.60763 0.91039 0.0
H361 H 0.1646 0.58058 0.99472 0.0
H362 H 0.21889 0.52462 0.96981 0.0
C363 C 0.99048 0.14505 0.91058 0.0
C364 C 1.00201 0.12393 0.92056 0.0
N365 N 0.98476 0.11167 0.93422 0.0
N366 N 0.966 0.14609 0.91775 0.0
C367 C 0.9631 0.12541 0.93193 0.0
H368 H 0.99976 0.15936 0.89976 0.0
Co369 Co 0.94274 0.17282 0.91361 0.0
C370 C 0.89172 0.14859 0.92172 0.0
O371 O 0.88276 0.16934 0.93181 0.0
N372 N 0.91954 0.20009 0.90916 0.0
C373 C 0.89915 0.23725 0.91106 0.0
C374 C 0.92022 0.22381 0.91853 0.0
C375 C 0.89857 0.20021 0.895 0.0
N376 N 0.88531 0.22221 0.89654 0.0
O377 O 0.94463 0.16993 0.8795 0.0
H378 H 0.93473 0.23105 0.93037 0.0
H379 H 0.89248 0.18396 0.88454 0.0
O380 O 0.91483 0.14779 0.91449 0.0
C381 C 0.95925 0.18748 0.87166 0.0
O382 O 0.97244 0.20071 0.88732 0.0
N383 N 0.94276 0.17772 0.94692 0.0
C384 C 0.94496 0.19572 0.99372 0.0
C385 C 0.92962 0.17469 0.98783 0.0
C386 C 0.92894 0.1658 0.96431 0.0
C387 C 0.96019 0.19582 0.95299 0.0
C388 C 0.96129 0.20549 0.97613 0.0
H389 H 0.9171 0.1496 0.96042 0.0
H390 H 0.97211 0.20408 0.93928 0.0
H391 H 0.9456 0.12103 0.94112 0.0
H392 H 0.02192 0.11886 0.91886 0.0
H393 H 0.89376 0.25616 0.91691 0.0
H394 H 0.91761 0.16568 1.00107 0.0
H395 H 0.97365 0.22159 0.97965 0.0
C396 C 0.36125 0.52203 0.60641 0.0
C397 C 0.38376 0.51072 0.59947 0.0
N398 N 0.39693 0.52737 0.58588 0.0
N399 N 0.36012 0.54579 0.59737 0.0
C400 C 0.38233 0.54862 0.58534 0.0
H401 H 0.34603 0.5129 0.61619 0.0
Co402 Co 0.33094 0.56635 0.59632 0.0
C403 C 0.34904 0.61849 0.58574 0.0
O404 O 0.32979 0.62143 0.57094 0.0
N405 N 0.30104 0.58692 0.59565 0.0
C406 C 0.26396 0.60542 0.58694 0.0
C407 C 0.2795 0.5848 0.58254 0.0
C408 C 0.29733 0.60831 0.60878 0.0
N409 N 0.27542 0.62047 0.6032 0.0
O410 O 0.32918 0.56731 0.63058 0.0
H411 H 0.27534 0.56981 0.56998 0.0
H412 H 0.31125 0.61555 0.62134 0.0
O413 O 0.3525 0.59711 0.59628 0.0
C414 C 0.31147 0.55234 0.63745 0.0
O415 O 0.30084 0.53745 0.62139 0.0
N416 N 0.33093 0.56311 0.56281 0.0
C417 C 0.32087 0.55484 0.51453 0.0
C418 C 0.34014 0.57183 0.52166 0.0
C419 C 0.34506 0.57553 0.54594 0.0
C420 C 0.31484 0.54406 0.55611 0.0
C421 C 0.30906 0.53994 0.53214 0.0
H422 H 0.35993 0.58868 0.55085 0.0
H423 H 0.30502 0.53315 0.56967 0.0
H424 H 0.38691 0.56533 0.57495 0.0
H425 H 0.38938 0.49131 0.60334 0.0
H426 H 0.2463 0.6097 0.57776 0.0
H427 H 0.35069 0.58286 0.50867 0.0
H428 H 0.2942 0.52641 0.52775 0.0
C429 C 0.99331 0.34973 0.60289 0.0
C430 C 0.00476 0.37177 0.5948 0.0
N431 N 0.98691 0.38626 0.58401 0.0
N432 N 0.9683 0.35031 0.59739 0.0
C433 C 0.96495 0.37299 0.5863 0.0
H434 H 0.003 0.33354 0.61067 0.0
Co435 Co 0.94587 0.32253 0.59827 0.0
C436 C 0.89621 0.34403 0.58377 0.0
O437 O 0.89277 0.32453 0.56939 0.0
N438 N 0.92316 0.29428 0.59951 0.0
C439 C 0.90283 0.25728 0.59502 0.0
C440 C 0.92473 0.27069 0.58992 0.0
C441 C 0.90066 0.29407 0.61137 0.0
N442 N 0.88752 0.27222 0.60825 0.0
O443 O 0.94462 0.32357 0.63251 0.0
H444 H 0.94043 0.26343 0.57956 0.0
H445 H 0.89363 0.3101 0.62158 0.0
O446 O 0.91661 0.34589 0.59619 0.0
C447 C 0.95936 0.30619 0.64049 0.0
O448 O 0.97395 0.29416 0.62511 0.0
N449 N 0.94944 0.31962 0.56479 0.0
C450 C 0.95627 0.3057 0.51719 0.0
C451 C 0.94284 0.32796 0.5231 0.0
C452 C 0.94003 0.33488 0.54705 0.0
C453 C 0.96574 0.30037 0.55914 0.0
C454 C 0.96894 0.29262 0.53555 0.0
H455 H 0.92968 0.35208 0.55103 0.0
H456 H 0.97521 0.28998 0.57328 0.0
H457 H 0.94698 0.37914 0.57884 0.0
H458 H 0.02499 0.37583 0.59518 0.0
H459 H 0.8981 0.23842 0.58855 0.0
H460 H 0.93384 0.33947 0.50943 0.0
H461 H 0.97997 0.27559 0.53203 0.0
C462 C 0.14146 0.99156 0.59398 0.0
C463 C 0.11942 0.00262 0.58535 0.0
N464 N 0.10563 0.98459 0.57403 0.0
N465 N 0.14158 0.96661 0.5883 0.0
C466 C 0.11931 0.96291 0.57653 0.0
H467 H 0.1572 1.00152 0.60225 0.0
Co468 Co 0.16976 0.94464 0.58954 0.0
C469 C 0.14935 0.89497 0.57378 0.0
O470 O 0.16917 0.89206 0.55971 0.0
N471 N 0.19828 0.92227 0.59108 0.0
C472 C 0.2352 0.90179 0.58663 0.0
C473 C 0.22189 0.92377 0.58153 0.0
C474 C 0.19837 0.89973 0.60288 0.0
N475 N 0.22017 0.88648 0.5998 0.0
O476 O 0.16787 0.94257 0.6237 0.0
H477 H 0.22915 0.9394 0.57106 0.0
H478 H 0.18223 0.8927 0.61293 0.0
O479 O 0.14697 0.91512 0.58643 0.0
C480 C 0.18479 0.9575 0.63224 0.0
O481 O 0.19644 0.973 0.61738 0.0
N482 N 0.17356 0.94907 0.5563 0.0
C483 C 0.18899 0.95805 0.50945 0.0
C484 C 0.16697 0.94368 0.51419 0.0
C485 C 0.15926 0.93981 0.53781 0.0
C486 C 0.19255 0.96607 0.5518 0.0
C487 C 0.20101 0.9704 0.5286 0.0
H488 H 0.14224 0.92883 0.54094 0.0
H489 H 0.20224 0.9752 0.56656 0.0
H490 H 0.11383 0.94489 0.56875 0.0
H491 H 0.11494 0.02275 0.5858 0.0
H492 H 0.25401 0.89697 0.58012 0.0
H493 H 0.1563 0.93479 0.49987 0.0
H494 H 0.21784 0.98202 0.52602 0.0
C495 C 0.51871 0.14329 0.60636 0.0
C496 C 0.50762 0.12105 0.59836 0.0
N497 N 0.52472 0.10837 0.58486 0.0
N498 N 0.54275 0.14473 0.59808 0.0
C499 C 0.54596 0.123 0.58536 0.0
H500 H 0.5093 0.15807 0.61649 0.0
Co501 Co 0.56377 0.17359 0.5992 0.0
C502 C 0.61534 0.15577 0.58611 0.0
O503 O 0.61824 0.1764 0.57307 0.0
N504 N 0.58497 0.20301 0.6008 0.0
C505 C 0.60558 0.23949 0.59447 0.0
C506 C 0.58417 0.22545 0.589 0.0
C507 C 0.60635 0.20467 0.61431 0.0
N508 N 0.61983 0.22615 0.61011 0.0
O509 O 0.56515 0.17219 0.63348 0.0
H510 H 0.56971 0.23116 0.5764 0.0
H511 H 0.61273 0.18947 0.62592 0.0
O512 O 0.59419 0.15161 0.59684 0.0
C513 C 0.54994 0.18907 0.64162 0.0
O514 O 0.5348 0.20066 0.62636 0.0
N515 N 0.56005 0.17677 0.56587 0.0
C516 C 0.55116 0.19089 0.51855 0.0
C517 C 0.56743 0.17042 0.52402 0.0
C518 C 0.57146 0.16347 0.54783 0.0
C519 C 0.54166 0.19421 0.56068 0.0
C520 C 0.53731 0.20203 0.53726 0.0
H521 H 0.58404 0.14773 0.55144 0.0
H522 H 0.53148 0.20339 0.5751 0.0
H523 H 0.56302 0.11875 0.57536 0.0
H524 H 0.48814 0.11523 0.60157 0.0
H525 H 0.611 0.25736 0.58626 0.0
H526 H 0.5776 0.16033 0.51012 0.0
H527 H 0.52436 0.21775 0.53421 0.0
C528 C 0.70799 0.06707 0.15649 0.0
C529 C 0.68149 0.06782 0.16038 0.0
C530 C 0.72501 0.06495 0.17569 0.0
C531 C 0.72833 0.04434 0.23883 0.0
H532 H 0.79116 0.08335 0.24019 0.0
C533 C 0.80179 0.02711 0.31262 0.0
C534 C 0.81182 0.04874 0.32405 0.0
C535 C 0.78879 0.02931 0.29095 0.0
C536 C 0.77366 0.07239 0.24011 0.0
H537 H 0.65222 0.067 0.18767 0.0
H538 H 0.68182 0.06336 0.22107 0.0
H539 H 0.76188 0.08782 0.20638 0.0
H540 H 0.81731 0.08953 0.32103 0.0
H541 H 0.79436 0.09349 0.28305 0.0
H542 H 0.73965 0.02931 0.27266 0.0
C543 C 0.68948 0.06414 0.20314 0.0
C544 C 0.75698 0.07477 0.22063 0.0
C545 C 0.67247 0.06634 0.18396 0.0
C546 C 0.81001 0.07248 0.31252 0.0
C547 C 0.79677 0.07473 0.2908 0.0
C548 C 0.74499 0.04191 0.25819 0.0
C549 C 0.71598 0.06342 0.19928 0.0
C550 C 0.73403 0.06082 0.21979 0.0
C551 C 0.78521 0.05326 0.2802 0.0
C552 C 0.76791 0.05585 0.25912 0.0
H553 H 0.71567 0.06832 0.1386 0.0
H554 H 0.74526 0.06418 0.17201 0.0
H555 H 0.71102 0.0331 0.23871 0.0
H556 H 0.80303 0.00852 0.32098 0.0
H557 H 0.78077 0.01227 0.283 0.0
C558 C 0.4688 0.78415 0.33845 0.0
C559 C 0.45317 0.80483 0.34486 0.0
C560 C 0.4655 0.77167 0.3167 0.0
C561 C 0.44252 0.77894 0.25589 0.0
H562 H 0.44354 0.70491 0.25594 0.0
C563 C 0.4701 0.72067 0.17353 0.0
C564 C 0.45488 0.69974 0.16689 0.0
C565 C 0.46625 0.73315 0.19519 0.0
C566 C 0.44289 0.72555 0.25564 0.0
H567 H 0.42223 0.8291 0.33292 0.0
H568 H 0.41694 0.80754 0.29424 0.0
H569 H 0.44331 0.72815 0.29384 0.0
H570 H 0.42404 0.6751 0.17828 0.0
H571 H 0.41778 0.69668 0.21685 0.0
H572 H 0.44302 0.77634 0.2177 0.0
C573 C 0.43157 0.80093 0.30642 0.0
C574 C 0.44295 0.73886 0.2773 0.0
C575 C 0.43467 0.81333 0.32848 0.0
C576 C 0.43615 0.69108 0.1829 0.0
C577 C 0.43251 0.70347 0.20489 0.0
C578 C 0.44278 0.76563 0.23423 0.0
C579 C 0.44665 0.77964 0.30056 0.0
C580 C 0.44334 0.7657 0.27765 0.0
C581 C 0.44726 0.72494 0.21101 0.0
C582 C 0.44354 0.7388 0.23389 0.0
H583 H 0.48333 0.77708 0.35051 0.0
H584 H 0.47779 0.7557 0.31248 0.0
H585 H 0.44286 0.79958 0.25559 0.0
H586 H 0.48479 0.72789 0.16177 0.0
H587 H 0.47828 0.74927 0.1996 0.0
C588 C 0.68877 0.43734 0.32808 0.0
C589 C 0.69946 0.45271 0.34608 0.0
C590 C 0.70056 0.43554 0.3056 0.0
C591 C 0.76313 0.44319 0.27651 0.0
H592 H 0.72546 0.45714 0.21841 0.0
C593 C 0.8085 0.44342 0.181 0.0
C594 C 0.80188 0.46475 0.16709 0.0
C595 C 0.79622 0.43883 0.20287 0.0
C596 C 0.7362 0.45305 0.23449 0.0
H597 H 0.73074 0.47845 0.35434 0.0
H598 H 0.75107 0.47502 0.31568 0.0
H599 H 0.70273 0.45422 0.25646 0.0
H600 H 0.77782 0.49841 0.16574 0.0
H601 H 0.75663 0.49037 0.20348 0.0
H602 H 0.79668 0.44263 0.25465 0.0
C603 C 0.73376 0.46428 0.31886 0.0
C604 C 0.72315 0.45118 0.25621 0.0
C605 C 0.72189 0.46639 0.341 0.0
C606 C 0.78335 0.48171 0.17586 0.0
C607 C 0.77098 0.477 0.19743 0.0
C608 C 0.77614 0.44473 0.25475 0.0
C609 C 0.72343 0.4487 0.30097 0.0
C610 C 0.73657 0.44693 0.27753 0.0
C611 C 0.77692 0.45533 0.21101 0.0
C612 C 0.7629 0.4504 0.23361 0.0
H613 H 0.67159 0.42648 0.33145 0.0
H614 H 0.69213 0.42345 0.29205 0.0
H615 H 0.77393 0.43967 0.29268 0.0
H616 H 0.82256 0.4299 0.17469 0.0
H617 H 0.80124 0.42201 0.21304 0.0
C618 C 0.07937 0.68716 0.32848 0.0
C619 C 0.05534 0.6839 0.33915 0.0
C620 C 0.08165 0.70055 0.30688 0.0
C621 C 0.04456 0.72378 0.2549 0.0
H622 H 0.09286 0.77978 0.25348 0.0
C623 C 0.03291 0.80325 0.18662 0.0
C624 C 0.05462 0.81143 0.17418 0.0
C625 C 0.03523 0.78827 0.20707 0.0
C626 C 0.07949 0.76405 0.25346 0.0
H627 H 0.01486 0.6908 0.33507 0.0
H628 H 0.01871 0.71341 0.29733 0.0
H629 H 0.09336 0.7497 0.28695 0.0
H630 H 0.09592 0.81148 0.17408 0.0
H631 H 0.10007 0.78502 0.21002 0.0
H632 H 0.03047 0.73802 0.22169 0.0
C633 C 0.03582 0.70586 0.30554 0.0
C634 C 0.07983 0.74676 0.27259 0.0
C635 C 0.0336 0.6929 0.32719 0.0
C636 C 0.07885 0.8057 0.18351 0.0
C637 C 0.0812 0.79042 0.204 0.0
C638 C 0.04426 0.74093 0.23584 0.0
C639 C 0.0599 0.71044 0.29541 0.0
C640 C 0.06197 0.72677 0.27375 0.0
C641 C 0.05936 0.78074 0.21546 0.0
C642 C 0.06127 0.76167 0.23514 0.0
H643 H 0.09648 0.6807 0.33745 0.0
H644 H 0.10043 0.70362 0.2994 0.0
H645 H 0.03086 0.70833 0.25504 0.0
H646 H 0.014 0.80748 0.17988 0.0
H647 H 0.01801 0.78183 0.21585 0.0
C648 C 0.31136 0.92899 0.81638 0.0
C649 C 0.30344 0.94718 0.83328 0.0
C650 C 0.29854 0.92667 0.79442 0.0
C651 C 0.23612 0.93922 0.76651 0.0
H652 H 0.27235 0.94209 0.70634 0.0
C653 C 0.1872 0.93496 0.67218 0.0
C654 C 0.19524 0.95453 0.65675 0.0
C655 C 0.19978 0.93088 0.69405 0.0
C656 C 0.26199 0.94105 0.72303 0.0
H657 H 0.27621 0.97757 0.83994 0.0
H658 H 0.25405 0.9733 0.80214 0.0
H659 H 0.29639 0.94043 0.74382 0.0
H660 H 0.22228 0.98563 0.65269 0.0
H661 H 0.24402 0.97831 0.69029 0.0
H662 H 0.20172 0.94041 0.74572 0.0
C663 C 0.26994 0.96071 0.80586 0.0
C664 C 0.27576 0.93993 0.74443 0.0
C665 C 0.28287 0.96327 0.82748 0.0
C666 C 0.21558 0.97026 0.66397 0.0
C667 C 0.22825 0.96598 0.68549 0.0
C668 C 0.22235 0.93994 0.74508 0.0
C669 C 0.27736 0.94221 0.7892 0.0
C670 C 0.26296 0.93973 0.76642 0.0
C671 C 0.22081 0.94604 0.70061 0.0
C672 C 0.23515 0.94159 0.72315 0.0
H673 H 0.32702 0.91621 0.82033 0.0
H674 H 0.30473 0.91231 0.78181 0.0
H675 H 0.22576 0.93884 0.78322 0.0
H676 H 0.17171 0.92242 0.6671 0.0
H677 H 0.19357 0.91543 0.70548 0.0
C678 C 0.53828 0.28527 0.83787 0.0
C679 C 0.5542 0.30591 0.84386 0.0
C680 C 0.54116 0.27243 0.81624 0.0
C681 C 0.56333 0.27878 0.75511 0.0
H682 H 0.56239 0.20476 0.75578 0.0
C683 C 0.53611 0.21971 0.67301 0.0
C684 C 0.55202 0.19936 0.66625 0.0
C685 C 0.53951 0.2321 0.69479 0.0
C686 C 0.56298 0.22539 0.75532 0.0
H687 H 0.58525 0.32964 0.83132 0.0
H688 H 0.58977 0.30749 0.79288 0.0
H689 H 0.56277 0.22839 0.79351 0.0
H690 H 0.58351 0.17552 0.67767 0.0
H691 H 0.58894 0.19691 0.71647 0.0
H692 H 0.5626 0.2758 0.71694 0.0
C693 C 0.57525 0.3012 0.80528 0.0
C694 C 0.56301 0.23892 0.77688 0.0
C695 C 0.57259 0.31393 0.82721 0.0
C696 C 0.57087 0.19104 0.68237 0.0
C697 C 0.57405 0.20333 0.70449 0.0
C698 C 0.56293 0.26525 0.73357 0.0
C699 C 0.55984 0.27999 0.79981 0.0
C700 C 0.56269 0.26577 0.77699 0.0
C701 C 0.55871 0.22436 0.71064 0.0
C702 C 0.56225 0.23843 0.73345 0.0
H703 H 0.52386 0.27853 0.85017 0.0
H704 H 0.52867 0.25651 0.81235 0.0
H705 H 0.56302 0.29942 0.75463 0.0
H706 H 0.52129 0.22662 0.66119 0.0
H707 H 0.52706 0.24788 0.69923 0.0
C708 C 0.27687 0.54093 0.66597 0.0
C709 C 0.29963 0.55428 0.66145 0.0
C710 C 0.26399 0.54381 0.68754 0.0
C711 C 0.2723 0.55867 0.75017 0.0
H712 H 0.19873 0.56707 0.74937 0.0
C713 C 0.2097 0.53044 0.82949 0.0
C714 C 0.19171 0.54819 0.83785 0.0
C715 C 0.22231 0.53426 0.80789 0.0
C716 C 0.21927 0.565 0.74989 0.0
H717 H 0.32691 0.58089 0.67642 0.0
H718 H 0.30458 0.58532 0.71482 0.0
H719 H 0.22275 0.56891 0.71192 0.0
H720 H 0.17203 0.5834 0.82938 0.0
H721 H 0.19371 0.58967 0.79092 0.0
H722 H 0.26872 0.55381 0.78802 0.0
C723 C 0.2967 0.57285 0.70129 0.0
C724 C 0.233 0.56591 0.72849 0.0
C725 C 0.3095 0.57026 0.67938 0.0
C726 C 0.18566 0.56928 0.82338 0.0
C727 C 0.19816 0.57295 0.80147 0.0
C728 C 0.25852 0.5574 0.77152 0.0
C729 C 0.2736 0.55989 0.7054 0.0
C730 C 0.2596 0.56225 0.72836 0.0
C731 C 0.21712 0.55579 0.79387 0.0
C732 C 0.23181 0.56003 0.77154 0.0
H733 H 0.2686 0.52845 0.65264 0.0
H734 H 0.24651 0.53322 0.69033 0.0
H735 H 0.29273 0.55569 0.75062 0.0
H736 H 0.21476 0.51388 0.84003 0.0
H737 H 0.2364 0.52041 0.80225 0.0
C738 C 0.9399 0.18751 0.83024 0.0
C739 C 0.95807 0.19671 0.84661 0.0
C740 C 0.93714 0.19905 0.80773 0.0
C741 C 0.94865 0.26026 0.77703 0.0
H742 H 0.94799 0.22109 0.7184 0.0
C743 C 0.93949 0.3054 0.68167 0.0
C744 C 0.95755 0.2962 0.66525 0.0
C745 C 0.93667 0.29366 0.70409 0.0
C746 C 0.948 0.23228 0.73466 0.0
H747 H 0.98817 0.22465 0.85171 0.0
H748 H 0.98325 0.24454 0.81289 0.0
H749 H 0.94839 0.19895 0.75687 0.0
H750 H 0.98722 0.26787 0.65988 0.0
H751 H 0.98216 0.24764 0.69847 0.0
H752 H 0.94883 0.29359 0.75481 0.0
C753 C 0.97091 0.22871 0.81746 0.0
C754 C 0.94805 0.21959 0.75665 0.0
C755 C 0.97385 0.2171 0.83968 0.0
C756 C 0.973 0.27546 0.67195 0.0
C757 C 0.96999 0.26365 0.69405 0.0
C758 C 0.94828 0.27295 0.75504 0.0
C759 C 0.95228 0.22016 0.80136 0.0
C760 C 0.94905 0.23344 0.77807 0.0
C761 C 0.95161 0.27234 0.71028 0.0
C762 C 0.94862 0.25909 0.73361 0.0
H763 H 0.92734 0.17196 0.83507 0.0
H764 H 0.92267 0.192 0.79561 0.0
H765 H 0.94912 0.27145 0.79328 0.0
H766 H 0.92721 0.32124 0.67703 0.0
H767 H 0.9224 0.30083 0.71633 0.0
C768 C 0.42251 0.99812 0.94025 0.0
C769 C 0.41678 0.97319 0.93264 0.0
C770 C 0.44168 0.00261 0.95712 0.0
C771 C 0.49935 0.9747 0.98494 0.0
H772 H 0.48613 0.02501 0.03409 0.0
C773 C 0.57191 0.99547 0.06121 0.0
C774 C 0.57562 0.02128 0.06717 0.0
C775 C 0.55187 0.98813 0.04605 0.0
C776 C 0.49029 0.01107 0.02038 0.0
H777 H 0.42745 0.93349 0.9366 0.0
H778 H 0.4609 0.94135 0.96618 0.0
H779 H 0.45321 0.01514 0.00485 0.0
H780 H 0.56039 0.05936 0.06251 0.0
H781 H 0.52599 0.04675 0.03594 0.0
H782 H 0.53661 0.97092 1.00032 0.0
C783 C 0.45049 0.95743 0.95898 0.0
C784 C 0.47136 0.0054 0.00357 0.0
C785 C 0.43116 0.9529 0.94214 0.0
C786 C 0.55836 0.03938 0.05811 0.0
C787 C 0.53838 0.03207 0.04302 0.0
C788 C 0.51837 0.98045 1.00175 0.0
C789 C 0.45579 0.98234 0.9669 0.0
C790 C 0.47571 0.98737 0.98544 0.0
C791 C 0.53496 0.00637 0.03656 0.0
C792 C 0.51421 0.99896 0.01955 0.0
H793 H 0.41176 0.01425 0.93367 0.0
H794 H 0.44545 0.02208 0.96251 0.0
H795 H 0.50345 0.96086 0.97113 0.0
H796 H 0.58488 0.98101 0.06769 0.0
H797 H 0.54968 0.96813 0.04172 0.0
C798 C 0.51244 0.4397 0.93794 0.0
C799 C 0.53137 0.42131 0.94254 0.0
C800 C 0.508 0.45971 0.95397 0.0
C801 C 0.51925 0.47905 0.01723 0.0
H802 H 0.49969 0.54574 0.99374 0.0
C803 C 0.51144 0.56886 0.07804 0.0
C804 C 0.49058 0.58515 0.07397 0.0
C805 C 0.51642 0.54839 0.06261 0.0
C806 C 0.5049 0.52716 1.00062 0.0
H807 H 0.56063 0.41013 0.96797 0.0
H808 H 0.55353 0.44531 0.99526 0.0
H809 H 0.509 0.51172 0.96548 0.0
H810 H 0.45865 0.59254 0.05028 0.0
H811 H 0.46715 0.5569 0.02368 0.0
H812 H 0.51543 0.49476 0.05241 0.0
C813 C 0.5417 0.44398 0.97945 0.0
C814 C 0.51021 0.50758 0.98439 0.0
C815 C 0.54605 0.42388 0.96349 0.0
C816 C 0.47464 0.58023 0.05426 0.0
C817 C 0.47973 0.55995 0.03876 0.0
C818 C 0.51411 0.49872 0.03347 0.0
C819 C 0.52247 0.46209 0.97504 0.0
C820 C 0.51733 0.48317 0.99242 0.0
C821 C 0.50081 0.54391 0.04257 0.0
C822 C 0.50671 0.52298 0.02538 0.0
H823 H 0.50088 0.43865 0.92196 0.0
H824 H 0.49283 0.47304 0.94999 0.0
H825 H 0.52425 0.46046 0.02419 0.0
H826 H 0.52404 0.57209 0.09306 0.0
H827 H 0.53289 0.5365 0.06601 0.0
C828 C 0.06944 0.54366 0.94901 0.0
C829 C 0.08352 0.52256 0.94083 0.0
C830 C 0.04898 0.5404 0.96483 0.0
C831 C 0.00376 0.49148 0.98784 0.0
H832 H 0.99447 0.5394 0.03977 0.0
C833 C 0.93033 0.47372 0.06333 0.0
C834 C 0.91584 0.49474 0.07104 0.0
C835 C 0.95122 0.47705 0.04804 0.0
C836 C 0.99661 0.52595 0.02524 0.0
H837 H 0.08698 0.48141 0.94339 0.0
H838 H 0.05155 0.4758 0.9707 0.0
H839 H 0.02931 0.54558 0.01157 0.0
H840 H 0.91237 0.5359 0.06845 0.0
H841 H 0.9486 0.54163 0.04208 0.0
H842 H 0.97107 0.47186 1.00149 0.0
C843 C 0.056 0.49487 0.96459 0.0
C844 C 0.0166 0.52954 0.00901 0.0
C845 C 0.07641 0.49812 0.94882 0.0
C846 C 0.92318 0.51923 0.06334 0.0
C847 C 0.94405 0.52255 0.0481 0.0
C848 C 0.98379 0.48789 0.00408 0.0
C849 C 0.04202 0.51595 0.9729 0.0
C850 C 0.02048 0.51235 0.99007 0.0
C851 C 0.95824 0.50151 0.04004 0.0
C852 C 0.9799 0.50508 0.02301 0.0
H853 H 0.07409 0.56273 0.94309 0.0
H854 H 0.03845 0.55706 0.97055 0.0
H855 H 0.00586 0.47805 0.97329 0.0
H856 H 0.92557 0.45462 0.06909 0.0
H857 H 0.96194 0.46042 0.04255 0.0
C858 C 0.0098 0.07354 0.94629 0.0
C859 C 0.98915 0.09019 0.95 0.0
C860 C 0.01446 0.05325 0.96199 0.0
C861 C 0.99984 0.03067 0.02354 0.0
H862 H 0.02269 0.96543 0.99918 0.0
C863 C 0.00363 0.93914 0.0818 0.0
C864 C 0.02436 0.92251 0.07851 0.0
C865 C 1.00008 0.96017 0.06673 0.0
C866 C 0.01661 0.98361 0.00634 0.0
H867 H 0.9573 0.09828 0.97358 0.0
H868 H 0.96495 0.06274 1.00031 0.0
H869 H 0.01487 1.00046 0.97155 0.0
H870 H 0.05769 0.91525 0.0566 0.0
H871 H 0.05176 0.95201 0.03072 0.0
H872 H 1.00136 0.01369 0.05831 0.0
C873 C 0.97782 0.06554 0.98544 0.0
C874 C 0.01213 0.00375 0.99046 0.0
C875 C 0.9732 0.08582 0.96979 0.0
C876 C 0.04171 0.92776 0.05998 0.0
C877 C 0.0381 0.94869 0.04487 0.0
C878 C 0.00425 0.0105 0.03941 0.0
C879 C 0.99859 0.04902 0.98186 0.0
C880 C 0.00364 0.02757 0.99882 0.0
C881 C 0.0171 0.96504 0.04786 0.0
C882 C 0.01267 0.98669 0.03103 0.0
H883 H 0.0224 0.07609 0.9312 0.0
H884 H 0.03078 0.04111 0.95874 0.0
H885 H 0.99376 0.04884 0.03073 0.0
H886 H 0.98999 0.93574 0.09593 0.0
H887 H 0.98359 0.97224 0.06948 0.0
C888 C 0.43467 0.5422 0.56291 0.0
C889 C 0.41938 0.52219 0.5716 0.0
C890 C 0.45536 0.53726 0.54776 0.0
C891 C 0.48044 0.48811 0.50613 0.0
H892 H 0.54343 0.52627 0.51165 0.0
C893 C 0.57133 0.46191 0.45222 0.0
C894 C 0.58632 0.48204 0.44334 0.0
C895 C 0.55089 0.46668 0.46772 0.0
C896 C 0.52588 0.51561 0.50965 0.0
H897 H 0.41437 0.48111 0.57103 0.0
H898 H 0.45055 0.47255 0.54524 0.0
H899 H 0.50854 0.53486 0.5392 0.0
H900 H 0.59118 0.52314 0.44403 0.0
H901 H 0.55544 0.5314 0.47044 0.0
H902 H 0.49776 0.46888 0.47656 0.0
C903 C 0.44635 0.49214 0.54987 0.0
C904 C 0.50583 0.52055 0.5255 0.0
C905 C 0.42571 0.49707 0.56501 0.0
C906 C 0.58004 0.50709 0.45019 0.0
C907 C 0.55966 0.51185 0.46568 0.0
C908 C 0.50049 0.48316 0.49028 0.0
C909 C 0.46133 0.51216 0.54082 0.0
C910 C 0.48281 0.50687 0.52398 0.0
C911 C 0.54489 0.49172 0.47481 0.0
C912 C 0.5235 0.49687 0.49179 0.0
H913 H 0.43061 0.56175 0.56771 0.0
H914 H 0.46632 0.55321 0.54105 0.0
H915 H 0.46287 0.47747 0.50411 0.0
H916 H 0.57536 0.4424 0.44723 0.0
H917 H 0.54009 0.45065 0.47449 0.0
C918 C 0.01205 0.42481 0.57366 0.0
C919 C 0.99132 0.40845 0.56922 0.0
C920 C 0.01726 0.44533 0.55838 0.0
C921 C 0.00611 0.4674 0.49641 0.0
H922 H 0.02613 0.53351 0.52098 0.0
C923 C 0.01245 0.55658 0.43582 0.0
C924 C 0.03163 0.5747 0.44038 0.0
C925 C 0.0085 0.53604 0.45135 0.0
C926 C 0.02093 0.51509 0.51375 0.0
H927 H 0.95986 0.40105 0.54496 0.0
H928 H 0.9687 0.43687 0.51868 0.0
H929 H 0.01713 0.49877 0.54868 0.0
H930 H 0.06193 0.58493 0.46503 0.0
H931 H 0.05553 0.54883 0.49163 0.0
H932 H 0.01002 0.48356 0.46152 0.0
C933 C 0.98106 0.43376 0.53391 0.0
C934 C 0.0157 0.49515 0.52969 0.0
C935 C 0.97576 0.41337 0.54923 0.0
C936 C 0.04714 0.57133 0.46069 0.0
C937 C 0.04321 0.55074 0.4762 0.0
C938 C 0.01143 0.48728 0.48049 0.0
C939 C 1.002 0.4499 0.53813 0.0
C940 C 0.00805 0.47109 0.52123 0.0
C941 C 0.02367 0.53293 0.47189 0.0
C942 C 0.01878 0.51147 0.48891 0.0
H943 H 0.02433 0.42166 0.58892 0.0
H944 H 0.03364 0.45727 0.56212 0.0
H945 H 1.00074 0.44901 0.48922 0.0
H946 H 1.00029 0.55833 0.42029 0.0
H947 H 0.9931 0.52293 0.44749 0.0
C948 C 0.93564 0.00513 0.42419 0.0
C949 C 0.918 0.02498 0.42772 0.0
C950 C 0.95614 1.00162 0.43991 0.0
C951 C 0.9774 0.01681 0.50164 0.0
H952 H 0.04331 0.99491 0.47813 0.0
C953 C 0.06708 0.00933 0.56261 0.0
C954 C 0.08363 0.98861 0.5588 0.0
C955 C 0.04672 0.0141 0.54697 0.0
C956 C 0.02496 1.00075 0.48506 0.0
H957 H 0.90851 0.05687 0.45074 0.0
H958 H 0.94449 0.05113 0.47773 0.0
H959 H 0.00884 0.00317 0.44999 0.0
H960 H 0.09145 0.9567 0.53524 0.0
H961 H 0.05586 0.96466 0.50846 0.0
H962 H 0.99359 0.01437 0.53673 0.0
C963 C 0.94227 0.03802 0.46294 0.0
C964 C 0.00514 0.00551 0.46888 0.0
C965 C 0.92177 0.04154 0.4472 0.0
C966 C 0.07902 0.97262 0.53906 0.0
C967 C 0.05874 0.97742 0.52342 0.0
C968 C 0.99726 0.01208 0.51783 0.0
C969 C 0.95964 0.01787 0.45965 0.0
C970 C 0.98102 0.01349 0.47692 0.0
C971 C 0.04242 0.99835 0.52701 0.0
C972 C 0.02128 0.00384 0.50979 0.0
H973 H 0.93353 0.99213 0.40933 0.0
H974 H 0.96892 0.98575 0.43687 0.0
H975 H 0.95902 0.02255 0.50857 0.0
H976 H 0.06994 0.02195 0.57766 0.0
H977 H 0.03468 0.03049 0.55025 0.0
C978 C 0.46381 0.93441 0.44873 0.0
C979 C 0.48413 0.91919 0.4406 0.0
C980 C 0.46821 0.95498 0.46419 0.0
C981 C 0.51586 0.97996 0.50748 0.0
H982 H 0.47798 0.04298 0.50082 0.0
C983 C 0.5405 0.07104 0.56187 0.0
C984 C 0.52014 0.08616 0.57006 0.0
C985 C 0.53614 0.05046 0.54641 0.0
C986 C 0.48853 0.02541 0.50314 0.0
H987 H 0.52517 0.91413 0.44252 0.0
H988 H 0.5328 0.95013 0.46884 0.0
H989 H 0.47032 0.0081 0.47296 0.0
H990 H 0.47908 0.09105 0.56826 0.0
H991 H 0.47152 0.05506 0.5419 0.0
H992 H 0.53409 0.99728 0.53766 0.0
C993 C 0.51338 0.94596 0.46353 0.0
C994 C 0.48413 0.00537 0.48712 0.0
C995 C 0.509 0.92543 0.44809 0.0
C996 C 0.49527 0.07982 0.56263 0.0
C997 C 0.49094 0.05929 0.54717 0.0
C998 C 0.52027 1.0 0.5235 0.0
C999 C 0.49304 0.96091 0.47198 0.0
C1000 C 0.49773 0.98235 0.48905 0.0
C1001 C 0.51131 0.04444 0.53866 0.0
C1002 C 0.50666 0.02301 0.52158 0.0
H1003 H 0.44444 0.93041 0.44323 0.0
H1004 H 0.45202 0.96591 0.47042 0.0
H1005 H 0.52641 0.96239 0.50982 0.0
H1006 H 0.55987 0.07512 0.56732 0.0
H1007 H 0.55235 0.03959 0.54012 0.0
C1008 C 0.54377 0.28317 0.01749 0.0
C1009 C 0.5571 0.30633 0.01519 0.0
C1010 C 0.54447 0.26942 0.03872 0.0
C1011 C 0.54505 0.244 0.08665 0.0
H1012 H 0.61606 0.227 0.09729 0.0
C1013 C 0.6154 0.15468 0.11419 0.0
C1014 C 0.60519 0.13798 0.09706 0.0
C1015 C 0.60502 0.1791 0.11705 0.0
C1016 C 0.5961 0.2319 0.09536 0.0
H1017 H 0.58002 0.334 0.03457 0.0
H1018 H 0.58229 0.30904 0.0714 0.0
H1019 H 0.60515 0.2668 0.0776 0.0
H1020 H 0.57485 0.13228 0.07142 0.0
H1021 H 0.55635 0.17432 0.07676 0.0
H1022 H 0.53619 0.20787 0.10235 0.0
C1023 C 0.57109 0.30187 0.05659 0.0
C1024 C 0.58983 0.25479 0.08403 0.0
C1025 C 0.57 0.31599 0.03536 0.0
C1026 C 0.58305 0.14492 0.08468 0.0
C1027 C 0.57237 0.16896 0.08791 0.0
C1028 C 0.55132 0.22111 0.09795 0.0
C1029 C 0.55886 0.27811 0.05822 0.0
C1030 C 0.56437 0.2601 0.07799 0.0
C1031 C 0.58395 0.18677 0.10325 0.0
C1032 C 0.57698 0.21403 0.10078 0.0
H1033 H 0.5341 0.27455 0.00245 0.0
H1034 H 0.53529 0.25092 0.03914 0.0
H1035 H 0.52523 0.2479 0.08262 0.0
H1036 H 0.63255 0.1497 0.12391 0.0
H1037 H 0.61432 0.19245 0.12896 0.0
C1038 C 0.21136 0.57711 0.02047 0.0
C1039 C 0.20717 0.55357 0.00911 0.0
C1040 C 0.22904 0.57919 0.03899 0.0
C1041 C 0.28968 0.55085 0.0524 0.0
H1042 H 0.29153 0.60481 0.09969 0.0
C1043 C 0.36897 0.62267 0.0598 0.0
C1044 C 0.37827 0.63043 0.0821 0.0
C1045 C 0.34903 0.60525 0.05831 0.0
C1046 C 0.29128 0.58918 0.08705 0.0
H1047 H 0.21591 0.51317 0.01048 0.0
H1048 H 0.24728 0.51696 0.04255 0.0
H1049 H 0.25044 0.5884 0.0858 0.0
H1050 H 0.37467 0.62595 0.12037 0.0
H1051 H 0.33857 0.59592 0.11776 0.0
H1052 H 0.33043 0.55306 0.05227 0.0
C1053 C 0.23706 0.53384 0.03685 0.0
C1054 C 0.26779 0.57993 0.07896 0.0
C1055 C 0.2192 0.53172 0.01838 0.0
C1056 C 0.36779 0.62001 0.10299 0.0
C1057 C 0.34724 0.60297 0.10151 0.0
C1058 C 0.31309 0.5602 0.06036 0.0
C1059 C 0.24306 0.55781 0.04652 0.0
C1060 C 0.26677 0.56168 0.06058 0.0
C1061 C 0.33761 0.59563 0.07911 0.0
C1062 C 0.31403 0.5804 0.07675 0.0
H1063 H 0.20268 0.59442 0.01379 0.0
H1064 H 0.23335 0.59801 0.04585 0.0
H1065 H 0.28964 0.53688 0.03816 0.0
H1066 H 0.37686 0.63043 0.04347 0.0
H1067 H 0.34172 0.60023 0.04083 0.0
C1068 C 0.91689 0.21274 0.02608 0.0
C1069 C 0.94153 0.2096 0.01668 0.0
C1070 C 0.91236 0.23031 0.04424 0.0
C1071 C 0.9366 0.29192 0.06192 0.0
H1072 H 0.87885 0.28849 0.10491 0.0
C1073 C 0.88293 0.38223 0.09339 0.0
C1074 C 0.8572 0.38057 0.08653 0.0
C1075 C 0.89824 0.36031 0.09377 0.0
C1076 C 0.8953 0.28971 0.09329 0.0
H1077 H 0.9812 0.22048 0.02101 0.0
H1078 H 0.9731 0.25166 0.05251 0.0
H1079 H 0.89816 0.24915 0.09028 0.0
H1080 H 0.82702 0.35468 0.07579 0.0
H1081 H 0.85337 0.31676 0.07685 0.0
H1082 H 0.93265 0.33249 0.06375 0.0
C1083 C 0.95729 0.24066 0.04552 0.0
C1084 C 0.90632 0.26722 0.08489 0.0
C1085 C 0.96188 0.22288 0.0274 0.0
C1086 C 0.84681 0.35661 0.08105 0.0
C1087 C 0.86185 0.33481 0.08191 0.0
C1088 C 0.92564 0.31443 0.07043 0.0
C1089 C 0.93231 0.24529 0.05344 0.0
C1090 C 0.9261 0.26811 0.06801 0.0
C1091 C 0.8878 0.33642 0.08788 0.0
C1092 C 0.90397 0.31348 0.08509 0.0
H1093 H 0.90065 0.20318 0.01818 0.0
H1094 H 0.89282 0.23358 0.04966 0.0
H1095 H 0.95174 0.29332 0.04886 0.0
H1096 H 0.89139 0.40051 0.09767 0.0
H1097 H 0.91825 0.36205 0.09828 0.0
C1098 C 0.29352 0.96165 0.01554 0.0
C1099 C 0.30312 0.9392 0.00514 0.0
C1100 C 0.27698 0.9604 0.03507 0.0
C1101 C 0.22434 0.94648 0.05296 0.0
H1102 H 0.22186 0.89182 0.09952 0.0
C1103 C 0.14218 0.87838 0.06258 0.0
C1104 C 0.13324 0.87119 0.08514 0.0
C1105 C 0.16289 0.89479 0.0605 0.0
C1106 C 0.22236 0.90766 0.08711 0.0
H1107 H 0.30498 0.89803 0.00891 0.0
H1108 H 0.27666 0.89594 0.04283 0.0
H1109 H 0.26305 0.90607 0.08401 0.0
H1110 H 0.13834 0.87557 0.12328 0.0
H1111 H 0.1758 0.90372 0.11961 0.0
H1112 H 0.18357 0.94653 0.05455 0.0
C1113 C 0.28182 0.91455 0.03601 0.0
C1114 C 0.24589 0.9157 0.07812 0.0
C1115 C 0.29814 0.91577 0.01641 0.0
C1116 C 0.14492 0.88112 0.10571 0.0
C1117 C 0.16624 0.89709 0.10363 0.0
C1118 C 0.20088 0.93832 0.0618 0.0
C1119 C 0.26996 0.93669 0.04471 0.0
C1120 C 0.24697 0.93417 0.05994 0.0
C1121 C 0.17545 0.90387 0.08096 0.0
C1122 C 0.19965 0.9179 0.07793 0.0
H1123 H 0.29754 0.9801 0.00774 0.0
H1124 H 0.26842 0.97782 0.04166 0.0
H1125 H 0.22444 0.96066 0.03891 0.0
H1126 H 0.13337 0.87095 0.0465 0.0
H1127 H 0.16988 0.8994 0.04282 0.0
C1128 C 0.60881 0.36893 0.41336 0.0
C1129 C 0.63493 0.36411 0.41663 0.0
C1130 C 0.59141 0.34863 0.41269 0.0
C1131 C 0.58732 0.27763 0.40933 0.0
H1132 H 0.53927 0.28476 0.46136 0.0
C1133 C 0.57405 0.20462 0.4815 0.0
C1134 C 0.55114 0.20283 0.4944 0.0
C1135 C 0.57599 0.22083 0.46187 0.0
C1136 C 0.55191 0.28243 0.44624 0.0
H1137 H 0.66357 0.33453 0.41995 0.0
H1138 H 0.63361 0.29949 0.41861 0.0
H1139 H 0.55864 0.32256 0.44413 0.0
H1140 H 0.51137 0.21438 0.49472 0.0
H1141 H 0.51513 0.24349 0.46087 0.0
H1142 H 0.58221 0.23732 0.41293 0.0
C1143 C 0.62632 0.31868 0.41653 0.0
C1144 C 0.56305 0.30419 0.43634 0.0
C1145 C 0.64352 0.33882 0.41762 0.0
C1146 C 0.52954 0.21585 0.48569 0.0
C1147 C 0.53159 0.23239 0.46618 0.0
C1148 C 0.57624 0.25588 0.41927 0.0
C1149 C 0.60001 0.32331 0.41477 0.0
C1150 C 0.58211 0.30186 0.41888 0.0
C1151 C 0.55515 0.23586 0.45475 0.0
C1152 C 0.55969 0.25803 0.43886 0.0
H1153 H 0.60175 0.38831 0.41253 0.0
H1154 H 0.57122 0.35274 0.41136 0.0
H1155 H 0.60158 0.27533 0.39552 0.0
H1156 H 0.59121 0.1952 0.48764 0.0
H1157 H 0.59452 0.22325 0.45366 0.0
C1158 C 0.14153 0.60741 0.41097 0.0
C1159 C 0.144 0.63324 0.41722 0.0
C1160 C 0.16317 0.59181 0.40954 0.0
C1161 C 0.23396 0.59355 0.40726 0.0
H1162 H 0.2307 0.5395 0.45428 0.0
C1163 C 0.30779 0.57884 0.47794 0.0
C1164 C 0.31038 0.55537 0.48981 0.0
C1165 C 0.29198 0.58104 0.45804 0.0
C1166 C 0.23203 0.55386 0.44045 0.0
H1167 H 0.17096 0.66333 0.42553 0.0
H1168 H 0.20839 0.63642 0.42281 0.0
H1169 H 0.19148 0.55779 0.43885 0.0
H1170 H 0.30118 0.51507 0.4879 0.0
H1171 H 0.27296 0.51913 0.45338 0.0
H1172 H 0.27456 0.59094 0.41026 0.0
C1173 C 0.18993 0.62809 0.41898 0.0
C1174 C 0.20946 0.5644 0.43163 0.0
C1175 C 0.16842 0.64345 0.42086 0.0
C1176 C 0.299 0.5336 0.47964 0.0
C1177 C 0.28295 0.53587 0.45978 0.0
C1178 C 0.25654 0.58295 0.416 0.0
C1179 C 0.18755 0.60201 0.41378 0.0
C1180 C 0.21028 0.58547 0.41621 0.0
C1181 C 0.27824 0.55988 0.44957 0.0
C1182 C 0.25577 0.56422 0.43393 0.0
H1183 H 0.12288 0.5991 0.40803 0.0
H1184 H 0.16083 0.57172 0.40565 0.0
H1185 H 0.23507 0.60948 0.39501 0.0
H1186 H 0.31601 0.59611 0.48521 0.0
H1187 H 0.28868 0.5999 0.45081 0.0
C1188 C 0.88912 0.13285 0.40218 0.0
C1189 C 0.86298 0.13651 0.40642 0.0
C1190 C 0.90609 0.15341 0.40387 0.0
C1191 C 0.93457 0.19531 0.43145 0.0
H1192 H 0.91536 0.264 0.41321 0.0
C1193 C 0.93075 0.29452 0.48095 0.0
C1194 C 0.95429 0.29421 0.49297 0.0
C1195 C 0.92659 0.27883 0.46124 0.0
C1196 C 0.92122 0.24493 0.41823 0.0
H1197 H 0.83387 0.16463 0.41427 0.0
H1198 H 0.86318 0.20027 0.41695 0.0
H1199 H 0.89419 0.22762 0.39456 0.0
H1200 H 0.99289 0.27937 0.49185 0.0
H1201 H 0.98543 0.25158 0.45753 0.0
H1202 H 0.9601 0.21245 0.45645 0.0
C1203 C 0.87073 0.18169 0.41233 0.0
C1204 C 0.90913 0.22413 0.40753 0.0
C1205 C 0.85394 0.16119 0.41107 0.0
C1206 C 0.97432 0.27959 0.48338 0.0
C1207 C 0.9701 0.26374 0.46368 0.0
C1208 C 0.94659 0.21611 0.44222 0.0
C1209 C 0.89704 0.17798 0.40931 0.0
C1210 C 0.91471 0.19918 0.41501 0.0
C1211 C 0.94583 0.26235 0.45308 0.0
C1212 C 0.93901 0.24115 0.43668 0.0
H1213 H 0.89657 0.11399 0.39855 0.0
H1214 H 0.9263 0.15004 0.40151 0.0
H1215 H 0.93921 0.17631 0.43765 0.0
H1216 H 0.91476 0.30527 0.48786 0.0
H1217 H 0.90756 0.27808 0.45375 0.0
C1218 C 0.3417 0.8602 0.41953 0.0
C1219 C 0.36687 0.86892 0.41736 0.0
C1220 C 0.32133 0.87705 0.41756 0.0
C1221 C 0.30565 0.94116 0.43281 0.0
H1222 H 0.23977 0.9208 0.40771 0.0
C1223 C 0.21605 0.978 0.4773 0.0
C1224 C 0.20157 0.95724 0.48566 0.0
C1225 C 0.2334 0.97477 0.45859 0.0
C1226 C 0.25805 0.92703 0.41458 0.0
H1227 H 0.39059 0.90194 0.41058 0.0
H1228 H 0.35463 0.93193 0.40802 0.0
H1229 H 0.27841 0.90002 0.3932 0.0
H1230 H 0.1921 0.91756 0.47909 0.0
H1231 H 0.22187 0.91207 0.44669 0.0
H1232 H 0.28533 0.96652 0.45571 0.0
C1233 C 0.35081 0.91187 0.41084 0.0
C1234 C 0.28015 0.91518 0.40623 0.0
C1235 C 0.37131 0.89478 0.41233 0.0
C1236 C 0.20275 0.93406 0.47313 0.0
C1237 C 0.21994 0.93089 0.45441 0.0
C1238 C 0.28354 0.95294 0.44124 0.0
C1239 C 0.32564 0.90315 0.41376 0.0
C1240 C 0.30398 0.92106 0.41634 0.0
C1241 C 0.23644 0.95079 0.44778 0.0
C1242 C 0.25939 0.94485 0.43328 0.0
H1243 H 0.33769 0.84034 0.42328 0.0
H1244 H 0.30223 0.86979 0.42033 0.0
H1245 H 0.32374 0.94604 0.44098 0.0
H1246 H 0.21512 0.99633 0.48614 0.0
H1247 H 0.24552 0.99061 0.45358 0.0
C1248 C 0.47402 0.71637 0.98633 0.0
C1249 C 0.45826 0.69624 0.99416 0.0
C1250 C 0.46665 0.73174 0.9671 0.0
C1251 C 0.40492 0.75092 0.9434 0.0
H1252 H 0.44401 0.79847 0.90513 0.0
C1253 C 0.35275 0.83229 0.90119 0.0
C1254 C 0.36316 0.85645 0.90542 0.0
C1255 C 0.3678 0.81059 0.90301 0.0
C1256 C 0.43289 0.78524 0.91569 0.0
H1257 H 0.4248 0.67384 0.98431 0.0
H1258 H 0.41361 0.69901 0.9501 0.0
H1259 H 0.4654 0.76178 0.92364 0.0
H1260 H 0.39769 0.8773 0.91357 0.0
H1261 H 0.42398 0.83889 0.9185 0.0
H1262 H 0.37283 0.77449 0.93677 0.0
C1263 C 0.43068 0.70407 0.95993 0.0
C1264 C 0.4451 0.76424 0.92624 0.0
C1265 C 0.43747 0.68927 0.97959 0.0
C1266 C 0.38934 0.85877 0.9101 0.0
C1267 C 0.40436 0.83681 0.91279 0.0
C1268 C 0.39287 0.77166 0.93296 0.0
C1269 C 0.44385 0.72672 0.9548 0.0
C1270 C 0.43122 0.74698 0.94046 0.0
C1271 C 0.39336 0.81244 0.91034 0.0
C1272 C 0.40663 0.78925 0.91916 0.0
H1273 H 0.49111 0.72157 0.99599 0.0
H1274 H 0.47766 0.74872 0.96333 0.0
H1275 H 0.39366 0.73874 0.95489 0.0
H1276 H 0.3326 0.83001 0.8977 0.0
H1277 H 0.35888 0.79218 0.90032 0.0
C1278 C 0.78212 0.48743 0.98521 0.0
C1279 C 0.79672 0.46693 0.99407 0.0
C1280 C 0.76579 0.484 0.96568 0.0
C1281 C 0.71762 0.4591 0.9456 0.0
H1282 H 0.72966 0.41184 0.89363 0.0
C1283 C 0.66945 0.36384 0.91189 0.0
C1284 C 0.64353 0.3704 0.91188 0.0
C1285 C 0.68813 0.38269 0.91193 0.0
C1286 C 0.72595 0.42532 0.90786 0.0
H1287 H 0.80716 0.42741 0.98748 0.0
H1288 H 0.7797 0.42192 0.95338 0.0
H1289 H 0.7656 0.43409 0.91197 0.0
H1290 H 0.6167 0.40178 0.91036 0.0
H1291 H 0.64959 0.43503 0.91077 0.0
H1292 H 0.67834 0.44869 0.94303 0.0
C1293 C 0.78069 0.4406 0.96157 0.0
C1294 C 0.7465 0.43811 0.91827 0.0
C1295 C 0.7966 0.44384 0.98127 0.0
C1296 C 0.63659 0.39622 0.91048 0.0
C1297 C 0.65538 0.41521 0.91075 0.0
C1298 C 0.69708 0.44621 0.93528 0.0
C1299 C 0.76421 0.46021 0.95429 0.0
C1300 C 0.74267 0.45392 0.93818 0.0
C1301 C 0.68135 0.40862 0.9121 0.0
C1302 C 0.70126 0.42798 0.91731 0.0
H1303 H 0.78225 0.50576 0.99406 0.0
H1304 H 0.75346 0.49952 0.96025 0.0
H1305 H 0.71406 0.47109 0.96098 0.0
H1306 H 0.67538 0.34407 0.91269 0.0
H1307 H 0.70788 0.37685 0.91334 0.0
C1308 C 0.0346 0.78469 0.99361 0.0
C1309 C 0.05099 0.80453 1.00097 0.0
C1310 C 0.04175 0.76818 0.97516 0.0
C1311 C 0.10291 0.74495 0.95422 0.0
H1312 H 0.06314 0.69932 0.91444 0.0
C1313 C 0.15262 0.66118 0.91316 0.0
C1314 C 0.14076 0.63747 0.91613 0.0
C1315 C 0.13871 0.68359 0.91522 0.0
C1316 C 0.07444 0.71196 0.92548 0.0
H1317 H 0.08563 0.82501 0.99124 0.0
H1318 H 0.09671 0.79769 0.95842 0.0
H1319 H 0.04292 0.73725 0.93189 0.0
H1320 H 0.10488 0.61826 0.92236 0.0
H1321 H 0.08051 0.65786 0.92776 0.0
H1322 H 0.13394 0.71958 0.94917 0.0
C1323 C 0.07912 0.79391 0.96791 0.0
C1324 C 0.06291 0.73368 0.93538 0.0
C1325 C 0.07245 0.80992 0.98673 0.0
C1326 C 0.11435 0.63643 0.91993 0.0
C1327 C 0.10044 0.65907 0.92287 0.0
C1328 C 0.11428 0.72346 0.94448 0.0
C1329 C 0.06504 0.77169 0.96328 0.0
C1330 C 0.07707 0.75033 0.95 0.0
C1331 C 0.1128 0.68289 0.92152 0.0
C1332 C 0.10027 0.70659 0.93007 0.0
H1333 H 0.01714 0.78063 0.00313 0.0
H1334 H 0.03013 0.75151 0.97174 0.0
H1335 H 0.11425 0.75669 0.96607 0.0
H1336 H 0.17297 0.66247 0.91026 0.0
H1337 H 0.14868 0.70156 0.91333 0.0
C1338 C 0.75186 0.01642 0.02402 0.0
C1339 C 0.72913 0.02998 0.02002 0.0
C1340 C 0.77153 0.01698 0.00711 0.0
C1341 C 0.78801 0.04207 0.94602 0.0
H1342 H 0.85117 0.06127 0.97719 0.0
C1343 C 0.84952 0.12715 0.92183 0.0
C1344 C 0.87618 0.12522 0.92266 0.0
C1345 C 0.83434 0.10604 0.92696 0.0
C1346 C 0.83394 0.05533 0.96806 0.0
H1347 H 0.70887 0.05369 0.99448 0.0
H1348 H 0.74269 0.05489 0.96559 0.0
H1349 H 0.8183 0.03957 0.99994 0.0
H1350 H 0.90794 0.09942 0.92807 0.0
H1351 H 0.88121 0.06265 0.93823 0.0
H1352 H 0.80291 0.06046 0.91481 0.0
C1353 C 0.74543 0.04325 0.98134 0.0
C1354 C 0.81503 0.04278 0.98109 0.0
C1355 C 0.72586 0.0426 0.99809 0.0
C1356 C 0.88743 0.10142 0.92733 0.0
C1357 C 0.87219 0.0804 0.93312 0.0
C1358 C 0.80674 0.05506 0.93313 0.0
C1359 C 0.7689 0.03127 0.98596 0.0
C1360 C 0.79127 0.03727 0.97058 0.0
C1361 C 0.84553 0.08276 0.93354 0.0
C1362 C 0.82934 0.06284 0.9444 0.0
H1363 H 0.75485 0.00623 0.04061 0.0
H1364 H 0.78918 0.00716 0.0111 0.0
H1365 H 0.77025 0.03743 0.93715 0.0
H1366 H 0.8404 0.14527 0.91818 0.0
H1367 H 0.81382 0.10844 0.92742 0.0
C1368 C 0.42446 0.80246 0.52852 0.0
C1369 C 0.44805 0.80487 0.51684 0.0
C1370 C 0.42184 0.7863 0.54811 0.0
C1371 C 0.41961 0.75122 0.59047 0.0
H1372 H 0.44253 0.68525 0.56784 0.0
C1373 C 0.39182 0.63699 0.59636 0.0
C1374 C 0.3661 0.64033 0.59007 0.0
C1375 C 0.40813 0.65814 0.59783 0.0
C1376 C 0.43658 0.70347 0.57501 0.0
H1377 H 0.48811 0.7946 0.51866 0.0
H1378 H 0.48327 0.76571 0.55256 0.0
H1379 H 0.4615 0.7238 0.55166 0.0
H1380 H 0.33687 0.66823 0.58189 0.0
H1381 H 0.36489 0.70478 0.58489 0.0
H1382 H 0.39307 0.73073 0.61223 0.0
C1383 C 0.46679 0.7762 0.54629 0.0
C1384 C 0.44748 0.72566 0.56574 0.0
C1385 C 0.46949 0.79263 0.52677 0.0
C1386 C 0.35664 0.66507 0.58668 0.0
C1387 C 0.37267 0.68607 0.58867 0.0
C1388 C 0.40868 0.72904 0.59969 0.0
C1389 C 0.44269 0.77199 0.55645 0.0
C1390 C 0.4379 0.74974 0.57221 0.0
C1391 C 0.39871 0.68285 0.59367 0.0
C1392 C 0.41593 0.70503 0.59086 0.0
H1393 H 0.40742 0.81129 0.5214 0.0
H1394 H 0.40291 0.78333 0.55529 0.0
H1395 H 0.41222 0.76951 0.59616 0.0
H1396 H 0.39955 0.61805 0.59903 0.0
H1397 H 0.42818 0.65515 0.60156 0.0
C1398 C 0.71469 0.46272 0.52722 0.0
C1399 C 0.70323 0.44121 0.51668 0.0
C1400 C 0.7327 0.45983 0.54545 0.0
C1401 C 0.78596 0.44314 0.55913 0.0
H1402 H 0.79004 0.38648 0.60343 0.0
C1403 C 0.86743 0.37321 0.56213 0.0
C1404 C 0.87705 0.36437 0.58393 0.0
C1405 C 0.84709 0.39024 0.56164 0.0
C1406 C 0.78916 0.40283 0.59164 0.0
H1407 H 0.69963 0.40006 0.51905 0.0
H1408 H 0.73058 0.39512 0.55075 0.0
H1409 H 0.74829 0.40253 0.59096 0.0
H1410 H 0.87362 0.36644 0.62239 0.0
H1411 H 0.83688 0.39578 0.62155 0.0
H1412 H 0.82675 0.44208 0.55834 0.0
C1413 C 0.72577 0.41425 0.54502 0.0
C1414 C 0.76529 0.41189 0.58437 0.0
C1415 C 0.70792 0.4171 0.52672 0.0
C1416 C 0.86654 0.37332 0.60539 0.0
C1417 C 0.8456 0.38994 0.60491 0.0
C1418 C 0.80974 0.43397 0.56625 0.0
C1419 C 0.73941 0.43541 0.55363 0.0
C1420 C 0.76348 0.43122 0.56705 0.0
C1421 C 0.83558 0.3983 0.58297 0.0
C1422 C 0.81151 0.41288 0.58157 0.0
H1423 H 0.71098 0.48165 0.52034 0.0
H1424 H 0.74259 0.47655 0.55204 0.0
H1425 H 0.78531 0.45795 0.54567 0.0
H1426 H 0.87529 0.36646 0.54539 0.0
H1427 H 0.83949 0.39605 0.54449 0.0
C1428 C 0.0357 0.70931 0.52074 0.0
C1429 C 0.05787 0.69787 0.51152 0.0
C1430 C 0.03743 0.72799 0.53848 0.0
C1431 C 0.05287 0.78201 0.55058 0.0
H1432 H 0.10744 0.78894 0.5969 0.0
C1433 C 0.12243 0.86381 0.55235 0.0
C1434 C 0.12962 0.87515 0.57396 0.0
C1435 C 0.10573 0.84319 0.55218 0.0
C1436 C 0.09165 0.78728 0.58452 0.0
H1437 H 0.09893 0.69503 0.51584 0.0
H1438 H 0.10185 0.7271 0.54669 0.0
H1439 H 0.09224 0.74644 0.58581 0.0
H1440 H 0.12497 0.87442 0.61235 0.0
H1441 H 0.09627 0.83718 0.61215 0.0
H1442 H 0.05377 0.8227 0.54782 0.0
C1443 C 0.08309 0.72178 0.54029 0.0
C1444 C 0.08307 0.76299 0.57805 0.0
C1445 C 0.0814 0.70328 0.52248 0.0
C1446 C 0.1194 0.86599 0.59548 0.0
C1447 C 0.10313 0.84479 0.59537 0.0
C1448 C 0.06158 0.80621 0.5569 0.0
C1449 C 0.06133 0.73539 0.54748 0.0
C1450 C 0.06457 0.7601 0.56004 0.0
C1451 C 0.09636 0.83314 0.57368 0.0
C1452 C 0.08195 0.80895 0.57294 0.0
H1453 H 0.01717 0.70506 0.51317 0.0
H1454 H 0.02027 0.73785 0.54398 0.0
H1455 H 0.03871 0.78053 0.53655 0.0
H1456 H 0.13011 0.87061 0.53556 0.0
H1457 H 0.10112 0.83431 0.53525 0.0
C1458 C 0.63257 0.11128 0.59017 0.0
C1459 C 0.63667 0.13759 0.58757 0.0
C1460 C 0.65305 0.09422 0.58817 0.0
C1461 C 0.72405 0.09107 0.58535 0.0
H1462 H 0.71267 0.04413 0.53299 0.0
C1463 C 0.7936 0.07669 0.50979 0.0
C1464 C 0.79491 0.05348 0.49728 0.0
C1465 C 0.77761 0.07933 0.52949 0.0
C1466 C 0.7162 0.05651 0.54811 0.0
H1467 H 0.66535 0.16686 0.58261 0.0
H1468 H 0.70078 0.13747 0.57944 0.0
H1469 H 0.67635 0.06317 0.55322 0.0
H1470 H 0.78219 0.01407 0.49742 0.0
H1471 H 0.75349 0.01907 0.53143 0.0
H1472 H 0.76396 0.0859 0.57896 0.0
C1473 C 0.68199 0.12977 0.58298 0.0
C1474 C 0.69533 0.06744 0.55974 0.0
C1475 C 0.66162 0.14665 0.58454 0.0
C1476 C 0.78119 0.03244 0.50617 0.0
C1477 C 0.76487 0.0352 0.52577 0.0
C1478 C 0.74491 0.08019 0.57371 0.0
C1479 C 0.67791 0.10334 0.58408 0.0
C1480 C 0.69909 0.08597 0.5775 0.0
C1481 C 0.7623 0.05894 0.53711 0.0
C1482 C 0.74117 0.06395 0.55406 0.0
H1483 H 0.61346 0.10385 0.5925 0.0
H1484 H 0.64937 0.07392 0.58906 0.0
H1485 H 0.7275 0.10494 0.59932 0.0
H1486 H 0.80347 0.09349 0.50344 0.0
H1487 H 0.77582 0.098 0.53758 0.0
C1488 C 0.78232 0.35748 0.11548 0.0
C1489 C 0.76325 0.3763 0.11428 0.0
C1490 C 0.77588 0.33168 0.11665 0.0
C1491 C 0.72527 0.28554 0.13039 0.0
H1492 H 0.75718 0.24506 0.08087 0.0
C1493 C 0.69072 0.18358 0.1057 0.0
C1494 C 0.70856 0.16639 0.09627 0.0
C1495 C 0.69782 0.20873 0.11089 0.0
C1496 C 0.74843 0.25578 0.09519 0.0
H1497 H 0.72245 0.38272 0.11511 0.0
H1498 H 0.71118 0.33746 0.11751 0.0
H1499 H 0.76887 0.28951 0.08551 0.0
H1500 H 0.74796 0.16129 0.08621 0.0
H1501 H 0.76088 0.20456 0.09645 0.0
H1502 H 0.70508 0.25169 0.14036 0.0
C1503 C 0.73112 0.34282 0.11727 0.0
C1504 C 0.75509 0.28139 0.09773 0.0
C1505 C 0.73757 0.36869 0.11575 0.0
C1506 C 0.73386 0.17434 0.09326 0.0
C1507 C 0.74112 0.19924 0.09891 0.0
C1508 C 0.71887 0.25969 0.12811 0.0
C1509 C 0.75022 0.32404 0.11703 0.0
C1510 C 0.74353 0.29659 0.11526 0.0
C1511 C 0.72305 0.21708 0.10712 0.0
C1512 C 0.73031 0.24444 0.11039 0.0
H1513 H 0.80226 0.36252 0.11434 0.0
H1514 H 0.79101 0.31762 0.11667 0.0
H1515 H 0.71614 0.29683 0.14413 0.0
H1516 H 0.67101 0.17791 0.10788 0.0
H1517 H 0.68324 0.22184 0.1169 0.0
C1518 C 0.16602 0.79557 0.1188 0.0
C1519 C 0.14805 0.77568 0.11755 0.0
C1520 C 0.19209 0.79031 0.12072 0.0
C1521 C 0.23891 0.7391 0.13496 0.0
H1522 H 0.28397 0.77984 0.09559 0.0
C1523 C 0.3433 0.71013 0.11397 0.0
C1524 C 0.36173 0.72956 0.11235 0.0
C1525 C 0.31749 0.71607 0.11711 0.0
C1526 C 0.27176 0.7685 0.10698 0.0
H1527 H 0.14361 0.73461 0.11835 0.0
H1528 H 0.18906 0.72542 0.12122 0.0
H1529 H 0.23867 0.78959 0.09664 0.0
H1530 H 0.36743 0.77044 0.11394 0.0
H1531 H 0.32252 0.78079 0.11949 0.0
H1532 H 0.27211 0.71775 0.14496 0.0
C1533 C 0.18297 0.74513 0.12091 0.0
C1534 C 0.24571 0.77411 0.1076 0.0
C1535 C 0.15686 0.7504 0.11902 0.0
C1536 C 0.35375 0.75502 0.11471 0.0
C1537 C 0.32796 0.76096 0.11785 0.0
C1538 C 0.26502 0.73345 0.13431 0.0
C1539 C 0.20097 0.76502 0.12139 0.0
C1540 C 0.22889 0.75944 0.12152 0.0
C1541 C 0.30943 0.74159 0.11872 0.0
C1542 C 0.28177 0.74803 0.12023 0.0
H1543 H 0.16013 0.81528 0.11746 0.0
H1544 H 0.20533 0.80614 0.12141 0.0
H1545 H 0.22661 0.7276 0.14613 0.0
H1546 H 0.34862 0.69033 0.11188 0.0
H1547 H 0.30375 0.70066 0.11741 0.0
C1548 C 0.75454 0.34624 0.38899 0.0
C1549 C 0.72959 0.35607 0.38912 0.0
C1550 C 0.75903 0.3206 0.3834 0.0
C1551 C 0.72684 0.25841 0.38521 0.0
H1552 H 0.78495 0.23513 0.34853 0.0
C1553 C 0.74483 0.15113 0.37084 0.0
C1554 C 0.77014 0.14278 0.37343 0.0
C1555 C 0.73924 0.17715 0.36886 0.0
C1556 C 0.76873 0.24128 0.35898 0.0
H1557 H 0.68989 0.34655 0.38263 0.0
H1558 H 0.69775 0.30214 0.37278 0.0
H1559 H 0.77669 0.28076 0.35236 0.0
H1560 H 0.80949 0.15542 0.37513 0.0
H1561 H 0.79982 0.2005 0.3721 0.0
H1562 H 0.71922 0.21918 0.39252 0.0
C1563 C 0.71384 0.31421 0.37719 0.0
C1564 C 0.76398 0.26746 0.36113 0.0
C1565 C 0.70937 0.33983 0.38261 0.0
C1566 C 0.78979 0.16103 0.37293 0.0
C1567 C 0.78421 0.18703 0.37115 0.0
C1568 C 0.73165 0.23229 0.3832 0.0
C1569 C 0.73866 0.30415 0.37795 0.0
C1570 C 0.74308 0.27634 0.37443 0.0
C1571 C 0.75882 0.19551 0.36959 0.0
C1572 C 0.75279 0.22333 0.37022 0.0
H1573 H 0.77056 0.35824 0.39367 0.0
H1574 H 0.77838 0.31346 0.38426 0.0
H1575 H 0.7108 0.26459 0.39592 0.0
H1576 H 0.72928 0.13757 0.3708 0.0
H1577 H 0.71949 0.18288 0.36713 0.0
C1578 C 0.34943 0.74844 0.3919 0.0
C1579 C 0.35868 0.7736 0.39195 0.0
C1580 C 0.32361 0.74342 0.38757 0.0
C1581 C 0.26101 0.7738 0.39374 0.0
H1582 H 0.23668 0.71624 0.35678 0.0
C1583 C 0.15342 0.75263 0.38606 0.0
C1584 C 0.14609 0.72695 0.388 0.0
C1585 C 0.17902 0.75923 0.38263 0.0
C1586 C 0.24313 0.73228 0.36734 0.0
H1587 H 0.34792 0.81315 0.38656 0.0
H1588 H 0.3031 0.80439 0.37901 0.0
H1589 H 0.28224 0.72573 0.35802 0.0
H1590 H 0.16008 0.68805 0.38713 0.0
H1591 H 0.20447 0.69943 0.38171 0.0
H1592 H 0.22223 0.77993 0.40382 0.0
C1593 C 0.31581 0.78854 0.38248 0.0
C1594 C 0.26926 0.73774 0.36798 0.0
C1595 C 0.34163 0.79353 0.3866 0.0
C1596 C 0.16488 0.70801 0.3855 0.0
C1597 C 0.19048 0.71458 0.38232 0.0
C1598 C 0.23494 0.76823 0.39326 0.0
C1599 C 0.30639 0.76348 0.38336 0.0
C1600 C 0.27853 0.75844 0.38136 0.0
C1601 C 0.19801 0.7403 0.38128 0.0
C1602 C 0.22562 0.74725 0.38025 0.0
H1603 H 0.36206 0.73264 0.3957 0.0
H1604 H 0.31695 0.7239 0.38847 0.0
H1605 H 0.26754 0.78965 0.40452 0.0
H1606 H 0.13938 0.76766 0.38756 0.0
H1607 H 0.18396 0.77922 0.38138 0.0
C1608 C 0.28592 0.83727 0.86911 0.0
C1609 C 0.26706 0.85456 0.87661 0.0
C1610 C 0.2801 0.81158 0.8653 0.0
C1611 C 0.23046 0.76376 0.88171 0.0
H1612 H 0.27127 0.71942 0.84164 0.0
C1613 C 0.20868 0.65675 0.87225 0.0
C1614 C 0.22901 0.64071 0.87901 0.0
C1615 C 0.21273 0.68265 0.86785 0.0
C1616 C 0.25973 0.73163 0.85287 0.0
H1617 H 0.22656 0.85877 0.88306 0.0
H1618 H 0.21607 0.81439 0.8752 0.0
H1619 H 0.27808 0.76546 0.84031 0.0
H1620 H 0.27003 0.63921 0.88386 0.0
H1621 H 0.2771 0.68444 0.87566 0.0
H1622 H 0.21182 0.72981 0.89381 0.0
C1623 C 0.23578 0.82028 0.87369 0.0
C1624 C 0.26369 0.75805 0.85227 0.0
C1625 C 0.24175 0.84589 0.87805 0.0
C1626 C 0.25382 0.65098 0.87926 0.0
C1627 C 0.25793 0.67687 0.8744 0.0
C1628 C 0.22618 0.73746 0.88192 0.0
C1629 C 0.25504 0.8025 0.86817 0.0
C1630 C 0.24938 0.77452 0.86699 0.0
C1631 C 0.23729 0.6931 0.86943 0.0
C1632 C 0.24098 0.7211 0.86776 0.0
H1633 H 0.30555 0.84317 0.86733 0.0
H1634 H 0.29562 0.79872 0.86121 0.0
H1635 H 0.2194 0.77546 0.89377 0.0
H1636 H 0.18933 0.64978 0.87149 0.0
H1637 H 0.19651 0.69468 0.86377 0.0
C1638 C 0.85117 0.2517 0.88389 0.0
C1639 C 0.85946 0.22682 0.88887 0.0
C1640 C 0.82534 0.25677 0.87984 0.0
C1641 C 0.76183 0.22608 0.86913 0.0
H1642 H 0.73694 0.28737 0.89991 0.0
C1643 C 0.65547 0.24464 0.89309 0.0
C1644 C 0.64628 0.26969 0.89058 0.0
C1645 C 0.68118 0.23901 0.8888 0.0
C1646 C 0.74358 0.27036 0.8909 0.0
H1647 H 0.84722 0.18758 0.89271 0.0
H1648 H 0.8022 0.19639 0.88617 0.0
H1649 H 0.78234 0.27851 0.89962 0.0
H1650 H 0.65705 0.30827 0.8807 0.0
H1651 H 0.70146 0.29838 0.87302 0.0
H1652 H 0.72266 0.21765 0.86122 0.0
C1653 C 0.81562 0.21201 0.88487 0.0
C1654 C 0.76971 0.26528 0.89065 0.0
C1655 C 0.8415 0.20692 0.88865 0.0
C1656 C 0.6632 0.28871 0.88263 0.0
C1657 C 0.68885 0.28311 0.87848 0.0
C1658 C 0.73558 0.23109 0.86955 0.0
C1659 C 0.80709 0.23712 0.88099 0.0
C1660 C 0.77925 0.24302 0.87986 0.0
C1661 C 0.6983 0.25835 0.88207 0.0
C1662 C 0.72617 0.25326 0.88052 0.0
H1663 H 0.86463 0.26734 0.88364 0.0
H1664 H 0.81964 0.27624 0.87629 0.0
H1665 H 0.76845 0.20891 0.86038 0.0
H1666 H 0.64293 0.22953 0.89901 0.0
H1667 H 0.68788 0.21974 0.89181 0.0
C1668 C 0.24284 0.65431 0.60774 0.0
C1669 C 0.26837 0.64632 0.60922 0.0
C1670 C 0.2364 0.68003 0.61058 0.0
C1671 C 0.26186 0.7432 0.63056 0.0
H1672 H 0.21128 0.76934 0.58636 0.0
C1673 C 0.2496 0.85074 0.60867 0.0
C1674 C 0.22467 0.86003 0.60561 0.0
C1675 C 0.25405 0.82467 0.61214 0.0
C1676 C 0.2252 0.76233 0.59907 0.0
H1677 H 0.30704 0.65925 0.61578 0.0
H1678 H 0.29599 0.70391 0.62021 0.0
H1679 H 0.22039 0.72392 0.58723 0.0
H1680 H 0.1848 0.84904 0.60414 0.0
H1681 H 0.19253 0.80377 0.6104 0.0
H1682 H 0.26709 0.78194 0.64183 0.0
C1683 C 0.28078 0.69032 0.61726 0.0
C1684 C 0.2304 0.7362 0.59963 0.0
C1685 C 0.28716 0.66458 0.61464 0.0
C1686 C 0.20423 0.84268 0.60672 0.0
C1687 C 0.20868 0.81663 0.61002 0.0
C1688 C 0.25676 0.76941 0.62987 0.0
C1689 C 0.25536 0.6985 0.61479 0.0
C1690 C 0.2489 0.72624 0.61528 0.0
C1691 C 0.23366 0.80725 0.61243 0.0
C1692 C 0.23846 0.7793 0.61402 0.0
H1693 H 0.22784 0.64071 0.604 0.0
H1694 H 0.21654 0.68546 0.60914 0.0
H1695 H 0.27595 0.73625 0.64311 0.0
H1696 H 0.26572 0.86361 0.60806 0.0
H1697 H 0.27353 0.81806 0.61378 0.0
C1698 C 0.85228 0.24246 0.61757 0.0
C1699 C 0.86117 0.26747 0.61423 0.0
C1700 C 0.8263 0.23768 0.62107 0.0
C1701 C 0.76416 0.26902 0.6352 0.0
H1702 H 0.73614 0.21101 0.60125 0.0
C1703 C 0.65617 0.25585 0.6156 0.0
C1704 C 0.64615 0.23099 0.61641 0.0
C1705 C 0.68233 0.26013 0.61869 0.0
C1706 C 0.74366 0.22708 0.61116 0.0
H1707 H 0.84964 0.30712 0.61223 0.0
H1708 H 0.80446 0.29882 0.61807 0.0
H1709 H 0.78185 0.2186 0.60055 0.0
H1710 H 0.65602 0.19123 0.62207 0.0
H1711 H 0.70128 0.19873 0.6277 0.0
H1712 H 0.72569 0.27776 0.64525 0.0
C1713 C 0.81756 0.28287 0.61849 0.0
C1714 C 0.76995 0.23143 0.61079 0.0
C1715 C 0.84355 0.28765 0.61514 0.0
C1716 C 0.66284 0.21066 0.62142 0.0
C1717 C 0.68895 0.21492 0.62439 0.0
C1718 C 0.73779 0.26472 0.63547 0.0
C1719 C 0.80851 0.25778 0.62113 0.0
C1720 C 0.78058 0.25253 0.62269 0.0
C1721 C 0.69912 0.23963 0.62257 0.0
C1722 C 0.72722 0.24376 0.62334 0.0
H1723 H 0.86541 0.22655 0.61726 0.0
H1724 H 0.82014 0.21815 0.62353 0.0
H1725 H 0.77166 0.28526 0.64485 0.0
H1726 H 0.64388 0.27198 0.61205 0.0
H1727 H 0.68953 0.2794 0.61709 0.0
loop_
_geom_bond_atom_site_label_1
_geom_bond_atom_site_label_2
_geom_bond_distance
_geom_bond_site_symmetry_2
_ccdc_geom_bond_type
C0 C1 1.351 . S
C0 N3 1.368 . S
C0 H5 0.931 . S
C1 C0 1.351 . S
C1 N2 1.373 . S
C1 H29 0.934 . S
N2 C1 1.373 . S
N2 C4 1.340 . S
N3 C0 1.368 . S
N3 C4 1.321 . S
N3 Co6 2.135 . S
C4 N2 1.340 . S
C4 N3 1.321 . S
C4 H28 0.930 . S
H5 C0 0.931 . S
Co6 N3 2.135 . S
Co6 N9 2.121 . S
Co6 O14 2.055 . S
Co6 O17 2.039 . S
Co6 N20 2.140 . S
C7 O8 1.227 . S
C7 O17 1.265 . S
O8 C7 1.227 . S
N9 Co6 2.121 . S
N9 C11 1.375 . S
N9 C12 1.313 . S
C10 C11 1.338 . S
C10 N13 1.377 . S
C10 H30 0.930 . S
C11 N9 1.375 . S
C11 C10 1.338 . S
C11 H15 0.931 . S
C12 N9 1.313 . S
C12 N13 1.344 . S
C12 H16 0.930 . S
N13 C10 1.377 . S
N13 C12 1.344 . S
O14 Co6 2.055 . S
O14 C18 1.253 . S
H15 C11 0.931 . S
H16 C12 0.930 . S
O17 Co6 2.039 . S
O17 C7 1.265 . S
C18 O14 1.253 . S
C18 O19 1.227 . S
O19 C18 1.227 . S
N20 Co6 2.140 . S
N20 C23 1.346 . S
N20 C24 1.345 . S
C21 C22 1.387 . S
C21 C25 1.391 . S
C22 C21 1.387 . S
C22 C23 1.369 . S
C22 H31 0.929 . S
C23 N20 1.346 . S
C23 C22 1.369 . S
C23 H26 0.928 . S
C24 N20 1.345 . S
C24 C25 1.371 . S
C24 H27 0.931 . S
C25 C21 1.391 . S
C25 C24 1.371 . S
C25 H32 0.930 . S
H26 C23 0.928 . S
H27 C24 0.931 . S
H28 C4 0.930 . S
H29 C1 0.934 . S
H30 C10 0.930 . S
H31 C22 0.929 . S
H32 C25 0.930 . S
C33 C34 1.351 . S
C33 N36 1.368 . S
C33 H38 0.931 . S
C34 C33 1.351 . S
C34 N35 1.373 . S
C34 H62 0.930 . S
N35 C34 1.373 . S
N35 C37 1.340 . S
N36 C33 1.368 . S
N36 C37 1.321 . S
N36 Co39 2.135 . S
C37 N35 1.340 . S
C37 N36 1.321 . S
C37 H61 0.930 . S
H38 C33 0.931 . S
Co39 N36 2.135 . S
Co39 N42 2.121 . S
Co39 O47 2.055 . S
Co39 O50 2.039 . S
Co39 N53 2.140 . S
C40 O41 1.227 . S
C40 O50 1.265 . S
O41 C40 1.227 . S
N42 Co39 2.121 . S
N42 C44 1.375 . S
N42 C45 1.313 . S
C43 C44 1.338 . S
C43 N46 1.377 . S
C43 H63 0.930 . S
C44 N42 1.375 . S
C44 C43 1.338 . S
C44 H48 0.931 . S
C45 N42 1.313 . S
C45 N46 1.344 . S
C45 H49 0.930 . S
N46 C43 1.377 . S
N46 C45 1.344 . S
O47 Co39 2.055 . S
O47 C51 1.253 . S
H48 C44 0.931 . S
H49 C45 0.930 . S
O50 Co39 2.039 . S
O50 C40 1.265 . S
C51 O47 1.253 . S
C51 O52 1.227 . S
O52 C51 1.227 . S
N53 Co39 2.140 . S
N53 C56 1.346 . S
N53 C57 1.345 . S
C54 C55 1.387 . S
C54 C58 1.391 . S
C55 C54 1.387 . S
C55 C56 1.369 . S
C55 H64 0.929 . S
C56 N53 1.346 . S
C56 C55 1.369 . S
C56 H59 0.928 . S
C57 N53 1.345 . S
C57 C58 1.371 . S
C57 H60 0.931 . S
C58 C54 1.391 . S
C58 C57 1.371 . S
C58 H65 0.930 . S
H59 C56 0.928 . S
H60 C57 0.931 . S
H61 C37 0.930 . S
H62 C34 0.930 . S
H63 C43 0.930 . S
H64 C55 0.929 . S
H65 C58 0.930 . S
C66 C67 1.351 . S
C66 N69 1.368 . S
C66 H71 0.931 . S
C67 C66 1.351 . S
C67 N68 1.373 . S
C67 H95 0.930 . S
N68 C67 1.373 . S
N68 C70 1.340 . S
N69 C66 1.368 . S
N69 C70 1.321 . S
N69 Co72 2.135 . S
C70 N68 1.340 . S
C70 N69 1.321 . S
C70 H94 0.930 . S
H71 C66 0.931 . S
Co72 N69 2.135 . S
Co72 N75 2.121 . S
Co72 O80 2.055 . S
Co72 O83 2.039 . S
Co72 N86 2.140 . S
C73 O74 1.227 . S
C73 O83 1.265 . S
O74 C73 1.227 . S
N75 Co72 2.121 . S
N75 C77 1.375 . S
N75 C78 1.313 . S
C76 C77 1.338 . S
C76 N79 1.377 . S
C76 H96 0.930 . S
C77 N75 1.375 . S
C77 C76 1.338 . S
C77 H81 0.931 . S
C78 N75 1.313 . S
C78 N79 1.344 . S
C78 H82 0.930 . S
N79 C76 1.377 . S
N79 C78 1.344 . S
O80 Co72 2.055 . S
O80 C84 1.253 . S
H81 C77 0.931 . S
H82 C78 0.930 . S
O83 Co72 2.039 . S
O83 C73 1.265 . S
C84 O80 1.253 . S
C84 O85 1.227 . S
O85 C84 1.227 . S
N86 Co72 2.140 . S
N86 C89 1.346 . S
N86 C90 1.345 . S
C87 C88 1.387 . S
C87 C91 1.391 . S
C88 C87 1.387 . S
C88 C89 1.369 . S
C88 H97 0.929 . S
C89 N86 1.346 . S
C89 C88 1.369 . S
C89 H92 0.928 . S
C90 N86 1.345 . S
C90 C91 1.371 . S
C90 H93 0.931 . S
C91 C87 1.391 . S
C91 C90 1.371 . S
C91 H98 0.930 . S
H92 C89 0.928 . S
H93 C90 0.931 . S
H94 C70 0.930 . S
H95 C67 0.930 . S
H96 C76 0.930 . S
H97 C88 0.929 . S
H98 C91 0.930 . S
C99 C100 1.351 . S
C99 N102 1.368 . S
C99 H104 0.931 . S
C100 C99 1.351 . S
C100 N101 1.373 . S
C100 H128 0.934 . S
N101 C100 1.373 . S
N101 C103 1.340 . S
N102 C99 1.368 . S
N102 C103 1.321 . S
N102 Co105 2.135 . S
C103 N101 1.340 . S
C103 N102 1.321 . S
C103 H127 0.930 . S
H104 C99 0.931 . S
Co105 N102 2.135 . S
Co105 N108 2.121 . S
Co105 O113 2.055 . S
Co105 O116 2.039 . S
Co105 N119 2.140 . S
C106 O107 1.227 . S
C106 O116 1.265 . S
O107 C106 1.227 . S
N108 Co105 2.121 . S
N108 C110 1.375 . S
N108 C111 1.313 . S
C109 C110 1.338 . S
C109 N112 1.377 . S
C109 H129 0.930 . S
C110 N108 1.375 . S
C110 C109 1.338 . S
C110 H114 0.931 . S
C111 N108 1.313 . S
C111 N112 1.344 . S
C111 H115 0.930 . S
N112 C109 1.377 . S
N112 C111 1.344 . S
O113 Co105 2.055 . S
O113 C117 1.253 . S
H114 C110 0.931 . S
H115 C111 0.930 . S
O116 Co105 2.039 . S
O116 C106 1.265 . S
C117 O113 1.253 . S
C117 O118 1.227 . S
O118 C117 1.227 . S
N119 Co105 2.140 . S
N119 C122 1.346 . S
N119 C123 1.345 . S
C120 C121 1.387 . S
C120 C124 1.391 . S
C121 C120 1.387 . S
C121 C122 1.369 . S
C121 H130 0.929 . S
C122 N119 1.346 . S
C122 C121 1.369 . S
C122 H125 0.928 . S
C123 N119 1.345 . S
C123 C124 1.371 . S
C123 H126 0.931 . S
C124 C120 1.391 . S
C124 C123 1.371 . S
C124 H131 0.930 . S
H125 C122 0.928 . S
H126 C123 0.931 . S
H127 C103 0.930 . S
H128 C100 0.934 . S
H129 C109 0.930 . S
H130 C121 0.929 . S
H131 C124 0.930 . S
C132 C133 1.351 . S
C132 N135 1.368 . S
C132 H137 0.931 . S
C133 C132 1.351 . S
C133 N134 1.373 . S
C133 H161 0.930 . S
N134 C133 1.373 . S
N134 C136 1.340 . S
N135 C132 1.368 . S
N135 C136 1.321 . S
N135 Co138 2.135 . S
C136 N134 1.340 . S
C136 N135 1.321 . S
C136 H160 0.930 . S
H137 C132 0.931 . S
Co138 N135 2.135 . S
Co138 N141 2.121 . S
Co138 O146 2.055 . S
Co138 O149 2.039 . S
Co138 N152 2.140 . S
C139 O140 1.227 . S
C139 O149 1.265 . S
O140 C139 1.227 . S
N141 Co138 2.121 . S
N141 C143 1.375 . S
N141 C144 1.313 . S
C142 C143 1.338 . S
C142 N145 1.377 . S
C142 H162 0.930 . S
C143 N141 1.375 . S
C143 C142 1.338 . S
C143 H147 0.931 . S
C144 N141 1.313 . S
C144 N145 1.344 . S
C144 H148 0.930 . S
N145 C142 1.377 . S
N145 C144 1.344 . S
O146 Co138 2.055 . S
O146 C150 1.253 . S
H147 C143 0.931 . S
H148 C144 0.930 . S
O149 Co138 2.039 . S
O149 C139 1.265 . S
C150 O146 1.253 . S
C150 O151 1.227 . S
O151 C150 1.227 . S
N152 Co138 2.140 . S
N152 C155 1.346 . S
N152 C156 1.345 . S
C153 C154 1.387 . S
C153 C157 1.391 . S
C154 C153 1.387 . S
C154 C155 1.369 . S
C154 H163 0.929 . S
C155 N152 1.346 . S
C155 C154 1.369 . S
C155 H158 0.928 . S
C156 N152 1.345 . S
C156 C157 1.371 . S
C156 H159 0.931 . S
C157 C153 1.391 . S
C157 C156 1.371 . S
C157 H164 0.930 . S
H158 C155 0.928 . S
H159 C156 0.931 . S
H160 C136 0.930 . S
H161 C133 0.930 . S
H162 C142 0.930 . S
H163 C154 0.929 . S
H164 C157 0.930 . S
C165 C166 1.351 . S
C165 N168 1.368 . S
C165 H170 0.931 . S
C166 C165 1.351 . S
C166 N167 1.373 . S
C166 H194 0.934 . S
N167 C166 1.373 . S
N167 C169 1.340 . S
N168 C165 1.368 . S
N168 C169 1.321 . S
N168 Co171 2.135 . S
C169 N167 1.340 . S
C169 N168 1.321 . S
C169 H193 0.930 . S
H170 C165 0.931 . S
Co171 N168 2.135 . S
Co171 N174 2.121 . S
Co171 O179 2.055 . S
Co171 O182 2.039 . S
Co171 N185 2.140 . S
C172 O173 1.227 . S
C172 O182 1.265 . S
O173 C172 1.227 . S
N174 Co171 2.121 . S
N174 C176 1.375 . S
N174 C177 1.313 . S
C175 C176 1.338 . S
C175 N178 1.377 . S
C175 H195 0.930 . S
C176 N174 1.375 . S
C176 C175 1.338 . S
C176 H180 0.931 . S
C177 N174 1.313 . S
C177 N178 1.344 . S
C177 H181 0.930 . S
N178 C175 1.377 . S
N178 C177 1.344 . S
O179 Co171 2.055 . S
O179 C183 1.253 . S
H180 C176 0.931 . S
H181 C177 0.930 . S
O182 Co171 2.039 . S
O182 C172 1.265 . S
C183 O179 1.253 . S
C183 O184 1.227 . S
O184 C183 1.227 . S
N185 Co171 2.140 . S
N185 C188 1.346 . S
N185 C189 1.345 . S
C186 C187 1.387 . S
C186 C190 1.391 . S
C187 C186 1.387 . S
C187 C188 1.369 . S
C187 H196 0.929 . S
C188 N185 1.346 . S
C188 C187 1.369 . S
C188 H191 0.928 . S
C189 N185 1.345 . S
C189 C190 1.371 . S
C189 H192 0.931 . S
C190 C186 1.391 . S
C190 C189 1.371 . S
C190 H197 0.930 . S
H191 C188 0.928 . S
H192 C189 0.931 . S
H193 C169 0.930 . S
H194 C166 0.934 . S
H195 C175 0.930 . S
H196 C187 0.929 . S
H197 C190 0.930 . S
C198 C199 1.351 . S
C198 N201 1.368 . S
C198 H203 0.931 . S
C199 C198 1.351 . S
C199 N200 1.373 . S
C199 H227 0.934 . S
N200 C199 1.373 . S
N200 C202 1.340 . S
N201 C198 1.368 . S
N201 C202 1.321 . S
N201 Co204 2.135 . S
C202 N200 1.340 . S
C202 N201 1.321 . S
C202 H226 0.930 . S
H203 C198 0.931 . S
Co204 N201 2.135 . S
Co204 N207 2.121 . S
Co204 O212 2.055 . S
Co204 O215 2.039 . S
Co204 N218 2.140 . S
C205 O206 1.227 . S
C205 O215 1.265 . S
O206 C205 1.227 . S
N207 Co204 2.121 . S
N207 C209 1.375 . S
N207 C210 1.313 . S
C208 C209 1.338 . S
C208 N211 1.377 . S
C208 H228 0.930 . S
C209 N207 1.375 . S
C209 C208 1.338 . S
C209 H213 0.931 . S
C210 N207 1.313 . S
C210 N211 1.344 . S
C210 H214 0.930 . S
N211 C208 1.377 . S
N211 C210 1.344 . S
O212 Co204 2.055 . S
O212 C216 1.253 . S
H213 C209 0.931 . S
H214 C210 0.930 . S
O215 Co204 2.039 . S
O215 C205 1.265 . S
C216 O212 1.253 . S
C216 O217 1.227 . S
O217 C216 1.227 . S
N218 Co204 2.140 . S
N218 C221 1.346 . S
N218 C222 1.345 . S
C219 C220 1.387 . S
C219 C223 1.391 . S
C220 C219 1.387 . S
C220 C221 1.369 . S
C220 H229 0.929 . S
C221 N218 1.346 . S
C221 C220 1.369 . S
C221 H224 0.928 . S
C222 N218 1.345 . S
C222 C223 1.371 . S
C222 H225 0.931 . S
C223 C219 1.391 . S
C223 C222 1.371 . S
C223 H230 0.930 . S
H224 C221 0.928 . S
H225 C222 0.931 . S
H226 C202 0.930 . S
H227 C199 0.934 . S
H228 C208 0.930 . S
H229 C220 0.929 . S
H230 C223 0.930 . S
C231 C232 1.351 . S
C231 N234 1.368 . S
C231 H236 0.931 . S
C232 C231 1.351 . S
C232 N233 1.373 . S
C232 H260 0.930 . S
N233 C232 1.373 . S
N233 C235 1.340 . S
N234 C231 1.368 . S
N234 C235 1.321 . S
N234 Co237 2.135 . S
C235 N233 1.340 . S
C235 N234 1.321 . S
C235 H259 0.930 . S
H236 C231 0.931 . S
Co237 N234 2.135 . S
Co237 N240 2.121 . S
Co237 O245 2.055 . S
Co237 O248 2.039 . S
Co237 N251 2.140 . S
C238 O239 1.227 . S
C238 O248 1.265 . S
O239 C238 1.227 . S
N240 Co237 2.121 . S
N240 C242 1.375 . S
N240 C243 1.313 . S
C241 C242 1.338 . S
C241 N244 1.377 . S
C241 H261 0.930 . S
C242 N240 1.375 . S
C242 C241 1.338 . S
C242 H246 0.931 . S
C243 N240 1.313 . S
C243 N244 1.344 . S
C243 H247 0.930 . S
N244 C241 1.377 . S
N244 C243 1.344 . S
O245 Co237 2.055 . S
O245 C249 1.253 . S
H246 C242 0.931 . S
H247 C243 0.930 . S
O248 Co237 2.039 . S
O248 C238 1.265 . S
C249 O245 1.253 . S
C249 O250 1.227 . S
O250 C249 1.227 . S
N251 Co237 2.140 . S
N251 C254 1.346 . S
N251 C255 1.345 . S
C252 C253 1.387 . S
C252 C256 1.391 . S
C253 C252 1.387 . S
C253 C254 1.369 . S
C253 H262 0.929 . S
C254 N251 1.346 . S
C254 C253 1.369 . S
C254 H257 0.928 . S
C255 N251 1.345 . S
C255 C256 1.371 . S
C255 H258 0.931 . S
C256 C252 1.391 . S
C256 C255 1.371 . S
C256 H263 0.930 . S
H257 C254 0.928 . S
H258 C255 0.931 . S
H259 C235 0.930 . S
H260 C232 0.930 . S
H261 C241 0.930 . S
H262 C253 0.929 . S
H263 C256 0.930 . S
C264 C265 1.351 . S
C264 N267 1.368 . S
C264 H269 0.931 . S
C265 C264 1.351 . S
C265 N266 1.373 . S
C265 H293 0.934 . S
N266 C265 1.373 . S
N266 C268 1.340 . S
N267 C264 1.368 . S
N267 C268 1.321 . S
N267 Co270 2.135 . S
C268 N266 1.340 . S
C268 N267 1.321 . S
C268 H292 0.930 . S
H269 C264 0.931 . S
Co270 N267 2.135 . S
Co270 N273 2.121 . S
Co270 O278 2.055 . S
Co270 O281 2.039 . S
Co270 N284 2.140 . S
C271 O272 1.227 . S
C271 O281 1.265 . S
O272 C271 1.227 . S
N273 Co270 2.121 . S
N273 C275 1.375 . S
N273 C276 1.313 . S
C274 C275 1.338 . S
C274 N277 1.377 . S
C274 H294 0.930 . S
C275 N273 1.375 . S
C275 C274 1.338 . S
C275 H279 0.931 . S
C276 N273 1.313 . S
C276 N277 1.344 . S
C276 H280 0.930 . S
N277 C274 1.377 . S
N277 C276 1.344 . S
O278 Co270 2.055 . S
O278 C282 1.253 . S
H279 C275 0.931 . S
H280 C276 0.930 . S
O281 Co270 2.039 . S
O281 C271 1.265 . S
C282 O278 1.253 . S
C282 O283 1.227 . S
O283 C282 1.227 . S
N284 Co270 2.140 . S
N284 C287 1.346 . S
N284 C288 1.345 . S
C285 C286 1.387 . S
C285 C289 1.391 . S
C286 C285 1.387 . S
C286 C287 1.369 . S
C286 H295 0.929 . S
C287 N284 1.346 . S
C287 C286 1.369 . S
C287 H290 0.928 . S
C288 N284 1.345 . S
C288 C289 1.371 . S
C288 H291 0.931 . S
C289 C285 1.391 . S
C289 C288 1.371 . S
C289 H296 0.930 . S
H290 C287 0.928 . S
H291 C288 0.931 . S
H292 C268 0.930 . S
H293 C265 0.934 . S
H294 C274 0.930 . S
H295 C286 0.929 . S
H296 C289 0.930 . S
C297 C298 1.351 . S
C297 N300 1.368 . S
C297 H302 0.931 . S
C298 C297 1.351 . S
C298 N299 1.373 . S
C298 H326 0.930 . S
N299 C298 1.373 . S
N299 C301 1.340 . S
N300 C297 1.368 . S
N300 C301 1.321 . S
N300 Co303 2.135 . S
C301 N299 1.340 . S
C301 N300 1.321 . S
C301 H325 0.930 . S
H302 C297 0.931 . S
Co303 N300 2.135 . S
Co303 N306 2.121 . S
Co303 O311 2.055 . S
Co303 O314 2.039 . S
Co303 N317 2.140 . S
C304 O305 1.227 . S
C304 O314 1.265 . S
O305 C304 1.227 . S
N306 Co303 2.121 . S
N306 C308 1.375 . S
N306 C309 1.313 . S
C307 C308 1.338 . S
C307 N310 1.377 . S
C307 H327 0.930 . S
C308 N306 1.375 . S
C308 C307 1.338 . S
C308 H312 0.931 . S
C309 N306 1.313 . S
C309 N310 1.344 . S
C309 H313 0.930 . S
N310 C307 1.377 . S
N310 C309 1.344 . S
O311 Co303 2.055 . S
O311 C315 1.253 . S
H312 C308 0.931 . S
H313 C309 0.930 . S
O314 Co303 2.039 . S
O314 C304 1.265 . S
C315 O311 1.253 . S
C315 O316 1.227 . S
O316 C315 1.227 . S
N317 Co303 2.140 . S
N317 C320 1.346 . S
N317 C321 1.345 . S
C318 C319 1.387 . S
C318 C322 1.391 . S
C319 C318 1.387 . S
C319 C320 1.369 . S
C319 H328 0.929 . S
C320 N317 1.346 . S
C320 C319 1.369 . S
C320 H323 0.928 . S
C321 N317 1.345 . S
C321 C322 1.371 . S
C321 H324 0.931 . S
C322 C318 1.391 . S
C322 C321 1.371 . S
C322 H329 0.930 . S
H323 C320 0.928 . S
H324 C321 0.931 . S
H325 C301 0.930 . S
H326 C298 0.930 . S
H327 C307 0.930 . S
H328 C319 0.929 . S
H329 C322 0.930 . S
C330 C331 1.351 . S
C330 N333 1.368 . S
C330 H335 0.931 . S
C331 C330 1.351 . S
C331 N332 1.373 . S
C331 H359 0.930 . S
N332 C331 1.373 . S
N332 C334 1.340 . S
N333 C330 1.368 . S
N333 C334 1.321 . S
N333 Co336 2.135 . S
C334 N332 1.340 . S
C334 N333 1.321 . S
C334 H358 0.930 . S
H335 C330 0.931 . S
Co336 N333 2.135 . S
Co336 N339 2.121 . S
Co336 O344 2.055 . S
Co336 O347 2.039 . S
Co336 N350 2.140 . S
C337 O338 1.227 . S
C337 O347 1.265 . S
O338 C337 1.227 . S
N339 Co336 2.121 . S
N339 C341 1.375 . S
N339 C342 1.313 . S
C340 C341 1.338 . S
C340 N343 1.377 . S
C340 H360 0.930 . S
C341 N339 1.375 . S
C341 C340 1.338 . S
C341 H345 0.931 . S
C342 N339 1.313 . S
C342 N343 1.344 . S
C342 H346 0.930 . S
N343 C340 1.377 . S
N343 C342 1.344 . S
O344 Co336 2.055 . S
O344 C348 1.253 . S
H345 C341 0.931 . S
H346 C342 0.930 . S
O347 Co336 2.039 . S
O347 C337 1.265 . S
C348 O344 1.253 . S
C348 O349 1.227 . S
O349 C348 1.227 . S
N350 Co336 2.140 . S
N350 C353 1.346 . S
N350 C354 1.345 . S
C351 C352 1.387 . S
C351 C355 1.391 . S
C352 C351 1.387 . S
C352 C353 1.369 . S
C352 H361 0.929 . S
C353 N350 1.346 . S
C353 C352 1.369 . S
C353 H356 0.928 . S
C354 N350 1.345 . S
C354 C355 1.371 . S
C354 H357 0.931 . S
C355 C351 1.391 . S
C355 C354 1.371 . S
C355 H362 0.930 . S
H356 C353 0.928 . S
H357 C354 0.931 . S
H358 C334 0.930 . S
H359 C331 0.930 . S
H360 C340 0.930 . S
H361 C352 0.929 . S
H362 C355 0.930 . S
C363 C364 1.351 . S
C363 N366 1.368 . S
C363 H368 0.931 . S
C364 C363 1.351 . S
C364 N365 1.373 . S
C364 H392 0.934 . S
N365 C364 1.373 . S
N365 C367 1.340 . S
N366 C363 1.368 . S
N366 C367 1.321 . S
N366 Co369 2.135 . S
C367 N365 1.340 . S
C367 N366 1.321 . S
C367 H391 0.930 . S
H368 C363 0.931 . S
Co369 N366 2.135 . S
Co369 N372 2.121 . S
Co369 O377 2.055 . S
Co369 O380 2.039 . S
Co369 N383 2.140 . S
C370 O371 1.227 . S
C370 O380 1.265 . S
O371 C370 1.227 . S
N372 Co369 2.121 . S
N372 C374 1.375 . S
N372 C375 1.313 . S
C373 C374 1.338 . S
C373 N376 1.377 . S
C373 H393 0.930 . S
C374 N372 1.375 . S
C374 C373 1.338 . S
C374 H378 0.931 . S
C375 N372 1.313 . S
C375 N376 1.344 . S
C375 H379 0.930 . S
N376 C373 1.377 . S
N376 C375 1.344 . S
O377 Co369 2.055 . S
O377 C381 1.253 . S
H378 C374 0.931 . S
H379 C375 0.930 . S
O380 Co369 2.039 . S
O380 C370 1.265 . S
C381 O377 1.253 . S
C381 O382 1.227 . S
O382 C381 1.227 . S
N383 Co369 2.140 . S
N383 C386 1.346 . S
N383 C387 1.345 . S
C384 C385 1.387 . S
C384 C388 1.391 . S
C385 C384 1.387 . S
C385 C386 1.369 . S
C385 H394 0.929 . S
C386 N383 1.346 . S
C386 C385 1.369 . S
C386 H389 0.928 . S
C387 N383 1.345 . S
C387 C388 1.371 . S
C387 H390 0.931 . S
C388 C384 1.391 . S
C388 C387 1.371 . S
C388 H395 0.930 . S
H389 C386 0.928 . S
H390 C387 0.931 . S
H391 C367 0.930 . S
H392 C364 0.934 . S
H393 C373 0.930 . S
H394 C385 0.929 . S
H395 C388 0.930 . S
C396 C397 1.351 . S
C396 N399 1.368 . S
C396 H401 0.931 . S
C397 C396 1.351 . S
C397 N398 1.373 . S
C397 H425 0.930 . S
N398 C397 1.373 . S
N398 C400 1.340 . S
N399 C396 1.368 . S
N399 C400 1.321 . S
N399 Co402 2.135 . S
C400 N398 1.340 . S
C400 N399 1.321 . S
C400 H424 0.930 . S
H401 C396 0.931 . S
Co402 N399 2.135 . S
Co402 N405 2.121 . S
Co402 O410 2.055 . S
Co402 O413 2.039 . S
Co402 N416 2.140 . S
C403 O404 1.227 . S
C403 O413 1.265 . S
O404 C403 1.227 . S
N405 Co402 2.121 . S
N405 C407 1.375 . S
N405 C408 1.313 . S
C406 C407 1.338 . S
C406 N409 1.377 . S
C406 H426 0.930 . S
C407 N405 1.375 . S
C407 C406 1.338 . S
C407 H411 0.931 . S
C408 N405 1.313 . S
C408 N409 1.344 . S
C408 H412 0.930 . S
N409 C406 1.377 . S
N409 C408 1.344 . S
O410 Co402 2.055 . S
O410 C414 1.253 . S
H411 C407 0.931 . S
H412 C408 0.930 . S
O413 Co402 2.039 . S
O413 C403 1.265 . S
C414 O410 1.253 . S
C414 O415 1.227 . S
O415 C414 1.227 . S
N416 Co402 2.140 . S
N416 C419 1.346 . S
N416 C420 1.345 . S
C417 C418 1.387 . S
C417 C421 1.391 . S
C418 C417 1.387 . S
C418 C419 1.369 . S
C418 H427 0.929 . S
C419 N416 1.346 . S
C419 C418 1.369 . S
C419 H422 0.928 . S
C420 N416 1.345 . S
C420 C421 1.371 . S
C420 H423 0.931 . S
C421 C417 1.391 . S
C421 C420 1.371 . S
C421 H428 0.930 . S
H422 C419 0.928 . S
H423 C420 0.931 . S
H424 C400 0.930 . S
H425 C397 0.930 . S
H426 C406 0.930 . S
H427 C418 0.929 . S
H428 C421 0.930 . S
C429 C430 1.351 . S
C429 N432 1.368 . S
C429 H434 0.931 . S
C430 C429 1.351 . S
C430 N431 1.373 . S
C430 H458 0.934 . S
N431 C430 1.373 . S
N431 C433 1.340 . S
N432 C429 1.368 . S
N432 C433 1.321 . S
N432 Co435 2.135 . S
C433 N431 1.340 . S
C433 N432 1.321 . S
C433 H457 0.930 . S
H434 C429 0.931 . S
Co435 N432 2.135 . S
Co435 N438 2.121 . S
Co435 O443 2.055 . S
Co435 O446 2.039 . S
Co435 N449 2.140 . S
C436 O437 1.227 . S
C436 O446 1.265 . S
O437 C436 1.227 . S
N438 Co435 2.121 . S
N438 C440 1.375 . S
N438 C441 1.313 . S
C439 C440 1.338 . S
C439 N442 1.377 . S
C439 H459 0.930 . S
C440 N438 1.375 . S
C440 C439 1.338 . S
C440 H444 0.931 . S
C441 N438 1.313 . S
C441 N442 1.344 . S
C441 H445 0.930 . S
N442 C439 1.377 . S
N442 C441 1.344 . S
O443 Co435 2.055 . S
O443 C447 1.253 . S
H444 C440 0.931 . S
H445 C441 0.930 . S
O446 Co435 2.039 . S
O446 C436 1.265 . S
C447 O443 1.253 . S
C447 O448 1.227 . S
O448 C447 1.227 . S
N449 Co435 2.140 . S
N449 C452 1.346 . S
N449 C453 1.345 . S
C450 C451 1.387 . S
C450 C454 1.391 . S
C451 C450 1.387 . S
C451 C452 1.369 . S
C451 H460 0.929 . S
C452 N449 1.346 . S
C452 C451 1.369 . S
C452 H455 0.928 . S
C453 N449 1.345 . S
C453 C454 1.371 . S
C453 H456 0.931 . S
C454 C450 1.391 . S
C454 C453 1.371 . S
C454 H461 0.930 . S
H455 C452 0.928 . S
H456 C453 0.931 . S
H457 C433 0.930 . S
H458 C430 0.934 . S
H459 C439 0.930 . S
H460 C451 0.929 . S
H461 C454 0.930 . S
C462 C463 1.351 . S
C462 N465 1.368 . S
C462 H467 0.931 . S
C463 C462 1.351 . S
C463 N464 1.373 . S
C463 H491 0.934 . S
N464 C463 1.373 . S
N464 C466 1.340 . S
N465 C462 1.368 . S
N465 C466 1.321 . S
N465 Co468 2.135 . S
C466 N464 1.340 . S
C466 N465 1.321 . S
C466 H490 0.930 . S
H467 C462 0.931 . S
Co468 N465 2.135 . S
Co468 N471 2.121 . S
Co468 O476 2.055 . S
Co468 O479 2.039 . S
Co468 N482 2.140 . S
C469 O470 1.227 . S
C469 O479 1.265 . S
O470 C469 1.227 . S
N471 Co468 2.121 . S
N471 C473 1.375 . S
N471 C474 1.313 . S
C472 C473 1.338 . S
C472 N475 1.377 . S
C472 H492 0.930 . S
C473 N471 1.375 . S
C473 C472 1.338 . S
C473 H477 0.931 . S
C474 N471 1.313 . S
C474 N475 1.344 . S
C474 H478 0.930 . S
N475 C472 1.377 . S
N475 C474 1.344 . S
O476 Co468 2.055 . S
O476 C480 1.253 . S
H477 C473 0.931 . S
H478 C474 0.930 . S
O479 Co468 2.039 . S
O479 C469 1.265 . S
C480 O476 1.253 . S
C480 O481 1.227 . S
O481 C480 1.227 . S
N482 Co468 2.140 . S
N482 C485 1.346 . S
N482 C486 1.345 . S
C483 C484 1.387 . S
C483 C487 1.391 . S
C484 C483 1.387 . S
C484 C485 1.369 . S
C484 H493 0.929 . S
C485 N482 1.346 . S
C485 C484 1.369 . S
C485 H488 0.928 . S
C486 N482 1.345 . S
C486 C487 1.371 . S
C486 H489 0.931 . S
C487 C483 1.391 . S
C487 C486 1.371 . S
C487 H494 0.930 . S
H488 C485 0.928 . S
H489 C486 0.931 . S
H490 C466 0.930 . S
H491 C463 0.934 . S
H492 C472 0.930 . S
H493 C484 0.929 . S
H494 C487 0.930 . S
C495 C496 1.351 . S
C495 N498 1.368 . S
C495 H500 0.931 . S
C496 C495 1.351 . S
C496 N497 1.373 . S
C496 H524 0.930 . S
N497 C496 1.373 . S
N497 C499 1.340 . S
N498 C495 1.368 . S
N498 C499 1.321 . S
N498 Co501 2.135 . S
C499 N497 1.340 . S
C499 N498 1.321 . S
C499 H523 0.930 . S
H500 C495 0.931 . S
Co501 N498 2.135 . S
Co501 N504 2.121 . S
Co501 O509 2.055 . S
Co501 O512 2.039 . S
Co501 N515 2.140 . S
C502 O503 1.227 . S
C502 O512 1.265 . S
O503 C502 1.227 . S
N504 Co501 2.121 . S
N504 C506 1.375 . S
N504 C507 1.313 . S
C505 C506 1.338 . S
C505 N508 1.377 . S
C505 H525 0.930 . S
C506 N504 1.375 . S
C506 C505 1.338 . S
C506 H510 0.931 . S
C507 N504 1.313 . S
C507 N508 1.344 . S
C507 H511 0.930 . S
N508 C505 1.377 . S
N508 C507 1.344 . S
O509 Co501 2.055 . S
O509 C513 1.253 . S
H510 C506 0.931 . S
H511 C507 0.930 . S
O512 Co501 2.039 . S
O512 C502 1.265 . S
C513 O509 1.253 . S
C513 O514 1.227 . S
O514 C513 1.227 . S
N515 Co501 2.140 . S
N515 C518 1.346 . S
N515 C519 1.345 . S
C516 C517 1.387 . S
C516 C520 1.391 . S
C517 C516 1.387 . S
C517 C518 1.369 . S
C517 H526 0.929 . S
C518 N515 1.346 . S
C518 C517 1.369 . S
C518 H521 0.928 . S
C519 N515 1.345 . S
C519 C520 1.371 . S
C519 H522 0.931 . S
C520 C516 1.391 . S
C520 C519 1.371 . S
C520 H527 0.930 . S
H521 C518 0.928 . S
H522 C519 0.931 . S
H523 C499 0.930 . S
H524 C496 0.930 . S
H525 C505 0.930 . S
H526 C517 0.929 . S
H527 C520 0.930 . S
C528 C529 1.349 . S
C528 C530 1.327 . S
C528 H553 0.950 . S
C529 C528 1.349 . S
C529 C545 1.349 . S
C530 C528 1.327 . S
C530 C549 1.429 . S
C530 H554 0.950 . S
C531 C548 1.574 . S
C531 C550 1.368 . S
C531 H555 0.949 . S
H532 C536 0.949 . S
C533 C534 1.349 . S
C533 C535 1.327 . S
C533 H556 0.950 . S
C534 C533 1.349 . S
C534 C546 1.349 . S
C535 C533 1.327 . S
C535 C551 1.429 . S
C535 H557 0.950 . S
C536 H532 0.949 . S
C536 C544 1.574 . S
C536 C552 1.368 . S
H537 C545 0.950 . S
H538 C543 0.950 . S
H539 C544 0.949 . S
H540 C546 0.950 . S
H541 C547 0.950 . S
H542 C548 0.949 . S
C543 H538 0.950 . S
C543 C545 1.327 . S
C543 C549 1.429 . S
C544 C536 1.574 . S
C544 H539 0.949 . S
C544 C550 1.368 . S
C545 C529 1.349 . S
C545 H537 0.950 . S
C545 C543 1.327 . S
C546 C534 1.349 . S
C546 H540 0.950 . S
C546 C547 1.327 . S
C547 H541 0.950 . S
C547 C546 1.327 . S
C547 C551 1.429 . S
C548 C531 1.574 . S
C548 H542 0.949 . S
C548 C552 1.368 . S
C549 C530 1.429 . S
C549 C543 1.429 . S
C549 C550 1.523 . S
C550 C531 1.368 . S
C550 C544 1.368 . S
C550 C549 1.523 . S
C551 C535 1.429 . S
C551 C547 1.429 . S
C551 C552 1.523 . S
C552 C536 1.368 . S
C552 C548 1.368 . S
C552 C551 1.523 . S
H553 C528 0.950 . S
H554 C530 0.950 . S
H555 C531 0.949 . S
H556 C533 0.950 . S
H557 C535 0.950 . S
C558 C559 1.349 . S
C558 C560 1.327 . S
C558 H583 0.950 . S
C559 C558 1.349 . S
C559 C575 1.349 . S
C560 C558 1.327 . S
C560 C579 1.429 . S
C560 H584 0.950 . S
C561 C578 1.574 . S
C561 C580 1.368 . S
C561 H585 0.949 . S
H562 C566 0.949 . S
C563 C564 1.349 . S
C563 C565 1.327 . S
C563 H586 0.950 . S
C564 C563 1.349 . S
C564 C576 1.349 . S
C565 C563 1.327 . S
C565 C581 1.429 . S
C565 H587 0.950 . S
C566 H562 0.949 . S
C566 C574 1.574 . S
C566 C582 1.368 . S
H567 C575 0.950 . S
H568 C573 0.950 . S
H569 C574 0.949 . S
H570 C576 0.950 . S
H571 C577 0.950 . S
H572 C578 0.949 . S
C573 H568 0.950 . S
C573 C575 1.327 . S
C573 C579 1.429 . S
C574 C566 1.574 . S
C574 H569 0.949 . S
C574 C580 1.368 . S
C575 C559 1.349 . S
C575 H567 0.950 . S
C575 C573 1.327 . S
C576 C564 1.349 . S
C576 H570 0.950 . S
C576 C577 1.327 . S
C577 H571 0.950 . S
C577 C576 1.327 . S
C577 C581 1.429 . S
C578 C561 1.574 . S
C578 H572 0.949 . S
C578 C582 1.368 . S
C579 C560 1.429 . S
C579 C573 1.429 . S
C579 C580 1.523 . S
C580 C561 1.368 . S
C580 C574 1.368 . S
C580 C579 1.523 . S
C581 C565 1.429 . S
C581 C577 1.429 . S
C581 C582 1.523 . S
C582 C566 1.368 . S
C582 C578 1.368 . S
C582 C581 1.523 . S
H583 C558 0.950 . S
H584 C560 0.950 . S
H585 C561 0.949 . S
H586 C563 0.950 . S
H587 C565 0.950 . S
C588 C589 1.349 . S
C588 C590 1.327 . S
C588 H613 0.950 . S
C589 C588 1.349 . S
C589 C605 1.349 . S
C590 C588 1.327 . S
C590 C609 1.429 . S
C590 H614 0.950 . S
C591 C608 1.574 . S
C591 C610 1.368 . S
C591 H615 0.949 . S
H592 C596 0.949 . S
C593 C594 1.349 . S
C593 C595 1.327 . S
C593 H616 0.950 . S
C594 C593 1.349 . S
C594 C606 1.349 . S
C595 C593 1.327 . S
C595 C611 1.429 . S
C595 H617 0.950 . S
C596 H592 0.949 . S
C596 C604 1.574 . S
C596 C612 1.368 . S
H597 C605 0.950 . S
H598 C603 0.950 . S
H599 C604 0.949 . S
H600 C606 0.950 . S
H601 C607 0.950 . S
H602 C608 0.949 . S
C603 H598 0.950 . S
C603 C605 1.327 . S
C603 C609 1.429 . S
C604 C596 1.574 . S
C604 H599 0.949 . S
C604 C610 1.368 . S
C605 C589 1.349 . S
C605 H597 0.950 . S
C605 C603 1.327 . S
C606 C594 1.349 . S
C606 H600 0.950 . S
C606 C607 1.327 . S
C607 H601 0.950 . S
C607 C606 1.327 . S
C607 C611 1.429 . S
C608 C591 1.574 . S
C608 H602 0.949 . S
C608 C612 1.368 . S
C609 C590 1.429 . S
C609 C603 1.429 . S
C609 C610 1.523 . S
C610 C591 1.368 . S
C610 C604 1.368 . S
C610 C609 1.523 . S
C611 C595 1.429 . S
C611 C607 1.429 . S
C611 C612 1.523 . S
C612 C596 1.368 . S
C612 C608 1.368 . S
C612 C611 1.523 . S
H613 C588 0.950 . S
H614 C590 0.950 . S
H615 C591 0.949 . S
H616 C593 0.950 . S
H617 C595 0.950 . S
C618 C619 1.349 . S
C618 C620 1.327 . S
C618 H643 0.950 . S
C619 C618 1.349 . S
C619 C635 1.349 . S
C620 C618 1.327 . S
C620 C639 1.429 . S
C620 H644 0.950 . S
C621 C638 1.574 . S
C621 C640 1.368 . S
C621 H645 0.949 . S
H622 C626 0.949 . S
C623 C624 1.349 . S
C623 C625 1.327 . S
C623 H646 0.950 . S
C624 C623 1.349 . S
C624 C636 1.349 . S
C625 C623 1.327 . S
C625 C641 1.429 . S
C625 H647 0.950 . S
C626 H622 0.949 . S
C626 C634 1.574 . S
C626 C642 1.368 . S
H627 C635 0.950 . S
H628 C633 0.950 . S
H629 C634 0.949 . S
H630 C636 0.950 . S
H631 C637 0.950 . S
H632 C638 0.949 . S
C633 H628 0.950 . S
C633 C635 1.327 . S
C633 C639 1.429 . S
C634 C626 1.574 . S
C634 H629 0.949 . S
C634 C640 1.368 . S
C635 C619 1.349 . S
C635 H627 0.950 . S
C635 C633 1.327 . S
C636 C624 1.349 . S
C636 H630 0.950 . S
C636 C637 1.327 . S
C637 H631 0.950 . S
C637 C636 1.327 . S
C637 C641 1.429 . S
C638 C621 1.574 . S
C638 H632 0.949 . S
C638 C642 1.368 . S
C639 C620 1.429 . S
C639 C633 1.429 . S
C639 C640 1.523 . S
C640 C621 1.368 . S
C640 C634 1.368 . S
C640 C639 1.523 . S
C641 C625 1.429 . S
C641 C637 1.429 . S
C641 C642 1.523 . S
C642 C626 1.368 . S
C642 C638 1.368 . S
C642 C641 1.523 . S
H643 C618 0.950 . S
H644 C620 0.950 . S
H645 C621 0.949 . S
H646 C623 0.950 . S
H647 C625 0.950 . S
C648 C649 1.349 . S
C648 C650 1.327 . S
C648 H673 0.950 . S
C649 C648 1.349 . S
C649 C665 1.349 . S
C650 C648 1.327 . S
C650 C669 1.429 . S
C650 H674 0.950 . S
C651 C668 1.574 . S
C651 C670 1.368 . S
C651 H675 0.949 . S
H652 C656 0.949 . S
C653 C654 1.349 . S
C653 C655 1.327 . S
C653 H676 0.950 . S
C654 C653 1.349 . S
C654 C666 1.349 . S
C655 C653 1.327 . S
C655 C671 1.429 . S
C655 H677 0.950 . S
C656 H652 0.949 . S
C656 C664 1.574 . S
C656 C672 1.368 . S
H657 C665 0.950 . S
H658 C663 0.950 . S
H659 C664 0.949 . S
H660 C666 0.950 . S
H661 C667 0.950 . S
H662 C668 0.949 . S
C663 H658 0.950 . S
C663 C665 1.327 . S
C663 C669 1.429 . S
C664 C656 1.574 . S
C664 H659 0.949 . S
C664 C670 1.368 . S
C665 C649 1.349 . S
C665 H657 0.950 . S
C665 C663 1.327 . S
C666 C654 1.349 . S
C666 H660 0.950 . S
C666 C667 1.327 . S
C667 H661 0.950 . S
C667 C666 1.327 . S
C667 C671 1.429 . S
C668 C651 1.574 . S
C668 H662 0.949 . S
C668 C672 1.368 . S
C669 C650 1.429 . S
C669 C663 1.429 . S
C669 C670 1.523 . S
C670 C651 1.368 . S
C670 C664 1.368 . S
C670 C669 1.523 . S
C671 C655 1.429 . S
C671 C667 1.429 . S
C671 C672 1.523 . S
C672 C656 1.368 . S
C672 C668 1.368 . S
C672 C671 1.523 . S
H673 C648 0.950 . S
H674 C650 0.950 . S
H675 C651 0.949 . S
H676 C653 0.950 . S
H677 C655 0.950 . S
C678 C679 1.349 . S
C678 C680 1.327 . S
C678 H703 0.950 . S
C679 C678 1.349 . S
C679 C695 1.349 . S
C680 C678 1.327 . S
C680 C699 1.429 . S
C680 H704 0.950 . S
C681 C698 1.574 . S
C681 C700 1.368 . S
C681 H705 0.949 . S
H682 C686 0.949 . S
C683 C684 1.349 . S
C683 C685 1.327 . S
C683 H706 0.950 . S
C684 C683 1.349 . S
C684 C696 1.349 . S
C685 C683 1.327 . S
C685 C701 1.429 . S
C685 H707 0.950 . S
C686 H682 0.949 . S
C686 C694 1.574 . S
C686 C702 1.368 . S
H687 C695 0.950 . S
H688 C693 0.950 . S
H689 C694 0.949 . S
H690 C696 0.950 . S
H691 C697 0.950 . S
H692 C698 0.949 . S
C693 H688 0.950 . S
C693 C695 1.327 . S
C693 C699 1.429 . S
C694 C686 1.574 . S
C694 H689 0.949 . S
C694 C700 1.368 . S
C695 C679 1.349 . S
C695 H687 0.950 . S
C695 C693 1.327 . S
C696 C684 1.349 . S
C696 H690 0.950 . S
C696 C697 1.327 . S
C697 H691 0.950 . S
C697 C696 1.327 . S
C697 C701 1.429 . S
C698 C681 1.574 . S
C698 H692 0.949 . S
C698 C702 1.368 . S
C699 C680 1.429 . S
C699 C693 1.429 . S
C699 C700 1.523 . S
C700 C681 1.368 . S
C700 C694 1.368 . S
C700 C699 1.523 . S
C701 C685 1.429 . S
C701 C697 1.429 . S
C701 C702 1.523 . S
C702 C686 1.368 . S
C702 C698 1.368 . S
C702 C701 1.523 . S
H703 C678 0.950 . S
H704 C680 0.950 . S
H705 C681 0.949 . S
H706 C683 0.950 . S
H707 C685 0.950 . S
C708 C709 1.349 . S
C708 C710 1.327 . S
C708 H733 0.950 . S
C709 C708 1.349 . S
C709 C725 1.349 . S
C710 C708 1.327 . S
C710 C729 1.429 . S
C710 H734 0.950 . S
C711 C728 1.574 . S
C711 C730 1.368 . S
C711 H735 0.949 . S
H712 C716 0.949 . S
C713 C714 1.349 . S
C713 C715 1.327 . S
C713 H736 0.950 . S
C714 C713 1.349 . S
C714 C726 1.349 . S
C715 C713 1.327 . S
C715 C731 1.429 . S
C715 H737 0.950 . S
C716 H712 0.949 . S
C716 C724 1.574 . S
C716 C732 1.368 . S
H717 C725 0.950 . S
H718 C723 0.950 . S
H719 C724 0.949 . S
H720 C726 0.950 . S
H721 C727 0.950 . S
H722 C728 0.949 . S
C723 H718 0.950 . S
C723 C725 1.327 . S
C723 C729 1.429 . S
C724 C716 1.574 . S
C724 H719 0.949 . S
C724 C730 1.368 . S
C725 C709 1.349 . S
C725 H717 0.950 . S
C725 C723 1.327 . S
C726 C714 1.349 . S
C726 H720 0.950 . S
C726 C727 1.327 . S
C727 H721 0.950 . S
C727 C726 1.327 . S
C727 C731 1.429 . S
C728 C711 1.574 . S
C728 H722 0.949 . S
C728 C732 1.368 . S
C729 C710 1.429 . S
C729 C723 1.429 . S
C729 C730 1.523 . S
C730 C711 1.368 . S
C730 C724 1.368 . S
C730 C729 1.523 . S
C731 C715 1.429 . S
C731 C727 1.429 . S
C731 C732 1.523 . S
C732 C716 1.368 . S
C732 C728 1.368 . S
C732 C731 1.523 . S
H733 C708 0.950 . S
H734 C710 0.950 . S
H735 C711 0.949 . S
H736 C713 0.950 . S
H737 C715 0.950 . S
C738 C739 1.349 . S
C738 C740 1.327 . S
C738 H763 0.950 . S
C739 C738 1.349 . S
C739 C755 1.349 . S
C740 C738 1.327 . S
C740 C759 1.429 . S
C740 H764 0.950 . S
C741 C758 1.574 . S
C741 C760 1.368 . S
C741 H765 0.949 . S
H742 C746 0.949 . S
C743 C744 1.349 . S
C743 C745 1.327 . S
C743 H766 0.950 . S
C744 C743 1.349 . S
C744 C756 1.349 . S
C745 C743 1.327 . S
C745 C761 1.429 . S
C745 H767 0.950 . S
C746 H742 0.949 . S
C746 C754 1.574 . S
C746 C762 1.368 . S
H747 C755 0.950 . S
H748 C753 0.950 . S
H749 C754 0.949 . S
H750 C756 0.950 . S
H751 C757 0.950 . S
H752 C758 0.949 . S
C753 H748 0.950 . S
C753 C755 1.327 . S
C753 C759 1.429 . S
C754 C746 1.574 . S
C754 H749 0.949 . S
C754 C760 1.368 . S
C755 C739 1.349 . S
C755 H747 0.950 . S
C755 C753 1.327 . S
C756 C744 1.349 . S
C756 H750 0.950 . S
C756 C757 1.327 . S
C757 H751 0.950 . S
C757 C756 1.327 . S
C757 C761 1.429 . S
C758 C741 1.574 . S
C758 H752 0.949 . S
C758 C762 1.368 . S
C759 C740 1.429 . S
C759 C753 1.429 . S
C759 C760 1.523 . S
C760 C741 1.368 . S
C760 C754 1.368 . S
C760 C759 1.523 . S
C761 C745 1.429 . S
C761 C757 1.429 . S
C761 C762 1.523 . S
C762 C746 1.368 . S
C762 C758 1.368 . S
C762 C761 1.523 . S
H763 C738 0.950 . S
H764 C740 0.950 . S
H765 C741 0.949 . S
H766 C743 0.950 . S
H767 C745 0.950 . S
C768 C769 1.349 1_545 S
C768 C770 1.327 . S
C768 H793 0.950 . S
C769 C768 1.349 1_565 S
C769 C785 1.349 . S
C770 C768 1.327 . S
C770 C789 1.429 1_545 S
C770 H794 0.950 . S
C771 C788 1.555 1_556 S
C771 C790 1.368 . S
C771 H795 0.949 . S
H772 C776 0.949 . S
C773 C774 1.349 1_565 S
C773 C775 1.327 . S
C773 H796 0.950 . S
C774 C773 1.349 1_545 S
C774 C786 1.349 . S
C775 C773 1.327 . S
C775 C791 1.429 1_565 S
C775 H797 0.950 . S
C776 H772 0.949 . S
C776 C784 1.555 1_554 S
C776 C792 1.368 . S
H777 C785 0.950 . S
H778 C783 0.950 . S
H779 C784 0.951 . S
H780 C786 0.950 . S
H781 C787 0.950 . S
H782 C788 0.951 . S
C783 H778 0.950 . S
C783 C785 1.327 . S
C783 C789 1.429 . S
C784 C776 1.555 1_556 S
C784 H779 0.951 . S
C784 C790 1.386 1_545 S
C785 C769 1.349 . S
C785 H777 0.950 . S
C785 C783 1.327 . S
C786 C774 1.349 . S
C786 H780 0.950 . S
C786 C787 1.327 . S
C787 H781 0.950 . S
C787 C786 1.327 . S
C787 C791 1.429 . S
C788 C771 1.555 1_554 S
C788 H782 0.951 . S
C788 C792 1.386 1_565 S
C789 C770 1.429 1_565 S
C789 C783 1.429 . S
C789 C790 1.523 . S
C790 C771 1.368 . S
C790 C784 1.386 1_565 S
C790 C789 1.523 . S
C791 C775 1.429 1_545 S
C791 C787 1.429 . S
C791 C792 1.523 . S
C792 C776 1.368 . S
C792 C788 1.386 1_545 S
C792 C791 1.523 . S
H793 C768 0.950 . S
H794 C770 0.950 . S
H795 C771 0.949 . S
H796 C773 0.950 . S
H797 C775 0.950 . S
C798 C799 1.349 . S
C798 C800 1.327 . S
C798 H823 0.950 . S
C799 C798 1.349 . S
C799 C815 1.349 . S
C800 C798 1.327 . S
C800 C819 1.429 . S
C800 H824 0.950 . S
C801 C818 1.574 . S
C801 C820 1.368 1_554 S
C801 H825 0.949 . S
H802 C806 0.949 . S
C803 C804 1.349 . S
C803 C805 1.327 . S
C803 H826 0.950 . S
C804 C803 1.349 . S
C804 C816 1.349 . S
C805 C803 1.327 . S
C805 C821 1.429 . S
C805 H827 0.950 . S
C806 H802 0.949 . S
C806 C814 1.574 . S
C806 C822 1.368 1_556 S
H807 C815 0.950 . S
H808 C813 0.950 . S
H809 C814 0.949 . S
H810 C816 0.950 . S
H811 C817 0.950 . S
H812 C818 0.949 . S
C813 H808 0.950 . S
C813 C815 1.327 . S
C813 C819 1.429 . S
C814 C806 1.574 . S
C814 H809 0.949 . S
C814 C820 1.368 . S
C815 C799 1.349 . S
C815 H807 0.950 . S
C815 C813 1.327 . S
C816 C804 1.349 . S
C816 H810 0.950 . S
C816 C817 1.327 . S
C817 H811 0.950 . S
C817 C816 1.327 . S
C817 C821 1.429 . S
C818 C801 1.574 . S
C818 H812 0.949 . S
C818 C822 1.368 . S
C819 C800 1.429 . S
C819 C813 1.429 . S
C819 C820 1.523 . S
C820 C801 1.368 1_556 S
C820 C814 1.368 . S
C820 C819 1.523 . S
C821 C805 1.429 . S
C821 C817 1.429 . S
C821 C822 1.523 . S
C822 C806 1.368 1_554 S
C822 C818 1.368 . S
C822 C821 1.523 . S
H823 C798 0.950 . S
H824 C800 0.950 . S
H825 C801 0.949 . S
H826 C803 0.950 . S
H827 C805 0.950 . S
C828 C829 1.349 . S
C828 C830 1.327 . S
C828 H853 0.950 . S
C829 C828 1.349 . S
C829 C845 1.349 . S
C830 C828 1.327 . S
C830 C849 1.429 . S
C830 H854 0.950 . S
C831 C848 1.574 1_456 S
C831 C850 1.368 . S
C831 H855 0.949 . S
H832 C836 0.949 . S
C833 C834 1.349 . S
C833 C835 1.327 . S
C833 H856 0.950 . S
C834 C833 1.349 . S
C834 C846 1.349 . S
C835 C833 1.327 . S
C835 C851 1.429 . S
C835 H857 0.950 . S
C836 H832 0.949 . S
C836 C844 1.574 1_654 S
C836 C852 1.368 . S
H837 C845 0.950 . S
H838 C843 0.950 . S
H839 C844 0.949 . S
H840 C846 0.950 . S
H841 C847 0.950 . S
H842 C848 0.949 . S
C843 H838 0.950 . S
C843 C845 1.327 . S
C843 C849 1.429 . S
C844 C836 1.574 1_456 S
C844 H839 0.949 . S
C844 C850 1.368 . S
C845 C829 1.349 . S
C845 H837 0.950 . S
C845 C843 1.327 . S
C846 C834 1.349 . S
C846 H840 0.950 . S
C846 C847 1.327 . S
C847 H841 0.950 . S
C847 C846 1.327 . S
C847 C851 1.429 . S
C848 C831 1.574 1_654 S
C848 H842 0.949 . S
C848 C852 1.368 . S
C849 C830 1.429 . S
C849 C843 1.429 . S
C849 C850 1.523 . S
C850 C831 1.368 . S
C850 C844 1.368 . S
C850 C849 1.523 . S
C851 C835 1.429 . S
C851 C847 1.429 . S
C851 C852 1.523 . S
C852 C836 1.368 . S
C852 C848 1.368 . S
C852 C851 1.523 . S
H853 C828 0.950 . S
H854 C830 0.950 . S
H855 C831 0.949 . S
H856 C833 0.950 . S
H857 C835 0.950 . S
C858 C859 1.349 . S
C858 C860 1.327 . S
C858 H883 0.950 . S
C859 C858 1.349 . S
C859 C875 1.349 . S
C860 C858 1.327 . S
C860 C879 1.429 . S
C860 H884 0.950 . S
C861 C878 1.574 . S
C861 C880 1.368 1_554 S
C861 H885 0.949 . S
H862 C866 0.949 . S
C863 C864 1.349 . S
C863 C865 1.327 . S
C863 H886 0.950 . S
C864 C863 1.349 . S
C864 C876 1.349 . S
C865 C863 1.327 . S
C865 C881 1.429 . S
C865 H887 0.950 . S
C866 H862 0.949 . S
C866 C874 1.574 . S
C866 C882 1.368 1_556 S
H867 C875 0.950 . S
H868 C873 0.950 . S
H869 C874 0.949 . S
H870 C876 0.950 . S
H871 C877 0.950 . S
H872 C878 0.949 . S
C873 H868 0.950 . S
C873 C875 1.327 . S
C873 C879 1.429 . S
C874 C866 1.574 . S
C874 H869 0.949 . S
C874 C880 1.368 1_465 S
C875 C859 1.349 . S
C875 H867 0.950 . S
C875 C873 1.327 . S
C876 C864 1.349 . S
C876 H870 0.950 . S
C876 C877 1.327 . S
C877 H871 0.950 . S
C877 C876 1.327 . S
C877 C881 1.429 . S
C878 C861 1.574 . S
C878 H872 0.949 . S
C878 C882 1.368 1_645 S
C879 C860 1.429 . S
C879 C873 1.429 . S
C879 C880 1.523 . S
C880 C861 1.368 1_556 S
C880 C874 1.368 1_645 S
C880 C879 1.523 . S
C881 C865 1.429 . S
C881 C877 1.429 . S
C881 C882 1.523 . S
C882 C866 1.368 1_554 S
C882 C878 1.368 1_465 S
C882 C881 1.523 . S
H883 C858 0.950 . S
H884 C860 0.950 . S
H885 C861 0.949 . S
H886 C863 0.950 . S
H887 C865 0.950 . S
C888 C889 1.349 . S
C888 C890 1.327 . S
C888 H913 0.950 . S
C889 C888 1.349 . S
C889 C905 1.349 . S
C890 C888 1.327 . S
C890 C909 1.429 . S
C890 H914 0.950 . S
C891 C908 1.574 . S
C891 C910 1.368 . S
C891 H915 0.949 . S
H892 C896 0.949 . S
C893 C894 1.349 . S
C893 C895 1.327 . S
C893 H916 0.950 . S
C894 C893 1.349 . S
C894 C906 1.349 . S
C895 C893 1.327 . S
C895 C911 1.429 . S
C895 H917 0.950 . S
C896 H892 0.949 . S
C896 C904 1.574 . S
C896 C912 1.368 . S
H897 C905 0.950 . S
H898 C903 0.950 . S
H899 C904 0.949 . S
H900 C906 0.950 . S
H901 C907 0.950 . S
H902 C908 0.949 . S
C903 H898 0.950 . S
C903 C905 1.327 . S
C903 C909 1.429 . S
C904 C896 1.574 . S
C904 H899 0.949 . S
C904 C910 1.368 . S
C905 C889 1.349 . S
C905 H897 0.950 . S
C905 C903 1.327 . S
C906 C894 1.349 . S
C906 H900 0.950 . S
C906 C907 1.327 . S
C907 H901 0.950 . S
C907 C906 1.327 . S
C907 C911 1.429 . S
C908 C891 1.574 . S
C908 H902 0.949 . S
C908 C912 1.368 . S
C909 C890 1.429 . S
C909 C903 1.429 . S
C909 C910 1.523 . S
C910 C891 1.368 . S
C910 C904 1.368 . S
C910 C909 1.523 . S
C911 C895 1.429 . S
C911 C907 1.429 . S
C911 C912 1.523 . S
C912 C896 1.368 . S
C912 C908 1.368 . S
C912 C911 1.523 . S
H913 C888 0.950 . S
H914 C890 0.950 . S
H915 C891 0.949 . S
H916 C893 0.950 . S
H917 C895 0.950 . S
C918 C919 1.349 1_455 S
C918 C920 1.327 . S
C918 H943 0.950 . S
C919 C918 1.349 1_655 S
C919 C935 1.349 . S
C920 C918 1.327 . S
C920 C939 1.429 1_455 S
C920 H944 0.950 . S
C921 C938 1.574 . S
C921 C940 1.368 . S
C921 H945 0.949 . S
H922 C926 0.949 . S
C923 C924 1.349 1_655 S
C923 C925 1.327 . S
C923 H946 0.950 . S
C924 C923 1.349 1_455 S
C924 C936 1.349 . S
C925 C923 1.327 . S
C925 C941 1.429 1_655 S
C925 H947 0.950 . S
C926 H922 0.949 . S
C926 C934 1.574 . S
C926 C942 1.368 . S
H927 C935 0.950 . S
H928 C933 0.950 . S
H929 C934 0.949 . S
H930 C936 0.950 . S
H931 C937 0.950 . S
H932 C938 0.949 . S
C933 H928 0.950 . S
C933 C935 1.327 . S
C933 C939 1.429 . S
C934 C926 1.574 . S
C934 H929 0.949 . S
C934 C940 1.368 1_455 S
C935 C919 1.349 . S
C935 H927 0.950 . S
C935 C933 1.327 . S
C936 C924 1.349 . S
C936 H930 0.950 . S
C936 C937 1.327 . S
C937 H931 0.950 . S
C937 C936 1.327 . S
C937 C941 1.429 . S
C938 C921 1.574 . S
C938 H932 0.949 . S
C938 C942 1.368 1_655 S
C939 C920 1.429 1_655 S
C939 C933 1.429 . S
C939 C940 1.523 . S
C940 C921 1.368 . S
C940 C934 1.368 1_655 S
C940 C939 1.523 . S
C941 C925 1.429 1_455 S
C941 C937 1.429 . S
C941 C942 1.523 . S
C942 C926 1.368 . S
C942 C938 1.368 1_455 S
C942 C941 1.523 . S
H943 C918 0.950 . S
H944 C920 0.950 . S
H945 C921 0.949 . S
H946 C923 0.950 . S
H947 C925 0.950 . S
C948 C949 1.349 1_565 S
C948 C950 1.327 . S
C948 H973 0.950 . S
C949 C948 1.349 1_545 S
C949 C965 1.349 . S
C950 C948 1.327 . S
C950 C969 1.429 1_565 S
C950 H974 0.950 . S
C951 C968 1.574 1_655 S
C951 C970 1.368 . S
C951 H975 0.949 . S
H952 C956 0.949 . S
C953 C954 1.349 1_545 S
C953 C955 1.327 . S
C953 H976 0.950 . S
C954 C953 1.349 1_565 S
C954 C966 1.349 . S
C955 C953 1.327 . S
C955 C971 1.429 1_545 S
C955 H977 0.950 . S
C956 H952 0.949 . S
C956 C964 1.574 1_455 S
C956 C972 1.368 . S
H957 C965 0.950 . S
H958 C963 0.950 . S
H959 C964 0.949 . S
H960 C966 0.950 . S
H961 C967 0.950 . S
H962 C968 0.949 . S
C963 H958 0.950 . S
C963 C965 1.327 . S
C963 C969 1.429 . S
C964 C956 1.574 1_655 S
C964 H959 0.949 . S
C964 C970 1.368 1_565 S
C965 C949 1.349 . S
C965 H957 0.950 . S
C965 C963 1.327 . S
C966 C954 1.349 . S
C966 H960 0.950 . S
C966 C967 1.327 . S
C967 H961 0.950 . S
C967 C966 1.327 . S
C967 C971 1.429 . S
C968 C951 1.574 1_455 S
C968 H962 0.949 . S
C968 C972 1.368 1_545 S
C969 C950 1.429 1_545 S
C969 C963 1.429 . S
C969 C970 1.523 . S
C970 C951 1.368 . S
C970 C964 1.368 1_545 S
C970 C969 1.523 . S
C971 C955 1.429 1_565 S
C971 C967 1.429 . S
C971 C972 1.523 . S
C972 C956 1.368 . S
C972 C968 1.368 1_565 S
C972 C971 1.523 . S
H973 C948 0.950 . S
H974 C950 0.950 . S
H975 C951 0.949 . S
H976 C953 0.950 . S
H977 C955 0.950 . S
C978 C979 1.349 . S
C978 C980 1.327 . S
C978 H1003 0.950 . S
C979 C978 1.349 . S
C979 C995 1.349 . S
C980 C978 1.327 . S
C980 C999 1.429 . S
C980 H1004 0.950 . S
C981 C998 1.574 1_565 S
C981 C1000 1.368 . S
C981 H1005 0.949 . S
H982 C986 0.949 . S
C983 C984 1.349 . S
C983 C985 1.327 . S
C983 H1006 0.950 . S
C984 C983 1.349 . S
C984 C996 1.349 . S
C985 C983 1.327 . S
C985 C1001 1.429 . S
C985 H1007 0.950 . S
C986 H982 0.949 . S
C986 C994 1.574 1_545 S
C986 C1002 1.368 . S
H987 C995 0.950 . S
H988 C993 0.950 . S
H989 C994 0.949 . S
H990 C996 0.950 . S
H991 C997 0.950 . S
H992 C998 0.949 . S
C993 H988 0.950 . S
C993 C995 1.327 . S
C993 C999 1.429 . S
C994 C986 1.574 1_565 S
C994 H989 0.949 . S
C994 C1000 1.368 . S
C995 C979 1.349 . S
C995 H987 0.950 . S
C995 C993 1.327 . S
C996 C984 1.349 . S
C996 H990 0.950 . S
C996 C997 1.327 . S
C997 H991 0.950 . S
C997 C996 1.327 . S
C997 C1001 1.429 . S
C998 C981 1.574 1_545 S
C998 H992 0.949 . S
C998 C1002 1.368 . S
C999 C980 1.429 . S
C999 C993 1.429 . S
C999 C1000 1.523 . S
C1000 C981 1.368 . S
C1000 C994 1.368 . S
C1000 C999 1.523 . S
C1001 C985 1.429 . S
C1001 C997 1.429 . S
C1001 C1002 1.523 . S
C1002 C986 1.368 . S
C1002 C998 1.368 . S
C1002 C1001 1.523 . S
H1003 C978 0.950 . S
H1004 C980 0.950 . S
H1005 C981 0.949 . S
H1006 C983 0.950 . S
H1007 C985 0.950 . S
C1008 C1009 1.349 . S
C1008 C1010 1.327 . S
C1008 H1033 0.950 . S
C1009 C1008 1.349 . S
C1009 C1025 1.349 . S
C1010 C1008 1.327 . S
C1010 C1029 1.429 . S
C1010 H1034 0.950 . S
C1011 C1028 1.574 . S
C1011 C1030 1.368 1_554 S
C1011 H1035 0.949 . S
H1012 C1016 0.949 . S
C1013 C1014 1.349 . S
C1013 C1015 1.327 . S
C1013 H1036 0.950 . S
C1014 C1013 1.349 . S
C1014 C1026 1.349 . S
C1015 C1013 1.327 . S
C1015 C1031 1.429 . S
C1015 H1037 0.950 . S
C1016 H1012 0.949 . S
C1016 C1024 1.574 1_554 S
C1016 C1032 1.368 . S
H1017 C1025 0.950 . S
H1018 C1023 0.950 1_554 S
H1019 C1024 0.949 . S
H1020 C1026 0.950 . S
H1021 C1027 0.950 . S
H1022 C1028 0.949 . S
C1023 H1018 0.950 1_556 S
C1023 C1025 1.327 . S
C1023 C1029 1.429 . S
C1024 C1016 1.574 1_556 S
C1024 H1019 0.949 . S
C1024 C1030 1.368 . S
C1025 C1009 1.349 . S
C1025 H1017 0.950 . S
C1025 C1023 1.327 . S
C1026 C1014 1.349 . S
C1026 H1020 0.950 . S
C1026 C1027 1.327 . S
C1027 H1021 0.950 . S
C1027 C1026 1.327 . S
C1027 C1031 1.429 . S
C1028 C1011 1.574 . S
C1028 H1022 0.949 . S
C1028 C1032 1.368 . S
C1029 C1010 1.429 . S
C1029 C1023 1.429 . S
C1029 C1030 1.523 . S
C1030 C1011 1.368 1_556 S
C1030 C1024 1.368 . S
C1030 C1029 1.523 . S
C1031 C1015 1.429 . S
C1031 C1027 1.429 . S
C1031 C1032 1.523 . S
C1032 C1016 1.368 . S
C1032 C1028 1.368 . S
C1032 C1031 1.523 . S
H1033 C1008 0.950 . S
H1034 C1010 0.950 . S
H1035 C1011 0.949 . S
H1036 C1013 0.950 . S
H1037 C1015 0.950 . S
C1038 C1039 1.349 . S
C1038 C1040 1.327 . S
C1038 H1063 0.950 . S
C1039 C1038 1.349 . S
C1039 C1055 1.349 . S
C1040 C1038 1.327 . S
C1040 C1059 1.429 . S
C1040 H1064 0.950 . S
C1041 C1058 1.574 1_556 S
C1041 C1060 1.368 . S
C1041 H1065 0.949 . S
H1042 C1046 0.949 . S
C1043 C1044 1.349 . S
C1043 C1045 1.327 . S
C1043 H1066 0.950 . S
C1044 C1043 1.349 . S
C1044 C1056 1.349 . S
C1045 C1043 1.327 . S
C1045 C1061 1.429 . S
C1045 H1067 0.950 . S
C1046 H1042 0.949 . S
C1046 C1054 1.574 . S
C1046 C1062 1.368 . S
H1047 C1055 0.950 . S
H1048 C1053 0.950 . S
H1049 C1054 0.949 . S
H1050 C1056 0.950 . S
H1051 C1057 0.950 . S
H1052 C1058 0.949 . S
C1053 H1048 0.950 . S
C1053 C1055 1.327 . S
C1053 C1059 1.429 . S
C1054 C1046 1.574 . S
C1054 H1049 0.949 . S
C1054 C1060 1.368 1_554 S
C1055 C1039 1.349 . S
C1055 H1047 0.950 . S
C1055 C1053 1.327 . S
C1056 C1044 1.349 . S
C1056 H1050 0.950 . S
C1056 C1057 1.327 . S
C1057 H1051 0.950 . S
C1057 C1056 1.327 . S
C1057 C1061 1.429 . S
C1058 C1041 1.574 1_554 S
C1058 H1052 0.949 . S
C1058 C1062 1.368 . S
C1059 C1040 1.429 . S
C1059 C1053 1.429 . S
C1059 C1060 1.523 . S
C1060 C1041 1.368 . S
C1060 C1054 1.368 1_556 S
C1060 C1059 1.523 . S
C1061 C1045 1.429 . S
C1061 C1057 1.429 . S
C1061 C1062 1.523 . S
C1062 C1046 1.368 . S
C1062 C1058 1.368 . S
C1062 C1061 1.523 . S
H1063 C1038 0.950 . S
H1064 C1040 0.950 . S
H1065 C1041 0.949 . S
H1066 C1043 0.950 . S
H1067 C1045 0.950 . S
C1068 C1069 1.349 . S
C1068 C1070 1.327 . S
C1068 H1093 0.950 . S
C1069 C1068 1.349 . S
C1069 C1085 1.349 . S
C1070 C1068 1.327 . S
C1070 C1089 1.429 . S
C1070 H1094 0.950 1_556 S
C1071 C1088 1.574 1_556 S
C1071 C1090 1.368 . S
C1071 H1095 0.949 . S
H1072 C1076 0.949 . S
C1073 C1074 1.349 . S
C1073 C1075 1.327 . S
C1073 H1096 0.950 . S
C1074 C1073 1.349 . S
C1074 C1086 1.349 . S
C1075 C1073 1.327 . S
C1075 C1091 1.429 . S
C1075 H1097 0.950 . S
C1076 H1072 0.949 . S
C1076 C1084 1.574 . S
C1076 C1092 1.368 . S
H1077 C1085 0.950 . S
H1078 C1083 0.950 . S
H1079 C1084 0.949 . S
H1080 C1086 0.950 . S
H1081 C1087 0.950 . S
H1082 C1088 0.948 . S
C1083 H1078 0.950 . S
C1083 C1085 1.327 . S
C1083 C1089 1.429 . S
C1084 C1076 1.574 . S
C1084 H1079 0.949 . S
C1084 C1090 1.368 1_554 S
C1085 C1069 1.349 . S
C1085 H1077 0.950 . S
C1085 C1083 1.327 . S
C1086 C1074 1.349 . S
C1086 H1080 0.950 . S
C1086 C1087 1.327 . S
C1087 H1081 0.950 . S
C1087 C1086 1.327 . S
C1087 C1091 1.429 . S
C1088 C1071 1.574 1_554 S
C1088 H1082 0.948 . S
C1088 C1092 1.368 . S
C1089 C1070 1.429 . S
C1089 C1083 1.429 . S
C1089 C1090 1.523 . S
C1090 C1071 1.368 . S
C1090 C1084 1.368 1_556 S
C1090 C1089 1.523 . S
C1091 C1075 1.429 . S
C1091 C1087 1.429 . S
C1091 C1092 1.523 . S
C1092 C1076 1.368 . S
C1092 C1088 1.368 . S
C1092 C1091 1.523 . S
H1093 C1068 0.950 . S
H1094 C1070 0.950 1_554 S
H1095 C1071 0.949 . S
H1096 C1073 0.950 . S
H1097 C1075 0.950 . S
C1098 C1099 1.349 . S
C1098 C1100 1.327 . S
C1098 H1123 0.950 . S
C1099 C1098 1.349 . S
C1099 C1115 1.349 . S
C1100 C1098 1.327 . S
C1100 C1119 1.429 . S
C1100 H1124 0.950 . S
C1101 C1118 1.576 1_556 S
C1101 C1120 1.368 . S
C1101 H1125 0.947 . S
H1102 C1106 0.949 . S
C1103 C1104 1.349 . S
C1103 C1105 1.327 . S
C1103 H1126 0.950 . S
C1104 C1103 1.349 . S
C1104 C1116 1.349 . S
C1105 C1103 1.327 . S
C1105 C1121 1.429 . S
C1105 H1127 0.950 . S
C1106 H1102 0.949 . S
C1106 C1114 1.574 . S
C1106 C1122 1.368 . S
H1107 C1115 0.950 . S
H1108 C1113 0.950 . S
H1109 C1114 0.949 . S
H1110 C1116 0.950 . S
H1111 C1117 0.950 . S
H1112 C1118 0.949 . S
C1113 H1108 0.950 . S
C1113 C1115 1.327 . S
C1113 C1119 1.429 . S
C1114 C1106 1.574 . S
C1114 H1109 0.949 . S
C1114 C1120 1.368 1_554 S
C1115 C1099 1.349 . S
C1115 H1107 0.950 . S
C1115 C1113 1.327 . S
C1116 C1104 1.349 . S
C1116 H1110 0.950 . S
C1116 C1117 1.327 . S
C1117 H1111 0.950 . S
C1117 C1116 1.327 . S
C1117 C1121 1.429 . S
C1118 C1101 1.576 1_554 S
C1118 H1112 0.949 . S
C1118 C1122 1.368 . S
C1119 C1100 1.429 . S
C1119 C1113 1.429 . S
C1119 C1120 1.523 . S
C1120 C1101 1.368 . S
C1120 C1114 1.368 1_556 S
C1120 C1119 1.523 . S
C1121 C1105 1.429 . S
C1121 C1117 1.429 . S
C1121 C1122 1.523 . S
C1122 C1106 1.368 . S
C1122 C1118 1.368 . S
C1122 C1121 1.523 . S
H1123 C1098 0.950 . S
H1124 C1100 0.950 . S
H1125 C1101 0.947 . S
H1126 C1103 0.950 . S
H1127 C1105 0.950 . S
C1128 C1129 1.349 . S
C1128 C1130 1.327 . S
C1128 H1153 0.950 . S
C1129 C1128 1.349 . S
C1129 C1145 1.349 . S
C1130 C1128 1.327 . S
C1130 C1149 1.429 . S
C1130 H1154 0.950 . S
C1131 C1148 1.574 . S
C1131 C1150 1.368 . S
C1131 H1155 0.949 . S
H1132 C1136 0.949 . S
C1133 C1134 1.349 . S
C1133 C1135 1.327 . S
C1133 H1156 0.950 . S
C1134 C1133 1.349 . S
C1134 C1146 1.349 . S
C1135 C1133 1.327 . S
C1135 C1151 1.429 . S
C1135 H1157 0.950 . S
C1136 H1132 0.949 . S
C1136 C1144 1.574 . S
C1136 C1152 1.368 . S
H1137 C1145 0.950 . S
H1138 C1143 0.950 . S
H1139 C1144 0.949 . S
H1140 C1146 0.950 . S
H1141 C1147 0.950 . S
H1142 C1148 0.949 . S
C1143 H1138 0.950 . S
C1143 C1145 1.327 . S
C1143 C1149 1.429 . S
C1144 C1136 1.574 . S
C1144 H1139 0.949 . S
C1144 C1150 1.368 . S
C1145 C1129 1.349 . S
C1145 H1137 0.950 . S
C1145 C1143 1.327 . S
C1146 C1134 1.349 . S
C1146 H1140 0.950 . S
C1146 C1147 1.327 . S
C1147 H1141 0.950 . S
C1147 C1146 1.327 . S
C1147 C1151 1.429 . S
C1148 C1131 1.574 . S
C1148 H1142 0.949 . S
C1148 C1152 1.368 . S
C1149 C1130 1.429 . S
C1149 C1143 1.429 . S
C1149 C1150 1.523 . S
C1150 C1131 1.368 . S
C1150 C1144 1.368 . S
C1150 C1149 1.523 . S
C1151 C1135 1.429 . S
C1151 C1147 1.429 . S
C1151 C1152 1.523 . S
C1152 C1136 1.368 . S
C1152 C1148 1.368 . S
C1152 C1151 1.523 . S
H1153 C1128 0.950 . S
H1154 C1130 0.950 . S
H1155 C1131 0.949 . S
H1156 C1133 0.950 . S
H1157 C1135 0.950 . S
C1158 C1159 1.349 . S
C1158 C1160 1.327 . S
C1158 H1183 0.950 . S
C1159 C1158 1.349 . S
C1159 C1175 1.349 . S
C1160 C1158 1.327 . S
C1160 C1179 1.429 . S
C1160 H1184 0.950 . S
C1161 C1178 1.574 . S
C1161 C1180 1.368 . S
C1161 H1185 0.949 . S
H1162 C1166 0.949 . S
C1163 C1164 1.349 . S
C1163 C1165 1.327 . S
C1163 H1186 0.950 . S
C1164 C1163 1.349 . S
C1164 C1176 1.349 . S
C1165 C1163 1.327 . S
C1165 C1181 1.429 . S
C1165 H1187 0.950 . S
C1166 H1162 0.949 . S
C1166 C1174 1.574 . S
C1166 C1182 1.368 . S
H1167 C1175 0.950 . S
H1168 C1173 0.950 . S
H1169 C1174 0.949 . S
H1170 C1176 0.950 . S
H1171 C1177 0.950 . S
H1172 C1178 0.949 . S
C1173 H1168 0.950 . S
C1173 C1175 1.327 . S
C1173 C1179 1.429 . S
C1174 C1166 1.574 . S
C1174 H1169 0.949 . S
C1174 C1180 1.368 . S
C1175 C1159 1.349 . S
C1175 H1167 0.950 . S
C1175 C1173 1.327 . S
C1176 C1164 1.349 . S
C1176 H1170 0.950 . S
C1176 C1177 1.327 . S
C1177 H1171 0.950 . S
C1177 C1176 1.327 . S
C1177 C1181 1.429 . S
C1178 C1161 1.574 . S
C1178 H1172 0.949 . S
C1178 C1182 1.368 . S
C1179 C1160 1.429 . S
C1179 C1173 1.429 . S
C1179 C1180 1.523 . S
C1180 C1161 1.368 . S
C1180 C1174 1.368 . S
C1180 C1179 1.523 . S
C1181 C1165 1.429 . S
C1181 C1177 1.429 . S
C1181 C1182 1.523 . S
C1182 C1166 1.368 . S
C1182 C1178 1.368 . S
C1182 C1181 1.523 . S
H1183 C1158 0.950 . S
H1184 C1160 0.950 . S
H1185 C1161 0.949 . S
H1186 C1163 0.950 . S
H1187 C1165 0.950 . S
C1188 C1189 1.349 . S
C1188 C1190 1.327 . S
C1188 H1213 0.950 . S
C1189 C1188 1.349 . S
C1189 C1205 1.349 . S
C1190 C1188 1.327 . S
C1190 C1209 1.429 . S
C1190 H1214 0.950 . S
C1191 C1208 1.574 . S
C1191 C1210 1.368 . S
C1191 H1215 0.949 . S
H1192 C1196 0.949 . S
C1193 C1194 1.349 . S
C1193 C1195 1.327 . S
C1193 H1216 0.950 . S
C1194 C1193 1.349 . S
C1194 C1206 1.349 . S
C1195 C1193 1.327 . S
C1195 C1211 1.429 . S
C1195 H1217 0.950 . S
C1196 H1192 0.949 . S
C1196 C1204 1.574 . S
C1196 C1212 1.368 . S
H1197 C1205 0.950 . S
H1198 C1203 0.950 . S
H1199 C1204 0.949 . S
H1200 C1206 0.950 . S
H1201 C1207 0.950 . S
H1202 C1208 0.949 . S
C1203 H1198 0.950 . S
C1203 C1205 1.327 . S
C1203 C1209 1.429 . S
C1204 C1196 1.574 . S
C1204 H1199 0.949 . S
C1204 C1210 1.368 . S
C1205 C1189 1.349 . S
C1205 H1197 0.950 . S
C1205 C1203 1.327 . S
C1206 C1194 1.349 . S
C1206 H1200 0.950 . S
C1206 C1207 1.327 . S
C1207 H1201 0.950 . S
C1207 C1206 1.327 . S
C1207 C1211 1.429 . S
C1208 C1191 1.574 . S
C1208 H1202 0.949 . S
C1208 C1212 1.368 . S
C1209 C1190 1.429 . S
C1209 C1203 1.429 . S
C1209 C1210 1.523 . S
C1210 C1191 1.368 . S
C1210 C1204 1.368 . S
C1210 C1209 1.523 . S
C1211 C1195 1.429 . S
C1211 C1207 1.429 . S
C1211 C1212 1.523 . S
C1212 C1196 1.368 . S
C1212 C1208 1.368 . S
C1212 C1211 1.523 . S
H1213 C1188 0.950 . S
H1214 C1190 0.950 . S
H1215 C1191 0.949 . S
H1216 C1193 0.950 . S
H1217 C1195 0.950 . S
C1218 C1219 1.349 . S
C1218 C1220 1.327 . S
C1218 H1243 0.950 . S
C1219 C1218 1.349 . S
C1219 C1235 1.349 . S
C1220 C1218 1.327 . S
C1220 C1239 1.429 . S
C1220 H1244 0.950 . S
C1221 C1238 1.574 . S
C1221 C1240 1.368 . S
C1221 H1245 0.949 . S
H1222 C1226 0.949 . S
C1223 C1224 1.349 . S
C1223 C1225 1.327 . S
C1223 H1246 0.950 . S
C1224 C1223 1.349 . S
C1224 C1236 1.349 . S
C1225 C1223 1.327 . S
C1225 C1241 1.429 . S
C1225 H1247 0.950 . S
C1226 H1222 0.949 . S
C1226 C1234 1.574 . S
C1226 C1242 1.368 . S
H1227 C1235 0.950 . S
H1228 C1233 0.950 . S
H1229 C1234 0.949 . S
H1230 C1236 0.950 . S
H1231 C1237 0.950 . S
H1232 C1238 0.949 . S
C1233 H1228 0.950 . S
C1233 C1235 1.327 . S
C1233 C1239 1.429 . S
C1234 C1226 1.574 . S
C1234 H1229 0.949 . S
C1234 C1240 1.368 . S
C1235 C1219 1.349 . S
C1235 H1227 0.950 . S
C1235 C1233 1.327 . S
C1236 C1224 1.349 . S
C1236 H1230 0.950 . S
C1236 C1237 1.327 . S
C1237 H1231 0.950 . S
C1237 C1236 1.327 . S
C1237 C1241 1.429 . S
C1238 C1221 1.574 . S
C1238 H1232 0.949 . S
C1238 C1242 1.368 . S
C1239 C1220 1.429 . S
C1239 C1233 1.429 . S
C1239 C1240 1.523 . S
C1240 C1221 1.368 . S
C1240 C1234 1.368 . S
C1240 C1239 1.523 . S
C1241 C1225 1.429 . S
C1241 C1237 1.429 . S
C1241 C1242 1.523 . S
C1242 C1226 1.368 . S
C1242 C1238 1.368 . S
C1242 C1241 1.523 . S
H1243 C1218 0.950 . S
H1244 C1220 0.950 . S
H1245 C1221 0.949 . S
H1246 C1223 0.950 . S
H1247 C1225 0.950 . S
C1248 C1249 1.349 . S
C1248 C1250 1.327 . S
C1248 H1273 0.950 . S
C1249 C1248 1.349 . S
C1249 C1265 1.349 . S
C1250 C1248 1.327 . S
C1250 C1269 1.429 . S
C1250 H1274 0.950 . S
C1251 C1268 1.574 . S
C1251 C1270 1.368 1_556 S
C1251 H1275 0.949 . S
H1252 C1256 0.949 . S
C1253 C1254 1.349 . S
C1253 C1255 1.327 . S
C1253 H1276 0.950 . S
C1254 C1253 1.349 . S
C1254 C1266 1.349 . S
C1255 C1253 1.327 . S
C1255 C1271 1.429 . S
C1255 H1277 0.950 . S
C1256 H1252 0.949 . S
C1256 C1264 1.574 1_556 S
C1256 C1272 1.368 . S
H1257 C1265 0.950 . S
H1258 C1263 0.950 . S
H1259 C1264 0.949 . S
H1260 C1266 0.950 . S
H1261 C1267 0.950 . S
H1262 C1268 0.949 . S
C1263 H1258 0.950 . S
C1263 C1265 1.327 . S
C1263 C1269 1.429 . S
C1264 C1256 1.574 1_554 S
C1264 H1259 0.949 . S
C1264 C1270 1.368 . S
C1265 C1249 1.349 . S
C1265 H1257 0.950 . S
C1265 C1263 1.327 . S
C1266 C1254 1.349 . S
C1266 H1260 0.950 . S
C1266 C1267 1.327 . S
C1267 H1261 0.950 . S
C1267 C1266 1.327 . S
C1267 C1271 1.429 . S
C1268 C1251 1.574 . S
C1268 H1262 0.949 . S
C1268 C1272 1.368 . S
C1269 C1250 1.429 . S
C1269 C1263 1.429 . S
C1269 C1270 1.523 . S
C1270 C1251 1.368 1_554 S
C1270 C1264 1.368 . S
C1270 C1269 1.523 . S
C1271 C1255 1.429 . S
C1271 C1267 1.429 . S
C1271 C1272 1.523 . S
C1272 C1256 1.368 . S
C1272 C1268 1.368 . S
C1272 C1271 1.523 . S
H1273 C1248 0.950 . S
H1274 C1250 0.950 . S
H1275 C1251 0.949 . S
H1276 C1253 0.950 . S
H1277 C1255 0.950 . S
C1278 C1279 1.349 . S
C1278 C1280 1.327 . S
C1278 H1303 0.950 . S
C1279 C1278 1.349 . S
C1279 C1295 1.349 . S
C1280 C1278 1.327 . S
C1280 C1299 1.429 . S
C1280 H1304 0.950 . S
C1281 C1298 1.574 1_554 S
C1281 C1300 1.368 . S
C1281 H1305 0.949 . S
H1282 C1286 0.949 . S
C1283 C1284 1.349 . S
C1283 C1285 1.327 . S
C1283 H1306 0.950 . S
C1284 C1283 1.349 . S
C1284 C1296 1.349 . S
C1285 C1283 1.327 . S
C1285 C1301 1.429 . S
C1285 H1307 0.950 . S
C1286 H1282 0.949 . S
C1286 C1294 1.574 . S
C1286 C1302 1.368 . S
H1287 C1295 0.950 . S
H1288 C1293 0.950 . S
H1289 C1294 0.949 . S
H1290 C1296 0.950 . S
H1291 C1297 0.950 . S
H1292 C1298 0.949 . S
C1293 H1288 0.950 . S
C1293 C1295 1.327 . S
C1293 C1299 1.429 . S
C1294 C1286 1.574 . S
C1294 H1289 0.949 . S
C1294 C1300 1.368 1_556 S
C1295 C1279 1.349 . S
C1295 H1287 0.950 . S
C1295 C1293 1.327 . S
C1296 C1284 1.349 . S
C1296 H1290 0.950 . S
C1296 C1297 1.327 . S
C1297 H1291 0.950 . S
C1297 C1296 1.327 . S
C1297 C1301 1.429 . S
C1298 C1281 1.574 1_556 S
C1298 H1292 0.949 . S
C1298 C1302 1.368 . S
C1299 C1280 1.429 . S
C1299 C1293 1.429 . S
C1299 C1300 1.523 . S
C1300 C1281 1.368 . S
C1300 C1294 1.368 1_554 S
C1300 C1299 1.523 . S
C1301 C1285 1.429 . S
C1301 C1297 1.429 . S
C1301 C1302 1.523 . S
C1302 C1286 1.368 . S
C1302 C1298 1.368 . S
C1302 C1301 1.523 . S
H1303 C1278 0.950 . S
H1304 C1280 0.950 . S
H1305 C1281 0.949 . S
H1306 C1283 0.950 . S
H1307 C1285 0.950 . S
C1308 C1309 1.349 . S
C1308 C1310 1.327 . S
C1308 H1333 0.950 . S
C1309 C1308 1.349 . S
C1309 C1325 1.349 . S
C1310 C1308 1.327 . S
C1310 C1329 1.429 . S
C1310 H1334 0.950 . S
C1311 C1328 1.574 . S
C1311 C1330 1.368 1_556 S
C1311 H1335 0.949 . S
H1312 C1316 0.949 . S
C1313 C1314 1.349 . S
C1313 C1315 1.327 . S
C1313 H1336 0.950 . S
C1314 C1313 1.349 . S
C1314 C1326 1.349 . S
C1315 C1313 1.327 . S
C1315 C1331 1.429 . S
C1315 H1337 0.950 . S
C1316 H1312 0.949 . S
C1316 C1324 1.574 1_556 S
C1316 C1332 1.368 . S
H1317 C1325 0.950 . S
H1318 C1323 0.950 . S
H1319 C1324 0.949 . S
H1320 C1326 0.950 . S
H1321 C1327 0.950 . S
H1322 C1328 0.949 . S
C1323 H1318 0.950 . S
C1323 C1325 1.327 . S
C1323 C1329 1.429 . S
C1324 C1316 1.574 1_554 S
C1324 H1319 0.949 . S
C1324 C1330 1.368 . S
C1325 C1309 1.349 . S
C1325 H1317 0.950 . S
C1325 C1323 1.327 . S
C1326 C1314 1.349 . S
C1326 H1320 0.950 . S
C1326 C1327 1.327 . S
C1327 H1321 0.950 . S
C1327 C1326 1.327 . S
C1327 C1331 1.429 . S
C1328 C1311 1.574 . S
C1328 H1322 0.949 . S
C1328 C1332 1.368 . S
C1329 C1310 1.429 . S
C1329 C1323 1.429 . S
C1329 C1330 1.523 . S
C1330 C1311 1.368 1_554 S
C1330 C1324 1.368 . S
C1330 C1329 1.523 . S
C1331 C1315 1.429 . S
C1331 C1327 1.429 . S
C1331 C1332 1.523 . S
C1332 C1316 1.368 . S
C1332 C1328 1.368 . S
C1332 C1331 1.523 . S
H1333 C1308 0.950 . S
H1334 C1310 0.950 . S
H1335 C1311 0.949 . S
H1336 C1313 0.950 . S
H1337 C1315 0.950 . S
C1338 C1339 1.349 . S
C1338 C1340 1.327 . S
C1338 H1363 0.950 . S
C1339 C1338 1.349 . S
C1339 C1355 1.349 . S
C1340 C1338 1.327 . S
C1340 C1359 1.429 . S
C1340 H1364 0.950 . S
C1341 C1358 1.574 . S
C1341 C1360 1.368 1_556 S
C1341 H1365 0.949 . S
H1342 C1346 0.949 . S
C1343 C1344 1.349 . S
C1343 C1345 1.327 . S
C1343 H1366 0.950 . S
C1344 C1343 1.349 . S
C1344 C1356 1.349 . S
C1345 C1343 1.327 . S
C1345 C1361 1.429 . S
C1345 H1367 0.950 . S
C1346 H1342 0.949 . S
C1346 C1354 1.574 1_556 S
C1346 C1362 1.368 . S
H1347 C1355 0.950 . S
H1348 C1353 0.950 1_556 S
H1349 C1354 0.949 . S
H1350 C1356 0.950 . S
H1351 C1357 0.950 . S
H1352 C1358 0.949 . S
C1353 H1348 0.950 1_554 S
C1353 C1355 1.327 . S
C1353 C1359 1.429 . S
C1354 C1346 1.574 1_554 S
C1354 H1349 0.949 . S
C1354 C1360 1.368 . S
C1355 C1339 1.349 . S
C1355 H1347 0.950 . S
C1355 C1353 1.327 . S
C1356 C1344 1.349 . S
C1356 H1350 0.950 . S
C1356 C1357 1.327 . S
C1357 H1351 0.950 . S
C1357 C1356 1.327 . S
C1357 C1361 1.429 . S
C1358 C1341 1.574 . S
C1358 H1352 0.949 . S
C1358 C1362 1.368 . S
C1359 C1340 1.429 . S
C1359 C1353 1.429 . S
C1359 C1360 1.523 . S
C1360 C1341 1.368 1_554 S
C1360 C1354 1.368 . S
C1360 C1359 1.523 . S
C1361 C1345 1.429 . S
C1361 C1357 1.429 . S
C1361 C1362 1.523 . S
C1362 C1346 1.368 . S
C1362 C1358 1.368 . S
C1362 C1361 1.523 . S
H1363 C1338 0.950 . S
H1364 C1340 0.950 . S
H1365 C1341 0.949 . S
H1366 C1343 0.950 . S
H1367 C1345 0.950 . S
C1368 C1369 1.349 . S
C1368 C1370 1.327 . S
C1368 H1393 0.950 . S
C1369 C1368 1.349 . S
C1369 C1385 1.349 . S
C1370 C1368 1.327 . S
C1370 C1389 1.429 . S
C1370 H1394 0.950 . S
C1371 C1388 1.574 . S
C1371 C1390 1.368 . S
C1371 H1395 0.949 . S
H1372 C1376 0.949 . S
C1373 C1374 1.349 . S
C1373 C1375 1.327 . S
C1373 H1396 0.950 . S
C1374 C1373 1.349 . S
C1374 C1386 1.349 . S
C1375 C1373 1.327 . S
C1375 C1391 1.429 . S
C1375 H1397 0.950 . S
C1376 H1372 0.949 . S
C1376 C1384 1.574 . S
C1376 C1392 1.368 . S
H1377 C1385 0.950 . S
H1378 C1383 0.950 . S
H1379 C1384 0.949 . S
H1380 C1386 0.950 . S
H1381 C1387 0.950 . S
H1382 C1388 0.949 . S
C1383 H1378 0.950 . S
C1383 C1385 1.327 . S
C1383 C1389 1.429 . S
C1384 C1376 1.574 . S
C1384 H1379 0.949 . S
C1384 C1390 1.368 . S
C1385 C1369 1.349 . S
C1385 H1377 0.950 . S
C1385 C1383 1.327 . S
C1386 C1374 1.349 . S
C1386 H1380 0.950 . S
C1386 C1387 1.327 . S
C1387 H1381 0.950 . S
C1387 C1386 1.327 . S
C1387 C1391 1.429 . S
C1388 C1371 1.574 . S
C1388 H1382 0.949 . S
C1388 C1392 1.368 . S
C1389 C1370 1.429 . S
C1389 C1383 1.429 . S
C1389 C1390 1.523 . S
C1390 C1371 1.368 . S
C1390 C1384 1.368 . S
C1390 C1389 1.523 . S
C1391 C1375 1.429 . S
C1391 C1387 1.429 . S
C1391 C1392 1.523 . S
C1392 C1376 1.368 . S
C1392 C1388 1.368 . S
C1392 C1391 1.523 . S
H1393 C1368 0.950 . S
H1394 C1370 0.950 . S
H1395 C1371 0.949 . S
H1396 C1373 0.950 . S
H1397 C1375 0.950 . S
C1398 C1399 1.349 . S
C1398 C1400 1.327 . S
C1398 H1423 0.950 . S
C1399 C1398 1.349 . S
C1399 C1415 1.349 . S
C1400 C1398 1.327 . S
C1400 C1419 1.429 . S
C1400 H1424 0.950 . S
C1401 C1418 1.574 . S
C1401 C1420 1.368 . S
C1401 H1425 0.949 . S
H1402 C1406 0.949 . S
C1403 C1404 1.349 . S
C1403 C1405 1.327 . S
C1403 H1426 0.950 . S
C1404 C1403 1.349 . S
C1404 C1416 1.349 . S
C1405 C1403 1.327 . S
C1405 C1421 1.429 . S
C1405 H1427 0.950 . S
C1406 H1402 0.949 . S
C1406 C1414 1.574 . S
C1406 C1422 1.368 . S
H1407 C1415 0.950 . S
H1408 C1413 0.950 . S
H1409 C1414 0.949 . S
H1410 C1416 0.950 . S
H1411 C1417 0.950 . S
H1412 C1418 0.949 . S
C1413 H1408 0.950 . S
C1413 C1415 1.327 . S
C1413 C1419 1.429 . S
C1414 C1406 1.574 . S
C1414 H1409 0.949 . S
C1414 C1420 1.368 . S
C1415 C1399 1.349 . S
C1415 H1407 0.950 . S
C1415 C1413 1.327 . S
C1416 C1404 1.349 . S
C1416 H1410 0.950 . S
C1416 C1417 1.327 . S
C1417 H1411 0.950 . S
C1417 C1416 1.327 . S
C1417 C1421 1.429 . S
C1418 C1401 1.574 . S
C1418 H1412 0.949 . S
C1418 C1422 1.368 . S
C1419 C1400 1.429 . S
C1419 C1413 1.429 . S
C1419 C1420 1.523 . S
C1420 C1401 1.368 . S
C1420 C1414 1.368 . S
C1420 C1419 1.523 . S
C1421 C1405 1.429 . S
C1421 C1417 1.429 . S
C1421 C1422 1.523 . S
C1422 C1406 1.368 . S
C1422 C1418 1.368 . S
C1422 C1421 1.523 . S
H1423 C1398 0.950 . S
H1424 C1400 0.950 . S
H1425 C1401 0.949 . S
H1426 C1403 0.950 . S
H1427 C1405 0.950 . S
C1428 C1429 1.349 . S
C1428 C1430 1.327 . S
C1428 H1453 0.950 . S
C1429 C1428 1.349 . S
C1429 C1445 1.349 . S
C1430 C1428 1.327 . S
C1430 C1449 1.429 . S
C1430 H1454 0.950 . S
C1431 C1448 1.574 . S
C1431 C1450 1.368 . S
C1431 H1455 0.949 . S
H1432 C1436 0.949 . S
C1433 C1434 1.349 . S
C1433 C1435 1.327 . S
C1433 H1456 0.950 . S
C1434 C1433 1.349 . S
C1434 C1446 1.349 . S
C1435 C1433 1.327 . S
C1435 C1451 1.429 . S
C1435 H1457 0.950 . S
C1436 H1432 0.949 . S
C1436 C1444 1.574 . S
C1436 C1452 1.368 . S
H1437 C1445 0.950 . S
H1438 C1443 0.950 . S
H1439 C1444 0.949 . S
H1440 C1446 0.950 . S
H1441 C1447 0.950 . S
H1442 C1448 0.949 . S
C1443 H1438 0.950 . S
C1443 C1445 1.327 . S
C1443 C1449 1.429 . S
C1444 C1436 1.574 . S
C1444 H1439 0.949 . S
C1444 C1450 1.368 . S
C1445 C1429 1.349 . S
C1445 H1437 0.950 . S
C1445 C1443 1.327 . S
C1446 C1434 1.349 . S
C1446 H1440 0.950 . S
C1446 C1447 1.327 . S
C1447 H1441 0.950 . S
C1447 C1446 1.327 . S
C1447 C1451 1.429 . S
C1448 C1431 1.574 . S
C1448 H1442 0.949 . S
C1448 C1452 1.368 . S
C1449 C1430 1.429 . S
C1449 C1443 1.429 . S
C1449 C1450 1.523 . S
C1450 C1431 1.368 . S
C1450 C1444 1.368 . S
C1450 C1449 1.523 . S
C1451 C1435 1.429 . S
C1451 C1447 1.429 . S
C1451 C1452 1.523 . S
C1452 C1436 1.368 . S
C1452 C1448 1.368 . S
C1452 C1451 1.523 . S
H1453 C1428 0.950 . S
H1454 C1430 0.950 . S
H1455 C1431 0.949 . S
H1456 C1433 0.950 . S
H1457 C1435 0.950 . S
C1458 C1459 1.349 . S
C1458 C1460 1.327 . S
C1458 H1483 0.950 . S
C1459 C1458 1.349 . S
C1459 C1475 1.349 . S
C1460 C1458 1.327 . S
C1460 C1479 1.429 . S
C1460 H1484 0.950 . S
C1461 C1478 1.574 . S
C1461 C1480 1.368 . S
C1461 H1485 0.949 . S
H1462 C1466 0.949 . S
C1463 C1464 1.349 . S
C1463 C1465 1.327 . S
C1463 H1486 0.950 . S
C1464 C1463 1.349 . S
C1464 C1476 1.349 . S
C1465 C1463 1.327 . S
C1465 C1481 1.429 . S
C1465 H1487 0.950 . S
C1466 H1462 0.949 . S
C1466 C1474 1.574 . S
C1466 C1482 1.368 . S
H1467 C1475 0.950 . S
H1468 C1473 0.950 . S
H1469 C1474 0.949 . S
H1470 C1476 0.950 . S
H1471 C1477 0.950 . S
H1472 C1478 0.949 . S
C1473 H1468 0.950 . S
C1473 C1475 1.327 . S
C1473 C1479 1.429 . S
C1474 C1466 1.574 . S
C1474 H1469 0.949 . S
C1474 C1480 1.368 . S
C1475 C1459 1.349 . S
C1475 H1467 0.950 . S
C1475 C1473 1.327 . S
C1476 C1464 1.349 . S
C1476 H1470 0.950 . S
C1476 C1477 1.327 . S
C1477 H1471 0.950 . S
C1477 C1476 1.327 . S
C1477 C1481 1.429 . S
C1478 C1461 1.574 . S
C1478 H1472 0.949 . S
C1478 C1482 1.368 . S
C1479 C1460 1.429 . S
C1479 C1473 1.429 . S
C1479 C1480 1.523 . S
C1480 C1461 1.368 . S
C1480 C1474 1.368 . S
C1480 C1479 1.523 . S
C1481 C1465 1.429 . S
C1481 C1477 1.429 . S
C1481 C1482 1.523 . S
C1482 C1466 1.368 . S
C1482 C1478 1.368 . S
C1482 C1481 1.523 . S
H1483 C1458 0.950 . S
H1484 C1460 0.950 . S
H1485 C1461 0.949 . S
H1486 C1463 0.950 . S
H1487 C1465 0.950 . S
C1488 C1489 1.349 . S
C1488 C1490 1.327 . S
C1488 H1513 0.950 . S
C1489 C1488 1.349 . S
C1489 C1505 1.349 . S
C1490 C1488 1.327 . S
C1490 C1509 1.429 . S
C1490 H1514 0.950 . S
C1491 C1508 1.574 . S
C1491 C1510 1.368 . S
C1491 H1515 0.949 . S
H1492 C1496 0.949 . S
C1493 C1494 1.349 . S
C1493 C1495 1.327 . S
C1493 H1516 0.950 . S
C1494 C1493 1.349 . S
C1494 C1506 1.349 . S
C1495 C1493 1.327 . S
C1495 C1511 1.429 . S
C1495 H1517 0.950 . S
C1496 H1492 0.949 . S
C1496 C1504 1.574 . S
C1496 C1512 1.368 . S
H1497 C1505 0.950 . S
H1498 C1503 0.950 . S
H1499 C1504 0.949 . S
H1500 C1506 0.950 . S
H1501 C1507 0.950 . S
H1502 C1508 0.949 . S
C1503 H1498 0.950 . S
C1503 C1505 1.327 . S
C1503 C1509 1.429 . S
C1504 C1496 1.574 . S
C1504 H1499 0.949 . S
C1504 C1510 1.368 . S
C1505 C1489 1.349 . S
C1505 H1497 0.950 . S
C1505 C1503 1.327 . S
C1506 C1494 1.349 . S
C1506 H1500 0.950 . S
C1506 C1507 1.327 . S
C1507 H1501 0.950 . S
C1507 C1506 1.327 . S
C1507 C1511 1.429 . S
C1508 C1491 1.574 . S
C1508 H1502 0.949 . S
C1508 C1512 1.368 . S
C1509 C1490 1.429 . S
C1509 C1503 1.429 . S
C1509 C1510 1.523 . S
C1510 C1491 1.368 . S
C1510 C1504 1.368 . S
C1510 C1509 1.523 . S
C1511 C1495 1.429 . S
C1511 C1507 1.429 . S
C1511 C1512 1.523 . S
C1512 C1496 1.368 . S
C1512 C1508 1.368 . S
C1512 C1511 1.523 . S
H1513 C1488 0.950 . S
H1514 C1490 0.950 . S
H1515 C1491 0.949 . S
H1516 C1493 0.950 . S
H1517 C1495 0.950 . S
C1518 C1519 1.349 . S
C1518 C1520 1.327 . S
C1518 H1543 0.950 . S
C1519 C1518 1.349 . S
C1519 C1535 1.349 . S
C1520 C1518 1.327 . S
C1520 C1539 1.429 . S
C1520 H1544 0.950 . S
C1521 C1538 1.574 . S
C1521 C1540 1.368 . S
C1521 H1545 0.949 . S
H1522 C1526 0.949 . S
C1523 C1524 1.349 . S
C1523 C1525 1.327 . S
C1523 H1546 0.950 . S
C1524 C1523 1.349 . S
C1524 C1536 1.349 . S
C1525 C1523 1.327 . S
C1525 C1541 1.429 . S
C1525 H1547 0.950 . S
C1526 H1522 0.949 . S
C1526 C1534 1.574 . S
C1526 C1542 1.368 . S
H1527 C1535 0.950 . S
H1528 C1533 0.950 . S
H1529 C1534 0.949 . S
H1530 C1536 0.950 . S
H1531 C1537 0.950 . S
H1532 C1538 0.949 . S
C1533 H1528 0.950 . S
C1533 C1535 1.327 . S
C1533 C1539 1.429 . S
C1534 C1526 1.574 . S
C1534 H1529 0.949 . S
C1534 C1540 1.368 . S
C1535 C1519 1.349 . S
C1535 H1527 0.950 . S
C1535 C1533 1.327 . S
C1536 C1524 1.349 . S
C1536 H1530 0.950 . S
C1536 C1537 1.327 . S
C1537 H1531 0.950 . S
C1537 C1536 1.327 . S
C1537 C1541 1.429 . S
C1538 C1521 1.574 . S
C1538 H1532 0.949 . S
C1538 C1542 1.368 . S
C1539 C1520 1.429 . S
C1539 C1533 1.429 . S
C1539 C1540 1.523 . S
C1540 C1521 1.368 . S
C1540 C1534 1.368 . S
C1540 C1539 1.523 . S
C1541 C1525 1.429 . S
C1541 C1537 1.429 . S
C1541 C1542 1.523 . S
C1542 C1526 1.368 . S
C1542 C1538 1.368 . S
C1542 C1541 1.523 . S
H1543 C1518 0.950 . S
H1544 C1520 0.950 . S
H1545 C1521 0.949 . S
H1546 C1523 0.950 . S
H1547 C1525 0.950 . S
C1548 C1549 1.349 . S
C1548 C1550 1.327 . S
C1548 H1573 0.950 . S
C1549 C1548 1.349 . S
C1549 C1565 1.349 . S
C1550 C1548 1.327 . S
C1550 C1569 1.429 . S
C1550 H1574 0.950 . S
C1551 C1568 1.574 . S
C1551 C1570 1.368 . S
C1551 H1575 0.949 . S
H1552 C1556 0.949 . S
C1553 C1554 1.349 . S
C1553 C1555 1.327 . S
C1553 H1576 0.950 . S
C1554 C1553 1.349 . S
C1554 C1566 1.349 . S
C1555 C1553 1.327 . S
C1555 C1571 1.429 . S
C1555 H1577 0.950 . S
C1556 H1552 0.949 . S
C1556 C1564 1.574 . S
C1556 C1572 1.368 . S
H1557 C1565 0.950 . S
H1558 C1563 0.950 . S
H1559 C1564 0.949 . S
H1560 C1566 0.950 . S
H1561 C1567 0.950 . S
H1562 C1568 0.949 . S
C1563 H1558 0.950 . S
C1563 C1565 1.327 . S
C1563 C1569 1.429 . S
C1564 C1556 1.574 . S
C1564 H1559 0.949 . S
C1564 C1570 1.368 . S
C1565 C1549 1.349 . S
C1565 H1557 0.950 . S
C1565 C1563 1.327 . S
C1566 C1554 1.349 . S
C1566 H1560 0.950 . S
C1566 C1567 1.327 . S
C1567 H1561 0.950 . S
C1567 C1566 1.327 . S
C1567 C1571 1.429 . S
C1568 C1551 1.574 . S
C1568 H1562 0.949 . S
C1568 C1572 1.368 . S
C1569 C1550 1.429 . S
C1569 C1563 1.429 . S
C1569 C1570 1.523 . S
C1570 C1551 1.368 . S
C1570 C1564 1.368 . S
C1570 C1569 1.523 . S
C1571 C1555 1.429 . S
C1571 C1567 1.429 . S
C1571 C1572 1.523 . S
C1572 C1556 1.368 . S
C1572 C1568 1.368 . S
C1572 C1571 1.523 . S
H1573 C1548 0.950 . S
H1574 C1550 0.950 . S
H1575 C1551 0.949 . S
H1576 C1553 0.950 . S
H1577 C1555 0.950 . S
C1578 C1579 1.349 . S
C1578 C1580 1.327 . S
C1578 H1603 0.950 . S
C1579 C1578 1.349 . S
C1579 C1595 1.349 . S
C1580 C1578 1.327 . S
C1580 C1599 1.429 . S
C1580 H1604 0.950 . S
C1581 C1598 1.574 . S
C1581 C1600 1.368 . S
C1581 H1605 0.949 . S
H1582 C1586 0.949 . S
C1583 C1584 1.349 . S
C1583 C1585 1.327 . S
C1583 H1606 0.950 . S
C1584 C1583 1.349 . S
C1584 C1596 1.349 . S
C1585 C1583 1.327 . S
C1585 C1601 1.429 . S
C1585 H1607 0.950 . S
C1586 H1582 0.949 . S
C1586 C1594 1.574 . S
C1586 C1602 1.368 . S
H1587 C1595 0.950 . S
H1588 C1593 0.950 . S
H1589 C1594 0.949 . S
H1590 C1596 0.950 . S
H1591 C1597 0.950 . S
H1592 C1598 0.949 . S
C1593 H1588 0.950 . S
C1593 C1595 1.327 . S
C1593 C1599 1.429 . S
C1594 C1586 1.574 . S
C1594 H1589 0.949 . S
C1594 C1600 1.368 . S
C1595 C1579 1.349 . S
C1595 H1587 0.950 . S
C1595 C1593 1.327 . S
C1596 C1584 1.349 . S
C1596 H1590 0.950 . S
C1596 C1597 1.327 . S
C1597 H1591 0.950 . S
C1597 C1596 1.327 . S
C1597 C1601 1.429 . S
C1598 C1581 1.574 . S
C1598 H1592 0.949 . S
C1598 C1602 1.368 . S
C1599 C1580 1.429 . S
C1599 C1593 1.429 . S
C1599 C1600 1.523 . S
C1600 C1581 1.368 . S
C1600 C1594 1.368 . S
C1600 C1599 1.523 . S
C1601 C1585 1.429 . S
C1601 C1597 1.429 . S
C1601 C1602 1.523 . S
C1602 C1586 1.368 . S
C1602 C1598 1.368 . S
C1602 C1601 1.523 . S
H1603 C1578 0.950 . S
H1604 C1580 0.950 . S
H1605 C1581 0.949 . S
H1606 C1583 0.950 . S
H1607 C1585 0.950 . S
C1608 C1609 1.349 . S
C1608 C1610 1.327 . S
C1608 H1633 0.950 . S
C1609 C1608 1.349 . S
C1609 C1625 1.349 . S
C1610 C1608 1.327 . S
C1610 C1629 1.429 . S
C1610 H1634 0.950 . S
C1611 C1628 1.574 . S
C1611 C1630 1.368 . S
C1611 H1635 0.949 . S
H1612 C1616 0.949 . S
C1613 C1614 1.349 . S
C1613 C1615 1.327 . S
C1613 H1636 0.950 . S
C1614 C1613 1.349 . S
C1614 C1626 1.349 . S
C1615 C1613 1.327 . S
C1615 C1631 1.429 . S
C1615 H1637 0.950 . S
C1616 H1612 0.949 . S
C1616 C1624 1.574 . S
C1616 C1632 1.368 . S
H1617 C1625 0.950 . S
H1618 C1623 0.950 . S
H1619 C1624 0.949 . S
H1620 C1626 0.950 . S
H1621 C1627 0.950 . S
H1622 C1628 0.949 . S
C1623 H1618 0.950 . S
C1623 C1625 1.327 . S
C1623 C1629 1.429 . S
C1624 C1616 1.574 . S
C1624 H1619 0.949 . S
C1624 C1630 1.368 . S
C1625 C1609 1.349 . S
C1625 H1617 0.950 . S
C1625 C1623 1.327 . S
C1626 C1614 1.349 . S
C1626 H1620 0.950 . S
C1626 C1627 1.327 . S
C1627 H1621 0.950 . S
C1627 C1626 1.327 . S
C1627 C1631 1.429 . S
C1628 C1611 1.574 . S
C1628 H1622 0.949 . S
C1628 C1632 1.368 . S
C1629 C1610 1.429 . S
C1629 C1623 1.429 . S
C1629 C1630 1.523 . S
C1630 C1611 1.368 . S
C1630 C1624 1.368 . S
C1630 C1629 1.523 . S
C1631 C1615 1.429 . S
C1631 C1627 1.429 . S
C1631 C1632 1.523 . S
C1632 C1616 1.368 . S
C1632 C1628 1.368 . S
C1632 C1631 1.523 . S
H1633 C1608 0.950 . S
H1634 C1610 0.950 . S
H1635 C1611 0.949 . S
H1636 C1613 0.950 . S
H1637 C1615 0.950 . S
C1638 C1639 1.349 . S
C1638 C1640 1.327 . S
C1638 H1663 0.950 . S
C1639 C1638 1.349 . S
C1639 C1655 1.349 . S
C1640 C1638 1.327 . S
C1640 C1659 1.429 . S
C1640 H1664 0.950 . S
C1641 C1658 1.574 . S
C1641 C1660 1.368 . S
C1641 H1665 0.949 . S
H1642 C1646 0.949 . S
C1643 C1644 1.349 . S
C1643 C1645 1.327 . S
C1643 H1666 0.950 . S
C1644 C1643 1.349 . S
C1644 C1656 1.349 . S
C1645 C1643 1.327 . S
C1645 C1661 1.429 . S
C1645 H1667 0.950 . S
C1646 H1642 0.949 . S
C1646 C1654 1.574 . S
C1646 C1662 1.368 . S
H1647 C1655 0.950 . S
H1648 C1653 0.950 . S
H1649 C1654 0.949 . S
H1650 C1656 0.950 . S
H1651 C1657 0.950 . S
H1652 C1658 0.949 . S
C1653 H1648 0.950 . S
C1653 C1655 1.327 . S
C1653 C1659 1.429 . S
C1654 C1646 1.574 . S
C1654 H1649 0.949 . S
C1654 C1660 1.368 . S
C1655 C1639 1.349 . S
C1655 H1647 0.950 . S
C1655 C1653 1.327 . S
C1656 C1644 1.349 . S
C1656 H1650 0.950 . S
C1656 C1657 1.327 . S
C1657 H1651 0.950 . S
C1657 C1656 1.327 . S
C1657 C1661 1.429 . S
C1658 C1641 1.574 . S
C1658 H1652 0.949 . S
C1658 C1662 1.368 . S
C1659 C1640 1.429 . S
C1659 C1653 1.429 . S
C1659 C1660 1.523 . S
C1660 C1641 1.368 . S
C1660 C1654 1.368 . S
C1660 C1659 1.523 . S
C1661 C1645 1.429 . S
C1661 C1657 1.429 . S
C1661 C1662 1.523 . S
C1662 C1646 1.368 . S
C1662 C1658 1.368 . S
C1662 C1661 1.523 . S
H1663 C1638 0.950 . S
H1664 C1640 0.950 . S
H1665 C1641 0.949 . S
H1666 C1643 0.950 . S
H1667 C1645 0.950 . S
C1668 C1669 1.349 . S
C1668 C1670 1.327 . S
C1668 H1693 0.950 . S
C1669 C1668 1.349 . S
C1669 C1685 1.349 . S
C1670 C1668 1.327 . S
C1670 C1689 1.429 . S
C1670 H1694 0.950 . S
C1671 C1688 1.574 . S
C1671 C1690 1.368 . S
C1671 H1695 0.949 . S
H1672 C1676 0.949 . S
C1673 C1674 1.349 . S
C1673 C1675 1.327 . S
C1673 H1696 0.950 . S
C1674 C1673 1.349 . S
C1674 C1686 1.349 . S
C1675 C1673 1.327 . S
C1675 C1691 1.429 . S
C1675 H1697 0.950 . S
C1676 H1672 0.949 . S
C1676 C1684 1.574 . S
C1676 C1692 1.368 . S
H1677 C1685 0.950 . S
H1678 C1683 0.950 . S
H1679 C1684 0.949 . S
H1680 C1686 0.950 . S
H1681 C1687 0.950 . S
H1682 C1688 0.949 . S
C1683 H1678 0.950 . S
C1683 C1685 1.327 . S
C1683 C1689 1.429 . S
C1684 C1676 1.574 . S
C1684 H1679 0.949 . S
C1684 C1690 1.368 . S
C1685 C1669 1.349 . S
C1685 H1677 0.950 . S
C1685 C1683 1.327 . S
C1686 C1674 1.349 . S
C1686 H1680 0.950 . S
C1686 C1687 1.327 . S
C1687 H1681 0.950 . S
C1687 C1686 1.327 . S
C1687 C1691 1.429 . S
C1688 C1671 1.574 . S
C1688 H1682 0.949 . S
C1688 C1692 1.368 . S
C1689 C1670 1.429 . S
C1689 C1683 1.429 . S
C1689 C1690 1.523 . S
C1690 C1671 1.368 . S
C1690 C1684 1.368 . S
C1690 C1689 1.523 . S
C1691 C1675 1.429 . S
C1691 C1687 1.429 . S
C1691 C1692 1.523 . S
C1692 C1676 1.368 . S
C1692 C1688 1.368 . S
C1692 C1691 1.523 . S
H1693 C1668 0.950 . S
H1694 C1670 0.950 . S
H1695 C1671 0.949 . S
H1696 C1673 0.950 . S
H1697 C1675 0.950 . S
C1698 C1699 1.349 . S
C1698 C1700 1.327 . S
C1698 H1723 0.950 . S
C1699 C1698 1.349 . S
C1699 C1715 1.349 . S
C1700 C1698 1.327 . S
C1700 C1719 1.429 . S
C1700 H1724 0.950 . S
C1701 C1718 1.574 . S
C1701 C1720 1.368 . S
C1701 H1725 0.949 . S
H1702 C1706 0.949 . S
C1703 C1704 1.349 . S
C1703 C1705 1.327 . S
C1703 H1726 0.950 . S
C1704 C1703 1.349 . S
C1704 C1716 1.349 . S
C1705 C1703 1.327 . S
C1705 C1721 1.429 . S
C1705 H1727 0.950 . S
C1706 H1702 0.949 . S
C1706 C1714 1.574 . S
C1706 C1722 1.368 . S
H1707 C1715 0.950 . S
H1708 C1713 0.950 . S
H1709 C1714 0.949 . S
H1710 C1716 0.950 . S
H1711 C1717 0.950 . S
H1712 C1718 0.949 . S
C1713 H1708 0.950 . S
C1713 C1715 1.327 . S
C1713 C1719 1.429 . S
C1714 C1706 1.574 . S
C1714 H1709 0.949 . S
C1714 C1720 1.368 . S
C1715 C1699 1.349 . S
C1715 H1707 0.950 . S
C1715 C1713 1.327 . S
C1716 C1704 1.349 . S
C1716 H1710 0.950 . S
C1716 C1717 1.327 . S
C1717 H1711 0.950 . S
C1717 C1716 1.327 . S
C1717 C1721 1.429 . S
C1718 C1701 1.574 . S
C1718 H1712 0.949 . S
C1718 C1722 1.368 . S
C1719 C1700 1.429 . S
C1719 C1713 1.429 . S
C1719 C1720 1.523 . S
C1720 C1701 1.368 . S
C1720 C1714 1.368 . S
C1720 C1719 1.523 . S
C1721 C1705 1.429 . S
C1721 C1717 1.429 . S
C1721 C1722 1.523 . S
C1722 C1706 1.368 . S
C1722 C1718 1.368 . S
C1722 C1721 1.523 . S
H1723 C1698 0.950 . S
H1724 C1700 0.950 . S
H1725 C1701 0.949 . S
H1726 C1703 0.950 . S
H1727 C1705 0.950 . S
C529 C18 1.486 . S
C534 C216 1.486 . S
C559 C249 1.486 . S
C564 C51 1.486 . S
C589 C150 1.486 . S
C594 C84 1.486 . S
C619 C183 1.486 . S
C624 C117 1.486 . S
C649 C282 1.486 . S
C654 C480 1.486 . S
C679 C315 1.486 . S
C684 C513 1.486 . S
C709 C414 1.486 . S
C714 C348 1.486 . S
C739 C381 1.486 . S
C744 C447 1.486 . S
C769 N266 2.203 . S
C774 N2 2.203 . S
C799 N299 2.203 . S
C804 N35 2.203 . S
C829 N332 2.203 . S
C834 N68 2.203 . S
C859 N365 2.203 . S
C864 N101 2.203 . S
C889 N398 2.203 . S
C894 N134 2.203 . S
C919 N431 2.203 . S
C924 N167 2.203 . S
C949 N200 2.203 . S
C954 N464 2.203 . S
C979 N233 2.203 . S
C984 N497 2.203 . S
C1009 C318 0.464 . S
C1014 C7 0.346 . S
C1039 C351 0.464 . S
C1044 C40 0.346 . S
C1069 C384 0.464 . S
C1074 C73 0.346 . S
C1099 C285 0.464 . S
C1104 C106 0.346 . S
C1129 C139 0.346 . S
C1134 C516 0.464 . S
C1159 C172 0.346 . S
C1164 C417 0.464 . S
C1189 C205 0.346 . S
C1194 C450 0.464 . S
C1219 C238 0.346 . S
C1224 C483 0.464 . S
C1249 C54 0.464 . S
C1254 C271 0.346 . S
C1279 C87 0.464 . S
C1284 C304 0.346 . S
C1309 C120 0.464 . S
C1314 C337 0.346 . S
C1339 C21 0.464 . S
C1344 C370 0.346 . S
C1369 C252 0.464 . S
C1374 C403 0.346 . S
C1399 C153 0.464 . S
C1404 C436 0.346 . S
C1429 C186 0.464 . S
C1434 C469 0.346 . S
C1459 C502 0.346 . S
C1464 C219 0.464 . S
C1489 N79 0.588 . S
C1494 N13 0.588 . S
C1519 N112 0.588 . S
C1524 N46 0.588 . S
C1549 N145 0.588 . S
C1554 N211 0.588 . S
C1579 N244 0.588 . S
C1584 N178 0.588 . S
C1609 N277 0.588 . S
C1614 N343 0.588 . S
C1639 N376 0.588 . S
C1644 N310 0.588 . S
C1669 N409 0.588 . S
C1674 N475 0.588 . S
C1699 N442 0.588 . S
C1704 N508 0.588 . S
