# Generated by pormake.
# Topology cab, (5)-cn, num edge types: 1
# Building blocks:
#     Node 0, Type 0, BuildingBlock: XOMCOT_clean_sbu_0, # of connection points: 5
#     Node 1, Type 0, BuildingBlock: XOMCOT_clean_sbu_0, # of connection points: 5
#     Node 2, Type 0, BuildingBlock: XOMCOT_clean_sbu_0, # of connection points: 5
#     Node 3, Type 0, BuildingBlock: XOMCOT_clean_sbu_0, # of connection points: 5
#     Node 4, Type 0, BuildingBlock: XOMCOT_clean_sbu_0, # of connection points: 5
#     Node 5, Type 0, BuildingBlock: XOMCOT_clean_sbu_0, # of connection points: 5
#     Edge 6, Type (0, 0), BuildingBlock: AJUNOK_clean_linker_0, # of connection points: 2
#     Edge 7, Type (0, 0), BuildingBlock: AJUNOK_clean_linker_0, # of connection points: 2
#     Edge 8, Type (0, 0), BuildingBlock: AJUNOK_clean_linker_0, # of connection points: 2
#     Edge 9, Type (0, 0), BuildingBlock: AJUNOK_clean_linker_0, # of connection points: 2
#     Edge 10, Type (0, 0), BuildingBlock: AJUNOK_clean_linker_0, # of connection points: 2
#     Edge 11, Type (0, 0), BuildingBlock: AJUNOK_clean_linker_0, # of connection points: 2
#     Edge 12, Type (0, 0), BuildingBlock: AJUNOK_clean_linker_0, # of connection points: 2
#     Edge 13, Type (0, 0), BuildingBlock: AJUNOK_clean_linker_0, # of connection points: 2
#     Edge 14, Type (0, 0), BuildingBlock: AJUNOK_clean_linker_0, # of connection points: 2
#     Edge 15, Type (0, 0), BuildingBlock: AJUNOK_clean_linker_0, # of connection points: 2
#     Edge 16, Type (0, 0), BuildingBlock: AJUNOK_clean_linker_0, # of connection points: 2
#     Edge 17, Type (0, 0), BuildingBlock: AJUNOK_clean_linker_0, # of connection points: 2
#     Edge 18, Type (0, 0), BuildingBlock: AJUNOK_clean_linker_0, # of connection points: 2
#     Edge 19, Type (0, 0), BuildingBlock: AJUNOK_clean_linker_0, # of connection points: 2
#     Edge 20, Type (0, 0), BuildingBlock: AJUNOK_clean_linker_0, # of connection points: 2
# Relax obj value: 0.853
# Max RMSD: 0.232
# Mean RMSD: 0.229
data_MOF--net-cab--node1-XOMCOT_clean_sbu_0--edge1-AJUNOK_clean_linker_0
_symmetry_space_group_name_H-M    P1
_symmetry_Int_Tables_number       1
_symmetry_cell_setting            triclinic
loop_
_symmetry_equiv_pos_as_xyz
'x, y, z'
_cell_length_a     28.603819
_cell_length_b     28.666726
_cell_length_c     28.408473
_cell_angle_alpha  76.333553
_cell_angle_beta   75.554876
_cell_angle_gamma 76.849009
loop_
_atom_site_label
_atom_site_type_symbol
_atom_site_fract_x
_atom_site_fract_y
_atom_site_fract_z
_atom_type_partial_charge
Co0 Co 0.00113 0.02892 0.34733 0.0
C1 C 0.02952 0.92803 0.32893 0.0
C2 C 0.97085 0.93151 0.39224 0.0
C3 C 0.98556 0.88345 0.38648 0.0
N4 N -0.00131 0.95967 0.35604 0.0
N5 N 0.02306 0.88171 0.34718 0.0
H6 H 0.05675 0.93798 0.2963 0.0
H7 H 0.94348 0.94402 0.42252 0.0
C8 C 0.89168 0.04042 0.35142 0.0
O9 O 0.88294 0.01472 0.39643 0.0
N10 N 0.00449 0.09721 0.33784 0.0
C11 C 0.02568 0.11784 0.36314 0.0
C12 C 0.02405 0.16641 0.3418 0.0
C13 C -0.00876 0.13297 0.30094 0.0
N14 N 0.00276 0.17572 0.30238 0.0
C15 C 0.00446 -0.00315 0.44773 0.0
C16 C 0.94737 0.08163 0.47548 0.0
C17 C 0.98319 0.05461 0.50187 0.0
C18 C 0.00795 0.00921 0.49093 0.0
C19 C 0.9438 0.06701 0.43311 0.0
N20 N 0.97601 0.02788 0.41732 0.0
H21 H 0.0302 0.96614 0.43513 0.0
H22 H 0.92152 0.0918 0.40882 0.0
H23 H 0.04204 0.09864 0.3943 0.0
H24 H 0.97592 0.12711 0.27206 0.0
O25 O 0.0702 0.01355 0.34834 0.0
O26 O 0.039 0.02884 0.2808 0.0
O27 O 0.93478 0.04809 0.32997 0.0
C28 C 0.07752 0.01974 0.30036 0.0
H29 H 0.97115 0.85216 0.41016 0.0
H30 H 0.03805 0.19247 0.35409 0.0
H31 H 0.92735 0.11678 0.48337 0.0
H32 H 0.03522 0.98706 0.51136 0.0
Co33 Co 0.11471 0.14948 0.7631 0.0
C34 C 0.01798 0.14817 0.83343 0.0
C35 C 0.02309 0.11209 0.77406 0.0
C36 C 0.97942 0.1068 0.80706 0.0
N37 N 0.04737 0.13852 0.79029 0.0
N38 N 0.97676 0.12918 0.84443 0.0
H39 H 0.02689 0.1667 0.85798 0.0
H40 H 0.0371 0.09505 0.74205 0.0
C41 C 0.16153 0.05421 0.81055 0.0
O42 O 0.18151 0.07856 0.83156 0.0
N43 N 0.18265 0.15918 0.73634 0.0
C44 C 0.21102 0.15555 0.69097 0.0
C45 C 0.25939 0.15329 0.69237 0.0
C46 C 0.2143 0.1619 0.76343 0.0
N47 N 0.26103 0.15755 0.73799 0.0
C48 C 0.07132 0.18247 0.67869 0.0
C49 C 0.10926 0.09894 0.6392 0.0
C50 C 0.07071 0.1325 0.62157 0.0
C51 C 0.05257 0.17541 0.64052 0.0
C52 C 0.1263 0.10691 0.67779 0.0
N53 N 0.10599 0.14736 0.69832 0.0
H54 H 0.0548 0.214 0.69552 0.0
H55 H 0.15459 0.07952 0.69225 0.0
H56 H 0.19873 0.15226 0.65921 0.0
H57 H 0.20452 0.16242 0.80261 0.0
O58 O 0.09385 0.21908 0.76326 0.0
O59 O 0.11753 0.16285 0.82492 0.0
O60 O 0.13591 0.07692 0.77855 0.0
C61 C 0.10096 0.20827 0.80844 0.0
H62 H 0.95338 0.08536 0.80552 0.0
H63 H 0.29108 0.14608 0.6632 0.0
H64 H 0.12404 0.06527 0.62539 0.0
H65 H 0.02278 0.20205 0.62751 0.0
Co66 Co 0.3502 0.03823 0.02875 0.0
C67 C 0.35122 0.07163 0.92223 0.0
C68 C 0.42382 0.03751 0.93143 0.0
C69 C 0.42501 0.0548 0.88148 0.0
N70 N 0.37725 0.04837 0.95728 0.0
N71 N 0.37935 0.07678 0.87643 0.0
H72 H 0.31213 0.08455 0.92941 0.0
H73 H 0.45506 0.01758 0.9469 0.0
C74 C 0.35785 0.93991 0.00518 0.0
O75 O 0.40072 0.94331 0.97566 0.0
N76 N 0.32254 0.02931 0.09899 0.0
C77 C 0.34327 0.03374 0.13506 0.0
C78 C 0.3098 0.02866 0.17918 0.0
C79 C 0.27649 0.02272 0.1214 0.0
N80 N 0.26743 0.02266 0.17047 0.0
C81 C 0.44854 0.03523 0.0339 0.0
C82 C 0.46038 0.94395 0.09476 0.0
C83 C 0.49598 0.9729 0.08493 0.0
C84 C 0.4906 0.01841 0.05332 0.0
C85 C 0.41907 0.96184 0.07387 0.0
N86 N 0.41346 0.0071 0.04409 0.0
H87 H 0.44311 0.07164 0.01203 0.0
H88 H 0.38975 0.94107 0.08552 0.0
H89 H 0.3799 0.04099 0.1297 0.0
H90 H 0.24956 0.02026 0.10168 0.0
O91 O 0.35171 0.10537 0.02923 0.0
O92 O 0.28926 0.07889 0.01705 0.0
O93 O 0.33384 0.97445 0.02759 0.0
C94 C 0.30727 0.11505 0.02133 0.0
H95 H 0.45676 0.05198 0.85146 0.0
H96 H 0.31652 0.02946 0.21475 0.0
H97 H 0.46319 0.90928 0.12032 0.0
H98 H 0.51744 0.04188 0.04603 0.0
Co99 Co 0.02285 0.35599 0.04849 0.0
C100 C 0.91876 0.34927 0.06744 0.0
C101 C 0.9301 0.41717 0.01945 0.0
C102 C 0.88135 0.41348 0.02652 0.0
N103 N 0.95363 0.37666 0.0454 0.0
N104 N 0.87465 0.3708 0.05713 0.0
H105 H 0.92544 0.31279 0.08879 0.0
H106 H 0.947 0.44666 0.99529 0.0
C107 C 0.02496 0.34295 0.94497 0.0
O108 O 0.00151 0.38738 0.93188 0.0
N109 N 0.09102 0.33441 0.05183 0.0
C110 C 0.12045 0.35686 0.06585 0.0
C111 C 0.16704 0.32912 0.06015 0.0
C112 C 0.11939 0.29342 0.03871 0.0
N113 N 0.16621 0.28962 0.04247 0.0
C114 C 0.01933 0.45801 0.03363 0.0
C115 C 0.09968 0.46014 0.95527 0.0
C116 C 0.08237 0.49986 0.97913 0.0
C117 C 0.04039 0.49975 0.01711 0.0
C118 C 0.07692 0.41956 0.97218 0.0
N119 N 0.03844 0.41825 0.01202 0.0
H120 H 0.98994 0.45613 0.06605 0.0
H121 H 0.09401 0.38727 0.95684 0.0
H122 H 0.10899 0.39121 0.07859 0.0
H123 H 0.10562 0.26645 0.02762 0.0
O124 O 0.00895 0.36719 0.11587 0.0
O125 O 0.00894 0.29764 0.09391 0.0
O126 O 0.03587 0.32852 0.98745 0.0
C127 C 0.00359 0.32161 0.12888 0.0
H128 H 0.85347 0.43945 0.00967 0.0
H129 H 0.19908 0.33756 0.06782 0.0
H130 H 0.13287 0.45888 0.92673 0.0
H131 H 0.02698 0.52971 0.03699 0.0
Co132 Co 0.78713 0.08738 0.10284 0.0
C133 C 0.77678 0.18819 0.11248 0.0
C134 C 0.71198 0.17936 0.09331 0.0
C135 C 0.70983 0.22835 0.09105 0.0
N136 N 0.75448 0.15415 0.10619 0.0
N137 N 0.75071 0.23355 0.10304 0.0
H138 H 0.81348 0.18038 0.11969 0.0
H139 H 0.6852 0.16467 0.08336 0.0
C140 C 0.7685 0.09259 0.21005 0.0
O141 O 0.72379 0.11676 0.20892 0.0
N142 N 0.82025 0.02167 0.09886 0.0
C143 C 0.81176 -0.00705 0.0718 0.0
C144 C 0.84805 0.9523 0.07192 0.0
C145 C 0.86121 -0.0017 0.11528 0.0
N146 N 0.87944 0.95585 0.09886 0.0
C147 C 0.69869 0.07136 0.08785 0.0
C148 C 0.68092 0.00053 0.17206 0.0
C149 C 0.65368 0.00853 0.13557 0.0
C150 C 0.66189 0.04512 0.09379 0.0
C151 C 0.71774 0.02783 0.16462 0.0
N152 N 0.72604 0.06302 0.12296 0.0
H153 H 0.70726 0.09622 0.05324 0.0
H154 H 0.74189 0.01755 0.19046 0.0
H155 H 0.7828 0.00219 0.05117 0.0
H156 H 0.87773 0.01305 0.13752 0.0
O157 O 0.79357 0.10143 0.03148 0.0
O158 O 0.8478 0.10981 0.07112 0.0
O159 O 0.79633 0.07708 0.17227 0.0
C160 C 0.83618 0.11173 0.02926 0.0
H161 H 0.68191 0.25801 0.07879 0.0
H162 H 0.85267 0.92385 0.05112 0.0
H163 H 0.67562 0.97188 0.20442 0.0
H164 H 0.64129 0.05196 0.06483 0.0
Co165 Co 0.14372 0.78532 0.06736 0.0
C166 C 0.11199 0.77302 0.17633 0.0
C167 C 0.18396 0.73206 0.15634 0.0
C168 C 0.17287 0.72964 0.20696 0.0
N169 N 0.14592 0.76009 0.13695 0.0
N170 N 0.12744 0.75536 0.21912 0.0
H171 H 0.07794 0.79821 0.17417 0.0
H172 H 0.21827 0.71614 0.13527 0.0
C173 C 0.25505 0.78104 0.04869 0.0
O174 O 0.26867 0.73418 0.04852 0.0
N175 N 0.14109 0.81172 -0.00123 0.0
C176 C 0.11829 0.7969 0.9702 0.0
C177 C 0.1214 0.82867 0.92527 0.0
C178 C 0.15695 0.85243 0.9715 0.0
N179 N 0.14532 0.86378 0.92644 0.0
C180 C 0.14444 0.68444 0.08075 0.0
C181 C 0.20051 0.67373 0.98783 0.0
C182 C 0.17304 0.6383 0.01541 0.0
C183 C 0.14714 0.64231 0.06341 0.0
C184 C 0.1979 0.71483 0.00715 0.0
N185 N 0.16792 0.7209 0.05189 0.0
H186 H 0.11941 0.68987 0.11522 0.0
H187 H 0.21587 0.74404 0.98381 0.0
H188 H 0.10005 0.76566 0.9816 0.0
H189 H 0.17436 0.8747 0.98537 0.0
O190 O 0.07401 0.78523 0.08086 0.0
O191 O 0.10817 0.84682 0.08274 0.0
O192 O 0.21024 0.80191 0.05539 0.0
C193 C 0.06847 0.83032 0.08614 0.0
H194 H 0.19721 0.71271 0.23235 0.0
H195 H 0.10662 0.82634 0.89454 0.0
H196 H 0.22015 0.67174 0.95025 0.0
H197 H 0.12477 0.61566 0.08506 0.0
C198 C 0.95889 0.26769 0.19784 0.0
C199 C -0.00357 0.29542 0.18028 0.0
C200 C 0.95942 0.23087 0.24005 0.0
C201 C -0.00185 0.21974 0.26546 0.0
H202 H 0.93036 0.27266 0.17724 0.0
H203 H 0.9306 0.20927 0.25141 0.0
S204 S 0.10466 0.28336 0.23417 0.0
N205 N 0.07181 0.31165 0.19208 0.0
N206 N 0.07423 0.24118 0.27057 0.0
C207 C 0.03462 0.24917 0.24961 0.0
C208 C 0.03343 0.28733 0.20707 0.0
C209 C 0.82805 0.11189 0.24836 0.0
C210 C 0.79002 0.08664 0.25322 0.0
C211 C 0.85853 0.09869 0.28261 0.0
C212 C 0.85246 0.05929 0.32268 0.0
H213 H 0.83597 0.14034 0.21631 0.0
H214 H 0.8886 0.11807 0.27618 0.0
S215 S 0.75534 0.98402 0.35326 0.0
N216 N 0.74533 0.02292 0.30215 0.0
N217 N 0.80288 -0.00245 0.36708 0.0
C218 C 0.81238 0.03578 0.32969 0.0
C219 C 0.78116 0.04949 0.29462 0.0
C220 C 0.02761 0.80905 0.31336 0.0
C221 C 0.05125 0.84008 0.32703 0.0
C222 C 0.05407 0.77694 0.28164 0.0
C223 C 0.10491 0.77446 0.2634 0.0
H224 H 0.98804 0.81276 0.32366 0.0
H225 H 0.03421 0.7567 0.26805 0.0
S226 S 0.18434 0.84336 0.29453 0.0
N227 N 0.1287 0.86242 0.32518 0.0
N228 N 0.17838 0.80213 0.26549 0.0
C229 C 0.12947 0.80192 0.2808 0.0
C230 C 0.10256 0.83484 0.31263 0.0
C231 C 0.18708 -0.00428 0.19697 0.0
C232 C 0.22102 0.0203 0.20497 0.0
C233 C 0.14069 -0.00478 0.22825 0.0
C234 C 0.1271 0.01821 0.26933 0.0
H235 H 0.1963 0.97687 0.16616 0.0
H236 H 0.1154 0.97657 0.22032 0.0
S237 S 0.20003 0.09013 0.30562 0.0
N238 N 0.23563 0.07098 0.25593 0.0
N239 N 0.1496 0.0673 0.31603 0.0
C240 C 0.16047 0.04235 0.27834 0.0
C241 C 0.2072 0.04403 0.24588 0.0
C242 C 0.19394 0.92826 0.88521 0.0
C243 C 0.15231 0.90767 0.89044 0.0
C244 C 0.19816 0.97462 0.85647 0.0
C245 C 0.16108 0.00197 0.83151 0.0
H246 H 0.22271 0.90902 0.90493 0.0
H247 H 0.22985 0.9899 0.85534 0.0
S248 S 0.04553 0.96387 0.83135 0.0
N249 N 0.07387 0.91771 0.86704 0.0
N250 N 0.08247 0.0042 0.81184 0.0
C251 C 0.12057 0.9807 0.83403 0.0
C252 C 0.116 0.93367 0.86381 0.0
C253 C 0.35954 0.07511 0.79762 0.0
C254 C 0.36207 0.10162 0.83232 0.0
C255 C 0.33009 0.09571 0.76242 0.0
C256 C 0.30251 0.14323 0.76127 0.0
H257 H 0.37698 0.03711 0.80053 0.0
H258 H 0.3253 0.07295 0.73911 0.0
S259 S 0.30439 0.22999 0.83837 0.0
N260 N 0.3405 0.17945 0.85907 0.0
N261 N 0.28493 0.21808 0.79309 0.0
C262 C 0.30855 0.17131 0.79279 0.0
C263 C 0.33842 0.15048 0.82837 0.0
C264 C 0.06894 0.29327 0.82531 0.0
C265 C 0.08344 0.24309 0.84277 0.0
C266 C 0.04909 0.32575 0.85838 0.0
C267 C 0.04274 0.30889 0.90989 0.0
H268 H 0.07294 0.30753 0.78593 0.0
H269 H 0.03923 0.36424 0.84351 0.0
S270 S 0.07082 0.18023 0.97466 0.0
N271 N 0.0881 0.178 0.91528 0.0
N272 N 0.04933 0.23824 0.97671 0.0
C273 C 0.05599 0.25859 0.92766 0.0
C274 C 0.07682 0.22591 0.89429 0.0
C275 C 0.85693 0.13209 0.93661 0.0
C276 C 0.87225 0.119 0.9821 0.0
C277 C 0.89126 0.13558 0.89152 0.0
C278 C 0.94183 0.12607 0.89062 0.0
H279 H 0.81824 0.13942 0.93583 0.0
H280 H 0.87835 0.14585 0.85712 0.0
S281 S 0.00105 0.08469 -0.001 0.0
N282 N 0.9417 0.09324 0.02312 0.0
N283 N 0.00572 0.09921 0.93848 0.0
C284 C 0.95759 0.11217 0.9357 0.0
C285 C 0.92289 0.10883 0.98145 0.0
C286 C 0.27629 0.19094 0.05616 0.0
C287 C 0.27669 0.16377 0.02084 0.0
C288 C 0.24123 0.23338 0.06185 0.0
C289 C 0.20599 0.25011 0.03195 0.0
H290 H 0.30131 0.17783 0.08141 0.0
H291 H 0.24018 0.25181 0.09134 0.0
S292 S 0.1984 0.19674 0.92769 0.0
N293 N 0.24288 0.15917 0.95207 0.0
N294 N 0.17891 0.24027 0.96074 0.0
C295 C 0.20875 0.22518 0.99396 0.0
C296 C 0.24363 0.1816 0.98893 0.0
C297 C 0.30665 0.88338 0.06373 0.0
C298 C 0.33888 0.89388 0.01789 0.0
C299 C 0.28305 0.84342 0.07522 0.0
C300 C 0.29101 0.81234 0.0415 0.0
H301 H 0.29813 0.90717 0.09039 0.0
H302 H 0.25628 0.83829 0.10969 0.0
S303 S 0.37416 0.82146 0.91819 0.0
N304 N 0.37999 0.86806 0.93985 0.0
N305 N 0.33488 0.7925 0.96183 0.0
C306 C 0.3253 0.82033 -0.00308 0.0
C307 C 0.3495 0.8613 0.98501 0.0
C308 C 0.79206 0.28462 0.13091 0.0
C309 C 0.77007 0.27736 0.09494 0.0
C310 C 0.82249 0.31932 0.11951 0.0
C311 C 0.83251 0.34741 0.07153 0.0
H312 H 0.78815 0.26107 0.16708 0.0
H313 H 0.84128 0.32177 0.14733 0.0
S314 S 0.78086 0.34446 0.96524 0.0
N315 N 0.75711 0.30326 0.01066 0.0
N316 N 0.81521 0.36818 0.9889 0.0
C317 C 0.80775 0.34313 0.0363 0.0
C318 C 0.77635 0.30798 0.04808 0.0
C319 C 0.97745 0.84387 0.09635 0.0
C320 C 0.01963 0.86161 0.09541 0.0
C321 C 0.93147 0.87443 0.09985 0.0
C322 C 0.92588 0.92395 0.10227 0.0
H323 H 0.98003 0.80645 0.09303 0.0
H324 H 0.90013 0.85938 0.09955 0.0
S325 S 0.02473 0.9872 0.10531 0.0
N326 N 0.05255 0.9308 0.1012 0.0
N327 N 0.96662 0.98857 0.10597 0.0
C328 C 0.96756 0.9416 0.10354 0.0
C329 C 0.01432 0.91034 0.10046 0.0
C330 C -0.00321 0.1165 0.60068 0.0
C331 C 0.04697 0.11974 0.58713 0.0
C332 C 0.97551 0.09628 0.57251 0.0
C333 C 0.00409 0.07841 0.53046 0.0
H334 H 0.97446 0.12766 0.63439 0.0
H335 H 0.93714 0.09307 0.58451 0.0
S336 S 0.13521 0.08512 0.47589 0.0
N337 N 0.12306 0.10842 0.52642 0.0
N338 N 0.08355 0.07008 0.47366 0.0
C339 C 0.05359 0.08396 0.51523 0.0
C340 C 0.07496 0.10469 0.54358 0.0
C341 C 0.62391 0.95346 0.09984 0.0
C342 C 0.61728 0.97881 0.13847 0.0
C343 C 0.5835 0.94452 0.0864 0.0
C344 C 0.53588 0.9601 0.11184 0.0
H345 H 0.65978 0.94615 0.07611 0.0
H346 H 0.58914 0.9307 0.05266 0.0
S347 S 0.50049 0.01759 0.22227 0.0
N348 N 0.56092 0.01151 0.20707 0.0
N349 N 0.48458 -0.00623 0.18227 0.0
C350 C 0.52946 0.97874 0.15489 0.0
C351 C 0.57054 0.98825 0.16829 0.0
C352 C 0.17914 0.55439 0.00275 0.0
C353 C 0.16054 0.60437 0.99133 0.0
C354 C 0.15626 0.52033 0.99333 0.0
C355 C 0.11367 0.5356 0.97342 0.0
H356 H 0.20907 0.54158 0.0223 0.0
H357 H 0.16924 0.48184 0.00581 0.0
S358 S 0.05388 0.66262 0.93321 0.0
N359 N 0.10052 0.66787 0.95494 0.0
N360 N 0.05642 0.60344 0.93881 0.0
C361 C 0.09695 0.58548 0.9587 0.0
C362 C 0.12079 0.6201 0.9673 0.0
loop_
_geom_bond_atom_site_label_1
_geom_bond_atom_site_label_2
_geom_bond_distance
_geom_bond_site_symmetry_2
_ccdc_geom_bond_type
Co0 N4 2.148 1_545 S
Co0 N10 2.128 . S
Co0 N20 2.194 . S
Co0 O25 2.351 . S
Co0 O26 2.155 . S
Co0 O27 2.096 1_455 S
C1 N4 1.301 . S
C1 N5 1.328 . S
C1 H6 0.930 . S
C2 C3 1.333 . S
C2 N4 1.317 1_655 S
C2 H7 0.930 . S
C3 C2 1.333 . S
C3 N5 1.350 1_655 S
C3 H29 0.931 . S
N4 Co0 2.148 1_565 S
N4 C1 1.301 . S
N4 C2 1.317 1_455 S
N5 C1 1.328 . S
N5 C3 1.350 1_455 S
H6 C1 0.930 . S
H7 C2 0.930 . S
C8 O9 1.224 . S
C8 O27 1.247 . S
O9 C8 1.224 . S
N10 Co0 2.128 . S
N10 C11 1.355 . S
N10 C13 1.311 1_455 S
C11 N10 1.355 . S
C11 C12 1.363 . S
C11 H23 0.929 . S
C12 C11 1.363 . S
C12 N14 1.354 1_455 S
C12 H30 0.931 . S
C13 N10 1.311 1_655 S
C13 N14 1.356 . S
C13 H24 0.929 . S
N14 C12 1.354 1_655 S
N14 C13 1.356 . S
C15 C18 1.365 . S
C15 N20 1.328 . S
C15 H21 0.929 1_545 S
C16 C17 1.362 1_655 S
C16 C19 1.378 . S
C16 H31 0.929 . S
C17 C16 1.362 1_455 S
C17 C18 1.366 . S
C18 C15 1.365 . S
C18 C17 1.366 . S
C18 H32 0.930 1_545 S
C19 C16 1.378 . S
C19 N20 1.315 1_655 S
C19 H22 0.930 . S
N20 Co0 2.194 . S
N20 C15 1.328 . S
N20 C19 1.315 1_455 S
H21 C15 0.929 1_565 S
H22 C19 0.930 . S
H23 C11 0.929 . S
H24 C13 0.929 . S
O25 Co0 2.351 . S
O25 C28 1.243 1_545 S
O26 Co0 2.155 . S
O26 C28 1.240 1_545 S
O27 Co0 2.096 1_655 S
O27 C8 1.247 . S
C28 O25 1.243 1_565 S
C28 O26 1.240 1_565 S
H29 C3 0.931 . S
H30 C12 0.931 . S
H31 C16 0.929 . S
H32 C18 0.930 1_565 S
Co33 N37 2.148 . S
Co33 N43 2.128 . S
Co33 N53 2.194 . S
Co33 O58 2.351 . S
Co33 O59 2.155 . S
Co33 O60 2.096 . S
C34 N37 1.301 . S
C34 N38 1.328 1_455 S
C34 H39 0.930 . S
C35 C36 1.330 1_455 S
C35 N37 1.317 . S
C35 H40 0.930 . S
C36 C35 1.330 1_655 S
C36 N38 1.351 . S
C36 H62 0.934 . S
N37 Co33 2.148 . S
N37 C34 1.301 . S
N37 C35 1.317 . S
N38 C34 1.328 1_655 S
N38 C36 1.351 . S
H39 C34 0.930 . S
H40 C35 0.930 . S
C41 O42 1.224 . S
C41 O60 1.247 . S
O42 C41 1.224 . S
N43 Co33 2.128 . S
N43 C44 1.355 . S
N43 C46 1.311 . S
C44 N43 1.355 . S
C44 C45 1.363 . S
C44 H56 0.929 . S
C45 C44 1.363 . S
C45 N47 1.375 . S
C45 H63 0.931 . S
C46 N43 1.311 . S
C46 N47 1.347 . S
C46 H57 0.929 . S
N47 C45 1.375 . S
N47 C46 1.347 . S
C48 C51 1.365 . S
C48 N53 1.328 . S
C48 H54 0.929 . S
C49 C50 1.362 . S
C49 C52 1.378 . S
C49 H64 0.929 . S
C50 C49 1.362 . S
C50 C51 1.366 . S
C51 C48 1.365 . S
C51 C50 1.366 . S
C51 H65 0.930 . S
C52 C49 1.378 . S
C52 N53 1.315 . S
C52 H55 0.930 . S
N53 Co33 2.194 . S
N53 C48 1.328 . S
N53 C52 1.315 . S
H54 C48 0.929 . S
H55 C52 0.930 . S
H56 C44 0.929 . S
H57 C46 0.929 . S
O58 Co33 2.351 . S
O58 C61 1.244 . S
O59 Co33 2.155 . S
O59 C61 1.240 . S
O60 Co33 2.096 . S
O60 C41 1.247 . S
C61 O58 1.244 . S
C61 O59 1.240 . S
H62 C36 0.934 . S
H63 C45 0.931 . S
H64 C49 0.929 . S
H65 C51 0.930 . S
Co66 N70 2.148 1_554 S
Co66 N76 2.128 . S
Co66 N86 2.194 . S
Co66 O91 2.351 1_554 S
Co66 O92 2.155 . S
Co66 O93 2.096 1_545 S
C67 N70 1.301 . S
C67 N71 1.328 . S
C67 H72 0.930 . S
C68 C69 1.333 1_565 S
C68 N70 1.317 1_565 S
C68 H73 0.930 . S
C69 C68 1.333 1_545 S
C69 N71 1.350 . S
C69 H95 0.931 1_545 S
N70 Co66 2.148 1_556 S
N70 C67 1.301 . S
N70 C68 1.317 1_545 S
N71 C67 1.328 . S
N71 C69 1.350 . S
H72 C67 0.930 . S
H73 C68 0.930 . S
C74 O75 1.224 . S
C74 O93 1.247 . S
O75 C74 1.224 . S
N76 Co66 2.128 . S
N76 C77 1.355 . S
N76 C79 1.311 1_545 S
C77 N76 1.355 . S
C77 C78 1.363 . S
C77 H89 0.929 . S
C78 C77 1.363 . S
C78 N80 1.375 . S
C78 H96 0.931 . S
C79 N76 1.311 1_565 S
C79 N80 1.347 1_565 S
C79 H90 0.929 . S
N80 C78 1.375 . S
N80 C79 1.347 1_545 S
C81 C84 1.365 . S
C81 N86 1.328 1_556 S
C81 H87 0.929 . S
C82 C83 1.362 1_565 S
C82 C85 1.378 . S
C82 H97 0.929 . S
C83 C82 1.362 1_545 S
C83 C84 1.366 1_554 S
C84 C81 1.365 . S
C84 C83 1.366 1_556 S
C84 H98 0.930 . S
C85 C82 1.378 . S
C85 N86 1.315 1_565 S
C85 H88 0.930 . S
N86 Co66 2.194 . S
N86 C81 1.328 1_554 S
N86 C85 1.315 1_545 S
H87 C81 0.929 . S
H88 C85 0.930 . S
H89 C77 0.929 . S
H90 C79 0.929 . S
O91 Co66 2.351 1_556 S
O91 C94 1.244 . S
O92 Co66 2.155 . S
O92 C94 1.240 1_554 S
O93 Co66 2.096 1_565 S
O93 C74 1.247 . S
C94 O91 1.244 . S
C94 O92 1.240 1_556 S
H95 C69 0.931 1_565 S
H96 C78 0.931 . S
H97 C82 0.929 . S
H98 C84 0.930 . S
Co99 N103 2.148 1_455 S
Co99 N109 2.128 . S
Co99 N119 2.194 . S
Co99 O124 2.351 . S
Co99 O125 2.155 . S
Co99 O126 2.096 1_554 S
C100 N103 1.301 . S
C100 N104 1.328 . S
C100 H105 0.930 . S
C101 C102 1.333 . S
C101 N103 1.317 1_556 S
C101 H106 0.930 . S
C102 C101 1.333 . S
C102 N104 1.350 1_556 S
C102 H128 0.931 . S
N103 Co99 2.148 1_655 S
N103 C100 1.301 . S
N103 C101 1.317 1_554 S
N104 C100 1.328 . S
N104 C102 1.350 1_554 S
H105 C100 0.930 . S
H106 C101 0.930 . S
C107 O108 1.224 . S
C107 O126 1.247 . S
O108 C107 1.224 . S
N109 Co99 2.128 . S
N109 C110 1.355 . S
N109 C112 1.311 1_554 S
C110 N109 1.355 . S
C110 C111 1.363 . S
C110 H122 0.929 . S
C111 C110 1.363 . S
C111 N113 1.375 1_554 S
C111 H129 0.931 . S
C112 N109 1.311 1_556 S
C112 N113 1.347 . S
C112 H123 0.929 . S
N113 C111 1.375 1_556 S
N113 C112 1.347 . S
C114 C117 1.365 . S
C114 N119 1.328 . S
C114 H120 0.929 1_455 S
C115 C116 1.362 1_556 S
C115 C118 1.378 . S
C115 H130 0.929 . S
C116 C115 1.362 1_554 S
C116 C117 1.366 . S
C117 C114 1.365 . S
C117 C116 1.366 . S
C117 H131 0.930 . S
C118 C115 1.378 . S
C118 N119 1.315 1_556 S
C118 H121 0.930 . S
N119 Co99 2.194 . S
N119 C114 1.328 . S
N119 C118 1.315 1_554 S
H120 C114 0.929 1_655 S
H121 C118 0.930 . S
H122 C110 0.929 . S
H123 C112 0.929 . S
O124 Co99 2.351 . S
O124 C127 1.244 . S
O125 Co99 2.155 . S
O125 C127 1.240 . S
O126 Co99 2.096 1_556 S
O126 C107 1.247 . S
C127 O124 1.244 . S
C127 O125 1.240 . S
H128 C102 0.931 . S
H129 C111 0.931 . S
H130 C115 0.929 . S
H131 C117 0.930 . S
Co132 N136 2.148 . S
Co132 N142 2.128 . S
Co132 N152 2.194 . S
Co132 O157 2.351 . S
Co132 O158 2.155 . S
Co132 O159 2.096 . S
C133 N136 1.301 . S
C133 N137 1.328 . S
C133 H138 0.930 . S
C134 C135 1.333 . S
C134 N136 1.317 . S
C134 H139 0.930 . S
C135 C134 1.333 . S
C135 N137 1.350 . S
C135 H161 0.931 . S
N136 Co132 2.148 . S
N136 C133 1.301 . S
N136 C134 1.317 . S
N137 C133 1.328 . S
N137 C135 1.350 . S
H138 C133 0.930 . S
H139 C134 0.930 . S
C140 O141 1.224 . S
C140 O159 1.247 . S
O141 C140 1.224 . S
N142 Co132 2.128 . S
N142 C143 1.355 . S
N142 C145 1.311 . S
C143 N142 1.355 . S
C143 C144 1.363 1_545 S
C143 H155 0.929 . S
C144 C143 1.363 1_565 S
C144 N146 1.375 . S
C144 H162 0.931 . S
C145 N142 1.311 . S
C145 N146 1.347 1_545 S
C145 H156 0.929 . S
N146 C144 1.375 . S
N146 C145 1.347 1_565 S
C147 C150 1.365 . S
C147 N152 1.328 . S
C147 H153 0.929 . S
C148 C149 1.362 . S
C148 C151 1.378 . S
C148 H163 0.929 . S
C149 C148 1.362 . S
C149 C150 1.366 . S
C150 C147 1.365 . S
C150 C149 1.366 . S
C150 H164 0.930 . S
C151 C148 1.378 . S
C151 N152 1.315 . S
C151 H154 0.930 . S
N152 Co132 2.194 . S
N152 C147 1.328 . S
N152 C151 1.315 . S
H153 C147 0.929 . S
H154 C151 0.930 . S
H155 C143 0.929 . S
H156 C145 0.929 . S
O157 Co132 2.351 . S
O157 C160 1.244 . S
O158 Co132 2.155 . S
O158 C160 1.240 . S
O159 Co132 2.096 . S
O159 C140 1.247 . S
C160 O157 1.244 . S
C160 O158 1.240 . S
H161 C135 0.931 . S
H162 C144 0.931 . S
H163 C148 0.929 . S
H164 C150 0.930 . S
Co165 N169 2.148 . S
Co165 N175 2.128 . S
Co165 N185 2.194 . S
Co165 O190 2.351 . S
Co165 O191 2.155 . S
Co165 O192 2.096 . S
C166 N169 1.301 . S
C166 N170 1.328 . S
C166 H171 0.930 . S
C167 C168 1.333 . S
C167 N169 1.317 . S
C167 H172 0.930 . S
C168 C167 1.333 . S
C168 N170 1.350 . S
C168 H194 0.931 . S
N169 Co165 2.148 . S
N169 C166 1.301 . S
N169 C167 1.317 . S
N170 C166 1.328 . S
N170 C168 1.350 . S
H171 C166 0.930 . S
H172 C167 0.930 . S
C173 O174 1.224 . S
C173 O192 1.247 . S
O174 C173 1.224 . S
N175 Co165 2.128 . S
N175 C176 1.355 . S
N175 C178 1.311 . S
C176 N175 1.355 . S
C176 C177 1.363 1_554 S
C176 H188 0.929 . S
C177 C176 1.363 1_556 S
C177 N179 1.375 . S
C177 H195 0.931 . S
C178 N175 1.311 . S
C178 N179 1.347 1_554 S
C178 H189 0.929 . S
N179 C177 1.375 . S
N179 C178 1.347 1_556 S
C180 C183 1.365 . S
C180 N185 1.328 . S
C180 H186 0.929 . S
C181 C182 1.362 . S
C181 C184 1.378 . S
C181 H196 0.929 . S
C182 C181 1.362 . S
C182 C183 1.366 . S
C183 C180 1.365 . S
C183 C182 1.366 . S
C183 H197 0.930 . S
C184 C181 1.378 . S
C184 N185 1.315 . S
C184 H187 0.930 . S
N185 Co165 2.194 . S
N185 C180 1.328 . S
N185 C184 1.315 . S
H186 C180 0.929 . S
H187 C184 0.930 . S
H188 C176 0.929 . S
H189 C178 0.929 . S
O190 Co165 2.351 . S
O190 C193 1.244 . S
O191 Co165 2.155 . S
O191 C193 1.240 . S
O192 Co165 2.096 . S
O192 C173 1.247 . S
C193 O190 1.244 . S
C193 O191 1.240 . S
H194 C168 0.931 . S
H195 C177 0.931 . S
H196 C181 0.929 . S
H197 C183 0.930 . S
C198 C199 1.369 . S
C198 C200 1.419 . S
C198 H202 0.930 . S
C199 C198 1.369 . S
C199 C208 1.429 1_655 S
C200 C198 1.419 . S
C200 C201 1.363 . S
C200 H203 0.929 . S
C201 C200 1.363 . S
C201 C207 1.428 1_655 S
H202 C198 0.930 . S
H203 C200 0.929 . S
S204 N205 1.613 . S
S204 N206 1.610 . S
N205 S204 1.613 . S
N205 C208 1.350 . S
N206 S204 1.610 . S
N206 C207 1.351 . S
C207 C201 1.428 1_455 S
C207 N206 1.351 . S
C207 C208 1.434 . S
C208 C199 1.429 1_455 S
C208 N205 1.350 . S
C208 C207 1.434 . S
C209 C210 1.369 . S
C209 C211 1.419 . S
C209 H213 0.930 . S
C210 C209 1.369 . S
C210 C219 1.429 . S
C211 C209 1.419 . S
C211 C212 1.363 . S
C211 H214 0.929 . S
C212 C211 1.363 . S
C212 C218 1.428 . S
H213 C209 0.930 . S
H214 C211 0.929 . S
S215 N216 1.613 . S
S215 N217 1.610 . S
N216 S215 1.613 . S
N216 C219 1.350 . S
N217 S215 1.610 . S
N217 C218 1.351 . S
C218 C212 1.428 . S
C218 N217 1.351 . S
C218 C219 1.434 . S
C219 C210 1.429 . S
C219 N216 1.350 . S
C219 C218 1.434 . S
C220 C221 1.369 . S
C220 C222 1.419 . S
C220 H224 0.930 . S
C221 C220 1.369 . S
C221 C230 1.429 . S
C222 C220 1.419 . S
C222 C223 1.363 . S
C222 H225 0.929 . S
C223 C222 1.363 . S
C223 C229 1.428 . S
H224 C220 0.930 . S
H225 C222 0.929 . S
S226 N227 1.613 . S
S226 N228 1.610 . S
N227 S226 1.613 . S
N227 C230 1.350 . S
N228 S226 1.610 . S
N228 C229 1.351 . S
C229 C223 1.428 . S
C229 N228 1.351 . S
C229 C230 1.434 . S
C230 C221 1.429 . S
C230 N227 1.350 . S
C230 C229 1.434 . S
C231 C232 1.369 . S
C231 C233 1.419 . S
C231 H235 0.930 . S
C232 C231 1.369 . S
C232 C241 1.429 1_565 S
C233 C231 1.419 . S
C233 C234 1.363 . S
C233 H236 0.929 . S
C234 C233 1.363 . S
C234 C240 1.428 1_565 S
H235 C231 0.930 . S
H236 C233 0.929 . S
S237 N238 1.613 . S
S237 N239 1.610 . S
N238 S237 1.613 . S
N238 C241 1.350 . S
N239 S237 1.610 . S
N239 C240 1.351 . S
C240 C234 1.428 1_545 S
C240 N239 1.351 . S
C240 C241 1.434 . S
C241 C232 1.429 1_545 S
C241 N238 1.350 . S
C241 C240 1.434 . S
C242 C243 1.369 . S
C242 C244 1.419 . S
C242 H246 0.930 . S
C243 C242 1.369 . S
C243 C252 1.429 . S
C244 C242 1.419 . S
C244 C245 1.363 . S
C244 H247 0.929 . S
C245 C244 1.363 . S
C245 C251 1.428 . S
H246 C242 0.930 . S
H247 C244 0.929 . S
S248 N249 1.613 . S
S248 N250 1.610 . S
N249 S248 1.613 . S
N249 C252 1.350 . S
N250 S248 1.610 . S
N250 C251 1.351 . S
C251 C245 1.428 . S
C251 N250 1.351 . S
C251 C252 1.434 . S
C252 C243 1.429 . S
C252 N249 1.350 . S
C252 C251 1.434 . S
C253 C254 1.369 . S
C253 C255 1.419 . S
C253 H257 0.930 . S
C254 C253 1.369 . S
C254 C263 1.429 . S
C255 C253 1.419 . S
C255 C256 1.363 . S
C255 H258 0.929 . S
C256 C255 1.363 . S
C256 C262 1.428 . S
H257 C253 0.930 . S
H258 C255 0.929 . S
S259 N260 1.613 . S
S259 N261 1.610 . S
N260 S259 1.613 . S
N260 C263 1.350 . S
N261 S259 1.610 . S
N261 C262 1.351 . S
C262 C256 1.428 . S
C262 N261 1.351 . S
C262 C263 1.434 . S
C263 C254 1.429 . S
C263 N260 1.350 . S
C263 C262 1.434 . S
C264 C265 1.369 . S
C264 C266 1.419 . S
C264 H268 0.930 . S
C265 C264 1.369 . S
C265 C274 1.429 . S
C266 C264 1.419 . S
C266 C267 1.363 . S
C266 H269 0.929 . S
C267 C266 1.363 . S
C267 C273 1.428 . S
H268 C264 0.930 . S
H269 C266 0.929 . S
S270 N271 1.613 . S
S270 N272 1.610 . S
N271 S270 1.613 . S
N271 C274 1.350 . S
N272 S270 1.610 . S
N272 C273 1.351 . S
C273 C267 1.428 . S
C273 N272 1.351 . S
C273 C274 1.434 . S
C274 C265 1.429 . S
C274 N271 1.350 . S
C274 C273 1.434 . S
C275 C276 1.369 . S
C275 C277 1.419 . S
C275 H279 0.930 . S
C276 C275 1.369 . S
C276 C285 1.429 . S
C277 C275 1.419 . S
C277 C278 1.363 . S
C277 H280 0.929 . S
C278 C277 1.363 . S
C278 C284 1.428 . S
H279 C275 0.930 . S
H280 C277 0.929 . S
S281 N282 1.613 1_455 S
S281 N283 1.610 . S
N282 S281 1.613 1_655 S
N282 C285 1.350 . S
N283 S281 1.610 . S
N283 C284 1.351 1_455 S
C284 C278 1.428 . S
C284 N283 1.351 1_655 S
C284 C285 1.434 . S
C285 C276 1.429 . S
C285 N282 1.350 . S
C285 C284 1.434 . S
C286 C287 1.369 1_554 S
C286 C288 1.419 . S
C286 H290 0.930 . S
C287 C286 1.369 1_556 S
C287 C296 1.429 . S
C288 C286 1.419 . S
C288 C289 1.363 1_554 S
C288 H291 0.929 . S
C289 C288 1.363 1_556 S
C289 C295 1.428 . S
H290 C286 0.930 . S
H291 C288 0.929 . S
S292 N293 1.613 . S
S292 N294 1.610 . S
N293 S292 1.613 . S
N293 C296 1.350 . S
N294 S292 1.610 . S
N294 C295 1.351 . S
C295 C289 1.428 . S
C295 N294 1.351 . S
C295 C296 1.434 . S
C296 C287 1.429 . S
C296 N293 1.350 . S
C296 C295 1.434 . S
C297 C298 1.369 . S
C297 C299 1.419 . S
C297 H301 0.930 . S
C298 C297 1.369 . S
C298 C307 1.429 . S
C299 C297 1.419 . S
C299 C300 1.363 . S
C299 H302 0.929 . S
C300 C299 1.363 . S
C300 C306 1.428 . S
H301 C297 0.930 . S
H302 C299 0.929 . S
S303 N304 1.613 . S
S303 N305 1.610 1_556 S
N304 S303 1.613 . S
N304 C307 1.350 1_556 S
N305 S303 1.610 1_554 S
N305 C306 1.351 . S
C306 C300 1.428 . S
C306 N305 1.351 . S
C306 C307 1.434 . S
C307 C298 1.429 . S
C307 N304 1.350 1_554 S
C307 C306 1.434 . S
C308 C309 1.369 . S
C308 C310 1.419 . S
C308 H312 0.930 . S
C309 C308 1.369 . S
C309 C318 1.429 . S
C310 C308 1.419 . S
C310 C311 1.363 . S
C310 H313 0.929 . S
C311 C310 1.363 . S
C311 C317 1.428 . S
H312 C308 0.930 . S
H313 C310 0.929 . S
S314 N315 1.613 . S
S314 N316 1.610 . S
N315 S314 1.613 . S
N315 C318 1.350 . S
N316 S314 1.610 . S
N316 C317 1.351 . S
C317 C311 1.428 . S
C317 N316 1.351 . S
C317 C318 1.434 . S
C318 C309 1.429 . S
C318 N315 1.350 . S
C318 C317 1.434 . S
C319 C320 1.369 . S
C319 C321 1.419 . S
C319 H323 0.930 . S
C320 C319 1.369 . S
C320 C329 1.429 . S
C321 C319 1.419 . S
C321 C322 1.363 . S
C321 H324 0.929 . S
C322 C321 1.363 . S
C322 C328 1.428 . S
H323 C319 0.930 . S
H324 C321 0.929 . S
S325 N326 1.605 1_645 S
S325 N327 1.610 . S
N326 S325 1.605 1_465 S
N326 C329 1.335 1_455 S
N327 S325 1.610 . S
N327 C328 1.351 1_545 S
C328 C322 1.428 . S
C328 N327 1.351 1_565 S
C328 C329 1.434 . S
C329 C320 1.429 . S
C329 N326 1.335 1_655 S
C329 C328 1.434 . S
C330 C331 1.369 . S
C330 C332 1.419 . S
C330 H334 0.930 . S
C331 C330 1.369 . S
C331 C340 1.429 . S
C332 C330 1.419 . S
C332 C333 1.363 . S
C332 H335 0.908 1_455 S
C333 C332 1.363 . S
C333 C339 1.428 . S
H334 C330 0.930 . S
H335 C332 0.908 1_655 S
S336 N337 1.613 . S
S336 N338 1.610 . S
N337 S336 1.613 . S
N337 C340 1.350 . S
N338 S336 1.610 . S
N338 C339 1.351 . S
C339 C333 1.428 . S
C339 N338 1.351 . S
C339 C340 1.434 . S
C340 C331 1.429 . S
C340 N337 1.350 . S
C340 C339 1.434 . S
C341 C342 1.369 . S
C341 C343 1.419 . S
C341 H345 0.930 . S
C342 C341 1.369 . S
C342 C351 1.429 . S
C343 C341 1.419 . S
C343 C344 1.363 . S
C343 H346 0.929 1_554 S
C344 C343 1.363 . S
C344 C350 1.428 . S
H345 C341 0.930 . S
H346 C343 0.929 1_556 S
S347 N348 1.613 . S
S347 N349 1.610 . S
N348 S347 1.613 . S
N348 C351 1.350 . S
N349 S347 1.610 . S
N349 C350 1.351 . S
C350 C344 1.428 . S
C350 N349 1.351 . S
C350 C351 1.434 . S
C351 C342 1.429 . S
C351 N348 1.350 . S
C351 C350 1.434 . S
C352 C353 1.369 . S
C352 C354 1.419 . S
C352 H356 0.930 . S
C353 C352 1.369 . S
C353 C362 1.429 . S
C354 C352 1.419 . S
C354 C355 1.363 . S
C354 H357 0.929 . S
C355 C354 1.363 . S
C355 C361 1.428 . S
H356 C352 0.930 . S
H357 C354 0.929 . S
S358 N359 1.613 1_655 S
S358 N360 1.610 . S
N359 S358 1.613 1_455 S
N359 C362 1.350 . S
N360 S358 1.610 . S
N360 C361 1.351 1_655 S
C361 C355 1.428 . S
C361 N360 1.351 1_455 S
C361 C362 1.434 . S
C362 C353 1.429 . S
C362 N359 1.350 . S
C362 C361 1.434 . S
C199 C127 1.736 1_655 S
C201 N14 1.561 . S
C210 C140 1.109 . S
C212 C8 1.090 . S
C221 N5 0.832 . S
C223 N170 0.838 . S
C232 N80 1.580 1_565 S
C234 C28 1.754 . S
C243 N179 1.607 . S
C245 C41 1.764 1_565 S
C254 N71 0.843 . S
C256 N47 0.865 . S
C265 C61 1.095 . S
C267 C107 1.103 . S
C276 C160 1.741 1_556 S
C278 N38 1.387 . S
C287 C94 1.726 . S
C289 N113 1.558 . S
C298 C74 1.003 . S
C300 C173 0.992 . S
C309 N137 0.820 . S
C311 N104 0.811 . S
C320 C193 1.761 1_655 S
C322 N146 1.580 . S
C331 C50 1.518 . S
C333 C17 1.544 . S
C342 C149 1.413 . S
C344 C83 1.408 . S
C353 C182 1.426 . S
C355 C116 1.430 . S
