# Generated by pormake.
# Topology vmd, (6)-cn, num edge types: 1
# Building blocks:
#     Node 0, Type 0, BuildingBlock: IZENUY_clean_sbu_0, # of connection points: 6
#     Node 1, Type 0, BuildingBlock: IZENUY_clean_sbu_0, # of connection points: 6
#     Node 2, Type 0, BuildingBlock: IZENUY_clean_sbu_0, # of connection points: 6
#     Node 3, Type 0, BuildingBlock: IZENUY_clean_sbu_0, # of connection points: 6
#     Node 4, Type 0, BuildingBlock: IZENUY_clean_sbu_0, # of connection points: 6
#     Node 5, Type 0, BuildingBlock: IZENUY_clean_sbu_0, # of connection points: 6
#     Node 6, Type 0, BuildingBlock: IZENUY_clean_sbu_0, # of connection points: 6
#     Node 7, Type 0, BuildingBlock: IZENUY_clean_sbu_0, # of connection points: 6
#     Edge 8, Type (0, 0), BuildingBlock: OJICUG_clean_linker_0, # of connection points: 2
#     Edge 9, Type (0, 0), BuildingBlock: OJICUG_clean_linker_0, # of connection points: 2
#     Edge 10, Type (0, 0), BuildingBlock: OJICUG_clean_linker_0, # of connection points: 2
#     Edge 11, Type (0, 0), BuildingBlock: OJICUG_clean_linker_0, # of connection points: 2
#     Edge 12, Type (0, 0), BuildingBlock: OJICUG_clean_linker_0, # of connection points: 2
#     Edge 13, Type (0, 0), BuildingBlock: OJICUG_clean_linker_0, # of connection points: 2
#     Edge 14, Type (0, 0), BuildingBlock: OJICUG_clean_linker_0, # of connection points: 2
#     Edge 15, Type (0, 0), BuildingBlock: OJICUG_clean_linker_0, # of connection points: 2
#     Edge 16, Type (0, 0), BuildingBlock: OJICUG_clean_linker_0, # of connection points: 2
#     Edge 17, Type (0, 0), BuildingBlock: OJICUG_clean_linker_0, # of connection points: 2
#     Edge 18, Type (0, 0), BuildingBlock: OJICUG_clean_linker_0, # of connection points: 2
#     Edge 19, Type (0, 0), BuildingBlock: OJICUG_clean_linker_0, # of connection points: 2
#     Edge 20, Type (0, 0), BuildingBlock: OJICUG_clean_linker_0, # of connection points: 2
#     Edge 21, Type (0, 0), BuildingBlock: OJICUG_clean_linker_0, # of connection points: 2
#     Edge 22, Type (0, 0), BuildingBlock: OJICUG_clean_linker_0, # of connection points: 2
#     Edge 23, Type (0, 0), BuildingBlock: OJICUG_clean_linker_0, # of connection points: 2
#     Edge 24, Type (0, 0), BuildingBlock: OJICUG_clean_linker_0, # of connection points: 2
#     Edge 25, Type (0, 0), BuildingBlock: OJICUG_clean_linker_0, # of connection points: 2
#     Edge 26, Type (0, 0), BuildingBlock: OJICUG_clean_linker_0, # of connection points: 2
#     Edge 27, Type (0, 0), BuildingBlock: OJICUG_clean_linker_0, # of connection points: 2
#     Edge 28, Type (0, 0), BuildingBlock: OJICUG_clean_linker_0, # of connection points: 2
#     Edge 29, Type (0, 0), BuildingBlock: OJICUG_clean_linker_0, # of connection points: 2
#     Edge 30, Type (0, 0), BuildingBlock: OJICUG_clean_linker_0, # of connection points: 2
#     Edge 31, Type (0, 0), BuildingBlock: OJICUG_clean_linker_0, # of connection points: 2
# Relax obj value: 0.251
# Max RMSD: 0.250
# Mean RMSD: 0.249
data_MOF--net-vmd--node1-IZENUY_clean_sbu_0--edge1-OJICUG_clean_linker_0
_symmetry_space_group_name_H-M    P1
_symmetry_Int_Tables_number       1
_symmetry_cell_setting            triclinic
loop_
_symmetry_equiv_pos_as_xyz
'x, y, z'
_cell_length_a     34.720245
_cell_length_b     19.053833
_cell_length_c     21.455198
_cell_angle_alpha  90.000667
_cell_angle_beta   95.486259
_cell_angle_gamma 89.997872
loop_
_atom_site_label
_atom_site_type_symbol
_atom_site_fract_x
_atom_site_fract_y
_atom_site_fract_z
_atom_type_partial_charge
Fe0 Fe 0.17635 0.52517 0.27601 0.0
Fe1 Fe 0.16854 0.3823 0.33647 0.0
O2 O 0.19451 0.43974 0.29112 0.0
Fe3 Fe 0.23762 0.41232 0.26133 0.0
O4 O 0.26586 0.48491 0.29669 0.0
O5 O 0.2235 0.56631 0.26704 0.0
O6 O 0.18378 0.54582 0.35824 0.0
C7 C 0.16834 0.51077 0.3989 0.0
C8 C 0.19474 0.48585 0.16124 0.0
O9 O 0.15061 0.45394 0.38388 0.0
C10 C 0.1996 0.28849 0.24943 0.0
O11 O 0.12511 0.50062 0.28002 0.0
O12 O 0.12634 0.38552 0.27956 0.0
O13 O 0.22659 0.45987 0.18587 0.0
O14 O 0.16898 0.50685 0.19433 0.0
C15 C 0.2417 0.35859 0.38756 0.0
O16 O 0.18421 0.29945 0.29993 0.0
O17 O 0.21359 0.3389 0.22183 0.0
C18 C 0.10805 0.44226 0.26887 0.0
O19 O 0.20803 0.3777 0.39542 0.0
O20 O 0.25407 0.35949 0.33313 0.0
C21 C 0.25774 0.54829 0.28548 0.0
Fe22 Fe 0.87225 0.52527 0.21374 0.0
Fe23 Fe 0.88004 0.38241 0.15324 0.0
O24 O 0.85407 0.43986 0.19861 0.0
Fe25 Fe 0.81097 0.41245 0.22839 0.0
O26 O 0.78273 0.48506 0.19303 0.0
O27 O 0.8251 0.56643 0.22271 0.0
O28 O 0.86482 0.54594 0.13151 0.0
C29 C 0.88026 0.51089 0.09083 0.0
C30 C 0.85385 0.48594 0.32849 0.0
O31 O 0.89798 0.45405 0.10585 0.0
C32 C 0.84897 0.2886 0.24027 0.0
O33 O 0.92349 0.50069 0.20972 0.0
O34 O 0.92224 0.38559 0.21015 0.0
O35 O 0.82199 0.45999 0.30385 0.0
O36 O 0.87961 0.50693 0.29541 0.0
C37 C 0.80688 0.35874 0.10215 0.0
O38 O 0.86436 0.29956 0.18978 0.0
O39 O 0.83499 0.33902 0.26788 0.0
C40 C 0.94054 0.44232 0.22086 0.0
O41 O 0.84055 0.37785 0.0943 0.0
O42 O 0.79451 0.35964 0.15658 0.0
C43 C 0.79086 0.54844 0.20425 0.0
Fe44 Fe 0.81096 0.64884 0.72841 0.0
Fe45 Fe 0.88004 0.67884 0.65326 0.0
O46 O 0.85406 0.62141 0.69862 0.0
Fe47 Fe 0.87223 0.53598 0.71373 0.0
O48 O 0.82507 0.49485 0.7227 0.0
O49 O 0.78271 0.57624 0.69304 0.0
O50 O 0.79451 0.70166 0.6566 0.0
C51 C 0.80689 0.7026 0.60218 0.0
C52 C 0.85384 0.57532 0.82849 0.0
O53 O 0.84055 0.68345 0.59432 0.0
C54 C 0.94053 0.61887 0.72086 0.0
O55 O 0.83499 0.72226 0.7679 0.0
O56 O 0.86438 0.76169 0.68981 0.0
O57 O 0.87959 0.55431 0.7954 0.0
O58 O 0.82198 0.60129 0.80386 0.0
C59 C 0.88024 0.55037 0.59083 0.0
O60 O 0.92224 0.67562 0.71017 0.0
O61 O 0.92347 0.56052 0.70971 0.0
C62 C 0.849 0.77266 0.74031 0.0
O63 O 0.89796 0.60719 0.60585 0.0
O64 O 0.86479 0.51532 0.6315 0.0
C65 C 0.79083 0.51286 0.70425 0.0
Fe66 Fe 0.17633 0.53588 0.776 0.0
Fe67 Fe 0.23762 0.64869 0.76134 0.0
O68 O 0.19451 0.62129 0.79113 0.0
Fe69 Fe 0.16854 0.67873 0.83649 0.0
O70 O 0.1506 0.60709 0.88388 0.0
O71 O 0.18376 0.5152 0.85823 0.0
O72 O 0.22348 0.49472 0.76703 0.0
C73 C 0.25772 0.51271 0.78549 0.0
C74 C 0.10804 0.61881 0.76887 0.0
O75 O 0.26585 0.57608 0.79671 0.0
C76 C 0.19959 0.77254 0.74944 0.0
O77 O 0.16897 0.55421 0.69433 0.0
O78 O 0.22659 0.60115 0.68589 0.0
O79 O 0.12634 0.67554 0.77957 0.0
O80 O 0.12509 0.56044 0.78002 0.0
C81 C 0.24169 0.70244 0.88757 0.0
O82 O 0.2136 0.72213 0.72185 0.0
O83 O 0.18421 0.76158 0.79995 0.0
C84 C 0.19473 0.5752 0.66125 0.0
O85 O 0.25407 0.70151 0.83315 0.0
O86 O 0.20803 0.68331 0.89543 0.0
C87 C 0.16832 0.55026 0.8989 0.0
Fe88 Fe 0.67632 1.02528 0.27608 0.0
Fe89 Fe 0.66853 0.88243 0.33657 0.0
O90 O 0.6945 0.93987 0.29121 0.0
Fe91 Fe 0.73761 0.91246 0.26143 0.0
O92 O 0.76584 0.98507 0.29679 0.0
O93 O 0.72347 0.06644 0.26711 0.0
O94 O 0.68374 0.04596 0.35831 0.0
C95 C 0.66831 1.0109 0.39898 0.0
C96 C 0.69472 0.98595 0.16133 0.0
O97 O 0.65059 0.95407 0.38396 0.0
C98 C 0.6996 0.78861 0.24954 0.0
O99 O 0.62508 1.00071 0.28009 0.0
O100 O 0.62633 0.88561 0.27965 0.0
O101 O 0.72658 0.96 0.18597 0.0
O102 O 0.66896 1.00694 0.19441 0.0
C103 C 0.74169 0.85875 0.38767 0.0
O104 O 0.68421 0.79958 0.30004 0.0
O105 O 0.71359 0.83902 0.22194 0.0
C106 C 0.60803 0.94234 0.26894 0.0
O107 O 0.70802 0.87786 0.39552 0.0
O108 O 0.75407 0.85965 0.33324 0.0
C109 C 0.75771 0.04845 0.28556 0.0
Fe110 Fe 0.37223 1.02516 0.21365 0.0
Fe111 Fe 0.38004 0.8823 0.15318 0.0
O112 O 0.35407 0.93974 0.19854 0.0
Fe113 Fe 0.31096 0.91231 0.22833 0.0
O114 O 0.28272 0.98491 0.19296 0.0
O115 O 0.32508 0.0663 0.22261 0.0
O116 O 0.3648 0.04581 0.13141 0.0
C117 C 0.38024 1.01076 0.09075 0.0
C118 C 0.35384 0.98585 0.32841 0.0
O119 O 0.39797 0.95393 0.10577 0.0
C120 C 0.34899 0.78848 0.24022 0.0
O121 O 0.42347 1.00062 0.20963 0.0
O122 O 0.42225 0.88551 0.2101 0.0
O123 O 0.32199 0.95987 0.30378 0.0
O124 O 0.37959 1.00685 0.29532 0.0
C125 C 0.30689 0.85858 0.10209 0.0
O126 O 0.36438 0.79944 0.18973 0.0
O127 O 0.335 0.83889 0.26782 0.0
C128 C 0.44053 0.94226 0.22079 0.0
O129 O 0.34055 0.87769 0.09424 0.0
O130 O 0.29451 0.85949 0.15652 0.0
C131 C 0.29084 0.04829 0.20417 0.0
Fe132 Fe 0.31097 0.14868 0.7283 0.0
Fe133 Fe 0.38005 0.17871 0.65316 0.0
O134 O 0.35408 0.12127 0.69852 0.0
Fe135 Fe 0.37226 0.03586 0.71366 0.0
O136 O 0.32511 0.99471 0.72262 0.0
O137 O 0.28274 0.07607 0.69293 0.0
O138 O 0.29452 0.2015 0.65649 0.0
C139 C 0.3069 0.20243 0.60207 0.0
C140 C 0.35386 0.07519 0.8284 0.0
O141 O 0.34056 0.18329 0.59421 0.0
C142 C 0.44055 0.1188 0.7208 0.0
O143 O 0.33499 0.22212 0.76779 0.0
O144 O 0.36437 0.26156 0.6897 0.0
O145 O 0.37962 0.0542 0.79532 0.0
O146 O 0.32199 0.10114 0.80376 0.0
C147 C 0.38027 0.05024 0.59075 0.0
O148 O 0.42225 0.17553 0.71009 0.0
O149 O 0.4235 0.06043 0.70965 0.0
C150 C 0.34899 0.27253 0.7402 0.0
O151 O 0.39799 0.10707 0.60578 0.0
O152 O 0.36484 1.01519 0.63142 0.0
C153 C 0.29087 1.0127 0.70415 0.0
Fe154 Fe 0.66853 0.17885 0.83655 0.0
Fe155 Fe 0.67636 0.03599 0.77608 0.0
O156 O 0.69451 0.12141 0.7912 0.0
Fe157 Fe 0.73762 0.14884 0.76141 0.0
O158 O 0.75407 0.20167 0.83321 0.0
O159 O 0.70802 0.18346 0.89549 0.0
O160 O 0.65061 0.10721 0.88396 0.0
C161 C 0.66834 0.05038 0.89898 0.0
C162 C 0.69957 0.27267 0.7495 0.0
O163 O 0.68379 1.01533 0.85832 0.0
C164 C 0.69474 0.07532 0.66132 0.0
O165 O 0.62633 0.17562 0.77964 0.0
O166 O 0.62511 0.06052 0.7801 0.0
O167 O 0.71358 0.22227 0.72191 0.0
O168 O 0.68419 0.2617 0.8 0.0
C169 C 0.75775 1.01287 0.78557 0.0
O170 O 0.66899 0.05431 0.69441 0.0
O171 O 0.7266 0.10129 0.68595 0.0
C172 C 0.60805 0.11888 0.76894 0.0
O173 O 0.72351 0.99486 0.76712 0.0
O174 O 0.76587 0.07625 0.79677 0.0
C175 C 0.74168 0.2026 0.88763 0.0
C176 C 0.26557 0.30022 0.55509 0.0
C177 C 0.28671 0.23884 0.54753 0.0
H178 H 0.2366 0.38828 0.5101 0.0
C179 C 0.29524 0.21956 0.48668 0.0
H180 H 0.25963 0.31759 0.6013 0.0
C181 C 0.28302 0.26078 0.43454 0.0
C182 C 0.26189 0.32215 0.44209 0.0
H183 H 0.31199 0.17272 0.47953 0.0
H184 H 0.28896 0.2434 0.38833 0.0
C185 C 0.25335 0.34143 0.50295 0.0
C186 C 0.75335 0.21972 0.00302 0.0
C187 C 0.76188 0.23902 0.94217 0.0
H188 H 0.75963 0.24354 0.10137 0.0
C189 C 0.783 0.30041 0.93462 0.0
H190 H 0.73661 0.17287 0.01016 0.0
C191 C 0.79522 0.34162 0.98677 0.0
C192 C 0.78669 0.32232 0.04762 0.0
H193 H 0.78894 0.3178 0.88841 0.0
H194 H 0.81196 0.38847 0.97963 0.0
C195 C 0.76557 0.26093 0.05517 0.0
C196 C 0.75334 0.84162 0.50305 0.0
C197 C 0.76188 0.82232 0.4422 0.0
H198 H 0.75963 0.81779 0.60141 0.0
C199 C 0.78301 0.76093 0.43465 0.0
H200 H 0.7366 0.88847 0.5102 0.0
C201 C 0.79522 0.71972 0.4868 0.0
C202 C 0.78669 0.73902 0.54765 0.0
H203 H 0.78894 0.74355 0.38844 0.0
H204 H 0.81197 0.67287 0.47965 0.0
C205 C 0.76556 0.8004 0.5552 0.0
C206 C 0.29523 0.84145 0.98671 0.0
C207 C 0.2867 0.82215 0.04756 0.0
H208 H 0.28895 0.81762 0.88835 0.0
C209 C 0.26558 0.76076 0.05511 0.0
H210 H 0.31198 0.8883 0.97957 0.0
C211 C 0.25336 0.71955 0.00296 0.0
C212 C 0.26189 0.73885 0.94211 0.0
H213 H 0.25964 0.74338 0.10132 0.0
H214 H 0.23661 0.6727 0.0101 0.0
C215 C 0.28302 0.80023 0.93456 0.0
C216 C 0.25071 0.14959 0.1626 0.0
C217 C 0.25949 0.0997 0.20968 0.0
H218 H 0.22296 0.2471 0.13729 0.0
C219 C 0.24251 0.10606 0.26638 0.0
H220 H 0.26373 0.14602 0.11878 0.0
C221 C 0.21924 0.16423 0.27747 0.0
C222 C 0.21272 0.21722 0.23202 0.0
H223 H 0.24936 0.06845 0.30368 0.0
H224 H 0.20911 0.17045 0.32337 0.0
C225 C 0.22728 0.20734 0.17339 0.0
C226 C 0.79786 0.14972 0.32712 0.0
C227 C 0.78905 0.09986 0.28002 0.0
H228 H 0.82565 0.24719 0.35244 0.0
C229 C 0.806 0.10623 0.2233 0.0
H230 H 0.78487 0.14614 0.37096 0.0
C231 C 0.82928 0.16438 0.2122 0.0
C232 C 0.83584 0.21734 0.25767 0.0
H233 H 0.79913 0.06864 0.18599 0.0
H234 H 0.83939 0.17061 0.1663 0.0
C235 C 0.8213 0.20746 0.31632 0.0
C236 C 0.82934 0.89691 0.71225 0.0
C237 C 0.83586 0.84393 0.75771 0.0
H238 H 0.79921 0.99268 0.68603 0.0
C239 C 0.8213 0.85381 0.81634 0.0
H240 H 0.83946 0.89068 0.66636 0.0
C241 C 0.79787 0.91157 0.82713 0.0
C242 C 0.78909 0.96145 0.78005 0.0
H243 H 0.82564 0.81406 0.85245 0.0
H244 H 0.78486 0.91514 0.87097 0.0
C245 C 0.80607 0.95508 0.72335 0.0
C246 C 0.25073 0.91141 0.66261 0.0
C247 C 0.25953 0.96128 0.7097 0.0
H248 H 0.22294 0.81393 0.63729 0.0
C249 C 0.24257 0.95491 0.76641 0.0
H250 H 0.26373 0.91498 0.61876 0.0
C251 C 0.21929 0.89676 0.77751 0.0
C252 C 0.21274 0.84379 0.73204 0.0
H253 H 0.24944 0.99251 0.80372 0.0
H254 H 0.20918 0.89054 0.82341 0.0
C255 C 0.22729 0.85367 0.6734 0.0
C256 C 0.74256 0.60622 0.2665 0.0
C257 C 0.75952 0.59985 0.20979 0.0
H258 H 0.70917 0.67059 0.32351 0.0
C259 C 0.75072 0.64973 0.1627 0.0
H260 H 0.74943 0.56862 0.30381 0.0
C261 C 0.72728 0.70748 0.1735 0.0
C262 C 0.71273 0.71735 0.23214 0.0
H263 H 0.76372 0.64616 0.11886 0.0
H264 H 0.72293 0.74722 0.13739 0.0
C265 C 0.71928 0.66437 0.2776 0.0
C266 C 0.3213 0.70735 0.31625 0.0
C267 C 0.33586 0.71721 0.25763 0.0
H268 H 0.28485 0.64605 0.37087 0.0
C269 C 0.32934 0.66422 0.21217 0.0
H270 H 0.32563 0.7471 0.35235 0.0
C271 C 0.30607 0.60606 0.22327 0.0
C272 C 0.28909 0.5997 0.27997 0.0
H273 H 0.33947 0.67043 0.16628 0.0
H274 H 0.29922 0.56845 0.18597 0.0
C275 C 0.29786 0.6496 0.32705 0.0
C276 C 0.32129 0.35365 0.81624 0.0
C277 C 0.33584 0.34379 0.7576 0.0
H278 H 0.28485 0.41496 0.87088 0.0
C279 C 0.3293 0.39676 0.71214 0.0
H280 H 0.32564 0.31391 0.85234 0.0
C281 C 0.30602 0.45493 0.72325 0.0
C282 C 0.28906 0.46129 0.77996 0.0
H283 H 0.33942 0.39055 0.66625 0.0
H284 H 0.29916 0.49253 0.68594 0.0
C285 C 0.29785 0.4114 0.82704 0.0
C286 C 0.74251 0.45509 0.76646 0.0
C287 C 0.75949 0.46145 0.70977 0.0
H288 H 0.70911 0.39071 0.82345 0.0
C289 C 0.75072 0.41155 0.66269 0.0
H290 H 0.74936 0.4927 0.80377 0.0
C291 C 0.72728 0.3538 0.67348 0.0
C292 C 0.71271 0.34393 0.7321 0.0
H293 H 0.76373 0.41511 0.61886 0.0
H294 H 0.72295 0.31405 0.63737 0.0
C295 C 0.71924 0.39692 0.77756 0.0
C296 C 0.04455 0.37765 0.24991 0.0
C297 C 0.06526 0.44122 0.25509 0.0
H298 H 0.98899 0.32784 0.23573 0.0
C299 C 0.04447 0.50462 0.24983 0.0
H300 H 0.05958 0.32782 0.25398 0.0
C301 C 1.00413 0.50464 0.23991 0.0
C302 C 0.98333 0.44125 0.23464 0.0
H303 H 0.05934 0.55464 0.25374 0.0
H304 H 0.98927 0.55466 0.236 0.0
C305 C 1.00403 0.37766 0.23981 0.0
C306 C 0.04455 0.68347 0.74992 0.0
C307 C 0.06525 0.61989 0.75509 0.0
H308 H 0.989 0.73332 0.73574 0.0
C309 C 0.04445 0.5565 0.74983 0.0
H310 H 0.0596 0.7333 0.75399 0.0
C311 C 1.00411 0.55651 0.73991 0.0
C312 C 0.98332 0.61992 0.73464 0.0
H313 H 0.05931 0.50647 0.75374 0.0
H314 H 0.98924 0.5065 0.73599 0.0
C315 C 1.00403 0.68349 0.73981 0.0
C316 C 0.50403 0.87765 0.2398 0.0
C317 C 0.48332 0.94122 0.2346 0.0
H318 H 0.5596 0.82785 0.25403 0.0
C319 C 0.5041 1.00463 0.23989 0.0
H320 H 0.489 0.82782 0.23572 0.0
C321 C 0.54445 1.00465 0.24984 0.0
C322 C 0.56525 0.94126 0.25513 0.0
H323 H 0.48923 0.05464 0.23596 0.0
H324 H 0.5593 0.05467 0.25376 0.0
C325 C 0.54455 0.87767 0.24994 0.0
C326 C 0.54455 0.18349 0.74994 0.0
C327 C 0.56526 0.11992 0.75513 0.0
H328 H 0.48898 0.23329 0.73571 0.0
C329 C 0.54448 0.05651 0.74985 0.0
H330 H 0.55958 0.23332 0.75402 0.0
C331 C 0.50414 0.05649 0.73989 0.0
C332 C 0.48333 0.11988 0.73461 0.0
H333 H 0.55935 1.0065 0.75377 0.0
H334 H 0.48928 1.00646 0.73597 0.0
C335 C 0.50403 0.18346 0.7398 0.0
C336 C 0.20355 0.48259 0.98658 0.0
C337 C 0.17325 0.52815 0.96478 0.0
H338 H 0.23473 0.43398 0.0665 0.0
C339 C 0.15002 0.55787 0.00755 0.0
H340 H 0.22225 0.45961 0.95444 0.0
C341 C 0.15713 0.5433 0.07098 0.0
C342 C 0.18795 0.49914 0.0934 0.0
H343 H 0.12661 0.5933 0.99215 0.0
H344 H 0.13866 0.56793 0.10255 0.0
C345 C 0.211 0.46847 0.05059 0.0
C346 C 0.83756 0.4686 0.43913 0.0
C347 C 0.86064 0.49924 0.39634 0.0
H348 H 0.82629 0.45978 0.53527 0.0
C349 C 0.89147 0.54335 0.41877 0.0
H350 H 0.81383 0.43414 0.42322 0.0
C351 C 0.89857 0.55792 0.4822 0.0
C352 C 0.87532 0.52825 0.52495 0.0
H353 H 0.90996 0.56795 0.38721 0.0
H354 H 0.92199 0.59334 0.49761 0.0
C355 C 0.845 0.48272 0.50315 0.0
C356 C 0.89145 0.51786 0.91876 0.0
C357 C 0.86063 0.56202 0.89634 0.0
H358 H 0.92197 0.46785 -0.00242 0.0
C359 C 0.83758 0.59268 0.93914 0.0
H360 H 0.90992 0.49323 0.88718 0.0
C361 C 0.84503 0.57857 0.00316 0.0
C362 C 0.87533 0.533 0.02495 0.0
H363 H 0.81385 0.62718 0.92325 0.0
H364 H 0.82633 0.60154 0.0353 0.0
C365 C 0.89856 0.50329 0.98219 0.0
C366 C 0.20357 0.57843 0.48659 0.0
C367 C 0.17326 0.53288 0.46479 0.0
H368 H 0.23474 0.62703 0.56651 0.0
C369 C 0.15002 0.50318 0.50754 0.0
H370 H 0.22227 0.60139 0.45446 0.0
C371 C 0.15712 0.51776 0.57097 0.0
C372 C 0.18794 0.5619 0.5934 0.0
H373 H 0.12661 0.46776 0.49214 0.0
H374 H 0.13864 0.49315 0.60254 0.0
C375 C 0.21101 0.59255 0.55061 0.0
C376 C 0.65001 0.05796 0.00761 0.0
C377 C 0.67326 1.02827 0.96486 0.0
H378 H 0.63863 0.06799 0.10261 0.0
C379 C 0.70357 0.98273 0.98667 0.0
H380 H 0.6266 0.09338 0.99221 0.0
C381 C 0.71101 0.96861 0.05069 0.0
C382 C 0.68794 0.99925 0.09348 0.0
H383 H 0.72228 0.95977 0.95454 0.0
H384 H 0.73474 0.93413 0.0666 0.0
C385 C 0.65711 0.04338 0.07105 0.0
C386 C 0.39856 0.05787 0.4821 0.0
C387 C 0.37534 1.02813 0.52487 0.0
H388 H 0.40991 0.06795 0.38709 0.0
C389 C 0.34504 0.98257 0.50308 0.0
H390 H 0.42197 0.09331 0.4975 0.0
C391 C 0.33759 0.96846 0.43906 0.0
C392 C 0.36064 0.99914 0.39626 0.0
H393 H 0.32636 0.95957 0.53522 0.0
H394 H 0.31387 0.93395 0.42316 0.0
C395 C 0.39145 0.0433 0.41867 0.0
C396 C 0.39856 1.00316 0.98211 0.0
C397 C 0.37531 0.03287 0.02486 0.0
H398 H 0.40993 0.99311 0.88711 0.0
C399 C 0.34501 0.07842 0.00306 0.0
H400 H 0.42196 0.96772 -0.00249 0.0
C401 C 0.33757 0.09254 0.93904 0.0
C402 C 0.36064 0.06188 0.89625 0.0
H403 H 0.32631 0.1014 0.03519 0.0
H404 H 0.31385 0.12704 0.92314 0.0
C405 C 0.39145 1.01773 0.91868 0.0
C406 C 0.65714 1.01785 0.57106 0.0
C407 C 0.68795 0.06201 0.59348 0.0
H408 H 0.62662 0.96783 0.49224 0.0
C409 C 0.71099 0.09269 0.55067 0.0
H410 H 0.63867 0.99321 0.60264 0.0
C411 C 0.70354 0.07858 0.48665 0.0
C412 C 0.67324 0.03301 0.46486 0.0
H413 H 0.73471 0.12721 0.56656 0.0
H414 H 0.72222 0.10157 0.45451 0.0
C415 C 0.65002 1.00328 0.50763 0.0
loop_
_geom_bond_atom_site_label_1
_geom_bond_atom_site_label_2
_geom_bond_distance
_geom_bond_site_symmetry_2
_ccdc_geom_bond_type
Fe0 O2 1.918 . S
Fe0 O5 1.997 . S
Fe0 O6 2.002 . S
Fe0 O11 1.976 . S
Fe0 O14 1.996 . S
Fe1 O2 1.918 . S
Fe1 O9 1.997 . S
Fe1 O12 1.996 . S
Fe1 O16 1.976 . S
Fe1 O19 2.002 . S
O2 Fe0 1.918 . S
O2 Fe1 1.918 . S
O2 Fe3 1.918 . S
Fe3 O2 1.918 . S
Fe3 O4 2.002 . S
Fe3 O13 1.976 . S
Fe3 O17 1.996 . S
Fe3 O20 1.997 . S
O4 Fe3 2.002 . S
O4 C21 1.295 . S
O5 Fe0 1.997 . S
O5 C21 1.235 . S
O6 Fe0 2.002 . S
O6 C7 1.295 . S
C7 O6 1.295 . S
C7 O9 1.235 . S
C8 O13 1.287 . S
C8 O14 1.255 . S
O9 Fe1 1.997 . S
O9 C7 1.235 . S
C10 O16 1.287 . S
C10 O17 1.255 . S
O11 Fe0 1.976 . S
O11 C18 1.287 . S
O12 Fe1 1.996 . S
O12 C18 1.255 . S
O13 Fe3 1.976 . S
O13 C8 1.287 . S
O14 Fe0 1.996 . S
O14 C8 1.255 . S
C15 O19 1.295 . S
C15 O20 1.235 . S
O16 Fe1 1.976 . S
O16 C10 1.287 . S
O17 Fe3 1.996 . S
O17 C10 1.255 . S
C18 O11 1.287 . S
C18 O12 1.255 . S
O19 Fe1 2.002 . S
O19 C15 1.295 . S
O20 Fe3 1.997 . S
O20 C15 1.235 . S
C21 O4 1.295 . S
C21 O5 1.235 . S
Fe22 O24 1.918 . S
Fe22 O27 1.997 . S
Fe22 O28 2.002 . S
Fe22 O33 1.976 . S
Fe22 O36 1.996 . S
Fe23 O24 1.918 . S
Fe23 O31 1.997 . S
Fe23 O34 1.996 . S
Fe23 O38 1.976 . S
Fe23 O41 2.002 . S
O24 Fe22 1.918 . S
O24 Fe23 1.918 . S
O24 Fe25 1.918 . S
Fe25 O24 1.918 . S
Fe25 O26 2.002 . S
Fe25 O35 1.976 . S
Fe25 O39 1.996 . S
Fe25 O42 1.997 . S
O26 Fe25 2.002 . S
O26 C43 1.295 . S
O27 Fe22 1.997 . S
O27 C43 1.235 . S
O28 Fe22 2.002 . S
O28 C29 1.295 . S
C29 O28 1.295 . S
C29 O31 1.235 . S
C30 O35 1.287 . S
C30 O36 1.255 . S
O31 Fe23 1.997 . S
O31 C29 1.235 . S
C32 O38 1.287 . S
C32 O39 1.255 . S
O33 Fe22 1.976 . S
O33 C40 1.287 . S
O34 Fe23 1.996 . S
O34 C40 1.255 . S
O35 Fe25 1.976 . S
O35 C30 1.287 . S
O36 Fe22 1.996 . S
O36 C30 1.255 . S
C37 O41 1.295 . S
C37 O42 1.235 . S
O38 Fe23 1.976 . S
O38 C32 1.287 . S
O39 Fe25 1.996 . S
O39 C32 1.255 . S
C40 O33 1.287 . S
C40 O34 1.255 . S
O41 Fe23 2.002 . S
O41 C37 1.295 . S
O42 Fe25 1.997 . S
O42 C37 1.235 . S
C43 O26 1.295 . S
C43 O27 1.235 . S
Fe44 O46 1.918 . S
Fe44 O49 1.997 . S
Fe44 O50 2.002 . S
Fe44 O55 1.976 . S
Fe44 O58 1.996 . S
Fe45 O46 1.918 . S
Fe45 O53 1.997 . S
Fe45 O56 1.996 . S
Fe45 O60 1.976 . S
Fe45 O63 2.002 . S
O46 Fe44 1.918 . S
O46 Fe45 1.918 . S
O46 Fe47 1.918 . S
Fe47 O46 1.918 . S
Fe47 O48 2.002 . S
Fe47 O57 1.976 . S
Fe47 O61 1.996 . S
Fe47 O64 1.997 . S
O48 Fe47 2.002 . S
O48 C65 1.295 . S
O49 Fe44 1.997 . S
O49 C65 1.235 . S
O50 Fe44 2.002 . S
O50 C51 1.295 . S
C51 O50 1.295 . S
C51 O53 1.235 . S
C52 O57 1.287 . S
C52 O58 1.255 . S
O53 Fe45 1.997 . S
O53 C51 1.235 . S
C54 O60 1.287 . S
C54 O61 1.255 . S
O55 Fe44 1.976 . S
O55 C62 1.287 . S
O56 Fe45 1.996 . S
O56 C62 1.255 . S
O57 Fe47 1.976 . S
O57 C52 1.287 . S
O58 Fe44 1.996 . S
O58 C52 1.255 . S
C59 O63 1.295 . S
C59 O64 1.235 . S
O60 Fe45 1.976 . S
O60 C54 1.287 . S
O61 Fe47 1.996 . S
O61 C54 1.255 . S
C62 O55 1.287 . S
C62 O56 1.255 . S
O63 Fe45 2.002 . S
O63 C59 1.295 . S
O64 Fe47 1.997 . S
O64 C59 1.235 . S
C65 O48 1.295 . S
C65 O49 1.235 . S
Fe66 O68 1.918 . S
Fe66 O71 1.997 . S
Fe66 O72 2.002 . S
Fe66 O77 1.976 . S
Fe66 O80 1.996 . S
Fe67 O68 1.918 . S
Fe67 O75 1.997 . S
Fe67 O78 1.996 . S
Fe67 O82 1.976 . S
Fe67 O85 2.002 . S
O68 Fe66 1.918 . S
O68 Fe67 1.918 . S
O68 Fe69 1.918 . S
Fe69 O68 1.918 . S
Fe69 O70 2.002 . S
Fe69 O79 1.976 . S
Fe69 O83 1.996 . S
Fe69 O86 1.997 . S
O70 Fe69 2.002 . S
O70 C87 1.295 . S
O71 Fe66 1.997 . S
O71 C87 1.235 . S
O72 Fe66 2.002 . S
O72 C73 1.295 . S
C73 O72 1.295 . S
C73 O75 1.235 . S
C74 O79 1.287 . S
C74 O80 1.255 . S
O75 Fe67 1.997 . S
O75 C73 1.235 . S
C76 O82 1.287 . S
C76 O83 1.255 . S
O77 Fe66 1.976 . S
O77 C84 1.287 . S
O78 Fe67 1.996 . S
O78 C84 1.255 . S
O79 Fe69 1.976 . S
O79 C74 1.287 . S
O80 Fe66 1.996 . S
O80 C74 1.255 . S
C81 O85 1.295 . S
C81 O86 1.235 . S
O82 Fe67 1.976 . S
O82 C76 1.287 . S
O83 Fe69 1.996 . S
O83 C76 1.255 . S
C84 O77 1.287 . S
C84 O78 1.255 . S
O85 Fe67 2.002 . S
O85 C81 1.295 . S
O86 Fe69 1.997 . S
O86 C81 1.235 . S
C87 O70 1.295 . S
C87 O71 1.235 . S
Fe88 O90 1.918 . S
Fe88 O93 1.997 1_565 S
Fe88 O94 2.002 . S
Fe88 O99 1.976 . S
Fe88 O102 1.996 . S
Fe89 O90 1.918 . S
Fe89 O97 1.997 . S
Fe89 O100 1.996 . S
Fe89 O104 1.976 . S
Fe89 O107 2.002 . S
O90 Fe88 1.918 . S
O90 Fe89 1.918 . S
O90 Fe91 1.918 . S
Fe91 O90 1.918 . S
Fe91 O92 2.002 . S
Fe91 O101 1.976 . S
Fe91 O105 1.996 . S
Fe91 O108 1.997 . S
O92 Fe91 2.002 . S
O92 C109 1.295 1_565 S
O93 Fe88 1.997 1_545 S
O93 C109 1.235 . S
O94 Fe88 2.002 . S
O94 C95 1.295 . S
C95 O94 1.295 . S
C95 O97 1.235 . S
C96 O101 1.287 . S
C96 O102 1.255 . S
O97 Fe89 1.997 . S
O97 C95 1.235 . S
C98 O104 1.287 . S
C98 O105 1.255 . S
O99 Fe88 1.976 . S
O99 C106 1.287 . S
O100 Fe89 1.996 . S
O100 C106 1.255 . S
O101 Fe91 1.976 . S
O101 C96 1.287 . S
O102 Fe88 1.996 . S
O102 C96 1.255 . S
C103 O107 1.295 . S
C103 O108 1.235 . S
O104 Fe89 1.976 . S
O104 C98 1.287 . S
O105 Fe91 1.996 . S
O105 C98 1.255 . S
C106 O99 1.287 . S
C106 O100 1.255 . S
O107 Fe89 2.002 . S
O107 C103 1.295 . S
O108 Fe91 1.997 . S
O108 C103 1.235 . S
C109 O92 1.295 1_545 S
C109 O93 1.235 . S
Fe110 O112 1.918 . S
Fe110 O115 1.997 1_565 S
Fe110 O116 2.002 . S
Fe110 O121 1.976 . S
Fe110 O124 1.996 . S
Fe111 O112 1.918 . S
Fe111 O119 1.997 . S
Fe111 O122 1.996 . S
Fe111 O126 1.976 . S
Fe111 O129 2.002 . S
O112 Fe110 1.918 . S
O112 Fe111 1.918 . S
O112 Fe113 1.918 . S
Fe113 O112 1.918 . S
Fe113 O114 2.002 . S
Fe113 O123 1.976 . S
Fe113 O127 1.996 . S
Fe113 O130 1.997 . S
O114 Fe113 2.002 . S
O114 C131 1.295 1_565 S
O115 Fe110 1.997 1_545 S
O115 C131 1.235 . S
O116 Fe110 2.002 . S
O116 C117 1.295 . S
C117 O116 1.295 . S
C117 O119 1.235 . S
C118 O123 1.287 . S
C118 O124 1.255 . S
O119 Fe111 1.997 . S
O119 C117 1.235 . S
C120 O126 1.287 . S
C120 O127 1.255 . S
O121 Fe110 1.976 . S
O121 C128 1.287 . S
O122 Fe111 1.996 . S
O122 C128 1.255 . S
O123 Fe113 1.976 . S
O123 C118 1.287 . S
O124 Fe110 1.996 . S
O124 C118 1.255 . S
C125 O129 1.295 . S
C125 O130 1.235 . S
O126 Fe111 1.976 . S
O126 C120 1.287 . S
O127 Fe113 1.996 . S
O127 C120 1.255 . S
C128 O121 1.287 . S
C128 O122 1.255 . S
O129 Fe111 2.002 . S
O129 C125 1.295 . S
O130 Fe113 1.997 . S
O130 C125 1.235 . S
C131 O114 1.295 1_545 S
C131 O115 1.235 . S
Fe132 O134 1.918 . S
Fe132 O137 1.997 . S
Fe132 O138 2.002 . S
Fe132 O143 1.976 . S
Fe132 O146 1.996 . S
Fe133 O134 1.918 . S
Fe133 O141 1.997 . S
Fe133 O144 1.996 . S
Fe133 O148 1.976 . S
Fe133 O151 2.002 . S
O134 Fe132 1.918 . S
O134 Fe133 1.918 . S
O134 Fe135 1.918 . S
Fe135 O134 1.918 . S
Fe135 O136 2.002 1_545 S
Fe135 O145 1.976 . S
Fe135 O149 1.996 . S
Fe135 O152 1.997 . S
O136 Fe135 2.002 1_565 S
O136 C153 1.295 . S
O137 Fe132 1.997 . S
O137 C153 1.235 1_545 S
O138 Fe132 2.002 . S
O138 C139 1.295 . S
C139 O138 1.295 . S
C139 O141 1.235 . S
C140 O145 1.287 . S
C140 O146 1.255 . S
O141 Fe133 1.997 . S
O141 C139 1.235 . S
C142 O148 1.287 . S
C142 O149 1.255 . S
O143 Fe132 1.976 . S
O143 C150 1.287 . S
O144 Fe133 1.996 . S
O144 C150 1.255 . S
O145 Fe135 1.976 . S
O145 C140 1.287 . S
O146 Fe132 1.996 . S
O146 C140 1.255 . S
C147 O151 1.295 . S
C147 O152 1.235 . S
O148 Fe133 1.976 . S
O148 C142 1.287 . S
O149 Fe135 1.996 . S
O149 C142 1.255 . S
C150 O143 1.287 . S
C150 O144 1.255 . S
O151 Fe133 2.002 . S
O151 C147 1.295 . S
O152 Fe135 1.997 . S
O152 C147 1.235 . S
C153 O136 1.295 . S
C153 O137 1.235 1_565 S
Fe154 O156 1.918 . S
Fe154 O159 1.997 . S
Fe154 O160 2.002 . S
Fe154 O165 1.976 . S
Fe154 O168 1.996 . S
Fe155 O156 1.918 . S
Fe155 O163 1.997 . S
Fe155 O166 1.996 . S
Fe155 O170 1.976 . S
Fe155 O173 2.002 1_545 S
O156 Fe154 1.918 . S
O156 Fe155 1.918 . S
O156 Fe157 1.918 . S
Fe157 O156 1.918 . S
Fe157 O158 2.002 . S
Fe157 O167 1.976 . S
Fe157 O171 1.996 . S
Fe157 O174 1.997 . S
O158 Fe157 2.002 . S
O158 C175 1.295 . S
O159 Fe154 1.997 . S
O159 C175 1.235 . S
O160 Fe154 2.002 . S
O160 C161 1.295 . S
C161 O160 1.295 . S
C161 O163 1.235 . S
C162 O167 1.287 . S
C162 O168 1.255 . S
O163 Fe155 1.997 . S
O163 C161 1.235 . S
C164 O170 1.287 . S
C164 O171 1.255 . S
O165 Fe154 1.976 . S
O165 C172 1.287 . S
O166 Fe155 1.996 . S
O166 C172 1.255 . S
O167 Fe157 1.976 . S
O167 C162 1.287 . S
O168 Fe154 1.996 . S
O168 C162 1.255 . S
C169 O173 1.295 . S
C169 O174 1.235 1_565 S
O170 Fe155 1.976 . S
O170 C164 1.287 . S
O171 Fe157 1.996 . S
O171 C164 1.255 . S
C172 O165 1.287 . S
C172 O166 1.255 . S
O173 Fe155 2.002 1_565 S
O173 C169 1.295 . S
O174 Fe157 1.997 . S
O174 C169 1.235 1_545 S
C175 O158 1.295 . S
C175 O159 1.235 . S
C176 C177 1.387 . S
C176 H180 0.950 . S
C176 C185 1.390 . S
C177 C176 1.387 . S
C177 C179 1.387 . S
H178 C185 0.950 . S
C179 C177 1.387 . S
C179 C181 1.390 . S
C179 H183 0.950 . S
H180 C176 0.950 . S
C181 C179 1.390 . S
C181 C182 1.387 . S
C181 H184 0.950 . S
C182 C181 1.387 . S
C182 C185 1.387 . S
H183 C179 0.950 . S
H184 C181 0.950 . S
C185 C176 1.390 . S
C185 H178 0.950 . S
C185 C182 1.387 . S
C186 C187 1.387 . S
C186 H190 0.950 . S
C186 C195 1.390 1_556 S
C187 C186 1.387 . S
C187 C189 1.387 . S
H188 C195 0.950 . S
C189 C187 1.387 . S
C189 C191 1.390 1_556 S
C189 H193 0.950 . S
H190 C186 0.950 . S
C191 C189 1.390 1_554 S
C191 C192 1.387 . S
C191 H194 0.950 . S
C192 C191 1.387 . S
C192 C195 1.387 . S
H193 C189 0.950 . S
H194 C191 0.950 . S
C195 C186 1.390 1_554 S
C195 H188 0.950 . S
C195 C192 1.387 . S
C196 C197 1.387 . S
C196 H200 0.950 . S
C196 C205 1.390 . S
C197 C196 1.387 . S
C197 C199 1.387 . S
H198 C205 0.950 . S
C199 C197 1.387 . S
C199 C201 1.390 . S
C199 H203 0.950 . S
H200 C196 0.950 . S
C201 C199 1.390 . S
C201 C202 1.387 . S
C201 H204 0.950 . S
C202 C201 1.387 . S
C202 C205 1.387 . S
H203 C199 0.950 . S
H204 C201 0.950 . S
C205 C196 1.390 . S
C205 H198 0.950 . S
C205 C202 1.387 . S
C206 C207 1.387 . S
C206 H210 0.950 . S
C206 C215 1.390 1_554 S
C207 C206 1.387 . S
C207 C209 1.387 . S
H208 C215 0.950 . S
C209 C207 1.387 . S
C209 C211 1.390 1_554 S
C209 H213 0.950 . S
H210 C206 0.950 . S
C211 C209 1.390 1_556 S
C211 C212 1.387 . S
C211 H214 0.950 . S
C212 C211 1.387 . S
C212 C215 1.387 . S
H213 C209 0.950 . S
H214 C211 0.950 . S
C215 C206 1.390 1_556 S
C215 H208 0.950 . S
C215 C212 1.387 . S
C216 C217 1.387 . S
C216 H220 0.950 . S
C216 C225 1.390 . S
C217 C216 1.387 . S
C217 C219 1.387 . S
H218 C225 0.950 . S
C219 C217 1.387 . S
C219 C221 1.390 . S
C219 H223 0.950 . S
H220 C216 0.950 . S
C221 C219 1.390 . S
C221 C222 1.387 . S
C221 H224 0.950 . S
C222 C221 1.387 . S
C222 C225 1.387 . S
H223 C219 0.950 . S
H224 C221 0.950 . S
C225 C216 1.390 . S
C225 H218 0.950 . S
C225 C222 1.387 . S
C226 C227 1.387 . S
C226 H230 0.950 . S
C226 C235 1.390 . S
C227 C226 1.387 . S
C227 C229 1.387 . S
H228 C235 0.950 . S
C229 C227 1.387 . S
C229 C231 1.390 . S
C229 H233 0.950 . S
H230 C226 0.950 . S
C231 C229 1.390 . S
C231 C232 1.387 . S
C231 H234 0.950 . S
C232 C231 1.387 . S
C232 C235 1.387 . S
H233 C229 0.950 . S
H234 C231 0.950 . S
C235 C226 1.390 . S
C235 H228 0.950 . S
C235 C232 1.387 . S
C236 C237 1.387 . S
C236 H240 0.950 . S
C236 C245 1.390 . S
C237 C236 1.387 . S
C237 C239 1.387 . S
H238 C245 0.950 . S
C239 C237 1.387 . S
C239 C241 1.390 . S
C239 H243 0.950 . S
H240 C236 0.950 . S
C241 C239 1.390 . S
C241 C242 1.387 . S
C241 H244 0.950 . S
C242 C241 1.387 . S
C242 C245 1.387 . S
H243 C239 0.950 . S
H244 C241 0.950 . S
C245 C236 1.390 . S
C245 H238 0.950 . S
C245 C242 1.387 . S
C246 C247 1.387 . S
C246 H250 0.950 . S
C246 C255 1.390 . S
C247 C246 1.387 . S
C247 C249 1.387 . S
H248 C255 0.950 . S
C249 C247 1.387 . S
C249 C251 1.390 . S
C249 H253 0.950 . S
H250 C246 0.950 . S
C251 C249 1.390 . S
C251 C252 1.387 . S
C251 H254 0.950 . S
C252 C251 1.387 . S
C252 C255 1.387 . S
H253 C249 0.950 . S
H254 C251 0.950 . S
C255 C246 1.390 . S
C255 H248 0.950 . S
C255 C252 1.387 . S
C256 C257 1.387 . S
C256 H260 0.950 . S
C256 C265 1.390 . S
C257 C256 1.387 . S
C257 C259 1.387 . S
H258 C265 0.950 . S
C259 C257 1.387 . S
C259 C261 1.390 . S
C259 H263 0.950 . S
H260 C256 0.950 . S
C261 C259 1.390 . S
C261 C262 1.387 . S
C261 H264 0.950 . S
C262 C261 1.387 . S
C262 C265 1.387 . S
H263 C259 0.950 . S
H264 C261 0.950 . S
C265 C256 1.390 . S
C265 H258 0.950 . S
C265 C262 1.387 . S
C266 C267 1.387 . S
C266 H270 0.950 . S
C266 C275 1.390 . S
C267 C266 1.387 . S
C267 C269 1.387 . S
H268 C275 0.950 . S
C269 C267 1.387 . S
C269 C271 1.390 . S
C269 H273 0.950 . S
H270 C266 0.950 . S
C271 C269 1.390 . S
C271 C272 1.387 . S
C271 H274 0.950 . S
C272 C271 1.387 . S
C272 C275 1.387 . S
H273 C269 0.950 . S
H274 C271 0.950 . S
C275 C266 1.390 . S
C275 H268 0.950 . S
C275 C272 1.387 . S
C276 C277 1.387 . S
C276 H280 0.950 . S
C276 C285 1.390 . S
C277 C276 1.387 . S
C277 C279 1.387 . S
H278 C285 0.950 . S
C279 C277 1.387 . S
C279 C281 1.390 . S
C279 H283 0.950 . S
H280 C276 0.950 . S
C281 C279 1.390 . S
C281 C282 1.387 . S
C281 H284 0.950 . S
C282 C281 1.387 . S
C282 C285 1.387 . S
H283 C279 0.950 . S
H284 C281 0.950 . S
C285 C276 1.390 . S
C285 H278 0.950 . S
C285 C282 1.387 . S
C286 C287 1.387 . S
C286 H290 0.950 . S
C286 C295 1.390 . S
C287 C286 1.387 . S
C287 C289 1.387 . S
H288 C295 0.950 . S
C289 C287 1.387 . S
C289 C291 1.390 . S
C289 H293 0.950 . S
H290 C286 0.950 . S
C291 C289 1.390 . S
C291 C292 1.387 . S
C291 H294 0.950 . S
C292 C291 1.387 . S
C292 C295 1.387 . S
H293 C289 0.950 . S
H294 C291 0.950 . S
C295 C286 1.390 . S
C295 H288 0.950 . S
C295 C292 1.387 . S
C296 C297 1.387 . S
C296 H300 0.950 . S
C296 C305 1.390 1_455 S
C297 C296 1.387 . S
C297 C299 1.387 . S
H298 C305 0.950 . S
C299 C297 1.387 . S
C299 C301 1.390 1_455 S
C299 H303 0.950 . S
H300 C296 0.950 . S
C301 C299 1.390 1_655 S
C301 C302 1.387 . S
C301 H304 0.950 . S
C302 C301 1.387 . S
C302 C305 1.387 . S
H303 C299 0.950 . S
H304 C301 0.950 . S
C305 C296 1.390 1_655 S
C305 H298 0.950 . S
C305 C302 1.387 . S
C306 C307 1.387 . S
C306 H310 0.950 . S
C306 C315 1.390 1_455 S
C307 C306 1.387 . S
C307 C309 1.387 . S
H308 C315 0.950 . S
C309 C307 1.387 . S
C309 C311 1.390 1_455 S
C309 H313 0.950 . S
H310 C306 0.950 . S
C311 C309 1.390 1_655 S
C311 C312 1.387 . S
C311 H314 0.950 . S
C312 C311 1.387 . S
C312 C315 1.387 . S
H313 C309 0.950 . S
H314 C311 0.950 . S
C315 C306 1.390 1_655 S
C315 H308 0.950 . S
C315 C312 1.387 . S
C316 C317 1.387 . S
C316 H320 0.950 . S
C316 C325 1.390 . S
C317 C316 1.387 . S
C317 C319 1.387 . S
H318 C325 0.950 . S
C319 C317 1.387 . S
C319 C321 1.390 . S
C319 H323 0.950 . S
H320 C316 0.950 . S
C321 C319 1.390 . S
C321 C322 1.387 . S
C321 H324 0.950 . S
C322 C321 1.387 . S
C322 C325 1.387 . S
H323 C319 0.950 . S
H324 C321 0.950 . S
C325 C316 1.390 . S
C325 H318 0.950 . S
C325 C322 1.387 . S
C326 C327 1.387 . S
C326 H330 0.950 . S
C326 C335 1.390 . S
C327 C326 1.387 . S
C327 C329 1.387 . S
H328 C335 0.950 . S
C329 C327 1.387 . S
C329 C331 1.390 . S
C329 H333 0.950 . S
H330 C326 0.950 . S
C331 C329 1.390 . S
C331 C332 1.387 . S
C331 H334 0.950 . S
C332 C331 1.387 . S
C332 C335 1.387 . S
H333 C329 0.950 . S
H334 C331 0.950 . S
C335 C326 1.390 . S
C335 H328 0.950 . S
C335 C332 1.387 . S
C336 C337 1.387 1_554 S
C336 H340 0.950 . S
C336 C345 1.390 . S
C337 C336 1.387 1_556 S
C337 C339 1.387 . S
H338 C345 0.950 . S
C339 C337 1.387 . S
C339 C341 1.390 1_556 S
C339 H343 0.950 . S
H340 C336 0.950 . S
C341 C339 1.390 1_554 S
C341 C342 1.387 . S
C341 H344 0.950 . S
C342 C341 1.387 . S
C342 C345 1.387 . S
H343 C339 0.950 . S
H344 C341 0.950 . S
C345 C336 1.390 . S
C345 H338 0.950 . S
C345 C342 1.387 . S
C346 C347 1.387 . S
C346 H350 0.950 . S
C346 C355 1.390 . S
C347 C346 1.387 . S
C347 C349 1.387 . S
H348 C355 0.950 . S
C349 C347 1.387 . S
C349 C351 1.390 . S
C349 H353 0.950 . S
H350 C346 0.950 . S
C351 C349 1.390 . S
C351 C352 1.387 . S
C351 H354 0.950 . S
C352 C351 1.387 . S
C352 C355 1.387 . S
H353 C349 0.950 . S
H354 C351 0.950 . S
C355 C346 1.390 . S
C355 H348 0.950 . S
C355 C352 1.387 . S
C356 C357 1.387 . S
C356 H360 0.950 . S
C356 C365 1.390 . S
C357 C356 1.387 . S
C357 C359 1.387 . S
H358 C365 0.950 . S
C359 C357 1.387 . S
C359 C361 1.390 1_556 S
C359 H363 0.950 . S
H360 C356 0.950 . S
C361 C359 1.390 1_554 S
C361 C362 1.387 . S
C361 H364 0.950 . S
C362 C361 1.387 . S
C362 C365 1.387 1_554 S
H363 C359 0.950 . S
H364 C361 0.950 . S
C365 C356 1.390 . S
C365 H358 0.950 . S
C365 C362 1.387 1_556 S
C366 C367 1.387 . S
C366 H370 0.950 . S
C366 C375 1.390 . S
C367 C366 1.387 . S
C367 C369 1.387 . S
H368 C375 0.950 . S
C369 C367 1.387 . S
C369 C371 1.390 . S
C369 H373 0.950 . S
H370 C366 0.950 . S
C371 C369 1.390 . S
C371 C372 1.387 . S
C371 H374 0.950 . S
C372 C371 1.387 . S
C372 C375 1.387 . S
H373 C369 0.950 . S
H374 C371 0.950 . S
C375 C366 1.390 . S
C375 H368 0.950 . S
C375 C372 1.387 . S
C376 C377 1.387 1_565 S
C376 H380 0.950 . S
C376 C385 1.390 1_556 S
C377 C376 1.387 1_545 S
C377 C379 1.387 1_556 S
H378 C385 0.950 . S
C379 C377 1.387 1_554 S
C379 C381 1.390 1_545 S
C379 H383 0.950 . S
H380 C376 0.950 . S
C381 C379 1.390 1_565 S
C381 C382 1.387 . S
C381 H384 0.950 1_565 S
C382 C381 1.387 . S
C382 C385 1.387 . S
H383 C379 0.950 . S
H384 C381 0.950 1_545 S
C385 C376 1.390 1_554 S
C385 H378 0.950 . S
C385 C382 1.387 . S
C386 C387 1.387 . S
C386 H390 0.950 . S
C386 C395 1.390 . S
C387 C386 1.387 . S
C387 C389 1.387 1_545 S
H388 C395 0.950 . S
C389 C387 1.387 1_565 S
C389 C391 1.390 . S
C389 H393 0.950 . S
H390 C386 0.950 . S
C391 C389 1.390 . S
C391 C392 1.387 . S
C391 H394 0.950 . S
C392 C391 1.387 . S
C392 C395 1.387 1_565 S
H393 C389 0.950 . S
H394 C391 0.950 . S
C395 C386 1.390 . S
C395 H388 0.950 . S
C395 C392 1.387 1_545 S
C396 C397 1.387 1_556 S
C396 H400 0.950 . S
C396 C405 1.390 1_565 S
C397 C396 1.387 1_554 S
C397 C399 1.387 1_565 S
H398 C405 0.950 . S
C399 C397 1.387 1_545 S
C399 C401 1.390 1_554 S
C399 H403 0.950 . S
H400 C396 0.950 . S
C401 C399 1.390 1_556 S
C401 C402 1.387 . S
C401 H404 0.950 . S
C402 C401 1.387 . S
C402 C405 1.387 . S
H403 C399 0.950 . S
H404 C401 0.950 . S
C405 C396 1.390 1_545 S
C405 H398 0.950 . S
C405 C402 1.387 . S
C406 C407 1.387 1_565 S
C406 H410 0.950 . S
C406 C415 1.390 . S
C407 C406 1.387 1_545 S
C407 C409 1.387 . S
H408 C415 0.950 . S
C409 C407 1.387 . S
C409 C411 1.390 . S
C409 H413 0.950 . S
H410 C406 0.950 . S
C411 C409 1.390 . S
C411 C412 1.387 1_545 S
C411 H414 0.950 . S
C412 C411 1.387 1_565 S
C412 C415 1.387 . S
H413 C409 0.950 . S
H414 C411 0.950 . S
C415 C406 1.390 . S
C415 H408 0.950 . S
C415 C412 1.387 . S
C177 C139 1.284 . S
C182 C15 1.268 . S
C187 C175 1.282 . S
C192 C37 1.266 . S
C197 C103 1.268 . S
C202 C51 1.284 . S
C207 C125 1.268 . S
C212 C81 1.284 . S
C217 C131 1.653 . S
C222 C10 1.583 . S
C227 C109 1.652 . S
C232 C32 1.583 . S
C237 C62 1.597 . S
C242 C169 1.662 . S
C247 C153 1.661 . S
C252 C76 1.594 . S
C257 C43 1.653 . S
C262 C98 1.579 . S
C267 C120 1.582 . S
C272 C21 1.652 . S
C277 C150 1.594 . S
C282 C73 1.661 . S
C287 C65 1.661 . S
C292 C162 1.598 . S
C297 C18 1.460 . S
C302 C40 1.460 . S
C307 C74 1.458 . S
C312 C54 1.458 . S
C317 C128 1.460 . S
C322 C106 1.460 . S
C327 C172 1.458 . S
C332 C142 1.458 . S
C337 C87 1.509 . S
C342 C8 1.494 . S
C347 C30 1.494 . S
C352 C59 1.508 . S
C357 C52 1.505 . S
C362 C29 1.510 . S
C367 C7 1.508 . S
C372 C84 1.505 . S
C377 C161 1.510 . S
C382 C96 1.497 . S
C387 C147 1.508 . S
C392 C118 1.495 . S
C397 C117 1.509 . S
C402 C140 1.505 . S
C407 C164 1.506 . S
C412 C95 1.510 . S
