# Generated by pormake.
# Topology fcm, (5)-cn, num edge types: 1
# Building blocks:
#     Node 0, Type 0, BuildingBlock: BEQFEK_clean_sbu_0, # of connection points: 5
#     Node 1, Type 0, BuildingBlock: BEQFEK_clean_sbu_0, # of connection points: 5
#     Node 2, Type 0, BuildingBlock: BEQFEK_clean_sbu_0, # of connection points: 5
#     Node 3, Type 0, BuildingBlock: BEQFEK_clean_sbu_0, # of connection points: 5
#     Node 4, Type 0, BuildingBlock: BEQFEK_clean_sbu_0, # of connection points: 5
#     Node 5, Type 0, BuildingBlock: BEQFEK_clean_sbu_0, # of connection points: 5
#     Node 6, Type 0, BuildingBlock: BEQFEK_clean_sbu_0, # of connection points: 5
#     Node 7, Type 0, BuildingBlock: BEQFEK_clean_sbu_0, # of connection points: 5
#     Node 8, Type 0, BuildingBlock: BEQFEK_clean_sbu_0, # of connection points: 5
#     Node 9, Type 0, BuildingBlock: BEQFEK_clean_sbu_0, # of connection points: 5
#     Node 10, Type 0, BuildingBlock: BEQFEK_clean_sbu_0, # of connection points: 5
#     Node 11, Type 0, BuildingBlock: BEQFEK_clean_sbu_0, # of connection points: 5
#     Node 12, Type 0, BuildingBlock: BEQFEK_clean_sbu_0, # of connection points: 5
#     Node 13, Type 0, BuildingBlock: BEQFEK_clean_sbu_0, # of connection points: 5
#     Node 14, Type 0, BuildingBlock: BEQFEK_clean_sbu_0, # of connection points: 5
#     Node 15, Type 0, BuildingBlock: BEQFEK_clean_sbu_0, # of connection points: 5
#     Node 16, Type 0, BuildingBlock: BEQFEK_clean_sbu_0, # of connection points: 5
#     Node 17, Type 0, BuildingBlock: BEQFEK_clean_sbu_0, # of connection points: 5
#     Node 18, Type 0, BuildingBlock: BEQFEK_clean_sbu_0, # of connection points: 5
#     Node 19, Type 0, BuildingBlock: BEQFEK_clean_sbu_0, # of connection points: 5
#     Node 20, Type 0, BuildingBlock: BEQFEK_clean_sbu_0, # of connection points: 5
#     Node 21, Type 0, BuildingBlock: BEQFEK_clean_sbu_0, # of connection points: 5
#     Node 22, Type 0, BuildingBlock: BEQFEK_clean_sbu_0, # of connection points: 5
#     Node 23, Type 0, BuildingBlock: BEQFEK_clean_sbu_0, # of connection points: 5
#     Node 24, Type 0, BuildingBlock: BEQFEK_clean_sbu_0, # of connection points: 5
#     Node 25, Type 0, BuildingBlock: BEQFEK_clean_sbu_0, # of connection points: 5
#     Node 26, Type 0, BuildingBlock: BEQFEK_clean_sbu_0, # of connection points: 5
#     Node 27, Type 0, BuildingBlock: BEQFEK_clean_sbu_0, # of connection points: 5
#     Node 28, Type 0, BuildingBlock: BEQFEK_clean_sbu_0, # of connection points: 5
#     Node 29, Type 0, BuildingBlock: BEQFEK_clean_sbu_0, # of connection points: 5
#     Node 30, Type 0, BuildingBlock: BEQFEK_clean_sbu_0, # of connection points: 5
#     Node 31, Type 0, BuildingBlock: BEQFEK_clean_sbu_0, # of connection points: 5
#     Node 32, Type 0, BuildingBlock: BEQFEK_clean_sbu_0, # of connection points: 5
#     Node 33, Type 0, BuildingBlock: BEQFEK_clean_sbu_0, # of connection points: 5
#     Node 34, Type 0, BuildingBlock: BEQFEK_clean_sbu_0, # of connection points: 5
#     Node 35, Type 0, BuildingBlock: BEQFEK_clean_sbu_0, # of connection points: 5
#     Node 36, Type 0, BuildingBlock: BEQFEK_clean_sbu_0, # of connection points: 5
#     Node 37, Type 0, BuildingBlock: BEQFEK_clean_sbu_0, # of connection points: 5
#     Node 38, Type 0, BuildingBlock: BEQFEK_clean_sbu_0, # of connection points: 5
#     Node 39, Type 0, BuildingBlock: BEQFEK_clean_sbu_0, # of connection points: 5
#     Node 40, Type 0, BuildingBlock: BEQFEK_clean_sbu_0, # of connection points: 5
#     Node 41, Type 0, BuildingBlock: BEQFEK_clean_sbu_0, # of connection points: 5
#     Node 42, Type 0, BuildingBlock: BEQFEK_clean_sbu_0, # of connection points: 5
#     Node 43, Type 0, BuildingBlock: BEQFEK_clean_sbu_0, # of connection points: 5
#     Node 44, Type 0, BuildingBlock: BEQFEK_clean_sbu_0, # of connection points: 5
#     Node 45, Type 0, BuildingBlock: BEQFEK_clean_sbu_0, # of connection points: 5
#     Node 46, Type 0, BuildingBlock: BEQFEK_clean_sbu_0, # of connection points: 5
#     Node 47, Type 0, BuildingBlock: BEQFEK_clean_sbu_0, # of connection points: 5
#     Edge 48, Type (0, 0), None
#     Edge 49, Type (0, 0), None
#     Edge 50, Type (0, 0), None
#     Edge 51, Type (0, 0), None
#     Edge 52, Type (0, 0), None
#     Edge 53, Type (0, 0), None
#     Edge 54, Type (0, 0), None
#     Edge 55, Type (0, 0), None
#     Edge 56, Type (0, 0), None
#     Edge 57, Type (0, 0), None
#     Edge 58, Type (0, 0), None
#     Edge 59, Type (0, 0), None
#     Edge 60, Type (0, 0), None
#     Edge 61, Type (0, 0), None
#     Edge 62, Type (0, 0), None
#     Edge 63, Type (0, 0), None
#     Edge 64, Type (0, 0), None
#     Edge 65, Type (0, 0), None
#     Edge 66, Type (0, 0), None
#     Edge 67, Type (0, 0), None
#     Edge 68, Type (0, 0), None
#     Edge 69, Type (0, 0), None
#     Edge 70, Type (0, 0), None
#     Edge 71, Type (0, 0), None
#     Edge 72, Type (0, 0), None
#     Edge 73, Type (0, 0), None
#     Edge 74, Type (0, 0), None
#     Edge 75, Type (0, 0), None
#     Edge 76, Type (0, 0), None
#     Edge 77, Type (0, 0), None
#     Edge 78, Type (0, 0), None
#     Edge 79, Type (0, 0), None
#     Edge 80, Type (0, 0), None
#     Edge 81, Type (0, 0), None
#     Edge 82, Type (0, 0), None
#     Edge 83, Type (0, 0), None
#     Edge 84, Type (0, 0), None
#     Edge 85, Type (0, 0), None
#     Edge 86, Type (0, 0), None
#     Edge 87, Type (0, 0), None
#     Edge 88, Type (0, 0), None
#     Edge 89, Type (0, 0), None
#     Edge 90, Type (0, 0), None
#     Edge 91, Type (0, 0), None
#     Edge 92, Type (0, 0), None
#     Edge 93, Type (0, 0), None
#     Edge 94, Type (0, 0), None
#     Edge 95, Type (0, 0), None
#     Edge 96, Type (0, 0), None
#     Edge 97, Type (0, 0), None
#     Edge 98, Type (0, 0), None
#     Edge 99, Type (0, 0), None
#     Edge 100, Type (0, 0), None
#     Edge 101, Type (0, 0), None
#     Edge 102, Type (0, 0), None
#     Edge 103, Type (0, 0), None
#     Edge 104, Type (0, 0), None
#     Edge 105, Type (0, 0), None
#     Edge 106, Type (0, 0), None
#     Edge 107, Type (0, 0), None
#     Edge 108, Type (0, 0), None
#     Edge 109, Type (0, 0), None
#     Edge 110, Type (0, 0), None
#     Edge 111, Type (0, 0), None
#     Edge 112, Type (0, 0), None
#     Edge 113, Type (0, 0), None
#     Edge 114, Type (0, 0), None
#     Edge 115, Type (0, 0), None
#     Edge 116, Type (0, 0), None
#     Edge 117, Type (0, 0), None
#     Edge 118, Type (0, 0), None
#     Edge 119, Type (0, 0), None
#     Edge 120, Type (0, 0), None
#     Edge 121, Type (0, 0), None
#     Edge 122, Type (0, 0), None
#     Edge 123, Type (0, 0), None
#     Edge 124, Type (0, 0), None
#     Edge 125, Type (0, 0), None
#     Edge 126, Type (0, 0), None
#     Edge 127, Type (0, 0), None
#     Edge 128, Type (0, 0), None
#     Edge 129, Type (0, 0), None
#     Edge 130, Type (0, 0), None
#     Edge 131, Type (0, 0), None
#     Edge 132, Type (0, 0), None
#     Edge 133, Type (0, 0), None
#     Edge 134, Type (0, 0), None
#     Edge 135, Type (0, 0), None
#     Edge 136, Type (0, 0), None
#     Edge 137, Type (0, 0), None
#     Edge 138, Type (0, 0), None
#     Edge 139, Type (0, 0), None
#     Edge 140, Type (0, 0), None
#     Edge 141, Type (0, 0), None
#     Edge 142, Type (0, 0), None
#     Edge 143, Type (0, 0), None
#     Edge 144, Type (0, 0), None
#     Edge 145, Type (0, 0), None
#     Edge 146, Type (0, 0), None
#     Edge 147, Type (0, 0), None
#     Edge 148, Type (0, 0), None
#     Edge 149, Type (0, 0), None
#     Edge 150, Type (0, 0), None
#     Edge 151, Type (0, 0), None
#     Edge 152, Type (0, 0), None
#     Edge 153, Type (0, 0), None
#     Edge 154, Type (0, 0), None
#     Edge 155, Type (0, 0), None
#     Edge 156, Type (0, 0), None
#     Edge 157, Type (0, 0), None
#     Edge 158, Type (0, 0), None
#     Edge 159, Type (0, 0), None
#     Edge 160, Type (0, 0), None
#     Edge 161, Type (0, 0), None
#     Edge 162, Type (0, 0), None
#     Edge 163, Type (0, 0), None
#     Edge 164, Type (0, 0), None
#     Edge 165, Type (0, 0), None
#     Edge 166, Type (0, 0), None
#     Edge 167, Type (0, 0), None
# Relax obj value: 0.649
# Max RMSD: 0.213
# Mean RMSD: 0.210
data_MOF--net-fcm--node1-BEQFEK_clean_sbu_0--edge1-none
_symmetry_space_group_name_H-M    P1
_symmetry_Int_Tables_number       1
_symmetry_cell_setting            triclinic
loop_
_symmetry_equiv_pos_as_xyz
'x, y, z'
_cell_length_a     35.266127
_cell_length_b     35.265907
_cell_length_c     35.265472
_cell_angle_alpha  89.992824
_cell_angle_beta   89.994449
_cell_angle_gamma 89.992537
loop_
_atom_site_label
_atom_site_type_symbol
_atom_site_fract_x
_atom_site_fract_y
_atom_site_fract_z
_atom_type_partial_charge
Co0 Co 0.0506 0.09143 0.32661 0.0
Co1 Co 0.98377 0.04853 0.36427 0.0
C2 C 1.01223 0.02731 0.28557 0.0
O3 O 0.03673 0.05323 0.28842 0.0
O4 O 0.99111 0.01902 0.31392 0.0
C5 C 0.12296 0.07081 0.32398 0.0
O6 O 0.10599 0.04149 0.33938 0.0
C7 C 0.96445 0.98399 0.41047 0.0
C8 C 0.91969 1.00451 0.44898 0.0
C9 C 0.94505 0.97499 0.4434 0.0
N10 N 0.95268 1.01807 0.39787 0.0
N11 N 0.92529 0.02991 0.42068 0.0
C12 C 0.99712 0.96248 0.39402 0.0
H13 H 1.01449 0.98096 0.37542 0.0
H14 H 1.01505 0.95047 0.41695 0.0
H15 H 0.98597 0.93849 0.37698 0.0
C16 C 0.07516 0.09831 0.40382 0.0
N17 N 0.05258 0.08161 0.37805 0.0
N18 N 0.02858 0.0589 0.39477 0.0
C19 C 0.03804 0.05799 0.43225 0.0
C20 C 0.06868 0.08212 0.43849 0.0
C21 C 0.08952 0.1378 0.39945 0.0
H22 H 0.09141 0.14599 0.3692 0.0
H23 H 0.11652 0.14108 0.41505 0.0
H24 H 0.06902 0.15746 0.41304 0.0
O25 O 1.01289 0.12974 0.32172 0.0
O26 O 0.96164 0.10042 0.3463 0.0
H27 H 0.98433 0.04999 0.45867 0.0
H28 H 0.02277 0.05271 0.4912 0.0
C29 C 1.01416 0.04172 0.46306 0.0
H30 H 1.0169 1.01045 0.46286 0.0
H31 H 0.91246 0.0565 0.41873 0.0
O32 O 0.10369 0.09968 0.31361 0.0
C33 C 0.97762 0.12908 0.32998 0.0
Co34 Co 0.19665 0.80381 0.57454 0.0
Co35 Co 0.23584 0.73419 0.61366 0.0
C36 C 0.25832 0.76326 0.53448 0.0
O37 O 0.23518 0.79026 0.53779 0.0
O38 O 0.26437 0.74075 0.56236 0.0
C39 C 0.21651 0.87641 0.57163 0.0
O40 O 0.24621 0.85944 0.58628 0.0
C41 C 0.30061 0.71709 0.66156 0.0
C42 C 0.28528 0.66535 0.69293 0.0
C43 C 0.31224 0.69391 0.69107 0.0
N44 N 0.26769 0.70391 0.64722 0.0
N45 N 0.25884 0.67262 0.66599 0.0
C46 C 0.31968 0.75272 0.64867 0.0
H47 H 0.30284 0.7671 0.62633 0.0
H48 H 0.32375 0.7721 0.67313 0.0
H49 H 0.34823 0.74567 0.63744 0.0
C50 C 0.19106 0.83015 0.65086 0.0
N51 N 0.20627 0.80577 0.62586 0.0
N52 N 0.22427 0.7788 0.64377 0.0
C53 C 0.22236 0.78692 0.6815 0.0
C54 C 0.20193 0.82035 0.68677 0.0
C55 C 0.15992 0.85693 0.64158 0.0
H56 H 0.14275 0.84616 0.61752 0.0
H57 H 0.173 0.88396 0.63345 0.0
H58 H 0.14129 0.86164 0.66652 0.0
O59 O 0.15895 0.7646 0.56908 0.0
O60 O 0.18448 0.71246 0.5962 0.0
H61 H 0.22874 0.73176 0.70595 0.0
H62 H 0.22314 0.7695 0.74012 0.0
C63 C 0.23586 0.76163 0.71244 0.0
H64 H 0.26692 0.76475 0.71435 0.0
H65 H 0.23394 0.65722 0.66171 0.0
O66 O 0.18784 0.85692 0.56108 0.0
C67 C 0.15756 0.72947 0.57816 0.0
Co68 Co 0.48408 0.94249 0.82846 0.0
Co69 Co 0.55301 0.98326 0.86693 0.0
C70 C 0.52454 1.00427 0.7876 0.0
O71 O 0.49871 0.97983 0.79073 0.0
O72 O 0.54593 1.01195 0.81592 0.0
C73 C 0.41226 0.96378 0.82199 0.0
O74 O 0.42938 0.9934 0.83665 0.0
C75 C 0.56913 0.04857 0.91427 0.0
C76 C 0.62175 0.03501 0.94496 0.0
C77 C 0.59247 0.06123 0.9432 0.0
N78 N 0.58291 1.01579 0.90017 0.0
N79 N 0.6147 1.00798 0.91854 0.0
C80 C 0.53296 0.06672 0.90155 0.0
H81 H 0.51883 0.04944 0.87939 0.0
H82 H 0.51364 0.07038 0.92614 0.0
H83 H 0.5392 0.0954 0.89017 0.0
C84 C 0.45644 0.93977 0.9047 0.0
N85 N 0.48129 0.95385 0.87949 0.0
N86 N 0.5087 0.97135 0.89724 0.0
C87 C 0.50075 0.96976 0.93503 0.0
C88 C 0.46679 0.95035 0.94052 0.0
C89 C 0.42726 0.91094 0.89564 0.0
H90 H 0.43654 0.89272 0.87173 0.0
H91 H 0.40148 0.92645 0.8876 0.0
H92 H 0.42089 0.89293 0.92068 0.0
O93 O 0.52293 0.90401 0.82488 0.0
O94 O 0.57511 0.93223 0.84894 0.0
H95 H 0.5562 0.97614 0.95889 0.0
H96 H 0.51879 0.97016 0.99344 0.0
C97 C 0.52637 0.98308 0.96577 0.0
H98 H 0.52312 1.0141 0.96798 0.0
H99 H 0.63071 0.98346 0.91428 0.0
O100 O 0.43132 0.93417 0.8135 0.0
C101 C 0.55838 0.90397 0.83276 0.0
Co102 Co 0.3429 0.23576 0.07931 0.0
Co103 Co 0.30309 0.30492 0.11736 0.0
C104 C 0.28192 0.27669 0.03751 0.0
O105 O 0.30573 0.2503 0.04106 0.0
O106 O 0.27475 0.29857 0.06564 0.0
C107 C 0.32252 0.16394 0.07154 0.0
O108 O 0.2925 0.18063 0.0859 0.0
C109 C 0.2376 0.32036 0.16346 0.0
C110 C 0.25407 0.3676 0.20081 0.0
C111 C 0.22663 0.3399 0.19567 0.0
N112 N 0.27083 0.3344 0.15082 0.0
N113 N 0.28029 0.36314 0.17304 0.0
C114 C 0.21879 0.28574 0.14779 0.0
H115 H 0.23627 0.27256 0.12523 0.0
H116 H 0.21382 0.26494 0.17091 0.0
H117 H 0.1907 0.29369 0.13601 0.0
C118 C 0.344 0.20743 0.15584 0.0
N119 N 0.33075 0.23256 0.13042 0.0
N120 N 0.31379 0.26041 0.14806 0.0
C121 C 0.31488 0.25247 0.18595 0.0
C122 C 0.33339 0.21806 0.19159 0.0
C123 C 0.37224 0.17762 0.14715 0.0
H124 H 0.39084 0.18634 0.12334 0.0
H125 H 0.35612 0.15216 0.13926 0.0
H126 H 0.38995 0.17096 0.17231 0.0
O127 O 0.38178 0.27443 0.07606 0.0
O128 O 0.35453 0.32686 0.10047 0.0
H129 H 0.31214 0.30807 0.20998 0.0
H130 H 0.3162 0.27066 0.24435 0.0
C131 C 0.30322 0.27883 0.21689 0.0
H132 H 0.27203 0.27759 0.21999 0.0
H133 H 0.30577 0.37802 0.17093 0.0
O134 O 0.35209 0.18336 0.0639 0.0
C135 C 0.38255 0.3098 0.08425 0.0
Co136 Co 0.05032 0.94046 0.20827 0.0
Co137 Co 0.98516 0.98584 0.17059 0.0
C138 C 1.01192 1.00479 0.24985 0.0
O139 O 0.03489 0.97747 0.24734 0.0
O140 O 0.99288 1.01515 0.22075 0.0
C141 C 0.12151 0.96394 0.21407 0.0
O142 O 0.10359 0.99288 0.19902 0.0
C143 C 0.96737 0.05122 0.12416 0.0
C144 C 0.91841 0.03409 0.08938 0.0
C145 C 0.94572 0.06211 0.09326 0.0
N146 N 0.95473 1.01761 0.13728 0.0
N147 N 0.925 1.00774 0.11659 0.0
C148 C 1.0017 0.07125 0.13899 0.0
H149 H 1.01819 0.05261 0.15822 0.0
H150 H 0.01987 0.08085 0.11513 0.0
H151 H 0.99253 0.09686 0.15482 0.0
C152 C 0.07636 0.93482 0.13138 0.0
N153 N 0.05364 0.95144 0.15716 0.0
N154 N 0.02982 0.97434 0.14045 0.0
C155 C 0.03917 0.9751 0.10301 0.0
C156 C 0.06979 0.95098 0.09667 0.0
C157 C 0.09141 0.89557 0.13592 0.0
H158 H 0.09348 0.88751 0.1662 0.0
H159 H 0.11856 0.89265 0.12045 0.0
H160 H 0.07128 0.87551 0.12236 0.0
O161 O 1.01265 0.90158 0.21055 0.0
O162 O 0.9622 0.93438 0.18885 0.0
H163 H 0.9852 0.9855 0.07769 0.0
H164 H 0.02295 0.98013 0.04434 0.0
C165 C 1.01541 0.99189 0.07249 0.0
H166 H 0.01994 0.0229 0.0724 0.0
H167 H 0.91059 0.98206 0.1195 0.0
O168 O 0.10338 0.93373 0.22264 0.0
C169 C 0.97722 0.90415 0.20321 0.0
Co170 Co 0.34372 0.80306 0.45918 0.0
Co171 Co 0.30363 0.73408 0.4204 0.0
C172 C 0.28181 0.76298 0.49961 0.0
O173 O 0.3057 0.78929 0.49638 0.0
O174 O 0.27492 0.74102 0.47151 0.0
C175 C 0.32286 0.87469 0.46527 0.0
O176 O 0.29334 0.85751 0.45051 0.0
C177 C 0.23853 0.71901 0.37273 0.0
C178 C 0.25144 0.66623 0.34204 0.0
C179 C 0.22576 0.69601 0.34361 0.0
N180 N 0.27096 0.70464 0.38704 0.0
N181 N 0.2784 0.67277 0.36866 0.0
C182 C 0.22082 0.75538 0.3855 0.0
H183 H 0.23794 0.76896 0.40812 0.0
H184 H 0.21796 0.775 0.36105 0.0
H185 H 0.19183 0.74955 0.39629 0.0
C186 C 0.34733 0.83071 0.3827 0.0
N187 N 0.33321 0.80582 0.40786 0.0
N188 N 0.3158 0.7784 0.39003 0.0
C189 C 0.31749 0.78641 0.35225 0.0
C190 C 0.33677 0.82046 0.3468 0.0
C191 C 0.37627 0.85976 0.3919 0.0
H192 H 0.39444 0.85028 0.41577 0.0
H193 H 0.36088 0.88553 0.40015 0.0
H194 H 0.39428 0.86617 0.36688 0.0
O195 O 0.3814 0.7636 0.46405 0.0
O196 O 0.35447 0.71152 0.43828 0.0
H197 H 0.31065 0.73089 0.32861 0.0
H198 H 0.31807 0.76795 0.29399 0.0
C199 C 0.3044 0.76079 0.32141 0.0
H200 H 0.27351 0.76468 0.31848 0.0
H201 H 0.30261 0.65634 0.37307 0.0
O202 O 0.35242 0.85568 0.47404 0.0
C203 C 0.38197 0.72827 0.45567 0.0
Co204 Co 0.48327 0.08903 0.71237 0.0
Co205 Co 0.55298 0.05015 0.67343 0.0
C206 C 0.52407 0.0276 0.75262 0.0
O207 O 0.49693 0.05059 0.74923 0.0
O208 O 0.54671 0.0217 0.72481 0.0
C209 C 0.41048 0.06962 0.71573 0.0
O210 O 0.42708 0.03977 0.70096 0.0
C211 C 0.57092 0.98499 0.62695 0.0
C212 C 0.61844 1.00317 0.59072 0.0
C213 C 0.59185 0.97459 0.5954 0.0
N214 N 0.5834 0.01875 0.63984 0.0
N215 N 0.61231 0.02923 0.6183 0.0
C216 C 0.53668 0.96492 0.64187 0.0
H217 H 0.52231 0.982 0.66401 0.0
H218 H 0.51665 0.95902 0.61829 0.0
H219 H 0.54544 0.93721 0.65399 0.0
C220 C 0.45683 0.09396 0.63598 0.0
N221 N 0.48127 0.07902 0.66107 0.0
N222 N 0.50825 0.06093 0.64323 0.0
C223 C 0.49999 0.06237 0.60547 0.0
C224 C 0.46657 0.0828 0.60017 0.0
C225 C 0.42967 0.1248 0.64502 0.0
H226 H 0.43982 0.1419 0.66939 0.0
H227 H 0.4026 0.11135 0.65236 0.0
H228 H 0.42527 0.1436 0.62014 0.0
O229 O 0.52224 0.12698 0.71768 0.0
O230 O 0.57444 0.1017 0.69056 0.0
H231 H 0.55489 0.058 0.58022 0.0
H232 H 0.51662 0.06077 0.54661 0.0
C233 C 0.5254 0.04905 0.57445 0.0
H234 H 0.524 1.01776 0.57313 0.0
H235 H 0.62622 0.05522 0.62076 0.0
O236 O 0.43028 0.09813 0.72606 0.0
C237 C 0.55734 0.12858 0.70855 0.0
Co238 Co 0.19774 0.23542 0.9608 0.0
Co239 Co 0.23706 0.30507 0.92244 0.0
C240 C 0.25876 0.27652 1.00221 0.0
O241 O 0.23548 0.24963 0.99858 0.0
O242 O 0.26527 0.29891 0.97429 0.0
C243 C 0.21703 0.16247 0.96535 0.0
O244 O 0.2472 0.17879 0.9509 0.0
C245 C 0.30223 0.32284 0.87614 0.0
C246 C 0.28334 0.36875 0.83823 0.0
C247 C 0.31212 0.34251 0.84361 0.0
N248 N 0.26843 0.33546 0.88878 0.0
N249 N 0.25756 0.36347 0.86626 0.0
C250 C 0.32256 0.28916 0.892 0.0
H251 H 0.30532 0.27493 0.91411 0.0
H252 H 0.3292 0.26881 0.86891 0.0
H253 H 0.34988 0.29857 0.90449 0.0
C254 C 0.19475 0.20838 0.88434 0.0
N255 N 0.20899 0.23303 0.90964 0.0
N256 N 0.22695 0.26024 0.89199 0.0
C257 C 0.2261 0.25192 0.85418 0.0
C258 C 0.20625 0.21823 0.84868 0.0
C259 C 0.16432 0.18068 0.89291 0.0
H260 H 0.14675 0.19037 0.91714 0.0
H261 H 0.17831 0.15385 0.90015 0.0
H262 H 0.14587 0.176 0.86784 0.0
O263 O 0.159 0.27398 0.96474 0.0
O264 O 0.18513 0.32639 0.93901 0.0
H265 H 0.2294 0.30678 0.8287 0.0
H266 H 0.22755 0.26843 0.79526 0.0
C267 C 0.23905 0.2775 0.8231 0.0
H268 H 0.27037 0.27666 0.82164 0.0
H269 H 0.23138 0.37712 0.86827 0.0
O270 O 0.1884 0.1825 0.97485 0.0
C271 C 0.15759 0.30916 0.95586 0.0
Co272 Co 0.32659 0.05061 0.09141 0.0
Co273 Co 0.36425 0.98376 0.04855 0.0
C274 C 0.28555 1.01221 0.02732 0.0
O275 O 0.28841 0.03672 0.05322 0.0
O276 O 0.3139 0.99108 0.01903 0.0
C277 C 0.32397 0.12297 0.07078 0.0
O278 O 0.33938 0.106 0.04146 0.0
C279 C 0.41047 0.96439 0.98402 0.0
C280 C 0.44894 0.91961 1.00457 0.0
C281 C 0.44338 0.94495 0.97504 0.0
N282 N 0.39785 0.95264 1.0181 0.0
N283 N 0.42064 0.92525 0.02996 0.0
C284 C 0.39404 0.99706 0.96249 0.0
H285 H 0.37542 1.01443 0.98094 0.0
H286 H 0.41699 1.01499 0.95051 0.0
H287 H 0.37704 0.98591 0.93848 0.0
C288 C 0.4038 0.07516 0.09831 0.0
N289 N 0.37803 0.05257 0.0816 0.0
N290 N 0.39475 0.02857 0.05891 0.0
C291 C 0.43224 0.03801 0.05802 0.0
C292 C 0.43847 0.06866 0.08214 0.0
C293 C 0.39941 0.08952 0.13779 0.0
H294 H 0.36917 0.09141 0.14597 0.0
H295 H 0.41502 0.11653 0.14107 0.0
H296 H 0.413 0.06903 0.15746 0.0
O297 O 0.32169 1.01292 0.12973 0.0
O298 O 0.34627 0.96165 0.10044 0.0
H299 H 0.45865 0.98429 0.05005 0.0
H300 H 0.49118 0.02272 0.05276 0.0
C301 C 0.46304 1.01411 0.04177 0.0
H302 H 0.46286 1.01684 1.0105 0.0
H303 H 0.41867 0.91243 0.05656 0.0
O304 O 0.31359 0.1037 0.09964 0.0
C305 C 0.32994 0.97764 0.1291 0.0
Co306 Co 0.23575 0.07932 0.34292 0.0
Co307 Co 0.30491 0.11737 0.30311 0.0
C308 C 0.27668 0.03753 0.28194 0.0
O309 O 0.25029 0.04108 0.30577 0.0
O310 O 0.29855 0.06567 0.27477 0.0
C311 C 0.16393 0.07157 0.32253 0.0
O312 O 0.18061 0.08594 0.29251 0.0
C313 C 0.32039 0.16346 0.23761 0.0
C314 C 0.36762 0.20081 0.2541 0.0
C315 C 0.33995 0.19565 0.22663 0.0
N316 N 0.3344 0.15083 0.27086 0.0
N317 N 0.36314 0.17305 0.28033 0.0
C318 C 0.28577 0.1478 0.21878 0.0
H319 H 0.27256 0.12526 0.23627 0.0
H320 H 0.26499 0.17093 0.21379 0.0
H321 H 0.29373 0.13599 0.19071 0.0
C322 C 0.20743 0.15585 0.34404 0.0
N323 N 0.23255 0.13043 0.33078 0.0
N324 N 0.2604 0.14807 0.31381 0.0
C325 C 0.25246 0.18596 0.3149 0.0
C326 C 0.21806 0.1916 0.33342 0.0
C327 C 0.17762 0.14715 0.37228 0.0
H328 H 0.18635 0.12335 0.39088 0.0
H329 H 0.15216 0.13928 0.35616 0.0
H330 H 0.17097 0.17232 0.39 0.0
O331 O 0.27441 0.07607 0.38182 0.0
O332 O 0.32684 0.10047 0.35456 0.0
H333 H 0.30806 0.20999 0.31217 0.0
H334 H 0.27065 0.24436 0.31621 0.0
C335 C 0.27883 0.21689 0.30324 0.0
H336 H 0.2776 0.21998 0.27205 0.0
H337 H 0.378 0.17095 0.30583 0.0
O338 O 0.18334 0.06392 0.35211 0.0
C339 C 0.30978 0.08426 0.38258 0.0
Co340 Co 0.20741 0.98774 0.59802 0.0
Co341 Co 0.16996 0.04989 0.54943 0.0
C342 C 0.24918 0.02374 0.53208 0.0
O343 O 0.24724 1.00341 0.56147 0.0
O344 O 0.21945 0.04044 0.51972 0.0
C345 C 0.21393 0.91731 0.57385 0.0
O346 O 0.19966 0.93595 0.54497 0.0
C347 C 0.12287 0.06609 0.48412 0.0
C348 C 0.08917 0.11622 0.5 0.0
C349 C 0.09215 0.08784 0.47295 0.0
N350 N 0.13663 0.07964 0.51711 0.0
N351 N 0.11656 0.11004 0.52624 0.0
C352 C 0.13716 0.03108 0.46488 0.0
H353 H 0.15594 1.01461 0.48398 0.0
H354 H 0.11304 1.0132 0.45542 0.0
H355 H 0.15339 0.03946 0.43924 0.0
C356 C 0.1304 0.9613 0.6043 0.0
N357 N 0.15621 0.98356 0.58706 0.0
N358 N 0.13967 1.00595 0.56268 0.0
C359 C 0.10237 0.99613 0.56169 0.0
C360 C 0.09587 0.9666 0.5871 0.0
C361 C 0.13477 0.94774 0.64416 0.0
H362 H 0.16504 0.94415 0.65179 0.0
H363 H 0.11791 0.92165 0.64874 0.0
H364 H 0.12289 0.96959 0.66345 0.0
O365 O 0.20885 0.02587 0.63632 0.0
O366 O 0.1891 0.0746 0.59993 0.0
H367 H 0.07751 0.04966 0.54823 0.0
H368 H 0.04395 1.0131 0.55726 0.0
C369 C 0.0718 0.01919 0.54406 0.0
H370 H 0.07068 1.01242 0.51345 0.0
H371 H 0.12008 0.12529 0.55135 0.0
O372 O 0.22195 0.93474 0.60464 0.0
C373 C 0.20248 0.06123 0.63138 0.0
Co374 Co 0.29909 0.95932 0.84277 0.0
Co375 Co 0.23494 0.92244 0.79582 0.0
C376 C 0.26269 1.00141 0.77742 0.0
O377 O 0.28441 0.99897 0.80579 0.0
O378 O 0.24405 0.97231 0.7663 0.0
C379 C 0.37124 0.9628 0.82159 0.0
O380 O 0.35388 0.9486 0.7919 0.0
C381 C 0.21619 0.87642 0.73063 0.0
C382 C 0.17044 0.83867 0.75031 0.0
C383 C 0.19625 0.84394 0.72114 0.0
N384 N 0.20417 0.88908 0.76462 0.0
N385 N 0.17621 0.86671 0.77594 0.0
C386 C 0.24936 0.89249 0.70961 0.0
H387 H 0.26722 0.91003 0.72863 0.0
H388 H 0.26664 0.86942 0.69692 0.0
H389 H 0.23872 0.91057 0.68615 0.0
C390 C 0.32415 0.88229 0.84862 0.0
N391 N 0.30196 0.90823 0.83163 0.0
N392 N 0.27917 0.89188 0.80749 0.0
C393 C 0.28896 0.85453 0.80612 0.0
C394 C 0.31862 0.84795 0.83137 0.0
C395 C 0.33736 0.88615 0.88861 0.0
H396 H 0.34005 0.91631 0.89692 0.0
H397 H 0.36376 0.86974 0.89289 0.0
H398 H 0.31573 0.87328 0.90753 0.0
O399 O 0.26135 0.96164 0.88128 0.0
O400 O 0.21146 0.94096 0.84713 0.0
H401 H 0.23559 0.82833 0.79554 0.0
H402 H 0.27378 0.79573 0.7996 0.0
C403 C 0.26574 0.82399 0.78849 0.0
H404 H 0.26974 0.82457 0.75736 0.0
H405 H 0.16299 0.8688 0.80233 0.0
O406 O 0.35229 0.97233 0.85098 0.0
C407 C 0.22594 0.95477 0.87786 0.0
Co408 Co 0.32695 0.98753 0.44462 0.0
Co409 Co 0.36425 0.05171 0.49103 0.0
C410 C 0.28538 0.02352 0.51022 0.0
O411 O 0.28777 1.00137 0.48222 0.0
O412 O 0.31434 0.04275 0.52066 0.0
C413 C 0.32383 0.91567 0.46548 0.0
O414 O 0.33823 0.93317 0.495 0.0
C415 C 0.41072 0.06898 0.55603 0.0
C416 C 0.44793 0.11561 0.53742 0.0
C417 C 0.44315 0.08882 0.56578 0.0
N418 N 0.39768 0.08191 0.52253 0.0
N419 N 0.41975 0.11036 0.51183 0.0
C420 C 0.39494 0.03525 0.57636 0.0
H421 H 0.37644 1.01836 0.55737 0.0
H422 H 0.41825 1.01722 0.58746 0.0
H423 H 0.37797 0.04521 0.60092 0.0
C424 C 0.40427 0.96284 0.43738 0.0
N425 N 0.37839 0.98483 0.45476 0.0
N426 N 0.39489 1.00755 0.47886 0.0
C427 C 0.43229 0.99788 0.47982 0.0
C428 C 0.43878 0.96833 0.45442 0.0
C429 C 0.4001 0.95004 0.39729 0.0
H430 H 0.36988 0.94691 0.38936 0.0
H431 H 0.41691 0.92399 0.39241 0.0
H432 H 0.4123 0.97215 0.37847 0.0
O433 O 0.32318 0.0259 0.40698 0.0
O434 O 0.34589 0.07577 0.43997 0.0
H435 H 0.45794 0.05146 0.49082 0.0
H436 H 0.49099 1.01398 0.4848 0.0
C437 C 0.46298 0.02124 0.49701 0.0
H438 H 0.46348 1.01642 0.52803 0.0
H439 H 0.4173 0.12436 0.48588 0.0
O440 O 0.31402 0.93449 0.4361 0.0
C441 C 0.33078 0.06121 0.4099 0.0
Co442 Co 0.29903 0.07967 0.69006 0.0
Co443 Co 0.23667 0.11696 0.73823 0.0
C444 C 0.26265 0.03771 0.7557 0.0
O445 O 0.28317 0.03973 0.72645 0.0
O446 O 0.24578 0.06738 0.76797 0.0
C447 C 0.36959 0.07257 0.71386 0.0
O448 O 0.35129 0.08692 0.74291 0.0
C449 C 0.22011 0.16312 0.80362 0.0
C450 C 0.17293 0.20012 0.78604 0.0
C451 C 0.20014 0.19526 0.814 0.0
N452 N 0.20683 0.15031 0.77017 0.0
N453 N 0.17808 0.17226 0.76007 0.0
C454 C 0.25416 0.14733 0.82341 0.0
H455 H 0.27101 0.12919 0.80404 0.0
H456 H 0.27212 0.17063 0.83463 0.0
H457 H 0.24456 0.12998 0.84786 0.0
C458 C 0.32578 0.15662 0.6845 0.0
N459 N 0.30336 0.1308 0.70147 0.0
N460 N 0.28079 0.14733 0.7257 0.0
C461 C 0.29068 0.18465 0.72695 0.0
C462 C 0.32043 0.19109 0.70176 0.0
C463 C 0.33974 0.15239 0.64478 0.0
H464 H 0.34229 0.12214 0.6367 0.0
H465 H 0.36648 0.16837 0.64092 0.0
H466 H 0.31866 0.16544 0.62537 0.0
O467 O 0.26121 0.0785 0.65143 0.0
O468 O 0.21225 0.09803 0.68756 0.0
H469 H 0.23697 0.20995 0.73837 0.0
H470 H 0.27394 0.24322 0.7311 0.0
C471 C 0.26722 0.21537 0.74398 0.0
H472 H 0.27251 0.21652 0.77492 0.0
H473 H 0.16369 0.16991 0.73432 0.0
O474 O 0.35188 0.06483 0.68317 0.0
C475 C 0.22582 0.0848 0.65615 0.0
Co476 Co 0.20822 0.05032 0.94051 0.0
Co477 Co 0.17058 0.9851 0.98585 0.0
C478 C 0.24983 1.01189 1.00479 0.0
O479 O 0.24731 0.03489 0.9775 0.0
O480 O 0.22075 0.99282 1.01514 0.0
C481 C 0.214 0.12154 0.96397 0.0
O482 O 0.19894 0.10364 0.99291 0.0
C483 C 0.12413 0.96726 0.05125 0.0
C484 C 0.08943 0.91826 0.0341 0.0
C485 C 0.09327 0.94556 0.06213 0.0
N486 N 0.13727 0.95465 1.01763 0.0
N487 N 0.11663 0.92489 1.00776 0.0
C488 C 0.13892 1.00161 0.07129 0.0
H489 H 0.15818 1.01809 0.05267 0.0
H490 H 0.11504 0.01977 0.08084 0.0
H491 H 0.15471 0.99244 0.09693 0.0
C492 C 0.13134 0.07634 0.9349 0.0
N493 N 0.15713 0.05362 0.95151 0.0
N494 N 0.14042 0.02976 0.97438 0.0
C495 C 0.10297 0.03909 0.97512 0.0
C496 C 0.09663 0.06973 0.95103 0.0
C497 C 0.13589 0.09144 0.89567 0.0
H498 H 0.16617 0.09346 0.8876 0.0
H499 H 0.12047 0.11862 0.8928 0.0
H500 H 0.12228 0.07137 0.87559 0.0
O501 O 0.21048 1.01268 0.90161 0.0
O502 O 0.18881 0.96219 0.93436 0.0
H503 H 0.07768 0.9851 0.98548 0.0
H504 H 0.04431 0.02284 0.98014 0.0
C505 C 0.07247 1.0153 0.99189 0.0
H506 H 0.07238 0.01981 0.0229 0.0
H507 H 0.11956 0.91049 0.98207 0.0
O508 O 0.22258 0.10339 0.93377 0.0
C509 C 0.20312 0.97726 0.90413 0.0
Co510 Co 0.23539 0.96084 0.19776 0.0
Co511 Co 0.30503 0.92247 0.23707 0.0
C512 C 0.2765 1.00223 0.25878 0.0
O513 O 0.24962 0.99862 0.23549 0.0
O514 O 0.29888 0.9743 0.26529 0.0
C515 C 0.16243 0.96535 0.2171 0.0
O516 O 0.17878 0.9509 0.24725 0.0
C517 C 0.32287 0.87615 0.30223 0.0
C518 C 0.36877 0.83826 0.28329 0.0
C519 C 0.34257 0.84363 0.3121 0.0
N520 N 0.33544 0.8888 0.26842 0.0
N521 N 0.36346 0.86629 0.25752 0.0
C522 C 0.2892 0.89199 0.3226 0.0
H523 H 0.27494 0.91409 0.30537 0.0
H524 H 0.26887 0.86889 0.32925 0.0
H525 H 0.29863 0.90448 0.34991 0.0
C526 C 0.20836 0.88439 0.19475 0.0
N527 N 0.233 0.90968 0.20901 0.0
N528 N 0.2602 0.89203 0.22698 0.0
C529 C 0.25188 0.85422 0.2261 0.0
C530 C 0.2182 0.84873 0.20623 0.0
C531 C 0.1807 0.89299 0.16427 0.0
H532 H 0.19044 0.91719 0.1467 0.0
H533 H 0.15386 0.90027 0.17822 0.0
H534 H 0.17602 0.86791 0.14582 0.0
O535 O 0.27391 0.96477 0.159 0.0
O536 O 0.32633 0.93905 0.18513 0.0
H537 H 0.30673 0.82873 0.22939 0.0
H538 H 0.26838 0.7953 0.22756 0.0
C539 C 0.27745 0.82313 0.23905 0.0
H540 H 0.27663 0.82169 0.27037 0.0
H541 H 0.37708 0.86831 0.23133 0.0
O542 O 0.18245 0.97487 0.18846 0.0
C543 C 0.30909 0.95587 0.15758 0.0
Co544 Co 0.0914 0.32662 0.05059 0.0
Co545 Co 0.04854 0.36426 0.98372 0.0
C546 C 0.02734 0.28555 1.01217 0.0
O547 O 0.05323 0.28841 0.03669 0.0
O548 O 0.01904 0.31389 0.99104 0.0
C549 C 0.07077 0.32395 0.12295 0.0
O550 O 0.04145 0.33935 0.10598 0.0
C551 C 0.98397 0.41044 0.9644 0.0
C552 C 1.00446 0.44895 0.91964 0.0
C553 C 0.97495 0.44336 0.94501 0.0
N554 N 1.01806 0.39785 0.95263 0.0
N555 N 0.02988 0.42067 0.92524 0.0
C556 C 0.96248 0.39398 0.99709 0.0
H557 H 0.98096 0.37536 1.01443 0.0
H558 H 0.95051 0.41691 1.01505 0.0
H559 H 0.93847 0.37697 0.98595 0.0
C560 C 0.09825 0.40382 0.07516 0.0
N561 N 0.08155 0.37805 0.05257 0.0
N562 N 0.05888 0.39477 0.02854 0.0
C563 C 0.05797 0.43225 0.03799 0.0
C564 C 0.08207 0.43849 0.06866 0.0
C565 C 0.13771 0.39945 0.08956 0.0
H566 H 0.14592 0.36921 0.0914 0.0
H567 H 0.14095 0.41501 0.1166 0.0
H568 H 0.1574 0.41309 0.06911 0.0
O569 O 0.12973 0.32175 1.0129 0.0
O570 O 0.10044 0.34631 0.96162 0.0
H571 H 0.05001 0.45866 0.98426 0.0
H572 H 0.05272 0.49119 0.02269 0.0
C573 C 0.04172 0.46306 1.01408 0.0
H574 H 1.01045 0.46287 1.0168 0.0
H575 H 0.05647 0.41873 0.9124 0.0
O576 O 0.09964 0.3136 0.10368 0.0
C577 C 0.1291 0.33002 0.97763 0.0
Co578 Co 0.59798 0.2074 0.98779 0.0
Co579 Co 0.54941 0.16996 0.04996 0.0
C580 C 0.53206 0.24918 0.02381 0.0
O581 O 0.56143 0.24724 1.00346 0.0
O582 O 0.5197 0.21946 0.04053 0.0
C583 C 0.57384 0.21396 0.91735 0.0
O584 O 0.54495 0.19969 0.93596 0.0
C585 C 0.48409 0.12288 0.06616 0.0
C586 C 0.5 0.08911 0.11624 0.0
C587 C 0.47293 0.09213 0.08787 0.0
N588 N 0.51709 0.13663 0.07971 0.0
N589 N 0.52623 0.11652 0.11008 0.0
C590 C 0.46483 0.1372 0.03117 0.0
H591 H 0.48393 0.15599 1.0147 0.0
H592 H 0.45536 0.1131 1.01328 0.0
H593 H 0.43921 0.15344 0.03958 0.0
C594 C 0.60419 0.1304 0.96131 0.0
N595 N 0.58699 0.15621 0.9836 0.0
N596 N 0.56261 0.13967 1.006 0.0
C597 C 0.56159 0.10238 0.99616 0.0
C598 C 0.58694 0.09589 0.96659 0.0
C599 C 0.64404 0.13473 0.94774 0.0
H600 H 0.65174 0.16499 0.94426 0.0
H601 H 0.64857 0.11795 0.92159 0.0
H602 H 0.66333 0.12272 0.96953 0.0
O603 O 0.63629 0.20882 0.02591 0.0
O604 O 0.59992 0.18909 0.07466 0.0
H605 H 0.54818 0.0775 0.04969 0.0
H606 H 0.55717 0.04396 1.01311 0.0
C607 C 0.54398 0.07181 0.01923 0.0
H608 H 0.51337 0.07069 1.01248 0.0
H609 H 0.55135 0.12002 0.12532 0.0
O610 O 0.60462 0.22196 0.9348 0.0
C611 C 0.63136 0.20246 0.06128 0.0
Co612 Co 0.0793 0.34285 0.23575 0.0
Co613 Co 0.11735 0.30309 0.30495 0.0
C614 C 0.03751 0.2819 0.2767 0.0
O615 O 0.04107 0.30569 0.25029 0.0
O616 O 0.06563 0.27476 0.29861 0.0
C617 C 0.07154 0.32248 0.16392 0.0
O618 O 0.08591 0.29246 0.18059 0.0
C619 C 0.16344 0.2376 0.32044 0.0
C620 C 0.2008 0.25411 0.36765 0.0
C621 C 0.19564 0.22664 0.33999 0.0
N622 N 0.15081 0.27085 0.33444 0.0
N623 N 0.17304 0.28033 0.36318 0.0
C624 C 0.14778 0.21877 0.28582 0.0
H625 H 0.12522 0.23624 0.27263 0.0
H626 H 0.1709 0.21379 0.26503 0.0
H627 H 0.13599 0.19069 0.2938 0.0
C628 C 0.15584 0.34393 0.20742 0.0
N629 N 0.13041 0.3307 0.23256 0.0
N630 N 0.14805 0.31377 0.26042 0.0
C631 C 0.18594 0.31485 0.2525 0.0
C632 C 0.19159 0.33332 0.21807 0.0
C633 C 0.14716 0.37214 0.17758 0.0
H634 H 0.12333 0.39073 0.18626 0.0
H635 H 0.13932 0.35599 0.15212 0.0
H636 H 0.17232 0.38986 0.17094 0.0
O637 O 0.07604 0.38175 0.2744 0.0
O638 O 0.10047 0.35455 0.32685 0.0
H639 H 0.20997 0.31218 0.3081 0.0
H640 H 0.24434 0.31618 0.27069 0.0
C641 C 0.21687 0.30322 0.27888 0.0
H642 H 0.21996 0.27203 0.27767 0.0
H643 H 0.17094 0.30583 0.37803 0.0
O644 O 0.06389 0.35205 0.18334 0.0
C645 C 0.08424 0.38254 0.30977 0.0
Co646 Co 0.94253 0.82842 0.48412 0.0
Co647 Co 0.9833 0.86688 0.55306 0.0
C648 C 1.00429 0.78755 0.52458 0.0
O649 O 0.97985 0.79069 0.49876 0.0
O650 O 1.01199 0.81588 0.54597 0.0
C651 C 0.96382 0.82194 0.41228 0.0
O652 O 0.99344 0.83659 0.42941 0.0
C653 C 0.04861 0.91423 0.56924 0.0
C654 C 0.03498 0.94492 0.62184 0.0
C655 C 0.06124 0.94317 0.59259 0.0
N656 N 1.01582 0.90012 0.58298 0.0
N657 N 1.00796 0.9185 0.61476 0.0
C658 C 0.06679 0.90153 0.53308 0.0
H659 H 0.04953 0.87936 0.51893 0.0
H660 H 0.07047 0.92612 0.51377 0.0
H661 H 0.09547 0.89015 0.53935 0.0
C662 C 0.93987 0.90466 0.45646 0.0
N663 N 0.95391 0.87944 0.48132 0.0
N664 N 0.97141 0.8972 0.50874 0.0
C665 C 0.96985 0.93498 0.50078 0.0
C666 C 0.95049 0.94047 0.46679 0.0
C667 C 0.91103 0.89562 0.42727 0.0
H668 H 0.89281 0.87171 0.43654 0.0
H669 H 0.92654 0.88759 0.40149 0.0
H670 H 0.89303 0.92066 0.42092 0.0
O671 O 0.90403 0.82485 0.52295 0.0
O672 O 0.93226 0.84888 0.57514 0.0
H673 H 0.97618 0.95885 0.55624 0.0
H674 H 0.97023 0.9934 0.51881 0.0
C675 C 0.98314 0.96572 0.52641 0.0
H676 H 1.01416 0.96793 0.52318 0.0
H677 H 0.98342 0.91424 0.63074 0.0
O678 O 0.93421 0.81347 0.43135 0.0
C679 C 0.904 0.83272 0.55841 0.0
Co680 Co 0.96078 0.19776 0.23542 0.0
Co681 Co 0.92245 0.23705 0.3051 0.0
C682 C 1.00221 0.25875 0.27654 0.0
O683 O 0.99857 0.23548 0.24964 0.0
O684 O 0.97429 0.26525 0.29894 0.0
C685 C 0.96535 0.21706 0.16246 0.0
O686 O 0.95089 0.24723 0.17879 0.0
C687 C 0.87616 0.30224 0.32287 0.0
C688 C 0.83826 0.28337 0.36879 0.0
C689 C 0.84364 0.31215 0.34255 0.0
N690 N 0.8888 0.26844 0.33549 0.0
N691 N 0.86628 0.25758 0.36351 0.0
C692 C 0.89201 0.32256 0.28918 0.0
H693 H 0.91414 0.30532 0.27497 0.0
H694 H 0.86892 0.32916 0.26882 0.0
H695 H 0.90448 0.34989 0.29857 0.0
C696 C 0.88432 0.19481 0.20839 0.0
N697 N 0.90963 0.20903 0.23304 0.0
N698 N 0.89198 0.22696 0.26027 0.0
C699 C 0.85417 0.2261 0.25197 0.0
C700 C 0.84866 0.20628 0.21827 0.0
C701 C 0.89288 0.16442 0.18064 0.0
H702 H 0.91713 0.14685 0.19028 0.0
H703 H 0.90008 0.17845 0.15382 0.0
H704 H 0.86781 0.14596 0.17597 0.0
O705 O 0.96471 0.159 0.27396 0.0
O706 O 0.93901 0.18511 0.3264 0.0
H707 H 0.82872 0.22937 0.30684 0.0
H708 H 0.79526 0.22753 0.2685 0.0
C709 C 0.8231 0.23903 0.27757 0.0
H710 H 0.82164 0.27035 0.27675 0.0
H711 H 0.86829 0.23141 0.37717 0.0
O712 O 0.97484 0.18843 0.1825 0.0
C713 C 0.95583 0.15757 0.30914 0.0
Co714 Co 0.44693 0.71148 0.55248 0.0
Co715 Co 0.48898 0.67261 0.48491 0.0
C716 C 0.50964 0.75219 0.51339 0.0
O717 O 0.48462 0.74945 0.53875 0.0
O718 O 0.51756 0.72368 0.49229 0.0
C719 C 0.46639 0.71529 0.6249 0.0
O720 O 0.49653 0.70153 0.60795 0.0
C721 C 0.55426 0.62581 0.4689 0.0
C722 C 0.53739 0.5898 0.42075 0.0
C723 C 0.56504 0.59415 0.44837 0.0
N724 N 0.52103 0.63897 0.45535 0.0
N725 N 0.51133 0.61754 0.42609 0.0
C726 C 0.57352 0.64078 0.50359 0.0
H727 H 0.5559 0.66264 0.51775 0.0
H728 H 0.57941 0.61719 0.5236 0.0
H729 H 0.60119 0.65334 0.49536 0.0
C730 C 0.44223 0.63522 0.57955 0.0
N731 N 0.45761 0.66024 0.5553 0.0
N732 N 0.47704 0.64243 0.5293 0.0
C733 C 0.47604 0.60476 0.53803 0.0
C734 C 0.45456 0.59946 0.57079 0.0
C735 C 0.40994 0.64423 0.60506 0.0
H736 H 0.39211 0.66702 0.59267 0.0
H737 H 0.42178 0.65443 0.63195 0.0
H738 H 0.39229 0.61875 0.61052 0.0
O739 O 0.40939 0.71562 0.51305 0.0
O740 O 0.43804 0.69003 0.46181 0.0
H741 H 0.48292 0.5795 0.48338 0.0
H742 H 0.47766 0.54596 0.52131 0.0
C743 C 0.49027 0.57363 0.51327 0.0
H744 H 0.52143 0.57183 0.51636 0.0
H745 H 0.48583 0.62023 0.41132 0.0
O746 O 0.43745 0.72504 0.60539 0.0
C747 C 0.4098 0.70696 0.47779 0.0
Co748 Co 0.07965 0.69008 0.29896 0.0
Co749 Co 0.11693 0.73827 0.23662 0.0
C750 C 0.03768 0.75573 0.26261 0.0
O751 O 0.03971 0.72647 0.28313 0.0
O752 O 0.06735 0.76801 0.24574 0.0
C753 C 0.07252 0.71383 0.36954 0.0
O754 O 0.08687 0.7429 0.35126 0.0
C755 C 0.16308 0.80367 0.22007 0.0
C756 C 0.2001 0.78609 0.1729 0.0
C757 C 0.19522 0.81405 0.20011 0.0
N758 N 0.15028 0.77022 0.20679 0.0
N759 N 0.17224 0.76012 0.17804 0.0
C760 C 0.14727 0.82346 0.25411 0.0
H761 H 0.12915 0.80408 0.27097 0.0
H762 H 0.17056 0.83471 0.27206 0.0
H763 H 0.1299 0.84789 0.2445 0.0
C764 C 0.1566 0.68456 0.32575 0.0
N765 N 0.13077 0.7015 0.30331 0.0
N766 N 0.1473 0.72574 0.28075 0.0
C767 C 0.18461 0.72703 0.29066 0.0
C768 C 0.19105 0.70187 0.32044 0.0
C769 C 0.15241 0.64485 0.33973 0.0
H770 H 0.12216 0.63672 0.3422 0.0
H771 H 0.16832 0.64104 0.36651 0.0
H772 H 0.16555 0.62545 0.3187 0.0
O773 O 0.07847 0.65146 0.26113 0.0
O774 O 0.098 0.6876 0.21219 0.0
H775 H 0.20992 0.73846 0.23696 0.0
H776 H 0.24318 0.7312 0.27394 0.0
C777 C 0.21533 0.74407 0.26721 0.0
H778 H 0.21647 0.77501 0.27251 0.0
H779 H 0.16991 0.73437 0.16366 0.0
O780 O 0.0648 0.68315 0.35181 0.0
C781 C 0.08474 0.65619 0.22574 0.0
Co782 Co 0.45919 0.34369 0.80306 0.0
Co783 Co 0.42043 0.30363 0.73405 0.0
C784 C 0.49963 0.28181 0.76294 0.0
O785 O 0.4964 0.30568 0.78927 0.0
O786 O 0.47154 0.27493 0.74097 0.0
C787 C 0.46529 0.32282 0.8747 0.0
O788 O 0.45053 0.29329 0.85752 0.0
C789 C 0.37276 0.23853 0.71892 0.0
C790 C 0.34204 0.2515 0.66618 0.0
C791 C 0.34364 0.22578 0.69591 0.0
N792 N 0.38707 0.27097 0.70458 0.0
N793 N 0.36866 0.27845 0.67273 0.0
C794 C 0.38554 0.22079 0.75528 0.0
H795 H 0.40816 0.2379 0.76887 0.0
H796 H 0.36109 0.21793 0.7749 0.0
H797 H 0.39631 0.1918 0.74943 0.0
C798 C 0.38272 0.34725 0.83072 0.0
N799 N 0.40789 0.33316 0.80581 0.0
N800 N 0.39006 0.31578 0.77837 0.0
C801 C 0.35227 0.31745 0.78639 0.0
C802 C 0.34683 0.33667 0.82047 0.0
C803 C 0.39191 0.37618 0.85978 0.0
H804 H 0.41578 0.39435 0.85033 0.0
H805 H 0.40013 0.36078 0.88556 0.0
H806 H 0.36689 0.39419 0.86617 0.0
O807 O 0.46406 0.38139 0.76361 0.0
O808 O 0.4383 0.35449 0.71152 0.0
H809 H 0.32864 0.31068 0.73086 0.0
H810 H 0.29401 0.31806 0.76792 0.0
C811 C 0.32144 0.30439 0.76075 0.0
H812 H 0.3185 0.2735 0.76459 0.0
H813 H 0.37306 0.30269 0.65633 0.0
O814 O 0.47406 0.35238 0.85568 0.0
C815 C 0.45569 0.38198 0.72828 0.0
Co816 Co 0.55123 0.59598 0.82865 0.0
Co817 Co 0.4858 0.55098 0.86747 0.0
C818 C 0.51284 0.53235 0.78765 0.0
O819 O 0.53607 0.55938 0.78989 0.0
O820 O 0.49405 0.52201 0.81697 0.0
C821 C 0.62242 0.57416 0.82143 0.0
O822 O 0.60467 0.54438 0.83498 0.0
C823 C 0.47108 0.48574 0.9153 0.0
C824 C 0.41902 0.49929 0.94696 0.0
C825 C 0.44855 0.47338 0.94499 0.0
N826 N 0.45671 0.5182 0.90107 0.0
N827 N 0.42525 0.52601 0.92002 0.0
C828 C 0.50705 0.46766 0.90193 0.0
H829 H 0.52152 0.4857 0.88061 0.0
H830 H 0.5262 0.46246 0.92637 0.0
H831 H 0.50036 0.43969 0.88914 0.0
C832 C 0.58015 0.59909 0.90437 0.0
N833 N 0.5555 0.58405 0.87951 0.0
N834 N 0.5299 0.56417 0.89741 0.0
C835 C 0.53899 0.56496 0.93495 0.0
C836 C 0.57178 0.58639 0.94015 0.0
C837 C 0.60579 0.63122 0.89514 0.0
H838 H 0.5917 0.6509 0.87501 0.0
H839 H 0.63092 0.61953 0.88103 0.0
H840 H 0.6145 0.64685 0.92103 0.0
O841 O 0.51208 0.63406 0.82686 0.0
O842 O 0.46177 0.60121 0.84889 0.0
H843 H 0.48451 0.55506 0.95982 0.0
H844 H 0.5219 0.56337 0.99358 0.0
C845 C 0.51481 0.54991 0.96605 0.0
H846 H 0.52012 0.51913 0.96819 0.0
H847 H 0.40898 0.55037 0.91583 0.0
O848 O 0.6039 0.60433 0.81357 0.0
C849 C 0.47659 0.63123 0.83401 0.0
Co850 Co 0.69007 0.29902 0.07969 0.0
Co851 Co 0.73822 0.23665 0.11699 0.0
C852 C 0.75571 0.26264 0.03773 0.0
O853 O 0.72647 0.28318 0.03975 0.0
O854 O 0.76796 0.24574 0.0674 0.0
C855 C 0.71382 0.3696 0.07259 0.0
O856 O 0.74288 0.35132 0.08695 0.0
C857 C 0.8036 0.22011 0.16315 0.0
C858 C 0.78602 0.17295 0.20018 0.0
C859 C 0.81397 0.20016 0.19531 0.0
N860 N 0.77015 0.20682 0.15035 0.0
N861 N 0.76005 0.17808 0.17232 0.0
C862 C 0.8234 0.25414 0.14734 0.0
H863 H 0.80401 0.27099 0.1292 0.0
H864 H 0.83463 0.27211 0.17062 0.0
H865 H 0.84783 0.24453 0.12998 0.0
C866 C 0.68452 0.32579 0.15664 0.0
N867 N 0.70148 0.30336 0.13082 0.0
N868 N 0.7257 0.28078 0.14736 0.0
C869 C 0.72695 0.29067 0.18467 0.0
C870 C 0.70177 0.32043 0.19111 0.0
C871 C 0.6448 0.33976 0.15241 0.0
H872 H 0.63671 0.34228 0.12216 0.0
H873 H 0.64096 0.36652 0.16836 0.0
H874 H 0.62539 0.31871 0.16549 0.0
O875 O 0.65144 0.2612 0.07851 0.0
O876 O 0.68755 0.21223 0.09807 0.0
H877 H 0.73834 0.23696 0.20999 0.0
H878 H 0.7311 0.27395 0.24325 0.0
C879 C 0.74397 0.26721 0.2154 0.0
H880 H 0.77491 0.27249 0.21655 0.0
H881 H 0.7343 0.1637 0.16998 0.0
O882 O 0.68315 0.35187 0.06485 0.0
C883 C 0.65614 0.22581 0.08483 0.0
Co884 Co 0.98752 0.44464 0.32691 0.0
Co885 Co 0.05171 0.491 0.36423 0.0
C886 C 0.02353 0.51022 0.28536 0.0
O887 O 1.00136 0.48224 0.28775 0.0
O888 O 0.04279 0.52063 0.31431 0.0
C889 C 0.91567 0.46552 0.32378 0.0
O890 O 0.93317 0.49503 0.33819 0.0
C891 C 0.06896 0.55598 0.4107 0.0
C892 C 0.11553 0.53736 0.44798 0.0
C893 C 0.08874 0.56572 0.44316 0.0
N894 N 0.08191 0.52248 0.39767 0.0
N895 N 0.11032 0.51178 0.41978 0.0
C896 C 0.03525 0.5763 0.39487 0.0
H897 H 1.01836 0.55731 0.37637 0.0
H898 H 1.0172 0.58743 0.41815 0.0
H899 H 0.04523 0.60085 0.37789 0.0
C900 C 0.96282 0.43737 0.40423 0.0
N901 N 0.98482 0.45476 0.37835 0.0
N902 N 1.00754 0.47885 0.39486 0.0
C903 C 0.99787 0.47981 0.43226 0.0
C904 C 0.96831 0.45441 0.43874 0.0
C905 C 0.95004 0.39727 0.40006 0.0
H906 H 0.9469 0.38935 0.36984 0.0
H907 H 0.92401 0.39238 0.41688 0.0
H908 H 0.97217 0.37847 0.41224 0.0
O909 O 0.02588 0.40699 0.32312 0.0
O910 O 0.07576 0.43993 0.34589 0.0
H911 H 0.05143 0.49076 0.45794 0.0
H912 H 1.01393 0.48478 0.49097 0.0
C913 C 0.02122 0.49698 0.46296 0.0
H914 H 1.01642 0.52801 0.46346 0.0
H915 H 0.12433 0.48583 0.41735 0.0
O916 O 0.93447 0.43613 0.31397 0.0
C917 C 0.06119 0.40989 0.33075 0.0
Co918 Co 0.84315 0.73544 0.57599 0.0
Co919 Co 0.79644 0.79967 0.61393 0.0
C920 C 0.77719 0.7715 0.53524 0.0
O921 O 0.80536 0.74954 0.53731 0.0
O922 O 0.76661 0.79039 0.56438 0.0
C923 C 0.82157 0.66346 0.5744 0.0
O924 O 0.79238 0.68138 0.58895 0.0
C925 C 0.73174 0.81779 0.66168 0.0
C926 C 0.74955 0.8675 0.69505 0.0
C927 C 0.72149 0.84012 0.69235 0.0
N928 N 0.76503 0.8302 0.64756 0.0
N929 N 0.77531 0.86036 0.66743 0.0
C930 C 0.71131 0.78333 0.64772 0.0
H931 H 0.72986 0.76609 0.62907 0.0
H932 H 0.70126 0.76597 0.67198 0.0
H933 H 0.68598 0.79244 0.63141 0.0
C934 C 0.85171 0.71132 0.65293 0.0
N935 N 0.83374 0.73316 0.62734 0.0
N936 N 0.80964 0.75568 0.64411 0.0
C937 C 0.80941 0.74613 0.68147 0.0
C938 C 0.83527 0.71691 0.68772 0.0
C939 C 0.89191 0.69892 0.64799 0.0
H940 H 0.89835 0.69252 0.61792 0.0
H941 H 0.89853 0.67491 0.66713 0.0
H942 H 0.91071 0.7227 0.65648 0.0
O943 O 0.88053 0.77407 0.57205 0.0
O944 O 0.84713 0.82372 0.59492 0.0
H945 H 0.7967 0.79937 0.70717 0.0
H946 H 0.80328 0.76154 0.74019 0.0
C947 C 0.79144 0.76888 0.71203 0.0
H948 H 0.76062 0.7632 0.7117 0.0
H949 H 0.80087 0.87477 0.66363 0.0
O950 O 0.85087 0.68195 0.56364 0.0
C951 C 0.87725 0.80938 0.57969 0.0
Co952 Co 0.55249 0.44693 0.71151 0.0
Co953 Co 0.48495 0.48898 0.6726 0.0
C954 C 0.51341 0.50967 0.75218 0.0
O955 O 0.53875 0.48463 0.74947 0.0
O956 O 0.49234 0.51759 0.72366 0.0
C957 C 0.6249 0.46639 0.7153 0.0
O958 O 0.60795 0.49653 0.70154 0.0
C959 C 0.4689 0.55423 0.62576 0.0
C960 C 0.42078 0.5373 0.58976 0.0
C961 C 0.44836 0.56497 0.5941 0.0
N962 N 0.45538 0.521 0.63894 0.0
N963 N 0.42614 0.51126 0.61752 0.0
C964 C 0.50357 0.57354 0.64073 0.0
H965 H 0.51776 0.55593 0.66258 0.0
H966 H 0.52356 0.57946 0.61714 0.0
H967 H 0.4953 0.60119 0.6533 0.0
C968 C 0.57958 0.44219 0.63525 0.0
N969 N 0.55533 0.45758 0.66027 0.0
N970 N 0.52934 0.47704 0.64244 0.0
C971 C 0.53809 0.47603 0.60478 0.0
C972 C 0.57084 0.45453 0.59949 0.0
C973 C 0.60503 0.40985 0.64428 0.0
H974 H 0.59257 0.39202 0.66703 0.0
H975 H 0.63191 0.42163 0.65455 0.0
H976 H 0.6105 0.39221 0.61879 0.0
O977 O 0.51307 0.40939 0.71565 0.0
O978 O 0.46185 0.43805 0.69005 0.0
H979 H 0.48345 0.4829 0.5795 0.0
H980 H 0.52139 0.47764 0.54597 0.0
C981 C 0.51334 0.49026 0.57363 0.0
H982 H 0.51643 0.52142 0.57183 0.0
H983 H 0.41139 0.48575 0.62023 0.0
O984 O 0.6054 0.43745 0.72507 0.0
C985 C 0.47782 0.4098 0.70698 0.0
Co986 Co 0.84279 0.29909 0.95937 0.0
Co987 Co 0.79585 0.23497 0.92247 0.0
C988 C 0.77744 0.26268 1.00144 0.0
O989 O 0.80581 0.28439 0.99902 0.0
O990 O 0.76632 0.24404 0.97234 0.0
C991 C 0.82157 0.37122 0.9629 0.0
O992 O 0.79188 0.35383 0.94871 0.0
C993 C 0.73067 0.21625 0.87645 0.0
C994 C 0.75036 0.17057 0.83861 0.0
C995 C 0.72119 0.19637 0.84393 0.0
N996 N 0.76466 0.20421 0.88909 0.0
N997 N 0.77599 0.17629 0.86667 0.0
C998 C 0.70965 0.24939 0.89258 0.0
H999 H 0.72869 0.26725 0.91009 0.0
H1000 H 0.69691 0.26667 0.86954 0.0
H1001 H 0.68624 0.23871 0.9107 0.0
C1002 C 0.84864 0.32419 0.88235 0.0
N1003 N 0.83165 0.30198 0.90827 0.0
N1004 N 0.80751 0.27921 0.89192 0.0
C1005 C 0.80611 0.28903 0.85458 0.0
C1006 C 0.83136 0.3187 0.84801 0.0
C1007 C 0.88864 0.33735 0.88619 0.0
H1008 H 0.89696 0.34005 0.91635 0.0
H1009 H 0.89295 0.36375 0.86977 0.0
H1010 H 0.90754 0.3157 0.87333 0.0
O1011 O 0.8813 0.26135 0.96167 0.0
O1012 O 0.84715 0.21147 0.94096 0.0
H1013 H 0.79556 0.23568 0.82834 0.0
H1014 H 0.7996 0.27388 0.79577 0.0
C1015 C 0.78849 0.26582 0.82402 0.0
H1016 H 0.75736 0.26982 0.8246 0.0
H1017 H 0.80238 0.16308 0.86873 0.0
O1018 O 0.85099 0.35229 0.9724 0.0
C1019 C 0.87789 0.22594 0.95479 0.0
Co1020 Co 0.98772 0.59801 0.20737 0.0
Co1021 Co 0.04991 0.54945 0.16993 0.0
C1022 C 0.02377 0.53209 0.24916 0.0
O1023 O 1.0034 0.56146 0.24721 0.0
O1024 O 0.04049 0.51974 0.21943 0.0
C1025 C 0.91729 0.57387 0.21393 0.0
O1026 O 0.9359 0.54498 0.19966 0.0
C1027 C 0.06609 0.48413 0.12285 0.0
C1028 C 0.11618 0.50001 0.08909 0.0
C1029 C 0.0878 0.47296 0.09211 0.0
N1030 N 0.07965 0.51712 0.1366 0.0
N1031 N 0.11002 0.52625 0.11649 0.0
C1032 C 0.0311 0.46488 0.13717 0.0
H1033 H 1.01464 0.48398 0.15597 0.0
H1034 H 1.01319 0.45543 0.11307 0.0
H1035 H 0.03949 0.43925 0.1534 0.0
C1036 C 0.96126 0.60423 0.13037 0.0
N1037 N 0.98354 0.58701 0.15618 0.0
N1038 N 1.00595 0.56265 0.13964 0.0
C1039 C 0.99613 0.56166 0.10234 0.0
C1040 C 0.96658 0.58704 0.09584 0.0
C1041 C 0.94767 0.64408 0.13472 0.0
H1042 H 0.94416 0.65174 0.16499 0.0
H1043 H 0.92154 0.64862 0.11793 0.0
H1044 H 0.96947 0.66339 0.12275 0.0
O1045 O 0.02584 0.63632 0.20878 0.0
O1046 O 0.07461 0.59996 0.18904 0.0
H1047 H 0.04966 0.54825 0.07747 0.0
H1048 H 1.01309 0.55724 0.04391 0.0
C1049 C 0.0192 0.54405 0.07177 0.0
H1050 H 1.01246 0.51343 0.07065 0.0
H1051 H 0.12528 0.55136 0.11999 0.0
O1052 O 0.93474 0.60465 0.22193 0.0
C1053 C 0.0612 0.63141 0.20237 0.0
Co1054 Co 0.68891 0.7362 0.45812 0.0
Co1055 Co 0.7374 0.7984 0.42031 0.0
C1056 C 0.75522 0.77179 0.49922 0.0
O1057 O 0.72591 0.75139 0.49742 0.0
O1058 O 0.76733 0.78872 0.46952 0.0
C1059 C 0.71299 0.66578 0.46392 0.0
O1060 O 0.7417 0.68448 0.44938 0.0
C1061 C 0.80245 0.81463 0.37285 0.0
C1062 C 0.78663 0.86524 0.33983 0.0
C1063 C 0.81361 0.83675 0.3424 0.0
N1064 N 0.76954 0.82812 0.38686 0.0
N1065 N 0.76043 0.85877 0.36719 0.0
C1066 C 0.82179 0.77957 0.38689 0.0
H1067 H 0.80263 0.7628 0.40535 0.0
H1068 H 0.83154 0.762 0.36266 0.0
H1069 H 0.84724 0.78791 0.40342 0.0
C1070 C 0.68183 0.70998 0.38116 0.0
N1071 N 0.69918 0.73232 0.4068 0.0
N1072 N 0.72359 0.75457 0.39012 0.0
C1073 C 0.72442 0.7446 0.35287 0.0
C1074 C 0.69889 0.71515 0.34654 0.0
C1075 C 0.64202 0.69636 0.38581 0.0
H1076 H 0.6348 0.69216 0.4161 0.0
H1077 H 0.63715 0.6706 0.36852 0.0
H1078 H 0.62259 0.71848 0.37466 0.0
O1079 O 0.65132 0.77487 0.4606 0.0
O1080 O 0.68736 0.82349 0.4398 0.0
H1081 H 0.73853 0.7978 0.32768 0.0
H1082 H 0.7295 0.76094 0.29433 0.0
C1083 C 0.74246 0.76724 0.32226 0.0
H1084 H 0.773 0.76019 0.32156 0.0
H1085 H 0.73541 0.8741 0.37102 0.0
O1086 O 0.6823 0.68316 0.47244 0.0
C1087 C 0.65625 0.81019 0.45397 0.0
Co1088 Co 0.82871 0.55124 0.59596 0.0
Co1089 Co 0.86751 0.48577 0.55099 0.0
C1090 C 0.7877 0.51284 0.53234 0.0
O1091 O 0.78995 0.53608 0.55936 0.0
O1092 O 0.81701 0.49403 0.52201 0.0
C1093 C 0.82149 0.62243 0.57415 0.0
O1094 O 0.83505 0.6047 0.54437 0.0
C1095 C 0.91534 0.47102 0.48573 0.0
C1096 C 0.94697 0.41895 0.49929 0.0
C1097 C 0.945 0.44847 0.47336 0.0
N1098 N 0.90111 0.45667 0.5182 0.0
N1099 N 0.92005 0.42521 0.52601 0.0
C1100 C 0.90199 0.507 0.46764 0.0
H1101 H 0.88067 0.52148 0.48568 0.0
H1102 H 0.92643 0.52613 0.46245 0.0
H1103 H 0.8892 0.50031 0.43967 0.0
C1104 C 0.90443 0.58014 0.59905 0.0
N1105 N 0.87957 0.55548 0.58403 0.0
N1106 N 0.89747 0.52986 0.56417 0.0
C1107 C 0.935 0.53894 0.56496 0.0
C1108 C 0.94021 0.57174 0.58637 0.0
C1109 C 0.8952 0.60586 0.63111 0.0
H1110 H 0.87495 0.59188 0.65075 0.0
H1111 H 0.88125 0.63103 0.61932 0.0
H1112 H 0.92108 0.61449 0.6468 0.0
O1113 O 0.8269 0.51209 0.63405 0.0
O1114 O 0.84892 0.46176 0.60122 0.0
H1115 H 0.95987 0.48445 0.55508 0.0
H1116 H 0.99364 0.52183 0.56338 0.0
C1117 C 0.9661 0.51475 0.54992 0.0
H1118 H 0.96824 0.52004 0.51913 0.0
H1119 H 0.91586 0.40895 0.55038 0.0
O1120 O 0.81364 0.60391 0.60433 0.0
C1121 C 0.83404 0.47659 0.63123 0.0
Co1122 Co 0.73542 0.57593 0.84312 0.0
Co1123 Co 0.79967 0.61389 0.79643 0.0
C1124 C 0.7715 0.53521 0.77715 0.0
O1125 O 0.74954 0.53727 0.80532 0.0
O1126 O 0.79038 0.56435 0.76658 0.0
C1127 C 0.66344 0.57439 0.82152 0.0
O1128 O 0.68137 0.58895 0.79234 0.0
C1129 C 0.81785 0.66169 0.73176 0.0
C1130 C 0.86761 0.69496 0.74963 0.0
C1131 C 0.84024 0.69233 0.72154 0.0
N1132 N 0.83023 0.64753 0.76506 0.0
N1133 N 0.86041 0.66734 0.77536 0.0
C1134 C 0.78339 0.64779 0.71129 0.0
H1135 H 0.76613 0.62912 0.72981 0.0
H1136 H 0.76605 0.67208 0.70128 0.0
H1137 H 0.7925 0.63152 0.68594 0.0
C1138 C 0.71132 0.65287 0.85172 0.0
N1139 N 0.73316 0.62729 0.83373 0.0
N1140 N 0.75568 0.64407 0.80965 0.0
C1141 C 0.74615 0.68144 0.80945 0.0
C1142 C 0.71693 0.68767 0.83532 0.0
C1143 C 0.69891 0.64788 0.89192 0.0
H1144 H 0.69239 0.61783 0.89829 0.0
H1145 H 0.67497 0.6671 0.89858 0.0
H1146 H 0.72272 0.65625 0.91073 0.0
O1147 O 0.77406 0.57195 0.8805 0.0
O1148 O 0.8237 0.59485 0.84711 0.0
H1149 H 0.7994 0.70712 0.79678 0.0
H1150 H 0.76158 0.74016 0.80336 0.0
C1151 C 0.76892 0.71199 0.79151 0.0
H1152 H 0.76325 0.71169 0.76068 0.0
H1153 H 0.8748 0.66349 0.80093 0.0
O1154 O 0.68193 0.5636 0.85081 0.0
C1155 C 0.80937 0.57957 0.87722 0.0
Co1156 Co 0.71229 0.4833 0.08904 0.0
Co1157 Co 0.67336 0.55302 0.05015 0.0
C1158 C 0.75254 0.52409 0.02762 0.0
O1159 O 0.74915 0.49697 0.05062 0.0
O1160 O 0.72474 0.54674 0.02171 0.0
C1161 C 0.71567 0.41049 0.06964 0.0
O1162 O 0.70087 0.42708 0.03978 0.0
C1163 C 0.62687 0.571 0.98499 0.0
C1164 C 0.59074 0.61859 1.00315 0.0
C1165 C 0.59537 0.59199 0.97457 0.0
N1166 N 0.63979 0.58345 0.01875 0.0
N1167 N 0.6183 0.61241 0.02922 0.0
C1168 C 0.64174 0.53673 0.96492 0.0
H1169 H 0.66389 0.52235 0.98199 0.0
H1170 H 0.61815 0.51673 0.95905 0.0
H1171 H 0.65385 0.54547 0.9372 0.0
C1172 C 0.6359 0.45687 0.09395 0.0
N1173 N 0.66099 0.4813 0.07902 0.0
N1174 N 0.64316 0.50829 0.06095 0.0
C1175 C 0.6054 0.50005 0.06239 0.0
C1176 C 0.60009 0.46663 0.08281 0.0
C1177 C 0.64494 0.42967 0.12477 0.0
H1178 H 0.66933 0.43978 0.14186 0.0
H1179 H 0.65224 0.4026 0.11128 0.0
H1180 H 0.62007 0.42528 0.14357 0.0
O1181 O 0.7176 0.52226 0.127 0.0
O1182 O 0.6905 0.57447 0.10171 0.0
H1183 H 0.58017 0.55496 0.05801 0.0
H1184 H 0.54654 0.5167 0.06079 0.0
C1185 C 0.57439 0.52547 0.04907 0.0
H1186 H 0.57308 0.52407 1.01778 0.0
H1187 H 0.62078 0.62633 0.05521 0.0
O1188 O 0.72599 0.4303 0.09814 0.0
C1189 C 0.70848 0.55736 0.12859 0.0
Co1190 Co 0.80306 0.45922 0.3437 0.0
Co1191 Co 0.73406 0.42044 0.30363 0.0
C1192 C 0.76293 0.49965 0.28181 0.0
O1193 O 0.78925 0.49643 0.30569 0.0
O1194 O 0.74098 0.47155 0.27493 0.0
C1195 C 0.87469 0.46532 0.32282 0.0
O1196 O 0.8575 0.45057 0.29329 0.0
C1197 C 0.71894 0.37277 0.23855 0.0
C1198 C 0.6662 0.34205 0.25152 0.0
C1199 C 0.69593 0.34364 0.2258 0.0
N1200 N 0.7046 0.38707 0.27099 0.0
N1201 N 0.67275 0.36867 0.27847 0.0
C1202 C 0.75529 0.38554 0.2208 0.0
H1203 H 0.76888 0.40817 0.2379 0.0
H1204 H 0.77491 0.36109 0.21795 0.0
H1205 H 0.74944 0.39631 0.1918 0.0
C1206 C 0.83073 0.38275 0.34728 0.0
N1207 N 0.80582 0.40791 0.33317 0.0
N1208 N 0.7784 0.39007 0.31578 0.0
C1209 C 0.78642 0.35229 0.31746 0.0
C1210 C 0.82049 0.34686 0.3367 0.0
C1211 C 0.85976 0.39195 0.37624 0.0
H1212 H 0.85026 0.4158 0.39442 0.0
H1213 H 0.88554 0.40023 0.36087 0.0
H1214 H 0.86617 0.36693 0.39424 0.0
O1215 O 0.76363 0.46407 0.38141 0.0
O1216 O 0.71153 0.43831 0.35449 0.0
H1217 H 0.73089 0.32865 0.31068 0.0
H1218 H 0.76795 0.29403 0.31809 0.0
C1219 C 0.76079 0.32146 0.30441 0.0
H1220 H 0.76464 0.3185 0.27352 0.0
H1221 H 0.65635 0.37307 0.3027 0.0
O1222 O 0.85568 0.47408 0.35238 0.0
C1223 C 0.72829 0.4557 0.38199 0.0
Co1224 Co 0.82838 0.48405 0.94255 0.0
Co1225 Co 0.86685 0.55301 0.98329 0.0
C1226 C 0.78752 0.52456 1.00429 0.0
O1227 O 0.79065 0.49871 0.97987 0.0
O1228 O 0.81585 0.54594 1.01197 0.0
C1229 C 0.82193 0.41223 0.96388 0.0
O1230 O 0.83658 0.42936 0.99349 0.0
C1231 C 0.91421 0.56919 0.04858 0.0
C1232 C 0.94491 0.62178 0.03494 0.0
C1233 C 0.94315 0.59253 0.0612 0.0
N1234 N 0.9001 0.58294 1.01579 0.0
N1235 N 0.91848 0.61471 1.00793 0.0
C1236 C 0.9015 0.53303 0.06676 0.0
H1237 H 0.87931 0.5189 0.04952 0.0
H1238 H 0.92608 0.51371 0.07042 0.0
H1239 H 0.89015 0.5393 0.09545 0.0
C1240 C 0.90461 0.45641 0.93987 0.0
N1241 N 0.8794 0.48126 0.95392 0.0
N1242 N 0.89716 0.50869 0.97141 0.0
C1243 C 0.93494 0.50073 0.96983 0.0
C1244 C 0.94043 0.46674 0.95046 0.0
C1245 C 0.89555 0.42725 0.911 0.0
H1246 H 0.87166 0.43655 0.89278 0.0
H1247 H 0.8875 0.40146 0.92648 0.0
H1248 H 0.9206 0.42089 0.893 0.0
O1249 O 0.82482 0.52285 0.90403 0.0
O1250 O 0.84886 0.57507 0.93223 0.0
H1251 H 0.9588 0.5562 0.97612 0.0
H1252 H 0.99336 0.51878 0.97017 0.0
C1253 C 0.96569 0.52637 0.98309 0.0
H1254 H 0.96792 0.52317 1.01411 0.0
H1255 H 0.91422 0.63069 0.98339 0.0
O1256 O 0.81344 0.43128 0.93426 0.0
C1257 C 0.83272 0.55831 0.90397 0.0
Co1258 Co 0.80377 0.57461 0.19669 0.0
Co1259 Co 0.73413 0.61371 0.23588 0.0
C1260 C 0.7632 0.53453 0.25833 0.0
O1261 O 0.79021 0.53785 0.23519 0.0
O1262 O 0.74069 0.56241 0.2644 0.0
C1263 C 0.87639 0.57167 0.21653 0.0
O1264 O 0.85944 0.58634 0.24624 0.0
C1265 C 0.71698 0.66162 0.30065 0.0
C1266 C 0.66521 0.69293 0.28531 0.0
C1267 C 0.69376 0.6911 0.31229 0.0
N1268 N 0.70382 0.64727 0.26773 0.0
N1269 N 0.67251 0.66599 0.25887 0.0
C1270 C 0.75262 0.64877 0.31974 0.0
H1271 H 0.76701 0.62642 0.30291 0.0
H1272 H 0.77199 0.67324 0.32378 0.0
H1273 H 0.74558 0.63756 0.3483 0.0
C1274 C 0.8301 0.65094 0.19115 0.0
N1275 N 0.80573 0.62593 0.20635 0.0
N1276 N 0.77873 0.64383 0.22432 0.0
C1277 C 0.78683 0.68157 0.2224 0.0
C1278 C 0.82027 0.68684 0.20199 0.0
C1279 C 0.85693 0.64167 0.16005 0.0
H1280 H 0.84622 0.61758 0.14288 0.0
H1281 H 0.88395 0.63361 0.17317 0.0
H1282 H 0.86161 0.6666 0.1414 0.0
O1283 O 0.76459 0.56919 0.15896 0.0
O1284 O 0.71242 0.59626 0.1845 0.0
H1285 H 0.73165 0.70599 0.22874 0.0
H1286 H 0.76938 0.74017 0.22315 0.0
C1287 C 0.76151 0.71249 0.23587 0.0
H1288 H 0.76462 0.71441 0.26693 0.0
H1289 H 0.65712 0.6617 0.23397 0.0
O1290 O 0.85688 0.56114 0.18787 0.0
C1291 C 0.72945 0.57827 0.15756 0.0
Co1292 Co 0.71154 0.55249 0.44694 0.0
Co1293 Co 0.67265 0.48495 0.48901 0.0
C1294 C 0.75223 0.5134 0.50967 0.0
O1295 O 0.74951 0.53874 0.48463 0.0
O1296 O 0.72371 0.49233 0.51761 0.0
C1297 C 0.71534 0.62489 0.46642 0.0
O1298 O 0.70159 0.60793 0.49657 0.0
C1299 C 0.62581 0.46888 0.55427 0.0
C1300 C 0.58983 0.42074 0.53734 0.0
C1301 C 0.59416 0.44832 0.56501 0.0
N1302 N 0.63899 0.45537 0.52103 0.0
N1303 N 0.61758 0.42611 0.51129 0.0
C1304 C 0.64076 0.50356 0.57357 0.0
H1305 H 0.66263 0.51774 0.55597 0.0
H1306 H 0.61716 0.52355 0.57946 0.0
H1307 H 0.65331 0.49531 0.60123 0.0
C1308 C 0.63529 0.57958 0.44224 0.0
N1309 N 0.6603 0.55532 0.45762 0.0
N1310 N 0.64248 0.52934 0.47708 0.0
C1311 C 0.60482 0.53809 0.47608 0.0
C1312 C 0.59953 0.57086 0.45462 0.0
C1313 C 0.6443 0.60502 0.40989 0.0
H1314 H 0.66702 0.59254 0.39204 0.0
H1315 H 0.6546 0.6319 0.42164 0.0
H1316 H 0.6188 0.6105 0.39227 0.0
O1317 O 0.71566 0.51308 0.4094 0.0
O1318 O 0.69008 0.46185 0.43807 0.0
H1319 H 0.57956 0.48344 0.48294 0.0
H1320 H 0.54602 0.52136 0.47765 0.0
C1321 C 0.57368 0.51333 0.49029 0.0
H1322 H 0.57186 0.51642 0.52145 0.0
H1323 H 0.6203 0.41136 0.48578 0.0
O1324 O 0.72509 0.6054 0.43747 0.0
C1325 C 0.707 0.47782 0.40982 0.0
Co1326 Co 0.73622 0.45805 0.6889 0.0
Co1327 Co 0.7984 0.42026 0.73742 0.0
C1328 C 0.7718 0.49918 0.75519 0.0
O1329 O 0.75142 0.49738 0.72586 0.0
O1330 O 0.78871 0.46948 0.76733 0.0
C1331 C 0.66579 0.46388 0.71297 0.0
O1332 O 0.68448 0.44936 0.74169 0.0
C1333 C 0.81467 0.3728 0.8025 0.0
C1334 C 0.86531 0.33983 0.78667 0.0
C1335 C 0.83683 0.34238 0.81367 0.0
N1336 N 0.82814 0.38683 0.76959 0.0
N1337 N 0.8588 0.36717 0.76047 0.0
C1338 C 0.77961 0.38681 0.82185 0.0
H1339 H 0.76283 0.40528 0.80271 0.0
H1340 H 0.76204 0.36256 0.83158 0.0
H1341 H 0.78794 0.40332 0.84731 0.0
C1342 C 0.70998 0.3811 0.68187 0.0
N1343 N 0.73232 0.40675 0.69921 0.0
N1344 N 0.75457 0.39007 0.72362 0.0
C1345 C 0.74461 0.35282 0.72446 0.0
C1346 C 0.71515 0.34649 0.69893 0.0
C1347 C 0.69636 0.38574 0.64205 0.0
H1348 H 0.69218 0.41603 0.63482 0.0
H1349 H 0.67059 0.36846 0.6372 0.0
H1350 H 0.71847 0.37456 0.62263 0.0
O1351 O 0.77486 0.46047 0.65129 0.0
O1352 O 0.8235 0.43974 0.68738 0.0
H1353 H 0.79782 0.32765 0.73858 0.0
H1354 H 0.76097 0.29429 0.72954 0.0
C1355 C 0.76725 0.32222 0.7425 0.0
H1356 H 0.7602 0.32152 0.77305 0.0
H1357 H 0.87412 0.37102 0.73544 0.0
O1358 O 0.68318 0.47238 0.68228 0.0
C1359 C 0.81018 0.45383 0.65624 0.0
Co1360 Co 0.59587 0.82867 0.55131 0.0
Co1361 Co 0.55097 0.86748 0.48577 0.0
C1362 C 0.53231 0.78766 0.51283 0.0
O1363 O 0.55929 0.78991 0.53612 0.0
O1364 O 0.52201 0.81696 0.49399 0.0
C1365 C 0.57406 0.82143 0.62251 0.0
O1366 O 0.54427 0.83499 0.60477 0.0
C1367 C 0.48573 0.91531 0.471 0.0
C1368 C 0.49935 0.94701 0.41898 0.0
C1369 C 0.47339 0.94502 0.44848 0.0
N1370 N 0.51821 0.90109 0.45666 0.0
N1371 N 0.52605 0.92007 0.42523 0.0
C1372 C 0.46761 0.90194 0.50695 0.0
H1373 H 0.48562 0.88058 0.52141 0.0
H1374 H 0.46244 0.92637 0.52612 0.0
H1375 H 0.43962 0.88919 0.50024 0.0
C1376 C 0.59889 0.90438 0.58023 0.0
N1377 N 0.58391 0.87952 0.55554 0.0
N1378 N 0.5641 0.89743 0.52989 0.0
C1379 C 0.56488 0.93496 0.53897 0.0
C1380 C 0.5862 0.94016 0.57183 0.0
C1381 C 0.6309 0.89515 0.606 0.0
H1382 H 0.65051 0.87482 0.59212 0.0
H1383 H 0.61904 0.88131 0.6312 0.0
H1384 H 0.64663 0.92102 0.61458 0.0
O1385 O 0.63399 0.82689 0.51219 0.0
O1386 O 0.60123 0.84891 0.4618 0.0
H1387 H 0.55511 0.95984 0.48447 0.0
H1388 H 0.56334 0.9936 0.52188 0.0
C1389 C 0.54989 0.96607 0.51476 0.0
H1390 H 0.5191 0.96821 0.51999 0.0
H1391 H 0.55043 0.91589 0.40899 0.0
O1392 O 0.60423 0.81359 0.60398 0.0
C1393 C 0.63122 0.83406 0.47669 0.0
Co1394 Co 0.08898 0.71231 0.48324 0.0
Co1395 Co 0.05015 0.67338 0.55301 0.0
C1396 C 0.02761 0.75257 0.5241 0.0
O1397 O 0.05057 0.74918 0.49694 0.0
O1398 O 0.02171 0.72477 0.54675 0.0
C1399 C 0.06956 0.71568 0.41043 0.0
O1400 O 0.03971 0.70088 0.42702 0.0
C1401 C 0.98501 0.62688 0.57101 0.0
C1402 C 1.00322 0.5907 0.61854 0.0
C1403 C 0.97463 0.59534 0.59196 0.0
N1404 N 0.01877 0.6398 0.58345 0.0
N1405 N 0.02927 0.61828 0.61238 0.0
C1406 C 0.96491 0.64176 0.53676 0.0
H1407 H 0.98196 0.66394 0.52239 0.0
H1408 H 0.95906 0.61818 0.51673 0.0
H1409 H 0.93719 0.65384 0.54552 0.0
C1410 C 0.09384 0.63592 0.4568 0.0
N1411 N 0.07895 0.66101 0.48125 0.0
N1412 N 0.06091 0.64318 0.50827 0.0
C1413 C 0.06234 0.60542 0.50002 0.0
C1414 C 0.08268 0.60012 0.46655 0.0
C1415 C 0.12464 0.64494 0.42958 0.0
H1416 H 0.14173 0.66935 0.43964 0.0
H1417 H 0.11113 0.65219 0.4025 0.0
H1418 H 0.14346 0.62007 0.42521 0.0
O1419 O 0.12698 0.7176 0.52218 0.0
O1420 O 0.10172 0.69051 0.57442 0.0
H1421 H 0.05805 0.58019 0.55494 0.0
H1422 H 0.06079 0.54656 0.51667 0.0
C1423 C 0.04907 0.5744 0.52546 0.0
H1424 H 1.01778 0.57307 0.5241 0.0
H1425 H 0.05527 0.62076 0.62628 0.0
O1426 O 0.09806 0.72601 0.43024 0.0
C1427 C 0.12859 0.70847 0.55727 0.0
Co1428 Co 0.57595 0.84311 0.73551 0.0
Co1429 Co 0.61389 0.79638 0.79975 0.0
C1430 C 0.5352 0.77716 0.77159 0.0
O1431 O 0.53727 0.80534 0.74965 0.0
O1432 O 0.56434 0.76655 0.79046 0.0
C1433 C 0.57431 0.82151 0.66353 0.0
O1434 O 0.58885 0.79231 0.68145 0.0
C1435 C 0.66167 0.7317 0.81795 0.0
C1436 C 0.69502 0.7496 0.86764 0.0
C1437 C 0.69234 0.72149 0.8403 0.0
N1438 N 0.64753 0.765 0.83031 0.0
N1439 N 0.66738 0.77533 0.86046 0.0
C1440 C 0.64773 0.71121 0.78352 0.0
H1441 H 0.62907 0.72972 0.76624 0.0
H1442 H 0.672 0.70115 0.76617 0.0
H1443 H 0.63144 0.68588 0.79265 0.0
C1444 C 0.65288 0.85159 0.71135 0.0
N1445 N 0.62729 0.83365 0.73322 0.0
N1446 N 0.64406 0.80955 0.75574 0.0
C1447 C 0.68141 0.80927 0.74615 0.0
C1448 C 0.68764 0.83507 0.71688 0.0
C1449 C 0.64799 0.8918 0.69899 0.0
H1450 H 0.61791 0.89832 0.6927 0.0
H1451 H 0.66707 0.89839 0.67493 0.0
H1452 H 0.6566 0.91057 0.72275 0.0
O1453 O 0.57205 0.88051 0.77412 0.0
O1454 O 0.59488 0.84709 0.82377 0.0
H1455 H 0.70712 0.79662 0.79941 0.0
H1456 H 0.74013 0.80319 0.76157 0.0
C1457 C 0.71198 0.79134 0.76892 0.0
H1458 H 0.71167 0.76051 0.76327 0.0
H1459 H 0.66357 0.80091 0.87482 0.0
O1460 O 0.56359 0.85082 0.68203 0.0
C1461 C 0.57967 0.87722 0.80943 0.0
Co1462 Co 0.44463 0.32694 0.98754 0.0
Co1463 Co 0.49101 0.36426 0.05174 0.0
C1464 C 0.5102 0.28539 0.02358 0.0
O1465 O 0.48221 0.28778 1.00141 0.0
O1466 O 0.52063 0.31434 0.04282 0.0
C1467 C 0.4655 0.3238 0.91568 0.0
O1468 O 0.49502 0.3382 0.93317 0.0
C1469 C 0.55598 0.41074 0.06904 0.0
C1470 C 0.53732 0.44802 0.11559 0.0
C1471 C 0.56571 0.44321 0.08883 0.0
N1472 N 0.52248 0.39771 0.08196 0.0
N1473 N 0.51175 0.41981 0.11035 0.0
C1474 C 0.57635 0.39492 0.03535 0.0
H1475 H 0.55737 0.37642 1.01844 0.0
H1476 H 0.58749 0.4182 1.01731 0.0
H1477 H 0.60088 0.37794 0.04535 0.0
C1478 C 0.43743 0.40426 0.96281 0.0
N1479 N 0.45478 0.37838 0.98484 0.0
N1480 N 0.47887 0.39488 1.00756 0.0
C1481 C 0.47987 0.43228 0.99786 0.0
C1482 C 0.45452 0.43875 0.96827 0.0
C1483 C 0.39734 0.40012 0.95001 0.0
H1484 H 0.38938 0.3699 0.94691 0.0
H1485 H 0.39249 0.4169 0.92394 0.0
H1486 H 0.37853 0.41236 0.9721 0.0
O1487 O 0.40696 0.32319 0.0259 0.0
O1488 O 0.43994 0.34592 0.07578 0.0
H1489 H 0.4908 0.45797 0.05142 0.0
H1490 H 0.48486 0.49099 1.0139 0.0
C1491 C 0.49704 0.46297 0.02121 0.0
H1492 H 0.52807 0.46346 1.01642 0.0
H1493 H 0.48578 0.41739 0.12433 0.0
O1494 O 0.43612 0.314 0.9345 0.0
C1495 C 0.40987 0.3308 0.06121 0.0
Co1496 Co 0.45804 0.68894 0.73623 0.0
Co1497 Co 0.42024 0.73743 0.79844 0.0
C1498 C 0.49916 0.7552 0.77187 0.0
O1499 O 0.49736 0.7259 0.75146 0.0
O1500 O 0.46947 0.76734 0.78879 0.0
C1501 C 0.46388 0.71299 0.66578 0.0
O1502 O 0.44936 0.74172 0.68446 0.0
C1503 C 0.37278 0.80249 0.81473 0.0
C1504 C 0.33971 0.78658 0.86528 0.0
C1505 C 0.34231 0.81361 0.83684 0.0
N1506 N 0.38679 0.76956 0.82818 0.0
N1507 N 0.36708 0.76039 0.85879 0.0
C1508 C 0.38683 0.82188 0.7797 0.0
H1509 H 0.40531 0.80275 0.76292 0.0
H1510 H 0.36262 0.83165 0.76213 0.0
H1511 H 0.40336 0.84732 0.78809 0.0
C1512 C 0.3811 0.68196 0.70996 0.0
N1513 N 0.40675 0.69927 0.73233 0.0
N1514 N 0.39007 0.72367 0.75458 0.0
C1515 C 0.35282 0.72455 0.74459 0.0
C1516 C 0.34651 0.69907 0.71508 0.0
C1517 C 0.38571 0.64214 0.69634 0.0
H1518 H 0.41599 0.63485 0.69223 0.0
H1519 H 0.36847 0.63731 0.67054 0.0
H1520 H 0.37445 0.62273 0.71843 0.0
O1521 O 0.46044 0.65131 0.77485 0.0
O1522 O 0.43972 0.68737 0.8235 0.0
H1523 H 0.32761 0.73859 0.79779 0.0
H1524 H 0.29428 0.72962 0.7609 0.0
C1525 C 0.32221 0.74257 0.76722 0.0
H1526 H 0.32152 0.77312 0.76022 0.0
H1527 H 0.3709 0.73534 0.87408 0.0
O1528 O 0.47238 0.68231 0.68319 0.0
C1529 C 0.45381 0.65624 0.81017 0.0
Co1530 Co 0.94055 0.20822 0.05031 0.0
Co1531 Co 0.98588 0.17057 0.9851 0.0
C1532 C 1.00482 0.24983 1.01185 0.0
O1533 O 0.97753 0.24731 0.03486 0.0
O1534 O 1.01516 0.22075 0.99279 0.0
C1535 C 0.96399 0.21403 0.12154 0.0
O1536 O 0.99295 0.19898 0.10365 0.0
C1537 C 0.05125 0.12413 0.96724 0.0
C1538 C 0.03403 0.08932 0.91833 0.0
C1539 C 0.06209 0.0932 0.9456 0.0
N1540 N 1.01762 0.13725 0.95464 0.0
N1541 N 1.0077 0.11654 0.92493 0.0
C1542 C 0.07133 0.13897 1.00154 0.0
H1543 H 0.05272 0.15822 1.01803 0.0
H1544 H 0.08094 0.11511 0.01971 0.0
H1545 H 0.09694 0.15477 0.99232 0.0
C1546 C 0.935 0.13136 0.07638 0.0
N1547 N 0.95157 0.15713 0.05363 0.0
N1548 N 0.97444 0.14043 0.02977 0.0
C1549 C 0.97523 0.10299 0.03913 0.0
C1550 C 0.95118 0.09666 0.06982 0.0
C1551 C 0.89577 0.13587 0.09148 0.0
H1552 H 0.88765 0.16614 0.09345 0.0
H1553 H 0.89293 0.12048 0.11869 0.0
H1554 H 0.8757 0.12219 0.07144 0.0
O1555 O 0.90163 0.21047 1.01269 0.0
O1556 O 0.93438 0.1888 0.96219 0.0
H1557 H 0.98554 0.07765 0.98516 0.0
H1558 H 0.98025 0.04432 0.02293 0.0
C1559 C 0.99198 0.07247 1.01535 0.0
H1560 H 0.023 0.07239 0.01984 0.0
H1561 H 0.982 0.11944 0.91056 0.0
O1562 O 0.9338 0.2226 0.10338 0.0
C1563 C 0.90415 0.20311 0.97726 0.0
Co1564 Co 0.57459 0.19671 0.80383 0.0
Co1565 Co 0.61369 0.23586 0.73415 0.0
C1566 C 0.53451 0.25833 0.76322 0.0
O1567 O 0.53783 0.23521 0.79024 0.0
O1568 O 0.56239 0.26437 0.7407 0.0
C1569 C 0.57164 0.21656 0.87644 0.0
O1570 O 0.58631 0.24628 0.85949 0.0
C1571 C 0.6616 0.30062 0.717 0.0
C1572 C 0.69296 0.28524 0.66527 0.0
C1573 C 0.69111 0.31223 0.69381 0.0
N1574 N 0.64725 0.2677 0.70384 0.0
N1575 N 0.66601 0.25882 0.67256 0.0
C1576 C 0.64873 0.31973 0.75262 0.0
H1577 H 0.62636 0.30291 0.767 0.0
H1578 H 0.67319 0.32377 0.77201 0.0
H1579 H 0.63753 0.34829 0.74555 0.0
C1580 C 0.65091 0.19122 0.83018 0.0
N1581 N 0.6259 0.20638 0.80578 0.0
N1582 N 0.64381 0.22433 0.77877 0.0
C1583 C 0.68154 0.22243 0.78688 0.0
C1584 C 0.68681 0.2021 0.82037 0.0
C1585 C 0.64166 0.16013 0.85703 0.0
H1586 H 0.61756 0.14296 0.84635 0.0
H1587 H 0.63364 0.17327 0.88406 0.0
H1588 H 0.66659 0.14147 0.86169 0.0
O1589 O 0.56917 0.15897 0.76465 0.0
O1590 O 0.59625 0.18447 0.71247 0.0
H1591 H 0.70597 0.22871 0.7317 0.0
H1592 H 0.74015 0.22316 0.76945 0.0
C1593 C 0.71247 0.23588 0.76156 0.0
H1594 H 0.71439 0.26694 0.76463 0.0
H1595 H 0.66173 0.2339 0.65719 0.0
O1596 O 0.56112 0.1879 0.85694 0.0
C1597 C 0.57824 0.15754 0.72951 0.0
Co1598 Co 0.9593 0.84277 0.29912 0.0
Co1599 Co 0.92241 0.79584 0.23496 0.0
C1600 C 1.00138 0.77744 0.26267 0.0
O1601 O 0.99896 0.80581 0.28439 0.0
O1602 O 0.97228 0.76632 0.24404 0.0
C1603 C 0.96283 0.82155 0.37127 0.0
O1604 O 0.94863 0.79186 0.35391 0.0
C1605 C 0.87637 0.73067 0.2162 0.0
C1606 C 0.83855 0.7504 0.17052 0.0
C1607 C 0.84385 0.72122 0.19631 0.0
N1608 N 0.88903 0.76467 0.20418 0.0
N1609 N 0.86662 0.77602 0.17627 0.0
C1610 C 0.89249 0.70962 0.24933 0.0
H1611 H 0.91002 0.72864 0.2672 0.0
H1612 H 0.86944 0.6969 0.26661 0.0
H1613 H 0.91059 0.6862 0.23864 0.0
C1614 C 0.88229 0.84856 0.32424 0.0
N1615 N 0.90822 0.8316 0.30201 0.0
N1616 N 0.89186 0.80747 0.27921 0.0
C1617 C 0.85453 0.80606 0.28904 0.0
C1618 C 0.84797 0.83126 0.31875 0.0
C1619 C 0.88611 0.88855 0.33744 0.0
H1620 H 0.91627 0.8969 0.34009 0.0
H1621 H 0.86973 0.89281 0.36386 0.0
H1622 H 0.87319 0.90745 0.31583 0.0
O1623 O 0.96158 0.88131 0.26141 0.0
O1624 O 0.94092 0.84716 0.2115 0.0
H1625 H 0.82829 0.79554 0.23568 0.0
H1626 H 0.79572 0.79956 0.27389 0.0
C1627 C 0.82397 0.78846 0.26582 0.0
H1628 H 0.82455 0.75732 0.2698 0.0
H1629 H 0.8687 0.80242 0.16307 0.0
O1630 O 0.97233 0.85096 0.35232 0.0
C1631 C 0.95469 0.8779 0.226 0.0
loop_
_geom_bond_atom_site_label_1
_geom_bond_atom_site_label_2
_geom_bond_distance
_geom_bond_site_symmetry_2
_ccdc_geom_bond_type
Co0 O3 1.970 . S
Co0 N17 1.989 . S
Co0 O25 1.967 1_455 S
Co0 O32 1.920 . S
Co1 O4 1.966 . S
Co1 N10 2.022 . S
Co1 N18 1.993 1_655 S
Co1 O26 1.941 . S
C2 O3 1.258 1_655 S
C2 O4 1.263 . S
O3 Co0 1.970 . S
O3 C2 1.258 1_455 S
O4 Co1 1.966 . S
O4 C2 1.263 . S
C5 O6 1.235 . S
C5 O32 1.289 . S
O6 C5 1.235 . S
C7 C9 1.400 . S
C7 N10 1.351 1_565 S
C7 C12 1.501 . S
C8 C9 1.387 . S
C8 N11 1.341 1_565 S
C9 C7 1.400 . S
C9 C8 1.387 . S
N10 Co1 2.022 . S
N10 C7 1.351 1_545 S
N10 N11 1.365 . S
N11 C8 1.341 1_545 S
N11 N10 1.365 . S
N11 H31 0.862 . S
C12 C7 1.501 . S
C12 H13 0.961 . S
C12 H14 0.961 . S
C12 H15 0.960 . S
H13 C12 0.961 . S
H14 C12 0.961 . S
H15 C12 0.960 . S
C16 N17 1.342 . S
C16 C20 1.401 . S
C16 C21 1.499 . S
N17 Co0 1.989 . S
N17 C16 1.342 . S
N17 N18 1.388 . S
N18 Co1 1.993 1_455 S
N18 N17 1.388 . S
N18 C19 1.346 . S
C19 N18 1.346 . S
C19 C20 1.396 . S
C19 C29 1.510 1_455 S
C20 C16 1.401 . S
C20 C19 1.396 . S
C21 C16 1.499 . S
C21 H22 0.959 . S
C21 H23 0.960 . S
C21 H24 0.961 . S
H22 C21 0.959 . S
H23 C21 0.960 . S
H24 C21 0.961 . S
O25 Co0 1.967 1_655 S
O25 C33 1.258 . S
O26 Co1 1.941 . S
O26 C33 1.266 . S
H27 C29 0.959 . S
H28 C29 0.961 1_465 S
C29 C19 1.510 1_655 S
C29 H27 0.959 . S
C29 H28 0.961 1_645 S
C29 H30 0.960 . S
H30 C29 0.960 . S
H31 N11 0.862 . S
O32 Co0 1.920 . S
O32 C5 1.289 . S
C33 O25 1.258 . S
C33 O26 1.266 . S
Co34 O37 1.970 . S
Co34 N51 1.989 . S
Co34 O59 1.967 . S
Co34 O66 1.920 . S
Co35 O38 1.966 . S
Co35 N44 2.022 . S
Co35 N52 1.993 . S
Co35 O60 1.941 . S
C36 O37 1.258 . S
C36 O38 1.263 . S
O37 Co34 1.970 . S
O37 C36 1.258 . S
O38 Co35 1.966 . S
O38 C36 1.263 . S
C39 O40 1.235 . S
C39 O66 1.289 . S
O40 C39 1.235 . S
C41 C43 1.400 . S
C41 N44 1.351 . S
C41 C46 1.501 . S
C42 C43 1.387 . S
C42 N45 1.341 . S
C43 C41 1.400 . S
C43 C42 1.387 . S
N44 Co35 2.022 . S
N44 C41 1.351 . S
N44 N45 1.365 . S
N45 C42 1.341 . S
N45 N44 1.365 . S
N45 H65 0.862 . S
C46 C41 1.501 . S
C46 H47 0.961 . S
C46 H48 0.961 . S
C46 H49 0.960 . S
H47 C46 0.961 . S
H48 C46 0.961 . S
H49 C46 0.960 . S
C50 N51 1.342 . S
C50 C54 1.401 . S
C50 C55 1.499 . S
N51 Co34 1.989 . S
N51 C50 1.342 . S
N51 N52 1.388 . S
N52 Co35 1.993 . S
N52 N51 1.388 . S
N52 C53 1.346 . S
C53 N52 1.346 . S
C53 C54 1.396 . S
C53 C63 1.510 . S
C54 C50 1.401 . S
C54 C53 1.396 . S
C55 C50 1.499 . S
C55 H56 0.959 . S
C55 H57 0.960 . S
C55 H58 0.961 . S
H56 C55 0.959 . S
H57 C55 0.960 . S
H58 C55 0.961 . S
O59 Co34 1.967 . S
O59 C67 1.258 . S
O60 Co35 1.941 . S
O60 C67 1.266 . S
H61 C63 0.959 . S
H62 C63 0.961 . S
C63 C53 1.510 . S
C63 H61 0.959 . S
C63 H62 0.961 . S
C63 H64 0.960 . S
H64 C63 0.960 . S
H65 N45 0.862 . S
O66 Co34 1.920 . S
O66 C39 1.289 . S
C67 O59 1.258 . S
C67 O60 1.266 . S
Co68 O71 1.970 . S
Co68 N85 1.989 . S
Co68 O93 1.967 . S
Co68 O100 1.920 . S
Co69 O72 1.966 . S
Co69 N78 2.022 . S
Co69 N86 1.993 . S
Co69 O94 1.941 . S
C70 O71 1.258 . S
C70 O72 1.263 . S
O71 Co68 1.970 . S
O71 C70 1.258 . S
O72 Co69 1.966 . S
O72 C70 1.263 . S
C73 O74 1.235 . S
C73 O100 1.289 . S
O74 C73 1.235 . S
C75 C77 1.400 . S
C75 N78 1.351 1_545 S
C75 C80 1.501 . S
C76 C77 1.387 . S
C76 N79 1.341 1_545 S
C77 C75 1.400 . S
C77 C76 1.387 . S
N78 Co69 2.022 . S
N78 C75 1.351 1_565 S
N78 N79 1.365 . S
N79 C76 1.341 1_565 S
N79 N78 1.365 . S
N79 H99 0.862 . S
C80 C75 1.501 . S
C80 H81 0.961 . S
C80 H82 0.961 . S
C80 H83 0.960 . S
H81 C80 0.961 . S
H82 C80 0.961 . S
H83 C80 0.960 . S
C84 N85 1.342 . S
C84 C88 1.401 . S
C84 C89 1.499 . S
N85 Co68 1.989 . S
N85 C84 1.342 . S
N85 N86 1.388 . S
N86 Co69 1.993 . S
N86 N85 1.388 . S
N86 C87 1.346 . S
C87 N86 1.346 . S
C87 C88 1.396 . S
C87 C97 1.510 . S
C88 C84 1.401 . S
C88 C87 1.396 . S
C89 C84 1.499 . S
C89 H90 0.959 . S
C89 H91 0.960 . S
C89 H92 0.961 . S
H90 C89 0.959 . S
H91 C89 0.960 . S
H92 C89 0.961 . S
O93 Co68 1.967 . S
O93 C101 1.258 . S
O94 Co69 1.941 . S
O94 C101 1.266 . S
H95 C97 0.959 . S
H96 C97 0.961 1_545 S
C97 C87 1.510 . S
C97 H95 0.959 . S
C97 H96 0.961 1_565 S
C97 H98 0.960 . S
H98 C97 0.960 . S
H99 N79 0.862 . S
O100 Co68 1.920 . S
O100 C73 1.289 . S
C101 O93 1.258 . S
C101 O94 1.266 . S
Co102 O105 1.970 . S
Co102 N119 1.989 . S
Co102 O127 1.967 . S
Co102 O134 1.920 . S
Co103 O106 1.966 . S
Co103 N112 2.022 . S
Co103 N120 1.993 . S
Co103 O128 1.941 . S
C104 O105 1.258 . S
C104 O106 1.263 . S
O105 Co102 1.970 . S
O105 C104 1.258 . S
O106 Co103 1.966 . S
O106 C104 1.263 . S
C107 O108 1.235 . S
C107 O134 1.289 . S
O108 C107 1.235 . S
C109 C111 1.400 . S
C109 N112 1.351 . S
C109 C114 1.501 . S
C110 C111 1.387 . S
C110 N113 1.341 . S
C111 C109 1.400 . S
C111 C110 1.387 . S
N112 Co103 2.022 . S
N112 C109 1.351 . S
N112 N113 1.365 . S
N113 C110 1.341 . S
N113 N112 1.365 . S
N113 H133 0.862 . S
C114 C109 1.501 . S
C114 H115 0.961 . S
C114 H116 0.961 . S
C114 H117 0.960 . S
H115 C114 0.961 . S
H116 C114 0.961 . S
H117 C114 0.960 . S
C118 N119 1.342 . S
C118 C122 1.401 . S
C118 C123 1.499 . S
N119 Co102 1.989 . S
N119 C118 1.342 . S
N119 N120 1.388 . S
N120 Co103 1.993 . S
N120 N119 1.388 . S
N120 C121 1.346 . S
C121 N120 1.346 . S
C121 C122 1.396 . S
C121 C131 1.510 . S
C122 C118 1.401 . S
C122 C121 1.396 . S
C123 C118 1.499 . S
C123 H124 0.959 . S
C123 H125 0.960 . S
C123 H126 0.961 . S
H124 C123 0.959 . S
H125 C123 0.960 . S
H126 C123 0.961 . S
O127 Co102 1.967 . S
O127 C135 1.258 . S
O128 Co103 1.941 . S
O128 C135 1.266 . S
H129 C131 0.959 . S
H130 C131 0.961 . S
C131 C121 1.510 . S
C131 H129 0.959 . S
C131 H130 0.961 . S
C131 H132 0.960 . S
H132 C131 0.960 . S
H133 N113 0.862 . S
O134 Co102 1.920 . S
O134 C107 1.289 . S
C135 O127 1.258 . S
C135 O128 1.266 . S
Co136 O139 1.970 . S
Co136 N153 1.989 . S
Co136 O161 1.967 1_455 S
Co136 O168 1.920 . S
Co137 O140 1.966 . S
Co137 N146 2.022 . S
Co137 N154 1.993 1_655 S
Co137 O162 1.941 . S
C138 O139 1.258 1_655 S
C138 O140 1.263 . S
O139 Co136 1.970 . S
O139 C138 1.258 1_455 S
O140 Co137 1.966 . S
O140 C138 1.263 . S
C141 O142 1.235 . S
C141 O168 1.289 . S
O142 C141 1.235 . S
C143 C145 1.400 . S
C143 N146 1.351 1_545 S
C143 C148 1.501 . S
C144 C145 1.387 . S
C144 N147 1.341 1_545 S
C145 C143 1.400 . S
C145 C144 1.387 . S
N146 Co137 2.022 . S
N146 C143 1.351 1_565 S
N146 N147 1.365 . S
N147 C144 1.341 1_565 S
N147 N146 1.365 . S
N147 H167 0.862 . S
C148 C143 1.501 . S
C148 H149 0.961 . S
C148 H150 0.961 . S
C148 H151 0.960 . S
H149 C148 0.961 . S
H150 C148 0.961 . S
H151 C148 0.960 . S
C152 N153 1.342 . S
C152 C156 1.401 . S
C152 C157 1.499 . S
N153 Co136 1.989 . S
N153 C152 1.342 . S
N153 N154 1.388 . S
N154 Co137 1.993 1_455 S
N154 N153 1.388 . S
N154 C155 1.346 . S
C155 N154 1.346 . S
C155 C156 1.396 . S
C155 C165 1.510 1_455 S
C156 C152 1.401 . S
C156 C155 1.396 . S
C157 C152 1.499 . S
C157 H158 0.959 . S
C157 H159 0.960 . S
C157 H160 0.961 . S
H158 C157 0.959 . S
H159 C157 0.960 . S
H160 C157 0.961 . S
O161 Co136 1.967 1_655 S
O161 C169 1.258 . S
O162 Co137 1.941 . S
O162 C169 1.266 . S
H163 C165 0.959 . S
H164 C165 0.961 1_445 S
C165 C155 1.510 1_655 S
C165 H163 0.959 . S
C165 H164 0.961 1_665 S
C165 H166 0.960 . S
H166 C165 0.960 . S
H167 N147 0.862 . S
O168 Co136 1.920 . S
O168 C141 1.289 . S
C169 O161 1.258 . S
C169 O162 1.266 . S
Co170 O173 1.970 . S
Co170 N187 1.989 . S
Co170 O195 1.967 . S
Co170 O202 1.920 . S
Co171 O174 1.966 . S
Co171 N180 2.022 . S
Co171 N188 1.993 . S
Co171 O196 1.941 . S
C172 O173 1.258 . S
C172 O174 1.263 . S
O173 Co170 1.970 . S
O173 C172 1.258 . S
O174 Co171 1.966 . S
O174 C172 1.263 . S
C175 O176 1.235 . S
C175 O202 1.289 . S
O176 C175 1.235 . S
C177 C179 1.400 . S
C177 N180 1.351 . S
C177 C182 1.501 . S
C178 C179 1.387 . S
C178 N181 1.341 . S
C179 C177 1.400 . S
C179 C178 1.387 . S
N180 Co171 2.022 . S
N180 C177 1.351 . S
N180 N181 1.365 . S
N181 C178 1.341 . S
N181 N180 1.365 . S
N181 H201 0.862 . S
C182 C177 1.501 . S
C182 H183 0.961 . S
C182 H184 0.961 . S
C182 H185 0.960 . S
H183 C182 0.961 . S
H184 C182 0.961 . S
H185 C182 0.960 . S
C186 N187 1.342 . S
C186 C190 1.401 . S
C186 C191 1.499 . S
N187 Co170 1.989 . S
N187 C186 1.342 . S
N187 N188 1.388 . S
N188 Co171 1.993 . S
N188 N187 1.388 . S
N188 C189 1.346 . S
C189 N188 1.346 . S
C189 C190 1.396 . S
C189 C199 1.510 . S
C190 C186 1.401 . S
C190 C189 1.396 . S
C191 C186 1.499 . S
C191 H192 0.959 . S
C191 H193 0.960 . S
C191 H194 0.961 . S
H192 C191 0.959 . S
H193 C191 0.960 . S
H194 C191 0.961 . S
O195 Co170 1.967 . S
O195 C203 1.258 . S
O196 Co171 1.941 . S
O196 C203 1.266 . S
H197 C199 0.959 . S
H198 C199 0.961 . S
C199 C189 1.510 . S
C199 H197 0.959 . S
C199 H198 0.961 . S
C199 H200 0.960 . S
H200 C199 0.960 . S
H201 N181 0.862 . S
O202 Co170 1.920 . S
O202 C175 1.289 . S
C203 O195 1.258 . S
C203 O196 1.266 . S
Co204 O207 1.970 . S
Co204 N221 1.989 . S
Co204 O229 1.967 . S
Co204 O236 1.920 . S
Co205 O208 1.966 . S
Co205 N214 2.022 . S
Co205 N222 1.993 . S
Co205 O230 1.941 . S
C206 O207 1.258 . S
C206 O208 1.263 . S
O207 Co204 1.970 . S
O207 C206 1.258 . S
O208 Co205 1.966 . S
O208 C206 1.263 . S
C209 O210 1.235 . S
C209 O236 1.289 . S
O210 C209 1.235 . S
C211 C213 1.400 . S
C211 N214 1.351 1_565 S
C211 C216 1.501 . S
C212 C213 1.387 . S
C212 N215 1.341 1_565 S
C213 C211 1.400 . S
C213 C212 1.387 . S
N214 Co205 2.022 . S
N214 C211 1.351 1_545 S
N214 N215 1.365 . S
N215 C212 1.341 1_545 S
N215 N214 1.365 . S
N215 H235 0.862 . S
C216 C211 1.501 . S
C216 H217 0.961 . S
C216 H218 0.961 . S
C216 H219 0.960 . S
H217 C216 0.961 . S
H218 C216 0.961 . S
H219 C216 0.960 . S
C220 N221 1.342 . S
C220 C224 1.401 . S
C220 C225 1.499 . S
N221 Co204 1.989 . S
N221 C220 1.342 . S
N221 N222 1.388 . S
N222 Co205 1.993 . S
N222 N221 1.388 . S
N222 C223 1.346 . S
C223 N222 1.346 . S
C223 C224 1.396 . S
C223 C233 1.510 . S
C224 C220 1.401 . S
C224 C223 1.396 . S
C225 C220 1.499 . S
C225 H226 0.959 . S
C225 H227 0.960 . S
C225 H228 0.961 . S
H226 C225 0.959 . S
H227 C225 0.960 . S
H228 C225 0.961 . S
O229 Co204 1.967 . S
O229 C237 1.258 . S
O230 Co205 1.941 . S
O230 C237 1.266 . S
H231 C233 0.959 . S
H232 C233 0.961 1_565 S
C233 C223 1.510 . S
C233 H231 0.959 . S
C233 H232 0.961 1_545 S
C233 H234 0.960 . S
H234 C233 0.960 . S
H235 N215 0.862 . S
O236 Co204 1.920 . S
O236 C209 1.289 . S
C237 O229 1.258 . S
C237 O230 1.266 . S
Co238 O241 1.970 . S
Co238 N255 1.989 . S
Co238 O263 1.967 . S
Co238 O270 1.920 . S
Co239 O242 1.966 . S
Co239 N248 2.022 . S
Co239 N256 1.993 . S
Co239 O264 1.941 . S
C240 O241 1.258 . S
C240 O242 1.263 . S
O241 Co238 1.970 . S
O241 C240 1.258 . S
O242 Co239 1.966 . S
O242 C240 1.263 . S
C243 O244 1.235 . S
C243 O270 1.289 . S
O244 C243 1.235 . S
C245 C247 1.400 . S
C245 N248 1.351 . S
C245 C250 1.501 . S
C246 C247 1.387 . S
C246 N249 1.341 . S
C247 C245 1.400 . S
C247 C246 1.387 . S
N248 Co239 2.022 . S
N248 C245 1.351 . S
N248 N249 1.365 . S
N249 C246 1.341 . S
N249 N248 1.365 . S
N249 H269 0.862 . S
C250 C245 1.501 . S
C250 H251 0.961 . S
C250 H252 0.961 . S
C250 H253 0.960 . S
H251 C250 0.961 . S
H252 C250 0.961 . S
H253 C250 0.960 . S
C254 N255 1.342 . S
C254 C258 1.401 . S
C254 C259 1.499 . S
N255 Co238 1.989 . S
N255 C254 1.342 . S
N255 N256 1.388 . S
N256 Co239 1.993 . S
N256 N255 1.388 . S
N256 C257 1.346 . S
C257 N256 1.346 . S
C257 C258 1.396 . S
C257 C267 1.510 . S
C258 C254 1.401 . S
C258 C257 1.396 . S
C259 C254 1.499 . S
C259 H260 0.959 . S
C259 H261 0.960 . S
C259 H262 0.961 . S
H260 C259 0.959 . S
H261 C259 0.960 . S
H262 C259 0.961 . S
O263 Co238 1.967 . S
O263 C271 1.258 . S
O264 Co239 1.941 . S
O264 C271 1.266 . S
H265 C267 0.959 . S
H266 C267 0.961 . S
C267 C257 1.510 . S
C267 H265 0.959 . S
C267 H266 0.961 . S
C267 H268 0.960 . S
H268 C267 0.960 . S
H269 N249 0.862 . S
O270 Co238 1.920 . S
O270 C243 1.289 . S
C271 O263 1.258 . S
C271 O264 1.266 . S
Co272 O275 1.970 . S
Co272 N289 1.989 . S
Co272 O297 1.967 1_545 S
Co272 O304 1.920 . S
Co273 O276 1.966 . S
Co273 N282 2.022 . S
Co273 N290 1.993 1_565 S
Co273 O298 1.941 . S
C274 O275 1.258 1_565 S
C274 O276 1.263 . S
O275 Co272 1.970 . S
O275 C274 1.258 1_545 S
O276 Co273 1.966 . S
O276 C274 1.263 . S
C277 O278 1.235 . S
C277 O304 1.289 . S
O278 C277 1.235 . S
C279 C281 1.400 . S
C279 N282 1.351 1_556 S
C279 C284 1.501 . S
C280 C281 1.387 . S
C280 N283 1.341 1_556 S
C281 C279 1.400 . S
C281 C280 1.387 . S
N282 Co273 2.022 . S
N282 C279 1.351 1_554 S
N282 N283 1.365 . S
N283 C280 1.341 1_554 S
N283 N282 1.365 . S
N283 H303 0.862 . S
C284 C279 1.501 . S
C284 H285 0.961 . S
C284 H286 0.961 . S
C284 H287 0.960 . S
H285 C284 0.961 . S
H286 C284 0.961 . S
H287 C284 0.960 . S
C288 N289 1.342 . S
C288 C292 1.401 . S
C288 C293 1.499 . S
N289 Co272 1.989 . S
N289 C288 1.342 . S
N289 N290 1.388 . S
N290 Co273 1.993 1_545 S
N290 N289 1.388 . S
N290 C291 1.346 . S
C291 N290 1.346 . S
C291 C292 1.396 . S
C291 C301 1.510 1_545 S
C292 C288 1.401 . S
C292 C291 1.396 . S
C293 C288 1.499 . S
C293 H294 0.959 . S
C293 H295 0.960 . S
C293 H296 0.961 . S
H294 C293 0.959 . S
H295 C293 0.960 . S
H296 C293 0.961 . S
O297 Co272 1.967 1_565 S
O297 C305 1.258 . S
O298 Co273 1.941 . S
O298 C305 1.266 . S
H299 C301 0.959 . S
H300 C301 0.961 1_546 S
C301 C291 1.510 1_565 S
C301 H299 0.959 . S
C301 H300 0.961 1_564 S
C301 H302 0.960 . S
H302 C301 0.960 . S
H303 N283 0.862 . S
O304 Co272 1.920 . S
O304 C277 1.289 . S
C305 O297 1.258 . S
C305 O298 1.266 . S
Co306 O309 1.970 . S
Co306 N323 1.989 . S
Co306 O331 1.967 . S
Co306 O338 1.920 . S
Co307 O310 1.966 . S
Co307 N316 2.022 . S
Co307 N324 1.993 . S
Co307 O332 1.941 . S
C308 O309 1.258 . S
C308 O310 1.263 . S
O309 Co306 1.970 . S
O309 C308 1.258 . S
O310 Co307 1.966 . S
O310 C308 1.263 . S
C311 O312 1.235 . S
C311 O338 1.289 . S
O312 C311 1.235 . S
C313 C315 1.400 . S
C313 N316 1.351 . S
C313 C318 1.501 . S
C314 C315 1.387 . S
C314 N317 1.341 . S
C315 C313 1.400 . S
C315 C314 1.387 . S
N316 Co307 2.022 . S
N316 C313 1.351 . S
N316 N317 1.365 . S
N317 C314 1.341 . S
N317 N316 1.365 . S
N317 H337 0.862 . S
C318 C313 1.501 . S
C318 H319 0.961 . S
C318 H320 0.961 . S
C318 H321 0.960 . S
H319 C318 0.961 . S
H320 C318 0.961 . S
H321 C318 0.960 . S
C322 N323 1.342 . S
C322 C326 1.401 . S
C322 C327 1.499 . S
N323 Co306 1.989 . S
N323 C322 1.342 . S
N323 N324 1.388 . S
N324 Co307 1.993 . S
N324 N323 1.388 . S
N324 C325 1.346 . S
C325 N324 1.346 . S
C325 C326 1.396 . S
C325 C335 1.510 . S
C326 C322 1.401 . S
C326 C325 1.396 . S
C327 C322 1.499 . S
C327 H328 0.959 . S
C327 H329 0.960 . S
C327 H330 0.961 . S
H328 C327 0.959 . S
H329 C327 0.960 . S
H330 C327 0.961 . S
O331 Co306 1.967 . S
O331 C339 1.258 . S
O332 Co307 1.941 . S
O332 C339 1.266 . S
H333 C335 0.959 . S
H334 C335 0.961 . S
C335 C325 1.510 . S
C335 H333 0.959 . S
C335 H334 0.961 . S
C335 H336 0.960 . S
H336 C335 0.960 . S
H337 N317 0.862 . S
O338 Co306 1.920 . S
O338 C311 1.289 . S
C339 O331 1.258 . S
C339 O332 1.266 . S
Co340 O343 1.970 . S
Co340 N357 1.989 . S
Co340 O365 1.967 1_565 S
Co340 O372 1.920 . S
Co341 O344 1.966 . S
Co341 N350 2.022 . S
Co341 N358 1.993 1_545 S
Co341 O366 1.941 . S
C342 O343 1.258 1_545 S
C342 O344 1.263 . S
O343 Co340 1.970 . S
O343 C342 1.258 1_565 S
O344 Co341 1.966 . S
O344 C342 1.263 . S
C345 O346 1.235 . S
C345 O372 1.289 . S
O346 C345 1.235 . S
C347 C349 1.400 . S
C347 N350 1.351 . S
C347 C352 1.501 . S
C348 C349 1.387 . S
C348 N351 1.341 . S
C349 C347 1.400 . S
C349 C348 1.387 . S
N350 Co341 2.022 . S
N350 C347 1.351 . S
N350 N351 1.365 . S
N351 C348 1.341 . S
N351 N350 1.365 . S
N351 H371 0.862 . S
C352 C347 1.501 . S
C352 H353 0.961 . S
C352 H354 0.961 . S
C352 H355 0.960 . S
H353 C352 0.961 . S
H354 C352 0.961 . S
H355 C352 0.960 . S
C356 N357 1.342 . S
C356 C360 1.401 . S
C356 C361 1.499 . S
N357 Co340 1.989 . S
N357 C356 1.342 . S
N357 N358 1.388 . S
N358 Co341 1.993 1_565 S
N358 N357 1.388 . S
N358 C359 1.346 . S
C359 N358 1.346 . S
C359 C360 1.396 . S
C359 C369 1.510 1_565 S
C360 C356 1.401 . S
C360 C359 1.396 . S
C361 C356 1.499 . S
C361 H362 0.959 . S
C361 H363 0.960 . S
C361 H364 0.961 . S
H362 C361 0.959 . S
H363 C361 0.960 . S
H364 C361 0.961 . S
O365 Co340 1.967 1_545 S
O365 C373 1.258 . S
O366 Co341 1.941 . S
O366 C373 1.266 . S
H367 C369 0.959 . S
H368 C369 0.961 1_565 S
C369 C359 1.510 1_545 S
C369 H367 0.959 . S
C369 H368 0.961 1_545 S
C369 H370 0.960 . S
H370 C369 0.960 . S
H371 N351 0.862 . S
O372 Co340 1.920 . S
O372 C345 1.289 . S
C373 O365 1.258 . S
C373 O366 1.266 . S
Co374 O377 1.970 . S
Co374 N391 1.989 . S
Co374 O399 1.967 . S
Co374 O406 1.920 . S
Co375 O378 1.966 . S
Co375 N384 2.022 . S
Co375 N392 1.993 . S
Co375 O400 1.941 . S
C376 O377 1.258 . S
C376 O378 1.263 . S
O377 Co374 1.970 . S
O377 C376 1.258 . S
O378 Co375 1.966 . S
O378 C376 1.263 . S
C379 O380 1.235 . S
C379 O406 1.289 . S
O380 C379 1.235 . S
C381 C383 1.400 . S
C381 N384 1.351 . S
C381 C386 1.501 . S
C382 C383 1.387 . S
C382 N385 1.341 . S
C383 C381 1.400 . S
C383 C382 1.387 . S
N384 Co375 2.022 . S
N384 C381 1.351 . S
N384 N385 1.365 . S
N385 C382 1.341 . S
N385 N384 1.365 . S
N385 H405 0.862 . S
C386 C381 1.501 . S
C386 H387 0.961 . S
C386 H388 0.961 . S
C386 H389 0.960 . S
H387 C386 0.961 . S
H388 C386 0.961 . S
H389 C386 0.960 . S
C390 N391 1.342 . S
C390 C394 1.401 . S
C390 C395 1.499 . S
N391 Co374 1.989 . S
N391 C390 1.342 . S
N391 N392 1.388 . S
N392 Co375 1.993 . S
N392 N391 1.388 . S
N392 C393 1.346 . S
C393 N392 1.346 . S
C393 C394 1.396 . S
C393 C403 1.510 . S
C394 C390 1.401 . S
C394 C393 1.396 . S
C395 C390 1.499 . S
C395 H396 0.959 . S
C395 H397 0.960 . S
C395 H398 0.961 . S
H396 C395 0.959 . S
H397 C395 0.960 . S
H398 C395 0.961 . S
O399 Co374 1.967 . S
O399 C407 1.258 . S
O400 Co375 1.941 . S
O400 C407 1.266 . S
H401 C403 0.959 . S
H402 C403 0.961 . S
C403 C393 1.510 . S
C403 H401 0.959 . S
C403 H402 0.961 . S
C403 H404 0.960 . S
H404 C403 0.960 . S
H405 N385 0.862 . S
O406 Co374 1.920 . S
O406 C379 1.289 . S
C407 O399 1.258 . S
C407 O400 1.266 . S
Co408 O411 1.970 . S
Co408 N425 1.989 . S
Co408 O433 1.967 1_565 S
Co408 O440 1.920 . S
Co409 O412 1.966 . S
Co409 N418 2.022 . S
Co409 N426 1.993 1_545 S
Co409 O434 1.941 . S
C410 O411 1.258 1_545 S
C410 O412 1.263 . S
O411 Co408 1.970 . S
O411 C410 1.258 1_565 S
O412 Co409 1.966 . S
O412 C410 1.263 . S
C413 O414 1.235 . S
C413 O440 1.289 . S
O414 C413 1.235 . S
C415 C417 1.400 . S
C415 N418 1.351 . S
C415 C420 1.501 . S
C416 C417 1.387 . S
C416 N419 1.341 . S
C417 C415 1.400 . S
C417 C416 1.387 . S
N418 Co409 2.022 . S
N418 C415 1.351 . S
N418 N419 1.365 . S
N419 C416 1.341 . S
N419 N418 1.365 . S
N419 H439 0.862 . S
C420 C415 1.501 . S
C420 H421 0.961 . S
C420 H422 0.961 . S
C420 H423 0.960 . S
H421 C420 0.961 . S
H422 C420 0.961 . S
H423 C420 0.960 . S
C424 N425 1.342 . S
C424 C428 1.401 . S
C424 C429 1.499 . S
N425 Co408 1.989 . S
N425 C424 1.342 . S
N425 N426 1.388 . S
N426 Co409 1.993 1_565 S
N426 N425 1.388 . S
N426 C427 1.346 . S
C427 N426 1.346 . S
C427 C428 1.396 . S
C427 C437 1.510 1_565 S
C428 C424 1.401 . S
C428 C427 1.396 . S
C429 C424 1.499 . S
C429 H430 0.959 . S
C429 H431 0.960 . S
C429 H432 0.961 . S
H430 C429 0.959 . S
H431 C429 0.960 . S
H432 C429 0.961 . S
O433 Co408 1.967 1_545 S
O433 C441 1.258 . S
O434 Co409 1.941 . S
O434 C441 1.266 . S
H435 C437 0.959 . S
H436 C437 0.961 1_565 S
C437 C427 1.510 1_545 S
C437 H435 0.959 . S
C437 H436 0.961 1_545 S
C437 H438 0.960 . S
H438 C437 0.960 . S
H439 N419 0.862 . S
O440 Co408 1.920 . S
O440 C413 1.289 . S
C441 O433 1.258 . S
C441 O434 1.266 . S
Co442 O445 1.970 . S
Co442 N459 1.989 . S
Co442 O467 1.967 . S
Co442 O474 1.920 . S
Co443 O446 1.966 . S
Co443 N452 2.022 . S
Co443 N460 1.993 . S
Co443 O468 1.941 . S
C444 O445 1.258 . S
C444 O446 1.263 . S
O445 Co442 1.970 . S
O445 C444 1.258 . S
O446 Co443 1.966 . S
O446 C444 1.263 . S
C447 O448 1.235 . S
C447 O474 1.289 . S
O448 C447 1.235 . S
C449 C451 1.400 . S
C449 N452 1.351 . S
C449 C454 1.501 . S
C450 C451 1.387 . S
C450 N453 1.341 . S
C451 C449 1.400 . S
C451 C450 1.387 . S
N452 Co443 2.022 . S
N452 C449 1.351 . S
N452 N453 1.365 . S
N453 C450 1.341 . S
N453 N452 1.365 . S
N453 H473 0.862 . S
C454 C449 1.501 . S
C454 H455 0.961 . S
C454 H456 0.961 . S
C454 H457 0.960 . S
H455 C454 0.961 . S
H456 C454 0.961 . S
H457 C454 0.960 . S
C458 N459 1.342 . S
C458 C462 1.401 . S
C458 C463 1.499 . S
N459 Co442 1.989 . S
N459 C458 1.342 . S
N459 N460 1.388 . S
N460 Co443 1.993 . S
N460 N459 1.388 . S
N460 C461 1.346 . S
C461 N460 1.346 . S
C461 C462 1.396 . S
C461 C471 1.510 . S
C462 C458 1.401 . S
C462 C461 1.396 . S
C463 C458 1.499 . S
C463 H464 0.959 . S
C463 H465 0.960 . S
C463 H466 0.961 . S
H464 C463 0.959 . S
H465 C463 0.960 . S
H466 C463 0.961 . S
O467 Co442 1.967 . S
O467 C475 1.258 . S
O468 Co443 1.941 . S
O468 C475 1.266 . S
H469 C471 0.959 . S
H470 C471 0.961 . S
C471 C461 1.510 . S
C471 H469 0.959 . S
C471 H470 0.961 . S
C471 H472 0.960 . S
H472 C471 0.960 . S
H473 N453 0.862 . S
O474 Co442 1.920 . S
O474 C447 1.289 . S
C475 O467 1.258 . S
C475 O468 1.266 . S
Co476 O479 1.970 . S
Co476 N493 1.989 . S
Co476 O501 1.967 1_545 S
Co476 O508 1.920 . S
Co477 O480 1.966 . S
Co477 N486 2.022 . S
Co477 N494 1.993 1_565 S
Co477 O502 1.941 . S
C478 O479 1.258 1_565 S
C478 O480 1.263 . S
O479 Co476 1.970 . S
O479 C478 1.258 1_545 S
O480 Co477 1.966 . S
O480 C478 1.263 . S
C481 O482 1.235 . S
C481 O508 1.289 . S
O482 C481 1.235 . S
C483 C485 1.400 . S
C483 N486 1.351 1_554 S
C483 C488 1.501 . S
C484 C485 1.387 . S
C484 N487 1.341 1_554 S
C485 C483 1.400 . S
C485 C484 1.387 . S
N486 Co477 2.022 . S
N486 C483 1.351 1_556 S
N486 N487 1.365 . S
N487 C484 1.341 1_556 S
N487 N486 1.365 . S
N487 H507 0.862 . S
C488 C483 1.501 . S
C488 H489 0.961 . S
C488 H490 0.961 . S
C488 H491 0.960 . S
H489 C488 0.961 . S
H490 C488 0.961 . S
H491 C488 0.960 . S
C492 N493 1.342 . S
C492 C496 1.401 . S
C492 C497 1.499 . S
N493 Co476 1.989 . S
N493 C492 1.342 . S
N493 N494 1.388 . S
N494 Co477 1.993 1_545 S
N494 N493 1.388 . S
N494 C495 1.346 . S
C495 N494 1.346 . S
C495 C496 1.396 . S
C495 C505 1.510 1_545 S
C496 C492 1.401 . S
C496 C495 1.396 . S
C497 C492 1.499 . S
C497 H498 0.959 . S
C497 H499 0.960 . S
C497 H500 0.961 . S
H498 C497 0.959 . S
H499 C497 0.960 . S
H500 C497 0.961 . S
O501 Co476 1.967 1_565 S
O501 C509 1.258 . S
O502 Co477 1.941 . S
O502 C509 1.266 . S
H503 C505 0.959 . S
H504 C505 0.961 1_544 S
C505 C495 1.510 1_565 S
C505 H503 0.959 . S
C505 H504 0.961 1_566 S
C505 H506 0.960 . S
H506 C505 0.960 . S
H507 N487 0.862 . S
O508 Co476 1.920 . S
O508 C481 1.289 . S
C509 O501 1.258 . S
C509 O502 1.266 . S
Co510 O513 1.970 . S
Co510 N527 1.989 . S
Co510 O535 1.967 . S
Co510 O542 1.920 . S
Co511 O514 1.966 . S
Co511 N520 2.022 . S
Co511 N528 1.993 . S
Co511 O536 1.941 . S
C512 O513 1.258 . S
C512 O514 1.263 . S
O513 Co510 1.970 . S
O513 C512 1.258 . S
O514 Co511 1.966 . S
O514 C512 1.263 . S
C515 O516 1.235 . S
C515 O542 1.289 . S
O516 C515 1.235 . S
C517 C519 1.400 . S
C517 N520 1.351 . S
C517 C522 1.501 . S
C518 C519 1.387 . S
C518 N521 1.341 . S
C519 C517 1.400 . S
C519 C518 1.387 . S
N520 Co511 2.022 . S
N520 C517 1.351 . S
N520 N521 1.365 . S
N521 C518 1.341 . S
N521 N520 1.365 . S
N521 H541 0.862 . S
C522 C517 1.501 . S
C522 H523 0.961 . S
C522 H524 0.961 . S
C522 H525 0.960 . S
H523 C522 0.961 . S
H524 C522 0.961 . S
H525 C522 0.960 . S
C526 N527 1.342 . S
C526 C530 1.401 . S
C526 C531 1.499 . S
N527 Co510 1.989 . S
N527 C526 1.342 . S
N527 N528 1.388 . S
N528 Co511 1.993 . S
N528 N527 1.388 . S
N528 C529 1.346 . S
C529 N528 1.346 . S
C529 C530 1.396 . S
C529 C539 1.510 . S
C530 C526 1.401 . S
C530 C529 1.396 . S
C531 C526 1.499 . S
C531 H532 0.959 . S
C531 H533 0.960 . S
C531 H534 0.961 . S
H532 C531 0.959 . S
H533 C531 0.960 . S
H534 C531 0.961 . S
O535 Co510 1.967 . S
O535 C543 1.258 . S
O536 Co511 1.941 . S
O536 C543 1.266 . S
H537 C539 0.959 . S
H538 C539 0.961 . S
C539 C529 1.510 . S
C539 H537 0.959 . S
C539 H538 0.961 . S
C539 H540 0.960 . S
H540 C539 0.960 . S
H541 N521 0.862 . S
O542 Co510 1.920 . S
O542 C515 1.289 . S
C543 O535 1.258 . S
C543 O536 1.266 . S
Co544 O547 1.970 . S
Co544 N561 1.989 . S
Co544 O569 1.967 1_554 S
Co544 O576 1.920 . S
Co545 O548 1.966 . S
Co545 N554 2.022 . S
Co545 N562 1.993 1_556 S
Co545 O570 1.941 . S
C546 O547 1.258 1_556 S
C546 O548 1.263 . S
O547 Co544 1.970 . S
O547 C546 1.258 1_554 S
O548 Co545 1.966 . S
O548 C546 1.263 . S
C549 O550 1.235 . S
C549 O576 1.289 . S
O550 C549 1.235 . S
C551 C553 1.400 . S
C551 N554 1.351 1_655 S
C551 C556 1.501 . S
C552 C553 1.387 . S
C552 N555 1.341 1_655 S
C553 C551 1.400 . S
C553 C552 1.387 . S
N554 Co545 2.022 . S
N554 C551 1.351 1_455 S
N554 N555 1.365 . S
N555 C552 1.341 1_455 S
N555 N554 1.365 . S
N555 H575 0.862 . S
C556 C551 1.501 . S
C556 H557 0.961 . S
C556 H558 0.961 . S
C556 H559 0.960 . S
H557 C556 0.961 . S
H558 C556 0.961 . S
H559 C556 0.960 . S
C560 N561 1.342 . S
C560 C564 1.401 . S
C560 C565 1.499 . S
N561 Co544 1.989 . S
N561 C560 1.342 . S
N561 N562 1.388 . S
N562 Co545 1.993 1_554 S
N562 N561 1.388 . S
N562 C563 1.346 . S
C563 N562 1.346 . S
C563 C564 1.396 . S
C563 C573 1.510 1_554 S
C564 C560 1.401 . S
C564 C563 1.396 . S
C565 C560 1.499 . S
C565 H566 0.959 . S
C565 H567 0.960 . S
C565 H568 0.961 . S
H566 C565 0.959 . S
H567 C565 0.960 . S
H568 C565 0.961 . S
O569 Co544 1.967 1_556 S
O569 C577 1.258 . S
O570 Co545 1.941 . S
O570 C577 1.266 . S
H571 C573 0.959 . S
H572 C573 0.961 1_654 S
C573 C563 1.510 1_556 S
C573 H571 0.959 . S
C573 H572 0.961 1_456 S
C573 H574 0.960 . S
H574 C573 0.960 . S
H575 N555 0.862 . S
O576 Co544 1.920 . S
O576 C549 1.289 . S
C577 O569 1.258 . S
C577 O570 1.266 . S
Co578 O581 1.970 . S
Co578 N595 1.989 . S
Co578 O603 1.967 1_556 S
Co578 O610 1.920 . S
Co579 O582 1.966 . S
Co579 N588 2.022 . S
Co579 N596 1.993 1_554 S
Co579 O604 1.941 . S
C580 O581 1.258 1_554 S
C580 O582 1.263 . S
O581 Co578 1.970 . S
O581 C580 1.258 1_556 S
O582 Co579 1.966 . S
O582 C580 1.263 . S
C583 O584 1.235 . S
C583 O610 1.289 . S
O584 C583 1.235 . S
C585 C587 1.400 . S
C585 N588 1.351 . S
C585 C590 1.501 . S
C586 C587 1.387 . S
C586 N589 1.341 . S
C587 C585 1.400 . S
C587 C586 1.387 . S
N588 Co579 2.022 . S
N588 C585 1.351 . S
N588 N589 1.365 . S
N589 C586 1.341 . S
N589 N588 1.365 . S
N589 H609 0.862 . S
C590 C585 1.501 . S
C590 H591 0.961 . S
C590 H592 0.961 . S
C590 H593 0.960 . S
H591 C590 0.961 . S
H592 C590 0.961 . S
H593 C590 0.960 . S
C594 N595 1.342 . S
C594 C598 1.401 . S
C594 C599 1.499 . S
N595 Co578 1.989 . S
N595 C594 1.342 . S
N595 N596 1.388 . S
N596 Co579 1.993 1_556 S
N596 N595 1.388 . S
N596 C597 1.346 . S
C597 N596 1.346 . S
C597 C598 1.396 . S
C597 C607 1.510 1_556 S
C598 C594 1.401 . S
C598 C597 1.396 . S
C599 C594 1.499 . S
C599 H600 0.959 . S
C599 H601 0.960 . S
C599 H602 0.961 . S
H600 C599 0.959 . S
H601 C599 0.960 . S
H602 C599 0.961 . S
O603 Co578 1.967 1_554 S
O603 C611 1.258 . S
O604 Co579 1.941 . S
O604 C611 1.266 . S
H605 C607 0.959 . S
H606 C607 0.961 1_556 S
C607 C597 1.510 1_554 S
C607 H605 0.959 . S
C607 H606 0.961 1_554 S
C607 H608 0.960 . S
H608 C607 0.960 . S
H609 N589 0.862 . S
O610 Co578 1.920 . S
O610 C583 1.289 . S
C611 O603 1.258 . S
C611 O604 1.266 . S
Co612 O615 1.970 . S
Co612 N629 1.989 . S
Co612 O637 1.967 . S
Co612 O644 1.920 . S
Co613 O616 1.966 . S
Co613 N622 2.022 . S
Co613 N630 1.993 . S
Co613 O638 1.941 . S
C614 O615 1.258 . S
C614 O616 1.263 . S
O615 Co612 1.970 . S
O615 C614 1.258 . S
O616 Co613 1.966 . S
O616 C614 1.263 . S
C617 O618 1.235 . S
C617 O644 1.289 . S
O618 C617 1.235 . S
C619 C621 1.400 . S
C619 N622 1.351 . S
C619 C624 1.501 . S
C620 C621 1.387 . S
C620 N623 1.341 . S
C621 C619 1.400 . S
C621 C620 1.387 . S
N622 Co613 2.022 . S
N622 C619 1.351 . S
N622 N623 1.365 . S
N623 C620 1.341 . S
N623 N622 1.365 . S
N623 H643 0.862 . S
C624 C619 1.501 . S
C624 H625 0.961 . S
C624 H626 0.961 . S
C624 H627 0.960 . S
H625 C624 0.961 . S
H626 C624 0.961 . S
H627 C624 0.960 . S
C628 N629 1.342 . S
C628 C632 1.401 . S
C628 C633 1.499 . S
N629 Co612 1.989 . S
N629 C628 1.342 . S
N629 N630 1.388 . S
N630 Co613 1.993 . S
N630 N629 1.388 . S
N630 C631 1.346 . S
C631 N630 1.346 . S
C631 C632 1.396 . S
C631 C641 1.510 . S
C632 C628 1.401 . S
C632 C631 1.396 . S
C633 C628 1.499 . S
C633 H634 0.959 . S
C633 H635 0.960 . S
C633 H636 0.961 . S
H634 C633 0.959 . S
H635 C633 0.960 . S
H636 C633 0.961 . S
O637 Co612 1.967 . S
O637 C645 1.258 . S
O638 Co613 1.941 . S
O638 C645 1.266 . S
H639 C641 0.959 . S
H640 C641 0.961 . S
C641 C631 1.510 . S
C641 H639 0.959 . S
C641 H640 0.961 . S
C641 H642 0.960 . S
H642 C641 0.960 . S
H643 N623 0.862 . S
O644 Co612 1.920 . S
O644 C617 1.289 . S
C645 O637 1.258 . S
C645 O638 1.266 . S
Co646 O649 1.970 . S
Co646 N663 1.989 . S
Co646 O671 1.967 . S
Co646 O678 1.920 . S
Co647 O650 1.966 . S
Co647 N656 2.022 . S
Co647 N664 1.993 . S
Co647 O672 1.941 . S
C648 O649 1.258 . S
C648 O650 1.263 . S
O649 Co646 1.970 . S
O649 C648 1.258 . S
O650 Co647 1.966 . S
O650 C648 1.263 . S
C651 O652 1.235 . S
C651 O678 1.289 . S
O652 C651 1.235 . S
C653 C655 1.400 . S
C653 N656 1.351 1_455 S
C653 C658 1.501 . S
C654 C655 1.387 . S
C654 N657 1.341 1_455 S
C655 C653 1.400 . S
C655 C654 1.387 . S
N656 Co647 2.022 . S
N656 C653 1.351 1_655 S
N656 N657 1.365 . S
N657 C654 1.341 1_655 S
N657 N656 1.365 . S
N657 H677 0.862 . S
C658 C653 1.501 . S
C658 H659 0.961 . S
C658 H660 0.961 . S
C658 H661 0.960 . S
H659 C658 0.961 . S
H660 C658 0.961 . S
H661 C658 0.960 . S
C662 N663 1.342 . S
C662 C666 1.401 . S
C662 C667 1.499 . S
N663 Co646 1.989 . S
N663 C662 1.342 . S
N663 N664 1.388 . S
N664 Co647 1.993 . S
N664 N663 1.388 . S
N664 C665 1.346 . S
C665 N664 1.346 . S
C665 C666 1.396 . S
C665 C675 1.510 . S
C666 C662 1.401 . S
C666 C665 1.396 . S
C667 C662 1.499 . S
C667 H668 0.959 . S
C667 H669 0.960 . S
C667 H670 0.961 . S
H668 C667 0.959 . S
H669 C667 0.960 . S
H670 C667 0.961 . S
O671 Co646 1.967 . S
O671 C679 1.258 . S
O672 Co647 1.941 . S
O672 C679 1.266 . S
H673 C675 0.959 . S
H674 C675 0.961 1_455 S
C675 C665 1.510 . S
C675 H673 0.959 . S
C675 H674 0.961 1_655 S
C675 H676 0.960 . S
H676 C675 0.960 . S
H677 N657 0.862 . S
O678 Co646 1.920 . S
O678 C651 1.289 . S
C679 O671 1.258 . S
C679 O672 1.266 . S
Co680 O683 1.970 . S
Co680 N697 1.989 . S
Co680 O705 1.967 . S
Co680 O712 1.920 . S
Co681 O684 1.966 . S
Co681 N690 2.022 . S
Co681 N698 1.993 . S
Co681 O706 1.941 . S
C682 O683 1.258 . S
C682 O684 1.263 . S
O683 Co680 1.970 . S
O683 C682 1.258 . S
O684 Co681 1.966 . S
O684 C682 1.263 . S
C685 O686 1.235 . S
C685 O712 1.289 . S
O686 C685 1.235 . S
C687 C689 1.400 . S
C687 N690 1.351 . S
C687 C692 1.501 . S
C688 C689 1.387 . S
C688 N691 1.341 . S
C689 C687 1.400 . S
C689 C688 1.387 . S
N690 Co681 2.022 . S
N690 C687 1.351 . S
N690 N691 1.365 . S
N691 C688 1.341 . S
N691 N690 1.365 . S
N691 H711 0.862 . S
C692 C687 1.501 . S
C692 H693 0.961 . S
C692 H694 0.961 . S
C692 H695 0.960 . S
H693 C692 0.961 . S
H694 C692 0.961 . S
H695 C692 0.960 . S
C696 N697 1.342 . S
C696 C700 1.401 . S
C696 C701 1.499 . S
N697 Co680 1.989 . S
N697 C696 1.342 . S
N697 N698 1.388 . S
N698 Co681 1.993 . S
N698 N697 1.388 . S
N698 C699 1.346 . S
C699 N698 1.346 . S
C699 C700 1.396 . S
C699 C709 1.510 . S
C700 C696 1.401 . S
C700 C699 1.396 . S
C701 C696 1.499 . S
C701 H702 0.959 . S
C701 H703 0.960 . S
C701 H704 0.961 . S
H702 C701 0.959 . S
H703 C701 0.960 . S
H704 C701 0.961 . S
O705 Co680 1.967 . S
O705 C713 1.258 . S
O706 Co681 1.941 . S
O706 C713 1.266 . S
H707 C709 0.959 . S
H708 C709 0.961 . S
C709 C699 1.510 . S
C709 H707 0.959 . S
C709 H708 0.961 . S
C709 H710 0.960 . S
H710 C709 0.960 . S
H711 N691 0.862 . S
O712 Co680 1.920 . S
O712 C685 1.289 . S
C713 O705 1.258 . S
C713 O706 1.266 . S
Co714 O717 1.970 . S
Co714 N731 1.989 . S
Co714 O739 1.967 . S
Co714 O746 1.920 . S
Co715 O718 1.966 . S
Co715 N724 2.022 . S
Co715 N732 1.993 . S
Co715 O740 1.941 . S
C716 O717 1.258 . S
C716 O718 1.263 . S
O717 Co714 1.970 . S
O717 C716 1.258 . S
O718 Co715 1.966 . S
O718 C716 1.263 . S
C719 O720 1.235 . S
C719 O746 1.289 . S
O720 C719 1.235 . S
C721 C723 1.400 . S
C721 N724 1.351 . S
C721 C726 1.501 . S
C722 C723 1.387 . S
C722 N725 1.341 . S
C723 C721 1.400 . S
C723 C722 1.387 . S
N724 Co715 2.022 . S
N724 C721 1.351 . S
N724 N725 1.365 . S
N725 C722 1.341 . S
N725 N724 1.365 . S
N725 H745 0.862 . S
C726 C721 1.501 . S
C726 H727 0.961 . S
C726 H728 0.961 . S
C726 H729 0.960 . S
H727 C726 0.961 . S
H728 C726 0.961 . S
H729 C726 0.960 . S
C730 N731 1.342 . S
C730 C734 1.401 . S
C730 C735 1.499 . S
N731 Co714 1.989 . S
N731 C730 1.342 . S
N731 N732 1.388 . S
N732 Co715 1.993 . S
N732 N731 1.388 . S
N732 C733 1.346 . S
C733 N732 1.346 . S
C733 C734 1.396 . S
C733 C743 1.510 . S
C734 C730 1.401 . S
C734 C733 1.396 . S
C735 C730 1.499 . S
C735 H736 0.959 . S
C735 H737 0.960 . S
C735 H738 0.961 . S
H736 C735 0.959 . S
H737 C735 0.960 . S
H738 C735 0.961 . S
O739 Co714 1.967 . S
O739 C747 1.258 . S
O740 Co715 1.941 . S
O740 C747 1.266 . S
H741 C743 0.959 . S
H742 C743 0.961 . S
C743 C733 1.510 . S
C743 H741 0.959 . S
C743 H742 0.961 . S
C743 H744 0.960 . S
H744 C743 0.960 . S
H745 N725 0.862 . S
O746 Co714 1.920 . S
O746 C719 1.289 . S
C747 O739 1.258 . S
C747 O740 1.266 . S
Co748 O751 1.970 . S
Co748 N765 1.989 . S
Co748 O773 1.967 . S
Co748 O780 1.920 . S
Co749 O752 1.966 . S
Co749 N758 2.022 . S
Co749 N766 1.993 . S
Co749 O774 1.941 . S
C750 O751 1.258 . S
C750 O752 1.263 . S
O751 Co748 1.970 . S
O751 C750 1.258 . S
O752 Co749 1.966 . S
O752 C750 1.263 . S
C753 O754 1.235 . S
C753 O780 1.289 . S
O754 C753 1.235 . S
C755 C757 1.400 . S
C755 N758 1.351 . S
C755 C760 1.501 . S
C756 C757 1.387 . S
C756 N759 1.341 . S
C757 C755 1.400 . S
C757 C756 1.387 . S
N758 Co749 2.022 . S
N758 C755 1.351 . S
N758 N759 1.365 . S
N759 C756 1.341 . S
N759 N758 1.365 . S
N759 H779 0.862 . S
C760 C755 1.501 . S
C760 H761 0.961 . S
C760 H762 0.961 . S
C760 H763 0.960 . S
H761 C760 0.961 . S
H762 C760 0.961 . S
H763 C760 0.960 . S
C764 N765 1.342 . S
C764 C768 1.401 . S
C764 C769 1.499 . S
N765 Co748 1.989 . S
N765 C764 1.342 . S
N765 N766 1.388 . S
N766 Co749 1.993 . S
N766 N765 1.388 . S
N766 C767 1.346 . S
C767 N766 1.346 . S
C767 C768 1.396 . S
C767 C777 1.510 . S
C768 C764 1.401 . S
C768 C767 1.396 . S
C769 C764 1.499 . S
C769 H770 0.959 . S
C769 H771 0.960 . S
C769 H772 0.961 . S
H770 C769 0.959 . S
H771 C769 0.960 . S
H772 C769 0.961 . S
O773 Co748 1.967 . S
O773 C781 1.258 . S
O774 Co749 1.941 . S
O774 C781 1.266 . S
H775 C777 0.959 . S
H776 C777 0.961 . S
C777 C767 1.510 . S
C777 H775 0.959 . S
C777 H776 0.961 . S
C777 H778 0.960 . S
H778 C777 0.960 . S
H779 N759 0.862 . S
O780 Co748 1.920 . S
O780 C753 1.289 . S
C781 O773 1.258 . S
C781 O774 1.266 . S
Co782 O785 1.970 . S
Co782 N799 1.989 . S
Co782 O807 1.967 . S
Co782 O814 1.920 . S
Co783 O786 1.966 . S
Co783 N792 2.022 . S
Co783 N800 1.993 . S
Co783 O808 1.941 . S
C784 O785 1.258 . S
C784 O786 1.263 . S
O785 Co782 1.970 . S
O785 C784 1.258 . S
O786 Co783 1.966 . S
O786 C784 1.263 . S
C787 O788 1.235 . S
C787 O814 1.289 . S
O788 C787 1.235 . S
C789 C791 1.400 . S
C789 N792 1.351 . S
C789 C794 1.501 . S
C790 C791 1.387 . S
C790 N793 1.341 . S
C791 C789 1.400 . S
C791 C790 1.387 . S
N792 Co783 2.022 . S
N792 C789 1.351 . S
N792 N793 1.365 . S
N793 C790 1.341 . S
N793 N792 1.365 . S
N793 H813 0.862 . S
C794 C789 1.501 . S
C794 H795 0.961 . S
C794 H796 0.961 . S
C794 H797 0.960 . S
H795 C794 0.961 . S
H796 C794 0.961 . S
H797 C794 0.960 . S
C798 N799 1.342 . S
C798 C802 1.401 . S
C798 C803 1.499 . S
N799 Co782 1.989 . S
N799 C798 1.342 . S
N799 N800 1.388 . S
N800 Co783 1.993 . S
N800 N799 1.388 . S
N800 C801 1.346 . S
C801 N800 1.346 . S
C801 C802 1.396 . S
C801 C811 1.510 . S
C802 C798 1.401 . S
C802 C801 1.396 . S
C803 C798 1.499 . S
C803 H804 0.959 . S
C803 H805 0.960 . S
C803 H806 0.961 . S
H804 C803 0.959 . S
H805 C803 0.960 . S
H806 C803 0.961 . S
O807 Co782 1.967 . S
O807 C815 1.258 . S
O808 Co783 1.941 . S
O808 C815 1.266 . S
H809 C811 0.959 . S
H810 C811 0.961 . S
C811 C801 1.510 . S
C811 H809 0.959 . S
C811 H810 0.961 . S
C811 H812 0.960 . S
H812 C811 0.960 . S
H813 N793 0.862 . S
O814 Co782 1.920 . S
O814 C787 1.289 . S
C815 O807 1.258 . S
C815 O808 1.266 . S
Co816 O819 1.970 . S
Co816 N833 1.989 . S
Co816 O841 1.967 . S
Co816 O848 1.920 . S
Co817 O820 1.966 . S
Co817 N826 2.022 . S
Co817 N834 1.993 . S
Co817 O842 1.941 . S
C818 O819 1.258 . S
C818 O820 1.263 . S
O819 Co816 1.970 . S
O819 C818 1.258 . S
O820 Co817 1.966 . S
O820 C818 1.263 . S
C821 O822 1.235 . S
C821 O848 1.289 . S
O822 C821 1.235 . S
C823 C825 1.400 . S
C823 N826 1.351 . S
C823 C828 1.501 . S
C824 C825 1.387 . S
C824 N827 1.341 . S
C825 C823 1.400 . S
C825 C824 1.387 . S
N826 Co817 2.022 . S
N826 C823 1.351 . S
N826 N827 1.365 . S
N827 C824 1.341 . S
N827 N826 1.365 . S
N827 H847 0.862 . S
C828 C823 1.501 . S
C828 H829 0.961 . S
C828 H830 0.961 . S
C828 H831 0.960 . S
H829 C828 0.961 . S
H830 C828 0.961 . S
H831 C828 0.960 . S
C832 N833 1.342 . S
C832 C836 1.401 . S
C832 C837 1.499 . S
N833 Co816 1.989 . S
N833 C832 1.342 . S
N833 N834 1.388 . S
N834 Co817 1.993 . S
N834 N833 1.388 . S
N834 C835 1.346 . S
C835 N834 1.346 . S
C835 C836 1.396 . S
C835 C845 1.510 . S
C836 C832 1.401 . S
C836 C835 1.396 . S
C837 C832 1.499 . S
C837 H838 0.959 . S
C837 H839 0.960 . S
C837 H840 0.961 . S
H838 C837 0.959 . S
H839 C837 0.960 . S
H840 C837 0.961 . S
O841 Co816 1.967 . S
O841 C849 1.258 . S
O842 Co817 1.941 . S
O842 C849 1.266 . S
H843 C845 0.959 . S
H844 C845 0.961 . S
C845 C835 1.510 . S
C845 H843 0.959 . S
C845 H844 0.961 . S
C845 H846 0.960 . S
H846 C845 0.960 . S
H847 N827 0.862 . S
O848 Co816 1.920 . S
O848 C821 1.289 . S
C849 O841 1.258 . S
C849 O842 1.266 . S
Co850 O853 1.970 . S
Co850 N867 1.989 . S
Co850 O875 1.967 . S
Co850 O882 1.920 . S
Co851 O854 1.966 . S
Co851 N860 2.022 . S
Co851 N868 1.993 . S
Co851 O876 1.941 . S
C852 O853 1.258 . S
C852 O854 1.263 . S
O853 Co850 1.970 . S
O853 C852 1.258 . S
O854 Co851 1.966 . S
O854 C852 1.263 . S
C855 O856 1.235 . S
C855 O882 1.289 . S
O856 C855 1.235 . S
C857 C859 1.400 . S
C857 N860 1.351 . S
C857 C862 1.501 . S
C858 C859 1.387 . S
C858 N861 1.341 . S
C859 C857 1.400 . S
C859 C858 1.387 . S
N860 Co851 2.022 . S
N860 C857 1.351 . S
N860 N861 1.365 . S
N861 C858 1.341 . S
N861 N860 1.365 . S
N861 H881 0.862 . S
C862 C857 1.501 . S
C862 H863 0.961 . S
C862 H864 0.961 . S
C862 H865 0.960 . S
H863 C862 0.961 . S
H864 C862 0.961 . S
H865 C862 0.960 . S
C866 N867 1.342 . S
C866 C870 1.401 . S
C866 C871 1.499 . S
N867 Co850 1.989 . S
N867 C866 1.342 . S
N867 N868 1.388 . S
N868 Co851 1.993 . S
N868 N867 1.388 . S
N868 C869 1.346 . S
C869 N868 1.346 . S
C869 C870 1.396 . S
C869 C879 1.510 . S
C870 C866 1.401 . S
C870 C869 1.396 . S
C871 C866 1.499 . S
C871 H872 0.959 . S
C871 H873 0.960 . S
C871 H874 0.961 . S
H872 C871 0.959 . S
H873 C871 0.960 . S
H874 C871 0.961 . S
O875 Co850 1.967 . S
O875 C883 1.258 . S
O876 Co851 1.941 . S
O876 C883 1.266 . S
H877 C879 0.959 . S
H878 C879 0.961 . S
C879 C869 1.510 . S
C879 H877 0.959 . S
C879 H878 0.961 . S
C879 H880 0.960 . S
H880 C879 0.960 . S
H881 N861 0.862 . S
O882 Co850 1.920 . S
O882 C855 1.289 . S
C883 O875 1.258 . S
C883 O876 1.266 . S
Co884 O887 1.970 . S
Co884 N901 1.989 . S
Co884 O909 1.967 1_655 S
Co884 O916 1.920 . S
Co885 O888 1.966 . S
Co885 N894 2.022 . S
Co885 N902 1.993 1_455 S
Co885 O910 1.941 . S
C886 O887 1.258 1_455 S
C886 O888 1.263 . S
O887 Co884 1.970 . S
O887 C886 1.258 1_655 S
O888 Co885 1.966 . S
O888 C886 1.263 . S
C889 O890 1.235 . S
C889 O916 1.289 . S
O890 C889 1.235 . S
C891 C893 1.400 . S
C891 N894 1.351 . S
C891 C896 1.501 . S
C892 C893 1.387 . S
C892 N895 1.341 . S
C893 C891 1.400 . S
C893 C892 1.387 . S
N894 Co885 2.022 . S
N894 C891 1.351 . S
N894 N895 1.365 . S
N895 C892 1.341 . S
N895 N894 1.365 . S
N895 H915 0.862 . S
C896 C891 1.501 . S
C896 H897 0.961 . S
C896 H898 0.961 . S
C896 H899 0.960 . S
H897 C896 0.961 . S
H898 C896 0.961 . S
H899 C896 0.960 . S
C900 N901 1.342 . S
C900 C904 1.401 . S
C900 C905 1.499 . S
N901 Co884 1.989 . S
N901 C900 1.342 . S
N901 N902 1.388 . S
N902 Co885 1.993 1_655 S
N902 N901 1.388 . S
N902 C903 1.346 . S
C903 N902 1.346 . S
C903 C904 1.396 . S
C903 C913 1.510 1_655 S
C904 C900 1.401 . S
C904 C903 1.396 . S
C905 C900 1.499 . S
C905 H906 0.959 . S
C905 H907 0.960 . S
C905 H908 0.961 . S
H906 C905 0.959 . S
H907 C905 0.960 . S
H908 C905 0.961 . S
O909 Co884 1.967 1_455 S
O909 C917 1.258 . S
O910 Co885 1.941 . S
O910 C917 1.266 . S
H911 C913 0.959 . S
H912 C913 0.961 1_655 S
C913 C903 1.510 1_455 S
C913 H911 0.959 . S
C913 H912 0.961 1_455 S
C913 H914 0.960 . S
H914 C913 0.960 . S
H915 N895 0.862 . S
O916 Co884 1.920 . S
O916 C889 1.289 . S
C917 O909 1.258 . S
C917 O910 1.266 . S
Co918 O921 1.970 . S
Co918 N935 1.989 . S
Co918 O943 1.967 . S
Co918 O950 1.920 . S
Co919 O922 1.966 . S
Co919 N928 2.022 . S
Co919 N936 1.993 . S
Co919 O944 1.941 . S
C920 O921 1.258 . S
C920 O922 1.263 . S
O921 Co918 1.970 . S
O921 C920 1.258 . S
O922 Co919 1.966 . S
O922 C920 1.263 . S
C923 O924 1.235 . S
C923 O950 1.289 . S
O924 C923 1.235 . S
C925 C927 1.400 . S
C925 N928 1.351 . S
C925 C930 1.501 . S
C926 C927 1.387 . S
C926 N929 1.341 . S
C927 C925 1.400 . S
C927 C926 1.387 . S
N928 Co919 2.022 . S
N928 C925 1.351 . S
N928 N929 1.365 . S
N929 C926 1.341 . S
N929 N928 1.365 . S
N929 H949 0.862 . S
C930 C925 1.501 . S
C930 H931 0.961 . S
C930 H932 0.961 . S
C930 H933 0.960 . S
H931 C930 0.961 . S
H932 C930 0.961 . S
H933 C930 0.960 . S
C934 N935 1.342 . S
C934 C938 1.401 . S
C934 C939 1.499 . S
N935 Co918 1.989 . S
N935 C934 1.342 . S
N935 N936 1.388 . S
N936 Co919 1.993 . S
N936 N935 1.388 . S
N936 C937 1.346 . S
C937 N936 1.346 . S
C937 C938 1.396 . S
C937 C947 1.510 . S
C938 C934 1.401 . S
C938 C937 1.396 . S
C939 C934 1.499 . S
C939 H940 0.959 . S
C939 H941 0.960 . S
C939 H942 0.961 . S
H940 C939 0.959 . S
H941 C939 0.960 . S
H942 C939 0.961 . S
O943 Co918 1.967 . S
O943 C951 1.258 . S
O944 Co919 1.941 . S
O944 C951 1.266 . S
H945 C947 0.959 . S
H946 C947 0.961 . S
C947 C937 1.510 . S
C947 H945 0.959 . S
C947 H946 0.961 . S
C947 H948 0.960 . S
H948 C947 0.960 . S
H949 N929 0.862 . S
O950 Co918 1.920 . S
O950 C923 1.289 . S
C951 O943 1.258 . S
C951 O944 1.266 . S
Co952 O955 1.970 . S
Co952 N969 1.989 . S
Co952 O977 1.967 . S
Co952 O984 1.920 . S
Co953 O956 1.966 . S
Co953 N962 2.022 . S
Co953 N970 1.993 . S
Co953 O978 1.941 . S
C954 O955 1.258 . S
C954 O956 1.263 . S
O955 Co952 1.970 . S
O955 C954 1.258 . S
O956 Co953 1.966 . S
O956 C954 1.263 . S
C957 O958 1.235 . S
C957 O984 1.289 . S
O958 C957 1.235 . S
C959 C961 1.400 . S
C959 N962 1.351 . S
C959 C964 1.501 . S
C960 C961 1.387 . S
C960 N963 1.341 . S
C961 C959 1.400 . S
C961 C960 1.387 . S
N962 Co953 2.022 . S
N962 C959 1.351 . S
N962 N963 1.365 . S
N963 C960 1.341 . S
N963 N962 1.365 . S
N963 H983 0.862 . S
C964 C959 1.501 . S
C964 H965 0.961 . S
C964 H966 0.961 . S
C964 H967 0.960 . S
H965 C964 0.961 . S
H966 C964 0.961 . S
H967 C964 0.960 . S
C968 N969 1.342 . S
C968 C972 1.401 . S
C968 C973 1.499 . S
N969 Co952 1.989 . S
N969 C968 1.342 . S
N969 N970 1.388 . S
N970 Co953 1.993 . S
N970 N969 1.388 . S
N970 C971 1.346 . S
C971 N970 1.346 . S
C971 C972 1.396 . S
C971 C981 1.510 . S
C972 C968 1.401 . S
C972 C971 1.396 . S
C973 C968 1.499 . S
C973 H974 0.959 . S
C973 H975 0.960 . S
C973 H976 0.961 . S
H974 C973 0.959 . S
H975 C973 0.960 . S
H976 C973 0.961 . S
O977 Co952 1.967 . S
O977 C985 1.258 . S
O978 Co953 1.941 . S
O978 C985 1.266 . S
H979 C981 0.959 . S
H980 C981 0.961 . S
C981 C971 1.510 . S
C981 H979 0.959 . S
C981 H980 0.961 . S
C981 H982 0.960 . S
H982 C981 0.960 . S
H983 N963 0.862 . S
O984 Co952 1.920 . S
O984 C957 1.289 . S
C985 O977 1.258 . S
C985 O978 1.266 . S
Co986 O989 1.970 . S
Co986 N1003 1.989 . S
Co986 O1011 1.967 . S
Co986 O1018 1.920 . S
Co987 O990 1.966 . S
Co987 N996 2.022 . S
Co987 N1004 1.993 . S
Co987 O1012 1.941 . S
C988 O989 1.258 . S
C988 O990 1.263 . S
O989 Co986 1.970 . S
O989 C988 1.258 . S
O990 Co987 1.966 . S
O990 C988 1.263 . S
C991 O992 1.235 . S
C991 O1018 1.289 . S
O992 C991 1.235 . S
C993 C995 1.400 . S
C993 N996 1.351 . S
C993 C998 1.501 . S
C994 C995 1.387 . S
C994 N997 1.341 . S
C995 C993 1.400 . S
C995 C994 1.387 . S
N996 Co987 2.022 . S
N996 C993 1.351 . S
N996 N997 1.365 . S
N997 C994 1.341 . S
N997 N996 1.365 . S
N997 H1017 0.862 . S
C998 C993 1.501 . S
C998 H999 0.961 . S
C998 H1000 0.961 . S
C998 H1001 0.960 . S
H999 C998 0.961 . S
H1000 C998 0.961 . S
H1001 C998 0.960 . S
C1002 N1003 1.342 . S
C1002 C1006 1.401 . S
C1002 C1007 1.499 . S
N1003 Co986 1.989 . S
N1003 C1002 1.342 . S
N1003 N1004 1.388 . S
N1004 Co987 1.993 . S
N1004 N1003 1.388 . S
N1004 C1005 1.346 . S
C1005 N1004 1.346 . S
C1005 C1006 1.396 . S
C1005 C1015 1.510 . S
C1006 C1002 1.401 . S
C1006 C1005 1.396 . S
C1007 C1002 1.499 . S
C1007 H1008 0.959 . S
C1007 H1009 0.960 . S
C1007 H1010 0.961 . S
H1008 C1007 0.959 . S
H1009 C1007 0.960 . S
H1010 C1007 0.961 . S
O1011 Co986 1.967 . S
O1011 C1019 1.258 . S
O1012 Co987 1.941 . S
O1012 C1019 1.266 . S
H1013 C1015 0.959 . S
H1014 C1015 0.961 . S
C1015 C1005 1.510 . S
C1015 H1013 0.959 . S
C1015 H1014 0.961 . S
C1015 H1016 0.960 . S
H1016 C1015 0.960 . S
H1017 N997 0.862 . S
O1018 Co986 1.920 . S
O1018 C991 1.289 . S
C1019 O1011 1.258 . S
C1019 O1012 1.266 . S
Co1020 O1023 1.970 . S
Co1020 N1037 1.989 . S
Co1020 O1045 1.967 1_655 S
Co1020 O1052 1.920 . S
Co1021 O1024 1.966 . S
Co1021 N1030 2.022 . S
Co1021 N1038 1.993 1_455 S
Co1021 O1046 1.941 . S
C1022 O1023 1.258 1_455 S
C1022 O1024 1.263 . S
O1023 Co1020 1.970 . S
O1023 C1022 1.258 1_655 S
O1024 Co1021 1.966 . S
O1024 C1022 1.263 . S
C1025 O1026 1.235 . S
C1025 O1052 1.289 . S
O1026 C1025 1.235 . S
C1027 C1029 1.400 . S
C1027 N1030 1.351 . S
C1027 C1032 1.501 . S
C1028 C1029 1.387 . S
C1028 N1031 1.341 . S
C1029 C1027 1.400 . S
C1029 C1028 1.387 . S
N1030 Co1021 2.022 . S
N1030 C1027 1.351 . S
N1030 N1031 1.365 . S
N1031 C1028 1.341 . S
N1031 N1030 1.365 . S
N1031 H1051 0.862 . S
C1032 C1027 1.501 . S
C1032 H1033 0.961 . S
C1032 H1034 0.961 . S
C1032 H1035 0.960 . S
H1033 C1032 0.961 . S
H1034 C1032 0.961 . S
H1035 C1032 0.960 . S
C1036 N1037 1.342 . S
C1036 C1040 1.401 . S
C1036 C1041 1.499 . S
N1037 Co1020 1.989 . S
N1037 C1036 1.342 . S
N1037 N1038 1.388 . S
N1038 Co1021 1.993 1_655 S
N1038 N1037 1.388 . S
N1038 C1039 1.346 . S
C1039 N1038 1.346 . S
C1039 C1040 1.396 . S
C1039 C1049 1.510 1_655 S
C1040 C1036 1.401 . S
C1040 C1039 1.396 . S
C1041 C1036 1.499 . S
C1041 H1042 0.959 . S
C1041 H1043 0.960 . S
C1041 H1044 0.961 . S
H1042 C1041 0.959 . S
H1043 C1041 0.960 . S
H1044 C1041 0.961 . S
O1045 Co1020 1.967 1_455 S
O1045 C1053 1.258 . S
O1046 Co1021 1.941 . S
O1046 C1053 1.266 . S
H1047 C1049 0.959 . S
H1048 C1049 0.961 1_655 S
C1049 C1039 1.510 1_455 S
C1049 H1047 0.959 . S
C1049 H1048 0.961 1_455 S
C1049 H1050 0.960 . S
H1050 C1049 0.960 . S
H1051 N1031 0.862 . S
O1052 Co1020 1.920 . S
O1052 C1025 1.289 . S
C1053 O1045 1.258 . S
C1053 O1046 1.266 . S
Co1054 O1057 1.970 . S
Co1054 N1071 1.989 . S
Co1054 O1079 1.967 . S
Co1054 O1086 1.920 . S
Co1055 O1058 1.966 . S
Co1055 N1064 2.022 . S
Co1055 N1072 1.993 . S
Co1055 O1080 1.941 . S
C1056 O1057 1.258 . S
C1056 O1058 1.263 . S
O1057 Co1054 1.970 . S
O1057 C1056 1.258 . S
O1058 Co1055 1.966 . S
O1058 C1056 1.263 . S
C1059 O1060 1.235 . S
C1059 O1086 1.289 . S
O1060 C1059 1.235 . S
C1061 C1063 1.400 . S
C1061 N1064 1.351 . S
C1061 C1066 1.501 . S
C1062 C1063 1.387 . S
C1062 N1065 1.341 . S
C1063 C1061 1.400 . S
C1063 C1062 1.387 . S
N1064 Co1055 2.022 . S
N1064 C1061 1.351 . S
N1064 N1065 1.365 . S
N1065 C1062 1.341 . S
N1065 N1064 1.365 . S
N1065 H1085 0.862 . S
C1066 C1061 1.501 . S
C1066 H1067 0.961 . S
C1066 H1068 0.961 . S
C1066 H1069 0.960 . S
H1067 C1066 0.961 . S
H1068 C1066 0.961 . S
H1069 C1066 0.960 . S
C1070 N1071 1.342 . S
C1070 C1074 1.401 . S
C1070 C1075 1.499 . S
N1071 Co1054 1.989 . S
N1071 C1070 1.342 . S
N1071 N1072 1.388 . S
N1072 Co1055 1.993 . S
N1072 N1071 1.388 . S
N1072 C1073 1.346 . S
C1073 N1072 1.346 . S
C1073 C1074 1.396 . S
C1073 C1083 1.510 . S
C1074 C1070 1.401 . S
C1074 C1073 1.396 . S
C1075 C1070 1.499 . S
C1075 H1076 0.959 . S
C1075 H1077 0.960 . S
C1075 H1078 0.961 . S
H1076 C1075 0.959 . S
H1077 C1075 0.960 . S
H1078 C1075 0.961 . S
O1079 Co1054 1.967 . S
O1079 C1087 1.258 . S
O1080 Co1055 1.941 . S
O1080 C1087 1.266 . S
H1081 C1083 0.959 . S
H1082 C1083 0.961 . S
C1083 C1073 1.510 . S
C1083 H1081 0.959 . S
C1083 H1082 0.961 . S
C1083 H1084 0.960 . S
H1084 C1083 0.960 . S
H1085 N1065 0.862 . S
O1086 Co1054 1.920 . S
O1086 C1059 1.289 . S
C1087 O1079 1.258 . S
C1087 O1080 1.266 . S
Co1088 O1091 1.970 . S
Co1088 N1105 1.989 . S
Co1088 O1113 1.967 . S
Co1088 O1120 1.920 . S
Co1089 O1092 1.966 . S
Co1089 N1098 2.022 . S
Co1089 N1106 1.993 . S
Co1089 O1114 1.941 . S
C1090 O1091 1.258 . S
C1090 O1092 1.263 . S
O1091 Co1088 1.970 . S
O1091 C1090 1.258 . S
O1092 Co1089 1.966 . S
O1092 C1090 1.263 . S
C1093 O1094 1.235 . S
C1093 O1120 1.289 . S
O1094 C1093 1.235 . S
C1095 C1097 1.400 . S
C1095 N1098 1.351 . S
C1095 C1100 1.501 . S
C1096 C1097 1.387 . S
C1096 N1099 1.341 . S
C1097 C1095 1.400 . S
C1097 C1096 1.387 . S
N1098 Co1089 2.022 . S
N1098 C1095 1.351 . S
N1098 N1099 1.365 . S
N1099 C1096 1.341 . S
N1099 N1098 1.365 . S
N1099 H1119 0.862 . S
C1100 C1095 1.501 . S
C1100 H1101 0.961 . S
C1100 H1102 0.961 . S
C1100 H1103 0.960 . S
H1101 C1100 0.961 . S
H1102 C1100 0.961 . S
H1103 C1100 0.960 . S
C1104 N1105 1.342 . S
C1104 C1108 1.401 . S
C1104 C1109 1.499 . S
N1105 Co1088 1.989 . S
N1105 C1104 1.342 . S
N1105 N1106 1.388 . S
N1106 Co1089 1.993 . S
N1106 N1105 1.388 . S
N1106 C1107 1.346 . S
C1107 N1106 1.346 . S
C1107 C1108 1.396 . S
C1107 C1117 1.510 . S
C1108 C1104 1.401 . S
C1108 C1107 1.396 . S
C1109 C1104 1.499 . S
C1109 H1110 0.959 . S
C1109 H1111 0.960 . S
C1109 H1112 0.961 . S
H1110 C1109 0.959 . S
H1111 C1109 0.960 . S
H1112 C1109 0.961 . S
O1113 Co1088 1.967 . S
O1113 C1121 1.258 . S
O1114 Co1089 1.941 . S
O1114 C1121 1.266 . S
H1115 C1117 0.959 . S
H1116 C1117 0.961 . S
C1117 C1107 1.510 . S
C1117 H1115 0.959 . S
C1117 H1116 0.961 . S
C1117 H1118 0.960 . S
H1118 C1117 0.960 . S
H1119 N1099 0.862 . S
O1120 Co1088 1.920 . S
O1120 C1093 1.289 . S
C1121 O1113 1.258 . S
C1121 O1114 1.266 . S
Co1122 O1125 1.970 . S
Co1122 N1139 1.989 . S
Co1122 O1147 1.967 . S
Co1122 O1154 1.920 . S
Co1123 O1126 1.966 . S
Co1123 N1132 2.022 . S
Co1123 N1140 1.993 . S
Co1123 O1148 1.941 . S
C1124 O1125 1.258 . S
C1124 O1126 1.263 . S
O1125 Co1122 1.970 . S
O1125 C1124 1.258 . S
O1126 Co1123 1.966 . S
O1126 C1124 1.263 . S
C1127 O1128 1.235 . S
C1127 O1154 1.289 . S
O1128 C1127 1.235 . S
C1129 C1131 1.400 . S
C1129 N1132 1.351 . S
C1129 C1134 1.501 . S
C1130 C1131 1.387 . S
C1130 N1133 1.341 . S
C1131 C1129 1.400 . S
C1131 C1130 1.387 . S
N1132 Co1123 2.022 . S
N1132 C1129 1.351 . S
N1132 N1133 1.365 . S
N1133 C1130 1.341 . S
N1133 N1132 1.365 . S
N1133 H1153 0.862 . S
C1134 C1129 1.501 . S
C1134 H1135 0.961 . S
C1134 H1136 0.961 . S
C1134 H1137 0.960 . S
H1135 C1134 0.961 . S
H1136 C1134 0.961 . S
H1137 C1134 0.960 . S
C1138 N1139 1.342 . S
C1138 C1142 1.401 . S
C1138 C1143 1.499 . S
N1139 Co1122 1.989 . S
N1139 C1138 1.342 . S
N1139 N1140 1.388 . S
N1140 Co1123 1.993 . S
N1140 N1139 1.388 . S
N1140 C1141 1.346 . S
C1141 N1140 1.346 . S
C1141 C1142 1.396 . S
C1141 C1151 1.510 . S
C1142 C1138 1.401 . S
C1142 C1141 1.396 . S
C1143 C1138 1.499 . S
C1143 H1144 0.959 . S
C1143 H1145 0.960 . S
C1143 H1146 0.961 . S
H1144 C1143 0.959 . S
H1145 C1143 0.960 . S
H1146 C1143 0.961 . S
O1147 Co1122 1.967 . S
O1147 C1155 1.258 . S
O1148 Co1123 1.941 . S
O1148 C1155 1.266 . S
H1149 C1151 0.959 . S
H1150 C1151 0.961 . S
C1151 C1141 1.510 . S
C1151 H1149 0.959 . S
C1151 H1150 0.961 . S
C1151 H1152 0.960 . S
H1152 C1151 0.960 . S
H1153 N1133 0.862 . S
O1154 Co1122 1.920 . S
O1154 C1127 1.289 . S
C1155 O1147 1.258 . S
C1155 O1148 1.266 . S
Co1156 O1159 1.970 . S
Co1156 N1173 1.989 . S
Co1156 O1181 1.967 . S
Co1156 O1188 1.920 . S
Co1157 O1160 1.966 . S
Co1157 N1166 2.022 . S
Co1157 N1174 1.993 . S
Co1157 O1182 1.941 . S
C1158 O1159 1.258 . S
C1158 O1160 1.263 . S
O1159 Co1156 1.970 . S
O1159 C1158 1.258 . S
O1160 Co1157 1.966 . S
O1160 C1158 1.263 . S
C1161 O1162 1.235 . S
C1161 O1188 1.289 . S
O1162 C1161 1.235 . S
C1163 C1165 1.400 . S
C1163 N1166 1.351 1_556 S
C1163 C1168 1.501 . S
C1164 C1165 1.387 . S
C1164 N1167 1.341 1_556 S
C1165 C1163 1.400 . S
C1165 C1164 1.387 . S
N1166 Co1157 2.022 . S
N1166 C1163 1.351 1_554 S
N1166 N1167 1.365 . S
N1167 C1164 1.341 1_554 S
N1167 N1166 1.365 . S
N1167 H1187 0.862 . S
C1168 C1163 1.501 . S
C1168 H1169 0.961 . S
C1168 H1170 0.961 . S
C1168 H1171 0.960 . S
H1169 C1168 0.961 . S
H1170 C1168 0.961 . S
H1171 C1168 0.960 . S
C1172 N1173 1.342 . S
C1172 C1176 1.401 . S
C1172 C1177 1.499 . S
N1173 Co1156 1.989 . S
N1173 C1172 1.342 . S
N1173 N1174 1.388 . S
N1174 Co1157 1.993 . S
N1174 N1173 1.388 . S
N1174 C1175 1.346 . S
C1175 N1174 1.346 . S
C1175 C1176 1.396 . S
C1175 C1185 1.510 . S
C1176 C1172 1.401 . S
C1176 C1175 1.396 . S
C1177 C1172 1.499 . S
C1177 H1178 0.959 . S
C1177 H1179 0.960 . S
C1177 H1180 0.961 . S
H1178 C1177 0.959 . S
H1179 C1177 0.960 . S
H1180 C1177 0.961 . S
O1181 Co1156 1.967 . S
O1181 C1189 1.258 . S
O1182 Co1157 1.941 . S
O1182 C1189 1.266 . S
H1183 C1185 0.959 . S
H1184 C1185 0.961 1_556 S
C1185 C1175 1.510 . S
C1185 H1183 0.959 . S
C1185 H1184 0.961 1_554 S
C1185 H1186 0.960 . S
H1186 C1185 0.960 . S
H1187 N1167 0.862 . S
O1188 Co1156 1.920 . S
O1188 C1161 1.289 . S
C1189 O1181 1.258 . S
C1189 O1182 1.266 . S
Co1190 O1193 1.970 . S
Co1190 N1207 1.989 . S
Co1190 O1215 1.967 . S
Co1190 O1222 1.920 . S
Co1191 O1194 1.966 . S
Co1191 N1200 2.022 . S
Co1191 N1208 1.993 . S
Co1191 O1216 1.941 . S
C1192 O1193 1.258 . S
C1192 O1194 1.263 . S
O1193 Co1190 1.970 . S
O1193 C1192 1.258 . S
O1194 Co1191 1.966 . S
O1194 C1192 1.263 . S
C1195 O1196 1.235 . S
C1195 O1222 1.289 . S
O1196 C1195 1.235 . S
C1197 C1199 1.400 . S
C1197 N1200 1.351 . S
C1197 C1202 1.501 . S
C1198 C1199 1.387 . S
C1198 N1201 1.341 . S
C1199 C1197 1.400 . S
C1199 C1198 1.387 . S
N1200 Co1191 2.022 . S
N1200 C1197 1.351 . S
N1200 N1201 1.365 . S
N1201 C1198 1.341 . S
N1201 N1200 1.365 . S
N1201 H1221 0.862 . S
C1202 C1197 1.501 . S
C1202 H1203 0.961 . S
C1202 H1204 0.961 . S
C1202 H1205 0.960 . S
H1203 C1202 0.961 . S
H1204 C1202 0.961 . S
H1205 C1202 0.960 . S
C1206 N1207 1.342 . S
C1206 C1210 1.401 . S
C1206 C1211 1.499 . S
N1207 Co1190 1.989 . S
N1207 C1206 1.342 . S
N1207 N1208 1.388 . S
N1208 Co1191 1.993 . S
N1208 N1207 1.388 . S
N1208 C1209 1.346 . S
C1209 N1208 1.346 . S
C1209 C1210 1.396 . S
C1209 C1219 1.510 . S
C1210 C1206 1.401 . S
C1210 C1209 1.396 . S
C1211 C1206 1.499 . S
C1211 H1212 0.959 . S
C1211 H1213 0.960 . S
C1211 H1214 0.961 . S
H1212 C1211 0.959 . S
H1213 C1211 0.960 . S
H1214 C1211 0.961 . S
O1215 Co1190 1.967 . S
O1215 C1223 1.258 . S
O1216 Co1191 1.941 . S
O1216 C1223 1.266 . S
H1217 C1219 0.959 . S
H1218 C1219 0.961 . S
C1219 C1209 1.510 . S
C1219 H1217 0.959 . S
C1219 H1218 0.961 . S
C1219 H1220 0.960 . S
H1220 C1219 0.960 . S
H1221 N1201 0.862 . S
O1222 Co1190 1.920 . S
O1222 C1195 1.289 . S
C1223 O1215 1.258 . S
C1223 O1216 1.266 . S
Co1224 O1227 1.970 . S
Co1224 N1241 1.989 . S
Co1224 O1249 1.967 . S
Co1224 O1256 1.920 . S
Co1225 O1228 1.966 . S
Co1225 N1234 2.022 . S
Co1225 N1242 1.993 . S
Co1225 O1250 1.941 . S
C1226 O1227 1.258 . S
C1226 O1228 1.263 . S
O1227 Co1224 1.970 . S
O1227 C1226 1.258 . S
O1228 Co1225 1.966 . S
O1228 C1226 1.263 . S
C1229 O1230 1.235 . S
C1229 O1256 1.289 . S
O1230 C1229 1.235 . S
C1231 C1233 1.400 . S
C1231 N1234 1.351 1_554 S
C1231 C1236 1.501 . S
C1232 C1233 1.387 . S
C1232 N1235 1.341 1_554 S
C1233 C1231 1.400 . S
C1233 C1232 1.387 . S
N1234 Co1225 2.022 . S
N1234 C1231 1.351 1_556 S
N1234 N1235 1.365 . S
N1235 C1232 1.341 1_556 S
N1235 N1234 1.365 . S
N1235 H1255 0.862 . S
C1236 C1231 1.501 . S
C1236 H1237 0.961 . S
C1236 H1238 0.961 . S
C1236 H1239 0.960 . S
H1237 C1236 0.961 . S
H1238 C1236 0.961 . S
H1239 C1236 0.960 . S
C1240 N1241 1.342 . S
C1240 C1244 1.401 . S
C1240 C1245 1.499 . S
N1241 Co1224 1.989 . S
N1241 C1240 1.342 . S
N1241 N1242 1.388 . S
N1242 Co1225 1.993 . S
N1242 N1241 1.388 . S
N1242 C1243 1.346 . S
C1243 N1242 1.346 . S
C1243 C1244 1.396 . S
C1243 C1253 1.510 . S
C1244 C1240 1.401 . S
C1244 C1243 1.396 . S
C1245 C1240 1.499 . S
C1245 H1246 0.959 . S
C1245 H1247 0.960 . S
C1245 H1248 0.961 . S
H1246 C1245 0.959 . S
H1247 C1245 0.960 . S
H1248 C1245 0.961 . S
O1249 Co1224 1.967 . S
O1249 C1257 1.258 . S
O1250 Co1225 1.941 . S
O1250 C1257 1.266 . S
H1251 C1253 0.959 . S
H1252 C1253 0.961 1_554 S
C1253 C1243 1.510 . S
C1253 H1251 0.959 . S
C1253 H1252 0.961 1_556 S
C1253 H1254 0.960 . S
H1254 C1253 0.960 . S
H1255 N1235 0.862 . S
O1256 Co1224 1.920 . S
O1256 C1229 1.289 . S
C1257 O1249 1.258 . S
C1257 O1250 1.266 . S
Co1258 O1261 1.970 . S
Co1258 N1275 1.989 . S
Co1258 O1283 1.967 . S
Co1258 O1290 1.920 . S
Co1259 O1262 1.966 . S
Co1259 N1268 2.022 . S
Co1259 N1276 1.993 . S
Co1259 O1284 1.941 . S
C1260 O1261 1.258 . S
C1260 O1262 1.263 . S
O1261 Co1258 1.970 . S
O1261 C1260 1.258 . S
O1262 Co1259 1.966 . S
O1262 C1260 1.263 . S
C1263 O1264 1.235 . S
C1263 O1290 1.289 . S
O1264 C1263 1.235 . S
C1265 C1267 1.400 . S
C1265 N1268 1.351 . S
C1265 C1270 1.501 . S
C1266 C1267 1.387 . S
C1266 N1269 1.341 . S
C1267 C1265 1.400 . S
C1267 C1266 1.387 . S
N1268 Co1259 2.022 . S
N1268 C1265 1.351 . S
N1268 N1269 1.365 . S
N1269 C1266 1.341 . S
N1269 N1268 1.365 . S
N1269 H1289 0.862 . S
C1270 C1265 1.501 . S
C1270 H1271 0.961 . S
C1270 H1272 0.961 . S
C1270 H1273 0.960 . S
H1271 C1270 0.961 . S
H1272 C1270 0.961 . S
H1273 C1270 0.960 . S
C1274 N1275 1.342 . S
C1274 C1278 1.401 . S
C1274 C1279 1.499 . S
N1275 Co1258 1.989 . S
N1275 C1274 1.342 . S
N1275 N1276 1.388 . S
N1276 Co1259 1.993 . S
N1276 N1275 1.388 . S
N1276 C1277 1.346 . S
C1277 N1276 1.346 . S
C1277 C1278 1.396 . S
C1277 C1287 1.510 . S
C1278 C1274 1.401 . S
C1278 C1277 1.396 . S
C1279 C1274 1.499 . S
C1279 H1280 0.959 . S
C1279 H1281 0.960 . S
C1279 H1282 0.961 . S
H1280 C1279 0.959 . S
H1281 C1279 0.960 . S
H1282 C1279 0.961 . S
O1283 Co1258 1.967 . S
O1283 C1291 1.258 . S
O1284 Co1259 1.941 . S
O1284 C1291 1.266 . S
H1285 C1287 0.959 . S
H1286 C1287 0.961 . S
C1287 C1277 1.510 . S
C1287 H1285 0.959 . S
C1287 H1286 0.961 . S
C1287 H1288 0.960 . S
H1288 C1287 0.960 . S
H1289 N1269 0.862 . S
O1290 Co1258 1.920 . S
O1290 C1263 1.289 . S
C1291 O1283 1.258 . S
C1291 O1284 1.266 . S
Co1292 O1295 1.970 . S
Co1292 N1309 1.989 . S
Co1292 O1317 1.967 . S
Co1292 O1324 1.920 . S
Co1293 O1296 1.966 . S
Co1293 N1302 2.022 . S
Co1293 N1310 1.993 . S
Co1293 O1318 1.941 . S
C1294 O1295 1.258 . S
C1294 O1296 1.263 . S
O1295 Co1292 1.970 . S
O1295 C1294 1.258 . S
O1296 Co1293 1.966 . S
O1296 C1294 1.263 . S
C1297 O1298 1.235 . S
C1297 O1324 1.289 . S
O1298 C1297 1.235 . S
C1299 C1301 1.400 . S
C1299 N1302 1.351 . S
C1299 C1304 1.501 . S
C1300 C1301 1.387 . S
C1300 N1303 1.341 . S
C1301 C1299 1.400 . S
C1301 C1300 1.387 . S
N1302 Co1293 2.022 . S
N1302 C1299 1.351 . S
N1302 N1303 1.365 . S
N1303 C1300 1.341 . S
N1303 N1302 1.365 . S
N1303 H1323 0.862 . S
C1304 C1299 1.501 . S
C1304 H1305 0.961 . S
C1304 H1306 0.961 . S
C1304 H1307 0.960 . S
H1305 C1304 0.961 . S
H1306 C1304 0.961 . S
H1307 C1304 0.960 . S
C1308 N1309 1.342 . S
C1308 C1312 1.401 . S
C1308 C1313 1.499 . S
N1309 Co1292 1.989 . S
N1309 C1308 1.342 . S
N1309 N1310 1.388 . S
N1310 Co1293 1.993 . S
N1310 N1309 1.388 . S
N1310 C1311 1.346 . S
C1311 N1310 1.346 . S
C1311 C1312 1.396 . S
C1311 C1321 1.510 . S
C1312 C1308 1.401 . S
C1312 C1311 1.396 . S
C1313 C1308 1.499 . S
C1313 H1314 0.959 . S
C1313 H1315 0.960 . S
C1313 H1316 0.961 . S
H1314 C1313 0.959 . S
H1315 C1313 0.960 . S
H1316 C1313 0.961 . S
O1317 Co1292 1.967 . S
O1317 C1325 1.258 . S
O1318 Co1293 1.941 . S
O1318 C1325 1.266 . S
H1319 C1321 0.959 . S
H1320 C1321 0.961 . S
C1321 C1311 1.510 . S
C1321 H1319 0.959 . S
C1321 H1320 0.961 . S
C1321 H1322 0.960 . S
H1322 C1321 0.960 . S
H1323 N1303 0.862 . S
O1324 Co1292 1.920 . S
O1324 C1297 1.289 . S
C1325 O1317 1.258 . S
C1325 O1318 1.266 . S
Co1326 O1329 1.970 . S
Co1326 N1343 1.989 . S
Co1326 O1351 1.967 . S
Co1326 O1358 1.920 . S
Co1327 O1330 1.966 . S
Co1327 N1336 2.022 . S
Co1327 N1344 1.993 . S
Co1327 O1352 1.941 . S
C1328 O1329 1.258 . S
C1328 O1330 1.263 . S
O1329 Co1326 1.970 . S
O1329 C1328 1.258 . S
O1330 Co1327 1.966 . S
O1330 C1328 1.263 . S
C1331 O1332 1.235 . S
C1331 O1358 1.289 . S
O1332 C1331 1.235 . S
C1333 C1335 1.400 . S
C1333 N1336 1.351 . S
C1333 C1338 1.501 . S
C1334 C1335 1.387 . S
C1334 N1337 1.341 . S
C1335 C1333 1.400 . S
C1335 C1334 1.387 . S
N1336 Co1327 2.022 . S
N1336 C1333 1.351 . S
N1336 N1337 1.365 . S
N1337 C1334 1.341 . S
N1337 N1336 1.365 . S
N1337 H1357 0.862 . S
C1338 C1333 1.501 . S
C1338 H1339 0.961 . S
C1338 H1340 0.961 . S
C1338 H1341 0.960 . S
H1339 C1338 0.961 . S
H1340 C1338 0.961 . S
H1341 C1338 0.960 . S
C1342 N1343 1.342 . S
C1342 C1346 1.401 . S
C1342 C1347 1.499 . S
N1343 Co1326 1.989 . S
N1343 C1342 1.342 . S
N1343 N1344 1.388 . S
N1344 Co1327 1.993 . S
N1344 N1343 1.388 . S
N1344 C1345 1.346 . S
C1345 N1344 1.346 . S
C1345 C1346 1.396 . S
C1345 C1355 1.510 . S
C1346 C1342 1.401 . S
C1346 C1345 1.396 . S
C1347 C1342 1.499 . S
C1347 H1348 0.959 . S
C1347 H1349 0.960 . S
C1347 H1350 0.961 . S
H1348 C1347 0.959 . S
H1349 C1347 0.960 . S
H1350 C1347 0.961 . S
O1351 Co1326 1.967 . S
O1351 C1359 1.258 . S
O1352 Co1327 1.941 . S
O1352 C1359 1.266 . S
H1353 C1355 0.959 . S
H1354 C1355 0.961 . S
C1355 C1345 1.510 . S
C1355 H1353 0.959 . S
C1355 H1354 0.961 . S
C1355 H1356 0.960 . S
H1356 C1355 0.960 . S
H1357 N1337 0.862 . S
O1358 Co1326 1.920 . S
O1358 C1331 1.289 . S
C1359 O1351 1.258 . S
C1359 O1352 1.266 . S
Co1360 O1363 1.970 . S
Co1360 N1377 1.989 . S
Co1360 O1385 1.967 . S
Co1360 O1392 1.920 . S
Co1361 O1364 1.966 . S
Co1361 N1370 2.022 . S
Co1361 N1378 1.993 . S
Co1361 O1386 1.941 . S
C1362 O1363 1.258 . S
C1362 O1364 1.263 . S
O1363 Co1360 1.970 . S
O1363 C1362 1.258 . S
O1364 Co1361 1.966 . S
O1364 C1362 1.263 . S
C1365 O1366 1.235 . S
C1365 O1392 1.289 . S
O1366 C1365 1.235 . S
C1367 C1369 1.400 . S
C1367 N1370 1.351 . S
C1367 C1372 1.501 . S
C1368 C1369 1.387 . S
C1368 N1371 1.341 . S
C1369 C1367 1.400 . S
C1369 C1368 1.387 . S
N1370 Co1361 2.022 . S
N1370 C1367 1.351 . S
N1370 N1371 1.365 . S
N1371 C1368 1.341 . S
N1371 N1370 1.365 . S
N1371 H1391 0.862 . S
C1372 C1367 1.501 . S
C1372 H1373 0.961 . S
C1372 H1374 0.961 . S
C1372 H1375 0.960 . S
H1373 C1372 0.961 . S
H1374 C1372 0.961 . S
H1375 C1372 0.960 . S
C1376 N1377 1.342 . S
C1376 C1380 1.401 . S
C1376 C1381 1.499 . S
N1377 Co1360 1.989 . S
N1377 C1376 1.342 . S
N1377 N1378 1.388 . S
N1378 Co1361 1.993 . S
N1378 N1377 1.388 . S
N1378 C1379 1.346 . S
C1379 N1378 1.346 . S
C1379 C1380 1.396 . S
C1379 C1389 1.510 . S
C1380 C1376 1.401 . S
C1380 C1379 1.396 . S
C1381 C1376 1.499 . S
C1381 H1382 0.959 . S
C1381 H1383 0.960 . S
C1381 H1384 0.961 . S
H1382 C1381 0.959 . S
H1383 C1381 0.960 . S
H1384 C1381 0.961 . S
O1385 Co1360 1.967 . S
O1385 C1393 1.258 . S
O1386 Co1361 1.941 . S
O1386 C1393 1.266 . S
H1387 C1389 0.959 . S
H1388 C1389 0.961 . S
C1389 C1379 1.510 . S
C1389 H1387 0.959 . S
C1389 H1388 0.961 . S
C1389 H1390 0.960 . S
H1390 C1389 0.960 . S
H1391 N1371 0.862 . S
O1392 Co1360 1.920 . S
O1392 C1365 1.289 . S
C1393 O1385 1.258 . S
C1393 O1386 1.266 . S
Co1394 O1397 1.970 . S
Co1394 N1411 1.989 . S
Co1394 O1419 1.967 . S
Co1394 O1426 1.920 . S
Co1395 O1398 1.966 . S
Co1395 N1404 2.022 . S
Co1395 N1412 1.993 . S
Co1395 O1420 1.941 . S
C1396 O1397 1.258 . S
C1396 O1398 1.263 . S
O1397 Co1394 1.970 . S
O1397 C1396 1.258 . S
O1398 Co1395 1.966 . S
O1398 C1396 1.263 . S
C1399 O1400 1.235 . S
C1399 O1426 1.289 . S
O1400 C1399 1.235 . S
C1401 C1403 1.400 . S
C1401 N1404 1.351 1_655 S
C1401 C1406 1.501 . S
C1402 C1403 1.387 . S
C1402 N1405 1.341 1_655 S
C1403 C1401 1.400 . S
C1403 C1402 1.387 . S
N1404 Co1395 2.022 . S
N1404 C1401 1.351 1_455 S
N1404 N1405 1.365 . S
N1405 C1402 1.341 1_455 S
N1405 N1404 1.365 . S
N1405 H1425 0.862 . S
C1406 C1401 1.501 . S
C1406 H1407 0.961 . S
C1406 H1408 0.961 . S
C1406 H1409 0.960 . S
H1407 C1406 0.961 . S
H1408 C1406 0.961 . S
H1409 C1406 0.960 . S
C1410 N1411 1.342 . S
C1410 C1414 1.401 . S
C1410 C1415 1.499 . S
N1411 Co1394 1.989 . S
N1411 C1410 1.342 . S
N1411 N1412 1.388 . S
N1412 Co1395 1.993 . S
N1412 N1411 1.388 . S
N1412 C1413 1.346 . S
C1413 N1412 1.346 . S
C1413 C1414 1.396 . S
C1413 C1423 1.510 . S
C1414 C1410 1.401 . S
C1414 C1413 1.396 . S
C1415 C1410 1.499 . S
C1415 H1416 0.959 . S
C1415 H1417 0.960 . S
C1415 H1418 0.961 . S
H1416 C1415 0.959 . S
H1417 C1415 0.960 . S
H1418 C1415 0.961 . S
O1419 Co1394 1.967 . S
O1419 C1427 1.258 . S
O1420 Co1395 1.941 . S
O1420 C1427 1.266 . S
H1421 C1423 0.959 . S
H1422 C1423 0.961 1_655 S
C1423 C1413 1.510 . S
C1423 H1421 0.959 . S
C1423 H1422 0.961 1_455 S
C1423 H1424 0.960 . S
H1424 C1423 0.960 . S
H1425 N1405 0.862 . S
O1426 Co1394 1.920 . S
O1426 C1399 1.289 . S
C1427 O1419 1.258 . S
C1427 O1420 1.266 . S
Co1428 O1431 1.970 . S
Co1428 N1445 1.989 . S
Co1428 O1453 1.967 . S
Co1428 O1460 1.920 . S
Co1429 O1432 1.966 . S
Co1429 N1438 2.022 . S
Co1429 N1446 1.993 . S
Co1429 O1454 1.941 . S
C1430 O1431 1.258 . S
C1430 O1432 1.263 . S
O1431 Co1428 1.970 . S
O1431 C1430 1.258 . S
O1432 Co1429 1.966 . S
O1432 C1430 1.263 . S
C1433 O1434 1.235 . S
C1433 O1460 1.289 . S
O1434 C1433 1.235 . S
C1435 C1437 1.400 . S
C1435 N1438 1.351 . S
C1435 C1440 1.501 . S
C1436 C1437 1.387 . S
C1436 N1439 1.341 . S
C1437 C1435 1.400 . S
C1437 C1436 1.387 . S
N1438 Co1429 2.022 . S
N1438 C1435 1.351 . S
N1438 N1439 1.365 . S
N1439 C1436 1.341 . S
N1439 N1438 1.365 . S
N1439 H1459 0.862 . S
C1440 C1435 1.501 . S
C1440 H1441 0.961 . S
C1440 H1442 0.961 . S
C1440 H1443 0.960 . S
H1441 C1440 0.961 . S
H1442 C1440 0.961 . S
H1443 C1440 0.960 . S
C1444 N1445 1.342 . S
C1444 C1448 1.401 . S
C1444 C1449 1.499 . S
N1445 Co1428 1.989 . S
N1445 C1444 1.342 . S
N1445 N1446 1.388 . S
N1446 Co1429 1.993 . S
N1446 N1445 1.388 . S
N1446 C1447 1.346 . S
C1447 N1446 1.346 . S
C1447 C1448 1.396 . S
C1447 C1457 1.510 . S
C1448 C1444 1.401 . S
C1448 C1447 1.396 . S
C1449 C1444 1.499 . S
C1449 H1450 0.959 . S
C1449 H1451 0.960 . S
C1449 H1452 0.961 . S
H1450 C1449 0.959 . S
H1451 C1449 0.960 . S
H1452 C1449 0.961 . S
O1453 Co1428 1.967 . S
O1453 C1461 1.258 . S
O1454 Co1429 1.941 . S
O1454 C1461 1.266 . S
H1455 C1457 0.959 . S
H1456 C1457 0.961 . S
C1457 C1447 1.510 . S
C1457 H1455 0.959 . S
C1457 H1456 0.961 . S
C1457 H1458 0.960 . S
H1458 C1457 0.960 . S
H1459 N1439 0.862 . S
O1460 Co1428 1.920 . S
O1460 C1433 1.289 . S
C1461 O1453 1.258 . S
C1461 O1454 1.266 . S
Co1462 O1465 1.970 . S
Co1462 N1479 1.989 . S
Co1462 O1487 1.967 1_556 S
Co1462 O1494 1.920 . S
Co1463 O1466 1.966 . S
Co1463 N1472 2.022 . S
Co1463 N1480 1.993 1_554 S
Co1463 O1488 1.941 . S
C1464 O1465 1.258 1_554 S
C1464 O1466 1.263 . S
O1465 Co1462 1.970 . S
O1465 C1464 1.258 1_556 S
O1466 Co1463 1.966 . S
O1466 C1464 1.263 . S
C1467 O1468 1.235 . S
C1467 O1494 1.289 . S
O1468 C1467 1.235 . S
C1469 C1471 1.400 . S
C1469 N1472 1.351 . S
C1469 C1474 1.501 . S
C1470 C1471 1.387 . S
C1470 N1473 1.341 . S
C1471 C1469 1.400 . S
C1471 C1470 1.387 . S
N1472 Co1463 2.022 . S
N1472 C1469 1.351 . S
N1472 N1473 1.365 . S
N1473 C1470 1.341 . S
N1473 N1472 1.365 . S
N1473 H1493 0.862 . S
C1474 C1469 1.501 . S
C1474 H1475 0.961 . S
C1474 H1476 0.961 . S
C1474 H1477 0.960 . S
H1475 C1474 0.961 . S
H1476 C1474 0.961 . S
H1477 C1474 0.960 . S
C1478 N1479 1.342 . S
C1478 C1482 1.401 . S
C1478 C1483 1.499 . S
N1479 Co1462 1.989 . S
N1479 C1478 1.342 . S
N1479 N1480 1.388 . S
N1480 Co1463 1.993 1_556 S
N1480 N1479 1.388 . S
N1480 C1481 1.346 . S
C1481 N1480 1.346 . S
C1481 C1482 1.396 . S
C1481 C1491 1.510 1_556 S
C1482 C1478 1.401 . S
C1482 C1481 1.396 . S
C1483 C1478 1.499 . S
C1483 H1484 0.959 . S
C1483 H1485 0.960 . S
C1483 H1486 0.961 . S
H1484 C1483 0.959 . S
H1485 C1483 0.960 . S
H1486 C1483 0.961 . S
O1487 Co1462 1.967 1_554 S
O1487 C1495 1.258 . S
O1488 Co1463 1.941 . S
O1488 C1495 1.266 . S
H1489 C1491 0.959 . S
H1490 C1491 0.961 1_556 S
C1491 C1481 1.510 1_554 S
C1491 H1489 0.959 . S
C1491 H1490 0.961 1_554 S
C1491 H1492 0.960 . S
H1492 C1491 0.960 . S
H1493 N1473 0.862 . S
O1494 Co1462 1.920 . S
O1494 C1467 1.289 . S
C1495 O1487 1.258 . S
C1495 O1488 1.266 . S
Co1496 O1499 1.970 . S
Co1496 N1513 1.989 . S
Co1496 O1521 1.967 . S
Co1496 O1528 1.920 . S
Co1497 O1500 1.966 . S
Co1497 N1506 2.022 . S
Co1497 N1514 1.993 . S
Co1497 O1522 1.941 . S
C1498 O1499 1.258 . S
C1498 O1500 1.263 . S
O1499 Co1496 1.970 . S
O1499 C1498 1.258 . S
O1500 Co1497 1.966 . S
O1500 C1498 1.263 . S
C1501 O1502 1.235 . S
C1501 O1528 1.289 . S
O1502 C1501 1.235 . S
C1503 C1505 1.400 . S
C1503 N1506 1.351 . S
C1503 C1508 1.501 . S
C1504 C1505 1.387 . S
C1504 N1507 1.341 . S
C1505 C1503 1.400 . S
C1505 C1504 1.387 . S
N1506 Co1497 2.022 . S
N1506 C1503 1.351 . S
N1506 N1507 1.365 . S
N1507 C1504 1.341 . S
N1507 N1506 1.365 . S
N1507 H1527 0.862 . S
C1508 C1503 1.501 . S
C1508 H1509 0.961 . S
C1508 H1510 0.961 . S
C1508 H1511 0.960 . S
H1509 C1508 0.961 . S
H1510 C1508 0.961 . S
H1511 C1508 0.960 . S
C1512 N1513 1.342 . S
C1512 C1516 1.401 . S
C1512 C1517 1.499 . S
N1513 Co1496 1.989 . S
N1513 C1512 1.342 . S
N1513 N1514 1.388 . S
N1514 Co1497 1.993 . S
N1514 N1513 1.388 . S
N1514 C1515 1.346 . S
C1515 N1514 1.346 . S
C1515 C1516 1.396 . S
C1515 C1525 1.510 . S
C1516 C1512 1.401 . S
C1516 C1515 1.396 . S
C1517 C1512 1.499 . S
C1517 H1518 0.959 . S
C1517 H1519 0.960 . S
C1517 H1520 0.961 . S
H1518 C1517 0.959 . S
H1519 C1517 0.960 . S
H1520 C1517 0.961 . S
O1521 Co1496 1.967 . S
O1521 C1529 1.258 . S
O1522 Co1497 1.941 . S
O1522 C1529 1.266 . S
H1523 C1525 0.959 . S
H1524 C1525 0.961 . S
C1525 C1515 1.510 . S
C1525 H1523 0.959 . S
C1525 H1524 0.961 . S
C1525 H1526 0.960 . S
H1526 C1525 0.960 . S
H1527 N1507 0.862 . S
O1528 Co1496 1.920 . S
O1528 C1501 1.289 . S
C1529 O1521 1.258 . S
C1529 O1522 1.266 . S
Co1530 O1533 1.970 . S
Co1530 N1547 1.989 . S
Co1530 O1555 1.967 1_554 S
Co1530 O1562 1.920 . S
Co1531 O1534 1.966 . S
Co1531 N1540 2.022 . S
Co1531 N1548 1.993 1_556 S
Co1531 O1556 1.941 . S
C1532 O1533 1.258 1_556 S
C1532 O1534 1.263 . S
O1533 Co1530 1.970 . S
O1533 C1532 1.258 1_554 S
O1534 Co1531 1.966 . S
O1534 C1532 1.263 . S
C1535 O1536 1.235 . S
C1535 O1562 1.289 . S
O1536 C1535 1.235 . S
C1537 C1539 1.400 . S
C1537 N1540 1.351 1_455 S
C1537 C1542 1.501 . S
C1538 C1539 1.387 . S
C1538 N1541 1.341 1_455 S
C1539 C1537 1.400 . S
C1539 C1538 1.387 . S
N1540 Co1531 2.022 . S
N1540 C1537 1.351 1_655 S
N1540 N1541 1.365 . S
N1541 C1538 1.341 1_655 S
N1541 N1540 1.365 . S
N1541 H1561 0.862 . S
C1542 C1537 1.501 . S
C1542 H1543 0.961 . S
C1542 H1544 0.961 . S
C1542 H1545 0.960 . S
H1543 C1542 0.961 . S
H1544 C1542 0.961 . S
H1545 C1542 0.960 . S
C1546 N1547 1.342 . S
C1546 C1550 1.401 . S
C1546 C1551 1.499 . S
N1547 Co1530 1.989 . S
N1547 C1546 1.342 . S
N1547 N1548 1.388 . S
N1548 Co1531 1.993 1_554 S
N1548 N1547 1.388 . S
N1548 C1549 1.346 . S
C1549 N1548 1.346 . S
C1549 C1550 1.396 . S
C1549 C1559 1.510 1_554 S
C1550 C1546 1.401 . S
C1550 C1549 1.396 . S
C1551 C1546 1.499 . S
C1551 H1552 0.959 . S
C1551 H1553 0.960 . S
C1551 H1554 0.961 . S
H1552 C1551 0.959 . S
H1553 C1551 0.960 . S
H1554 C1551 0.961 . S
O1555 Co1530 1.967 1_556 S
O1555 C1563 1.258 . S
O1556 Co1531 1.941 . S
O1556 C1563 1.266 . S
H1557 C1559 0.959 . S
H1558 C1559 0.961 1_454 S
C1559 C1549 1.510 1_556 S
C1559 H1557 0.959 . S
C1559 H1558 0.961 1_656 S
C1559 H1560 0.960 . S
H1560 C1559 0.960 . S
H1561 N1541 0.862 . S
O1562 Co1530 1.920 . S
O1562 C1535 1.289 . S
C1563 O1555 1.258 . S
C1563 O1556 1.266 . S
Co1564 O1567 1.970 . S
Co1564 N1581 1.989 . S
Co1564 O1589 1.967 . S
Co1564 O1596 1.920 . S
Co1565 O1568 1.966 . S
Co1565 N1574 2.022 . S
Co1565 N1582 1.993 . S
Co1565 O1590 1.941 . S
C1566 O1567 1.258 . S
C1566 O1568 1.263 . S
O1567 Co1564 1.970 . S
O1567 C1566 1.258 . S
O1568 Co1565 1.966 . S
O1568 C1566 1.263 . S
C1569 O1570 1.235 . S
C1569 O1596 1.289 . S
O1570 C1569 1.235 . S
C1571 C1573 1.400 . S
C1571 N1574 1.351 . S
C1571 C1576 1.501 . S
C1572 C1573 1.387 . S
C1572 N1575 1.341 . S
C1573 C1571 1.400 . S
C1573 C1572 1.387 . S
N1574 Co1565 2.022 . S
N1574 C1571 1.351 . S
N1574 N1575 1.365 . S
N1575 C1572 1.341 . S
N1575 N1574 1.365 . S
N1575 H1595 0.862 . S
C1576 C1571 1.501 . S
C1576 H1577 0.961 . S
C1576 H1578 0.961 . S
C1576 H1579 0.960 . S
H1577 C1576 0.961 . S
H1578 C1576 0.961 . S
H1579 C1576 0.960 . S
C1580 N1581 1.342 . S
C1580 C1584 1.401 . S
C1580 C1585 1.499 . S
N1581 Co1564 1.989 . S
N1581 C1580 1.342 . S
N1581 N1582 1.388 . S
N1582 Co1565 1.993 . S
N1582 N1581 1.388 . S
N1582 C1583 1.346 . S
C1583 N1582 1.346 . S
C1583 C1584 1.396 . S
C1583 C1593 1.510 . S
C1584 C1580 1.401 . S
C1584 C1583 1.396 . S
C1585 C1580 1.499 . S
C1585 H1586 0.959 . S
C1585 H1587 0.960 . S
C1585 H1588 0.961 . S
H1586 C1585 0.959 . S
H1587 C1585 0.960 . S
H1588 C1585 0.961 . S
O1589 Co1564 1.967 . S
O1589 C1597 1.258 . S
O1590 Co1565 1.941 . S
O1590 C1597 1.266 . S
H1591 C1593 0.959 . S
H1592 C1593 0.961 . S
C1593 C1583 1.510 . S
C1593 H1591 0.959 . S
C1593 H1592 0.961 . S
C1593 H1594 0.960 . S
H1594 C1593 0.960 . S
H1595 N1575 0.862 . S
O1596 Co1564 1.920 . S
O1596 C1569 1.289 . S
C1597 O1589 1.258 . S
C1597 O1590 1.266 . S
Co1598 O1601 1.970 . S
Co1598 N1615 1.989 . S
Co1598 O1623 1.967 . S
Co1598 O1630 1.920 . S
Co1599 O1602 1.966 . S
Co1599 N1608 2.022 . S
Co1599 N1616 1.993 . S
Co1599 O1624 1.941 . S
C1600 O1601 1.258 . S
C1600 O1602 1.263 . S
O1601 Co1598 1.970 . S
O1601 C1600 1.258 . S
O1602 Co1599 1.966 . S
O1602 C1600 1.263 . S
C1603 O1604 1.235 . S
C1603 O1630 1.289 . S
O1604 C1603 1.235 . S
C1605 C1607 1.400 . S
C1605 N1608 1.351 . S
C1605 C1610 1.501 . S
C1606 C1607 1.387 . S
C1606 N1609 1.341 . S
C1607 C1605 1.400 . S
C1607 C1606 1.387 . S
N1608 Co1599 2.022 . S
N1608 C1605 1.351 . S
N1608 N1609 1.365 . S
N1609 C1606 1.341 . S
N1609 N1608 1.365 . S
N1609 H1629 0.862 . S
C1610 C1605 1.501 . S
C1610 H1611 0.961 . S
C1610 H1612 0.961 . S
C1610 H1613 0.960 . S
H1611 C1610 0.961 . S
H1612 C1610 0.961 . S
H1613 C1610 0.960 . S
C1614 N1615 1.342 . S
C1614 C1618 1.401 . S
C1614 C1619 1.499 . S
N1615 Co1598 1.989 . S
N1615 C1614 1.342 . S
N1615 N1616 1.388 . S
N1616 Co1599 1.993 . S
N1616 N1615 1.388 . S
N1616 C1617 1.346 . S
C1617 N1616 1.346 . S
C1617 C1618 1.396 . S
C1617 C1627 1.510 . S
C1618 C1614 1.401 . S
C1618 C1617 1.396 . S
C1619 C1614 1.499 . S
C1619 H1620 0.959 . S
C1619 H1621 0.960 . S
C1619 H1622 0.961 . S
H1620 C1619 0.959 . S
H1621 C1619 0.960 . S
H1622 C1619 0.961 . S
O1623 Co1598 1.967 . S
O1623 C1631 1.258 . S
O1624 Co1599 1.941 . S
O1624 C1631 1.266 . S
H1625 C1627 0.959 . S
H1626 C1627 0.961 . S
C1627 C1617 1.510 . S
C1627 H1625 0.959 . S
C1627 H1626 0.961 . S
C1627 H1628 0.960 . S
H1628 C1627 0.960 . S
H1629 N1609 0.862 . S
O1630 Co1598 1.920 . S
O1630 C1603 1.289 . S
C1631 O1623 1.258 . S
C1631 O1624 1.266 . S
C20 C349 2.455 . S
C383 C54 2.567 . S
C281 C88 2.482 . S
C315 C122 2.576 . S
C485 C156 2.463 . S
C190 C519 2.586 . S
C417 C224 2.475 . S
C451 C258 2.556 . S
C292 C587 2.455 . S
C326 C621 2.576 . S
C655 C360 2.509 . S
C394 C1505 2.527 . S
C1369 C428 2.501 . S
C462 C791 2.546 . S
C496 C1539 2.463 . S
C757 C530 2.556 . S
C564 C1029 2.455 . S
C77 C598 2.509 . S
C111 C632 2.576 . S
C9 C666 2.482 . S
C700 C859 2.556 . S
C734 C961 2.523 . S
C179 C768 2.546 . S
C247 C802 2.586 . S
C836 C1165 2.529 . S
C870 C1199 2.546 . S
C1097 C904 2.501 . S
C1131 C938 2.539 . S
C1301 C972 2.523 . S
C1335 C1006 2.527 . S
C1233 C1040 2.509 . S
C1074 C1267 2.558 . S
C1108 C1403 2.529 . S
C1437 C1142 2.539 . S
C1176 C1471 2.475 . S
C1210 C689 2.586 . S
C1244 C553 2.482 . S
C1278 C1607 2.567 . S
C723 C1312 2.523 . S
C1573 C1346 2.558 . S
C1380 C213 2.529 . S
C893 C1414 2.475 . S
C1448 C927 2.539 . S
C1482 C825 2.501 . S
C43 C1516 2.558 . S
C1550 C145 2.463 . S
C1584 C995 2.567 . S
C1063 C1618 2.527 . S
C311 C5 3.351 . S
C39 C345 3.378 . S
C379 C73 3.383 . S
C277 C107 3.351 . S
C141 C515 3.363 . S
C175 C413 3.365 . S
C447 C209 3.371 . S
C243 C481 3.363 . S
C617 C549 3.351 . S
C583 C1569 3.378 . S
C1603 C651 3.383 . S
C685 C1535 3.363 . S
C1501 C719 3.385 . S
C1399 C753 3.371 . S
C787 C1467 3.365 . S
C821 C1127 3.398 . S
C1161 C855 3.371 . S
C1195 C889 3.365 . S
C923 C1093 3.398 . S
C1331 C957 3.385 . S
C1229 C991 3.383 . S
C1025 C1263 3.378 . S
C1297 C1059 3.385 . S
C1433 C1365 3.398 . S
C713 C33 1.908 . S
C67 C1427 1.860 . S
C101 C1461 1.858 . S
C1495 C135 1.882 . S
C1631 C169 1.903 . S
C747 C203 1.833 . S
C237 C1597 1.860 . S
C271 C577 1.908 . S
C543 C305 1.908 . S
C339 C441 1.882 . S
C373 C475 1.876 . S
C509 C407 1.903 . S
C883 C611 1.876 . S
C645 C917 1.882 . S
C679 C951 1.858 . S
C781 C1053 1.876 . S
C985 C815 1.833 . S
C849 C1529 1.830 . S
C1563 C1019 1.903 . S
C1393 C1087 1.830 . S
C1121 C1359 1.830 . S
C1257 C1155 1.858 . S
C1189 C1291 1.860 . S
C1223 C1325 1.833 . S
C138 C2 3.053 1_565 S
C172 C36 3.108 . S
C206 C70 3.064 1_545 S
C240 C104 3.094 1_556 S
C478 C274 3.053 1_556 S
C308 C512 3.094 1_545 S
C342 C410 3.066 . S
C444 C376 3.069 1_545 S
C546 C1532 3.053 1_455 S
C580 C1464 3.066 . S
C682 C614 3.094 1_655 S
C1396 C648 3.064 1_455 S
C1362 C716 3.077 . S
C750 C1600 3.069 1_455 S
C1566 C784 3.108 . S
C954 C818 3.077 . S
C852 C988 3.069 1_554 S
C886 C1022 3.066 . S
C920 C1056 3.082 . S
C1090 C1294 3.077 . S
C1124 C1328 3.082 . S
C1226 C1158 3.064 1_556 S
C1192 C1260 3.108 . S
C1498 C1430 3.082 . S
