# Generated by pormake.
# Topology ukt, (4)-cn, num edge types: 1
# Building blocks:
#     Node 0, Type 0, BuildingBlock: NAHDIM_clean_sbu_0, # of connection points: 4
#     Node 1, Type 0, BuildingBlock: NAHDIM_clean_sbu_0, # of connection points: 4
#     Node 2, Type 0, BuildingBlock: NAHDIM_clean_sbu_0, # of connection points: 4
#     Node 3, Type 0, BuildingBlock: NAHDIM_clean_sbu_0, # of connection points: 4
#     Node 4, Type 0, BuildingBlock: NAHDIM_clean_sbu_0, # of connection points: 4
#     Node 5, Type 0, BuildingBlock: NAHDIM_clean_sbu_0, # of connection points: 4
#     Node 6, Type 0, BuildingBlock: NAHDIM_clean_sbu_0, # of connection points: 4
#     Node 7, Type 0, BuildingBlock: NAHDIM_clean_sbu_0, # of connection points: 4
#     Node 8, Type 0, BuildingBlock: NAHDIM_clean_sbu_0, # of connection points: 4
#     Node 9, Type 0, BuildingBlock: NAHDIM_clean_sbu_0, # of connection points: 4
#     Node 10, Type 0, BuildingBlock: NAHDIM_clean_sbu_0, # of connection points: 4
#     Node 11, Type 0, BuildingBlock: NAHDIM_clean_sbu_0, # of connection points: 4
#     Node 12, Type 0, BuildingBlock: NAHDIM_clean_sbu_0, # of connection points: 4
#     Node 13, Type 0, BuildingBlock: NAHDIM_clean_sbu_0, # of connection points: 4
#     Node 14, Type 0, BuildingBlock: NAHDIM_clean_sbu_0, # of connection points: 4
#     Node 15, Type 0, BuildingBlock: NAHDIM_clean_sbu_0, # of connection points: 4
#     Edge 16, Type (0, 0), BuildingBlock: EZIPEK_clean_linker_0, # of connection points: 2
#     Edge 17, Type (0, 0), BuildingBlock: EZIPEK_clean_linker_0, # of connection points: 2
#     Edge 18, Type (0, 0), BuildingBlock: EZIPEK_clean_linker_0, # of connection points: 2
#     Edge 19, Type (0, 0), BuildingBlock: EZIPEK_clean_linker_0, # of connection points: 2
#     Edge 20, Type (0, 0), BuildingBlock: EZIPEK_clean_linker_0, # of connection points: 2
#     Edge 21, Type (0, 0), BuildingBlock: EZIPEK_clean_linker_0, # of connection points: 2
#     Edge 22, Type (0, 0), BuildingBlock: EZIPEK_clean_linker_0, # of connection points: 2
#     Edge 23, Type (0, 0), BuildingBlock: EZIPEK_clean_linker_0, # of connection points: 2
#     Edge 24, Type (0, 0), BuildingBlock: EZIPEK_clean_linker_0, # of connection points: 2
#     Edge 25, Type (0, 0), BuildingBlock: EZIPEK_clean_linker_0, # of connection points: 2
#     Edge 26, Type (0, 0), BuildingBlock: EZIPEK_clean_linker_0, # of connection points: 2
#     Edge 27, Type (0, 0), BuildingBlock: EZIPEK_clean_linker_0, # of connection points: 2
#     Edge 28, Type (0, 0), BuildingBlock: EZIPEK_clean_linker_0, # of connection points: 2
#     Edge 29, Type (0, 0), BuildingBlock: EZIPEK_clean_linker_0, # of connection points: 2
#     Edge 30, Type (0, 0), BuildingBlock: EZIPEK_clean_linker_0, # of connection points: 2
#     Edge 31, Type (0, 0), BuildingBlock: EZIPEK_clean_linker_0, # of connection points: 2
#     Edge 32, Type (0, 0), BuildingBlock: EZIPEK_clean_linker_0, # of connection points: 2
#     Edge 33, Type (0, 0), BuildingBlock: EZIPEK_clean_linker_0, # of connection points: 2
#     Edge 34, Type (0, 0), BuildingBlock: EZIPEK_clean_linker_0, # of connection points: 2
#     Edge 35, Type (0, 0), BuildingBlock: EZIPEK_clean_linker_0, # of connection points: 2
#     Edge 36, Type (0, 0), BuildingBlock: EZIPEK_clean_linker_0, # of connection points: 2
#     Edge 37, Type (0, 0), BuildingBlock: EZIPEK_clean_linker_0, # of connection points: 2
#     Edge 38, Type (0, 0), BuildingBlock: EZIPEK_clean_linker_0, # of connection points: 2
#     Edge 39, Type (0, 0), BuildingBlock: EZIPEK_clean_linker_0, # of connection points: 2
#     Edge 40, Type (0, 0), BuildingBlock: EZIPEK_clean_linker_0, # of connection points: 2
#     Edge 41, Type (0, 0), BuildingBlock: EZIPEK_clean_linker_0, # of connection points: 2
#     Edge 42, Type (0, 0), BuildingBlock: EZIPEK_clean_linker_0, # of connection points: 2
#     Edge 43, Type (0, 0), BuildingBlock: EZIPEK_clean_linker_0, # of connection points: 2
#     Edge 44, Type (0, 0), BuildingBlock: EZIPEK_clean_linker_0, # of connection points: 2
#     Edge 45, Type (0, 0), BuildingBlock: EZIPEK_clean_linker_0, # of connection points: 2
#     Edge 46, Type (0, 0), BuildingBlock: EZIPEK_clean_linker_0, # of connection points: 2
#     Edge 47, Type (0, 0), BuildingBlock: EZIPEK_clean_linker_0, # of connection points: 2
# Relax obj value: 0.316
# Max RMSD: 0.219
# Mean RMSD: 0.219
data_MOF--net-ukt--node1-NAHDIM_clean_sbu_0--edge1-EZIPEK_clean_linker_0
_symmetry_space_group_name_H-M    P1
_symmetry_Int_Tables_number       1
_symmetry_cell_setting            triclinic
loop_
_symmetry_equiv_pos_as_xyz
'x, y, z'
_cell_length_a     31.987446
_cell_length_b     31.980817
_cell_length_c     26.033547
_cell_angle_alpha  90.259115
_cell_angle_beta   90.037721
_cell_angle_gamma 90.130677
loop_
_atom_site_label
_atom_site_type_symbol
_atom_site_fract_x
_atom_site_fract_y
_atom_site_fract_z
_atom_type_partial_charge
C0 C 0.50476 0.0686 0.0478 0.0
O1 O 0.53665 0.05719 0.07621 0.0
O2 O 0.52705 0.16782 0.14453 0.0
Zn3 Zn 0.53805 0.14808 0.07196 0.0
O4 O 0.59473 0.12044 0.0652 0.0
C5 C 0.57091 0.22139 0.02733 0.0
O6 O 0.60351 0.20872 0.05342 0.0
O7 O 0.49555 0.10712 0.04456 0.0
C8 C 0.60677 0.11497 0.01919 0.0
O9 O 0.58246 0.12697 0.98143 0.0
C10 C 0.5583 0.17988 0.17096 0.0
O11 O 0.59615 0.17542 0.15233 0.0
O12 O 0.53768 0.1996 0.02742 0.0
C13 C 0.42222 0.52233 0.0625 0.0
O14 O 0.41535 0.54962 0.09928 0.0
O15 O 0.30022 0.52241 0.10507 0.0
Zn16 Zn 0.33669 0.53749 0.04421 0.0
O17 O 0.3509 0.59862 0.04197 0.0
C18 C 0.26423 0.52007 0.98286 0.0
O19 O 0.24951 0.50479 0.02589 0.0
O20 O 0.39163 0.5082 0.03648 0.0
C21 C 0.34225 0.63018 0.06962 0.0
O22 O 0.32032 0.62604 0.11188 0.0
C23 C 0.30422 0.53394 0.15152 0.0
O24 O 0.33861 0.55291 0.16645 0.0
O25 O 0.30236 0.53087 0.98003 0.0
C26 C 0.98056 0.39784 0.07202 0.0
O27 O 0.96009 0.40784 0.11402 0.0
O28 O 0.97436 0.29594 0.16334 0.0
Zn29 Zn 0.94854 0.31906 0.09829 0.0
O30 O 0.89545 0.35047 0.10924 0.0
C31 C 0.93217 0.27471 0.00292 0.0
O32 O 0.94882 0.30781 0.98128 0.0
O33 O 0.98441 0.3596 0.05953 0.0
C34 C 0.85998 0.33367 0.11607 0.0
O35 O 0.85738 0.29368 0.127 0.0
C36 C 0.95331 0.29521 0.20472 0.0
O37 O 0.91716 0.31439 0.20682 0.0
O38 O 0.93138 0.27191 0.05162 0.0
C39 C 0.0406 0.96262 0.03141 0.0
O40 O 0.02837 0.93293 0.06272 0.0
O41 O 0.15422 0.9474 0.1168 0.0
Zn42 Zn 0.12025 0.92929 0.05496 0.0
O43 O 0.09004 0.87429 0.0629 0.0
C44 C 0.19578 0.93786 -0.00519 0.0
O45 O 0.20526 0.96743 0.02801 0.0
O46 O 0.07931 0.9706 0.02679 0.0
C47 C 0.10829 0.83984 0.07136 0.0
O48 O 0.14829 0.83969 0.08252 0.0
C49 C 0.15337 0.92837 0.1595 0.0
O50 O 0.12503 0.89939 0.16759 0.0
O51 O 0.16098 0.91899 -0.00183 0.0
C52 C 0.52515 0.42001 0.44644 0.0
O53 O 0.56194 0.42551 0.42516 0.0
O54 O 0.54281 0.30939 0.36787 0.0
Zn55 Zn 0.54909 0.33551 0.43832 0.0
O56 O 0.60756 0.35561 0.45202 0.0
C57 C 0.5053 0.26963 0.49154 0.0
O58 O 0.47597 0.27689 0.45742 0.0
O59 O 0.51075 0.38331 0.45204 0.0
C60 C 0.63649 0.33096 0.46569 0.0
O61 O 0.62988 0.29042 0.46546 0.0
C62 C 0.55415 0.27152 0.3621 0.0
O63 O 0.56932 0.25097 0.40144 0.0
O64 O 0.5379 0.29227 0.49094 0.0
C65 C 0.05612 0.51837 0.42485 0.0
O66 O 0.04372 0.5327 0.38021 0.0
O67 O 0.15961 0.53085 0.33618 0.0
Zn68 Zn 0.13123 0.56042 0.39648 0.0
O69 O 0.09277 0.60706 0.3758 0.0
C70 C 0.20908 0.59934 0.42787 0.0
O71 O 0.21591 0.5998 0.37824 0.0
O72 O 0.09403 0.52302 0.43853 0.0
C73 C 0.10266 0.64512 0.36952 0.0
O74 O 0.14244 0.65531 0.37116 0.0
C75 C 0.17114 0.55244 0.29777 0.0
O76 O 0.15867 0.59142 0.29451 0.0
O77 O 0.17536 0.58374 0.44509 0.0
C78 C 0.95522 0.05928 0.48355 0.0
O79 O 0.9265 0.05761 0.44761 0.0
O80 O 0.971 0.16904 0.40522 0.0
Zn81 Zn 0.94311 0.14633 0.4689 0.0
O82 O 0.88296 0.1325 0.45409 0.0
C83 C 0.94522 0.18903 0.57 0.0
O84 O 0.95451 0.15308 0.59126 0.0
O85 O 0.96981 0.0945 0.4978 0.0
C86 C 0.86577 0.12596 0.41077 0.0
O87 O 0.88728 0.12987 0.36817 0.0
C88 C 0.95398 0.20222 0.38857 0.0
O89 O 0.92271 0.21851 0.41447 0.0
O90 O 0.9415 0.19189 0.52158 0.0
C91 C 0.4078 0.9613 0.40853 0.0
O92 O 0.40884 0.94842 0.36055 0.0
O93 O 0.29647 0.9446 0.34464 0.0
Zn94 Zn 0.32938 0.92098 0.40475 0.0
O95 O 0.36434 0.87108 0.38553 0.0
C96 C 0.25638 0.88652 0.45228 0.0
O97 O 0.24843 0.87616 0.40446 0.0
O98 O 0.37372 0.95893 0.43348 0.0
C99 C 0.35761 0.8344 0.40184 0.0
O100 O 0.32097 0.8248 0.42091 0.0
C101 C 0.28419 0.91921 0.30999 0.0
O102 O 0.29734 0.88035 0.31101 0.0
O103 O 0.28967 0.90643 0.46296 0.0
C104 C 0.44283 0.93173 0.92484 0.0
O105 O 0.41456 0.93763 0.88908 0.0
O106 O 0.4297 0.82695 0.84006 0.0
Zn107 Zn 0.41678 0.84814 0.91098 0.0
O108 O 0.35829 0.86935 0.9134 0.0
C109 C 0.38781 0.77429 0.95347 0.0
O110 O 0.36304 0.77863 0.91361 0.0
O111 O 0.45273 0.89476 0.93761 0.0
C112 C 0.33504 0.88361 0.87813 0.0
O113 O 0.34821 0.88528 0.83042 0.0
C114 C 0.4575 0.79934 0.83254 0.0
O115 O 0.48112 0.78704 0.87086 0.0
O116 O 0.41688 0.80071 0.96097 0.0
C117 C 0.58255 0.48935 0.97267 0.0
O118 O 0.57661 0.46441 0.93315 0.0
O119 O 0.69852 0.47752 0.901 0.0
Zn120 Zn 0.66418 0.45708 0.96174 0.0
O121 O 0.63484 0.40359 0.94102 0.0
C122 C 0.7405 0.44131 0.02191 0.0
O123 O 0.76029 0.46374 0.98759 0.0
O124 O 0.61954 0.49608 0.98866 0.0
C125 C 0.62071 0.38335 0.97912 0.0
O126 O 0.62469 0.39932 0.0254 0.0
C127 C 0.72237 0.44937 0.88264 0.0
O128 O 0.72195 0.41205 0.90346 0.0
O129 O 0.70098 0.43864 0.02055 0.0
C130 C 0.01586 0.53389 0.93414 0.0
O131 O 0.03984 0.52914 0.89369 0.0
O132 O 0.02713 0.64932 0.86377 0.0
Zn133 Zn 0.04516 0.61728 0.92631 0.0
O134 O 0.10286 0.59409 0.91657 0.0
C135 C 0.03102 0.6924 0.9852 0.0
O136 O -0.00132 0.6965 0.95456 0.0
O137 O 0.00912 0.57034 0.95179 0.0
C138 C 0.12211 0.57807 0.87866 0.0
O139 O 0.10446 0.5753 0.83327 0.0
C140 C 0.02165 0.63684 0.81791 0.0
O141 O 0.02186 0.59667 0.8073 0.0
O142 O 0.05332 0.65975 0.98221 0.0
C143 C 0.91769 0.02267 0.88791 0.0
O144 O 0.92475 0.04701 0.84832 0.0
O145 O 0.81397 0.03502 0.80577 0.0
Zn146 Zn 0.83512 0.05303 0.87601 0.0
O147 O 0.8612 0.11067 0.87936 0.0
C148 C 0.75259 0.06511 0.91658 0.0
O149 O 0.74577 0.08024 0.87059 0.0
O150 O 0.88047 0.01655 0.90304 0.0
C151 C 0.84305 0.14318 0.89642 0.0
O152 O 0.80253 0.14292 0.90387 0.0
C153 C 0.79941 0.06216 0.77512 0.0
O154 O 0.80306 0.10203 0.78663 0.0
O155 O 0.78818 0.05019 0.92753 0.0
C156 C 0.44864 0.56172 0.54549 0.0
O157 O 0.40817 0.56146 0.5535 0.0
O158 O 0.45556 0.67875 0.6276 0.0
Zn159 Zn 0.43998 0.65002 0.56121 0.0
O160 O 0.3779 0.63968 0.55741 0.0
C161 C 0.46722 0.72346 0.49714 0.0
O162 O 0.45433 0.68504 0.49158 0.0
O163 O 0.46941 0.59536 0.55084 0.0
C164 C 0.35313 0.66395 0.53372 0.0
O165 O 0.36637 0.70071 0.51839 0.0
C166 C 0.44357 0.71597 0.63635 0.0
O167 O 0.42239 0.73621 0.60117 0.0
O168 O 0.45451 0.68564 0.49466 0.0
C169 C 0.93402 0.46539 0.5746 0.0
O170 O 0.94855 0.44445 0.61398 0.0
O171 O 0.82925 0.45794 0.6699 0.0
Zn172 Zn 0.85641 0.43027 0.6085 0.0
O173 O 0.88992 0.37964 0.63041 0.0
C174 C 0.77209 0.41148 0.57377 0.0
O175 O 0.76144 0.42949 0.61721 0.0
O176 O 0.89482 0.467 0.5668 0.0
C177 C 0.87608 0.34314 0.62104 0.0
O178 O 0.83783 0.33852 0.60372 0.0
C179 C 0.84049 0.45118 0.71591 0.0
O180 O 0.8747 0.42978 0.72468 0.0
O181 O 0.8104 0.40959 0.56104 0.0
C182 C 0.00844 0.90551 0.57796 0.0
O183 O 0.04583 0.90736 0.59859 0.0
O184 O 0.01094 0.78105 0.63616 0.0
Zn185 Zn 0.02606 0.81778 0.57548 0.0
O186 O 0.08662 0.83683 0.57723 0.0
C187 C 0.0265 0.74957 0.50121 0.0
O188 O 0.03477 0.72639 0.5414 0.0
O189 O -0.00878 0.87016 0.5701 0.0
C190 C 0.116 0.81816 0.5537 0.0
O191 O 0.10982 0.78061 0.53472 0.0
C192 C 0.03884 0.75659 0.6535 0.0
O193 O 0.07631 0.75705 0.63303 0.0
O194 O 0.01837 0.78801 0.50752 0.0
C195 C 0.5614 -0.00089 0.51754 0.0
O196 O 0.56365 0.00406 0.56759 0.0
O197 O 0.66873 0.02827 0.58006 0.0
Zn198 Zn 0.63353 0.04986 0.52108 0.0
O199 O 0.59767 0.09718 0.54498 0.0
C200 C 0.70926 0.05693 0.46489 0.0
O201 O 0.71768 0.02252 0.49017 0.0
O202 O 0.59181 0.01076 0.48967 0.0
C203 C 0.58443 0.12061 0.50931 0.0
O204 O 0.59613 0.11325 0.46178 0.0
C205 C 0.68703 0.05713 0.60541 0.0
O206 O 0.67975 0.09627 0.59334 0.0
O207 O 0.67296 0.07256 0.4679 0.0
C208 C 0.60595 0.26665 0.96337 0.0
C209 C 0.57363 0.26155 -4e-05 0.0
C210 C 0.56125 0.33682 -0.00045 0.0
C211 C 0.59967 0.3424 0.97344 0.0
N212 N 0.65807 0.31275 0.92702 0.0
N213 N 0.51943 0.29149 0.05314 0.0
C214 C 0.62137 0.30741 0.95301 0.0
C215 C 0.55011 0.29642 0.01714 0.0
N216 N 0.62195 0.23229 0.93905 0.0
N217 N 0.53589 0.37048 0.00797 0.0
H218 H 0.50991 0.26241 0.06675 0.0
H219 H 0.50507 0.31645 0.07189 0.0
H220 H 0.54343 0.40029 -0.00536 0.0
H221 H 0.50588 0.36813 0.02319 0.0
H222 H 0.6431 0.23391 0.90873 0.0
H223 H 0.61076 0.20217 0.94601 0.0
H224 H 0.67816 0.28828 0.91777 0.0
H225 H 0.66962 0.34187 0.91641 0.0
C226 C 0.17109 0.51855 0.89406 0.0
C227 C 0.16455 0.56205 0.88788 0.0
C228 C 0.22809 0.57796 0.93592 0.0
C229 C 0.23432 0.53436 0.94353 0.0
N230 N 0.21864 0.46328 0.91959 0.0
N231 N 0.19248 0.63175 0.88736 0.0
C232 C 0.20808 0.50465 0.91894 0.0
C233 C 0.19534 0.59119 0.90324 0.0
N234 N 0.1409 0.49082 0.87898 0.0
N235 N 0.25075 0.60682 0.9632 0.0
H236 H 0.16846 0.6419 0.86331 0.0
H237 H 0.21592 0.65389 0.89349 0.0
H238 H 0.27407 0.59907 0.98933 0.0
H239 H 0.24395 0.63865 0.96339 0.0
H240 H 0.14115 0.45925 0.88857 0.0
H241 H 0.11444 0.49989 0.85851 0.0
H242 H 0.20279 0.44035 0.89874 0.0
H243 H 0.24572 0.45247 0.93752 0.0
C244 C 0.89558 0.16721 0.96158 0.0
C245 C 0.86838 0.17682 0.92015 0.0
C246 C 0.88169 0.25147 0.93371 0.0
C247 C 0.91235 0.24142 0.97134 0.0
N248 N 0.95565 0.18902 0.01128 0.0
N249 N 0.84117 0.22732 0.86053 0.0
C250 C 0.92155 0.19904 0.98218 0.0
C251 C 0.86328 0.21876 0.90415 0.0
N252 N 0.89487 0.12846 0.98357 0.0
N253 N 0.86796 0.29167 0.9284 0.0
H254 H 0.82719 0.20401 0.83815 0.0
H255 H 0.84002 0.25696 0.84414 0.0
H256 H 0.87872 0.31644 0.95095 0.0
H257 H 0.84262 0.29975 0.90537 0.0
H258 H 0.91096 0.12149 0.01727 0.0
H259 H 0.87518 0.10438 0.97134 0.0
H260 H 0.96567 0.15836 0.01661 0.0
H261 H 0.97649 0.21142 0.02543 0.0
C262 C 0.26671 0.86725 0.91615 0.0
C263 C 0.29279 0.89725 0.8928 0.0
C264 C 0.24745 0.95307 0.9247 0.0
C265 C 0.22715 0.9236 0.95688 0.0
N266 N 0.22281 0.85268 0.9889 0.0
N267 N 0.30921 0.96924 0.87457 0.0
C268 C 0.2376 0.88048 0.95358 0.0
C269 C 0.28317 0.94038 0.8962 0.0
N270 N 0.27075 0.826 0.90333 0.0
N271 N 0.23218 -0.00721 0.92067 0.0
H272 H 0.33466 0.96091 0.85175 0.0
H273 H 0.30675 0.00127 0.88136 0.0
H274 H 0.20548 0.00276 0.94013 0.0
H275 H 0.24351 0.01447 0.89435 0.0
H276 H 0.25032 0.80288 0.91618 0.0
H277 H 0.29185 0.81592 0.87533 0.0
H278 H 0.2321 0.82153 0.99026 0.0
H279 H 0.20504 0.86162 0.02047 0.0
C280 C 0.54031 0.22422 0.55511 0.0
C281 C 0.50848 0.22871 0.51806 0.0
C282 C 0.51625 0.1561 0.492 0.0
C283 C 0.55454 0.1547 0.51997 0.0
N284 N 0.60238 0.18674 0.58087 0.0
N285 N 0.45157 0.19372 0.47613 0.0
C286 C 0.56569 0.18791 0.55396 0.0
C287 C 0.49151 0.19279 0.49449 0.0
N288 N 0.54644 0.25556 0.59008 0.0
N289 N 0.50466 0.12335 0.46119 0.0
H290 H 0.43229 0.21956 0.48212 0.0
H291 H 0.43609 0.16769 0.46121 0.0
H292 H 0.52087 0.09513 0.46003 0.0
H293 H 0.48 0.12469 0.43513 0.0
H294 H 0.56717 0.25367 0.62083 0.0
H295 H 0.5273 0.282 0.59058 0.0
H296 H 0.61432 0.21209 0.60139 0.0
H297 H 0.62263 0.16133 0.58031 0.0
C298 C 0.27522 0.66526 0.51944 0.0
C299 C 0.31466 0.64621 0.51078 0.0
C300 C 0.28105 0.59074 0.46093 0.0
C301 C 0.24291 0.61281 0.46287 0.0
N302 N 0.20328 0.67275 0.49093 0.0
N303 N 0.35603 0.59676 0.46186 0.0
C304 C 0.23965 0.65045 0.4917 0.0
C305 C 0.3179 0.61039 0.47864 0.0
N306 N 0.27171 0.69689 0.5546 0.0
N307 N 0.28192 0.55062 0.44282 0.0
H308 H 0.38392 0.61221 0.47033 0.0
H309 H 0.35951 0.57307 0.43458 0.0
H310 H 0.25476 0.53467 0.43222 0.0
H311 H 0.30848 0.53185 0.44441 0.0
H312 H 0.24317 0.70931 0.56625 0.0
H313 H 0.29724 0.7085 0.57522 0.0
H314 H 0.20043 0.70275 0.50624 0.0
H315 H 0.1764 0.66214 0.47223 0.0
C316 C 0.88695 0.26966 0.6485 0.0
C317 C 0.90326 0.30576 0.6242 0.0
C318 C 0.95983 0.26345 0.58818 0.0
C319 C 0.93725 0.22697 0.60104 0.0
N320 N 0.87958 0.19432 0.64546 0.0
N321 N 0.95618 0.33711 0.56967 0.0
C322 C 0.90148 0.22958 0.63305 0.0
C323 C 0.94073 0.30305 0.5949 0.0
N324 N 0.85724 0.27395 0.68581 0.0
N325 N -0.00082 0.25986 0.56832 0.0
H326 H 0.94377 0.36694 0.57302 0.0
H327 H 0.97995 0.33527 0.54242 0.0
H328 H 0.01355 0.23084 0.56324 0.0
H329 H 0.01885 0.28534 0.56214 0.0
H330 H 0.84648 0.24916 0.70803 0.0
H331 H 0.8466 0.30322 0.69797 0.0
H332 H 0.85037 0.19492 0.66311 0.0
H333 H 0.88955 0.16432 0.6358 0.0
C334 C 0.14965 0.87777 0.50675 0.0
C335 C 0.15374 0.84163 0.53806 0.0
C336 C 0.22957 0.84186 0.52419 0.0
C337 C 0.2248 0.87704 0.49186 0.0
N338 N 0.18453 0.93702 0.46789 0.0
N339 N 0.19775 0.7953 0.58664 0.0
C340 C 0.18614 0.89791 0.48862 0.0
C341 C 0.1939 0.82562 0.55011 0.0
N342 N 0.1112 0.89092 0.49061 0.0
N343 N 0.26778 0.82326 0.52853 0.0
H344 H 0.17208 0.78317 0.60636 0.0
H345 H 0.22634 0.78472 0.60049 0.0
H346 H 0.29484 0.83664 0.51345 0.0
H347 H 0.27255 0.79441 0.54591 0.0
H348 H 0.10704 0.91417 0.46319 0.0
H349 H 0.0834 0.87614 0.50055 0.0
H350 H 0.15775 0.9555 0.46824 0.0
H351 H 0.21143 0.95266 0.45576 0.0
C352 C 0.40884 0.71062 0.00356 0.0
C353 C 0.37867 0.74146 0.99159 0.0
C354 C 0.32492 0.70225 0.03792 0.0
C355 C 0.35526 0.67176 0.05081 0.0
N356 N 0.42787 0.65322 0.05922 0.0
N357 N 0.3123 0.77345 0.01113 0.0
C358 C 0.39789 0.67808 0.03795 0.0
C359 C 0.33805 0.73946 0.01327 0.0
N360 N 0.44704 0.71093 0.98009 0.0
N361 N 0.28334 0.69474 0.04586 0.0
H362 H 0.32134 0.80167 -0.00555 0.0
H363 H 0.28403 0.77506 0.03088 0.0
H364 H 0.27193 0.66771 0.06314 0.0
H365 H 0.25984 0.71387 0.03135 0.0
H366 H 0.46826 0.68638 0.98283 0.0
H367 H 0.45635 0.73417 0.95459 0.0
H368 H 0.45981 0.65836 0.05461 0.0
H369 H 0.42069 0.63019 0.08605 0.0
C370 C 0.7655 0.36879 0.03936 0.0
C371 C 0.76446 0.41167 0.05376 0.0
C372 C 0.81659 0.3983 0.12056 0.0
C373 C 0.82285 0.35765 0.09991 0.0
N374 N 0.80799 0.30692 0.03274 0.0
N375 N 0.78932 0.46817 0.10713 0.0
C376 C 0.79813 0.34319 0.05807 0.0
C377 C 0.78996 0.42669 0.09437 0.0
N378 N 0.73607 0.35248 0.00684 0.0
N379 N 0.83586 0.40943 0.16547 0.0
H380 H 0.76857 0.48929 0.09046 0.0
H381 H 0.81069 0.48204 0.13218 0.0
H382 H 0.85497 0.38891 0.18582 0.0
H383 H 0.82991 0.43729 0.18495 0.0
H384 H 0.73274 0.32048 0.00019 0.0
H385 H 0.71243 0.37007 0.99022 0.0
H386 H 0.79403 0.2979 -0.00175 0.0
H387 H 0.83293 0.28772 0.04253 0.0
C388 C 0.07982 0.75271 0.97863 0.0
C389 C 0.05008 0.73017 0.00803 0.0
C390 C 0.06107 0.77756 0.08119 0.0
C391 C 0.0888 0.80148 0.05059 0.0
N392 N 0.11955 0.81644 0.96793 0.0
N393 N 0.00855 0.72245 0.08445 0.0
C394 C 0.09688 0.79027 -0.00128 0.0
C395 C 0.03955 0.74297 0.0586 0.0
N396 N 0.09233 0.73782 0.9317 0.0
N397 N 0.05608 0.78752 0.13194 0.0
H398 H -0.00703 0.69654 0.06913 0.0
H399 H -0.00362 0.73244 0.11946 0.0
H400 H 0.07099 0.81307 0.1491 0.0
H401 H 0.03949 0.76921 0.15785 0.0
H402 H 0.11785 0.74962 0.91158 0.0
H403 H 0.07907 0.71167 0.914 0.0
H404 H 0.12214 0.81274 0.92832 0.0
H405 H 0.13324 0.84402 0.98114 0.0
C406 C 0.64474 0.05816 0.97383 0.0
C407 C 0.64642 0.09354 0.00677 0.0
C408 C 0.72246 0.0971 -0.00379 0.0
C409 C 0.71905 0.06779 0.95537 0.0
N410 N 0.67953 0.01583 0.9092 0.0
N411 N 0.68667 0.14538 0.05303 0.0
C412 C 0.68096 0.0465 0.94588 0.0
C413 C 0.68538 0.11197 0.02017 0.0
N414 N 0.60844 0.0357 0.96996 0.0
N415 N 0.76093 0.11105 0.0116 0.0
H416 H 0.66088 0.15543 0.07396 0.0
H417 H 0.71289 0.16421 0.05842 0.0
H418 H 0.78869 0.10125 -0.00541 0.0
H419 H 0.76586 0.1294 0.04416 0.0
H420 H 0.60544 0.00785 0.94948 0.0
H421 H 0.58187 0.04322 0.99118 0.0
H422 H 0.65203 0.00255 0.89524 0.0
H423 H 0.70648 0.00406 0.89191 0.0
C424 C 0.43439 0.74459 0.41253 0.0
C425 C 0.45347 0.75554 0.45992 0.0
C426 C 0.41795 0.82258 0.46079 0.0
C427 C 0.39398 0.80932 0.41751 0.0
N428 N 0.38024 0.75972 0.3497 0.0
N429 N 0.47865 0.8103 0.51468 0.0
C430 C 0.40295 0.77113 0.39201 0.0
C431 C 0.45052 0.79662 0.47886 0.0
N432 N 0.44811 0.71009 0.38653 0.0
N433 N 0.40744 0.85812 0.48722 0.0
H434 H 0.50322 0.7914 0.52708 0.0
H435 H 0.48057 0.84119 0.52732 0.0
H436 H 0.38309 0.8778 0.47649 0.0
H437 H 0.4209 0.86666 0.52215 0.0
H438 H 0.43737 0.70105 0.35042 0.0
H439 H 0.47382 0.69293 0.39921 0.0
H440 H 0.38198 0.73044 0.33227 0.0
H441 H 0.35814 0.77938 0.33294 0.0
C442 C 0.71707 0.35619 0.56835 0.0
C443 C 0.74018 0.3883 0.54383 0.0
C444 C 0.70049 0.37633 0.46449 0.0
C445 C 0.67379 0.34855 0.49142 0.0
N446 N 0.65192 0.31813 0.57206 0.0
N447 N 0.75168 0.43225 0.47008 0.0
C448 C 0.68088 0.33987 0.54412 0.0
C449 C 0.73157 0.39911 0.49209 0.0
N450 N 0.73039 0.34033 0.61418 0.0
N451 N 0.69662 0.38026 0.41244 0.0
H452 H 0.77459 0.44968 0.48909 0.0
H453 H 0.74345 0.44453 0.43452 0.0
H454 H 0.67427 0.36384 0.39115 0.0
H455 H 0.71777 0.39678 0.38985 0.0
H456 H 0.71714 0.31399 0.63112 0.0
H457 H 0.75749 0.35063 0.63251 0.0
H458 H 0.65352 0.31508 0.61184 0.0
H459 H 0.62406 0.30664 0.55667 0.0
C460 C 0.08258 0.7204 0.37894 0.0
C461 C 0.07032 0.67803 0.37803 0.0
C462 C 0.01344 0.69269 0.43753 0.0
C463 C 0.03282 0.73153 0.4492 0.0
N464 N 0.08026 0.78698 0.42345 0.0
N465 N 0.01046 0.63264 0.38006 0.0
C466 C 0.06479 0.74751 0.41643 0.0
C467 C 0.03101 0.66692 0.3987 0.0
N468 N 0.11053 0.73425 0.34324 0.0
N469 N 0.97964 0.67982 0.46538 0.0
H470 H 0.02163 0.61612 0.34825 0.0
H471 H 0.9806 0.62378 0.39166 0.0
H472 H 0.96475 0.69939 0.49182 0.0
H473 H 0.96725 0.64972 0.46336 0.0
H474 H 0.11922 0.76541 0.33892 0.0
H475 H 0.12163 0.71451 0.31424 0.0
H476 H 0.10747 0.79791 0.40618 0.0
H477 H 0.06623 0.80915 0.44705 0.0
C478 C 0.75425 0.12115 0.45274 0.0
C479 C 0.74361 0.07937 0.43858 0.0
C480 C 0.81066 0.07144 0.39433 0.0
C481 C 0.82162 0.11257 0.40992 0.0
N482 N 0.79965 0.18074 0.43792 0.0
N483 N 0.75521 0.02043 0.3826 0.0
C484 C 0.79178 0.13885 0.43357 0.0
C485 C 0.76974 0.05645 0.40477 0.0
N486 N 0.73072 0.14293 0.48754 0.0
N487 N 0.83991 0.04578 0.37264 0.0
H488 H 0.72498 0.00924 0.38898 0.0
H489 H 0.77133 0.00419 0.35409 0.0
H490 H 0.87 0.0557 0.36336 0.0
H491 H 0.83514 0.01391 0.36665 0.0
H492 H 0.74039 0.17108 0.504 0.0
H493 H 0.70306 0.13188 0.50342 0.0
H494 H 0.77747 0.20231 0.4504 0.0
H495 H 0.827 0.19438 0.42382 0.0
C496 C 0.446 0.97007 0.00882 0.0
C497 C 0.45711 0.96765 0.95607 0.0
C498 C 0.48907 0.03709 0.96137 0.0
C499 C 0.48343 0.03679 0.01559 0.0
N500 N 0.45849 0.00227 0.09186 0.0
N501 N 0.49352 -0.00401 0.88311 0.0
C502 C 0.46251 0.00298 0.03959 0.0
C503 C 0.47958 0.00051 0.93248 0.0
N504 N 0.41805 0.94214 0.02895 0.0
N505 N 0.50327 0.0722 0.93722 0.0
H506 H 0.4873 0.96951 0.8608 0.0
H507 H 0.51435 0.01663 0.86579 0.0
H508 H 0.5106 0.09979 0.95643 0.0
H509 H 0.50387 0.07545 0.89744 0.0
H510 H 0.40538 0.945 0.06562 0.0
H511 H 0.40432 0.91818 0.00746 0.0
H512 H 0.4485 0.97606 0.11209 0.0
H513 H 0.46713 0.02734 0.11539 0.0
C514 C 0.49414 0.49199 0.06895 0.0
C515 C 0.46511 0.51734 0.04251 0.0
C516 C 0.51635 0.53056 0.97446 0.0
C517 C 0.54553 0.50515 0.00082 0.0
N518 N 0.56609 0.47015 0.07903 0.0
N519 N 0.45118 0.56898 0.97739 0.0
C520 C 0.53575 0.48873 0.05012 0.0
C521 C 0.47701 0.53916 -0.00259 0.0
N522 N 0.4814 0.46967 0.11084 0.0
N523 N 0.52609 0.54588 0.92698 0.0
H524 H 0.422 0.57604 -0.00709 0.0
H525 H 0.45995 0.58925 0.94811 0.0
H526 H 0.55581 0.54305 0.91083 0.0
H527 H 0.50438 0.55982 0.90269 0.0
H528 H 0.4994 0.4466 0.12815 0.0
H529 H 0.45136 0.47201 0.12617 0.0
H530 H 0.56179 0.46114 0.11704 0.0
H531 H 0.59696 0.46734 0.06713 0.0
C532 C 0.0402 0.47827 -0.00575 0.0
C533 C 0.00687 0.49744 0.96693 0.0
C534 C 0.95638 0.45064 0.0079 0.0
C535 C -0.01007 0.43065 0.03397 0.0
N536 N 0.06379 0.41974 0.04561 0.0
N537 N 0.93469 0.49882 0.94104 0.0
C538 C 0.0319 0.44259 0.02493 0.0
C539 C 0.96529 0.4828 0.97193 0.0
N540 N 0.07939 0.49551 -0.00699 0.0
N541 N 0.916 0.43893 0.01775 0.0
H542 H 0.94029 0.52263 0.91463 0.0
H543 H 0.9045 0.48677 0.93865 0.0
H544 H 0.90821 0.41329 0.04042 0.0
H545 H 0.88997 0.4555 0.00529 0.0
H546 H 0.10389 0.48589 0.01645 0.0
H547 H 0.08689 0.52186 0.97148 0.0
H548 H 0.09507 0.42382 0.03573 0.0
H549 H 0.05881 0.39437 0.06991 0.0
C550 C 0.00286 0.02197 0.98936 0.0
C551 C 0.0112 0.97861 -0.00757 0.0
C552 C 0.95994 0.96425 0.92451 0.0
C553 C 0.9526 0.00775 0.92011 0.0
N554 N 0.97249 0.07885 0.94114 0.0
N555 N 0.00638 0.90977 0.95416 0.0
C556 C 0.97597 0.03691 0.95005 0.0
C557 C -0.00782 0.95003 0.95755 0.0
N558 N 0.01897 0.04862 0.02559 0.0
N559 N 0.93596 0.93647 0.89731 0.0
H560 H 0.03102 0.89841 0.97629 0.0
H561 H -0.00331 0.88874 0.92589 0.0
H562 H 0.91395 0.94572 0.87005 0.0
H563 H 0.93618 0.90437 0.90384 0.0
H564 H 0.01008 0.07979 0.02922 0.0
H565 H 0.03887 0.03876 0.05487 0.0
H566 H -0.00747 0.10105 0.95717 0.0
H567 H 0.95164 0.09159 0.91483 0.0
C568 C 0.4755 0.52627 0.46657 0.0
C569 C 0.46818 0.52539 0.52039 0.0
C570 C 0.49999 0.45618 0.52594 0.0
C571 C 0.50426 0.45563 0.4716 0.0
N572 N 0.49049 0.48659 0.38914 0.0
N573 N 0.46714 0.48782 0.60041 0.0
C574 C 0.49057 0.48977 0.44157 0.0
C575 C 0.47832 0.48971 0.54978 0.0
N576 N 0.46837 0.56209 0.43941 0.0
N577 N 0.51867 0.42597 0.55504 0.0
H578 H 0.4528 0.51258 0.61972 0.0
H579 H 0.4693 0.46071 0.62226 0.0
H580 H 0.53586 0.40136 0.53939 0.0
H581 H 0.52048 0.42729 0.59494 0.0
H582 H 0.47766 0.56621 0.40146 0.0
H583 H 0.45569 0.58905 0.4557 0.0
H584 H 0.47668 0.50848 0.36507 0.0
H585 H 0.50115 0.46013 0.36959 0.0
C586 C 0.0029 0.46666 0.45569 0.0
C587 C 0.02451 0.50496 0.46282 0.0
C588 C 0.98671 0.51752 0.54344 0.0
C589 C 0.96347 0.48037 0.53491 0.0
N590 N 0.94435 0.42254 0.47957 0.0
N591 N 0.03107 0.57126 0.50693 0.0
C592 C 0.96994 0.45588 0.48988 0.0
C593 C 0.01485 0.53165 0.50496 0.0
N594 N 0.01494 0.43994 0.4173 0.0
N595 N 0.98219 0.53909 0.58856 0.0
H596 H 0.05143 0.58304 0.47924 0.0
H597 H 0.02155 0.59379 0.53342 0.0
H598 H 0.96045 0.53075 0.61659 0.0
H599 H 0.00172 0.56361 0.59969 0.0
H600 H 0.00376 0.40949 0.4134 0.0
H601 H 0.03872 0.44707 0.39134 0.0
H602 H 0.94453 0.40619 0.44491 0.0
H603 H 0.92052 0.41292 0.50414 0.0
C604 C 0.97617 0.97663 0.58514 0.0
C605 C -0.00871 0.94356 0.55389 0.0
C606 C 0.98708 -0.01172 0.47785 0.0
C607 C 0.96893 0.0202 0.50836 0.0
N608 N 0.93837 0.04219 0.58884 0.0
N609 N 0.00451 0.91508 0.46913 0.0
C610 C 0.96141 0.0138 0.56152 0.0
C611 C -0.00549 0.94844 0.49977 0.0
N612 N 0.9761 0.9726 0.6374 0.0
N613 N -0.0009 -0.00333 0.42852 0.0
H614 H 0.01132 0.88546 0.48324 0.0
H615 H 0.00264 0.91575 0.42921 0.0
H616 H -0.00512 0.02577 0.41135 0.0
H617 H 0.01685 0.97625 0.40623 0.0
H618 H 0.97019 -0.00265 0.66247 0.0
H619 H 0.98445 0.94496 0.65588 0.0
H620 H 0.92805 0.03709 0.62623 0.0
H621 H 0.92626 0.06938 0.57272 0.0
C622 C 0.51911 0.95192 0.46039 0.0
C623 C 0.52124 0.9877 0.49261 0.0
C624 C 0.45055 0.00817 0.46567 0.0
C625 C 0.44727 0.97088 0.43634 0.0
N626 N 0.47514 0.90262 0.41492 0.0
N627 N 0.48642 0.04673 0.53253 0.0
C628 C 0.4807 0.94151 0.43595 0.0
C629 C 0.48605 0.01462 0.49767 0.0
N630 N 0.55381 0.92768 0.45323 0.0
N631 N 0.42091 0.03865 0.46063 0.0
H632 H 0.51276 0.05584 0.55325 0.0
H633 H 0.45974 0.06342 0.54274 0.0
H634 H 0.39504 0.03563 0.43648 0.0
H635 H 0.42392 0.0685 0.47637 0.0
H636 H 0.55587 0.90463 0.42495 0.0
H637 H 0.58157 0.93213 0.47357 0.0
H638 H 0.49655 0.87838 0.41899 0.0
H639 H 0.4474 0.8928 0.39778 0.0
C640 C 0.57093 0.26745 0.26787 0.0
C641 C 0.55089 0.25024 0.31158 0.0
C642 C 0.53409 0.18658 0.2626 0.0
C643 C 0.55231 0.2048 0.2184 0.0
N644 N 0.5772 0.26667 0.17528 0.0
N645 N 0.50485 0.19803 0.34736 0.0
C646 C 0.56734 0.24655 0.2199 0.0
C647 C 0.52985 0.21113 0.30799 0.0
N648 N 0.59547 0.30233 0.27251 0.0
N649 N 0.52244 0.14544 0.26195 0.0
H650 H 0.50001 0.21579 0.3805 0.0
H651 H 0.48568 0.17172 0.34508 0.0
H652 H 0.52475 0.12659 0.22927 0.0
H653 H 0.51349 0.12916 0.29473 0.0
H654 H 0.61442 0.31332 0.24294 0.0
H655 H 0.60019 0.3181 0.30716 0.0
H656 H 0.58427 0.29846 0.17366 0.0
H657 H 0.57394 0.25272 0.13922 0.0
C658 C 0.19444 0.54652 0.20687 0.0
C659 C 0.20172 0.53658 0.25906 0.0
C660 C 0.27255 0.51322 0.23594 0.0
C661 C 0.26777 0.53147 0.18681 0.0
N662 N 0.22475 0.57105 0.12771 0.0
N663 N 0.24964 0.51133 0.3242 0.0
C664 C 0.22869 0.5491 0.17243 0.0
C665 C 0.24106 0.51947 0.27386 0.0
N666 N 0.15454 0.55343 0.19023 0.0
N667 N 0.30685 0.48921 0.2461 0.0
H668 H 0.22765 0.51329 0.35338 0.0
H669 H 0.2796 0.50476 0.3376 0.0
H670 H 0.33019 0.48361 0.21896 0.0
H671 H 0.31004 0.4715 0.27936 0.0
H672 H 0.14684 0.55708 0.1516 0.0
H673 H 0.1287 0.5507 0.21449 0.0
H674 H 0.19811 0.58815 0.1185 0.0
H675 H 0.24922 0.57598 0.10209 0.0
C676 C 0.97307 0.29093 0.29749 0.0
C677 C 0.96708 0.27042 0.24964 0.0
C678 C 0.96563 0.20224 0.29259 0.0
C679 C 0.96803 0.22318 0.34077 0.0
N680 N 0.98754 0.28457 0.38878 0.0
N681 N 0.96896 0.20658 0.19966 0.0
C682 C 0.97625 0.26673 0.34298 0.0
C683 C 0.96757 0.22604 0.24652 0.0
N684 N 0.9745 0.33365 0.29939 0.0
N685 N 0.95846 0.1601 0.2907 0.0
H686 H 0.96813 0.22248 0.1649 0.0
H687 H 0.97427 0.1747 0.19491 0.0
H688 H 0.95963 0.14093 0.3228 0.0
H689 H 0.94976 0.14403 0.25751 0.0
H690 H 0.97355 0.35096 0.33332 0.0
H691 H 0.97529 0.35204 0.26638 0.0
H692 H -0.00288 0.31553 0.39285 0.0
H693 H -0.00892 0.26707 0.42226 0.0
C694 C 0.2624 0.92377 0.21827 0.0
C695 C 0.25289 0.9314 0.27059 0.0
C696 C 0.18042 0.94794 0.24672 0.0
C697 C 0.18846 0.93337 0.19625 0.0
N698 N 0.23643 0.90324 0.13461 0.0
N699 N 0.20206 0.94938 0.33577 0.0
C700 C 0.22942 0.9207 0.18187 0.0
C701 C 0.21183 0.94382 0.28513 0.0
N702 N 0.30319 0.9199 0.2034 0.0
N703 N 0.14289 0.9663 0.25768 0.0
H704 H 0.22414 0.94846 0.36503 0.0
H705 H 0.17158 0.95262 0.34921 0.0
H706 H 0.1193 0.9697 0.23031 0.0
H707 H 0.13654 0.9815 0.29225 0.0
H708 H 0.31254 0.91837 0.16512 0.0
H709 H 0.32803 0.92266 0.22923 0.0
H710 H 0.2645 0.88905 0.12434 0.0
H711 H 0.21323 0.8996 0.10685 0.0
C712 C 0.43807 0.73649 0.7803 0.0
C713 C 0.45782 0.77624 0.78326 0.0
C714 C 0.47413 0.77283 0.69137 0.0
C715 C 0.45037 0.73543 0.68737 0.0
N716 N 0.40431 0.68469 0.72616 0.0
N717 N 0.49158 0.83445 0.74184 0.0
C718 C 0.43121 0.71777 0.73141 0.0
C719 C 0.47498 0.79508 0.7388 0.0
N720 N 0.42552 0.71672 0.82417 0.0
N721 N 0.49706 0.78617 0.65027 0.0
H722 H 0.49451 0.85082 0.77642 0.0
H723 H 0.50013 0.85191 0.70985 0.0
H724 H 0.49789 0.76989 0.6155 0.0
H725 H 0.51814 0.81099 0.65191 0.0
H726 H 0.41559 0.6857 0.825 0.0
H727 H 0.42792 0.73014 0.86059 0.0
H728 H 0.38557 0.6736 0.75583 0.0
H729 H 0.39774 0.67038 0.691 0.0
C730 C 0.77663 0.42322 0.75868 0.0
C731 C 0.80848 0.4541 0.75676 0.0
C732 C 0.78123 0.4862 0.83573 0.0
C733 C 0.74838 0.45614 0.83619 0.0
N734 N 0.70814 0.40425 0.79033 0.0
N735 N 0.83759 0.51894 0.78759 0.0
C736 C 0.74403 0.42725 0.79512 0.0
C737 C 0.80963 0.48696 0.79346 0.0
N738 N 0.77853 0.38884 0.72733 0.0
N739 N 0.7866 0.51258 0.87663 0.0
H740 H 0.85926 0.51973 0.75765 0.0
H741 H 0.83734 0.54603 0.80993 0.0
H742 H 0.76577 0.51408 0.90728 0.0
H743 H 0.81288 0.53144 0.8816 0.0
H744 H 0.75886 0.36306 0.73137 0.0
H745 H 0.80213 0.38424 0.70028 0.0
H746 H 0.70149 0.38563 0.7584 0.0
H747 H 0.68301 0.40737 0.81561 0.0
C748 C 0.05824 0.72995 0.73992 0.0
C749 C 0.03053 0.72856 0.69753 0.0
C750 C -0.00693 0.66992 0.73736 0.0
C751 C 0.02434 0.66799 0.77597 0.0
N752 N 0.09265 0.69016 0.80589 0.0
N753 N 0.97479 0.69326 0.65182 0.0
C754 C 0.05854 0.69644 0.77519 0.0
C755 C -0.00144 0.69762 0.69516 0.0
N756 N 0.08376 0.76381 0.74721 0.0
N757 N 0.95768 0.64619 0.74165 0.0
H758 H 0.97772 0.71275 0.62006 0.0
H759 H 0.95447 0.66823 0.64573 0.0
H760 H 0.95255 0.62576 0.77214 0.0
H761 H 0.93193 0.64948 0.7175 0.0
H762 H 0.10161 0.76817 0.78034 0.0
H763 H 0.08356 0.78969 0.72294 0.0
H764 H 0.11997 0.7078 0.80299 0.0
H765 H 0.09574 0.6645 0.83011 0.0
C766 C 0.76028 0.06487 0.6384 0.0
C767 C 0.71943 0.04793 0.64471 0.0
C768 C 0.73581 0.02941 0.73382 0.0
C769 C 0.77523 0.04973 0.72873 0.0
N770 N 0.82969 0.07623 0.67433 0.0
N771 N 0.67156 0.00534 0.69342 0.0
C772 C 0.78892 0.06411 0.68023 0.0
C773 C 0.70842 0.02697 0.69068 0.0
N774 N 0.77131 0.08223 0.59244 0.0
N775 N 0.72341 0.01484 0.78068 0.0
H776 H 0.6496 0.00474 0.66389 0.0
H777 H 0.66372 0.98545 0.72344 0.0
H778 H 0.74331 0.01315 0.81217 0.0
H779 H 0.69301 0.00561 0.78925 0.0
H780 H 0.79823 0.0999 0.58662 0.0
H781 H 0.75274 0.0796 0.55971 0.0
H782 H 0.84318 0.08418 0.63936 0.0
H783 H 0.85133 0.07499 0.70431 0.0
loop_
_geom_bond_atom_site_label_1
_geom_bond_atom_site_label_2
_geom_bond_distance
_geom_bond_site_symmetry_2
_ccdc_geom_bond_type
C0 O1 1.160 . S
C0 O7 1.185 . S
O1 C0 1.160 . S
O2 Zn3 1.899 . S
O2 C10 1.284 . S
Zn3 O2 1.899 . S
Zn3 O4 2.032 . S
Zn3 O7 2.086 . S
Zn3 O12 1.977 . S
O4 Zn3 2.032 . S
O4 C8 1.278 . S
C5 O6 1.203 . S
C5 O12 1.267 . S
O6 C5 1.203 . S
O7 C0 1.185 . S
O7 Zn3 2.086 . S
C8 O4 1.278 . S
C8 O9 1.211 . S
O9 C8 1.211 . S
C10 O2 1.284 . S
C10 O11 1.273 . S
O11 C10 1.273 . S
O12 Zn3 1.977 . S
O12 C5 1.267 . S
C13 O14 1.160 . S
C13 O20 1.185 . S
O14 C13 1.160 . S
O15 Zn16 1.899 . S
O15 C23 1.284 . S
Zn16 O15 1.899 . S
Zn16 O17 2.032 . S
Zn16 O20 2.086 . S
Zn16 O25 1.977 . S
O17 Zn16 2.032 . S
O17 C21 1.278 . S
C18 O19 1.203 . S
C18 O25 1.267 . S
O19 C18 1.203 . S
O20 C13 1.185 . S
O20 Zn16 2.086 . S
C21 O17 1.278 . S
C21 O22 1.211 . S
O22 C21 1.211 . S
C23 O15 1.284 . S
C23 O24 1.273 . S
O24 C23 1.273 . S
O25 Zn16 1.977 . S
O25 C18 1.267 . S
C26 O27 1.160 . S
C26 O33 1.185 . S
O27 C26 1.160 . S
O28 Zn29 1.899 . S
O28 C36 1.284 . S
Zn29 O28 1.899 . S
Zn29 O30 2.032 . S
Zn29 O33 2.086 . S
Zn29 O38 1.977 . S
O30 Zn29 2.032 . S
O30 C34 1.278 . S
C31 O32 1.203 . S
C31 O38 1.267 . S
O32 C31 1.203 . S
O33 C26 1.185 . S
O33 Zn29 2.086 . S
C34 O30 1.278 . S
C34 O35 1.211 . S
O35 C34 1.211 . S
C36 O28 1.284 . S
C36 O37 1.273 . S
O37 C36 1.273 . S
O38 Zn29 1.977 . S
O38 C31 1.267 . S
C39 O40 1.160 . S
C39 O46 1.185 . S
O40 C39 1.160 . S
O41 Zn42 1.899 . S
O41 C49 1.284 . S
Zn42 O41 1.899 . S
Zn42 O43 2.032 . S
Zn42 O46 2.086 . S
Zn42 O51 1.977 . S
O43 Zn42 2.032 . S
O43 C47 1.278 . S
C44 O45 1.203 . S
C44 O51 1.267 . S
O45 C44 1.203 . S
O46 C39 1.185 . S
O46 Zn42 2.086 . S
C47 O43 1.278 . S
C47 O48 1.211 . S
O48 C47 1.211 . S
C49 O41 1.284 . S
C49 O50 1.273 . S
O50 C49 1.273 . S
O51 Zn42 1.977 . S
O51 C44 1.267 . S
C52 O53 1.160 . S
C52 O59 1.185 . S
O53 C52 1.160 . S
O54 Zn55 1.899 . S
O54 C62 1.284 . S
Zn55 O54 1.899 . S
Zn55 O56 2.032 . S
Zn55 O59 2.086 . S
Zn55 O64 1.977 . S
O56 Zn55 2.032 . S
O56 C60 1.278 . S
C57 O58 1.203 . S
C57 O64 1.267 . S
O58 C57 1.203 . S
O59 C52 1.185 . S
O59 Zn55 2.086 . S
C60 O56 1.278 . S
C60 O61 1.211 . S
O61 C60 1.211 . S
C62 O54 1.284 . S
C62 O63 1.273 . S
O63 C62 1.273 . S
O64 Zn55 1.977 . S
O64 C57 1.267 . S
C65 O66 1.160 . S
C65 O72 1.185 . S
O66 C65 1.160 . S
O67 Zn68 1.899 . S
O67 C75 1.284 . S
Zn68 O67 1.899 . S
Zn68 O69 2.032 . S
Zn68 O72 2.086 . S
Zn68 O77 1.977 . S
O69 Zn68 2.032 . S
O69 C73 1.278 . S
C70 O71 1.203 . S
C70 O77 1.267 . S
O71 C70 1.203 . S
O72 C65 1.185 . S
O72 Zn68 2.086 . S
C73 O69 1.278 . S
C73 O74 1.211 . S
O74 C73 1.211 . S
C75 O67 1.284 . S
C75 O76 1.273 . S
O76 C75 1.273 . S
O77 Zn68 1.977 . S
O77 C70 1.267 . S
C78 O79 1.160 . S
C78 O85 1.185 . S
O79 C78 1.160 . S
O80 Zn81 1.899 . S
O80 C88 1.284 . S
Zn81 O80 1.899 . S
Zn81 O82 2.032 . S
Zn81 O85 2.086 . S
Zn81 O90 1.977 . S
O82 Zn81 2.032 . S
O82 C86 1.278 . S
C83 O84 1.203 . S
C83 O90 1.267 . S
O84 C83 1.203 . S
O85 C78 1.185 . S
O85 Zn81 2.086 . S
C86 O82 1.278 . S
C86 O87 1.211 . S
O87 C86 1.211 . S
C88 O80 1.284 . S
C88 O89 1.273 . S
O89 C88 1.273 . S
O90 Zn81 1.977 . S
O90 C83 1.267 . S
C91 O92 1.160 . S
C91 O98 1.185 . S
O92 C91 1.160 . S
O93 Zn94 1.899 . S
O93 C101 1.284 . S
Zn94 O93 1.899 . S
Zn94 O95 2.032 . S
Zn94 O98 2.086 . S
Zn94 O103 1.977 . S
O95 Zn94 2.032 . S
O95 C99 1.278 . S
C96 O97 1.203 . S
C96 O103 1.267 . S
O97 C96 1.203 . S
O98 C91 1.185 . S
O98 Zn94 2.086 . S
C99 O95 1.278 . S
C99 O100 1.211 . S
O100 C99 1.211 . S
C101 O93 1.284 . S
C101 O102 1.273 . S
O102 C101 1.273 . S
O103 Zn94 1.977 . S
O103 C96 1.267 . S
C104 O105 1.160 . S
C104 O111 1.185 . S
O105 C104 1.160 . S
O106 Zn107 1.899 . S
O106 C114 1.284 . S
Zn107 O106 1.899 . S
Zn107 O108 2.032 . S
Zn107 O111 2.086 . S
Zn107 O116 1.977 . S
O108 Zn107 2.032 . S
O108 C112 1.278 . S
C109 O110 1.203 . S
C109 O116 1.267 . S
O110 C109 1.203 . S
O111 C104 1.185 . S
O111 Zn107 2.086 . S
C112 O108 1.278 . S
C112 O113 1.211 . S
O113 C112 1.211 . S
C114 O106 1.284 . S
C114 O115 1.273 . S
O115 C114 1.273 . S
O116 Zn107 1.977 . S
O116 C109 1.267 . S
C117 O118 1.160 . S
C117 O124 1.185 . S
O118 C117 1.160 . S
O119 Zn120 1.899 . S
O119 C127 1.284 . S
Zn120 O119 1.899 . S
Zn120 O121 2.032 . S
Zn120 O124 2.086 . S
Zn120 O129 1.977 . S
O121 Zn120 2.032 . S
O121 C125 1.278 . S
C122 O123 1.203 . S
C122 O129 1.267 . S
O123 C122 1.203 . S
O124 C117 1.185 . S
O124 Zn120 2.086 . S
C125 O121 1.278 . S
C125 O126 1.211 . S
O126 C125 1.211 . S
C127 O119 1.284 . S
C127 O128 1.273 . S
O128 C127 1.273 . S
O129 Zn120 1.977 . S
O129 C122 1.267 . S
C130 O131 1.160 . S
C130 O137 1.185 . S
O131 C130 1.160 . S
O132 Zn133 1.899 . S
O132 C140 1.284 . S
Zn133 O132 1.899 . S
Zn133 O134 2.032 . S
Zn133 O137 2.086 . S
Zn133 O142 1.977 . S
O134 Zn133 2.032 . S
O134 C138 1.278 . S
C135 O136 1.203 . S
C135 O142 1.267 . S
O136 C135 1.203 . S
O137 C130 1.185 . S
O137 Zn133 2.086 . S
C138 O134 1.278 . S
C138 O139 1.211 . S
O139 C138 1.211 . S
C140 O132 1.284 . S
C140 O141 1.273 . S
O141 C140 1.273 . S
O142 Zn133 1.977 . S
O142 C135 1.267 . S
C143 O144 1.160 . S
C143 O150 1.185 . S
O144 C143 1.160 . S
O145 Zn146 1.899 . S
O145 C153 1.284 . S
Zn146 O145 1.899 . S
Zn146 O147 2.032 . S
Zn146 O150 2.086 . S
Zn146 O155 1.977 . S
O147 Zn146 2.032 . S
O147 C151 1.278 . S
C148 O149 1.203 . S
C148 O155 1.267 . S
O149 C148 1.203 . S
O150 C143 1.185 . S
O150 Zn146 2.086 . S
C151 O147 1.278 . S
C151 O152 1.211 . S
O152 C151 1.211 . S
C153 O145 1.284 . S
C153 O154 1.273 . S
O154 C153 1.273 . S
O155 Zn146 1.977 . S
O155 C148 1.267 . S
C156 O157 1.160 . S
C156 O163 1.185 . S
O157 C156 1.160 . S
O158 Zn159 1.899 . S
O158 C166 1.284 . S
Zn159 O158 1.899 . S
Zn159 O160 2.032 . S
Zn159 O163 2.086 . S
Zn159 O168 1.977 . S
O160 Zn159 2.032 . S
O160 C164 1.278 . S
C161 O162 1.203 . S
C161 O168 1.267 . S
O162 C161 1.203 . S
O163 C156 1.185 . S
O163 Zn159 2.086 . S
C164 O160 1.278 . S
C164 O165 1.211 . S
O165 C164 1.211 . S
C166 O158 1.284 . S
C166 O167 1.273 . S
O167 C166 1.273 . S
O168 Zn159 1.977 . S
O168 C161 1.267 . S
C169 O170 1.160 . S
C169 O176 1.185 . S
O170 C169 1.160 . S
O171 Zn172 1.899 . S
O171 C179 1.284 . S
Zn172 O171 1.899 . S
Zn172 O173 2.032 . S
Zn172 O176 2.086 . S
Zn172 O181 1.977 . S
O173 Zn172 2.032 . S
O173 C177 1.278 . S
C174 O175 1.203 . S
C174 O181 1.267 . S
O175 C174 1.203 . S
O176 C169 1.185 . S
O176 Zn172 2.086 . S
C177 O173 1.278 . S
C177 O178 1.211 . S
O178 C177 1.211 . S
C179 O171 1.284 . S
C179 O180 1.273 . S
O180 C179 1.273 . S
O181 Zn172 1.977 . S
O181 C174 1.267 . S
C182 O183 1.160 . S
C182 O189 1.185 . S
O183 C182 1.160 . S
O184 Zn185 1.899 . S
O184 C192 1.284 . S
Zn185 O184 1.899 . S
Zn185 O186 2.032 . S
Zn185 O189 2.086 . S
Zn185 O194 1.977 . S
O186 Zn185 2.032 . S
O186 C190 1.278 . S
C187 O188 1.203 . S
C187 O194 1.267 . S
O188 C187 1.203 . S
O189 C182 1.185 . S
O189 Zn185 2.086 . S
C190 O186 1.278 . S
C190 O191 1.211 . S
O191 C190 1.211 . S
C192 O184 1.284 . S
C192 O193 1.273 . S
O193 C192 1.273 . S
O194 Zn185 1.977 . S
O194 C187 1.267 . S
C195 O196 1.160 . S
C195 O202 1.185 . S
O196 C195 1.160 . S
O197 Zn198 1.899 . S
O197 C205 1.284 . S
Zn198 O197 1.899 . S
Zn198 O199 2.032 . S
Zn198 O202 2.086 . S
Zn198 O207 1.977 . S
O199 Zn198 2.032 . S
O199 C203 1.278 . S
C200 O201 1.203 . S
C200 O207 1.267 . S
O201 C200 1.203 . S
O202 C195 1.185 . S
O202 Zn198 2.086 . S
C203 O199 1.278 . S
C203 O204 1.211 . S
O204 C203 1.211 . S
C205 O197 1.284 . S
C205 O206 1.273 . S
O206 C205 1.273 . S
O207 Zn198 1.977 . S
O207 C200 1.267 . S
C208 C209 1.363 . S
C208 C214 1.379 . S
C208 N216 1.356 . S
C209 C208 1.363 . S
C209 C215 1.363 1_556 S
C210 C211 1.363 . S
C210 C215 1.379 1_556 S
C210 N217 1.356 . S
C211 C210 1.363 . S
C211 C214 1.363 . S
N212 C214 1.356 . S
N212 H224 0.984 . S
N212 H225 0.985 . S
N213 C215 1.356 . S
N213 H218 0.984 . S
N213 H219 0.985 . S
C214 C208 1.379 . S
C214 C211 1.363 . S
C214 N212 1.356 . S
C215 C209 1.363 1_554 S
C215 C210 1.379 1_554 S
C215 N213 1.356 . S
N216 C208 1.356 . S
N216 H222 0.984 . S
N216 H223 0.984 . S
N217 C210 1.356 . S
N217 H220 0.984 . S
N217 H221 0.985 1_556 S
H218 N213 0.984 . S
H219 N213 0.985 . S
H220 N217 0.984 . S
H221 N217 0.985 1_554 S
H222 N216 0.984 . S
H223 N216 0.984 . S
H224 N212 0.984 . S
H225 N212 0.985 . S
C226 C227 1.363 . S
C226 C232 1.379 . S
C226 N234 1.356 . S
C227 C226 1.363 . S
C227 C233 1.363 . S
C228 C229 1.363 1_554 S
C228 C233 1.379 1_554 S
C228 N235 1.356 . S
C229 C228 1.363 1_556 S
C229 C232 1.363 . S
N230 C232 1.356 . S
N230 H242 0.984 . S
N230 H243 0.985 . S
N231 C233 1.356 . S
N231 H236 0.984 . S
N231 H237 0.985 1_556 S
C232 C226 1.379 . S
C232 C229 1.363 . S
C232 N230 1.356 . S
C233 C227 1.363 . S
C233 C228 1.379 1_556 S
C233 N231 1.356 . S
N234 C226 1.356 . S
N234 H240 0.984 . S
N234 H241 0.984 . S
N235 C228 1.356 . S
N235 H238 0.984 . S
N235 H239 0.985 . S
H236 N231 0.984 . S
H237 N231 0.985 1_554 S
H238 N235 0.984 . S
H239 N235 0.985 . S
H240 N234 0.984 . S
H241 N234 0.984 . S
H242 N230 0.984 . S
H243 N230 0.985 . S
C244 C245 1.363 1_554 S
C244 C250 1.379 . S
C244 N252 1.356 . S
C245 C244 1.363 1_556 S
C245 C251 1.363 . S
C246 C247 1.363 . S
C246 C251 1.379 . S
C246 N253 1.356 . S
C247 C246 1.363 . S
C247 C250 1.363 1_556 S
N248 C250 1.356 . S
N248 H260 0.984 . S
N248 H261 0.985 . S
N249 C251 1.356 . S
N249 H254 0.984 . S
N249 H255 0.985 . S
C250 C244 1.379 . S
C250 C247 1.363 1_554 S
C250 N248 1.356 . S
C251 C245 1.363 . S
C251 C246 1.379 . S
C251 N249 1.356 . S
N252 C244 1.356 . S
N252 H258 0.984 . S
N252 H259 0.984 1_554 S
N253 C246 1.356 . S
N253 H256 0.984 . S
N253 H257 0.985 . S
H254 N249 0.984 . S
H255 N249 0.985 . S
H256 N253 0.984 . S
H257 N253 0.985 . S
H258 N252 0.984 . S
H259 N252 0.984 1_556 S
H260 N248 0.984 . S
H261 N248 0.985 . S
C262 C263 1.363 . S
C262 C268 1.379 1_556 S
C262 N270 1.356 . S
C263 C262 1.363 . S
C263 C269 1.363 . S
C264 C265 1.363 . S
C264 C269 1.379 . S
C264 N271 1.356 . S
C265 C264 1.363 . S
C265 C268 1.363 1_556 S
N266 C268 1.356 . S
N266 H278 0.984 . S
N266 H279 0.985 . S
N267 C269 1.356 . S
N267 H272 0.984 . S
N267 H273 0.985 . S
C268 C262 1.379 1_554 S
C268 C265 1.363 1_554 S
C268 N266 1.356 . S
C269 C263 1.363 . S
C269 C264 1.379 . S
C269 N267 1.356 . S
N270 C262 1.356 . S
N270 H276 0.984 1_556 S
N270 H277 0.984 . S
N271 C264 1.356 . S
N271 H274 0.979 1_565 S
N271 H275 0.985 1_565 S
H272 N267 0.984 . S
H273 N267 0.985 . S
H274 N271 0.979 1_545 S
H275 N271 0.985 1_545 S
H276 N270 0.984 1_554 S
H277 N270 0.984 . S
H278 N266 0.984 . S
H279 N266 0.985 . S
C280 C281 1.363 . S
C280 C286 1.379 . S
C280 N288 1.356 . S
C281 C280 1.363 . S
C281 C287 1.363 . S
C282 C283 1.363 . S
C282 C287 1.379 . S
C282 N289 1.356 . S
C283 C282 1.363 . S
C283 C286 1.363 . S
N284 C286 1.356 . S
N284 H296 0.984 . S
N284 H297 0.985 . S
N285 C287 1.356 . S
N285 H290 0.984 . S
N285 H291 0.985 . S
C286 C280 1.379 . S
C286 C283 1.363 . S
C286 N284 1.356 . S
C287 C281 1.363 . S
C287 C282 1.379 . S
C287 N285 1.356 . S
N288 C280 1.356 . S
N288 H294 0.984 . S
N288 H295 0.984 . S
N289 C282 1.356 . S
N289 H292 0.984 . S
N289 H293 0.985 . S
H290 N285 0.984 . S
H291 N285 0.985 . S
H292 N289 0.984 . S
H293 N289 0.985 . S
H294 N288 0.984 . S
H295 N288 0.984 . S
H296 N284 0.984 . S
H297 N284 0.985 . S
C298 C299 1.363 . S
C298 C304 1.379 . S
C298 N306 1.356 . S
C299 C298 1.363 . S
C299 C305 1.363 . S
C300 C301 1.363 . S
C300 C305 1.379 . S
C300 N307 1.356 . S
C301 C300 1.363 . S
C301 C304 1.363 . S
N302 C304 1.356 . S
N302 H314 0.984 . S
N302 H315 0.985 . S
N303 C305 1.356 . S
N303 H308 0.984 . S
N303 H309 0.985 . S
C304 C298 1.379 . S
C304 C301 1.363 . S
C304 N302 1.356 . S
C305 C299 1.363 . S
C305 C300 1.379 . S
C305 N303 1.356 . S
N306 C298 1.356 . S
N306 H312 0.984 . S
N306 H313 0.984 . S
N307 C300 1.356 . S
N307 H310 0.984 . S
N307 H311 0.985 . S
H308 N303 0.984 . S
H309 N303 0.985 . S
H310 N307 0.984 . S
H311 N307 0.985 . S
H312 N306 0.984 . S
H313 N306 0.984 . S
H314 N302 0.984 . S
H315 N302 0.985 . S
C316 C317 1.363 . S
C316 C322 1.379 . S
C316 N324 1.356 . S
C317 C316 1.363 . S
C317 C323 1.363 . S
C318 C319 1.363 . S
C318 C323 1.379 . S
C318 N325 1.356 . S
C319 C318 1.363 . S
C319 C322 1.363 . S
N320 C322 1.356 . S
N320 H332 0.984 . S
N320 H333 0.985 . S
N321 C323 1.356 . S
N321 H326 0.984 . S
N321 H327 0.985 . S
C322 C316 1.379 . S
C322 C319 1.363 . S
C322 N320 1.356 . S
C323 C317 1.363 . S
C323 C318 1.379 . S
C323 N321 1.356 . S
N324 C316 1.356 . S
N324 H330 0.984 . S
N324 H331 0.984 . S
N325 C318 1.356 . S
N325 H328 0.984 . S
N325 H329 0.985 . S
H326 N321 0.984 . S
H327 N321 0.985 . S
H328 N325 0.984 . S
H329 N325 0.985 . S
H330 N324 0.984 . S
H331 N324 0.984 . S
H332 N320 0.984 . S
H333 N320 0.985 . S
C334 C335 1.363 . S
C334 C340 1.379 . S
C334 N342 1.356 . S
C335 C334 1.363 . S
C335 C341 1.363 . S
C336 C337 1.363 . S
C336 C341 1.379 . S
C336 N343 1.356 . S
C337 C336 1.363 . S
C337 C340 1.363 . S
N338 C340 1.356 . S
N338 H350 0.984 . S
N338 H351 0.985 . S
N339 C341 1.356 . S
N339 H344 0.984 . S
N339 H345 0.985 . S
C340 C334 1.379 . S
C340 C337 1.363 . S
C340 N338 1.356 . S
C341 C335 1.363 . S
C341 C336 1.379 . S
C341 N339 1.356 . S
N342 C334 1.356 . S
N342 H348 0.984 . S
N342 H349 0.984 . S
N343 C336 1.356 . S
N343 H346 0.984 . S
N343 H347 0.985 . S
H344 N339 0.984 . S
H345 N339 0.985 . S
H346 N343 0.984 . S
H347 N343 0.985 . S
H348 N342 0.984 . S
H349 N342 0.984 . S
H350 N338 0.984 . S
H351 N338 0.985 . S
C352 C353 1.363 . S
C352 C358 1.379 . S
C352 N360 1.356 . S
C353 C352 1.363 . S
C353 C359 1.363 1_554 S
C354 C355 1.363 . S
C354 C359 1.379 1_554 S
C354 N361 1.356 1_554 S
C355 C354 1.363 . S
C355 C358 1.363 . S
N356 C358 1.356 . S
N356 H368 0.984 . S
N356 H369 0.985 . S
N357 C359 1.356 . S
N357 H362 0.984 . S
N357 H363 0.985 . S
C358 C352 1.379 . S
C358 C355 1.363 . S
C358 N356 1.356 . S
C359 C353 1.363 1_556 S
C359 C354 1.379 1_556 S
C359 N357 1.356 . S
N360 C352 1.356 . S
N360 H366 0.984 . S
N360 H367 0.984 . S
N361 C354 1.356 1_556 S
N361 H364 0.984 1_556 S
N361 H365 0.985 . S
H362 N357 0.984 . S
H363 N357 0.985 . S
H364 N361 0.984 1_554 S
H365 N361 0.985 . S
H366 N360 0.984 . S
H367 N360 0.984 . S
H368 N356 0.984 . S
H369 N356 0.985 . S
C370 C371 1.363 1_556 S
C370 C376 1.379 1_556 S
C370 N378 1.356 . S
C371 C370 1.363 1_554 S
C371 C377 1.363 . S
C372 C373 1.363 . S
C372 C377 1.379 . S
C372 N379 1.356 . S
C373 C372 1.363 . S
C373 C376 1.363 . S
N374 C376 1.355 1_556 S
N374 H386 0.993 . S
N374 H387 0.978 1_556 S
N375 C377 1.356 . S
N375 H380 0.984 . S
N375 H381 0.985 . S
C376 C370 1.379 1_554 S
C376 C373 1.363 . S
C376 N374 1.355 1_554 S
C377 C371 1.363 . S
C377 C372 1.379 . S
C377 N375 1.356 . S
N378 C370 1.356 . S
N378 H384 0.984 . S
N378 H385 0.984 . S
N379 C372 1.356 . S
N379 H382 0.984 . S
N379 H383 0.985 . S
H380 N375 0.984 . S
H381 N375 0.985 . S
H382 N379 0.984 . S
H383 N379 0.985 . S
H384 N378 0.984 . S
H385 N378 0.984 . S
H386 N374 0.993 . S
H387 N374 0.978 1_554 S
C388 C389 1.363 1_556 S
C388 C394 1.379 1_556 S
C388 N396 1.356 . S
C389 C388 1.363 1_554 S
C389 C395 1.363 . S
C390 C391 1.363 . S
C390 C395 1.379 . S
C390 N397 1.356 . S
C391 C390 1.363 . S
C391 C394 1.363 . S
N392 C394 1.356 . S
N392 H404 0.984 1_554 S
N392 H405 0.985 . S
N393 C395 1.356 . S
N393 H398 0.991 . S
N393 H399 0.985 1_455 S
C394 C388 1.379 1_554 S
C394 C391 1.363 . S
C394 N392 1.356 . S
C395 C389 1.363 . S
C395 C390 1.379 . S
C395 N393 1.356 . S
N396 C388 1.356 . S
N396 H402 0.984 . S
N396 H403 0.984 . S
N397 C390 1.356 . S
N397 H400 0.984 . S
N397 H401 0.985 . S
H398 N393 0.991 . S
H399 N393 0.985 1_655 S
H400 N397 0.984 . S
H401 N397 0.985 . S
H402 N396 0.984 . S
H403 N396 0.984 . S
H404 N392 0.984 1_556 S
H405 N392 0.985 . S
C406 C407 1.363 . S
C406 C412 1.379 1_554 S
C406 N414 1.356 . S
C407 C406 1.363 . S
C407 C413 1.363 . S
C408 C409 1.363 . S
C408 C413 1.379 . S
C408 N415 1.356 . S
C409 C408 1.363 . S
C409 C412 1.363 1_554 S
N410 C412 1.356 . S
N410 H422 0.984 . S
N410 H423 0.985 . S
N411 C413 1.356 . S
N411 H416 0.984 . S
N411 H417 0.985 . S
C412 C406 1.379 1_556 S
C412 C409 1.363 1_556 S
C412 N410 1.356 . S
C413 C407 1.363 . S
C413 C408 1.379 . S
C413 N411 1.356 . S
N414 C406 1.356 . S
N414 H420 0.984 1_554 S
N414 H421 0.984 . S
N415 C408 1.356 . S
N415 H418 0.984 . S
N415 H419 0.985 . S
H416 N411 0.984 . S
H417 N411 0.985 . S
H418 N415 0.984 . S
H419 N415 0.985 . S
H420 N414 0.984 1_556 S
H421 N414 0.984 . S
H422 N410 0.984 . S
H423 N410 0.985 . S
C424 C425 1.363 . S
C424 C430 1.379 . S
C424 N432 1.356 . S
C425 C424 1.363 . S
C425 C431 1.363 . S
C426 C427 1.363 . S
C426 C431 1.379 . S
C426 N433 1.356 . S
C427 C426 1.363 . S
C427 C430 1.363 . S
N428 C430 1.356 . S
N428 H440 0.984 . S
N428 H441 0.985 . S
N429 C431 1.356 . S
N429 H434 0.984 . S
N429 H435 0.985 . S
C430 C424 1.379 . S
C430 C427 1.363 . S
C430 N428 1.356 . S
C431 C425 1.363 . S
C431 C426 1.379 . S
C431 N429 1.356 . S
N432 C424 1.356 . S
N432 H438 0.984 . S
N432 H439 0.984 . S
N433 C426 1.356 . S
N433 H436 0.984 . S
N433 H437 0.985 . S
H434 N429 0.984 . S
H435 N429 0.985 . S
H436 N433 0.984 . S
H437 N433 0.985 . S
H438 N432 0.984 . S
H439 N432 0.984 . S
H440 N428 0.984 . S
H441 N428 0.985 . S
C442 C443 1.363 . S
C442 C448 1.379 . S
C442 N450 1.356 . S
C443 C442 1.363 . S
C443 C449 1.363 . S
C444 C445 1.363 . S
C444 C449 1.379 . S
C444 N451 1.356 . S
C445 C444 1.363 . S
C445 C448 1.363 . S
N446 C448 1.356 . S
N446 H458 0.984 . S
N446 H459 0.985 . S
N447 C449 1.356 . S
N447 H452 0.984 . S
N447 H453 0.985 . S
C448 C442 1.379 . S
C448 C445 1.363 . S
C448 N446 1.356 . S
C449 C443 1.363 . S
C449 C444 1.379 . S
C449 N447 1.356 . S
N450 C442 1.356 . S
N450 H456 0.984 . S
N450 H457 0.984 . S
N451 C444 1.356 . S
N451 H454 0.984 . S
N451 H455 0.985 . S
H452 N447 0.984 . S
H453 N447 0.985 . S
H454 N451 0.984 . S
H455 N451 0.985 . S
H456 N450 0.984 . S
H457 N450 0.984 . S
H458 N446 0.984 . S
H459 N446 0.985 . S
C460 C461 1.363 . S
C460 C466 1.379 . S
C460 N468 1.356 . S
C461 C460 1.363 . S
C461 C467 1.363 . S
C462 C463 1.363 . S
C462 C467 1.379 . S
C462 N469 1.356 . S
C463 C462 1.363 . S
C463 C466 1.363 . S
N464 C466 1.356 . S
N464 H476 0.984 . S
N464 H477 0.985 . S
N465 C467 1.356 . S
N465 H470 0.984 . S
N465 H471 0.985 . S
C466 C460 1.379 . S
C466 C463 1.363 . S
C466 N464 1.356 . S
C467 C461 1.363 . S
C467 C462 1.379 . S
C467 N465 1.356 . S
N468 C460 1.356 . S
N468 H474 0.984 . S
N468 H475 0.984 . S
N469 C462 1.356 . S
N469 H472 0.984 . S
N469 H473 0.985 . S
H470 N465 0.984 . S
H471 N465 0.985 . S
H472 N469 0.984 . S
H473 N469 0.985 . S
H474 N468 0.984 . S
H475 N468 0.984 . S
H476 N464 0.984 . S
H477 N464 0.985 . S
C478 C479 1.363 . S
C478 C484 1.379 . S
C478 N486 1.356 . S
C479 C478 1.363 . S
C479 C485 1.363 . S
C480 C481 1.363 . S
C480 C485 1.379 . S
C480 N487 1.356 . S
C481 C480 1.363 . S
C481 C484 1.363 . S
N482 C484 1.356 . S
N482 H494 0.984 . S
N482 H495 0.985 . S
N483 C485 1.356 . S
N483 H488 0.984 1_545 S
N483 H489 0.985 1_545 S
C484 C478 1.379 . S
C484 C481 1.363 . S
C484 N482 1.356 . S
C485 C479 1.363 . S
C485 C480 1.379 . S
C485 N483 1.356 . S
N486 C478 1.356 . S
N486 H492 0.984 . S
N486 H493 0.984 . S
N487 C480 1.356 . S
N487 H490 0.984 . S
N487 H491 0.985 . S
H488 N483 0.984 1_565 S
H489 N483 0.985 1_565 S
H490 N487 0.984 . S
H491 N487 0.985 . S
H492 N486 0.984 . S
H493 N486 0.984 . S
H494 N482 0.984 . S
H495 N482 0.985 . S
C496 C497 1.363 1_554 S
C496 C502 1.379 1_565 S
C496 N504 1.356 . S
C497 C496 1.363 1_556 S
C497 C503 1.363 . S
C498 C499 1.363 1_556 S
C498 C503 1.379 1_545 S
C498 N505 1.356 . S
C499 C498 1.363 1_554 S
C499 C502 1.363 . S
N500 C502 1.356 . S
N500 H512 0.984 . S
N500 H513 0.985 . S
N501 C503 1.356 . S
N501 H506 0.984 . S
N501 H507 0.985 . S
C502 C496 1.379 1_545 S
C502 C499 1.363 . S
C502 N500 1.356 . S
C503 C497 1.363 . S
C503 C498 1.379 1_565 S
C503 N501 1.356 . S
N504 C496 1.356 . S
N504 H510 0.984 . S
N504 H511 0.984 . S
N505 C498 1.356 . S
N505 H508 0.984 . S
N505 H509 0.985 . S
H506 N501 0.984 . S
H507 N501 0.985 . S
H508 N505 0.984 . S
H509 N505 0.985 . S
H510 N504 0.984 . S
H511 N504 0.984 . S
H512 N500 0.984 . S
H513 N500 0.985 . S
C514 C515 1.363 . S
C514 C520 1.379 . S
C514 N522 1.356 . S
C515 C514 1.363 . S
C515 C521 1.363 1_554 S
C516 C517 1.363 . S
C516 C521 1.379 . S
C516 N523 1.356 . S
C517 C516 1.363 . S
C517 C520 1.363 1_556 S
N518 C520 1.356 . S
N518 H530 0.984 . S
N518 H531 0.985 . S
N519 C521 1.356 . S
N519 H524 0.984 . S
N519 H525 0.985 . S
C520 C514 1.379 . S
C520 C517 1.363 1_554 S
C520 N518 1.356 . S
C521 C515 1.363 1_556 S
C521 C516 1.379 . S
C521 N519 1.356 . S
N522 C514 1.356 . S
N522 H528 0.984 . S
N522 H529 0.984 . S
N523 C516 1.356 . S
N523 H526 0.984 . S
N523 H527 0.985 . S
H524 N519 0.984 . S
H525 N519 0.985 . S
H526 N523 0.984 . S
H527 N523 0.985 . S
H528 N522 0.984 . S
H529 N522 0.984 . S
H530 N518 0.984 . S
H531 N518 0.985 . S
C532 C533 1.363 1_454 S
C532 C538 1.379 . S
C532 N540 1.356 . S
C533 C532 1.363 1_656 S
C533 C539 1.363 . S
C534 C535 1.363 1_656 S
C534 C539 1.379 . S
C534 N541 1.356 . S
C535 C534 1.363 1_454 S
C535 C538 1.363 . S
N536 C538 1.356 . S
N536 H548 0.984 . S
N536 H549 0.985 . S
N537 C539 1.356 . S
N537 H542 0.984 . S
N537 H543 0.985 . S
C538 C532 1.379 . S
C538 C535 1.363 . S
C538 N536 1.356 . S
C539 C533 1.363 . S
C539 C534 1.379 . S
C539 N537 1.356 . S
N540 C532 1.356 . S
N540 H546 0.984 . S
N540 H547 0.984 . S
N541 C534 1.356 . S
N541 H544 0.984 . S
N541 H545 0.985 . S
H542 N537 0.984 . S
H543 N537 0.985 . S
H544 N541 0.984 . S
H545 N541 0.985 . S
H546 N540 0.984 . S
H547 N540 0.984 . S
H548 N536 0.984 . S
H549 N536 0.985 . S
C550 C551 1.363 . S
C550 C556 1.379 1_455 S
C550 N558 1.356 . S
C551 C550 1.363 . S
C551 C557 1.363 1_544 S
C552 C553 1.363 . S
C552 C557 1.379 1_655 S
C552 N559 1.356 . S
C553 C552 1.363 . S
C553 C556 1.363 1_566 S
N554 C556 1.356 . S
N554 H566 0.984 . S
N554 H567 0.985 . S
N555 C557 1.356 . S
N555 H560 0.984 . S
N555 H561 0.985 . S
C556 C550 1.379 1_655 S
C556 C553 1.363 1_544 S
C556 N554 1.356 . S
C557 C551 1.363 1_566 S
C557 C552 1.379 1_455 S
C557 N555 1.356 . S
N558 C550 1.356 . S
N558 H564 0.984 . S
N558 H565 0.984 . S
N559 C552 1.356 . S
N559 H562 0.984 . S
N559 H563 0.985 . S
H560 N555 0.984 . S
H561 N555 0.985 . S
H562 N559 0.984 . S
H563 N559 0.985 . S
H564 N558 0.984 . S
H565 N558 0.984 . S
H566 N554 0.984 . S
H567 N554 0.985 . S
C568 C569 1.363 . S
C568 C574 1.379 . S
C568 N576 1.356 . S
C569 C568 1.363 . S
C569 C575 1.363 . S
C570 C571 1.363 . S
C570 C575 1.379 . S
C570 N577 1.356 . S
C571 C570 1.363 . S
C571 C574 1.363 . S
N572 C574 1.356 . S
N572 H584 0.984 . S
N572 H585 0.985 . S
N573 C575 1.356 . S
N573 H578 0.984 . S
N573 H579 0.985 . S
C574 C568 1.379 . S
C574 C571 1.363 . S
C574 N572 1.356 . S
C575 C569 1.363 . S
C575 C570 1.379 . S
C575 N573 1.356 . S
N576 C568 1.356 . S
N576 H582 0.984 . S
N576 H583 0.984 . S
N577 C570 1.356 . S
N577 H580 0.984 . S
N577 H581 0.985 . S
H578 N573 0.984 . S
H579 N573 0.985 . S
H580 N577 0.984 . S
H581 N577 0.985 . S
H582 N576 0.984 . S
H583 N576 0.984 . S
H584 N572 0.984 . S
H585 N572 0.985 . S
C586 C587 1.363 . S
C586 C592 1.379 1_455 S
C586 N594 1.356 . S
C587 C586 1.363 . S
C587 C593 1.363 . S
C588 C589 1.363 . S
C588 C593 1.379 1_655 S
C588 N595 1.356 . S
C589 C588 1.363 . S
C589 C592 1.363 . S
N590 C592 1.356 . S
N590 H602 0.984 . S
N590 H603 0.985 . S
N591 C593 1.356 . S
N591 H596 0.984 . S
N591 H597 0.985 . S
C592 C586 1.379 1_655 S
C592 C589 1.363 . S
C592 N590 1.356 . S
C593 C587 1.363 . S
C593 C588 1.379 1_455 S
C593 N591 1.356 . S
N594 C586 1.356 . S
N594 H600 0.984 . S
N594 H601 0.984 . S
N595 C588 1.356 . S
N595 H598 0.984 . S
N595 H599 0.985 . S
H596 N591 0.984 . S
H597 N591 0.985 . S
H598 N595 0.984 . S
H599 N595 0.985 . S
H600 N594 0.984 . S
H601 N594 0.984 . S
H602 N590 0.984 . S
H603 N590 0.985 . S
C604 C605 1.363 . S
C604 C610 1.379 1_565 S
C604 N612 1.356 . S
C605 C604 1.363 . S
C605 C611 1.363 1_655 S
C606 C607 1.363 . S
C606 C611 1.379 1_545 S
C606 N613 1.356 . S
C607 C606 1.363 . S
C607 C610 1.363 1_455 S
N608 C610 1.356 . S
N608 H620 0.984 . S
N608 H621 0.985 . S
N609 C611 1.356 . S
N609 H614 0.984 . S
N609 H615 0.985 . S
C610 C604 1.379 1_545 S
C610 C607 1.363 1_655 S
C610 N608 1.356 . S
C611 C605 1.363 1_455 S
C611 C606 1.379 1_565 S
C611 N609 1.356 . S
N612 C604 1.356 . S
N612 H618 0.984 . S
N612 H619 0.984 . S
N613 C606 1.356 . S
N613 H616 0.984 . S
N613 H617 0.985 . S
H614 N609 0.984 . S
H615 N609 0.985 . S
H616 N613 0.984 . S
H617 N613 0.985 . S
H618 N612 0.984 . S
H619 N612 0.984 . S
H620 N608 0.984 . S
H621 N608 0.985 . S
C622 C623 1.363 . S
C622 C628 1.379 . S
C622 N630 1.356 . S
C623 C622 1.363 . S
C623 C629 1.363 1_565 S
C624 C625 1.363 . S
C624 C629 1.379 . S
C624 N631 1.356 . S
C625 C624 1.363 . S
C625 C628 1.363 1_545 S
N626 C628 1.356 . S
N626 H638 0.984 . S
N626 H639 0.985 . S
N627 C629 1.356 . S
N627 H632 0.984 . S
N627 H633 0.985 . S
C628 C622 1.379 . S
C628 C625 1.363 1_565 S
C628 N626 1.356 . S
C629 C623 1.363 1_545 S
C629 C624 1.379 . S
C629 N627 1.356 . S
N630 C622 1.356 . S
N630 H636 0.984 . S
N630 H637 0.984 . S
N631 C624 1.356 . S
N631 H634 0.984 . S
N631 H635 0.985 . S
H632 N627 0.984 . S
H633 N627 0.985 . S
H634 N631 0.984 . S
H635 N631 0.985 . S
H636 N630 0.984 . S
H637 N630 0.984 . S
H638 N626 0.984 . S
H639 N626 0.985 . S
C640 C641 1.363 . S
C640 C646 1.379 . S
C640 N648 1.356 . S
C641 C640 1.363 . S
C641 C647 1.363 . S
C642 C643 1.363 . S
C642 C647 1.379 . S
C642 N649 1.356 . S
C643 C642 1.363 . S
C643 C646 1.363 . S
N644 C646 1.356 . S
N644 H656 0.984 . S
N644 H657 0.985 . S
N645 C647 1.356 . S
N645 H650 0.984 . S
N645 H651 0.985 . S
C646 C640 1.379 . S
C646 C643 1.363 . S
C646 N644 1.356 . S
C647 C641 1.363 . S
C647 C642 1.379 . S
C647 N645 1.356 . S
N648 C640 1.356 . S
N648 H654 0.984 . S
N648 H655 0.984 . S
N649 C642 1.356 . S
N649 H652 0.984 . S
N649 H653 0.985 . S
H650 N645 0.984 . S
H651 N645 0.985 . S
H652 N649 0.984 . S
H653 N649 0.985 . S
H654 N648 0.984 . S
H655 N648 0.984 . S
H656 N644 0.984 . S
H657 N644 0.985 . S
C658 C659 1.363 . S
C658 C664 1.379 . S
C658 N666 1.356 . S
C659 C658 1.363 . S
C659 C665 1.363 . S
C660 C661 1.363 . S
C660 C665 1.379 . S
C660 N667 1.356 . S
C661 C660 1.363 . S
C661 C664 1.363 . S
N662 C664 1.356 . S
N662 H674 0.984 . S
N662 H675 0.985 . S
N663 C665 1.356 . S
N663 H668 0.984 . S
N663 H669 0.985 . S
C664 C658 1.379 . S
C664 C661 1.363 . S
C664 N662 1.356 . S
C665 C659 1.363 . S
C665 C660 1.379 . S
C665 N663 1.356 . S
N666 C658 1.356 . S
N666 H672 0.984 . S
N666 H673 0.984 . S
N667 C660 1.356 . S
N667 H670 0.984 . S
N667 H671 0.985 . S
H668 N663 0.984 . S
H669 N663 0.985 . S
H670 N667 0.984 . S
H671 N667 0.985 . S
H672 N666 0.984 . S
H673 N666 0.984 . S
H674 N662 0.984 . S
H675 N662 0.985 . S
C676 C677 1.363 . S
C676 C682 1.379 . S
C676 N684 1.356 . S
C677 C676 1.363 . S
C677 C683 1.363 . S
C678 C679 1.363 . S
C678 C683 1.379 . S
C678 N685 1.356 . S
C679 C678 1.363 . S
C679 C682 1.363 . S
N680 C682 1.356 . S
N680 H692 0.984 . S
N680 H693 0.985 . S
N681 C683 1.356 . S
N681 H686 0.984 . S
N681 H687 0.985 . S
C682 C676 1.379 . S
C682 C679 1.363 . S
C682 N680 1.356 . S
C683 C677 1.363 . S
C683 C678 1.379 . S
C683 N681 1.356 . S
N684 C676 1.356 . S
N684 H690 0.984 . S
N684 H691 0.984 . S
N685 C678 1.356 . S
N685 H688 0.984 . S
N685 H689 0.985 . S
H686 N681 0.984 . S
H687 N681 0.985 . S
H688 N685 0.984 . S
H689 N685 0.985 . S
H690 N684 0.984 . S
H691 N684 0.984 . S
H692 N680 0.984 . S
H693 N680 0.985 . S
C694 C695 1.363 . S
C694 C700 1.379 . S
C694 N702 1.356 . S
C695 C694 1.363 . S
C695 C701 1.363 . S
C696 C697 1.363 . S
C696 C701 1.379 . S
C696 N703 1.356 . S
C697 C696 1.363 . S
C697 C700 1.363 . S
N698 C700 1.356 . S
N698 H710 0.984 . S
N698 H711 0.985 . S
N699 C701 1.356 . S
N699 H704 0.984 . S
N699 H705 0.985 1_565 S
C700 C694 1.379 . S
C700 C697 1.363 . S
C700 N698 1.356 . S
C701 C695 1.363 . S
C701 C696 1.379 . S
C701 N699 1.356 . S
N702 C694 1.356 . S
N702 H708 0.984 . S
N702 H709 0.984 . S
N703 C696 1.356 . S
N703 H706 0.984 . S
N703 H707 0.985 1_565 S
H704 N699 0.984 . S
H705 N699 0.985 1_545 S
H706 N703 0.984 . S
H707 N703 0.985 1_545 S
H708 N702 0.984 . S
H709 N702 0.984 . S
H710 N698 0.984 . S
H711 N698 0.985 . S
C712 C713 1.363 . S
C712 C718 1.379 . S
C712 N720 1.356 . S
C713 C712 1.363 . S
C713 C719 1.363 . S
C714 C715 1.363 . S
C714 C719 1.379 . S
C714 N721 1.356 . S
C715 C714 1.363 . S
C715 C718 1.363 . S
N716 C718 1.356 . S
N716 H728 0.984 . S
N716 H729 0.985 . S
N717 C719 1.356 . S
N717 H722 0.984 . S
N717 H723 0.985 . S
C718 C712 1.379 . S
C718 C715 1.363 . S
C718 N716 1.356 . S
C719 C713 1.363 . S
C719 C714 1.379 . S
C719 N717 1.356 . S
N720 C712 1.356 . S
N720 H726 0.984 . S
N720 H727 0.984 . S
N721 C714 1.356 . S
N721 H724 0.984 . S
N721 H725 0.985 . S
H722 N717 0.984 . S
H723 N717 0.985 . S
H724 N721 0.984 . S
H725 N721 0.985 . S
H726 N720 0.984 . S
H727 N720 0.984 . S
H728 N716 0.984 . S
H729 N716 0.985 . S
C730 C731 1.363 . S
C730 C736 1.379 . S
C730 N738 1.356 . S
C731 C730 1.363 . S
C731 C737 1.363 . S
C732 C733 1.363 . S
C732 C737 1.379 . S
C732 N739 1.356 . S
C733 C732 1.363 . S
C733 C736 1.363 . S
N734 C736 1.356 . S
N734 H746 0.984 . S
N734 H747 0.985 . S
N735 C737 1.356 . S
N735 H740 0.984 . S
N735 H741 0.985 . S
C736 C730 1.379 . S
C736 C733 1.363 . S
C736 N734 1.356 . S
C737 C731 1.363 . S
C737 C732 1.379 . S
C737 N735 1.356 . S
N738 C730 1.356 . S
N738 H744 0.984 . S
N738 H745 0.984 . S
N739 C732 1.356 . S
N739 H742 0.984 . S
N739 H743 0.985 . S
H740 N735 0.984 . S
H741 N735 0.985 . S
H742 N739 0.984 . S
H743 N739 0.985 . S
H744 N738 0.984 . S
H745 N738 0.984 . S
H746 N734 0.984 . S
H747 N734 0.985 . S
C748 C749 1.363 . S
C748 C754 1.379 . S
C748 N756 1.356 . S
C749 C748 1.363 . S
C749 C755 1.363 . S
C750 C751 1.363 . S
C750 C755 1.379 . S
C750 N757 1.356 . S
C751 C750 1.363 . S
C751 C754 1.363 . S
N752 C754 1.356 . S
N752 H764 0.984 . S
N752 H765 0.985 . S
N753 C755 1.356 . S
N753 H758 0.984 . S
N753 H759 0.985 . S
C754 C748 1.379 . S
C754 C751 1.363 . S
C754 N752 1.356 . S
C755 C749 1.363 . S
C755 C750 1.379 . S
C755 N753 1.356 . S
N756 C748 1.356 . S
N756 H762 0.984 . S
N756 H763 0.984 . S
N757 C750 1.356 . S
N757 H760 0.984 . S
N757 H761 0.985 . S
H758 N753 0.984 . S
H759 N753 0.985 . S
H760 N757 0.984 . S
H761 N757 0.985 . S
H762 N756 0.984 . S
H763 N756 0.984 . S
H764 N752 0.984 . S
H765 N752 0.985 . S
C766 C767 1.363 . S
C766 C772 1.379 . S
C766 N774 1.356 . S
C767 C766 1.363 . S
C767 C773 1.363 . S
C768 C769 1.363 . S
C768 C773 1.379 . S
C768 N775 1.356 . S
C769 C768 1.363 . S
C769 C772 1.363 . S
N770 C772 1.356 . S
N770 H782 0.984 . S
N770 H783 0.985 . S
N771 C773 1.356 . S
N771 H776 0.984 . S
N771 H777 0.985 1_545 S
C772 C766 1.379 . S
C772 C769 1.363 . S
C772 N770 1.356 . S
C773 C767 1.363 . S
C773 C768 1.379 . S
C773 N771 1.356 . S
N774 C766 1.356 . S
N774 H780 0.984 . S
N774 H781 0.984 . S
N775 C768 1.356 . S
N775 H778 0.984 . S
N775 H779 0.985 1_545 S
H776 N771 0.984 . S
H777 N771 0.985 1_565 S
H778 N775 0.984 . S
H779 N775 0.985 1_565 S
H780 N774 0.984 . S
H781 N774 0.984 . S
H782 N770 0.984 . S
H783 N770 0.985 . S
C209 C5 0.892 1_556 S
C211 C125 0.932 . S
C227 C138 0.932 . S
C229 C18 0.892 1_556 S
C245 C151 0.932 . S
C247 C31 0.892 1_556 S
C263 C112 0.932 . S
C265 C44 0.892 1_556 S
C281 C57 0.892 . S
C283 C203 0.932 . S
C299 C164 0.932 . S
C301 C70 0.892 . S
C317 C177 0.932 . S
C319 C83 0.892 . S
C335 C190 0.932 . S
C337 C96 0.892 . S
C353 C109 0.892 1_554 S
C355 C21 0.932 . S
C371 C122 0.892 1_554 S
C373 C34 0.932 . S
C389 C135 0.892 1_554 S
C391 C47 0.932 . S
C407 C8 0.932 . S
C409 C148 0.892 1_554 S
C425 C161 0.892 . S
C427 C99 0.932 . S
C443 C174 0.892 . S
C445 C60 0.932 . S
C461 C73 0.932 . S
C463 C187 0.892 . S
C479 C200 0.892 . S
C481 C86 0.932 . S
C497 C104 1.675 . S
C499 C0 1.675 . S
C515 C13 1.675 . S
C517 C117 1.675 . S
C533 C130 1.675 1_655 S
C535 C26 1.675 1_455 S
C551 C39 1.675 1_545 S
C553 C143 1.675 1_565 S
C569 C156 1.675 . S
C571 C52 1.675 . S
C587 C65 1.675 . S
C589 C169 1.675 . S
C605 C182 1.675 1_655 S
C607 C78 1.675 1_455 S
C623 C195 1.675 1_565 S
C625 C91 1.675 1_545 S
C641 C62 1.689 . S
C643 C10 1.689 . S
C659 C75 1.689 . S
C661 C23 1.689 . S
C677 C36 1.689 . S
C679 C88 1.689 . S
C695 C101 1.689 . S
C697 C49 1.689 . S
C713 C114 1.689 . S
C715 C166 1.689 . S
C731 C179 1.689 . S
C733 C127 1.689 . S
C749 C192 1.689 . S
C751 C140 1.689 . S
C767 C205 1.689 . S
C769 C153 1.689 . S
