# Generated by pormake.
# Topology sth, (5)-cn, num edge types: 1
# Building blocks:
#     Node 0, Type 0, BuildingBlock: XOMCOT_clean_sbu_1, # of connection points: 5
#     Node 1, Type 0, BuildingBlock: XOMCOT_clean_sbu_1, # of connection points: 5
#     Node 2, Type 0, BuildingBlock: XOMCOT_clean_sbu_1, # of connection points: 5
#     Node 3, Type 0, BuildingBlock: XOMCOT_clean_sbu_1, # of connection points: 5
#     Node 4, Type 0, BuildingBlock: XOMCOT_clean_sbu_1, # of connection points: 5
#     Node 5, Type 0, BuildingBlock: XOMCOT_clean_sbu_1, # of connection points: 5
#     Node 6, Type 0, BuildingBlock: XOMCOT_clean_sbu_1, # of connection points: 5
#     Node 7, Type 0, BuildingBlock: XOMCOT_clean_sbu_1, # of connection points: 5
#     Node 8, Type 0, BuildingBlock: XOMCOT_clean_sbu_1, # of connection points: 5
#     Node 9, Type 0, BuildingBlock: XOMCOT_clean_sbu_1, # of connection points: 5
#     Node 10, Type 0, BuildingBlock: XOMCOT_clean_sbu_1, # of connection points: 5
#     Node 11, Type 0, BuildingBlock: XOMCOT_clean_sbu_1, # of connection points: 5
#     Node 12, Type 0, BuildingBlock: XOMCOT_clean_sbu_1, # of connection points: 5
#     Node 13, Type 0, BuildingBlock: XOMCOT_clean_sbu_1, # of connection points: 5
#     Node 14, Type 0, BuildingBlock: XOMCOT_clean_sbu_1, # of connection points: 5
#     Node 15, Type 0, BuildingBlock: XOMCOT_clean_sbu_1, # of connection points: 5
#     Node 16, Type 0, BuildingBlock: XOMCOT_clean_sbu_1, # of connection points: 5
#     Node 17, Type 0, BuildingBlock: XOMCOT_clean_sbu_1, # of connection points: 5
#     Edge 18, Type (0, 0), BuildingBlock: KIFKEQ_clean_linker_1, # of connection points: 2
#     Edge 19, Type (0, 0), BuildingBlock: KIFKEQ_clean_linker_1, # of connection points: 2
#     Edge 20, Type (0, 0), BuildingBlock: KIFKEQ_clean_linker_1, # of connection points: 2
#     Edge 21, Type (0, 0), BuildingBlock: KIFKEQ_clean_linker_1, # of connection points: 2
#     Edge 22, Type (0, 0), BuildingBlock: KIFKEQ_clean_linker_1, # of connection points: 2
#     Edge 23, Type (0, 0), BuildingBlock: KIFKEQ_clean_linker_1, # of connection points: 2
#     Edge 24, Type (0, 0), BuildingBlock: KIFKEQ_clean_linker_1, # of connection points: 2
#     Edge 25, Type (0, 0), BuildingBlock: KIFKEQ_clean_linker_1, # of connection points: 2
#     Edge 26, Type (0, 0), BuildingBlock: KIFKEQ_clean_linker_1, # of connection points: 2
#     Edge 27, Type (0, 0), BuildingBlock: KIFKEQ_clean_linker_1, # of connection points: 2
#     Edge 28, Type (0, 0), BuildingBlock: KIFKEQ_clean_linker_1, # of connection points: 2
#     Edge 29, Type (0, 0), BuildingBlock: KIFKEQ_clean_linker_1, # of connection points: 2
#     Edge 30, Type (0, 0), BuildingBlock: KIFKEQ_clean_linker_1, # of connection points: 2
#     Edge 31, Type (0, 0), BuildingBlock: KIFKEQ_clean_linker_1, # of connection points: 2
#     Edge 32, Type (0, 0), BuildingBlock: KIFKEQ_clean_linker_1, # of connection points: 2
#     Edge 33, Type (0, 0), BuildingBlock: KIFKEQ_clean_linker_1, # of connection points: 2
#     Edge 34, Type (0, 0), BuildingBlock: KIFKEQ_clean_linker_1, # of connection points: 2
#     Edge 35, Type (0, 0), BuildingBlock: KIFKEQ_clean_linker_1, # of connection points: 2
#     Edge 36, Type (0, 0), BuildingBlock: KIFKEQ_clean_linker_1, # of connection points: 2
#     Edge 37, Type (0, 0), BuildingBlock: KIFKEQ_clean_linker_1, # of connection points: 2
#     Edge 38, Type (0, 0), BuildingBlock: KIFKEQ_clean_linker_1, # of connection points: 2
#     Edge 39, Type (0, 0), BuildingBlock: KIFKEQ_clean_linker_1, # of connection points: 2
#     Edge 40, Type (0, 0), BuildingBlock: KIFKEQ_clean_linker_1, # of connection points: 2
#     Edge 41, Type (0, 0), BuildingBlock: KIFKEQ_clean_linker_1, # of connection points: 2
#     Edge 42, Type (0, 0), BuildingBlock: KIFKEQ_clean_linker_1, # of connection points: 2
#     Edge 43, Type (0, 0), BuildingBlock: KIFKEQ_clean_linker_1, # of connection points: 2
#     Edge 44, Type (0, 0), BuildingBlock: KIFKEQ_clean_linker_1, # of connection points: 2
#     Edge 45, Type (0, 0), BuildingBlock: KIFKEQ_clean_linker_1, # of connection points: 2
#     Edge 46, Type (0, 0), BuildingBlock: KIFKEQ_clean_linker_1, # of connection points: 2
#     Edge 47, Type (0, 0), BuildingBlock: KIFKEQ_clean_linker_1, # of connection points: 2
#     Edge 48, Type (0, 0), BuildingBlock: KIFKEQ_clean_linker_1, # of connection points: 2
#     Edge 49, Type (0, 0), BuildingBlock: KIFKEQ_clean_linker_1, # of connection points: 2
#     Edge 50, Type (0, 0), BuildingBlock: KIFKEQ_clean_linker_1, # of connection points: 2
#     Edge 51, Type (0, 0), BuildingBlock: KIFKEQ_clean_linker_1, # of connection points: 2
#     Edge 52, Type (0, 0), BuildingBlock: KIFKEQ_clean_linker_1, # of connection points: 2
#     Edge 53, Type (0, 0), BuildingBlock: KIFKEQ_clean_linker_1, # of connection points: 2
#     Edge 54, Type (0, 0), BuildingBlock: KIFKEQ_clean_linker_1, # of connection points: 2
#     Edge 55, Type (0, 0), BuildingBlock: KIFKEQ_clean_linker_1, # of connection points: 2
#     Edge 56, Type (0, 0), BuildingBlock: KIFKEQ_clean_linker_1, # of connection points: 2
#     Edge 57, Type (0, 0), BuildingBlock: KIFKEQ_clean_linker_1, # of connection points: 2
#     Edge 58, Type (0, 0), BuildingBlock: KIFKEQ_clean_linker_1, # of connection points: 2
#     Edge 59, Type (0, 0), BuildingBlock: KIFKEQ_clean_linker_1, # of connection points: 2
#     Edge 60, Type (0, 0), BuildingBlock: KIFKEQ_clean_linker_1, # of connection points: 2
#     Edge 61, Type (0, 0), BuildingBlock: KIFKEQ_clean_linker_1, # of connection points: 2
#     Edge 62, Type (0, 0), BuildingBlock: KIFKEQ_clean_linker_1, # of connection points: 2
# Relax obj value: 0.161
# Max RMSD: 0.183
# Mean RMSD: 0.183
data_MOF--net-sth--node1-XOMCOT_clean_sbu_1--edge1-KIFKEQ_clean_linker_1
_symmetry_space_group_name_H-M    P1
_symmetry_Int_Tables_number       1
_symmetry_cell_setting            triclinic
loop_
_symmetry_equiv_pos_as_xyz
'x, y, z'
_cell_length_a     41.524536
_cell_length_b     41.543501
_cell_length_c     76.926546
_cell_angle_alpha  89.924614
_cell_angle_beta   90.038973
_cell_angle_gamma 120.0507
loop_
_atom_site_label
_atom_site_type_symbol
_atom_site_fract_x
_atom_site_fract_y
_atom_site_fract_z
_atom_type_partial_charge
C0 C 0.19929 0.35764 0.21422 0.0
C1 C 0.23377 0.38277 0.20759 0.0
N2 N 0.25121 0.36405 0.20316 0.0
N3 N 0.19509 0.3232 0.21418 0.0
C4 C 0.2273 0.32821 0.20729 0.0
H5 H 0.17851 0.36417 0.21862 0.0
Co6 Co 0.15369 0.27853 0.22203 0.0
C7 C 0.08724 0.28613 0.21349 0.0
O8 O 0.06972 0.26668 0.22734 0.0
N9 N 0.11281 0.23318 0.2295 0.0
C10 C 0.07763 0.17893 0.24279 0.0
C11 C 0.10836 0.21394 0.24433 0.0
C12 C 0.08468 0.209 0.21913 0.0
N13 N 0.06282 0.17594 0.2269 0.0
O14 O 0.15552 0.25244 0.20179 0.0
H15 H 0.12705 0.2237 0.25531 0.0
H16 H 0.08131 0.21499 0.20577 0.0
O17 O 0.12037 0.293 0.21023 0.0
C18 C 0.17448 0.23734 0.20638 0.0
O19 O 0.19154 0.2467 0.22149 0.0
N20 N 0.15436 0.30196 0.24316 0.0
C21 C 0.16143 0.32706 0.27749 0.0
C22 C 0.14121 0.33487 0.26517 0.0
C23 C 0.13832 0.32241 0.24797 0.0
C24 C 0.17578 0.29612 0.2547 0.0
C25 C 0.1792 0.30776 0.2719 0.0
H26 H 0.1237 0.32983 0.23871 0.0
H27 H 0.18934 0.28096 0.25061 0.0
H28 H 0.23358 0.30622 0.20536 0.0
H29 H 0.24477 0.41229 0.20575 0.0
H30 H 0.06735 0.15717 0.25252 0.0
H31 H 0.12807 0.3508 0.26872 0.0
H32 H 0.19497 0.30077 0.2808 0.0
C33 C 0.73931 0.91919 0.24115 0.0
C34 C 0.71532 0.93064 0.23567 0.0
N35 N 0.70774 0.92218 0.2187 0.0
N36 N 0.74713 0.90302 0.22788 0.0
C37 C 0.72759 0.90545 0.21426 0.0
H38 H 0.75181 0.92433 0.25389 0.0
Co39 Co 0.7839 0.88868 0.22951 0.0
C40 C 0.74695 0.81067 0.21779 0.0
O41 O 0.76072 0.80371 0.23172 0.0
N42 N 0.82217 0.87526 0.23106 0.0
C43 C 0.86034 0.85501 0.23977 0.0
C44 C 0.83102 0.8596 0.24436 0.0
C45 C 0.84709 0.87959 0.21847 0.0
N46 N 0.87061 0.86768 0.22349 0.0
O47 O 0.80921 0.9194 0.20973 0.0
H48 H 0.81666 0.85045 0.2566 0.0
H49 H 0.84754 0.89035 0.20563 0.0
O50 O 0.75342 0.84386 0.21489 0.0
C51 C 0.82643 0.95268 0.21556 0.0
O52 O 0.82123 0.95831 0.23187 0.0
N53 N 0.76178 0.86401 0.25046 0.0
C54 C 0.73507 0.8447 0.28438 0.0
C55 C 0.71296 0.82432 0.27019 0.0
C56 C 0.72648 0.83515 0.25321 0.0
C57 C 0.7829 0.88462 0.26415 0.0
C58 C 0.77043 0.87512 0.28116 0.0
H59 H 0.7081 0.82135 0.24239 0.0
H60 H 0.80968 0.90905 0.26173 0.0
H61 H 0.72896 0.89627 0.20127 0.0
H62 H 0.70597 0.94602 0.24348 0.0
H63 H 0.87334 0.84344 0.2479 0.0
H64 H 0.68492 0.80147 0.27218 0.0
H65 H 0.78818 0.89188 0.29171 0.0
C66 C 0.20428 0.86722 0.21301 0.0
C67 C 0.1968 0.8332 0.2068 0.0
N68 N 0.15992 0.81235 0.20399 0.0
N69 N 0.17234 0.86818 0.21418 0.0
C70 C 0.14575 0.8342 0.2086 0.0
H71 H 0.2316 0.89004 0.21616 0.0
Co72 Co 0.16849 0.90943 0.22132 0.0
C73 C 0.2441 0.97433 0.21252 0.0
O74 O 0.24346 0.99345 0.22599 0.0
N75 N 0.16426 0.95069 0.22805 0.0
C76 C 0.14638 0.9873 0.24072 0.0
C77 C 0.15043 0.95659 0.24282 0.0
C78 C 0.16811 0.97807 0.21719 0.0
N79 N 0.15738 1.00068 0.22452 0.0
O80 O 0.14056 0.90629 0.20075 0.0
H81 H 0.14203 0.93895 0.25417 0.0
H82 H 0.17677 0.98013 0.20377 0.0
O83 O 0.21627 0.94198 0.20954 0.0
C84 C 0.1064 0.88685 0.20518 0.0
O85 O 0.09859 0.87124 0.22062 0.0
N86 N 0.19084 0.9095 0.24272 0.0
C87 C 0.2071 0.90035 0.27713 0.0
C88 C 0.23581 0.92058 0.26509 0.0
C89 C 0.22711 0.92452 0.24784 0.0
C90 C 0.16292 0.88844 0.25404 0.0
C91 C 0.17026 0.8841 0.27126 0.0
H92 H 0.24961 0.93887 0.23877 0.0
H93 H 0.13436 0.87563 0.24973 0.0
H94 H 0.11654 0.82551 0.2079 0.0
H95 H 0.21721 0.82494 0.20409 0.0
H96 H 0.13551 0.99845 0.25029 0.0
H97 H 0.26471 0.93267 0.26885 0.0
H98 H 0.14699 0.86851 0.27994 0.0
C99 C 0.339 0.20664 0.78935 0.0
C100 C 0.3635 0.23953 0.79718 0.0
N101 N 0.3547 0.23745 0.81411 0.0
N102 N 0.31438 0.18296 0.80118 0.0
C103 C 0.32495 0.20279 0.81624 0.0
H104 H 0.33882 0.20161 0.77561 0.0
Co105 Co 0.2714 0.13523 0.79663 0.0
C106 C 0.29251 0.07978 0.80778 0.0
O107 O 0.27339 0.05912 0.79452 0.0
N108 N 0.22799 0.08804 0.79248 0.0
C109 C 0.18067 0.03716 0.78079 0.0
C110 C 0.21129 0.07117 0.77738 0.0
C111 C 0.20608 0.06349 0.8049 0.0
N112 N 0.17733 0.0324 0.79809 0.0
O113 O 0.24612 0.1402 0.81647 0.0
H114 H 0.22022 0.08202 0.76448 0.0
H115 H 0.21167 0.06785 0.8187 0.0
O116 O 0.29413 0.11111 0.81035 0.0
C117 C 0.23422 0.16227 0.81243 0.0
O118 O 0.24752 0.18258 0.79831 0.0
N119 N 0.29308 0.13229 0.77559 0.0
C120 C 0.31871 0.13819 0.74149 0.0
C121 C 0.33421 0.1276 0.75506 0.0
C122 C 0.32148 0.12552 0.77218 0.0
C123 C 0.27886 0.14382 0.76262 0.0
C124 C 0.29065 0.14627 0.74553 0.0
H125 H 0.33549 0.11995 0.78255 0.0
H126 H 0.2578 0.15102 0.76567 0.0
H127 H 0.3104 0.19242 0.82844 0.0
H128 H 0.38491 0.26392 0.79058 0.0
H129 H 0.16205 1.01742 0.77127 0.0
H130 H 0.35683 0.12234 0.75256 0.0
H131 H 0.27782 0.15457 0.73556 0.0
C132 C 0.84583 0.16713 0.8063 0.0
C133 C 0.81111 0.15714 0.81268 0.0
N134 N 0.79408 0.121 0.81711 0.0
N135 N 0.85074 0.13733 0.80643 0.0
C136 C 0.8186 0.10966 0.81325 0.0
H137 H 0.86636 0.19473 0.80212 0.0
Co138 Co 0.89373 0.13652 0.79885 0.0
C139 C 0.9563 0.21285 0.8075 0.0
O140 O 0.9747 0.21295 0.79358 0.0
N141 N 0.9364 0.13495 0.79172 0.0
C142 C 0.97429 0.11901 0.77874 0.0
C143 C 0.94227 0.12094 0.77701 0.0
C144 C 0.96509 0.14089 0.80222 0.0
N145 N 0.98856 0.13151 0.79466 0.0
O146 O 0.8926 0.10854 0.81899 0.0
H147 H 0.92375 0.11088 0.76598 0.0
H148 H 0.96762 0.15014 0.81556 0.0
O149 O 0.92462 0.18436 0.81093 0.0
C150 C 0.87449 0.07453 0.81422 0.0
O151 O 0.85726 0.06679 0.79916 0.0
N152 N 0.89252 0.15923 0.77768 0.0
C153 C 0.88588 0.17755 0.74332 0.0
C154 C 0.9036 0.2054 0.75596 0.0
C155 C 0.90622 0.19566 0.77315 0.0
C156 C 0.87323 0.13194 0.76581 0.0
C157 C 0.87009 0.14036 0.74858 0.0
H158 H 0.91865 0.21758 0.78261 0.0
H159 H 0.86118 0.10315 0.76965 0.0
H160 H 0.81292 0.0816 0.81539 0.0
H161 H 0.79969 0.17532 0.81442 0.0
H162 H 0.98576 0.10856 0.76912 0.0
H163 H 0.91494 0.23445 0.75266 0.0
H164 H 0.85612 0.11776 0.7394 0.0
C165 C 0.86173 0.68029 0.811 0.0
C166 C 0.87164 0.65562 0.8175 0.0
N167 N 0.90884 0.67363 0.81967 0.0
N168 N 0.89243 0.714 0.80901 0.0
C169 C 0.9207 0.70892 0.81433 0.0
H170 H 0.83365 0.67403 0.80826 0.0
Co171 Co 0.8937 0.75784 0.80138 0.0
C172 C 0.81718 0.74455 0.80973 0.0
O173 O 0.81782 0.76381 0.79604 0.0
N174 N 0.89573 0.80227 0.79416 0.0
C175 C 0.91115 0.85571 0.78088 0.0
C176 C 0.90847 0.82145 0.77916 0.0
C177 C 0.89118 0.82569 0.80479 0.0
N178 N 0.90038 0.85838 0.79706 0.0
O179 O 0.92141 0.78427 0.82171 0.0
H180 H 0.91708 0.81227 0.76788 0.0
H181 H 0.88301 0.81951 0.81828 0.0
O182 O 0.84547 0.74102 0.81318 0.0
C183 C 0.95547 0.80031 0.81698 0.0
O184 O 0.96326 0.79258 0.80153 0.0
N185 N 0.87138 0.734 0.78019 0.0
C186 C 0.85365 0.70831 0.74593 0.0
C187 C 0.82554 0.69851 0.75842 0.0
C188 C 0.83501 0.71114 0.77561 0.0
C189 C 0.89888 0.74172 0.76847 0.0
C190 C 0.89076 0.72975 0.7513 0.0
H191 H 0.81297 0.70186 0.78501 0.0
H192 H 0.92762 0.75853 0.77239 0.0
H193 H 0.9495 0.73068 0.81439 0.0
H194 H 0.8526 0.62693 0.82093 0.0
H195 H 0.9209 0.87721 0.77103 0.0
H196 H 0.79654 0.68084 0.75502 0.0
H197 H 0.91352 0.73809 0.74223 0.0
C198 C 0.87886 0.63976 0.57292 0.0
C199 C 0.91474 0.66201 0.56717 0.0
N200 N 0.91369 0.67121 0.55046 0.0
N201 N 0.85492 0.63526 0.56003 0.0
C202 C 0.87699 0.65453 0.54644 0.0
H203 H 0.87076 0.62648 0.58552 0.0
Co204 Co 0.80303 0.60261 0.56066 0.0
C205 C 0.77543 0.65459 0.55139 0.0
O206 O 0.75973 0.64875 0.56671 0.0
N207 N 0.74994 0.56844 0.56077 0.0
C208 C 0.68859 0.54001 0.56574 0.0
C209 C 0.72288 0.56886 0.57049 0.0
C210 C 0.73066 0.53823 0.55036 0.0
N211 N 0.69363 0.52075 0.55312 0.0
O212 O 0.80765 0.57952 0.53991 0.0
H213 H 0.72724 0.58836 0.58072 0.0
H214 H 0.74303 0.52914 0.54063 0.0
O215 O 0.79407 0.63865 0.54721 0.0
C216 C 0.81624 0.55619 0.54609 0.0
O217 O 0.81863 0.55402 0.56304 0.0
N218 N 0.80128 0.62198 0.5827 0.0
C219 C 0.80862 0.64189 0.61788 0.0
C220 C 0.8218 0.66924 0.60479 0.0
C221 C 0.81853 0.65873 0.58725 0.0
C222 C 0.78926 0.59533 0.5953 0.0
C223 C 0.7917 0.60451 0.61283 0.0
H224 H 0.83114 0.68005 0.57737 0.0
H225 H 0.7784 0.56654 0.59172 0.0
H226 H 0.86631 0.65526 0.5337 0.0
H227 H 0.93972 0.66922 0.57449 0.0
H228 H 0.66206 0.53305 0.57147 0.0
H229 H 0.83615 0.69851 0.60808 0.0
H230 H 0.78113 0.58234 0.62237 0.0
C231 C 0.397 0.24226 0.57157 0.0
C232 C 0.37418 0.25511 0.56577 0.0
N233 N 0.36847 0.24829 0.54859 0.0
N234 N 0.40542 0.2267 0.55824 0.0
C235 C 0.3878 0.23105 0.54435 0.0
H236 H 0.40807 0.24558 0.58459 0.0
Co237 Co 0.44052 0.21039 0.55908 0.0
C238 C 0.39581 0.13157 0.54795 0.0
O239 O 0.40536 0.12204 0.56247 0.0
N240 N 0.47714 0.19457 0.55957 0.0
C241 C 0.51073 0.16778 0.56628 0.0
C242 C 0.48053 0.17107 0.57069 0.0
C243 C 0.50628 0.20503 0.54849 0.0
N244 N 0.52706 0.18919 0.55229 0.0
O245 O 0.4647 0.24092 0.53909 0.0
H246 H 0.46231 0.15663 0.58146 0.0
H247 H 0.51229 0.22371 0.53765 0.0
O248 O 0.40745 0.16601 0.54466 0.0
C249 C 0.48498 0.27258 0.54629 0.0
O250 O 0.48405 0.27482 0.5633 0.0
N251 N 0.41981 0.18657 0.58043 0.0
C252 C 0.39694 0.17007 0.61509 0.0
C253 C 0.37138 0.15294 0.60144 0.0
C254 C 0.38325 0.16219 0.58412 0.0
C255 C 0.44451 0.20404 0.59358 0.0
C256 C 0.43403 0.19548 0.61087 0.0
H257 H 0.36289 0.15115 0.57379 0.0
H258 H 0.47272 0.22532 0.59058 0.0
H259 H 0.3902 0.22285 0.53128 0.0
H260 H 0.36426 0.27018 0.57346 0.0
H261 H 0.52044 0.15154 0.57319 0.0
H262 H 0.34221 0.13411 0.60411 0.0
H263 H 0.4548 0.20946 0.62088 0.0
C264 C 0.79261 0.16927 0.57182 0.0
C265 C 0.7783 0.13314 0.56646 0.0
N266 N 0.79 0.13319 0.55011 0.0
N267 N 0.81379 0.19249 0.55906 0.0
C268 C 0.81148 0.16972 0.54591 0.0
H269 H 0.78675 0.17808 0.58405 0.0
Co270 Co 0.83454 0.24443 0.55996 0.0
C271 C 0.91316 0.27323 0.54992 0.0
O272 O 0.92283 0.29113 0.56475 0.0
N273 N 0.85483 0.29784 0.56057 0.0
C274 C 0.88397 0.358 0.56792 0.0
C275 C 0.87822 0.32342 0.57218 0.0
C276 C 0.84745 0.3185 0.54922 0.0
N277 N 0.86446 0.35498 0.55346 0.0
O278 O 0.80651 0.24128 0.53956 0.0
H279 H 0.89066 0.31793 0.58327 0.0
H280 H 0.8299 0.30726 0.53793 0.0
O281 O 0.87856 0.25255 0.54612 0.0
C282 C 0.77605 0.23619 0.54616 0.0
O283 O 0.7727 0.23491 0.56316 0.0
N284 N 0.85604 0.24455 0.58161 0.0
C285 C 0.86799 0.23297 0.61631 0.0
C286 C 0.8838 0.22293 0.60268 0.0
C287 C 0.87686 0.22829 0.58535 0.0
C288 C 0.83987 0.25352 0.59471 0.0
C289 C 0.84632 0.24904 0.61204 0.0
H290 H 0.88662 0.21776 0.57499 0.0
H291 H 0.82109 0.26365 0.59164 0.0
H292 H 0.82441 0.17984 0.53336 0.0
H293 H 0.75913 0.10875 0.5738 0.0
H294 H 0.90037 0.38317 0.57533 0.0
H295 H 0.8997 0.20931 0.60534 0.0
H296 H 0.83352 0.2573 0.62202 0.0
C297 C 0.03069 0.50445 0.14059 0.0
C298 C 0.05654 0.53899 0.14674 0.0
N299 N 0.03974 0.55932 0.14883 0.0
N300 N 0.99758 0.50282 0.13878 0.0
C301 C 1.00414 0.5368 0.14376 0.0
H302 H 0.03564 0.48172 0.13801 0.0
Co303 Co 0.95217 0.46156 0.13221 0.0
C304 C 0.95857 0.39536 0.14312 0.0
O305 O 0.93681 0.37518 0.13035 0.0
N306 N 0.90584 0.42054 0.12593 0.0
C307 C 0.85149 0.3841 0.113 0.0
C308 C 0.88686 0.41387 0.11085 0.0
C309 C 0.88113 0.39466 0.13707 0.0
N310 N 0.84799 0.37209 0.12952 0.0
O311 O 0.92849 0.4673 0.15246 0.0
H312 H 0.89711 0.43031 0.09917 0.0
H313 H 0.88694 0.39329 0.15069 0.0
O314 O 0.96635 0.42916 0.14493 0.0
C315 C 0.91321 0.48571 0.14732 0.0
O316 O 0.91857 0.49774 0.1312 0.0
N317 N 0.97392 0.45879 0.11116 0.0
C318 C 0.99731 0.461 0.0768 0.0
C319 C 1.00499 0.44183 0.08977 0.0
C320 C 0.99334 0.44133 0.10695 0.0
C321 C 0.96852 0.47946 0.09901 0.0
C322 C 0.9792 0.48037 0.08179 0.0
H323 H 1.00047 0.42729 0.11667 0.0
H324 H 0.95426 0.49423 0.10262 0.0
H325 H 0.98319 0.54492 0.14381 0.0
H326 H 0.08514 0.54786 0.15 0.0
H327 H 0.82989 0.37246 0.10321 0.0
H328 H 1.0201 0.42757 0.08673 0.0
H329 H 0.97223 0.49538 0.07242 0.0
C330 C 0.52978 0.46295 0.11844 0.0
C331 C 0.49365 0.44718 0.12412 0.0
N332 N 0.49378 0.4614 0.13983 0.0
N333 N 0.5527 0.48696 0.13054 0.0
C334 C 0.52992 0.48552 0.14349 0.0
H335 H 0.539 0.45587 0.10665 0.0
Co336 Co 0.6042 0.50753 0.1297 0.0
C337 C 0.63414 0.58491 0.14168 0.0
O338 O 0.65312 0.59558 0.12714 0.0
N339 N 0.65746 0.52748 0.12915 0.0
C340 C 0.71773 0.55543 0.12203 0.0
C341 C 0.68351 0.55042 0.11757 0.0
C342 C 0.67749 0.51978 0.14072 0.0
N343 N 0.71396 0.53592 0.13659 0.0
O344 O 0.60013 0.47701 0.14932 0.0
H345 H 0.67868 0.56332 0.10647 0.0
H346 H 0.66582 0.50261 0.1521 0.0
O347 O 0.61238 0.55011 0.14473 0.0
C348 C 0.59609 0.44731 0.14232 0.0
O349 O 0.59735 0.44575 0.1253 0.0
N350 N 0.60474 0.53174 0.10882 0.0
C351 C 0.59673 0.55263 0.07526 0.0
C352 C 0.585 0.56456 0.08977 0.0
C353 C 0.58881 0.55337 0.10649 0.0
C354 C 0.6137 0.51789 0.09473 0.0
C355 C 0.61112 0.52892 0.07792 0.0
H356 H 0.57794 0.56109 0.11749 0.0
H357 H 0.62292 0.49795 0.09659 0.0
H358 H 0.53971 0.49971 0.15581 0.0
H359 H 0.46921 0.4258 0.11754 0.0
H360 H 0.74317 0.57138 0.11472 0.0
H361 H 0.5726 0.58193 0.08817 0.0
H362 H 0.61903 0.51785 0.06703 0.0
C363 C 0.56413 0.04084 0.11998 0.0
C364 C 0.57389 1.01665 0.12697 0.0
N365 N 0.57754 0.02181 0.14428 0.0
N366 N 0.56098 0.06159 0.13268 0.0
C367 C 0.56932 0.04912 0.14743 0.0
H368 H 0.56183 0.04413 0.10622 0.0
Co369 Co 0.55546 0.10434 0.12905 0.0
C370 C 0.47965 0.08285 0.14068 0.0
O371 O 0.47732 0.09984 0.12674 0.0
N372 N 0.55104 0.14792 0.12565 0.0
C373 C 0.54243 0.19306 0.11491 0.0
C374 C 0.54406 0.16171 0.11104 0.0
C375 C 0.55368 0.17216 0.13823 0.0
N376 N 0.54856 0.19972 0.13199 0.0
O377 O 0.58713 0.12878 0.14863 0.0
H378 H 0.5393 0.14992 0.09822 0.0
H379 H 0.55829 0.16921 0.15183 0.0
O380 O 0.50958 0.08178 0.14358 0.0
C381 C 0.62071 0.13973 0.14421 0.0
O382 O 0.62668 0.12817 0.12931 0.0
N383 N 0.52935 0.0828 0.10829 0.0
C384 C 0.50708 0.05566 0.0746 0.0
C385 C 0.48309 0.03861 0.08878 0.0
C386 C 0.49513 0.05211 0.10568 0.0
C387 C 0.55323 0.09864 0.09468 0.0
C388 C 0.54249 0.08609 0.07778 0.0
H389 H 0.47759 0.03699 0.11654 0.0
H390 H 0.58108 0.12141 0.09709 0.0
H391 H 0.57103 0.06112 0.1601 0.0
H392 H 0.5803 0.99845 0.11956 0.0
H393 H 0.53754 0.21 0.10577 0.0
H394 H 0.45599 1.01419 0.08691 0.0
H395 H 0.56202 0.10001 0.06729 0.0
C396 C 0.51909 0.95925 0.90599 0.0
C397 C 0.55505 0.97911 0.90003 0.0
N398 N 0.55428 0.9898 0.88361 0.0
N399 N 0.49559 0.9573 0.89338 0.0
C400 C 0.51794 0.97631 0.87982 0.0
H401 H 0.51048 0.94482 0.91831 0.0
Co402 Co 0.44432 0.92398 0.89398 0.0
C403 C 0.41015 0.96814 0.88282 0.0
O404 O 0.39058 0.95689 0.89718 0.0
N405 N 0.39156 0.88831 0.8943 0.0
C406 C 0.33167 0.85239 0.90149 0.0
C407 C 0.36502 0.88263 0.90613 0.0
C408 C 0.37273 0.86089 0.88245 0.0
N409 N 0.33653 0.83846 0.8866 0.0
O410 O 0.45048 0.89982 0.87406 0.0
H411 H 0.36898 0.89915 0.91759 0.0
H412 H 0.38517 0.85692 0.87094 0.0
O413 O 0.43403 0.95789 0.8795 0.0
C414 C 0.45664 0.87555 0.88115 0.0
O415 O 0.45525 0.87263 0.89818 0.0
N416 N 0.44189 0.94515 0.91522 0.0
C417 C 0.45077 0.96988 0.94961 0.0
C418 C 0.45849 0.99474 0.93572 0.0
C419 C 0.4547 0.98194 0.91854 0.0
C420 C 0.43526 0.92109 0.92862 0.0
C421 C 0.43855 0.93255 0.94581 0.0
H422 H 0.46365 1.00178 0.90799 0.0
H423 H 0.42794 0.8927 0.92589 0.0
H424 H 0.50768 0.97741 0.86703 0.0
H425 H 0.57978 0.98366 0.90688 0.0
H426 H 0.30619 0.84072 0.90896 0.0
H427 H 0.46925 0.02406 0.9381 0.0
H428 H 0.43245 0.91239 0.95606 0.0
C429 C 0.0679 0.5546 0.90864 0.0
C430 C 0.0479 0.57114 0.90357 0.0
N431 N 0.04137 0.56589 0.88634 0.0
N432 N 0.07357 0.5382 0.89479 0.0
C433 C 0.05708 0.54556 0.88137 0.0
H434 H 0.07898 0.55585 0.9215 0.0
Co435 Co 0.10587 0.51886 0.89452 0.0
C436 C 0.05921 0.44255 0.88114 0.0
O437 O 0.06609 0.42995 0.89545 0.0
N438 N 0.14016 0.50011 0.89382 0.0
C439 C 0.17287 0.4718 0.89926 0.0
C440 C 0.14302 0.47531 0.90422 0.0
C441 C 0.16858 0.51034 0.88234 0.0
N442 N 0.18921 0.49407 0.88549 0.0
O443 O 0.13064 0.55068 0.87515 0.0
H444 H 0.12484 0.46031 0.91492 0.0
H445 H 0.17432 0.52945 0.87174 0.0
O446 O 0.07221 0.47755 0.879 0.0
C447 C 0.15619 0.58036 0.88216 0.0
O448 O 0.16034 0.5812 0.89912 0.0
N449 N 0.08362 0.4927 0.91526 0.0
C450 C 0.05729 0.47125 0.94917 0.0
C451 C 0.03254 0.45916 0.93503 0.0
C452 C 0.04626 0.4705 0.91812 0.0
C453 C 0.10756 0.50605 0.929 0.0
C454 C 0.09523 0.49479 0.94594 0.0
H455 H 1.02684 0.46291 0.90745 0.0
H456 H 0.13654 0.52625 0.92679 0.0
H457 H 0.05872 0.53821 0.86804 0.0
H458 H 0.03969 0.5867 0.91195 0.0
H459 H 0.18235 0.45496 0.90576 0.0
H460 H 1.00286 0.44192 0.93709 0.0
H461 H 0.11503 0.50597 0.95654 0.0
C462 C 0.46284 0.51011 0.90653 0.0
C463 C 0.44653 0.47307 0.90235 0.0
N464 N 0.4587 0.46992 0.88653 0.0
N465 N 0.48575 0.53067 0.89356 0.0
C466 C 0.48252 0.50549 0.88149 0.0
H467 H 0.45724 0.52153 0.918 0.0
Co468 Co 0.50809 0.58278 0.89214 0.0
C469 C 0.58301 0.59524 0.87953 0.0
O470 O 0.5963 0.59958 0.89532 0.0
N471 N 0.52936 0.63523 0.88999 0.0
C472 C 0.56878 0.69614 0.88723 0.0
C473 C 0.56547 0.6622 0.89107 0.0
C474 C 0.51143 0.65379 0.88564 0.0
N475 N 0.53467 0.69071 0.88366 0.0
O476 O 0.47732 0.57585 0.8722 0.0
H477 H 0.58818 0.65776 0.8944 0.0
H478 H 0.48175 0.64069 0.88405 0.0
O479 O 0.54928 0.58746 0.87697 0.0
C480 C 0.44618 0.56896 0.87867 0.0
O481 O 0.44336 0.57032 0.89563 0.0
N482 N 0.5338 0.58802 0.91367 0.0
C483 C 0.5543 0.58773 0.94857 0.0
C484 C 0.55454 0.5626 0.93644 0.0
C485 C 0.5439 0.56294 0.91921 0.0
C486 C 0.53291 0.61222 0.92543 0.0
C487 C 0.54396 0.61324 0.94267 0.0
H488 H 0.54297 0.54226 0.91038 0.0
H489 H 0.52182 0.6299 0.92184 0.0
H490 H 0.49633 0.51333 0.86902 0.0
H491 H 0.42578 0.45042 0.91009 0.0
H492 H 0.59443 0.72259 0.88676 0.0
H493 H 0.56123 0.54158 0.94033 0.0
H494 H 0.54326 0.63331 0.95139 0.0
C495 C 0.64539 0.86686 0.4531 0.0
C496 C 0.6662 0.90301 0.45855 0.0
N497 N 0.67402 0.9031 0.47555 0.0
N498 N 0.64031 0.8437 0.46646 0.0
C499 C 0.65816 0.86667 0.48003 0.0
H500 H 0.63329 0.85814 0.44033 0.0
Co501 Co 0.60728 0.79186 0.46561 0.0
C502 C 0.65288 0.7588 0.47629 0.0
O503 O 0.64138 0.7387 0.46211 0.0
N504 N 0.57221 0.73886 0.46494 0.0
C505 C 0.53842 0.67905 0.45725 0.0
C506 C 0.56767 0.71322 0.45283 0.0
C507 C 0.54479 0.71868 0.47666 0.0
N508 N 0.52382 0.68241 0.47224 0.0
O509 O 0.58268 0.7963 0.4858 0.0
H510 H 0.58457 0.71825 0.44139 0.0
H511 H 0.53996 0.73013 0.4883 0.0
O512 O 0.64201 0.78216 0.4797 0.0
C513 C 0.55877 0.80334 0.479 0.0
O514 O 0.55752 0.80525 0.46199 0.0
N515 N 0.62857 0.7904 0.4442 0.0
C516 C 0.65284 0.7986 0.4098 0.0
C517 C 0.67774 0.80586 0.42359 0.0
C518 C 0.66523 0.80258 0.4408 0.0
C519 C 0.60449 0.78432 0.43088 0.0
C520 C 0.6158 0.78754 0.41365 0.0
H521 H 0.6852 0.81123 0.45127 0.0
H522 H 0.57623 0.77738 0.43371 0.0
H523 H 0.6575 0.85689 0.49315 0.0
H524 H 0.67405 0.92742 0.45065 0.0
H525 H 0.52802 0.65389 0.44963 0.0
H526 H 0.7069 0.81577 0.4211 0.0
H527 H 0.59579 0.78211 0.40341 0.0
C528 C 0.17301 0.79271 0.44967 0.0
C529 C 0.13747 0.77951 0.45577 0.0
N530 N 0.13926 0.78748 0.47284 0.0
N531 N 0.19754 0.80965 0.4627 0.0
C532 C 0.17608 0.80575 0.47672 0.0
H533 H 0.18033 0.78877 0.43667 0.0
Co534 Co 0.24912 0.82721 0.4615 0.0
C535 C 0.2826 0.90655 0.4714 0.0
O536 O 0.30115 0.9152 0.45674 0.0
N537 N 0.30196 0.84433 0.46075 0.0
C538 C 0.36212 0.87097 0.45352 0.0
C539 C 0.32816 0.86655 0.44905 0.0
C540 C 0.32162 0.83607 0.47232 0.0
N541 N 0.35809 0.85171 0.46819 0.0
O542 O 0.2445 0.79874 0.48198 0.0
H543 H 0.32361 0.87944 0.43785 0.0
H544 H 0.30974 0.81909 0.48374 0.0
O545 O 0.2601 0.87229 0.4752 0.0
C546 C 0.23555 0.76694 0.47558 0.0
O547 O 0.23204 0.76264 0.45864 0.0
N548 N 0.25069 0.84925 0.43976 0.0
C549 C 0.24398 0.86461 0.40488 0.0
C550 C 0.23487 0.88148 0.4184 0.0
C551 C 0.23779 0.87289 0.43581 0.0
C552 C 0.25807 0.8316 0.42677 0.0
C553 C 0.25615 0.83973 0.4094 0.0
H554 H 0.22835 0.88404 0.44602 0.0
H555 H 0.26557 0.81085 0.42998 0.0
H556 H 0.18723 0.81507 0.48962 0.0
H557 H 0.11214 0.76348 0.44838 0.0
H558 H 0.38763 0.8865 0.4462 0.0
H559 H 0.22407 0.89984 0.41559 0.0
H560 H 0.26372 0.82603 0.39959 0.0
C561 C 0.2547 0.39801 0.45059 0.0
C562 C 0.26827 0.37568 0.4562 0.0
N563 N 0.25796 0.36615 0.47288 0.0
N564 N 0.23523 0.40228 0.46351 0.0
C565 C 0.238 0.38279 0.47702 0.0
H566 H 0.25989 0.41143 0.43803 0.0
Co567 Co 0.2158 0.43468 0.46266 0.0
C568 C 0.13636 0.38475 0.472 0.0
O569 O 0.12703 0.39298 0.45707 0.0
N570 N 0.19676 0.46882 0.46218 0.0
C571 C 0.16756 0.49996 0.45515 0.0
C572 C 0.1726 0.47072 0.45094 0.0
C573 C 0.20551 0.49764 0.47323 0.0
N574 N 0.18836 0.5171 0.46921 0.0
O575 O 0.24312 0.458 0.48344 0.0
H576 H 0.1593 0.4524 0.44006 0.0
H577 H 0.2241 0.50447 0.48416 0.0
O578 O 0.17085 0.39874 0.47601 0.0
C579 C 0.2748 0.4822 0.47736 0.0
O580 O 0.27951 0.48476 0.46042 0.0
N581 N 0.19494 0.41487 0.44068 0.0
C582 C 0.18272 0.39412 0.40558 0.0
C583 C 0.16671 0.36723 0.41883 0.0
C584 C 0.17372 0.37813 0.43635 0.0
C585 C 0.21151 0.44096 0.42795 0.0
C586 C 0.20489 0.43146 0.41046 0.0
H587 H 0.16353 0.35703 0.44637 0.0
H588 H 0.23057 0.46958 0.43145 0.0
H589 H 0.2265 0.38175 0.48976 0.0
H590 H 0.286 0.36857 0.4488 0.0
H591 H 0.15073 0.50858 0.44798 0.0
H592 H 0.15043 0.33793 0.41572 0.0
H593 H 0.21782 0.45336 0.40085 0.0
H594 H 0.44702 0.39103 0.14948 0.0
H595 H 0.46887 0.50321 0.1552 0.0
H596 H 0.38999 0.36792 0.16632 0.0
H597 H 0.41032 0.48041 0.17114 0.0
H598 H 0.31318 0.43031 0.2094 0.0
H599 H 0.3742 0.45464 0.19576 0.0
H600 H 0.33013 0.35582 0.16384 0.0
H601 H 0.27029 0.33116 0.17823 0.0
C602 C 0.43932 0.41067 0.15439 0.0
C603 C 0.46205 0.44878 0.15108 0.0
C604 C 0.40639 0.39751 0.16388 0.0
C605 C 0.3947 0.42205 0.16991 0.0
C606 C 0.41826 0.4605 0.16694 0.0
C607 C 0.45177 0.47372 0.15776 0.0
C608 C 0.31682 0.41393 0.19948 0.0
C609 C 0.28711 0.37875 0.19496 0.0
C610 C 0.35175 0.42789 0.19157 0.0
C611 C 0.35764 0.40728 0.17867 0.0
C612 C 0.32744 0.37226 0.17403 0.0
C613 C 0.29287 0.35807 0.18219 0.0
H614 H 0.65563 0.93942 0.22928 0.0
H615 H 0.70942 0.92902 0.18326 0.0
H616 H 0.62349 0.96318 0.21176 0.0
H617 H 0.67577 0.95169 0.16561 0.0
H618 H 0.57778 0.95704 0.13948 0.0
H619 H 0.60876 0.93206 0.15711 0.0
H620 H 0.64125 0.02153 0.1938 0.0
H621 H 0.61136 0.04767 0.17578 0.0
C622 C 0.66088 0.94228 0.21544 0.0
C623 C 0.68591 0.93276 0.20783 0.0
C624 C 0.64222 0.9559 0.20538 0.0
C625 C 0.64735 0.95976 0.18733 0.0
C626 C 0.67119 0.94898 0.17952 0.0
C627 C 0.69039 0.93582 0.18965 0.0
C628 C 0.59177 0.97182 0.15119 0.0
C629 C 0.59236 1.00491 0.15596 0.0
C630 C 0.60954 0.95732 0.16132 0.0
C631 C 0.62785 0.97498 0.17674 0.0
C632 C 0.62731 1.00721 0.18197 0.0
C633 C 0.60995 0.02211 0.17167 0.0
H634 H 0.11263 0.61272 0.14912 0.0
H635 H 1.00362 0.59022 0.16522 0.0
H636 H 0.14033 0.67374 0.16266 0.0
H637 H 0.03141 0.65146 0.17871 0.0
H638 H 0.09484 0.7799 0.18584 0.0
H639 H 0.06455 0.7186 0.17216 0.0
H640 H 0.15086 0.6994 0.19194 0.0
H641 H 0.1809 0.76028 0.20563 0.0
C642 C 0.09454 0.62065 0.1556 0.0
C643 C 0.05586 0.59629 0.15611 0.0
C644 C 0.11045 0.6557 0.16339 0.0
C645 C 0.08814 0.66742 0.17191 0.0
C646 C 0.04938 0.64346 0.17212 0.0
C647 C 0.03343 0.6083 0.16434 0.0
C648 C 0.1071 0.76243 0.18746 0.0
C649 C 0.14056 0.77528 0.19673 0.0
C650 C 0.08976 0.72729 0.17958 0.0
C651 C 0.10551 0.70423 0.18078 0.0
C652 C 0.13842 0.71676 0.19041 0.0
C653 C 0.15566 0.75174 0.19828 0.0
H654 H 0.46428 0.46243 0.85152 0.0
H655 H 0.42352 0.39885 0.89901 0.0
H656 H 0.44018 0.40484 0.83511 0.0
H657 H 0.3988 0.34147 0.88248 0.0
H658 H 0.32244 0.24915 0.84248 0.0
H659 H 0.34889 0.30497 0.86068 0.0
H660 H 0.45105 0.35177 0.8313 0.0
H661 H 0.42507 0.29607 0.81342 0.0
C662 C 0.45055 0.43641 0.85856 0.0
C663 C 0.44587 0.43578 0.87671 0.0
C664 C 0.4366 0.40323 0.84909 0.0
C665 C 0.41736 0.36844 0.85746 0.0
C666 C 0.41294 0.36771 0.87558 0.0
C667 C 0.42717 0.40084 0.88507 0.0
C668 C 0.35076 0.27101 0.84012 0.0
C669 C 0.37137 0.26814 0.8263 0.0
C670 C 0.36591 0.30312 0.85051 0.0
C671 C 0.40194 0.33315 0.84727 0.0
C672 C 0.42295 0.3296 0.8339 0.0
C673 C 0.40798 0.29755 0.82365 0.0
H674 H 0.73213 0.12439 0.80995 0.0
H675 H 0.77473 0.07008 0.84273 0.0
H676 H 0.67169 0.09019 0.82423 0.0
H677 H 0.71533 0.0374 0.85783 0.0
H678 H 0.59831 0.96206 0.87535 0.0
H679 H 0.65442 0.99129 0.85755 0.0
H680 H 0.63826 0.08526 0.84891 0.0
H681 H 0.58067 0.05412 0.86585 0.0
C682 C 0.7285 0.10522 0.82033 0.0
C683 C 0.75805 0.09978 0.8252 0.0
C684 C 0.6939 0.08573 0.82864 0.0
C685 C 0.68813 0.06083 0.84234 0.0
C686 C 0.71796 0.05549 0.84713 0.0
C687 C 0.75227 0.07438 0.83854 0.0
C688 C 0.60674 0.98876 0.86939 0.0
C689 C 0.58544 1.00598 0.87189 0.0
C690 C 0.63914 1.00584 0.85933 0.0
C691 C 0.65169 0.04118 0.85187 0.0
C692 C 0.62959 0.05793 0.85414 0.0
C693 C 0.59662 0.0403 0.8639 0.0
H694 H 0.03665 0.62759 0.89306 0.0
H695 H 1.00785 0.5413 0.85485 0.0
H696 H 1.00623 0.65336 0.87576 0.0
H697 H 0.97853 0.56828 0.837 0.0
H698 H 0.89073 0.60103 0.82154 0.0
H699 H 0.9244 0.57548 0.83667 0.0
H700 H 1.01117 0.68662 0.84973 0.0
H701 H 0.97666 0.71209 0.83533 0.0
C702 C 1.02381 0.61398 0.88096 0.0
C703 C 1.02443 0.58194 0.87552 0.0
C704 C 1.00677 0.62923 0.87085 0.0
C705 C 0.9899 0.61308 0.8549 0.0
C706 C 0.99089 0.5813 0.84929 0.0
C707 C 1.00802 0.56598 0.85945 0.0
C708 C 0.91688 0.6201 0.82769 0.0
C709 C 0.93058 0.65873 0.82732 0.0
C710 C 0.93651 0.60539 0.8362 0.0
C711 C 0.97047 0.62887 0.84458 0.0
C712 C 0.9848 0.66757 0.8437 0.0
C713 C 0.96515 0.68228 0.83522 0.0
H714 H 0.7474 0.72788 0.79953 0.0
H715 H 0.80577 0.70865 0.84103 0.0
H716 H 0.68836 0.68728 0.81373 0.0
H717 H 0.74689 0.66959 0.85583 0.0
H718 H 0.63766 0.57887 0.87431 0.0
H719 H 0.69271 0.61268 0.85617 0.0
H720 H 0.64863 0.68036 0.83636 0.0
H721 H 0.59262 0.64469 0.85383 0.0
C722 C 0.7477 0.7154 0.81185 0.0
C723 C 0.78146 0.72166 0.81915 0.0
C724 C 0.71367 0.69208 0.82007 0.0
C725 C 0.71234 0.67467 0.83598 0.0
C726 C 0.74633 0.68152 0.8434 0.0
C727 C 0.78033 0.70439 0.83502 0.0
C728 C 0.63928 0.60014 0.86558 0.0
C729 C 0.61067 0.60881 0.86529 0.0
C730 C 0.67123 0.62013 0.85541 0.0
C731 C 0.67597 0.65013 0.84501 0.0
C732 C 0.64622 0.6574 0.84403 0.0
C733 C 0.61384 0.63678 0.85398 0.0
H734 H 0.38565 1.01496 0.892 0.0
H735 H 0.41729 0.97511 0.84706 0.0
H736 H 0.3624 0.0459 0.87334 0.0
H737 H 0.39428 1.00691 0.82809 0.0
H738 H 0.29723 1.01707 0.80365 0.0
H739 H 0.33266 0.99618 0.82058 0.0
H740 H 0.37494 0.09442 0.85261 0.0
H741 H 0.33879 0.11529 0.83567 0.0
C742 C 0.3883 1.01341 0.87806 0.0
C743 C 0.40303 0.99224 0.87101 0.0
C744 C 0.37514 0.03146 0.86732 0.0
C745 C 0.37607 0.02876 0.84916 0.0
C746 C 0.39264 1.00918 0.84204 0.0
C747 C 0.4062 0.99125 0.85287 0.0
C748 C 0.31412 0.03443 0.81427 0.0
C749 C 0.3148 0.06782 0.81835 0.0
C750 C 0.33486 0.02255 0.82388 0.0
C751 C 0.35692 0.04359 0.83795 0.0
C752 C 0.35806 0.0773 0.84194 0.0
C753 C 0.33731 0.08931 0.83223 0.0
H754 H 0.98755 0.3868 0.88108 0.0
H755 H 0.08843 0.43534 0.85094 0.0
H756 H 0.95989 0.33264 0.862 0.0
H757 H 0.06236 0.38035 0.83249 0.0
H758 H 1.00225 0.28358 0.79613 0.0
H759 H 1.02278 0.3415 0.81164 0.0
H760 H 0.96212 0.27936 0.85713 0.0
H761 H 0.93968 0.22152 0.84103 0.0
C762 C 1.0034 0.38613 0.87004 0.0
C763 C 0.03969 0.41546 0.86718 0.0
C764 C 0.98793 0.35473 0.85929 0.0
C765 C 1.00893 0.35134 0.84576 0.0
C766 C 0.04485 0.38175 0.84252 0.0
C767 C 0.05992 0.41352 0.85305 0.0
C768 C 0.99331 0.28231 0.80946 0.0
C769 C 0.96952 0.2479 0.8174 0.0
C770 C 1.00524 0.31568 0.81844 0.0
C771 C 0.99441 0.31565 0.83579 0.0
C772 C 0.97058 0.28098 0.84371 0.0
C773 C 0.95796 0.24761 0.83456 0.0
H774 H 0.69607 0.74149 0.22837 0.0
H775 H 0.74274 0.80731 0.18211 0.0
H776 H 0.66117 0.68592 0.21083 0.0
H777 H 0.70966 0.75131 0.16434 0.0
H778 H 0.63591 0.64921 0.13396 0.0
H779 H 0.65629 0.70353 0.15243 0.0
H780 H 0.66874 0.64303 0.19528 0.0
H781 H 0.646 0.58806 0.17686 0.0
C782 C 0.69867 0.74401 0.21435 0.0
C783 C 0.72215 0.77872 0.20659 0.0
C784 C 0.67895 0.71198 0.20425 0.0
C785 C 0.68277 0.71347 0.18605 0.0
C786 C 0.70534 0.7487 0.17826 0.0
C787 C 0.7245 0.781 0.18842 0.0
C788 C 0.64209 0.64735 0.14749 0.0
C789 C 0.63917 0.61438 0.15403 0.0
C790 C 0.65436 0.67874 0.15806 0.0
C791 C 0.66504 0.67841 0.1754 0.0
C792 C 0.66045 0.64463 0.18212 0.0
C793 C 0.64734 0.61289 0.17159 0.0
H794 H 0.31294 0.03377 0.21972 0.0
H795 H 0.25461 0.94599 0.18222 0.0
H796 H 0.37044 0.05618 0.20316 0.0
H797 H 0.31219 0.96864 0.16562 0.0
H798 H 0.40812 0.05456 0.1305 0.0
H799 H 0.35214 0.02615 0.1482 0.0
H800 H 0.41791 0.03731 0.19366 0.0
H801 H 0.47465 0.06584 0.1757 0.0
C802 C 0.31231 0.01925 0.20794 0.0
C803 C 0.27895 0.98824 0.20223 0.0
C804 C 0.34543 0.0319 0.19855 0.0
C805 C 0.34597 1.01418 0.18309 0.0
C806 C 0.31268 0.98305 0.17743 0.0
C807 C 0.27965 0.97009 0.18694 0.0
C808 C 0.41078 0.05076 0.14426 0.0
C809 C 0.44593 0.06266 0.15171 0.0
C810 C 0.37855 0.0342 0.15438 0.0
C811 C 0.38048 0.02947 0.17235 0.0
C812 C 0.41556 0.04078 0.17985 0.0
C813 C 0.44798 0.05687 0.16958 0.0
H814 H 1.01344 0.26324 0.21174 0.0
H815 H 0.11989 0.34535 0.19084 0.0
H816 H 0.98296 0.29032 0.19505 0.0
H817 H 0.08913 0.37271 0.1741 0.0
H818 H 1.02087 0.43313 0.16359 0.0
H819 H 0.05303 0.4071 0.18012 0.0
H820 H 0.97082 0.29676 0.16356 0.0
H821 H 0.9389 0.32258 0.14702 0.0
C822 C 0.03037 0.28707 0.20355 0.0
C823 C 0.06911 0.3021 0.20261 0.0
C824 C 1.01283 0.3025 0.19393 0.0
C825 C 0.03361 0.33369 0.18327 0.0
C826 C 0.07241 0.34885 0.18231 0.0
C827 C 0.08997 0.33301 0.19177 0.0
C828 C 1.00958 0.40332 0.16355 0.0
C829 C 0.97726 0.37994 0.15399 0.0
C830 C 0.02818 0.38846 0.1729 0.0
C831 C 1.01451 0.34988 0.17312 0.0
C832 C 0.98194 0.32656 0.16375 0.0
C833 C 0.9637 0.3414 0.15423 0.0
H834 H 0.1359 0.7702 0.50717 0.0
H835 H 0.07078 0.7761 0.46488 0.0
H836 H 0.08111 0.74405 0.52591 0.0
H837 H 1.01614 0.7505 0.48358 0.0
H838 H 0.9169 0.66315 0.51551 0.0
H839 H 0.97188 0.69362 0.49697 0.0
H840 H 0.03802 0.75571 0.54116 0.0
H841 H 0.98314 0.72483 0.55965 0.0
C842 C 0.11007 0.76654 0.50195 0.0
C843 C 0.1078 0.77511 0.48447 0.0
C844 C 0.07852 0.75148 0.5127 0.0
C845 C 0.04385 0.74478 0.50629 0.0
C846 C 0.04198 0.7544 0.48893 0.0
C847 C 0.07343 0.76926 0.47819 0.0
C848 C 0.94304 0.68367 0.52121 0.0
C849 C 0.94551 0.69135 0.53911 0.0
C850 C 0.97471 0.70122 0.51057 0.0
C851 C 1.00972 0.72713 0.51751 0.0
C852 C 1.01188 0.73542 0.53535 0.0
C853 C 0.98029 0.71777 0.54598 0.0
H854 H 0.26921 0.37307 0.50787 0.0
H855 H 0.27337 0.31263 0.46317 0.0
H856 H 0.29393 0.34215 0.526 0.0
H857 H 0.29766 0.28143 0.48123 0.0
H858 H 0.38228 0.26723 0.5144 0.0
H859 H 0.35314 0.29366 0.49618 0.0
H860 H 0.28144 0.28454 0.53885 0.0
H861 H 0.31086 0.25852 0.55703 0.0
C862 C 0.2748 0.35274 0.50196 0.0
C863 C 0.26948 0.34558 0.48401 0.0
C864 C 0.28904 0.33495 0.51236 0.0
C865 C 0.29817 0.30936 0.50511 0.0
C866 C 0.29181 0.30149 0.48725 0.0
C867 C 0.27772 0.31934 0.47687 0.0
C868 C 0.35994 0.27035 0.51981 0.0
C869 C 0.34913 0.26088 0.53724 0.0
C870 C 0.34317 0.28558 0.50936 0.0
C871 C 0.31498 0.2916 0.51602 0.0
C872 C 0.30353 0.28114 0.53333 0.0
C873 C 0.32036 0.26606 0.54377 0.0
H874 H 0.67316 0.96746 0.47173 0.0
H875 H 0.71555 0.9128 0.50455 0.0
H876 H 0.70445 0.023 0.48944 0.0
H877 H 0.74779 0.96912 0.52235 0.0
H878 H 0.76497 0.06204 0.56065 0.0
H879 H 0.73829 1.00645 0.54278 0.0
H880 H 0.76314 0.0743 0.49666 0.0
H881 H 0.78806 0.12989 0.51467 0.0
C882 C 0.68965 0.96745 0.48263 0.0
C883 C 0.69208 0.93564 0.48659 0.0
C884 C 0.70781 0.99954 0.4928 0.0
C885 C 0.72922 1.00105 0.50728 0.0
C886 C 0.73138 0.96905 0.5114 0.0
C887 C 0.71292 0.9367 0.50121 0.0
C888 C 0.76463 0.06524 0.5467 0.0
C889 C 0.77822 0.1007 0.5392 0.0
C890 C 0.74969 0.03319 0.53639 0.0
C891 C 0.74806 0.03554 0.51821 0.0
C892 C 0.76313 0.07116 0.51063 0.0
C893 C 0.77794 0.10325 0.52097 0.0
H894 H 0.33714 0.06505 0.55681 0.0
H895 H 0.39995 0.12892 0.5124 0.0
H896 H 0.30278 1.01044 0.53858 0.0
H897 H 0.3672 0.07371 0.49409 0.0
H898 H 0.29397 0.97417 0.46193 0.0
H899 H 0.31468 0.0291 0.47996 0.0
H900 H 0.31017 0.96491 0.52517 0.0
H901 H 0.28731 0.90946 0.50704 0.0
C902 C 0.3433 0.0674 0.54302 0.0
C903 C 0.37116 0.10122 0.53599 0.0
C904 C 0.32391 0.03589 0.53257 0.0
C905 C 0.3324 0.037 0.5148 0.0
C906 C 0.35931 0.07151 0.50763 0.0
C907 C 0.37823 0.10335 0.51809 0.0
C908 C 0.2967 0.97171 0.47581 0.0
C909 C 0.28902 0.93753 0.4831 0.0
C910 C 0.30905 1.00339 0.48616 0.0
C911 C 0.31491 1.00208 0.50409 0.0
C912 C 0.30567 0.96729 0.51149 0.0
C913 C 0.29255 0.93531 0.50112 0.0
H914 H 0.06884 0.3272 0.46319 0.0
H915 H 0.13426 0.38804 0.50763 0.0
H916 H 1.01445 0.29317 0.48162 0.0
H917 H 0.07934 0.35549 0.52614 0.0
H918 H 0.98026 0.28204 0.55855 0.0
H919 H 0.03453 0.30235 0.54005 0.0
H920 H 0.96992 0.30152 0.49574 0.0
H921 H 0.91509 0.27918 0.51431 0.0
C922 C 0.07161 0.33305 0.47701 0.0
C923 C 0.10582 0.36031 0.48398 0.0
C924 C 0.04022 0.3138 0.48758 0.0
C925 C 0.04189 0.32177 0.50543 0.0
C926 C 0.07673 0.34804 0.51253 0.0
C927 C 0.1084 0.36685 0.50194 0.0
C928 C 0.97752 0.28546 0.54476 0.0
C929 C 0.94343 0.27902 0.53786 0.0
C930 C 1.00884 0.29758 0.53415 0.0
C931 C 1.00723 0.3044 0.51634 0.0
C932 C 0.97248 0.29629 0.50931 0.0
C933 C 0.94086 0.28343 0.51993 0.0
H934 H 0.7714 0.71586 0.55927 0.0
H935 H 0.76235 0.64546 0.51622 0.0
H936 H 0.74842 0.74805 0.54113 0.0
H937 H 0.73753 0.67637 0.4981 0.0
H938 H 0.70784 0.74669 0.46561 0.0
H939 H 0.74476 0.72811 0.48297 0.0
H940 H 0.69232 0.73829 0.52957 0.0
H941 H 0.65667 0.75872 0.51202 0.0
C942 C 0.7649 0.70761 0.54578 0.0
C943 C 0.76873 0.67818 0.53914 0.0
C944 C 0.75122 0.72578 0.53542 0.0
C945 C 0.74031 0.71461 0.51814 0.0
C946 C 0.74592 0.68624 0.51125 0.0
C947 C 0.76024 0.66841 0.52161 0.0
C948 C 0.70477 0.74564 0.47963 0.0
C949 C 0.67931 0.75409 0.48748 0.0
C950 C 0.72568 0.73455 0.48959 0.0
C951 C 0.72129 0.73089 0.50773 0.0
C952 C 0.69695 0.74106 0.51567 0.0
C953 C 0.6764 0.75282 0.50565 0.0
H954 H 0.22166 0.35239 0.29916 0.0
H955 H 0.10747 0.32768 0.29808 0.0
H956 H 0.22511 0.36611 0.32989 0.0
H957 H 0.11173 0.34397 0.32883 0.0
H958 H 0.1211 0.33941 0.38845 0.0
H959 H 0.11536 0.32336 0.35759 0.0
H960 H 0.22889 0.41084 0.3493 0.0
H961 H 0.23537 0.42496 0.38 0.0
C962 C 0.19723 0.34999 0.30545 0.0
C963 C 0.16417 0.33858 0.29606 0.0
C964 C 0.19939 0.35842 0.32312 0.0
C965 C 0.16874 0.35631 0.33196 0.0
C966 C 0.13577 0.34548 0.32255 0.0
C967 C 0.1335 0.33669 0.30482 0.0
C968 C 0.14494 0.35486 0.38005 0.0
C969 C 0.1786 0.38368 0.38679 0.0
C970 C 0.1415 0.34601 0.36229 0.0
C971 C 0.17164 0.36579 0.35085 0.0
C972 C 0.20518 0.39456 0.35765 0.0
C973 C 0.20871 0.40311 0.37533 0.0
H974 H 0.70252 0.77748 0.30127 0.0
H975 H 0.73637 0.89325 0.3083 0.0
H976 H 0.68286 0.76533 0.33187 0.0
H977 H 0.71709 0.8813 0.33864 0.0
H978 H 0.63872 0.83695 0.38525 0.0
H979 H 0.65696 0.84602 0.35476 0.0
H980 H 0.71385 0.78397 0.3622 0.0
H981 H 0.69519 0.77458 0.39294 0.0
C982 C 0.70548 0.80018 0.30933 0.0
C983 C 0.72102 0.83629 0.30248 0.0
C984 C 0.69462 0.79334 0.32682 0.0
C985 C 0.69856 0.82241 0.33762 0.0
C986 C 0.71352 0.85832 0.33062 0.0
C987 C 0.72472 0.86519 0.31328 0.0
C988 C 0.65499 0.82509 0.38038 0.0
C989 C 0.66544 0.80494 0.39144 0.0
C990 C 0.6656 0.83047 0.36295 0.0
C991 C 0.68676 0.81564 0.3561 0.0
C992 C 0.69724 0.7954 0.36712 0.0
C993 C 0.68692 0.79035 0.3847 0.0
H994 H 0.26238 0.95104 0.29869 0.0
H995 H 0.1692 0.83871 0.29769 0.0
H996 H 0.27251 0.94336 0.32936 0.0
H997 H 0.17748 0.83205 0.32831 0.0
H998 H 0.2202 0.81397 0.37833 0.0
H999 H 0.21523 0.82392 0.34777 0.0
H1000 H 0.24824 0.93864 0.35804 0.0
H1001 H 0.25616 0.92931 0.38879 0.0
C1002 C 0.24411 0.92471 0.30496 0.0
C1003 C 0.21483 0.8956 0.29565 0.0
C1004 C 0.24955 0.92049 0.32264 0.0
C1005 C 0.2258 0.88709 0.33145 0.0
C1006 C 0.19678 0.85801 0.32204 0.0
C1007 C 0.19163 0.86206 0.30442 0.0
C1008 C 0.22717 0.8416 0.37415 0.0
C1009 C 0.2391 0.87094 0.38615 0.0
C1010 C 0.22364 0.84717 0.35653 0.0
C1011 C 0.23107 0.88206 0.3503 0.0
C1012 C 0.24268 0.91146 0.36228 0.0
C1013 C 0.2467 0.90598 0.37999 0.0
H1014 H 0.34799 0.10456 0.63161 0.0
H1015 H 0.41907 0.22229 0.64064 0.0
H1016 H 0.32992 0.09589 0.66236 0.0
H1017 H 0.4026 0.21346 0.67116 0.0
H1018 H 0.33269 0.19436 0.719 0.0
H1019 H 0.34992 0.19991 0.68859 0.0
H1020 H 0.35417 0.09829 0.6921 0.0
H1021 H 0.33521 0.09191 0.7227 0.0
C1022 C 0.35978 0.12851 0.64012 0.0
C1023 C 0.38514 0.16406 0.63365 0.0
C1024 C 0.3498 0.1235 0.65777 0.0
C1025 C 0.36481 0.15399 0.66924 0.0
C1026 C 0.39014 0.1894 0.6627 0.0
C1027 C 0.39996 0.19439 0.64518 0.0
C1028 C 0.33704 0.17301 0.71331 0.0
C1029 C 0.33227 0.14252 0.72326 0.0
C1030 C 0.34733 0.1764 0.69587 0.0
C1031 C 0.35352 0.14958 0.68786 0.0
C1032 C 0.34924 0.11923 0.69783 0.0
C1033 C 0.33886 0.11581 0.7154 0.0
H1034 H 0.82749 0.14098 0.72079 0.0
H1035 H 0.93923 0.23489 0.7237 0.0
H1036 H 0.82485 0.1533 0.69016 0.0
H1037 H 0.93576 0.24857 0.69308 0.0
H1038 H 0.92946 0.2393 0.63324 0.0
H1039 H 0.93445 0.22609 0.66384 0.0
H1040 H 0.81976 0.19611 0.67186 0.0
H1041 H 0.81426 0.20717 0.6414 0.0
C1042 C 0.85155 0.16434 0.71492 0.0
C1043 C 0.88365 0.18681 0.72477 0.0
C1044 C 0.84985 0.17172 0.69733 0.0
C1045 C 0.88005 0.20204 0.68909 0.0
C1046 C 0.91213 0.22474 0.69894 0.0
C1047 C 0.9139 0.21722 0.71658 0.0
C1048 C 0.90526 0.22949 0.64153 0.0
C1049 C 0.87157 0.22461 0.63484 0.0
C1050 C 0.90822 0.22235 0.65912 0.0
C1051 C 0.87752 0.21006 0.67038 0.0
C1052 C 0.84389 0.20506 0.6636 0.0
C1053 C 0.84089 0.21198 0.6461 0.0
H1054 H 0.88967 0.68451 0.72424 0.0
H1055 H 0.79803 0.70586 0.72554 0.0
H1056 H 0.87895 0.6701 0.69348 0.0
H1057 H 0.78611 0.68965 0.69472 0.0
H1058 H 0.8027 0.69701 0.63497 0.0
H1059 H 0.81247 0.7125 0.66594 0.0
H1060 H 0.83619 0.62359 0.67431 0.0
H1061 H 0.82834 0.60946 0.64352 0.0
C1062 C 0.8671 0.68601 0.71798 0.0
C1063 C 0.84487 0.69659 0.7274 0.0
C1064 C 0.86066 0.67732 0.70032 0.0
C1065 C 0.83162 0.67865 0.69155 0.0
C1066 C 0.809 0.68874 0.701 0.0
C1067 C 0.8155 0.69753 0.71872 0.0
C1068 C 0.81033 0.68104 0.64342 0.0
C1069 C 0.8145 0.65184 0.63671 0.0
C1070 C 0.81549 0.68961 0.66122 0.0
C1071 C 0.8251 0.66928 0.67268 0.0
C1072 C 0.82924 0.64016 0.6659 0.0
C1073 C 0.82421 0.6317 0.64821 0.0
H1074 H 0.99717 0.40396 0.05839 0.0
H1075 H 1.02027 0.51718 0.05269 0.0
H1076 H 1.00949 0.40245 0.02738 0.0
H1077 H 0.03061 0.51468 0.02174 0.0
H1078 H 1.00366 0.48096 0.96457 0.0
H1079 H 0.98856 0.47616 0.99559 0.0
H1080 H 0.06657 0.4386 1.006 0.0
H1081 H 0.08204 0.44387 0.97498 0.0
C1082 C 1.00511 0.4286 0.05065 0.0
C1083 C 1.00727 0.46056 0.05815 0.0
C1084 C 1.01186 0.42756 0.03285 0.0
C1085 C 1.02035 0.45822 0.02213 0.0
C1086 C 1.02328 0.49034 0.02963 0.0
C1087 C 1.0172 0.49165 0.04741 0.0
C1088 C 1.01698 0.47094 0.97344 0.0
C1089 C 0.04397 0.46275 0.9674 0.0
C1090 C 1.00861 0.46852 0.99119 0.0
C1091 C 1.02661 0.45725 1.00318 0.0
C1092 C 0.05221 0.44723 0.99703 0.0
C1093 C 0.06109 0.45032 0.97932 0.0
H1094 H 0.53398 0.5458 0.0603 0.0
H1095 H 0.64893 0.58122 0.04963 0.0
H1096 H 0.52464 0.55575 0.02991 0.0
H1097 H 0.64047 0.5931 0.0194 0.0
H1098 H 0.60387 0.56945 0.96294 0.0
H1099 H 0.61407 0.56264 0.99346 0.0
H1100 H 0.53554 0.59766 1.0076 0.0
H1101 H 0.52292 0.60125 0.97714 0.0
C1102 C 0.55746 0.55655 0.05149 0.0
C1103 C 0.59214 0.5627 0.05729 0.0
C1104 C 0.55222 0.56239 0.03403 0.0
C1105 C 0.58174 0.5751 0.022 0.0
C1106 C 0.61679 0.58246 0.02807 0.0
C1107 C 0.62181 0.57601 0.04544 0.0
C1108 C 0.58839 0.57527 0.97252 0.0
C1109 C 0.56249 0.58587 0.96738 0.0
C1110 C 0.59472 0.57196 0.99013 0.0
C1111 C 0.57573 0.57965 1.00318 0.0
C1112 C 0.55036 0.59092 0.99804 0.0
C1113 C 0.54361 0.59367 0.98043 0.0
H1114 H 0.44135 0.03416 0.05735 0.0
H1115 H 0.54952 0.04457 0.05114 0.0
H1116 H 0.42643 1.01343 0.02703 0.0
H1117 H 0.53522 0.02512 0.02102 0.0
H1118 H 0.48441 0.95054 0.9746 0.0
H1119 H 0.49497 0.96918 1.00489 0.0
H1120 H 0.44577 0.03821 0.99668 0.0
H1121 H 0.43396 1.01838 0.96617 0.0
C1122 C 0.4618 0.03184 0.04955 0.0
C1123 C 0.49665 0.04114 0.0566 0.0
C1124 C 0.45346 0.02042 0.03217 0.0
C1125 C 0.47967 1.0177 0.02161 0.0
C1126 C 0.51425 0.02656 0.02881 0.0
C1127 C 0.52258 0.03804 0.04605 0.0
C1128 C 0.47541 0.96937 0.97924 0.0
C1129 C 0.45806 0.98275 0.96798 0.0
C1130 C 0.48183 0.98037 0.9966 0.0
C1131 C 0.47129 1.00524 1.00321 0.0
C1132 C 0.45389 0.01872 0.992 0.0
C1133 C 0.44751 1.00772 0.97451 0.0
H1134 H 0.1097 0.02556 0.23173 0.0
H1135 H 0.20202 0.04545 0.1988 0.0
H1136 H 0.11119 0.08074 0.22 0.0
H1137 H 0.20291 0.10026 0.18665 0.0
H1138 H 0.22958 0.22267 0.20026 0.0
H1139 H 0.22213 0.16085 0.19949 0.0
H1140 H 0.10309 0.113 0.19488 0.0
H1141 H 0.11091 0.1754 0.19547 0.0
C1142 C 0.13013 0.04154 0.22187 0.0
C1143 C 0.15618 0.03145 0.21644 0.0
C1144 C 0.13056 0.07285 0.2149 0.0
C1145 C 0.15717 0.09499 0.20235 0.0
C1146 C 0.18217 0.08393 0.19635 0.0
C1147 C 0.18159 0.05246 0.20327 0.0
C1148 C 0.20201 0.19905 0.19815 0.0
C1149 C 0.17084 0.20378 0.19805 0.0
C1150 C 0.19766 0.16349 0.19779 0.0
C1151 C 0.16192 0.13187 0.19754 0.0
C1152 C 0.13096 0.13682 0.19541 0.0
C1153 C 0.13544 0.17259 0.19551 0.0
H1154 H 0.88596 0.95449 0.19954 0.0
H1155 H 0.83787 0.02218 0.21259 0.0
H1156 H 0.9473 1.01041 0.19704 0.0
H1157 H 0.89855 0.078 0.20983 0.0
H1158 H 1.01302 0.17567 0.2041 0.0
H1159 H 0.95606 0.12136 0.19358 0.0
H1160 H 0.9838 0.04945 0.22257 0.0
H1161 H 0.04072 0.10362 0.23288 0.0
C1162 C 0.88816 0.98136 0.20097 0.0
C1163 C 0.85732 0.98403 0.20635 0.0
C1164 C 0.92334 1.01341 0.19976 0.0
C1165 C 0.92792 0.0486 0.20359 0.0
C1166 C 0.89609 0.05142 0.20676 0.0
C1167 C 0.86121 0.01941 0.20825 0.0
C1168 C 1.00723 0.14819 0.20793 0.0
C1169 C 0.03101 0.14388 0.21952 0.0
C1170 C 0.97462 0.11713 0.20194 0.0
C1171 C 0.96539 0.08108 0.20722 0.0
C1172 C 0.99025 0.07676 0.21807 0.0
C1173 C 1.02259 0.10781 0.22421 0.0
H1174 H 0.91806 0.9211 0.20103 0.0
H1175 H 0.8932 0.81725 0.22489 0.0
H1176 H 0.97508 0.92693 0.18857 0.0
H1177 H 0.95002 0.82322 0.21305 0.0
H1178 H 0.04625 0.82876 0.19069 0.0
H1179 H 0.98514 0.82343 0.18875 0.0
H1180 H 0.03492 0.94063 0.20013 0.0
H1181 H 0.09603 0.94594 0.20114 0.0
C1182 C 0.92436 0.89917 0.2033 0.0
C1183 C 0.90128 0.86888 0.21407 0.0
C1184 C 0.9572 0.90262 0.19629 0.0
C1185 C 0.96739 0.87559 0.19976 0.0
C1186 C 0.94308 0.84437 0.20979 0.0
C1187 C 0.91059 0.84111 0.21682 0.0
C1188 C 0.04431 0.85376 0.1917 0.0
C1189 C 0.07587 0.88778 0.19592 0.0
C1190 C 1.00919 0.85063 0.19095 0.0
C1191 C 1.0048 0.88132 0.19488 0.0
C1192 C 0.03704 0.91633 0.19704 0.0
C1193 C 0.0723 0.91952 0.19749 0.0
H1194 H 0.03494 0.18057 0.81867 0.0
H1195 H 1.01592 0.0857 0.78803 0.0
H1196 H 0.09268 0.18609 0.82983 0.0
H1197 H 0.07381 0.09158 0.79885 0.0
H1198 H 0.17267 0.09857 0.82379 0.0
H1199 H 0.10927 0.08829 0.82404 0.0
H1200 H 0.15282 0.20583 0.81587 0.0
H1201 H 0.21571 0.21577 0.81552 0.0
C1202 C 0.04283 0.1606 0.81451 0.0
C1203 C 1.02112 0.13304 0.80226 0.0
C1204 C 0.07597 0.16383 0.82085 0.0
C1205 C 0.08797 0.13933 0.81523 0.0
C1206 C 0.06528 0.11068 0.80362 0.0
C1207 C 0.03235 0.10766 0.79719 0.0
C1208 C 0.16873 0.12232 0.82277 0.0
C1209 C 0.19909 0.15789 0.81944 0.0
C1210 C 0.13237 0.11642 0.8227 0.0
C1211 C 0.12589 0.14614 0.8196 0.0
C1212 C 0.15666 0.18229 0.81831 0.0
C1213 C 0.19281 0.18804 0.81815 0.0
H1214 H 0.82116 1.00375 0.82018 0.0
H1215 H 0.93943 0.07821 0.82443 0.0
H1216 H 0.83071 0.95062 0.82084 0.0
H1217 H 0.94935 0.02489 0.82491 0.0
H1218 H 0.94572 0.93109 0.78904 0.0
H1219 H 0.94208 0.98409 0.80009 0.0
H1220 H 0.85203 0.91104 0.83407 0.0
H1221 H 0.85515 0.85777 0.82265 0.0
C1222 C 0.84911 1.00864 0.82213 0.0
C1223 C 0.87952 0.04506 0.8222 0.0
C1224 C 0.85467 0.97815 0.82241 0.0
C1225 C 0.89087 0.98346 0.82256 0.0
C1226 C 0.92113 0.01989 0.8245 0.0
C1227 C 0.91545 0.05046 0.82448 0.0
C1228 C 0.92521 0.92631 0.7989 0.0
C1229 C 0.90031 0.89008 0.80474 0.0
C1230 C 0.92353 0.95682 0.80547 0.0
C1231 C 0.89676 0.95189 0.818 0.0
C1232 C 0.87286 0.91581 0.82437 0.0
C1233 C 0.87472 0.88529 0.81787 0.0
H1234 H 0.15508 0.96165 0.79003 0.0
H1235 H 0.13535 0.02972 0.82572 0.0
H1236 H 0.10244 0.90596 0.80209 0.0
H1237 H 0.08172 0.97354 0.83791 0.0
H1238 H 0.95957 0.86636 0.82457 0.0
H1239 H 1.01803 0.92574 0.82525 0.0
H1240 H 0.07901 0.86696 0.82867 0.0
H1241 H 1.02068 0.80788 0.8275 0.0
C1242 C 0.13968 0.9645 0.80069 0.0
C1243 C 0.1492 0.99985 0.80695 0.0
C1244 C 0.10968 0.93263 0.80773 0.0
C1245 C 0.08796 0.93522 0.82109 0.0
C1246 C 0.09799 0.97063 0.82769 0.0
C1247 C 0.12869 1.00269 0.8208 0.0
C1248 C 0.98532 0.8662 0.82648 0.0
C1249 C 0.98566 0.83256 0.82601 0.0
C1250 C 1.01892 0.90027 0.82673 0.0
C1251 C 0.05321 0.90103 0.82657 0.0
C1252 C 0.05309 0.8673 0.82846 0.0
C1253 C 1.01966 0.83342 0.82806 0.0
H1254 H 0.87819 0.56538 0.52981 0.0
H1255 H 0.76424 0.48448 0.54133 0.0
H1256 H 0.89195 0.51525 0.52514 0.0
H1257 H 0.77766 0.43456 0.53722 0.0
H1258 H 0.91126 0.42957 0.55574 0.0
H1259 H 0.89914 0.47826 0.54654 0.0
H1260 H 0.79616 0.39614 0.52274 0.0
H1261 H 0.80749 0.34709 0.53274 0.0
C1262 C 0.85563 0.5368 0.53038 0.0
C1263 C 0.82 0.52875 0.53558 0.0
C1264 C 0.86361 0.50803 0.52808 0.0
C1265 C 0.83616 0.47072 0.53121 0.0
C1266 C 0.79956 0.46273 0.53455 0.0
C1267 C 0.79166 0.49145 0.53677 0.0
C1268 C 0.88605 0.42174 0.54852 0.0
C1269 C 0.85995 0.38409 0.54546 0.0
C1270 C 0.87935 0.4499 0.54292 0.0
C1271 C 0.84644 0.44133 0.53396 0.0
C1272 C 0.82153 0.40384 0.52984 0.0
C1273 C 0.82819 0.3756 0.53551 0.0
H1274 H 0.69452 0.45678 0.54892 0.0
H1275 H 0.62858 0.50856 0.53978 0.0
H1276 H 0.64233 0.39673 0.54024 0.0
H1277 H 0.57692 0.44935 0.52983 0.0
H1278 H 0.48112 0.33475 0.54705 0.0
H1279 H 0.53301 0.39697 0.54343 0.0
H1280 H 0.59842 0.3521 0.52168 0.0
H1281 H 0.54597 0.28912 0.52621 0.0
C1282 C 0.66909 0.45535 0.54448 0.0
C1283 C 0.66522 0.48698 0.54523 0.0
C1284 C 0.63911 0.42097 0.53936 0.0
C1285 C 0.60477 0.41763 0.53453 0.0
C1286 C 0.60228 0.45026 0.53396 0.0
C1287 C 0.6319 0.48433 0.53954 0.0
C1288 C 0.50605 0.33828 0.54075 0.0
C1289 C 0.50948 0.3072 0.53684 0.0
C1290 C 0.53613 0.37419 0.53867 0.0
C1291 C 0.57063 0.38006 0.53255 0.0
C1292 C 0.57271 0.34883 0.52686 0.0
C1293 C 0.5424 0.31265 0.52907 0.0
H1294 H 0.7568 0.28878 0.5458 0.0
H1295 H 0.72482 0.17993 0.52599 0.0
H1296 H 0.69436 0.27772 0.54093 0.0
H1297 H 0.66178 0.16857 0.52067 0.0
H1298 H 0.55347 0.14148 0.55094 0.0
H1299 H 0.61501 0.1553 0.54188 0.0
H1300 H 0.63973 0.26479 0.52531 0.0
H1301 H 0.57832 0.25132 0.5352 0.0
C1302 C 0.73685 0.26331 0.53936 0.0
C1303 C 0.74569 0.23544 0.53602 0.0
C1304 C 0.70079 0.25675 0.53665 0.0
C1305 C 0.67259 0.2219 0.53071 0.0
C1306 C 0.6826 0.19548 0.52558 0.0
C1307 C 0.71887 0.20216 0.52829 0.0
C1308 C 0.57189 0.16843 0.54526 0.0
C1309 C 0.56116 0.19554 0.54417 0.0
C1310 C 0.60714 0.17621 0.53976 0.0
C1311 C 0.63271 0.21133 0.53293 0.0
C1312 C 0.62101 0.2376 0.53071 0.0
C1313 C 0.58564 0.2298 0.53627 0.0
H1314 H 0.84142 0.433 0.15187 0.0
H1315 H 0.92135 0.54737 0.16305 0.0
H1316 H 0.79101 0.44644 0.15486 0.0
H1317 H 0.87098 0.56091 0.16694 0.0
H1318 H 0.78879 0.58121 0.13462 0.0
H1319 H 0.83621 0.5679 0.14452 0.0
H1320 H 0.75176 0.46587 0.16819 0.0
H1321 H 0.70397 0.47848 0.15752 0.0
C1322 C 0.84797 0.46049 0.15612 0.0
C1323 C 0.88513 0.48909 0.15741 0.0
C1324 C 0.81905 0.46838 0.15771 0.0
C1325 C 0.82689 0.50508 0.16068 0.0
C1326 C 0.86394 0.53257 0.16417 0.0
C1327 C 0.89282 0.52473 0.16232 0.0
C1328 C 0.78018 0.55597 0.14197 0.0
C1329 C 0.74229 0.53057 0.14485 0.0
C1330 C 0.80758 0.54857 0.14796 0.0
C1331 C 0.79798 0.51563 0.15715 0.0
C1332 C 0.76022 0.49127 0.16096 0.0
C1333 C 0.73273 0.49866 0.15491 0.0
H1334 H 0.59893 0.2427 0.15644 0.0
H1335 H 0.50388 0.22858 0.12748 0.0
H1336 H 0.60973 0.30291 0.16716 0.0
H1337 H 0.51443 0.28837 0.13797 0.0
H1338 H 0.53284 0.39386 0.15756 0.0
H1339 H 0.51789 0.32934 0.16179 0.0
H1340 H 0.63225 0.36179 0.15092 0.0
H1341 H 0.64668 0.42571 0.14671 0.0
C1342 C 0.57974 0.25197 0.15279 0.0
C1343 C 0.55079 0.23119 0.14101 0.0
C1344 C 0.586 0.28652 0.15883 0.0
C1345 C 0.56304 0.30063 0.15339 0.0
C1346 C 0.53245 0.27834 0.14263 0.0
C1347 C 0.52655 0.2442 0.13646 0.0
C1348 C 0.5551 0.38743 0.15711 0.0
C1349 C 0.59108 0.4148 0.15219 0.0
C1350 C 0.54648 0.35041 0.15925 0.0
C1351 C 0.57376 0.34024 0.15645 0.0
C1352 C 0.61061 0.36853 0.15337 0.0
C1353 C 0.61906 0.40535 0.15108 0.0
H1354 H 0.62428 0.20209 0.15796 0.0
H1355 H 0.69015 0.15054 0.14771 0.0
H1356 H 0.68105 0.26287 0.15977 0.0
H1357 H 0.74677 0.21076 0.14979 0.0
H1358 H 0.84599 0.32474 0.15426 0.0
H1359 H 0.79058 0.26951 0.16546 0.0
H1360 H 0.7211 0.29605 0.13377 0.0
H1361 H 0.7763 0.35108 0.12275 0.0
C1362 C 0.65089 0.2035 0.15692 0.0
C1363 C 0.65283 0.17178 0.15246 0.0
C1364 C 0.68342 0.23833 0.15778 0.0
C1365 C 0.71836 0.2417 0.15457 0.0
C1366 C 0.72037 0.20919 0.15234 0.0
C1367 C 0.6879 0.17461 0.15118 0.0
C1368 C 0.81879 0.31909 0.15 0.0
C1369 C 0.81542 0.34187 0.13746 0.0
C1370 C 0.78713 0.28749 0.15637 0.0
C1371 C 0.75145 0.27842 0.15053 0.0
C1372 C 0.7481 0.30246 0.13872 0.0
C1373 C 0.77972 0.33369 0.13219 0.0
H1374 H 0.52253 0.89168 0.8666 0.0
H1375 H 0.41137 0.80224 0.8767 0.0
H1376 H 0.54352 0.84653 0.86271 0.0
H1377 H 0.43184 0.75714 0.87307 0.0
H1378 H 0.47562 0.67989 0.86404 0.0
H1379 H 0.45702 0.72545 0.85691 0.0
H1380 H 0.55301 0.80985 0.8844 0.0
H1381 H 0.57162 0.76433 0.89142 0.0
C1382 C 0.50221 0.86224 0.86701 0.0
C1383 C 0.46515 0.85027 0.8715 0.0
C1384 C 0.51431 0.83638 0.86517 0.0
C1385 C 0.48953 0.79814 0.86787 0.0
C1386 C 0.45171 0.78619 0.87072 0.0
C1387 C 0.43977 0.81203 0.87263 0.0
C1388 C 0.49275 0.70815 0.86859 0.0
C1389 C 0.52488 0.71825 0.87855 0.0
C1390 C 0.48218 0.73437 0.8644 0.0
C1391 C 0.50342 0.77142 0.87007 0.0
C1392 C 0.53626 0.7818 0.87951 0.0
C1393 C 0.54688 0.75559 0.88366 0.0
H1394 H 0.26124 0.80417 0.88837 0.0
H1395 H 0.35106 0.79363 0.86622 0.0
H1396 H 0.21726 0.74082 0.87971 0.0
H1397 H 0.30682 0.73067 0.85692 0.0
H1398 H 0.23015 0.61023 0.87989 0.0
H1399 H 0.27444 0.67534 0.87433 0.0
H1400 H 0.18438 0.69256 0.85827 0.0
H1401 H 0.13993 0.62681 0.86413 0.0
C1402 C 0.27158 0.78861 0.88138 0.0
C1403 C 0.30993 0.80383 0.87846 0.0
C1404 C 0.2462 0.75235 0.87613 0.0
C1405 C 0.25849 0.73035 0.86776 0.0
C1406 C 0.29646 0.74662 0.86357 0.0
C1407 C 0.32187 0.78292 0.86884 0.0
C1408 C 0.22012 0.62757 0.87433 0.0
C1409 C 0.18186 0.61366 0.87227 0.0
C1410 C 0.24548 0.66501 0.87116 0.0
C1411 C 0.23297 0.68946 0.8661 0.0
C1412 C 0.19486 0.67458 0.86239 0.0
C1413 C 0.16945 0.63687 0.86546 0.0
H1414 H 0.4186 0.61468 0.87421 0.0
H1415 H 0.39839 0.50495 0.86199 0.0
H1416 H 0.35355 0.5944 0.8697 0.0
H1417 H 0.33265 0.48425 0.85682 0.0
H1418 H 0.22296 0.45232 0.88673 0.0
H1419 H 0.28556 0.47077 0.87752 0.0
H1420 H 0.29674 0.57128 0.85507 0.0
H1421 H 0.23497 0.55405 0.86532 0.0
C1422 C 0.40052 0.5867 0.8695 0.0
C1423 C 0.41353 0.56149 0.86825 0.0
C1424 C 0.36293 0.57486 0.86697 0.0
C1425 C 0.33739 0.53735 0.86324 0.0
C1426 C 0.35133 0.51314 0.86005 0.0
C1427 C 0.38912 0.5251 0.86265 0.0
C1428 C 0.23858 0.47836 0.87982 0.0
C1429 C 0.22387 0.50203 0.87729 0.0
C1430 C 0.2745 0.48869 0.8742 0.0
C1431 C 0.29668 0.52284 0.86568 0.0
C1432 C 0.28086 0.54512 0.86189 0.0
C1433 C 0.24506 0.53499 0.86769 0.0
H1434 H 0.56616 0.864 0.4959 0.0
H1435 H 0.48678 0.75134 0.4817 0.0
H1436 H 0.51548 0.87737 0.4997 0.0
H1437 H 0.43626 0.76428 0.48512 0.0
H1438 H 0.34834 0.79409 0.48887 0.0
H1439 H 0.39654 0.78203 0.49963 0.0
H1440 H 0.48069 0.88566 0.47711 0.0
H1441 H 0.43279 0.89825 0.46701 0.0
C1442 C 0.53768 0.84154 0.49459 0.0
C1443 C 0.53021 0.80642 0.48889 0.0
C1444 C 0.50864 0.84932 0.4964 0.0
C1445 C 0.47171 0.82214 0.49236 0.0
C1446 C 0.46412 0.78589 0.48851 0.0
C1447 C 0.4931 0.77824 0.4867 0.0
C1448 C 0.37711 0.81469 0.48654 0.0
C1449 C 0.38648 0.84677 0.47667 0.0
C1450 C 0.40483 0.80768 0.49266 0.0
C1451 C 0.44264 0.83263 0.48913 0.0
C1452 C 0.45202 0.86585 0.48027 0.0
C1453 C 0.42437 0.87283 0.47417 0.0
H1454 H 0.14094 0.54421 0.46802 0.0
H1455 H 0.24738 0.56761 0.48845 0.0
H1456 H 0.15365 0.60546 0.47681 0.0
H1457 H 0.25954 0.62859 0.49796 0.0
H1458 H 0.28783 0.74737 0.47795 0.0
H1459 H 0.27558 0.68439 0.48239 0.0
H1460 H 0.16324 0.65076 0.4983 0.0
H1461 H 0.17591 0.71434 0.49347 0.0
C1462 C 0.16691 0.56219 0.47459 0.0
C1463 C 0.19353 0.55108 0.47704 0.0
C1464 C 0.17398 0.59729 0.47994 0.0
C1465 C 0.20784 0.62235 0.48802 0.0
C1466 C 0.2334 0.6103 0.49155 0.0
C1467 C 0.22632 0.57512 0.48616 0.0
C1468 C 0.26131 0.72704 0.48344 0.0
C1469 C 0.23311 0.73586 0.48575 0.0
C1470 C 0.25403 0.69065 0.48584 0.0
C1471 C 0.21814 0.6621 0.49041 0.0
C1472 C 0.19101 0.67187 0.49447 0.0
C1473 C 0.1984 0.70843 0.49205 0.0
H1474 H 0.47501 0.69128 0.49251 0.0
H1475 H 0.49646 0.60803 0.47089 0.0
H1476 H 0.41379 0.64252 0.50215 0.0
H1477 H 0.43516 0.55956 0.47993 0.0
H1478 H 0.32569 0.47336 0.49579 0.0
H1479 H 0.38933 0.5235 0.5015 0.0
H1480 H 0.35819 0.60412 0.48577 0.0
H1481 H 0.29524 0.55417 0.48033 0.0
C1482 C 0.46702 0.66262 0.49006 0.0
C1483 C 0.4904 0.65372 0.48052 0.0
C1484 C 0.43178 0.6346 0.49553 0.0
C1485 C 0.41918 0.597 0.49167 0.0
C1486 C 0.44379 0.58805 0.4833 0.0
C1487 C 0.47888 0.616 0.47783 0.0
C1488 C 0.3321 0.50196 0.4946 0.0
C1489 C 0.30544 0.51005 0.48802 0.0
C1490 C 0.36869 0.5307 0.49755 0.0
C1491 C 0.3792 0.56793 0.49379 0.0
C1492 C 0.3513 0.57601 0.489 0.0
C1493 C 0.31492 0.54733 0.48603 0.0
loop_
_geom_bond_atom_site_label_1
_geom_bond_atom_site_label_2
_geom_bond_distance
_geom_bond_site_symmetry_2
_ccdc_geom_bond_type
C0 C1 1.351 . S
C0 N3 1.368 . S
C0 H5 0.931 . S
C1 C0 1.351 . S
C1 N2 1.373 . S
C1 H29 0.930 . S
N2 C1 1.373 . S
N2 C4 1.340 . S
N3 C0 1.368 . S
N3 C4 1.321 . S
N3 Co6 2.135 . S
C4 N2 1.340 . S
C4 N3 1.321 . S
C4 H28 0.930 . S
H5 C0 0.931 . S
Co6 N3 2.135 . S
Co6 N9 2.121 . S
Co6 O14 2.055 . S
Co6 O17 2.039 . S
Co6 N20 2.140 . S
C7 O8 1.227 . S
C7 O17 1.265 . S
O8 C7 1.227 . S
N9 Co6 2.121 . S
N9 C11 1.375 . S
N9 C12 1.313 . S
C10 C11 1.338 1_655 S
C10 N13 1.377 1_655 S
C10 H30 0.930 . S
C11 N9 1.375 . S
C11 C10 1.338 1_455 S
C11 H15 0.931 . S
C12 N9 1.313 . S
C12 N13 1.343 . S
C12 H16 0.930 . S
N13 C10 1.377 1_455 S
N13 C12 1.343 . S
O14 Co6 2.055 . S
O14 C18 1.253 . S
H15 C11 0.931 . S
H16 C12 0.930 . S
O17 Co6 2.039 . S
O17 C7 1.265 . S
C18 O14 1.253 . S
C18 O19 1.227 . S
O19 C18 1.227 . S
N20 Co6 2.140 . S
N20 C23 1.346 . S
N20 C24 1.345 . S
C21 C22 1.387 . S
C21 C25 1.391 . S
C22 C21 1.387 . S
C22 C23 1.369 . S
C22 H31 0.929 . S
C23 N20 1.346 . S
C23 C22 1.369 . S
C23 H26 0.928 . S
C24 N20 1.345 . S
C24 C25 1.371 . S
C24 H27 0.931 . S
C25 C21 1.391 . S
C25 C24 1.371 . S
C25 H32 0.930 . S
H26 C23 0.928 . S
H27 C24 0.931 . S
H28 C4 0.930 . S
H29 C1 0.930 . S
H30 C10 0.930 . S
H31 C22 0.929 . S
H32 C25 0.930 . S
C33 C34 1.351 . S
C33 N36 1.368 . S
C33 H38 0.931 . S
C34 C33 1.351 . S
C34 N35 1.373 . S
C34 H62 0.930 . S
N35 C34 1.373 . S
N35 C37 1.340 . S
N36 C33 1.368 . S
N36 C37 1.321 . S
N36 Co39 2.135 . S
C37 N35 1.340 . S
C37 N36 1.321 . S
C37 H61 0.930 . S
H38 C33 0.931 . S
Co39 N36 2.135 . S
Co39 N42 2.121 . S
Co39 O47 2.055 . S
Co39 O50 2.039 . S
Co39 N53 2.140 . S
C40 O41 1.227 . S
C40 O50 1.265 . S
O41 C40 1.227 . S
N42 Co39 2.121 . S
N42 C44 1.375 . S
N42 C45 1.313 . S
C43 C44 1.338 . S
C43 N46 1.377 . S
C43 H63 0.930 . S
C44 N42 1.375 . S
C44 C43 1.338 . S
C44 H48 0.931 . S
C45 N42 1.313 . S
C45 N46 1.344 . S
C45 H49 0.930 . S
N46 C43 1.377 . S
N46 C45 1.344 . S
O47 Co39 2.055 . S
O47 C51 1.253 . S
H48 C44 0.931 . S
H49 C45 0.930 . S
O50 Co39 2.039 . S
O50 C40 1.265 . S
C51 O47 1.253 . S
C51 O52 1.227 . S
O52 C51 1.227 . S
N53 Co39 2.140 . S
N53 C56 1.346 . S
N53 C57 1.345 . S
C54 C55 1.387 . S
C54 C58 1.391 . S
C55 C54 1.387 . S
C55 C56 1.369 . S
C55 H64 0.929 . S
C56 N53 1.346 . S
C56 C55 1.369 . S
C56 H59 0.928 . S
C57 N53 1.345 . S
C57 C58 1.371 . S
C57 H60 0.931 . S
C58 C54 1.391 . S
C58 C57 1.371 . S
C58 H65 0.930 . S
H59 C56 0.928 . S
H60 C57 0.931 . S
H61 C37 0.930 . S
H62 C34 0.930 . S
H63 C43 0.930 . S
H64 C55 0.929 . S
H65 C58 0.930 . S
C66 C67 1.351 . S
C66 N69 1.368 . S
C66 H71 0.931 . S
C67 C66 1.351 . S
C67 N68 1.373 . S
C67 H95 0.930 . S
N68 C67 1.373 . S
N68 C70 1.340 . S
N69 C66 1.368 . S
N69 C70 1.321 . S
N69 Co72 2.135 . S
C70 N68 1.340 . S
C70 N69 1.321 . S
C70 H94 0.930 . S
H71 C66 0.931 . S
Co72 N69 2.135 . S
Co72 N75 2.121 . S
Co72 O80 2.055 . S
Co72 O83 2.039 . S
Co72 N86 2.140 . S
C73 O74 1.227 . S
C73 O83 1.265 . S
O74 C73 1.227 . S
N75 Co72 2.121 . S
N75 C77 1.375 . S
N75 C78 1.313 . S
C76 C77 1.323 1_545 S
C76 N79 1.384 1_545 S
C76 H96 0.937 . S
C77 N75 1.375 . S
C77 C76 1.323 1_565 S
C77 H81 0.931 . S
C78 N75 1.313 . S
C78 N79 1.344 . S
C78 H82 0.930 . S
N79 C76 1.384 1_565 S
N79 C78 1.344 . S
O80 Co72 2.055 . S
O80 C84 1.253 . S
H81 C77 0.931 . S
H82 C78 0.930 . S
O83 Co72 2.039 . S
O83 C73 1.265 . S
C84 O80 1.253 . S
C84 O85 1.227 . S
O85 C84 1.227 . S
N86 Co72 2.140 . S
N86 C89 1.346 . S
N86 C90 1.345 . S
C87 C88 1.387 . S
C87 C91 1.391 . S
C88 C87 1.387 . S
C88 C89 1.369 . S
C88 H97 0.929 . S
C89 N86 1.346 . S
C89 C88 1.369 . S
C89 H92 0.928 . S
C90 N86 1.345 . S
C90 C91 1.371 . S
C90 H93 0.931 . S
C91 C87 1.391 . S
C91 C90 1.371 . S
C91 H98 0.930 . S
H92 C89 0.928 . S
H93 C90 0.931 . S
H94 C70 0.930 . S
H95 C67 0.930 . S
H96 C76 0.937 . S
H97 C88 0.929 . S
H98 C91 0.930 . S
C99 C100 1.351 . S
C99 N102 1.368 . S
C99 H104 0.931 . S
C100 C99 1.351 . S
C100 N101 1.373 . S
C100 H128 0.930 . S
N101 C100 1.373 . S
N101 C103 1.340 . S
N102 C99 1.368 . S
N102 C103 1.321 . S
N102 Co105 2.135 . S
C103 N101 1.340 . S
C103 N102 1.321 . S
C103 H127 0.930 . S
H104 C99 0.931 . S
Co105 N102 2.135 . S
Co105 N108 2.121 . S
Co105 O113 2.055 . S
Co105 O116 2.039 . S
Co105 N119 2.140 . S
C106 O107 1.227 . S
C106 O116 1.265 . S
O107 C106 1.227 . S
N108 Co105 2.121 . S
N108 C110 1.375 . S
N108 C111 1.313 . S
C109 C110 1.338 1_565 S
C109 N112 1.377 1_565 S
C109 H129 0.930 . S
C110 N108 1.375 . S
C110 C109 1.338 1_545 S
C110 H114 0.931 . S
C111 N108 1.313 . S
C111 N112 1.343 . S
C111 H115 0.930 . S
N112 C109 1.377 1_545 S
N112 C111 1.343 . S
O113 Co105 2.055 . S
O113 C117 1.253 . S
H114 C110 0.931 . S
H115 C111 0.930 . S
O116 Co105 2.039 . S
O116 C106 1.265 . S
C117 O113 1.253 . S
C117 O118 1.227 . S
O118 C117 1.227 . S
N119 Co105 2.140 . S
N119 C122 1.346 . S
N119 C123 1.345 . S
C120 C121 1.387 . S
C120 C124 1.391 . S
C121 C120 1.387 . S
C121 C122 1.369 . S
C121 H130 0.929 . S
C122 N119 1.346 . S
C122 C121 1.369 . S
C122 H125 0.928 . S
C123 N119 1.345 . S
C123 C124 1.371 . S
C123 H126 0.931 . S
C124 C120 1.391 . S
C124 C123 1.371 . S
C124 H131 0.930 . S
H125 C122 0.928 . S
H126 C123 0.931 . S
H127 C103 0.930 . S
H128 C100 0.930 . S
H129 C109 0.930 . S
H130 C121 0.929 . S
H131 C124 0.930 . S
C132 C133 1.351 . S
C132 N135 1.368 . S
C132 H137 0.931 . S
C133 C132 1.351 . S
C133 N134 1.373 . S
C133 H161 0.930 . S
N134 C133 1.373 . S
N134 C136 1.340 . S
N135 C132 1.368 . S
N135 C136 1.321 . S
N135 Co138 2.135 . S
C136 N134 1.340 . S
C136 N135 1.321 . S
C136 H160 0.930 . S
H137 C132 0.931 . S
Co138 N135 2.135 . S
Co138 N141 2.121 . S
Co138 O146 2.055 . S
Co138 O149 2.039 . S
Co138 N152 2.140 . S
C139 O140 1.227 . S
C139 O149 1.265 . S
O140 C139 1.227 . S
N141 Co138 2.121 . S
N141 C143 1.375 . S
N141 C144 1.313 . S
C142 C143 1.323 1_455 S
C142 N145 1.384 1_455 S
C142 H162 0.937 . S
C143 N141 1.375 . S
C143 C142 1.323 1_655 S
C143 H147 0.931 . S
C144 N141 1.313 . S
C144 N145 1.344 . S
C144 H148 0.930 . S
N145 C142 1.384 1_655 S
N145 C144 1.344 . S
O146 Co138 2.055 . S
O146 C150 1.253 . S
H147 C143 0.931 . S
H148 C144 0.930 . S
O149 Co138 2.039 . S
O149 C139 1.265 . S
C150 O146 1.253 . S
C150 O151 1.227 . S
O151 C150 1.227 . S
N152 Co138 2.140 . S
N152 C155 1.346 . S
N152 C156 1.345 . S
C153 C154 1.387 . S
C153 C157 1.391 . S
C154 C153 1.387 . S
C154 C155 1.369 . S
C154 H163 0.929 . S
C155 N152 1.346 . S
C155 C154 1.369 . S
C155 H158 0.928 . S
C156 N152 1.345 . S
C156 C157 1.371 . S
C156 H159 0.931 . S
C157 C153 1.391 . S
C157 C156 1.371 . S
C157 H164 0.930 . S
H158 C155 0.928 . S
H159 C156 0.931 . S
H160 C136 0.930 . S
H161 C133 0.930 . S
H162 C142 0.937 . S
H163 C154 0.929 . S
H164 C157 0.930 . S
C165 C166 1.351 . S
C165 N168 1.368 . S
C165 H170 0.931 . S
C166 C165 1.351 . S
C166 N167 1.373 . S
C166 H194 0.930 . S
N167 C166 1.373 . S
N167 C169 1.340 . S
N168 C165 1.368 . S
N168 C169 1.321 . S
N168 Co171 2.135 . S
C169 N167 1.340 . S
C169 N168 1.321 . S
C169 H193 0.930 . S
H170 C165 0.931 . S
Co171 N168 2.135 . S
Co171 N174 2.121 . S
Co171 O179 2.055 . S
Co171 O182 2.039 . S
Co171 N185 2.140 . S
C172 O173 1.227 . S
C172 O182 1.265 . S
O173 C172 1.227 . S
N174 Co171 2.121 . S
N174 C176 1.375 . S
N174 C177 1.313 . S
C175 C176 1.338 . S
C175 N178 1.377 . S
C175 H195 0.930 . S
C176 N174 1.375 . S
C176 C175 1.338 . S
C176 H180 0.931 . S
C177 N174 1.313 . S
C177 N178 1.344 . S
C177 H181 0.930 . S
N178 C175 1.377 . S
N178 C177 1.344 . S
O179 Co171 2.055 . S
O179 C183 1.253 . S
H180 C176 0.931 . S
H181 C177 0.930 . S
O182 Co171 2.039 . S
O182 C172 1.265 . S
C183 O179 1.253 . S
C183 O184 1.227 . S
O184 C183 1.227 . S
N185 Co171 2.140 . S
N185 C188 1.346 . S
N185 C189 1.345 . S
C186 C187 1.387 . S
C186 C190 1.391 . S
C187 C186 1.387 . S
C187 C188 1.369 . S
C187 H196 0.929 . S
C188 N185 1.346 . S
C188 C187 1.369 . S
C188 H191 0.928 . S
C189 N185 1.345 . S
C189 C190 1.371 . S
C189 H192 0.931 . S
C190 C186 1.391 . S
C190 C189 1.371 . S
C190 H197 0.930 . S
H191 C188 0.928 . S
H192 C189 0.931 . S
H193 C169 0.930 . S
H194 C166 0.930 . S
H195 C175 0.930 . S
H196 C187 0.929 . S
H197 C190 0.930 . S
C198 C199 1.351 . S
C198 N201 1.368 . S
C198 H203 0.931 . S
C199 C198 1.351 . S
C199 N200 1.373 . S
C199 H227 0.930 . S
N200 C199 1.373 . S
N200 C202 1.340 . S
N201 C198 1.368 . S
N201 C202 1.321 . S
N201 Co204 2.135 . S
C202 N200 1.340 . S
C202 N201 1.321 . S
C202 H226 0.930 . S
H203 C198 0.931 . S
Co204 N201 2.135 . S
Co204 N207 2.121 . S
Co204 O212 2.055 . S
Co204 O215 2.039 . S
Co204 N218 2.140 . S
C205 O206 1.227 . S
C205 O215 1.265 . S
O206 C205 1.227 . S
N207 Co204 2.121 . S
N207 C209 1.375 . S
N207 C210 1.313 . S
C208 C209 1.338 . S
C208 N211 1.377 . S
C208 H228 0.930 . S
C209 N207 1.375 . S
C209 C208 1.338 . S
C209 H213 0.931 . S
C210 N207 1.313 . S
C210 N211 1.344 . S
C210 H214 0.930 . S
N211 C208 1.377 . S
N211 C210 1.344 . S
O212 Co204 2.055 . S
O212 C216 1.253 . S
H213 C209 0.931 . S
H214 C210 0.930 . S
O215 Co204 2.039 . S
O215 C205 1.265 . S
C216 O212 1.253 . S
C216 O217 1.227 . S
O217 C216 1.227 . S
N218 Co204 2.140 . S
N218 C221 1.346 . S
N218 C222 1.345 . S
C219 C220 1.387 . S
C219 C223 1.391 . S
C220 C219 1.387 . S
C220 C221 1.369 . S
C220 H229 0.929 . S
C221 N218 1.346 . S
C221 C220 1.369 . S
C221 H224 0.928 . S
C222 N218 1.345 . S
C222 C223 1.371 . S
C222 H225 0.931 . S
C223 C219 1.391 . S
C223 C222 1.371 . S
C223 H230 0.930 . S
H224 C221 0.928 . S
H225 C222 0.931 . S
H226 C202 0.930 . S
H227 C199 0.930 . S
H228 C208 0.930 . S
H229 C220 0.929 . S
H230 C223 0.930 . S
C231 C232 1.351 . S
C231 N234 1.368 . S
C231 H236 0.931 . S
C232 C231 1.351 . S
C232 N233 1.373 . S
C232 H260 0.930 . S
N233 C232 1.373 . S
N233 C235 1.340 . S
N234 C231 1.368 . S
N234 C235 1.321 . S
N234 Co237 2.135 . S
C235 N233 1.340 . S
C235 N234 1.321 . S
C235 H259 0.930 . S
H236 C231 0.931 . S
Co237 N234 2.135 . S
Co237 N240 2.121 . S
Co237 O245 2.055 . S
Co237 O248 2.039 . S
Co237 N251 2.140 . S
C238 O239 1.227 . S
C238 O248 1.265 . S
O239 C238 1.227 . S
N240 Co237 2.121 . S
N240 C242 1.375 . S
N240 C243 1.313 . S
C241 C242 1.338 . S
C241 N244 1.377 . S
C241 H261 0.930 . S
C242 N240 1.375 . S
C242 C241 1.338 . S
C242 H246 0.931 . S
C243 N240 1.313 . S
C243 N244 1.344 . S
C243 H247 0.930 . S
N244 C241 1.377 . S
N244 C243 1.344 . S
O245 Co237 2.055 . S
O245 C249 1.253 . S
H246 C242 0.931 . S
H247 C243 0.930 . S
O248 Co237 2.039 . S
O248 C238 1.265 . S
C249 O245 1.253 . S
C249 O250 1.227 . S
O250 C249 1.227 . S
N251 Co237 2.140 . S
N251 C254 1.346 . S
N251 C255 1.345 . S
C252 C253 1.387 . S
C252 C256 1.391 . S
C253 C252 1.387 . S
C253 C254 1.369 . S
C253 H262 0.929 . S
C254 N251 1.346 . S
C254 C253 1.369 . S
C254 H257 0.928 . S
C255 N251 1.345 . S
C255 C256 1.371 . S
C255 H258 0.931 . S
C256 C252 1.391 . S
C256 C255 1.371 . S
C256 H263 0.930 . S
H257 C254 0.928 . S
H258 C255 0.931 . S
H259 C235 0.930 . S
H260 C232 0.930 . S
H261 C241 0.930 . S
H262 C253 0.929 . S
H263 C256 0.930 . S
C264 C265 1.351 . S
C264 N267 1.368 . S
C264 H269 0.931 . S
C265 C264 1.351 . S
C265 N266 1.373 . S
C265 H293 0.930 . S
N266 C265 1.373 . S
N266 C268 1.340 . S
N267 C264 1.368 . S
N267 C268 1.321 . S
N267 Co270 2.135 . S
C268 N266 1.340 . S
C268 N267 1.321 . S
C268 H292 0.930 . S
H269 C264 0.931 . S
Co270 N267 2.135 . S
Co270 N273 2.121 . S
Co270 O278 2.055 . S
Co270 O281 2.039 . S
Co270 N284 2.140 . S
C271 O272 1.227 . S
C271 O281 1.265 . S
O272 C271 1.227 . S
N273 Co270 2.121 . S
N273 C275 1.375 . S
N273 C276 1.313 . S
C274 C275 1.338 . S
C274 N277 1.377 . S
C274 H294 0.930 . S
C275 N273 1.375 . S
C275 C274 1.338 . S
C275 H279 0.931 . S
C276 N273 1.313 . S
C276 N277 1.344 . S
C276 H280 0.930 . S
N277 C274 1.377 . S
N277 C276 1.344 . S
O278 Co270 2.055 . S
O278 C282 1.253 . S
H279 C275 0.931 . S
H280 C276 0.930 . S
O281 Co270 2.039 . S
O281 C271 1.265 . S
C282 O278 1.253 . S
C282 O283 1.227 . S
O283 C282 1.227 . S
N284 Co270 2.140 . S
N284 C287 1.346 . S
N284 C288 1.345 . S
C285 C286 1.387 . S
C285 C289 1.391 . S
C286 C285 1.387 . S
C286 C287 1.369 . S
C286 H295 0.929 . S
C287 N284 1.346 . S
C287 C286 1.369 . S
C287 H290 0.928 . S
C288 N284 1.345 . S
C288 C289 1.371 . S
C288 H291 0.931 . S
C289 C285 1.391 . S
C289 C288 1.371 . S
C289 H296 0.930 . S
H290 C287 0.928 . S
H291 C288 0.931 . S
H292 C268 0.930 . S
H293 C265 0.930 . S
H294 C274 0.930 . S
H295 C286 0.929 . S
H296 C289 0.930 . S
C297 C298 1.351 . S
C297 N300 1.368 . S
C297 H302 0.931 . S
C298 C297 1.351 . S
C298 N299 1.373 . S
C298 H326 0.930 . S
N299 C298 1.373 . S
N299 C301 1.340 . S
N300 C297 1.368 . S
N300 C301 1.321 . S
N300 Co303 2.135 . S
C301 N299 1.340 . S
C301 N300 1.321 . S
C301 H325 0.930 . S
H302 C297 0.931 . S
Co303 N300 2.135 . S
Co303 N306 2.121 . S
Co303 O311 2.055 . S
Co303 O314 2.039 . S
Co303 N317 2.140 . S
C304 O305 1.227 . S
C304 O314 1.265 . S
O305 C304 1.227 . S
N306 Co303 2.121 . S
N306 C308 1.375 . S
N306 C309 1.313 . S
C307 C308 1.338 . S
C307 N310 1.377 . S
C307 H327 0.930 . S
C308 N306 1.375 . S
C308 C307 1.338 . S
C308 H312 0.931 . S
C309 N306 1.313 . S
C309 N310 1.344 . S
C309 H313 0.930 . S
N310 C307 1.377 . S
N310 C309 1.344 . S
O311 Co303 2.055 . S
O311 C315 1.253 . S
H312 C308 0.931 . S
H313 C309 0.930 . S
O314 Co303 2.039 . S
O314 C304 1.265 . S
C315 O311 1.253 . S
C315 O316 1.227 . S
O316 C315 1.227 . S
N317 Co303 2.140 . S
N317 C320 1.346 . S
N317 C321 1.345 . S
C318 C319 1.387 . S
C318 C322 1.391 . S
C319 C318 1.387 . S
C319 C320 1.369 . S
C319 H328 0.929 1_655 S
C320 N317 1.346 . S
C320 C319 1.369 . S
C320 H323 0.928 . S
C321 N317 1.345 . S
C321 C322 1.371 . S
C321 H324 0.931 . S
C322 C318 1.391 . S
C322 C321 1.371 . S
C322 H329 0.930 . S
H323 C320 0.928 . S
H324 C321 0.931 . S
H325 C301 0.930 . S
H326 C298 0.930 . S
H327 C307 0.930 . S
H328 C319 0.929 1_455 S
H329 C322 0.930 . S
C330 C331 1.351 . S
C330 N333 1.368 . S
C330 H335 0.931 . S
C331 C330 1.351 . S
C331 N332 1.373 . S
C331 H359 0.930 . S
N332 C331 1.373 . S
N332 C334 1.340 . S
N333 C330 1.368 . S
N333 C334 1.321 . S
N333 Co336 2.135 . S
C334 N332 1.340 . S
C334 N333 1.321 . S
C334 H358 0.930 . S
H335 C330 0.931 . S
Co336 N333 2.135 . S
Co336 N339 2.121 . S
Co336 O344 2.055 . S
Co336 O347 2.039 . S
Co336 N350 2.140 . S
C337 O338 1.227 . S
C337 O347 1.265 . S
O338 C337 1.227 . S
N339 Co336 2.121 . S
N339 C341 1.375 . S
N339 C342 1.313 . S
C340 C341 1.338 . S
C340 N343 1.377 . S
C340 H360 0.930 . S
C341 N339 1.375 . S
C341 C340 1.338 . S
C341 H345 0.931 . S
C342 N339 1.313 . S
C342 N343 1.344 . S
C342 H346 0.930 . S
N343 C340 1.377 . S
N343 C342 1.344 . S
O344 Co336 2.055 . S
O344 C348 1.253 . S
H345 C341 0.931 . S
H346 C342 0.930 . S
O347 Co336 2.039 . S
O347 C337 1.265 . S
C348 O344 1.253 . S
C348 O349 1.227 . S
O349 C348 1.227 . S
N350 Co336 2.140 . S
N350 C353 1.346 . S
N350 C354 1.345 . S
C351 C352 1.387 . S
C351 C355 1.391 . S
C352 C351 1.387 . S
C352 C353 1.369 . S
C352 H361 0.929 . S
C353 N350 1.346 . S
C353 C352 1.369 . S
C353 H356 0.928 . S
C354 N350 1.345 . S
C354 C355 1.371 . S
C354 H357 0.931 . S
C355 C351 1.391 . S
C355 C354 1.371 . S
C355 H362 0.930 . S
H356 C353 0.928 . S
H357 C354 0.931 . S
H358 C334 0.930 . S
H359 C331 0.930 . S
H360 C340 0.930 . S
H361 C352 0.929 . S
H362 C355 0.930 . S
C363 C364 1.351 . S
C363 N366 1.368 . S
C363 H368 0.931 . S
C364 C363 1.351 . S
C364 N365 1.374 . S
C364 H392 0.930 . S
N365 C364 1.374 . S
N365 C367 1.341 . S
N366 C363 1.368 . S
N366 C367 1.321 . S
N366 Co369 2.135 . S
C367 N365 1.341 . S
C367 N366 1.321 . S
C367 H391 0.930 . S
H368 C363 0.931 . S
Co369 N366 2.135 . S
Co369 N372 2.121 . S
Co369 O377 2.055 . S
Co369 O380 2.039 . S
Co369 N383 2.140 . S
C370 O371 1.227 . S
C370 O380 1.265 . S
O371 C370 1.227 . S
N372 Co369 2.121 . S
N372 C374 1.375 . S
N372 C375 1.313 . S
C373 C374 1.338 . S
C373 N376 1.377 . S
C373 H393 0.930 . S
C374 N372 1.375 . S
C374 C373 1.338 . S
C374 H378 0.931 . S
C375 N372 1.313 . S
C375 N376 1.344 . S
C375 H379 0.930 . S
N376 C373 1.377 . S
N376 C375 1.344 . S
O377 Co369 2.055 . S
O377 C381 1.253 . S
H378 C374 0.931 . S
H379 C375 0.930 . S
O380 Co369 2.039 . S
O380 C370 1.265 . S
C381 O377 1.253 . S
C381 O382 1.227 . S
O382 C381 1.227 . S
N383 Co369 2.140 . S
N383 C386 1.346 . S
N383 C387 1.345 . S
C384 C385 1.387 . S
C384 C388 1.391 . S
C385 C384 1.387 . S
C385 C386 1.369 . S
C385 H394 0.929 1_545 S
C386 N383 1.346 . S
C386 C385 1.369 . S
C386 H389 0.928 . S
C387 N383 1.345 . S
C387 C388 1.371 . S
C387 H390 0.931 . S
C388 C384 1.391 . S
C388 C387 1.371 . S
C388 H395 0.930 . S
H389 C386 0.928 . S
H390 C387 0.931 . S
H391 C367 0.930 . S
H392 C364 0.930 . S
H393 C373 0.930 . S
H394 C385 0.929 1_565 S
H395 C388 0.930 . S
C396 C397 1.351 . S
C396 N399 1.368 . S
C396 H401 0.931 . S
C397 C396 1.351 . S
C397 N398 1.373 . S
C397 H425 0.930 . S
N398 C397 1.373 . S
N398 C400 1.340 . S
N399 C396 1.368 . S
N399 C400 1.321 . S
N399 Co402 2.135 . S
C400 N398 1.340 . S
C400 N399 1.321 . S
C400 H424 0.930 . S
H401 C396 0.931 . S
Co402 N399 2.135 . S
Co402 N405 2.121 . S
Co402 O410 2.055 . S
Co402 O413 2.039 . S
Co402 N416 2.140 . S
C403 O404 1.227 . S
C403 O413 1.265 . S
O404 C403 1.227 . S
N405 Co402 2.121 . S
N405 C407 1.375 . S
N405 C408 1.313 . S
C406 C407 1.338 . S
C406 N409 1.377 . S
C406 H426 0.930 . S
C407 N405 1.375 . S
C407 C406 1.338 . S
C407 H411 0.931 . S
C408 N405 1.313 . S
C408 N409 1.344 . S
C408 H412 0.930 . S
N409 C406 1.377 . S
N409 C408 1.344 . S
O410 Co402 2.055 . S
O410 C414 1.253 . S
H411 C407 0.931 . S
H412 C408 0.930 . S
O413 Co402 2.039 . S
O413 C403 1.265 . S
C414 O410 1.253 . S
C414 O415 1.227 . S
O415 C414 1.227 . S
N416 Co402 2.140 . S
N416 C419 1.346 . S
N416 C420 1.345 . S
C417 C418 1.387 . S
C417 C421 1.391 . S
C418 C417 1.387 . S
C418 C419 1.369 . S
C418 H427 0.929 1_565 S
C419 N416 1.346 . S
C419 C418 1.369 . S
C419 H422 0.928 . S
C420 N416 1.345 . S
C420 C421 1.371 . S
C420 H423 0.931 . S
C421 C417 1.391 . S
C421 C420 1.371 . S
C421 H428 0.930 . S
H422 C419 0.928 . S
H423 C420 0.931 . S
H424 C400 0.930 . S
H425 C397 0.930 . S
H426 C406 0.930 . S
H427 C418 0.929 1_545 S
H428 C421 0.930 . S
C429 C430 1.351 . S
C429 N432 1.368 . S
C429 H434 0.931 . S
C430 C429 1.351 . S
C430 N431 1.374 . S
C430 H458 0.930 . S
N431 C430 1.374 . S
N431 C433 1.341 . S
N432 C429 1.368 . S
N432 C433 1.321 . S
N432 Co435 2.135 . S
C433 N431 1.341 . S
C433 N432 1.321 . S
C433 H457 0.930 . S
H434 C429 0.931 . S
Co435 N432 2.135 . S
Co435 N438 2.121 . S
Co435 O443 2.055 . S
Co435 O446 2.039 . S
Co435 N449 2.140 . S
C436 O437 1.227 . S
C436 O446 1.265 . S
O437 C436 1.227 . S
N438 Co435 2.121 . S
N438 C440 1.375 . S
N438 C441 1.313 . S
C439 C440 1.338 . S
C439 N442 1.377 . S
C439 H459 0.930 . S
C440 N438 1.375 . S
C440 C439 1.338 . S
C440 H444 0.931 . S
C441 N438 1.313 . S
C441 N442 1.344 . S
C441 H445 0.930 . S
N442 C439 1.377 . S
N442 C441 1.344 . S
O443 Co435 2.055 . S
O443 C447 1.253 . S
H444 C440 0.931 . S
H445 C441 0.930 . S
O446 Co435 2.039 . S
O446 C436 1.265 . S
C447 O443 1.253 . S
C447 O448 1.227 . S
O448 C447 1.227 . S
N449 Co435 2.140 . S
N449 C452 1.346 . S
N449 C453 1.345 . S
C450 C451 1.387 . S
C450 C454 1.391 . S
C451 C450 1.387 . S
C451 C452 1.369 . S
C451 H460 0.929 1_455 S
C452 N449 1.346 . S
C452 C451 1.369 . S
C452 H455 0.928 . S
C453 N449 1.345 . S
C453 C454 1.371 . S
C453 H456 0.931 . S
C454 C450 1.391 . S
C454 C453 1.371 . S
C454 H461 0.930 . S
H455 C452 0.928 . S
H456 C453 0.931 . S
H457 C433 0.930 . S
H458 C430 0.930 . S
H459 C439 0.930 . S
H460 C451 0.929 1_655 S
H461 C454 0.930 . S
C462 C463 1.351 . S
C462 N465 1.368 . S
C462 H467 0.931 . S
C463 C462 1.351 . S
C463 N464 1.373 . S
C463 H491 0.930 . S
N464 C463 1.373 . S
N464 C466 1.340 . S
N465 C462 1.368 . S
N465 C466 1.321 . S
N465 Co468 2.135 . S
C466 N464 1.340 . S
C466 N465 1.321 . S
C466 H490 0.930 . S
H467 C462 0.931 . S
Co468 N465 2.135 . S
Co468 N471 2.121 . S
Co468 O476 2.055 . S
Co468 O479 2.039 . S
Co468 N482 2.140 . S
C469 O470 1.227 . S
C469 O479 1.265 . S
O470 C469 1.227 . S
N471 Co468 2.121 . S
N471 C473 1.375 . S
N471 C474 1.313 . S
C472 C473 1.338 . S
C472 N475 1.377 . S
C472 H492 0.930 . S
C473 N471 1.375 . S
C473 C472 1.338 . S
C473 H477 0.931 . S
C474 N471 1.313 . S
C474 N475 1.344 . S
C474 H478 0.930 . S
N475 C472 1.377 . S
N475 C474 1.344 . S
O476 Co468 2.055 . S
O476 C480 1.253 . S
H477 C473 0.931 . S
H478 C474 0.930 . S
O479 Co468 2.039 . S
O479 C469 1.265 . S
C480 O476 1.253 . S
C480 O481 1.227 . S
O481 C480 1.227 . S
N482 Co468 2.140 . S
N482 C485 1.346 . S
N482 C486 1.345 . S
C483 C484 1.387 . S
C483 C487 1.391 . S
C484 C483 1.387 . S
C484 C485 1.369 . S
C484 H493 0.929 . S
C485 N482 1.346 . S
C485 C484 1.369 . S
C485 H488 0.928 . S
C486 N482 1.345 . S
C486 C487 1.371 . S
C486 H489 0.931 . S
C487 C483 1.391 . S
C487 C486 1.371 . S
C487 H494 0.930 . S
H488 C485 0.928 . S
H489 C486 0.931 . S
H490 C466 0.930 . S
H491 C463 0.930 . S
H492 C472 0.930 . S
H493 C484 0.929 . S
H494 C487 0.930 . S
C495 C496 1.351 . S
C495 N498 1.368 . S
C495 H500 0.931 . S
C496 C495 1.351 . S
C496 N497 1.373 . S
C496 H524 0.930 . S
N497 C496 1.373 . S
N497 C499 1.340 . S
N498 C495 1.368 . S
N498 C499 1.321 . S
N498 Co501 2.135 . S
C499 N497 1.340 . S
C499 N498 1.321 . S
C499 H523 0.930 . S
H500 C495 0.931 . S
Co501 N498 2.135 . S
Co501 N504 2.121 . S
Co501 O509 2.055 . S
Co501 O512 2.039 . S
Co501 N515 2.140 . S
C502 O503 1.227 . S
C502 O512 1.265 . S
O503 C502 1.227 . S
N504 Co501 2.121 . S
N504 C506 1.375 . S
N504 C507 1.313 . S
C505 C506 1.338 . S
C505 N508 1.377 . S
C505 H525 0.930 . S
C506 N504 1.375 . S
C506 C505 1.338 . S
C506 H510 0.931 . S
C507 N504 1.313 . S
C507 N508 1.344 . S
C507 H511 0.930 . S
N508 C505 1.377 . S
N508 C507 1.344 . S
O509 Co501 2.055 . S
O509 C513 1.253 . S
H510 C506 0.931 . S
H511 C507 0.930 . S
O512 Co501 2.039 . S
O512 C502 1.265 . S
C513 O509 1.253 . S
C513 O514 1.227 . S
O514 C513 1.227 . S
N515 Co501 2.140 . S
N515 C518 1.346 . S
N515 C519 1.345 . S
C516 C517 1.387 . S
C516 C520 1.391 . S
C517 C516 1.387 . S
C517 C518 1.369 . S
C517 H526 0.929 . S
C518 N515 1.346 . S
C518 C517 1.369 . S
C518 H521 0.928 . S
C519 N515 1.345 . S
C519 C520 1.371 . S
C519 H522 0.931 . S
C520 C516 1.391 . S
C520 C519 1.371 . S
C520 H527 0.930 . S
H521 C518 0.928 . S
H522 C519 0.931 . S
H523 C499 0.930 . S
H524 C496 0.930 . S
H525 C505 0.930 . S
H526 C517 0.929 . S
H527 C520 0.930 . S
C528 C529 1.351 . S
C528 N531 1.368 . S
C528 H533 0.931 . S
C529 C528 1.351 . S
C529 N530 1.373 . S
C529 H557 0.930 . S
N530 C529 1.373 . S
N530 C532 1.340 . S
N531 C528 1.368 . S
N531 C532 1.321 . S
N531 Co534 2.135 . S
C532 N530 1.340 . S
C532 N531 1.321 . S
C532 H556 0.930 . S
H533 C528 0.931 . S
Co534 N531 2.135 . S
Co534 N537 2.121 . S
Co534 O542 2.055 . S
Co534 O545 2.039 . S
Co534 N548 2.140 . S
C535 O536 1.227 . S
C535 O545 1.265 . S
O536 C535 1.227 . S
N537 Co534 2.121 . S
N537 C539 1.375 . S
N537 C540 1.313 . S
C538 C539 1.338 . S
C538 N541 1.377 . S
C538 H558 0.930 . S
C539 N537 1.375 . S
C539 C538 1.338 . S
C539 H543 0.931 . S
C540 N537 1.313 . S
C540 N541 1.344 . S
C540 H544 0.930 . S
N541 C538 1.377 . S
N541 C540 1.344 . S
O542 Co534 2.055 . S
O542 C546 1.253 . S
H543 C539 0.931 . S
H544 C540 0.930 . S
O545 Co534 2.039 . S
O545 C535 1.265 . S
C546 O542 1.253 . S
C546 O547 1.227 . S
O547 C546 1.227 . S
N548 Co534 2.140 . S
N548 C551 1.346 . S
N548 C552 1.345 . S
C549 C550 1.387 . S
C549 C553 1.391 . S
C550 C549 1.387 . S
C550 C551 1.369 . S
C550 H559 0.929 . S
C551 N548 1.346 . S
C551 C550 1.369 . S
C551 H554 0.928 . S
C552 N548 1.345 . S
C552 C553 1.371 . S
C552 H555 0.931 . S
C553 C549 1.391 . S
C553 C552 1.371 . S
C553 H560 0.930 . S
H554 C551 0.928 . S
H555 C552 0.931 . S
H556 C532 0.930 . S
H557 C529 0.930 . S
H558 C538 0.930 . S
H559 C550 0.929 . S
H560 C553 0.930 . S
C561 C562 1.351 . S
C561 N564 1.368 . S
C561 H566 0.931 . S
C562 C561 1.351 . S
C562 N563 1.373 . S
C562 H590 0.930 . S
N563 C562 1.373 . S
N563 C565 1.340 . S
N564 C561 1.368 . S
N564 C565 1.321 . S
N564 Co567 2.135 . S
C565 N563 1.340 . S
C565 N564 1.321 . S
C565 H589 0.930 . S
H566 C561 0.931 . S
Co567 N564 2.135 . S
Co567 N570 2.121 . S
Co567 O575 2.055 . S
Co567 O578 2.039 . S
Co567 N581 2.140 . S
C568 O569 1.227 . S
C568 O578 1.265 . S
O569 C568 1.227 . S
N570 Co567 2.121 . S
N570 C572 1.375 . S
N570 C573 1.313 . S
C571 C572 1.338 . S
C571 N574 1.377 . S
C571 H591 0.930 . S
C572 N570 1.375 . S
C572 C571 1.338 . S
C572 H576 0.931 . S
C573 N570 1.313 . S
C573 N574 1.344 . S
C573 H577 0.930 . S
N574 C571 1.377 . S
N574 C573 1.344 . S
O575 Co567 2.055 . S
O575 C579 1.253 . S
H576 C572 0.931 . S
H577 C573 0.930 . S
O578 Co567 2.039 . S
O578 C568 1.265 . S
C579 O575 1.253 . S
C579 O580 1.227 . S
O580 C579 1.227 . S
N581 Co567 2.140 . S
N581 C584 1.346 . S
N581 C585 1.345 . S
C582 C583 1.387 . S
C582 C586 1.391 . S
C583 C582 1.387 . S
C583 C584 1.369 . S
C583 H592 0.929 . S
C584 N581 1.346 . S
C584 C583 1.369 . S
C584 H587 0.928 . S
C585 N581 1.345 . S
C585 C586 1.371 . S
C585 H588 0.931 . S
C586 C582 1.391 . S
C586 C585 1.371 . S
C586 H593 0.930 . S
H587 C584 0.928 . S
H588 C585 0.931 . S
H589 C565 0.930 . S
H590 C562 0.930 . S
H591 C571 0.930 . S
H592 C583 0.929 . S
H593 C586 0.930 . S
H594 C602 0.950 . S
H595 C607 0.950 . S
H596 C604 0.950 . S
H597 C606 0.950 . S
H598 C608 0.950 . S
H599 C610 0.950 . S
H600 C612 0.950 . S
H601 C613 0.950 . S
C602 H594 0.950 . S
C602 C603 1.386 . S
C602 C604 1.391 . S
C603 C602 1.386 . S
C603 C607 1.393 . S
C604 H596 0.950 . S
C604 C602 1.391 . S
C604 C605 1.400 . S
C605 C604 1.400 . S
C605 C606 1.398 . S
C605 C611 1.491 . S
C606 H597 0.950 . S
C606 C605 1.398 . S
C606 C607 1.391 . S
C607 H595 0.950 . S
C607 C603 1.393 . S
C607 C606 1.391 . S
C608 H598 0.950 . S
C608 C609 1.386 . S
C608 C610 1.391 . S
C609 C608 1.386 . S
C609 C613 1.393 . S
C610 H599 0.950 . S
C610 C608 1.391 . S
C610 C611 1.400 . S
C611 C605 1.491 . S
C611 C610 1.400 . S
C611 C612 1.398 . S
C612 H600 0.950 . S
C612 C611 1.398 . S
C612 C613 1.391 . S
C613 H601 0.950 . S
C613 C609 1.393 . S
C613 C612 1.391 . S
H614 C622 0.950 . S
H615 C627 0.950 . S
H616 C624 0.950 . S
H617 C626 0.950 . S
H618 C628 0.950 . S
H619 C630 0.950 . S
H620 C632 0.950 . S
H621 C633 0.950 . S
C622 H614 0.950 . S
C622 C623 1.386 . S
C622 C624 1.391 . S
C623 C622 1.386 . S
C623 C627 1.393 . S
C624 H616 0.950 . S
C624 C622 1.391 . S
C624 C625 1.400 . S
C625 C624 1.400 . S
C625 C626 1.398 . S
C625 C631 1.491 . S
C626 H617 0.950 . S
C626 C625 1.398 . S
C626 C627 1.391 . S
C627 H615 0.950 . S
C627 C623 1.393 . S
C627 C626 1.391 . S
C628 H618 0.950 . S
C628 C629 1.386 . S
C628 C630 1.391 . S
C629 C628 1.386 . S
C629 C633 1.393 . S
C630 H619 0.950 . S
C630 C628 1.391 . S
C630 C631 1.400 . S
C631 C625 1.491 . S
C631 C630 1.400 . S
C631 C632 1.398 . S
C632 H620 0.950 . S
C632 C631 1.398 . S
C632 C633 1.391 . S
C633 H621 0.950 . S
C633 C629 1.393 . S
C633 C632 1.391 . S
H634 C642 0.950 . S
H635 C647 0.950 1_655 S
H636 C644 0.950 . S
H637 C646 0.950 . S
H638 C648 0.950 . S
H639 C650 0.950 . S
H640 C652 0.950 . S
H641 C653 0.950 . S
C642 H634 0.950 . S
C642 C643 1.386 . S
C642 C644 1.391 . S
C643 C642 1.386 . S
C643 C647 1.393 . S
C644 H636 0.950 . S
C644 C642 1.391 . S
C644 C645 1.400 . S
C645 C644 1.400 . S
C645 C646 1.398 . S
C645 C651 1.491 . S
C646 H637 0.950 . S
C646 C645 1.398 . S
C646 C647 1.391 . S
C647 H635 0.950 1_455 S
C647 C643 1.393 . S
C647 C646 1.391 . S
C648 H638 0.950 . S
C648 C649 1.386 . S
C648 C650 1.391 . S
C649 C648 1.386 . S
C649 C653 1.393 . S
C650 H639 0.950 . S
C650 C648 1.391 . S
C650 C651 1.400 . S
C651 C645 1.491 . S
C651 C650 1.400 . S
C651 C652 1.398 . S
C652 H640 0.950 . S
C652 C651 1.398 . S
C652 C653 1.391 . S
C653 H641 0.950 . S
C653 C649 1.393 . S
C653 C652 1.391 . S
H654 C662 0.950 . S
H655 C667 0.950 . S
H656 C664 0.950 . S
H657 C666 0.950 . S
H658 C668 0.950 . S
H659 C670 0.950 . S
H660 C672 0.950 . S
H661 C673 0.950 . S
C662 H654 0.950 . S
C662 C663 1.386 . S
C662 C664 1.391 . S
C663 C662 1.386 . S
C663 C667 1.393 . S
C664 H656 0.950 . S
C664 C662 1.391 . S
C664 C665 1.400 . S
C665 C664 1.400 . S
C665 C666 1.398 . S
C665 C671 1.491 . S
C666 H657 0.950 . S
C666 C665 1.398 . S
C666 C667 1.391 . S
C667 H655 0.950 . S
C667 C663 1.393 . S
C667 C666 1.391 . S
C668 H658 0.950 . S
C668 C669 1.386 . S
C668 C670 1.391 . S
C669 C668 1.386 . S
C669 C673 1.393 . S
C670 H659 0.950 . S
C670 C668 1.391 . S
C670 C671 1.400 . S
C671 C665 1.491 . S
C671 C670 1.400 . S
C671 C672 1.398 . S
C672 H660 0.950 . S
C672 C671 1.398 . S
C672 C673 1.391 . S
C673 H661 0.950 . S
C673 C669 1.393 . S
C673 C672 1.391 . S
H674 C682 0.950 . S
H675 C687 0.950 . S
H676 C684 0.950 . S
H677 C686 0.950 . S
H678 C688 0.950 . S
H679 C690 0.950 . S
H680 C692 0.950 . S
H681 C693 0.950 1_565 S
C682 H674 0.950 . S
C682 C683 1.386 . S
C682 C684 1.391 . S
C683 C682 1.386 . S
C683 C687 1.393 . S
C684 H676 0.950 . S
C684 C682 1.391 . S
C684 C685 1.400 . S
C685 C684 1.400 . S
C685 C686 1.398 . S
C685 C691 1.491 . S
C686 H677 0.950 . S
C686 C685 1.398 . S
C686 C687 1.391 . S
C687 H675 0.950 . S
C687 C683 1.393 . S
C687 C686 1.391 . S
C688 H678 0.950 . S
C688 C689 1.386 . S
C688 C690 1.391 . S
C689 C688 1.386 . S
C689 C693 1.393 . S
C690 H679 0.950 . S
C690 C688 1.391 . S
C690 C691 1.400 . S
C691 C685 1.491 . S
C691 C690 1.400 . S
C691 C692 1.398 . S
C692 H680 0.950 . S
C692 C691 1.398 . S
C692 C693 1.391 . S
C693 H681 0.950 1_545 S
C693 C689 1.393 . S
C693 C692 1.391 . S
H694 C702 0.950 . S
H695 C707 0.950 . S
H696 C704 0.950 . S
H697 C706 0.950 . S
H698 C708 0.950 . S
H699 C710 0.950 . S
H700 C712 0.950 . S
H701 C713 0.950 . S
C702 H694 0.950 . S
C702 C703 1.386 . S
C702 C704 1.391 . S
C703 C702 1.386 . S
C703 C707 1.393 . S
C704 H696 0.950 . S
C704 C702 1.391 . S
C704 C705 1.400 . S
C705 C704 1.400 . S
C705 C706 1.398 . S
C705 C711 1.491 . S
C706 H697 0.950 . S
C706 C705 1.398 . S
C706 C707 1.391 . S
C707 H695 0.950 . S
C707 C703 1.393 . S
C707 C706 1.391 . S
C708 H698 0.950 . S
C708 C709 1.386 . S
C708 C710 1.391 . S
C709 C708 1.386 . S
C709 C713 1.393 . S
C710 H699 0.950 . S
C710 C708 1.391 . S
C710 C711 1.400 . S
C711 C705 1.491 . S
C711 C710 1.400 . S
C711 C712 1.398 . S
C712 H700 0.950 . S
C712 C711 1.398 . S
C712 C713 1.391 . S
C713 H701 0.950 . S
C713 C709 1.393 . S
C713 C712 1.391 . S
H714 C722 0.950 . S
H715 C727 0.950 . S
H716 C724 0.950 . S
H717 C726 0.950 . S
H718 C728 0.950 . S
H719 C730 0.950 . S
H720 C732 0.950 . S
H721 C733 0.950 . S
C722 H714 0.950 . S
C722 C723 1.386 . S
C722 C724 1.391 . S
C723 C722 1.386 . S
C723 C727 1.393 . S
C724 H716 0.950 . S
C724 C722 1.391 . S
C724 C725 1.400 . S
C725 C724 1.400 . S
C725 C726 1.398 . S
C725 C731 1.491 . S
C726 H717 0.950 . S
C726 C725 1.398 . S
C726 C727 1.391 . S
C727 H715 0.950 . S
C727 C723 1.393 . S
C727 C726 1.391 . S
C728 H718 0.950 . S
C728 C729 1.386 . S
C728 C730 1.391 . S
C729 C728 1.386 . S
C729 C733 1.393 . S
C730 H719 0.950 . S
C730 C728 1.391 . S
C730 C731 1.400 . S
C731 C725 1.491 . S
C731 C730 1.400 . S
C731 C732 1.398 . S
C732 H720 0.950 . S
C732 C731 1.398 . S
C732 C733 1.391 . S
C733 H721 0.950 . S
C733 C729 1.393 . S
C733 C732 1.391 . S
H734 C742 0.950 . S
H735 C747 0.950 . S
H736 C744 0.950 . S
H737 C746 0.950 . S
H738 C748 0.950 . S
H739 C750 0.950 . S
H740 C752 0.950 . S
H741 C753 0.950 . S
C742 H734 0.950 . S
C742 C743 1.386 1_545 S
C742 C744 1.391 . S
C743 C742 1.386 1_565 S
C743 C747 1.393 . S
C744 H736 0.950 . S
C744 C742 1.391 . S
C744 C745 1.400 . S
C745 C744 1.400 . S
C745 C746 1.398 1_545 S
C745 C751 1.491 . S
C746 H737 0.950 . S
C746 C745 1.398 1_565 S
C746 C747 1.391 . S
C747 H735 0.950 . S
C747 C743 1.393 . S
C747 C746 1.391 . S
C748 H738 0.950 . S
C748 C749 1.386 . S
C748 C750 1.391 . S
C749 C748 1.386 . S
C749 C753 1.393 . S
C750 H739 0.950 . S
C750 C748 1.391 . S
C750 C751 1.400 . S
C751 C745 1.491 . S
C751 C750 1.400 . S
C751 C752 1.398 . S
C752 H740 0.950 . S
C752 C751 1.398 . S
C752 C753 1.391 . S
C753 H741 0.950 . S
C753 C749 1.393 . S
C753 C752 1.391 . S
H754 C762 0.950 . S
H755 C767 0.950 . S
H756 C764 0.950 . S
H757 C766 0.950 . S
H758 C768 0.950 . S
H759 C770 0.950 1_455 S
H760 C772 0.950 . S
H761 C773 0.950 . S
C762 H754 0.950 . S
C762 C763 1.386 1_655 S
C762 C764 1.391 . S
C763 C762 1.386 1_455 S
C763 C767 1.393 . S
C764 H756 0.950 . S
C764 C762 1.391 . S
C764 C765 1.400 . S
C765 C764 1.400 . S
C765 C766 1.398 1_655 S
C765 C771 1.491 . S
C766 H757 0.950 . S
C766 C765 1.398 1_455 S
C766 C767 1.391 . S
C767 H755 0.950 . S
C767 C763 1.393 . S
C767 C766 1.391 . S
C768 H758 0.950 . S
C768 C769 1.386 . S
C768 C770 1.391 . S
C769 C768 1.386 . S
C769 C773 1.393 . S
C770 H759 0.950 1_655 S
C770 C768 1.391 . S
C770 C771 1.400 . S
C771 C765 1.491 . S
C771 C770 1.400 . S
C771 C772 1.398 . S
C772 H760 0.950 . S
C772 C771 1.398 . S
C772 C773 1.391 . S
C773 H761 0.950 . S
C773 C769 1.393 . S
C773 C772 1.391 . S
H774 C782 0.950 . S
H775 C787 0.950 . S
H776 C784 0.950 . S
H777 C786 0.950 . S
H778 C788 0.950 . S
H779 C790 0.950 . S
H780 C792 0.950 . S
H781 C793 0.950 . S
C782 H774 0.950 . S
C782 C783 1.386 . S
C782 C784 1.391 . S
C783 C782 1.386 . S
C783 C787 1.393 . S
C784 H776 0.950 . S
C784 C782 1.391 . S
C784 C785 1.400 . S
C785 C784 1.400 . S
C785 C786 1.398 . S
C785 C791 1.491 . S
C786 H777 0.950 . S
C786 C785 1.398 . S
C786 C787 1.391 . S
C787 H775 0.950 . S
C787 C783 1.393 . S
C787 C786 1.391 . S
C788 H778 0.950 . S
C788 C789 1.386 . S
C788 C790 1.391 . S
C789 C788 1.386 . S
C789 C793 1.393 . S
C790 H779 0.950 . S
C790 C788 1.391 . S
C790 C791 1.400 . S
C791 C785 1.491 . S
C791 C790 1.400 . S
C791 C792 1.398 . S
C792 H780 0.950 . S
C792 C791 1.398 . S
C792 C793 1.391 . S
C793 H781 0.950 . S
C793 C789 1.393 . S
C793 C792 1.391 . S
H794 C802 0.950 . S
H795 C807 0.950 . S
H796 C804 0.950 . S
H797 C806 0.950 . S
H798 C808 0.950 . S
H799 C810 0.950 . S
H800 C812 0.950 . S
H801 C813 0.950 . S
C802 H794 0.950 . S
C802 C803 1.386 . S
C802 C804 1.391 . S
C803 C802 1.386 . S
C803 C807 1.393 . S
C804 H796 0.950 . S
C804 C802 1.391 . S
C804 C805 1.400 . S
C805 C804 1.400 . S
C805 C806 1.398 . S
C805 C811 1.491 . S
C806 H797 0.950 . S
C806 C805 1.398 . S
C806 C807 1.391 . S
C807 H795 0.950 . S
C807 C803 1.393 . S
C807 C806 1.391 . S
C808 H798 0.950 . S
C808 C809 1.386 . S
C808 C810 1.391 1_545 S
C809 C808 1.386 . S
C809 C813 1.393 . S
C810 H799 0.950 . S
C810 C808 1.391 1_565 S
C810 C811 1.400 . S
C811 C805 1.491 . S
C811 C810 1.400 . S
C811 C812 1.398 . S
C812 H800 0.950 . S
C812 C811 1.398 . S
C812 C813 1.391 1_565 S
C813 H801 0.950 . S
C813 C809 1.393 . S
C813 C812 1.391 1_545 S
H814 C822 0.950 . S
H815 C827 0.950 . S
H816 C824 0.950 1_655 S
H817 C826 0.950 . S
H818 C828 0.950 . S
H819 C830 0.950 . S
H820 C832 0.950 . S
H821 C833 0.950 . S
C822 H814 0.950 . S
C822 C823 1.386 . S
C822 C824 1.391 . S
C823 C822 1.386 . S
C823 C827 1.393 . S
C824 H816 0.950 1_455 S
C824 C822 1.391 . S
C824 C825 1.400 . S
C825 C824 1.400 . S
C825 C826 1.398 . S
C825 C831 1.491 . S
C826 H817 0.950 . S
C826 C825 1.398 . S
C826 C827 1.391 . S
C827 H815 0.950 . S
C827 C823 1.393 . S
C827 C826 1.391 . S
C828 H818 0.950 . S
C828 C829 1.386 1_455 S
C828 C830 1.391 . S
C829 C828 1.386 1_655 S
C829 C833 1.393 . S
C830 H819 0.950 . S
C830 C828 1.391 . S
C830 C831 1.400 . S
C831 C825 1.491 . S
C831 C830 1.400 . S
C831 C832 1.398 1_455 S
C832 H820 0.950 . S
C832 C831 1.398 1_655 S
C832 C833 1.391 . S
C833 H821 0.950 . S
C833 C829 1.393 . S
C833 C832 1.391 . S
H834 C842 0.950 . S
H835 C847 0.950 . S
H836 C844 0.950 . S
H837 C846 0.950 1_655 S
H838 C848 0.950 . S
H839 C850 0.950 . S
H840 C852 0.950 1_455 S
H841 C853 0.950 . S
C842 H834 0.950 . S
C842 C843 1.386 . S
C842 C844 1.391 . S
C843 C842 1.386 . S
C843 C847 1.393 . S
C844 H836 0.950 . S
C844 C842 1.391 . S
C844 C845 1.400 . S
C845 C844 1.400 . S
C845 C846 1.398 . S
C845 C851 1.491 1_455 S
C846 H837 0.950 1_455 S
C846 C845 1.398 . S
C846 C847 1.391 . S
C847 H835 0.950 . S
C847 C843 1.393 . S
C847 C846 1.391 . S
C848 H838 0.950 . S
C848 C849 1.386 . S
C848 C850 1.391 . S
C849 C848 1.386 . S
C849 C853 1.393 . S
C850 H839 0.950 . S
C850 C848 1.391 . S
C850 C851 1.400 . S
C851 C845 1.491 1_655 S
C851 C850 1.400 . S
C851 C852 1.398 . S
C852 H840 0.950 1_655 S
C852 C851 1.398 . S
C852 C853 1.391 . S
C853 H841 0.950 . S
C853 C849 1.393 . S
C853 C852 1.391 . S
H854 C862 0.950 . S
H855 C867 0.950 . S
H856 C864 0.950 . S
H857 C866 0.950 . S
H858 C868 0.950 . S
H859 C870 0.950 . S
H860 C872 0.950 . S
H861 C873 0.950 . S
C862 H854 0.950 . S
C862 C863 1.386 . S
C862 C864 1.391 . S
C863 C862 1.386 . S
C863 C867 1.393 . S
C864 H856 0.950 . S
C864 C862 1.391 . S
C864 C865 1.400 . S
C865 C864 1.400 . S
C865 C866 1.398 . S
C865 C871 1.491 . S
C866 H857 0.950 . S
C866 C865 1.398 . S
C866 C867 1.391 . S
C867 H855 0.950 . S
C867 C863 1.393 . S
C867 C866 1.391 . S
C868 H858 0.950 . S
C868 C869 1.386 . S
C868 C870 1.391 . S
C869 C868 1.386 . S
C869 C873 1.393 . S
C870 H859 0.950 . S
C870 C868 1.391 . S
C870 C871 1.400 . S
C871 C865 1.491 . S
C871 C870 1.400 . S
C871 C872 1.398 . S
C872 H860 0.950 . S
C872 C871 1.398 . S
C872 C873 1.391 . S
C873 H861 0.950 . S
C873 C869 1.393 . S
C873 C872 1.391 . S
H874 C882 0.950 . S
H875 C887 0.950 . S
H876 C884 0.950 . S
H877 C886 0.950 . S
H878 C888 0.950 . S
H879 C890 0.950 . S
H880 C892 0.950 . S
H881 C893 0.950 . S
C882 H874 0.950 . S
C882 C883 1.386 . S
C882 C884 1.391 . S
C883 C882 1.386 . S
C883 C887 1.393 . S
C884 H876 0.950 . S
C884 C882 1.391 . S
C884 C885 1.400 . S
C885 C884 1.400 . S
C885 C886 1.398 . S
C885 C891 1.491 1_565 S
C886 H877 0.950 . S
C886 C885 1.398 . S
C886 C887 1.391 . S
C887 H875 0.950 . S
C887 C883 1.393 . S
C887 C886 1.391 . S
C888 H878 0.950 . S
C888 C889 1.386 . S
C888 C890 1.391 . S
C889 C888 1.386 . S
C889 C893 1.393 . S
C890 H879 0.950 . S
C890 C888 1.391 . S
C890 C891 1.400 . S
C891 C885 1.491 1_545 S
C891 C890 1.400 . S
C891 C892 1.398 . S
C892 H880 0.950 . S
C892 C891 1.398 . S
C892 C893 1.391 . S
C893 H881 0.950 . S
C893 C889 1.393 . S
C893 C892 1.391 . S
H894 C902 0.950 . S
H895 C907 0.950 . S
H896 C904 0.950 . S
H897 C906 0.950 . S
H898 C908 0.950 . S
H899 C910 0.950 . S
H900 C912 0.950 . S
H901 C913 0.950 . S
C902 H894 0.950 . S
C902 C903 1.386 . S
C902 C904 1.391 . S
C903 C902 1.386 . S
C903 C907 1.393 . S
C904 H896 0.950 . S
C904 C902 1.391 . S
C904 C905 1.400 . S
C905 C904 1.400 . S
C905 C906 1.398 . S
C905 C911 1.491 1_545 S
C906 H897 0.950 . S
C906 C905 1.398 . S
C906 C907 1.391 . S
C907 H895 0.950 . S
C907 C903 1.393 . S
C907 C906 1.391 . S
C908 H898 0.950 . S
C908 C909 1.386 . S
C908 C910 1.391 . S
C909 C908 1.386 . S
C909 C913 1.393 . S
C910 H899 0.950 . S
C910 C908 1.391 . S
C910 C911 1.400 . S
C911 C905 1.491 1_565 S
C911 C910 1.400 . S
C911 C912 1.398 . S
C912 H900 0.950 . S
C912 C911 1.398 . S
C912 C913 1.391 . S
C913 H901 0.950 . S
C913 C909 1.393 . S
C913 C912 1.391 . S
H914 C922 0.950 . S
H915 C927 0.950 . S
H916 C924 0.950 . S
H917 C926 0.950 . S
H918 C928 0.950 . S
H919 C930 0.950 . S
H920 C932 0.950 . S
H921 C933 0.950 . S
C922 H914 0.950 . S
C922 C923 1.386 . S
C922 C924 1.391 . S
C923 C922 1.386 . S
C923 C927 1.393 . S
C924 H916 0.950 . S
C924 C922 1.391 . S
C924 C925 1.400 . S
C925 C924 1.400 . S
C925 C926 1.398 . S
C925 C931 1.491 1_455 S
C926 H917 0.950 . S
C926 C925 1.398 . S
C926 C927 1.391 . S
C927 H915 0.950 . S
C927 C923 1.393 . S
C927 C926 1.391 . S
C928 H918 0.950 . S
C928 C929 1.386 . S
C928 C930 1.391 . S
C929 C928 1.386 . S
C929 C933 1.393 . S
C930 H919 0.950 . S
C930 C928 1.391 . S
C930 C931 1.400 . S
C931 C925 1.491 1_655 S
C931 C930 1.400 . S
C931 C932 1.398 . S
C932 H920 0.950 . S
C932 C931 1.398 . S
C932 C933 1.391 . S
C933 H921 0.950 . S
C933 C929 1.393 . S
C933 C932 1.391 . S
H934 C942 0.950 . S
H935 C947 0.950 . S
H936 C944 0.950 . S
H937 C946 0.950 . S
H938 C948 0.950 . S
H939 C950 0.950 . S
H940 C952 0.950 . S
H941 C953 0.950 . S
C942 H934 0.950 . S
C942 C943 1.386 . S
C942 C944 1.391 . S
C943 C942 1.386 . S
C943 C947 1.393 . S
C944 H936 0.950 . S
C944 C942 1.391 . S
C944 C945 1.400 . S
C945 C944 1.400 . S
C945 C946 1.398 . S
C945 C951 1.491 . S
C946 H937 0.950 . S
C946 C945 1.398 . S
C946 C947 1.391 . S
C947 H935 0.950 . S
C947 C943 1.393 . S
C947 C946 1.391 . S
C948 H938 0.950 . S
C948 C949 1.386 . S
C948 C950 1.391 . S
C949 C948 1.386 . S
C949 C953 1.393 . S
C950 H939 0.950 . S
C950 C948 1.391 . S
C950 C951 1.400 . S
C951 C945 1.491 . S
C951 C950 1.400 . S
C951 C952 1.398 . S
C952 H940 0.950 . S
C952 C951 1.398 . S
C952 C953 1.391 . S
C953 H941 0.950 . S
C953 C949 1.393 . S
C953 C952 1.391 . S
H954 C962 0.950 . S
H955 C967 0.950 . S
H956 C964 0.950 . S
H957 C966 0.950 . S
H958 C968 0.950 . S
H959 C970 0.950 . S
H960 C972 0.950 . S
H961 C973 0.950 . S
C962 H954 0.950 . S
C962 C963 1.386 . S
C962 C964 1.391 . S
C963 C962 1.386 . S
C963 C967 1.393 . S
C964 H956 0.950 . S
C964 C962 1.391 . S
C964 C965 1.400 . S
C965 C964 1.400 . S
C965 C966 1.398 . S
C965 C971 1.491 . S
C966 H957 0.950 . S
C966 C965 1.398 . S
C966 C967 1.391 . S
C967 H955 0.950 . S
C967 C963 1.393 . S
C967 C966 1.391 . S
C968 H958 0.950 . S
C968 C969 1.386 . S
C968 C970 1.391 . S
C969 C968 1.386 . S
C969 C973 1.393 . S
C970 H959 0.950 . S
C970 C968 1.391 . S
C970 C971 1.400 . S
C971 C965 1.491 . S
C971 C970 1.400 . S
C971 C972 1.398 . S
C972 H960 0.950 . S
C972 C971 1.398 . S
C972 C973 1.391 . S
C973 H961 0.950 . S
C973 C969 1.393 . S
C973 C972 1.391 . S
H974 C982 0.950 . S
H975 C987 0.950 . S
H976 C984 0.950 . S
H977 C986 0.950 . S
H978 C988 0.950 . S
H979 C990 0.950 . S
H980 C992 0.950 . S
H981 C993 0.950 . S
C982 H974 0.950 . S
C982 C983 1.386 . S
C982 C984 1.391 . S
C983 C982 1.386 . S
C983 C987 1.393 . S
C984 H976 0.950 . S
C984 C982 1.391 . S
C984 C985 1.400 . S
C985 C984 1.400 . S
C985 C986 1.398 . S
C985 C991 1.491 . S
C986 H977 0.950 . S
C986 C985 1.398 . S
C986 C987 1.391 . S
C987 H975 0.950 . S
C987 C983 1.393 . S
C987 C986 1.391 . S
C988 H978 0.950 . S
C988 C989 1.386 . S
C988 C990 1.391 . S
C989 C988 1.386 . S
C989 C993 1.393 . S
C990 H979 0.950 . S
C990 C988 1.391 . S
C990 C991 1.400 . S
C991 C985 1.491 . S
C991 C990 1.400 . S
C991 C992 1.398 . S
C992 H980 0.950 . S
C992 C991 1.398 . S
C992 C993 1.391 . S
C993 H981 0.950 . S
C993 C989 1.393 . S
C993 C992 1.391 . S
H994 C1002 0.950 . S
H995 C1007 0.950 . S
H996 C1004 0.950 . S
H997 C1006 0.950 . S
H998 C1008 0.950 . S
H999 C1010 0.950 . S
H1000 C1012 0.950 . S
H1001 C1013 0.950 . S
C1002 H994 0.950 . S
C1002 C1003 1.386 . S
C1002 C1004 1.391 . S
C1003 C1002 1.386 . S
C1003 C1007 1.393 . S
C1004 H996 0.950 . S
C1004 C1002 1.391 . S
C1004 C1005 1.400 . S
C1005 C1004 1.400 . S
C1005 C1006 1.398 . S
C1005 C1011 1.491 . S
C1006 H997 0.950 . S
C1006 C1005 1.398 . S
C1006 C1007 1.391 . S
C1007 H995 0.950 . S
C1007 C1003 1.393 . S
C1007 C1006 1.391 . S
C1008 H998 0.950 . S
C1008 C1009 1.386 . S
C1008 C1010 1.391 . S
C1009 C1008 1.386 . S
C1009 C1013 1.393 . S
C1010 H999 0.950 . S
C1010 C1008 1.391 . S
C1010 C1011 1.400 . S
C1011 C1005 1.491 . S
C1011 C1010 1.400 . S
C1011 C1012 1.398 . S
C1012 H1000 0.950 . S
C1012 C1011 1.398 . S
C1012 C1013 1.391 . S
C1013 H1001 0.950 . S
C1013 C1009 1.393 . S
C1013 C1012 1.391 . S
H1014 C1022 0.950 . S
H1015 C1027 0.950 . S
H1016 C1024 0.950 . S
H1017 C1026 0.950 . S
H1018 C1028 0.950 . S
H1019 C1030 0.950 . S
H1020 C1032 0.950 . S
H1021 C1033 0.950 . S
C1022 H1014 0.950 . S
C1022 C1023 1.386 . S
C1022 C1024 1.391 . S
C1023 C1022 1.386 . S
C1023 C1027 1.393 . S
C1024 H1016 0.950 . S
C1024 C1022 1.391 . S
C1024 C1025 1.400 . S
C1025 C1024 1.400 . S
C1025 C1026 1.398 . S
C1025 C1031 1.491 . S
C1026 H1017 0.950 . S
C1026 C1025 1.398 . S
C1026 C1027 1.391 . S
C1027 H1015 0.950 . S
C1027 C1023 1.393 . S
C1027 C1026 1.391 . S
C1028 H1018 0.950 . S
C1028 C1029 1.386 . S
C1028 C1030 1.391 . S
C1029 C1028 1.386 . S
C1029 C1033 1.393 . S
C1030 H1019 0.950 . S
C1030 C1028 1.391 . S
C1030 C1031 1.400 . S
C1031 C1025 1.491 . S
C1031 C1030 1.400 . S
C1031 C1032 1.398 . S
C1032 H1020 0.950 . S
C1032 C1031 1.398 . S
C1032 C1033 1.391 . S
C1033 H1021 0.950 . S
C1033 C1029 1.393 . S
C1033 C1032 1.391 . S
H1034 C1042 0.950 . S
H1035 C1047 0.950 . S
H1036 C1044 0.950 . S
H1037 C1046 0.950 . S
H1038 C1048 0.950 . S
H1039 C1050 0.950 . S
H1040 C1052 0.950 . S
H1041 C1053 0.950 . S
C1042 H1034 0.950 . S
C1042 C1043 1.386 . S
C1042 C1044 1.391 . S
C1043 C1042 1.386 . S
C1043 C1047 1.393 . S
C1044 H1036 0.950 . S
C1044 C1042 1.391 . S
C1044 C1045 1.400 . S
C1045 C1044 1.400 . S
C1045 C1046 1.398 . S
C1045 C1051 1.491 . S
C1046 H1037 0.950 . S
C1046 C1045 1.398 . S
C1046 C1047 1.391 . S
C1047 H1035 0.950 . S
C1047 C1043 1.393 . S
C1047 C1046 1.391 . S
C1048 H1038 0.950 . S
C1048 C1049 1.386 . S
C1048 C1050 1.391 . S
C1049 C1048 1.386 . S
C1049 C1053 1.393 . S
C1050 H1039 0.950 . S
C1050 C1048 1.391 . S
C1050 C1051 1.400 . S
C1051 C1045 1.491 . S
C1051 C1050 1.400 . S
C1051 C1052 1.398 . S
C1052 H1040 0.950 . S
C1052 C1051 1.398 . S
C1052 C1053 1.391 . S
C1053 H1041 0.950 . S
C1053 C1049 1.393 . S
C1053 C1052 1.391 . S
H1054 C1062 0.950 . S
H1055 C1067 0.950 . S
H1056 C1064 0.950 . S
H1057 C1066 0.950 . S
H1058 C1068 0.950 . S
H1059 C1070 0.950 . S
H1060 C1072 0.950 . S
H1061 C1073 0.950 . S
C1062 H1054 0.950 . S
C1062 C1063 1.386 . S
C1062 C1064 1.391 . S
C1063 C1062 1.386 . S
C1063 C1067 1.393 . S
C1064 H1056 0.950 . S
C1064 C1062 1.391 . S
C1064 C1065 1.400 . S
C1065 C1064 1.400 . S
C1065 C1066 1.398 . S
C1065 C1071 1.491 . S
C1066 H1057 0.950 . S
C1066 C1065 1.398 . S
C1066 C1067 1.391 . S
C1067 H1055 0.950 . S
C1067 C1063 1.393 . S
C1067 C1066 1.391 . S
C1068 H1058 0.950 . S
C1068 C1069 1.386 . S
C1068 C1070 1.391 . S
C1069 C1068 1.386 . S
C1069 C1073 1.393 . S
C1070 H1059 0.950 . S
C1070 C1068 1.391 . S
C1070 C1071 1.400 . S
C1071 C1065 1.491 . S
C1071 C1070 1.400 . S
C1071 C1072 1.398 . S
C1072 H1060 0.950 . S
C1072 C1071 1.398 . S
C1072 C1073 1.391 . S
C1073 H1061 0.950 . S
C1073 C1069 1.393 . S
C1073 C1072 1.391 . S
H1074 C1082 0.950 . S
H1075 C1087 0.950 . S
H1076 C1084 0.950 . S
H1077 C1086 0.950 . S
H1078 C1088 0.950 . S
H1079 C1090 0.950 . S
H1080 C1092 0.950 . S
H1081 C1093 0.950 . S
C1082 H1074 0.950 . S
C1082 C1083 1.386 . S
C1082 C1084 1.391 . S
C1083 C1082 1.386 . S
C1083 C1087 1.393 . S
C1084 H1076 0.950 . S
C1084 C1082 1.391 . S
C1084 C1085 1.400 . S
C1085 C1084 1.400 . S
C1085 C1086 1.398 . S
C1085 C1091 1.491 1_654 S
C1086 H1077 0.950 . S
C1086 C1085 1.398 . S
C1086 C1087 1.391 . S
C1087 H1075 0.950 . S
C1087 C1083 1.393 . S
C1087 C1086 1.391 . S
C1088 H1078 0.950 . S
C1088 C1089 1.386 . S
C1088 C1090 1.391 . S
C1089 C1088 1.386 . S
C1089 C1093 1.393 . S
C1090 H1079 0.950 . S
C1090 C1088 1.391 . S
C1090 C1091 1.400 . S
C1091 C1085 1.491 1_456 S
C1091 C1090 1.400 . S
C1091 C1092 1.398 . S
C1092 H1080 0.950 . S
C1092 C1091 1.398 . S
C1092 C1093 1.391 . S
C1093 H1081 0.950 . S
C1093 C1089 1.393 . S
C1093 C1092 1.391 . S
H1094 C1102 0.950 . S
H1095 C1107 0.950 . S
H1096 C1104 0.950 . S
H1097 C1106 0.950 . S
H1098 C1108 0.950 . S
H1099 C1110 0.950 . S
H1100 C1112 0.950 . S
H1101 C1113 0.950 . S
C1102 H1094 0.950 . S
C1102 C1103 1.386 . S
C1102 C1104 1.391 . S
C1103 C1102 1.386 . S
C1103 C1107 1.393 . S
C1104 H1096 0.950 . S
C1104 C1102 1.391 . S
C1104 C1105 1.400 . S
C1105 C1104 1.400 . S
C1105 C1106 1.398 . S
C1105 C1111 1.491 1_554 S
C1106 H1097 0.950 . S
C1106 C1105 1.398 . S
C1106 C1107 1.391 . S
C1107 H1095 0.950 . S
C1107 C1103 1.393 . S
C1107 C1106 1.391 . S
C1108 H1098 0.950 . S
C1108 C1109 1.386 . S
C1108 C1110 1.391 . S
C1109 C1108 1.386 . S
C1109 C1113 1.393 . S
C1110 H1099 0.950 . S
C1110 C1108 1.391 . S
C1110 C1111 1.400 . S
C1111 C1105 1.491 1_556 S
C1111 C1110 1.400 . S
C1111 C1112 1.398 . S
C1112 H1100 0.950 . S
C1112 C1111 1.398 . S
C1112 C1113 1.391 . S
C1113 H1101 0.950 . S
C1113 C1109 1.393 . S
C1113 C1112 1.391 . S
H1114 C1122 0.950 . S
H1115 C1127 0.950 . S
H1116 C1124 0.950 . S
H1117 C1126 0.950 . S
H1118 C1128 0.950 . S
H1119 C1130 0.950 . S
H1120 C1132 0.950 . S
H1121 C1133 0.950 . S
C1122 H1114 0.950 . S
C1122 C1123 1.386 1_565 S
C1122 C1124 1.391 . S
C1123 C1122 1.386 1_545 S
C1123 C1127 1.393 . S
C1124 H1116 0.950 . S
C1124 C1122 1.391 . S
C1124 C1125 1.400 1_565 S
C1125 C1124 1.400 1_545 S
C1125 C1126 1.398 . S
C1125 C1131 1.491 1_544 S
C1126 H1117 0.950 . S
C1126 C1125 1.398 . S
C1126 C1127 1.391 . S
C1127 H1115 0.950 . S
C1127 C1123 1.393 . S
C1127 C1126 1.391 . S
C1128 H1118 0.950 . S
C1128 C1129 1.386 1_545 S
C1128 C1130 1.391 . S
C1129 C1128 1.386 1_565 S
C1129 C1133 1.393 . S
C1130 H1119 0.950 . S
C1130 C1128 1.391 . S
C1130 C1131 1.400 1_545 S
C1131 C1125 1.491 1_566 S
C1131 C1130 1.400 1_565 S
C1131 C1132 1.398 . S
C1132 H1120 0.950 . S
C1132 C1131 1.398 . S
C1132 C1133 1.391 . S
C1133 H1121 0.950 . S
C1133 C1129 1.393 . S
C1133 C1132 1.391 . S
H1134 C1142 0.950 . S
H1135 C1147 0.950 . S
H1136 C1144 0.950 . S
H1137 C1146 0.950 . S
H1138 C1148 0.950 . S
H1139 C1150 0.950 . S
H1140 C1152 0.950 . S
H1141 C1153 0.950 . S
C1142 H1134 0.950 . S
C1142 C1143 1.386 . S
C1142 C1144 1.391 . S
C1143 C1142 1.386 . S
C1143 C1147 1.393 . S
C1144 H1136 0.950 . S
C1144 C1142 1.391 . S
C1144 C1145 1.400 . S
C1145 C1144 1.400 . S
C1145 C1146 1.398 . S
C1145 C1151 1.491 . S
C1146 H1137 0.950 . S
C1146 C1145 1.398 . S
C1146 C1147 1.391 . S
C1147 H1135 0.950 . S
C1147 C1143 1.393 . S
C1147 C1146 1.391 . S
C1148 H1138 0.950 . S
C1148 C1149 1.386 . S
C1148 C1150 1.391 . S
C1149 C1148 1.386 . S
C1149 C1153 1.393 . S
C1150 H1139 0.950 . S
C1150 C1148 1.391 . S
C1150 C1151 1.400 . S
C1151 C1145 1.491 . S
C1151 C1150 1.400 . S
C1151 C1152 1.398 . S
C1152 H1140 0.950 . S
C1152 C1151 1.398 . S
C1152 C1153 1.391 . S
C1153 H1141 0.950 . S
C1153 C1149 1.393 . S
C1153 C1152 1.391 . S
H1154 C1162 0.950 . S
H1155 C1167 0.950 . S
H1156 C1164 0.950 . S
H1157 C1166 0.950 . S
H1158 C1168 0.950 . S
H1159 C1170 0.950 . S
H1160 C1172 0.950 . S
H1161 C1173 0.950 . S
C1162 H1154 0.950 . S
C1162 C1163 1.386 . S
C1162 C1164 1.391 1_565 S
C1163 C1162 1.386 . S
C1163 C1167 1.393 . S
C1164 H1156 0.950 . S
C1164 C1162 1.391 1_545 S
C1164 C1165 1.400 . S
C1165 C1164 1.400 . S
C1165 C1166 1.398 . S
C1165 C1171 1.491 . S
C1166 H1157 0.950 . S
C1166 C1165 1.398 . S
C1166 C1167 1.391 1_545 S
C1167 H1155 0.950 . S
C1167 C1163 1.393 . S
C1167 C1166 1.391 1_565 S
C1168 H1158 0.950 . S
C1168 C1169 1.386 . S
C1168 C1170 1.391 . S
C1169 C1168 1.386 . S
C1169 C1173 1.393 . S
C1170 H1159 0.950 . S
C1170 C1168 1.391 . S
C1170 C1171 1.400 . S
C1171 C1165 1.491 . S
C1171 C1170 1.400 . S
C1171 C1172 1.398 . S
C1172 H1160 0.950 . S
C1172 C1171 1.398 . S
C1172 C1173 1.391 . S
C1173 H1161 0.950 . S
C1173 C1169 1.393 . S
C1173 C1172 1.391 . S
H1174 C1182 0.950 . S
H1175 C1187 0.950 . S
H1176 C1184 0.950 . S
H1177 C1186 0.950 . S
H1178 C1188 0.950 . S
H1179 C1190 0.950 . S
H1180 C1192 0.950 . S
H1181 C1193 0.950 . S
C1182 H1174 0.950 . S
C1182 C1183 1.386 . S
C1182 C1184 1.391 . S
C1183 C1182 1.386 . S
C1183 C1187 1.393 . S
C1184 H1176 0.950 . S
C1184 C1182 1.391 . S
C1184 C1185 1.400 . S
C1185 C1184 1.400 . S
C1185 C1186 1.398 . S
C1185 C1191 1.491 . S
C1186 H1177 0.950 . S
C1186 C1185 1.398 . S
C1186 C1187 1.391 . S
C1187 H1175 0.950 . S
C1187 C1183 1.393 . S
C1187 C1186 1.391 . S
C1188 H1178 0.950 . S
C1188 C1189 1.386 . S
C1188 C1190 1.391 1_455 S
C1189 C1188 1.386 . S
C1189 C1193 1.393 . S
C1190 H1179 0.950 . S
C1190 C1188 1.391 1_655 S
C1190 C1191 1.400 . S
C1191 C1185 1.491 . S
C1191 C1190 1.400 . S
C1191 C1192 1.398 . S
C1192 H1180 0.950 . S
C1192 C1191 1.398 . S
C1192 C1193 1.391 1_655 S
C1193 H1181 0.950 . S
C1193 C1189 1.393 . S
C1193 C1192 1.391 1_455 S
H1194 C1202 0.950 . S
H1195 C1207 0.950 . S
H1196 C1204 0.950 . S
H1197 C1206 0.950 . S
H1198 C1208 0.950 . S
H1199 C1210 0.950 . S
H1200 C1212 0.950 . S
H1201 C1213 0.950 . S
C1202 H1194 0.950 . S
C1202 C1203 1.386 . S
C1202 C1204 1.391 . S
C1203 C1202 1.386 . S
C1203 C1207 1.393 . S
C1204 H1196 0.950 . S
C1204 C1202 1.391 . S
C1204 C1205 1.400 . S
C1205 C1204 1.400 . S
C1205 C1206 1.398 . S
C1205 C1211 1.491 . S
C1206 H1197 0.950 . S
C1206 C1205 1.398 . S
C1206 C1207 1.391 . S
C1207 H1195 0.950 . S
C1207 C1203 1.393 . S
C1207 C1206 1.391 . S
C1208 H1198 0.950 . S
C1208 C1209 1.386 . S
C1208 C1210 1.391 . S
C1209 C1208 1.386 . S
C1209 C1213 1.393 . S
C1210 H1199 0.950 . S
C1210 C1208 1.391 . S
C1210 C1211 1.400 . S
C1211 C1205 1.491 . S
C1211 C1210 1.400 . S
C1211 C1212 1.398 . S
C1212 H1200 0.950 . S
C1212 C1211 1.398 . S
C1212 C1213 1.391 . S
C1213 H1201 0.950 . S
C1213 C1209 1.393 . S
C1213 C1212 1.391 . S
H1214 C1222 0.950 . S
H1215 C1227 0.950 . S
H1216 C1224 0.950 . S
H1217 C1226 0.950 . S
H1218 C1228 0.950 . S
H1219 C1230 0.950 . S
H1220 C1232 0.950 . S
H1221 C1233 0.950 . S
C1222 H1214 0.950 . S
C1222 C1223 1.386 . S
C1222 C1224 1.391 1_545 S
C1223 C1222 1.386 . S
C1223 C1227 1.393 . S
C1224 H1216 0.950 . S
C1224 C1222 1.391 1_565 S
C1224 C1225 1.400 . S
C1225 C1224 1.400 . S
C1225 C1226 1.398 . S
C1225 C1231 1.491 . S
C1226 H1217 0.950 . S
C1226 C1225 1.398 . S
C1226 C1227 1.391 1_565 S
C1227 H1215 0.950 . S
C1227 C1223 1.393 . S
C1227 C1226 1.391 1_545 S
C1228 H1218 0.950 . S
C1228 C1229 1.386 . S
C1228 C1230 1.391 . S
C1229 C1228 1.386 . S
C1229 C1233 1.393 . S
C1230 H1219 0.950 . S
C1230 C1228 1.391 . S
C1230 C1231 1.400 . S
C1231 C1225 1.491 . S
C1231 C1230 1.400 . S
C1231 C1232 1.398 . S
C1232 H1220 0.950 . S
C1232 C1231 1.398 . S
C1232 C1233 1.391 . S
C1233 H1221 0.950 . S
C1233 C1229 1.393 . S
C1233 C1232 1.391 . S
H1234 C1242 0.950 . S
H1235 C1247 0.950 . S
H1236 C1244 0.950 . S
H1237 C1246 0.950 . S
H1238 C1248 0.950 . S
H1239 C1250 0.950 1_455 S
H1240 C1252 0.950 . S
H1241 C1253 0.950 . S
C1242 H1234 0.950 . S
C1242 C1243 1.386 . S
C1242 C1244 1.391 . S
C1243 C1242 1.386 . S
C1243 C1247 1.393 . S
C1244 H1236 0.950 . S
C1244 C1242 1.391 . S
C1244 C1245 1.400 . S
C1245 C1244 1.400 . S
C1245 C1246 1.398 . S
C1245 C1251 1.491 . S
C1246 H1237 0.950 . S
C1246 C1245 1.398 . S
C1246 C1247 1.391 . S
C1247 H1235 0.950 . S
C1247 C1243 1.393 . S
C1247 C1246 1.391 . S
C1248 H1238 0.950 . S
C1248 C1249 1.386 . S
C1248 C1250 1.391 . S
C1249 C1248 1.386 . S
C1249 C1253 1.393 . S
C1250 H1239 0.950 1_655 S
C1250 C1248 1.391 . S
C1250 C1251 1.400 1_655 S
C1251 C1245 1.491 . S
C1251 C1250 1.400 1_455 S
C1251 C1252 1.398 . S
C1252 H1240 0.950 . S
C1252 C1251 1.398 . S
C1252 C1253 1.391 1_455 S
C1253 H1241 0.950 . S
C1253 C1249 1.393 . S
C1253 C1252 1.391 1_655 S
H1254 C1262 0.950 . S
H1255 C1267 0.950 . S
H1256 C1264 0.950 . S
H1257 C1266 0.950 . S
H1258 C1268 0.950 . S
H1259 C1270 0.950 . S
H1260 C1272 0.950 . S
H1261 C1273 0.950 . S
C1262 H1254 0.950 . S
C1262 C1263 1.386 . S
C1262 C1264 1.391 . S
C1263 C1262 1.386 . S
C1263 C1267 1.393 . S
C1264 H1256 0.950 . S
C1264 C1262 1.391 . S
C1264 C1265 1.400 . S
C1265 C1264 1.400 . S
C1265 C1266 1.398 . S
C1265 C1271 1.491 . S
C1266 H1257 0.950 . S
C1266 C1265 1.398 . S
C1266 C1267 1.391 . S
C1267 H1255 0.950 . S
C1267 C1263 1.393 . S
C1267 C1266 1.391 . S
C1268 H1258 0.950 . S
C1268 C1269 1.386 . S
C1268 C1270 1.391 . S
C1269 C1268 1.386 . S
C1269 C1273 1.393 . S
C1270 H1259 0.950 . S
C1270 C1268 1.391 . S
C1270 C1271 1.400 . S
C1271 C1265 1.491 . S
C1271 C1270 1.400 . S
C1271 C1272 1.398 . S
C1272 H1260 0.950 . S
C1272 C1271 1.398 . S
C1272 C1273 1.391 . S
C1273 H1261 0.950 . S
C1273 C1269 1.393 . S
C1273 C1272 1.391 . S
H1274 C1282 0.950 . S
H1275 C1287 0.950 . S
H1276 C1284 0.950 . S
H1277 C1286 0.950 . S
H1278 C1288 0.950 . S
H1279 C1290 0.950 . S
H1280 C1292 0.950 . S
H1281 C1293 0.950 . S
C1282 H1274 0.950 . S
C1282 C1283 1.386 . S
C1282 C1284 1.391 . S
C1283 C1282 1.386 . S
C1283 C1287 1.393 . S
C1284 H1276 0.950 . S
C1284 C1282 1.391 . S
C1284 C1285 1.400 . S
C1285 C1284 1.400 . S
C1285 C1286 1.398 . S
C1285 C1291 1.491 . S
C1286 H1277 0.950 . S
C1286 C1285 1.398 . S
C1286 C1287 1.391 . S
C1287 H1275 0.950 . S
C1287 C1283 1.393 . S
C1287 C1286 1.391 . S
C1288 H1278 0.950 . S
C1288 C1289 1.386 . S
C1288 C1290 1.391 . S
C1289 C1288 1.386 . S
C1289 C1293 1.393 . S
C1290 H1279 0.950 . S
C1290 C1288 1.391 . S
C1290 C1291 1.400 . S
C1291 C1285 1.491 . S
C1291 C1290 1.400 . S
C1291 C1292 1.398 . S
C1292 H1280 0.950 . S
C1292 C1291 1.398 . S
C1292 C1293 1.391 . S
C1293 H1281 0.950 . S
C1293 C1289 1.393 . S
C1293 C1292 1.391 . S
H1294 C1302 0.950 . S
H1295 C1307 0.950 . S
H1296 C1304 0.950 . S
H1297 C1306 0.950 . S
H1298 C1308 0.950 . S
H1299 C1310 0.950 . S
H1300 C1312 0.950 . S
H1301 C1313 0.950 . S
C1302 H1294 0.950 . S
C1302 C1303 1.386 . S
C1302 C1304 1.391 . S
C1303 C1302 1.386 . S
C1303 C1307 1.393 . S
C1304 H1296 0.950 . S
C1304 C1302 1.391 . S
C1304 C1305 1.400 . S
C1305 C1304 1.400 . S
C1305 C1306 1.398 . S
C1305 C1311 1.491 . S
C1306 H1297 0.950 . S
C1306 C1305 1.398 . S
C1306 C1307 1.391 . S
C1307 H1295 0.950 . S
C1307 C1303 1.393 . S
C1307 C1306 1.391 . S
C1308 H1298 0.950 . S
C1308 C1309 1.386 . S
C1308 C1310 1.391 . S
C1309 C1308 1.386 . S
C1309 C1313 1.393 . S
C1310 H1299 0.950 . S
C1310 C1308 1.391 . S
C1310 C1311 1.400 . S
C1311 C1305 1.491 . S
C1311 C1310 1.400 . S
C1311 C1312 1.398 . S
C1312 H1300 0.950 . S
C1312 C1311 1.398 . S
C1312 C1313 1.391 . S
C1313 H1301 0.950 . S
C1313 C1309 1.393 . S
C1313 C1312 1.391 . S
H1314 C1322 0.950 . S
H1315 C1327 0.950 . S
H1316 C1324 0.950 . S
H1317 C1326 0.950 . S
H1318 C1328 0.950 . S
H1319 C1330 0.950 . S
H1320 C1332 0.950 . S
H1321 C1333 0.950 . S
C1322 H1314 0.950 . S
C1322 C1323 1.386 . S
C1322 C1324 1.391 . S
C1323 C1322 1.386 . S
C1323 C1327 1.393 . S
C1324 H1316 0.950 . S
C1324 C1322 1.391 . S
C1324 C1325 1.400 . S
C1325 C1324 1.400 . S
C1325 C1326 1.398 . S
C1325 C1331 1.491 . S
C1326 H1317 0.950 . S
C1326 C1325 1.398 . S
C1326 C1327 1.391 . S
C1327 H1315 0.950 . S
C1327 C1323 1.393 . S
C1327 C1326 1.391 . S
C1328 H1318 0.950 . S
C1328 C1329 1.386 . S
C1328 C1330 1.391 . S
C1329 C1328 1.386 . S
C1329 C1333 1.393 . S
C1330 H1319 0.950 . S
C1330 C1328 1.391 . S
C1330 C1331 1.400 . S
C1331 C1325 1.491 . S
C1331 C1330 1.400 . S
C1331 C1332 1.398 . S
C1332 H1320 0.950 . S
C1332 C1331 1.398 . S
C1332 C1333 1.391 . S
C1333 H1321 0.950 . S
C1333 C1329 1.393 . S
C1333 C1332 1.391 . S
H1334 C1342 0.950 . S
H1335 C1347 0.950 . S
H1336 C1344 0.950 . S
H1337 C1346 0.950 . S
H1338 C1348 0.950 . S
H1339 C1350 0.950 . S
H1340 C1352 0.950 . S
H1341 C1353 0.950 . S
C1342 H1334 0.950 . S
C1342 C1343 1.386 . S
C1342 C1344 1.391 . S
C1343 C1342 1.386 . S
C1343 C1347 1.393 . S
C1344 H1336 0.950 . S
C1344 C1342 1.391 . S
C1344 C1345 1.400 . S
C1345 C1344 1.400 . S
C1345 C1346 1.398 . S
C1345 C1351 1.491 . S
C1346 H1337 0.950 . S
C1346 C1345 1.398 . S
C1346 C1347 1.391 . S
C1347 H1335 0.950 . S
C1347 C1343 1.393 . S
C1347 C1346 1.391 . S
C1348 H1338 0.950 . S
C1348 C1349 1.386 . S
C1348 C1350 1.391 . S
C1349 C1348 1.386 . S
C1349 C1353 1.393 . S
C1350 H1339 0.950 . S
C1350 C1348 1.391 . S
C1350 C1351 1.400 . S
C1351 C1345 1.491 . S
C1351 C1350 1.400 . S
C1351 C1352 1.398 . S
C1352 H1340 0.950 . S
C1352 C1351 1.398 . S
C1352 C1353 1.391 . S
C1353 H1341 0.950 . S
C1353 C1349 1.393 . S
C1353 C1352 1.391 . S
H1354 C1362 0.950 . S
H1355 C1367 0.950 . S
H1356 C1364 0.950 . S
H1357 C1366 0.950 . S
H1358 C1368 0.950 . S
H1359 C1370 0.950 . S
H1360 C1372 0.950 . S
H1361 C1373 0.950 . S
C1362 H1354 0.950 . S
C1362 C1363 1.386 . S
C1362 C1364 1.391 . S
C1363 C1362 1.386 . S
C1363 C1367 1.393 . S
C1364 H1356 0.950 . S
C1364 C1362 1.391 . S
C1364 C1365 1.400 . S
C1365 C1364 1.400 . S
C1365 C1366 1.398 . S
C1365 C1371 1.491 . S
C1366 H1357 0.950 . S
C1366 C1365 1.398 . S
C1366 C1367 1.391 . S
C1367 H1355 0.950 . S
C1367 C1363 1.393 . S
C1367 C1366 1.391 . S
C1368 H1358 0.950 . S
C1368 C1369 1.386 . S
C1368 C1370 1.391 . S
C1369 C1368 1.386 . S
C1369 C1373 1.393 . S
C1370 H1359 0.950 . S
C1370 C1368 1.391 . S
C1370 C1371 1.400 . S
C1371 C1365 1.491 . S
C1371 C1370 1.400 . S
C1371 C1372 1.398 . S
C1372 H1360 0.950 . S
C1372 C1371 1.398 . S
C1372 C1373 1.391 . S
C1373 H1361 0.950 . S
C1373 C1369 1.393 . S
C1373 C1372 1.391 . S
H1374 C1382 0.950 . S
H1375 C1387 0.950 . S
H1376 C1384 0.950 . S
H1377 C1386 0.950 . S
H1378 C1388 0.950 . S
H1379 C1390 0.950 . S
H1380 C1392 0.950 . S
H1381 C1393 0.950 . S
C1382 H1374 0.950 . S
C1382 C1383 1.386 . S
C1382 C1384 1.391 . S
C1383 C1382 1.386 . S
C1383 C1387 1.393 . S
C1384 H1376 0.950 . S
C1384 C1382 1.391 . S
C1384 C1385 1.400 . S
C1385 C1384 1.400 . S
C1385 C1386 1.398 . S
C1385 C1391 1.491 . S
C1386 H1377 0.950 . S
C1386 C1385 1.398 . S
C1386 C1387 1.391 . S
C1387 H1375 0.950 . S
C1387 C1383 1.393 . S
C1387 C1386 1.391 . S
C1388 H1378 0.950 . S
C1388 C1389 1.386 . S
C1388 C1390 1.391 . S
C1389 C1388 1.386 . S
C1389 C1393 1.393 . S
C1390 H1379 0.950 . S
C1390 C1388 1.391 . S
C1390 C1391 1.400 . S
C1391 C1385 1.491 . S
C1391 C1390 1.400 . S
C1391 C1392 1.398 . S
C1392 H1380 0.950 . S
C1392 C1391 1.398 . S
C1392 C1393 1.391 . S
C1393 H1381 0.950 . S
C1393 C1389 1.393 . S
C1393 C1392 1.391 . S
H1394 C1402 0.950 . S
H1395 C1407 0.950 . S
H1396 C1404 0.950 . S
H1397 C1406 0.950 . S
H1398 C1408 0.950 . S
H1399 C1410 0.950 . S
H1400 C1412 0.950 . S
H1401 C1413 0.950 . S
C1402 H1394 0.950 . S
C1402 C1403 1.386 . S
C1402 C1404 1.391 . S
C1403 C1402 1.386 . S
C1403 C1407 1.393 . S
C1404 H1396 0.950 . S
C1404 C1402 1.391 . S
C1404 C1405 1.400 . S
C1405 C1404 1.400 . S
C1405 C1406 1.398 . S
C1405 C1411 1.491 . S
C1406 H1397 0.950 . S
C1406 C1405 1.398 . S
C1406 C1407 1.391 . S
C1407 H1395 0.950 . S
C1407 C1403 1.393 . S
C1407 C1406 1.391 . S
C1408 H1398 0.950 . S
C1408 C1409 1.386 . S
C1408 C1410 1.391 . S
C1409 C1408 1.386 . S
C1409 C1413 1.393 . S
C1410 H1399 0.950 . S
C1410 C1408 1.391 . S
C1410 C1411 1.400 . S
C1411 C1405 1.491 . S
C1411 C1410 1.400 . S
C1411 C1412 1.398 . S
C1412 H1400 0.950 . S
C1412 C1411 1.398 . S
C1412 C1413 1.391 . S
C1413 H1401 0.950 . S
C1413 C1409 1.393 . S
C1413 C1412 1.391 . S
H1414 C1422 0.950 . S
H1415 C1427 0.950 . S
H1416 C1424 0.950 . S
H1417 C1426 0.950 . S
H1418 C1428 0.950 . S
H1419 C1430 0.950 . S
H1420 C1432 0.950 . S
H1421 C1433 0.950 . S
C1422 H1414 0.950 . S
C1422 C1423 1.386 . S
C1422 C1424 1.391 . S
C1423 C1422 1.386 . S
C1423 C1427 1.393 . S
C1424 H1416 0.950 . S
C1424 C1422 1.391 . S
C1424 C1425 1.400 . S
C1425 C1424 1.400 . S
C1425 C1426 1.398 . S
C1425 C1431 1.491 . S
C1426 H1417 0.950 . S
C1426 C1425 1.398 . S
C1426 C1427 1.391 . S
C1427 H1415 0.950 . S
C1427 C1423 1.393 . S
C1427 C1426 1.391 . S
C1428 H1418 0.950 . S
C1428 C1429 1.386 . S
C1428 C1430 1.391 . S
C1429 C1428 1.386 . S
C1429 C1433 1.393 . S
C1430 H1419 0.950 . S
C1430 C1428 1.391 . S
C1430 C1431 1.400 . S
C1431 C1425 1.491 . S
C1431 C1430 1.400 . S
C1431 C1432 1.398 . S
C1432 H1420 0.950 . S
C1432 C1431 1.398 . S
C1432 C1433 1.391 . S
C1433 H1421 0.950 . S
C1433 C1429 1.393 . S
C1433 C1432 1.391 . S
H1434 C1442 0.950 . S
H1435 C1447 0.950 . S
H1436 C1444 0.950 . S
H1437 C1446 0.950 . S
H1438 C1448 0.950 . S
H1439 C1450 0.950 . S
H1440 C1452 0.950 . S
H1441 C1453 0.950 . S
C1442 H1434 0.950 . S
C1442 C1443 1.386 . S
C1442 C1444 1.391 . S
C1443 C1442 1.386 . S
C1443 C1447 1.393 . S
C1444 H1436 0.950 . S
C1444 C1442 1.391 . S
C1444 C1445 1.400 . S
C1445 C1444 1.400 . S
C1445 C1446 1.398 . S
C1445 C1451 1.491 . S
C1446 H1437 0.950 . S
C1446 C1445 1.398 . S
C1446 C1447 1.391 . S
C1447 H1435 0.950 . S
C1447 C1443 1.393 . S
C1447 C1446 1.391 . S
C1448 H1438 0.950 . S
C1448 C1449 1.386 . S
C1448 C1450 1.391 . S
C1449 C1448 1.386 . S
C1449 C1453 1.393 . S
C1450 H1439 0.950 . S
C1450 C1448 1.391 . S
C1450 C1451 1.400 . S
C1451 C1445 1.491 . S
C1451 C1450 1.400 . S
C1451 C1452 1.398 . S
C1452 H1440 0.950 . S
C1452 C1451 1.398 . S
C1452 C1453 1.391 . S
C1453 H1441 0.950 . S
C1453 C1449 1.393 . S
C1453 C1452 1.391 . S
H1454 C1462 0.950 . S
H1455 C1467 0.950 . S
H1456 C1464 0.950 . S
H1457 C1466 0.950 . S
H1458 C1468 0.950 . S
H1459 C1470 0.950 . S
H1460 C1472 0.950 . S
H1461 C1473 0.950 . S
C1462 H1454 0.950 . S
C1462 C1463 1.386 . S
C1462 C1464 1.391 . S
C1463 C1462 1.386 . S
C1463 C1467 1.393 . S
C1464 H1456 0.950 . S
C1464 C1462 1.391 . S
C1464 C1465 1.400 . S
C1465 C1464 1.400 . S
C1465 C1466 1.398 . S
C1465 C1471 1.491 . S
C1466 H1457 0.950 . S
C1466 C1465 1.398 . S
C1466 C1467 1.391 . S
C1467 H1455 0.950 . S
C1467 C1463 1.393 . S
C1467 C1466 1.391 . S
C1468 H1458 0.950 . S
C1468 C1469 1.386 . S
C1468 C1470 1.391 . S
C1469 C1468 1.386 . S
C1469 C1473 1.393 . S
C1470 H1459 0.950 . S
C1470 C1468 1.391 . S
C1470 C1471 1.400 . S
C1471 C1465 1.491 . S
C1471 C1470 1.400 . S
C1471 C1472 1.398 . S
C1472 H1460 0.950 . S
C1472 C1471 1.398 . S
C1472 C1473 1.391 . S
C1473 H1461 0.950 . S
C1473 C1469 1.393 . S
C1473 C1472 1.391 . S
H1474 C1482 0.950 . S
H1475 C1487 0.950 . S
H1476 C1484 0.950 . S
H1477 C1486 0.950 . S
H1478 C1488 0.950 . S
H1479 C1490 0.950 . S
H1480 C1492 0.950 . S
H1481 C1493 0.950 . S
C1482 H1474 0.950 . S
C1482 C1483 1.386 . S
C1482 C1484 1.391 . S
C1483 C1482 1.386 . S
C1483 C1487 1.393 . S
C1484 H1476 0.950 . S
C1484 C1482 1.391 . S
C1484 C1485 1.400 . S
C1485 C1484 1.400 . S
C1485 C1486 1.398 . S
C1485 C1491 1.491 . S
C1486 H1477 0.950 . S
C1486 C1485 1.398 . S
C1486 C1487 1.391 . S
C1487 H1475 0.950 . S
C1487 C1483 1.393 . S
C1487 C1486 1.391 . S
C1488 H1478 0.950 . S
C1488 C1489 1.386 . S
C1488 C1490 1.391 . S
C1489 C1488 1.386 . S
C1489 C1493 1.393 . S
C1490 H1479 0.950 . S
C1490 C1488 1.391 . S
C1490 C1491 1.400 . S
C1491 C1485 1.491 . S
C1491 C1490 1.400 . S
C1491 C1492 1.398 . S
C1492 H1480 0.950 . S
C1492 C1491 1.398 . S
C1492 C1493 1.391 . S
C1493 H1481 0.950 . S
C1493 C1489 1.393 . S
C1493 C1492 1.391 . S
C603 N332 1.727 . S
C609 N2 1.727 . S
C623 N35 1.715 . S
C629 N365 1.741 1_565 S
C643 N299 1.731 1_455 S
C649 N68 1.734 . S
C663 N464 1.744 . S
C669 N101 1.718 . S
C683 N134 1.721 . S
C689 N398 1.735 1_545 S
C703 N431 1.715 1_655 S
C709 N167 1.739 . S
C723 C172 1.751 . S
C729 C469 1.753 . S
C743 C403 1.757 . S
C749 C106 1.761 . S
C763 C436 1.763 . S
C769 C139 1.764 . S
C783 C40 1.751 . S
C789 C337 1.755 . S
C803 C73 1.757 . S
C809 C370 1.761 . S
C823 C7 1.750 . S
C829 C304 1.750 . S
C843 N530 1.744 . S
C849 N200 1.717 . S
C863 N563 1.744 . S
C869 N233 1.716 . S
C883 N497 1.725 . S
C889 N266 1.730 . S
C903 C238 1.750 . S
C909 C535 1.752 . S
C923 C568 1.750 . S
C929 C271 1.752 . S
C943 C205 1.760 . S
C949 C502 1.763 . S
C963 C21 1.336 . S
C969 C582 1.336 . S
C983 C54 1.324 . S
C989 C516 1.325 . S
C1003 C87 1.322 . S
C1009 C549 1.322 . S
C1023 C252 1.322 . S
C1029 C120 1.323 . S
C1043 C153 1.331 . S
C1049 C285 1.329 . S
C1063 C186 1.336 . S
C1069 C219 1.335 . S
C1083 C318 1.322 . S
C1089 C450 1.322 . S
C1103 C351 1.333 . S
C1109 C483 1.332 . S
C1123 C384 1.323 . S
C1129 C417 1.322 . S
C1143 N79 1.418 1_545 S
C1149 C18 1.427 . S
C1163 C51 1.428 . S
C1169 N13 1.414 1_655 S
C1183 N46 1.420 . S
C1189 C84 1.430 . S
C1203 N145 1.411 1_455 S
C1209 C117 1.421 . S
C1223 C150 1.423 . S
C1229 N178 1.407 . S
C1243 N112 1.402 1_565 S
C1249 C183 1.414 . S
C1263 C216 1.421 . S
C1269 N277 1.410 . S
C1283 N211 1.422 . S
C1289 C249 1.434 . S
C1303 C282 1.432 . S
C1309 N244 1.422 . S
C1323 C315 1.434 . S
C1329 N343 1.423 . S
C1343 N376 1.422 . S
C1349 C348 1.431 . S
C1363 C381 1.433 . S
C1369 N310 1.423 . S
C1383 C414 1.416 . S
C1389 N475 1.400 . S
C1403 N409 1.399 . S
C1409 C447 1.414 . S
C1423 C480 1.434 . S
C1429 N442 1.423 . S
C1443 C513 1.414 . S
C1449 N541 1.400 . S
C1463 N574 1.399 . S
C1469 C546 1.414 . S
C1483 N508 1.417 . S
C1489 C579 1.431 . S
