# Generated by pormake.
# Topology uol, (4)-cn, num edge types: 1
# Building blocks:
#     Node 0, Type 0, BuildingBlock: KUFVIS_clean_sbu_0, # of connection points: 4
#     Node 1, Type 0, BuildingBlock: KUFVIS_clean_sbu_0, # of connection points: 4
#     Node 2, Type 0, BuildingBlock: KUFVIS_clean_sbu_0, # of connection points: 4
#     Node 3, Type 0, BuildingBlock: KUFVIS_clean_sbu_0, # of connection points: 4
#     Node 4, Type 0, BuildingBlock: KUFVIS_clean_sbu_0, # of connection points: 4
#     Node 5, Type 0, BuildingBlock: KUFVIS_clean_sbu_0, # of connection points: 4
#     Node 6, Type 0, BuildingBlock: KUFVIS_clean_sbu_0, # of connection points: 4
#     Node 7, Type 0, BuildingBlock: KUFVIS_clean_sbu_0, # of connection points: 4
#     Node 8, Type 0, BuildingBlock: KUFVIS_clean_sbu_0, # of connection points: 4
#     Node 9, Type 0, BuildingBlock: KUFVIS_clean_sbu_0, # of connection points: 4
#     Node 10, Type 0, BuildingBlock: KUFVIS_clean_sbu_0, # of connection points: 4
#     Node 11, Type 0, BuildingBlock: KUFVIS_clean_sbu_0, # of connection points: 4
#     Edge 12, Type (0, 0), None
#     Edge 13, Type (0, 0), None
#     Edge 14, Type (0, 0), None
#     Edge 15, Type (0, 0), None
#     Edge 16, Type (0, 0), None
#     Edge 17, Type (0, 0), None
#     Edge 18, Type (0, 0), None
#     Edge 19, Type (0, 0), None
#     Edge 20, Type (0, 0), None
#     Edge 21, Type (0, 0), None
#     Edge 22, Type (0, 0), None
#     Edge 23, Type (0, 0), None
#     Edge 24, Type (0, 0), None
#     Edge 25, Type (0, 0), None
#     Edge 26, Type (0, 0), None
#     Edge 27, Type (0, 0), None
#     Edge 28, Type (0, 0), None
#     Edge 29, Type (0, 0), None
#     Edge 30, Type (0, 0), None
#     Edge 31, Type (0, 0), None
#     Edge 32, Type (0, 0), None
#     Edge 33, Type (0, 0), None
#     Edge 34, Type (0, 0), None
#     Edge 35, Type (0, 0), None
# Relax obj value: 0.127
# Max RMSD: 0.194
# Mean RMSD: 0.194
data_MOF--net-uol--node1-KUFVIS_clean_sbu_0--edge1-none
_symmetry_space_group_name_H-M    P1
_symmetry_Int_Tables_number       1
_symmetry_cell_setting            triclinic
loop_
_symmetry_equiv_pos_as_xyz
'x, y, z'
_cell_length_a     14.253861
_cell_length_b     14.253623
_cell_length_c     31.851359
_cell_angle_alpha  89.999893
_cell_angle_beta   90.000041
_cell_angle_gamma 120.00111
loop_
_atom_site_label
_atom_site_type_symbol
_atom_site_fract_x
_atom_site_fract_y
_atom_site_fract_z
_atom_type_partial_charge
Mn0 Mn 0.22276 0.35917 0.08427 0.0
Mn1 Mn 0.29581 0.53967 0.16589 0.0
C2 C 0.34269 0.36721 0.14108 0.0
C3 C 0.23529 0.22426 0.03672 0.0
C4 C 0.09908 0.30152 0.17039 0.0
O5 O 0.16117 0.45896 0.06871 0.0
O6 O 0.19399 0.55364 0.12764 0.0
C7 C 0.41026 0.74909 0.12055 0.0
N8 N 0.41504 0.67391 0.1453 0.0
C9 C 0.60565 0.79615 0.15613 0.0
C10 C 0.60524 0.85908 0.12305 0.0
C11 C 0.50578 0.83946 0.10681 0.0
C12 C 0.50898 0.70026 0.16498 0.0
H13 H 0.33546 0.73801 0.10927 0.0
C14 C 0.15759 0.53243 0.09049 0.0
O15 O 0.26918 0.2441 0.07514 0.0
O16 O 0.17282 0.2631 0.02899 0.0
N17 N 0.40174 0.55316 0.20628 0.0
C18 C 0.37648 0.50967 0.24453 0.0
C19 C 0.45139 0.54784 0.27734 0.0
C20 C 0.55086 0.64151 0.27144 0.0
C21 C 0.5795 0.68606 0.23123 0.0
C22 C 0.50027 0.64073 0.19954 0.0
H23 H 0.29722 0.44873 0.24793 0.0
O24 O 0.29919 0.28881 0.11421 0.0
O25 O 0.3259 0.44603 0.13097 0.0
O26 O 0.09691 0.27301 0.13099 0.0
O27 O 0.17357 0.3943 0.18456 0.0
C28 C 0.67888 0.78011 0.22248 0.0
C29 C 0.69403 0.83211 0.18364 0.0
H30 H 0.6804 0.92553 0.11198 0.0
H31 H 0.50172 0.89028 0.0826 0.0
H32 H 0.43212 0.50663 0.30707 0.0
H33 H 0.60375 0.67827 0.29812 0.0
H34 H 0.7419 0.81652 0.246 0.0
H35 H 0.76914 0.90658 0.17754 0.0
Mn36 Mn 0.86337 0.22287 0.25093 0.0
Mn37 Mn 0.75593 0.29592 0.33256 0.0
C38 C 0.97527 0.34281 0.30774 0.0
C39 C 0.01078 0.23553 0.20338 0.0
C40 C 0.79736 0.0992 0.33705 0.0
O41 O 0.70199 0.16125 0.23539 0.0
O42 O 0.64014 0.1941 0.29431 0.0
C43 C 0.66098 0.41037 0.28721 0.0
N44 N 0.74093 0.41515 0.31197 0.0
C45 C 0.80931 0.60576 0.3228 0.0
C46 C 0.74599 0.60536 0.28972 0.0
C47 C 0.66615 0.5059 0.27347 0.0
C48 C 0.80852 0.50909 0.33165 0.0
H49 H 0.59726 0.33557 0.27593 0.0
C50 C 0.62494 0.15768 0.25716 0.0
O51 O 0.02488 0.26936 0.24181 0.0
O52 O 0.90949 0.17293 0.19564 0.0
N53 N 0.84838 0.40185 0.37295 0.0
C54 C 0.86661 0.37659 0.4112 0.0
C55 C 0.90334 0.4515 0.44401 0.0
C56 C 0.90915 0.55098 0.43811 0.0
C57 C 0.89324 0.57961 0.39789 0.0
C58 C 0.85934 0.50038 0.36621 0.0
H59 H 0.84829 0.29733 0.4146 0.0
O60 O 0.01019 0.29934 0.28087 0.0
O61 O 0.87966 0.32601 0.29764 0.0
O62 O 0.82371 0.09703 0.29765 0.0
O63 O 0.77907 0.17368 0.35123 0.0
C64 C 0.89856 0.67899 0.38915 0.0
C65 C 0.86173 0.69414 0.35031 0.0
H66 H 0.7547 0.68052 0.27864 0.0
H67 H 0.61127 0.50184 0.24926 0.0
H68 H 0.92528 0.43223 0.47374 0.0
H69 H 0.92529 0.60387 0.46479 0.0
H70 H 0.92518 0.74201 0.41267 0.0
H71 H 0.86238 0.76926 0.3442 0.0
Mn72 Mn 0.6403 0.86348 0.4176 0.0
Mn73 Mn 0.45981 0.75602 0.49922 0.0
C74 C 0.63223 0.97537 0.47441 0.0
C75 C 0.77505 0.01089 0.37005 0.0
C76 C 0.69796 0.79747 0.50372 0.0
O77 O 0.54054 0.70209 0.40206 0.0
O78 O 0.44584 0.64024 0.46097 0.0
C79 C 0.2504 0.66106 0.45387 0.0
N80 N 0.32558 0.74102 0.47863 0.0
C81 C 0.20336 0.80941 0.48945 0.0
C82 C 0.14043 0.74608 0.45637 0.0
C83 C 0.16004 0.66623 0.44013 0.0
C84 C 0.29923 0.80862 0.49831 0.0
H85 H 0.26148 0.59734 0.4426 0.0
C86 C 0.46707 0.62504 0.42382 0.0
O87 O 0.75531 0.025 0.40848 0.0
O88 O 0.73636 0.90961 0.36231 0.0
N89 N 0.44632 0.84847 0.53961 0.0
C90 C 0.48978 0.86666 0.57787 0.0
C91 C 0.4516 0.9034 0.61068 0.0
C92 C 0.35795 0.90923 0.60477 0.0
C93 C 0.31343 0.89334 0.56455 0.0
C94 C 0.35876 0.85944 0.53287 0.0
H95 H 0.55069 0.84831 0.58127 0.0
O96 O 0.71063 0.0103 0.44754 0.0
O97 O 0.55344 0.87975 0.4643 0.0
O98 O 0.72648 0.82383 0.46432 0.0
O99 O 0.60518 0.77916 0.5179 0.0
C100 C 0.21939 0.89868 0.5558 0.0
C101 C 0.1674 0.86184 0.51696 0.0
H102 H 0.07399 0.7548 0.4453 0.0
H103 H 0.10922 0.61135 0.41592 0.0
H104 H 0.4928 0.92532 0.64041 0.0
H105 H 0.32119 0.92536 0.63145 0.0
H106 H 0.18298 0.9253 0.57932 0.0
H107 H 0.09294 0.86249 0.51085 0.0
Mn108 Mn 0.77664 0.64042 0.58426 0.0
Mn109 Mn 0.7036 0.45993 0.66589 0.0
C110 C 0.65669 0.63236 0.64108 0.0
C111 C 0.76396 0.77517 0.53671 0.0
C112 C 0.90031 0.69808 0.67039 0.0
O113 O 0.83826 0.54066 0.56872 0.0
O114 O 0.80542 0.44596 0.62764 0.0
C115 C 0.58916 0.2505 0.62054 0.0
N116 N 0.58438 0.32568 0.6453 0.0
C117 C 0.39377 0.20345 0.65613 0.0
C118 C 0.39417 0.14052 0.62305 0.0
C119 C 0.49363 0.16014 0.6068 0.0
C120 C 0.49043 0.29933 0.66498 0.0
H121 H 0.66396 0.26159 0.60927 0.0
C122 C 0.84184 0.46719 0.59049 0.0
O123 O 0.73013 0.75544 0.57515 0.0
O124 O 0.82656 0.73648 0.52898 0.0
N125 N 0.59767 0.44643 0.70628 0.0
C126 C 0.62292 0.48993 0.74453 0.0
C127 C 0.54802 0.45176 0.77734 0.0
C128 C 0.44854 0.35808 0.77144 0.0
C129 C 0.41991 0.31353 0.73122 0.0
C130 C 0.49914 0.35886 0.69954 0.0
H131 H 0.70218 0.55088 0.74793 0.0
O132 O 0.70016 0.71076 0.61421 0.0
O133 O 0.67351 0.55356 0.63097 0.0
O134 O 0.90248 0.7266 0.63099 0.0
O135 O 0.82583 0.6053 0.68456 0.0
C136 C 0.32053 0.21949 0.72248 0.0
C137 C 0.30538 0.16749 0.68364 0.0
H138 H 0.31901 0.07408 0.61197 0.0
H139 H 0.49769 0.10932 0.5826 0.0
H140 H 0.56728 0.49297 0.80707 0.0
H141 H 0.39565 0.32133 0.79812 0.0
H142 H 0.2575 0.18308 0.746 0.0
H143 H 0.23027 0.09302 0.67753 0.0
Mn144 Mn 0.13601 0.77672 0.75093 0.0
Mn145 Mn 0.24345 0.70367 0.83256 0.0
C146 C 0.02412 0.65678 0.80775 0.0
C147 C 0.98862 0.76408 0.70338 0.0
C148 C 0.20203 0.9004 0.83705 0.0
O149 O 0.29739 0.83832 0.73539 0.0
O150 O 0.35924 0.80548 0.79431 0.0
C151 C 0.33841 0.58921 0.78722 0.0
N152 N 0.25845 0.58444 0.81197 0.0
C153 C 0.19008 0.39382 0.82281 0.0
C154 C 0.25341 0.39423 0.78973 0.0
C155 C 0.33324 0.49368 0.77348 0.0
C156 C 0.19086 0.49049 0.83166 0.0
H157 H 0.40213 0.66401 0.77594 0.0
C158 C 0.37444 0.8419 0.75716 0.0
O159 O 0.9745 0.73024 0.74181 0.0
O160 O 0.0899 0.82667 0.69564 0.0
N161 N 0.151 0.59774 0.87295 0.0
C162 C 0.13278 0.62301 0.9112 0.0
C163 C 0.09605 0.54811 0.94401 0.0
C164 C 0.09024 0.44863 0.93812 0.0
C165 C 0.10614 0.41999 0.8979 0.0
C166 C 0.14004 0.49921 0.86621 0.0
H167 H 0.15111 0.70227 0.9146 0.0
O168 O 0.9892 0.70026 0.78087 0.0
O169 O 0.11973 0.67358 0.79764 0.0
O170 O 0.17569 0.90257 0.79765 0.0
O171 O 0.22032 0.82591 0.85123 0.0
C172 C 0.10082 0.32061 0.88916 0.0
C173 C 0.13766 0.30545 0.85032 0.0
H174 H 0.2447 0.31907 0.77866 0.0
H175 H 0.38812 0.49774 0.74927 0.0
H176 H 0.07412 0.56739 0.97374 0.0
H177 H 0.07411 0.39575 0.9648 0.0
H178 H 0.0742 0.25759 0.91268 0.0
H179 H 0.13701 0.23033 0.84422 0.0
Mn180 Mn 0.35909 0.13613 0.9176 0.0
Mn181 Mn 0.53957 0.2436 -0.00077 0.0
C182 C 0.36716 0.02425 0.97441 0.0
C183 C 0.22435 0.98871 0.87004 0.0
C184 C 0.30139 0.20211 0.00372 0.0
O185 O 0.45884 0.29753 0.90206 0.0
O186 O 0.55353 0.35939 0.96098 0.0
C187 C 0.74899 0.33858 0.95388 0.0
N188 N 0.67381 0.25862 0.97864 0.0
C189 C 0.79603 0.19023 0.98946 0.0
C190 C 0.85896 0.25357 0.95639 0.0
C191 C 0.83934 0.33341 0.94014 0.0
C192 C 0.70015 0.19102 -0.00168 0.0
H193 H 0.73791 0.4023 0.94261 0.0
C194 C 0.53231 0.37458 0.92383 0.0
O195 O 0.24409 0.97461 0.90848 0.0
O196 O 0.26303 0.08999 0.86231 0.0
N197 N 0.55306 0.15116 0.03962 0.0
C198 C 0.50957 0.13293 0.07787 0.0
C199 C 0.54773 0.09618 0.11067 0.0
C200 C 0.6414 0.09037 0.10478 0.0
C201 C 0.68595 0.10628 0.06456 0.0
C202 C 0.64062 0.1402 0.03288 0.0
H203 H 0.44864 0.15125 0.08127 0.0
O204 O 0.28877 0.98931 0.94754 0.0
O205 O 0.44595 0.11987 0.96431 0.0
O206 O 0.27288 0.17575 0.96432 0.0
O207 O 0.39418 0.22044 0.0179 0.0
C208 C 0.77999 0.10095 0.05581 0.0
C209 C 0.83199 0.1378 0.01697 0.0
H210 H 0.92539 0.24484 0.9453 0.0
H211 H 0.89016 0.38829 0.91593 0.0
H212 H 0.50652 0.07423 0.1404 0.0
H213 H 0.67815 0.07422 0.13145 0.0
H214 H 0.8164 0.07433 0.07933 0.0
H215 H 0.90645 0.13715 0.01086 0.0
Mn216 Mn 0.64027 0.77671 0.74122 0.0
Mn217 Mn 0.45978 0.70371 0.65959 0.0
C218 C 0.63228 0.65691 0.6844 0.0
C219 C 0.77519 0.76419 0.78877 0.0
C220 C 0.69793 0.90042 0.6551 0.0
O221 O 0.54047 0.83827 0.75678 0.0
O222 O 0.44584 0.80554 0.69784 0.0
C223 C 0.25032 0.58927 0.70491 0.0
N224 N 0.32553 0.58448 0.68017 0.0
C225 C 0.2033 0.39387 0.66934 0.0
C226 C 0.14035 0.39428 0.70241 0.0
C227 C 0.15995 0.49375 0.71865 0.0
C228 C 0.29919 0.49053 0.66049 0.0
H229 H 0.26139 0.66408 0.71616 0.0
C230 C 0.4671 0.84197 0.73499 0.0
O231 O 0.75536 0.73031 0.75034 0.0
O232 O 0.73634 0.82665 0.7965 0.0
N233 N 0.44628 0.59778 0.6192 0.0
C234 C 0.48976 0.62304 0.58094 0.0
C235 C 0.45158 0.54814 0.54813 0.0
C236 C 0.35792 0.44866 0.55403 0.0
C237 C 0.31339 0.42001 0.59425 0.0
C238 C 0.35872 0.49925 0.62594 0.0
H239 H 0.55071 0.7023 0.57754 0.0
O240 O 0.71068 0.70032 0.71127 0.0
O241 O 0.5534 0.67359 0.69451 0.0
O242 O 0.72642 0.90259 0.6945 0.0
O243 O 0.60516 0.82593 0.64092 0.0
C244 C 0.21935 0.32063 0.603 0.0
C245 C 0.16735 0.30548 0.64184 0.0
H246 H 0.0739 0.31913 0.71349 0.0
H247 H 0.10912 0.49783 0.74284 0.0
H248 H 0.49279 0.56742 0.5184 0.0
H249 H 0.32116 0.39577 0.52735 0.0
H250 H 0.18295 0.2576 0.57948 0.0
H251 H 0.09288 0.23036 0.64794 0.0
Mn252 Mn 0.86335 0.64039 0.90789 0.0
Mn253 Mn 0.75583 0.4599 0.82625 0.0
C254 C 0.97514 0.63236 0.85106 0.0
C255 C 0.01082 0.77528 0.95544 0.0
C256 C 0.79734 0.69808 0.82176 0.0
O257 O 0.70197 0.54061 0.92344 0.0
O258 O 0.64005 0.44597 0.8645 0.0
C259 C 0.66079 0.25044 0.87158 0.0
N260 N 0.74078 0.32564 0.84684 0.0
C261 C 0.80918 0.20342 0.83602 0.0
C262 C 0.74581 0.14048 0.86909 0.0
C263 C 0.66595 0.16008 0.88532 0.0
C264 C 0.80839 0.2993 0.82716 0.0
H265 H 0.59704 0.2615 0.88283 0.0
C266 C 0.6249 0.46724 0.90165 0.0
O267 O 0.02486 0.75545 0.91701 0.0
O268 O 0.90951 0.73646 0.96317 0.0
N269 N 0.84825 0.44639 0.78586 0.0
C270 C 0.86647 0.48986 0.74761 0.0
C271 C 0.90322 0.45169 0.7148 0.0
C272 C 0.90904 0.35803 0.72071 0.0
C273 C 0.89314 0.31351 0.76093 0.0
C274 C 0.85922 0.35883 0.79261 0.0
H275 H 0.84816 0.55081 0.74421 0.0
O276 O 0.01016 0.71076 0.87794 0.0
O277 O 0.87957 0.5535 0.86118 0.0
O278 O 0.82369 0.72657 0.86116 0.0
O279 O 0.77901 0.60529 0.80758 0.0
C280 C 0.89849 0.21947 0.76968 0.0
C281 C 0.86163 0.16747 0.80852 0.0
H282 H 0.75454 0.07405 0.88018 0.0
H283 H 0.61104 0.10924 0.90952 0.0
H284 H 0.92516 0.4929 0.68508 0.0
H285 H 0.92518 0.32128 0.69403 0.0
H286 H 0.92513 0.18307 0.74617 0.0
H287 H 0.86228 0.09301 0.81463 0.0
Mn288 Mn 0.22279 0.86346 0.07455 0.0
Mn289 Mn 0.29576 0.75596 0.99292 0.0
C290 C 0.3426 0.97527 0.01773 0.0
C291 C 0.23533 0.0109 0.1221 0.0
C292 C 0.09908 0.79744 0.98843 0.0
O293 O 0.16121 0.70208 0.09011 0.0
O294 O 0.19393 0.64017 0.03117 0.0
C295 C 0.4102 0.66094 0.03824 0.0
N296 N 0.41499 0.74093 0.0135 0.0
C297 C 0.6056 0.80932 0.00267 0.0
C298 C 0.60518 0.74596 0.03574 0.0
C299 C 0.50572 0.6661 0.05198 0.0
C300 C 0.50893 0.80854 0.99382 0.0
H301 H 0.33539 0.59719 0.04949 0.0
C302 C 0.15751 0.62502 0.06831 0.0
O303 O 0.26922 0.02496 0.08368 0.0
O304 O 0.17286 0.90959 0.12983 0.0
N305 N 0.40169 0.84839 0.95252 0.0
C306 C 0.37643 0.86659 0.91427 0.0
C307 C 0.45133 0.90333 0.88146 0.0
C308 C 0.55081 0.90916 0.88736 0.0
C309 C 0.57946 0.89327 0.92758 0.0
C310 C 0.50023 0.85936 0.95926 0.0
H311 H 0.29716 0.84826 0.91087 0.0
O312 O 0.29921 0.01027 0.0446 0.0
O313 O 0.3259 0.8797 0.02784 0.0
O314 O 0.09693 0.82378 0.02783 0.0
O315 O 0.17355 0.77912 0.97424 0.0
C316 C 0.67884 0.89861 0.93633 0.0
C317 C 0.69399 0.86176 0.97516 0.0
H318 H 0.68034 0.75467 0.04682 0.0
H319 H 0.50165 0.61119 0.07618 0.0
H320 H 0.43206 0.92526 0.85173 0.0
H321 H 0.6037 0.9253 0.86068 0.0
H322 H 0.74187 0.92525 0.91281 0.0
H323 H 0.7691 0.86241 0.98127 0.0
Mn324 Mn 0.35912 0.22288 0.24122 0.0
Mn325 Mn 0.53959 0.29584 0.15958 0.0
C326 C 0.36711 0.34267 0.18439 0.0
C327 C 0.22421 0.23542 0.28877 0.0
C328 C 0.30143 0.09916 0.1551 0.0
O329 O 0.45891 0.1613 0.25678 0.0
O330 O 0.55353 0.19401 0.19784 0.0
C331 C 0.74906 0.41028 0.2049 0.0
N332 N 0.67385 0.41507 0.18016 0.0
C333 C 0.79609 0.60568 0.16933 0.0
C334 C 0.85904 0.60527 0.2024 0.0
C335 C 0.83943 0.5058 0.21864 0.0
C336 C 0.7002 0.50901 0.16048 0.0
H337 H 0.738 0.33547 0.21615 0.0
C338 C 0.53228 0.1576 0.23499 0.0
O339 O 0.24404 0.2693 0.25034 0.0
O340 O 0.26305 0.17295 0.2965 0.0
N341 N 0.55309 0.40178 0.11919 0.0
C342 C 0.50959 0.37652 0.08094 0.0
C343 C 0.54776 0.45142 0.04813 0.0
C344 C 0.64143 0.5509 0.05403 0.0
C345 C 0.68598 0.57954 0.09424 0.0
C346 C 0.64066 0.5003 0.12593 0.0
H347 H 0.44862 0.29727 0.07755 0.0
O348 O 0.28872 0.29928 0.21127 0.0
O349 O 0.44599 0.32598 0.19451 0.0
O350 O 0.27294 0.097 0.1945 0.0
O351 O 0.3942 0.17363 0.14092 0.0
C352 C 0.78003 0.67892 0.10299 0.0
C353 C 0.83204 0.69407 0.14182 0.0
H354 H 0.92548 0.68042 0.21348 0.0
H355 H 0.89027 0.50173 0.24283 0.0
H356 H 0.50653 0.43216 0.01841 0.0
H357 H 0.67818 0.60379 0.02735 0.0
H358 H 0.81642 0.74195 0.07947 0.0
H359 H 0.90651 0.76919 0.14793 0.0
Mn360 Mn 0.13603 0.35922 0.40788 0.0
Mn361 Mn 0.24356 0.5397 0.32625 0.0
C362 C 0.02424 0.36723 0.35106 0.0
C363 C 0.98857 0.22431 0.45543 0.0
C364 C 0.20206 0.30153 0.32176 0.0
O365 O 0.29741 0.459 0.42345 0.0
O366 O 0.35933 0.55364 0.3645 0.0
C367 C 0.3386 0.74917 0.37157 0.0
N368 N 0.2586 0.67396 0.34683 0.0
C369 C 0.19021 0.79618 0.33601 0.0
C370 C 0.25358 0.85913 0.36908 0.0
C371 C 0.33345 0.83954 0.38531 0.0
C372 C 0.19099 0.7003 0.32716 0.0
H373 H 0.40235 0.73811 0.38282 0.0
C374 C 0.37448 0.53237 0.40165 0.0
O375 O 0.97453 0.24415 0.41701 0.0
O376 O 0.08988 0.26314 0.46317 0.0
N377 N 0.15113 0.5532 0.28586 0.0
C378 C 0.13292 0.50973 0.2476 0.0
C379 C 0.09618 0.5479 0.2148 0.0
C380 C 0.09035 0.64155 0.2207 0.0
C381 C 0.10624 0.68609 0.26092 0.0
C382 C 0.14016 0.64076 0.2926 0.0
H383 H 0.15123 0.44878 0.24421 0.0
O384 O 0.98923 0.28883 0.37793 0.0
O385 O 0.11981 0.4461 0.36118 0.0
O386 O 0.17571 0.27304 0.36117 0.0
O387 O 0.22038 0.39431 0.30758 0.0
C388 C 0.1009 0.78012 0.26967 0.0
C389 C 0.13776 0.83213 0.3085 0.0
H390 H 0.24486 0.92557 0.38016 0.0
H391 H 0.38836 0.89037 0.4095 0.0
H392 H 0.07424 0.50669 0.18507 0.0
H393 H 0.07422 0.67831 0.19402 0.0
H394 H 0.07425 0.81651 0.24615 0.0
H395 H 0.13711 0.90659 0.31461 0.0
Mn396 Mn 0.7766 0.13614 0.57455 0.0
Mn397 Mn 0.70365 0.24367 0.49291 0.0
C398 C 0.65678 0.02435 0.51773 0.0
C399 C 0.76393 0.98873 0.62211 0.0
C400 C 0.90031 0.20216 0.48843 0.0
O401 O 0.83822 0.29753 0.59011 0.0
O402 O 0.80548 0.35944 0.53117 0.0
C403 C 0.58921 0.33869 0.53824 0.0
N404 N 0.58443 0.2587 0.5135 0.0
C405 C 0.39381 0.1903 0.50267 0.0
C406 C 0.39423 0.25366 0.53575 0.0
C407 C 0.49369 0.33352 0.55198 0.0
C408 C 0.49048 0.19109 0.49382 0.0
H409 H 0.66402 0.40243 0.5495 0.0
C410 C 0.84191 0.3746 0.56831 0.0
O411 O 0.7301 0.97463 0.58367 0.0
O412 O 0.82653 0.09001 0.62984 0.0
N413 N 0.59772 0.15124 0.45252 0.0
C414 C 0.62298 0.13303 0.41427 0.0
C415 C 0.54807 0.09628 0.38146 0.0
C416 C 0.44859 0.09046 0.38736 0.0
C417 C 0.41995 0.10635 0.42758 0.0
C418 C 0.49919 0.14027 0.45926 0.0
H419 H 0.70224 0.15134 0.41087 0.0
O420 O 0.70015 0.98933 0.5446 0.0
O421 O 0.6735 0.11992 0.52784 0.0
O422 O 0.90246 0.1758 0.52783 0.0
O423 O 0.82586 0.2205 0.47425 0.0
C424 C 0.32057 0.101 0.43633 0.0
C425 C 0.30542 0.13786 0.47517 0.0
H426 H 0.31907 0.24493 0.54683 0.0
H427 H 0.49776 0.38842 0.57618 0.0
H428 H 0.56734 0.07434 0.35173 0.0
H429 H 0.3957 0.07432 0.36069 0.0
H430 H 0.25753 0.07436 0.41281 0.0
H431 H 0.2303 0.1372 0.48128 0.0
loop_
_geom_bond_atom_site_label_1
_geom_bond_atom_site_label_2
_geom_bond_distance
_geom_bond_site_symmetry_2
_ccdc_geom_bond_type
Mn0 O5 2.095 . S
Mn0 O15 2.162 . S
Mn0 O16 2.297 . S
Mn0 O24 2.385 . S
Mn0 O25 2.209 . S
Mn0 O26 2.094 . S
Mn1 O6 2.121 . S
Mn1 N8 2.257 . S
Mn1 N17 2.282 . S
Mn1 O25 2.215 . S
Mn1 O27 2.117 . S
C2 O24 1.234 . S
C2 O25 1.283 . S
C3 O15 1.281 . S
C3 O16 1.236 . S
C4 O26 1.240 . S
C4 O27 1.264 . S
O5 Mn0 2.095 . S
O5 C14 1.250 . S
O6 Mn1 2.121 . S
O6 C14 1.258 . S
C7 N8 1.326 . S
C7 C11 1.460 . S
C7 H13 0.929 . S
N8 Mn1 2.257 . S
N8 C7 1.326 . S
N8 C12 1.362 . S
C9 C10 1.258 . S
C9 C12 1.431 . S
C9 C29 1.449 . S
C10 C9 1.258 . S
C10 C11 1.477 . S
C10 H30 0.931 . S
C11 C7 1.460 . S
C11 C10 1.477 . S
C11 H31 0.930 . S
C12 N8 1.362 . S
C12 C9 1.431 . S
C12 C22 1.476 . S
H13 C7 0.929 . S
C14 O5 1.250 . S
C14 O6 1.258 . S
O15 Mn0 2.162 . S
O15 C3 1.281 . S
O16 Mn0 2.297 . S
O16 C3 1.236 . S
N17 Mn1 2.282 . S
N17 C18 1.328 . S
N17 C22 1.318 . S
C18 N17 1.328 . S
C18 C19 1.457 . S
C18 H23 0.929 . S
C19 C18 1.457 . S
C19 C20 1.291 . S
C19 H32 0.931 . S
C20 C19 1.291 . S
C20 C21 1.373 . S
C20 H33 0.929 . S
C21 C20 1.373 . S
C21 C22 1.396 . S
C21 C28 1.403 . S
C22 C12 1.476 . S
C22 N17 1.318 . S
C22 C21 1.396 . S
H23 C18 0.929 . S
O24 Mn0 2.385 . S
O24 C2 1.234 . S
O25 Mn0 2.209 . S
O25 Mn1 2.215 . S
O25 C2 1.283 . S
O26 Mn0 2.094 . S
O26 C4 1.240 . S
O27 Mn1 2.117 . S
O27 C4 1.264 . S
C28 C21 1.403 . S
C28 C29 1.399 . S
C28 H34 0.929 . S
C29 C9 1.449 . S
C29 C28 1.399 . S
C29 H35 0.930 . S
H30 C10 0.931 . S
H31 C11 0.930 . S
H32 C19 0.931 . S
H33 C20 0.929 . S
H34 C28 0.929 . S
H35 C29 0.930 . S
Mn36 O41 2.095 . S
Mn36 O51 2.162 . S
Mn36 O52 2.297 . S
Mn36 O60 2.385 . S
Mn36 O61 2.209 . S
Mn36 O62 2.094 . S
Mn37 O42 2.121 . S
Mn37 N44 2.257 . S
Mn37 N53 2.282 . S
Mn37 O61 2.215 . S
Mn37 O63 2.117 . S
C38 O60 1.234 . S
C38 O61 1.283 . S
C39 O51 1.281 . S
C39 O52 1.236 . S
C40 O62 1.240 . S
C40 O63 1.264 . S
O41 Mn36 2.095 . S
O41 C50 1.250 . S
O42 Mn37 2.121 . S
O42 C50 1.258 . S
C43 N44 1.326 . S
C43 C47 1.460 . S
C43 H49 0.929 . S
N44 Mn37 2.257 . S
N44 C43 1.326 . S
N44 C48 1.362 . S
C45 C46 1.258 . S
C45 C48 1.431 . S
C45 C65 1.449 . S
C46 C45 1.258 . S
C46 C47 1.477 . S
C46 H66 0.931 . S
C47 C43 1.460 . S
C47 C46 1.477 . S
C47 H67 0.930 . S
C48 N44 1.362 . S
C48 C45 1.431 . S
C48 C58 1.476 . S
H49 C43 0.929 . S
C50 O41 1.250 . S
C50 O42 1.258 . S
O51 Mn36 2.162 . S
O51 C39 1.281 . S
O52 Mn36 2.297 . S
O52 C39 1.236 . S
N53 Mn37 2.282 . S
N53 C54 1.328 . S
N53 C58 1.318 . S
C54 N53 1.328 . S
C54 C55 1.457 . S
C54 H59 0.929 . S
C55 C54 1.457 . S
C55 C56 1.291 . S
C55 H68 0.931 . S
C56 C55 1.291 . S
C56 C57 1.373 . S
C56 H69 0.929 1_655 S
C57 C56 1.373 . S
C57 C58 1.396 . S
C57 C64 1.403 . S
C58 C48 1.476 . S
C58 N53 1.318 . S
C58 C57 1.396 . S
H59 C54 0.929 . S
O60 Mn36 2.385 . S
O60 C38 1.234 . S
O61 Mn36 2.209 . S
O61 Mn37 2.215 . S
O61 C38 1.283 . S
O62 Mn36 2.094 . S
O62 C40 1.240 . S
O63 Mn37 2.117 . S
O63 C40 1.264 . S
C64 C57 1.403 . S
C64 C65 1.399 . S
C64 H70 0.929 1_655 S
C65 C45 1.449 . S
C65 C64 1.399 . S
C65 H71 0.930 . S
H66 C46 0.931 . S
H67 C47 0.930 . S
H68 C55 0.931 . S
H69 C56 0.929 1_455 S
H70 C64 0.929 1_455 S
H71 C65 0.930 . S
Mn72 O77 2.095 . S
Mn72 O87 2.162 . S
Mn72 O88 2.297 . S
Mn72 O96 2.385 . S
Mn72 O97 2.209 . S
Mn72 O98 2.094 . S
Mn73 O78 2.121 . S
Mn73 N80 2.257 . S
Mn73 N89 2.282 . S
Mn73 O97 2.215 . S
Mn73 O99 2.117 . S
C74 O96 1.234 . S
C74 O97 1.283 . S
C75 O87 1.281 . S
C75 O88 1.236 . S
C76 O98 1.240 . S
C76 O99 1.264 . S
O77 Mn72 2.095 . S
O77 C86 1.250 . S
O78 Mn73 2.121 . S
O78 C86 1.258 . S
C79 N80 1.326 . S
C79 C83 1.460 . S
C79 H85 0.929 . S
N80 Mn73 2.257 . S
N80 C79 1.326 . S
N80 C84 1.362 . S
C81 C82 1.258 . S
C81 C84 1.431 . S
C81 C101 1.449 . S
C82 C81 1.258 . S
C82 C83 1.477 . S
C82 H102 0.931 . S
C83 C79 1.460 . S
C83 C82 1.477 . S
C83 H103 0.930 . S
C84 N80 1.362 . S
C84 C81 1.431 . S
C84 C94 1.476 . S
H85 C79 0.929 . S
C86 O77 1.250 . S
C86 O78 1.258 . S
O87 Mn72 2.162 . S
O87 C75 1.281 . S
O88 Mn72 2.297 . S
O88 C75 1.236 . S
N89 Mn73 2.282 . S
N89 C90 1.328 . S
N89 C94 1.318 . S
C90 N89 1.328 . S
C90 C91 1.457 . S
C90 H95 0.929 . S
C91 C90 1.457 . S
C91 C92 1.291 . S
C91 H104 0.931 . S
C92 C91 1.291 . S
C92 C93 1.373 . S
C92 H105 0.929 1_565 S
C93 C92 1.373 . S
C93 C94 1.396 . S
C93 C100 1.403 . S
C94 C84 1.476 . S
C94 N89 1.318 . S
C94 C93 1.396 . S
H95 C90 0.929 . S
O96 Mn72 2.385 . S
O96 C74 1.234 . S
O97 Mn72 2.209 . S
O97 Mn73 2.215 . S
O97 C74 1.283 . S
O98 Mn72 2.094 . S
O98 C76 1.240 . S
O99 Mn73 2.117 . S
O99 C76 1.264 . S
C100 C93 1.403 . S
C100 C101 1.399 . S
C100 H106 0.929 1_565 S
C101 C81 1.449 . S
C101 C100 1.399 . S
C101 H107 0.930 . S
H102 C82 0.931 . S
H103 C83 0.930 . S
H104 C91 0.931 . S
H105 C92 0.929 1_545 S
H106 C100 0.929 1_545 S
H107 C101 0.930 . S
Mn108 O113 2.095 . S
Mn108 O123 2.162 . S
Mn108 O124 2.297 . S
Mn108 O132 2.385 . S
Mn108 O133 2.209 . S
Mn108 O134 2.094 . S
Mn109 O114 2.121 . S
Mn109 N116 2.257 . S
Mn109 N125 2.282 . S
Mn109 O133 2.215 . S
Mn109 O135 2.117 . S
C110 O132 1.234 . S
C110 O133 1.283 . S
C111 O123 1.281 . S
C111 O124 1.236 . S
C112 O134 1.240 . S
C112 O135 1.264 . S
O113 Mn108 2.095 . S
O113 C122 1.250 . S
O114 Mn109 2.121 . S
O114 C122 1.258 . S
C115 N116 1.326 . S
C115 C119 1.460 . S
C115 H121 0.929 . S
N116 Mn109 2.257 . S
N116 C115 1.326 . S
N116 C120 1.362 . S
C117 C118 1.258 . S
C117 C120 1.431 . S
C117 C137 1.449 . S
C118 C117 1.258 . S
C118 C119 1.477 . S
C118 H138 0.931 . S
C119 C115 1.460 . S
C119 C118 1.477 . S
C119 H139 0.930 . S
C120 N116 1.362 . S
C120 C117 1.431 . S
C120 C130 1.476 . S
H121 C115 0.929 . S
C122 O113 1.250 . S
C122 O114 1.258 . S
O123 Mn108 2.162 . S
O123 C111 1.281 . S
O124 Mn108 2.297 . S
O124 C111 1.236 . S
N125 Mn109 2.282 . S
N125 C126 1.328 . S
N125 C130 1.318 . S
C126 N125 1.328 . S
C126 C127 1.457 . S
C126 H131 0.929 . S
C127 C126 1.457 . S
C127 C128 1.291 . S
C127 H140 0.931 . S
C128 C127 1.291 . S
C128 C129 1.373 . S
C128 H141 0.929 . S
C129 C128 1.373 . S
C129 C130 1.396 . S
C129 C136 1.403 . S
C130 C120 1.476 . S
C130 N125 1.318 . S
C130 C129 1.396 . S
H131 C126 0.929 . S
O132 Mn108 2.385 . S
O132 C110 1.234 . S
O133 Mn108 2.209 . S
O133 Mn109 2.215 . S
O133 C110 1.283 . S
O134 Mn108 2.094 . S
O134 C112 1.240 . S
O135 Mn109 2.117 . S
O135 C112 1.264 . S
C136 C129 1.403 . S
C136 C137 1.399 . S
C136 H142 0.929 . S
C137 C117 1.449 . S
C137 C136 1.399 . S
C137 H143 0.930 . S
H138 C118 0.931 . S
H139 C119 0.930 . S
H140 C127 0.931 . S
H141 C128 0.929 . S
H142 C136 0.929 . S
H143 C137 0.930 . S
Mn144 O149 2.095 . S
Mn144 O159 2.162 . S
Mn144 O160 2.297 . S
Mn144 O168 2.385 . S
Mn144 O169 2.209 . S
Mn144 O170 2.094 . S
Mn145 O150 2.121 . S
Mn145 N152 2.257 . S
Mn145 N161 2.282 . S
Mn145 O169 2.215 . S
Mn145 O171 2.117 . S
C146 O168 1.234 . S
C146 O169 1.283 . S
C147 O159 1.281 . S
C147 O160 1.236 . S
C148 O170 1.240 . S
C148 O171 1.264 . S
O149 Mn144 2.095 . S
O149 C158 1.250 . S
O150 Mn145 2.121 . S
O150 C158 1.258 . S
C151 N152 1.326 . S
C151 C155 1.460 . S
C151 H157 0.929 . S
N152 Mn145 2.257 . S
N152 C151 1.326 . S
N152 C156 1.362 . S
C153 C154 1.258 . S
C153 C156 1.431 . S
C153 C173 1.449 . S
C154 C153 1.258 . S
C154 C155 1.477 . S
C154 H174 0.931 . S
C155 C151 1.460 . S
C155 C154 1.477 . S
C155 H175 0.930 . S
C156 N152 1.362 . S
C156 C153 1.431 . S
C156 C166 1.476 . S
H157 C151 0.929 . S
C158 O149 1.250 . S
C158 O150 1.258 . S
O159 Mn144 2.162 . S
O159 C147 1.281 . S
O160 Mn144 2.297 . S
O160 C147 1.236 . S
N161 Mn145 2.282 . S
N161 C162 1.328 . S
N161 C166 1.318 . S
C162 N161 1.328 . S
C162 C163 1.457 . S
C162 H167 0.929 . S
C163 C162 1.457 . S
C163 C164 1.291 . S
C163 H176 0.931 . S
C164 C163 1.291 . S
C164 C165 1.373 . S
C164 H177 0.929 1_456 S
C165 C164 1.373 . S
C165 C166 1.396 . S
C165 C172 1.403 . S
C166 C156 1.476 . S
C166 N161 1.318 . S
C166 C165 1.396 . S
H167 C162 0.929 . S
O168 Mn144 2.385 . S
O168 C146 1.234 . S
O169 Mn144 2.209 . S
O169 Mn145 2.215 . S
O169 C146 1.283 . S
O170 Mn144 2.094 . S
O170 C148 1.240 . S
O171 Mn145 2.117 . S
O171 C148 1.264 . S
C172 C165 1.403 . S
C172 C173 1.399 . S
C172 H178 0.929 1_456 S
C173 C153 1.449 . S
C173 C172 1.399 . S
C173 H179 0.930 . S
H174 C154 0.931 . S
H175 C155 0.930 . S
H176 C163 0.931 . S
H177 C164 0.929 1_654 S
H178 C172 0.929 1_654 S
H179 C173 0.930 . S
Mn180 O185 2.095 . S
Mn180 O195 2.162 . S
Mn180 O196 2.297 . S
Mn180 O204 2.385 . S
Mn180 O205 2.209 . S
Mn180 O206 2.094 . S
Mn181 O186 2.121 1_554 S
Mn181 N188 2.257 . S
Mn181 N197 2.282 . S
Mn181 O205 2.215 1_554 S
Mn181 O207 2.117 . S
C182 O204 1.234 . S
C182 O205 1.283 . S
C183 O195 1.281 . S
C183 O196 1.236 . S
C184 O206 1.240 1_554 S
C184 O207 1.264 . S
O185 Mn180 2.095 . S
O185 C194 1.250 . S
O186 Mn181 2.121 1_556 S
O186 C194 1.258 . S
C187 N188 1.326 . S
C187 C191 1.460 . S
C187 H193 0.929 . S
N188 Mn181 2.257 . S
N188 C187 1.326 . S
N188 C192 1.362 . S
C189 C190 1.258 . S
C189 C192 1.431 . S
C189 C209 1.449 . S
C190 C189 1.258 . S
C190 C191 1.477 . S
C190 H210 0.931 . S
C191 C187 1.460 . S
C191 C190 1.477 . S
C191 H211 0.930 . S
C192 N188 1.362 . S
C192 C189 1.431 . S
C192 C202 1.476 . S
H193 C187 0.929 . S
C194 O185 1.250 . S
C194 O186 1.258 . S
O195 Mn180 2.162 . S
O195 C183 1.281 . S
O196 Mn180 2.297 . S
O196 C183 1.236 . S
N197 Mn181 2.282 . S
N197 C198 1.328 . S
N197 C202 1.318 . S
C198 N197 1.328 . S
C198 C199 1.457 . S
C198 H203 0.929 . S
C199 C198 1.457 . S
C199 C200 1.291 . S
C199 H212 0.931 . S
C200 C199 1.291 . S
C200 C201 1.373 . S
C200 H213 0.929 1_545 S
C201 C200 1.373 . S
C201 C202 1.396 . S
C201 C208 1.403 . S
C202 C192 1.476 . S
C202 N197 1.318 . S
C202 C201 1.396 . S
H203 C198 0.929 . S
O204 Mn180 2.385 . S
O204 C182 1.234 . S
O205 Mn180 2.209 . S
O205 Mn181 2.215 1_556 S
O205 C182 1.283 . S
O206 Mn180 2.094 . S
O206 C184 1.240 1_556 S
O207 Mn181 2.117 . S
O207 C184 1.264 . S
C208 C201 1.403 . S
C208 C209 1.399 . S
C208 H214 0.929 1_545 S
C209 C189 1.449 . S
C209 C208 1.399 . S
C209 H215 0.930 . S
H210 C190 0.931 . S
H211 C191 0.930 . S
H212 C199 0.931 . S
H213 C200 0.929 1_565 S
H214 C208 0.929 1_565 S
H215 C209 0.930 . S
Mn216 O221 2.095 . S
Mn216 O231 2.162 . S
Mn216 O232 2.297 . S
Mn216 O240 2.385 . S
Mn216 O241 2.209 . S
Mn216 O242 2.094 . S
Mn217 O222 2.121 . S
Mn217 N224 2.257 . S
Mn217 N233 2.282 . S
Mn217 O241 2.215 . S
Mn217 O243 2.117 . S
C218 O240 1.234 . S
C218 O241 1.283 . S
C219 O231 1.281 . S
C219 O232 1.236 . S
C220 O242 1.240 . S
C220 O243 1.264 . S
O221 Mn216 2.095 . S
O221 C230 1.250 . S
O222 Mn217 2.121 . S
O222 C230 1.258 . S
C223 N224 1.326 . S
C223 C227 1.460 . S
C223 H229 0.929 . S
N224 Mn217 2.257 . S
N224 C223 1.326 . S
N224 C228 1.362 . S
C225 C226 1.258 . S
C225 C228 1.431 . S
C225 C245 1.449 . S
C226 C225 1.258 . S
C226 C227 1.477 . S
C226 H246 0.931 . S
C227 C223 1.460 . S
C227 C226 1.477 . S
C227 H247 0.930 . S
C228 N224 1.362 . S
C228 C225 1.431 . S
C228 C238 1.476 . S
H229 C223 0.929 . S
C230 O221 1.250 . S
C230 O222 1.258 . S
O231 Mn216 2.162 . S
O231 C219 1.281 . S
O232 Mn216 2.297 . S
O232 C219 1.236 . S
N233 Mn217 2.282 . S
N233 C234 1.328 . S
N233 C238 1.318 . S
C234 N233 1.328 . S
C234 C235 1.457 . S
C234 H239 0.929 . S
C235 C234 1.457 . S
C235 C236 1.291 . S
C235 H248 0.931 . S
C236 C235 1.291 . S
C236 C237 1.373 . S
C236 H249 0.929 . S
C237 C236 1.373 . S
C237 C238 1.396 . S
C237 C244 1.403 . S
C238 C228 1.476 . S
C238 N233 1.318 . S
C238 C237 1.396 . S
H239 C234 0.929 . S
O240 Mn216 2.385 . S
O240 C218 1.234 . S
O241 Mn216 2.209 . S
O241 Mn217 2.215 . S
O241 C218 1.283 . S
O242 Mn216 2.094 . S
O242 C220 1.240 . S
O243 Mn217 2.117 . S
O243 C220 1.264 . S
C244 C237 1.403 . S
C244 C245 1.399 . S
C244 H250 0.929 . S
C245 C225 1.449 . S
C245 C244 1.399 . S
C245 H251 0.930 . S
H246 C226 0.931 . S
H247 C227 0.930 . S
H248 C235 0.931 . S
H249 C236 0.929 . S
H250 C244 0.929 . S
H251 C245 0.930 . S
Mn252 O257 2.095 . S
Mn252 O267 2.162 . S
Mn252 O268 2.297 . S
Mn252 O276 2.385 . S
Mn252 O277 2.209 . S
Mn252 O278 2.094 . S
Mn253 O258 2.121 . S
Mn253 N260 2.257 . S
Mn253 N269 2.282 . S
Mn253 O277 2.215 . S
Mn253 O279 2.117 . S
C254 O276 1.234 . S
C254 O277 1.283 . S
C255 O267 1.281 . S
C255 O268 1.236 . S
C256 O278 1.240 . S
C256 O279 1.264 . S
O257 Mn252 2.095 . S
O257 C266 1.250 . S
O258 Mn253 2.121 . S
O258 C266 1.258 . S
C259 N260 1.326 . S
C259 C263 1.460 . S
C259 H265 0.929 . S
N260 Mn253 2.257 . S
N260 C259 1.326 . S
N260 C264 1.362 . S
C261 C262 1.258 . S
C261 C264 1.431 . S
C261 C281 1.449 . S
C262 C261 1.258 . S
C262 C263 1.477 . S
C262 H282 0.931 . S
C263 C259 1.460 . S
C263 C262 1.477 . S
C263 H283 0.930 . S
C264 N260 1.362 . S
C264 C261 1.431 . S
C264 C274 1.476 . S
H265 C259 0.929 . S
C266 O257 1.250 . S
C266 O258 1.258 . S
O267 Mn252 2.162 . S
O267 C255 1.281 . S
O268 Mn252 2.297 . S
O268 C255 1.236 . S
N269 Mn253 2.282 . S
N269 C270 1.328 . S
N269 C274 1.318 . S
C270 N269 1.328 . S
C270 C271 1.457 . S
C270 H275 0.929 . S
C271 C270 1.457 . S
C271 C272 1.291 . S
C271 H284 0.931 . S
C272 C271 1.291 . S
C272 C273 1.373 . S
C272 H285 0.929 1_655 S
C273 C272 1.373 . S
C273 C274 1.396 . S
C273 C280 1.403 . S
C274 C264 1.476 . S
C274 N269 1.318 . S
C274 C273 1.396 . S
H275 C270 0.929 . S
O276 Mn252 2.385 . S
O276 C254 1.234 . S
O277 Mn252 2.209 . S
O277 Mn253 2.215 . S
O277 C254 1.283 . S
O278 Mn252 2.094 . S
O278 C256 1.240 . S
O279 Mn253 2.117 . S
O279 C256 1.264 . S
C280 C273 1.403 . S
C280 C281 1.399 . S
C280 H286 0.929 1_655 S
C281 C261 1.449 . S
C281 C280 1.399 . S
C281 H287 0.930 . S
H282 C262 0.931 . S
H283 C263 0.930 . S
H284 C271 0.931 . S
H285 C272 0.929 1_455 S
H286 C280 0.929 1_455 S
H287 C281 0.930 . S
Mn288 O293 2.095 . S
Mn288 O303 2.162 . S
Mn288 O304 2.297 . S
Mn288 O312 2.385 . S
Mn288 O313 2.209 . S
Mn288 O314 2.094 . S
Mn289 O294 2.121 1_556 S
Mn289 N296 2.257 . S
Mn289 N305 2.282 . S
Mn289 O313 2.215 1_556 S
Mn289 O315 2.117 . S
C290 O312 1.234 . S
C290 O313 1.283 . S
C291 O303 1.281 . S
C291 O304 1.236 . S
C292 O314 1.240 1_556 S
C292 O315 1.264 . S
O293 Mn288 2.095 . S
O293 C302 1.250 . S
O294 Mn289 2.121 1_554 S
O294 C302 1.258 . S
C295 N296 1.326 . S
C295 C299 1.460 . S
C295 H301 0.929 . S
N296 Mn289 2.257 . S
N296 C295 1.326 . S
N296 C300 1.362 . S
C297 C298 1.258 . S
C297 C300 1.431 . S
C297 C317 1.449 . S
C298 C297 1.258 . S
C298 C299 1.477 . S
C298 H318 0.931 . S
C299 C295 1.460 . S
C299 C298 1.477 . S
C299 H319 0.930 . S
C300 N296 1.362 . S
C300 C297 1.431 . S
C300 C310 1.476 . S
H301 C295 0.929 . S
C302 O293 1.250 . S
C302 O294 1.258 . S
O303 Mn288 2.162 . S
O303 C291 1.281 . S
O304 Mn288 2.297 . S
O304 C291 1.236 . S
N305 Mn289 2.282 . S
N305 C306 1.328 . S
N305 C310 1.318 . S
C306 N305 1.328 . S
C306 C307 1.457 . S
C306 H311 0.929 . S
C307 C306 1.457 . S
C307 C308 1.291 . S
C307 H320 0.931 . S
C308 C307 1.291 . S
C308 C309 1.373 . S
C308 H321 0.929 1_565 S
C309 C308 1.373 . S
C309 C310 1.396 . S
C309 C316 1.403 . S
C310 C300 1.476 . S
C310 N305 1.318 . S
C310 C309 1.396 . S
H311 C306 0.929 . S
O312 Mn288 2.385 . S
O312 C290 1.234 . S
O313 Mn288 2.209 . S
O313 Mn289 2.215 1_554 S
O313 C290 1.283 . S
O314 Mn288 2.094 . S
O314 C292 1.240 1_554 S
O315 Mn289 2.117 . S
O315 C292 1.264 . S
C316 C309 1.403 . S
C316 C317 1.399 . S
C316 H322 0.929 1_565 S
C317 C297 1.449 . S
C317 C316 1.399 . S
C317 H323 0.930 . S
H318 C298 0.931 . S
H319 C299 0.930 . S
H320 C307 0.931 . S
H321 C308 0.929 1_545 S
H322 C316 0.929 1_545 S
H323 C317 0.930 . S
Mn324 O329 2.095 . S
Mn324 O339 2.162 . S
Mn324 O340 2.297 . S
Mn324 O348 2.385 . S
Mn324 O349 2.209 . S
Mn324 O350 2.094 . S
Mn325 O330 2.121 . S
Mn325 N332 2.257 . S
Mn325 N341 2.282 . S
Mn325 O349 2.215 . S
Mn325 O351 2.117 . S
C326 O348 1.234 . S
C326 O349 1.283 . S
C327 O339 1.281 . S
C327 O340 1.236 . S
C328 O350 1.240 . S
C328 O351 1.264 . S
O329 Mn324 2.095 . S
O329 C338 1.250 . S
O330 Mn325 2.121 . S
O330 C338 1.258 . S
C331 N332 1.326 . S
C331 C335 1.460 . S
C331 H337 0.929 . S
N332 Mn325 2.257 . S
N332 C331 1.326 . S
N332 C336 1.362 . S
C333 C334 1.258 . S
C333 C336 1.431 . S
C333 C353 1.449 . S
C334 C333 1.258 . S
C334 C335 1.477 . S
C334 H354 0.931 . S
C335 C331 1.460 . S
C335 C334 1.477 . S
C335 H355 0.930 . S
C336 N332 1.362 . S
C336 C333 1.431 . S
C336 C346 1.476 . S
H337 C331 0.929 . S
C338 O329 1.250 . S
C338 O330 1.258 . S
O339 Mn324 2.162 . S
O339 C327 1.281 . S
O340 Mn324 2.297 . S
O340 C327 1.236 . S
N341 Mn325 2.282 . S
N341 C342 1.328 . S
N341 C346 1.318 . S
C342 N341 1.328 . S
C342 C343 1.457 . S
C342 H347 0.929 . S
C343 C342 1.457 . S
C343 C344 1.291 . S
C343 H356 0.931 . S
C344 C343 1.291 . S
C344 C345 1.373 . S
C344 H357 0.929 1_554 S
C345 C344 1.373 . S
C345 C346 1.396 . S
C345 C352 1.403 . S
C346 C336 1.476 . S
C346 N341 1.318 . S
C346 C345 1.396 . S
H347 C342 0.929 . S
O348 Mn324 2.385 . S
O348 C326 1.234 . S
O349 Mn324 2.209 . S
O349 Mn325 2.215 . S
O349 C326 1.283 . S
O350 Mn324 2.094 . S
O350 C328 1.240 . S
O351 Mn325 2.117 . S
O351 C328 1.264 . S
C352 C345 1.403 . S
C352 C353 1.399 . S
C352 H358 0.929 1_554 S
C353 C333 1.449 . S
C353 C352 1.399 . S
C353 H359 0.930 . S
H354 C334 0.931 . S
H355 C335 0.930 . S
H356 C343 0.931 . S
H357 C344 0.929 1_556 S
H358 C352 0.929 1_556 S
H359 C353 0.930 . S
Mn360 O365 2.095 . S
Mn360 O375 2.162 . S
Mn360 O376 2.297 . S
Mn360 O384 2.385 . S
Mn360 O385 2.209 . S
Mn360 O386 2.094 . S
Mn361 O366 2.121 . S
Mn361 N368 2.257 . S
Mn361 N377 2.282 . S
Mn361 O385 2.215 . S
Mn361 O387 2.117 . S
C362 O384 1.234 . S
C362 O385 1.283 . S
C363 O375 1.281 . S
C363 O376 1.236 . S
C364 O386 1.240 . S
C364 O387 1.264 . S
O365 Mn360 2.095 . S
O365 C374 1.250 . S
O366 Mn361 2.121 . S
O366 C374 1.258 . S
C367 N368 1.326 . S
C367 C371 1.460 . S
C367 H373 0.929 . S
N368 Mn361 2.257 . S
N368 C367 1.326 . S
N368 C372 1.362 . S
C369 C370 1.258 . S
C369 C372 1.431 . S
C369 C389 1.449 . S
C370 C369 1.258 . S
C370 C371 1.477 . S
C370 H390 0.931 . S
C371 C367 1.460 . S
C371 C370 1.477 . S
C371 H391 0.930 . S
C372 N368 1.362 . S
C372 C369 1.431 . S
C372 C382 1.476 . S
H373 C367 0.929 . S
C374 O365 1.250 . S
C374 O366 1.258 . S
O375 Mn360 2.162 . S
O375 C363 1.281 . S
O376 Mn360 2.297 . S
O376 C363 1.236 . S
N377 Mn361 2.282 . S
N377 C378 1.328 . S
N377 C382 1.318 . S
C378 N377 1.328 . S
C378 C379 1.457 . S
C378 H383 0.929 . S
C379 C378 1.457 . S
C379 C380 1.291 . S
C379 H392 0.931 . S
C380 C379 1.291 . S
C380 C381 1.373 . S
C380 H393 0.929 1_455 S
C381 C380 1.373 . S
C381 C382 1.396 . S
C381 C388 1.403 . S
C382 C372 1.476 . S
C382 N377 1.318 . S
C382 C381 1.396 . S
H383 C378 0.929 . S
O384 Mn360 2.385 . S
O384 C362 1.234 . S
O385 Mn360 2.209 . S
O385 Mn361 2.215 . S
O385 C362 1.283 . S
O386 Mn360 2.094 . S
O386 C364 1.240 . S
O387 Mn361 2.117 . S
O387 C364 1.264 . S
C388 C381 1.403 . S
C388 C389 1.399 . S
C388 H394 0.929 1_455 S
C389 C369 1.449 . S
C389 C388 1.399 . S
C389 H395 0.930 . S
H390 C370 0.931 . S
H391 C371 0.930 . S
H392 C379 0.931 . S
H393 C380 0.929 1_655 S
H394 C388 0.929 1_655 S
H395 C389 0.930 . S
Mn396 O401 2.095 . S
Mn396 O411 2.162 . S
Mn396 O412 2.297 . S
Mn396 O420 2.385 . S
Mn396 O421 2.209 . S
Mn396 O422 2.094 . S
Mn397 O402 2.121 . S
Mn397 N404 2.257 . S
Mn397 N413 2.282 . S
Mn397 O421 2.215 . S
Mn397 O423 2.117 . S
C398 O420 1.234 . S
C398 O421 1.283 . S
C399 O411 1.281 . S
C399 O412 1.236 . S
C400 O422 1.240 . S
C400 O423 1.264 . S
O401 Mn396 2.095 . S
O401 C410 1.250 . S
O402 Mn397 2.121 . S
O402 C410 1.258 . S
C403 N404 1.326 . S
C403 C407 1.460 . S
C403 H409 0.929 . S
N404 Mn397 2.257 . S
N404 C403 1.326 . S
N404 C408 1.362 . S
C405 C406 1.258 . S
C405 C408 1.431 . S
C405 C425 1.449 . S
C406 C405 1.258 . S
C406 C407 1.477 . S
C406 H426 0.931 . S
C407 C403 1.460 . S
C407 C406 1.477 . S
C407 H427 0.930 . S
C408 N404 1.362 . S
C408 C405 1.431 . S
C408 C418 1.476 . S
H409 C403 0.929 . S
C410 O401 1.250 . S
C410 O402 1.258 . S
O411 Mn396 2.162 . S
O411 C399 1.281 . S
O412 Mn396 2.297 . S
O412 C399 1.236 . S
N413 Mn397 2.282 . S
N413 C414 1.328 . S
N413 C418 1.318 . S
C414 N413 1.328 . S
C414 C415 1.457 . S
C414 H419 0.929 . S
C415 C414 1.457 . S
C415 C416 1.291 . S
C415 H428 0.931 . S
C416 C415 1.291 . S
C416 C417 1.373 . S
C416 H429 0.929 1_545 S
C417 C416 1.373 . S
C417 C418 1.396 . S
C417 C424 1.403 . S
C418 C408 1.476 . S
C418 N413 1.318 . S
C418 C417 1.396 . S
H419 C414 0.929 . S
O420 Mn396 2.385 . S
O420 C398 1.234 . S
O421 Mn396 2.209 . S
O421 Mn397 2.215 . S
O421 C398 1.283 . S
O422 Mn396 2.094 . S
O422 C400 1.240 . S
O423 Mn397 2.117 . S
O423 C400 1.264 . S
C424 C417 1.403 . S
C424 C425 1.399 . S
C424 H430 0.929 1_545 S
C425 C405 1.449 . S
C425 C424 1.399 . S
C425 H431 0.930 . S
H426 C406 0.931 . S
H427 C407 0.930 . S
H428 C415 0.931 . S
H429 C416 0.929 1_565 S
H430 C424 0.929 1_565 S
H431 C425 0.930 . S
C302 C14 1.386 . S
C50 C338 1.386 . S
C86 C374 1.386 . S
C122 C410 1.386 . S
C230 C158 1.386 . S
C194 C266 1.386 . S
C326 C2 0.877 . S
C38 C362 0.877 1_655 S
C398 C74 0.877 1_545 S
C110 C218 0.877 . S
C254 C146 0.877 1_655 S
C290 C182 0.877 1_564 S
C3 C184 1.552 . S
C39 C4 1.552 1_655 S
C40 C75 1.552 1_545 S
C111 C76 1.552 . S
C147 C112 1.552 1_455 S
C183 C148 1.552 1_545 S
C219 C256 1.552 . S
C255 C292 1.552 1_655 S
C291 C328 1.552 1_565 S
C327 C364 1.552 . S
C363 C400 1.552 1_455 S
C220 C399 1.552 1_565 S
