# Generated by pormake.
# Topology fna, (5)-cn, num edge types: 1
# Building blocks:
#     Node 0, Type 0, BuildingBlock: XOMCOT_clean_sbu_0, # of connection points: 5
#     Node 1, Type 0, BuildingBlock: XOMCOT_clean_sbu_0, # of connection points: 5
#     Node 2, Type 0, BuildingBlock: XOMCOT_clean_sbu_0, # of connection points: 5
#     Node 3, Type 0, BuildingBlock: XOMCOT_clean_sbu_0, # of connection points: 5
#     Node 4, Type 0, BuildingBlock: XOMCOT_clean_sbu_0, # of connection points: 5
#     Node 5, Type 0, BuildingBlock: XOMCOT_clean_sbu_0, # of connection points: 5
#     Node 6, Type 0, BuildingBlock: XOMCOT_clean_sbu_0, # of connection points: 5
#     Node 7, Type 0, BuildingBlock: XOMCOT_clean_sbu_0, # of connection points: 5
#     Node 8, Type 0, BuildingBlock: XOMCOT_clean_sbu_0, # of connection points: 5
#     Node 9, Type 0, BuildingBlock: XOMCOT_clean_sbu_0, # of connection points: 5
#     Node 10, Type 0, BuildingBlock: XOMCOT_clean_sbu_0, # of connection points: 5
#     Node 11, Type 0, BuildingBlock: XOMCOT_clean_sbu_0, # of connection points: 5
#     Edge 12, Type (0, 0), BuildingBlock: ZUJKAS_clean_linker_0, # of connection points: 2
#     Edge 13, Type (0, 0), BuildingBlock: ZUJKAS_clean_linker_0, # of connection points: 2
#     Edge 14, Type (0, 0), BuildingBlock: ZUJKAS_clean_linker_0, # of connection points: 2
#     Edge 15, Type (0, 0), BuildingBlock: ZUJKAS_clean_linker_0, # of connection points: 2
#     Edge 16, Type (0, 0), BuildingBlock: ZUJKAS_clean_linker_0, # of connection points: 2
#     Edge 17, Type (0, 0), BuildingBlock: ZUJKAS_clean_linker_0, # of connection points: 2
#     Edge 18, Type (0, 0), BuildingBlock: ZUJKAS_clean_linker_0, # of connection points: 2
#     Edge 19, Type (0, 0), BuildingBlock: ZUJKAS_clean_linker_0, # of connection points: 2
#     Edge 20, Type (0, 0), BuildingBlock: ZUJKAS_clean_linker_0, # of connection points: 2
#     Edge 21, Type (0, 0), BuildingBlock: ZUJKAS_clean_linker_0, # of connection points: 2
#     Edge 22, Type (0, 0), BuildingBlock: ZUJKAS_clean_linker_0, # of connection points: 2
#     Edge 23, Type (0, 0), BuildingBlock: ZUJKAS_clean_linker_0, # of connection points: 2
#     Edge 24, Type (0, 0), BuildingBlock: ZUJKAS_clean_linker_0, # of connection points: 2
#     Edge 25, Type (0, 0), BuildingBlock: ZUJKAS_clean_linker_0, # of connection points: 2
#     Edge 26, Type (0, 0), BuildingBlock: ZUJKAS_clean_linker_0, # of connection points: 2
#     Edge 27, Type (0, 0), BuildingBlock: ZUJKAS_clean_linker_0, # of connection points: 2
#     Edge 28, Type (0, 0), BuildingBlock: ZUJKAS_clean_linker_0, # of connection points: 2
#     Edge 29, Type (0, 0), BuildingBlock: ZUJKAS_clean_linker_0, # of connection points: 2
#     Edge 30, Type (0, 0), BuildingBlock: ZUJKAS_clean_linker_0, # of connection points: 2
#     Edge 31, Type (0, 0), BuildingBlock: ZUJKAS_clean_linker_0, # of connection points: 2
#     Edge 32, Type (0, 0), BuildingBlock: ZUJKAS_clean_linker_0, # of connection points: 2
#     Edge 33, Type (0, 0), BuildingBlock: ZUJKAS_clean_linker_0, # of connection points: 2
#     Edge 34, Type (0, 0), BuildingBlock: ZUJKAS_clean_linker_0, # of connection points: 2
#     Edge 35, Type (0, 0), BuildingBlock: ZUJKAS_clean_linker_0, # of connection points: 2
#     Edge 36, Type (0, 0), BuildingBlock: ZUJKAS_clean_linker_0, # of connection points: 2
#     Edge 37, Type (0, 0), BuildingBlock: ZUJKAS_clean_linker_0, # of connection points: 2
#     Edge 38, Type (0, 0), BuildingBlock: ZUJKAS_clean_linker_0, # of connection points: 2
#     Edge 39, Type (0, 0), BuildingBlock: ZUJKAS_clean_linker_0, # of connection points: 2
#     Edge 40, Type (0, 0), BuildingBlock: ZUJKAS_clean_linker_0, # of connection points: 2
#     Edge 41, Type (0, 0), BuildingBlock: ZUJKAS_clean_linker_0, # of connection points: 2
# Relax obj value: 0.321
# Max RMSD: 0.210
# Mean RMSD: 0.210
data_MOF--net-fna--node1-XOMCOT_clean_sbu_0--edge1-ZUJKAS_clean_linker_0
_symmetry_space_group_name_H-M    P1
_symmetry_Int_Tables_number       1
_symmetry_cell_setting            triclinic
loop_
_symmetry_equiv_pos_as_xyz
'x, y, z'
_cell_length_a     57.596239
_cell_length_b     57.615866
_cell_length_c     57.576653
_cell_angle_alpha  90.041248
_cell_angle_beta   90.064582
_cell_angle_gamma 120.05002
loop_
_atom_site_label
_atom_site_type_symbol
_atom_site_fract_x
_atom_site_fract_y
_atom_site_fract_z
_atom_type_partial_charge
Co0 Co 0.33502 0.29174 0.48326 0.0
C1 C 0.32803 0.25913 0.44122 0.0
C2 C 0.2914 0.2578 0.45037 0.0
C3 C 0.28629 0.24012 0.43235 0.0
N4 N 0.31779 0.27033 0.45563 0.0
N5 N 0.30933 0.24083 0.42674 0.0
H6 H 0.34831 0.26281 0.4423 0.0
H7 H 0.27629 0.25946 0.46009 0.0
C8 C 0.2941 0.30956 0.47423 0.0
O9 O 0.30108 0.31473 0.4523 0.0
N10 N 0.35209 0.3121 0.51086 0.0
C11 C 0.37871 0.32722 0.51448 0.0
C12 C 0.383 0.33548 0.53727 0.0
C13 C 0.34049 0.31118 0.53139 0.0
N14 N 0.35897 0.3253 0.54786 0.0
C15 C 0.37602 0.3242 0.45036 0.0
C16 C 0.3778 0.37175 0.46146 0.0
C17 C 0.3979 0.37263 0.44714 0.0
C18 C 0.39639 0.34829 0.44114 0.0
C19 C 0.35795 0.3473 0.47044 0.0
N20 N 0.3572 0.32384 0.46497 0.0
H21 H 0.37675 0.3062 0.44711 0.0
H22 H 0.34444 0.34765 0.48322 0.0
H23 H 0.39395 0.33122 0.50163 0.0
H24 H 0.31913 0.29933 0.53447 0.0
O25 O 0.35874 0.27694 0.48506 0.0
O26 O 0.31861 0.25957 0.50143 0.0
O27 O 0.30568 0.30077 0.48756 0.0
C28 C 0.34045 0.25858 0.49834 0.0
H29 H 0.26672 0.22622 0.42528 0.0
H30 H 0.40232 0.34769 0.54549 0.0
H31 H 0.37801 0.38994 0.46656 0.0
H32 H 0.41179 0.34793 0.43063 0.0
Co33 Co 0.04821 0.32961 0.64917 0.0
C34 C 0.07433 0.32323 0.60716 0.0
C35 C 0.03861 0.2867 0.61577 0.0
C36 C 0.05145 0.28159 0.59806 0.0
N37 N 0.05261 0.31299 0.62127 0.0
N38 N 0.07408 0.30455 0.59274 0.0
H39 H 0.09128 0.34327 0.60884 0.0
H40 H 0.02147 0.27158 0.62513 0.0
C41 C 0.98924 0.28887 0.64002 0.0
O42 O 0.99071 0.2963 0.61824 0.0
N43 N 0.04461 0.34586 0.67716 0.0
C44 C 0.05505 0.37226 0.68126 0.0
C45 C 0.05123 0.3757 0.7043 0.0
C46 C 0.03492 0.33362 0.69766 0.0
N47 N 0.03871 0.3514 0.7146 0.0
C48 C 0.05648 0.37069 0.61644 0.0
C49 C 0.01123 0.373 0.62849 0.0
C50 C 0.03032 0.39302 0.61404 0.0
C51 C 0.05282 0.39121 0.60749 0.0
C52 C 0.01568 0.35291 0.63709 0.0
N53 N 0.03823 0.352 0.63126 0.0
H54 H 0.07502 0.37114 0.61279 0.0
H55 H 1.00192 0.33935 0.6499 0.0
H56 H 0.06566 0.38794 0.66861 0.0
H57 H 0.02605 0.31223 0.70018 0.0
O58 O 0.08671 0.35351 0.65133 0.0
O59 O 0.06402 0.31298 0.66698 0.0
O60 O 0.00986 0.3001 0.65316 0.0
C61 C 0.08678 0.33501 0.66433 0.0
H62 H 0.04522 0.2621 0.59058 0.0
H63 H 0.05833 0.39474 0.71301 0.0
H64 H 0.9935 0.37349 0.634 0.0
H65 H 0.06843 0.40652 0.5968 0.0
Co66 Co 0.72302 0.0474 0.81863 0.0
C67 C 0.75568 0.07262 0.77644 0.0
C68 C 0.75739 0.03781 0.78662 0.0
C69 C 0.7754 0.05028 0.7689 0.0
N70 N 0.74447 0.05142 0.79114 0.0
N71 N 0.77452 0.07235 0.7626 0.0
H72 H 0.75212 0.0893 0.77731 0.0
H73 H 0.75573 0.02125 0.79669 0.0
C74 C 0.7057 0.98866 0.81024 0.0
O75 O 0.70012 0.9901 0.78833 0.0
N76 N 0.70265 0.04413 0.84616 0.0
C77 C 0.68692 0.05492 0.84969 0.0
C78 C 0.67783 0.04984 0.87223 0.0
C79 C 0.70326 0.03296 0.86649 0.0
N80 N 0.68819 0.03611 0.88278 0.0
C81 C 0.69006 0.0545 0.78508 0.0
C82 C 0.64276 0.00893 0.79718 0.0
C83 C 0.64156 0.0276 0.78236 0.0
C84 C 0.66576 0.05028 0.77581 0.0
C85 C 0.66739 0.01398 0.80615 0.0
N86 N 0.69072 0.03665 0.80025 0.0
H87 H 0.70802 0.07315 0.78137 0.0
H88 H 0.66731 1.00057 0.81926 0.0
H89 H 0.68291 0.06624 0.83694 0.0
H90 H 0.71483 0.02312 0.86933 0.0
O91 O 0.73728 0.08588 0.81992 0.0
O92 O 0.75533 0.06401 0.8368 0.0
O93 O 0.71456 0.00924 0.82338 0.0
C94 C 0.75596 0.08659 0.83323 0.0
H95 H 0.78909 0.04425 0.76211 0.0
H96 H 0.6654 0.05665 0.88043 0.0
H97 H 0.62468 0.99107 0.8027 0.0
H98 H 0.66587 0.06559 0.76484 0.0
Co99 Co 0.67794 0.71695 0.98361 0.0
C100 C 0.68615 0.75113 0.94232 0.0
C101 C 0.72187 0.75036 0.95098 0.0
C102 C 0.72781 0.76899 0.93371 0.0
N103 N 0.69553 0.7386 0.95618 0.0
N104 N 0.70536 0.76964 0.92836 0.0
H105 H 0.66634 0.74864 0.94387 0.0
H106 H 0.73653 0.74754 0.9603 0.0
C107 C 0.71839 0.6983 0.97542 0.0
O108 O 0.71091 0.69196 0.95368 0.0
N109 N 0.6608 0.69656 0.01115 0.0
C110 C 0.63426 0.68103 0.0148 0.0
C111 C 0.63028 0.67266 0.03756 0.0
C112 C 0.67261 0.69778 0.03165 0.0
N113 N 0.65441 0.68331 0.04816 0.0
C114 C 0.63894 0.68536 0.94887 0.0
C115 C 0.63399 0.63687 0.96178 0.0
C116 C 0.61552 0.63683 0.94585 0.0
C117 C 0.61878 0.66164 0.9389 0.0
C118 C 0.65401 0.66107 0.97119 0.0
N119 N 0.6561 0.68496 0.96499 0.0
H120 H 0.63951 0.70382 0.94467 0.0
H121 H 0.66652 0.66033 0.98482 0.0
H122 H 0.61887 0.67683 0.002 0.0
H123 H 0.69403 0.70956 0.03448 0.0
O124 O 0.65397 0.73144 0.98509 0.0
O125 O 0.694 0.7491 0.00191 0.0
O126 O 0.70729 0.70805 0.98824 0.0
C127 C 0.67211 0.74991 0.99847 0.0
H128 H 0.74754 0.78205 0.92658 0.0
H129 H 0.61103 0.66065 0.04589 0.0
H130 H 0.63203 0.61829 0.96812 0.0
H131 H 0.6052 0.66274 0.92651 0.0
Co132 Co 0.96639 0.68019 0.15039 0.0
C133 C 0.9402 0.68797 0.1091 0.0
C134 C 0.97648 0.72402 0.11767 0.0
C135 C 0.96368 0.72956 0.10015 0.0
N136 N 0.96204 0.69773 0.12308 0.0
N137 N 0.94075 0.70686 0.09483 0.0
H138 H 0.92301 0.66807 0.11067 0.0
H139 H 0.99399 0.73884 0.12688 0.0
C140 C 0.02563 0.72128 0.14273 0.0
O141 O 0.0252 0.71363 0.12116 0.0
N142 N 0.96989 0.66288 0.17771 0.0
C143 C 0.95895 0.6363 0.18097 0.0
C144 C 0.96383 0.63195 0.20347 0.0
C145 C 0.98095 0.67438 0.1982 0.0
N146 N 0.97758 0.65589 0.2143 0.0
C147 C 0.95887 0.64115 0.1159 0.0
C148 C 1.00304 0.63696 0.12822 0.0
C149 C 0.9841 0.61797 0.11291 0.0
C150 C 0.96224 0.6208 0.10622 0.0
C151 C 0.99891 0.65703 0.13751 0.0
N152 N 0.97682 0.65877 0.13159 0.0
H153 H 0.94071 0.64135 0.11201 0.0
H154 H 0.01239 0.66978 0.15094 0.0
H155 H 0.94757 0.62112 0.16806 0.0
H156 H 0.99077 0.69576 0.20131 0.0
O157 O 0.92796 0.65583 0.1518 0.0
O158 O 0.94994 0.6957 0.16889 0.0
O159 O 1.0045 0.70998 0.1552 0.0
C160 C 0.92736 0.67369 0.16531 0.0
H161 H 0.97019 0.74912 0.09274 0.0
H162 H 0.9568 0.61257 0.21147 0.0
H163 H 0.01993 0.63524 0.13428 0.0
H164 H 0.94714 0.60665 0.09439 0.0
Co165 Co 0.29912 0.96958 0.31779 0.0
C166 C 0.26318 0.94223 0.27746 0.0
C167 C 0.25493 0.97073 0.29373 0.0
C168 C 0.23531 0.95665 0.27746 0.0
N169 N 0.27278 0.96211 0.2935 0.0
N170 N 0.24034 0.93853 0.26725 0.0
H171 H 0.27163 0.92957 0.27436 0.0
H172 H 0.25505 0.98496 0.30606 0.0
C173 C 0.31016 0.02539 0.30448 0.0
O174 O 0.30538 0.01909 0.28238 0.0
N175 N 0.32442 0.97647 0.34244 0.0
C176 C 0.34109 0.96657 0.34469 0.0
C177 C 0.35207 0.97255 0.36665 0.0
C178 C 0.32531 0.98815 0.36291 0.0
N179 N 0.34192 0.98592 0.37814 0.0
C180 C 0.32682 0.95434 0.28527 0.0
C181 C 0.37332 1.00367 0.28409 0.0
C182 C 0.37366 0.98141 0.27471 0.0
C183 C 0.34971 0.95668 0.27461 0.0
C184 C 0.35006 1.00048 0.29459 0.0
N185 N 0.32718 0.97594 0.29547 0.0
H186 H 0.30971 0.93454 0.28726 0.0
H187 H 0.35162 0.01743 0.30384 0.0
H188 H 0.34393 0.95453 0.33183 0.0
H189 H 0.31304 0.997 0.36683 0.0
O190 O 0.28371 0.93126 0.32313 0.0
O191 O 0.27118 0.95763 0.34046 0.0
O192 O 0.30931 0.00847 0.31924 0.0
C193 C 0.26875 0.93408 0.33856 0.0
H194 H 0.21764 0.95836 0.27473 0.0
H195 H 0.36513 0.96602 0.37403 0.0
H196 H 0.39136 0.02316 0.28458 0.0
H197 H 0.34917 0.93879 0.26807 0.0
Co198 Co 0.72253 0.67885 0.35463 0.0
C199 C 0.75552 0.68582 0.39661 0.0
C200 C 0.75851 0.7228 0.38603 0.0
C201 C 0.7766 0.72805 0.40368 0.0
N202 N 0.74474 0.69618 0.38183 0.0
N203 N 0.77486 0.70478 0.41026 0.0
H204 H 0.7513 0.66534 0.39593 0.0
H205 H 0.75721 0.73783 0.37582 0.0
C206 C 0.7059 0.72044 0.36469 0.0
O207 O 0.70209 0.71414 0.38684 0.0
N208 N 0.70137 0.6618 0.32734 0.0
C209 C 0.68524 0.63528 0.32398 0.0
C210 C 0.67621 0.6311 0.30141 0.0
C211 C 0.70228 0.67341 0.30681 0.0
N212 N 0.68702 0.65507 0.2906 0.0
C213 C 0.69065 0.63738 0.38736 0.0
C214 C 0.6432 0.63672 0.37826 0.0
C215 C 0.64237 0.61604 0.39171 0.0
C216 C 0.66668 0.617 0.39675 0.0
C217 C 0.66752 0.65656 0.36907 0.0
N218 N 0.69094 0.65675 0.37352 0.0
H219 H 0.70855 0.6362 0.38974 0.0
H220 H 0.66698 0.67045 0.35683 0.0
H221 H 0.68109 0.61999 0.33682 0.0
H222 H 0.71438 0.69474 0.30374 0.0
O223 O 0.73729 0.65513 0.35217 0.0
O224 O 0.75417 0.69522 0.33582 0.0
O225 O 0.71348 0.70819 0.3509 0.0
C226 C 0.75528 0.67343 0.33863 0.0
H227 H 0.79087 0.74772 0.41029 0.0
H228 H 0.66365 0.61178 0.29332 0.0
H229 H 0.62501 0.63695 0.37392 0.0
H230 H 0.66705 0.60115 0.40654 0.0
Co231 Co 0.04549 0.716 0.52099 0.0
C232 C 0.07399 0.75199 0.56073 0.0
C233 C 0.03759 0.75181 0.55294 0.0
C234 C 0.05123 0.77082 0.56984 0.0
N235 N 0.0515 0.73942 0.54755 0.0
N236 N 0.07425 0.77104 0.57464 0.0
H237 H 0.0907 0.74857 0.55916 0.0
H238 H 0.01986 0.74899 0.54402 0.0
C239 C 0.98685 0.69779 0.5326 0.0
O240 O 0.98971 0.69436 0.55476 0.0
N241 N 0.04026 0.69367 0.49432 0.0
C242 C 0.05083 0.67774 0.49082 0.0
C243 C 0.04572 0.66863 0.46825 0.0
C244 C 0.02917 0.69434 0.47394 0.0
N245 N 0.03226 0.67925 0.45763 0.0
C246 C 0.05835 0.68712 0.5544 0.0
C247 C 0.01246 0.63811 0.5474 0.0
C248 C 0.0334 0.63903 0.56056 0.0
C249 C 0.05625 0.66412 0.56456 0.0
C250 C 0.01534 0.66158 0.5376 0.0
N251 N 0.0382 0.68574 0.54091 0.0
H252 H 0.07707 0.70561 0.55601 0.0
H253 H 1.00007 0.65979 0.52567 0.0
H254 H 0.06251 0.67402 0.50345 0.0
H255 H 0.01997 0.70648 0.47095 0.0
O256 O 0.08404 0.73194 0.51672 0.0
O257 O 0.05837 0.74631 0.50087 0.0
O258 O 1.00659 0.70564 0.51867 0.0
C259 C 0.08184 0.74846 0.50262 0.0
H260 H 0.04558 0.78477 0.57673 0.0
H261 H 0.05272 0.6564 0.45998 0.0
H262 H 0.99473 0.61917 0.54328 0.0
H263 H 0.07295 0.66587 0.57464 0.0
Co264 Co 0.33766 0.04714 0.6851 0.0
C265 C 0.32791 0.0725 0.72601 0.0
C266 C 0.29194 0.03746 0.71505 0.0
C267 C 0.28554 0.05001 0.73214 0.0
N268 N 0.31869 0.05117 0.71147 0.0
N269 N 0.30818 0.07221 0.73896 0.0
H270 H 0.34812 0.08932 0.7256 0.0
H271 H 0.27756 0.02073 0.70475 0.0
C272 C 0.29613 0.98832 0.69325 0.0
O273 O 0.30166 0.9901 0.71555 0.0
N274 N 0.35639 0.044 0.65867 0.0
C275 C 0.38313 0.05497 0.65647 0.0
C276 C 0.38868 0.05091 0.63411 0.0
C277 C 0.34601 0.03373 0.63768 0.0
N278 N 0.36534 0.03766 0.62228 0.0
C279 C 0.37655 0.05599 0.72034 0.0
C280 C 0.38025 0.01103 0.71023 0.0
C281 C 0.3993 0.03049 0.72518 0.0
C282 C 0.39669 0.05279 0.73075 0.0
C283 C 0.36035 0.01497 0.70024 0.0
N284 N 0.35884 0.03743 0.70506 0.0
H285 H 0.37661 0.07444 0.7233 0.0
H286 H 0.34767 1.00101 0.68707 0.0
H287 H 0.39762 0.066 0.66996 0.0
H288 H 0.32484 0.02426 0.63369 0.0
O289 O 0.3613 0.08573 0.68368 0.0
O290 O 0.32217 0.06274 0.66554 0.0
O291 O 0.30873 0.0087 0.68008 0.0
C292 C 0.34362 0.08567 0.66946 0.0
H293 H 0.26551 0.0439 0.73818 0.0
H294 H 0.40848 0.05832 0.62686 0.0
H295 H 0.38178 0.9938 0.70495 0.0
H296 H 0.41085 0.06831 0.74228 0.0
Co297 Co 0.29146 0.33006 0.85324 0.0
C298 C 0.25734 0.31997 0.89482 0.0
C299 C 0.25684 0.28434 0.88359 0.0
C300 C 0.23774 0.27756 0.9006 0.0
N301 N 0.26963 0.3111 0.88016 0.0
N302 N 0.23794 0.29999 0.90755 0.0
H303 H 0.26035 0.34004 0.89449 0.0
H304 H 0.25922 0.27016 0.87308 0.0
C305 C 0.31021 0.28974 0.86061 0.0
O306 O 0.31489 0.29595 0.88275 0.0
N307 N 0.31205 0.34863 0.82622 0.0
C308 C 0.32673 0.37539 0.82338 0.0
C309 C 0.33508 0.38061 0.80064 0.0
C310 C 0.31148 0.33789 0.80532 0.0
N311 N 0.32539 0.35702 0.78934 0.0
C312 C 0.32265 0.36864 0.88848 0.0
C313 C 0.37128 0.37378 0.87575 0.0
C314 C 0.37118 0.3921 0.89175 0.0
C315 C 0.34631 0.38875 0.89861 0.0
C316 C 0.34716 0.35385 0.86615 0.0
N317 N 0.32319 0.35163 0.87229 0.0
H318 H 0.30417 0.36809 0.89256 0.0
H319 H 0.34807 0.34162 0.85237 0.0
H320 H 0.33031 0.39005 0.83671 0.0
H321 H 0.29991 0.31663 0.80162 0.0
O322 O 0.27619 0.3534 0.85269 0.0
O323 O 0.2595 0.31418 0.83465 0.0
O324 O 0.30124 0.30146 0.84764 0.0
C325 C 0.25803 0.33556 0.83891 0.0
H326 H 0.22369 0.25741 0.90633 0.0
H327 H 0.34692 0.40026 0.79293 0.0
H328 H 0.38992 0.37586 0.86942 0.0
H329 H 0.34513 0.40226 0.91101 0.0
Co330 Co 0.96712 0.29267 0.0227 0.0
C331 C 0.93743 0.2504 0.05835 0.0
C332 C 0.97535 0.28103 0.07132 0.0
C333 C 0.96195 0.26319 0.08898 0.0
N334 N 0.96007 0.27308 0.05197 0.0
N335 N 0.93802 0.24395 0.08084 0.0
H336 H 0.92022 0.23942 0.04722 0.0
H337 H 0.99425 0.29929 0.07315 0.0
C338 C 0.02733 0.3114 0.03079 0.0
O339 O 0.03083 0.32763 0.04812 0.0
N340 N 0.97347 0.31177 0.99375 0.0
C341 C 0.96357 0.3278 0.98803 0.0
C342 C 0.97019 0.33577 0.96539 0.0
C343 C 0.98559 0.30977 0.97447 0.0
N344 N 0.98399 0.32442 0.95685 0.0
C345 C 0.96058 0.32653 0.05506 0.0
C346 C 1.00435 0.37413 0.04062 0.0
C347 C 0.98614 0.37516 0.05616 0.0
C348 C 0.96436 0.35084 0.06382 0.0
C349 C 0.99972 0.34946 0.03217 0.0
N350 N 0.97798 0.32603 0.03928 0.0
H351 H 0.9428 0.30809 0.05996 0.0
H352 H 0.01288 0.34931 0.01887 0.0
H353 H 0.95171 0.33273 0.99939 0.0
H354 H 0.99484 0.29745 0.97326 0.0
O355 O 0.92921 0.28054 0.01866 0.0
O356 O 0.95016 0.25962 0.00565 0.0
O357 O 1.00447 0.29774 0.02094 0.0
C358 C 0.92836 0.26106 0.00638 0.0
H359 H 0.96912 0.26471 0.10661 0.0
H360 H 0.96424 0.34802 0.95567 0.0
H361 H 0.02158 0.39229 0.03433 0.0
H362 H 0.94945 0.35055 0.07544 0.0
Co363 Co 0.68018 0.96106 0.18802 0.0
C364 C 0.68916 0.93668 0.23 0.0
C365 C 0.72519 0.97177 0.21934 0.0
C366 C 0.73134 0.95975 0.23708 0.0
N367 N 0.69856 0.9577 0.21517 0.0
N368 N 0.70866 0.93756 0.24371 0.0
H369 H 0.66908 0.91966 0.22932 0.0
H370 H 0.7397 0.9884 0.20909 0.0
C371 C 0.72053 0.02013 0.19647 0.0
O372 O 0.71447 0.01834 0.21864 0.0
N373 N 0.66218 0.96365 0.16079 0.0
C374 C 0.63551 0.95224 0.15759 0.0
C375 C 0.63082 0.9563 0.13493 0.0
C376 C 0.67337 0.97416 0.14012 0.0
N377 N 0.65465 0.96998 0.12396 0.0
C378 C 0.64 0.95195 0.22199 0.0
C379 C 0.63571 0.99621 0.21036 0.0
C380 C 0.61643 0.97684 0.22516 0.0
C381 C 0.61935 0.95493 0.23153 0.0
C382 C 0.65617 0.99256 0.20133 0.0
N383 N 0.65797 0.97043 0.20688 0.0
H384 H 0.64017 0.93372 0.22546 0.0
H385 H 0.66908 0.00642 0.18826 0.0
H386 H 0.62051 0.941 0.17062 0.0
H387 H 0.69473 0.98407 0.13693 0.0
O388 O 0.65712 0.9224 0.18651 0.0
O389 O 0.69675 0.94584 0.16939 0.0
O390 O 0.7087 0.99963 0.18327 0.0
C391 C 0.6753 0.92277 0.17279 0.0
H392 H 0.75124 0.96618 0.24372 0.0
H393 H 0.61133 0.94871 0.12693 0.0
H394 H 0.634 0.01312 0.20443 0.0
H395 H 0.60506 0.93949 0.24299 0.0
H396 H 0.30671 0.09416 0.64793 0.0
H397 H 0.31505 0.12932 0.61994 0.0
H398 H 0.4002 0.16541 0.63135 0.0
H399 H 0.39198 0.13018 0.65973 0.0
H400 H 0.34959 0.19092 0.62576 0.0
H401 H 0.38229 0.14344 0.5586 0.0
H402 H 0.3613 0.12427 0.58261 0.0
H403 H 0.39583 0.14858 0.58762 0.0
C404 C 0.32719 0.10986 0.64484 0.0
C405 C 0.34871 0.10947 0.65595 0.0
C406 C 0.33191 0.12988 0.62884 0.0
C407 C 0.35821 0.14968 0.62347 0.0
C408 C 0.37977 0.15013 0.63525 0.0
H409 H 0.38859 0.26139 0.50718 0.0
H410 H 0.39736 0.23652 0.53732 0.0
C411 C 0.37503 0.13018 0.65154 0.0
C412 C 0.36257 0.16877 0.6046 0.0
H413 H 0.3741 0.17761 0.5462 0.0
C414 C 0.35547 0.18842 0.60846 0.0
C415 C 0.37028 0.16537 0.58211 0.0
C416 C 0.37785 0.14428 0.57725 0.0
C417 C 0.35479 0.20408 0.59015 0.0
C418 C 0.36079 0.19949 0.56737 0.0
C419 C 0.36938 0.1809 0.56369 0.0
C420 C 0.3557 0.21205 0.5471 0.0
C421 C 0.34684 0.22487 0.59517 0.0
C422 C 0.32932 0.20552 0.54197 0.0
C423 C 0.32427 0.2195 0.52485 0.0
C424 C 0.34552 0.2402 0.51243 0.0
C425 C 0.37182 0.24544 0.51642 0.0
C426 C 0.37688 0.2314 0.53369 0.0
H427 H 0.35005 0.231 0.61373 0.0
H428 H 0.35838 0.24296 0.58422 0.0
H429 H 0.32521 0.21633 0.5912 0.0
H430 H 0.31268 0.19028 0.55189 0.0
H431 H 0.30378 0.21489 0.52207 0.0
H432 H 0.13 0.38341 0.67644 0.0
H433 H 0.16224 0.39135 0.70767 0.0
H434 H 0.12724 0.30601 0.71681 0.0
H435 H 0.09496 0.29797 0.68598 0.0
H436 H 0.12866 0.33515 0.75758 0.0
H437 H 0.22794 0.38002 0.71345 0.0
H438 H 0.20688 0.39407 0.70716 0.0
H439 H 0.19677 0.36062 0.69785 0.0
C440 C 0.12978 0.36638 0.68463 0.0
C441 C 0.10998 0.34007 0.67882 0.0
C442 C 0.14813 0.37095 0.7025 0.0
C443 C 0.14703 0.34925 0.71456 0.0
C444 C 0.12832 0.32301 0.70777 0.0
H445 H 0.21145 0.29836 0.81897 0.0
H446 H 0.18381 0.30632 0.79159 0.0
C447 C 0.10998 0.31846 0.69008 0.0
C448 C 0.16354 0.3534 0.73554 0.0
H449 H 0.22709 0.37267 0.7537 0.0
C450 C 0.15024 0.34365 0.7568 0.0
C451 C 0.19169 0.36484 0.73451 0.0
C452 C 0.2068 0.37541 0.71205 0.0
C453 C 0.16418 0.34389 0.77684 0.0
C454 C 0.19208 0.35384 0.77551 0.0
C455 C 0.20566 0.36505 0.75461 0.0
C456 C 0.2068 0.34956 0.79453 0.0
C457 C 0.14884 0.33281 0.79914 0.0
C458 C 0.22869 0.37126 0.8055 0.0
C459 C 0.24443 0.36673 0.8214 0.0
C460 C 0.23873 0.34045 0.8261 0.0
C461 C 0.21622 0.31881 0.81573 0.0
C462 C 0.20038 0.32332 0.80013 0.0
H463 H 0.12999 0.33367 0.79927 0.0
H464 H 0.14339 0.31149 0.8009 0.0
H465 H 0.16118 0.34397 0.81444 0.0
H466 H 0.23404 0.39165 0.80124 0.0
H467 H 0.26187 0.38377 0.82895 0.0
H468 H 0.7517 0.13081 0.84313 0.0
H469 H 0.77945 0.16692 0.87061 0.0
H470 H 0.82991 0.13225 0.88089 0.0
H471 H 0.80242 0.09632 0.85369 0.0
H472 H 0.78719 0.15676 0.91836 0.0
H473 H 0.88361 0.21296 0.87146 0.0
H474 H 0.85223 0.19143 0.85681 0.0
H475 H 0.87024 0.17733 0.87091 0.0
C476 C 0.76914 0.13135 0.8508 0.0
C477 C 0.77499 0.11083 0.84625 0.0
C478 C 0.78483 0.15185 0.86658 0.0
C479 C 0.80682 0.15234 0.87763 0.0
C480 C 0.81328 0.13248 0.87229 0.0
H481 H 0.91882 0.21475 0.98584 0.0
H482 H 0.88636 0.1901 0.95524 0.0
C483 C 0.79751 0.11192 0.85679 0.0
C484 C 0.82188 0.172 0.89622 0.0
H485 H 0.88561 0.21736 0.91307 0.0
C486 C 0.80861 0.1705 0.91711 0.0
C487 C 0.84977 0.18986 0.89447 0.0
C488 C 0.86478 0.19323 0.87212 0.0
C489 C 0.82291 0.18512 0.93682 0.0
C490 C 0.85105 0.20174 0.93541 0.0
C491 C 0.86403 0.20438 0.91414 0.0
C492 C 0.86788 0.2148 0.95612 0.0
C493 C 0.80818 0.18157 0.95935 0.0
C494 C 0.86766 0.23637 0.96727 0.0
C495 C 0.88619 0.25049 0.98498 0.0
C496 C 0.90525 0.24327 0.99156 0.0
C497 C 0.90442 0.22082 0.98113 0.0
C498 C 0.88595 0.20676 0.96359 0.0
H499 H 0.78681 0.16552 0.95823 0.0
H500 H 0.81801 0.17665 0.97359 0.0
H501 H 0.80894 0.20064 0.96399 0.0
H502 H 0.85402 0.24303 0.96158 0.0
H503 H 0.88658 0.2679 0.99254 0.0
H504 H 0.70908 0.79632 0.01882 0.0
H505 H 0.70085 0.82284 0.04728 0.0
H506 H 0.61555 0.77179 0.0381 0.0
H507 H 0.62364 0.74509 0.00931 0.0
H508 H 0.66605 0.84887 0.04386 0.0
H509 H 0.63501 0.76749 0.10958 0.0
H510 H 0.65493 0.76959 0.08462 0.0
H511 H 0.6202 0.75935 0.081 0.0
C512 C 0.68856 0.79107 0.02248 0.0
C513 C 0.66699 0.76865 0.01192 0.0
C514 C 0.68391 0.8062 0.03874 0.0
C515 C 0.65763 0.79901 0.04492 0.0
C516 C 0.63597 0.77747 0.03359 0.0
H517 H 0.62731 0.87726 0.16381 0.0
H518 H 0.61863 0.8443 0.13299 0.0
C519 C 0.64063 0.76242 0.01706 0.0
C520 C 0.65342 0.81329 0.0643 0.0
H521 H 0.64224 0.80922 0.12281 0.0
C522 C 0.66034 0.84009 0.06103 0.0
C523 C 0.64594 0.80167 0.08664 0.0
C524 C 0.63863 0.77296 0.0909 0.0
C525 C 0.66103 0.85596 0.07977 0.0
C526 C 0.6552 0.84484 0.10236 0.0
C527 C 0.64682 0.81763 0.10546 0.0
C528 C 0.66027 0.86199 0.12301 0.0
C529 C 0.66878 0.88478 0.07539 0.0
C530 C 0.68663 0.88186 0.12823 0.0
C531 C 0.69163 0.90049 0.14574 0.0
C532 C 0.67035 0.89951 0.15844 0.0
C533 C 0.6441 0.87839 0.15436 0.0
C534 C 0.63909 0.85969 0.1367 0.0
H535 H 0.66544 0.88808 0.05697 0.0
H536 H 0.65721 0.89095 0.08671 0.0
H537 H 0.69041 0.89792 0.07934 0.0
H538 H 0.70327 0.8836 0.11809 0.0
H539 H 0.71208 0.91644 0.14858 0.0
H540 H 0.91766 0.71003 0.18646 0.0
H541 H 0.88225 0.70099 0.21441 0.0
H542 H 0.84793 0.61601 0.20326 0.0
H543 H 0.88342 0.62494 0.17499 0.0
H544 H 0.82174 0.66691 0.20965 0.0
H545 H 0.86928 0.63244 0.27525 0.0
H546 H 0.88799 0.65305 0.25089 0.0
H547 H 0.86315 0.61859 0.24632 0.0
C548 C 0.90228 0.68943 0.18959 0.0
C549 C 0.9033 0.66818 0.17863 0.0
C550 C 0.8821 0.6843 0.20556 0.0
C551 C 0.86276 0.65786 0.21103 0.0
C552 C 0.86286 0.63655 0.19931 0.0
H553 H 0.75199 0.62531 0.32864 0.0
H554 H 0.7763 0.61694 0.29769 0.0
C555 C 0.88297 0.64169 0.18308 0.0
C556 C 0.84372 0.65309 0.23007 0.0
H557 H 0.83482 0.63982 0.28823 0.0
C558 C 0.8242 0.66047 0.22672 0.0
C559 C 0.84705 0.64464 0.25228 0.0
C560 C 0.86801 0.63676 0.25663 0.0
C561 C 0.80861 0.66073 0.24529 0.0
C562 C 0.81315 0.654 0.26781 0.0
C563 C 0.83157 0.64511 0.27093 0.0
C564 C 0.80083 0.65876 0.28843 0.0
C565 C 0.78796 0.66903 0.24082 0.0
C566 C 0.80761 0.68507 0.2941 0.0
C567 C 0.79396 0.68988 0.31168 0.0
C568 C 0.77336 0.66846 0.32402 0.0
C569 C 0.76787 0.6422 0.31947 0.0
C570 C 0.78158 0.63737 0.30173 0.0
H571 H 0.78169 0.66623 0.22229 0.0
H572 H 0.76993 0.65741 0.25181 0.0
H573 H 0.79671 0.6906 0.24513 0.0
H574 H 0.82281 0.70185 0.28429 0.0
H575 H 0.79875 0.71034 0.31489 0.0
H576 H 0.24155 0.87935 0.33233 0.0
H577 H 0.21165 0.84538 0.36063 0.0
H578 H 0.23091 0.90784 0.41114 0.0
H579 H 0.25946 0.94151 0.38291 0.0
H580 H 0.2177 0.83039 0.40482 0.0
H581 H 0.15069 0.87338 0.40703 0.0
H582 H 0.17683 0.88328 0.38569 0.0
H583 H 0.18454 0.89784 0.41435 0.0
C584 C 0.23925 0.88564 0.34949 0.0
C585 C 0.25213 0.91297 0.35531 0.0
C586 C 0.22234 0.86632 0.36563 0.0
C587 C 0.21853 0.8742 0.38778 0.0
C588 C 0.23284 0.90139 0.39393 0.0
H589 H 0.13657 0.77174 0.50815 0.0
H590 H 0.17126 0.80155 0.48039 0.0
C591 C 0.24913 0.92059 0.37777 0.0
C592 C 0.19876 0.85449 0.40427 0.0
H593 H 0.14456 0.84244 0.43695 0.0
C594 C 0.20153 0.8328 0.41174 0.0
C595 C 0.17749 0.85752 0.41304 0.0
C596 C 0.17201 0.8791 0.40443 0.0
C597 C 0.18374 0.81425 0.42806 0.0
C598 C 0.16319 0.81802 0.43755 0.0
C599 C 0.16046 0.83967 0.4299 0.0
C600 C 0.14296 0.79904 0.45424 0.0
C601 C 0.18677 0.79053 0.43452 0.0
C602 C 0.11568 0.78823 0.44904 0.0
C603 C 0.09614 0.77217 0.46504 0.0
C604 C 0.10334 0.76609 0.48653 0.0
C605 C 0.13058 0.77624 0.49168 0.0
C606 C 0.15033 0.79297 0.47574 0.0
H607 H 0.19841 0.78663 0.42126 0.0
H608 H 0.19769 0.79471 0.45127 0.0
H609 H 0.1669 0.77214 0.43658 0.0
H610 H 0.10943 0.79246 0.43258 0.0
H611 H 0.07526 0.76419 0.46038 0.0
H612 H 0.34314 0.22112 0.43169 0.0
H613 H 0.34539 0.1876 0.40716 0.0
H614 H 0.28378 0.1848 0.36274 0.0
H615 H 0.28146 0.21852 0.3872 0.0
H616 H 0.29148 0.1328 0.39579 0.0
H617 H 0.35227 0.19415 0.32079 0.0
H618 H 0.35666 0.20832 0.34958 0.0
H619 H 0.32709 0.20029 0.33324 0.0
C620 C 0.33044 0.21383 0.41646 0.0
C621 C 0.31214 0.22257 0.41136 0.0
C622 C 0.33167 0.19457 0.40253 0.0
C623 C 0.31489 0.18391 0.38309 0.0
C624 C 0.29704 0.19297 0.37759 0.0
H625 H 0.29579 0.05961 0.28423 0.0
H626 H 0.29724 0.09901 0.30224 0.0
C627 C 0.29562 0.21208 0.39163 0.0
C628 C 0.31467 0.16186 0.36966 0.0
H629 H 0.3375 0.14785 0.31983 0.0
C630 C 0.3015 0.13603 0.37918 0.0
C631 C 0.32746 0.16618 0.34788 0.0
C632 C 0.34179 0.1937 0.33712 0.0
C633 C 0.30088 0.11431 0.36754 0.0
C634 C 0.31451 0.11871 0.34609 0.0
C635 C 0.32724 0.14452 0.33633 0.0
C636 C 0.31616 0.09675 0.33399 0.0
C637 C 0.28525 0.08677 0.37824 0.0
C638 C 0.32732 0.08311 0.34542 0.0
C639 C 0.32632 0.06061 0.3353 0.0
C640 C 0.31456 0.05147 0.31331 0.0
C641 C 0.30498 0.06617 0.30117 0.0
C642 C 0.30573 0.08863 0.31147 0.0
H643 H 0.26967 0.08543 0.39041 0.0
H644 H 0.27535 0.07105 0.36471 0.0
H645 H 0.29915 0.08249 0.38825 0.0
H646 H 0.33618 0.08946 0.3625 0.0
H647 H 0.33423 0.04997 0.345 0.0
H648 H 0.26176 0.32497 0.4516 0.0
H649 H 0.22501 0.32956 0.46829 0.0
H650 H 0.23993 0.30624 0.53531 0.0
H651 H 0.27661 0.30204 0.51907 0.0
H652 H 0.17871 0.29111 0.48947 0.0
H653 H 0.23755 0.37351 0.55136 0.0
H654 H 0.25301 0.36508 0.52808 0.0
H655 H 0.24405 0.34634 0.55479 0.0
C656 C 0.25736 0.32107 0.46994 0.0
C657 C 0.27225 0.31322 0.48397 0.0
C658 C 0.23634 0.32368 0.47944 0.0
C659 C 0.23001 0.31872 0.50316 0.0
C660 C 0.24482 0.31084 0.51712 0.0
H661 H 0.08547 0.26598 0.57961 0.0
H662 H 0.1225 0.27148 0.55542 0.0
C663 C 0.26573 0.30824 0.50769 0.0
C664 C 0.20713 0.32036 0.51334 0.0
H665 H 0.19019 0.34689 0.55894 0.0
C666 C 0.18126 0.30361 0.50444 0.0
C667 C 0.21043 0.33696 0.53267 0.0
C668 C 0.2378 0.3567 0.54213 0.0
C669 C 0.15853 0.30197 0.51509 0.0
C670 C 0.1617 0.31715 0.53542 0.0
C671 C 0.18768 0.33497 0.54356 0.0
C672 C 0.13836 0.31381 0.5492 0.0
C673 C 0.1313 0.28384 0.50454 0.0
C674 C 0.13515 0.33589 0.55425 0.0
C675 C 0.11386 0.33281 0.56822 0.0
C676 C 0.09544 0.30761 0.57756 0.0
C677 C 0.09878 0.28557 0.57239 0.0
C678 C 0.12003 0.28867 0.55848 0.0
H679 H 0.13285 0.28067 0.48569 0.0
H680 H 0.1221 0.26397 0.51316 0.0
H681 H 0.11775 0.29217 0.50687 0.0
H682 H 0.14914 0.35553 0.54741 0.0
H683 H 0.11183 0.35017 0.57168 0.0
H684 H 0.82496 0.08429 0.75051 0.0
H685 H 0.85643 0.12086 0.72586 0.0
H686 H 0.7978 0.1454 0.71479 0.0
H687 H 0.76591 0.10855 0.73952 0.0
H688 H 0.85328 0.13334 0.67967 0.0
H689 H 0.86301 0.21385 0.73918 0.0
H690 H 0.8473 0.17918 0.74794 0.0
H691 H 0.8295 0.19041 0.72978 0.0
C692 C 0.81847 0.09714 0.74265 0.0
C693 C 0.79279 0.0934 0.74714 0.0
C694 C 0.83662 0.11818 0.72858 0.0
C695 C 0.82964 0.1361 0.71868 0.0
C696 C 0.80383 0.13213 0.7226 0.0
H697 H 0.94069 0.25742 0.61799 0.0
H698 H 0.89949 0.22069 0.63496 0.0
C699 C 0.78562 0.11105 0.73675 0.0
C700 C 0.84981 0.15914 0.70476 0.0
H701 H 0.8886 0.22746 0.70492 0.0
C702 C 0.86083 0.15395 0.68503 0.0
C703 C 0.85979 0.18601 0.7119 0.0
C704 C 0.84951 0.19284 0.73345 0.0
C705 C 0.88198 0.17482 0.67258 0.0
C706 C 0.89214 0.20167 0.67988 0.0
C707 C 0.88064 0.20689 0.69925 0.0
C708 C 0.91646 0.22436 0.66926 0.0
C709 C 0.89412 0.16789 0.65242 0.0
C710 C 0.93944 0.239 0.68297 0.0
C711 C 0.9628 0.25995 0.67342 0.0
C712 C 0.96384 0.26691 0.64985 0.0
C713 C 0.94065 0.25251 0.63615 0.0
C714 C 0.91713 0.23143 0.64579 0.0
H715 H 0.88735 0.14614 0.65179 0.0
H716 H 0.88807 0.17337 0.63594 0.0
H717 H 0.91636 0.17933 0.65345 0.0
H718 H 0.93942 0.23396 0.70111 0.0
H719 H 0.98015 0.27058 0.6846 0.0
H720 H 0.71604 0.97997 0.85465 0.0
H721 H 0.71238 0.93937 0.87108 0.0
H722 H 0.68422 0.89905 0.80525 0.0
H723 H 0.68826 0.94005 0.78839 0.0
H724 H 0.66858 0.8889 0.87579 0.0
H725 H 0.74641 0.88644 0.8205 0.0
H726 H 0.7423 0.91546 0.82221 0.0
H727 H 0.7195 0.88694 0.80512 0.0
C728 C 0.70908 0.96255 0.84354 0.0
C729 C 0.7026 0.96341 0.82009 0.0
C730 C 0.70694 0.93927 0.85304 0.0
C731 C 0.69834 0.91622 0.83937 0.0
C732 C 0.69138 0.91675 0.81603 0.0
H733 H 0.6607 0.76371 0.90676 0.0
H734 H 0.65688 0.79723 0.88346 0.0
C735 C 0.69356 0.94016 0.80645 0.0
C736 C 0.69684 0.8919 0.84987 0.0
H737 H 0.72474 0.8517 0.84786 0.0
C738 C 0.68067 0.8806 0.86956 0.0
C739 C 0.71286 0.88127 0.84188 0.0
C740 C 0.73144 0.89321 0.82139 0.0
C741 C 0.68046 0.85935 0.88175 0.0
C742 C 0.6965 0.84875 0.87379 0.0
C743 C 0.7123 0.85971 0.85384 0.0
C744 C 0.6987 0.82766 0.88689 0.0
C745 C 0.66394 0.84924 0.90361 0.0
C746 C 0.72359 0.83327 0.896 0.0
C747 C 0.72584 0.81416 0.90925 0.0
C748 C 0.70324 0.78888 0.91367 0.0
C749 C 0.67841 0.78308 0.90404 0.0
C750 C 0.67619 0.80224 0.89072 0.0
H751 H 0.65755 0.86334 0.91011 0.0
H752 H 0.64563 0.82974 0.89995 0.0
H753 H 0.67537 0.84604 0.91756 0.0
H754 H 0.74123 0.85273 0.89331 0.0
H755 H 0.74522 0.81958 0.91654 0.0
H756 H 0.73769 0.70948 0.01972 0.0
H757 H 0.77547 0.70734 0.03615 0.0
H758 H 0.78794 0.67883 0.9707 0.0
H759 H 0.75007 0.68135 0.9538 0.0
H760 H 0.78367 0.66462 0.04142 0.0
H761 H 0.86219 0.74288 0.98511 0.0
H762 H 0.82867 0.73777 0.98691 0.0
H763 H 0.83499 0.71521 0.97017 0.0
C764 C 0.74837 0.70275 0.00869 0.0
C765 C 0.74087 0.69576 0.98532 0.0
C766 C 0.77001 0.70148 0.01819 0.0
C767 C 0.7848 0.69326 0.00462 0.0
C768 C 0.77713 0.68572 0.98139 0.0
H769 H 0.90314 0.66163 0.07315 0.0
H770 H 0.86547 0.65642 0.04946 0.0
C771 C 0.75538 0.68701 0.9718 0.0
C772 C 0.80818 0.6928 0.01515 0.0
H773 H 0.87655 0.72289 0.01304 0.0
C774 C 0.80397 0.67715 0.03509 0.0
C775 C 0.83468 0.70943 0.00703 0.0
C776 C 0.84059 0.72747 0.98625 0.0
C777 C 0.82549 0.67806 0.0474 0.0
C778 C 0.85201 0.69472 0.03931 0.0
C779 C 0.85621 0.71 0.01912 0.0
C780 C 0.87571 0.69792 0.05245 0.0
C781 C 0.81972 0.66207 0.06953 0.0
C782 C 0.8945 0.72313 0.0614 0.0
C783 C 0.91608 0.72618 0.07489 0.0
C784 C 0.91941 0.70407 0.07972 0.0
C785 C 0.90094 0.67897 0.07015 0.0
C786 C 0.87938 0.67595 0.0566 0.0
H787 H 0.79914 0.65521 0.07606 0.0
H788 H 0.8215 0.64406 0.06618 0.0
H789 H 0.83432 0.67408 0.08333 0.0
H790 H 0.89209 0.74037 0.05843 0.0
H791 H 0.92965 0.74575 0.08209 0.0
H792 H 0.20099 0.93706 0.23999 0.0
H793 H 0.16833 0.89964 0.21661 0.0
H794 H 0.20751 0.85472 0.23348 0.0
H795 H 0.23939 0.89141 0.258 0.0
H796 H 0.17118 0.87358 0.17913 0.0
H797 H 0.13207 0.80311 0.25355 0.0
H798 H 0.15491 0.8385 0.25732 0.0
H799 H 0.16724 0.81669 0.24842 0.0
C800 C 0.20263 0.91919 0.23901 0.0
C801 C 0.22272 0.91732 0.25145 0.0
C802 C 0.184 0.89782 0.22537 0.0
C803 C 0.18501 0.87405 0.22365 0.0
C804 C 0.20582 0.87256 0.235 0.0
H805 H 0.07735 0.74605 0.12576 0.0
H806 H 0.1178 0.78248 0.14403 0.0
C807 C 0.22435 0.89384 0.24886 0.0
C808 C 0.16374 0.8507 0.21055 0.0
H809 H 0.11391 0.78551 0.21671 0.0
C810 C 0.15872 0.85427 0.1873 0.0
C811 C 0.14724 0.82556 0.22128 0.0
C812 C 0.1504 0.82071 0.24656 0.0
C813 C 0.13746 0.83363 0.17465 0.0
C814 C 0.12112 0.80844 0.18535 0.0
C815 C 0.12652 0.80473 0.20843 0.0
C816 C 0.09696 0.78633 0.17377 0.0
C817 C 0.13203 0.83941 0.15031 0.0
C818 C 0.07187 0.77585 0.18458 0.0
C819 C 0.04893 0.75486 0.17441 0.0
C820 C 0.05038 0.74379 0.15303 0.0
C821 C 0.07549 0.75426 0.14212 0.0
C822 C 0.09862 0.77521 0.15249 0.0
H823 H 0.14205 0.86129 0.14682 0.0
H824 H 0.13985 0.83045 0.13768 0.0
H825 H 0.11017 0.83053 0.14721 0.0
H826 H 0.06997 0.78402 0.20096 0.0
H827 H 0.02998 0.74741 0.18335 0.0
H828 H 0.9754 0.70251 0.48755 0.0
H829 H 0.93474 0.69907 0.47165 0.0
H830 H 0.89861 0.68052 0.53964 0.0
H831 H 0.93992 0.68451 0.55603 0.0
H832 H 0.88322 0.65742 0.47039 0.0
H833 H 0.88947 0.74348 0.51967 0.0
H834 H 0.91701 0.73699 0.5184 0.0
H835 H 0.88874 0.71707 0.53681 0.0
C836 C 0.9589 0.69768 0.49928 0.0
C837 C 0.96111 0.694 0.52319 0.0
C838 C 0.93555 0.69563 0.49007 0.0
C839 C 0.91369 0.68987 0.50444 0.0
C840 C 0.91541 0.68548 0.52826 0.0
H841 H 0.76423 0.66007 0.43451 0.0
H842 H 0.79516 0.65405 0.45971 0.0
C843 C 0.93897 0.6876 0.53758 0.0
C844 C 0.88955 0.68898 0.49408 0.0
H845 H 0.85418 0.7221 0.4928 0.0
C846 C 0.87662 0.67133 0.47547 0.0
C847 C 0.88116 0.70735 0.50056 0.0
C848 C 0.89487 0.72748 0.51982 0.0
C849 C 0.8562 0.67211 0.4627 0.0
C850 C 0.84802 0.69069 0.46901 0.0
C851 C 0.86036 0.70777 0.48807 0.0
C852 C 0.82843 0.69433 0.45484 0.0
C853 C 0.84456 0.65398 0.44184 0.0
C854 C 0.83652 0.71915 0.44425 0.0
C855 C 0.81888 0.72267 0.42996 0.0
C856 C 0.79265 0.70143 0.4259 0.0
C857 C 0.78439 0.67671 0.43695 0.0
C858 C 0.80206 0.67323 0.45135 0.0
H859 H 0.85704 0.6452 0.43641 0.0
H860 H 0.82427 0.63725 0.44619 0.0
H861 H 0.84261 0.66506 0.4269 0.0
H862 H 0.85676 0.73572 0.44662 0.0
H863 H 0.82615 0.74188 0.42159 0.0
H864 H 0.25915 0.94217 0.71568 0.0
H865 H 0.2208 0.90254 0.69829 0.0
H866 H 0.24461 0.93832 0.63044 0.0
H867 H 0.28254 0.97779 0.6475 0.0
H868 H 0.19094 0.91954 0.63995 0.0
H869 H 0.21856 0.8418 0.6587 0.0
H870 H 0.21844 0.86099 0.6833 0.0
H871 H 0.24245 0.87726 0.66048 0.0
C872 C 0.25637 0.94145 0.69704 0.0
C873 C 0.27394 0.96326 0.68305 0.0
C874 C 0.23449 0.91874 0.68711 0.0
C875 C 0.22991 0.91737 0.66302 0.0
C876 C 0.2477 0.9389 0.64905 0.0
H877 H 0.12762 0.78871 0.56984 0.0
H878 H 0.16434 0.82301 0.59304 0.0
C879 C 0.26945 0.9615 0.65889 0.0
C880 C 0.20599 0.89428 0.65221 0.0
H881 H 0.17643 0.82712 0.64085 0.0
C882 C 0.1877 0.8993 0.64025 0.0
C883 C 0.20192 0.86794 0.6524 0.0
C884 C 0.22144 0.86156 0.66423 0.0
C885 C 0.1656 0.87883 0.62835 0.0
C886 C 0.16135 0.85241 0.62871 0.0
C887 C 0.17958 0.84732 0.64075 0.0
C888 C 0.13872 0.83014 0.61583 0.0
C889 C 0.14749 0.88587 0.61486 0.0
C890 C 0.11201 0.82224 0.62122 0.0
C891 C 0.09089 0.80256 0.60798 0.0
C892 C 0.096 0.79016 0.58915 0.0
C893 C 0.12279 0.79752 0.58431 0.0
C894 C 0.14389 0.81725 0.59753 0.0
H895 H 0.15702 0.90781 0.61182 0.0
H896 H 0.14199 0.87545 0.5978 0.0
H897 H 0.12876 0.8794 0.62484 0.0
H898 H 0.10748 0.8315 0.63556 0.0
H899 H 0.07053 0.79707 0.61247 0.0
H900 H 0.32407 0.25596 0.8827 0.0
H901 H 0.32846 0.21941 0.86526 0.0
H902 H 0.30864 0.2379 0.79813 0.0
H903 H 0.30461 0.27439 0.81515 0.0
H904 H 0.28989 0.17439 0.84201 0.0
H905 H 0.37581 0.23435 0.78378 0.0
H906 H 0.36687 0.24919 0.80724 0.0
H907 H 0.34931 0.24179 0.77993 0.0
C908 C 0.32093 0.25241 0.86419 0.0
C909 C 0.31405 0.2682 0.85036 0.0
C910 C 0.3234 0.23148 0.85425 0.0
C911 C 0.31931 0.22617 0.8303 0.0
C912 C 0.31251 0.24196 0.81653 0.0
H913 H 0.26915 0.08387 0.74981 0.0
H914 H 0.2734 0.1203 0.77428 0.0
C915 C 0.31002 0.26276 0.82639 0.0
C916 C 0.32076 0.20337 0.81968 0.0
H917 H 0.34913 0.1874 0.77488 0.0
C918 C 0.3031 0.17726 0.82754 0.0
C919 C 0.33825 0.20707 0.80099 0.0
C920 C 0.35883 0.23464 0.79264 0.0
C921 C 0.30158 0.15473 0.81652 0.0
C922 C 0.31784 0.15838 0.79688 0.0
C923 C 0.33641 0.18454 0.78974 0.0
C924 C 0.31512 0.1354 0.7829 0.0
C925 C 0.28246 0.12723 0.82598 0.0
C926 C 0.33729 0.13193 0.77916 0.0
C927 C 0.33493 0.111 0.76508 0.0
C928 C 0.31038 0.09317 0.75427 0.0
C929 C 0.28822 0.09674 0.75814 0.0
C930 C 0.29061 0.11764 0.77219 0.0
H931 H 0.27795 0.12813 0.8446 0.0
H932 H 0.26328 0.11855 0.81621 0.0
H933 H 0.29073 0.11357 0.82408 0.0
H934 H 0.35645 0.14546 0.78714 0.0
H935 H 0.35234 0.10877 0.76269 0.0
H936 H 0.02629 0.27593 0.99873 0.0
H937 H 0.06422 0.27541 0.98052 0.0
H938 H 0.119 0.34423 0.02118 0.0
H939 H 0.08101 0.34448 0.04001 0.0
H940 H 0.10246 0.31331 0.95381 0.0
H941 H 0.15014 0.29588 0.03055 0.0
H942 H 0.11689 0.29157 0.03155 0.0
H943 H 0.1459 0.32457 0.03324 0.0
C944 C 0.04638 0.2908 0.00406 0.0
C945 C 0.05055 0.31021 0.02094 0.0
C946 C 0.06809 0.29049 0.99356 0.0
C947 C 0.09453 0.30958 0.99961 0.0
C948 C 0.09882 0.3289 0.01658 0.0
H949 H 0.2455 0.34226 0.93392 0.0
H950 H 0.21158 0.34588 0.95702 0.0
C951 C 0.07705 0.3291 0.02726 0.0
C952 C 0.11735 0.30984 0.98721 0.0
H953 H 0.17387 0.30529 0.99491 0.0
C954 C 0.11803 0.31153 0.96285 0.0
C955 C 0.13778 0.3076 0.99896 0.0
C956 C 0.13761 0.30455 0.02499 0.0
C957 C 0.13839 0.31089 0.94996 0.0
C958 C 0.1586 0.30844 0.96168 0.0
C959 C 0.15833 0.30725 0.98602 0.0
C960 C 0.1795 0.30596 0.94872 0.0
C961 C 0.13818 0.31279 0.92383 0.0
C962 C 0.17272 0.28221 0.93672 0.0
C963 C 0.19199 0.28005 0.92363 0.0
C964 C 0.21846 0.30169 0.92217 0.0
C965 C 0.22526 0.32535 0.93454 0.0
C966 C 0.20598 0.3274 0.94781 0.0
H967 H 0.12394 0.31916 0.91766 0.0
H968 H 0.15856 0.32719 0.9173 0.0
H969 H 0.13214 0.29286 0.91618 0.0
H970 H 0.15238 0.26542 0.93725 0.0
H971 H 0.18591 0.26167 0.91412 0.0
H972 H 0.75665 0.06664 0.21907 0.0
H973 H 0.79341 0.10746 0.20161 0.0
H974 H 0.77011 0.07146 0.13369 0.0
H975 H 0.73351 0.03109 0.15074 0.0
H976 H 0.8364 0.11167 0.1746 0.0
H977 H 0.77603 0.14449 0.12415 0.0
H978 H 0.76202 0.12033 0.14741 0.0
H979 H 0.76643 0.1101 0.119 0.0
C980 C 0.75919 0.06757 0.2004 0.0
C981 C 0.74206 0.04557 0.18635 0.0
C982 C 0.78024 0.09086 0.19046 0.0
C983 C 0.78427 0.09266 0.1663 0.0
C984 C 0.76709 0.07079 0.1523 0.0
H985 H 0.89765 0.1968 0.06399 0.0
H986 H 0.86087 0.16097 0.08597 0.0
C987 C 0.74622 0.04759 0.16216 0.0
C988 C 0.80707 0.11673 0.15555 0.0
H989 H 0.82221 0.16406 0.11355 0.0
C990 C 0.83335 0.12339 0.16148 0.0
C991 C 0.80304 0.13192 0.13836 0.0
C992 C 0.77536 0.12654 0.13199 0.0
C993 C 0.85566 0.14414 0.15004 0.0
C994 C 0.85157 0.1589 0.13245 0.0
C995 C 0.82532 0.15263 0.12691 0.0
C996 C 0.87422 0.18065 0.1193 0.0
C997 C 0.88335 0.14942 0.15625 0.0
C998 C 0.89384 0.20375 0.13068 0.0
C999 C 0.91486 0.22434 0.11814 0.0
C1000 C 0.91664 0.22238 0.09388 0.0
C1001 C 0.89684 0.19919 0.08256 0.0
C1002 C 0.87583 0.17861 0.09513 0.0
H1003 H 0.88265 0.13241 0.16594 0.0
H1004 H 0.89573 0.15317 0.14042 0.0
H1005 H 0.89343 0.16752 0.16743 0.0
H1006 H 0.8927 0.20605 0.14924 0.0
H1007 H 0.92936 0.24204 0.12744 0.0
H1008 H 0.66439 0.90204 0.26767 0.0
H1009 H 0.6599 0.86586 0.29299 0.0
H1010 H 0.74276 0.88988 0.28073 0.0
H1011 H 0.7474 0.92588 0.25551 0.0
H1012 H 0.66598 0.82353 0.28186 0.0
H1013 H 0.73871 0.88287 0.35074 0.0
H1014 H 0.72654 0.89771 0.32991 0.0
H1015 H 0.75343 0.89172 0.32238 0.0
C1016 C 0.68168 0.89968 0.27043 0.0
C1017 C 0.70629 0.91702 0.25957 0.0
C1018 C 0.67912 0.87906 0.28501 0.0
C1019 C 0.70112 0.87542 0.28914 0.0
C1020 C 0.7257 0.89273 0.27839 0.0
H1021 H 0.71037 0.73626 0.31953 0.0
H1022 H 0.70614 0.77298 0.30352 0.0
C1023 C 0.7283 0.91336 0.26388 0.0
C1024 C 0.69808 0.85251 0.30338 0.0
H1025 H 0.72656 0.8364 0.34803 0.0
C1026 C 0.67897 0.82638 0.29655 0.0
C1027 C 0.71466 0.85614 0.32282 0.0
C1028 C 0.73429 0.88364 0.33206 0.0
C1029 C 0.67699 0.80383 0.3078 0.0
C1030 C 0.69493 0.80748 0.32613 0.0
C1031 C 0.71303 0.83358 0.33381 0.0
C1032 C 0.6966 0.78463 0.33628 0.0
C1033 C 0.65588 0.77629 0.29975 0.0
C1034 C 0.6933 0.77924 0.36024 0.0
C1035 C 0.6959 0.75817 0.36961 0.0
C1036 C 0.70212 0.74231 0.35519 0.0
C1037 C 0.70544 0.7479 0.33123 0.0
C1038 C 0.70283 0.76883 0.32194 0.0
H1039 H 0.63867 0.77677 0.29149 0.0
H1040 H 0.66472 0.76891 0.2866 0.0
H1041 H 0.64827 0.76183 0.31439 0.0
H1042 H 0.68871 0.79135 0.37167 0.0
H1043 H 0.69332 0.7545 0.38813 0.0
H1044 H 0.42443 0.41825 0.47345 0.0
H1045 H 0.46451 0.46034 0.46335 0.0
H1046 H 0.46631 0.42832 0.39614 0.0
H1047 H 0.42565 0.38614 0.40583 0.0
H1048 H 0.51632 0.45265 0.42192 0.0
H1049 H 0.4718 0.51862 0.41642 0.0
H1050 H 0.4637 0.49852 0.44225 0.0
H1051 H 0.45186 0.48251 0.41455 0.0
C1052 C 0.43287 0.42026 0.45628 0.0
C1053 C 0.42155 0.39878 0.44037 0.0
C1054 C 0.45592 0.44436 0.4506 0.0
C1055 C 0.4682 0.44753 0.42893 0.0
C1056 C 0.45705 0.42626 0.41295 0.0
H1057 H 0.59613 0.59096 0.36599 0.0
H1058 H 0.55406 0.55066 0.37575 0.0
C1059 C 0.43388 0.40214 0.41856 0.0
C1060 C 0.4933 0.4727 0.42338 0.0
H1061 H 0.51931 0.53999 0.41549 0.0
C1062 C 0.517 0.47174 0.42045 0.0
C1063 C 0.49404 0.49752 0.42137 0.0
C1064 C 0.46899 0.49948 0.42361 0.0
C1065 C 0.54154 0.49508 0.41586 0.0
C1066 C 0.54239 0.51999 0.41435 0.0
C1067 C 0.51862 0.52088 0.41693 0.0
C1068 C 0.56763 0.54521 0.40924 0.0
C1069 C 0.56633 0.49289 0.41233 0.0
C1070 C 0.58906 0.55582 0.42508 0.0
C1071 C 0.61314 0.57915 0.41971 0.0
C1072 C 0.61622 0.59231 0.39837 0.0
C1073 C 0.59442 0.58177 0.38277 0.0
C1074 C 0.57036 0.55857 0.38822 0.0
H1075 H 0.56135 0.47181 0.40949 0.0
H1076 H 0.57806 0.50514 0.39725 0.0
H1077 H 0.57927 0.50063 0.42799 0.0
H1078 H 0.58718 0.54599 0.44157 0.0
H1079 H 0.62935 0.58685 0.43224 0.0
H1080 H 0.04256 0.42021 0.57251 0.0
H1081 H 0.04227 0.46173 0.56378 0.0
H1082 H 0.01277 0.4614 0.63262 0.0
H1083 H 0.01373 0.42054 0.64173 0.0
H1084 H 0.99983 0.47349 0.56519 0.0
H1085 H 0.08092 0.53552 0.62784 0.0
H1086 H 0.07393 0.50267 0.61864 0.0
H1087 H 0.05325 0.50602 0.6402 0.0
C1088 C 0.03606 0.42901 0.5858 0.0
C1089 C 0.02819 0.417 0.60783 0.0
C1090 C 0.03578 0.45264 0.58074 0.0
C1091 C 0.02787 0.46484 0.59767 0.0
C1092 C 0.01932 0.45254 0.61942 0.0
H1093 H 0.99046 0.59288 0.57758 0.0
H1094 H 0.98859 0.55044 0.58667 0.0
C1095 C 0.01957 0.42895 0.62448 0.0
C1096 C 0.02888 0.49062 0.59276 0.0
H1097 H 0.05839 0.55599 0.61031 0.0
C1098 C 0.01264 0.49155 0.57501 0.0
C1099 C 0.04585 0.51422 0.60544 0.0
C1100 C 0.06468 0.51475 0.62396 0.0
C1101 C 0.01263 0.51539 0.56983 0.0
C1102 C 0.02906 0.5388 0.58295 0.0
C1103 C 0.04557 0.53794 0.60047 0.0
C1104 C 0.03018 0.56467 0.57821 0.0
C1105 C 0.99546 0.51546 0.55006 0.0
C1106 C 0.05435 0.58698 0.57113 0.0
C1107 C 0.0555 0.61124 0.56596 0.0
C1108 C 0.03251 0.61379 0.56792 0.0
C1109 C 0.00845 0.59154 0.5756 0.0
C1110 C 1.00732 0.56724 0.58075 0.0
H1111 H 0.98905 0.49791 0.53839 0.0
H1112 H 0.97717 0.51462 0.5572 0.0
H1113 H 1.00638 0.53408 0.53962 0.0
H1114 H 0.07224 0.58546 0.56909 0.0
H1115 H 0.07426 0.62773 0.55972 0.0
H1116 H 0.59689 0.01002 0.8095 0.0
H1117 H 0.55451 0.0075 0.7997 0.0
H1118 H 0.58441 0.03803 0.73124 0.0
H1119 H 0.62671 0.03966 0.7406 0.0
H1120 H 0.5471 0.04919 0.78796 0.0
H1121 H 0.51073 0.97369 0.71712 0.0
H1122 H 0.5376 0.97887 0.73648 0.0
H1123 H 0.54399 1.00141 0.71263 0.0
C1124 C 0.59431 0.01558 0.79213 0.0
C1125 C 0.61522 0.02479 0.77575 0.0
C1126 C 0.57009 0.01436 0.78664 0.0
C1127 C 0.56611 0.02226 0.76466 0.0
C1128 C 0.58681 0.03134 0.74818 0.0
H1129 H 0.45138 0.07127 0.72787 0.0
H1130 H 0.49098 0.06858 0.73847 0.0
C1131 C 0.6111 0.03253 0.75364 0.0
C1132 C 0.54084 0.02231 0.75956 0.0
H1133 H 0.48705 0.99729 0.72274 0.0
C1134 C 0.53391 0.03774 0.77376 0.0
C1135 C 0.52346 0.00711 0.74121 0.0
C1136 C 0.52912 0.98912 0.7261 0.0
C1137 C 0.51038 0.03879 0.76986 0.0
C1138 C 0.4935 0.02436 0.75101 0.0
C1139 C 0.50011 0.00849 0.73708 0.0
C1140 C 0.46918 0.02592 0.74521 0.0
C1141 C 0.50367 0.05512 0.78615 0.0
C1142 C 0.44373 1.00274 0.74512 0.0
C1143 C 0.42092 1.00421 0.73913 0.0
C1144 C 0.42315 0.0289 0.73299 0.0
C1145 C 0.44875 0.05204 0.73309 0.0
C1146 C 0.47148 0.05054 0.73906 0.0
H1147 H 0.51425 0.05864 0.80305 0.0
H1148 H 0.51002 0.07494 0.77818 0.0
H1149 H 0.48175 0.04504 0.78944 0.0
H1150 H 0.44151 0.98351 0.74974 0.0
H1151 H 0.40154 0.98603 0.73931 0.0
H1152 H 0.61256 0.58863 0.93578 0.0
H1153 H 0.57245 0.54591 0.92605 0.0
H1154 H 0.52443 0.58398 0.92921 0.0
H1155 H 0.56402 0.62644 0.93946 0.0
H1156 H 0.52379 0.51819 0.95344 0.0
H1157 H 0.50506 0.54489 0.86553 0.0
H1158 H 0.53711 0.5634 0.88002 0.0
H1159 H 0.50995 0.56876 0.88784 0.0
C1160 C 0.59348 0.58795 0.93441 0.0
C1161 C 0.59167 0.61115 0.93826 0.0
C1162 C 0.5706 0.56353 0.92876 0.0
C1163 C 0.54554 0.56187 0.92663 0.0
C1164 C 0.54366 0.58494 0.93031 0.0
H1165 H 0.38147 0.44355 0.89792 0.0
H1166 H 0.42402 0.48332 0.90761 0.0
C1167 C 0.56643 0.60928 0.93606 0.0
C1168 C 0.52106 0.53591 0.92141 0.0
H1169 H 0.47002 0.50494 0.88218 0.0
C1170 C 0.51212 0.51513 0.93777 0.0
C1171 C 0.50589 0.53206 0.90099 0.0
C1172 C 0.51504 0.55334 0.88246 0.0
C1173 C 0.48787 0.4909 0.93463 0.0
C1174 C 0.47247 0.48718 0.91433 0.0
C1175 C 0.48175 0.50782 0.89778 0.0
C1176 C 0.44633 0.46239 0.91008 0.0
C1177 C 0.47849 0.46993 0.95346 0.0
C1178 C 0.44459 0.43724 0.9084 0.0
C1179 C 0.42007 0.41426 0.90319 0.0
C1180 C 0.39683 0.41599 0.89934 0.0
C1181 C 0.3987 0.44123 0.90126 0.0
C1182 C 0.42314 0.46412 0.90656 0.0
H1183 H 0.48878 0.47852 0.97024 0.0
H1184 H 0.45651 0.46041 0.95613 0.0
H1185 H 0.48304 0.45407 0.94828 0.0
H1186 H 0.46229 0.43545 0.91062 0.0
H1187 H 0.41941 0.39518 0.90196 0.0
H1188 H 0.97553 0.39033 0.09838 0.0
H1189 H 0.97631 0.4322 0.10781 0.0
H1190 H 1.00377 0.46136 0.03856 0.0
H1191 H 1.00191 0.41934 0.02865 0.0
H1192 H 0.01729 0.48523 0.10723 0.0
H1193 H 0.93754 0.46895 0.04429 0.0
H1194 H 0.94458 0.4428 0.05221 0.0
H1195 H 0.96527 0.46783 0.03129 0.0
C1196 C 0.98158 0.40558 0.0851 0.0
C1197 C 0.98855 0.40133 0.06272 0.0
C1198 C 0.98219 0.42957 0.09058 0.0
C1199 C 0.98966 0.44972 0.07376 0.0
C1200 C 0.99745 0.4459 0.05167 0.0
H1201 H 0.02843 0.61515 0.09949 0.0
H1202 H 0.03063 0.57481 0.08995 0.0
C1203 C 0.99674 0.42194 0.04615 0.0
C1204 C 0.989 0.47459 0.07917 0.0
H1205 H 0.96086 0.51181 0.06217 0.0
C1206 C 1.00493 0.49105 0.09742 0.0
C1207 C 0.97257 0.48195 0.06655 0.0
C1208 C 0.95381 0.46435 0.04765 0.0
C1209 C 1.00512 0.51486 0.10322 0.0
C1210 C 0.98934 0.52264 0.0901 0.0
C1211 C 0.97321 0.50601 0.07202 0.0
C1212 C 0.9883 0.54734 0.09544 0.0
C1213 C 0.02171 0.53109 0.12369 0.0
C1214 C 0.96368 0.54542 0.10099 0.0
C1215 C 0.96234 0.56839 0.10621 0.0
C1216 C 0.98559 0.59387 0.10594 0.0
C1217 C 0.01021 0.59581 0.10006 0.0
C1218 C 0.01151 0.57277 0.09472 0.0
H1219 H 0.02693 0.51904 0.13537 0.0
H1220 H 0.04069 0.54832 0.11729 0.0
H1221 H 0.0109 0.53906 0.13393 0.0
H1222 H 0.94551 0.52603 0.10164 0.0
H1223 H 0.94313 0.56608 0.11106 0.0
H1224 H 0.38385 0.95824 0.23721 0.0
H1225 H 0.42563 0.9583 0.22851 0.0
H1226 H 0.46327 0.00836 0.2883 0.0
H1227 H 0.42173 0.00807 0.29734 0.0
H1228 H 0.48062 1.00441 0.22181 0.0
H1229 H 0.4707 0.94013 0.29743 0.0
H1230 H 0.44277 0.94248 0.28591 0.0
H1231 H 0.46743 0.96892 0.30377 0.0
C1232 C 0.40107 0.96933 0.24843 0.0
C1233 C 0.39945 0.98321 0.26792 0.0
C1234 C 0.42491 0.96943 0.2434 0.0
C1235 C 0.44739 0.98311 0.25791 0.0
C1236 C 0.44606 0.99749 0.27701 0.0
H1237 H 0.61268 0.02121 0.23677 0.0
H1238 H 0.57187 0.02315 0.24454 0.0
C1239 C 0.42235 0.99753 0.28198 0.0
C1240 C 0.4721 0.98189 0.25353 0.0
H1241 H 0.51137 0.95862 0.27634 0.0
C1242 C 0.48737 0.99439 0.23368 0.0
C1243 C 0.48067 0.96859 0.26899 0.0
C1244 C 0.46449 0.95405 0.29015 0.0
C1245 C 0.51128 0.99429 0.22905 0.0
C1246 C 0.52016 0.9815 0.24479 0.0
C1247 C 0.50465 0.96865 0.26445 0.0
C1248 C 0.54504 0.98045 0.24075 0.0
C1249 C 0.52666 0.00748 0.2072 0.0
C1250 C 0.54352 0.95575 0.23666 0.0
C1251 C 0.56673 0.95456 0.23213 0.0
C1252 C 0.59206 0.97807 0.23184 0.0
C1253 C 0.59353 1.00276 0.23656 0.0
C1254 C 0.57024 1.00393 0.24099 0.0
H1255 H 0.51442 0.0115 0.19465 0.0
H1256 H 0.54466 0.02689 0.21173 0.0
H1257 H 0.53355 0.99474 0.1986 0.0
H1258 H 0.52425 0.9374 0.23643 0.0
H1259 H 0.56466 0.93524 0.22815 0.0
H1260 H 0.32907 0.39003 0.7544 0.0
H1261 H 0.33251 0.38342 0.71291 0.0
H1262 H 0.3302 0.30883 0.72738 0.0
H1263 H 0.3264 0.31521 0.76898 0.0
H1264 H 0.37118 0.3797 0.69002 0.0
H1265 H 0.27359 0.28646 0.67722 0.0
H1266 H 0.28145 0.3066 0.7032 0.0
H1267 H 0.29378 0.28364 0.69957 0.0
C1268 C 0.32938 0.37227 0.74875 0.0
C1269 C 0.32749 0.35313 0.76492 0.0
C1270 C 0.33119 0.36844 0.72504 0.0
C1271 C 0.33118 0.34544 0.71703 0.0
C1272 C 0.32953 0.32638 0.73313 0.0
H1273 H 0.39106 0.32974 0.58389 0.0
H1274 H 0.38364 0.33452 0.62493 0.0
C1275 C 0.32748 0.33009 0.75687 0.0
C1276 C 0.33407 0.34208 0.69189 0.0
H1277 H 0.30476 0.29974 0.64593 0.0
C1278 C 0.35658 0.36228 0.68035 0.0
C1279 C 0.3148 0.31952 0.67925 0.0
C1280 C 0.28941 0.29794 0.69037 0.0
C1281 C 0.36063 0.36035 0.6566 0.0
C1282 C 0.34198 0.33725 0.64418 0.0
C1283 C 0.31917 0.31728 0.65558 0.0
C1284 C 0.34594 0.33345 0.61938 0.0
C1285 C 0.38465 0.38326 0.64497 0.0
C1286 C 0.32672 0.33028 0.60275 0.0
C1287 C 0.33084 0.32735 0.57926 0.0
C1288 C 0.35427 0.32758 0.57206 0.0
C1289 C 0.37315 0.33015 0.58885 0.0
C1290 C 0.36893 0.33287 0.6123 0.0
H1291 H 0.39228 0.40223 0.65495 0.0
H1292 H 0.40105 0.3785 0.64393 0.0
H1293 H 0.37972 0.38657 0.62707 0.0
H1294 H 0.30876 0.33052 0.6079 0.0
H1295 H 0.31601 0.32546 0.56668 0.0
H1296 H 0.02895 0.38102 0.74532 0.0
H1297 H 0.02083 0.373 0.78695 0.0
H1298 H 0.02622 0.30125 0.78083 0.0
H1299 H 0.03524 0.30958 0.73928 0.0
H1300 H 0.97906 0.32808 0.80881 0.0
H1301 H 0.07887 0.34262 0.83382 0.0
H1302 H 0.07285 0.35332 0.80612 0.0
H1303 H 0.06151 0.31851 0.8112 0.0
C1304 C 0.02869 0.36369 0.75284 0.0
C1305 C 0.03287 0.34603 0.73897 0.0
C1306 C 0.02391 0.35905 0.7766 0.0
C1307 C 0.02332 0.33675 0.78698 0.0
C1308 C 0.02706 0.31883 0.77319 0.0
H1309 H 0.98952 0.2868 0.93286 0.0
H1310 H 0.99985 0.28799 0.89139 0.0
C1311 C 0.03186 0.32345 0.74939 0.0
C1312 C 0.01817 0.33215 0.81217 0.0
H1313 H 0.04679 0.33065 0.86374 0.0
C1314 C 0.99381 0.32852 0.82081 0.0
C1315 C 0.03745 0.3326 0.82772 0.0
C1316 C 0.06424 0.33717 0.81936 0.0
C1317 C 0.98835 0.32574 0.84466 0.0
C1318 C 0.0079 0.32696 0.86024 0.0
C1319 C 0.03193 0.32976 0.85164 0.0
C1320 C 1.0042 0.32705 0.88558 0.0
C1321 C 0.9618 0.32179 0.85308 0.0
C1322 C 1.00413 0.34898 0.89601 0.0
C1323 C 0.99844 0.34845 0.91958 0.0
C1324 C 0.99269 0.32595 0.93319 0.0
C1325 C 0.99399 0.30447 0.92289 0.0
C1326 C 0.99975 0.30505 0.89922 0.0
H1327 H 0.94674 0.31515 0.83886 0.0
H1328 H 0.95368 0.30676 0.86729 0.0
H1329 H 0.96476 0.34106 0.86003 0.0
H1330 H 0.00796 0.36632 0.88577 0.0
H1331 H 0.99818 0.36554 0.92709 0.0
H1332 H 0.64641 0.02546 0.91097 0.0
H1333 H 0.6421 0.0139 0.95217 0.0
H1334 H 0.71798 0.01602 0.95018 0.0
H1335 H 0.7229 0.02845 0.90917 0.0
H1336 H 0.6415 0.96977 0.97368 0.0
H1337 H 0.72708 0.06651 0.00425 0.0
H1338 H 0.71254 0.06242 0.97569 0.0
H1339 H 0.73505 0.05009 0.98169 0.0
C1340 C 0.66231 0.02373 0.91933 0.0
C1341 C 0.68509 0.02809 0.90679 0.0
C1342 C 0.65973 0.01695 0.94282 0.0
C1343 C 0.67991 0.01452 0.95425 0.0
C1344 C 0.7024 0.01826 0.94173 0.0
H1345 H 0.69648 0.97672 0.09734 0.0
H1346 H 0.70287 0.98714 0.05588 0.0
C1347 C 0.70502 0.02506 0.91822 0.0
C1348 C 0.67725 0.0079 0.97925 0.0
H1349 H 0.70565 0.03223 0.03229 0.0
C1350 C 0.65548 0.98341 0.98652 0.0
C1351 C 0.6956 0.02577 0.99589 0.0
C1352 C 0.71877 0.05278 0.9891 0.0
C1353 C 0.65165 0.9762 0.01005 0.0
C1354 C 0.66984 0.99418 0.02669 0.0
C1355 C 0.69177 0.01853 0.01942 0.0
C1356 C 0.66612 0.98828 0.05181 0.0
C1357 C 0.62836 0.9493 0.0169 0.0
C1358 C 0.6436 0.98599 0.06325 0.0
C1359 C 0.63997 0.98023 0.08696 0.0
C1360 C 0.65889 0.97679 0.09967 0.0
C1361 C 0.68169 0.97956 0.08817 0.0
C1362 C 0.6853 0.98534 0.06445 0.0
H1363 H 0.62038 0.93535 0.00187 0.0
H1364 H 0.63434 0.93989 0.03073 0.0
H1365 H 0.61193 0.95209 0.02377 0.0
H1366 H 0.62886 0.98876 0.05385 0.0
H1367 H 0.62247 0.9787 0.09536 0.0
H1368 H 0.62324 0.64279 0.07745 0.0
H1369 H 0.63065 0.6401 0.11892 0.0
H1370 H 0.70455 0.71579 0.11531 0.0
H1371 H 0.69687 0.7191 0.07401 0.0
H1372 H 0.67398 0.63997 0.14089 0.0
H1373 H 0.66424 0.72709 0.1688 0.0
H1374 H 0.65349 0.71173 0.14055 0.0
H1375 H 0.68847 0.73411 0.14632 0.0
C1376 C 0.64093 0.659 0.0855 0.0
C1377 C 0.65936 0.68123 0.0724 0.0
C1378 C 0.64521 0.65735 0.10917 0.0
C1379 C 0.66793 0.67794 0.12022 0.0
C1380 C 0.68664 0.69992 0.10717 0.0
H1381 H 0.7227 0.69656 0.26389 0.0
H1382 H 0.71888 0.70284 0.22233 0.0
C1383 C 0.68238 0.7016 0.08349 0.0
C1384 C 0.6721 0.67609 0.14537 0.0
H1385 H 0.67681 0.70621 0.19765 0.0
C1386 C 0.67459 0.65443 0.15332 0.0
C1387 C 0.67296 0.69507 0.16148 0.0
C1388 C 0.66943 0.71821 0.15396 0.0
C1389 C 0.67798 0.65123 0.17699 0.0
C1390 C 0.67847 0.66999 0.19312 0.0
C1391 C 0.6764 0.69189 0.18518 0.0
C1392 C 0.68037 0.66672 0.21839 0.0
C1393 C 0.68123 0.62795 0.18457 0.0
C1394 C 0.65969 0.64467 0.22997 0.0
C1395 C 0.6617 0.64112 0.25371 0.0
C1396 C 0.68441 0.65961 0.26636 0.0
C1397 C 0.70483 0.68207 0.25477 0.0
C1398 C 0.70277 0.68563 0.23099 0.0
H1399 H 0.687 0.6194 0.16985 0.0
H1400 H 0.69664 0.63415 0.19843 0.0
H1401 H 0.6619 0.61189 0.19164 0.0
H1402 H 0.64199 0.63016 0.2206 0.0
H1403 H 0.6454 0.6239 0.26215 0.0
H1404 H 0.98441 0.69752 0.24133 0.0
H1405 H 0.99558 0.7039 0.2827 0.0
H1406 H 0.99789 0.63025 0.2837 0.0
H1407 H 0.98766 0.62419 0.24225 0.0
H1408 H 0.96599 0.66959 0.31869 0.0
H1409 H 0.06825 0.68308 0.3154 0.0
H1410 H 0.05136 0.68568 0.28994 0.0
H1411 H 0.04348 0.65331 0.30088 0.0
C1412 C 0.98781 0.68295 0.25022 0.0
C1413 C 0.98521 0.66036 0.23844 0.0
C1414 C 0.99399 0.68654 0.2739 0.0
C1415 C 0.99789 0.66773 0.28616 0.0
C1416 C 0.99545 0.64526 0.27446 0.0
H1417 H 0.02239 0.63853 0.42831 0.0
H1418 H 0.01347 0.63643 0.38659 0.0
C1419 C 0.98928 0.64166 0.25082 0.0
C1420 C 1.00328 0.67086 0.31143 0.0
H1421 H 0.04774 0.67501 0.35274 0.0
C1422 C 0.98397 0.67104 0.32616 0.0
C1423 C 0.02676 0.67273 0.32105 0.0
C1424 C 0.04878 0.67396 0.306 0.0
C1425 C 0.98715 0.67224 0.35037 0.0
C1426 C 0.01039 0.67359 0.35998 0.0
C1427 C 0.02987 0.6738 0.34525 0.0
C1428 C 0.01484 0.67462 0.38533 0.0
C1429 C 0.96533 0.67129 0.36552 0.0
C1430 C 0.01862 0.69682 0.39834 0.0
C1431 C 0.02386 0.69815 0.42214 0.0
C1432 C 0.02551 0.67732 0.43333 0.0
C1433 C 0.02151 0.65501 0.4202 0.0
C1434 C 0.01631 0.65373 0.3964 0.0
H1435 H 0.94635 0.66445 0.35574 0.0
H1436 H 0.96128 0.65772 0.38055 0.0
H1437 H 0.97195 0.69168 0.37239 0.0
H1438 H 0.01805 0.71338 0.38999 0.0
H1439 H 0.02736 0.71586 0.43158 0.0
H1440 H 0.39874 0.02942 0.59488 0.0
H1441 H 0.39493 0.02152 0.553 0.0
H1442 H 0.32068 0.02273 0.55234 0.0
H1443 H 0.32482 0.03163 0.59405 0.0
H1444 H 0.35465 0.97983 0.52758 0.0
H1445 H 0.36493 0.0776 0.50248 0.0
H1446 H 0.37301 0.07123 0.53122 0.0
H1447 H 0.33865 0.05889 0.52303 0.0
C1448 C 0.38173 0.02827 0.58582 0.0
C1449 C 0.36222 0.0314 0.59784 0.0
C1450 C 0.3795 0.02359 0.56191 0.0
C1451 C 0.35778 0.02203 0.54954 0.0
C1452 C 0.33788 0.02441 0.56152 0.0
H1453 H 0.30659 0.99059 0.40623 0.0
H1454 H 0.31124 0.99997 0.44782 0.0
C1455 C 0.34011 0.02915 0.58543 0.0
C1456 C 0.35589 0.01764 0.52413 0.0
H1457 H 0.35336 0.04534 0.47245 0.0
C1458 C 0.35449 0.99419 0.5155 0.0
C1459 C 0.35573 0.03647 0.50846 0.0
C1460 C 0.35841 0.06259 0.51669 0.0
C1461 C 0.35247 0.98882 0.4916 0.0
C1462 C 0.35219 0.00759 0.47597 0.0
C1463 C 0.35359 0.03104 0.48456 0.0
C1464 C 0.35012 1.00304 0.45061 0.0
C1465 C 0.35008 0.96288 0.48325 0.0
C1466 C 0.37074 1.00224 0.43837 0.0
C1467 C 0.36828 0.99712 0.41451 0.0
C1468 C 0.34518 0.99279 0.40247 0.0
C1469 C 0.32483 0.99421 0.41479 0.0
C1470 C 0.32734 0.99939 0.43862 0.0
H1471 H 0.3448 0.94817 0.49758 0.0
H1472 H 0.33465 0.95369 0.46939 0.0
H1473 H 0.36957 0.96701 0.47585 0.0
H1474 H 0.3887 0.0055 0.4473 0.0
H1475 H 0.38447 0.99657 0.40549 0.0
loop_
_geom_bond_atom_site_label_1
_geom_bond_atom_site_label_2
_geom_bond_distance
_geom_bond_site_symmetry_2
_ccdc_geom_bond_type
Co0 N4 2.148 . S
Co0 N10 2.128 . S
Co0 N20 2.194 . S
Co0 O25 2.351 . S
Co0 O26 2.155 . S
Co0 O27 2.096 . S
C1 N4 1.301 . S
C1 N5 1.328 . S
C1 H6 0.930 . S
C2 C3 1.333 . S
C2 N4 1.317 . S
C2 H7 0.930 . S
C3 C2 1.333 . S
C3 N5 1.350 . S
C3 H29 0.931 . S
N4 Co0 2.148 . S
N4 C1 1.301 . S
N4 C2 1.317 . S
N5 C1 1.328 . S
N5 C3 1.350 . S
H6 C1 0.930 . S
H7 C2 0.930 . S
C8 O9 1.224 . S
C8 O27 1.247 . S
O9 C8 1.224 . S
N10 Co0 2.128 . S
N10 C11 1.355 . S
N10 C13 1.311 . S
C11 N10 1.355 . S
C11 C12 1.363 . S
C11 H23 0.929 . S
C12 C11 1.363 . S
C12 N14 1.375 . S
C12 H30 0.931 . S
C13 N10 1.311 . S
C13 N14 1.347 . S
C13 H24 0.929 . S
N14 C12 1.375 . S
N14 C13 1.347 . S
C15 C18 1.365 . S
C15 N20 1.328 . S
C15 H21 0.929 . S
C16 C17 1.362 . S
C16 C19 1.378 . S
C16 H31 0.929 . S
C17 C16 1.362 . S
C17 C18 1.366 . S
C18 C15 1.365 . S
C18 C17 1.366 . S
C18 H32 0.930 . S
C19 C16 1.378 . S
C19 N20 1.315 . S
C19 H22 0.930 . S
N20 Co0 2.194 . S
N20 C15 1.328 . S
N20 C19 1.315 . S
H21 C15 0.929 . S
H22 C19 0.930 . S
H23 C11 0.929 . S
H24 C13 0.929 . S
O25 Co0 2.351 . S
O25 C28 1.244 . S
O26 Co0 2.155 . S
O26 C28 1.240 . S
O27 Co0 2.096 . S
O27 C8 1.247 . S
C28 O25 1.244 . S
C28 O26 1.240 . S
H29 C3 0.931 . S
H30 C12 0.931 . S
H31 C16 0.929 . S
H32 C18 0.930 . S
Co33 N37 2.148 . S
Co33 N43 2.128 . S
Co33 N53 2.194 . S
Co33 O58 2.351 . S
Co33 O59 2.155 . S
Co33 O60 2.096 . S
C34 N37 1.301 . S
C34 N38 1.328 . S
C34 H39 0.930 . S
C35 C36 1.333 . S
C35 N37 1.317 . S
C35 H40 0.930 . S
C36 C35 1.333 . S
C36 N38 1.350 . S
C36 H62 0.931 . S
N37 Co33 2.148 . S
N37 C34 1.301 . S
N37 C35 1.317 . S
N38 C34 1.328 . S
N38 C36 1.350 . S
H39 C34 0.930 . S
H40 C35 0.930 . S
C41 O42 1.224 . S
C41 O60 1.247 1_655 S
O42 C41 1.224 . S
N43 Co33 2.128 . S
N43 C44 1.355 . S
N43 C46 1.311 . S
C44 N43 1.355 . S
C44 C45 1.363 . S
C44 H56 0.929 . S
C45 C44 1.363 . S
C45 N47 1.375 . S
C45 H63 0.931 . S
C46 N43 1.311 . S
C46 N47 1.347 . S
C46 H57 0.929 . S
N47 C45 1.375 . S
N47 C46 1.347 . S
C48 C51 1.365 . S
C48 N53 1.328 . S
C48 H54 0.929 . S
C49 C50 1.362 . S
C49 C52 1.378 . S
C49 H64 0.929 . S
C50 C49 1.362 . S
C50 C51 1.366 . S
C51 C48 1.365 . S
C51 C50 1.366 . S
C51 H65 0.930 . S
C52 C49 1.378 . S
C52 N53 1.315 . S
C52 H55 0.930 . S
N53 Co33 2.194 . S
N53 C48 1.328 . S
N53 C52 1.315 . S
H54 C48 0.929 . S
H55 C52 0.930 . S
H56 C44 0.929 . S
H57 C46 0.929 . S
O58 Co33 2.351 . S
O58 C61 1.244 . S
O59 Co33 2.155 . S
O59 C61 1.240 . S
O60 Co33 2.096 . S
O60 C41 1.247 1_455 S
C61 O58 1.244 . S
C61 O59 1.240 . S
H62 C36 0.931 . S
H63 C45 0.931 . S
H64 C49 0.929 . S
H65 C51 0.930 . S
Co66 N70 2.148 . S
Co66 N76 2.128 . S
Co66 N86 2.194 . S
Co66 O91 2.351 . S
Co66 O92 2.155 . S
Co66 O93 2.096 . S
C67 N70 1.301 . S
C67 N71 1.328 . S
C67 H72 0.930 . S
C68 C69 1.333 . S
C68 N70 1.317 . S
C68 H73 0.930 . S
C69 C68 1.333 . S
C69 N71 1.350 . S
C69 H95 0.931 . S
N70 Co66 2.148 . S
N70 C67 1.301 . S
N70 C68 1.317 . S
N71 C67 1.328 . S
N71 C69 1.350 . S
H72 C67 0.930 . S
H73 C68 0.930 . S
C74 O75 1.224 . S
C74 O93 1.247 1_565 S
O75 C74 1.224 . S
N76 Co66 2.128 . S
N76 C77 1.355 . S
N76 C79 1.311 . S
C77 N76 1.355 . S
C77 C78 1.363 . S
C77 H89 0.929 . S
C78 C77 1.363 . S
C78 N80 1.375 . S
C78 H96 0.931 . S
C79 N76 1.311 . S
C79 N80 1.347 . S
C79 H90 0.929 . S
N80 C78 1.375 . S
N80 C79 1.347 . S
C81 C84 1.365 . S
C81 N86 1.328 . S
C81 H87 0.929 . S
C82 C83 1.362 . S
C82 C85 1.378 . S
C82 H97 0.929 . S
C83 C82 1.362 . S
C83 C84 1.366 . S
C84 C81 1.365 . S
C84 C83 1.366 . S
C84 H98 0.930 . S
C85 C82 1.378 . S
C85 N86 1.315 . S
C85 H88 0.930 . S
N86 Co66 2.194 . S
N86 C81 1.328 . S
N86 C85 1.315 . S
H87 C81 0.929 . S
H88 C85 0.930 . S
H89 C77 0.929 . S
H90 C79 0.929 . S
O91 Co66 2.351 . S
O91 C94 1.244 . S
O92 Co66 2.155 . S
O92 C94 1.240 . S
O93 Co66 2.096 . S
O93 C74 1.247 1_545 S
C94 O91 1.244 . S
C94 O92 1.240 . S
H95 C69 0.931 . S
H96 C78 0.931 . S
H97 C82 0.929 . S
H98 C84 0.930 . S
Co99 N103 2.148 1_554 S
Co99 N109 2.128 . S
Co99 N119 2.194 1_554 S
Co99 O124 2.351 . S
Co99 O125 2.155 . S
Co99 O126 2.096 . S
C100 N103 1.301 . S
C100 N104 1.328 . S
C100 H105 0.930 . S
C101 C102 1.333 . S
C101 N103 1.317 . S
C101 H106 0.930 . S
C102 C101 1.333 . S
C102 N104 1.350 . S
C102 H128 0.931 . S
N103 Co99 2.148 1_556 S
N103 C100 1.301 . S
N103 C101 1.317 . S
N104 C100 1.328 . S
N104 C102 1.350 . S
H105 C100 0.930 . S
H106 C101 0.930 . S
C107 O108 1.224 1_554 S
C107 O126 1.247 . S
O108 C107 1.224 1_556 S
N109 Co99 2.128 . S
N109 C110 1.355 . S
N109 C112 1.311 . S
C110 N109 1.355 . S
C110 C111 1.363 . S
C110 H122 0.929 . S
C111 C110 1.363 . S
C111 N113 1.375 . S
C111 H129 0.931 . S
C112 N109 1.311 . S
C112 N113 1.347 . S
C112 H123 0.929 . S
N113 C111 1.375 . S
N113 C112 1.347 . S
C114 C117 1.365 . S
C114 N119 1.328 . S
C114 H120 0.929 . S
C115 C116 1.362 . S
C115 C118 1.378 . S
C115 H130 0.929 . S
C116 C115 1.362 . S
C116 C117 1.366 . S
C117 C114 1.365 . S
C117 C116 1.366 . S
C117 H131 0.930 . S
C118 C115 1.378 . S
C118 N119 1.315 . S
C118 H121 0.930 . S
N119 Co99 2.194 1_556 S
N119 C114 1.328 . S
N119 C118 1.315 . S
H120 C114 0.929 . S
H121 C118 0.930 . S
H122 C110 0.929 . S
H123 C112 0.929 . S
O124 Co99 2.351 . S
O124 C127 1.244 . S
O125 Co99 2.155 . S
O125 C127 1.240 . S
O126 Co99 2.096 . S
O126 C107 1.247 . S
C127 O124 1.244 . S
C127 O125 1.240 . S
H128 C102 0.931 . S
H129 C111 0.931 . S
H130 C115 0.929 . S
H131 C117 0.930 . S
Co132 N136 2.148 . S
Co132 N142 2.128 . S
Co132 N152 2.194 . S
Co132 O157 2.351 . S
Co132 O158 2.155 . S
Co132 O159 2.096 . S
C133 N136 1.301 . S
C133 N137 1.328 . S
C133 H138 0.930 . S
C134 C135 1.333 . S
C134 N136 1.317 . S
C134 H139 0.930 . S
C135 C134 1.333 . S
C135 N137 1.350 . S
C135 H161 0.931 . S
N136 Co132 2.148 . S
N136 C133 1.301 . S
N136 C134 1.317 . S
N137 C133 1.328 . S
N137 C135 1.350 . S
H138 C133 0.930 . S
H139 C134 0.930 . S
C140 O141 1.224 . S
C140 O159 1.247 1_455 S
O141 C140 1.224 . S
N142 Co132 2.128 . S
N142 C143 1.355 . S
N142 C145 1.311 . S
C143 N142 1.355 . S
C143 C144 1.363 . S
C143 H155 0.929 . S
C144 C143 1.363 . S
C144 N146 1.375 . S
C144 H162 0.931 . S
C145 N142 1.311 . S
C145 N146 1.347 . S
C145 H156 0.929 . S
N146 C144 1.375 . S
N146 C145 1.347 . S
C147 C150 1.365 . S
C147 N152 1.328 . S
C147 H153 0.929 . S
C148 C149 1.362 . S
C148 C151 1.378 . S
C148 H163 0.929 . S
C149 C148 1.362 . S
C149 C150 1.366 . S
C150 C147 1.365 . S
C150 C149 1.366 . S
C150 H164 0.930 . S
C151 C148 1.378 . S
C151 N152 1.315 . S
C151 H154 0.930 . S
N152 Co132 2.194 . S
N152 C147 1.328 . S
N152 C151 1.315 . S
H153 C147 0.929 . S
H154 C151 0.930 . S
H155 C143 0.929 . S
H156 C145 0.929 . S
O157 Co132 2.351 . S
O157 C160 1.244 . S
O158 Co132 2.155 . S
O158 C160 1.240 . S
O159 Co132 2.096 . S
O159 C140 1.247 1_655 S
C160 O157 1.244 . S
C160 O158 1.240 . S
H161 C135 0.931 . S
H162 C144 0.931 . S
H163 C148 0.929 . S
H164 C150 0.930 . S
Co165 N169 2.148 . S
Co165 N175 2.128 . S
Co165 N185 2.194 . S
Co165 O190 2.351 . S
Co165 O191 2.155 . S
Co165 O192 2.096 . S
C166 N169 1.301 . S
C166 N170 1.328 . S
C166 H171 0.930 . S
C167 C168 1.333 . S
C167 N169 1.317 . S
C167 H172 0.930 . S
C168 C167 1.333 . S
C168 N170 1.350 . S
C168 H194 0.931 . S
N169 Co165 2.148 . S
N169 C166 1.301 . S
N169 C167 1.317 . S
N170 C166 1.328 . S
N170 C168 1.350 . S
H171 C166 0.930 . S
H172 C167 0.930 . S
C173 O174 1.224 . S
C173 O192 1.247 1_545 S
O174 C173 1.224 . S
N175 Co165 2.128 . S
N175 C176 1.355 . S
N175 C178 1.311 . S
C176 N175 1.355 . S
C176 C177 1.363 . S
C176 H188 0.929 . S
C177 C176 1.363 . S
C177 N179 1.375 . S
C177 H195 0.931 . S
C178 N175 1.311 . S
C178 N179 1.347 . S
C178 H189 0.929 . S
N179 C177 1.375 . S
N179 C178 1.347 . S
C180 C183 1.365 . S
C180 N185 1.328 . S
C180 H186 0.929 . S
C181 C182 1.362 . S
C181 C184 1.378 . S
C181 H196 0.929 . S
C182 C181 1.362 . S
C182 C183 1.366 . S
C183 C180 1.365 . S
C183 C182 1.366 . S
C183 H197 0.930 . S
C184 C181 1.378 . S
C184 N185 1.315 . S
C184 H187 0.930 . S
N185 Co165 2.194 . S
N185 C180 1.328 . S
N185 C184 1.315 . S
H186 C180 0.929 . S
H187 C184 0.930 . S
H188 C176 0.929 . S
H189 C178 0.929 . S
O190 Co165 2.351 . S
O190 C193 1.244 . S
O191 Co165 2.155 . S
O191 C193 1.240 . S
O192 Co165 2.096 . S
O192 C173 1.247 1_565 S
C193 O190 1.244 . S
C193 O191 1.240 . S
H194 C168 0.931 . S
H195 C177 0.931 . S
H196 C181 0.929 . S
H197 C183 0.930 . S
Co198 N202 2.148 . S
Co198 N208 2.128 . S
Co198 N218 2.194 . S
Co198 O223 2.351 . S
Co198 O224 2.155 . S
Co198 O225 2.096 . S
C199 N202 1.301 . S
C199 N203 1.328 . S
C199 H204 0.930 . S
C200 C201 1.333 . S
C200 N202 1.317 . S
C200 H205 0.930 . S
C201 C200 1.333 . S
C201 N203 1.350 . S
C201 H227 0.931 . S
N202 Co198 2.148 . S
N202 C199 1.301 . S
N202 C200 1.317 . S
N203 C199 1.328 . S
N203 C201 1.350 . S
H204 C199 0.930 . S
H205 C200 0.930 . S
C206 O207 1.224 . S
C206 O225 1.247 . S
O207 C206 1.224 . S
N208 Co198 2.128 . S
N208 C209 1.355 . S
N208 C211 1.311 . S
C209 N208 1.355 . S
C209 C210 1.363 . S
C209 H221 0.929 . S
C210 C209 1.363 . S
C210 N212 1.375 . S
C210 H228 0.931 . S
C211 N208 1.311 . S
C211 N212 1.347 . S
C211 H222 0.929 . S
N212 C210 1.375 . S
N212 C211 1.347 . S
C213 C216 1.365 . S
C213 N218 1.328 . S
C213 H219 0.929 . S
C214 C215 1.362 . S
C214 C217 1.378 . S
C214 H229 0.929 . S
C215 C214 1.362 . S
C215 C216 1.366 . S
C216 C213 1.365 . S
C216 C215 1.366 . S
C216 H230 0.930 . S
C217 C214 1.378 . S
C217 N218 1.315 . S
C217 H220 0.930 . S
N218 Co198 2.194 . S
N218 C213 1.328 . S
N218 C217 1.315 . S
H219 C213 0.929 . S
H220 C217 0.930 . S
H221 C209 0.929 . S
H222 C211 0.929 . S
O223 Co198 2.351 . S
O223 C226 1.244 . S
O224 Co198 2.155 . S
O224 C226 1.240 . S
O225 Co198 2.096 . S
O225 C206 1.247 . S
C226 O223 1.244 . S
C226 O224 1.240 . S
H227 C201 0.931 . S
H228 C210 0.931 . S
H229 C214 0.929 . S
H230 C216 0.930 . S
Co231 N235 2.148 . S
Co231 N241 2.128 . S
Co231 N251 2.194 . S
Co231 O256 2.351 . S
Co231 O257 2.155 . S
Co231 O258 2.096 . S
C232 N235 1.301 . S
C232 N236 1.328 . S
C232 H237 0.930 . S
C233 C234 1.333 . S
C233 N235 1.317 . S
C233 H238 0.930 . S
C234 C233 1.333 . S
C234 N236 1.350 . S
C234 H260 0.931 . S
N235 Co231 2.148 . S
N235 C232 1.301 . S
N235 C233 1.317 . S
N236 C232 1.328 . S
N236 C234 1.350 . S
H237 C232 0.930 . S
H238 C233 0.930 . S
C239 O240 1.224 . S
C239 O258 1.247 1_655 S
O240 C239 1.224 . S
N241 Co231 2.128 . S
N241 C242 1.355 . S
N241 C244 1.311 . S
C242 N241 1.355 . S
C242 C243 1.363 . S
C242 H254 0.929 . S
C243 C242 1.363 . S
C243 N245 1.375 . S
C243 H261 0.931 . S
C244 N241 1.311 . S
C244 N245 1.347 . S
C244 H255 0.929 . S
N245 C243 1.375 . S
N245 C244 1.347 . S
C246 C249 1.365 . S
C246 N251 1.328 . S
C246 H252 0.929 . S
C247 C248 1.362 . S
C247 C250 1.378 . S
C247 H262 0.929 . S
C248 C247 1.362 . S
C248 C249 1.366 . S
C249 C246 1.365 . S
C249 C248 1.366 . S
C249 H263 0.930 . S
C250 C247 1.378 . S
C250 N251 1.315 . S
C250 H253 0.930 . S
N251 Co231 2.194 . S
N251 C246 1.328 . S
N251 C250 1.315 . S
H252 C246 0.929 . S
H253 C250 0.930 . S
H254 C242 0.929 . S
H255 C244 0.929 . S
O256 Co231 2.351 . S
O256 C259 1.244 . S
O257 Co231 2.155 . S
O257 C259 1.240 . S
O258 Co231 2.096 . S
O258 C239 1.247 1_455 S
C259 O256 1.244 . S
C259 O257 1.240 . S
H260 C234 0.931 . S
H261 C243 0.931 . S
H262 C247 0.929 . S
H263 C249 0.930 . S
Co264 N268 2.148 . S
Co264 N274 2.128 . S
Co264 N284 2.194 . S
Co264 O289 2.351 . S
Co264 O290 2.155 . S
Co264 O291 2.096 . S
C265 N268 1.301 . S
C265 N269 1.328 . S
C265 H270 0.930 . S
C266 C267 1.333 . S
C266 N268 1.317 . S
C266 H271 0.930 . S
C267 C266 1.333 . S
C267 N269 1.350 . S
C267 H293 0.931 . S
N268 Co264 2.148 . S
N268 C265 1.301 . S
N268 C266 1.317 . S
N269 C265 1.328 . S
N269 C267 1.350 . S
H270 C265 0.930 . S
H271 C266 0.930 . S
C272 O273 1.224 . S
C272 O291 1.247 1_565 S
O273 C272 1.224 . S
N274 Co264 2.128 . S
N274 C275 1.355 . S
N274 C277 1.311 . S
C275 N274 1.355 . S
C275 C276 1.363 . S
C275 H287 0.929 . S
C276 C275 1.363 . S
C276 N278 1.375 . S
C276 H294 0.931 . S
C277 N274 1.311 . S
C277 N278 1.347 . S
C277 H288 0.929 . S
N278 C276 1.375 . S
N278 C277 1.347 . S
C279 C282 1.365 . S
C279 N284 1.328 . S
C279 H285 0.929 . S
C280 C281 1.362 . S
C280 C283 1.378 . S
C280 H295 0.929 . S
C281 C280 1.362 . S
C281 C282 1.366 . S
C282 C279 1.365 . S
C282 C281 1.366 . S
C282 H296 0.930 . S
C283 C280 1.378 . S
C283 N284 1.315 . S
C283 H286 0.930 . S
N284 Co264 2.194 . S
N284 C279 1.328 . S
N284 C283 1.315 . S
H285 C279 0.929 . S
H286 C283 0.930 . S
H287 C275 0.929 . S
H288 C277 0.929 . S
O289 Co264 2.351 . S
O289 C292 1.244 . S
O290 Co264 2.155 . S
O290 C292 1.240 . S
O291 Co264 2.096 . S
O291 C272 1.247 1_545 S
C292 O289 1.244 . S
C292 O290 1.240 . S
H293 C267 0.931 . S
H294 C276 0.931 . S
H295 C280 0.929 . S
H296 C282 0.930 . S
Co297 N301 2.148 . S
Co297 N307 2.128 . S
Co297 N317 2.194 . S
Co297 O322 2.351 . S
Co297 O323 2.155 . S
Co297 O324 2.096 . S
C298 N301 1.301 . S
C298 N302 1.328 . S
C298 H303 0.930 . S
C299 C300 1.333 . S
C299 N301 1.317 . S
C299 H304 0.930 . S
C300 C299 1.333 . S
C300 N302 1.350 . S
C300 H326 0.931 . S
N301 Co297 2.148 . S
N301 C298 1.301 . S
N301 C299 1.317 . S
N302 C298 1.328 . S
N302 C300 1.350 . S
H303 C298 0.930 . S
H304 C299 0.930 . S
C305 O306 1.224 . S
C305 O324 1.247 . S
O306 C305 1.224 . S
N307 Co297 2.128 . S
N307 C308 1.355 . S
N307 C310 1.311 . S
C308 N307 1.355 . S
C308 C309 1.363 . S
C308 H320 0.929 . S
C309 C308 1.363 . S
C309 N311 1.375 . S
C309 H327 0.931 . S
C310 N307 1.311 . S
C310 N311 1.347 . S
C310 H321 0.929 . S
N311 C309 1.375 . S
N311 C310 1.347 . S
C312 C315 1.365 . S
C312 N317 1.328 . S
C312 H318 0.929 . S
C313 C314 1.362 . S
C313 C316 1.378 . S
C313 H328 0.929 . S
C314 C313 1.362 . S
C314 C315 1.366 . S
C315 C312 1.365 . S
C315 C314 1.366 . S
C315 H329 0.930 . S
C316 C313 1.378 . S
C316 N317 1.315 . S
C316 H319 0.930 . S
N317 Co297 2.194 . S
N317 C312 1.328 . S
N317 C316 1.315 . S
H318 C312 0.929 . S
H319 C316 0.930 . S
H320 C308 0.929 . S
H321 C310 0.929 . S
O322 Co297 2.351 . S
O322 C325 1.244 . S
O323 Co297 2.155 . S
O323 C325 1.240 . S
O324 Co297 2.096 . S
O324 C305 1.247 . S
C325 O322 1.244 . S
C325 O323 1.240 . S
H326 C300 0.931 . S
H327 C309 0.931 . S
H328 C313 0.929 . S
H329 C315 0.930 . S
Co330 N334 2.148 . S
Co330 N340 2.128 1_554 S
Co330 N350 2.194 . S
Co330 O355 2.351 1_554 S
Co330 O356 2.155 1_554 S
Co330 O357 2.096 1_554 S
C331 N334 1.301 . S
C331 N335 1.328 . S
C331 H336 0.930 . S
C332 C333 1.333 . S
C332 N334 1.317 . S
C332 H337 0.930 . S
C333 C332 1.333 . S
C333 N335 1.350 . S
C333 H359 0.931 . S
N334 Co330 2.148 . S
N334 C331 1.301 . S
N334 C332 1.317 . S
N335 C331 1.328 . S
N335 C333 1.350 . S
H336 C331 0.930 . S
H337 C332 0.930 . S
C338 O339 1.224 . S
C338 O357 1.247 1_454 S
O339 C338 1.224 . S
N340 Co330 2.128 1_556 S
N340 C341 1.355 . S
N340 C343 1.311 . S
C341 N340 1.355 . S
C341 C342 1.363 . S
C341 H353 0.929 . S
C342 C341 1.363 . S
C342 N344 1.375 . S
C342 H360 0.931 . S
C343 N340 1.311 . S
C343 N344 1.347 . S
C343 H354 0.929 . S
N344 C342 1.375 . S
N344 C343 1.347 . S
C345 C348 1.365 . S
C345 N350 1.328 . S
C345 H351 0.929 . S
C346 C347 1.362 . S
C346 C349 1.378 . S
C346 H361 0.929 . S
C347 C346 1.362 . S
C347 C348 1.366 . S
C348 C345 1.365 . S
C348 C347 1.366 . S
C348 H362 0.930 . S
C349 C346 1.378 . S
C349 N350 1.315 . S
C349 H352 0.930 . S
N350 Co330 2.194 . S
N350 C345 1.328 . S
N350 C349 1.315 . S
H351 C345 0.929 . S
H352 C349 0.930 . S
H353 C341 0.929 . S
H354 C343 0.929 . S
O355 Co330 2.351 1_556 S
O355 C358 1.244 . S
O356 Co330 2.155 1_556 S
O356 C358 1.240 . S
O357 Co330 2.096 1_556 S
O357 C338 1.247 1_656 S
C358 O355 1.244 . S
C358 O356 1.240 . S
H359 C333 0.931 . S
H360 C342 0.931 . S
H361 C346 0.929 . S
H362 C348 0.930 . S
Co363 N367 2.148 . S
Co363 N373 2.128 . S
Co363 N383 2.194 . S
Co363 O388 2.351 . S
Co363 O389 2.155 . S
Co363 O390 2.096 . S
C364 N367 1.301 . S
C364 N368 1.328 . S
C364 H369 0.930 . S
C365 C366 1.333 . S
C365 N367 1.317 . S
C365 H370 0.930 . S
C366 C365 1.333 . S
C366 N368 1.350 . S
C366 H392 0.931 . S
N367 Co363 2.148 . S
N367 C364 1.301 . S
N367 C365 1.317 . S
N368 C364 1.328 . S
N368 C366 1.350 . S
H369 C364 0.930 . S
H370 C365 0.930 . S
C371 O372 1.224 . S
C371 O390 1.247 1_545 S
O372 C371 1.224 . S
N373 Co363 2.128 . S
N373 C374 1.355 . S
N373 C376 1.311 . S
C374 N373 1.355 . S
C374 C375 1.363 . S
C374 H386 0.929 . S
C375 C374 1.363 . S
C375 N377 1.375 . S
C375 H393 0.931 . S
C376 N373 1.311 . S
C376 N377 1.347 . S
C376 H387 0.929 . S
N377 C375 1.375 . S
N377 C376 1.347 . S
C378 C381 1.365 . S
C378 N383 1.328 . S
C378 H384 0.929 . S
C379 C380 1.362 . S
C379 C382 1.378 . S
C379 H394 0.929 . S
C380 C379 1.362 . S
C380 C381 1.366 . S
C381 C378 1.365 . S
C381 C380 1.366 . S
C381 H395 0.930 . S
C382 C379 1.378 . S
C382 N383 1.315 . S
C382 H385 0.930 . S
N383 Co363 2.194 . S
N383 C378 1.328 . S
N383 C382 1.315 . S
H384 C378 0.929 . S
H385 C382 0.930 . S
H386 C374 0.929 . S
H387 C376 0.929 . S
O388 Co363 2.351 . S
O388 C391 1.244 . S
O389 Co363 2.155 . S
O389 C391 1.240 . S
O390 Co363 2.096 . S
O390 C371 1.247 1_565 S
C391 O388 1.244 . S
C391 O389 1.240 . S
H392 C366 0.931 . S
H393 C375 0.931 . S
H394 C379 0.929 . S
H395 C381 0.930 . S
H396 C404 0.929 . S
H397 C406 0.930 . S
H398 C408 0.930 . S
H399 C411 0.929 . S
H400 C414 0.930 . S
H401 C416 0.960 . S
H402 C416 0.960 . S
H403 C416 0.960 . S
C404 H396 0.929 . S
C404 C405 1.377 . S
C404 C406 1.384 . S
C405 C404 1.377 . S
C405 C411 1.390 . S
C406 H397 0.930 . S
C406 C404 1.384 . S
C406 C407 1.372 . S
C407 C406 1.372 . S
C407 C408 1.400 . S
C407 C412 1.490 . S
C408 H398 0.930 . S
C408 C407 1.400 . S
C408 C411 1.386 . S
H409 C425 0.930 . S
H410 C426 0.931 . S
C411 H399 0.929 . S
C411 C405 1.390 . S
C411 C408 1.386 . S
C412 C407 1.490 . S
C412 C414 1.395 . S
C412 C415 1.403 . S
H413 C419 0.930 . S
C414 H400 0.930 . S
C414 C412 1.395 . S
C414 C417 1.403 . S
C415 C412 1.403 . S
C415 C416 1.524 . S
C415 C419 1.400 . S
C416 H401 0.960 . S
C416 H402 0.960 . S
C416 H403 0.960 . S
C416 C415 1.524 . S
C417 C414 1.403 . S
C417 C418 1.392 . S
C417 C421 1.495 . S
C418 C417 1.392 . S
C418 C419 1.385 . S
C418 C420 1.478 . S
C419 H413 0.930 . S
C419 C415 1.400 . S
C419 C418 1.385 . S
C420 C418 1.478 . S
C420 C422 1.381 . S
C420 C426 1.383 . S
C421 C417 1.495 . S
C421 H427 0.959 . S
C421 H428 0.961 . S
C421 H429 0.960 . S
C422 C420 1.381 . S
C422 C423 1.394 . S
C422 H430 0.930 . S
C423 C422 1.394 . S
C423 C424 1.383 . S
C423 H431 0.929 . S
C424 C423 1.383 . S
C424 C425 1.377 . S
C425 H409 0.930 . S
C425 C424 1.377 . S
C425 C426 1.379 . S
C426 H410 0.931 . S
C426 C420 1.383 . S
C426 C425 1.379 . S
H427 C421 0.959 . S
H428 C421 0.961 . S
H429 C421 0.960 . S
H430 C422 0.930 . S
H431 C423 0.929 . S
H432 C440 0.929 . S
H433 C442 0.930 . S
H434 C444 0.930 . S
H435 C447 0.929 . S
H436 C450 0.930 . S
H437 C452 0.960 . S
H438 C452 0.960 . S
H439 C452 0.960 . S
C440 H432 0.929 . S
C440 C441 1.377 . S
C440 C442 1.384 . S
C441 C440 1.377 . S
C441 C447 1.390 . S
C442 H433 0.930 . S
C442 C440 1.384 . S
C442 C443 1.372 . S
C443 C442 1.372 . S
C443 C444 1.400 . S
C443 C448 1.490 . S
C444 H434 0.930 . S
C444 C443 1.400 . S
C444 C447 1.386 . S
H445 C461 0.930 . S
H446 C462 0.931 . S
C447 H435 0.929 . S
C447 C441 1.390 . S
C447 C444 1.386 . S
C448 C443 1.490 . S
C448 C450 1.395 . S
C448 C451 1.403 . S
H449 C455 0.930 . S
C450 H436 0.930 . S
C450 C448 1.395 . S
C450 C453 1.403 . S
C451 C448 1.403 . S
C451 C452 1.524 . S
C451 C455 1.400 . S
C452 H437 0.960 . S
C452 H438 0.960 . S
C452 H439 0.960 . S
C452 C451 1.524 . S
C453 C450 1.403 . S
C453 C454 1.392 . S
C453 C457 1.495 . S
C454 C453 1.392 . S
C454 C455 1.385 . S
C454 C456 1.478 . S
C455 H449 0.930 . S
C455 C451 1.400 . S
C455 C454 1.385 . S
C456 C454 1.478 . S
C456 C458 1.381 . S
C456 C462 1.383 . S
C457 C453 1.495 . S
C457 H463 0.959 . S
C457 H464 0.961 . S
C457 H465 0.960 . S
C458 C456 1.381 . S
C458 C459 1.394 . S
C458 H466 0.930 . S
C459 C458 1.394 . S
C459 C460 1.383 . S
C459 H467 0.929 . S
C460 C459 1.383 . S
C460 C461 1.377 . S
C461 H445 0.930 . S
C461 C460 1.377 . S
C461 C462 1.379 . S
C462 H446 0.931 . S
C462 C456 1.383 . S
C462 C461 1.379 . S
H463 C457 0.959 . S
H464 C457 0.961 . S
H465 C457 0.960 . S
H466 C458 0.930 . S
H467 C459 0.929 . S
H468 C476 0.929 . S
H469 C478 0.930 . S
H470 C480 0.930 . S
H471 C483 0.929 . S
H472 C486 0.930 . S
H473 C488 0.960 . S
H474 C488 0.960 . S
H475 C488 0.960 . S
C476 H468 0.929 . S
C476 C477 1.377 . S
C476 C478 1.384 . S
C477 C476 1.377 . S
C477 C483 1.390 . S
C478 H469 0.930 . S
C478 C476 1.384 . S
C478 C479 1.372 . S
C479 C478 1.372 . S
C479 C480 1.400 . S
C479 C484 1.490 . S
C480 H470 0.930 . S
C480 C479 1.400 . S
C480 C483 1.386 . S
H481 C497 0.930 1_554 S
H482 C498 0.931 . S
C483 H471 0.929 . S
C483 C477 1.390 . S
C483 C480 1.386 . S
C484 C479 1.490 . S
C484 C486 1.395 . S
C484 C487 1.403 . S
H485 C491 0.930 . S
C486 H472 0.930 . S
C486 C484 1.395 . S
C486 C489 1.403 . S
C487 C484 1.403 . S
C487 C488 1.524 . S
C487 C491 1.400 . S
C488 H473 0.960 . S
C488 H474 0.960 . S
C488 H475 0.960 . S
C488 C487 1.524 . S
C489 C486 1.403 . S
C489 C490 1.392 . S
C489 C493 1.495 . S
C490 C489 1.392 . S
C490 C491 1.385 . S
C490 C492 1.478 . S
C491 H485 0.930 . S
C491 C487 1.400 . S
C491 C490 1.385 . S
C492 C490 1.478 . S
C492 C494 1.381 . S
C492 C498 1.383 . S
C493 C489 1.495 . S
C493 H499 0.959 . S
C493 H500 0.961 . S
C493 H501 0.960 . S
C494 C492 1.381 . S
C494 C495 1.394 . S
C494 H502 0.930 . S
C495 C494 1.394 . S
C495 C496 1.383 . S
C495 H503 0.929 . S
C496 C495 1.383 . S
C496 C497 1.377 . S
C497 H481 0.930 1_556 S
C497 C496 1.377 . S
C497 C498 1.379 . S
C498 H482 0.931 . S
C498 C492 1.383 . S
C498 C497 1.379 . S
H499 C493 0.959 . S
H500 C493 0.961 . S
H501 C493 0.960 . S
H502 C494 0.930 . S
H503 C495 0.929 . S
H504 C512 0.929 . S
H505 C514 0.930 . S
H506 C516 0.930 . S
H507 C519 0.929 . S
H508 C522 0.930 . S
H509 C524 0.960 . S
H510 C524 0.960 . S
H511 C524 0.960 . S
C512 H504 0.929 . S
C512 C513 1.377 . S
C512 C514 1.384 . S
C513 C512 1.377 . S
C513 C519 1.390 . S
C514 H505 0.930 . S
C514 C512 1.384 . S
C514 C515 1.372 . S
C515 C514 1.372 . S
C515 C516 1.400 . S
C515 C520 1.490 . S
C516 H506 0.930 . S
C516 C515 1.400 . S
C516 C519 1.386 . S
H517 C533 0.930 . S
H518 C534 0.931 . S
C519 H507 0.929 . S
C519 C513 1.390 . S
C519 C516 1.386 . S
C520 C515 1.490 . S
C520 C522 1.395 . S
C520 C523 1.403 . S
H521 C527 0.930 . S
C522 H508 0.930 . S
C522 C520 1.395 . S
C522 C525 1.403 . S
C523 C520 1.403 . S
C523 C524 1.524 . S
C523 C527 1.400 . S
C524 H509 0.960 . S
C524 H510 0.960 . S
C524 H511 0.960 . S
C524 C523 1.524 . S
C525 C522 1.403 . S
C525 C526 1.392 . S
C525 C529 1.495 . S
C526 C525 1.392 . S
C526 C527 1.385 . S
C526 C528 1.478 . S
C527 H521 0.930 . S
C527 C523 1.400 . S
C527 C526 1.385 . S
C528 C526 1.478 . S
C528 C530 1.381 . S
C528 C534 1.383 . S
C529 C525 1.495 . S
C529 H535 0.959 . S
C529 H536 0.961 . S
C529 H537 0.960 . S
C530 C528 1.381 . S
C530 C531 1.394 . S
C530 H538 0.930 . S
C531 C530 1.394 . S
C531 C532 1.383 . S
C531 H539 0.929 . S
C532 C531 1.383 . S
C532 C533 1.377 . S
C533 H517 0.930 . S
C533 C532 1.377 . S
C533 C534 1.379 . S
C534 H518 0.931 . S
C534 C528 1.383 . S
C534 C533 1.379 . S
H535 C529 0.959 . S
H536 C529 0.961 . S
H537 C529 0.960 . S
H538 C530 0.930 . S
H539 C531 0.929 . S
H540 C548 0.929 . S
H541 C550 0.930 . S
H542 C552 0.930 . S
H543 C555 0.929 . S
H544 C558 0.930 . S
H545 C560 0.960 . S
H546 C560 0.960 . S
H547 C560 0.960 . S
C548 H540 0.929 . S
C548 C549 1.377 . S
C548 C550 1.384 . S
C549 C548 1.377 . S
C549 C555 1.390 . S
C550 H541 0.930 . S
C550 C548 1.384 . S
C550 C551 1.372 . S
C551 C550 1.372 . S
C551 C552 1.400 . S
C551 C556 1.490 . S
C552 H542 0.930 . S
C552 C551 1.400 . S
C552 C555 1.386 . S
H553 C569 0.930 . S
H554 C570 0.931 . S
C555 H543 0.929 . S
C555 C549 1.390 . S
C555 C552 1.386 . S
C556 C551 1.490 . S
C556 C558 1.395 . S
C556 C559 1.403 . S
H557 C563 0.930 . S
C558 H544 0.930 . S
C558 C556 1.395 . S
C558 C561 1.403 . S
C559 C556 1.403 . S
C559 C560 1.524 . S
C559 C563 1.400 . S
C560 H545 0.960 . S
C560 H546 0.960 . S
C560 H547 0.960 . S
C560 C559 1.524 . S
C561 C558 1.403 . S
C561 C562 1.392 . S
C561 C565 1.495 . S
C562 C561 1.392 . S
C562 C563 1.385 . S
C562 C564 1.478 . S
C563 H557 0.930 . S
C563 C559 1.400 . S
C563 C562 1.385 . S
C564 C562 1.478 . S
C564 C566 1.381 . S
C564 C570 1.383 . S
C565 C561 1.495 . S
C565 H571 0.959 . S
C565 H572 0.961 . S
C565 H573 0.960 . S
C566 C564 1.381 . S
C566 C567 1.394 . S
C566 H574 0.930 . S
C567 C566 1.394 . S
C567 C568 1.383 . S
C567 H575 0.929 . S
C568 C567 1.383 . S
C568 C569 1.377 . S
C569 H553 0.930 . S
C569 C568 1.377 . S
C569 C570 1.379 . S
C570 H554 0.931 . S
C570 C564 1.383 . S
C570 C569 1.379 . S
H571 C565 0.959 . S
H572 C565 0.961 . S
H573 C565 0.960 . S
H574 C566 0.930 . S
H575 C567 0.929 . S
H576 C584 0.929 . S
H577 C586 0.930 . S
H578 C588 0.930 . S
H579 C591 0.929 . S
H580 C594 0.930 . S
H581 C596 0.960 . S
H582 C596 0.960 . S
H583 C596 0.960 . S
C584 H576 0.929 . S
C584 C585 1.377 . S
C584 C586 1.384 . S
C585 C584 1.377 . S
C585 C591 1.390 . S
C586 H577 0.930 . S
C586 C584 1.384 . S
C586 C587 1.372 . S
C587 C586 1.372 . S
C587 C588 1.400 . S
C587 C592 1.490 . S
C588 H578 0.930 . S
C588 C587 1.400 . S
C588 C591 1.386 . S
H589 C605 0.930 . S
H590 C606 0.931 . S
C591 H579 0.929 . S
C591 C585 1.390 . S
C591 C588 1.386 . S
C592 C587 1.490 . S
C592 C594 1.395 . S
C592 C595 1.403 . S
H593 C599 0.930 . S
C594 H580 0.930 . S
C594 C592 1.395 . S
C594 C597 1.403 . S
C595 C592 1.403 . S
C595 C596 1.524 . S
C595 C599 1.400 . S
C596 H581 0.960 . S
C596 H582 0.960 . S
C596 H583 0.960 . S
C596 C595 1.524 . S
C597 C594 1.403 . S
C597 C598 1.392 . S
C597 C601 1.495 . S
C598 C597 1.392 . S
C598 C599 1.385 . S
C598 C600 1.478 . S
C599 H593 0.930 . S
C599 C595 1.400 . S
C599 C598 1.385 . S
C600 C598 1.478 . S
C600 C602 1.381 . S
C600 C606 1.383 . S
C601 C597 1.495 . S
C601 H607 0.959 . S
C601 H608 0.961 . S
C601 H609 0.960 . S
C602 C600 1.381 . S
C602 C603 1.394 . S
C602 H610 0.930 . S
C603 C602 1.394 . S
C603 C604 1.383 . S
C603 H611 0.929 . S
C604 C603 1.383 . S
C604 C605 1.377 . S
C605 H589 0.930 . S
C605 C604 1.377 . S
C605 C606 1.379 . S
C606 H590 0.931 . S
C606 C600 1.383 . S
C606 C605 1.379 . S
H607 C601 0.959 . S
H608 C601 0.961 . S
H609 C601 0.960 . S
H610 C602 0.930 . S
H611 C603 0.929 . S
H612 C620 0.929 . S
H613 C622 0.930 . S
H614 C624 0.930 . S
H615 C627 0.929 . S
H616 C630 0.930 . S
H617 C632 0.960 . S
H618 C632 0.960 . S
H619 C632 0.960 . S
C620 H612 0.929 . S
C620 C621 1.377 . S
C620 C622 1.384 . S
C621 C620 1.377 . S
C621 C627 1.390 . S
C622 H613 0.930 . S
C622 C620 1.384 . S
C622 C623 1.372 . S
C623 C622 1.372 . S
C623 C624 1.400 . S
C623 C628 1.490 . S
C624 H614 0.930 . S
C624 C623 1.400 . S
C624 C627 1.386 . S
H625 C641 0.930 . S
H626 C642 0.931 . S
C627 H615 0.929 . S
C627 C621 1.390 . S
C627 C624 1.386 . S
C628 C623 1.490 . S
C628 C630 1.395 . S
C628 C631 1.403 . S
H629 C635 0.930 . S
C630 H616 0.930 . S
C630 C628 1.395 . S
C630 C633 1.403 . S
C631 C628 1.403 . S
C631 C632 1.524 . S
C631 C635 1.400 . S
C632 H617 0.960 . S
C632 H618 0.960 . S
C632 H619 0.960 . S
C632 C631 1.524 . S
C633 C630 1.403 . S
C633 C634 1.392 . S
C633 C637 1.495 . S
C634 C633 1.392 . S
C634 C635 1.385 . S
C634 C636 1.478 . S
C635 H629 0.930 . S
C635 C631 1.400 . S
C635 C634 1.385 . S
C636 C634 1.478 . S
C636 C638 1.381 . S
C636 C642 1.383 . S
C637 C633 1.495 . S
C637 H643 0.959 . S
C637 H644 0.961 . S
C637 H645 0.960 . S
C638 C636 1.381 . S
C638 C639 1.394 . S
C638 H646 0.930 . S
C639 C638 1.394 . S
C639 C640 1.383 . S
C639 H647 0.929 . S
C640 C639 1.383 . S
C640 C641 1.377 . S
C641 H625 0.930 . S
C641 C640 1.377 . S
C641 C642 1.379 . S
C642 H626 0.931 . S
C642 C636 1.383 . S
C642 C641 1.379 . S
H643 C637 0.959 . S
H644 C637 0.961 . S
H645 C637 0.960 . S
H646 C638 0.930 . S
H647 C639 0.929 . S
H648 C656 0.929 . S
H649 C658 0.930 . S
H650 C660 0.930 . S
H651 C663 0.929 . S
H652 C666 0.930 . S
H653 C668 0.960 . S
H654 C668 0.960 . S
H655 C668 0.960 . S
C656 H648 0.929 . S
C656 C657 1.377 . S
C656 C658 1.384 . S
C657 C656 1.377 . S
C657 C663 1.390 . S
C658 H649 0.930 . S
C658 C656 1.384 . S
C658 C659 1.372 . S
C659 C658 1.372 . S
C659 C660 1.400 . S
C659 C664 1.490 . S
C660 H650 0.930 . S
C660 C659 1.400 . S
C660 C663 1.386 . S
H661 C677 0.930 . S
H662 C678 0.931 . S
C663 H651 0.929 . S
C663 C657 1.390 . S
C663 C660 1.386 . S
C664 C659 1.490 . S
C664 C666 1.395 . S
C664 C667 1.403 . S
H665 C671 0.930 . S
C666 H652 0.930 . S
C666 C664 1.395 . S
C666 C669 1.403 . S
C667 C664 1.403 . S
C667 C668 1.524 . S
C667 C671 1.400 . S
C668 H653 0.960 . S
C668 H654 0.960 . S
C668 H655 0.960 . S
C668 C667 1.524 . S
C669 C666 1.403 . S
C669 C670 1.392 . S
C669 C673 1.495 . S
C670 C669 1.392 . S
C670 C671 1.385 . S
C670 C672 1.478 . S
C671 H665 0.930 . S
C671 C667 1.400 . S
C671 C670 1.385 . S
C672 C670 1.478 . S
C672 C674 1.381 . S
C672 C678 1.383 . S
C673 C669 1.495 . S
C673 H679 0.959 . S
C673 H680 0.961 . S
C673 H681 0.960 . S
C674 C672 1.381 . S
C674 C675 1.394 . S
C674 H682 0.930 . S
C675 C674 1.394 . S
C675 C676 1.383 . S
C675 H683 0.929 . S
C676 C675 1.383 . S
C676 C677 1.377 . S
C677 H661 0.930 . S
C677 C676 1.377 . S
C677 C678 1.379 . S
C678 H662 0.931 . S
C678 C672 1.383 . S
C678 C677 1.379 . S
H679 C673 0.959 . S
H680 C673 0.961 . S
H681 C673 0.960 . S
H682 C674 0.930 . S
H683 C675 0.929 . S
H684 C692 0.929 . S
H685 C694 0.930 . S
H686 C696 0.930 . S
H687 C699 0.929 . S
H688 C702 0.930 . S
H689 C704 0.960 . S
H690 C704 0.960 . S
H691 C704 0.960 . S
C692 H684 0.929 . S
C692 C693 1.377 . S
C692 C694 1.384 . S
C693 C692 1.377 . S
C693 C699 1.390 . S
C694 H685 0.930 . S
C694 C692 1.384 . S
C694 C695 1.372 . S
C695 C694 1.372 . S
C695 C696 1.400 . S
C695 C700 1.490 . S
C696 H686 0.930 . S
C696 C695 1.400 . S
C696 C699 1.386 . S
H697 C713 0.930 . S
H698 C714 0.931 . S
C699 H687 0.929 . S
C699 C693 1.390 . S
C699 C696 1.386 . S
C700 C695 1.490 . S
C700 C702 1.395 . S
C700 C703 1.403 . S
H701 C707 0.930 . S
C702 H688 0.930 . S
C702 C700 1.395 . S
C702 C705 1.403 . S
C703 C700 1.403 . S
C703 C704 1.524 . S
C703 C707 1.400 . S
C704 H689 0.960 . S
C704 H690 0.960 . S
C704 H691 0.960 . S
C704 C703 1.524 . S
C705 C702 1.403 . S
C705 C706 1.392 . S
C705 C709 1.495 . S
C706 C705 1.392 . S
C706 C707 1.385 . S
C706 C708 1.478 . S
C707 H701 0.930 . S
C707 C703 1.400 . S
C707 C706 1.385 . S
C708 C706 1.478 . S
C708 C710 1.381 . S
C708 C714 1.383 . S
C709 C705 1.495 . S
C709 H715 0.959 . S
C709 H716 0.961 . S
C709 H717 0.960 . S
C710 C708 1.381 . S
C710 C711 1.394 . S
C710 H718 0.930 . S
C711 C710 1.394 . S
C711 C712 1.383 . S
C711 H719 0.929 . S
C712 C711 1.383 . S
C712 C713 1.377 . S
C713 H697 0.930 . S
C713 C712 1.377 . S
C713 C714 1.379 . S
C714 H698 0.931 . S
C714 C708 1.383 . S
C714 C713 1.379 . S
H715 C709 0.959 . S
H716 C709 0.961 . S
H717 C709 0.960 . S
H718 C710 0.930 . S
H719 C711 0.929 . S
H720 C728 0.929 . S
H721 C730 0.930 . S
H722 C732 0.930 . S
H723 C735 0.929 . S
H724 C738 0.930 . S
H725 C740 0.960 . S
H726 C740 0.960 . S
H727 C740 0.960 . S
C728 H720 0.929 . S
C728 C729 1.377 . S
C728 C730 1.384 . S
C729 C728 1.377 . S
C729 C735 1.390 . S
C730 H721 0.930 . S
C730 C728 1.384 . S
C730 C731 1.372 . S
C731 C730 1.372 . S
C731 C732 1.400 . S
C731 C736 1.490 . S
C732 H722 0.930 . S
C732 C731 1.400 . S
C732 C735 1.386 . S
H733 C749 0.930 . S
H734 C750 0.931 . S
C735 H723 0.929 . S
C735 C729 1.390 . S
C735 C732 1.386 . S
C736 C731 1.490 . S
C736 C738 1.395 . S
C736 C739 1.403 . S
H737 C743 0.930 . S
C738 H724 0.930 . S
C738 C736 1.395 . S
C738 C741 1.403 . S
C739 C736 1.403 . S
C739 C740 1.524 . S
C739 C743 1.400 . S
C740 H725 0.960 . S
C740 H726 0.960 . S
C740 H727 0.960 . S
C740 C739 1.524 . S
C741 C738 1.403 . S
C741 C742 1.392 . S
C741 C745 1.495 . S
C742 C741 1.392 . S
C742 C743 1.385 . S
C742 C744 1.478 . S
C743 H737 0.930 . S
C743 C739 1.400 . S
C743 C742 1.385 . S
C744 C742 1.478 . S
C744 C746 1.381 . S
C744 C750 1.383 . S
C745 C741 1.495 . S
C745 H751 0.959 . S
C745 H752 0.961 . S
C745 H753 0.960 . S
C746 C744 1.381 . S
C746 C747 1.394 . S
C746 H754 0.930 . S
C747 C746 1.394 . S
C747 C748 1.383 . S
C747 H755 0.929 . S
C748 C747 1.383 . S
C748 C749 1.377 . S
C749 H733 0.930 . S
C749 C748 1.377 . S
C749 C750 1.379 . S
C750 H734 0.931 . S
C750 C744 1.383 . S
C750 C749 1.379 . S
H751 C745 0.959 . S
H752 C745 0.961 . S
H753 C745 0.960 . S
H754 C746 0.930 . S
H755 C747 0.929 . S
H756 C764 0.929 . S
H757 C766 0.930 . S
H758 C768 0.930 . S
H759 C771 0.906 1_556 S
H760 C774 0.930 . S
H761 C776 0.951 1_556 S
H762 C776 0.960 . S
H763 C776 0.960 1_556 S
C764 H756 0.929 . S
C764 C765 1.377 . S
C764 C766 1.384 . S
C765 C764 1.377 . S
C765 C771 1.401 . S
C766 H757 0.930 . S
C766 C764 1.384 . S
C766 C767 1.372 . S
C767 C766 1.372 . S
C767 C768 1.400 . S
C767 C772 1.490 . S
C768 H758 0.930 . S
C768 C767 1.400 . S
C768 C771 1.398 . S
H769 C785 0.930 . S
H770 C786 0.931 . S
C771 H759 0.906 1_554 S
C771 C765 1.401 . S
C771 C768 1.398 . S
C772 C767 1.490 . S
C772 C774 1.395 . S
C772 C775 1.403 . S
H773 C779 0.930 . S
C774 H760 0.930 . S
C774 C772 1.395 . S
C774 C777 1.403 . S
C775 C772 1.403 . S
C775 C776 1.524 . S
C775 C779 1.400 . S
C776 H761 0.951 1_554 S
C776 H762 0.960 . S
C776 H763 0.960 1_554 S
C776 C775 1.524 . S
C777 C774 1.403 . S
C777 C778 1.392 . S
C777 C781 1.495 . S
C778 C777 1.392 . S
C778 C779 1.385 . S
C778 C780 1.478 . S
C779 H773 0.930 . S
C779 C775 1.400 . S
C779 C778 1.385 . S
C780 C778 1.478 . S
C780 C782 1.381 . S
C780 C786 1.383 . S
C781 C777 1.495 . S
C781 H787 0.959 . S
C781 H788 0.961 . S
C781 H789 0.960 . S
C782 C780 1.381 . S
C782 C783 1.394 . S
C782 H790 0.930 . S
C783 C782 1.394 . S
C783 C784 1.383 . S
C783 H791 0.929 . S
C784 C783 1.383 . S
C784 C785 1.377 . S
C785 H769 0.930 . S
C785 C784 1.377 . S
C785 C786 1.379 . S
C786 H770 0.931 . S
C786 C780 1.383 . S
C786 C785 1.379 . S
H787 C781 0.959 . S
H788 C781 0.961 . S
H789 C781 0.960 . S
H790 C782 0.930 . S
H791 C783 0.929 . S
H792 C800 0.929 . S
H793 C802 0.930 . S
H794 C804 0.930 . S
H795 C807 0.929 . S
H796 C810 0.930 . S
H797 C812 0.960 . S
H798 C812 0.960 . S
H799 C812 0.960 . S
C800 H792 0.929 . S
C800 C801 1.377 . S
C800 C802 1.384 . S
C801 C800 1.377 . S
C801 C807 1.390 . S
C802 H793 0.930 . S
C802 C800 1.384 . S
C802 C803 1.372 . S
C803 C802 1.372 . S
C803 C804 1.400 . S
C803 C808 1.490 . S
C804 H794 0.930 . S
C804 C803 1.400 . S
C804 C807 1.386 . S
H805 C821 0.930 . S
H806 C822 0.931 . S
C807 H795 0.929 . S
C807 C801 1.390 . S
C807 C804 1.386 . S
C808 C803 1.490 . S
C808 C810 1.395 . S
C808 C811 1.403 . S
H809 C815 0.930 . S
C810 H796 0.930 . S
C810 C808 1.395 . S
C810 C813 1.403 . S
C811 C808 1.403 . S
C811 C812 1.524 . S
C811 C815 1.400 . S
C812 H797 0.960 . S
C812 H798 0.960 . S
C812 H799 0.960 . S
C812 C811 1.524 . S
C813 C810 1.403 . S
C813 C814 1.392 . S
C813 C817 1.495 . S
C814 C813 1.392 . S
C814 C815 1.385 . S
C814 C816 1.478 . S
C815 H809 0.930 . S
C815 C811 1.400 . S
C815 C814 1.385 . S
C816 C814 1.478 . S
C816 C818 1.381 . S
C816 C822 1.383 . S
C817 C813 1.495 . S
C817 H823 0.959 . S
C817 H824 0.961 . S
C817 H825 0.960 . S
C818 C816 1.381 . S
C818 C819 1.394 . S
C818 H826 0.930 . S
C819 C818 1.394 . S
C819 C820 1.383 . S
C819 H827 0.929 . S
C820 C819 1.383 . S
C820 C821 1.377 . S
C821 H805 0.930 . S
C821 C820 1.377 . S
C821 C822 1.379 . S
C822 H806 0.931 . S
C822 C816 1.383 . S
C822 C821 1.379 . S
H823 C817 0.959 . S
H824 C817 0.961 . S
H825 C817 0.960 . S
H826 C818 0.930 . S
H827 C819 0.929 . S
H828 C836 0.929 . S
H829 C838 0.930 . S
H830 C840 0.930 . S
H831 C843 0.929 . S
H832 C846 0.930 . S
H833 C848 0.960 . S
H834 C848 0.960 . S
H835 C848 0.960 . S
C836 H828 0.929 . S
C836 C837 1.377 . S
C836 C838 1.384 . S
C837 C836 1.377 . S
C837 C843 1.390 . S
C838 H829 0.930 . S
C838 C836 1.384 . S
C838 C839 1.372 . S
C839 C838 1.372 . S
C839 C840 1.400 . S
C839 C844 1.490 . S
C840 H830 0.930 . S
C840 C839 1.400 . S
C840 C843 1.386 . S
H841 C857 0.930 . S
H842 C858 0.931 . S
C843 H831 0.929 . S
C843 C837 1.390 . S
C843 C840 1.386 . S
C844 C839 1.490 . S
C844 C846 1.395 . S
C844 C847 1.403 . S
H845 C851 0.930 . S
C846 H832 0.930 . S
C846 C844 1.395 . S
C846 C849 1.403 . S
C847 C844 1.403 . S
C847 C848 1.524 . S
C847 C851 1.400 . S
C848 H833 0.960 . S
C848 H834 0.960 . S
C848 H835 0.960 . S
C848 C847 1.524 . S
C849 C846 1.403 . S
C849 C850 1.392 . S
C849 C853 1.495 . S
C850 C849 1.392 . S
C850 C851 1.385 . S
C850 C852 1.478 . S
C851 H845 0.930 . S
C851 C847 1.400 . S
C851 C850 1.385 . S
C852 C850 1.478 . S
C852 C854 1.381 . S
C852 C858 1.383 . S
C853 C849 1.495 . S
C853 H859 0.959 . S
C853 H860 0.961 . S
C853 H861 0.960 . S
C854 C852 1.381 . S
C854 C855 1.394 . S
C854 H862 0.930 . S
C855 C854 1.394 . S
C855 C856 1.383 . S
C855 H863 0.929 . S
C856 C855 1.383 . S
C856 C857 1.377 . S
C857 H841 0.930 . S
C857 C856 1.377 . S
C857 C858 1.379 . S
C858 H842 0.931 . S
C858 C852 1.383 . S
C858 C857 1.379 . S
H859 C853 0.959 . S
H860 C853 0.961 . S
H861 C853 0.960 . S
H862 C854 0.930 . S
H863 C855 0.929 . S
H864 C872 0.929 . S
H865 C874 0.930 . S
H866 C876 0.930 . S
H867 C879 0.929 . S
H868 C882 0.930 . S
H869 C884 0.960 . S
H870 C884 0.960 . S
H871 C884 0.960 . S
C872 H864 0.929 . S
C872 C873 1.377 . S
C872 C874 1.384 . S
C873 C872 1.377 . S
C873 C879 1.390 . S
C874 H865 0.930 . S
C874 C872 1.384 . S
C874 C875 1.372 . S
C875 C874 1.372 . S
C875 C876 1.400 . S
C875 C880 1.490 . S
C876 H866 0.930 . S
C876 C875 1.400 . S
C876 C879 1.386 . S
H877 C893 0.930 . S
H878 C894 0.931 . S
C879 H867 0.929 . S
C879 C873 1.390 . S
C879 C876 1.386 . S
C880 C875 1.490 . S
C880 C882 1.395 . S
C880 C883 1.403 . S
H881 C887 0.930 . S
C882 H868 0.930 . S
C882 C880 1.395 . S
C882 C885 1.403 . S
C883 C880 1.403 . S
C883 C884 1.524 . S
C883 C887 1.400 . S
C884 H869 0.960 . S
C884 H870 0.960 . S
C884 H871 0.960 . S
C884 C883 1.524 . S
C885 C882 1.403 . S
C885 C886 1.392 . S
C885 C889 1.495 . S
C886 C885 1.392 . S
C886 C887 1.385 . S
C886 C888 1.478 . S
C887 H881 0.930 . S
C887 C883 1.400 . S
C887 C886 1.385 . S
C888 C886 1.478 . S
C888 C890 1.381 . S
C888 C894 1.383 . S
C889 C885 1.495 . S
C889 H895 0.959 . S
C889 H896 0.961 . S
C889 H897 0.960 . S
C890 C888 1.381 . S
C890 C891 1.394 . S
C890 H898 0.930 . S
C891 C890 1.394 . S
C891 C892 1.383 . S
C891 H899 0.929 . S
C892 C891 1.383 . S
C892 C893 1.377 . S
C893 H877 0.930 . S
C893 C892 1.377 . S
C893 C894 1.379 . S
C894 H878 0.931 . S
C894 C888 1.383 . S
C894 C893 1.379 . S
H895 C889 0.959 . S
H896 C889 0.961 . S
H897 C889 0.960 . S
H898 C890 0.930 . S
H899 C891 0.929 . S
H900 C908 0.929 . S
H901 C910 0.930 . S
H902 C912 0.930 . S
H903 C915 0.929 . S
H904 C918 0.930 . S
H905 C920 0.960 . S
H906 C920 0.960 . S
H907 C920 0.960 . S
C908 H900 0.929 . S
C908 C909 1.377 . S
C908 C910 1.384 . S
C909 C908 1.377 . S
C909 C915 1.390 . S
C910 H901 0.930 . S
C910 C908 1.384 . S
C910 C911 1.372 . S
C911 C910 1.372 . S
C911 C912 1.400 . S
C911 C916 1.490 . S
C912 H902 0.930 . S
C912 C911 1.400 . S
C912 C915 1.386 . S
H913 C929 0.930 . S
H914 C930 0.931 . S
C915 H903 0.929 . S
C915 C909 1.390 . S
C915 C912 1.386 . S
C916 C911 1.490 . S
C916 C918 1.395 . S
C916 C919 1.403 . S
H917 C923 0.930 . S
C918 H904 0.930 . S
C918 C916 1.395 . S
C918 C921 1.403 . S
C919 C916 1.403 . S
C919 C920 1.524 . S
C919 C923 1.400 . S
C920 H905 0.960 . S
C920 H906 0.960 . S
C920 H907 0.960 . S
C920 C919 1.524 . S
C921 C918 1.403 . S
C921 C922 1.392 . S
C921 C925 1.495 . S
C922 C921 1.392 . S
C922 C923 1.385 . S
C922 C924 1.478 . S
C923 H917 0.930 . S
C923 C919 1.400 . S
C923 C922 1.385 . S
C924 C922 1.478 . S
C924 C926 1.381 . S
C924 C930 1.383 . S
C925 C921 1.495 . S
C925 H931 0.959 . S
C925 H932 0.961 . S
C925 H933 0.960 . S
C926 C924 1.381 . S
C926 C927 1.394 . S
C926 H934 0.930 . S
C927 C926 1.394 . S
C927 C928 1.383 . S
C927 H935 0.929 . S
C928 C927 1.383 . S
C928 C929 1.377 . S
C929 H913 0.930 . S
C929 C928 1.377 . S
C929 C930 1.379 . S
C930 H914 0.931 . S
C930 C924 1.383 . S
C930 C929 1.379 . S
H931 C925 0.959 . S
H932 C925 0.961 . S
H933 C925 0.960 . S
H934 C926 0.930 . S
H935 C927 0.929 . S
H936 C944 0.929 . S
H937 C946 0.930 . S
H938 C948 0.930 . S
H939 C951 0.929 . S
H940 C954 0.930 . S
H941 C956 0.960 . S
H942 C956 0.960 . S
H943 C956 0.960 . S
C944 H936 0.929 . S
C944 C945 1.377 . S
C944 C946 1.384 . S
C945 C944 1.377 . S
C945 C951 1.390 . S
C946 H937 0.930 . S
C946 C944 1.384 . S
C946 C947 1.372 . S
C947 C946 1.372 . S
C947 C948 1.400 . S
C947 C952 1.490 . S
C948 H938 0.930 . S
C948 C947 1.400 . S
C948 C951 1.386 . S
H949 C965 0.930 . S
H950 C966 0.931 . S
C951 H939 0.929 . S
C951 C945 1.390 . S
C951 C948 1.386 . S
C952 C947 1.490 . S
C952 C954 1.395 . S
C952 C955 1.403 . S
H953 C959 0.930 . S
C954 H940 0.930 . S
C954 C952 1.395 . S
C954 C957 1.403 . S
C955 C952 1.403 . S
C955 C956 1.524 1_556 S
C955 C959 1.400 . S
C956 H941 0.960 . S
C956 H942 0.960 . S
C956 H943 0.960 . S
C956 C955 1.524 1_554 S
C957 C954 1.403 . S
C957 C958 1.392 . S
C957 C961 1.495 . S
C958 C957 1.392 . S
C958 C959 1.385 . S
C958 C960 1.478 . S
C959 H953 0.930 . S
C959 C955 1.400 . S
C959 C958 1.385 . S
C960 C958 1.478 . S
C960 C962 1.381 . S
C960 C966 1.383 . S
C961 C957 1.495 . S
C961 H967 0.959 . S
C961 H968 0.961 . S
C961 H969 0.960 . S
C962 C960 1.381 . S
C962 C963 1.394 . S
C962 H970 0.930 . S
C963 C962 1.394 . S
C963 C964 1.383 . S
C963 H971 0.929 . S
C964 C963 1.383 . S
C964 C965 1.377 . S
C965 H949 0.930 . S
C965 C964 1.377 . S
C965 C966 1.379 . S
C966 H950 0.931 . S
C966 C960 1.383 . S
C966 C965 1.379 . S
H967 C961 0.959 . S
H968 C961 0.961 . S
H969 C961 0.960 . S
H970 C962 0.930 . S
H971 C963 0.929 . S
H972 C980 0.929 . S
H973 C982 0.930 . S
H974 C984 0.930 . S
H975 C987 0.929 . S
H976 C990 0.930 . S
H977 C992 0.960 . S
H978 C992 0.960 . S
H979 C992 0.960 . S
C980 H972 0.929 . S
C980 C981 1.377 . S
C980 C982 1.384 . S
C981 C980 1.377 . S
C981 C987 1.390 . S
C982 H973 0.930 . S
C982 C980 1.384 . S
C982 C983 1.372 . S
C983 C982 1.372 . S
C983 C984 1.400 . S
C983 C988 1.490 . S
C984 H974 0.930 . S
C984 C983 1.400 . S
C984 C987 1.386 . S
H985 C1001 0.930 . S
H986 C1002 0.931 . S
C987 H975 0.929 . S
C987 C981 1.390 . S
C987 C984 1.386 . S
C988 C983 1.490 . S
C988 C990 1.395 . S
C988 C991 1.403 . S
H989 C995 0.930 . S
C990 H976 0.930 . S
C990 C988 1.395 . S
C990 C993 1.403 . S
C991 C988 1.403 . S
C991 C992 1.524 . S
C991 C995 1.400 . S
C992 H977 0.960 . S
C992 H978 0.960 . S
C992 H979 0.960 . S
C992 C991 1.524 . S
C993 C990 1.403 . S
C993 C994 1.392 . S
C993 C997 1.495 . S
C994 C993 1.392 . S
C994 C995 1.385 . S
C994 C996 1.478 . S
C995 H989 0.930 . S
C995 C991 1.400 . S
C995 C994 1.385 . S
C996 C994 1.478 . S
C996 C998 1.381 . S
C996 C1002 1.383 . S
C997 C993 1.495 . S
C997 H1003 0.959 . S
C997 H1004 0.961 . S
C997 H1005 0.960 . S
C998 C996 1.381 . S
C998 C999 1.394 . S
C998 H1006 0.930 . S
C999 C998 1.394 . S
C999 C1000 1.383 . S
C999 H1007 0.929 . S
C1000 C999 1.383 . S
C1000 C1001 1.377 . S
C1001 H985 0.930 . S
C1001 C1000 1.377 . S
C1001 C1002 1.379 . S
C1002 H986 0.931 . S
C1002 C996 1.383 . S
C1002 C1001 1.379 . S
H1003 C997 0.959 . S
H1004 C997 0.961 . S
H1005 C997 0.960 . S
H1006 C998 0.930 . S
H1007 C999 0.929 . S
H1008 C1016 0.929 . S
H1009 C1018 0.930 . S
H1010 C1020 0.930 . S
H1011 C1023 0.929 . S
H1012 C1026 0.930 . S
H1013 C1028 0.960 . S
H1014 C1028 0.960 . S
H1015 C1028 0.960 . S
C1016 H1008 0.929 . S
C1016 C1017 1.377 . S
C1016 C1018 1.384 . S
C1017 C1016 1.377 . S
C1017 C1023 1.390 . S
C1018 H1009 0.930 . S
C1018 C1016 1.384 . S
C1018 C1019 1.372 . S
C1019 C1018 1.372 . S
C1019 C1020 1.400 . S
C1019 C1024 1.490 . S
C1020 H1010 0.930 . S
C1020 C1019 1.400 . S
C1020 C1023 1.386 . S
H1021 C1037 0.930 . S
H1022 C1038 0.931 . S
C1023 H1011 0.929 . S
C1023 C1017 1.390 . S
C1023 C1020 1.386 . S
C1024 C1019 1.490 . S
C1024 C1026 1.395 . S
C1024 C1027 1.403 . S
H1025 C1031 0.930 . S
C1026 H1012 0.930 . S
C1026 C1024 1.395 . S
C1026 C1029 1.403 . S
C1027 C1024 1.403 . S
C1027 C1028 1.524 . S
C1027 C1031 1.400 . S
C1028 H1013 0.960 . S
C1028 H1014 0.960 . S
C1028 H1015 0.960 . S
C1028 C1027 1.524 . S
C1029 C1026 1.403 . S
C1029 C1030 1.392 . S
C1029 C1033 1.495 . S
C1030 C1029 1.392 . S
C1030 C1031 1.385 . S
C1030 C1032 1.478 . S
C1031 H1025 0.930 . S
C1031 C1027 1.400 . S
C1031 C1030 1.385 . S
C1032 C1030 1.478 . S
C1032 C1034 1.381 . S
C1032 C1038 1.383 . S
C1033 C1029 1.495 . S
C1033 H1039 0.959 . S
C1033 H1040 0.961 . S
C1033 H1041 0.960 . S
C1034 C1032 1.381 . S
C1034 C1035 1.394 . S
C1034 H1042 0.930 . S
C1035 C1034 1.394 . S
C1035 C1036 1.383 . S
C1035 H1043 0.929 . S
C1036 C1035 1.383 . S
C1036 C1037 1.377 . S
C1037 H1021 0.930 . S
C1037 C1036 1.377 . S
C1037 C1038 1.379 . S
C1038 H1022 0.931 . S
C1038 C1032 1.383 . S
C1038 C1037 1.379 . S
H1039 C1033 0.959 . S
H1040 C1033 0.961 . S
H1041 C1033 0.960 . S
H1042 C1034 0.930 . S
H1043 C1035 0.929 . S
H1044 C1052 0.929 . S
H1045 C1054 0.930 . S
H1046 C1056 0.930 . S
H1047 C1059 0.929 . S
H1048 C1062 0.930 . S
H1049 C1064 0.960 . S
H1050 C1064 0.960 . S
H1051 C1064 0.960 . S
C1052 H1044 0.929 . S
C1052 C1053 1.377 . S
C1052 C1054 1.384 . S
C1053 C1052 1.377 . S
C1053 C1059 1.390 . S
C1054 H1045 0.930 . S
C1054 C1052 1.384 . S
C1054 C1055 1.372 . S
C1055 C1054 1.372 . S
C1055 C1056 1.400 . S
C1055 C1060 1.490 . S
C1056 H1046 0.930 . S
C1056 C1055 1.400 . S
C1056 C1059 1.386 . S
H1057 C1073 0.930 . S
H1058 C1074 0.931 . S
C1059 H1047 0.929 . S
C1059 C1053 1.390 . S
C1059 C1056 1.386 . S
C1060 C1055 1.490 . S
C1060 C1062 1.395 . S
C1060 C1063 1.403 . S
H1061 C1067 0.930 . S
C1062 H1048 0.930 . S
C1062 C1060 1.395 . S
C1062 C1065 1.403 . S
C1063 C1060 1.403 . S
C1063 C1064 1.524 . S
C1063 C1067 1.400 . S
C1064 H1049 0.960 . S
C1064 H1050 0.960 . S
C1064 H1051 0.960 . S
C1064 C1063 1.524 . S
C1065 C1062 1.403 . S
C1065 C1066 1.392 . S
C1065 C1069 1.495 . S
C1066 C1065 1.392 . S
C1066 C1067 1.385 . S
C1066 C1068 1.478 . S
C1067 H1061 0.930 . S
C1067 C1063 1.400 . S
C1067 C1066 1.385 . S
C1068 C1066 1.478 . S
C1068 C1070 1.381 . S
C1068 C1074 1.383 . S
C1069 C1065 1.495 . S
C1069 H1075 0.959 . S
C1069 H1076 0.961 . S
C1069 H1077 0.960 . S
C1070 C1068 1.381 . S
C1070 C1071 1.394 . S
C1070 H1078 0.930 . S
C1071 C1070 1.394 . S
C1071 C1072 1.383 . S
C1071 H1079 0.929 . S
C1072 C1071 1.383 . S
C1072 C1073 1.377 . S
C1073 H1057 0.930 . S
C1073 C1072 1.377 . S
C1073 C1074 1.379 . S
C1074 H1058 0.931 . S
C1074 C1068 1.383 . S
C1074 C1073 1.379 . S
H1075 C1069 0.959 . S
H1076 C1069 0.961 . S
H1077 C1069 0.960 . S
H1078 C1070 0.930 . S
H1079 C1071 0.929 . S
H1080 C1088 0.929 . S
H1081 C1090 0.930 . S
H1082 C1092 0.930 . S
H1083 C1095 0.929 . S
H1084 C1098 0.930 . S
H1085 C1100 0.960 . S
H1086 C1100 0.960 . S
H1087 C1100 0.960 . S
C1088 H1080 0.929 . S
C1088 C1089 1.377 . S
C1088 C1090 1.384 . S
C1089 C1088 1.377 . S
C1089 C1095 1.390 . S
C1090 H1081 0.930 . S
C1090 C1088 1.384 . S
C1090 C1091 1.372 . S
C1091 C1090 1.372 . S
C1091 C1092 1.400 . S
C1091 C1096 1.490 . S
C1092 H1082 0.930 . S
C1092 C1091 1.400 . S
C1092 C1095 1.386 . S
H1093 C1109 0.930 . S
H1094 C1110 0.931 . S
C1095 H1083 0.929 . S
C1095 C1089 1.390 . S
C1095 C1092 1.386 . S
C1096 C1091 1.490 . S
C1096 C1098 1.395 . S
C1096 C1099 1.403 . S
H1097 C1103 0.930 . S
C1098 H1084 0.930 . S
C1098 C1096 1.395 . S
C1098 C1101 1.403 . S
C1099 C1096 1.403 . S
C1099 C1100 1.524 . S
C1099 C1103 1.400 . S
C1100 H1085 0.960 . S
C1100 H1086 0.960 . S
C1100 H1087 0.960 . S
C1100 C1099 1.524 . S
C1101 C1098 1.403 . S
C1101 C1102 1.392 . S
C1101 C1105 1.495 . S
C1102 C1101 1.392 . S
C1102 C1103 1.385 . S
C1102 C1104 1.478 . S
C1103 H1097 0.930 . S
C1103 C1099 1.400 . S
C1103 C1102 1.385 . S
C1104 C1102 1.478 . S
C1104 C1106 1.381 . S
C1104 C1110 1.383 . S
C1105 C1101 1.495 . S
C1105 H1111 0.959 . S
C1105 H1112 0.961 . S
C1105 H1113 0.960 . S
C1106 C1104 1.381 . S
C1106 C1107 1.394 . S
C1106 H1114 0.930 . S
C1107 C1106 1.394 . S
C1107 C1108 1.383 . S
C1107 H1115 0.929 . S
C1108 C1107 1.383 . S
C1108 C1109 1.377 . S
C1109 H1093 0.930 . S
C1109 C1108 1.377 . S
C1109 C1110 1.379 . S
C1110 H1094 0.931 . S
C1110 C1104 1.383 . S
C1110 C1109 1.379 . S
H1111 C1105 0.959 . S
H1112 C1105 0.961 . S
H1113 C1105 0.960 . S
H1114 C1106 0.930 . S
H1115 C1107 0.929 . S
H1116 C1124 0.929 . S
H1117 C1126 0.930 . S
H1118 C1128 0.930 . S
H1119 C1131 0.929 . S
H1120 C1134 0.930 . S
H1121 C1136 0.960 . S
H1122 C1136 0.960 . S
H1123 C1136 0.960 . S
C1124 H1116 0.929 . S
C1124 C1125 1.377 . S
C1124 C1126 1.384 . S
C1125 C1124 1.377 . S
C1125 C1131 1.390 . S
C1126 H1117 0.930 . S
C1126 C1124 1.384 . S
C1126 C1127 1.372 . S
C1127 C1126 1.372 . S
C1127 C1128 1.400 . S
C1127 C1132 1.490 . S
C1128 H1118 0.930 . S
C1128 C1127 1.400 . S
C1128 C1131 1.386 . S
H1129 C1145 0.930 . S
H1130 C1146 0.931 . S
C1131 H1119 0.929 . S
C1131 C1125 1.390 . S
C1131 C1128 1.386 . S
C1132 C1127 1.490 . S
C1132 C1134 1.395 . S
C1132 C1135 1.403 . S
H1133 C1139 0.930 . S
C1134 H1120 0.930 . S
C1134 C1132 1.395 . S
C1134 C1137 1.403 . S
C1135 C1132 1.403 . S
C1135 C1136 1.524 . S
C1135 C1139 1.400 . S
C1136 H1121 0.960 . S
C1136 H1122 0.960 . S
C1136 H1123 0.960 . S
C1136 C1135 1.524 . S
C1137 C1134 1.403 . S
C1137 C1138 1.392 . S
C1137 C1141 1.495 . S
C1138 C1137 1.392 . S
C1138 C1139 1.385 . S
C1138 C1140 1.478 . S
C1139 H1133 0.930 . S
C1139 C1135 1.400 . S
C1139 C1138 1.385 . S
C1140 C1138 1.478 . S
C1140 C1142 1.381 . S
C1140 C1146 1.383 . S
C1141 C1137 1.495 . S
C1141 H1147 0.959 . S
C1141 H1148 0.961 . S
C1141 H1149 0.960 . S
C1142 C1140 1.381 . S
C1142 C1143 1.394 . S
C1142 H1150 0.930 . S
C1143 C1142 1.394 . S
C1143 C1144 1.383 . S
C1143 H1151 0.929 . S
C1144 C1143 1.383 . S
C1144 C1145 1.377 . S
C1145 H1129 0.930 . S
C1145 C1144 1.377 . S
C1145 C1146 1.379 . S
C1146 H1130 0.931 . S
C1146 C1140 1.383 . S
C1146 C1145 1.379 . S
H1147 C1141 0.959 . S
H1148 C1141 0.961 . S
H1149 C1141 0.960 . S
H1150 C1142 0.930 . S
H1151 C1143 0.929 . S
H1152 C1160 0.929 . S
H1153 C1162 0.930 . S
H1154 C1164 0.930 . S
H1155 C1167 0.929 . S
H1156 C1170 0.930 . S
H1157 C1172 0.960 . S
H1158 C1172 0.960 . S
H1159 C1172 0.960 . S
C1160 H1152 0.929 . S
C1160 C1161 1.377 . S
C1160 C1162 1.384 . S
C1161 C1160 1.377 . S
C1161 C1167 1.390 . S
C1162 H1153 0.930 . S
C1162 C1160 1.384 . S
C1162 C1163 1.372 . S
C1163 C1162 1.372 . S
C1163 C1164 1.400 . S
C1163 C1168 1.490 . S
C1164 H1154 0.930 . S
C1164 C1163 1.400 . S
C1164 C1167 1.386 . S
H1165 C1181 0.930 . S
H1166 C1182 0.931 . S
C1167 H1155 0.929 . S
C1167 C1161 1.390 . S
C1167 C1164 1.386 . S
C1168 C1163 1.490 . S
C1168 C1170 1.395 . S
C1168 C1171 1.403 . S
H1169 C1175 0.930 . S
C1170 H1156 0.930 . S
C1170 C1168 1.395 . S
C1170 C1173 1.403 . S
C1171 C1168 1.403 . S
C1171 C1172 1.524 . S
C1171 C1175 1.400 . S
C1172 H1157 0.960 . S
C1172 H1158 0.960 . S
C1172 H1159 0.960 . S
C1172 C1171 1.524 . S
C1173 C1170 1.403 . S
C1173 C1174 1.392 . S
C1173 C1177 1.495 . S
C1174 C1173 1.392 . S
C1174 C1175 1.385 . S
C1174 C1176 1.478 . S
C1175 H1169 0.930 . S
C1175 C1171 1.400 . S
C1175 C1174 1.385 . S
C1176 C1174 1.478 . S
C1176 C1178 1.381 . S
C1176 C1182 1.383 . S
C1177 C1173 1.495 . S
C1177 H1183 0.959 . S
C1177 H1184 0.961 . S
C1177 H1185 0.960 . S
C1178 C1176 1.381 . S
C1178 C1179 1.394 . S
C1178 H1186 0.930 . S
C1179 C1178 1.394 . S
C1179 C1180 1.383 . S
C1179 H1187 0.929 . S
C1180 C1179 1.383 . S
C1180 C1181 1.377 . S
C1181 H1165 0.930 . S
C1181 C1180 1.377 . S
C1181 C1182 1.379 . S
C1182 H1166 0.931 . S
C1182 C1176 1.383 . S
C1182 C1181 1.379 . S
H1183 C1177 0.959 . S
H1184 C1177 0.961 . S
H1185 C1177 0.960 . S
H1186 C1178 0.930 . S
H1187 C1179 0.929 . S
H1188 C1196 0.929 . S
H1189 C1198 0.930 . S
H1190 C1200 0.930 . S
H1191 C1203 0.929 . S
H1192 C1206 0.930 . S
H1193 C1208 0.960 . S
H1194 C1208 0.960 . S
H1195 C1208 0.960 . S
C1196 H1188 0.929 . S
C1196 C1197 1.377 . S
C1196 C1198 1.384 . S
C1197 C1196 1.377 . S
C1197 C1203 1.390 . S
C1198 H1189 0.930 . S
C1198 C1196 1.384 . S
C1198 C1199 1.372 . S
C1199 C1198 1.372 . S
C1199 C1200 1.400 . S
C1199 C1204 1.490 . S
C1200 H1190 0.930 . S
C1200 C1199 1.400 . S
C1200 C1203 1.386 . S
H1201 C1217 0.930 . S
H1202 C1218 0.931 . S
C1203 H1191 0.929 . S
C1203 C1197 1.390 . S
C1203 C1200 1.386 . S
C1204 C1199 1.490 . S
C1204 C1206 1.395 . S
C1204 C1207 1.403 . S
H1205 C1211 0.930 . S
C1206 H1192 0.930 . S
C1206 C1204 1.395 . S
C1206 C1209 1.403 . S
C1207 C1204 1.403 . S
C1207 C1208 1.524 . S
C1207 C1211 1.400 . S
C1208 H1193 0.960 . S
C1208 H1194 0.960 . S
C1208 H1195 0.960 . S
C1208 C1207 1.524 . S
C1209 C1206 1.403 . S
C1209 C1210 1.392 . S
C1209 C1213 1.495 . S
C1210 C1209 1.392 . S
C1210 C1211 1.385 . S
C1210 C1212 1.478 . S
C1211 H1205 0.930 . S
C1211 C1207 1.400 . S
C1211 C1210 1.385 . S
C1212 C1210 1.478 . S
C1212 C1214 1.381 . S
C1212 C1218 1.383 . S
C1213 C1209 1.495 . S
C1213 H1219 0.959 . S
C1213 H1220 0.961 . S
C1213 H1221 0.960 . S
C1214 C1212 1.381 . S
C1214 C1215 1.394 . S
C1214 H1222 0.930 . S
C1215 C1214 1.394 . S
C1215 C1216 1.383 . S
C1215 H1223 0.929 . S
C1216 C1215 1.383 . S
C1216 C1217 1.377 . S
C1217 H1201 0.930 . S
C1217 C1216 1.377 . S
C1217 C1218 1.379 . S
C1218 H1202 0.931 . S
C1218 C1212 1.383 . S
C1218 C1217 1.379 . S
H1219 C1213 0.959 . S
H1220 C1213 0.961 . S
H1221 C1213 0.960 . S
H1222 C1214 0.930 . S
H1223 C1215 0.929 . S
H1224 C1232 0.929 . S
H1225 C1234 0.930 . S
H1226 C1236 0.930 . S
H1227 C1239 0.929 . S
H1228 C1242 0.930 . S
H1229 C1244 0.960 . S
H1230 C1244 0.960 . S
H1231 C1244 0.960 . S
C1232 H1224 0.929 . S
C1232 C1233 1.377 . S
C1232 C1234 1.384 . S
C1233 C1232 1.377 . S
C1233 C1239 1.390 . S
C1234 H1225 0.930 . S
C1234 C1232 1.384 . S
C1234 C1235 1.372 . S
C1235 C1234 1.372 . S
C1235 C1236 1.400 . S
C1235 C1240 1.490 . S
C1236 H1226 0.930 . S
C1236 C1235 1.400 . S
C1236 C1239 1.386 . S
H1237 C1253 0.930 . S
H1238 C1254 0.931 . S
C1239 H1227 0.929 . S
C1239 C1233 1.390 . S
C1239 C1236 1.386 . S
C1240 C1235 1.490 . S
C1240 C1242 1.395 . S
C1240 C1243 1.403 . S
H1241 C1247 0.930 . S
C1242 H1228 0.930 . S
C1242 C1240 1.395 . S
C1242 C1245 1.403 . S
C1243 C1240 1.403 . S
C1243 C1244 1.524 . S
C1243 C1247 1.400 . S
C1244 H1229 0.960 . S
C1244 H1230 0.960 . S
C1244 H1231 0.960 . S
C1244 C1243 1.524 . S
C1245 C1242 1.403 . S
C1245 C1246 1.392 . S
C1245 C1249 1.495 . S
C1246 C1245 1.392 . S
C1246 C1247 1.385 . S
C1246 C1248 1.478 . S
C1247 H1241 0.930 . S
C1247 C1243 1.400 . S
C1247 C1246 1.385 . S
C1248 C1246 1.478 . S
C1248 C1250 1.381 . S
C1248 C1254 1.383 . S
C1249 C1245 1.495 . S
C1249 H1255 0.959 . S
C1249 H1256 0.961 . S
C1249 H1257 0.960 . S
C1250 C1248 1.381 . S
C1250 C1251 1.394 . S
C1250 H1258 0.930 . S
C1251 C1250 1.394 . S
C1251 C1252 1.383 . S
C1251 H1259 0.929 . S
C1252 C1251 1.383 . S
C1252 C1253 1.377 . S
C1253 H1237 0.930 . S
C1253 C1252 1.377 . S
C1253 C1254 1.379 . S
C1254 H1238 0.931 . S
C1254 C1248 1.383 . S
C1254 C1253 1.379 . S
H1255 C1249 0.959 . S
H1256 C1249 0.961 . S
H1257 C1249 0.960 . S
H1258 C1250 0.930 . S
H1259 C1251 0.929 . S
H1260 C1268 0.929 . S
H1261 C1270 0.930 . S
H1262 C1272 0.930 . S
H1263 C1275 0.929 . S
H1264 C1278 0.930 . S
H1265 C1280 0.960 . S
H1266 C1280 0.960 . S
H1267 C1280 0.960 . S
C1268 H1260 0.929 . S
C1268 C1269 1.377 . S
C1268 C1270 1.384 . S
C1269 C1268 1.377 . S
C1269 C1275 1.390 . S
C1270 H1261 0.930 . S
C1270 C1268 1.384 . S
C1270 C1271 1.372 . S
C1271 C1270 1.372 . S
C1271 C1272 1.400 . S
C1271 C1276 1.490 . S
C1272 H1262 0.930 . S
C1272 C1271 1.400 . S
C1272 C1275 1.386 . S
H1273 C1289 0.930 . S
H1274 C1290 0.931 . S
C1275 H1263 0.929 . S
C1275 C1269 1.390 . S
C1275 C1272 1.386 . S
C1276 C1271 1.490 . S
C1276 C1278 1.395 . S
C1276 C1279 1.403 . S
H1277 C1283 0.930 . S
C1278 H1264 0.930 . S
C1278 C1276 1.395 . S
C1278 C1281 1.403 . S
C1279 C1276 1.403 . S
C1279 C1280 1.524 . S
C1279 C1283 1.400 . S
C1280 H1265 0.960 . S
C1280 H1266 0.960 . S
C1280 H1267 0.960 . S
C1280 C1279 1.524 . S
C1281 C1278 1.403 . S
C1281 C1282 1.392 . S
C1281 C1285 1.495 . S
C1282 C1281 1.392 . S
C1282 C1283 1.385 . S
C1282 C1284 1.478 . S
C1283 H1277 0.930 . S
C1283 C1279 1.400 . S
C1283 C1282 1.385 . S
C1284 C1282 1.478 . S
C1284 C1286 1.381 . S
C1284 C1290 1.383 . S
C1285 C1281 1.495 . S
C1285 H1291 0.959 . S
C1285 H1292 0.961 . S
C1285 H1293 0.960 . S
C1286 C1284 1.381 . S
C1286 C1287 1.394 . S
C1286 H1294 0.930 . S
C1287 C1286 1.394 . S
C1287 C1288 1.383 . S
C1287 H1295 0.929 . S
C1288 C1287 1.383 . S
C1288 C1289 1.377 . S
C1289 H1273 0.930 . S
C1289 C1288 1.377 . S
C1289 C1290 1.379 . S
C1290 H1274 0.931 . S
C1290 C1284 1.383 . S
C1290 C1289 1.379 . S
H1291 C1285 0.959 . S
H1292 C1285 0.961 . S
H1293 C1285 0.960 . S
H1294 C1286 0.930 . S
H1295 C1287 0.929 . S
H1296 C1304 0.933 . S
H1297 C1306 0.930 . S
H1298 C1308 0.930 . S
H1299 C1311 0.929 . S
H1300 C1314 0.930 . S
H1301 C1316 0.960 . S
H1302 C1316 0.960 . S
H1303 C1316 0.960 . S
C1304 H1296 0.933 . S
C1304 C1305 1.374 1_655 S
C1304 C1306 1.384 . S
C1305 C1304 1.374 1_455 S
C1305 C1311 1.390 . S
C1306 H1297 0.930 . S
C1306 C1304 1.384 . S
C1306 C1307 1.372 1_655 S
C1307 C1306 1.372 1_455 S
C1307 C1308 1.400 . S
C1307 C1312 1.494 . S
C1308 H1298 0.930 . S
C1308 C1307 1.400 . S
C1308 C1311 1.386 . S
H1309 C1325 0.930 . S
H1310 C1326 0.931 . S
C1311 H1299 0.929 . S
C1311 C1305 1.390 . S
C1311 C1308 1.386 . S
C1312 C1307 1.494 . S
C1312 C1314 1.362 1_455 S
C1312 C1315 1.431 . S
H1313 C1319 0.930 . S
C1314 H1300 0.930 . S
C1314 C1312 1.362 1_655 S
C1314 C1317 1.403 . S
C1315 C1312 1.431 . S
C1315 C1316 1.524 . S
C1315 C1319 1.400 . S
C1316 H1301 0.960 . S
C1316 H1302 0.960 . S
C1316 H1303 0.960 . S
C1316 C1315 1.524 . S
C1317 C1314 1.403 . S
C1317 C1318 1.392 . S
C1317 C1321 1.495 . S
C1318 C1317 1.392 . S
C1318 C1319 1.385 1_655 S
C1318 C1320 1.478 . S
C1319 H1313 0.930 . S
C1319 C1315 1.400 . S
C1319 C1318 1.385 1_455 S
C1320 C1318 1.478 . S
C1320 C1322 1.381 . S
C1320 C1326 1.383 . S
C1321 C1317 1.495 . S
C1321 H1327 0.959 . S
C1321 H1328 0.961 . S
C1321 H1329 0.960 . S
C1322 C1320 1.381 . S
C1322 C1323 1.394 . S
C1322 H1330 0.930 . S
C1323 C1322 1.394 . S
C1323 C1324 1.383 . S
C1323 H1331 0.929 . S
C1324 C1323 1.383 . S
C1324 C1325 1.377 . S
C1325 H1309 0.930 . S
C1325 C1324 1.377 . S
C1325 C1326 1.379 . S
C1326 H1310 0.931 . S
C1326 C1320 1.383 . S
C1326 C1325 1.379 . S
H1327 C1321 0.959 . S
H1328 C1321 0.961 . S
H1329 C1321 0.960 . S
H1330 C1322 0.930 . S
H1331 C1323 0.929 . S
H1332 C1340 0.929 . S
H1333 C1342 0.930 . S
H1334 C1344 0.930 . S
H1335 C1347 0.929 . S
H1336 C1350 0.930 . S
H1337 C1352 0.960 . S
H1338 C1352 0.960 . S
H1339 C1352 0.960 . S
C1340 H1332 0.929 . S
C1340 C1341 1.377 . S
C1340 C1342 1.384 . S
C1341 C1340 1.377 . S
C1341 C1347 1.390 . S
C1342 H1333 0.930 . S
C1342 C1340 1.384 . S
C1342 C1343 1.372 . S
C1343 C1342 1.372 . S
C1343 C1344 1.400 . S
C1343 C1348 1.490 . S
C1344 H1334 0.930 . S
C1344 C1343 1.400 . S
C1344 C1347 1.386 . S
H1345 C1361 0.930 . S
H1346 C1362 0.931 . S
C1347 H1335 0.929 . S
C1347 C1341 1.390 . S
C1347 C1344 1.386 . S
C1348 C1343 1.490 . S
C1348 C1350 1.395 1_545 S
C1348 C1351 1.403 . S
H1349 C1355 0.930 . S
C1350 H1336 0.930 . S
C1350 C1348 1.395 1_565 S
C1350 C1353 1.403 1_556 S
C1351 C1348 1.403 . S
C1351 C1352 1.524 . S
C1351 C1355 1.400 1_556 S
C1352 H1337 0.960 . S
C1352 H1338 0.960 . S
C1352 H1339 0.960 . S
C1352 C1351 1.524 . S
C1353 C1350 1.403 1_554 S
C1353 C1354 1.392 . S
C1353 C1357 1.495 . S
C1354 C1353 1.392 . S
C1354 C1355 1.385 1_565 S
C1354 C1356 1.478 . S
C1355 H1349 0.930 . S
C1355 C1351 1.400 1_554 S
C1355 C1354 1.385 1_545 S
C1356 C1354 1.478 . S
C1356 C1358 1.381 . S
C1356 C1362 1.383 . S
C1357 C1353 1.495 . S
C1357 H1363 0.959 . S
C1357 H1364 0.961 . S
C1357 H1365 0.960 . S
C1358 C1356 1.381 . S
C1358 C1359 1.394 . S
C1358 H1366 0.930 . S
C1359 C1358 1.394 . S
C1359 C1360 1.383 . S
C1359 H1367 0.929 . S
C1360 C1359 1.383 . S
C1360 C1361 1.377 . S
C1361 H1345 0.930 . S
C1361 C1360 1.377 . S
C1361 C1362 1.379 . S
C1362 H1346 0.931 . S
C1362 C1356 1.383 . S
C1362 C1361 1.379 . S
H1363 C1357 0.959 . S
H1364 C1357 0.961 . S
H1365 C1357 0.960 . S
H1366 C1358 0.930 . S
H1367 C1359 0.929 . S
H1368 C1376 0.929 . S
H1369 C1378 0.930 . S
H1370 C1380 0.930 . S
H1371 C1383 0.929 . S
H1372 C1386 0.930 . S
H1373 C1388 0.960 . S
H1374 C1388 0.960 . S
H1375 C1388 0.960 . S
C1376 H1368 0.929 . S
C1376 C1377 1.377 . S
C1376 C1378 1.384 . S
C1377 C1376 1.377 . S
C1377 C1383 1.390 . S
C1378 H1369 0.930 . S
C1378 C1376 1.384 . S
C1378 C1379 1.372 . S
C1379 C1378 1.372 . S
C1379 C1380 1.400 . S
C1379 C1384 1.490 . S
C1380 H1370 0.930 . S
C1380 C1379 1.400 . S
C1380 C1383 1.386 . S
H1381 C1397 0.930 . S
H1382 C1398 0.931 . S
C1383 H1371 0.929 . S
C1383 C1377 1.390 . S
C1383 C1380 1.386 . S
C1384 C1379 1.490 . S
C1384 C1386 1.395 . S
C1384 C1387 1.403 . S
H1385 C1391 0.930 . S
C1386 H1372 0.930 . S
C1386 C1384 1.395 . S
C1386 C1389 1.403 . S
C1387 C1384 1.403 . S
C1387 C1388 1.524 . S
C1387 C1391 1.400 . S
C1388 H1373 0.960 . S
C1388 H1374 0.960 . S
C1388 H1375 0.960 . S
C1388 C1387 1.524 . S
C1389 C1386 1.403 . S
C1389 C1390 1.392 . S
C1389 C1393 1.495 . S
C1390 C1389 1.392 . S
C1390 C1391 1.385 . S
C1390 C1392 1.478 . S
C1391 H1385 0.930 . S
C1391 C1387 1.400 . S
C1391 C1390 1.385 . S
C1392 C1390 1.478 . S
C1392 C1394 1.381 . S
C1392 C1398 1.383 . S
C1393 C1389 1.495 . S
C1393 H1399 0.959 . S
C1393 H1400 0.961 . S
C1393 H1401 0.960 . S
C1394 C1392 1.381 . S
C1394 C1395 1.394 . S
C1394 H1402 0.930 . S
C1395 C1394 1.394 . S
C1395 C1396 1.383 . S
C1395 H1403 0.929 . S
C1396 C1395 1.383 . S
C1396 C1397 1.377 . S
C1397 H1381 0.930 . S
C1397 C1396 1.377 . S
C1397 C1398 1.379 . S
C1398 H1382 0.931 . S
C1398 C1392 1.383 . S
C1398 C1397 1.379 . S
H1399 C1393 0.959 . S
H1400 C1393 0.961 . S
H1401 C1393 0.960 . S
H1402 C1394 0.930 . S
H1403 C1395 0.929 . S
H1404 C1412 0.944 1_455 S
H1405 C1414 0.921 . S
H1406 C1416 0.930 . S
H1407 C1419 0.929 . S
H1408 C1422 0.930 . S
H1409 C1424 0.960 . S
H1410 C1424 0.960 . S
H1411 C1424 0.960 . S
C1412 H1404 0.944 1_655 S
C1412 C1413 1.367 . S
C1412 C1414 1.383 1_655 S
C1413 C1412 1.367 . S
C1413 C1419 1.390 . S
C1414 H1405 0.921 . S
C1414 C1412 1.383 1_455 S
C1414 C1415 1.385 1_455 S
C1415 C1414 1.385 1_655 S
C1415 C1416 1.400 . S
C1415 C1420 1.490 . S
C1416 H1406 0.930 . S
C1416 C1415 1.400 . S
C1416 C1419 1.386 . S
H1417 C1433 0.930 . S
H1418 C1434 0.931 . S
C1419 H1407 0.929 . S
C1419 C1413 1.390 . S
C1419 C1416 1.386 . S
C1420 C1415 1.490 . S
C1420 C1422 1.395 . S
C1420 C1423 1.403 1_655 S
H1421 C1427 0.930 . S
C1422 H1408 0.930 . S
C1422 C1420 1.395 . S
C1422 C1425 1.403 . S
C1423 C1420 1.403 1_455 S
C1423 C1424 1.524 . S
C1423 C1427 1.400 . S
C1424 H1409 0.960 . S
C1424 H1410 0.960 . S
C1424 H1411 0.960 . S
C1424 C1423 1.524 . S
C1425 C1422 1.403 . S
C1425 C1426 1.392 . S
C1425 C1429 1.495 . S
C1426 C1425 1.392 . S
C1426 C1427 1.385 1_655 S
C1426 C1428 1.478 1_655 S
C1427 H1421 0.930 . S
C1427 C1423 1.400 . S
C1427 C1426 1.385 1_455 S
C1428 C1426 1.478 1_455 S
C1428 C1430 1.382 . S
C1428 C1434 1.382 1_455 S
C1429 C1425 1.495 . S
C1429 H1435 0.959 . S
C1429 H1436 0.961 . S
C1429 H1437 0.960 . S
C1430 C1428 1.382 . S
C1430 C1431 1.394 . S
C1430 H1438 0.930 . S
C1431 C1430 1.394 . S
C1431 C1432 1.383 . S
C1431 H1439 0.929 . S
C1432 C1431 1.383 . S
C1432 C1433 1.377 1_455 S
C1433 H1417 0.930 . S
C1433 C1432 1.377 1_655 S
C1433 C1434 1.379 . S
C1434 H1418 0.931 . S
C1434 C1428 1.382 1_655 S
C1434 C1433 1.379 . S
H1435 C1429 0.959 . S
H1436 C1429 0.961 . S
H1437 C1429 0.960 . S
H1438 C1430 0.930 . S
H1439 C1431 0.929 . S
H1440 C1448 0.929 . S
H1441 C1450 0.930 . S
H1442 C1452 0.934 1_565 S
H1443 C1455 0.929 . S
H1444 C1458 0.930 . S
H1445 C1460 0.960 . S
H1446 C1460 0.960 . S
H1447 C1460 0.960 . S
C1448 H1440 0.929 . S
C1448 C1449 1.377 . S
C1448 C1450 1.384 . S
C1449 C1448 1.377 . S
C1449 C1455 1.390 . S
C1450 H1441 0.930 . S
C1450 C1448 1.384 . S
C1450 C1451 1.372 . S
C1451 C1450 1.372 . S
C1451 C1452 1.400 . S
C1451 C1456 1.490 . S
C1452 H1442 0.934 1_545 S
C1452 C1451 1.400 . S
C1452 C1455 1.386 . S
H1453 C1469 0.930 . S
H1454 C1470 0.931 . S
C1455 H1443 0.929 . S
C1455 C1449 1.390 . S
C1455 C1452 1.386 . S
C1456 C1451 1.490 . S
C1456 C1458 1.395 1_545 S
C1456 C1459 1.403 . S
H1457 C1463 0.930 . S
C1458 H1444 0.930 . S
C1458 C1456 1.395 1_565 S
C1458 C1461 1.403 . S
C1459 C1456 1.403 . S
C1459 C1460 1.524 . S
C1459 C1463 1.400 . S
C1460 H1445 0.960 . S
C1460 H1446 0.960 . S
C1460 H1447 0.960 . S
C1460 C1459 1.524 . S
C1461 C1458 1.403 . S
C1461 C1462 1.392 . S
C1461 C1465 1.495 . S
C1462 C1461 1.392 . S
C1462 C1463 1.385 1_565 S
C1462 C1464 1.478 . S
C1463 H1457 0.930 . S
C1463 C1459 1.400 . S
C1463 C1462 1.385 1_545 S
C1464 C1462 1.478 . S
C1464 C1466 1.381 . S
C1464 C1470 1.383 . S
C1465 C1461 1.495 . S
C1465 H1471 0.959 . S
C1465 H1472 0.961 . S
C1465 H1473 0.960 . S
C1466 C1464 1.381 . S
C1466 C1467 1.394 . S
C1466 H1474 0.930 1_565 S
C1467 C1466 1.394 . S
C1467 C1468 1.383 . S
C1467 H1475 0.939 1_565 S
C1468 C1467 1.383 . S
C1468 C1469 1.377 . S
C1469 H1453 0.930 . S
C1469 C1468 1.377 . S
C1469 C1470 1.379 . S
C1470 H1454 0.931 . S
C1470 C1464 1.383 . S
C1470 C1469 1.379 . S
H1471 C1465 0.959 . S
H1472 C1465 0.961 . S
H1473 C1465 0.960 . S
H1474 C1466 0.930 1_545 S
H1475 C1467 0.939 1_545 S
C405 C292 0.409 . S
C424 C28 0.381 . S
C441 C61 0.415 . S
C460 C325 0.420 . S
C477 C94 0.435 . S
C496 C358 0.465 . S
C513 C127 0.410 . S
C532 C391 0.352 . S
C549 C160 0.408 . S
C568 C226 0.355 . S
C585 C193 0.430 . S
C604 C259 0.437 . S
C621 N5 1.712 . S
C640 C173 1.712 . S
C657 C8 1.725 . S
C676 N38 1.719 . S
C693 N71 1.704 . S
C712 C41 1.741 . S
C729 C74 1.731 . S
C748 N104 1.687 . S
C765 C107 1.730 . S
C784 N137 1.695 . S
C801 N170 1.705 . S
C820 C140 1.740 . S
C837 C239 1.730 . S
C856 N203 1.689 . S
C873 C272 1.731 . S
C892 N236 1.688 . S
C909 C305 1.725 . S
C928 N269 1.726 . S
C945 C338 1.731 1_556 S
C964 N302 1.686 . S
C981 C371 1.729 . S
C1000 N335 1.697 . S
C1017 N368 1.713 . S
C1036 C206 1.709 . S
C1053 C17 1.241 . S
C1072 C215 1.236 . S
C1089 C50 1.240 . S
C1108 C248 1.237 . S
C1125 C83 1.241 . S
C1144 C281 1.239 . S
C1161 C116 1.241 . S
C1180 C314 1.240 . S
C1197 C347 1.240 . S
C1216 C149 1.238 . S
C1233 C182 1.240 . S
C1252 C380 1.237 . S
C1269 N311 0.727 . S
C1288 N14 0.784 . S
C1305 N47 0.729 . S
C1324 N344 0.668 . S
C1341 N80 0.725 . S
C1360 N377 0.676 . S
C1377 N113 0.726 . S
C1396 N212 0.674 . S
C1413 N146 0.746 . S
C1432 N245 0.781 . S
C1449 N278 0.723 . S
C1468 N179 0.685 . S
