# Generated by pormake.
# Topology ecv, (8)-cn, num edge types: 1
# Building blocks:
#     Node 0, Type 0, BuildingBlock: EBIMEJ_clean_sbu_0, # of connection points: 8
#     Node 1, Type 0, BuildingBlock: EBIMEJ_clean_sbu_0, # of connection points: 8
#     Node 2, Type 0, BuildingBlock: EBIMEJ_clean_sbu_0, # of connection points: 8
#     Node 3, Type 0, BuildingBlock: EBIMEJ_clean_sbu_0, # of connection points: 8
#     Node 4, Type 0, BuildingBlock: EBIMEJ_clean_sbu_0, # of connection points: 8
#     Node 5, Type 0, BuildingBlock: EBIMEJ_clean_sbu_0, # of connection points: 8
#     Node 6, Type 0, BuildingBlock: EBIMEJ_clean_sbu_0, # of connection points: 8
#     Node 7, Type 0, BuildingBlock: EBIMEJ_clean_sbu_0, # of connection points: 8
#     Node 8, Type 0, BuildingBlock: EBIMEJ_clean_sbu_0, # of connection points: 8
#     Node 9, Type 0, BuildingBlock: EBIMEJ_clean_sbu_0, # of connection points: 8
#     Node 10, Type 0, BuildingBlock: EBIMEJ_clean_sbu_0, # of connection points: 8
#     Node 11, Type 0, BuildingBlock: EBIMEJ_clean_sbu_0, # of connection points: 8
#     Node 12, Type 0, BuildingBlock: EBIMEJ_clean_sbu_0, # of connection points: 8
#     Node 13, Type 0, BuildingBlock: EBIMEJ_clean_sbu_0, # of connection points: 8
#     Node 14, Type 0, BuildingBlock: EBIMEJ_clean_sbu_0, # of connection points: 8
#     Node 15, Type 0, BuildingBlock: EBIMEJ_clean_sbu_0, # of connection points: 8
#     Edge 16, Type (0, 0), BuildingBlock: XIVTED_clean_linker_0, # of connection points: 2
#     Edge 17, Type (0, 0), BuildingBlock: XIVTED_clean_linker_0, # of connection points: 2
#     Edge 18, Type (0, 0), BuildingBlock: XIVTED_clean_linker_0, # of connection points: 2
#     Edge 19, Type (0, 0), BuildingBlock: XIVTED_clean_linker_0, # of connection points: 2
#     Edge 20, Type (0, 0), BuildingBlock: XIVTED_clean_linker_0, # of connection points: 2
#     Edge 21, Type (0, 0), BuildingBlock: XIVTED_clean_linker_0, # of connection points: 2
#     Edge 22, Type (0, 0), BuildingBlock: XIVTED_clean_linker_0, # of connection points: 2
#     Edge 23, Type (0, 0), BuildingBlock: XIVTED_clean_linker_0, # of connection points: 2
#     Edge 24, Type (0, 0), BuildingBlock: XIVTED_clean_linker_0, # of connection points: 2
#     Edge 25, Type (0, 0), BuildingBlock: XIVTED_clean_linker_0, # of connection points: 2
#     Edge 26, Type (0, 0), BuildingBlock: XIVTED_clean_linker_0, # of connection points: 2
#     Edge 27, Type (0, 0), BuildingBlock: XIVTED_clean_linker_0, # of connection points: 2
#     Edge 28, Type (0, 0), BuildingBlock: XIVTED_clean_linker_0, # of connection points: 2
#     Edge 29, Type (0, 0), BuildingBlock: XIVTED_clean_linker_0, # of connection points: 2
#     Edge 30, Type (0, 0), BuildingBlock: XIVTED_clean_linker_0, # of connection points: 2
#     Edge 31, Type (0, 0), BuildingBlock: XIVTED_clean_linker_0, # of connection points: 2
#     Edge 32, Type (0, 0), BuildingBlock: XIVTED_clean_linker_0, # of connection points: 2
#     Edge 33, Type (0, 0), BuildingBlock: XIVTED_clean_linker_0, # of connection points: 2
#     Edge 34, Type (0, 0), BuildingBlock: XIVTED_clean_linker_0, # of connection points: 2
#     Edge 35, Type (0, 0), BuildingBlock: XIVTED_clean_linker_0, # of connection points: 2
#     Edge 36, Type (0, 0), BuildingBlock: XIVTED_clean_linker_0, # of connection points: 2
#     Edge 37, Type (0, 0), BuildingBlock: XIVTED_clean_linker_0, # of connection points: 2
#     Edge 38, Type (0, 0), BuildingBlock: XIVTED_clean_linker_0, # of connection points: 2
#     Edge 39, Type (0, 0), BuildingBlock: XIVTED_clean_linker_0, # of connection points: 2
#     Edge 40, Type (0, 0), BuildingBlock: XIVTED_clean_linker_0, # of connection points: 2
#     Edge 41, Type (0, 0), BuildingBlock: XIVTED_clean_linker_0, # of connection points: 2
#     Edge 42, Type (0, 0), BuildingBlock: XIVTED_clean_linker_0, # of connection points: 2
#     Edge 43, Type (0, 0), BuildingBlock: XIVTED_clean_linker_0, # of connection points: 2
#     Edge 44, Type (0, 0), BuildingBlock: XIVTED_clean_linker_0, # of connection points: 2
#     Edge 45, Type (0, 0), BuildingBlock: XIVTED_clean_linker_0, # of connection points: 2
#     Edge 46, Type (0, 0), BuildingBlock: XIVTED_clean_linker_0, # of connection points: 2
#     Edge 47, Type (0, 0), BuildingBlock: XIVTED_clean_linker_0, # of connection points: 2
#     Edge 48, Type (0, 0), BuildingBlock: XIVTED_clean_linker_0, # of connection points: 2
#     Edge 49, Type (0, 0), BuildingBlock: XIVTED_clean_linker_0, # of connection points: 2
#     Edge 50, Type (0, 0), BuildingBlock: XIVTED_clean_linker_0, # of connection points: 2
#     Edge 51, Type (0, 0), BuildingBlock: XIVTED_clean_linker_0, # of connection points: 2
#     Edge 52, Type (0, 0), BuildingBlock: XIVTED_clean_linker_0, # of connection points: 2
#     Edge 53, Type (0, 0), BuildingBlock: XIVTED_clean_linker_0, # of connection points: 2
#     Edge 54, Type (0, 0), BuildingBlock: XIVTED_clean_linker_0, # of connection points: 2
#     Edge 55, Type (0, 0), BuildingBlock: XIVTED_clean_linker_0, # of connection points: 2
#     Edge 56, Type (0, 0), BuildingBlock: XIVTED_clean_linker_0, # of connection points: 2
#     Edge 57, Type (0, 0), BuildingBlock: XIVTED_clean_linker_0, # of connection points: 2
#     Edge 58, Type (0, 0), BuildingBlock: XIVTED_clean_linker_0, # of connection points: 2
#     Edge 59, Type (0, 0), BuildingBlock: XIVTED_clean_linker_0, # of connection points: 2
#     Edge 60, Type (0, 0), BuildingBlock: XIVTED_clean_linker_0, # of connection points: 2
#     Edge 61, Type (0, 0), BuildingBlock: XIVTED_clean_linker_0, # of connection points: 2
#     Edge 62, Type (0, 0), BuildingBlock: XIVTED_clean_linker_0, # of connection points: 2
#     Edge 63, Type (0, 0), BuildingBlock: XIVTED_clean_linker_0, # of connection points: 2
#     Edge 64, Type (0, 0), BuildingBlock: XIVTED_clean_linker_0, # of connection points: 2
#     Edge 65, Type (0, 0), BuildingBlock: XIVTED_clean_linker_0, # of connection points: 2
#     Edge 66, Type (0, 0), BuildingBlock: XIVTED_clean_linker_0, # of connection points: 2
#     Edge 67, Type (0, 0), BuildingBlock: XIVTED_clean_linker_0, # of connection points: 2
#     Edge 68, Type (0, 0), BuildingBlock: XIVTED_clean_linker_0, # of connection points: 2
#     Edge 69, Type (0, 0), BuildingBlock: XIVTED_clean_linker_0, # of connection points: 2
#     Edge 70, Type (0, 0), BuildingBlock: XIVTED_clean_linker_0, # of connection points: 2
#     Edge 71, Type (0, 0), BuildingBlock: XIVTED_clean_linker_0, # of connection points: 2
#     Edge 72, Type (0, 0), BuildingBlock: XIVTED_clean_linker_0, # of connection points: 2
#     Edge 73, Type (0, 0), BuildingBlock: XIVTED_clean_linker_0, # of connection points: 2
#     Edge 74, Type (0, 0), BuildingBlock: XIVTED_clean_linker_0, # of connection points: 2
#     Edge 75, Type (0, 0), BuildingBlock: XIVTED_clean_linker_0, # of connection points: 2
#     Edge 76, Type (0, 0), BuildingBlock: XIVTED_clean_linker_0, # of connection points: 2
#     Edge 77, Type (0, 0), BuildingBlock: XIVTED_clean_linker_0, # of connection points: 2
#     Edge 78, Type (0, 0), BuildingBlock: XIVTED_clean_linker_0, # of connection points: 2
#     Edge 79, Type (0, 0), BuildingBlock: XIVTED_clean_linker_0, # of connection points: 2
# Relax obj value: 0.075
# Max RMSD: 0.179
# Mean RMSD: 0.179
data_MOF--net-ecv--node1-EBIMEJ_clean_sbu_0--edge1-XIVTED_clean_linker_0
_symmetry_space_group_name_H-M    P1
_symmetry_Int_Tables_number       1
_symmetry_cell_setting            triclinic
loop_
_symmetry_equiv_pos_as_xyz
'x, y, z'
_cell_length_a     16.003129
_cell_length_b     29.257264
_cell_length_c     137.82764
_cell_angle_alpha  100.6701
_cell_angle_beta   89.999738
_cell_angle_gamma 89.936474
loop_
_atom_site_label
_atom_site_type_symbol
_atom_site_fract_x
_atom_site_fract_y
_atom_site_fract_z
_atom_type_partial_charge
Co0 Co 0.19858 0.18166 0.43357 0.0
Co1 Co 0.09958 0.10404 0.44352 0.0
Co2 Co 0.19014 0.18113 0.45685 0.0
H3 H 0.19476 0.16839 0.4451 0.0
O4 O 0.2035 0.13908 0.44312 0.0
H5 H 0.10231 0.11383 0.45531 0.0
O6 O 0.09106 0.14272 0.45753 0.0
Co7 Co 0.10867 0.09809 0.46655 0.0
O8 O 1.00212 0.06687 0.46095 0.0
O9 O 0.99631 0.06933 0.44478 0.0
O10 O 0.17007 0.14349 0.47708 0.0
O11 O 0.18279 0.20972 0.47124 0.0
O12 O 0.25037 0.21647 0.42322 0.0
O13 O 0.26217 0.14492 0.42155 0.0
O14 O 0.20545 0.05818 0.46111 0.0
O15 O 0.17057 0.04709 0.44519 0.0
C16 C 0.31763 0.23591 0.44855 0.0
C17 C 0.08507 0.10877 0.42265 0.0
C18 C 0.07154 0.06772 0.48185 0.0
C19 C 0.08554 0.24763 0.44622 0.0
C20 C 0.96689 0.05712 0.45251 0.0
C21 C 0.18503 0.18702 0.47836 0.0
C22 C 0.2787 0.18023 0.41792 0.0
C23 C 0.21283 0.03574 0.45235 0.0
O24 O 0.28705 0.22567 0.4399 0.0
O25 O 0.29024 0.2193 0.45585 0.0
O26 O 0.09633 0.08103 0.42877 0.0
O27 O 0.10544 0.15157 0.42476 0.0
O28 O 0.10449 0.04377 0.47431 0.0
O29 O 0.05978 0.10885 0.4807 0.0
O30 O 0.10828 0.22892 0.43756 0.0
O31 O 0.11362 0.23347 0.45391 0.0
Co32 Co 0.20479 0.08525 0.8429 0.0
Co33 Co 0.10661 0.16628 0.83372 0.0
Co34 Co 0.18914 0.08808 0.81978 0.0
H35 H 0.198 0.09979 0.8315 0.0
O36 O 0.20872 0.12883 0.83355 0.0
H37 H 0.10709 0.15779 0.8219 0.0
O38 O 0.09307 0.12936 0.81963 0.0
Co39 Co 0.11377 0.17412 0.81071 0.0
O40 O 0.01295 0.20945 0.81697 0.0
O41 O 0.00536 0.2036 0.83297 0.0
O42 O 0.17271 0.12852 0.8 0.0
O43 O 0.17631 0.06098 0.80541 0.0
O44 O 0.21932 0.06212 0.8561 0.0
O45 O 0.30251 0.11 0.85228 0.0
O46 O 0.21417 0.21059 0.81616 0.0
O47 O 0.17963 0.2225 0.8321 0.0
C48 C 0.31615 0.02924 0.82723 0.0
C49 C 0.0931 0.15727 0.85423 0.0
C50 C 0.07776 0.20497 0.7954 0.0
C51 C 0.08818 0.02053 0.83048 0.0
C52 C 0.97817 0.21861 0.82545 0.0
C53 C 0.18183 0.08446 0.79846 0.0
C54 C 0.28316 0.0862 0.85866 0.0
C55 C 0.22242 0.23307 0.8249 0.0
O56 O 0.29033 0.04012 0.8361 0.0
O57 O 0.2863 0.04674 0.82017 0.0
O58 O 0.1068 0.18689 0.84858 0.0
O59 O 0.10867 0.11415 0.85136 0.0
O60 O 0.14814 0.20886 0.79952 0.0
O61 O 0.02795 0.18324 0.79994 0.0
O62 O 0.11857 0.03586 0.83897 0.0
O63 O 0.10919 0.03763 0.82287 0.0
Co64 Co 0.89812 0.9241 0.56025 0.0
Co65 Co 0.81722 0.84037 0.56976 0.0
Co66 Co 0.90794 0.91672 0.58321 0.0
H67 H 0.90498 0.90777 0.57142 0.0
O68 O 0.91624 0.87893 0.56913 0.0
H69 H 0.81193 0.8529 0.58147 0.0
O70 O 0.80349 0.8822 0.58348 0.0
Co71 Co 0.80683 0.83908 0.59291 0.0
O72 O 0.70314 0.80652 0.58706 0.0
O73 O 0.71706 0.80214 0.57075 0.0
O74 O 0.91088 0.8643 0.6003 0.0
O75 O 0.91181 0.9376 0.598 0.0
O76 O 0.9026 0.97843 0.55249 0.0
O77 O 0.9468 0.91327 0.54609 0.0
O78 O 0.89414 0.7901 0.589 0.0
O79 O 0.89381 0.78818 0.57272 0.0
C80 C 0.03851 0.96579 0.57452 0.0
C81 C 0.82325 0.83478 0.54834 0.0
C82 C 0.73197 0.83777 0.60876 0.0
C83 C 0.79445 0.98558 0.57466 0.0
C84 C 0.67872 0.7925 0.57823 0.0
C85 C 0.92705 0.90715 0.6034 0.0
C86 C 0.93531 0.95443 0.54494 0.0
C87 C 0.91915 0.77262 0.58037 0.0
O88 O 1.00171 0.95766 0.56616 0.0
O89 O 0.01161 0.95117 0.58209 0.0
O90 O 0.82525 0.81195 0.55543 0.0
O91 O 0.83806 0.87835 0.54965 0.0
O92 O 0.75274 0.80205 0.6027 0.0
O93 O 0.75288 0.87413 0.60577 0.0
O94 O 0.80077 0.963 0.5659 0.0
O95 O 0.83775 0.97433 0.58176 0.0
Co96 Co 0.91364 0.84862 0.21613 0.0
Co97 Co 0.82626 0.932 0.20625 0.0
Co98 Co 0.90966 0.85198 0.19288 0.0
H99 H 0.91136 0.86312 0.2047 0.0
O100 O 0.92371 0.89202 0.20669 0.0
H101 H 0.82141 0.91959 0.19446 0.0
O102 O 0.80987 0.89059 0.19252 0.0
Co103 Co 0.81929 0.93238 0.18286 0.0
O104 O 0.74041 0.98155 0.18956 0.0
O105 O 0.72872 0.97243 0.20532 0.0
O106 O 0.90347 0.89625 0.17353 0.0
O107 O 0.90826 0.82694 0.17826 0.0
O108 O 0.89565 0.79939 0.22505 0.0
O109 O 0.97944 0.85327 0.2292 0.0
O110 O 0.91018 0.97915 0.18698 0.0
O111 O 0.90477 0.98334 0.20333 0.0
C112 C 0.04927 0.81425 0.20211 0.0
C113 C 0.83404 0.93662 0.22781 0.0
C114 C 0.73839 0.93258 0.16729 0.0
C115 C 0.80456 0.78303 0.20271 0.0
C116 C 0.70784 0.99179 0.19812 0.0
C117 C 0.92014 0.8529 0.17182 0.0
C118 C 0.94724 0.81762 0.23149 0.0
C119 C 0.93308 0.99752 0.19566 0.0
O120 O 0.02989 0.84245 0.21 0.0
O121 O 0.00722 0.81301 0.19422 0.0
O122 O 0.83531 0.9596 0.22072 0.0
O123 O 0.84884 0.89303 0.22648 0.0
O124 O 0.81216 0.94684 0.16871 0.0
O125 O 0.71092 0.91767 0.17466 0.0
O126 O 0.8277 0.80012 0.21144 0.0
O127 O 0.83182 0.79888 0.19517 0.0
Co128 Co 0.1882 0.68356 0.93349 0.0
Co129 Co 0.09406 0.60358 0.94314 0.0
Co130 Co 0.18021 0.68142 0.95675 0.0
H131 H 0.18519 0.66979 0.94498 0.0
O132 O 0.19558 0.64072 0.94293 0.0
H133 H 0.09249 0.61377 0.95499 0.0
O134 O 0.08108 0.64275 0.95705 0.0
Co135 Co 0.08957 0.59857 0.96637 0.0
O136 O 0.974 0.59546 0.96006 0.0
O137 O 0.99486 0.56575 0.94431 0.0
O138 O 0.15548 0.64189 0.97686 0.0
O139 O 0.17112 0.70848 0.97117 0.0
O140 O 0.20044 0.7055 0.92012 0.0
O141 O 0.29067 0.66298 0.9246 0.0
O142 O 0.17022 0.54742 0.96138 0.0
O143 O 0.16973 0.5493 0.94523 0.0
C144 C 0.3052 0.73837 0.94878 0.0
C145 C 0.08414 0.60666 0.92222 0.0
C146 C 0.05675 0.56771 0.98176 0.0
C147 C 0.07617 0.74899 0.94637 0.0
C148 C 0.95373 0.56698 0.95225 0.0
C149 C 0.17183 0.68532 0.97822 0.0
C150 C 0.26862 0.68479 0.91798 0.0
C151 C 0.19414 0.53143 0.95262 0.0
O152 O 0.27358 0.72885 0.94016 0.0
O153 O 0.27995 0.72037 0.95599 0.0
O154 O 0.09523 0.57969 0.92848 0.0
O155 O 0.10129 0.64991 0.92422 0.0
O156 O 0.10731 0.54905 0.97522 0.0
O157 O 0.02526 0.60375 0.97955 0.0
O158 O 0.09829 0.73079 0.93765 0.0
O159 O 0.10421 0.7341 0.95397 0.0
Co160 Co 0.19045 0.58982 0.34381 0.0
Co161 Co 0.09776 0.67006 0.33389 0.0
Co162 Co 0.1829 0.59102 0.32051 0.0
H163 H 0.18773 0.60318 0.33228 0.0
O164 O 0.19848 0.63223 0.33427 0.0
H165 H 0.09693 0.65928 0.32207 0.0
O166 O 0.08488 0.63036 0.32006 0.0
Co167 Co 0.09561 0.67394 0.31067 0.0
O168 O 0.97851 0.68005 0.31659 0.0
O169 O 0.99939 0.70833 0.33251 0.0
O170 O 0.16452 0.63066 0.30048 0.0
O171 O 0.17388 0.56362 0.3061 0.0
O172 O 0.19907 0.57183 0.35761 0.0
O173 O 0.2964 0.60688 0.3523 0.0
O174 O 0.17961 0.72335 0.31554 0.0
O175 O 0.17461 0.72376 0.33177 0.0
C176 C 0.30507 0.53273 0.32858 0.0
C177 C 0.08664 0.66794 0.35488 0.0
C178 C 0.06193 0.7044 0.29524 0.0
C179 C 0.07851 0.52397 0.33099 0.0
C180 C 0.95762 0.70708 0.32459 0.0
C181 C 0.17797 0.5869 0.29909 0.0
C182 C 0.27076 0.5888 0.35934 0.0
C183 C 0.20185 0.74023 0.32431 0.0
O184 O 0.27318 0.54269 0.33718 0.0
O185 O 0.28155 0.55131 0.32137 0.0
O186 O 0.09798 0.69451 0.34855 0.0
O187 O 0.10421 0.6247 0.35302 0.0
O188 O 0.11334 0.72288 0.30168 0.0
O189 O 0.02996 0.66875 0.29757 0.0
O190 O 0.10206 0.54171 0.33967 0.0
O191 O 0.10527 0.53922 0.32337 0.0
Co192 Co 0.91065 0.42359 0.0608 0.0
Co193 Co 0.8209 0.34076 0.07033 0.0
Co194 Co 0.9084 0.41814 0.08393 0.0
H195 H 0.90907 0.40812 0.07212 0.0
O196 O 0.92026 0.37915 0.07 0.0
H197 H 0.8166 0.35204 0.08209 0.0
O198 O 0.80666 0.38112 0.0842 0.0
Co199 Co 0.81388 0.33775 0.09354 0.0
O200 O 0.72749 0.29305 0.08689 0.0
O201 O 0.72084 0.3022 0.07111 0.0
O202 O 0.90434 0.37019 0.10248 0.0
O203 O 0.90887 0.44127 0.09864 0.0
O204 O 0.89321 0.47303 0.05194 0.0
O205 O 0.97756 0.41923 0.04782 0.0
O206 O 0.90437 0.29091 0.08927 0.0
O207 O 0.89671 0.28766 0.07296 0.0
C208 C 0.04905 0.45526 0.07473 0.0
C209 C 0.82681 0.33795 0.04889 0.0
C210 C 0.73401 0.33752 0.10915 0.0
C211 C 0.80428 0.48914 0.07459 0.0
C212 C 0.69551 0.28402 0.07829 0.0
C213 C 0.92131 0.41345 0.10471 0.0
C214 C 0.94538 0.45495 0.04554 0.0
C215 C 0.92577 0.2728 0.08053 0.0
O216 O 0.02784 0.42879 0.06668 0.0
O217 O 0.00759 0.45595 0.08265 0.0
O218 O 0.82891 0.31419 0.05584 0.0
O219 O 0.84215 0.3815 0.0504 0.0
O220 O 0.76767 0.30222 0.10409 0.0
O221 O 0.74543 0.37282 0.10532 0.0
O222 O 0.82527 0.47208 0.06578 0.0
O223 O 0.8328 0.4728 0.08201 0.0
Co224 Co 0.89963 0.35012 0.71716 0.0
Co225 Co 0.81798 0.43352 0.70746 0.0
Co226 Co 0.90859 0.35654 0.69411 0.0
H227 H 0.90583 0.36596 0.70592 0.0
O228 O 0.91702 0.39485 0.70814 0.0
H229 H 0.81261 0.42058 0.69574 0.0
O230 O 0.80419 0.39125 0.69378 0.0
Co231 Co 0.80724 0.43385 0.68423 0.0
O232 O 0.70667 0.46943 0.69016 0.0
O233 O 0.71778 0.47178 0.70644 0.0
O234 O 0.90893 0.40744 0.67645 0.0
O235 O 0.9126 0.33492 0.67931 0.0
O236 O 0.86411 0.31531 0.72831 0.0
O237 O 0.9846 0.34065 0.72797 0.0
O238 O 0.89362 0.48339 0.6881 0.0
O239 O 0.89464 0.4854 0.70439 0.0
C240 C 0.03911 0.30741 0.70285 0.0
C241 C 0.82841 0.44095 0.72905 0.0
C242 C 0.73142 0.43374 0.66836 0.0
C243 C 0.79517 0.2884 0.70287 0.0
C244 C 0.68128 0.48277 0.69898 0.0
C245 C 0.92716 0.36457 0.6737 0.0
C246 C 0.93435 0.31897 0.73247 0.0
C247 C 0.91918 0.50096 0.69671 0.0
O248 O 1.00261 0.31587 0.71123 0.0
O249 O 0.01218 0.32196 0.69527 0.0
O250 O 0.82599 0.46272 0.72179 0.0
O251 O 0.84591 0.39774 0.72794 0.0
O252 O 0.74953 0.4698 0.67445 0.0
O253 O 0.75537 0.39783 0.67133 0.0
O254 O 0.80195 0.31138 0.7116 0.0
O255 O 0.83815 0.2992 0.6957 0.0
Co256 Co 0.7021 0.18892 0.93437 0.0
Co257 Co 0.6039 0.10831 0.94368 0.0
Co258 Co 0.68791 0.18613 0.95757 0.0
H259 H 0.69582 0.17452 0.94581 0.0
O260 O 0.7062 0.14542 0.94377 0.0
H261 H 0.60436 0.11692 0.9555 0.0
O262 O 0.59109 0.14546 0.95778 0.0
Co263 Co 0.61005 0.10037 0.96669 0.0
O264 O 0.51046 0.06433 0.96039 0.0
O265 O 0.50241 0.07123 0.94445 0.0
O266 O 0.6641 0.14694 0.97762 0.0
O267 O 0.67603 0.21366 0.97196 0.0
O268 O 0.72991 0.21914 0.92229 0.0
O269 O 0.78812 0.15782 0.92396 0.0
O270 O 0.70896 0.06214 0.96132 0.0
O271 O 0.67674 0.05215 0.94532 0.0
C272 C 0.81398 0.24479 0.95003 0.0
C273 C 0.594 0.11466 0.92282 0.0
C274 C 0.57236 0.06927 0.98192 0.0
C275 C 0.58513 0.2531 0.94693 0.0
C276 C 0.47562 0.0556 0.95192 0.0
C277 C 0.67675 0.19069 0.97903 0.0
C278 C 0.78165 0.18839 0.91868 0.0
C279 C 0.71808 0.04051 0.95251 0.0
O280 O 0.7865 0.23466 0.94122 0.0
O281 O 0.78557 0.22684 0.95709 0.0
O282 O 0.60446 0.08662 0.92889 0.0
O283 O 0.61285 0.15764 0.92509 0.0
O284 O 0.64583 0.07619 0.9793 0.0
O285 O 0.52032 0.08035 0.97593 0.0
O286 O 0.61355 0.23717 0.93836 0.0
O287 O 0.60856 0.23681 0.95455 0.0
Co288 Co 0.70493 0.08406 0.34228 0.0
Co289 Co 0.60549 0.16378 0.33301 0.0
Co290 Co 0.69249 0.0869 0.31916 0.0
H291 H 0.69965 0.09864 0.33088 0.0
O292 O 0.70916 0.12778 0.33298 0.0
H293 H 0.60704 0.15562 0.3212 0.0
O294 O 0.59482 0.12697 0.31887 0.0
Co295 Co 0.612 0.17239 0.31005 0.0
O296 O 0.51023 0.20674 0.31626 0.0
O297 O 0.50264 0.19974 0.33219 0.0
O298 O 0.66605 0.12591 0.29908 0.0
O299 O 0.68187 0.05938 0.30475 0.0
O300 O 0.71469 0.06434 0.35591 0.0
O301 O 0.80532 0.10642 0.35141 0.0
O302 O 0.70752 0.21272 0.31562 0.0
O303 O 0.67675 0.22098 0.33165 0.0
C304 C 0.81976 0.02914 0.32686 0.0
C305 C 0.58389 0.15245 0.35301 0.0
C306 C 0.57397 0.20316 0.29483 0.0
C307 C 0.5895 0.01957 0.32972 0.0
C308 C 0.47495 0.21494 0.32471 0.0
C309 C 0.68073 0.08233 0.29768 0.0
C310 C 0.78196 0.08564 0.35815 0.0
C311 C 0.71656 0.2338 0.32447 0.0
O312 O 0.79239 0.03975 0.33567 0.0
O313 O 0.79082 0.04659 0.31975 0.0
O314 O 0.6027 0.18345 0.34787 0.0
O315 O 0.60327 0.10994 0.35002 0.0
O316 O 0.64482 0.20733 0.29884 0.0
O317 O 0.52508 0.18111 0.29941 0.0
O318 O 0.61684 0.03577 0.33832 0.0
O319 O 0.61377 0.03569 0.3221 0.0
Co320 Co 0.39338 0.92204 0.05986 0.0
Co321 Co 0.31729 0.83763 0.06964 0.0
Co322 Co 0.40582 0.91594 0.08289 0.0
H323 H 0.40188 0.90626 0.07109 0.0
O324 O 0.41419 0.87754 0.06886 0.0
H325 H 0.31314 0.85035 0.0814 0.0
O326 O 0.30339 0.87955 0.0834 0.0
Co327 Co 0.31108 0.83686 0.09293 0.0
O328 O 0.23047 0.78808 0.08644 0.0
O329 O 0.21984 0.79742 0.07072 0.0
O330 O 0.39776 0.87036 0.10229 0.0
O331 O 0.40976 0.9395 0.09762 0.0
O332 O 0.356 0.94623 0.0473 0.0
O333 O 0.48185 0.942 0.05049 0.0
O334 O 0.4027 0.79067 0.08884 0.0
O335 O 0.3971 0.78677 0.07251 0.0
C336 C 0.53367 0.96584 0.07385 0.0
C337 C 0.32327 0.83125 0.04808 0.0
C338 C 0.23281 0.83505 0.10856 0.0
C339 C 0.28839 0.98268 0.07421 0.0
C340 C 0.19816 0.77806 0.07787 0.0
C341 C 0.4197 0.91295 0.10399 0.0
C342 C 0.4292 0.95305 0.04457 0.0
C343 C 0.42592 0.77263 0.08017 0.0
O344 O 0.4968 0.95655 0.0655 0.0
O345 O 0.50753 0.95185 0.08153 0.0
O346 O 0.32483 0.80901 0.05527 0.0
O347 O 0.33699 0.87487 0.04926 0.0
O348 O 0.30805 0.82357 0.10714 0.0
O349 O 0.20207 0.84814 0.10114 0.0
O350 O 0.29459 0.95995 0.06545 0.0
O351 O 0.33285 0.97213 0.08127 0.0
Co352 Co 0.39655 0.84886 0.71651 0.0
Co353 Co 0.32123 0.93395 0.70691 0.0
Co354 Co 0.40657 0.85515 0.69347 0.0
H355 H 0.40417 0.86454 0.70528 0.0
O356 O 0.41745 0.89315 0.70751 0.0
H357 H 0.31549 0.92131 0.69519 0.0
O358 O 0.30485 0.89223 0.69321 0.0
Co359 Co 0.31225 0.93476 0.68369 0.0
O360 O 0.21878 0.97596 0.68978 0.0
O361 O 0.22391 0.97439 0.70597 0.0
O362 O 0.41531 0.90773 0.67644 0.0
O363 O 0.41019 0.8344 0.67868 0.0
O364 O 0.38962 0.7987 0.72529 0.0
O365 O 0.4564 0.85929 0.73008 0.0
O366 O 0.40062 0.98305 0.68761 0.0
O367 O 0.40106 0.98472 0.70389 0.0
C368 C 0.53034 0.80101 0.70199 0.0
C369 C 0.32523 0.93919 0.7283 0.0
C370 C 0.23678 0.93361 0.66776 0.0
C371 C 0.29159 0.78711 0.70218 0.0
C372 C 0.19223 0.98857 0.69857 0.0
C373 C 0.43279 0.86486 0.67359 0.0
C374 C 0.43369 0.821 0.7321 0.0
C375 C 0.42658 1.00013 0.69623 0.0
O376 O 0.49355 0.80989 0.71034 0.0
O377 O 0.50729 0.81792 0.69454 0.0
O378 O 0.33065 0.96221 0.72126 0.0
O379 O 0.33585 0.89525 0.72691 0.0
O380 O 0.28648 0.96496 0.67158 0.0
O381 O 0.22998 0.90281 0.67297 0.0
O382 O 0.30081 0.8086 0.711 0.0
O383 O 0.33225 0.79913 0.69497 0.0
Co384 Co 0.69322 0.6819 0.4336 0.0
Co385 Co 0.60067 0.60231 0.44351 0.0
Co386 Co 0.68684 0.68103 0.45686 0.0
H387 H 0.69154 0.66841 0.44511 0.0
O388 O 0.70225 0.63931 0.44312 0.0
H389 H 0.60269 0.61239 0.4553 0.0
O390 O 0.58984 0.64109 0.45748 0.0
Co391 Co 0.60975 0.59698 0.46656 0.0
O392 O 0.50413 0.56462 0.46094 0.0
O393 O 0.49938 0.56602 0.44472 0.0
O394 O 0.67111 0.64262 0.47699 0.0
O395 O 0.67811 0.70926 0.47123 0.0
O396 O 0.70114 0.69974 0.4198 0.0
O397 O 0.7997 0.66565 0.42517 0.0
O398 O 0.70893 0.55883 0.46126 0.0
O399 O 0.67459 0.54658 0.44532 0.0
C400 C 0.8083 0.73922 0.44864 0.0
C401 C 0.58685 0.60562 0.42255 0.0
C402 C 0.57355 0.56666 0.48189 0.0
C403 C 0.57942 0.74686 0.44635 0.0
C404 C 0.46987 0.55394 0.45245 0.0
C405 C 0.68256 0.68646 0.47832 0.0
C406 C 0.77334 0.68338 0.4181 0.0
C407 C 0.71741 0.53617 0.45253 0.0
O408 O 0.77658 0.72893 0.44005 0.0
O409 O 0.78466 0.72103 0.45589 0.0
O410 O 0.59895 0.5787 0.4288 0.0
O411 O 0.60511 0.64872 0.42447 0.0
O412 O 0.64675 0.57051 0.47883 0.0
O413 O 0.52103 0.58023 0.47627 0.0
O414 O 0.60233 0.72876 0.43765 0.0
O415 O 0.60789 0.73233 0.45398 0.0
Co416 Co 0.68986 0.59071 0.84356 0.0
Co417 Co 0.59623 0.67058 0.83383 0.0
Co418 Co 0.68197 0.59207 0.82031 0.0
H419 H 0.68712 0.60418 0.83205 0.0
O420 O 0.69766 0.63324 0.83407 0.0
H421 H 0.59462 0.65994 0.822 0.0
O422 O 0.58308 0.63095 0.81997 0.0
Co423 Co 0.59168 0.67487 0.81062 0.0
O424 O 0.47529 0.67949 0.81674 0.0
O425 O 0.49704 0.7084 0.83258 0.0
O426 O 0.65673 0.63094 0.80012 0.0
O427 O 0.67278 0.56458 0.8059 0.0
O428 O 0.69748 0.57075 0.85715 0.0
O429 O 0.79475 0.60736 0.85224 0.0
O430 O 0.67255 0.72588 0.81551 0.0
O431 O 0.67208 0.72479 0.8317 0.0
C432 C 0.80766 0.5357 0.82836 0.0
C433 C 0.58473 0.66749 0.85473 0.0
C434 C 0.55809 0.70611 0.79532 0.0
C435 C 0.57667 0.5257 0.83087 0.0
C436 C 0.45473 0.70689 0.8247 0.0
C437 C 0.67338 0.58752 0.79881 0.0
C438 C 0.76861 0.58812 0.85909 0.0
C439 C 0.6964 0.74232 0.82425 0.0
O440 O 0.7765 0.54578 0.83699 0.0
O441 O 0.78166 0.55308 0.82109 0.0
O442 O 0.59673 0.6946 0.84851 0.0
O443 O 0.60182 0.62422 0.85269 0.0
O444 O 0.60156 0.72722 0.80234 0.0
O445 O 0.53419 0.66747 0.797 0.0
O446 O 0.59814 0.54471 0.83955 0.0
O447 O 0.60584 0.53953 0.82319 0.0
Co448 Co 0.3957 0.42533 0.56047 0.0
Co449 Co 0.32029 0.34027 0.57011 0.0
Co450 Co 0.40659 0.41884 0.5835 0.0
H451 H 0.40373 0.40948 0.57169 0.0
O452 O 0.4167 0.38083 0.56944 0.0
H453 H 0.31547 0.35282 0.58186 0.0
O454 O 0.30491 0.38191 0.58384 0.0
Co455 Co 0.31329 0.33946 0.59339 0.0
O456 O 0.22374 0.29577 0.58722 0.0
O457 O 0.223 0.3 0.57114 0.0
O458 O 0.4153 0.36703 0.6008 0.0
O459 O 0.41035 0.44001 0.59829 0.0
O460 O 0.35983 0.45051 0.548 0.0
O461 O 0.48533 0.44115 0.55074 0.0
O462 O 0.40149 0.29104 0.58933 0.0
O463 O 0.40007 0.28937 0.57304 0.0
C464 C 0.52793 0.47428 0.57503 0.0
C465 C 0.3276 0.33416 0.54854 0.0
C466 C 0.23675 0.34165 0.60932 0.0
C467 C 0.28926 0.48557 0.57482 0.0
C468 C 0.19495 0.28408 0.5785 0.0
C469 C 0.43268 0.40997 0.60351 0.0
C470 C 0.43325 0.4543 0.54501 0.0
C471 C 0.42643 0.2739 0.58066 0.0
O472 O 0.48995 0.46603 0.56675 0.0
O473 O 0.50714 0.45608 0.58238 0.0
O474 O 0.32885 0.31178 0.55571 0.0
O475 O 0.34109 0.3778 0.54978 0.0
O476 O 0.29123 0.31204 0.60597 0.0
O477 O 0.22596 0.3702 0.60365 0.0
O478 O 0.29707 0.46322 0.56605 0.0
O479 O 0.33222 0.47473 0.58198 0.0
Co480 Co 0.3952 0.35025 0.21699 0.0
Co481 Co 0.31752 0.43531 0.20776 0.0
Co482 Co 0.4047 0.35819 0.19404 0.0
H483 H 0.40214 0.36662 0.20583 0.0
O484 O 0.41477 0.39524 0.20814 0.0
H485 H 0.31014 0.42312 0.19606 0.0
O486 O 0.30081 0.39394 0.19399 0.0
Co487 Co 0.30458 0.43749 0.18467 0.0
O488 O 0.21539 0.48108 0.19114 0.0
O489 O 0.21926 0.47561 0.20713 0.0
O490 O 0.40754 0.41212 0.17716 0.0
O491 O 0.40862 0.33844 0.17917 0.0
O492 O 0.36181 0.31524 0.22818 0.0
O493 O 0.4818 0.34116 0.22763 0.0
O494 O 0.39426 0.48489 0.18845 0.0
O495 O 0.39634 0.48642 0.20473 0.0
C496 C 0.53657 0.30953 0.20272 0.0
C497 C 0.32427 0.43977 0.22912 0.0
C498 C 0.22655 0.43618 0.16892 0.0
C499 C 0.29053 0.28968 0.20254 0.0
C500 C 0.18882 0.49213 0.19997 0.0
C501 C 0.42703 0.3697 0.17408 0.0
C502 C 0.43257 0.31929 0.23221 0.0
C503 C 0.4213 0.50173 0.19703 0.0
O504 O 0.50075 0.31839 0.21114 0.0
O505 O 0.50782 0.32276 0.19505 0.0
O506 O 0.32833 0.46296 0.2221 0.0
O507 O 0.33551 0.39584 0.22768 0.0
O508 O 0.29176 0.45927 0.17131 0.0
O509 O 0.20576 0.41355 0.17545 0.0
O510 O 0.29719 0.31217 0.21131 0.0
O511 O 0.33379 0.3008 0.19543 0.0
H512 H 0.41904 0.26952 0.43569 0.0
H513 H 0.3754 0.52526 0.46671 0.0
H514 H 0.32734 0.29902 0.46567 0.0
H515 H 0.43253 0.49302 0.43556 0.0
H516 H 0.34967 0.44314 0.46649 0.0
H517 H 0.4385 0.35243 0.43628 0.0
C518 C 0.40604 0.29342 0.44253 0.0
C519 C 0.36874 0.27784 0.45052 0.0
C520 C 0.36634 0.45419 0.45967 0.0
C521 C 0.38746 0.37211 0.45111 0.0
C522 C 0.37926 0.50115 0.45974 0.0
C523 C 0.41042 0.51539 0.45125 0.0
C524 C 0.38368 0.42205 0.45103 0.0
C525 C 0.41158 0.48321 0.44236 0.0
C526 C 0.41512 0.34073 0.44278 0.0
C527 C 0.3546 0.30983 0.45927 0.0
N528 N 0.40131 0.43751 0.44254 0.0
N529 N 0.36188 0.3559 0.45926 0.0
H530 H 0.87115 0.02973 0.4668 0.0
H531 H 0.90943 0.77364 0.43593 0.0
H532 H 0.92703 0.99678 0.43563 0.0
H533 H 0.81034 0.80369 0.46557 0.0
H534 H 0.92887 0.85655 0.43648 0.0
H535 H 0.8403 0.94807 0.46655 0.0
C536 C 0.87357 1.00562 0.45981 0.0
C537 C 0.90566 0.01941 0.45132 0.0
C538 C 0.90378 0.84499 0.44291 0.0
C539 C 0.87317 0.92655 0.45106 0.0
C540 C 0.89469 0.79771 0.44269 0.0
C541 C 0.85633 0.78222 0.45062 0.0
C542 C 0.87476 0.87654 0.45115 0.0
C543 C 0.83923 0.81444 0.45925 0.0
C544 C 0.85764 0.95891 0.45972 0.0
C545 C 0.90522 0.98728 0.44242 0.0
N546 N 0.84682 0.86049 0.45921 0.0
N547 N 0.89212 0.94178 0.44258 0.0
H548 H 0.32854 0.97002 0.80943 0.0
H549 H 0.3872 0.76923 0.83971 0.0
H550 H 0.4139 0.99035 0.83966 0.0
H551 H 0.41697 0.74117 0.80801 0.0
H552 H 0.36847 0.85125 0.83921 0.0
H553 H 0.35338 0.88657 0.80791 0.0
C554 C 0.35555 0.95726 0.81563 0.0
C555 C 0.36618 0.98671 0.82482 0.0
C556 C 0.37852 0.827 0.83236 0.0
C557 C 0.39121 0.8921 0.8232 0.0
C558 C 0.38732 0.78014 0.83261 0.0
C559 C 0.40683 0.74879 0.82394 0.0
C560 C 0.38813 0.84225 0.82336 0.0
C561 C 0.40431 0.76451 0.81491 0.0
C562 C 0.36827 0.90959 0.81479 0.0
C563 C 0.40235 0.96849 0.83254 0.0
N564 N 0.39709 0.81064 0.81485 0.0
N565 N 0.4113 0.92199 0.83165 0.0
H566 H 0.9504 0.28056 0.84244 0.0
H567 H 0.81667 0.47195 0.81131 0.0
H568 H 0.87967 0.24805 0.8117 0.0
H569 H 0.90985 0.50273 0.84121 0.0
H570 H 0.84281 0.38966 0.81098 0.0
H571 H 0.91881 0.36191 0.84256 0.0
C572 C 0.92487 0.2902 0.83582 0.0
C573 C 0.92048 0.25803 0.82694 0.0
C574 C 0.85879 0.41452 0.81756 0.0
C575 C 0.88776 0.35078 0.82692 0.0
C576 C 0.84585 0.46159 0.81766 0.0
C577 C 0.85897 0.49374 0.82641 0.0
C578 C 0.88528 0.40018 0.82623 0.0
C579 C 0.89717 0.47862 0.8344 0.0
C580 C 0.90893 0.33686 0.83582 0.0
C581 C 0.88604 0.27227 0.81862 0.0
N582 N 0.90717 0.43259 0.83422 0.0
N583 N 0.8731 0.31805 0.81872 0.0
H584 H 0.54423 0.53654 0.59216 0.0
H585 H 0.64508 0.73252 0.56097 0.0
H586 H 0.62088 0.50916 0.56159 0.0
H587 H 0.58107 0.76158 0.59197 0.0
H588 H 0.61697 0.65071 0.56061 0.0
H589 H 0.5605 0.61945 0.59246 0.0
C590 C 0.5681 0.54784 0.58563 0.0
C591 C 0.57893 0.5163 0.57674 0.0
C592 C 0.60802 0.67511 0.56746 0.0
C593 C 0.59383 0.61056 0.57691 0.0
C594 C 0.62221 0.72205 0.56763 0.0
C595 C 0.62019 0.75333 0.57666 0.0
C596 C 0.59083 0.6601 0.57635 0.0
C597 C 0.58713 0.73808 0.58494 0.0
C598 C 0.57507 0.59525 0.58573 0.0
C599 C 0.61024 0.5327 0.56853 0.0
N600 N 0.57642 0.69202 0.58469 0.0
N601 N 0.61456 0.579 0.56873 0.0
H602 H 0.07667 0.0242 0.59172 0.0
H603 H 0.1804 0.22221 0.56119 0.0
H604 H 0.13212 0.99668 0.56051 0.0
H605 H 0.10084 0.24774 0.59167 0.0
H606 H 0.16109 0.13929 0.56054 0.0
H607 H 0.10561 0.10604 0.59222 0.0
C608 C 0.09837 0.035 0.58505 0.0
C609 C 0.09822 1.00421 0.57595 0.0
C610 C 0.14679 0.16312 0.56733 0.0
C611 C 0.12812 0.09747 0.57641 0.0
C612 C 0.15579 0.21057 0.56764 0.0
C613 C 0.14517 0.24153 0.57662 0.0
C614 C 0.12645 0.14718 0.57603 0.0
C615 C 0.11208 0.22467 0.58469 0.0
C616 C 0.11277 0.08196 0.58529 0.0
C617 C 0.12867 0.01987 0.5676 0.0
N618 N 0.10594 0.17829 0.58429 0.0
N619 N 0.13991 0.06594 0.56795 0.0
H620 H 0.60771 0.02714 0.18549 0.0
H621 H 0.63324 0.28224 0.21694 0.0
H622 H 0.70994 0.05673 0.21497 0.0
H623 H 0.57833 0.25038 0.18574 0.0
H624 H 0.67105 0.20119 0.2164 0.0
H625 H 0.58658 0.11005 0.18617 0.0
C626 C 0.62292 0.05114 0.19224 0.0
C627 C 0.66176 0.03549 0.20012 0.0
C628 C 0.65251 0.21218 0.20964 0.0
C629 C 0.64144 0.12991 0.20079 0.0
C630 C 0.63238 0.25857 0.20989 0.0
C631 C 0.599 0.27234 0.20146 0.0
C632 C 0.63947 0.18008 0.20088 0.0
C633 C 0.60133 0.24084 0.19248 0.0
C634 C 0.61281 0.09842 0.19254 0.0
C635 C 0.68004 0.06762 0.20872 0.0
N636 N 0.61851 0.19556 0.19248 0.0
N637 N 0.67112 0.11371 0.20877 0.0
H638 H 0.08977 0.78225 0.21901 0.0
H639 H 0.08608 0.52717 0.18743 0.0
H640 H 0.10803 0.74791 0.18722 0.0
H641 H 0.17704 0.55344 0.21745 0.0
H642 H 0.05732 0.60983 0.18884 0.0
H643 H 0.10493 0.69984 0.21974 0.0
C644 C 0.09947 0.75768 0.21221 0.0
C645 C 0.09452 0.77162 0.203 0.0
C646 C 0.08235 0.59731 0.19517 0.0
C647 C 0.10935 0.67809 0.20381 0.0
C648 C 0.09727 0.55013 0.19443 0.0
C649 C 0.13682 0.53394 0.20221 0.0
C650 C 0.10676 0.62803 0.20375 0.0
C651 C 0.14822 0.56484 0.2112 0.0
C652 C 0.10678 0.71067 0.21264 0.0
C653 C 0.10921 0.73844 0.19445 0.0
N654 N 0.13531 0.611 0.21166 0.0
N655 N 0.11397 0.69294 0.19505 0.0
H656 H 0.45074 0.99344 0.9349 0.0
H657 H 0.31242 0.80214 0.96582 0.0
H658 H 0.37568 0.02601 0.9655 0.0
H659 H 0.40856 0.77122 0.93605 0.0
H660 H 0.33899 0.88441 0.96619 0.0
H661 H 0.41928 0.91206 0.93474 0.0
C662 C 0.42428 0.9838 0.94147 0.0
C663 C 0.41846 0.01602 0.95033 0.0
C664 C 0.35556 0.85952 0.95963 0.0
C665 C 0.38593 0.92323 0.95031 0.0
C666 C 0.34237 0.81247 0.95951 0.0
C667 C 0.35635 0.78029 0.95078 0.0
C668 C 0.38309 0.87382 0.951 0.0
C669 C 0.39536 0.79536 0.94284 0.0
C670 C 0.40841 0.93713 0.94145 0.0
C671 C 0.38305 1.00177 0.95859 0.0
N672 N 0.4056 0.84137 0.94304 0.0
N673 N 0.37016 0.95598 0.95847 0.0
H674 H 0.91896 0.27963 0.93773 0.0
H675 H 0.91724 0.53481 0.96928 0.0
H676 H 0.82296 0.30596 0.96754 0.0
H677 H 0.89594 0.49979 0.93752 0.0
H678 H 0.90335 0.45234 0.9701 0.0
H679 H 0.95073 0.36204 0.93934 0.0
C680 C 0.90724 0.30254 0.94473 0.0
C681 C 0.86573 0.28653 0.95239 0.0
C682 C 0.90072 0.46306 0.96299 0.0
C683 C 0.89908 0.38032 0.95414 0.0
C684 C 0.90744 0.51006 0.96251 0.0
C685 C 0.91085 0.52385 0.95327 0.0
C686 C 0.89725 0.43036 0.95419 0.0
C687 C 0.89587 0.49047 0.94477 0.0
C688 C 0.92401 0.34956 0.94558 0.0
C689 C 0.8535 0.3173 0.96139 0.0
N690 N 0.89162 0.44503 0.94542 0.0
N691 N 0.8681 0.36337 0.96195 0.0
H692 H 0.44283 0.27491 0.34188 0.0
H693 H 0.31089 0.46941 0.31146 0.0
H694 H 0.37645 0.24465 0.31098 0.0
H695 H 0.40446 0.49751 0.34136 0.0
H696 H 0.33452 0.38667 0.31089 0.0
H697 H 0.40864 0.35618 0.3423 0.0
C698 C 0.41771 0.28497 0.33528 0.0
C699 C 0.41553 0.25358 0.32628 0.0
C700 C 0.35108 0.41104 0.31752 0.0
C701 C 0.3798 0.34627 0.32661 0.0
C702 C 0.33959 0.45833 0.31776 0.0
C703 C 0.35393 0.48992 0.32656 0.0
C704 C 0.37727 0.39589 0.32612 0.0
C705 C 0.39113 0.47388 0.33451 0.0
C706 C 0.40023 0.33161 0.33546 0.0
C707 C 0.38132 0.26831 0.318 0.0
N708 N 0.39983 0.42767 0.33418 0.0
N709 N 0.36699 0.31411 0.31828 0.0
H710 H 0.83356 0.9697 0.30912 0.0
H711 H 0.89007 0.76925 0.33967 0.0
H712 H 0.91603 0.99047 0.33947 0.0
H713 H 0.91778 0.74106 0.30794 0.0
H714 H 0.87074 0.85123 0.33916 0.0
H715 H 0.85667 0.88621 0.30775 0.0
C716 C 0.85966 0.95701 0.31538 0.0
C717 C 0.86994 0.98665 0.32455 0.0
C718 C 0.8804 0.82695 0.3323 0.0
C719 C 0.89292 0.89196 0.3231 0.0
C720 C 0.88956 0.78009 0.33257 0.0
C721 C 0.90881 0.74874 0.32389 0.0
C722 C 0.88944 0.84214 0.32329 0.0
C723 C 0.90537 0.76438 0.31485 0.0
C724 C 0.87129 0.90931 0.31463 0.0
C725 C 0.90486 0.96849 0.33236 0.0
N726 N 0.89793 0.81049 0.31478 0.0
N727 N 0.9128 0.92196 0.33155 0.0
H728 H 0.62745 0.99483 0.0596 0.0
H729 H 0.59208 0.25048 0.09091 0.0
H730 H 0.56951 0.02691 0.09073 0.0
H731 H 0.68877 0.22098 0.06116 0.0
H732 H 0.56886 0.16772 0.09014 0.0
H733 H 0.65622 0.07678 0.05992 0.0
C734 C 0.62405 0.01886 0.06659 0.0
C735 C 0.59256 1.00463 0.07506 0.0
C736 C 0.59411 0.17938 0.08372 0.0
C737 C 0.62259 0.09784 0.0754 0.0
C738 C 0.60539 0.22663 0.08408 0.0
C739 C 0.64452 0.24211 0.07619 0.0
C740 C 0.62171 0.14792 0.0754 0.0
C741 C 0.65957 0.2102 0.06746 0.0
C742 C 0.6388 0.06572 0.06672 0.0
C743 C 0.59138 0.0367 0.08396 0.0
N744 N 0.65002 0.16415 0.06737 0.0
N745 N 0.60354 0.08233 0.08384 0.0
H746 H 0.09438 0.48833 0.05812 0.0
H747 H 0.10271 0.74104 0.09071 0.0
H748 H 0.11196 0.51843 0.08996 0.0
H749 H 0.18796 0.71639 0.06046 0.0
H750 H 0.07542 0.65821 0.08923 0.0
H751 H 0.117 0.57057 0.05786 0.0
C752 C 0.10571 0.51185 0.06504 0.0
C753 C 0.09831 0.49689 0.07412 0.0
C754 C 0.09908 0.67105 0.08287 0.0
C755 C 0.12164 0.59042 0.07383 0.0
C756 C 0.11308 0.71831 0.08366 0.0
C757 C 0.14959 0.7351 0.07578 0.0
C758 C 0.12158 0.64074 0.07415 0.0
C759 C 0.1607 0.70453 0.06675 0.0
C760 C 0.1173 0.55884 0.06487 0.0
C761 C 0.11496 0.52874 0.08281 0.0
N762 N 0.14841 0.65827 0.06622 0.0
N763 N 0.12384 0.57435 0.08247 0.0
H764 H 0.55043 0.73877 0.68489 0.0
H765 H 0.65171 0.54346 0.71624 0.0
H766 H 0.6237 0.76713 0.71557 0.0
H767 H 0.58282 0.51427 0.6854 0.0
H768 H 0.62528 0.62547 0.71658 0.0
H769 H 0.56824 0.65608 0.68468 0.0
C770 C 0.57383 0.72778 0.69147 0.0
C771 C 0.5829 0.75949 0.70037 0.0
C772 C 0.61486 0.60101 0.70977 0.0
C773 C 0.59974 0.66541 0.70029 0.0
C774 C 0.62805 0.55398 0.70962 0.0
C775 C 0.624 0.52253 0.70063 0.0
C776 C 0.59665 0.61594 0.7009 0.0
C777 C 0.59027 0.53788 0.69239 0.0
C778 C 0.5817 0.68046 0.69142 0.0
C779 C 0.61409 0.74344 0.70863 0.0
N780 N 0.58048 0.58398 0.69262 0.0
N781 N 0.61925 0.69718 0.70848 0.0
H782 H 0.13573 0.27769 0.71675 0.0
H783 H 0.09281 0.02224 0.68545 0.0
H784 H 0.07144 0.24671 0.6858 0.0
H785 H 0.17858 0.05188 0.71568 0.0
H786 H 0.07251 0.10508 0.68602 0.0
H787 H 0.16129 0.19535 0.71633 0.0
C788 C 0.13043 0.25376 0.70976 0.0
C789 C 0.09785 0.26849 0.70141 0.0
C790 C 0.09481 0.0934 0.69257 0.0
C791 C 0.12387 0.17485 0.70096 0.0
C792 C 0.10453 0.04609 0.69232 0.0
C793 C 0.14071 0.03056 0.70039 0.0
C794 C 0.12058 0.12483 0.70099 0.0
C795 C 0.15267 0.06257 0.70919 0.0
C796 C 0.1431 0.20668 0.70958 0.0
C797 C 0.09413 0.23653 0.69249 0.0
N798 N 0.14479 0.10861 0.70918 0.0
N799 N 0.10423 0.19069 0.69257 0.0
H800 H 0.24832 0.97145 0.43516 0.0
H801 H 0.52998 0.80721 0.46337 0.0
H802 H 0.30386 1.00189 0.46634 0.0
H803 H 0.49642 0.78159 0.43177 0.0
H804 H 0.44187 0.87681 0.4646 0.0
H805 H 0.33477 0.9007 0.43369 0.0
C806 C 0.27878 0.96363 0.44168 0.0
C807 C 0.26839 0.99333 0.45088 0.0
C808 C 0.45354 0.85587 0.45739 0.0
C809 C 0.36717 0.91163 0.44927 0.0
C810 C 0.50371 0.81583 0.4567 0.0
C811 C 0.52111 0.78796 0.44746 0.0
C812 C 0.41977 0.86848 0.4488 0.0
C813 C 0.48523 0.80165 0.43908 0.0
C814 C 0.32807 0.92304 0.44084 0.0
C815 C 0.30956 0.98064 0.45905 0.0
N816 N 0.43671 0.84062 0.43995 0.0
N817 N 0.35641 0.94111 0.45806 0.0
H818 H 0.99835 0.27885 0.43152 0.0
H819 H 0.81645 0.50733 0.46648 0.0
H820 H 0.04008 0.31149 0.46296 0.0
H821 H 0.74924 0.46845 0.43574 0.0
H822 H 0.90202 0.43769 0.46503 0.0
H823 H 0.91086 0.34817 0.43274 0.0
C824 C 0.98899 0.30037 0.43872 0.0
C825 C 0.02724 0.28871 0.44717 0.0
C826 C 0.86891 0.44423 0.45857 0.0
C827 C 0.92628 0.36941 0.44857 0.0
C828 C 0.81979 0.4844 0.45936 0.0
C829 C 0.77478 0.4945 0.4512 0.0
C830 C 0.87438 0.41312 0.44953 0.0
C831 C 0.78262 0.46268 0.44223 0.0
C832 C 0.93874 0.34018 0.43939 0.0
C833 C 0.012 0.3185 0.45625 0.0
N834 N 0.8312 0.42361 0.44165 0.0
N835 N 0.96329 0.35733 0.45669 0.0
H836 H 0.32498 0.26063 0.81114 0.0
H837 H 0.48611 0.49584 0.84544 0.0
H838 H 0.24788 0.30278 0.84149 0.0
H839 H 0.53767 0.45964 0.81423 0.0
H840 H 0.40236 0.42534 0.84431 0.0
H841 H 0.40691 0.33143 0.81247 0.0
C842 C 0.32547 0.28452 0.81815 0.0
C843 C 0.27871 0.27504 0.82624 0.0
C844 C 0.43151 0.43281 0.83769 0.0
C845 C 0.3739 0.35772 0.82775 0.0
C846 C 0.47957 0.47331 0.8383 0.0
C847 C 0.51952 0.48428 0.8299 0.0
C848 C 0.42305 0.40222 0.82862 0.0
C849 C 0.50804 0.45319 0.82091 0.0
C850 C 0.37246 0.32534 0.81887 0.0
C851 C 0.28283 0.30804 0.83507 0.0
N852 N 0.46144 0.41369 0.82053 0.0
N853 N 0.32931 0.34775 0.83558 0.0
H854 H 0.74306 0.79199 0.81012 0.0
H855 H 0.03737 0.97415 0.84507 0.0
H856 H 0.78019 0.78906 0.84102 0.0
H857 H 1.00192 0.97393 0.81402 0.0
H858 H 0.94309 0.90791 0.84383 0.0
H859 H 0.83522 0.85883 0.81162 0.0
C860 C 0.77064 0.80515 0.81727 0.0
C861 C 0.75333 0.78402 0.82546 0.0
C862 C 0.95556 0.92231 0.83728 0.0
C863 C 0.86076 0.86209 0.82719 0.0
C864 C 0.00964 0.96045 0.83796 0.0
C865 C 0.02819 0.98034 0.82963 0.0
C866 C 0.91873 0.90328 0.8282 0.0
C867 C 0.98989 0.96025 0.82067 0.0
C868 C 0.82361 0.84371 0.81809 0.0
C869 C 0.79127 0.80372 0.83448 0.0
N870 N 0.93727 0.92305 0.8202 0.0
N871 N 0.84311 0.84142 0.83509 0.0
H872 H 0.47783 0.21418 0.56364 0.0
H873 H 0.7596 0.05002 0.59187 0.0
H874 H 0.50869 0.2391 0.59528 0.0
H875 H 0.70289 0.01938 0.56073 0.0
H876 H 0.67299 0.12078 0.59336 0.0
H877 H 0.56656 0.14483 0.56244 0.0
C878 C 0.50363 0.20546 0.57033 0.0
C879 C 0.48519 0.233 0.57957 0.0
C880 C 0.6795 0.09839 0.58621 0.0
C881 C 0.58731 0.15281 0.57826 0.0
C882 C 0.72889 0.05781 0.58537 0.0
C883 C 0.73897 0.02804 0.57617 0.0
C884 C 0.64008 0.10972 0.5778 0.0
C885 C 0.69746 0.04066 0.56801 0.0
C886 C 0.55415 0.16556 0.56965 0.0
C887 C 0.52056 0.21922 0.58797 0.0
N888 N 0.6506 0.08018 0.56902 0.0
N889 N 0.56948 0.1804 0.58712 0.0
H890 H 0.25087 0.54922 0.59201 0.0
H891 H 0.97409 0.7138 0.56338 0.0
H892 H 0.19926 0.51914 0.56073 0.0
H893 H 0.99696 0.73665 0.59511 0.0
H894 H 0.06314 0.64462 0.56228 0.0
H895 H 0.16335 0.61955 0.59339 0.0
C896 C 0.22101 0.55702 0.58545 0.0
C897 C 0.23275 0.52754 0.57626 0.0
C898 C 0.04882 0.66485 0.56949 0.0
C899 C 0.13298 0.60875 0.57775 0.0
C900 C 0.99808 0.70462 0.57012 0.0
C901 C 0.97739 0.73155 0.57934 0.0
C902 C 0.0799 0.65163 0.57815 0.0
C903 C 0.01062 0.71726 0.5878 0.0
C904 C 0.17113 0.59736 0.58623 0.0
C905 C 0.19242 0.54019 0.56802 0.0
N906 N 0.05981 0.67859 0.587 0.0
N907 N 0.1451 0.5795 0.56897 0.0
H908 H 0.49863 0.53578 0.18205 0.0
H909 H 0.72581 0.74802 0.2174 0.0
H910 H 0.48113 0.56033 0.21384 0.0
H911 H 0.74847 0.72375 0.18566 0.0
H912 H 0.6362 0.68015 0.21609 0.0
H913 H 0.58956 0.60344 0.18318 0.0
C914 C 0.51396 0.55519 0.18931 0.0
C915 C 0.48143 0.5418 0.19788 0.0
C916 C 0.66043 0.68951 0.20938 0.0
C917 C 0.58669 0.62051 0.19918 0.0
C918 C 0.71196 0.72861 0.2101 0.0
C919 C 0.74559 0.74227 0.20161 0.0
C920 C 0.64135 0.66301 0.2001 0.0
C921 C 0.72425 0.71508 0.19242 0.0
C922 C 0.56616 0.59408 0.18992 0.0
C923 C 0.50449 0.56882 0.20702 0.0
N924 N 0.67381 0.67686 0.19192 0.0
N925 N 0.55524 0.60674 0.20741 0.0
H926 H 0.19039 0.25991 0.21625 0.0
H927 H 0.02158 0.02892 0.18108 0.0
H928 H 0.26374 0.22139 0.18569 0.0
H929 H 0.97559 0.06163 0.21244 0.0
H930 H 0.1068 0.0991 0.18241 0.0
H931 H 0.108 0.18923 0.21465 0.0
C932 C 0.18907 0.23684 0.20913 0.0
C933 C 0.23487 0.24736 0.20107 0.0
C934 C 0.07854 0.09091 0.18902 0.0
C935 C 0.13892 0.16474 0.19924 0.0
C936 C 0.02965 0.0506 0.18829 0.0
C937 C 0.99086 0.03874 0.19668 0.0
C938 C 0.08896 0.1204 0.1982 0.0
C939 C 0.00426 0.06876 0.20577 0.0
C940 C 0.14176 0.19607 0.20826 0.0
C941 C 0.22963 0.21531 0.19211 0.0
N942 N 0.05157 0.10806 0.20627 0.0
N943 N 0.18275 0.17563 0.19144 0.0
H944 H 0.27001 0.48309 0.9355 0.0
H945 H 0.50645 0.30132 0.96371 0.0
H946 H 0.24992 0.48409 0.96678 0.0
H947 H 0.52616 0.29737 0.93234 0.0
H948 H 0.41159 0.36812 0.96489 0.0
H949 H 0.36333 0.41513 0.93406 0.0
C950 C 0.28498 0.46926 0.94206 0.0
C951 C 0.25164 0.48995 0.95127 0.0
C952 C 0.43657 0.35256 0.95773 0.0
C953 C 0.35878 0.41171 0.94968 0.0
C954 C 0.49082 0.31423 0.95706 0.0
C955 C 0.52479 0.29316 0.94792 0.0
C956 C 0.41579 0.3704 0.94921 0.0
C957 C 0.50184 0.31202 0.93957 0.0
C958 C 0.33836 0.43034 0.94123 0.0
C959 C 0.27376 0.46994 0.95949 0.0
N960 N 0.44928 0.3493 0.94042 0.0
N961 N 0.32544 0.43233 0.95849 0.0
H962 H 0.03143 0.8106 0.9634 0.0
H963 H 0.75012 0.97546 0.93539 0.0
H964 H 0.9921 0.78367 0.93189 0.0
H965 H 0.81277 1.00789 0.96636 0.0
H966 H 0.83478 0.90413 0.9339 0.0
H967 H 0.94608 0.88126 0.96467 0.0
C968 C 0.00443 0.81916 0.95676 0.0
C969 C 0.01939 0.79065 0.94753 0.0
C970 C 0.83013 0.92705 0.94101 0.0
C971 C 0.92138 0.87229 0.94891 0.0
C972 C 0.78196 0.96799 0.94185 0.0
C973 C 0.77391 0.99832 0.951 0.0
C974 C 0.87047 0.91596 0.94938 0.0
C975 C 0.8166 0.98607 0.95912 0.0
C976 C 0.9559 0.85979 0.95747 0.0
C977 C 0.98278 0.80425 0.93918 0.0
N978 N 0.86231 0.94615 0.95812 0.0
N979 N 0.93587 0.84379 0.94007 0.0
H980 H 0.26616 0.79397 0.34157 0.0
H981 H 0.52141 0.96646 0.31276 0.0
H982 H 0.27068 0.78145 0.30987 0.0
H983 H 0.52059 0.97997 0.34448 0.0
H984 H 0.42803 0.89911 0.31164 0.0
H985 H 0.35851 0.86218 0.34291 0.0
C986 C 0.2865 0.80525 0.3349 0.0
C987 C 0.26007 0.78136 0.3256 0.0
C988 C 0.44816 0.9169 0.31885 0.0
C989 C 0.36601 0.85996 0.32708 0.0
C990 C 0.50149 0.95558 0.31949 0.0
C991 C 0.52946 0.9794 0.32872 0.0
C992 C 0.42213 0.90157 0.32749 0.0
C993 C 0.50121 0.96305 0.33717 0.0
C994 C 0.33924 0.84436 0.33566 0.0
C995 C 0.28884 0.79822 0.31723 0.0
N996 N 0.44961 0.92543 0.33635 0.0
N997 N 0.33969 0.83611 0.31818 0.0
H998 H 0.01832 0.46838 0.31388 0.0
H999 H 0.76436 0.29256 0.34198 0.0
H1000 H 0.0086 0.48371 0.34561 0.0
H1001 H 0.79283 0.27388 0.31034 0.0
H1002 H 0.85005 0.3636 0.34362 0.0
H1003 H 0.93093 0.39859 0.31254 0.0
C1004 C 0.9976 0.45741 0.32057 0.0
C1005 C 0.02129 0.48251 0.32986 0.0
C1006 C 0.8375 0.34378 0.33633 0.0
C1007 C 0.9209 0.40177 0.3284 0.0
C1008 C 0.78861 0.30306 0.33539 0.0
C1009 C 0.77114 0.27649 0.32602 0.0
C1010 C 0.86886 0.35847 0.32783 0.0
C1011 C 0.80447 0.29251 0.31776 0.0
C1012 C 0.94776 0.4173 0.31981 0.0
C1013 C 0.99227 0.46592 0.33826 0.0
N1014 N 0.85103 0.33208 0.31887 0.0
N1015 N 0.94406 0.42688 0.33732 0.0
H1016 H 0.4818 0.71447 0.06315 0.0
H1017 H 0.75137 0.54736 0.09191 0.0
H1018 H 0.50466 0.73696 0.09488 0.0
H1019 H 0.72496 0.52633 0.06023 0.0
H1020 H 0.66136 0.61667 0.09329 0.0
H1021 H 0.57224 0.64584 0.06201 0.0
C1022 C 0.50613 0.70534 0.06987 0.0
C1023 C 0.48517 0.73205 0.07911 0.0
C1024 C 0.67527 0.59672 0.08604 0.0
C1025 C 0.58897 0.65269 0.07787 0.0
C1026 C 0.72656 0.55696 0.08526 0.0
C1027 C 0.7464 0.53047 0.07595 0.0
C1028 C 0.64327 0.61031 0.07746 0.0
C1029 C 0.71218 0.54524 0.0676 0.0
C1030 C 0.55768 0.6659 0.06923 0.0
C1031 C 0.51865 0.7178 0.08756 0.0
N1032 N 0.66289 0.58381 0.06856 0.0
N1033 N 0.5684 0.67937 0.08674 0.0
H1034 H 0.26673 0.05155 0.09096 0.0
H1035 H 0.96148 0.20797 0.06364 0.0
H1036 H 0.18225 1.01117 0.06086 0.0
H1037 H 0.02025 0.24187 0.09469 0.0
H1038 H 0.04786 0.13763 0.06235 0.0
H1039 H 0.18112 0.12253 0.09246 0.0
C1040 C 0.22986 0.0572 0.0847 0.0
C1041 C 0.23216 0.02476 0.07578 0.0
C1042 C 0.04214 0.16057 0.06944 0.0
C1043 C 0.13432 0.10673 0.0774 0.0
C1044 C 0.99306 0.20103 0.07017 0.0
C1045 C 0.98317 0.23135 0.07928 0.0
C1046 C 0.08252 0.15013 0.07787 0.0
C1047 C 0.02546 0.21978 0.08749 0.0
C1048 C 0.18113 0.09795 0.08554 0.0
C1049 C 0.18312 0.03473 0.06791 0.0
N1050 N 0.07293 0.18042 0.08659 0.0
N1051 N 0.13693 0.07451 0.06889 0.0
H1052 H 0.50781 0.03384 0.68142 0.0
H1053 H 0.70503 0.25557 0.71703 0.0
H1054 H 0.48023 0.06051 0.71311 0.0
H1055 H 0.75789 0.22316 0.6858 0.0
H1056 H 0.62019 0.18583 0.71547 0.0
H1057 H 0.59634 0.10271 0.68272 0.0
C1058 C 0.52052 0.05393 0.68869 0.0
C1059 C 0.48582 0.04076 0.69719 0.0
C1060 C 0.64999 0.19379 0.70893 0.0
C1061 C 0.58809 0.12093 0.69868 0.0
C1062 C 0.6987 0.23406 0.70978 0.0
C1063 C 0.73938 0.24609 0.70152 0.0
C1064 C 0.64042 0.16448 0.69972 0.0
C1065 C 0.72798 0.21588 0.69239 0.0
C1066 C 0.57138 0.09349 0.68941 0.0
C1067 C 0.50538 0.06874 0.70635 0.0
N1068 N 0.67967 0.1767 0.69174 0.0
N1069 N 0.55458 0.10735 0.70683 0.0
H1070 H 0.98303 0.55653 0.71363 0.0
H1071 H 0.24193 0.72774 0.68479 0.0
H1072 H 0.98815 0.54023 0.68187 0.0
H1073 H 0.21395 0.74868 0.71646 0.0
H1074 H 0.15357 0.65772 0.68338 0.0
H1075 H 0.073 0.62519 0.71468 0.0
C1076 C 1.00318 0.56707 0.70687 0.0
C1077 C 0.97737 0.54204 0.69765 0.0
C1078 C 0.16681 0.67783 0.69063 0.0
C1079 C 0.08102 0.62146 0.6988 0.0
C1080 C 0.21725 0.71796 0.69143 0.0
C1081 C 0.23563 0.7449 0.70075 0.0
C1082 C 0.13482 0.66407 0.6992 0.0
C1083 C 0.20169 0.72978 0.70908 0.0
C1084 C 0.05456 0.60653 0.70747 0.0
C1085 C 0.00594 0.55804 0.68917 0.0
N1086 N 0.15368 0.69077 0.7081 0.0
N1087 N 0.05577 0.59642 0.68995 0.0
H1088 H 0.32413 0.10357 0.40463 0.0
H1089 H 0.54667 0.23742 0.36555 0.0
H1090 H 0.33299 0.25334 0.40941 0.0
H1091 H 0.50469 0.08934 0.36179 0.0
H1092 H 0.47037 0.24714 0.38146 0.0
H1093 H 0.39408 0.10023 0.38886 0.0
C1094 C 0.34116 0.13585 0.40237 0.0
C1095 C 0.32281 0.17873 0.40837 0.0
C1096 C 0.47806 0.21267 0.37708 0.0
C1097 C 0.40361 0.17542 0.39013 0.0
C1098 C 0.52133 0.20716 0.36799 0.0
C1099 C 0.53341 0.16248 0.3623 0.0
C1100 C 0.44688 0.17322 0.38043 0.0
C1101 C 0.49874 0.12455 0.36587 0.0
C1102 C 0.38103 0.13403 0.39331 0.0
C1103 C 0.34604 0.21949 0.40499 0.0
N1104 N 0.45795 0.13083 0.37462 0.0
N1105 N 0.38547 0.21689 0.3961 0.0
H1106 H 0.93026 0.12834 0.36393 0.0
H1107 H 0.9489 0.051 0.417 0.0
H1108 H 0.7407 0.0422 0.3736 0.0
H1109 H 0.13417 0.13441 0.40573 0.0
H1110 H 0.87492 0.04185 0.40101 0.0
H1111 H 0.00755 0.12735 0.37916 0.0
C1112 C 0.90488 0.10916 0.36927 0.0
C1113 C 0.82884 0.08538 0.36747 0.0
C1114 C 0.93249 0.06156 0.40202 0.0
C1115 C 0.91754 0.08382 0.38504 0.0
C1116 C 0.97515 0.06627 0.4111 0.0
C1117 C 0.04799 0.09337 0.4127 0.0
C1118 C 0.96324 0.08403 0.39453 0.0
C1119 C 0.07826 0.11325 0.40485 0.0
C1120 C 0.94918 0.10846 0.37798 0.0
C1121 C 0.79912 0.06106 0.37468 0.0
N1122 N 0.03577 0.10843 0.39621 0.0
N1123 N 0.84336 0.06097 0.38315 0.0
H1124 H 0.64321 0.14168 0.90604 0.0
H1125 H 0.24404 0.04094 0.87387 0.0
H1126 H 0.45941 0.05605 0.9169 0.0
H1127 H 0.42902 0.13133 0.86475 0.0
H1128 H 0.3233 0.04132 0.88917 0.0
H1129 H 0.56978 0.13178 0.89036 0.0
C1130 C 0.58795 0.11996 0.90505 0.0
C1131 C 0.55778 0.0995 0.91281 0.0
C1132 C 0.34666 0.06091 0.88381 0.0
C1133 C 0.47116 0.08879 0.89476 0.0
C1134 C 0.30143 0.06077 0.87507 0.0
C1135 C 0.32997 0.08614 0.86799 0.0
C1136 C 0.42127 0.08648 0.88548 0.0
C1137 C 0.40452 0.1113 0.86997 0.0
C1138 C 0.54553 0.11457 0.89608 0.0
C1139 C 0.48552 0.07193 0.91108 0.0
N1140 N 0.44732 0.11079 0.87849 0.0
N1141 N 0.44409 0.06776 0.90227 0.0
H1142 H 0.77488 0.25151 0.90611 0.0
H1143 H 0.11722 0.1131 0.86954 0.0
H1144 H 0.89448 0.12379 0.90983 0.0
H1145 H 0.98171 0.22899 0.86191 0.0
H1146 H 0.04311 0.1229 0.88504 0.0
H1147 H 0.8537 0.24912 0.89066 0.0
C1148 C 0.81772 0.223 0.90369 0.0
C1149 C 0.82827 0.18782 0.90931 0.0
C1150 C 0.02943 0.1466 0.88008 0.0
C1151 C 0.9188 0.18505 0.89167 0.0
C1152 C 0.07228 0.14115 0.87116 0.0
C1153 C 0.05578 0.17011 0.8643 0.0
C1154 C 0.96864 0.18145 0.88235 0.0
C1155 C 0.99694 0.206 0.86697 0.0
C1156 C 0.86263 0.2217 0.89487 0.0
C1157 C 0.88444 0.15175 0.90579 0.0
N1158 N 0.95493 0.21048 0.87577 0.0
N1159 N 0.92735 0.15139 0.89726 0.0
H1160 H 0.54455 0.92242 0.66757 0.0
H1161 H 0.66361 0.7635 0.61571 0.0
H1162 H 0.44565 0.7835 0.65927 0.0
H1163 H 0.70535 0.91127 0.62367 0.0
H1164 H 0.5958 0.7651 0.63185 0.0
H1165 H 0.61883 0.913 0.6521 0.0
C1166 C 0.53883 0.88952 0.6625 0.0
C1167 C 0.48752 0.85388 0.66473 0.0
C1168 C 0.61986 0.79706 0.63004 0.0
C1169 C 0.57356 0.84291 0.64668 0.0
C1170 C 0.65857 0.79622 0.62085 0.0
C1171 C 0.69006 0.83739 0.61835 0.0
C1172 C 0.61364 0.83929 0.63678 0.0
C1173 C 0.68181 0.87875 0.62525 0.0
C1174 C 0.58142 0.88426 0.65359 0.0
C1175 C 0.4843 0.81189 0.65786 0.0
N1176 N 0.64478 0.87855 0.63411 0.0
N1177 N 0.52624 0.80765 0.64907 0.0
H1178 H 0.90376 0.86065 0.61834 0.0
H1179 H 0.24253 0.99799 0.65549 0.0
H1180 H 0.03695 0.97867 0.61141 0.0
H1181 H 0.1254 0.86894 0.65868 0.0
H1182 H 0.16364 0.99662 0.6401 0.0
H1183 H 0.97701 0.86946 0.63391 0.0
C1184 C 0.94813 0.8889 0.62013 0.0
C1185 C 0.96436 0.91881 0.61346 0.0
C1186 C 0.15531 0.96867 0.64418 0.0
C1187 C 0.05033 0.92891 0.63153 0.0
C1188 C 0.2003 0.96937 0.65296 0.0
C1189 C 0.19055 0.93347 0.65839 0.0
C1190 C 0.09985 0.93191 0.64084 0.0
C1191 C 0.13497 0.89736 0.65476 0.0
C1192 C 0.9904 0.89378 0.62907 0.0
C1193 C 0.02217 0.95494 0.61632 0.0
N1194 N 0.09194 0.89758 0.64626 0.0
N1195 N 0.0637 0.95879 0.62513 0.0
H1196 H 0.57625 0.90603 0.16338 0.0
H1197 H 0.56823 0.96076 0.10823 0.0
H1198 H 0.78873 0.96224 0.15037 0.0
H1199 H 0.36543 0.89885 0.12177 0.0
H1200 H 0.64656 0.96915 0.1239 0.0
H1201 H 0.49579 0.90873 0.14843 0.0
C1202 C 0.60603 0.91898 0.15737 0.0
C1203 C 0.68943 0.93388 0.15815 0.0
C1204 C 0.58429 0.95448 0.12347 0.0
C1205 C 0.59716 0.93735 0.1409 0.0
C1206 C 0.53919 0.95033 0.11458 0.0
C1207 C 0.45986 0.92949 0.11373 0.0
C1208 C 0.54954 0.93776 0.13155 0.0
C1209 C 0.42621 0.91529 0.1221 0.0
C1210 C 0.55995 0.92065 0.14881 0.0
C1211 C 0.72456 0.95041 0.15009 0.0
N1212 N 0.47112 0.91945 0.13059 0.0
N1213 N 0.67841 0.95164 0.14181 0.0
H1214 H 0.85515 0.85951 0.15408 0.0
H1215 H 0.29211 0.81123 0.12564 0.0
H1216 H 0.07269 0.81055 0.16747 0.0
H1217 H 0.06694 0.85295 0.11246 0.0
H1218 H 0.21319 0.80685 0.14072 0.0
H1219 H 0.9299 0.85104 0.13842 0.0
C1220 C 0.91805 0.84551 0.15361 0.0
C1221 C 0.95721 0.83481 0.16202 0.0
C1222 C 0.18094 0.81671 0.13451 0.0
C1223 C 0.04512 0.82684 0.14415 0.0
C1224 C 0.22599 0.81935 0.12591 0.0
C1225 C 0.18606 0.83253 0.11777 0.0
C1226 C 0.09514 0.8273 0.135 0.0
C1227 C 0.10038 0.84275 0.11855 0.0
C1228 C 0.96118 0.84119 0.14469 0.0
C1229 C 0.03958 0.81804 0.16109 0.0
N1230 N 0.05801 0.84 0.12699 0.0
N1231 N 0.08123 0.81508 0.15234 0.0
H1232 H 0.44499 0.72278 0.85983 0.0
H1233 H 0.4192 0.6439 0.91261 0.0
H1234 H 0.63565 0.64566 0.87195 0.0
H1235 H 0.22972 0.72929 0.90262 0.0
H1236 H 0.50018 0.64703 0.89775 0.0
H1237 H 0.36776 0.73079 0.87558 0.0
C1238 C 0.47181 0.70887 0.86589 0.0
C1239 C 0.54713 0.68381 0.86461 0.0
C1240 C 0.44108 0.66534 0.89878 0.0
C1241 C 0.45848 0.69151 0.88247 0.0
C1242 C 0.39465 0.6634 0.90728 0.0
C1243 C 0.31759 0.68637 0.90888 0.0
C1244 C 0.41051 0.69038 0.89174 0.0
C1245 C 0.28893 0.71108 0.90169 0.0
C1246 C 0.42727 0.71284 0.87483 0.0
C1247 C 0.57795 0.66534 0.87262 0.0
N1248 N 0.33523 0.71236 0.89342 0.0
N1249 N 0.53345 0.66925 0.88111 0.0
H1250 H 0.14275 0.62355 0.90491 0.0
H1251 H 0.71947 0.55033 0.875 0.0
H1252 H 0.93987 0.55598 0.91718 0.0
H1253 H 0.9263 0.6201 0.86399 0.0
H1254 H 0.80024 0.54663 0.89 0.0
H1255 H 0.06798 0.61502 0.88931 0.0
C1256 C 0.08312 0.60573 0.90421 0.0
C1257 C 0.04792 0.58996 0.91231 0.0
C1258 C 0.82804 0.56255 0.88429 0.0
C1259 C 0.95985 0.58137 0.89446 0.0
C1260 C 0.78194 0.56477 0.87573 0.0
C1261 C 0.8162 0.58561 0.86823 0.0
C1262 C 0.90914 0.58123 0.88534 0.0
C1263 C 0.89729 0.60379 0.86957 0.0
C1264 C 0.03993 0.60126 0.89531 0.0
C1265 C 0.96986 0.56781 0.91105 0.0
N1266 N 0.94074 0.60121 0.87794 0.0
N1267 N 0.92788 0.56463 0.90231 0.0
H1268 H 0.42903 0.62077 0.3638 0.0
H1269 H 0.44235 0.55447 0.41789 0.0
H1270 H 0.22425 0.55237 0.37557 0.0
H1271 H 0.6408 0.62303 0.40506 0.0
H1272 H 0.36498 0.54645 0.40216 0.0
H1273 H 0.50971 0.61711 0.37867 0.0
C1274 C 0.401 0.60494 0.36953 0.0
C1275 C 0.31971 0.58692 0.36843 0.0
C1276 C 0.42617 0.56247 0.40275 0.0
C1277 C 0.41222 0.58232 0.38558 0.0
C1278 C 0.47075 0.56642 0.41167 0.0
C1279 C 0.54843 0.58904 0.41274 0.0
C1280 C 0.4598 0.58129 0.39488 0.0
C1281 C 0.5813 0.60515 0.40454 0.0
C1282 C 0.44724 0.6027 0.37803 0.0
C1283 C 0.28677 0.56671 0.37611 0.0
N1284 N 0.53684 0.60124 0.39604 0.0
N1285 N 0.33298 0.56504 0.38436 0.0
H1286 H 0.93313 0.65358 0.41375 0.0
H1287 H 0.94095 0.71792 0.35951 0.0
H1288 H 0.72481 0.71867 0.40182 0.0
H1289 H 0.14333 0.65251 0.37241 0.0
H1290 H 0.86436 0.72584 0.37527 0.0
H1291 H 0.01341 0.65801 0.39889 0.0
C1292 C 0.90426 0.66884 0.40799 0.0
C1293 C 0.8221 0.68569 0.40903 0.0
C1294 C 0.92626 0.7106 0.3747 0.0
C1295 C 0.91405 0.69119 0.3919 0.0
C1296 C 0.97038 0.70675 0.36575 0.0
C1297 C 0.04895 0.68502 0.3647 0.0
C1298 C 0.96121 0.69255 0.3826 0.0
C1299 C 0.08316 0.66976 0.37293 0.0
C1300 C 0.95024 0.67153 0.39949 0.0
C1301 C 0.78802 0.70523 0.40132 0.0
N1302 N 0.03907 0.67353 0.38146 0.0
N1303 N 0.83399 0.70734 0.39307 0.0
H1304 H 0.49898 0.43395 0.16496 0.0
H1305 H 0.69188 0.26379 0.11817 0.0
H1306 H 0.47143 0.28499 0.16176 0.0
H1307 H 0.67479 0.41306 0.12182 0.0
H1308 H 0.61951 0.26764 0.13412 0.0
H1309 H 0.57275 0.42356 0.14958 0.0
C1310 C 0.50817 0.39865 0.16103 0.0
C1311 C 0.4773 0.36025 0.16475 0.0
C1312 C 0.63158 0.29943 0.1314 0.0
C1313 C 0.56409 0.34813 0.14666 0.0
C1314 C 0.67287 0.29731 0.12231 0.0
C1315 C 0.68933 0.33823 0.11864 0.0
C1316 C 0.60728 0.34282 0.13687 0.0
C1317 C 0.66334 0.38062 0.12431 0.0
C1318 C 0.55086 0.39284 0.15214 0.0
C1319 C 0.49349 0.31566 0.15921 0.0
N1320 N 0.62408 0.38173 0.13308 0.0
N1321 N 0.53559 0.31078 0.15039 0.0
H1322 H 0.08251 0.38963 0.16283 0.0
H1323 H 0.05369 0.47362 0.11056 0.0
H1324 H 0.26202 0.48373 0.15396 0.0
H1325 H 0.8738 0.38593 0.12148 0.0
H1326 H 0.12784 0.48282 0.12654 0.0
H1327 H 0.00391 0.39082 0.14771 0.0
C1328 C 0.10537 0.41061 0.15769 0.0
C1329 C 0.17896 0.43657 0.15967 0.0
C1330 C 0.07134 0.46218 0.12546 0.0
C1331 C 0.08877 0.43838 0.14224 0.0
C1332 C 0.02856 0.45744 0.11639 0.0
C1333 C 0.95731 0.42911 0.1147 0.0
C1334 C 0.04236 0.43841 0.13282 0.0
C1335 C 0.92847 0.40806 0.12244 0.0
C1336 C 0.06031 0.41144 0.14904 0.0
C1337 C 0.20554 0.46314 0.15271 0.0
N1338 N 0.97116 0.41286 0.13107 0.0
N1339 N 0.16065 0.46331 0.1443 0.0
H1340 H 0.44098 0.49145 0.61781 0.0
H1341 H 0.71483 0.36043 0.65318 0.0
H1342 H 0.54644 0.35387 0.6097 0.0
H1343 H 0.65426 0.50606 0.66151 0.0
H1344 H 0.64883 0.3592 0.63723 0.0
H1345 H 0.51707 0.50063 0.63371 0.0
C1346 C 0.48095 0.46363 0.61928 0.0
C1347 C 0.48648 0.42167 0.61244 0.0
C1348 C 0.64979 0.39162 0.6425 0.0
C1349 C 0.57211 0.43149 0.63055 0.0
C1350 C 0.68729 0.3922 0.65166 0.0
C1351 C 0.68996 0.43333 0.6587 0.0
C1352 C 0.61366 0.43242 0.6403 0.0
C1353 C 0.65361 0.47358 0.65626 0.0
C1354 C 0.52382 0.4687 0.62837 0.0
C1355 C 0.53894 0.38664 0.61477 0.0
N1356 N 0.61654 0.47212 0.64728 0.0
N1357 N 0.57873 0.39222 0.62358 0.0
H1358 H 0.1154 0.40267 0.61739 0.0
H1359 H 0.0443 0.2955 0.66652 0.0
H1360 H 0.25065 0.28194 0.62256 0.0
H1361 H 0.89962 0.4064 0.65811 0.0
H1362 H 0.11985 0.28696 0.6506 0.0
H1363 H 0.03714 0.40327 0.63259 0.0
C1364 C 0.12863 0.37621 0.62173 0.0
C1365 C 0.18969 0.34223 0.61867 0.0
C1366 C 0.07089 0.31279 0.65225 0.0
C1367 C 0.0996 0.34245 0.63623 0.0
C1368 C 0.02733 0.31735 0.66129 0.0
C1369 C 0.96567 0.35183 0.6637 0.0
C1370 C 0.05233 0.34291 0.64563 0.0
C1371 C 0.94704 0.37958 0.65666 0.0
C1372 C 0.0837 0.37643 0.63043 0.0
C1373 C 0.20408 0.30882 0.62465 0.0
N1374 N 0.99022 0.37471 0.64807 0.0
N1375 N 0.15954 0.30978 0.63314 0.0
H1376 H 0.27352 0.24378 0.54176 0.0
H1377 H 0.23751 0.27763 0.4852 0.0
H1378 H 0.3383 0.37055 0.5317 0.0
H1379 H 0.18009 0.14945 0.4951 0.0
H1380 H 0.27335 0.31281 0.50228 0.0
H1381 H 0.23852 0.20838 0.52467 0.0
C1382 C 0.28077 0.2641 0.536 0.0
C1383 C 0.30875 0.31029 0.53825 0.0
C1384 C 0.25277 0.27696 0.50068 0.0
C1385 C 0.26847 0.27016 0.51866 0.0
C1386 C 0.23214 0.25693 0.49093 0.0
C1387 C 0.20571 0.21046 0.48863 0.0
C1388 C 0.24677 0.25039 0.50821 0.0
C1389 C 0.20025 0.18536 0.49642 0.0
C1390 C 0.26057 0.24396 0.52623 0.0
C1391 C 0.31658 0.33493 0.53042 0.0
N1392 N 0.2205 0.20557 0.5058 0.0
N1393 N 0.29651 0.31465 0.52103 0.0
H1394 H 0.92351 0.04366 0.54151 0.0
H1395 H 0.08359 0.97849 0.48529 0.0
H1396 H 0.99252 0.90477 0.52736 0.0
H1397 H 0.01379 0.11728 0.49941 0.0
H1398 H 0.05062 0.95081 0.50059 0.0
H1399 H 0.95634 0.07131 0.5262 0.0
C1400 C 0.94559 0.01897 0.53518 0.0
C1401 C 0.95545 0.97184 0.53574 0.0
C1402 C 0.04247 0.98733 0.50036 0.0
C1403 C 0.99306 1.00323 0.51813 0.0
C1404 C 0.06131 1.00315 0.49161 0.0
C1405 C 0.05129 0.05027 0.49105 0.0
C1406 C 0.01354 0.01884 0.50866 0.0
C1407 C 0.02214 0.08063 0.49949 0.0
C1408 C 0.96435 0.03477 0.52643 0.0
C1409 C 0.98433 0.94145 0.52729 0.0
N1410 N 0.00442 0.06444 0.50792 0.0
N1411 N 1.002 0.95761 0.51886 0.0
H1412 H 0.2804 0.03099 0.7353 0.0
H1413 H 0.22594 0.99284 0.79134 0.0
H1414 H 0.32403 0.90038 0.74484 0.0
H1415 H 0.18251 0.12386 0.78197 0.0
H1416 H 0.2614 0.95808 0.77424 0.0
H1417 H 0.24464 0.0661 0.7524 0.0
C1418 C 0.28272 1.00975 0.74095 0.0
C1419 C 0.3051 0.96262 0.73856 0.0
C1420 C 0.24398 0.99446 0.77595 0.0
C1421 C 0.26409 1.00241 0.75813 0.0
C1422 C 0.22352 0.01424 0.78571 0.0
C1423 C 0.20129 0.06137 0.78815 0.0
C1424 C 0.2421 0.02196 0.76857 0.0
C1425 C 0.19956 0.08742 0.78051 0.0
C1426 C 0.26215 0.02973 0.75071 0.0
C1427 C 0.30685 0.9368 0.74625 0.0
N1428 N 0.2197 0.06743 0.77111 0.0
N1429 N 0.28662 0.95696 0.75562 0.0
H1430 H 0.18012 0.25055 0.78438 0.0
H1431 H 0.83161 0.27317 0.74343 0.0
H1432 H 0.92893 0.19847 0.7853 0.0
H1433 H 0.08282 0.32533 0.7426 0.0
H1434 H 0.86579 0.24548 0.7587 0.0
H1435 H 0.14573 0.27809 0.76911 0.0
C1436 C 0.11764 0.24495 0.78138 0.0
C1437 C 0.05732 0.22219 0.78615 0.0
C1438 C 0.91354 0.26296 0.75519 0.0
C1439 C 0.01729 0.25365 0.76859 0.0
C1440 C 0.89402 0.27877 0.74645 0.0
C1441 C 0.95443 0.3016 0.7417 0.0
C1442 C 0.99419 0.26998 0.75926 0.0
C1443 C 0.03426 0.3079 0.74599 0.0
C1444 C 0.09801 0.26067 0.77264 0.0
C1445 C 0.97741 0.21586 0.78189 0.0
N1446 N 0.05175 0.29223 0.75449 0.0
N1447 N 0.95979 0.23146 0.77338 0.0
H1448 H 0.72855 0.77808 0.48515 0.0
H1449 H 0.77704 0.74331 0.54146 0.0
H1450 H 0.68189 0.64853 0.49499 0.0
H1451 H 0.82261 0.87319 0.53171 0.0
H1452 H 0.74228 0.70768 0.5244 0.0
H1453 H 0.76309 0.81391 0.50222 0.0
C1454 C 0.72534 0.75721 0.49086 0.0
C1455 C 0.70242 0.71017 0.48856 0.0
C1456 C 0.76 0.744 0.52602 0.0
C1457 C 0.74197 0.75081 0.50811 0.0
C1458 C 0.77996 0.7643 0.53577 0.0
C1459 C 0.80284 0.81134 0.53809 0.0
C1460 C 0.76301 0.77091 0.51854 0.0
C1461 C 0.8053 0.83682 0.53035 0.0
C1462 C 0.7452 0.77761 0.50061 0.0
C1463 C 0.69954 0.68485 0.49632 0.0
N1464 N 0.78569 0.81633 0.52098 0.0
N1465 N 0.71906 0.70542 0.50569 0.0
H1466 H 0.86249 0.90288 0.24467 0.0
H1467 H 0.64999 0.11619 0.28085 0.0
H1468 H 0.75995 0.02249 0.2346 0.0
H1469 H 0.75331 0.99639 0.29077 0.0
H1470 H 0.68793 0.08216 0.26398 0.0
H1471 H 0.8235 0.93689 0.26147 0.0
C1472 C 0.83169 0.93644 0.24597 0.0
C1473 C 0.81413 0.95969 0.23811 0.0
C1474 C 0.70228 0.06319 0.26982 0.0
C1475 C 0.76879 0.99899 0.25757 0.0
C1476 C 0.68059 0.08257 0.27951 0.0
C1477 C 0.69879 0.05925 0.28733 0.0
C1478 C 0.7429 0.02002 0.26783 0.0
C1479 C 0.73779 0.01561 0.28502 0.0
C1480 C 0.80941 0.95583 0.25562 0.0
C1481 C 0.77493 1.0033 0.24038 0.0
N1482 N 0.75885 0.99754 0.27548 0.0
N1483 N 0.75327 0.02143 0.2499 0.0
H1484 H 0.9553 0.6664 0.28038 0.0
H1485 H 0.05331 0.85564 0.24639 0.0
H1486 H 0.1273 0.78018 0.28871 0.0
H1487 H 0.88192 0.74163 0.23798 0.0
H1488 H 0.08108 0.82862 0.26187 0.0
H1489 H 0.9273 0.69339 0.2649 0.0
C1490 C 0.9871 0.69716 0.27896 0.0
C1491 C 0.04368 0.72108 0.28588 0.0
C1492 C 0.03745 0.8094 0.25665 0.0
C1493 C 0.01201 0.75227 0.26808 0.0
C1494 C 0.02163 0.82481 0.24779 0.0
C1495 C 0.96531 0.80083 0.24084 0.0
C1496 C 0.99668 0.76961 0.25865 0.0
C1497 C 0.92592 0.76117 0.2431 0.0
C1498 C 0.97112 0.71255 0.2701 0.0
C1499 C 0.08313 0.76067 0.28361 0.0
N1500 N 0.9423 0.74686 0.25178 0.0
N1501 N 0.06661 0.77497 0.27493 0.0
H1502 H 0.25913 0.74283 0.04165 0.0
H1503 H 0.23642 0.77324 0.98483 0.0
H1504 H 0.34232 0.86521 0.03106 0.0
H1505 H 0.1563 0.64951 0.9951 0.0
H1506 H 0.27474 0.8078 1.00183 0.0
H1507 H 0.2216 0.70744 0.02462 0.0
C1508 C 0.26999 0.76213 0.03578 0.0
C1509 C 0.30366 0.80716 0.03785 0.0
C1510 C 0.24866 0.77307 1.00034 0.0
C1511 C 0.26056 0.76709 0.01837 0.0
C1512 C 0.22655 0.75341 0.99063 0.0
C1513 C 0.1933 0.70832 0.98847 0.0
C1514 C 0.23723 0.74755 1.00797 0.0
C1515 C 0.18221 0.68426 0.99634 0.0
C1516 C 0.24828 0.74203 0.02606 0.0
C1517 C 0.31595 0.83058 0.0299 0.0
N1518 N 0.20409 0.7041 1.0057 0.0
N1519 N 0.29436 0.81037 0.02057 0.0
H1520 H 0.9516 0.60607 0.99672 0.0
H1521 H 0.05214 0.41713 0.03069 0.0
H1522 H 0.12205 0.49149 0.98816 0.0
H1523 H 0.87914 0.53065 0.03905 0.0
H1524 H 0.07921 0.44398 0.01518 0.0
H1525 H 0.92462 0.57917 1.01223 0.0
C1526 C 0.98326 0.57515 0.9981 0.0
C1527 C 0.0391 0.55097 0.99111 0.0
C1528 C 0.0354 0.46312 0.02039 0.0
C1529 C 0.00867 0.51992 1.00894 0.0
C1530 C 0.01999 0.44783 0.02927 0.0
C1531 C 0.96341 0.47173 0.03621 0.0
C1532 C 0.99395 0.50272 0.01837 0.0
C1533 C 0.92339 0.5112 0.03394 0.0
C1534 C 0.96788 0.55981 1.00697 0.0
C1535 C 0.07843 0.51119 0.99332 0.0
N1536 N 0.93938 0.52541 0.02524 0.0
N1537 N 0.06254 0.49696 1.00202 0.0
H1538 H 0.22734 0.49588 0.29226 0.0
H1539 H 0.27662 0.53101 0.23599 0.0
H1540 H 0.17801 0.62529 0.28246 0.0
H1541 H 0.32628 0.40163 0.24578 0.0
H1542 H 0.24107 0.56653 0.25304 0.0
H1543 H 0.26393 0.46051 0.27523 0.0
C1544 C 0.22405 0.51683 0.28656 0.0
C1545 C 0.19971 0.56369 0.28886 0.0
C1546 C 0.25988 0.53035 0.25143 0.0
C1547 C 0.24159 0.52351 0.26934 0.0
C1548 C 0.28036 0.51012 0.24169 0.0
C1549 C 0.30439 0.46322 0.23939 0.0
C1550 C 0.26356 0.50353 0.25892 0.0
C1551 C 0.3078 0.43785 0.24713 0.0
C1552 C 0.24506 0.49667 0.27684 0.0
C1553 C 0.19675 0.5891 0.28112 0.0
N1554 N 0.28762 0.45827 0.2565 0.0
N1555 N 0.21739 0.56875 0.27176 0.0
H1556 H 0.65551 0.15492 0.99581 0.0
H1557 H 0.84176 0.37549 0.03224 0.0
H1558 H 0.73908 0.27914 0.98599 0.0
H1559 H 0.76309 0.24993 0.04188 0.0
H1560 H 0.80353 0.34114 0.01542 0.0
H1561 H 0.69183 0.18985 1.01264 0.0
C1562 C 0.68145 0.18969 0.99716 0.0
C1563 C 0.69454 0.21399 0.98937 0.0
C1564 C 0.7945 0.32102 0.02119 0.0
C1565 C 0.73662 0.25436 1.00886 0.0
C1566 C 0.8163 0.3406 0.03086 0.0
C1567 C 0.80541 0.31568 0.03859 0.0
C1568 C 0.76113 0.27602 0.01912 0.0
C1569 C 0.77275 0.27049 0.0362 0.0
C1570 C 0.70222 0.20961 1.00684 0.0
C1571 C 0.72768 0.25909 0.99172 0.0
N1572 N 0.75158 0.25219 0.02669 0.0
N1573 N 0.74784 0.27773 1.00125 0.0
H1574 H 0.7398 0.49981 0.79232 0.0
H1575 H 0.76042 0.52857 0.73539 0.0
H1576 H 0.65684 0.62259 0.78185 0.0
H1577 H 0.85017 0.40786 0.74615 0.0
H1578 H 0.72192 0.56395 0.75237 0.0
H1579 H 0.77902 0.46502 0.77535 0.0
C1580 C 0.72944 0.51937 0.78648 0.0
C1581 C 0.69513 0.56428 0.78858 0.0
C1582 C 0.75029 0.52975 0.75099 0.0
C1583 C 0.74012 0.52478 0.76911 0.0
C1584 C 0.77257 0.50964 0.74129 0.0
C1585 C 0.80846 0.46509 0.73927 0.0
C1586 C 0.76408 0.50517 0.75873 0.0
C1587 C 0.82224 0.44215 0.74727 0.0
C1588 C 0.7521 0.49959 0.77678 0.0
C1589 C 0.68351 0.58799 0.78066 0.0
N1590 N 0.79997 0.46234 0.75658 0.0
N1591 N 0.70591 0.56803 0.77133 0.0
H1592 H 0.41652 0.05021 0.98846 0.0
H1593 H 0.5845 0.97228 0.03798 0.0
H1594 H 0.67714 0.04905 0.99632 0.0
H1595 H 0.32361 0.97359 0.03024 0.0
H1596 H 0.61945 1.00039 0.0228 0.0
H1597 H 0.38108 0.02226 1.00366 0.0
C1598 C 0.46633 0.04406 0.99338 0.0
C1599 C 0.54998 0.05195 0.99109 0.0
C1600 C 0.55451 0.99458 0.0244 0.0
C1601 C 0.50982 0.01989 1.00857 0.0
C1602 C 0.5345 0.97849 0.03308 0.0
C1603 C 0.45095 0.97055 0.0354 0.0
C1604 C 0.49057 1.00284 0.01793 0.0
C1605 C 0.38884 0.9793 0.02877 0.0
C1606 C 0.44605 0.02808 1.00207 0.0
C1607 C 0.61185 0.04334 0.99776 0.0
N1608 N 0.40986 0.9949 0.02036 0.0
N1609 N 0.59058 0.02784 1.00617 0.0
H1610 H 0.42417 0.19556 0.28502 0.0
H1611 H 0.58249 0.32622 0.24196 0.0
H1612 H 0.67365 0.24948 0.28366 0.0
H1613 H 0.33246 0.27314 0.24338 0.0
H1614 H 0.61711 0.29821 0.25716 0.0
H1615 H 0.38944 0.2234 0.26979 0.0
C1616 C 0.47165 0.21332 0.28152 0.0
C1617 C 0.55194 0.22025 0.28564 0.0
C1618 C 0.55466 0.29261 0.25416 0.0
C1619 C 0.51262 0.25228 0.26815 0.0
C1620 C 0.53486 0.30861 0.24547 0.0
C1621 C 0.45444 0.302 0.24138 0.0
C1622 C 0.49366 0.26973 0.25884 0.0
C1623 C 0.39526 0.27896 0.24626 0.0
C1624 C 0.45179 0.22921 0.27281 0.0
C1625 C 0.61095 0.24343 0.28076 0.0
N1626 N 0.41601 0.26369 0.25471 0.0
N1627 N 0.59015 0.25857 0.2723 0.0
H1628 H 0.47311 0.66132 0.77915 0.0
H1629 H 0.51975 0.86735 0.74818 0.0
H1630 H 0.6013 0.78984 0.79031 0.0
H1631 H 0.39257 0.73811 0.7374 0.0
H1632 H 0.55065 0.84017 0.76361 0.0
H1633 H 0.4435 0.68921 0.76384 0.0
C1634 C 0.49488 0.69553 0.77839 0.0
C1635 C 0.53958 0.72332 0.78605 0.0
C1636 C 0.51608 0.81771 0.75787 0.0
C1637 C 0.50592 0.75565 0.76845 0.0
C1638 C 0.49851 0.8332 0.74905 0.0
C1639 C 0.45365 0.80492 0.74147 0.0
C1640 C 0.48866 0.77353 0.75915 0.0
C1641 C 0.42737 0.76108 0.74303 0.0
C1642 C 0.47802 0.71145 0.76962 0.0
C1643 C 0.56654 0.76727 0.78461 0.0
N1644 N 0.44525 0.74679 0.75166 0.0
N1645 N 0.54929 0.78207 0.77599 0.0
H1646 H 0.58922 0.46622 0.53759 0.0
H1647 H 0.41803 0.55421 0.48931 0.0
H1648 H 0.32746 0.4799 0.53129 0.0
H1649 H 0.67996 0.54061 0.49553 0.0
H1650 H 0.38376 0.52697 0.50461 0.0
H1651 H 0.62387 0.4932 0.52226 0.0
C1652 C 0.539 0.4749 0.53298 0.0
C1653 C 0.45528 0.4708 0.53574 0.0
C1654 C 0.44878 0.52989 0.50265 0.0
C1655 C 0.49449 0.50179 0.51813 0.0
C1656 C 0.46838 0.54547 0.4939 0.0
C1657 C 0.55202 0.5497 0.49112 0.0
C1658 C 0.51323 0.5184 0.50871 0.0
C1659 C 0.61462 0.53781 0.49736 0.0
C1660 C 0.55882 0.49033 0.52422 0.0
C1661 C 0.39286 0.48259 0.52947 0.0
N1662 N 0.594 0.52277 0.50584 0.0
N1663 N 0.41368 0.49749 0.52098 0.0
loop_
_geom_bond_atom_site_label_1
_geom_bond_atom_site_label_2
_geom_bond_distance
_geom_bond_site_symmetry_2
_ccdc_geom_bond_type
Co0 H3 2.400 . S
Co0 O4 2.009 . S
Co0 O12 2.115 . S
Co0 O13 2.315 . S
Co0 O24 2.053 . S
Co0 O27 2.094 . S
Co0 O30 2.122 . S
Co1 O4 2.126 . S
Co1 H5 2.388 . S
Co1 O6 2.053 . S
Co1 O9 2.047 . S
Co1 O15 2.113 . S
Co1 O26 2.063 . S
Co2 H3 2.388 . S
Co2 O4 2.053 . S
Co2 O6 2.126 . S
Co2 O11 2.063 . S
Co2 O25 2.047 . S
Co2 O31 2.113 . S
H3 Co0 2.400 . S
H3 Co2 2.388 . S
H3 O4 0.760 . S
O4 Co0 2.009 . S
O4 Co1 2.126 . S
O4 Co2 2.053 . S
O4 H3 0.760 . S
H5 Co1 2.388 . S
H5 O6 0.760 . S
H5 Co7 2.400 . S
O6 Co1 2.053 . S
O6 Co2 2.126 . S
O6 H5 0.760 . S
O6 Co7 2.009 . S
Co7 H5 2.400 . S
Co7 O6 2.009 . S
Co7 O8 2.053 . S
Co7 O10 2.094 . S
Co7 O14 2.122 . S
Co7 O28 2.115 . S
Co7 O29 2.315 . S
O8 Co7 2.053 . S
O8 C20 1.259 . S
O9 Co1 2.047 . S
O9 C20 1.257 . S
O10 Co7 2.094 . S
O10 C21 1.253 . S
O11 Co2 2.063 . S
O11 C21 1.268 . S
O12 Co0 2.115 . S
O12 C22 1.281 . S
O13 Co0 2.315 . S
O13 C22 1.252 . S
O14 Co7 2.122 . S
O14 C23 1.272 . S
O15 Co1 2.113 . S
O15 C23 1.245 . S
C16 O24 1.259 . S
C16 O25 1.257 . S
C17 O26 1.268 . S
C17 O27 1.253 . S
C18 O28 1.281 . S
C18 O29 1.252 . S
C19 O30 1.272 . S
C19 O31 1.245 . S
C20 O8 1.259 . S
C20 O9 1.257 . S
C21 O10 1.253 . S
C21 O11 1.268 . S
C22 O12 1.281 . S
C22 O13 1.252 . S
C23 O14 1.272 . S
C23 O15 1.245 . S
O24 Co0 2.053 . S
O24 C16 1.259 . S
O25 Co2 2.047 . S
O25 C16 1.257 . S
O26 Co1 2.063 . S
O26 C17 1.268 . S
O27 Co0 2.094 . S
O27 C17 1.253 . S
O28 Co7 2.115 . S
O28 C18 1.281 . S
O29 Co7 2.315 . S
O29 C18 1.252 . S
O30 Co0 2.122 . S
O30 C19 1.272 . S
O31 Co2 2.113 . S
O31 C19 1.245 . S
Co32 H35 2.400 . S
Co32 O36 2.009 . S
Co32 O44 2.115 . S
Co32 O45 2.315 . S
Co32 O56 2.053 . S
Co32 O59 2.094 . S
Co32 O62 2.122 . S
Co33 O36 2.126 . S
Co33 H37 2.388 . S
Co33 O38 2.053 . S
Co33 O41 2.047 . S
Co33 O47 2.113 . S
Co33 O58 2.063 . S
Co34 H35 2.388 . S
Co34 O36 2.053 . S
Co34 O38 2.126 . S
Co34 O43 2.063 . S
Co34 O57 2.047 . S
Co34 O63 2.113 . S
H35 Co32 2.400 . S
H35 Co34 2.388 . S
H35 O36 0.760 . S
O36 Co32 2.009 . S
O36 Co33 2.126 . S
O36 Co34 2.053 . S
O36 H35 0.760 . S
H37 Co33 2.388 . S
H37 O38 0.760 . S
H37 Co39 2.400 . S
O38 Co33 2.053 . S
O38 Co34 2.126 . S
O38 H37 0.760 . S
O38 Co39 2.009 . S
Co39 H37 2.400 . S
Co39 O38 2.009 . S
Co39 O40 2.053 . S
Co39 O42 2.094 . S
Co39 O46 2.122 . S
Co39 O60 2.115 . S
Co39 O61 2.315 . S
O40 Co39 2.053 . S
O40 C52 1.259 . S
O41 Co33 2.047 . S
O41 C52 1.257 . S
O42 Co39 2.094 . S
O42 C53 1.253 . S
O43 Co34 2.063 . S
O43 C53 1.268 . S
O44 Co32 2.115 . S
O44 C54 1.281 . S
O45 Co32 2.315 . S
O45 C54 1.252 . S
O46 Co39 2.122 . S
O46 C55 1.272 . S
O47 Co33 2.113 . S
O47 C55 1.245 . S
C48 O56 1.259 . S
C48 O57 1.257 . S
C49 O58 1.268 . S
C49 O59 1.253 . S
C50 O60 1.281 . S
C50 O61 1.252 . S
C51 O62 1.272 . S
C51 O63 1.245 . S
C52 O40 1.259 . S
C52 O41 1.257 . S
C53 O42 1.253 . S
C53 O43 1.268 . S
C54 O44 1.281 . S
C54 O45 1.252 . S
C55 O46 1.272 . S
C55 O47 1.245 . S
O56 Co32 2.053 . S
O56 C48 1.259 . S
O57 Co34 2.047 . S
O57 C48 1.257 . S
O58 Co33 2.063 . S
O58 C49 1.268 . S
O59 Co32 2.094 . S
O59 C49 1.253 . S
O60 Co39 2.115 . S
O60 C50 1.281 . S
O61 Co39 2.315 . S
O61 C50 1.252 . S
O62 Co32 2.122 . S
O62 C51 1.272 . S
O63 Co34 2.113 . S
O63 C51 1.245 . S
Co64 H67 2.400 . S
Co64 O68 2.009 . S
Co64 O76 2.115 . S
Co64 O77 2.315 . S
Co64 O88 2.053 . S
Co64 O91 2.094 . S
Co64 O94 2.122 . S
Co65 O68 2.126 . S
Co65 H69 2.388 . S
Co65 O70 2.053 . S
Co65 O73 2.047 . S
Co65 O79 2.113 . S
Co65 O90 2.063 . S
Co66 H67 2.388 . S
Co66 O68 2.053 . S
Co66 O70 2.126 . S
Co66 O75 2.063 . S
Co66 O89 2.047 . S
Co66 O95 2.113 . S
H67 Co64 2.400 . S
H67 Co66 2.388 . S
H67 O68 0.760 . S
O68 Co64 2.009 . S
O68 Co65 2.126 . S
O68 Co66 2.053 . S
O68 H67 0.760 . S
H69 Co65 2.388 . S
H69 O70 0.760 . S
H69 Co71 2.400 . S
O70 Co65 2.053 . S
O70 Co66 2.126 . S
O70 H69 0.760 . S
O70 Co71 2.009 . S
Co71 H69 2.400 . S
Co71 O70 2.009 . S
Co71 O72 2.053 . S
Co71 O74 2.094 . S
Co71 O78 2.122 . S
Co71 O92 2.115 . S
Co71 O93 2.315 . S
O72 Co71 2.053 . S
O72 C84 1.259 . S
O73 Co65 2.047 . S
O73 C84 1.257 . S
O74 Co71 2.094 . S
O74 C85 1.253 . S
O75 Co66 2.063 . S
O75 C85 1.268 . S
O76 Co64 2.115 . S
O76 C86 1.281 . S
O77 Co64 2.315 . S
O77 C86 1.252 . S
O78 Co71 2.122 . S
O78 C87 1.272 . S
O79 Co65 2.113 . S
O79 C87 1.245 . S
C80 O88 1.259 . S
C80 O89 1.257 . S
C81 O90 1.268 . S
C81 O91 1.253 . S
C82 O92 1.281 . S
C82 O93 1.252 . S
C83 O94 1.272 . S
C83 O95 1.245 . S
C84 O72 1.259 . S
C84 O73 1.257 . S
C85 O74 1.253 . S
C85 O75 1.268 . S
C86 O76 1.281 . S
C86 O77 1.252 . S
C87 O78 1.272 . S
C87 O79 1.245 . S
O88 Co64 2.053 . S
O88 C80 1.259 . S
O89 Co66 2.047 . S
O89 C80 1.257 . S
O90 Co65 2.063 . S
O90 C81 1.268 . S
O91 Co64 2.094 . S
O91 C81 1.253 . S
O92 Co71 2.115 . S
O92 C82 1.281 . S
O93 Co71 2.315 . S
O93 C82 1.252 . S
O94 Co64 2.122 . S
O94 C83 1.272 . S
O95 Co66 2.113 . S
O95 C83 1.245 . S
Co96 H99 2.400 . S
Co96 O100 2.009 . S
Co96 O108 2.115 . S
Co96 O109 2.315 . S
Co96 O120 2.053 . S
Co96 O123 2.094 . S
Co96 O126 2.122 . S
Co97 O100 2.126 . S
Co97 H101 2.388 . S
Co97 O102 2.053 . S
Co97 O105 2.047 . S
Co97 O111 2.113 . S
Co97 O122 2.063 . S
Co98 H99 2.388 . S
Co98 O100 2.053 . S
Co98 O102 2.126 . S
Co98 O107 2.063 . S
Co98 O121 2.047 . S
Co98 O127 2.113 . S
H99 Co96 2.400 . S
H99 Co98 2.388 . S
H99 O100 0.760 . S
O100 Co96 2.009 . S
O100 Co97 2.126 . S
O100 Co98 2.053 . S
O100 H99 0.760 . S
H101 Co97 2.388 . S
H101 O102 0.760 . S
H101 Co103 2.400 . S
O102 Co97 2.053 . S
O102 Co98 2.126 . S
O102 H101 0.760 . S
O102 Co103 2.009 . S
Co103 H101 2.400 . S
Co103 O102 2.009 . S
Co103 O104 2.053 . S
Co103 O106 2.094 . S
Co103 O110 2.122 . S
Co103 O124 2.115 . S
Co103 O125 2.315 . S
O104 Co103 2.053 . S
O104 C116 1.259 . S
O105 Co97 2.047 . S
O105 C116 1.257 . S
O106 Co103 2.094 . S
O106 C117 1.253 . S
O107 Co98 2.063 . S
O107 C117 1.268 . S
O108 Co96 2.115 . S
O108 C118 1.281 . S
O109 Co96 2.315 . S
O109 C118 1.252 . S
O110 Co103 2.122 . S
O110 C119 1.272 . S
O111 Co97 2.113 . S
O111 C119 1.245 . S
C112 O120 1.259 . S
C112 O121 1.257 . S
C113 O122 1.268 . S
C113 O123 1.253 . S
C114 O124 1.281 . S
C114 O125 1.252 . S
C115 O126 1.272 . S
C115 O127 1.245 . S
C116 O104 1.259 . S
C116 O105 1.257 . S
C117 O106 1.253 . S
C117 O107 1.268 . S
C118 O108 1.281 . S
C118 O109 1.252 . S
C119 O110 1.272 . S
C119 O111 1.245 . S
O120 Co96 2.053 . S
O120 C112 1.259 . S
O121 Co98 2.047 . S
O121 C112 1.257 . S
O122 Co97 2.063 . S
O122 C113 1.268 . S
O123 Co96 2.094 . S
O123 C113 1.253 . S
O124 Co103 2.115 . S
O124 C114 1.281 . S
O125 Co103 2.315 . S
O125 C114 1.252 . S
O126 Co96 2.122 . S
O126 C115 1.272 . S
O127 Co98 2.113 . S
O127 C115 1.245 . S
Co128 H131 2.400 . S
Co128 O132 2.009 . S
Co128 O140 2.115 . S
Co128 O141 2.315 . S
Co128 O152 2.053 . S
Co128 O155 2.094 . S
Co128 O158 2.122 . S
Co129 O132 2.126 . S
Co129 H133 2.388 . S
Co129 O134 2.053 . S
Co129 O137 2.047 . S
Co129 O143 2.113 . S
Co129 O154 2.063 . S
Co130 H131 2.388 . S
Co130 O132 2.053 . S
Co130 O134 2.126 . S
Co130 O139 2.063 . S
Co130 O153 2.047 . S
Co130 O159 2.113 . S
H131 Co128 2.400 . S
H131 Co130 2.388 . S
H131 O132 0.760 . S
O132 Co128 2.009 . S
O132 Co129 2.126 . S
O132 Co130 2.053 . S
O132 H131 0.760 . S
H133 Co129 2.388 . S
H133 O134 0.760 . S
H133 Co135 2.400 . S
O134 Co129 2.053 . S
O134 Co130 2.126 . S
O134 H133 0.760 . S
O134 Co135 2.009 . S
Co135 H133 2.400 . S
Co135 O134 2.009 . S
Co135 O136 2.053 . S
Co135 O138 2.094 . S
Co135 O142 2.122 . S
Co135 O156 2.115 . S
Co135 O157 2.315 . S
O136 Co135 2.053 . S
O136 C148 1.259 . S
O137 Co129 2.047 . S
O137 C148 1.257 . S
O138 Co135 2.094 . S
O138 C149 1.253 . S
O139 Co130 2.063 . S
O139 C149 1.268 . S
O140 Co128 2.115 . S
O140 C150 1.281 . S
O141 Co128 2.315 . S
O141 C150 1.252 . S
O142 Co135 2.122 . S
O142 C151 1.272 . S
O143 Co129 2.113 . S
O143 C151 1.245 . S
C144 O152 1.259 . S
C144 O153 1.257 . S
C145 O154 1.268 . S
C145 O155 1.253 . S
C146 O156 1.281 . S
C146 O157 1.252 . S
C147 O158 1.272 . S
C147 O159 1.245 . S
C148 O136 1.259 . S
C148 O137 1.257 . S
C149 O138 1.253 . S
C149 O139 1.268 . S
C150 O140 1.281 . S
C150 O141 1.252 . S
C151 O142 1.272 . S
C151 O143 1.245 . S
O152 Co128 2.053 . S
O152 C144 1.259 . S
O153 Co130 2.047 . S
O153 C144 1.257 . S
O154 Co129 2.063 . S
O154 C145 1.268 . S
O155 Co128 2.094 . S
O155 C145 1.253 . S
O156 Co135 2.115 . S
O156 C146 1.281 . S
O157 Co135 2.315 . S
O157 C146 1.252 . S
O158 Co128 2.122 . S
O158 C147 1.272 . S
O159 Co130 2.113 . S
O159 C147 1.245 . S
Co160 H163 2.400 . S
Co160 O164 2.009 . S
Co160 O172 2.115 . S
Co160 O173 2.315 . S
Co160 O184 2.053 . S
Co160 O187 2.094 . S
Co160 O190 2.122 . S
Co161 O164 2.126 . S
Co161 H165 2.388 . S
Co161 O166 2.053 . S
Co161 O169 2.047 . S
Co161 O175 2.113 . S
Co161 O186 2.063 . S
Co162 H163 2.388 . S
Co162 O164 2.053 . S
Co162 O166 2.126 . S
Co162 O171 2.063 . S
Co162 O185 2.047 . S
Co162 O191 2.113 . S
H163 Co160 2.400 . S
H163 Co162 2.388 . S
H163 O164 0.760 . S
O164 Co160 2.009 . S
O164 Co161 2.126 . S
O164 Co162 2.053 . S
O164 H163 0.760 . S
H165 Co161 2.388 . S
H165 O166 0.760 . S
H165 Co167 2.400 . S
O166 Co161 2.053 . S
O166 Co162 2.126 . S
O166 H165 0.760 . S
O166 Co167 2.009 . S
Co167 H165 2.400 . S
Co167 O166 2.009 . S
Co167 O168 2.053 . S
Co167 O170 2.094 . S
Co167 O174 2.122 . S
Co167 O188 2.115 . S
Co167 O189 2.315 . S
O168 Co167 2.053 . S
O168 C180 1.259 . S
O169 Co161 2.047 . S
O169 C180 1.257 . S
O170 Co167 2.094 . S
O170 C181 1.253 . S
O171 Co162 2.063 . S
O171 C181 1.268 . S
O172 Co160 2.115 . S
O172 C182 1.281 . S
O173 Co160 2.315 . S
O173 C182 1.252 . S
O174 Co167 2.122 . S
O174 C183 1.272 . S
O175 Co161 2.113 . S
O175 C183 1.245 . S
C176 O184 1.259 . S
C176 O185 1.257 . S
C177 O186 1.268 . S
C177 O187 1.253 . S
C178 O188 1.281 . S
C178 O189 1.252 . S
C179 O190 1.272 . S
C179 O191 1.245 . S
C180 O168 1.259 . S
C180 O169 1.257 . S
C181 O170 1.253 . S
C181 O171 1.268 . S
C182 O172 1.281 . S
C182 O173 1.252 . S
C183 O174 1.272 . S
C183 O175 1.245 . S
O184 Co160 2.053 . S
O184 C176 1.259 . S
O185 Co162 2.047 . S
O185 C176 1.257 . S
O186 Co161 2.063 . S
O186 C177 1.268 . S
O187 Co160 2.094 . S
O187 C177 1.253 . S
O188 Co167 2.115 . S
O188 C178 1.281 . S
O189 Co167 2.315 . S
O189 C178 1.252 . S
O190 Co160 2.122 . S
O190 C179 1.272 . S
O191 Co162 2.113 . S
O191 C179 1.245 . S
Co192 H195 2.400 . S
Co192 O196 2.009 . S
Co192 O204 2.115 . S
Co192 O205 2.315 . S
Co192 O216 2.053 . S
Co192 O219 2.094 . S
Co192 O222 2.122 . S
Co193 O196 2.126 . S
Co193 H197 2.388 . S
Co193 O198 2.053 . S
Co193 O201 2.047 . S
Co193 O207 2.113 . S
Co193 O218 2.063 . S
Co194 H195 2.388 . S
Co194 O196 2.053 . S
Co194 O198 2.126 . S
Co194 O203 2.063 . S
Co194 O217 2.047 . S
Co194 O223 2.113 . S
H195 Co192 2.400 . S
H195 Co194 2.388 . S
H195 O196 0.760 . S
O196 Co192 2.009 . S
O196 Co193 2.126 . S
O196 Co194 2.053 . S
O196 H195 0.760 . S
H197 Co193 2.388 . S
H197 O198 0.760 . S
H197 Co199 2.400 . S
O198 Co193 2.053 . S
O198 Co194 2.126 . S
O198 H197 0.760 . S
O198 Co199 2.009 . S
Co199 H197 2.400 . S
Co199 O198 2.009 . S
Co199 O200 2.053 . S
Co199 O202 2.094 . S
Co199 O206 2.122 . S
Co199 O220 2.115 . S
Co199 O221 2.315 . S
O200 Co199 2.053 . S
O200 C212 1.259 . S
O201 Co193 2.047 . S
O201 C212 1.257 . S
O202 Co199 2.094 . S
O202 C213 1.253 . S
O203 Co194 2.063 . S
O203 C213 1.268 . S
O204 Co192 2.115 . S
O204 C214 1.281 . S
O205 Co192 2.315 . S
O205 C214 1.252 . S
O206 Co199 2.122 . S
O206 C215 1.272 . S
O207 Co193 2.113 . S
O207 C215 1.245 . S
C208 O216 1.259 . S
C208 O217 1.257 . S
C209 O218 1.268 . S
C209 O219 1.253 . S
C210 O220 1.281 . S
C210 O221 1.252 . S
C211 O222 1.272 . S
C211 O223 1.245 . S
C212 O200 1.259 . S
C212 O201 1.257 . S
C213 O202 1.253 . S
C213 O203 1.268 . S
C214 O204 1.281 . S
C214 O205 1.252 . S
C215 O206 1.272 . S
C215 O207 1.245 . S
O216 Co192 2.053 . S
O216 C208 1.259 . S
O217 Co194 2.047 . S
O217 C208 1.257 . S
O218 Co193 2.063 . S
O218 C209 1.268 . S
O219 Co192 2.094 . S
O219 C209 1.253 . S
O220 Co199 2.115 . S
O220 C210 1.281 . S
O221 Co199 2.315 . S
O221 C210 1.252 . S
O222 Co192 2.122 . S
O222 C211 1.272 . S
O223 Co194 2.113 . S
O223 C211 1.245 . S
Co224 H227 2.400 . S
Co224 O228 2.009 . S
Co224 O236 2.115 . S
Co224 O237 2.315 . S
Co224 O248 2.053 . S
Co224 O251 2.094 . S
Co224 O254 2.122 . S
Co225 O228 2.126 . S
Co225 H229 2.388 . S
Co225 O230 2.053 . S
Co225 O233 2.047 . S
Co225 O239 2.113 . S
Co225 O250 2.063 . S
Co226 H227 2.388 . S
Co226 O228 2.053 . S
Co226 O230 2.126 . S
Co226 O235 2.063 . S
Co226 O249 2.047 . S
Co226 O255 2.113 . S
H227 Co224 2.400 . S
H227 Co226 2.388 . S
H227 O228 0.760 . S
O228 Co224 2.009 . S
O228 Co225 2.126 . S
O228 Co226 2.053 . S
O228 H227 0.760 . S
H229 Co225 2.388 . S
H229 O230 0.760 . S
H229 Co231 2.400 . S
O230 Co225 2.053 . S
O230 Co226 2.126 . S
O230 H229 0.760 . S
O230 Co231 2.009 . S
Co231 H229 2.400 . S
Co231 O230 2.009 . S
Co231 O232 2.053 . S
Co231 O234 2.094 . S
Co231 O238 2.122 . S
Co231 O252 2.115 . S
Co231 O253 2.315 . S
O232 Co231 2.053 . S
O232 C244 1.259 . S
O233 Co225 2.047 . S
O233 C244 1.257 . S
O234 Co231 2.094 . S
O234 C245 1.253 . S
O235 Co226 2.063 . S
O235 C245 1.268 . S
O236 Co224 2.115 . S
O236 C246 1.281 . S
O237 Co224 2.315 . S
O237 C246 1.252 . S
O238 Co231 2.122 . S
O238 C247 1.272 . S
O239 Co225 2.113 . S
O239 C247 1.245 . S
C240 O248 1.259 . S
C240 O249 1.257 . S
C241 O250 1.268 . S
C241 O251 1.253 . S
C242 O252 1.281 . S
C242 O253 1.252 . S
C243 O254 1.272 . S
C243 O255 1.245 . S
C244 O232 1.259 . S
C244 O233 1.257 . S
C245 O234 1.253 . S
C245 O235 1.268 . S
C246 O236 1.281 . S
C246 O237 1.252 . S
C247 O238 1.272 . S
C247 O239 1.245 . S
O248 Co224 2.053 . S
O248 C240 1.259 . S
O249 Co226 2.047 . S
O249 C240 1.257 . S
O250 Co225 2.063 . S
O250 C241 1.268 . S
O251 Co224 2.094 . S
O251 C241 1.253 . S
O252 Co231 2.115 . S
O252 C242 1.281 . S
O253 Co231 2.315 . S
O253 C242 1.252 . S
O254 Co224 2.122 . S
O254 C243 1.272 . S
O255 Co226 2.113 . S
O255 C243 1.245 . S
Co256 H259 2.400 . S
Co256 O260 2.009 . S
Co256 O268 2.115 . S
Co256 O269 2.315 . S
Co256 O280 2.053 . S
Co256 O283 2.094 . S
Co256 O286 2.122 . S
Co257 O260 2.126 . S
Co257 H261 2.388 . S
Co257 O262 2.053 . S
Co257 O265 2.047 . S
Co257 O271 2.113 . S
Co257 O282 2.063 . S
Co258 H259 2.388 . S
Co258 O260 2.053 . S
Co258 O262 2.126 . S
Co258 O267 2.063 . S
Co258 O281 2.047 . S
Co258 O287 2.113 . S
H259 Co256 2.400 . S
H259 Co258 2.388 . S
H259 O260 0.760 . S
O260 Co256 2.009 . S
O260 Co257 2.126 . S
O260 Co258 2.053 . S
O260 H259 0.760 . S
H261 Co257 2.388 . S
H261 O262 0.760 . S
H261 Co263 2.400 . S
O262 Co257 2.053 . S
O262 Co258 2.126 . S
O262 H261 0.760 . S
O262 Co263 2.009 . S
Co263 H261 2.400 . S
Co263 O262 2.009 . S
Co263 O264 2.053 . S
Co263 O266 2.094 . S
Co263 O270 2.122 . S
Co263 O284 2.115 . S
Co263 O285 2.315 . S
O264 Co263 2.053 . S
O264 C276 1.259 . S
O265 Co257 2.047 . S
O265 C276 1.257 . S
O266 Co263 2.094 . S
O266 C277 1.253 . S
O267 Co258 2.063 . S
O267 C277 1.268 . S
O268 Co256 2.115 . S
O268 C278 1.281 . S
O269 Co256 2.315 . S
O269 C278 1.252 . S
O270 Co263 2.122 . S
O270 C279 1.272 . S
O271 Co257 2.113 . S
O271 C279 1.245 . S
C272 O280 1.259 . S
C272 O281 1.257 . S
C273 O282 1.268 . S
C273 O283 1.253 . S
C274 O284 1.281 . S
C274 O285 1.252 . S
C275 O286 1.272 . S
C275 O287 1.245 . S
C276 O264 1.259 . S
C276 O265 1.257 . S
C277 O266 1.253 . S
C277 O267 1.268 . S
C278 O268 1.281 . S
C278 O269 1.252 . S
C279 O270 1.272 . S
C279 O271 1.245 . S
O280 Co256 2.053 . S
O280 C272 1.259 . S
O281 Co258 2.047 . S
O281 C272 1.257 . S
O282 Co257 2.063 . S
O282 C273 1.268 . S
O283 Co256 2.094 . S
O283 C273 1.253 . S
O284 Co263 2.115 . S
O284 C274 1.281 . S
O285 Co263 2.315 . S
O285 C274 1.252 . S
O286 Co256 2.122 . S
O286 C275 1.272 . S
O287 Co258 2.113 . S
O287 C275 1.245 . S
Co288 H291 2.400 . S
Co288 O292 2.009 . S
Co288 O300 2.115 . S
Co288 O301 2.315 . S
Co288 O312 2.053 . S
Co288 O315 2.094 . S
Co288 O318 2.122 . S
Co289 O292 2.126 . S
Co289 H293 2.388 . S
Co289 O294 2.053 . S
Co289 O297 2.047 . S
Co289 O303 2.113 . S
Co289 O314 2.063 . S
Co290 H291 2.388 . S
Co290 O292 2.053 . S
Co290 O294 2.126 . S
Co290 O299 2.063 . S
Co290 O313 2.047 . S
Co290 O319 2.113 . S
H291 Co288 2.400 . S
H291 Co290 2.388 . S
H291 O292 0.760 . S
O292 Co288 2.009 . S
O292 Co289 2.126 . S
O292 Co290 2.053 . S
O292 H291 0.760 . S
H293 Co289 2.388 . S
H293 O294 0.760 . S
H293 Co295 2.400 . S
O294 Co289 2.053 . S
O294 Co290 2.126 . S
O294 H293 0.760 . S
O294 Co295 2.009 . S
Co295 H293 2.400 . S
Co295 O294 2.009 . S
Co295 O296 2.053 . S
Co295 O298 2.094 . S
Co295 O302 2.122 . S
Co295 O316 2.115 . S
Co295 O317 2.315 . S
O296 Co295 2.053 . S
O296 C308 1.259 . S
O297 Co289 2.047 . S
O297 C308 1.257 . S
O298 Co295 2.094 . S
O298 C309 1.253 . S
O299 Co290 2.063 . S
O299 C309 1.268 . S
O300 Co288 2.115 . S
O300 C310 1.281 . S
O301 Co288 2.315 . S
O301 C310 1.252 . S
O302 Co295 2.122 . S
O302 C311 1.272 . S
O303 Co289 2.113 . S
O303 C311 1.245 . S
C304 O312 1.259 . S
C304 O313 1.257 . S
C305 O314 1.268 . S
C305 O315 1.253 . S
C306 O316 1.281 . S
C306 O317 1.252 . S
C307 O318 1.272 . S
C307 O319 1.245 . S
C308 O296 1.259 . S
C308 O297 1.257 . S
C309 O298 1.253 . S
C309 O299 1.268 . S
C310 O300 1.281 . S
C310 O301 1.252 . S
C311 O302 1.272 . S
C311 O303 1.245 . S
O312 Co288 2.053 . S
O312 C304 1.259 . S
O313 Co290 2.047 . S
O313 C304 1.257 . S
O314 Co289 2.063 . S
O314 C305 1.268 . S
O315 Co288 2.094 . S
O315 C305 1.253 . S
O316 Co295 2.115 . S
O316 C306 1.281 . S
O317 Co295 2.315 . S
O317 C306 1.252 . S
O318 Co288 2.122 . S
O318 C307 1.272 . S
O319 Co290 2.113 . S
O319 C307 1.245 . S
Co320 H323 2.400 . S
Co320 O324 2.009 . S
Co320 O332 2.115 . S
Co320 O333 2.315 . S
Co320 O344 2.053 . S
Co320 O347 2.094 . S
Co320 O350 2.122 . S
Co321 O324 2.126 . S
Co321 H325 2.388 . S
Co321 O326 2.053 . S
Co321 O329 2.047 . S
Co321 O335 2.113 . S
Co321 O346 2.063 . S
Co322 H323 2.388 . S
Co322 O324 2.053 . S
Co322 O326 2.126 . S
Co322 O331 2.063 . S
Co322 O345 2.047 . S
Co322 O351 2.113 . S
H323 Co320 2.400 . S
H323 Co322 2.388 . S
H323 O324 0.760 . S
O324 Co320 2.009 . S
O324 Co321 2.126 . S
O324 Co322 2.053 . S
O324 H323 0.760 . S
H325 Co321 2.388 . S
H325 O326 0.760 . S
H325 Co327 2.400 . S
O326 Co321 2.053 . S
O326 Co322 2.126 . S
O326 H325 0.760 . S
O326 Co327 2.009 . S
Co327 H325 2.400 . S
Co327 O326 2.009 . S
Co327 O328 2.053 . S
Co327 O330 2.094 . S
Co327 O334 2.122 . S
Co327 O348 2.115 . S
Co327 O349 2.315 . S
O328 Co327 2.053 . S
O328 C340 1.259 . S
O329 Co321 2.047 . S
O329 C340 1.257 . S
O330 Co327 2.094 . S
O330 C341 1.253 . S
O331 Co322 2.063 . S
O331 C341 1.268 . S
O332 Co320 2.115 . S
O332 C342 1.281 . S
O333 Co320 2.315 . S
O333 C342 1.252 . S
O334 Co327 2.122 . S
O334 C343 1.272 . S
O335 Co321 2.113 . S
O335 C343 1.245 . S
C336 O344 1.259 . S
C336 O345 1.257 . S
C337 O346 1.268 . S
C337 O347 1.253 . S
C338 O348 1.281 . S
C338 O349 1.252 . S
C339 O350 1.272 . S
C339 O351 1.245 . S
C340 O328 1.259 . S
C340 O329 1.257 . S
C341 O330 1.253 . S
C341 O331 1.268 . S
C342 O332 1.281 . S
C342 O333 1.252 . S
C343 O334 1.272 . S
C343 O335 1.245 . S
O344 Co320 2.053 . S
O344 C336 1.259 . S
O345 Co322 2.047 . S
O345 C336 1.257 . S
O346 Co321 2.063 . S
O346 C337 1.268 . S
O347 Co320 2.094 . S
O347 C337 1.253 . S
O348 Co327 2.115 . S
O348 C338 1.281 . S
O349 Co327 2.315 . S
O349 C338 1.252 . S
O350 Co320 2.122 . S
O350 C339 1.272 . S
O351 Co322 2.113 . S
O351 C339 1.245 . S
Co352 H355 2.400 . S
Co352 O356 2.009 . S
Co352 O364 2.115 . S
Co352 O365 2.315 . S
Co352 O376 2.053 . S
Co352 O379 2.094 . S
Co352 O382 2.122 . S
Co353 O356 2.126 . S
Co353 H357 2.388 . S
Co353 O358 2.053 . S
Co353 O361 2.047 . S
Co353 O367 2.113 . S
Co353 O378 2.063 . S
Co354 H355 2.388 . S
Co354 O356 2.053 . S
Co354 O358 2.126 . S
Co354 O363 2.063 . S
Co354 O377 2.047 . S
Co354 O383 2.113 . S
H355 Co352 2.400 . S
H355 Co354 2.388 . S
H355 O356 0.760 . S
O356 Co352 2.009 . S
O356 Co353 2.126 . S
O356 Co354 2.053 . S
O356 H355 0.760 . S
H357 Co353 2.388 . S
H357 O358 0.760 . S
H357 Co359 2.400 . S
O358 Co353 2.053 . S
O358 Co354 2.126 . S
O358 H357 0.760 . S
O358 Co359 2.009 . S
Co359 H357 2.400 . S
Co359 O358 2.009 . S
Co359 O360 2.053 . S
Co359 O362 2.094 . S
Co359 O366 2.122 . S
Co359 O380 2.115 . S
Co359 O381 2.315 . S
O360 Co359 2.053 . S
O360 C372 1.259 . S
O361 Co353 2.047 . S
O361 C372 1.257 . S
O362 Co359 2.094 . S
O362 C373 1.253 . S
O363 Co354 2.063 . S
O363 C373 1.268 . S
O364 Co352 2.115 . S
O364 C374 1.281 . S
O365 Co352 2.315 . S
O365 C374 1.252 . S
O366 Co359 2.122 . S
O366 C375 1.272 . S
O367 Co353 2.113 . S
O367 C375 1.245 . S
C368 O376 1.259 . S
C368 O377 1.257 . S
C369 O378 1.268 . S
C369 O379 1.253 . S
C370 O380 1.281 . S
C370 O381 1.252 . S
C371 O382 1.272 . S
C371 O383 1.245 . S
C372 O360 1.259 . S
C372 O361 1.257 . S
C373 O362 1.253 . S
C373 O363 1.268 . S
C374 O364 1.281 . S
C374 O365 1.252 . S
C375 O366 1.272 . S
C375 O367 1.245 . S
O376 Co352 2.053 . S
O376 C368 1.259 . S
O377 Co354 2.047 . S
O377 C368 1.257 . S
O378 Co353 2.063 . S
O378 C369 1.268 . S
O379 Co352 2.094 . S
O379 C369 1.253 . S
O380 Co359 2.115 . S
O380 C370 1.281 . S
O381 Co359 2.315 . S
O381 C370 1.252 . S
O382 Co352 2.122 . S
O382 C371 1.272 . S
O383 Co354 2.113 . S
O383 C371 1.245 . S
Co384 H387 2.400 . S
Co384 O388 2.009 . S
Co384 O396 2.115 . S
Co384 O397 2.315 . S
Co384 O408 2.053 . S
Co384 O411 2.094 . S
Co384 O414 2.122 . S
Co385 O388 2.126 . S
Co385 H389 2.388 . S
Co385 O390 2.053 . S
Co385 O393 2.047 . S
Co385 O399 2.113 . S
Co385 O410 2.063 . S
Co386 H387 2.388 . S
Co386 O388 2.053 . S
Co386 O390 2.126 . S
Co386 O395 2.063 . S
Co386 O409 2.047 . S
Co386 O415 2.113 . S
H387 Co384 2.400 . S
H387 Co386 2.388 . S
H387 O388 0.760 . S
O388 Co384 2.009 . S
O388 Co385 2.126 . S
O388 Co386 2.053 . S
O388 H387 0.760 . S
H389 Co385 2.388 . S
H389 O390 0.760 . S
H389 Co391 2.400 . S
O390 Co385 2.053 . S
O390 Co386 2.126 . S
O390 H389 0.760 . S
O390 Co391 2.009 . S
Co391 H389 2.400 . S
Co391 O390 2.009 . S
Co391 O392 2.053 . S
Co391 O394 2.094 . S
Co391 O398 2.122 . S
Co391 O412 2.115 . S
Co391 O413 2.315 . S
O392 Co391 2.053 . S
O392 C404 1.259 . S
O393 Co385 2.047 . S
O393 C404 1.257 . S
O394 Co391 2.094 . S
O394 C405 1.253 . S
O395 Co386 2.063 . S
O395 C405 1.268 . S
O396 Co384 2.115 . S
O396 C406 1.281 . S
O397 Co384 2.315 . S
O397 C406 1.252 . S
O398 Co391 2.122 . S
O398 C407 1.272 . S
O399 Co385 2.113 . S
O399 C407 1.245 . S
C400 O408 1.259 . S
C400 O409 1.257 . S
C401 O410 1.268 . S
C401 O411 1.253 . S
C402 O412 1.281 . S
C402 O413 1.252 . S
C403 O414 1.272 . S
C403 O415 1.245 . S
C404 O392 1.259 . S
C404 O393 1.257 . S
C405 O394 1.253 . S
C405 O395 1.268 . S
C406 O396 1.281 . S
C406 O397 1.252 . S
C407 O398 1.272 . S
C407 O399 1.245 . S
O408 Co384 2.053 . S
O408 C400 1.259 . S
O409 Co386 2.047 . S
O409 C400 1.257 . S
O410 Co385 2.063 . S
O410 C401 1.268 . S
O411 Co384 2.094 . S
O411 C401 1.253 . S
O412 Co391 2.115 . S
O412 C402 1.281 . S
O413 Co391 2.315 . S
O413 C402 1.252 . S
O414 Co384 2.122 . S
O414 C403 1.272 . S
O415 Co386 2.113 . S
O415 C403 1.245 . S
Co416 H419 2.400 . S
Co416 O420 2.009 . S
Co416 O428 2.115 . S
Co416 O429 2.315 . S
Co416 O440 2.053 . S
Co416 O443 2.094 . S
Co416 O446 2.122 . S
Co417 O420 2.126 . S
Co417 H421 2.388 . S
Co417 O422 2.053 . S
Co417 O425 2.047 . S
Co417 O431 2.113 . S
Co417 O442 2.063 . S
Co418 H419 2.388 . S
Co418 O420 2.053 . S
Co418 O422 2.126 . S
Co418 O427 2.063 . S
Co418 O441 2.047 . S
Co418 O447 2.113 . S
H419 Co416 2.400 . S
H419 Co418 2.388 . S
H419 O420 0.760 . S
O420 Co416 2.009 . S
O420 Co417 2.126 . S
O420 Co418 2.053 . S
O420 H419 0.760 . S
H421 Co417 2.388 . S
H421 O422 0.760 . S
H421 Co423 2.400 . S
O422 Co417 2.053 . S
O422 Co418 2.126 . S
O422 H421 0.760 . S
O422 Co423 2.009 . S
Co423 H421 2.400 . S
Co423 O422 2.009 . S
Co423 O424 2.053 . S
Co423 O426 2.094 . S
Co423 O430 2.122 . S
Co423 O444 2.115 . S
Co423 O445 2.315 . S
O424 Co423 2.053 . S
O424 C436 1.259 . S
O425 Co417 2.047 . S
O425 C436 1.257 . S
O426 Co423 2.094 . S
O426 C437 1.253 . S
O427 Co418 2.063 . S
O427 C437 1.268 . S
O428 Co416 2.115 . S
O428 C438 1.281 . S
O429 Co416 2.315 . S
O429 C438 1.252 . S
O430 Co423 2.122 . S
O430 C439 1.272 . S
O431 Co417 2.113 . S
O431 C439 1.245 . S
C432 O440 1.259 . S
C432 O441 1.257 . S
C433 O442 1.268 . S
C433 O443 1.253 . S
C434 O444 1.281 . S
C434 O445 1.252 . S
C435 O446 1.272 . S
C435 O447 1.245 . S
C436 O424 1.259 . S
C436 O425 1.257 . S
C437 O426 1.253 . S
C437 O427 1.268 . S
C438 O428 1.281 . S
C438 O429 1.252 . S
C439 O430 1.272 . S
C439 O431 1.245 . S
O440 Co416 2.053 . S
O440 C432 1.259 . S
O441 Co418 2.047 . S
O441 C432 1.257 . S
O442 Co417 2.063 . S
O442 C433 1.268 . S
O443 Co416 2.094 . S
O443 C433 1.253 . S
O444 Co423 2.115 . S
O444 C434 1.281 . S
O445 Co423 2.315 . S
O445 C434 1.252 . S
O446 Co416 2.122 . S
O446 C435 1.272 . S
O447 Co418 2.113 . S
O447 C435 1.245 . S
Co448 H451 2.400 . S
Co448 O452 2.009 . S
Co448 O460 2.115 . S
Co448 O461 2.315 . S
Co448 O472 2.053 . S
Co448 O475 2.094 . S
Co448 O478 2.122 . S
Co449 O452 2.126 . S
Co449 H453 2.388 . S
Co449 O454 2.053 . S
Co449 O457 2.047 . S
Co449 O463 2.113 . S
Co449 O474 2.063 . S
Co450 H451 2.388 . S
Co450 O452 2.053 . S
Co450 O454 2.126 . S
Co450 O459 2.063 . S
Co450 O473 2.047 . S
Co450 O479 2.113 . S
H451 Co448 2.400 . S
H451 Co450 2.388 . S
H451 O452 0.760 . S
O452 Co448 2.009 . S
O452 Co449 2.126 . S
O452 Co450 2.053 . S
O452 H451 0.760 . S
H453 Co449 2.388 . S
H453 O454 0.760 . S
H453 Co455 2.400 . S
O454 Co449 2.053 . S
O454 Co450 2.126 . S
O454 H453 0.760 . S
O454 Co455 2.009 . S
Co455 H453 2.400 . S
Co455 O454 2.009 . S
Co455 O456 2.053 . S
Co455 O458 2.094 . S
Co455 O462 2.122 . S
Co455 O476 2.115 . S
Co455 O477 2.315 . S
O456 Co455 2.053 . S
O456 C468 1.259 . S
O457 Co449 2.047 . S
O457 C468 1.257 . S
O458 Co455 2.094 . S
O458 C469 1.253 . S
O459 Co450 2.063 . S
O459 C469 1.268 . S
O460 Co448 2.115 . S
O460 C470 1.281 . S
O461 Co448 2.315 . S
O461 C470 1.252 . S
O462 Co455 2.122 . S
O462 C471 1.272 . S
O463 Co449 2.113 . S
O463 C471 1.245 . S
C464 O472 1.259 . S
C464 O473 1.257 . S
C465 O474 1.268 . S
C465 O475 1.253 . S
C466 O476 1.281 . S
C466 O477 1.252 . S
C467 O478 1.272 . S
C467 O479 1.245 . S
C468 O456 1.259 . S
C468 O457 1.257 . S
C469 O458 1.253 . S
C469 O459 1.268 . S
C470 O460 1.281 . S
C470 O461 1.252 . S
C471 O462 1.272 . S
C471 O463 1.245 . S
O472 Co448 2.053 . S
O472 C464 1.259 . S
O473 Co450 2.047 . S
O473 C464 1.257 . S
O474 Co449 2.063 . S
O474 C465 1.268 . S
O475 Co448 2.094 . S
O475 C465 1.253 . S
O476 Co455 2.115 . S
O476 C466 1.281 . S
O477 Co455 2.315 . S
O477 C466 1.252 . S
O478 Co448 2.122 . S
O478 C467 1.272 . S
O479 Co450 2.113 . S
O479 C467 1.245 . S
Co480 H483 2.400 . S
Co480 O484 2.009 . S
Co480 O492 2.115 . S
Co480 O493 2.315 . S
Co480 O504 2.053 . S
Co480 O507 2.094 . S
Co480 O510 2.122 . S
Co481 O484 2.126 . S
Co481 H485 2.388 . S
Co481 O486 2.053 . S
Co481 O489 2.047 . S
Co481 O495 2.113 . S
Co481 O506 2.063 . S
Co482 H483 2.388 . S
Co482 O484 2.053 . S
Co482 O486 2.126 . S
Co482 O491 2.063 . S
Co482 O505 2.047 . S
Co482 O511 2.113 . S
H483 Co480 2.400 . S
H483 Co482 2.388 . S
H483 O484 0.760 . S
O484 Co480 2.009 . S
O484 Co481 2.126 . S
O484 Co482 2.053 . S
O484 H483 0.760 . S
H485 Co481 2.388 . S
H485 O486 0.760 . S
H485 Co487 2.400 . S
O486 Co481 2.053 . S
O486 Co482 2.126 . S
O486 H485 0.760 . S
O486 Co487 2.009 . S
Co487 H485 2.400 . S
Co487 O486 2.009 . S
Co487 O488 2.053 . S
Co487 O490 2.094 . S
Co487 O494 2.122 . S
Co487 O508 2.115 . S
Co487 O509 2.315 . S
O488 Co487 2.053 . S
O488 C500 1.259 . S
O489 Co481 2.047 . S
O489 C500 1.257 . S
O490 Co487 2.094 . S
O490 C501 1.253 . S
O491 Co482 2.063 . S
O491 C501 1.268 . S
O492 Co480 2.115 . S
O492 C502 1.281 . S
O493 Co480 2.315 . S
O493 C502 1.252 . S
O494 Co487 2.122 . S
O494 C503 1.272 . S
O495 Co481 2.113 . S
O495 C503 1.245 . S
C496 O504 1.259 . S
C496 O505 1.257 . S
C497 O506 1.268 . S
C497 O507 1.253 . S
C498 O508 1.281 . S
C498 O509 1.252 . S
C499 O510 1.272 . S
C499 O511 1.245 . S
C500 O488 1.259 . S
C500 O489 1.257 . S
C501 O490 1.253 . S
C501 O491 1.268 . S
C502 O492 1.281 . S
C502 O493 1.252 . S
C503 O494 1.272 . S
C503 O495 1.245 . S
O504 Co480 2.053 . S
O504 C496 1.259 . S
O505 Co482 2.047 . S
O505 C496 1.257 . S
O506 Co481 2.063 . S
O506 C497 1.268 . S
O507 Co480 2.094 . S
O507 C497 1.253 . S
O508 Co487 2.115 . S
O508 C498 1.281 . S
O509 Co487 2.315 . S
O509 C498 1.252 . S
O510 Co480 2.122 . S
O510 C499 1.272 . S
O511 Co482 2.113 . S
O511 C499 1.245 . S
H512 C518 0.930 . S
H513 C522 0.930 . S
H514 C527 0.929 . S
H515 C525 0.929 . S
H516 C520 0.929 . S
H517 C526 0.929 . S
C518 H512 0.930 . S
C518 C519 1.367 . S
C518 C526 1.378 . S
C519 C518 1.367 . S
C519 C527 1.433 . S
C520 H516 0.929 . S
C520 C522 1.378 . S
C520 C524 1.350 . S
C521 C524 1.463 . S
C521 C526 1.350 . S
C521 N529 1.427 . S
C522 H513 0.930 . S
C522 C520 1.378 . S
C522 C523 1.367 . S
C523 C522 1.367 . S
C523 C525 1.433 . S
C524 C520 1.350 . S
C524 C521 1.463 . S
C524 N528 1.427 . S
C525 H515 0.929 . S
C525 C523 1.433 . S
C525 N528 1.384 . S
C526 H517 0.929 . S
C526 C518 1.378 . S
C526 C521 1.350 . S
C527 H514 0.929 . S
C527 C519 1.433 . S
C527 N529 1.384 . S
N528 C524 1.427 . S
N528 C525 1.384 . S
N529 C521 1.427 . S
N529 C527 1.384 . S
H530 C536 0.930 1_545 S
H531 C540 0.930 . S
H532 C545 0.929 . S
H533 C543 0.929 . S
H534 C538 0.929 . S
H535 C544 0.929 . S
C536 H530 0.930 1_565 S
C536 C537 1.367 . S
C536 C544 1.378 . S
C537 C536 1.367 . S
C537 C545 1.433 1_655 S
C538 H534 0.929 . S
C538 C540 1.378 . S
C538 C542 1.350 . S
C539 C542 1.463 . S
C539 C544 1.350 . S
C539 N547 1.427 . S
C540 H531 0.930 . S
C540 C538 1.378 . S
C540 C541 1.367 . S
C541 C540 1.367 . S
C541 C543 1.433 . S
C542 C538 1.350 . S
C542 C539 1.463 . S
C542 N546 1.427 . S
C543 H533 0.929 . S
C543 C541 1.433 . S
C543 N546 1.384 . S
C544 H535 0.929 . S
C544 C536 1.378 . S
C544 C539 1.350 . S
C545 H532 0.929 . S
C545 C537 1.433 1_455 S
C545 N547 1.384 1_455 S
N546 C542 1.427 . S
N546 C543 1.384 . S
N547 C539 1.427 . S
N547 C545 1.384 1_655 S
H548 C554 0.930 . S
H549 C558 0.930 . S
H550 C563 0.929 . S
H551 C561 0.929 . S
H552 C556 0.929 . S
H553 C562 0.929 . S
C554 H548 0.930 . S
C554 C555 1.367 . S
C554 C562 1.378 . S
C555 C554 1.367 . S
C555 C563 1.433 . S
C556 H552 0.929 . S
C556 C558 1.378 . S
C556 C560 1.350 . S
C557 C560 1.463 . S
C557 C562 1.350 . S
C557 N565 1.427 . S
C558 H549 0.930 . S
C558 C556 1.378 . S
C558 C559 1.367 . S
C559 C558 1.367 . S
C559 C561 1.433 . S
C560 C556 1.350 . S
C560 C557 1.463 . S
C560 N564 1.427 . S
C561 H551 0.929 . S
C561 C559 1.433 . S
C561 N564 1.384 . S
C562 H553 0.929 . S
C562 C554 1.378 . S
C562 C557 1.350 . S
C563 H550 0.929 . S
C563 C555 1.433 . S
C563 N565 1.384 . S
N564 C560 1.427 . S
N564 C561 1.384 . S
N565 C557 1.427 . S
N565 C563 1.384 . S
H566 C572 0.930 . S
H567 C576 0.930 . S
H568 C581 0.929 . S
H569 C579 0.929 . S
H570 C574 0.929 . S
H571 C580 0.929 . S
C572 H566 0.930 . S
C572 C573 1.367 . S
C572 C580 1.378 . S
C573 C572 1.367 . S
C573 C581 1.433 . S
C574 H570 0.929 . S
C574 C576 1.378 . S
C574 C578 1.350 . S
C575 C578 1.463 . S
C575 C580 1.350 . S
C575 N583 1.427 . S
C576 H567 0.930 . S
C576 C574 1.378 . S
C576 C577 1.367 . S
C577 C576 1.367 . S
C577 C579 1.433 . S
C578 C574 1.350 . S
C578 C575 1.463 . S
C578 N582 1.427 . S
C579 H569 0.929 . S
C579 C577 1.433 . S
C579 N582 1.384 . S
C580 H571 0.929 . S
C580 C572 1.378 . S
C580 C575 1.350 . S
C581 H568 0.929 . S
C581 C573 1.433 . S
C581 N583 1.384 . S
N582 C578 1.427 . S
N582 C579 1.384 . S
N583 C575 1.427 . S
N583 C581 1.384 . S
H584 C590 0.930 . S
H585 C594 0.930 . S
H586 C599 0.929 . S
H587 C597 0.929 . S
H588 C592 0.929 . S
H589 C598 0.929 . S
C590 H584 0.930 . S
C590 C591 1.367 . S
C590 C598 1.378 . S
C591 C590 1.367 . S
C591 C599 1.433 . S
C592 H588 0.929 . S
C592 C594 1.378 . S
C592 C596 1.350 . S
C593 C596 1.463 . S
C593 C598 1.350 . S
C593 N601 1.427 . S
C594 H585 0.930 . S
C594 C592 1.378 . S
C594 C595 1.367 . S
C595 C594 1.367 . S
C595 C597 1.433 . S
C596 C592 1.350 . S
C596 C593 1.463 . S
C596 N600 1.427 . S
C597 H587 0.929 . S
C597 C595 1.433 . S
C597 N600 1.384 . S
C598 H589 0.929 . S
C598 C590 1.378 . S
C598 C593 1.350 . S
C599 H586 0.929 . S
C599 C591 1.433 . S
C599 N601 1.384 . S
N600 C596 1.427 . S
N600 C597 1.384 . S
N601 C593 1.427 . S
N601 C599 1.384 . S
H602 C608 0.930 . S
H603 C612 0.930 . S
H604 C617 0.929 1_565 S
H605 C615 0.929 . S
H606 C610 0.929 . S
H607 C616 0.929 . S
C608 H602 0.930 . S
C608 C609 1.367 1_655 S
C608 C616 1.378 . S
C609 C608 1.367 1_455 S
C609 C617 1.433 . S
C610 H606 0.929 . S
C610 C612 1.378 . S
C610 C614 1.350 . S
C611 C614 1.463 . S
C611 C616 1.350 1_455 S
C611 N619 1.427 . S
C612 H603 0.930 . S
C612 C610 1.378 . S
C612 C613 1.367 . S
C613 C612 1.367 . S
C613 C615 1.433 . S
C614 C610 1.350 . S
C614 C611 1.463 . S
C614 N618 1.427 . S
C615 H605 0.929 . S
C615 C613 1.433 . S
C615 N618 1.384 . S
C616 H607 0.929 . S
C616 C608 1.378 . S
C616 C611 1.350 1_655 S
C617 H604 0.929 1_545 S
C617 C609 1.433 . S
C617 N619 1.384 . S
N618 C614 1.427 . S
N618 C615 1.384 . S
N619 C611 1.427 . S
N619 C617 1.384 . S
H620 C626 0.930 . S
H621 C630 0.930 . S
H622 C635 0.929 . S
H623 C633 0.929 . S
H624 C628 0.929 . S
H625 C634 0.929 . S
C626 H620 0.930 . S
C626 C627 1.367 . S
C626 C634 1.378 . S
C627 C626 1.367 . S
C627 C635 1.433 . S
C628 H624 0.929 . S
C628 C630 1.378 . S
C628 C632 1.350 . S
C629 C632 1.463 . S
C629 C634 1.350 . S
C629 N637 1.427 . S
C630 H621 0.930 . S
C630 C628 1.378 . S
C630 C631 1.367 . S
C631 C630 1.367 . S
C631 C633 1.433 . S
C632 C628 1.350 . S
C632 C629 1.463 . S
C632 N636 1.427 . S
C633 H623 0.929 . S
C633 C631 1.433 . S
C633 N636 1.384 . S
C634 H625 0.929 . S
C634 C626 1.378 . S
C634 C629 1.350 . S
C635 H622 0.929 . S
C635 C627 1.433 . S
C635 N637 1.384 . S
N636 C632 1.427 . S
N636 C633 1.384 . S
N637 C629 1.427 . S
N637 C635 1.384 . S
H638 C644 0.930 . S
H639 C648 0.930 . S
H640 C653 0.929 . S
H641 C651 0.929 . S
H642 C646 0.929 . S
H643 C652 0.929 . S
C644 H638 0.930 . S
C644 C645 1.367 1_655 S
C644 C652 1.378 1_655 S
C645 C644 1.367 1_455 S
C645 C653 1.433 . S
C646 H642 0.929 . S
C646 C648 1.378 . S
C646 C650 1.350 . S
C647 C650 1.463 . S
C647 C652 1.350 . S
C647 N655 1.427 . S
C648 H639 0.930 . S
C648 C646 1.378 . S
C648 C649 1.367 . S
C649 C648 1.367 . S
C649 C651 1.433 . S
C650 C646 1.350 . S
C650 C647 1.463 . S
C650 N654 1.427 . S
C651 H641 0.929 . S
C651 C649 1.433 . S
C651 N654 1.384 . S
C652 H643 0.929 . S
C652 C644 1.378 1_455 S
C652 C647 1.350 . S
C653 H640 0.929 . S
C653 C645 1.433 . S
C653 N655 1.384 . S
N654 C650 1.427 . S
N654 C651 1.384 . S
N655 C647 1.427 . S
N655 C653 1.384 . S
H656 C662 0.930 . S
H657 C666 0.930 . S
H658 C671 0.929 . S
H659 C669 0.929 . S
H660 C664 0.929 . S
H661 C670 0.929 . S
C662 H656 0.930 . S
C662 C663 1.367 . S
C662 C670 1.378 . S
C663 C662 1.367 . S
C663 C671 1.433 . S
C664 H660 0.929 . S
C664 C666 1.378 . S
C664 C668 1.350 . S
C665 C668 1.463 . S
C665 C670 1.350 . S
C665 N673 1.427 . S
C666 H657 0.930 . S
C666 C664 1.378 . S
C666 C667 1.367 . S
C667 C666 1.367 . S
C667 C669 1.433 . S
C668 C664 1.350 . S
C668 C665 1.463 . S
C668 N672 1.427 . S
C669 H659 0.929 . S
C669 C667 1.433 . S
C669 N672 1.384 . S
C670 H661 0.929 . S
C670 C662 1.378 . S
C670 C665 1.350 . S
C671 H658 0.929 . S
C671 C663 1.433 . S
C671 N673 1.384 . S
N672 C668 1.427 . S
N672 C669 1.384 . S
N673 C665 1.427 . S
N673 C671 1.384 . S
H674 C680 0.930 . S
H675 C684 0.930 . S
H676 C689 0.929 . S
H677 C687 0.929 . S
H678 C682 0.929 1_455 S
H679 C688 0.929 . S
C680 H674 0.930 . S
C680 C681 1.367 . S
C680 C688 1.378 . S
C681 C680 1.367 . S
C681 C689 1.433 . S
C682 H678 0.929 1_655 S
C682 C684 1.378 1_655 S
C682 C686 1.350 . S
C683 C686 1.463 . S
C683 C688 1.350 . S
C683 N691 1.427 . S
C684 H675 0.930 . S
C684 C682 1.378 1_455 S
C684 C685 1.367 1_455 S
C685 C684 1.367 1_655 S
C685 C687 1.433 . S
C686 C682 1.350 . S
C686 C683 1.463 . S
C686 N690 1.427 . S
C687 H677 0.929 . S
C687 C685 1.433 . S
C687 N690 1.384 . S
C688 H679 0.929 . S
C688 C680 1.378 . S
C688 C683 1.350 . S
C689 H676 0.929 . S
C689 C681 1.433 . S
C689 N691 1.384 . S
N690 C686 1.427 . S
N690 C687 1.384 . S
N691 C683 1.427 . S
N691 C689 1.384 . S
H692 C698 0.930 . S
H693 C702 0.930 . S
H694 C707 0.929 . S
H695 C705 0.929 . S
H696 C700 0.929 . S
H697 C706 0.929 . S
C698 H692 0.930 . S
C698 C699 1.367 . S
C698 C706 1.378 . S
C699 C698 1.367 . S
C699 C707 1.433 . S
C700 H696 0.929 . S
C700 C702 1.378 . S
C700 C704 1.350 . S
C701 C704 1.463 . S
C701 C706 1.350 . S
C701 N709 1.427 . S
C702 H693 0.930 . S
C702 C700 1.378 . S
C702 C703 1.367 . S
C703 C702 1.367 . S
C703 C705 1.433 . S
C704 C700 1.350 . S
C704 C701 1.463 . S
C704 N708 1.427 . S
C705 H695 0.929 . S
C705 C703 1.433 . S
C705 N708 1.384 . S
C706 H697 0.929 . S
C706 C698 1.378 . S
C706 C701 1.350 . S
C707 H694 0.929 . S
C707 C699 1.433 . S
C707 N709 1.384 . S
N708 C704 1.427 . S
N708 C705 1.384 . S
N709 C701 1.427 . S
N709 C707 1.384 . S
H710 C716 0.930 . S
H711 C720 0.930 . S
H712 C725 0.929 . S
H713 C723 0.929 . S
H714 C718 0.929 . S
H715 C724 0.929 . S
C716 H710 0.930 . S
C716 C717 1.367 . S
C716 C724 1.378 . S
C717 C716 1.367 . S
C717 C725 1.433 . S
C718 H714 0.929 . S
C718 C720 1.378 . S
C718 C722 1.350 . S
C719 C722 1.463 . S
C719 C724 1.350 . S
C719 N727 1.427 . S
C720 H711 0.930 . S
C720 C718 1.378 . S
C720 C721 1.367 . S
C721 C720 1.367 . S
C721 C723 1.433 1_655 S
C722 C718 1.350 . S
C722 C719 1.463 . S
C722 N726 1.427 . S
C723 H713 0.929 . S
C723 C721 1.433 1_455 S
C723 N726 1.384 1_455 S
C724 H715 0.929 . S
C724 C716 1.378 . S
C724 C719 1.350 . S
C725 H712 0.929 . S
C725 C717 1.433 . S
C725 N727 1.384 . S
N726 C722 1.427 . S
N726 C723 1.384 1_655 S
N727 C719 1.427 . S
N727 C725 1.384 . S
H728 C734 0.930 . S
H729 C738 0.930 . S
H730 C743 0.929 . S
H731 C741 0.929 . S
H732 C736 0.929 . S
H733 C742 0.929 . S
C734 H728 0.930 . S
C734 C735 1.367 . S
C734 C742 1.378 . S
C735 C734 1.367 . S
C735 C743 1.433 . S
C736 H732 0.929 . S
C736 C738 1.378 . S
C736 C740 1.350 . S
C737 C740 1.463 . S
C737 C742 1.350 . S
C737 N745 1.427 . S
C738 H729 0.930 . S
C738 C736 1.378 . S
C738 C739 1.367 . S
C739 C738 1.367 . S
C739 C741 1.433 . S
C740 C736 1.350 . S
C740 C737 1.463 . S
C740 N744 1.427 . S
C741 H731 0.929 . S
C741 C739 1.433 . S
C741 N744 1.384 . S
C742 H733 0.929 . S
C742 C734 1.378 . S
C742 C737 1.350 . S
C743 H730 0.929 . S
C743 C735 1.433 . S
C743 N745 1.384 . S
N744 C740 1.427 . S
N744 C741 1.384 . S
N745 C737 1.427 . S
N745 C743 1.384 . S
H746 C752 0.930 . S
H747 C756 0.930 . S
H748 C761 0.929 . S
H749 C759 0.929 . S
H750 C754 0.929 . S
H751 C760 0.929 . S
C752 H746 0.930 . S
C752 C753 1.367 1_655 S
C752 C760 1.378 1_655 S
C753 C752 1.367 1_455 S
C753 C761 1.433 . S
C754 H750 0.929 . S
C754 C756 1.378 . S
C754 C758 1.350 . S
C755 C758 1.463 . S
C755 C760 1.350 . S
C755 N763 1.427 . S
C756 H747 0.930 . S
C756 C754 1.378 . S
C756 C757 1.367 . S
C757 C756 1.367 . S
C757 C759 1.433 . S
C758 C754 1.350 . S
C758 C755 1.463 . S
C758 N762 1.427 . S
C759 H749 0.929 . S
C759 C757 1.433 . S
C759 N762 1.384 . S
C760 H751 0.929 . S
C760 C752 1.378 1_455 S
C760 C755 1.350 . S
C761 H748 0.929 . S
C761 C753 1.433 . S
C761 N763 1.384 . S
N762 C758 1.427 . S
N762 C759 1.384 . S
N763 C755 1.427 . S
N763 C761 1.384 . S
H764 C770 0.930 . S
H765 C774 0.930 . S
H766 C779 0.929 . S
H767 C777 0.929 . S
H768 C772 0.929 . S
H769 C778 0.929 . S
C770 H764 0.930 . S
C770 C771 1.367 . S
C770 C778 1.378 . S
C771 C770 1.367 . S
C771 C779 1.433 . S
C772 H768 0.929 . S
C772 C774 1.378 . S
C772 C776 1.350 . S
C773 C776 1.463 . S
C773 C778 1.350 . S
C773 N781 1.427 . S
C774 H765 0.930 . S
C774 C772 1.378 . S
C774 C775 1.367 . S
C775 C774 1.367 . S
C775 C777 1.433 . S
C776 C772 1.350 . S
C776 C773 1.463 . S
C776 N780 1.427 . S
C777 H767 0.929 . S
C777 C775 1.433 . S
C777 N780 1.384 . S
C778 H769 0.929 . S
C778 C770 1.378 . S
C778 C773 1.350 . S
C779 H766 0.929 . S
C779 C771 1.433 . S
C779 N781 1.384 . S
N780 C776 1.427 . S
N780 C777 1.384 . S
N781 C773 1.427 . S
N781 C779 1.384 . S
H782 C788 0.930 . S
H783 C792 0.930 . S
H784 C797 0.929 . S
H785 C795 0.929 . S
H786 C790 0.929 . S
H787 C796 0.929 . S
C788 H782 0.930 . S
C788 C789 1.367 . S
C788 C796 1.378 . S
C789 C788 1.367 . S
C789 C797 1.433 1_455 S
C790 H786 0.929 . S
C790 C792 1.378 . S
C790 C794 1.350 . S
C791 C794 1.463 . S
C791 C796 1.350 . S
C791 N799 1.427 1_455 S
C792 H783 0.930 . S
C792 C790 1.378 . S
C792 C793 1.367 . S
C793 C792 1.367 . S
C793 C795 1.433 . S
C794 C790 1.350 . S
C794 C791 1.463 . S
C794 N798 1.427 . S
C795 H785 0.929 . S
C795 C793 1.433 . S
C795 N798 1.384 . S
C796 H787 0.929 . S
C796 C788 1.378 . S
C796 C791 1.350 . S
C797 H784 0.929 . S
C797 C789 1.433 1_655 S
C797 N799 1.384 . S
N798 C794 1.427 . S
N798 C795 1.384 . S
N799 C791 1.427 1_655 S
N799 C797 1.384 . S
H800 C806 0.930 . S
H801 C810 0.930 . S
H802 C815 0.929 . S
H803 C813 0.929 . S
H804 C808 0.929 . S
H805 C814 0.929 . S
C806 H800 0.930 . S
C806 C807 1.367 . S
C806 C814 1.378 . S
C807 C806 1.367 . S
C807 C815 1.433 . S
C808 H804 0.929 . S
C808 C810 1.378 . S
C808 C812 1.350 . S
C809 C812 1.463 . S
C809 C814 1.350 . S
C809 N817 1.427 . S
C810 H801 0.930 . S
C810 C808 1.378 . S
C810 C811 1.367 . S
C811 C810 1.367 . S
C811 C813 1.433 . S
C812 C808 1.350 . S
C812 C809 1.463 . S
C812 N816 1.427 . S
C813 H803 0.929 . S
C813 C811 1.433 . S
C813 N816 1.384 . S
C814 H805 0.929 . S
C814 C806 1.378 . S
C814 C809 1.350 . S
C815 H802 0.929 . S
C815 C807 1.433 . S
C815 N817 1.384 . S
N816 C812 1.427 . S
N816 C813 1.384 . S
N817 C809 1.427 . S
N817 C815 1.384 . S
H818 C824 0.930 . S
H819 C828 0.930 . S
H820 C833 0.929 . S
H821 C831 0.929 . S
H822 C826 0.929 . S
H823 C832 0.929 . S
C824 H818 0.930 . S
C824 C825 1.367 1_655 S
C824 C832 1.378 . S
C825 C824 1.367 1_455 S
C825 C833 1.433 . S
C826 H822 0.929 . S
C826 C828 1.378 . S
C826 C830 1.350 . S
C827 C830 1.463 . S
C827 C832 1.350 . S
C827 N835 1.427 . S
C828 H819 0.930 . S
C828 C826 1.378 . S
C828 C829 1.367 . S
C829 C828 1.367 . S
C829 C831 1.433 . S
C830 C826 1.350 . S
C830 C827 1.463 . S
C830 N834 1.427 . S
C831 H821 0.929 . S
C831 C829 1.433 . S
C831 N834 1.384 . S
C832 H823 0.929 . S
C832 C824 1.378 . S
C832 C827 1.350 . S
C833 H820 0.929 . S
C833 C825 1.433 . S
C833 N835 1.384 1_455 S
N834 C830 1.427 . S
N834 C831 1.384 . S
N835 C827 1.427 . S
N835 C833 1.384 1_655 S
H836 C842 0.930 . S
H837 C846 0.930 . S
H838 C851 0.929 . S
H839 C849 0.929 . S
H840 C844 0.929 . S
H841 C850 0.929 . S
C842 H836 0.930 . S
C842 C843 1.367 . S
C842 C850 1.378 . S
C843 C842 1.367 . S
C843 C851 1.433 . S
C844 H840 0.929 . S
C844 C846 1.378 . S
C844 C848 1.350 . S
C845 C848 1.463 . S
C845 C850 1.350 . S
C845 N853 1.427 . S
C846 H837 0.930 . S
C846 C844 1.378 . S
C846 C847 1.367 . S
C847 C846 1.367 . S
C847 C849 1.433 . S
C848 C844 1.350 . S
C848 C845 1.463 . S
C848 N852 1.427 . S
C849 H839 0.929 . S
C849 C847 1.433 . S
C849 N852 1.384 . S
C850 H841 0.929 . S
C850 C842 1.378 . S
C850 C845 1.350 . S
C851 H838 0.929 . S
C851 C843 1.433 . S
C851 N853 1.384 . S
N852 C848 1.427 . S
N852 C849 1.384 . S
N853 C845 1.427 . S
N853 C851 1.384 . S
H854 C860 0.930 . S
H855 C864 0.930 . S
H856 C869 0.929 . S
H857 C867 0.929 . S
H858 C862 0.929 . S
H859 C868 0.929 . S
C860 H854 0.930 . S
C860 C861 1.367 . S
C860 C868 1.378 . S
C861 C860 1.367 . S
C861 C869 1.433 . S
C862 H858 0.929 . S
C862 C864 1.378 . S
C862 C866 1.350 1_455 S
C863 C866 1.463 . S
C863 C868 1.350 . S
C863 N871 1.427 . S
C864 H855 0.930 . S
C864 C862 1.378 . S
C864 C865 1.367 . S
C865 C864 1.367 . S
C865 C867 1.433 1_455 S
C866 C862 1.350 1_655 S
C866 C863 1.463 . S
C866 N870 1.427 . S
C867 H857 0.929 . S
C867 C865 1.433 1_655 S
C867 N870 1.384 . S
C868 H859 0.929 . S
C868 C860 1.378 . S
C868 C863 1.350 . S
C869 H856 0.929 . S
C869 C861 1.433 . S
C869 N871 1.384 . S
N870 C866 1.427 . S
N870 C867 1.384 . S
N871 C863 1.427 . S
N871 C869 1.384 . S
H872 C878 0.930 . S
H873 C882 0.930 . S
H874 C887 0.929 . S
H875 C885 0.929 . S
H876 C880 0.929 . S
H877 C886 0.929 . S
C878 H872 0.930 . S
C878 C879 1.367 . S
C878 C886 1.378 . S
C879 C878 1.367 . S
C879 C887 1.433 . S
C880 H876 0.929 . S
C880 C882 1.378 . S
C880 C884 1.350 . S
C881 C884 1.463 . S
C881 C886 1.350 . S
C881 N889 1.427 . S
C882 H873 0.930 . S
C882 C880 1.378 . S
C882 C883 1.367 . S
C883 C882 1.367 . S
C883 C885 1.433 . S
C884 C880 1.350 . S
C884 C881 1.463 . S
C884 N888 1.427 . S
C885 H875 0.929 . S
C885 C883 1.433 . S
C885 N888 1.384 . S
C886 H877 0.929 . S
C886 C878 1.378 . S
C886 C881 1.350 . S
C887 H874 0.929 . S
C887 C879 1.433 . S
C887 N889 1.384 . S
N888 C884 1.427 . S
N888 C885 1.384 . S
N889 C881 1.427 . S
N889 C887 1.384 . S
H890 C896 0.930 . S
H891 C900 0.929 1_655 S
H892 C905 0.929 . S
H893 C903 0.929 1_655 S
H894 C898 0.929 . S
H895 C904 0.929 . S
C896 H890 0.930 . S
C896 C897 1.367 . S
C896 C904 1.378 . S
C897 C896 1.367 . S
C897 C905 1.433 . S
C898 H894 0.929 . S
C898 C900 1.381 . S
C898 C902 1.350 . S
C899 C902 1.463 . S
C899 C904 1.350 . S
C899 N907 1.427 . S
C900 H891 0.929 1_455 S
C900 C898 1.381 . S
C900 C901 1.366 1_455 S
C901 C900 1.366 1_655 S
C901 C903 1.433 1_655 S
C902 C898 1.350 . S
C902 C899 1.463 . S
C902 N906 1.427 . S
C903 H893 0.929 1_455 S
C903 C901 1.433 1_455 S
C903 N906 1.384 . S
C904 H895 0.929 . S
C904 C896 1.378 . S
C904 C899 1.350 . S
C905 H892 0.929 . S
C905 C897 1.433 . S
C905 N907 1.384 . S
N906 C902 1.427 . S
N906 C903 1.384 . S
N907 C899 1.427 . S
N907 C905 1.384 . S
H908 C914 0.930 . S
H909 C918 0.930 . S
H910 C923 0.929 . S
H911 C921 0.929 . S
H912 C916 0.929 . S
H913 C922 0.929 . S
C914 H908 0.930 . S
C914 C915 1.367 . S
C914 C922 1.378 . S
C915 C914 1.367 . S
C915 C923 1.433 . S
C916 H912 0.929 . S
C916 C918 1.378 . S
C916 C920 1.350 . S
C917 C920 1.463 . S
C917 C922 1.350 . S
C917 N925 1.427 . S
C918 H909 0.930 . S
C918 C916 1.378 . S
C918 C919 1.367 . S
C919 C918 1.367 . S
C919 C921 1.433 . S
C920 C916 1.350 . S
C920 C917 1.463 . S
C920 N924 1.427 . S
C921 H911 0.929 . S
C921 C919 1.433 . S
C921 N924 1.384 . S
C922 H913 0.929 . S
C922 C914 1.378 . S
C922 C917 1.350 . S
C923 H910 0.929 . S
C923 C915 1.433 . S
C923 N925 1.384 . S
N924 C920 1.427 . S
N924 C921 1.384 . S
N925 C917 1.427 . S
N925 C923 1.384 . S
H926 C932 0.930 . S
H927 C936 0.930 . S
H928 C941 0.929 . S
H929 C939 0.929 . S
H930 C934 0.929 . S
H931 C940 0.929 . S
C932 H926 0.930 . S
C932 C933 1.367 . S
C932 C940 1.378 . S
C933 C932 1.367 . S
C933 C941 1.433 . S
C934 H930 0.929 . S
C934 C936 1.378 . S
C934 C938 1.350 . S
C935 C938 1.463 . S
C935 C940 1.350 . S
C935 N943 1.427 . S
C936 H927 0.930 . S
C936 C934 1.378 . S
C936 C937 1.367 1_455 S
C937 C936 1.367 1_655 S
C937 C939 1.433 . S
C938 C934 1.350 . S
C938 C935 1.463 . S
C938 N942 1.427 . S
C939 H929 0.929 . S
C939 C937 1.433 . S
C939 N942 1.384 1_655 S
C940 H931 0.929 . S
C940 C932 1.378 . S
C940 C935 1.350 . S
C941 H928 0.929 . S
C941 C933 1.433 . S
C941 N943 1.384 . S
N942 C938 1.427 . S
N942 C939 1.384 1_455 S
N943 C935 1.427 . S
N943 C941 1.384 . S
H944 C950 0.930 . S
H945 C954 0.930 . S
H946 C959 0.929 . S
H947 C957 0.929 . S
H948 C952 0.929 . S
H949 C958 0.929 . S
C950 H944 0.930 . S
C950 C951 1.367 . S
C950 C958 1.378 . S
C951 C950 1.367 . S
C951 C959 1.433 . S
C952 H948 0.929 . S
C952 C954 1.378 . S
C952 C956 1.350 . S
C953 C956 1.463 . S
C953 C958 1.350 . S
C953 N961 1.427 . S
C954 H945 0.930 . S
C954 C952 1.378 . S
C954 C955 1.367 . S
C955 C954 1.367 . S
C955 C957 1.433 . S
C956 C952 1.350 . S
C956 C953 1.463 . S
C956 N960 1.427 . S
C957 H947 0.929 . S
C957 C955 1.433 . S
C957 N960 1.384 . S
C958 H949 0.929 . S
C958 C950 1.378 . S
C958 C953 1.350 . S
C959 H946 0.929 . S
C959 C951 1.433 . S
C959 N961 1.384 . S
N960 C956 1.427 . S
N960 C957 1.384 . S
N961 C953 1.427 . S
N961 C959 1.384 . S
H962 C968 0.930 . S
H963 C972 0.930 . S
H964 C977 0.929 . S
H965 C975 0.929 1_545 S
H966 C970 0.929 . S
H967 C976 0.929 . S
C968 H962 0.930 . S
C968 C969 1.367 . S
C968 C976 1.378 1_455 S
C969 C968 1.367 . S
C969 C977 1.433 1_455 S
C970 H966 0.929 . S
C970 C972 1.378 . S
C970 C974 1.350 . S
C971 C974 1.463 . S
C971 C976 1.350 . S
C971 N979 1.427 . S
C972 H963 0.930 . S
C972 C970 1.378 . S
C972 C973 1.367 . S
C973 C972 1.367 . S
C973 C975 1.433 . S
C974 C970 1.350 . S
C974 C971 1.463 . S
C974 N978 1.427 . S
C975 H965 0.929 1_565 S
C975 C973 1.433 . S
C975 N978 1.384 . S
C976 H967 0.929 . S
C976 C968 1.378 1_655 S
C976 C971 1.350 . S
C977 H964 0.929 . S
C977 C969 1.433 1_655 S
C977 N979 1.384 . S
N978 C974 1.427 . S
N978 C975 1.384 . S
N979 C971 1.427 . S
N979 C977 1.384 . S
H980 C986 0.930 . S
H981 C990 0.930 . S
H982 C995 0.929 . S
H983 C993 0.929 . S
H984 C988 0.929 . S
H985 C994 0.929 . S
C986 H980 0.930 . S
C986 C987 1.367 . S
C986 C994 1.378 . S
C987 C986 1.367 . S
C987 C995 1.433 . S
C988 H984 0.929 . S
C988 C990 1.378 . S
C988 C992 1.350 . S
C989 C992 1.463 . S
C989 C994 1.350 . S
C989 N997 1.427 . S
C990 H981 0.930 . S
C990 C988 1.378 . S
C990 C991 1.367 . S
C991 C990 1.367 . S
C991 C993 1.433 . S
C992 C988 1.350 . S
C992 C989 1.463 . S
C992 N996 1.427 . S
C993 H983 0.929 . S
C993 C991 1.433 . S
C993 N996 1.384 . S
C994 H985 0.929 . S
C994 C986 1.378 . S
C994 C989 1.350 . S
C995 H982 0.929 . S
C995 C987 1.433 . S
C995 N997 1.384 . S
N996 C992 1.427 . S
N996 C993 1.384 . S
N997 C989 1.427 . S
N997 C995 1.384 . S
H998 C1004 0.930 . S
H999 C1008 0.930 . S
H1000 C1013 0.929 . S
H1001 C1011 0.929 . S
H1002 C1006 0.929 . S
H1003 C1012 0.929 . S
C1004 H998 0.930 . S
C1004 C1005 1.367 1_655 S
C1004 C1012 1.378 . S
C1005 C1004 1.367 1_455 S
C1005 C1013 1.433 . S
C1006 H1002 0.929 . S
C1006 C1008 1.378 . S
C1006 C1010 1.350 . S
C1007 C1010 1.463 . S
C1007 C1012 1.350 . S
C1007 N1015 1.427 1_655 S
C1008 H999 0.930 . S
C1008 C1006 1.378 . S
C1008 C1009 1.367 . S
C1009 C1008 1.367 . S
C1009 C1011 1.433 . S
C1010 C1006 1.350 . S
C1010 C1007 1.463 . S
C1010 N1014 1.427 . S
C1011 H1001 0.929 . S
C1011 C1009 1.433 . S
C1011 N1014 1.384 . S
C1012 H1003 0.929 . S
C1012 C1004 1.378 . S
C1012 C1007 1.350 . S
C1013 H1000 0.929 . S
C1013 C1005 1.433 . S
C1013 N1015 1.384 . S
N1014 C1010 1.427 . S
N1014 C1011 1.384 . S
N1015 C1007 1.427 1_455 S
N1015 C1013 1.384 . S
H1016 C1022 0.930 . S
H1017 C1026 0.930 . S
H1018 C1031 0.929 . S
H1019 C1029 0.929 . S
H1020 C1024 0.929 . S
H1021 C1030 0.929 . S
C1022 H1016 0.930 . S
C1022 C1023 1.367 . S
C1022 C1030 1.378 . S
C1023 C1022 1.367 . S
C1023 C1031 1.433 . S
C1024 H1020 0.929 . S
C1024 C1026 1.378 . S
C1024 C1028 1.350 . S
C1025 C1028 1.463 . S
C1025 C1030 1.350 . S
C1025 N1033 1.427 . S
C1026 H1017 0.930 . S
C1026 C1024 1.378 . S
C1026 C1027 1.367 . S
C1027 C1026 1.367 . S
C1027 C1029 1.433 . S
C1028 C1024 1.350 . S
C1028 C1025 1.463 . S
C1028 N1032 1.427 . S
C1029 H1019 0.929 . S
C1029 C1027 1.433 . S
C1029 N1032 1.384 . S
C1030 H1021 0.929 . S
C1030 C1022 1.378 . S
C1030 C1025 1.350 . S
C1031 H1018 0.929 . S
C1031 C1023 1.433 . S
C1031 N1033 1.384 . S
N1032 C1028 1.427 . S
N1032 C1029 1.384 . S
N1033 C1025 1.427 . S
N1033 C1031 1.384 . S
H1034 C1040 0.930 . S
H1035 C1044 0.930 . S
H1036 C1049 0.929 1_565 S
H1037 C1047 0.929 . S
H1038 C1042 0.929 . S
H1039 C1048 0.929 . S
C1040 H1034 0.930 . S
C1040 C1041 1.367 . S
C1040 C1048 1.378 . S
C1041 C1040 1.367 . S
C1041 C1049 1.433 . S
C1042 H1038 0.929 . S
C1042 C1044 1.378 . S
C1042 C1046 1.350 1_655 S
C1043 C1046 1.463 . S
C1043 C1048 1.350 . S
C1043 N1051 1.427 . S
C1044 H1035 0.930 . S
C1044 C1042 1.378 . S
C1044 C1045 1.367 . S
C1045 C1044 1.367 . S
C1045 C1047 1.433 1_655 S
C1046 C1042 1.350 1_455 S
C1046 C1043 1.463 . S
C1046 N1050 1.427 . S
C1047 H1037 0.929 . S
C1047 C1045 1.433 1_455 S
C1047 N1050 1.384 . S
C1048 H1039 0.929 . S
C1048 C1040 1.378 . S
C1048 C1043 1.350 . S
C1049 H1036 0.929 1_545 S
C1049 C1041 1.433 . S
C1049 N1051 1.384 . S
N1050 C1046 1.427 . S
N1050 C1047 1.384 . S
N1051 C1043 1.427 . S
N1051 C1049 1.384 . S
H1052 C1058 0.930 . S
H1053 C1062 0.930 . S
H1054 C1067 0.929 . S
H1055 C1065 0.929 . S
H1056 C1060 0.929 . S
H1057 C1066 0.929 . S
C1058 H1052 0.930 . S
C1058 C1059 1.367 . S
C1058 C1066 1.378 . S
C1059 C1058 1.367 . S
C1059 C1067 1.433 . S
C1060 H1056 0.929 . S
C1060 C1062 1.378 . S
C1060 C1064 1.350 . S
C1061 C1064 1.463 . S
C1061 C1066 1.350 . S
C1061 N1069 1.427 . S
C1062 H1053 0.930 . S
C1062 C1060 1.378 . S
C1062 C1063 1.367 . S
C1063 C1062 1.367 . S
C1063 C1065 1.433 . S
C1064 C1060 1.350 . S
C1064 C1061 1.463 . S
C1064 N1068 1.427 . S
C1065 H1055 0.929 . S
C1065 C1063 1.433 . S
C1065 N1068 1.384 . S
C1066 H1057 0.929 . S
C1066 C1058 1.378 . S
C1066 C1061 1.350 . S
C1067 H1054 0.929 . S
C1067 C1059 1.433 . S
C1067 N1069 1.384 . S
N1068 C1064 1.427 . S
N1068 C1065 1.384 . S
N1069 C1061 1.427 . S
N1069 C1067 1.384 . S
H1070 C1076 0.930 . S
H1071 C1080 0.930 . S
H1072 C1085 0.929 . S
H1073 C1083 0.929 . S
H1074 C1078 0.929 . S
H1075 C1084 0.929 . S
C1076 H1070 0.930 . S
C1076 C1077 1.367 1_455 S
C1076 C1084 1.378 . S
C1077 C1076 1.367 1_655 S
C1077 C1085 1.433 . S
C1078 H1074 0.929 . S
C1078 C1080 1.378 . S
C1078 C1082 1.350 . S
C1079 C1082 1.463 . S
C1079 C1084 1.350 . S
C1079 N1087 1.427 . S
C1080 H1071 0.930 . S
C1080 C1078 1.378 . S
C1080 C1081 1.367 . S
C1081 C1080 1.367 . S
C1081 C1083 1.433 . S
C1082 C1078 1.350 . S
C1082 C1079 1.463 . S
C1082 N1086 1.427 . S
C1083 H1073 0.929 . S
C1083 C1081 1.433 . S
C1083 N1086 1.384 . S
C1084 H1075 0.929 . S
C1084 C1076 1.378 . S
C1084 C1079 1.350 . S
C1085 H1072 0.929 . S
C1085 C1077 1.433 . S
C1085 N1087 1.384 1_655 S
N1086 C1082 1.427 . S
N1086 C1083 1.384 . S
N1087 C1079 1.427 . S
N1087 C1085 1.384 1_455 S
H1088 C1094 0.930 . S
H1089 C1098 0.930 . S
H1090 C1103 0.929 . S
H1091 C1101 0.929 . S
H1092 C1096 0.929 . S
H1093 C1102 0.929 . S
C1094 H1088 0.930 . S
C1094 C1095 1.367 . S
C1094 C1102 1.378 . S
C1095 C1094 1.367 . S
C1095 C1103 1.433 . S
C1096 H1092 0.929 . S
C1096 C1098 1.378 . S
C1096 C1100 1.350 . S
C1097 C1100 1.463 . S
C1097 C1102 1.350 . S
C1097 N1105 1.427 . S
C1098 H1089 0.930 . S
C1098 C1096 1.378 . S
C1098 C1099 1.367 . S
C1099 C1098 1.367 . S
C1099 C1101 1.433 . S
C1100 C1096 1.350 . S
C1100 C1097 1.463 . S
C1100 N1104 1.427 . S
C1101 H1091 0.929 . S
C1101 C1099 1.433 . S
C1101 N1104 1.384 . S
C1102 H1093 0.929 . S
C1102 C1094 1.378 . S
C1102 C1097 1.350 . S
C1103 H1090 0.929 . S
C1103 C1095 1.433 . S
C1103 N1105 1.384 . S
N1104 C1100 1.427 . S
N1104 C1101 1.384 . S
N1105 C1097 1.427 . S
N1105 C1103 1.384 . S
H1106 C1112 0.930 . S
H1107 C1116 0.930 . S
H1108 C1121 0.929 . S
H1109 C1119 0.929 . S
H1110 C1114 0.929 . S
H1111 C1120 0.929 . S
C1112 H1106 0.930 . S
C1112 C1113 1.367 . S
C1112 C1120 1.378 . S
C1113 C1112 1.367 . S
C1113 C1121 1.433 . S
C1114 H1110 0.929 . S
C1114 C1116 1.378 . S
C1114 C1118 1.350 . S
C1115 C1118 1.463 . S
C1115 C1120 1.350 . S
C1115 N1123 1.427 . S
C1116 H1107 0.930 . S
C1116 C1114 1.378 . S
C1116 C1117 1.367 1_655 S
C1117 C1116 1.367 1_455 S
C1117 C1119 1.433 . S
C1118 C1114 1.350 . S
C1118 C1115 1.463 . S
C1118 N1122 1.427 1_655 S
C1119 H1109 0.929 . S
C1119 C1117 1.433 . S
C1119 N1122 1.384 . S
C1120 H1111 0.929 . S
C1120 C1112 1.378 . S
C1120 C1115 1.350 . S
C1121 H1108 0.929 . S
C1121 C1113 1.433 . S
C1121 N1123 1.384 . S
N1122 C1118 1.427 1_455 S
N1122 C1119 1.384 . S
N1123 C1115 1.427 . S
N1123 C1121 1.384 . S
H1124 C1130 0.930 . S
H1125 C1134 0.930 . S
H1126 C1139 0.929 . S
H1127 C1137 0.929 . S
H1128 C1132 0.929 . S
H1129 C1138 0.929 . S
C1130 H1124 0.930 . S
C1130 C1131 1.367 . S
C1130 C1138 1.378 . S
C1131 C1130 1.367 . S
C1131 C1139 1.433 . S
C1132 H1128 0.929 . S
C1132 C1134 1.378 . S
C1132 C1136 1.350 . S
C1133 C1136 1.463 . S
C1133 C1138 1.350 . S
C1133 N1141 1.427 . S
C1134 H1125 0.930 . S
C1134 C1132 1.378 . S
C1134 C1135 1.367 . S
C1135 C1134 1.367 . S
C1135 C1137 1.433 . S
C1136 C1132 1.350 . S
C1136 C1133 1.463 . S
C1136 N1140 1.427 . S
C1137 H1127 0.929 . S
C1137 C1135 1.433 . S
C1137 N1140 1.384 . S
C1138 H1129 0.929 . S
C1138 C1130 1.378 . S
C1138 C1133 1.350 . S
C1139 H1126 0.929 . S
C1139 C1131 1.433 . S
C1139 N1141 1.384 . S
N1140 C1136 1.427 . S
N1140 C1137 1.384 . S
N1141 C1133 1.427 . S
N1141 C1139 1.384 . S
H1142 C1148 0.930 . S
H1143 C1152 0.930 . S
H1144 C1157 0.929 . S
H1145 C1155 0.929 . S
H1146 C1150 0.929 . S
H1147 C1156 0.929 . S
C1148 H1142 0.930 . S
C1148 C1149 1.367 . S
C1148 C1156 1.378 . S
C1149 C1148 1.367 . S
C1149 C1157 1.433 . S
C1150 H1146 0.929 . S
C1150 C1152 1.378 1_655 S
C1150 C1154 1.350 . S
C1151 C1154 1.463 . S
C1151 C1156 1.350 . S
C1151 N1159 1.427 . S
C1152 H1143 0.930 . S
C1152 C1150 1.378 1_455 S
C1152 C1153 1.367 . S
C1153 C1152 1.367 . S
C1153 C1155 1.433 . S
C1154 C1150 1.350 . S
C1154 C1151 1.463 . S
C1154 N1158 1.427 . S
C1155 H1145 0.929 . S
C1155 C1153 1.433 . S
C1155 N1158 1.384 1_455 S
C1156 H1147 0.929 . S
C1156 C1148 1.378 . S
C1156 C1151 1.350 . S
C1157 H1144 0.929 . S
C1157 C1149 1.433 . S
C1157 N1159 1.384 . S
N1158 C1154 1.427 . S
N1158 C1155 1.384 1_655 S
N1159 C1151 1.427 . S
N1159 C1157 1.384 . S
H1160 C1166 0.930 . S
H1161 C1170 0.930 . S
H1162 C1175 0.929 . S
H1163 C1173 0.929 . S
H1164 C1168 0.929 . S
H1165 C1174 0.929 . S
C1166 H1160 0.930 . S
C1166 C1167 1.367 . S
C1166 C1174 1.378 . S
C1167 C1166 1.367 . S
C1167 C1175 1.433 . S
C1168 H1164 0.929 . S
C1168 C1170 1.378 . S
C1168 C1172 1.350 . S
C1169 C1172 1.463 . S
C1169 C1174 1.350 . S
C1169 N1177 1.427 . S
C1170 H1161 0.930 . S
C1170 C1168 1.378 . S
C1170 C1171 1.367 . S
C1171 C1170 1.367 . S
C1171 C1173 1.433 . S
C1172 C1168 1.350 . S
C1172 C1169 1.463 . S
C1172 N1176 1.427 . S
C1173 H1163 0.929 . S
C1173 C1171 1.433 . S
C1173 N1176 1.384 . S
C1174 H1165 0.929 . S
C1174 C1166 1.378 . S
C1174 C1169 1.350 . S
C1175 H1162 0.929 . S
C1175 C1167 1.433 . S
C1175 N1177 1.384 . S
N1176 C1172 1.427 . S
N1176 C1173 1.384 . S
N1177 C1169 1.427 . S
N1177 C1175 1.384 . S
H1178 C1184 0.930 . S
H1179 C1188 0.930 1_545 S
H1180 C1193 0.929 . S
H1181 C1191 0.929 . S
H1182 C1186 0.927 . S
H1183 C1192 0.929 . S
C1184 H1178 0.930 . S
C1184 C1185 1.367 . S
C1184 C1192 1.378 1_655 S
C1185 C1184 1.367 . S
C1185 C1193 1.433 . S
C1186 H1182 0.927 . S
C1186 C1188 1.378 . S
C1186 C1190 1.350 . S
C1187 C1190 1.463 . S
C1187 C1192 1.350 . S
C1187 N1195 1.427 . S
C1188 H1179 0.930 1_565 S
C1188 C1186 1.378 . S
C1188 C1189 1.367 . S
C1189 C1188 1.367 . S
C1189 C1191 1.433 . S
C1190 C1186 1.350 . S
C1190 C1187 1.463 . S
C1190 N1194 1.427 . S
C1191 H1181 0.929 . S
C1191 C1189 1.433 . S
C1191 N1194 1.384 . S
C1192 H1183 0.929 . S
C1192 C1184 1.378 1_455 S
C1192 C1187 1.350 . S
C1193 H1180 0.929 . S
C1193 C1185 1.433 . S
C1193 N1195 1.384 1_655 S
N1194 C1190 1.427 . S
N1194 C1191 1.384 . S
N1195 C1187 1.427 . S
N1195 C1193 1.384 1_455 S
H1196 C1202 0.930 . S
H1197 C1206 0.930 . S
H1198 C1211 0.929 . S
H1199 C1209 0.929 . S
H1200 C1204 0.929 . S
H1201 C1210 0.929 . S
C1202 H1196 0.930 . S
C1202 C1203 1.367 . S
C1202 C1210 1.378 . S
C1203 C1202 1.367 . S
C1203 C1211 1.433 . S
C1204 H1200 0.929 . S
C1204 C1206 1.378 . S
C1204 C1208 1.350 . S
C1205 C1208 1.463 . S
C1205 C1210 1.350 . S
C1205 N1213 1.427 . S
C1206 H1197 0.930 . S
C1206 C1204 1.378 . S
C1206 C1207 1.367 . S
C1207 C1206 1.367 . S
C1207 C1209 1.433 . S
C1208 C1204 1.350 . S
C1208 C1205 1.463 . S
C1208 N1212 1.427 . S
C1209 H1199 0.929 . S
C1209 C1207 1.433 . S
C1209 N1212 1.384 . S
C1210 H1201 0.929 . S
C1210 C1202 1.378 . S
C1210 C1205 1.350 . S
C1211 H1198 0.929 . S
C1211 C1203 1.433 . S
C1211 N1213 1.384 . S
N1212 C1208 1.427 . S
N1212 C1209 1.384 . S
N1213 C1205 1.427 . S
N1213 C1211 1.384 . S
H1214 C1220 0.930 . S
H1215 C1224 0.930 . S
H1216 C1229 0.929 . S
H1217 C1227 0.929 . S
H1218 C1222 0.929 . S
H1219 C1228 0.929 . S
C1220 H1214 0.930 . S
C1220 C1221 1.367 . S
C1220 C1228 1.378 . S
C1221 C1220 1.367 . S
C1221 C1229 1.433 1_655 S
C1222 H1218 0.929 . S
C1222 C1224 1.378 . S
C1222 C1226 1.350 . S
C1223 C1226 1.463 . S
C1223 C1228 1.350 1_455 S
C1223 N1231 1.427 . S
C1224 H1215 0.930 . S
C1224 C1222 1.378 . S
C1224 C1225 1.367 . S
C1225 C1224 1.367 . S
C1225 C1227 1.433 . S
C1226 C1222 1.350 . S
C1226 C1223 1.463 . S
C1226 N1230 1.427 . S
C1227 H1217 0.929 . S
C1227 C1225 1.433 . S
C1227 N1230 1.384 . S
C1228 H1219 0.929 . S
C1228 C1220 1.378 . S
C1228 C1223 1.350 1_655 S
C1229 H1216 0.929 . S
C1229 C1221 1.433 1_455 S
C1229 N1231 1.384 . S
N1230 C1226 1.427 . S
N1230 C1227 1.384 . S
N1231 C1223 1.427 . S
N1231 C1229 1.384 . S
H1232 C1238 0.930 . S
H1233 C1242 0.930 . S
H1234 C1247 0.929 . S
H1235 C1245 0.929 . S
H1236 C1240 0.929 . S
H1237 C1246 0.929 . S
C1238 H1232 0.930 . S
C1238 C1239 1.367 . S
C1238 C1246 1.378 . S
C1239 C1238 1.367 . S
C1239 C1247 1.433 . S
C1240 H1236 0.929 . S
C1240 C1242 1.378 . S
C1240 C1244 1.350 . S
C1241 C1244 1.463 . S
C1241 C1246 1.350 . S
C1241 N1249 1.427 . S
C1242 H1233 0.930 . S
C1242 C1240 1.378 . S
C1242 C1243 1.367 . S
C1243 C1242 1.367 . S
C1243 C1245 1.433 . S
C1244 C1240 1.350 . S
C1244 C1241 1.463 . S
C1244 N1248 1.427 . S
C1245 H1235 0.929 . S
C1245 C1243 1.433 . S
C1245 N1248 1.384 . S
C1246 H1237 0.929 . S
C1246 C1238 1.378 . S
C1246 C1241 1.350 . S
C1247 H1234 0.929 . S
C1247 C1239 1.433 . S
C1247 N1249 1.384 . S
N1248 C1244 1.427 . S
N1248 C1245 1.384 . S
N1249 C1241 1.427 . S
N1249 C1247 1.384 . S
H1250 C1256 0.930 . S
H1251 C1260 0.930 . S
H1252 C1265 0.929 . S
H1253 C1263 0.929 . S
H1254 C1258 0.929 . S
H1255 C1264 0.929 . S
C1256 H1250 0.930 . S
C1256 C1257 1.367 . S
C1256 C1264 1.378 . S
C1257 C1256 1.367 . S
C1257 C1265 1.433 1_455 S
C1258 H1254 0.929 . S
C1258 C1260 1.378 . S
C1258 C1262 1.350 . S
C1259 C1262 1.463 . S
C1259 C1264 1.350 1_655 S
C1259 N1267 1.427 . S
C1260 H1251 0.930 . S
C1260 C1258 1.378 . S
C1260 C1261 1.367 . S
C1261 C1260 1.367 . S
C1261 C1263 1.433 . S
C1262 C1258 1.350 . S
C1262 C1259 1.463 . S
C1262 N1266 1.427 . S
C1263 H1253 0.929 . S
C1263 C1261 1.433 . S
C1263 N1266 1.384 . S
C1264 H1255 0.929 . S
C1264 C1256 1.378 . S
C1264 C1259 1.350 1_455 S
C1265 H1252 0.929 . S
C1265 C1257 1.433 1_655 S
C1265 N1267 1.384 . S
N1266 C1262 1.427 . S
N1266 C1263 1.384 . S
N1267 C1259 1.427 . S
N1267 C1265 1.384 . S
H1268 C1274 0.930 . S
H1269 C1278 0.930 . S
H1270 C1283 0.929 . S
H1271 C1281 0.929 . S
H1272 C1276 0.929 . S
H1273 C1282 0.929 . S
C1274 H1268 0.930 . S
C1274 C1275 1.367 . S
C1274 C1282 1.378 . S
C1275 C1274 1.367 . S
C1275 C1283 1.433 . S
C1276 H1272 0.929 . S
C1276 C1278 1.378 . S
C1276 C1280 1.350 . S
C1277 C1280 1.463 . S
C1277 C1282 1.350 . S
C1277 N1285 1.427 . S
C1278 H1269 0.930 . S
C1278 C1276 1.378 . S
C1278 C1279 1.367 . S
C1279 C1278 1.367 . S
C1279 C1281 1.433 . S
C1280 C1276 1.350 . S
C1280 C1277 1.463 . S
C1280 N1284 1.427 . S
C1281 H1271 0.929 . S
C1281 C1279 1.433 . S
C1281 N1284 1.384 . S
C1282 H1273 0.929 . S
C1282 C1274 1.378 . S
C1282 C1277 1.350 . S
C1283 H1270 0.929 . S
C1283 C1275 1.433 . S
C1283 N1285 1.384 . S
N1284 C1280 1.427 . S
N1284 C1281 1.384 . S
N1285 C1277 1.427 . S
N1285 C1283 1.384 . S
H1286 C1292 0.930 . S
H1287 C1296 0.930 . S
H1288 C1301 0.929 . S
H1289 C1299 0.929 . S
H1290 C1294 0.929 . S
H1291 C1300 0.929 . S
C1292 H1286 0.930 . S
C1292 C1293 1.367 . S
C1292 C1300 1.378 . S
C1293 C1292 1.367 . S
C1293 C1301 1.433 . S
C1294 H1290 0.929 . S
C1294 C1296 1.378 . S
C1294 C1298 1.350 . S
C1295 C1298 1.463 . S
C1295 C1300 1.350 . S
C1295 N1303 1.427 . S
C1296 H1287 0.930 . S
C1296 C1294 1.378 . S
C1296 C1297 1.367 1_655 S
C1297 C1296 1.367 1_455 S
C1297 C1299 1.433 . S
C1298 C1294 1.350 . S
C1298 C1295 1.463 . S
C1298 N1302 1.427 1_655 S
C1299 H1289 0.929 . S
C1299 C1297 1.433 . S
C1299 N1302 1.384 . S
C1300 H1291 0.929 . S
C1300 C1292 1.378 . S
C1300 C1295 1.350 . S
C1301 H1288 0.929 . S
C1301 C1293 1.433 . S
C1301 N1303 1.384 . S
N1302 C1298 1.427 1_455 S
N1302 C1299 1.384 . S
N1303 C1295 1.427 . S
N1303 C1301 1.384 . S
H1304 C1310 0.930 . S
H1305 C1314 0.930 . S
H1306 C1319 0.929 . S
H1307 C1317 0.929 . S
H1308 C1312 0.929 . S
H1309 C1318 0.929 . S
C1310 H1304 0.930 . S
C1310 C1311 1.367 . S
C1310 C1318 1.378 . S
C1311 C1310 1.367 . S
C1311 C1319 1.433 . S
C1312 H1308 0.929 . S
C1312 C1314 1.378 . S
C1312 C1316 1.350 . S
C1313 C1316 1.463 . S
C1313 C1318 1.350 . S
C1313 N1321 1.427 . S
C1314 H1305 0.930 . S
C1314 C1312 1.378 . S
C1314 C1315 1.367 . S
C1315 C1314 1.367 . S
C1315 C1317 1.433 . S
C1316 C1312 1.350 . S
C1316 C1313 1.463 . S
C1316 N1320 1.427 . S
C1317 H1307 0.929 . S
C1317 C1315 1.433 . S
C1317 N1320 1.384 . S
C1318 H1309 0.929 . S
C1318 C1310 1.378 . S
C1318 C1313 1.350 . S
C1319 H1306 0.929 . S
C1319 C1311 1.433 . S
C1319 N1321 1.384 . S
N1320 C1316 1.427 . S
N1320 C1317 1.384 . S
N1321 C1313 1.427 . S
N1321 C1319 1.384 . S
H1322 C1328 0.930 . S
H1323 C1332 0.930 . S
H1324 C1337 0.929 . S
H1325 C1335 0.929 . S
H1326 C1330 0.929 . S
H1327 C1336 0.929 . S
C1328 H1322 0.930 . S
C1328 C1329 1.367 . S
C1328 C1336 1.378 . S
C1329 C1328 1.367 . S
C1329 C1337 1.433 . S
C1330 H1326 0.929 . S
C1330 C1332 1.378 . S
C1330 C1334 1.350 . S
C1331 C1334 1.463 . S
C1331 C1336 1.350 . S
C1331 N1339 1.427 . S
C1332 H1323 0.930 . S
C1332 C1330 1.378 . S
C1332 C1333 1.367 1_455 S
C1333 C1332 1.367 1_655 S
C1333 C1335 1.433 . S
C1334 C1330 1.350 . S
C1334 C1331 1.463 . S
C1334 N1338 1.427 1_455 S
C1335 H1325 0.929 . S
C1335 C1333 1.433 . S
C1335 N1338 1.384 . S
C1336 H1327 0.929 . S
C1336 C1328 1.378 . S
C1336 C1331 1.350 . S
C1337 H1324 0.929 . S
C1337 C1329 1.433 . S
C1337 N1339 1.384 . S
N1338 C1334 1.427 1_655 S
N1338 C1335 1.384 . S
N1339 C1331 1.427 . S
N1339 C1337 1.384 . S
H1340 C1346 0.930 . S
H1341 C1350 0.930 . S
H1342 C1355 0.929 . S
H1343 C1353 0.929 . S
H1344 C1348 0.929 . S
H1345 C1354 0.929 . S
C1346 H1340 0.930 . S
C1346 C1347 1.367 . S
C1346 C1354 1.378 . S
C1347 C1346 1.367 . S
C1347 C1355 1.433 . S
C1348 H1344 0.929 . S
C1348 C1350 1.378 . S
C1348 C1352 1.350 . S
C1349 C1352 1.463 . S
C1349 C1354 1.350 . S
C1349 N1357 1.427 . S
C1350 H1341 0.930 . S
C1350 C1348 1.378 . S
C1350 C1351 1.367 . S
C1351 C1350 1.367 . S
C1351 C1353 1.433 . S
C1352 C1348 1.350 . S
C1352 C1349 1.463 . S
C1352 N1356 1.427 . S
C1353 H1343 0.929 . S
C1353 C1351 1.433 . S
C1353 N1356 1.384 . S
C1354 H1345 0.929 . S
C1354 C1346 1.378 . S
C1354 C1349 1.350 . S
C1355 H1342 0.929 . S
C1355 C1347 1.433 . S
C1355 N1357 1.384 . S
N1356 C1352 1.427 . S
N1356 C1353 1.384 . S
N1357 C1349 1.427 . S
N1357 C1355 1.384 . S
H1358 C1364 0.930 . S
H1359 C1368 0.930 . S
H1360 C1373 0.929 . S
H1361 C1371 0.929 . S
H1362 C1366 0.929 . S
H1363 C1372 0.929 . S
C1364 H1358 0.930 . S
C1364 C1365 1.367 . S
C1364 C1372 1.378 . S
C1365 C1364 1.367 . S
C1365 C1373 1.433 . S
C1366 H1362 0.929 . S
C1366 C1368 1.378 1_455 S
C1366 C1370 1.350 . S
C1367 C1370 1.463 . S
C1367 C1372 1.350 . S
C1367 N1375 1.427 . S
C1368 H1359 0.930 . S
C1368 C1366 1.378 1_655 S
C1368 C1369 1.367 . S
C1369 C1368 1.367 . S
C1369 C1371 1.433 . S
C1370 C1366 1.350 . S
C1370 C1367 1.463 . S
C1370 N1374 1.427 . S
C1371 H1361 0.929 . S
C1371 C1369 1.433 . S
C1371 N1374 1.384 1_655 S
C1372 H1363 0.929 . S
C1372 C1364 1.378 . S
C1372 C1367 1.350 . S
C1373 H1360 0.929 . S
C1373 C1365 1.433 . S
C1373 N1375 1.384 . S
N1374 C1370 1.427 . S
N1374 C1371 1.384 1_455 S
N1375 C1367 1.427 . S
N1375 C1373 1.384 . S
H1376 C1382 0.930 . S
H1377 C1386 0.930 . S
H1378 C1391 0.929 . S
H1379 C1389 0.929 . S
H1380 C1384 0.929 . S
H1381 C1390 0.929 . S
C1382 H1376 0.930 . S
C1382 C1383 1.367 . S
C1382 C1390 1.378 . S
C1383 C1382 1.367 . S
C1383 C1391 1.433 . S
C1384 H1380 0.929 . S
C1384 C1386 1.378 . S
C1384 C1388 1.350 . S
C1385 C1388 1.463 . S
C1385 C1390 1.350 . S
C1385 N1393 1.427 . S
C1386 H1377 0.930 . S
C1386 C1384 1.378 . S
C1386 C1387 1.367 . S
C1387 C1386 1.367 . S
C1387 C1389 1.433 . S
C1388 C1384 1.350 . S
C1388 C1385 1.463 . S
C1388 N1392 1.427 . S
C1389 H1379 0.929 . S
C1389 C1387 1.433 . S
C1389 N1392 1.384 . S
C1390 H1381 0.929 . S
C1390 C1382 1.378 . S
C1390 C1385 1.350 . S
C1391 H1378 0.929 . S
C1391 C1383 1.433 . S
C1391 N1393 1.384 . S
N1392 C1388 1.427 . S
N1392 C1389 1.384 . S
N1393 C1385 1.427 . S
N1393 C1391 1.384 . S
H1394 C1400 0.930 1_545 S
H1395 C1404 0.930 1_565 S
H1396 C1409 0.929 . S
H1397 C1407 0.929 . S
H1398 C1402 0.929 . S
H1399 C1408 0.929 . S
C1400 H1394 0.930 1_565 S
C1400 C1401 1.367 . S
C1400 C1408 1.378 1_665 S
C1401 C1400 1.367 . S
C1401 C1409 1.433 . S
C1402 H1398 0.929 . S
C1402 C1404 1.378 1_665 S
C1402 C1406 1.350 1_665 S
C1403 C1406 1.463 1_665 S
C1403 C1408 1.350 1_665 S
C1403 N1411 1.427 . S
C1404 H1395 0.930 1_545 S
C1404 C1402 1.378 1_445 S
C1404 C1405 1.367 . S
C1405 C1404 1.367 . S
C1405 C1407 1.433 . S
C1406 C1402 1.350 1_445 S
C1406 C1403 1.463 1_445 S
C1406 N1410 1.427 . S
C1407 H1397 0.929 . S
C1407 C1405 1.433 . S
C1407 N1410 1.384 . S
C1408 H1399 0.929 . S
C1408 C1400 1.378 1_445 S
C1408 C1403 1.350 1_445 S
C1409 H1396 0.929 . S
C1409 C1401 1.433 . S
C1409 N1411 1.384 . S
N1410 C1406 1.427 . S
N1410 C1407 1.384 . S
N1411 C1403 1.427 . S
N1411 C1409 1.384 . S
H1412 C1418 0.930 . S
H1413 C1422 0.930 . S
H1414 C1427 0.929 . S
H1415 C1425 0.929 . S
H1416 C1420 0.929 . S
H1417 C1426 0.929 . S
C1418 H1412 0.930 . S
C1418 C1419 1.367 . S
C1418 C1426 1.378 1_565 S
C1419 C1418 1.367 . S
C1419 C1427 1.433 . S
C1420 H1416 0.929 . S
C1420 C1422 1.378 1_565 S
C1420 C1424 1.350 1_565 S
C1421 C1424 1.463 1_565 S
C1421 C1426 1.350 1_565 S
C1421 N1429 1.427 . S
C1422 H1413 0.930 . S
C1422 C1420 1.378 1_545 S
C1422 C1423 1.367 . S
C1423 C1422 1.367 . S
C1423 C1425 1.433 . S
C1424 C1420 1.350 1_545 S
C1424 C1421 1.463 1_545 S
C1424 N1428 1.427 . S
C1425 H1415 0.929 . S
C1425 C1423 1.433 . S
C1425 N1428 1.384 . S
C1426 H1417 0.929 . S
C1426 C1418 1.378 1_545 S
C1426 C1421 1.350 1_545 S
C1427 H1414 0.929 . S
C1427 C1419 1.433 . S
C1427 N1429 1.384 . S
N1428 C1424 1.427 . S
N1428 C1425 1.384 . S
N1429 C1421 1.427 . S
N1429 C1427 1.384 . S
H1430 C1436 0.930 . S
H1431 C1440 0.930 . S
H1432 C1445 0.929 . S
H1433 C1443 0.929 . S
H1434 C1438 0.929 . S
H1435 C1444 0.929 . S
C1436 H1430 0.930 . S
C1436 C1437 1.367 . S
C1436 C1444 1.378 . S
C1437 C1436 1.367 . S
C1437 C1445 1.433 1_455 S
C1438 H1434 0.929 . S
C1438 C1440 1.378 . S
C1438 C1442 1.350 . S
C1439 C1442 1.463 1_455 S
C1439 C1444 1.350 . S
C1439 N1447 1.427 1_455 S
C1440 H1431 0.930 . S
C1440 C1438 1.378 . S
C1440 C1441 1.367 . S
C1441 C1440 1.367 . S
C1441 C1443 1.433 1_655 S
C1442 C1438 1.350 . S
C1442 C1439 1.463 1_655 S
C1442 N1446 1.427 1_655 S
C1443 H1433 0.929 . S
C1443 C1441 1.433 1_455 S
C1443 N1446 1.384 . S
C1444 H1435 0.929 . S
C1444 C1436 1.378 . S
C1444 C1439 1.350 . S
C1445 H1432 0.929 . S
C1445 C1437 1.433 1_655 S
C1445 N1447 1.384 . S
N1446 C1442 1.427 1_455 S
N1446 C1443 1.384 . S
N1447 C1439 1.427 1_655 S
N1447 C1445 1.384 . S
H1448 C1454 0.930 . S
H1449 C1458 0.930 . S
H1450 C1463 0.929 . S
H1451 C1461 0.929 . S
H1452 C1456 0.929 . S
H1453 C1462 0.929 . S
C1454 H1448 0.930 . S
C1454 C1455 1.367 . S
C1454 C1462 1.378 . S
C1455 C1454 1.367 . S
C1455 C1463 1.433 . S
C1456 H1452 0.929 . S
C1456 C1458 1.378 . S
C1456 C1460 1.350 . S
C1457 C1460 1.463 . S
C1457 C1462 1.350 . S
C1457 N1465 1.427 . S
C1458 H1449 0.930 . S
C1458 C1456 1.378 . S
C1458 C1459 1.367 . S
C1459 C1458 1.367 . S
C1459 C1461 1.433 . S
C1460 C1456 1.350 . S
C1460 C1457 1.463 . S
C1460 N1464 1.427 . S
C1461 H1451 0.929 . S
C1461 C1459 1.433 . S
C1461 N1464 1.384 . S
C1462 H1453 0.929 . S
C1462 C1454 1.378 . S
C1462 C1457 1.350 . S
C1463 H1450 0.929 . S
C1463 C1455 1.433 . S
C1463 N1465 1.384 . S
N1464 C1460 1.427 . S
N1464 C1461 1.384 . S
N1465 C1457 1.427 . S
N1465 C1463 1.384 . S
H1466 C1472 0.930 . S
H1467 C1476 0.930 . S
H1468 C1481 0.929 . S
H1469 C1479 0.929 . S
H1470 C1474 0.929 . S
H1471 C1480 0.929 . S
C1472 H1466 0.930 . S
C1472 C1473 1.367 . S
C1472 C1480 1.378 . S
C1473 C1472 1.367 . S
C1473 C1481 1.433 . S
C1474 H1470 0.929 . S
C1474 C1476 1.378 . S
C1474 C1478 1.350 . S
C1475 C1478 1.463 1_565 S
C1475 C1480 1.350 . S
C1475 N1483 1.427 . S
C1476 H1467 0.930 . S
C1476 C1474 1.378 . S
C1476 C1477 1.367 . S
C1477 C1476 1.367 . S
C1477 C1479 1.433 . S
C1478 C1474 1.350 . S
C1478 C1475 1.463 1_545 S
C1478 N1482 1.427 . S
C1479 H1469 0.929 . S
C1479 C1477 1.433 . S
C1479 N1482 1.384 . S
C1480 H1471 0.929 . S
C1480 C1472 1.378 . S
C1480 C1475 1.350 . S
C1481 H1468 0.929 . S
C1481 C1473 1.433 . S
C1481 N1483 1.384 . S
N1482 C1478 1.427 . S
N1482 C1479 1.384 . S
N1483 C1475 1.427 . S
N1483 C1481 1.384 . S
H1484 C1490 0.930 . S
H1485 C1494 0.930 . S
H1486 C1499 0.929 . S
H1487 C1497 0.929 . S
H1488 C1492 0.929 . S
H1489 C1498 0.929 . S
C1490 H1484 0.930 . S
C1490 C1491 1.367 1_655 S
C1490 C1498 1.378 . S
C1491 C1490 1.367 1_455 S
C1491 C1499 1.433 . S
C1492 H1488 0.929 . S
C1492 C1494 1.378 . S
C1492 C1496 1.350 1_455 S
C1493 C1496 1.463 1_455 S
C1493 C1498 1.350 1_455 S
C1493 N1501 1.427 . S
C1494 H1485 0.930 . S
C1494 C1492 1.378 . S
C1494 C1495 1.367 1_455 S
C1495 C1494 1.367 1_655 S
C1495 C1497 1.433 . S
C1496 C1492 1.350 1_655 S
C1496 C1493 1.463 1_655 S
C1496 N1500 1.427 . S
C1497 H1487 0.929 . S
C1497 C1495 1.433 . S
C1497 N1500 1.384 . S
C1498 H1489 0.929 . S
C1498 C1490 1.378 . S
C1498 C1493 1.350 1_655 S
C1499 H1486 0.929 . S
C1499 C1491 1.433 . S
C1499 N1501 1.384 . S
N1500 C1496 1.427 . S
N1500 C1497 1.384 . S
N1501 C1493 1.427 . S
N1501 C1499 1.384 . S
H1502 C1508 0.930 . S
H1503 C1512 0.930 . S
H1504 C1517 0.929 . S
H1505 C1515 0.929 . S
H1506 C1510 0.929 . S
H1507 C1516 0.929 . S
C1508 H1502 0.930 . S
C1508 C1509 1.367 . S
C1508 C1516 1.378 . S
C1509 C1508 1.367 . S
C1509 C1517 1.433 . S
C1510 H1506 0.929 . S
C1510 C1512 1.378 . S
C1510 C1514 1.350 . S
C1511 C1514 1.463 1_554 S
C1511 C1516 1.350 . S
C1511 N1519 1.427 . S
C1512 H1503 0.930 . S
C1512 C1510 1.378 . S
C1512 C1513 1.367 . S
C1513 C1512 1.367 . S
C1513 C1515 1.433 . S
C1514 C1510 1.350 . S
C1514 C1511 1.463 1_556 S
C1514 N1518 1.427 . S
C1515 H1505 0.929 . S
C1515 C1513 1.433 . S
C1515 N1518 1.384 . S
C1516 H1507 0.929 . S
C1516 C1508 1.378 . S
C1516 C1511 1.350 . S
C1517 H1504 0.929 . S
C1517 C1509 1.433 . S
C1517 N1519 1.384 . S
N1518 C1514 1.427 . S
N1518 C1515 1.384 . S
N1519 C1511 1.427 . S
N1519 C1517 1.384 . S
H1520 C1526 0.930 . S
H1521 C1530 0.930 . S
H1522 C1535 0.929 . S
H1523 C1533 0.929 . S
H1524 C1528 0.929 . S
H1525 C1534 0.929 . S
C1526 H1520 0.930 . S
C1526 C1527 1.367 1_655 S
C1526 C1534 1.378 . S
C1527 C1526 1.367 1_455 S
C1527 C1535 1.433 . S
C1528 H1524 0.929 . S
C1528 C1530 1.378 . S
C1528 C1532 1.350 1_455 S
C1529 C1532 1.463 1_456 S
C1529 C1534 1.350 1_455 S
C1529 N1537 1.427 . S
C1530 H1521 0.930 . S
C1530 C1528 1.378 . S
C1530 C1531 1.367 1_455 S
C1531 C1530 1.367 1_655 S
C1531 C1533 1.433 . S
C1532 C1528 1.350 1_655 S
C1532 C1529 1.463 1_654 S
C1532 N1536 1.427 . S
C1533 H1523 0.929 . S
C1533 C1531 1.433 . S
C1533 N1536 1.384 . S
C1534 H1525 0.929 . S
C1534 C1526 1.378 . S
C1534 C1529 1.350 1_655 S
C1535 H1522 0.929 . S
C1535 C1527 1.433 . S
C1535 N1537 1.384 . S
N1536 C1532 1.427 . S
N1536 C1533 1.384 . S
N1537 C1529 1.427 . S
N1537 C1535 1.384 . S
H1538 C1544 0.930 . S
H1539 C1548 0.930 . S
H1540 C1553 0.929 . S
H1541 C1551 0.929 . S
H1542 C1546 0.929 . S
H1543 C1552 0.929 . S
C1544 H1538 0.930 . S
C1544 C1545 1.367 . S
C1544 C1552 1.378 . S
C1545 C1544 1.367 . S
C1545 C1553 1.433 . S
C1546 H1542 0.929 . S
C1546 C1548 1.378 . S
C1546 C1550 1.350 . S
C1547 C1550 1.463 . S
C1547 C1552 1.350 . S
C1547 N1555 1.427 . S
C1548 H1539 0.930 . S
C1548 C1546 1.378 . S
C1548 C1549 1.367 . S
C1549 C1548 1.367 . S
C1549 C1551 1.433 . S
C1550 C1546 1.350 . S
C1550 C1547 1.463 . S
C1550 N1554 1.427 . S
C1551 H1541 0.929 . S
C1551 C1549 1.433 . S
C1551 N1554 1.384 . S
C1552 H1543 0.929 . S
C1552 C1544 1.378 . S
C1552 C1547 1.350 . S
C1553 H1540 0.929 . S
C1553 C1545 1.433 . S
C1553 N1555 1.384 . S
N1554 C1550 1.427 . S
N1554 C1551 1.384 . S
N1555 C1547 1.427 . S
N1555 C1553 1.384 . S
H1556 C1562 0.930 . S
H1557 C1566 0.930 . S
H1558 C1571 0.929 . S
H1559 C1569 0.929 . S
H1560 C1564 0.929 . S
H1561 C1570 0.929 . S
C1562 H1556 0.930 . S
C1562 C1563 1.367 . S
C1562 C1570 1.378 . S
C1563 C1562 1.367 . S
C1563 C1571 1.433 . S
C1564 H1560 0.929 . S
C1564 C1566 1.378 . S
C1564 C1568 1.350 . S
C1565 C1568 1.463 1_556 S
C1565 C1570 1.350 . S
C1565 N1573 1.427 . S
C1566 H1557 0.930 . S
C1566 C1564 1.378 . S
C1566 C1567 1.367 . S
C1567 C1566 1.367 . S
C1567 C1569 1.433 . S
C1568 C1564 1.350 . S
C1568 C1565 1.463 1_554 S
C1568 N1572 1.427 . S
C1569 H1559 0.929 . S
C1569 C1567 1.433 . S
C1569 N1572 1.384 . S
C1570 H1561 0.929 . S
C1570 C1562 1.378 . S
C1570 C1565 1.350 . S
C1571 H1558 0.929 . S
C1571 C1563 1.433 . S
C1571 N1573 1.384 . S
N1572 C1568 1.427 . S
N1572 C1569 1.384 . S
N1573 C1565 1.427 . S
N1573 C1571 1.384 . S
H1574 C1580 0.930 . S
H1575 C1584 0.930 . S
H1576 C1589 0.929 . S
H1577 C1587 0.929 . S
H1578 C1582 0.929 . S
H1579 C1588 0.929 . S
C1580 H1574 0.930 . S
C1580 C1581 1.367 . S
C1580 C1588 1.378 . S
C1581 C1580 1.367 . S
C1581 C1589 1.433 . S
C1582 H1578 0.929 . S
C1582 C1584 1.378 . S
C1582 C1586 1.350 . S
C1583 C1586 1.463 . S
C1583 C1588 1.350 . S
C1583 N1591 1.427 . S
C1584 H1575 0.930 . S
C1584 C1582 1.378 . S
C1584 C1585 1.367 . S
C1585 C1584 1.367 . S
C1585 C1587 1.433 . S
C1586 C1582 1.350 . S
C1586 C1583 1.463 . S
C1586 N1590 1.427 . S
C1587 H1577 0.929 . S
C1587 C1585 1.433 . S
C1587 N1590 1.384 . S
C1588 H1579 0.929 . S
C1588 C1580 1.378 . S
C1588 C1583 1.350 . S
C1589 H1576 0.929 . S
C1589 C1581 1.433 . S
C1589 N1591 1.384 . S
N1590 C1586 1.427 . S
N1590 C1587 1.384 . S
N1591 C1583 1.427 . S
N1591 C1589 1.384 . S
H1592 C1598 0.930 . S
H1593 C1602 0.930 . S
H1594 C1607 0.929 . S
H1595 C1605 0.929 . S
H1596 C1600 0.929 . S
H1597 C1606 0.929 . S
C1598 H1592 0.930 . S
C1598 C1599 1.367 . S
C1598 C1606 1.378 1_545 S
C1599 C1598 1.367 . S
C1599 C1607 1.433 . S
C1600 H1596 0.929 . S
C1600 C1602 1.378 1_545 S
C1600 C1604 1.350 1_545 S
C1601 C1604 1.463 1_546 S
C1601 C1606 1.350 1_545 S
C1601 N1609 1.427 . S
C1602 H1593 0.930 . S
C1602 C1600 1.378 1_565 S
C1602 C1603 1.367 . S
C1603 C1602 1.367 . S
C1603 C1605 1.433 . S
C1604 C1600 1.350 1_565 S
C1604 C1601 1.463 1_564 S
C1604 N1608 1.427 . S
C1605 H1595 0.929 . S
C1605 C1603 1.433 . S
C1605 N1608 1.384 . S
C1606 H1597 0.929 . S
C1606 C1598 1.378 1_565 S
C1606 C1601 1.350 1_565 S
C1607 H1594 0.929 . S
C1607 C1599 1.433 . S
C1607 N1609 1.384 . S
N1608 C1604 1.427 . S
N1608 C1605 1.384 . S
N1609 C1601 1.427 . S
N1609 C1607 1.384 . S
H1610 C1616 0.930 . S
H1611 C1620 0.930 . S
H1612 C1625 0.929 . S
H1613 C1623 0.929 . S
H1614 C1618 0.929 . S
H1615 C1624 0.929 . S
C1616 H1610 0.930 . S
C1616 C1617 1.367 . S
C1616 C1624 1.378 . S
C1617 C1616 1.367 . S
C1617 C1625 1.433 . S
C1618 H1614 0.929 . S
C1618 C1620 1.378 . S
C1618 C1622 1.350 . S
C1619 C1622 1.463 . S
C1619 C1624 1.350 . S
C1619 N1627 1.427 . S
C1620 H1611 0.930 . S
C1620 C1618 1.378 . S
C1620 C1621 1.367 . S
C1621 C1620 1.367 . S
C1621 C1623 1.433 . S
C1622 C1618 1.350 . S
C1622 C1619 1.463 . S
C1622 N1626 1.427 . S
C1623 H1613 0.929 . S
C1623 C1621 1.433 . S
C1623 N1626 1.384 . S
C1624 H1615 0.929 . S
C1624 C1616 1.378 . S
C1624 C1619 1.350 . S
C1625 H1612 0.929 . S
C1625 C1617 1.433 . S
C1625 N1627 1.384 . S
N1626 C1622 1.427 . S
N1626 C1623 1.384 . S
N1627 C1619 1.427 . S
N1627 C1625 1.384 . S
H1628 C1634 0.930 . S
H1629 C1638 0.930 . S
H1630 C1643 0.929 . S
H1631 C1641 0.929 . S
H1632 C1636 0.929 . S
H1633 C1642 0.929 . S
C1634 H1628 0.930 . S
C1634 C1635 1.367 . S
C1634 C1642 1.378 . S
C1635 C1634 1.367 . S
C1635 C1643 1.433 . S
C1636 H1632 0.929 . S
C1636 C1638 1.378 . S
C1636 C1640 1.350 . S
C1637 C1640 1.463 . S
C1637 C1642 1.350 . S
C1637 N1645 1.427 . S
C1638 H1629 0.930 . S
C1638 C1636 1.378 . S
C1638 C1639 1.367 . S
C1639 C1638 1.367 . S
C1639 C1641 1.433 . S
C1640 C1636 1.350 . S
C1640 C1637 1.463 . S
C1640 N1644 1.427 . S
C1641 H1631 0.929 . S
C1641 C1639 1.433 . S
C1641 N1644 1.384 . S
C1642 H1633 0.929 . S
C1642 C1634 1.378 . S
C1642 C1637 1.350 . S
C1643 H1630 0.929 . S
C1643 C1635 1.433 . S
C1643 N1645 1.384 . S
N1644 C1640 1.427 . S
N1644 C1641 1.384 . S
N1645 C1637 1.427 . S
N1645 C1643 1.384 . S
H1646 C1652 0.930 . S
H1647 C1656 0.930 . S
H1648 C1661 0.929 . S
H1649 C1659 0.929 . S
H1650 C1654 0.929 . S
H1651 C1660 0.929 . S
C1652 H1646 0.930 . S
C1652 C1653 1.367 . S
C1652 C1660 1.378 . S
C1653 C1652 1.367 . S
C1653 C1661 1.433 . S
C1654 H1650 0.929 . S
C1654 C1656 1.378 . S
C1654 C1658 1.350 . S
C1655 C1658 1.463 . S
C1655 C1660 1.350 . S
C1655 N1663 1.427 . S
C1656 H1647 0.930 . S
C1656 C1654 1.378 . S
C1656 C1657 1.367 . S
C1657 C1656 1.367 . S
C1657 C1659 1.433 . S
C1658 C1654 1.350 . S
C1658 C1655 1.463 . S
C1658 N1662 1.427 . S
C1659 H1649 0.929 . S
C1659 C1657 1.433 . S
C1659 N1662 1.384 . S
C1660 H1651 0.929 . S
C1660 C1652 1.378 . S
C1660 C1655 1.350 . S
C1661 H1648 0.929 . S
C1661 C1653 1.433 . S
C1661 N1663 1.384 . S
N1662 C1658 1.427 . S
N1662 C1659 1.384 . S
N1663 C1655 1.427 . S
N1663 C1661 1.384 . S
C519 C16 0.864 . S
C523 C404 0.864 . S
C537 C20 0.867 1_665 S
C541 C400 0.867 . S
C555 C48 0.875 1_565 S
C559 C436 0.875 . S
C573 C52 0.873 1_655 S
C577 C432 0.873 . S
C591 C464 0.874 . S
C595 C84 0.874 . S
C609 C80 0.865 1_445 S
C613 C468 0.865 . S
C627 C116 0.863 1_545 S
C631 C496 0.863 . S
C645 C112 0.863 1_455 S
C649 C500 0.863 . S
C663 C276 0.872 1_565 S
C667 C144 0.872 . S
C681 C272 0.862 . S
C685 C148 0.862 1_655 S
C699 C308 0.870 . S
C703 C176 0.870 . S
C717 C304 0.874 1_565 S
C721 C180 0.874 1_655 S
C735 C336 0.863 1_545 S
C739 C212 0.863 . S
C753 C208 0.863 1_455 S
C757 C340 0.863 . S
C771 C368 0.874 . S
C775 C244 0.874 . S
C789 C240 0.875 1_455 S
C793 C372 0.875 1_545 S
C807 C23 1.560 1_565 S
C811 C403 1.560 . S
C825 C19 1.553 . S
C829 C407 1.553 . S
C843 C55 1.552 . S
C847 C435 1.552 . S
C861 C439 1.551 . S
C865 C51 1.551 1_565 S
C879 C471 1.560 . S
C883 C83 1.560 1_545 S
C897 C467 1.561 . S
C901 C87 1.561 . S
C915 C503 1.553 . S
C919 C115 1.553 . S
C933 C499 1.552 . S
C937 C119 1.552 1_545 S
C951 C151 1.562 . S
C955 C275 1.562 . S
C969 C147 1.558 . S
C973 C279 1.558 1_565 S
C987 C183 1.561 . S
C991 C307 1.561 1_565 S
C1005 C179 1.562 . S
C1009 C311 1.562 . S
C1023 C343 1.558 . S
C1027 C211 1.558 . S
C1041 C339 1.552 1_545 S
C1045 C215 1.552 . S
C1059 C375 1.551 1_545 S
C1063 C243 1.551 . S
C1077 C247 1.562 . S
C1081 C371 1.562 . S
C1095 C22 1.991 . S
C1099 C305 1.965 . S
C1113 C310 1.987 . S
C1117 C17 1.960 . S
C1131 C273 1.958 . S
C1135 C54 1.993 . S
C1149 C278 1.991 . S
C1153 C49 1.956 . S
C1167 C373 1.955 . S
C1171 C82 1.990 . S
C1185 C85 1.955 . S
C1189 C370 1.991 . S
C1203 C114 1.987 . S
C1207 C341 1.960 . S
C1221 C117 1.965 . S
C1225 C338 1.993 . S
C1239 C433 1.962 . S
C1243 C150 1.988 . S
C1257 C145 1.960 . S
C1261 C438 1.994 . S
C1275 C182 1.986 . S
C1279 C401 1.959 . S
C1293 C406 1.986 . S
C1297 C177 1.956 . S
C1311 C501 1.955 . S
C1315 C210 1.990 . S
C1329 C498 1.987 . S
C1333 C213 1.961 . S
C1347 C469 1.965 . S
C1351 C242 1.993 . S
C1365 C466 1.989 . S
C1369 C245 1.963 . S
C1383 C465 1.695 . S
C1387 C21 1.695 . S
C1401 C86 1.685 . S
C1405 C18 1.685 . S
C1419 C369 1.694 . S
C1423 C53 1.694 . S
C1437 C50 1.689 . S
C1441 C246 1.689 . S
C1455 C405 1.694 . S
C1459 C81 1.694 . S
C1473 C113 1.694 . S
C1477 C309 1.694 . S
C1491 C178 1.694 . S
C1495 C118 1.694 . S
C1509 C337 1.696 . S
C1513 C149 1.696 . S
C1527 C146 1.695 . S
C1531 C214 1.695 . S
C1545 C181 1.694 . S
C1549 C497 1.694 . S
C1563 C277 1.695 . S
C1567 C209 1.695 . S
C1581 C437 1.696 . S
C1585 C241 1.696 . S
C1599 C274 1.687 . S
C1603 C342 1.687 . S
C1617 C306 1.693 . S
C1621 C502 1.693 . S
C1635 C434 1.696 . S
C1639 C374 1.696 . S
C1653 C470 1.691 . S
C1657 C402 1.691 . S
