# Generated by pormake.
# Topology ums, (4)-cn, num edge types: 1
# Building blocks:
#     Node 0, Type 0, BuildingBlock: NAHDIM_clean_sbu_0, # of connection points: 4
#     Node 1, Type 0, BuildingBlock: NAHDIM_clean_sbu_0, # of connection points: 4
#     Node 2, Type 0, BuildingBlock: NAHDIM_clean_sbu_0, # of connection points: 4
#     Node 3, Type 0, BuildingBlock: NAHDIM_clean_sbu_0, # of connection points: 4
#     Node 4, Type 0, BuildingBlock: NAHDIM_clean_sbu_0, # of connection points: 4
#     Node 5, Type 0, BuildingBlock: NAHDIM_clean_sbu_0, # of connection points: 4
#     Node 6, Type 0, BuildingBlock: NAHDIM_clean_sbu_0, # of connection points: 4
#     Node 7, Type 0, BuildingBlock: NAHDIM_clean_sbu_0, # of connection points: 4
#     Node 8, Type 0, BuildingBlock: NAHDIM_clean_sbu_0, # of connection points: 4
#     Node 9, Type 0, BuildingBlock: NAHDIM_clean_sbu_0, # of connection points: 4
#     Node 10, Type 0, BuildingBlock: NAHDIM_clean_sbu_0, # of connection points: 4
#     Node 11, Type 0, BuildingBlock: NAHDIM_clean_sbu_0, # of connection points: 4
#     Node 12, Type 0, BuildingBlock: NAHDIM_clean_sbu_0, # of connection points: 4
#     Node 13, Type 0, BuildingBlock: NAHDIM_clean_sbu_0, # of connection points: 4
#     Node 14, Type 0, BuildingBlock: NAHDIM_clean_sbu_0, # of connection points: 4
#     Node 15, Type 0, BuildingBlock: NAHDIM_clean_sbu_0, # of connection points: 4
#     Node 16, Type 0, BuildingBlock: NAHDIM_clean_sbu_0, # of connection points: 4
#     Node 17, Type 0, BuildingBlock: NAHDIM_clean_sbu_0, # of connection points: 4
#     Node 18, Type 0, BuildingBlock: NAHDIM_clean_sbu_0, # of connection points: 4
#     Node 19, Type 0, BuildingBlock: NAHDIM_clean_sbu_0, # of connection points: 4
#     Node 20, Type 0, BuildingBlock: NAHDIM_clean_sbu_0, # of connection points: 4
#     Node 21, Type 0, BuildingBlock: NAHDIM_clean_sbu_0, # of connection points: 4
#     Node 22, Type 0, BuildingBlock: NAHDIM_clean_sbu_0, # of connection points: 4
#     Node 23, Type 0, BuildingBlock: NAHDIM_clean_sbu_0, # of connection points: 4
#     Node 24, Type 0, BuildingBlock: NAHDIM_clean_sbu_0, # of connection points: 4
#     Node 25, Type 0, BuildingBlock: NAHDIM_clean_sbu_0, # of connection points: 4
#     Node 26, Type 0, BuildingBlock: NAHDIM_clean_sbu_0, # of connection points: 4
#     Node 27, Type 0, BuildingBlock: NAHDIM_clean_sbu_0, # of connection points: 4
#     Node 28, Type 0, BuildingBlock: NAHDIM_clean_sbu_0, # of connection points: 4
#     Node 29, Type 0, BuildingBlock: NAHDIM_clean_sbu_0, # of connection points: 4
#     Node 30, Type 0, BuildingBlock: NAHDIM_clean_sbu_0, # of connection points: 4
#     Node 31, Type 0, BuildingBlock: NAHDIM_clean_sbu_0, # of connection points: 4
#     Node 32, Type 0, BuildingBlock: NAHDIM_clean_sbu_0, # of connection points: 4
#     Node 33, Type 0, BuildingBlock: NAHDIM_clean_sbu_0, # of connection points: 4
#     Node 34, Type 0, BuildingBlock: NAHDIM_clean_sbu_0, # of connection points: 4
#     Node 35, Type 0, BuildingBlock: NAHDIM_clean_sbu_0, # of connection points: 4
#     Edge 36, Type (0, 0), BuildingBlock: ZUJKAS_clean_linker_0, # of connection points: 2
#     Edge 37, Type (0, 0), BuildingBlock: ZUJKAS_clean_linker_0, # of connection points: 2
#     Edge 38, Type (0, 0), BuildingBlock: ZUJKAS_clean_linker_0, # of connection points: 2
#     Edge 39, Type (0, 0), BuildingBlock: ZUJKAS_clean_linker_0, # of connection points: 2
#     Edge 40, Type (0, 0), BuildingBlock: ZUJKAS_clean_linker_0, # of connection points: 2
#     Edge 41, Type (0, 0), BuildingBlock: ZUJKAS_clean_linker_0, # of connection points: 2
#     Edge 42, Type (0, 0), BuildingBlock: ZUJKAS_clean_linker_0, # of connection points: 2
#     Edge 43, Type (0, 0), BuildingBlock: ZUJKAS_clean_linker_0, # of connection points: 2
#     Edge 44, Type (0, 0), BuildingBlock: ZUJKAS_clean_linker_0, # of connection points: 2
#     Edge 45, Type (0, 0), BuildingBlock: ZUJKAS_clean_linker_0, # of connection points: 2
#     Edge 46, Type (0, 0), BuildingBlock: ZUJKAS_clean_linker_0, # of connection points: 2
#     Edge 47, Type (0, 0), BuildingBlock: ZUJKAS_clean_linker_0, # of connection points: 2
#     Edge 48, Type (0, 0), BuildingBlock: ZUJKAS_clean_linker_0, # of connection points: 2
#     Edge 49, Type (0, 0), BuildingBlock: ZUJKAS_clean_linker_0, # of connection points: 2
#     Edge 50, Type (0, 0), BuildingBlock: ZUJKAS_clean_linker_0, # of connection points: 2
#     Edge 51, Type (0, 0), BuildingBlock: ZUJKAS_clean_linker_0, # of connection points: 2
#     Edge 52, Type (0, 0), BuildingBlock: ZUJKAS_clean_linker_0, # of connection points: 2
#     Edge 53, Type (0, 0), BuildingBlock: ZUJKAS_clean_linker_0, # of connection points: 2
#     Edge 54, Type (0, 0), BuildingBlock: ZUJKAS_clean_linker_0, # of connection points: 2
#     Edge 55, Type (0, 0), BuildingBlock: ZUJKAS_clean_linker_0, # of connection points: 2
#     Edge 56, Type (0, 0), BuildingBlock: ZUJKAS_clean_linker_0, # of connection points: 2
#     Edge 57, Type (0, 0), BuildingBlock: ZUJKAS_clean_linker_0, # of connection points: 2
#     Edge 58, Type (0, 0), BuildingBlock: ZUJKAS_clean_linker_0, # of connection points: 2
#     Edge 59, Type (0, 0), BuildingBlock: ZUJKAS_clean_linker_0, # of connection points: 2
#     Edge 60, Type (0, 0), BuildingBlock: ZUJKAS_clean_linker_0, # of connection points: 2
#     Edge 61, Type (0, 0), BuildingBlock: ZUJKAS_clean_linker_0, # of connection points: 2
#     Edge 62, Type (0, 0), BuildingBlock: ZUJKAS_clean_linker_0, # of connection points: 2
#     Edge 63, Type (0, 0), BuildingBlock: ZUJKAS_clean_linker_0, # of connection points: 2
#     Edge 64, Type (0, 0), BuildingBlock: ZUJKAS_clean_linker_0, # of connection points: 2
#     Edge 65, Type (0, 0), BuildingBlock: ZUJKAS_clean_linker_0, # of connection points: 2
#     Edge 66, Type (0, 0), BuildingBlock: ZUJKAS_clean_linker_0, # of connection points: 2
#     Edge 67, Type (0, 0), BuildingBlock: ZUJKAS_clean_linker_0, # of connection points: 2
#     Edge 68, Type (0, 0), BuildingBlock: ZUJKAS_clean_linker_0, # of connection points: 2
#     Edge 69, Type (0, 0), BuildingBlock: ZUJKAS_clean_linker_0, # of connection points: 2
#     Edge 70, Type (0, 0), BuildingBlock: ZUJKAS_clean_linker_0, # of connection points: 2
#     Edge 71, Type (0, 0), BuildingBlock: ZUJKAS_clean_linker_0, # of connection points: 2
#     Edge 72, Type (0, 0), BuildingBlock: ZUJKAS_clean_linker_0, # of connection points: 2
#     Edge 73, Type (0, 0), BuildingBlock: ZUJKAS_clean_linker_0, # of connection points: 2
#     Edge 74, Type (0, 0), BuildingBlock: ZUJKAS_clean_linker_0, # of connection points: 2
#     Edge 75, Type (0, 0), BuildingBlock: ZUJKAS_clean_linker_0, # of connection points: 2
#     Edge 76, Type (0, 0), BuildingBlock: ZUJKAS_clean_linker_0, # of connection points: 2
#     Edge 77, Type (0, 0), BuildingBlock: ZUJKAS_clean_linker_0, # of connection points: 2
#     Edge 78, Type (0, 0), BuildingBlock: ZUJKAS_clean_linker_0, # of connection points: 2
#     Edge 79, Type (0, 0), BuildingBlock: ZUJKAS_clean_linker_0, # of connection points: 2
#     Edge 80, Type (0, 0), BuildingBlock: ZUJKAS_clean_linker_0, # of connection points: 2
#     Edge 81, Type (0, 0), BuildingBlock: ZUJKAS_clean_linker_0, # of connection points: 2
#     Edge 82, Type (0, 0), BuildingBlock: ZUJKAS_clean_linker_0, # of connection points: 2
#     Edge 83, Type (0, 0), BuildingBlock: ZUJKAS_clean_linker_0, # of connection points: 2
#     Edge 84, Type (0, 0), BuildingBlock: ZUJKAS_clean_linker_0, # of connection points: 2
#     Edge 85, Type (0, 0), BuildingBlock: ZUJKAS_clean_linker_0, # of connection points: 2
#     Edge 86, Type (0, 0), BuildingBlock: ZUJKAS_clean_linker_0, # of connection points: 2
#     Edge 87, Type (0, 0), BuildingBlock: ZUJKAS_clean_linker_0, # of connection points: 2
#     Edge 88, Type (0, 0), BuildingBlock: ZUJKAS_clean_linker_0, # of connection points: 2
#     Edge 89, Type (0, 0), BuildingBlock: ZUJKAS_clean_linker_0, # of connection points: 2
#     Edge 90, Type (0, 0), BuildingBlock: ZUJKAS_clean_linker_0, # of connection points: 2
#     Edge 91, Type (0, 0), BuildingBlock: ZUJKAS_clean_linker_0, # of connection points: 2
#     Edge 92, Type (0, 0), BuildingBlock: ZUJKAS_clean_linker_0, # of connection points: 2
#     Edge 93, Type (0, 0), BuildingBlock: ZUJKAS_clean_linker_0, # of connection points: 2
#     Edge 94, Type (0, 0), BuildingBlock: ZUJKAS_clean_linker_0, # of connection points: 2
#     Edge 95, Type (0, 0), BuildingBlock: ZUJKAS_clean_linker_0, # of connection points: 2
#     Edge 96, Type (0, 0), BuildingBlock: ZUJKAS_clean_linker_0, # of connection points: 2
#     Edge 97, Type (0, 0), BuildingBlock: ZUJKAS_clean_linker_0, # of connection points: 2
#     Edge 98, Type (0, 0), BuildingBlock: ZUJKAS_clean_linker_0, # of connection points: 2
#     Edge 99, Type (0, 0), BuildingBlock: ZUJKAS_clean_linker_0, # of connection points: 2
#     Edge 100, Type (0, 0), BuildingBlock: ZUJKAS_clean_linker_0, # of connection points: 2
#     Edge 101, Type (0, 0), BuildingBlock: ZUJKAS_clean_linker_0, # of connection points: 2
#     Edge 102, Type (0, 0), BuildingBlock: ZUJKAS_clean_linker_0, # of connection points: 2
#     Edge 103, Type (0, 0), BuildingBlock: ZUJKAS_clean_linker_0, # of connection points: 2
#     Edge 104, Type (0, 0), BuildingBlock: ZUJKAS_clean_linker_0, # of connection points: 2
#     Edge 105, Type (0, 0), BuildingBlock: ZUJKAS_clean_linker_0, # of connection points: 2
#     Edge 106, Type (0, 0), BuildingBlock: ZUJKAS_clean_linker_0, # of connection points: 2
#     Edge 107, Type (0, 0), BuildingBlock: ZUJKAS_clean_linker_0, # of connection points: 2
# Relax obj value: 0.133
# Max RMSD: 0.118
# Mean RMSD: 0.113
data_MOF--net-ums--node1-NAHDIM_clean_sbu_0--edge1-ZUJKAS_clean_linker_0
_symmetry_space_group_name_H-M    P1
_symmetry_Int_Tables_number       1
_symmetry_cell_setting            triclinic
loop_
_symmetry_equiv_pos_as_xyz
'x, y, z'
_cell_length_a     130.38177
_cell_length_b     130.39512
_cell_length_c     30.735418
_cell_angle_alpha  90.017696
_cell_angle_beta   89.969825
_cell_angle_gamma 120.00979
loop_
_atom_site_label
_atom_site_type_symbol
_atom_site_fract_x
_atom_site_fract_y
_atom_site_fract_z
_atom_type_partial_charge
C0 C 0.18368 0.24247 0.15692 0.0
O1 O 0.18503 0.25239 0.17326 0.0
O2 O 0.17849 0.26308 0.10073 0.0
Zn3 Zn 0.16725 0.24553 0.10871 0.0
O4 O 0.15599 0.2429 0.15778 0.0
C5 C 0.15191 0.24378 0.04251 0.0
O6 O 0.15199 0.25191 0.06804 0.0
O7 O 0.1764 0.23755 0.12586 0.0
C8 C 0.14555 0.23409 0.16023 0.0
O9 O 0.14159 0.22612 0.12907 0.0
C10 C 0.17678 0.27073 0.11994 0.0
O11 O 0.16762 0.26715 0.14595 0.0
O12 O 0.15807 0.23911 0.05317 0.0
C13 C 0.75841 0.94017 0.16697 0.0
O14 O 0.7496 0.93188 0.18952 0.0
O15 O 0.7348 0.91553 0.10176 0.0
Zn16 Zn 0.75183 0.9203 0.11357 0.0
O17 O 0.75279 0.91065 0.16275 0.0
C18 C 0.75422 0.90597 0.0516 0.0
O19 O 0.74611 0.8981 0.07765 0.0
O20 O 0.76117 0.93743 0.13087 0.0
C21 C 0.76242 0.91074 0.17015 0.0
O22 O 0.77165 0.91716 0.14523 0.0
C23 C 0.72663 0.90995 0.12954 0.0
O24 O 0.72936 0.90741 0.16763 0.0
O25 O 0.75847 0.9169 0.05999 0.0
C26 C 0.05378 0.82289 0.15117 0.0
O27 O 0.06281 0.82433 0.17473 0.0
O28 O 0.07909 0.82482 0.09037 0.0
Zn29 Zn 0.07284 0.83616 0.09526 0.0
O30 O 0.08203 0.84849 0.14055 0.0
C31 C 0.07382 0.83847 0.00254 0.0
O32 O 0.06909 0.82691 0.00466 0.0
O33 O 0.05571 0.8273 0.11314 0.0
C34 C 0.09313 0.85538 0.13683 0.0
O35 O 0.09863 0.85446 0.10252 0.0
C36 C 0.08505 0.82329 0.11976 0.0
O37 O 0.08715 0.82909 0.15664 0.0
O38 O 0.07552 0.84429 0.03755 0.0
C39 C 0.23529 0.1827 0.38006 0.0
O40 O 0.24496 0.18863 0.40335 0.0
O41 O 0.25794 0.17538 0.39462 0.0
Zn42 Zn 0.2405 0.1636 0.38755 0.0
O43 O 0.2382 0.15225 0.33935 0.0
C44 C 0.23791 0.147 0.45048 0.0
O45 O 0.24487 0.146 0.42196 0.0
O46 O 0.23163 0.1719 0.37106 0.0
C47 C 0.22824 0.14306 0.33223 0.0
O48 O 0.21913 0.14094 0.35671 0.0
C49 C 0.26577 0.17345 0.37822 0.0
O50 O 0.26241 0.16373 0.35564 0.0
O51 O 0.23444 0.15437 0.44316 0.0
C52 C 0.82349 0.05689 0.35008 0.0
O53 O 0.82619 0.06609 0.32521 0.0
O54 O 0.82084 0.08032 0.41067 0.0
Zn55 Zn 0.83337 0.0755 0.41055 0.0
O56 O 0.84624 0.08563 0.36817 0.0
C57 C 0.83914 0.08468 0.49712 0.0
O58 O 0.83265 0.08929 0.48511 0.0
O59 O 0.82586 0.05854 0.39048 0.0
C60 C 0.85176 0.09687 0.36996 0.0
O61 O 0.8492 0.10213 0.40112 0.0
C62 C 0.81891 0.08548 0.37932 0.0
O63 O 0.82499 0.08753 0.34311 0.0
O64 O 0.8406 0.078 0.47069 0.0
C65 C 0.93755 0.76048 0.34051 0.0
O66 O 0.92856 0.75251 0.31772 0.0
O67 O 0.91387 0.73652 0.40857 0.0
Zn68 Zn 0.91893 0.75375 0.40063 0.0
O69 O 0.90847 0.75546 0.35673 0.0
C70 C 0.91918 0.75642 0.49341 0.0
O71 O 0.92375 0.74944 0.49195 0.0
O72 O 0.93572 0.76271 0.37909 0.0
C73 C 0.89777 0.75233 0.36533 0.0
O74 O 0.89343 0.74782 0.40374 0.0
C75 C 0.90814 0.7286 0.38018 0.0
O76 O 0.90545 0.73163 0.34299 0.0
O77 O 0.91694 0.75993 0.45798 0.0
C78 C 0.81846 0.7574 0.84631 0.0
O79 O 0.82014 0.74993 0.8229 0.0
O80 O 0.82021 0.73404 0.90874 0.0
Zn81 Zn 0.83143 0.75166 0.90447 0.0
O82 O 0.84416 0.75518 0.86041 0.0
C83 C 0.83279 0.75394 0.99741 0.0
O84 O 0.82124 0.74716 0.99411 0.0
O85 O 0.82252 0.75971 0.88487 0.0
C86 C 0.85228 0.75264 0.86648 0.0
O87 O 0.85248 0.74753 0.90304 0.0
C88 C 0.81962 0.72669 0.8803 0.0
O89 O 0.82644 0.73059 0.84572 0.0
O90 O 0.83898 0.75743 0.96294 0.0
C91 C 0.23915 0.0554 0.8411 0.0
O92 O 0.24841 0.06395 0.82119 0.0
O93 O 0.26041 0.08167 0.89972 0.0
Zn94 Zn 0.24287 0.07507 0.89069 0.0
O95 O 0.24038 0.08362 0.84113 0.0
C96 C 0.23734 0.08788 0.95129 0.0
O97 O 0.24309 0.09609 0.92182 0.0
O98 O 0.23503 0.05792 0.87432 0.0
C99 C 0.23022 0.08201 0.83125 0.0
O100 O 0.22094 0.07443 0.85384 0.0
C101 C 0.26771 0.09216 0.88747 0.0
O102 O 0.26367 0.09849 0.86874 0.0
O103 O 0.23588 0.07758 0.94527 0.0
C104 C 0.93786 0.17962 0.84447 0.0
O105 O 0.92881 0.17671 0.81853 0.0
O106 O 0.9149 0.18382 0.9106 0.0
Zn107 Zn 0.91922 0.17103 0.90605 0.0
O108 O 0.90833 0.15852 0.86386 0.0
C109 C 0.90644 0.16049 0.98085 0.0
O110 O 0.8992 0.16264 0.95805 0.0
O111 O 0.93605 0.178 0.8852 0.0
C112 C 0.90983 0.14983 0.85517 0.0
O113 O 0.91849 0.14916 0.87426 0.0
C114 C 0.91053 0.18673 0.87929 0.0
O115 O 0.90916 0.18161 0.84126 0.0
O116 O 0.91655 0.16341 0.965 0.0
C117 C 0.75914 0.81543 0.66623 0.0
O118 O 0.75047 0.81526 0.68864 0.0
O119 O 0.73638 0.81821 0.60952 0.0
Zn120 Zn 0.75378 0.82999 0.61614 0.0
O121 O 0.75595 0.84094 0.66571 0.0
C122 C 0.75829 0.84833 0.55647 0.0
O123 O 0.75362 0.85119 0.58884 0.0
O124 O 0.76243 0.82135 0.63108 0.0
C125 C 0.76611 0.84868 0.67938 0.0
O126 O 0.77561 0.84953 0.66102 0.0
C127 C 0.72879 0.82129 0.61849 0.0
O128 O 0.73246 0.83212 0.63229 0.0
O129 O 0.75965 0.83937 0.56047 0.0
C130 C 0.17782 0.93816 0.66105 0.0
O131 O 0.17315 0.92911 0.68792 0.0
O132 O 0.18083 0.91372 0.59639 0.0
Zn133 Zn 0.1689 0.91923 0.60015 0.0
O134 O 0.15584 0.9092 0.64226 0.0
C135 C 0.15926 0.90777 0.52094 0.0
O136 O 0.16216 0.90048 0.53937 0.0
O137 O 0.17703 0.93622 0.6203 0.0
C138 C 0.15303 0.89869 0.65273 0.0
O139 O 0.15885 0.89387 0.63563 0.0
C140 C 0.18692 0.91323 0.62775 0.0
O141 O 0.18578 0.91671 0.66666 0.0
O142 O 0.16145 0.91718 0.54098 0.0
C143 C 0.05553 0.23448 0.66727 0.0
O144 O 0.06444 0.24028 0.69412 0.0
O145 O 0.08045 0.26044 0.60066 0.0
Zn146 Zn 0.07484 0.2431 0.60905 0.0
O147 O 0.0845 0.2414 0.65655 0.0
C148 C 0.08867 0.24263 0.54151 0.0
O149 O 0.09632 0.25139 0.56601 0.0
O150 O 0.05766 0.23433 0.62695 0.0
C151 C 0.08667 0.23293 0.65872 0.0
O152 O 0.08269 0.22482 0.62808 0.0
C153 C 0.08481 0.26785 0.6317 0.0
O154 O 0.0852 0.26403 0.67087 0.0
O155 O 0.07787 0.23701 0.55324 0.0
C156 C 0.84345 0.57021 0.50198 0.0
O157 O 0.83984 0.57553 0.52911 0.0
O158 O 0.8471 0.59753 0.43647 0.0
Zn159 Zn 0.83453 0.58033 0.44152 0.0
O160 O 0.82228 0.5786 0.48541 0.0
C161 C 0.82627 0.58248 0.35837 0.0
O162 O 0.83163 0.59357 0.37112 0.0
O163 O 0.84201 0.57083 0.46135 0.0
C164 C 0.81781 0.5853 0.485 0.0
O165 O 0.82126 0.5936 0.45523 0.0
C166 C 0.85176 0.60452 0.46845 0.0
O167 O 0.84871 0.60045 0.50825 0.0
O168 O 0.82643 0.57474 0.38314 0.0
C169 C 0.42133 0.272 0.51985 0.0
O170 O 0.41388 0.2635 0.54574 0.0
O171 O 0.3971 0.24612 0.45893 0.0
Zn172 Zn 0.41456 0.25207 0.46659 0.0
O173 O 0.41704 0.24336 0.51569 0.0
C174 C 0.41894 0.23854 0.40552 0.0
O175 O 0.41285 0.23044 0.43496 0.0
O176 O 0.42308 0.26933 0.48186 0.0
C177 C 0.42726 0.24494 0.52425 0.0
O178 O 0.43635 0.25246 0.50074 0.0
C179 C 0.38949 0.23579 0.47174 0.0
O180 O 0.39314 0.22914 0.49055 0.0
O181 O 0.421 0.24905 0.41157 0.0
C182 C 0.72694 0.1504 0.50771 0.0
O183 O 0.73621 0.15191 0.52985 0.0
O184 O 0.75 0.14854 0.4428 0.0
Zn185 Zn 0.74512 0.16097 0.44681 0.0
O186 O 0.75551 0.17361 0.48949 0.0
C187 C 0.75861 0.17288 0.37575 0.0
O188 O 0.76596 0.17167 0.40159 0.0
O189 O 0.7283 0.1536 0.46804 0.0
C190 C 0.75363 0.18205 0.49832 0.0
O191 O 0.74485 0.18245 0.47898 0.0
C192 C 0.75724 0.1481 0.46932 0.0
O193 O 0.76131 0.1556 0.50196 0.0
O194 O 0.74793 0.16872 0.38801 0.0
C195 C 0.90709 0.5154 0.67047 0.0
O196 O 0.91604 0.51612 0.64828 0.0
O197 O 0.93132 0.51543 0.72973 0.0
Zn198 Zn 0.91414 0.5027 0.72492 0.0
O199 O 0.91227 0.49066 0.67998 0.0
C200 C 0.91572 0.49082 0.79761 0.0
O201 O 0.92483 0.4924 0.77413 0.0
O202 O 0.90435 0.50992 0.7066 0.0
C203 C 0.90394 0.47995 0.68195 0.0
O204 O 0.89632 0.47661 0.7142 0.0
C205 C 0.93901 0.51676 0.70142 0.0
O206 O 0.93565 0.50991 0.66687 0.0
O207 O 0.90913 0.49465 0.78308 0.0
C208 C 0.49307 0.39075 0.67843 0.0
O209 O 0.49893 0.39926 0.65013 0.0
O210 O 0.49272 0.4174 0.74289 0.0
Zn211 Zn 0.50336 0.4104 0.73712 0.0
O212 O 0.51581 0.41962 0.69205 0.0
C213 C 0.50671 0.4121 0.82994 0.0
O214 O 0.49583 0.41024 0.82959 0.0
O215 O 0.49368 0.39332 0.71862 0.0
C216 C 0.52045 0.43078 0.68899 0.0
O217 O 0.51724 0.43639 0.71646 0.0
C218 C 0.4877 0.4189 0.71007 0.0
O219 O 0.48933 0.41563 0.67146 0.0
O220 O 0.51158 0.41207 0.79416 0.0
C221 C 0.61454 0.09652 0.72578 0.0
O222 O 0.61097 0.08641 0.74598 0.0
O223 O 0.58512 0.0731 0.74207 0.0
Zn224 Zn 0.58986 0.09019 0.73337 0.0
O225 O 0.58068 0.09108 0.68249 0.0
C226 C 0.57419 0.09014 0.79492 0.0
O227 O 0.5671 0.08195 0.76734 0.0
O228 O 0.6072 0.10005 0.71893 0.0
C229 C 0.57844 0.09944 0.67765 0.0
O230 O 0.58221 0.1079 0.70692 0.0
C231 C 0.58521 0.06667 0.71115 0.0
O232 O 0.58889 0.07141 0.67249 0.0
O233 O 0.58526 0.09563 0.78742 0.0
C234 C 0.48067 0.0881 0.17895 0.0
O235 O 0.48215 0.08091 0.15316 0.0
O236 O 0.4814 0.06365 0.2444 0.0
Zn237 Zn 0.49315 0.08094 0.23447 0.0
O238 O 0.50426 0.08262 0.18606 0.0
C239 C 0.50895 0.08275 0.29867 0.0
O240 O 0.50837 0.07432 0.27348 0.0
O241 O 0.48467 0.08968 0.21756 0.0
C242 C 0.5124 0.09282 0.17431 0.0
O243 O 0.5135 0.10222 0.19438 0.0
C244 C 0.47856 0.05607 0.21413 0.0
O245 O 0.48322 0.05961 0.1753 0.0
O246 O 0.5028 0.0875 0.28882 0.0
C247 C 0.90669 0.38828 0.20709 0.0
O248 O 0.91807 0.39302 0.21476 0.0
O249 O 0.92792 0.4166 0.24698 0.0
Zn250 Zn 0.91079 0.41131 0.23466 0.0
O251 O 0.91037 0.42146 0.18641 0.0
C252 C 0.90445 0.41021 0.32521 0.0
O253 O 0.90894 0.40317 0.32789 0.0
O254 O 0.90163 0.39427 0.21499 0.0
C255 C 0.90177 0.42329 0.18056 0.0
O256 O 0.89265 0.4184 0.20708 0.0
C257 C 0.93547 0.42014 0.21633 0.0
O258 O 0.9319 0.41984 0.17614 0.0
O259 O 0.90389 0.41427 0.28829 0.0
C260 C 0.60747 0.51818 0.17234 0.0
O261 O 0.59885 0.51824 0.15039 0.0
O262 O 0.58232 0.51629 0.22996 0.0
Zn263 Zn 0.58797 0.50444 0.22602 0.0
O264 O 0.57863 0.49216 0.18072 0.0
C265 C 0.57431 0.49127 0.29622 0.0
O266 O 0.56651 0.49187 0.2709 0.0
O267 O 0.60509 0.51271 0.20845 0.0
C268 C 0.57823 0.48223 0.17964 0.0
O269 O 0.58415 0.4799 0.20879 0.0
C270 C 0.57366 0.51523 0.2074 0.0
O271 O 0.56849 0.50641 0.17969 0.0
O272 O 0.58506 0.49628 0.28394 0.0
C273 C 0.42226 0.14888 0.01591 0.0
O274 O 0.41379 0.14895 0.03889 0.0
O275 O 0.39998 0.1528 0.95741 0.0
Zn276 Zn 0.41749 0.164 0.96591 0.0
O277 O 0.41986 0.17488 0.01593 0.0
C278 C 0.42234 0.18231 0.90613 0.0
O279 O 0.4166 0.18453 0.93639 0.0
O280 O 0.42556 0.1548 0.98079 0.0
C281 C 0.42995 0.18349 0.02614 0.0
O282 O 0.43932 0.18536 0.00375 0.0
C283 C 0.39253 0.15573 0.9702 0.0
O284 O 0.39638 0.16602 0.98928 0.0
O285 O 0.42412 0.17365 0.91135 0.0
C286 C 0.85068 0.28131 0.95609 0.0
O287 O 0.85744 0.27768 0.93801 0.0
O288 O 0.84468 0.25249 0.93425 0.0
Zn289 Zn 0.83216 0.2572 0.93943 0.0
O290 O 0.82033 0.24719 0.9852 0.0
C291 C 0.82353 0.24612 0.85774 0.0
O292 O 0.8288 0.24039 0.87161 0.0
O293 O 0.83957 0.27423 0.95842 0.0
C294 C 0.81679 0.23622 0.98947 0.0
O295 O 0.82085 0.23118 0.96296 0.0
C296 C 0.84989 0.25071 0.96576 0.0
O297 O 0.84748 0.25235 0.00581 0.0
O298 O 0.82373 0.2542 0.88154 0.0
C299 C 0.72482 0.57189 0.99285 0.0
O300 O 0.73393 0.57843 0.01807 0.0
O301 O 0.7522 0.59479 0.9392 0.0
Zn302 Zn 0.74381 0.57694 0.93699 0.0
O303 O 0.75159 0.57141 0.9799 0.0
C304 C 0.74494 0.57754 0.84382 0.0
O305 O 0.74141 0.58529 0.84936 0.0
O306 O 0.7267 0.5699 0.95401 0.0
C307 C 0.76272 0.57561 0.9789 0.0
O308 O 0.769 0.5834 0.94877 0.0
C309 C 0.74701 0.60081 0.93629 0.0
O310 O 0.73542 0.5953 0.9327 0.0
O311 O 0.74595 0.57225 0.87685 0.0
C312 C 0.5185 0.90936 0.8137 0.0
O313 O 0.52009 0.91874 0.83532 0.0
O314 O 0.51938 0.93429 0.75671 0.0
Zn315 Zn 0.50626 0.91724 0.76074 0.0
O316 O 0.49436 0.91559 0.80573 0.0
C317 C 0.49434 0.91972 0.69071 0.0
O318 O 0.49629 0.92865 0.71597 0.0
O319 O 0.51277 0.90675 0.77813 0.0
C320 C 0.48583 0.90539 0.81544 0.0
O321 O 0.48496 0.89604 0.79574 0.0
C322 C 0.52111 0.94188 0.78596 0.0
O323 O 0.5145 0.9385 0.82112 0.0
O324 O 0.49797 0.91277 0.70296 0.0
C325 C 0.09397 0.61435 0.77245 0.0
O326 O 0.08587 0.61127 0.74206 0.0
O327 O 0.07027 0.58429 0.75949 0.0
Zn328 Zn 0.08752 0.58965 0.76855 0.0
O329 O 0.08945 0.57982 0.81501 0.0
C330 C 0.08725 0.57651 0.69736 0.0
O331 O 0.07794 0.56895 0.71988 0.0
O332 O 0.09632 0.60667 0.78733 0.0
C333 C 0.08091 0.57012 0.82901 0.0
O334 O 0.07024 0.56622 0.81309 0.0
C335 C 0.06356 0.58549 0.7865 0.0
O336 O 0.06795 0.59085 0.82375 0.0
O337 O 0.09362 0.58695 0.71205 0.0
C338 C 0.39171 0.47884 0.81491 0.0
O339 O 0.40033 0.47964 0.83949 0.0
O340 O 0.41832 0.48275 0.75579 0.0
Zn341 Zn 0.4115 0.49354 0.76319 0.0
O342 O 0.41973 0.50478 0.81263 0.0
C343 C 0.42422 0.51199 0.7026 0.0
O344 O 0.43233 0.51487 0.73281 0.0
O345 O 0.39425 0.48404 0.77826 0.0
C346 C 0.41739 0.51284 0.82277 0.0
O347 O 0.40933 0.51384 0.80054 0.0
C348 C 0.42894 0.48626 0.76732 0.0
O349 O 0.43526 0.49688 0.78426 0.0
O350 O 0.41409 0.50288 0.70813 0.0
C351 C 0.56104 0.83777 0.00911 0.0
O352 O 0.55759 0.82697 0.99559 0.0
O353 O 0.59594 0.84709 0.06347 0.0
Zn354 Zn 0.57892 0.83478 0.05283 0.0
O355 O 0.5785 0.82412 0.00456 0.0
C356 C 0.5791 0.8214 0.12297 0.0
O357 O 0.58875 0.82366 0.10169 0.0
O358 O 0.56978 0.84279 0.03503 0.0
C359 C 0.57125 0.81303 0.00379 0.0
O360 O 0.56356 0.80814 0.03557 0.0
C361 C 0.60291 0.85296 0.03264 0.0
O362 O 0.5988 0.85129 0.99269 0.0
O363 O 0.57266 0.82534 0.10792 0.0
C364 C 0.14269 0.72708 0.98611 0.0
O365 O 0.14234 0.73587 0.96662 0.0
O366 O 0.14583 0.75228 0.04825 0.0
Zn367 Zn 0.15716 0.74607 0.0412 0.0
O368 O 0.16943 0.75552 0.99605 0.0
C369 C 0.17108 0.75896 0.11079 0.0
O370 O 0.17055 0.76702 0.08679 0.0
O371 O 0.1485 0.72912 0.02133 0.0
C372 C 0.17743 0.75302 0.98682 0.0
O373 O 0.17756 0.74424 0.00729 0.0
C374 C 0.1457 0.75971 0.02183 0.0
O375 O 0.15281 0.76314 0.98802 0.0
O376 O 0.16563 0.74826 0.09799 0.0
C377 C 0.27324 0.42438 0.98408 0.0
O378 O 0.2644 0.41602 0.96188 0.0
O379 O 0.24759 0.40239 0.04302 0.0
Zn380 Zn 0.25382 0.41989 0.03556 0.0
O381 O 0.24517 0.42242 0.98645 0.0
C382 C 0.24031 0.42416 0.0965 0.0
O383 O 0.23242 0.41843 0.06603 0.0
O384 O 0.27104 0.42787 0.01967 0.0
C385 C 0.24704 0.43262 0.97577 0.0
O386 O 0.25504 0.44196 0.99703 0.0
C387 C 0.23723 0.39485 0.03036 0.0
O388 O 0.2306 0.39857 0.0119 0.0
O389 O 0.25085 0.42625 0.09099 0.0
C390 C 0.14745 0.42112 0.48633 0.0
O391 O 0.14754 0.41232 0.46585 0.0
O392 O 0.15137 0.39966 0.5496 0.0
Zn393 Zn 0.16256 0.41708 0.53879 0.0
O394 O 0.17356 0.41923 0.48935 0.0
C395 C 0.18012 0.42142 0.60006 0.0
O396 O 0.18121 0.41427 0.57275 0.0
O397 O 0.15333 0.42495 0.52138 0.0
C398 C 0.18264 0.42921 0.48141 0.0
O399 O 0.18488 0.43834 0.50599 0.0
C400 C 0.15306 0.39178 0.53218 0.0
O401 O 0.16218 0.39505 0.50621 0.0
O402 O 0.17227 0.42426 0.59268 0.0
C403 C 0.57547 0.72302 0.50163 0.0
O404 O 0.58583 0.73109 0.48648 0.0
O405 O 0.59696 0.74843 0.55646 0.0
Zn406 Zn 0.57954 0.74298 0.54959 0.0
O407 O 0.57746 0.75248 0.50262 0.0
C408 C 0.57912 0.7571 0.61593 0.0
O409 O 0.58702 0.76476 0.58876 0.0
O410 O 0.57064 0.72588 0.53154 0.0
C411 C 0.56791 0.75265 0.49635 0.0
O412 O 0.55871 0.74625 0.52139 0.0
C413 C 0.60479 0.75677 0.53334 0.0
O414 O 0.60145 0.76173 0.50363 0.0
O415 O 0.5739 0.74616 0.60619 0.0
C416 C 0.27169 0.84191 0.48558 0.0
O417 O 0.26265 0.84085 0.46308 0.0
O418 O 0.24927 0.84388 0.5585 0.0
Zn419 Zn 0.25316 0.83104 0.54577 0.0
O420 O 0.24251 0.82054 0.49808 0.0
C421 C 0.23896 0.81542 0.60991 0.0
O422 O 0.23128 0.81617 0.58438 0.0
O423 O 0.27001 0.83827 0.52474 0.0
C424 C 0.24074 0.81017 0.49112 0.0
O425 O 0.2458 0.80589 0.51647 0.0
C426 C 0.24415 0.84702 0.53074 0.0
O427 O 0.24159 0.842 0.4922 0.0
O428 O 0.24989 0.8213 0.60014 0.0
C429 C 0.08859 0.47742 0.28835 0.0
O430 O 0.07733 0.47107 0.27809 0.0
O431 O 0.06752 0.48585 0.26184 0.0
Zn432 Zn 0.08499 0.49718 0.26918 0.0
O433 O 0.08707 0.50847 0.31722 0.0
C434 C 0.08756 0.50158 0.17704 0.0
O435 O 0.0804 0.49006 0.17514 0.0
O436 O 0.09373 0.48864 0.28548 0.0
C437 C 0.09612 0.51874 0.32018 0.0
O438 O 0.10458 0.52219 0.291 0.0
C439 C 0.06062 0.48191 0.29444 0.0
O440 O 0.06504 0.48506 0.33377 0.0
O441 O 0.09114 0.50647 0.21394 0.0
C442 C 0.51601 0.61196 0.27533 0.0
O443 O 0.5223 0.60839 0.25336 0.0
O444 O 0.50935 0.58257 0.25539 0.0
Zn445 Zn 0.49728 0.58768 0.26422 0.0
O446 O 0.48639 0.57792 0.31242 0.0
C447 C 0.4813 0.57326 0.20132 0.0
O448 O 0.48149 0.56559 0.22858 0.0
O449 O 0.5051 0.60476 0.28214 0.0
C450 C 0.47695 0.57811 0.32084 0.0
O451 O 0.47429 0.58492 0.29762 0.0
C452 C 0.51395 0.5803 0.28775 0.0
O453 O 0.51098 0.58168 0.32728 0.0
O454 O 0.48773 0.58425 0.20938 0.0
C455 C 0.3844 0.90044 0.27079 0.0
O456 O 0.38768 0.91085 0.2536 0.0
O457 O 0.41309 0.92434 0.25392 0.0
Zn458 Zn 0.40891 0.90723 0.25593 0.0
O459 O 0.41893 0.90544 0.30155 0.0
C460 C 0.42012 0.91088 0.17329 0.0
O461 O 0.42496 0.92189 0.18675 0.0
O462 O 0.39186 0.8969 0.27335 0.0
C463 C 0.42995 0.9128 0.30462 0.0
O464 O 0.43491 0.92161 0.27683 0.0
C465 C 0.41492 0.93081 0.28722 0.0
O466 O 0.41355 0.92615 0.32617 0.0
O467 O 0.41255 0.90264 0.19747 0.0
H468 H 0.24089 0.20577 0.39095 0.0
H469 H 0.23186 0.21601 0.3546 0.0
H470 H 0.20758 0.1837 0.28815 0.0
H471 H 0.21635 0.17335 0.32483 0.0
H472 H 0.23095 0.21904 0.26635 0.0
H473 H 0.18554 0.19465 0.3348 0.0
H474 H 0.19778 0.19378 0.35813 0.0
H475 H 0.19024 0.18512 0.31092 0.0
C476 C 0.23352 0.2008 0.36907 0.0
C477 C 0.22932 0.18874 0.36087 0.0
C478 C 0.22839 0.20668 0.34827 0.0
C479 C 0.21896 0.20058 0.31911 0.0
C480 C 0.21468 0.18851 0.31126 0.0
H481 H 0.1801 0.22024 0.14117 0.0
H482 H 0.18923 0.2103 0.17911 0.0
C483 C 0.21975 0.18263 0.33211 0.0
C484 C 0.21404 0.20696 0.29499 0.0
H485 H 0.18836 0.20698 0.27347 0.0
C486 C 0.22166 0.21647 0.26815 0.0
C487 C 0.2019 0.20355 0.29732 0.0
C488 C 0.19341 0.19379 0.32716 0.0
C489 C 0.21741 0.22252 0.24292 0.0
C490 C 0.20527 0.21902 0.24493 0.0
C491 C 0.19766 0.20956 0.27183 0.0
C492 C 0.20033 0.22527 0.22023 0.0
C493 C 0.22589 0.23247 0.21369 0.0
C494 C 0.20361 0.23697 0.23083 0.0
C495 C 0.1984 0.24265 0.2094 0.0
C496 C 0.18981 0.23672 0.177 0.0
C497 C 0.18672 0.22506 0.16585 0.0
C498 C 0.19189 0.21936 0.18753 0.0
H499 H 0.23427 0.23237 0.20868 0.0
H500 H 0.22178 0.23194 0.18151 0.0
H501 H 0.22808 0.24107 0.22875 0.0
H502 H 0.21 0.24161 0.25639 0.0
H503 H 0.20097 0.25163 0.21878 0.0
H504 H 0.81668 0.03575 0.39124 0.0
H505 H 0.80613 0.01587 0.35929 0.0
H506 H 0.80616 0.03095 0.23444 0.0
H507 H 0.8166 0.05078 0.2659 0.0
H508 H 0.78374 0.01218 0.26146 0.0
H509 H 0.81921 0.00047 0.27364 0.0
H510 H 0.81597 0.00569 0.32304 0.0
H511 H 0.82218 0.01554 0.2775 0.0
C512 C 0.81451 0.03484 0.35693 0.0
C513 C 0.81748 0.04485 0.33112 0.0
C514 C 0.80854 0.02348 0.33871 0.0
C515 C 0.80549 0.02198 0.29445 0.0
C516 C 0.80848 0.03195 0.26864 0.0
H517 H 0.77855 0.95891 0.13345 0.0
H518 H 0.78996 0.97892 0.16379 0.0
C519 C 0.81446 0.04327 0.28672 0.0
C520 C 0.79875 0.01002 0.27517 0.0
H521 H 0.80029 0.98529 0.25055 0.0
C522 C 0.78735 0.00629 0.25902 0.0
C523 C 0.80356 0.00245 0.27164 0.0
C524 C 0.81594 0.00623 0.28701 0.0
C525 C 0.78055 0.9951 0.23992 0.0
C526 C 0.78525 0.98743 0.23732 0.0
C527 C 0.79671 0.99121 0.25287 0.0
C528 C 0.77833 0.97538 0.21889 0.0
C529 C 0.76844 0.99161 0.22223 0.0
C530 C 0.76808 0.96681 0.24007 0.0
C531 C 0.76157 0.9554 0.22295 0.0
C532 C 0.7652 0.95236 0.1843 0.0
C533 C 0.77549 0.96099 0.16315 0.0
C534 C 0.78204 0.9724 0.18046 0.0
H535 H 0.76724 -0.0006 0.21787 0.0
H536 H 0.76694 0.98699 0.19051 0.0
H537 H 0.76159 0.98543 0.24535 0.0
H538 H 0.76518 0.96892 0.27008 0.0
H539 H 0.75372 0.94895 0.24013 0.0
H540 H 0.9443 0.75696 0.26043 0.0
H541 H 0.96401 0.76755 0.22775 0.0
H542 H 0.9776 0.78893 0.34332 0.0
H543 H 0.95787 0.77842 0.37637 0.0
H544 H 0.98423 0.80181 0.26247 0.0
H545 H 0.99284 0.76415 0.26362 0.0
H546 H 0.97903 0.76104 0.23943 0.0
H547 H 0.98145 0.76434 0.2965 0.0
C548 C 0.95147 0.76388 0.27903 0.0
C549 C 0.94953 0.76682 0.32109 0.0
C550 C 0.96274 0.76989 0.26033 0.0
C551 C 0.97225 0.77891 0.28335 0.0
C552 C 0.97035 0.78195 0.32516 0.0
H553 H 0.04702 0.81187 0.22986 0.0
H554 H 0.02711 0.80141 0.2608 0.0
C555 C 0.95909 0.77592 0.34399 0.0
C556 C 0.98417 0.78528 0.26349 0.0
H557 H 0.0067 0.78148 0.22615 0.0
C558 C 0.98917 0.7974 0.25453 0.0
C559 C 0.99058 0.77947 0.25356 0.0
C560 C 0.98578 0.76655 0.26405 0.0
C561 C 0.00042 0.80387 0.23542 0.0
C562 C 0.00673 0.798 0.2247 0.0
C563 C 0.00177 0.7859 0.23406 0.0
C564 C 0.01871 0.80436 0.20534 0.0
C565 C 0.00557 0.81696 0.22759 0.0
C566 C 0.02054 0.80936 0.16365 0.0
C567 C 0.03193 0.81536 0.14574 0.0
C568 C 0.04165 0.8164 0.1693 0.0
C569 C 0.03973 0.81126 0.21088 0.0
C570 C 0.02837 0.80526 0.22864 0.0
H571 H 0.00073 0.82057 0.24591 0.0
H572 H 0.01505 0.82193 0.23711 0.0
H573 H 0.00499 0.81851 0.19241 0.0
H574 H 0.01315 0.80858 0.1449 0.0
H575 H 0.03311 0.81918 0.11359 0.0
H576 H 0.80882 0.75417 0.76523 0.0
H577 H 0.79897 0.76409 0.73304 0.0
H578 H 0.80403 0.78359 0.85202 0.0
H579 H 0.81403 0.7738 0.88448 0.0
H580 H 0.77863 0.76416 0.76174 0.0
H581 H 0.81774 0.80953 0.75786 0.0
H582 H 0.81899 0.79649 0.76616 0.0
H583 H 0.8146 0.80251 0.81029 0.0
C584 C 0.80787 0.76058 0.7846 0.0
C585 C 0.81226 0.76324 0.82738 0.0
C586 C 0.80223 0.76623 0.76613 0.0
C587 C 0.80093 0.77468 0.78994 0.0
C588 C 0.80515 0.77725 0.83284 0.0
H589 H 0.75385 0.8019 0.73946 0.0
H590 H 0.76394 0.79179 0.76766 0.0
C591 C 0.81079 0.7716 0.8514 0.0
C592 C 0.79496 0.78063 0.77 0.0
H593 H 0.79915 0.80769 0.7403 0.0
C594 C 0.78311 0.77367 0.75691 0.0
C595 C 0.8009 0.79301 0.7632 0.0
C596 C 0.81379 0.80084 0.77471 0.0
C597 C 0.77696 0.7788 0.73797 0.0
C598 C 0.78278 0.79123 0.73257 0.0
C599 C 0.7947 0.79817 0.74481 0.0
C600 C 0.77659 0.79722 0.71491 0.0
C601 C 0.76432 0.77087 0.72351 0.0
C602 C 0.78051 0.80381 0.67629 0.0
C603 C 0.77478 0.80965 0.66009 0.0
C604 C 0.7651 0.80906 0.68249 0.0
C605 C 0.76124 0.80248 0.72128 0.0
C606 C 0.76696 0.79665 0.73737 0.0
H607 H 0.76223 0.76155 0.71933 0.0
H608 H 0.75825 0.77098 0.74854 0.0
H609 H 0.76256 0.77402 0.69236 0.0
H610 H 0.78799 0.8044 0.65865 0.0
H611 H 0.77799 0.81468 0.63023 0.0
H612 H 0.24652 0.04699 0.77385 0.0
H613 H 0.23621 0.02714 0.74201 0.0
H614 H 0.2081 0.01647 0.83592 0.0
H615 H 0.21833 0.03631 0.86804 0.0
H616 H 0.22863 0.00465 0.78473 0.0
H617 H 0.19142 0.00853 0.71443 0.0
H618 H 0.20519 0.02125 0.7312 0.0
H619 H 0.19437 0.01222 0.77115 0.0
C620 C 0.23816 0.04042 0.78784 0.0
C621 C 0.23321 0.04324 0.82335 0.0
C622 C 0.23229 0.0291 0.7696 0.0
C623 C 0.22134 0.02044 0.78629 0.0
C624 C 0.21647 0.02312 0.82223 0.0
H625 H 0.18271 0.94493 0.74595 0.0
H626 H 0.19355 0.96506 0.77487 0.0
C627 C 0.22236 0.03443 0.84066 0.0
C628 C 0.21504 0.00857 0.76615 0.0
H629 H 0.18991 0.98966 0.71055 0.0
C630 C 0.22018 0.00137 0.76841 0.0
C631 C 0.2041 0.00441 0.74445 0.0
C632 C 0.19845 0.01201 0.73971 0.0
C633 C 0.21452 0.98996 0.7503 0.0
C634 C 0.20342 0.98568 0.72973 0.0
C635 C 0.1984 0.99298 0.72661 0.0
C636 C 0.19679 0.97355 0.71195 0.0
C637 C 0.22047 0.98259 0.75307 0.0
C638 C 0.19484 0.9717 0.66703 0.0
C639 C 0.18865 0.9602 0.6503 0.0
C640 C 0.18421 0.95037 0.67836 0.0
C641 C 0.18603 0.9523 0.72342 0.0
C642 C 0.19227 0.96378 0.74003 0.0
H643 H 0.23003 0.98807 0.76106 0.0
H644 H 0.21615 0.97583 0.77898 0.0
H645 H 0.21954 0.97789 0.72191 0.0
H646 H 0.19823 0.97917 0.64493 0.0
H647 H 0.18735 0.95901 0.61546 0.0
H648 H 0.04854 0.23174 0.75203 0.0
H649 H 0.02838 0.22173 0.78055 0.0
H650 H 0.01456 0.21344 0.64987 0.0
H651 H 0.03478 0.22327 0.62091 0.0
H652 H 0.01092 0.22718 0.76581 0.0
H653 H 0.99658 0.18141 0.71037 0.0
H654 H 0.01191 0.19301 0.71041 0.0
H655 H 0.00213 0.19231 0.6678 0.0
C656 C 0.04123 0.22774 0.72926 0.0
C657 C 0.04326 0.22827 0.68417 0.0
C658 C 0.02971 0.22202 0.74567 0.0
C659 C 0.01999 0.21671 0.71739 0.0
C660 C 0.02195 0.21726 0.67231 0.0
H661 H 0.94424 0.18274 0.75884 0.0
H662 H 0.96421 0.19174 0.72843 0.0
C663 C 0.03351 0.22294 0.65581 0.0
C664 C 0.00782 0.211 0.73532 0.0
H665 H 0.98181 0.1847 0.7415 0.0
C666 C 0.00457 0.21788 0.76064 0.0
C667 C -0.00044 0.19887 0.72848 0.0
C668 C 0.00272 0.19092 0.70312 0.0
C669 C 0.99323 0.213 0.77896 0.0
C670 C 0.98499 0.20088 0.77214 0.0
C671 C 0.98819 0.194 0.74664 0.0
C672 C 0.97294 0.19523 0.79092 0.0
C673 C 0.99007 0.22087 0.80484 0.0
C674 C 0.97127 0.19408 0.83614 0.0
C675 C 0.95986 0.18892 0.8537 0.0
C676 C 0.94995 0.18483 0.82624 0.0
C677 C 0.95168 0.18585 0.78091 0.0
C678 C 0.96307 0.19097 0.76343 0.0
H679 H 0.99644 0.23041 0.79913 0.0
H680 H 0.98103 0.21905 0.7965 0.0
H681 H 0.99021 0.21905 0.84004 0.0
H682 H 0.97879 0.19718 0.85782 0.0
H683 H 0.95882 0.18822 0.88872 0.0
H684 H 0.84939 0.56895 0.5861 0.0
H685 H 0.85994 0.55923 0.61377 0.0
H686 H 0.86173 0.54761 0.4841 0.0
H687 H 0.85115 0.55733 0.45588 0.0
H688 H 0.85419 0.52969 0.55422 0.0
H689 H 0.89598 0.5716 0.5894 0.0
H690 H 0.88265 0.57065 0.61043 0.0
H691 H 0.88483 0.57092 0.55268 0.0
C692 C 0.852 0.56431 0.56338 0.0
C693 C 0.84949 0.56397 0.51872 0.0
C694 C 0.85805 0.5588 0.57928 0.0
C695 C 0.8617 0.55284 0.55087 0.0
C696 C 0.85901 0.55223 0.50644 0.0
H697 H 0.91198 0.52921 0.59819 0.0
H698 H 0.90064 0.53794 0.56888 0.0
C699 C 0.85299 0.5578 0.49041 0.0
C700 C 0.86842 0.54732 0.56764 0.0
H701 H 0.89478 0.55383 0.61394 0.0
C702 C 0.86307 0.53494 0.56722 0.0
C703 C 0.88003 0.55425 0.58419 0.0
C704 C 0.88629 0.5676 0.58401 0.0
C705 C 0.86899 0.52927 0.58366 0.0
C706 C 0.8805 0.53618 0.60108 0.0
C707 C 0.88591 0.54857 0.60085 0.0
C708 C 0.88719 0.53075 0.61893 0.0
C709 C 0.86298 0.51594 0.58183 0.0
C710 C 0.88341 0.52394 0.65706 0.0
C711 C 0.8899 0.51897 0.67407 0.0
C712 C 0.90025 0.52075 0.65313 0.0
C713 C 0.90402 0.52764 0.61504 0.0
C714 C 0.89757 0.53264 0.59823 0.0
H715 H 0.85519 0.51209 0.55975 0.0
H716 H 0.86927 0.51308 0.57074 0.0
H717 H 0.85989 0.51228 0.61491 0.0
H718 H 0.8755 0.52253 0.67379 0.0
H719 H 0.88677 0.51372 0.70349 0.0
H720 H 0.42085 0.28016 0.60119 0.0
H721 H 0.43253 0.30044 0.62832 0.0
H722 H 0.44868 0.31201 0.50204 0.0
H723 H 0.43701 0.29176 0.47444 0.0
H724 H 0.45794 0.31434 0.62814 0.0
H725 H 0.43698 0.3354 0.5341 0.0
H726 H 0.42995 0.31958 0.54175 0.0
H727 H 0.44164 0.32685 0.50254 0.0
C728 C 0.42681 0.28703 0.57903 0.0
C729 C 0.42799 0.28436 0.53562 0.0
C730 C 0.43348 0.29859 0.59464 0.0
C731 C 0.44136 0.3077 0.56705 0.0
C732 C 0.4425 0.30511 0.52363 0.0
H733 H 0.49114 0.38233 0.59581 0.0
H734 H 0.47866 0.36202 0.57034 0.0
C735 C 0.43586 0.29353 0.50799 0.0
C736 C 0.44875 0.31983 0.58424 0.0
H737 H 0.45434 0.34821 0.57374 0.0
C738 C 0.45713 0.32175 0.61649 0.0
C739 C 0.44765 0.32944 0.56877 0.0
C740 C 0.43851 0.32776 0.53513 0.0
C741 C 0.46467 0.33313 0.63309 0.0
C742 C 0.46359 0.34276 0.61761 0.0
C743 C 0.45514 0.34081 0.58552 0.0
C744 C 0.47126 0.35498 0.63371 0.0
C745 C 0.47394 0.33478 0.66612 0.0
C746 C 0.47118 0.35775 0.67779 0.0
C747 C 0.47836 0.36936 0.69255 0.0
C748 C 0.48565 0.3784 0.66334 0.0
C749 C 0.48564 0.37558 0.61917 0.0
C750 C 0.47851 0.36398 0.60452 0.0
H751 H 0.47564 0.32723 0.66595 0.0
H752 H 0.48242 0.34308 0.65991 0.0
H753 H 0.4708 0.33535 0.69911 0.0
H754 H 0.46546 0.35098 0.70068 0.0
H755 H 0.47809 0.37126 0.72671 0.0
H756 H 0.70564 0.1453 0.47169 0.0
H757 H 0.68644 0.13705 0.50869 0.0
H758 H 0.70268 0.13572 0.62914 0.0
H759 H 0.72182 0.14398 0.59277 0.0
H760 H 0.67408 0.11512 0.55462 0.0
H761 H 0.68503 0.15364 0.66114 0.0
H762 H 0.69368 0.15468 0.61368 0.0
H763 H 0.69553 0.14855 0.66344 0.0
C764 C 0.70512 0.14328 0.50608 0.0
C765 C 0.71526 0.14533 0.52932 0.0
C766 C 0.69416 0.13857 0.52712 0.0
C767 C 0.69321 0.13596 0.57174 0.0
C768 C 0.70328 0.1379 0.59487 0.0
H769 H 0.63157 0.09011 0.72584 0.0
H770 H 0.6507 0.1 0.68844 0.0
C771 C 0.71421 0.14256 0.57391 0.0
C772 C 0.68163 0.13086 0.59409 0.0
H773 H 0.66724 0.1357 0.67742 0.0
C774 C 0.67254 0.11963 0.58128 0.0
C775 C 0.67965 0.13685 0.62857 0.0
C776 C 0.68894 0.14915 0.64236 0.0
C777 C 0.66159 0.11408 0.60287 0.0
C778 C 0.65977 0.11987 0.63843 0.0
C779 C 0.66874 0.13124 0.65047 0.0
C780 C 0.64854 0.11429 0.66322 0.0
C781 C 0.65203 0.10209 0.58731 0.0
C782 C 0.64121 0.11931 0.66266 0.0
C783 C 0.6303 0.11371 0.6841 0.0
C784 C 0.62657 0.10304 0.70673 0.0
C785 C 0.63415 0.09829 0.70858 0.0
C786 C 0.64505 0.10388 0.68701 0.0
H787 H 0.65381 0.10013 0.55387 0.0
H788 H 0.6516 0.09516 0.6094 0.0
H789 H 0.64324 0.10153 0.5877 0.0
H790 H 0.64381 0.12739 0.6447 0.0
H791 H 0.62469 0.11763 0.68216 0.0
H792 H 0.47094 0.08618 0.09874 0.0
H793 H 0.46115 0.09666 0.07113 0.0
H794 H 0.46667 0.1145 0.19435 0.0
H795 H 0.47662 0.10412 0.22229 0.0
H796 H 0.4409 0.0964 0.10425 0.0
H797 H 0.4803 0.14166 0.10432 0.0
H798 H 0.48145 0.12846 0.10863 0.0
H799 H 0.47729 0.13389 0.15521 0.0
C800 C 0.47011 0.09235 0.12003 0.0
C801 C 0.4746 0.09436 0.16269 0.0
C802 C 0.4645 0.09831 0.10416 0.0
C803 C 0.46333 0.10644 0.13052 0.0
C804 C 0.46768 0.1084 0.17327 0.0
H805 H 0.41689 0.13517 0.08878 0.0
H806 H 0.42676 0.1247 0.11581 0.0
C807 C 0.4733 0.10242 0.18924 0.0
C808 C 0.45736 0.11269 0.11327 0.0
H809 H 0.46181 0.14011 0.08793 0.0
C810 C 0.44545 0.10596 0.10064 0.0
C811 C 0.4634 0.12514 0.10811 0.0
C812 C 0.47634 0.13273 0.11939 0.0
C813 C 0.43936 0.11136 0.08345 0.0
C814 C 0.44531 0.12383 0.07935 0.0
C815 C 0.45727 0.13055 0.09142 0.0
C816 C 0.43927 0.13006 0.06263 0.0
C817 C 0.42666 0.10368 0.06923 0.0
C818 C 0.44319 0.1367 0.02414 0.0
C819 C 0.43759 0.14273 0.0086 0.0
C820 C 0.42804 0.14229 0.03154 0.0
C821 C 0.42419 0.13565 0.07021 0.0
C822 C 0.42977 0.12962 0.08564 0.0
H823 H 0.42435 0.09431 0.06454 0.0
H824 H 0.42071 0.10389 0.0946 0.0
H825 H 0.42494 0.107 0.0384 0.0
H826 H 0.45055 0.13718 0.00606 0.0
H827 H 0.4408 0.1478 0.97881 0.0
H828 H 0.83929 0.29184 0.99413 0.0
H829 H 0.84821 0.31043 0.035 0.0
H830 H 0.88298 0.31549 0.0096 0.0
H831 H 0.87419 0.2971 0.96793 0.0
H832 H 0.86149 0.31561 0.10854 0.0
H833 H 0.88757 0.34764 0.97882 0.0
H834 H 0.8762 0.33262 0.96715 0.0
H835 H 0.89078 0.33581 0.98334 0.0
C836 C 0.84885 0.297 0.99669 0.0
C837 C 0.85604 0.29301 0.97765 0.0
C838 C 0.85392 0.30761 0.02013 0.0
C839 C 0.86626 0.31442 0.02489 0.0
C840 C 0.87346 0.31053 0.00549 0.0
H841 H 0.91558 0.3747 0.17582 0.0
H842 H 0.90516 0.35645 0.13338 0.0
C843 C 0.86841 0.29997 0.98184 0.0
C844 C 0.87158 0.32523 0.05226 0.0
H845 H 0.89226 0.35467 0.05203 0.0
C846 C 0.86813 0.32418 0.09609 0.0
C847 C 0.88023 0.3364 0.03591 0.0
C848 C 0.88383 0.33823 0.98862 0.0
C849 C 0.87335 0.33395 0.12432 0.0
C850 C 0.88218 0.34502 0.10816 0.0
C851 C 0.88553 0.34612 0.06427 0.0
C852 C 0.88818 0.35559 0.13633 0.0
C853 C 0.86963 0.33232 0.17145 0.0
C854 C 0.88202 0.36106 0.15226 0.0
C855 C 0.88794 0.37152 0.17643 0.0
C856 C 0.90014 0.37666 0.18504 0.0
C857 C 0.90619 0.37097 0.16988 0.0
C858 C 0.90027 0.36056 0.14553 0.0
H859 H 0.86422 0.32282 0.18046 0.0
H860 H 0.87752 0.33659 0.19298 0.0
H861 H 0.86428 0.33664 0.17754 0.0
H862 H 0.8727 0.3574 0.14506 0.0
H863 H 0.88303 0.37569 0.18756 0.0
H864 H 0.61535 0.53114 0.09767 0.0
H865 H 0.63525 0.54035 0.06652 0.0
H866 H 0.64701 0.52786 0.17482 0.0
H867 H 0.62708 0.51852 0.20622 0.0
H868 H 0.65698 0.55768 0.10393 0.0
H869 H 0.65663 0.51582 0.06611 0.0
H870 H 0.6433 0.51627 0.07818 0.0
H871 H 0.65301 0.51723 0.12141 0.0
C872 C 0.62216 0.53034 0.11493 0.0
C873 C 0.61962 0.52405 0.15434 0.0
C874 C 0.63352 0.53562 0.09707 0.0
C875 C 0.64253 0.53464 0.11809 0.0
C876 C 0.6401 0.52854 0.15776 0.0
H877 H 0.71807 0.57513 0.07335 0.0
H878 H 0.69799 0.56631 0.1025 0.0
C879 C 0.62874 0.52327 0.17575 0.0
C880 C 0.65449 0.54011 0.09853 0.0
H881 H 0.6748 0.5337 0.05578 0.0
C882 C 0.66089 0.55245 0.09333 0.0
C883 C 0.65945 0.53323 0.08423 0.0
C884 C 0.65273 0.51989 0.08733 0.0
C885 C 0.67225 0.55813 0.07483 0.0
C886 C 0.67735 0.55128 0.06168 0.0
C887 C 0.67087 0.53892 0.06618 0.0
C888 C 0.68947 0.55678 0.04356 0.0
C889 C 0.67865 0.5714 0.06904 0.0
C890 C 0.69133 0.55418 0.00097 0.0
C891 C 0.70281 0.55918 0.98418 0.0
C892 C 0.71262 0.56679 0.00991 0.0
C893 C 0.71071 0.56934 0.05261 0.0
C894 C 0.69924 0.56436 0.06929 0.0
H895 H 0.67247 0.57494 0.07059 0.0
H896 H 0.68527 0.57562 0.09545 0.0
H897 H 0.68342 0.574 0.03745 0.0
H898 H 0.68388 0.54829 0.98072 0.0
H899 H 0.70399 0.55702 0.95122 0.0
H900 H 0.5328 0.91381 0.88419 0.0
H901 H 0.5394 0.90095 0.91609 0.0
H902 H 0.52031 0.87464 0.8175 0.0
H903 H 0.51386 0.88758 0.78472 0.0
H904 H 0.52581 0.87876 0.95022 0.0
H905 H 0.55282 0.87764 0.81248 0.0
H906 H 0.54777 0.88823 0.81542 0.0
H907 H 0.53783 0.87327 0.79824 0.0
C908 C 0.53007 0.90533 0.86902 0.0
C909 C 0.52284 0.90173 0.8318 0.0
C910 C 0.53384 0.89799 0.88736 0.0
C911 C 0.53047 0.88691 0.86888 0.0
C912 C 0.52323 0.88327 0.83173 0.0
H913 H 0.54403 0.83058 0.94612 0.0
H914 H 0.53583 0.84204 0.91345 0.0
C915 C 0.51951 0.89065 0.81316 0.0
C916 C 0.53423 0.87906 0.88953 0.0
H917 H 0.5498 0.8648 0.87174 0.0
C918 C 0.53107 0.87572 0.93309 0.0
C919 C 0.54108 0.8751 0.86705 0.0
C920 C 0.54518 0.87882 0.82085 0.0
C921 C 0.53455 0.86849 0.95478 0.0
C922 C 0.54144 0.8646 0.93237 0.0
C923 C 0.54448 0.8678 0.8887 0.0
C924 C 0.54588 0.85746 0.954 0.0
C925 C 0.53075 0.86498 0.00135 0.0
C926 C 0.55422 0.86235 0.98765 0.0
C927 C 0.55896 0.85586 0.00632 0.0
C928 C 0.55543 0.84435 0.99157 0.0
C929 C 0.54691 0.83941 0.95832 0.0
C930 C 0.54223 0.84594 0.93954 0.0
H931 H 0.52328 0.86636 0.01051 0.0
H932 H 0.52804 0.85554 0.00686 0.0
H933 H 0.53831 0.87046 0.02323 0.0
H934 H 0.55727 0.87131 -0.00121 0.0
H935 H 0.56553 0.85994 0.03178 0.0
H936 H 0.09086 0.63291 0.74952 0.0
H937 H 0.0995 0.65237 0.78439 0.0
H938 H 0.11821 0.64224 0.87453 0.0
H939 H 0.10982 0.6229 0.83954 0.0
H940 H 0.09684 0.65702 0.87005 0.0
H941 H 0.14428 0.67429 0.83208 0.0
H942 H 0.13253 0.66159 0.80473 0.0
H943 H 0.13732 0.66005 0.85797 0.0
C944 C 0.09693 0.63487 0.77643 0.0
C945 C 0.09968 0.62637 0.79164 0.0
C946 C 0.10183 0.64598 0.79635 0.0
C947 C 0.10961 0.64879 0.83166 0.0
C948 C 0.11243 0.64035 0.84673 0.0
H949 H 0.14415 0.70771 0.0114 0.0
H950 H 0.13562 0.68849 0.97468 0.0
C951 C 0.10757 0.62927 0.82679 0.0
C952 C 0.11433 0.66032 0.85417 0.0
H953 H 0.13997 0.685 0.8848 0.0
C954 C 0.10627 0.66319 0.87301 0.0
C955 C 0.12663 0.66832 0.85808 0.0
C956 C 0.1357 0.66598 0.8368 0.0
C957 C 0.11019 0.67374 0.8964 0.0
C958 C 0.12248 0.68167 0.90061 0.0
C959 C 0.13055 0.67884 0.88169 0.0
C960 C 0.12717 0.69308 0.9238 0.0
C961 C 0.10118 0.67625 0.91714 0.0
C962 C 0.12523 0.70198 0.90722 0.0
C963 C 0.1301 0.71295 0.928 0.0
C964 C 0.13701 0.71522 0.96572 0.0
C965 C 0.13883 0.70622 0.98253 0.0
C966 C 0.134 0.69526 0.96156 0.0
H967 H 0.09231 0.66815 0.91933 0.0
H968 H 0.10404 0.67997 0.95031 0.0
H969 H 0.10031 0.68287 0.89723 0.0
H970 H 0.12013 0.70051 0.87774 0.0
H971 H 0.12856 0.7197 0.91414 0.0
H972 H 0.29361 0.44202 0.0209 0.0
H973 H 0.31375 0.45101 0.99165 0.0
H974 H 0.30065 0.42802 0.87983 0.0
H975 H 0.28055 0.41888 0.90893 0.0
H976 H 0.32086 0.42934 0.91684 0.0
H977 H 0.32667 0.474 0.88802 0.0
H978 H 0.32241 0.46854 0.94255 0.0
H979 H 0.31238 0.46113 0.8983 0.0
C980 C 0.29502 0.43888 0.99008 0.0
C981 C 0.28547 0.42977 0.96715 0.0
C982 C 0.30651 0.44407 0.97332 0.0
C983 C 0.30864 0.44028 0.9333 0.0
C984 C 0.29917 0.43109 0.91068 0.0
H985 H 0.37191 0.47622 0.77384 0.0
H986 H 0.35161 0.46635 0.80177 0.0
C987 C 0.28769 0.4259 0.92738 0.0
C988 C 0.32075 0.44579 0.91505 0.0
H989 H 0.34359 0.47195 0.87785 0.0
C990 C 0.32584 0.43865 0.90824 0.0
C991 C 0.32712 0.4579 0.90333 0.0
C992 C 0.32186 0.46584 0.908 0.0
C993 C 0.33723 0.44334 0.89057 0.0
C994 C 0.34374 0.45552 0.88005 0.0
C995 C 0.33859 0.46262 0.88626 0.0
C996 C 0.35595 0.46109 0.86266 0.0
C997 C 0.34214 0.43519 0.88271 0.0
C998 C 0.36509 0.46143 0.88777 0.0
C999 C 0.37668 0.46704 0.87192 0.0
C1000 C 0.37935 0.47248 0.83075 0.0
C1001 C 0.37015 0.47209 0.80561 0.0
C1002 C 0.35855 0.46648 0.82153 0.0
H1003 H 0.33502 0.42575 0.88181 0.0
H1004 H 0.34715 0.43737 0.85162 0.0
H1005 H 0.3483 0.43625 0.9095 0.0
H1006 H 0.36329 0.45752 0.91994 0.0
H1007 H 0.38356 0.46723 0.8922 0.0
H1008 H 0.07959 0.45395 0.30677 0.0
H1009 H 0.08982 0.44465 0.34104 0.0
H1010 H 0.12208 0.47844 0.34577 0.0
H1011 H 0.11196 0.48785 0.3113 0.0
H1012 H 0.1248 0.45922 0.31526 0.0
H1013 H 0.0999 0.44896 0.47094 0.0
H1014 H 0.09084 0.44384 0.42293 0.0
H1015 H 0.10015 0.45946 0.43202 0.0
C1016 C 0.08888 0.45941 0.31488 0.0
C1017 C 0.09495 0.47166 0.30651 0.0
C1018 C 0.09468 0.45409 0.33472 0.0
C1019 C 0.10663 0.46091 0.34653 0.0
C1020 C 0.11282 0.47306 0.33713 0.0
H1021 H 0.14628 0.44018 0.51782 0.0
H1022 H 0.13656 0.4501 0.484 0.0
C1023 C 0.10702 0.47841 0.31743 0.0
C1024 C 0.1127 0.45536 0.36861 0.0
H1025 H 0.11244 0.44079 0.46127 0.0
C1026 C 0.12213 0.45522 0.34722 0.0
C1027 C 0.10929 0.4503 0.41054 0.0
C1028 C 0.09956 0.45071 0.43574 0.0
C1029 C 0.1281 0.4499 0.36632 0.0
C1030 C 0.12441 0.44449 0.40762 0.0
C1031 C 0.11515 0.44487 0.42943 0.0
C1032 C 0.13002 0.43832 0.42855 0.0
C1033 C 0.13836 0.45023 0.34235 0.0
C1034 C 0.12934 0.42828 0.40897 0.0
C1035 C 0.13486 0.4226 0.42814 0.0
C1036 C 0.14113 0.42683 0.46741 0.0
C1037 C 0.14155 0.43673 0.48752 0.0
C1038 C 0.13601 0.4424 0.46827 0.0
H1039 H 0.14194 0.45721 0.31687 0.0
H1040 H 0.14562 0.45183 0.36514 0.0
H1041 H 0.13532 0.44157 0.3262 0.0
H1042 H 0.12455 0.42485 0.37875 0.0
H1043 H 0.13429 0.41496 0.41194 0.0
H1044 H 0.50582 0.62141 0.32741 0.0
H1045 H 0.51567 0.64042 0.3654 0.0
H1046 H 0.54905 0.64827 0.30839 0.0
H1047 H 0.53929 0.6293 0.26999 0.0
H1048 H 0.53474 0.64775 0.42567 0.0
H1049 H 0.54686 0.67832 0.28469 0.0
H1050 H 0.53575 0.66283 0.28128 0.0
H1051 H 0.55121 0.66729 0.28005 0.0
C1052 C 0.51524 0.62723 0.3225 0.0
C1053 C 0.52177 0.62384 0.2956 0.0
C1054 C 0.52084 0.63807 0.34434 0.0
C1055 C 0.53305 0.64576 0.33938 0.0
C1056 C 0.53958 0.64251 0.31208 0.0
H1057 H 0.58448 0.71364 0.44426 0.0
H1058 H 0.57401 0.69451 0.40749 0.0
C1059 C 0.53399 0.63166 0.29028 0.0
C1060 C 0.53904 0.65695 0.36433 0.0
H1061 H 0.55504 0.68697 0.35302 0.0
C1062 C 0.53914 0.65634 0.4099 0.0
C1063 C 0.54477 0.6681 0.34351 0.0
C1064 C 0.54459 0.66924 0.2947 0.0
C1065 C 0.54506 0.66663 0.43531 0.0
C1066 C 0.55082 0.6778 0.41449 0.0
C1067 C 0.55064 0.67839 0.36889 0.0
C1068 C 0.55722 0.68903 0.43917 0.0
C1069 C 0.54538 0.66543 0.48405 0.0
C1070 C 0.55127 0.69227 0.46942 0.0
C1071 C 0.55727 0.70318 0.49081 0.0
C1072 C 0.56928 0.7111 0.48182 0.0
C1073 C 0.57523 0.70776 0.45186 0.0
C1074 C 0.56926 0.69683 0.43076 0.0
H1075 H 0.54339 0.6564 0.49365 0.0
H1076 H 0.55417 0.67197 0.49744 0.0
H1077 H 0.5386 0.66707 0.49915 0.0
H1078 H 0.54192 0.68648 0.47571 0.0
H1079 H 0.55242 0.70554 0.51346 0.0
H1080 H 0.36706 0.90631 0.27743 0.0
H1081 H 0.34814 0.89543 0.3157 0.0
H1082 H 0.35606 0.86799 0.34852 0.0
H1083 H 0.37498 0.87875 0.31006 0.0
H1084 H 0.33262 0.85956 0.31805 0.0
H1085 H 0.345 0.89285 0.44978 0.0
H1086 H 0.34698 0.89882 0.39577 0.0
H1087 H 0.35578 0.89254 0.41371 0.0
C1088 C 0.36476 0.89793 0.29254 0.0
C1089 C 0.37256 0.89343 0.29093 0.0
C1090 C 0.35398 0.89177 0.31464 0.0
C1091 C 0.35083 0.88103 0.33557 0.0
C1092 C 0.3584 0.87632 0.33283 0.0
H1093 H 0.2927 0.84648 0.52284 0.0
H1094 H 0.31219 0.85525 0.48766 0.0
C1095 C 0.36919 0.88248 0.31081 0.0
C1096 C 0.33963 0.87474 0.36038 0.0
H1097 H 0.32474 0.87772 0.44633 0.0
C1098 C 0.33091 0.86348 0.34626 0.0
C1099 C 0.33754 0.87981 0.39759 0.0
C1100 C 0.34685 0.89162 0.41546 0.0
C1101 C 0.31994 0.85732 0.36754 0.0
C1102 C 0.31764 0.86265 0.4035 0.0
C1103 C 0.32652 0.87372 0.41854 0.0
C1104 C 0.30588 0.85711 0.42469 0.0
C1105 C 0.3109 0.84518 0.35135 0.0
C1106 C 0.29597 0.85541 0.40102 0.0
C1107 C 0.28489 0.85046 0.42094 0.0
C1108 C 0.28351 0.84715 0.46503 0.0
C1109 C 0.29348 0.84891 0.48881 0.0
C1110 C 0.3046 0.85391 0.4688 0.0
H1111 H 0.31509 0.84108 0.3319 0.0
H1112 H 0.30597 0.83921 0.37886 0.0
H1113 H 0.30443 0.84596 0.33018 0.0
H1114 H 0.29683 0.85804 0.36718 0.0
H1115 H 0.27742 0.84927 0.40168 0.0
H1116 H 0.09491 0.21746 0.6707 0.0
H1117 H 0.10548 0.216 0.73437 0.0
H1118 H 0.1038 0.24493 0.79509 0.0
H1119 H 0.09333 0.24651 0.732 0.0
H1120 H 0.12787 0.2357 0.7732 0.0
H1121 H 0.08925 0.21665 0.88493 0.0
H1122 H 0.08773 0.21575 0.82639 0.0
H1123 H 0.09121 0.22923 0.85419 0.0
C1124 C 0.09679 0.2235 0.69764 0.0
C1125 C 0.09325 0.23208 0.69638 0.0
C1126 C 0.10283 0.22266 0.73387 0.0
C1127 C 0.10525 0.23026 0.76946 0.0
C1128 C 0.10184 0.23888 0.76808 0.0
H1129 H 0.13832 0.25259 0.0117 0.0
H1130 H 0.12698 0.24746 0.94437 0.0
C1131 C 0.09591 0.2398 0.7319 0.0
C1132 C 0.11151 0.22945 0.80816 0.0
H1133 H 0.10837 0.22521 0.91789 0.0
C1134 C 0.12361 0.23319 0.80479 0.0
C1135 C 0.10585 0.22613 0.84909 0.0
C1136 C 0.09276 0.2216 0.85401 0.0
C1137 C 0.1304 0.23445 0.84199 0.0
C1138 C 0.12484 0.2317 0.88327 0.0
C1139 C 0.11261 0.22735 0.8862 0.0
C1140 C 0.13171 0.23447 0.92415 0.0
C1141 C 0.14356 0.23937 0.83718 0.0
C1142 C 0.13806 0.22878 0.93527 0.0
C1143 C 0.14462 0.23172 0.9739 0.0
C1144 C 0.14487 0.24037 0.00197 0.0
C1145 C 0.13835 0.24591 0.99084 0.0
C1146 C 0.13184 0.24298 0.95237 0.0
H1147 H 0.14675 0.24285 0.80393 0.0
H1148 H 0.1485 0.24661 0.86102 0.0
H1149 H 0.14566 0.23226 0.84382 0.0
H1150 H 0.13791 0.22205 0.91419 0.0
H1151 H 0.14951 0.22726 0.98169 0.0
H1152 H 0.74767 0.88335 0.02865 0.0
H1153 H 0.75346 0.87666 0.96398 0.0
H1154 H 0.7754 0.91287 0.92239 0.0
H1155 H 0.76956 0.9197 0.98723 0.0
H1156 H 0.76029 0.89787 0.85767 0.0
H1157 H 0.78496 0.87842 0.93498 0.0
H1158 H 0.77067 0.8732 0.95918 0.0
H1159 H 0.7817 0.88864 0.96302 0.0
C1160 C 0.7538 0.88992 0.006 0.0
C1161 C 0.75816 0.90206 0.01309 0.0
C1162 C 0.75718 0.88608 0.96921 0.0
C1163 C 0.76502 0.89428 0.93885 0.0
C1164 C 0.76943 0.90642 0.94573 0.0
H1165 H 0.7863 0.86547 0.71999 0.0
H1166 H 0.78774 0.87844 0.78031 0.0
C1167 C 0.76607 0.91029 0.98273 0.0
C1168 C 0.76789 0.89 0.89863 0.0
H1169 H 0.77749 0.87148 0.86273 0.0
C1170 C 0.76425 0.89228 0.85861 0.0
C1171 C 0.77323 0.88287 0.89986 0.0
C1172 C 0.77798 0.88073 0.94154 0.0
C1173 C 0.76511 0.88697 0.82014 0.0
C1174 C 0.76957 0.87908 0.82201 0.0
C1175 C 0.77393 0.87742 0.8615 0.0
C1176 C 0.76887 0.87171 0.78427 0.0
C1177 C 0.761 0.88966 0.77801 0.0
C1178 C 0.75777 0.86356 0.767 0.0
C1179 C 0.75691 0.85614 0.7328 0.0
C1180 C 0.76714 0.85668 0.71532 0.0
C1181 C 0.77826 0.86486 0.73268 0.0
C1182 C 0.77911 0.87228 0.76708 0.0
H1183 H 0.76143 0.89838 0.77935 0.0
H1184 H 0.76642 0.88966 0.75012 0.0
H1185 H 0.75165 0.88278 0.77205 0.0
H1186 H 0.74974 0.86279 0.78049 0.0
H1187 H 0.74821 0.84992 0.72029 0.0
H1188 H 0.08645 0.8624 0.98931 0.0
H1189 H 0.09792 0.87274 0.92479 0.0
H1190 H 0.08491 0.83936 0.85848 0.0
H1191 H 0.07335 0.8289 0.9228 0.0
H1192 H 0.11565 0.86805 0.89265 0.0
H1193 H 0.08244 0.8613 0.76591 0.0
H1194 H 0.07907 0.85985 0.8234 0.0
H1195 H 0.07978 0.8482 0.79485 0.0
C1196 C 0.0858 0.85725 0.9607 0.0
C1197 C 0.07905 0.84481 0.96131 0.0
C1198 C 0.09237 0.86319 0.92389 0.0
C1199 C 0.09221 0.85681 0.88691 0.0
C1200 C 0.08501 0.84445 0.88652 0.0
H1201 H 0.14653 0.87724 0.69002 0.0
H1202 H 0.13133 0.86687 0.74565 0.0
C1203 C 0.07845 0.83849 0.9234 0.0
C1204 C 0.1006 0.86296 0.85089 0.0
H1205 H 0.1024 0.86932 0.74243 0.0
C1206 C 0.11276 0.86838 0.85985 0.0
C1207 C 0.09677 0.86337 0.80824 0.0
C1208 C 0.08381 0.85796 0.79737 0.0
C1209 C 0.12122 0.87407 0.82709 0.0
C1210 C 0.1174 0.87428 0.78427 0.0
C1211 C 0.10525 0.86903 0.77533 0.0
C1212 C 0.126 0.88012 0.74868 0.0
C1213 C 0.1342 0.87992 0.83845 0.0
C1214 C 0.12785 0.89088 0.73166 0.0
C1215 C 0.13656 0.89686 0.70012 0.0
C1216 C 0.14349 0.89211 0.68483 0.0
C1217 C 0.14137 0.88115 0.70118 0.0
C1218 C 0.13271 0.87522 0.73294 0.0
H1219 H 0.13569 0.88073 0.87418 0.0
H1220 H 0.13793 0.87456 0.82511 0.0
H1221 H 0.13914 0.88888 0.82369 0.0
H1222 H 0.12274 0.89478 0.74353 0.0
H1223 H 0.13793 0.90526 0.68805 0.0
H1224 H 0.20987 0.0807 0.80025 0.0
H1225 H 0.20801 0.09167 0.73889 0.0
H1226 H 0.24577 0.10924 0.71856 0.0
H1227 H 0.24776 0.09848 0.77982 0.0
H1228 H 0.23607 0.1245 0.71673 0.0
H1229 H 0.21171 0.08502 0.60977 0.0
H1230 H 0.20555 0.0843 0.66281 0.0
H1231 H 0.2195 0.08478 0.65793 0.0
C1232 C 0.21778 0.08691 0.78272 0.0
C1233 C 0.22896 0.08867 0.79473 0.0
C1234 C 0.21668 0.09314 0.74765 0.0
C1235 C 0.22674 0.10117 0.72404 0.0
C1236 C 0.23791 0.10307 0.73642 0.0
H1237 H 0.24363 0.13032 0.47331 0.0
H1238 H 0.23904 0.11918 0.54106 0.0
C1239 C 0.23901 0.09688 0.77135 0.0
C1240 C 0.22579 0.10752 0.68583 0.0
H1241 H 0.21683 0.10354 0.57983 0.0
C1242 C 0.23172 0.11994 0.68692 0.0
C1243 C 0.22015 0.1015 0.64708 0.0
C1244 C 0.21391 0.08817 0.64391 0.0
C1245 C 0.23256 0.12654 0.64971 0.0
C1246 C 0.22719 0.12052 0.61063 0.0
C1247 C 0.22087 0.1081 0.61 0.0
C1248 C 0.22923 0.12693 0.56897 0.0
C1249 C 0.23973 0.13988 0.65182 0.0
C1250 C 0.22508 0.13486 0.56202 0.0
C1251 C 0.22774 0.14131 0.5232 0.0
C1252 C 0.23455 0.13988 0.49082 0.0
C1253 C 0.23841 0.13169 0.49762 0.0
C1254 C 0.23576 0.12527 0.53627 0.0
H1255 H 0.24484 0.14307 0.68257 0.0
H1256 H 0.24599 0.14344 0.624 0.0
H1257 H 0.23368 0.14355 0.64971 0.0
H1258 H 0.21989 0.13613 0.58671 0.0
H1259 H 0.22458 0.14751 0.5188 0.0
H1260 H 0.85569 0.07943 0.52881 0.0
H1261 H 0.86718 0.08682 0.59622 0.0
H1262 H 0.84841 0.1053 0.62722 0.0
H1263 H 0.83685 0.09788 0.56081 0.0
H1264 H 0.88198 0.11028 0.61582 0.0
H1265 H 0.84744 0.08979 0.74246 0.0
H1266 H 0.84503 0.08451 0.68699 0.0
H1267 H 0.84349 0.09704 0.70175 0.0
C1268 C 0.85388 0.08489 0.55042 0.0
C1269 C 0.84537 0.08808 0.53943 0.0
C1270 C 0.86045 0.08911 0.58886 0.0
C1271 C 0.85851 0.09645 0.61705 0.0
C1272 C 0.84984 0.0994 0.60654 0.0
H1273 H 0.8906 0.14812 0.81305 0.0
H1274 H 0.87845 0.13373 0.7575 0.0
C1275 C 0.84331 0.09523 0.56827 0.0
C1276 C 0.86623 0.10202 0.65533 0.0
H1277 H 0.86535 0.10769 0.76329 0.0
C1278 C 0.87841 0.10952 0.6483 0.0
C1279 C 0.86154 0.101 0.69765 0.0
C1280 C 0.84867 0.09255 0.70776 0.0
C1281 C 0.88589 0.1166 0.6819 0.0
C1282 C 0.88105 0.11605 0.72357 0.0
C1283 C 0.86899 0.10814 0.73115 0.0
C1284 C 0.88816 0.1243 0.7587 0.0
C1285 C 0.89877 0.12509 0.67207 0.0
C1286 C 0.89754 0.12363 0.77809 0.0
C1287 C 0.90451 0.13183 0.80993 0.0
C1288 C 0.9022 0.14084 0.82279 0.0
C1289 C 0.89264 0.14133 0.80378 0.0
C1290 C 0.88567 0.1331 0.77213 0.0
H1291 H 0.90072 0.12565 0.63668 0.0
H1292 H 0.90138 0.1341 0.68424 0.0
H1293 H 0.90432 0.1221 0.68898 0.0
H1294 H 0.8995 0.1168 0.76841 0.0
H1295 H 0.91178 0.1312 0.82405 0.0
H1296 H 0.86936 0.74626 0.8645 0.0
H1297 H 0.88275 0.74883 0.80434 0.0
H1298 H 0.8683 0.76666 0.72973 0.0
H1299 H 0.85477 0.76397 0.78922 0.0
H1300 H 0.86858 0.74854 0.68516 0.0
H1301 H 0.91256 0.77806 0.75947 0.0
H1302 H 0.90323 0.76493 0.79031 0.0
H1303 H 0.89892 0.77592 0.78293 0.0
C1304 C 0.86912 0.75085 0.83548 0.0
C1305 C 0.86097 0.75488 0.8316 0.0
C1306 C 0.87684 0.75239 0.80126 0.0
C1307 C 0.87662 0.75808 0.76282 0.0
C1308 C 0.86865 0.7623 0.75922 0.0
H1309 H 0.90837 0.7695 0.50704 0.0
H1310 H 0.89899 0.77083 0.574 0.0
C1311 C 0.86091 0.76073 0.79327 0.0
C1312 C 0.88399 0.75883 0.72494 0.0
H1313 H 0.9125 0.76977 0.69036 0.0
C1314 C 0.87819 0.75325 0.68622 0.0
C1315 C 0.89651 0.76491 0.72658 0.0
C1316 C 0.9032 0.77139 0.76691 0.0
C1317 C 0.88455 0.75348 0.64914 0.0
C1318 C 0.89706 0.75961 0.65065 0.0
C1319 C 0.9029 0.76513 0.6894 0.0
C1320 C 0.90413 0.76019 0.61214 0.0
C1321 C 0.87782 0.74697 0.60885 0.0
C1322 C 0.91055 0.75421 0.6121 0.0
C1323 C 0.91596 0.75345 0.5739 0.0
C1324 C 0.91504 0.75869 0.53521 0.0
C1325 C 0.90918 0.76528 0.53616 0.0
C1326 C 0.90378 0.76603 0.57433 0.0
H1327 H 0.86836 0.74058 0.61603 0.0
H1328 H 0.87815 0.75346 0.58472 0.0
H1329 H 0.88187 0.74209 0.59376 0.0
H1330 H 0.91095 0.74969 0.64109 0.0
H1331 H 0.92046 0.74836 0.57433 0.0
H1332 H 0.82232 0.74671 0.07732 0.0
H1333 H 0.83214 0.74838 0.14695 0.0
H1334 H 0.8662 0.76746 0.084 0.0
H1335 H 0.85652 0.76603 0.01461 0.0
H1336 H 0.84609 0.73874 0.16279 0.0
H1337 H 0.87171 0.787 0.19302 0.0
H1338 H 0.85979 0.78046 0.15394 0.0
H1339 H 0.87434 0.78319 0.13973 0.0
C1340 C 0.83191 0.75147 0.07845 0.0
C1341 C 0.83864 0.7562 0.04038 0.0
C1342 C 0.8375 0.75241 0.11827 0.0
C1343 C 0.8499 0.75816 0.12076 0.0
C1344 C 0.85664 0.76323 0.08307 0.0
H1345 H 0.90424 0.76165 0.28369 0.0
H1346 H 0.89176 0.76325 0.22799 0.0
C1347 C 0.85107 0.76232 0.04331 0.0
C1348 C 0.85579 0.75781 0.16147 0.0
H1349 H 0.87807 0.77512 0.23183 0.0
C1350 C 0.85294 0.74669 0.1784 0.0
C1351 C 0.86473 0.7682 0.18168 0.0
C1352 C 0.86774 0.78039 0.16641 0.0
C1353 C 0.85918 0.74567 0.2137 0.0
C1354 C 0.86841 0.75605 0.23286 0.0
C1355 C 0.87101 0.76718 0.2169 0.0
C1356 C 0.87594 0.7555 0.2677 0.0
C1357 C 0.85623 0.73349 0.22895 0.0
C1358 C 0.87118 0.75074 0.30864 0.0
C1359 C 0.87829 0.74979 0.3406 0.0
C1360 C 0.89028 0.75361 0.3321 0.0
C1361 C 0.89504 0.75858 0.29126 0.0
C1362 C 0.88794 0.75954 0.25943 0.0
H1363 H 0.85039 0.72646 0.20566 0.0
H1364 H 0.86443 0.73302 0.23365 0.0
H1365 H 0.85158 0.7316 0.26072 0.0
H1366 H 0.86197 0.74771 0.31577 0.0
H1367 H 0.87437 0.74598 0.3718 0.0
H1368 H 0.22676 0.07369 0.02228 0.0
H1369 H 0.22116 0.07928 0.09067 0.0
H1370 H 0.23324 0.11434 0.03999 0.0
H1371 H 0.2387 0.10884 0.97174 0.0
H1372 H 0.23632 0.09686 0.14605 0.0
H1373 H 0.20127 0.10594 0.09152 0.0
H1374 H 0.20613 0.09762 0.05901 0.0
H1375 H 0.21432 0.11357 0.05855 0.0
C1376 C 0.22807 0.08254 0.02552 0.0
C1377 C 0.23319 0.09083 0.99161 0.0
C1378 C 0.22485 0.0857 0.06457 0.0
C1379 C 0.2266 0.09716 0.07009 0.0
C1380 C 0.23154 0.10536 0.03603 0.0
H1381 H 0.24564 0.14452 0.2789 0.0
H1382 H 0.24368 0.13134 0.21926 0.0
C1383 C 0.23476 0.10223 0.99713 0.0
C1384 C 0.22433 0.101 0.11254 0.0
H1385 H 0.21151 0.11573 0.15792 0.0
C1386 C 0.23071 0.10077 0.14892 0.0
C1387 C 0.21684 0.1059 0.11646 0.0
C1388 C 0.20915 0.10566 0.07937 0.0
C1389 C 0.23045 0.10608 0.18826 0.0
C1390 C 0.2238 0.11192 0.19091 0.0
C1391 C 0.21675 0.1114 0.15558 0.0
C1392 C 0.22488 0.1195 0.22844 0.0
C1393 C 0.23755 0.10566 0.22627 0.0
C1394 C 0.21489 0.11736 0.25276 0.0
C1395 C 0.21597 0.12495 0.28685 0.0
C1396 C 0.22703 0.13486 0.29679 0.0
C1397 C 0.237 0.13696 0.27222 0.0
C1398 C 0.23592 0.12938 0.23832 0.0
H1399 H 0.23885 0.09788 0.22407 0.0
H1400 H 0.24642 0.11375 0.2261 0.0
H1401 H 0.23316 0.10528 0.25768 0.0
H1402 H 0.20628 0.10984 0.2453 0.0
H1403 H 0.20812 0.12311 0.30512 0.0
H1404 H 0.86148 0.12057 0.3538 0.0
H1405 H 0.87306 0.13149 0.29011 0.0
H1406 H 0.87237 0.10001 0.24284 0.0
H1407 H 0.86057 0.08895 0.30583 0.0
H1408 H 0.89466 0.13598 0.25367 0.0
H1409 H 0.85661 0.10831 0.14497 0.0
H1410 H 0.85519 0.10807 0.20337 0.0
H1411 H 0.86149 0.10012 0.17748 0.0
C1412 C 0.8639 0.116 0.3301 0.0
C1413 C 0.85996 0.10385 0.33451 0.0
C1414 C 0.87053 0.12226 0.29378 0.0
C1415 C 0.87337 0.11649 0.26142 0.0
C1416 C 0.87005 0.10455 0.26702 0.0
H1417 H 0.91767 0.15195 0.03268 0.0
H1418 H 0.91056 0.14136 0.102 0.0
C1419 C 0.86334 0.09826 0.3031 0.0
C1420 C 0.87908 0.12276 0.22054 0.0
H1421 H 0.87429 0.12255 0.11135 0.0
C1422 C 0.89026 0.13304 0.22247 0.0
C1423 C 0.87321 0.11895 0.18003 0.0
C1424 C 0.86092 0.10833 0.17617 0.0
C1425 C 0.89572 0.13967 0.18486 0.0
C1426 C 0.88988 0.13579 0.14436 0.0
C1427 C 0.87877 0.12544 0.14245 0.0
C1428 C 0.89467 0.14269 0.10379 0.0
C1429 C 0.90747 0.15097 0.18894 0.0
C1430 C 0.88804 0.14682 0.08169 0.0
C1431 C 0.89198 0.15272 0.0421 0.0
C1432 C 0.90267 0.15463 0.0237 0.0
C1433 C 0.90942 0.15065 0.04615 0.0
C1434 C 0.90542 0.14466 0.08583 0.0
H1435 H 0.90953 0.15401 0.22325 0.0
H1436 H 0.9146 0.14942 0.17675 0.0
H1437 H 0.90758 0.15813 0.16912 0.0
H1438 H 0.87972 0.14538 0.09498 0.0
H1439 H 0.88658 0.15571 0.0258 0.0
H1440 H 0.74528 0.89737 0.22944 0.0
H1441 H 0.74686 0.88652 0.29137 0.0
H1442 H 0.78288 0.89744 0.25553 0.0
H1443 H 0.78145 0.90849 0.19371 0.0
H1444 H 0.75213 0.86813 0.29344 0.0
H1445 H 0.78563 0.90798 0.38307 0.0
H1446 H 0.77736 0.90891 0.33767 0.0
H1447 H 0.78952 0.90638 0.32838 0.0
C1448 C 0.75355 0.89748 0.23466 0.0
C1449 C 0.76327 0.90387 0.20683 0.0
C1450 C 0.75442 0.89124 0.27001 0.0
C1451 C 0.76503 0.8913 0.27828 0.0
C1452 C 0.77468 0.89746 0.2501 0.0
H1453 H 0.76646 0.84399 0.48021 0.0
H1454 H 0.76959 0.85438 0.41066 0.0
C1455 C 0.77383 0.90373 0.21472 0.0
C1456 C 0.76591 0.885 0.31684 0.0
H1457 H 0.77928 0.88946 0.41599 0.0
C1458 C 0.75813 0.87275 0.32011 0.0
C1459 C 0.77372 0.8911 0.35157 0.0
C1460 C 0.78198 0.90433 0.35039 0.0
C1461 C 0.75773 0.86647 0.35775 0.0
C1462 C 0.76545 0.8726 0.39267 0.0
C1463 C 0.77345 0.88479 0.38894 0.0
C1464 C 0.76451 0.86678 0.43499 0.0
C1465 C 0.74867 0.85345 0.36062 0.0
C1466 C 0.76102 0.87058 0.47188 0.0
C1467 C 0.7593 0.86475 0.51152 0.0
C1468 C 0.76106 0.85499 0.51511 0.0
C1469 C 0.76496 0.85143 0.47842 0.0
C1470 C 0.7667 0.85731 0.43865 0.0
H1471 H 0.74197 0.8506 0.33426 0.0
H1472 H 0.75321 0.84821 0.35784 0.0
H1473 H 0.74402 0.85135 0.39246 0.0
H1474 H 0.75932 0.8779 0.46974 0.0
H1475 H 0.75635 0.86776 0.53914 0.0
H1476 H 0.08431 0.86142 0.2067 0.0
H1477 H 0.09529 0.8735 0.26921 0.0
H1478 H 0.12801 0.87952 0.21141 0.0
H1479 H 0.11713 0.86773 0.14824 0.0
H1480 H 0.10746 0.8681 0.324 0.0
H1481 H 0.13771 0.91228 0.25453 0.0
H1482 H 0.12517 0.90101 0.22482 0.0
H1483 H 0.13889 0.90083 0.22664 0.0
C1484 C 0.09387 0.86549 0.20694 0.0
C1485 C 0.09985 0.86359 0.1726 0.0
C1486 C 0.10013 0.87241 0.24265 0.0
C1487 C 0.11249 0.87755 0.24478 0.0
C1488 C 0.11852 0.87592 0.21001 0.0
H1489 H 0.15512 0.88929 0.46852 0.0
H1490 H 0.14359 0.88302 0.40158 0.0
C1491 C 0.11227 0.86908 0.17405 0.0
C1492 C 0.11888 0.88343 0.28533 0.0
H1493 H 0.14314 0.90815 0.32482 0.0
C1494 C 0.11515 0.87694 0.32421 0.0
C1495 C 0.12883 0.89501 0.28581 0.0
C1496 C 0.13281 0.90273 0.24577 0.0
C1497 C 0.12139 0.88148 0.3631 0.0
C1498 C 0.1318 0.8927 0.36292 0.0
C1499 C 0.13524 0.89947 0.32463 0.0
C1500 C 0.1395 0.89718 0.40172 0.0
C1501 C 0.11684 0.87414 0.40399 0.0
C1502 C 0.14141 0.90751 0.42302 0.0
C1503 C 0.14809 0.91119 0.46137 0.0
C1504 C 0.15296 0.90458 0.47878 0.0
C1505 C 0.15138 0.8945 0.45631 0.0
C1506 C 0.14476 0.89088 0.41809 0.0
H1507 H 0.10722 0.86761 0.40169 0.0
H1508 H 0.12159 0.86915 0.40894 0.0
H1509 H 0.11838 0.87982 0.43295 0.0
H1510 H 0.13747 0.91253 0.41061 0.0
H1511 H 0.1492 0.91902 0.47787 0.0
H1512 H 0.11108 0.2532 0.50925 0.0
H1513 H 0.11795 0.24835 0.44282 0.0
H1514 H 0.08247 0.22009 0.41618 0.0
H1515 H 0.07542 0.22498 0.48282 0.0
H1516 H 0.11627 0.22645 0.42048 0.0
H1517 H 0.09266 0.23987 0.3026 0.0
H1518 H 0.09462 0.24438 0.35894 0.0
H1519 H 0.08391 0.22946 0.34431 0.0
C1520 C 0.1047 0.24596 0.48933 0.0
C1521 C 0.09269 0.2395 0.50125 0.0
C1522 C 0.10865 0.24319 0.45139 0.0
C1523 C 0.1007 0.23394 0.42446 0.0
C1524 C 0.08871 0.22738 0.43627 0.0
H1525 H 0.12215 0.2176 0.17327 0.0
H1526 H 0.10996 0.21564 0.2371 0.0
C1527 C 0.08472 0.23015 0.4744 0.0
C1528 C 0.10519 0.23129 0.3843 0.0
H1529 H 0.10564 0.23401 0.27372 0.0
C1530 C 0.11383 0.22794 0.38835 0.0
C1531 C 0.10192 0.23319 0.34247 0.0
C1532 C 0.09283 0.23699 0.33648 0.0
C1533 C 0.11965 0.2269 0.35174 0.0
C1534 C 0.11685 0.22941 0.31016 0.0
C1535 C 0.10776 0.23213 0.30578 0.0
C1536 C 0.12406 0.23042 0.2716 0.0
C1537 C 0.12898 0.22341 0.35789 0.0
C1538 C 0.13593 0.23949 0.26982 0.0
C1539 C 0.14286 0.24068 0.23355 0.0
C1540 C 0.13806 0.23281 0.1983 0.0
C1541 C 0.12612 0.22377 0.2 0.0
C1542 C 0.11915 0.22263 0.23633 0.0
H1543 H 0.12781 0.21868 0.38919 0.0
H1544 H 0.12877 0.21765 0.33084 0.0
H1545 H 0.13786 0.2315 0.35819 0.0
H1546 H 0.13981 0.2457 0.29648 0.0
H1547 H 0.15201 0.24776 0.23327 0.0
H1548 H 0.82362 0.59703 0.3019 0.0
H1549 H 0.81156 0.59158 0.23629 0.0
H1550 H 0.80153 0.55498 0.25504 0.0
H1551 H 0.81365 0.56034 0.32144 0.0
H1552 H 0.80886 0.5655 0.16389 0.0
H1553 H 0.77401 0.57172 0.2424 0.0
H1554 H 0.78887 0.5836 0.2516 0.0
H1555 H 0.78432 0.56912 0.27304 0.0
C1556 C 0.81892 0.58781 0.29214 0.0
C1557 C 0.81953 0.5791 0.31711 0.0
C1558 C 0.81202 0.58473 0.25464 0.0
C1559 C 0.80559 0.57289 0.24127 0.0
C1560 C 0.80642 0.56417 0.26513 0.0
H1561 H 0.75228 0.55896 0.04287 0.0
H1562 H 0.76196 0.55544 0.1045 0.0
C1563 C 0.81333 0.56724 0.30297 0.0
C1564 C 0.7978 0.5698 0.20287 0.0
H1565 H 0.77425 0.57166 0.16477 0.0
C1566 C 0.80115 0.56662 0.16407 0.0
C1567 C 0.78768 0.57109 0.20355 0.0
C1568 C 0.78341 0.57396 0.24496 0.0
C1569 C 0.79501 0.5654 0.12511 0.0
C1570 C 0.78542 0.56761 0.12515 0.0
C1571 C 0.78166 0.57006 0.16462 0.0
C1572 C 0.77973 0.5684 0.08454 0.0
C1573 C 0.79896 0.56196 0.08426 0.0
C1574 C 0.78652 0.57676 0.05256 0.0
C1575 C 0.78102 0.57876 0.01721 0.0
C1576 C 0.76861 0.57256 0.01353 0.0
C1577 C 0.76185 0.56392 0.04486 0.0
C1578 C 0.76737 0.56188 0.08005 0.0
H1579 H 0.80329 0.55669 0.09196 0.0
H1580 H 0.7914 0.55674 0.06198 0.0
H1581 H 0.80554 0.57009 0.06705 0.0
H1582 H 0.79604 0.58213 0.0559 0.0
H1583 H 0.78647 0.5855 0.99375 0.0
H1584 H 0.41214 0.18232 0.07622 0.0
H1585 H 0.41374 0.19518 0.13647 0.0
H1586 H 0.4516 0.21551 0.11869 0.0
H1587 H 0.45011 0.20254 0.05827 0.0
H1588 H 0.4448 0.20917 0.20484 0.0
H1589 H 0.42014 0.22922 0.13212 0.0
H1590 H 0.41204 0.21335 0.12875 0.0
H1591 H 0.42586 0.22157 0.10005 0.0
C1592 C 0.42082 0.18955 0.08487 0.0
C1593 C 0.431 0.19142 0.06237 0.0
C1594 C 0.4217 0.19696 0.11912 0.0
C1595 C 0.43275 0.20643 0.13143 0.0
C1596 C 0.44297 0.20831 0.10933 0.0
H1597 H 0.43063 0.25265 0.3355 0.0
H1598 H 0.43644 0.24675 0.26826 0.0
C1599 C 0.4421 0.20089 0.07489 0.0
C1600 C 0.43356 0.21389 0.16901 0.0
H1601 H 0.42147 0.22973 0.2105 0.0
C1602 C 0.43989 0.21386 0.20587 0.0
C1603 C 0.42735 0.22019 0.16999 0.0
C1604 C 0.42107 0.22121 0.13042 0.0
C1605 C 0.43948 0.21929 0.24472 0.0
C1606 C 0.4324 0.2247 0.24678 0.0
C1607 C 0.42677 0.22544 0.20903 0.0
C1608 C 0.42982 0.22862 0.28849 0.0
C1609 C 0.4464 0.21896 0.28346 0.0
C1610 C 0.42412 0.22035 0.3219 0.0
C1611 C 0.42078 0.22366 0.36013 0.0
C1612 C 0.423 0.2353 0.36562 0.0
C1613 C 0.42882 0.24362 0.33227 0.0
C1614 C 0.43215 0.24028 0.2939 0.0
H1615 H 0.4542 0.21826 0.27313 0.0
H1616 H 0.4495 0.22698 0.30405 0.0
H1617 H 0.44064 0.21106 0.30352 0.0
H1618 H 0.42196 0.21123 0.31796 0.0
H1619 H 0.41629 0.21703 0.38508 0.0
H1620 H 0.80516 0.24333 0.04509 0.0
H1621 H 0.79291 0.23253 0.10765 0.0
H1622 H 0.7981 0.20308 0.07861 0.0
H1623 H 0.81015 0.21369 0.01542 0.0
H1624 H 0.77493 0.19607 0.10314 0.0
H1625 H 0.80757 0.22879 0.21932 0.0
H1626 H 0.8021 0.23492 0.1794 0.0
H1627 H 0.81092 0.22855 0.16251 0.0
C1628 C 0.80364 0.23452 0.05184 0.0
C1629 C 0.80874 0.22941 0.02557 0.0
C1630 C 0.79666 0.22839 0.08768 0.0
C1631 C 0.79478 0.2171 0.09818 0.0
C1632 C 0.79948 0.2118 0.07112 0.0
H1633 H 0.78036 0.18097 0.33991 0.0
H1634 H 0.78789 0.19155 0.27158 0.0
C1635 C 0.80639 0.21789 0.03509 0.0
C1636 C 0.78839 0.21101 0.13844 0.0
H1637 H 0.79014 0.21311 0.24915 0.0
C1638 C 0.77818 0.1998 0.13511 0.0
C1639 C 0.79275 0.21589 0.18004 0.0
C1640 C 0.80399 0.22765 0.18576 0.0
C1641 C 0.77231 0.19325 0.17239 0.0
C1642 C 0.7767 0.19814 0.21394 0.0
C1643 C 0.78676 0.20944 0.21719 0.0
C1644 C 0.77168 0.19133 0.25454 0.0
C1645 C 0.76177 0.18098 0.16708 0.0
C1646 C 0.76003 0.18767 0.26765 0.0
C1647 C 0.75565 0.18154 0.30689 0.0
C1648 C 0.7629 0.17907 0.33365 0.0
C1649 C 0.77454 0.18274 0.32019 0.0
C1650 C 0.77887 0.1888 0.28111 0.0
H1651 H 0.76094 0.17765 0.13325 0.0
H1652 H 0.76241 0.17466 0.18955 0.0
H1653 H 0.75357 0.18116 0.17519 0.0
H1654 H 0.7544 0.18971 0.24791 0.0
H1655 H 0.74666 0.17887 0.31649 0.0
H1656 H 0.89681 0.48454 0.85219 0.0
H1657 H 0.89296 0.47418 0.9222 0.0
H1658 H 0.92516 0.47279 0.90821 0.0
H1659 H 0.9291 0.48311 0.83874 0.0
H1660 H 0.89073 0.45139 0.93778 0.0
H1661 H 0.92787 0.48709 0.03058 0.0
H1662 H 0.92247 0.48979 0.98024 0.0
H1663 H 0.93231 0.48387 0.97943 0.0
C1664 C 0.9031 0.48208 0.86418 0.0
C1665 C 0.91329 0.48468 0.84001 0.0
C1666 C 0.90088 0.47617 0.9041 0.0
C1667 C 0.90888 0.47291 0.92057 0.0
C1668 C 0.919 0.47545 0.89641 0.0
H1669 H 0.91904 0.43402 0.11911 0.0
H1670 H 0.91956 0.44627 0.05825 0.0
C1671 C 0.9212 0.48129 0.85657 0.0
C1672 C 0.90656 0.46646 0.96224 0.0
H1673 H 0.91903 0.46758 0.06093 0.0
C1674 C 0.89678 0.45497 0.96509 0.0
C1675 C 0.91447 0.47121 0.99769 0.0
C1676 C 0.92481 0.48371 0.99713 0.0
C1677 C 0.89508 0.44782 0.00161 0.0
C1678 C 0.9033 0.45241 0.03629 0.0
C1679 C 0.91279 0.46408 0.03416 0.0
C1680 C 0.90276 0.44498 0.07359 0.0
C1681 C 0.88488 0.43524 0.00186 0.0
C1682 C 0.89316 0.44027 0.1026 0.0
C1683 C 0.8928 0.43321 0.13748 0.0
C1684 C 0.90208 0.43081 0.14398 0.0
C1685 C 0.91173 0.43567 0.11504 0.0
C1686 C 0.91207 0.44269 0.08026 0.0
H1687 H 0.88073 0.4324 0.96926 0.0
H1688 H 0.88788 0.42905 0.01277 0.0
H1689 H 0.87802 0.43453 0.02499 0.0
H1690 H 0.88599 0.44211 0.09839 0.0
H1691 H 0.88528 0.42965 0.15933 0.0
H1692 H 0.57551 0.46019 0.16707 0.0
H1693 H 0.5641 0.44592 0.10975 0.0
H1694 H 0.55353 0.47007 0.05898 0.0
H1695 H 0.56495 0.48439 0.11558 0.0
H1696 H 0.53968 0.43515 0.08977 0.0
H1697 H 0.5677 0.46243 0.9529 0.0
H1698 H 0.57249 0.46544 0.00888 0.0
H1699 H 0.56278 0.47025 0.98725 0.0
C1700 C 0.57078 0.46247 0.14363 0.0
C1701 C 0.57122 0.47346 0.14567 0.0
C1702 C 0.56425 0.4543 0.11099 0.0
C1703 C 0.55814 0.45704 0.07979 0.0
C1704 C 0.55839 0.4679 0.08226 0.0
H1705 H 0.50048 0.41719 0.9085 0.0
H1706 H 0.51325 0.42625 0.97148 0.0
C1707 C 0.56489 0.47605 0.11477 0.0
C1708 C 0.55139 0.44857 0.04467 0.0
H1709 H 0.54851 0.44641 0.93434 0.0
C1710 C 0.54168 0.43752 0.05574 0.0
C1711 C 0.55417 0.4516 0.00038 0.0
C1712 C 0.56493 0.46303 0.98655 0.0
C1713 C 0.53429 0.42965 0.02351 0.0
C1714 C 0.53661 0.43304 0.97927 0.0
C1715 C 0.54667 0.44385 0.96828 0.0
C1716 C 0.52839 0.42597 0.94383 0.0
C1717 C 0.52406 0.41783 0.0372 0.0
C1718 C 0.53264 0.42279 0.90727 0.0
C1719 C 0.5254 0.41776 0.87091 0.0
C1720 C 0.51378 0.41583 0.87043 0.0
C1721 C 0.50937 0.41851 0.90787 0.0
C1722 C 0.51664 0.42362 0.9441 0.0
H1723 H 0.52582 0.41497 0.06901 0.0
H1724 H 0.51602 0.41862 0.04094 0.0
H1725 H 0.52221 0.41088 0.0126 0.0
H1726 H 0.54169 0.42458 0.90632 0.0
H1727 H 0.52905 0.41575 0.84265 0.0
H1728 H 0.58629 0.10484 0.86321 0.0
H1729 H 0.57785 0.10784 0.93014 0.0
H1730 H 0.54266 0.08379 0.88299 0.0
H1731 H 0.55094 0.0808 0.81623 0.0
H1732 H 0.54573 0.10533 0.91998 0.0
H1733 H 0.56221 0.08219 0.02688 0.0
H1734 H 0.573 0.094 0.99349 0.0
H1735 H 0.56167 0.08071 0.96839 0.0
C1736 C 0.57675 0.10024 0.86705 0.0
C1737 C 0.56928 0.09252 0.83455 0.0
C1738 C 0.57196 0.10193 0.90533 0.0
C1739 C 0.55965 0.09593 0.91158 0.0
C1740 C 0.55219 0.08847 0.87876 0.0
H1741 H 0.51266 0.07517 0.12737 0.0
H1742 H 0.52523 0.07723 0.06519 0.0
C1743 C 0.55695 0.08676 0.84067 0.0
C1744 C 0.55439 0.09713 0.95254 0.0
H1745 H 0.55059 0.0892 0.05972 0.0
C1746 C 0.54689 0.10195 0.9507 0.0
C1747 C 0.55586 0.09258 0.99233 0.0
C1748 C 0.56355 0.08699 0.99567 0.0
C1749 C 0.54059 0.1021 0.98749 0.0
C1750 C 0.54195 0.09742 0.02715 0.0
C1751 C 0.54965 0.09284 0.02924 0.0
C1752 C 0.53477 0.09638 0.06594 0.0
C1753 C 0.53216 0.10681 0.98324 0.0
C1754 C 0.53611 0.10649 0.08725 0.0
C1755 C 0.52892 0.10536 0.12283 0.0
C1756 C 0.52031 0.09408 0.13767 0.0
C1757 C 0.51917 0.08398 0.11668 0.0
C1758 C 0.52637 0.08513 0.08122 0.0
H1759 H 0.53056 0.10811 0.94871 0.0
H1760 H 0.52353 0.10068 -0.00121 0.0
H1761 H 0.53595 0.11548 8e-05 0.0
H1762 H 0.54267 0.11525 0.07623 0.0
H1763 H 0.53006 0.11331 0.13841 0.0
H1764 H 0.51222 0.09973 0.35869 0.0
H1765 H 0.52496 0.10565 0.42336 0.0
H1766 H 0.53546 0.08 0.39158 0.0
H1767 H 0.52296 0.07415 0.32705 0.0
H1768 H 0.52387 0.09152 0.49383 0.0
H1769 H 0.56716 0.11027 0.41026 0.0
H1770 H 0.55382 0.10755 0.38258 0.0
H1771 H 0.5568 0.09564 0.39145 0.0
C1772 C 0.51731 0.09541 0.36538 0.0
C1773 C 0.51663 0.08651 0.33763 0.0
C1774 C 0.52457 0.09881 0.40228 0.0
C1775 C 0.53131 0.09342 0.41174 0.0
C1776 C 0.53055 0.08448 0.38429 0.0
H1777 H 0.57113 0.08435 0.60837 0.0
H1778 H 0.55987 0.08446 0.5451 0.0
C1779 C 0.52333 0.08108 0.34754 0.0
C1780 C 0.53878 0.09666 0.45123 0.0
H1781 H 0.56673 0.10476 0.48526 0.0
C1782 C 0.53329 0.09464 0.4921 0.0
C1783 C 0.55107 0.10079 0.44875 0.0
C1784 C 0.55758 0.10381 0.40589 0.0
C1785 C 0.53965 0.09594 0.53053 0.0
C1786 C 0.55178 0.09944 0.52779 0.0
C1787 C 0.55739 0.10199 0.4871 0.0
C1788 C 0.5586 0.09959 0.56638 0.0
C1789 C 0.53326 0.093 0.57363 0.0
C1790 C 0.56166 0.10814 0.59908 0.0
C1791 C 0.56815 0.10814 0.63533 0.0
C1792 C 0.57164 0.09957 0.63937 0.0
C1793 C 0.56856 0.09106 0.60635 0.0
C1794 C 0.56215 0.09111 0.57014 0.0
H1795 H 0.52353 0.08904 0.56966 0.0
H1796 H 0.53502 0.08673 0.59216 0.0
H1797 H 0.53661 0.1012 0.59327 0.0
H1798 H 0.55908 0.11483 0.59643 0.0
H1799 H 0.57039 0.11482 0.66018 0.0
H1800 H 0.89749 0.42674 0.33082 0.0
H1801 H 0.89556 0.43615 0.39647 0.0
H1802 H 0.90289 0.41324 0.47553 0.0
H1803 H 0.90513 0.40392 0.4098 0.0
H1804 H 0.88148 0.42824 0.4697 0.0
H1805 H 0.92896 0.4462 0.51114 0.0
H1806 H 0.92283 0.43942 0.4593 0.0
H1807 H 0.9204 0.43036 0.50655 0.0
C1808 C 0.89858 0.42359 0.36214 0.0
C1809 C 0.90164 0.41469 0.36506 0.0
C1810 C 0.89745 0.42898 0.39966 0.0
C1811 C 0.89932 0.42556 0.44079 0.0
C1812 C 0.90167 0.41619 0.44401 0.0
H1813 H 0.88837 0.45607 0.67952 0.0
H1814 H 0.8867 0.442 0.62337 0.0
C1815 C 0.90289 0.41084 0.40643 0.0
C1816 C 0.89947 0.43232 0.47977 0.0
H1817 H 0.91774 0.45084 0.55881 0.0
C1818 C 0.88937 0.43311 0.48946 0.0
C1819 C 0.90985 0.43879 0.50504 0.0
C1820 C 0.92117 0.43877 0.4949 0.0
C1821 C 0.88941 0.44036 0.52335 0.0
C1822 C 0.89977 0.4468 0.54866 0.0
C1823 C 0.9098 0.44583 0.53946 0.0
C1824 C 0.90071 0.45518 0.58305 0.0
C1825 C 0.87853 0.44143 0.53061 0.0
C1826 C 0.90932 0.4672 0.57953 0.0
C1827 C 0.91038 0.47523 0.6117 0.0
C1828 C 0.90283 0.47139 0.64809 0.0
C1829 C 0.89426 0.45932 0.65173 0.0
C1830 C 0.89325 0.45127 0.61957 0.0
H1831 H 0.87242 0.43811 0.50232 0.0
H1832 H 0.87367 0.4361 0.55949 0.0
H1833 H 0.881 0.45077 0.53685 0.0
H1834 H 0.91519 0.47039 0.55165 0.0
H1835 H 0.91708 0.48446 0.60789 0.0
H1836 H 0.53087 0.42248 0.63281 0.0
H1837 H 0.5432 0.43265 0.56966 0.0
H1838 H 0.54043 0.46353 0.59914 0.0
H1839 H 0.52842 0.45357 0.663 0.0
H1840 H 0.53654 0.43973 0.50053 0.0
H1841 H 0.57513 0.47874 0.57259 0.0
H1842 H 0.56478 0.46628 0.60498 0.0
H1843 H 0.56153 0.47772 0.59007 0.0
C1844 C 0.53306 0.43151 0.62625 0.0
C1845 C 0.52867 0.43723 0.65289 0.0
C1846 C 0.54011 0.43731 0.59018 0.0
C1847 C 0.5429 0.44892 0.57999 0.0
C1848 C 0.5387 0.45471 0.607 0.0
H1849 H 0.55242 0.48132 0.33298 0.0
H1850 H 0.5459 0.47061 0.40156 0.0
C1851 C 0.53174 0.44896 0.64332 0.0
C1852 C 0.54916 0.45453 0.53889 0.0
H1853 H 0.57146 0.48026 0.49634 0.0
C1854 C 0.54429 0.44851 0.49972 0.0
C1855 C 0.5594 0.46591 0.53773 0.0
C1856 C 0.56558 0.47247 0.57867 0.0
C1857 C 0.549 0.4538 0.45941 0.0
C1858 C 0.55865 0.46554 0.45823 0.0
C1859 C 0.56394 0.47133 0.49733 0.0
C1860 C 0.56283 0.47217 0.41686 0.0
C1861 C 0.5435 0.44679 0.41846 0.0
C1862 C 0.57464 0.47696 0.40337 0.0
C1863 C 0.57845 0.48322 0.36416 0.0
C1864 C 0.57051 0.48482 0.33801 0.0
C1865 C 0.55875 0.48016 0.35208 0.0
C1866 C 0.55497 0.47397 0.3912 0.0
H1867 H 0.5391 0.43711 0.42466 0.0
H1868 H 0.53666 0.44879 0.40649 0.0
H1869 H 0.55023 0.4491 0.39247 0.0
H1870 H 0.58086 0.47575 0.42296 0.0
H1871 H 0.58758 0.48674 0.35425 0.0
H1872 H 0.44783 0.24619 0.55201 0.0
H1873 H 0.45025 0.23526 0.6122 0.0
H1874 H 0.41274 0.218 0.63814 0.0
H1875 H 0.41021 0.22872 0.578 0.0
H1876 H 0.44509 0.23573 0.69908 0.0
H1877 H 0.41884 0.19025 0.63404 0.0
H1878 H 0.42393 0.20324 0.60025 0.0
H1879 H 0.41073 0.19802 0.63261 0.0
C1880 C 0.44008 0.24 0.57035 0.0
C1881 C 0.42882 0.2383 0.56016 0.0
C1882 C 0.44149 0.23377 0.60466 0.0
C1883 C 0.43164 0.22567 0.62905 0.0
C1884 C 0.42041 0.22399 0.61903 0.0
H1885 H 0.42007 0.20146 0.88697 0.0
H1886 H 0.42469 0.21234 0.81868 0.0
C1887 C 0.419 0.2302 0.58483 0.0
C1888 C 0.43308 0.21941 0.66664 0.0
H1889 H 0.42171 0.19196 0.71184 0.0
C1890 C 0.44015 0.22615 0.70161 0.0
C1891 C 0.42683 0.20691 0.66954 0.0
C1892 C 0.41976 0.19918 0.63189 0.0
C1893 C 0.4405 0.22074 0.74058 0.0
C1894 C 0.43344 0.2083 0.74478 0.0
C1895 C 0.42701 0.20151 0.70877 0.0
C1896 C 0.43167 0.20227 0.7872 0.0
C1897 C 0.44825 0.22841 0.77718 0.0
C1898 C 0.43389 0.19285 0.792 0.0
C1899 C 0.43116 0.18651 0.83107 0.0
C1900 C 0.42605 0.18943 0.86577 0.0
C1901 C 0.42402 0.19899 0.86097 0.0
C1902 C 0.42676 0.2053 0.82203 0.0
H1903 H 0.45587 0.23672 0.76455 0.0
H1904 H 0.44298 0.2309 0.79855 0.0
H1905 H 0.45167 0.22367 0.79711 0.0
H1906 H 0.43758 0.1903 0.76531 0.0
H1907 H 0.43281 0.17917 0.83374 0.0
H1908 H 0.77262 0.18387 0.54246 0.0
H1909 H 0.78446 0.19835 0.5981 0.0
H1910 H 0.76345 0.21525 0.58348 0.0
H1911 H 0.75144 0.2007 0.52781 0.0
H1912 H 0.79772 0.22389 0.59182 0.0
H1913 H 0.76158 0.20735 0.71535 0.0
H1914 H 0.76084 0.19868 0.66839 0.0
H1915 H 0.75852 0.21106 0.66239 0.0
C1916 C 0.77051 0.19067 0.55095 0.0
C1917 C 0.76104 0.19109 0.53089 0.0
C1918 C 0.77731 0.19895 0.58267 0.0
C1919 C 0.77475 0.20778 0.5951 0.0
C1920 C 0.76546 0.20839 0.57466 0.0
H1921 H 0.80839 0.25306 0.82427 0.0
H1922 H 0.79687 0.2461 0.75664 0.0
C1923 C 0.75864 0.2001 0.54279 0.0
C1924 C 0.78176 0.21612 0.63016 0.0
H1925 H 0.78045 0.22224 0.73731 0.0
C1926 C 0.79393 0.22367 0.62347 0.0
C1927 C 0.77674 0.21587 0.67122 0.0
C1928 C 0.76372 0.20778 0.68016 0.0
C1929 C 0.80133 0.23063 0.65739 0.0
C1930 C 0.79644 0.22983 0.69916 0.0
C1931 C 0.78416 0.22281 0.7052 0.0
C1932 C 0.80403 0.23493 0.73799 0.0
C1933 C 0.81437 0.23854 0.64849 0.0
C1934 C 0.81179 0.2309 0.74983 0.0
C1935 C 0.81829 0.23477 0.78824 0.0
C1936 C 0.81713 0.24274 0.8158 0.0
C1937 C 0.8095 0.24695 0.8036 0.0
C1938 C 0.80292 0.24299 0.76507 0.0
H1939 H 0.81601 0.24119 0.61369 0.0
H1940 H 0.81818 0.24665 0.66891 0.0
H1941 H 0.81909 0.23366 0.65607 0.0
H1942 H 0.81257 0.22447 0.72991 0.0
H1943 H 0.82408 0.23135 0.79664 0.0
H1944 H 0.74711 0.58997 0.76947 0.0
H1945 H 0.75722 0.59009 0.70228 0.0
H1946 H 0.76341 0.56296 0.75441 0.0
H1947 H 0.75327 0.56272 0.82161 0.0
H1948 H 0.78112 0.59578 0.70193 0.0
H1949 H 0.75204 0.55149 0.6294 0.0
H1950 H 0.74685 0.55794 0.66972 0.0
H1951 H 0.75536 0.55119 0.68595 0.0
C1952 C 0.7504 0.58385 0.76634 0.0
C1953 C 0.74944 0.57637 0.80099 0.0
C1954 C 0.75618 0.58395 0.72793 0.0
C1955 C 0.76097 0.57648 0.7233 0.0
C1956 C 0.75959 0.56865 0.75705 0.0
H1957 H 0.80949 0.56964 0.55283 0.0
H1958 H 0.79527 0.56769 0.60871 0.0
C1959 C 0.75385 0.56857 0.79554 0.0
C1960 C 0.76848 0.57774 0.68527 0.0
H1961 H 0.77165 0.56253 0.60087 0.0
C1962 C 0.77899 0.58857 0.67946 0.0
C1963 C 0.7657 0.56827 0.65634 0.0
C1964 C 0.75432 0.55659 0.66031 0.0
C1965 C 0.78701 0.59009 0.64625 0.0
C1966 C 0.7843 0.58058 0.61756 0.0
C1967 C 0.77369 0.5698 0.62295 0.0
C1968 C 0.79256 0.58156 0.58264 0.0
C1969 C 0.79851 0.6017 0.64317 0.0
C1970 C 0.7956 0.58989 0.54914 0.0
C1971 C 0.80377 0.59108 0.51725 0.0
C1972 C 0.80896 0.58388 0.51815 0.0
C1973 C 0.80569 0.57535 0.55126 0.0
C1974 C 0.79754 0.5742 0.58316 0.0
H1975 H 0.80046 0.60696 0.67359 0.0
H1976 H 0.80602 0.60022 0.6362 0.0
H1977 H 0.7979 0.60703 0.61621 0.0
H1978 H 0.79169 0.59551 0.54774 0.0
H1979 H 0.80604 0.59767 0.49202 0.0
H1980 H 0.42282 0.89488 0.36396 0.0
H1981 H 0.43382 0.89412 0.4271 0.0
H1982 H 0.46359 0.92793 0.39125 0.0
H1983 H 0.45276 0.92867 0.32752 0.0
H1984 H 0.47016 0.91164 0.41933 0.0
H1985 H 0.43884 0.91453 0.53463 0.0
H1986 H 0.43212 0.90237 0.49709 0.0
H1987 H 0.43884 0.91731 0.47714 0.0
C1988 C 0.43174 0.90212 0.36933 0.0
C1989 C 0.43688 0.9119 0.34098 0.0
C1990 C 0.43799 0.90169 0.4055 0.0
C1991 C 0.44943 0.91107 0.41423 0.0
C1992 C 0.45475 0.92062 0.38513 0.0
H1993 H 0.48698 0.93397 0.65451 0.0
H1994 H 0.47625 0.93103 0.58654 0.0
C1995 C 0.44854 0.92104 0.34879 0.0
C1996 C 0.45568 0.91121 0.45459 0.0
H1997 H 0.45423 0.91237 0.56519 0.0
C1998 C 0.46668 0.91174 0.45128 0.0
C1999 C 0.45114 0.91147 0.49613 0.0
C2000 C 0.43964 0.9115 0.50167 0.0
C2001 C 0.47332 0.91263 0.48851 0.0
C2002 C 0.46873 0.91282 0.53002 0.0
C2003 C 0.45767 0.91214 0.53329 0.0
C2004 C 0.47556 0.91454 0.57047 0.0
C2005 C 0.48535 0.91379 0.48308 0.0
C2006 C 0.47872 0.90622 0.58404 0.0
C2007 C 0.48493 0.9079 0.62299 0.0
C2008 C 0.48797 0.91789 0.64907 0.0
C2009 C 0.48477 0.92617 0.63527 0.0
C2010 C 0.47862 0.92451 0.59641 0.0
H2011 H 0.48863 0.91603 0.44908 0.0
H2012 H 0.49192 0.92071 0.50511 0.0
H2013 H 0.48478 0.90525 0.49159 0.0
H2014 H 0.47625 0.89835 0.56484 0.0
H2015 H 0.48723 0.90132 0.63287 0.0
H2016 H 0.10627 0.58928 0.64308 0.0
H2017 H 0.11022 0.58281 0.57297 0.0
H2018 H 0.07828 0.54904 0.58734 0.0
H2019 H 0.07427 0.55532 0.65674 0.0
H2020 H 0.1122 0.56161 0.55656 0.0
H2021 H 0.07542 0.56141 0.46559 0.0
H2022 H 0.0813 0.56964 0.51547 0.0
H2023 H 0.07097 0.55398 0.51716 0.0
C2024 C 0.10009 0.58049 0.63118 0.0
C2025 C 0.08993 0.57283 0.65536 0.0
C2026 C 0.10236 0.57683 0.59123 0.0
C2027 C 0.09443 0.56553 0.57484 0.0
C2028 C 0.08439 0.55787 0.59914 0.0
H2029 H 0.08031 0.51399 0.38588 0.0
H2030 H 0.08152 0.52712 0.44463 0.0
C2031 C 0.08215 0.56147 0.63894 0.0
C2032 C 0.09659 0.56143 0.53283 0.0
H2033 H 0.08322 0.54969 0.43571 0.0
C2034 C 0.10605 0.55923 0.52962 0.0
C2035 C 0.08854 0.5584 0.49789 0.0
C2036 C 0.07855 0.56108 0.4989 0.0
C2037 C 0.10718 0.55328 0.49345 0.0
C2038 C 0.0987 0.54961 0.45968 0.0
C2039 C 0.08965 0.55245 0.46185 0.0
C2040 C 0.09831 0.54184 0.42393 0.0
C2041 C 0.11698 0.55032 0.49279 0.0
C2042 C 0.10737 0.54581 0.39274 0.0
C2043 C 0.10672 0.5383 0.35901 0.0
C2044 C 0.09698 0.52673 0.35594 0.0
C2045 C 0.08794 0.52283 0.38726 0.0
C2046 C 0.0886 0.53033 0.42084 0.0
H2047 H 0.1217 0.55221 0.52444 0.0
H2048 H 0.11339 0.54082 0.4847 0.0
H2049 H 0.12351 0.55567 0.4673 0.0
H2050 H 0.11485 0.55474 0.39426 0.0
H2051 H 0.11381 0.54157 0.33527 0.0
H2052 H 0.4449 0.53199 0.68252 0.0
H2053 H 0.4502 0.54302 0.61442 0.0
H2054 H 0.41549 0.51913 0.56283 0.0
H2055 H 0.41011 0.50787 0.63104 0.0
H2056 H 0.43348 0.52245 0.50755 0.0
H2057 H 0.4405 0.56576 0.56395 0.0
H2058 H 0.44853 0.56072 0.5965 0.0
H2059 H 0.43258 0.5524 0.59589 0.0
C2060 C 0.43832 0.52913 0.65693 0.0
C2061 C 0.42708 0.51904 0.66218 0.0
C2062 C 0.44134 0.53552 0.61812 0.0
C2063 C 0.43316 0.53202 0.58388 0.0
C2064 C 0.42188 0.52203 0.58907 0.0
H2065 H 0.45652 0.57694 0.34997 0.0
H2066 H 0.44389 0.56498 0.41029 0.0
C2067 C 0.41883 0.51562 0.62801 0.0
C2068 C 0.43685 0.53828 0.54167 0.0
H2069 H 0.45034 0.56594 0.49701 0.0
C2070 C 0.43696 0.53192 0.50499 0.0
C2071 C 0.4412 0.55059 0.53818 0.0
C2072 C 0.44059 0.55774 0.57566 0.0
C2073 C 0.44203 0.5377 0.46568 0.0
C2074 C 0.44728 0.55016 0.46335 0.0
C2075 C 0.44646 0.5564 0.49909 0.0
C2076 C 0.4545 0.55695 0.42554 0.0
C2077 C 0.44195 0.53044 0.42729 0.0
C2078 C 0.4647 0.55648 0.41456 0.0
C2079 C 0.47192 0.56328 0.38033 0.0
C2080 C 0.46912 0.57077 0.35655 0.0
C2081 C 0.45889 0.57124 0.3676 0.0
C2082 C 0.45167 0.56442 0.40199 0.0
H2083 H 0.43453 0.52116 0.42954 0.0
H2084 H 0.44118 0.53432 0.39614 0.0
H2085 H 0.45035 0.53023 0.4268 0.0
H2086 H 0.46719 0.55099 0.433 0.0
H2087 H 0.47975 0.56274 0.37281 0.0
H2088 H 0.59219 0.81364 0.16573 0.0
H2089 H 0.58735 0.80242 0.23341 0.0
H2090 H 0.55428 0.8023 0.24093 0.0
H2091 H 0.55904 0.81361 0.17276 0.0
H2092 H 0.58132 0.80993 0.31757 0.0
H2093 H 0.5463 0.76643 0.25243 0.0
H2094 H 0.55734 0.77763 0.21736 0.0
H2095 H 0.54574 0.77962 0.23949 0.0
C2096 C 0.58386 0.81122 0.18159 0.0
C2097 C 0.57599 0.81451 0.16383 0.0
C2098 C 0.58113 0.80483 0.2203 0.0
C2099 C 0.57045 0.80151 0.24189 0.0
C2100 C 0.56252 0.80472 0.22443 0.0
H2101 H 0.54895 0.75507 0.47235 0.0
H2102 H 0.54827 0.76755 0.41393 0.0
C2103 C 0.56528 0.8112 0.18563 0.0
C2104 C 0.56788 0.7948 0.28298 0.0
H2105 H 0.55261 0.7668 0.32431 0.0
C2106 C 0.57491 0.80053 0.31936 0.0
C2107 C 0.55944 0.7826 0.28513 0.0
C2108 C 0.55175 0.77612 0.24661 0.0
C2109 C 0.57409 0.79425 0.35741 0.0
C2110 C 0.56621 0.78188 0.35862 0.0
C2111 C 0.55868 0.77627 0.32312 0.0
C2112 C 0.56652 0.7745 0.39453 0.0
C2113 C 0.58185 0.80086 0.39565 0.0
C2114 C 0.57694 0.77415 0.40236 0.0
C2115 C 0.57736 0.76707 0.43546 0.0
C2116 C 0.56733 0.76011 0.46129 0.0
C2117 C 0.55684 0.76036 0.45312 0.0
C2118 C 0.55643 0.76747 0.41982 0.0
H2119 H 0.58435 0.81036 0.3951 0.0
H2120 H 0.57736 0.79692 0.42698 0.0
H2121 H 0.59013 0.80043 0.39406 0.0
H2122 H 0.58474 0.77929 0.38252 0.0
H2123 H 0.58556 0.76704 0.44065 0.0
H2124 H 0.23358 0.78713 0.46984 0.0
H2125 H 0.22193 0.77605 0.40619 0.0
H2126 H 0.21975 0.80648 0.36463 0.0
H2127 H 0.23129 0.81758 0.42782 0.0
H2128 H 0.19799 0.77227 0.37878 0.0
H2129 H 0.2342 0.79682 0.25956 0.0
H2130 H 0.2369 0.79623 0.31692 0.0
H2131 H 0.23187 0.80595 0.29755 0.0
C2132 C 0.2306 0.79145 0.44717 0.0
C2133 C 0.2334 0.80325 0.45375 0.0
C2134 C 0.22394 0.7851 0.41095 0.0
C2135 C 0.22013 0.79052 0.38067 0.0
C2136 C 0.22275 0.80221 0.3875 0.0
H2137 H 0.18267 0.7809 0.14716 0.0
H2138 H 0.19446 0.78698 0.2135 0.0
C2139 C 0.22931 0.80852 0.4237 0.0
C2140 C 0.21342 0.78409 0.34158 0.0
H2141 H 0.21472 0.78534 0.2308 0.0
C2142 C 0.20165 0.77495 0.34635 0.0
C2143 C 0.2183 0.78764 0.29954 0.0
C2144 C 0.23105 0.79713 0.29287 0.0
C2145 C 0.1944 0.7697 0.30986 0.0
C2146 C 0.19915 0.77362 0.26777 0.0
C2147 C 0.21109 0.78239 0.26314 0.0
C2148 C 0.19171 0.76956 0.22821 0.0
C2149 C 0.18156 0.76048 0.31659 0.0
C2150 C 0.18626 0.75772 0.21446 0.0
C2151 C 0.17944 0.75417 0.17641 0.0
C2152 C 0.17805 0.76245 0.1515 0.0
C2153 C 0.18355 0.77429 0.16551 0.0
C2154 C 0.19031 0.7778 0.20342 0.0
H2155 H 0.17879 0.75997 0.35107 0.0
H2156 H 0.17575 0.76241 0.2959 0.0
H2157 H 0.18018 0.75167 0.30701 0.0
H2158 H 0.18739 0.75127 0.23281 0.0
H2159 H 0.17536 0.745 0.16634 0.0
H2160 H 0.25376 0.43463 0.16931 0.0
H2161 H 0.24701 0.43862 0.2385 0.0
H2162 H 0.21194 0.42484 0.1853 0.0
H2163 H 0.21858 0.421 0.11626 0.0
H2164 H 0.21989 0.44581 0.23345 0.0
H2165 H 0.22557 0.41187 0.32319 0.0
H2166 H 0.23843 0.42323 0.29572 0.0
H2167 H 0.22591 0.41271 0.26456 0.0
C2168 C 0.24464 0.43254 0.17229 0.0
C2169 C 0.23667 0.4274 0.13743 0.0
C2170 C 0.24079 0.43478 0.21186 0.0
C2171 C 0.22895 0.43187 0.21711 0.0
C2172 C 0.22112 0.42713 0.1819 0.0
H2173 H 0.18016 0.41212 0.4242 0.0
H2174 H 0.19289 0.41422 0.36264 0.0
C2175 C 0.22493 0.4249 0.14249 0.0
C2176 C 0.2244 0.43326 0.25951 0.0
H2177 H 0.21716 0.42143 0.36155 0.0
C2178 C 0.21943 0.44062 0.26174 0.0
C2179 C 0.22374 0.42637 0.29608 0.0
C2180 C 0.22861 0.41802 0.29498 0.0
C2181 C 0.21344 0.44098 0.29913 0.0
C2182 C 0.21257 0.43391 0.33537 0.0
C2183 C 0.21791 0.42687 0.33369 0.0
C2184 C 0.20522 0.43282 0.37367 0.0
C2185 C 0.20757 0.44845 0.29877 0.0
C2186 C 0.20801 0.44257 0.40053 0.0
C2187 C 0.20071 0.44142 0.43575 0.0
C2188 C 0.19053 0.43047 0.44473 0.0
C2189 C 0.1879 0.42068 0.41813 0.0
C2190 C 0.19518 0.42185 0.383 0.0
H2191 H 0.20724 0.45165 0.26558 0.0
H2192 H 0.1984 0.44335 0.31166 0.0
H2193 H 0.21263 0.45629 0.32 0.0
H2194 H 0.21583 0.45106 0.39422 0.0
H2195 H 0.20302 0.44911 0.4558 0.0
H2196 H 0.24927 0.45308 0.94168 0.0
H2197 H 0.23787 0.45489 0.88169 0.0
H2198 H 0.21809 0.41686 0.86895 0.0
H2199 H 0.22928 0.41495 0.92875 0.0
H2200 H 0.23638 0.44702 0.79641 0.0
H2201 H 0.19206 0.42563 0.87296 0.0
H2202 H 0.20552 0.43089 0.90408 0.0
H2203 H 0.19892 0.4167 0.87742 0.0
C2204 C 0.24243 0.4451 0.92628 0.0
C2205 C 0.24016 0.43387 0.94003 0.0
C2206 C 0.23593 0.44616 0.8921 0.0
C2207 C 0.227 0.436 0.8715 0.0
C2208 C 0.22475 0.4248 0.88512 0.0
H2209 H 0.19822 0.41767 0.6216 0.0
H2210 H 0.2101 0.42373 0.68771 0.0
C2211 C 0.23123 0.42373 0.91911 0.0
C2212 C 0.22044 0.43697 0.83396 0.0
H2213 H 0.19245 0.42604 0.79438 0.0
C2214 C 0.22678 0.44264 0.79616 0.0
C2215 C 0.20794 0.43146 0.83396 0.0
C2216 C 0.20072 0.42594 0.87446 0.0
C2217 C 0.2209 0.44218 0.7574 0.0
C2218 C 0.20837 0.43575 0.75643 0.0
C2219 C 0.20205 0.43084 0.79503 0.0
C2220 C 0.20169 0.43297 0.7151 0.0
C2221 C 0.22814 0.44834 0.71758 0.0
C2222 C 0.19286 0.43598 0.70887 0.0
C2223 C 0.18596 0.43245 0.67105 0.0
C2224 C 0.18771 0.42574 0.63916 0.0
C2225 C 0.19665 0.42285 0.64544 0.0
C2226 C 0.20353 0.4264 0.68307 0.0
H2227 H 0.23693 0.45591 0.72664 0.0
H2228 H 0.22966 0.44199 0.69854 0.0
H2229 H 0.2235 0.45164 0.69643 0.0
H2230 H 0.19123 0.44095 0.73347 0.0
H2231 H 0.17912 0.43479 0.66718 0.0
H2232 H 0.55681 0.7892 0.99084 0.0
H2233 H 0.55703 0.77737 0.92923 0.0
H2234 H 0.58588 0.80868 0.87158 0.0
H2235 H 0.58583 0.82052 0.93295 0.0
H2236 H 0.55388 0.78016 0.84026 0.0
H2237 H 0.59798 0.78512 0.87121 0.0
H2238 H 0.59007 0.78847 0.91182 0.0
H2239 H 0.5983 0.79904 0.86983 0.0
C2240 C 0.56324 0.79355 0.96515 0.0
C2241 C 0.57135 0.80579 0.9669 0.0
C2242 C 0.56334 0.78678 0.93001 0.0
C2243 C 0.5716 0.79212 0.89629 0.0
C2244 C 0.57961 0.80434 0.89777 0.0
H2245 H 0.58955 0.77977 0.64555 0.0
H2246 H 0.58659 0.78676 0.7154 0.0
C2247 C 0.57952 0.81111 0.93278 0.0
C2248 C 0.57169 0.78508 0.85869 0.0
H2249 H 0.58994 0.77864 0.79979 0.0
C2250 C 0.56167 0.77964 0.8317 0.0
C2251 C 0.58186 0.78437 0.84788 0.0
C2252 C 0.59262 0.78946 0.87695 0.0
C2253 C 0.56181 0.77407 0.79276 0.0
C2254 C 0.57219 0.77388 0.78098 0.0
C2255 C 0.58202 0.77888 0.8089 0.0
C2256 C 0.57344 0.7694 0.73828 0.0
C2257 C 0.5511 0.76892 0.76345 0.0
C2258 C 0.56698 0.7573 0.72806 0.0
C2259 C 0.56866 0.75324 0.68799 0.0
C2260 C 0.57684 0.76124 0.6577 0.0
C2261 C 0.58318 0.77336 0.66807 0.0
C2262 C 0.58152 0.77739 0.70801 0.0
H2263 H 0.54437 0.7712 0.77453 0.0
H2264 H 0.55376 0.77216 0.72962 0.0
H2265 H 0.54694 0.75913 0.76294 0.0
H2266 H 0.56079 0.751 0.75131 0.0
H2267 H 0.56366 0.74384 0.68097 0.0
H2268 H 0.19474 0.74902 0.95502 0.0
H2269 H 0.20869 0.75959 0.89589 0.0
H2270 H 0.19381 0.78242 0.88153 0.0
H2271 H 0.17994 0.77202 0.94062 0.0
H2272 H 0.20273 0.76143 0.81075 0.0
H2273 H 0.22946 0.80589 0.88395 0.0
H2274 H 0.22024 0.79285 0.91602 0.0
H2275 H 0.21384 0.80045 0.88818 0.0
C2276 C 0.19453 0.75638 0.93959 0.0
C2277 C 0.18623 0.75968 0.95252 0.0
C2278 C 0.20251 0.7624 0.90587 0.0
C2279 C 0.20241 0.7719 0.88487 0.0
C2280 C 0.19422 0.77529 0.89799 0.0
H2281 H 0.2162 0.80003 0.63311 0.0
H2282 H 0.20907 0.78879 0.70045 0.0
C2283 C 0.18623 0.76926 0.93156 0.0
C2284 C 0.21019 0.77774 0.847 0.0
H2285 H 0.22968 0.80494 0.80557 0.0
C2286 C 0.20879 0.77091 0.80984 0.0
C2287 C 0.21824 0.79007 0.84611 0.0
C2288 C 0.22064 0.79773 0.88588 0.0
C2289 C 0.21465 0.77621 0.77089 0.0
C2290 C 0.22195 0.78866 0.76904 0.0
C2291 C 0.22397 0.7954 0.80697 0.0
C2292 C 0.22653 0.79494 0.72727 0.0
C2293 C 0.21273 0.76849 0.7317 0.0
C2294 C 0.23874 0.80226 0.72027 0.0
C2295 C 0.24287 0.80875 0.68162 0.0
C2296 C 0.23483 0.80812 0.64978 0.0
C2297 C 0.22263 0.80071 0.65692 0.0
C2298 C 0.21853 0.7942 0.69529 0.0
H2299 H 0.21013 0.7593 0.74144 0.0
H2300 H 0.20546 0.76809 0.71164 0.0
H2301 H 0.22083 0.77211 0.71128 0.0
H2302 H 0.24504 0.80302 0.74483 0.0
H2303 H 0.25232 0.81442 0.6771 0.0
H2304 H 0.06433 0.55028 0.87128 0.0
H2305 H 0.06766 0.53927 0.92861 0.0
H2306 H 0.10529 0.56342 0.92105 0.0
H2307 H 0.10208 0.57454 0.86361 0.0
H2308 H 0.09743 0.53776 0.92322 0.0
H2309 H 0.0787 0.55271 0.05496 0.0
H2310 H 0.06961 0.5469 0.00723 0.0
H2311 H 0.08361 0.56037 0.00356 0.0
C2312 C 0.07332 0.55326 0.88171 0.0
C2313 C 0.08294 0.56333 0.86307 0.0
C2314 C 0.0752 0.54697 0.91451 0.0
C2315 C 0.0867 0.55062 0.92917 0.0
C2316 C 0.09634 0.56051 0.91014 0.0
H2317 H 0.10101 0.52567 0.17093 0.0
H2318 H 0.10257 0.53803 0.10871 0.0
C2319 C 0.09448 0.56686 0.87746 0.0
C2320 C 0.0886 0.54419 0.96494 0.0
H2321 H 0.08273 0.53738 0.07248 0.0
C2322 C 0.0943 0.53772 0.95596 0.0
C2323 C 0.08463 0.54431 0.0076 0.0
C2324 C 0.07888 0.55152 0.01922 0.0
C2325 C 0.09581 0.53102 0.9885 0.0
C2326 C 0.09142 0.53078 0.0308 0.0
C2327 C 0.08604 0.53755 0.03995 0.0
C2328 C 0.09192 0.52329 0.06596 0.0
C2329 C 0.10209 0.52429 0.97745 0.0
C2330 C 0.08558 0.51091 0.06221 0.0
C2331 C 0.08466 0.50381 0.09774 0.0
C2332 C 0.08999 0.50898 0.1377 0.0
C2333 C 0.09677 0.5214 0.14068 0.0
C2334 C 0.09768 0.52848 0.10517 0.0
H2335 H 0.10763 0.52787 0.94776 0.0
H2336 H 0.1078 0.52459 0.0048 0.0
H2337 H 0.09541 0.51488 0.97123 0.0
H2338 H 0.0809 0.50673 0.03246 0.0
H2339 H 0.07936 0.49428 0.09437 0.0
H2340 H 0.43477 0.51326 0.87334 0.0
H2341 H 0.44501 0.52635 0.93446 0.0
H2342 H 0.4249 0.54406 0.91568 0.0
H2343 H 0.41446 0.53087 0.85445 0.0
H2344 H 0.4587 0.55157 0.93614 0.0
H2345 H 0.41926 0.53354 0.04493 0.0
H2346 H 0.41961 0.52585 0.99659 0.0
H2347 H 0.41784 0.5386 0.99204 0.0
C2348 C 0.4325 0.51992 0.88211 0.0
C2349 C 0.42373 0.52097 0.8592 0.0
C2350 C 0.43839 0.52742 0.91697 0.0
C2351 C 0.43563 0.53609 0.92973 0.0
C2352 C 0.42704 0.53731 0.90661 0.0
H2353 H 0.48004 0.58649 0.13418 0.0
H2354 H 0.4685 0.57909 0.06684 0.0
C2355 C 0.42111 0.5298 0.8716 0.0
C2356 C 0.44171 0.54362 0.96784 0.0
H2357 H 0.43744 0.54798 0.07425 0.0
C2358 C 0.45406 0.55095 0.9662 0.0
C2359 C 0.43559 0.54269 0.00693 0.0
C2360 C 0.42235 0.5347 0.01064 0.0
C2361 C 0.46053 0.55705 0.00321 0.0
C2362 C 0.45444 0.55587 0.04263 0.0
C2363 C 0.44204 0.5489 0.04382 0.0
C2364 C 0.46086 0.5606 0.08405 0.0
C2365 C 0.47387 0.5642 0.00052 0.0
C2366 C 0.46012 0.55266 0.11625 0.0
C2367 C 0.46664 0.55682 0.15454 0.0
C2368 C 0.47401 0.56904 0.16148 0.0
C2369 C 0.47449 0.57702 0.12966 0.0
C2370 C 0.46795 0.57282 0.09117 0.0
H2371 H 0.47728 0.56275 0.96936 0.0
H2372 H 0.47678 0.57376 0.00316 0.0
H2373 H 0.47792 0.5619 0.02782 0.0
H2374 H 0.45469 0.54319 0.11132 0.0
H2375 H 0.46601 0.55043 0.17845 0.0
H2376 H 0.48471 0.92298 0.85961 0.0
H2377 H 0.47051 0.92084 0.91576 0.0
H2378 H 0.45288 0.88285 0.90284 0.0
H2379 H 0.46711 0.88487 0.84664 0.0
H2380 H 0.44482 0.90879 0.90941 0.0
H2381 H 0.46105 0.88941 0.03473 0.0
H2382 H 0.46977 0.89715 0.98761 0.0
H2383 H 0.45736 0.88245 0.98207 0.0
C2384 C 0.47782 0.91416 0.86864 0.0
C2385 C 0.47708 0.90409 0.84881 0.0
C2386 C 0.4697 0.91296 0.90065 0.0
C2387 C 0.46074 0.9017 0.91362 0.0
C2388 C 0.45984 0.89162 0.89358 0.0
H2389 H 0.41434 0.88913 0.13939 0.0
H2390 H 0.42214 0.8852 0.07263 0.0
C2391 C 0.46796 0.8928 0.86141 0.0
C2392 C 0.45246 0.90063 0.94855 0.0
H2393 H 0.44593 0.8932 0.0555 0.0
C2394 C 0.44495 0.90526 0.94124 0.0
C2395 C 0.45259 0.89591 0.98982 0.0
C2396 C 0.46065 0.89099 -0.00058 0.0
C2397 C 0.43781 0.90565 0.97462 0.0
C2398 C 0.43842 0.90152 0.01656 0.0
C2399 C 0.4455 0.89636 0.0233 0.0
C2400 C 0.43285 0.90366 0.05482 0.0
C2401 C 0.42984 0.91065 0.96486 0.0
C2402 C 0.43632 0.91532 0.06687 0.0
C2403 C 0.43193 0.91759 0.10478 0.0
C2404 C 0.42402 0.90823 0.13168 0.0
C2405 C 0.42039 0.89652 0.11926 0.0
C2406 C 0.42483 0.89426 0.08121 0.0
H2407 H 0.42738 0.90965 0.92987 0.0
H2408 H 0.42162 0.90626 0.98468 0.0
H2409 H 0.43459 0.92025 0.97255 0.0
H2410 H 0.44271 0.92272 0.04754 0.0
H2411 H 0.43493 0.92671 0.11339 0.0
H2412 H 0.24869 0.384 0.06539 0.0
H2413 H 0.24061 0.3628 0.07826 0.0
H2414 H 0.20704 0.35561 0.0251 0.0
H2415 H 0.21507 0.3767 0.01145 0.0
H2416 H 0.22193 0.34809 0.13007 0.0
H2417 H 0.2131 0.33206 0.95995 0.0
H2418 H 0.22237 0.34751 0.97357 0.0
H2419 H 0.20649 0.34088 0.97315 0.0
C2420 C 0.23962 0.37789 0.05609 0.0
C2421 C 0.23253 0.38203 0.03726 0.0
C2422 C 0.23502 0.36579 0.06347 0.0
C2423 C 0.22329 0.35762 0.05195 0.0
C2424 C 0.21621 0.36173 0.03324 0.0
H2425 H 0.17469 0.28912 0.15208 0.0
H2426 H 0.18724 0.31016 0.13644 0.0
C2427 C 0.22079 0.37381 0.02574 0.0
C2428 C 0.21821 0.34486 0.06157 0.0
H2429 H 0.20312 0.31741 0.01547 0.0
C2430 C 0.21795 0.34138 0.10495 0.0
C2431 C 0.2132 0.33612 0.02868 0.0
C2432 C 0.2139 0.33932 0.98118 0.0
C2433 C 0.21232 0.32938 0.11661 0.0
C2434 C 0.20662 0.32065 0.08409 0.0
C2435 C 0.20737 0.32412 0.04045 0.0
C2436 C 0.19936 0.3079 0.09482 0.0
C2437 C 0.21249 0.32617 0.16366 0.0
C2438 C 0.20185 0.2996 0.07584 0.0
C2439 C 0.19462 0.28751 0.08439 0.0
C2440 C 0.18472 0.28353 0.11192 0.0
C2441 C 0.18228 0.29188 0.13096 0.0
C2442 C 0.1895 0.30394 0.12231 0.0
H2443 H 0.22013 0.33338 0.18131 0.0
H2444 H 0.20427 0.32475 0.17985 0.0
H2445 H 0.21292 0.31791 0.16663 0.0
H2446 H 0.20938 0.30248 0.05427 0.0
H2447 H 0.19672 0.2813 0.06915 0.0
H2448 H 0.70716 0.89804 0.18158 0.0
H2449 H 0.68641 0.89036 0.16184 0.0
H2450 H 0.697 0.90497 0.03298 0.0
H2451 H 0.71779 0.91262 0.05222 0.0
H2452 H 0.67476 0.90264 0.12924 0.0
H2453 H 0.67336 0.86931 0.01256 0.0
H2454 H 0.68505 0.87663 0.05213 0.0
H2455 H 0.68494 0.88435 0.00391 0.0
C2456 C 0.70509 0.89966 0.14906 0.0
C2457 C 0.71413 0.90587 0.11837 0.0
C2458 C 0.69323 0.89529 0.1379 0.0
C2459 C 0.69019 0.89697 0.09582 0.0
C2460 C 0.69918 0.90342 0.06543 0.0
H2461 H 0.62041 0.86657 0.97445 0.0
H2462 H 0.64169 0.87861 0.98865 0.0
C2463 C 0.71105 0.90782 0.07656 0.0
C2464 C 0.67756 0.89173 0.08367 0.0
H2465 H 0.65599 0.87045 0.01994 0.0
C2466 C 0.67065 0.89563 0.10523 0.0
C2467 C 0.67227 0.88264 0.05221 0.0
C2468 C 0.67923 0.87789 0.02901 0.0
C2469 C 0.65852 0.89062 0.09628 0.0
C2470 C 0.65315 0.88131 0.0656 0.0
C2471 C 0.66013 0.8776 0.04339 0.0
C2472 C 0.6402 0.87485 0.05766 0.0
C2473 C 0.65159 0.89539 0.11954 0.0
C2474 C 0.63232 0.86875 0.09174 0.0
C2475 C 0.62017 0.86189 0.08379 0.0
C2476 C 0.61568 0.86091 0.04145 0.0
C2477 C 0.62358 0.86715 0.00743 0.0
C2478 C 0.63574 0.87403 0.01546 0.0
H2479 H 0.65745 0.90461 0.13099 0.0
H2480 H 0.64464 0.89523 0.09817 0.0
H2481 H 0.6472 0.88982 0.14849 0.0
H2482 H 0.63558 0.86901 0.12435 0.0
H2483 H 0.61435 0.85715 0.1107 0.0
H2484 H 0.13054 0.75521 0.0902 0.0
H2485 H 0.11914 0.76498 0.10671 0.0
H2486 H 0.13245 0.78598 0.99014 0.0
H2487 H 0.14397 0.77636 0.97351 0.0
H2488 H 0.13478 0.79918 0.06523 0.0
H2489 H 0.08904 0.76115 0.04771 0.0
H2490 H 0.09849 0.75854 0.08299 0.0
H2491 H 0.10184 0.761 0.02594 0.0
C2492 C 0.13095 0.76182 0.06782 0.0
C2493 C 0.13817 0.76501 0.03052 0.0
C2494 C 0.12438 0.76735 0.07722 0.0
C2495 C 0.12486 0.7761 0.0494 0.0
C2496 C 0.13193 0.7792 0.01192 0.0
H2497 H 0.08249 0.81017 0.04688 0.0
H2498 H 0.09196 0.79845 0.03123 0.0
C2499 C 0.1385 0.77368 0.00246 0.0
C2500 C 0.11851 0.78251 0.06049 0.0
H2501 H 0.09099 0.77889 0.07709 0.0
C2502 C 0.12521 0.79476 0.06778 0.0
C2503 C 0.10602 0.77671 0.06344 0.0
C2504 C 0.09839 0.76364 0.05426 0.0
C2505 C 0.11975 0.80137 0.07831 0.0
C2506 C 0.10728 0.79553 0.08221 0.0
C2507 C 0.10056 0.7833 0.07449 0.0
C2508 C 0.10106 0.80208 0.09301 0.0
C2509 C 0.12736 0.81458 0.08438 0.0
C2510 C 0.10287 0.80779 0.13331 0.0
C2511 C 0.09748 0.8145 0.14239 0.0
C2512 C 0.09016 0.81559 0.11133 0.0
C2513 C 0.08811 0.80956 0.07146 0.0
C2514 C 0.09349 0.80284 0.06246 0.0
H2515 H 0.13639 0.81802 0.07075 0.0
H2516 H 0.12324 0.81931 0.06864 0.0
H2517 H 0.12824 0.81667 0.11965 0.0
H2518 H 0.10854 0.80714 0.15756 0.0
H2519 H 0.09919 0.81897 0.17349 0.0
H2520 H 0.27586 0.19419 0.42456 0.0
H2521 H 0.29695 0.20741 0.43952 0.0
H2522 H 0.30546 0.18455 0.36546 0.0
H2523 H 0.28451 0.17142 0.34985 0.0
H2524 H 0.312 0.20193 0.48292 0.0
H2525 H 0.32846 0.21702 0.31584 0.0
H2526 H 0.31293 0.20985 0.3297 0.0
H2527 H 0.31995 0.20119 0.31986 0.0
C2528 C 0.28224 0.19205 0.41108 0.0
C2529 C 0.27851 0.18176 0.38592 0.0
C2530 C 0.29427 0.1996 0.41967 0.0
C2531 C 0.30278 0.19705 0.40302 0.0
C2532 C 0.29907 0.18683 0.37776 0.0
H2533 H 0.37121 0.21389 0.49279 0.0
H2534 H 0.35018 0.20582 0.478 0.0
C2535 C 0.28707 0.17929 0.36913 0.0
C2536 C 0.31546 0.20463 0.41411 0.0
H2537 H 0.34306 0.21959 0.36906 0.0
C2538 C 0.31879 0.20593 0.45808 0.0
C2539 C 0.3243 0.21001 0.38172 0.0
C2540 C 0.32123 0.20956 0.33417 0.0
C2541 C 0.33075 0.21199 0.47039 0.0
C2542 C 0.3396 0.21666 0.43781 0.0
C2543 C 0.33627 0.21587 0.39398 0.0
C2544 C 0.35233 0.22183 0.44827 0.0
C2545 C 0.3338 0.21324 0.51817 0.0
C2546 C 0.36056 0.23343 0.43561 0.0
C2547 C 0.37265 0.23806 0.4437 0.0
C2548 C 0.37669 0.23112 0.46435 0.0
C2549 C 0.3684 0.21951 0.47706 0.0
C2550 C 0.35635 0.2149 0.46891 0.0
H2551 H 0.32645 0.21263 0.53839 0.0
H2552 H 0.33537 0.20596 0.52817 0.0
H2553 H 0.34194 0.2218 0.52509 0.0
H2554 H 0.35764 0.23889 0.41933 0.0
H2555 H 0.37881 0.24703 0.43343 0.0
H2556 H 0.77395 0.14606 0.51612 0.0
H2557 H 0.78292 0.13398 0.49866 0.0
H2558 H 0.76029 0.1199 0.38633 0.0
H2559 H 0.75119 0.1319 0.40358 0.0
H2560 H 0.7628 0.10268 0.43772 0.0
H2561 H 0.80586 0.14204 0.39367 0.0
H2562 H 0.8003 0.14274 0.44644 0.0
H2563 H 0.79234 0.14258 0.39851 0.0
C2564 C 0.7708 0.14033 0.48789 0.0
C2565 C 0.76192 0.14002 0.46103 0.0
C2566 C 0.77597 0.13347 0.47788 0.0
C2567 C 0.77238 0.12621 0.44086 0.0
C2568 C 0.76321 0.12551 0.41493 0.0
H2569 H 0.81374 0.09814 0.32122 0.0
H2570 H 0.80136 0.10708 0.33343 0.0
C2571 C 0.75804 0.13238 0.42484 0.0
C2572 C 0.77848 0.11966 0.42846 0.0
H2573 H 0.80539 0.12365 0.39774 0.0
C2574 C 0.7721 0.10723 0.42879 0.0
C2575 C 0.79055 0.12566 0.41615 0.0
C2576 C 0.79767 0.13899 0.41322 0.0
C2577 C 0.77758 0.10063 0.41828 0.0
C2578 C 0.78977 0.10665 0.40761 0.0
C2579 C 0.79606 0.11906 0.40617 0.0
C2580 C 0.79632 0.1003 0.39889 0.0
C2581 C 0.77029 0.08729 0.41839 0.0
C2582 C 0.79753 0.09348 0.4316 0.0
C2583 C 0.80459 0.08837 0.42477 0.0
C2584 C 0.81064 0.09004 0.38513 0.0
C2585 C 0.8092 0.09667 0.35208 0.0
C2586 C 0.80214 0.10179 0.35899 0.0
H2587 H 0.76067 0.08416 0.41544 0.0
H2588 H 0.77295 0.08345 0.39138 0.0
H2589 H 0.77172 0.08389 0.44953 0.0
H2590 H 0.79331 0.09242 0.46294 0.0
H2591 H 0.80554 0.08335 0.45097 0.0
H2592 H 0.89616 0.70948 0.32645 0.0
H2593 H 0.88858 0.6886 0.34409 0.0
H2594 H 0.90333 0.69836 0.47304 0.0
H2595 H 0.91092 0.71925 0.45591 0.0
H2596 H 0.90149 0.67694 0.37652 0.0
H2597 H 0.86722 0.67451 0.49092 0.0
H2598 H 0.87444 0.68625 0.45142 0.0
H2599 H 0.88214 0.68631 0.49989 0.0
C2600 C 0.89784 0.7072 0.35852 0.0
C2601 C 0.90407 0.71602 0.38988 0.0
C2602 C 0.89353 0.69527 0.36847 0.0
C2603 C 0.8953 0.69197 0.40997 0.0
C2604 C 0.90176 0.70075 0.441 0.0
H2605 H 0.86433 0.6219 0.5284 0.0
H2606 H 0.87635 0.64323 0.51528 0.0
C2607 C 0.90611 0.71268 0.43107 0.0
C2608 C 0.8901 0.6793 0.4211 0.0
H2609 H 0.86859 0.6573 0.48273 0.0
C2610 C 0.89432 0.67263 0.39983 0.0
C2611 C 0.88081 0.67377 0.45171 0.0
C2612 C 0.87579 0.68052 0.47469 0.0
C2613 C 0.88946 0.66049 0.40835 0.0
C2614 C 0.87995 0.65487 0.43815 0.0
C2615 C 0.87589 0.66163 0.45998 0.0
C2616 C 0.87362 0.6419 0.44559 0.0
C2617 C 0.89465 0.65385 0.38567 0.0
C2618 C 0.86812 0.63408 0.41077 0.0
C2619 C 0.86133 0.62191 0.4181 0.0
C2620 C 0.85974 0.61732 0.46054 0.0
C2621 C 0.86537 0.62515 0.49534 0.0
C2622 C 0.87225 0.63733 0.48791 0.0
H2623 H 0.90399 0.6599 0.37586 0.0
H2624 H 0.89432 0.64678 0.40677 0.0
H2625 H 0.88948 0.64968 0.35571 0.0
H2626 H 0.86878 0.63741 0.378 0.0
H2627 H 0.85704 0.61614 0.39058 0.0
H2628 H 0.80368 0.71575 0.94623 0.0
H2629 H 0.79074 0.69448 0.9576 0.0
H2630 H 0.8045 0.68728 0.84109 0.0
H2631 H 0.81732 0.70853 0.82897 0.0
H2632 H 0.78013 0.67391 0.84705 0.0
H2633 H 0.80134 0.67164 0.00057 0.0
H2634 H 0.79632 0.68219 0.00141 0.0
H2635 H 0.80805 0.68436 0.96505 0.0
C2636 C 0.80396 0.70965 0.92299 0.0
C2637 C 0.81158 0.71383 0.88679 0.0
C2638 C 0.7966 0.69749 0.9297 0.0
C2639 C 0.79682 0.68931 0.9006 0.0
C2640 C 0.80425 0.69346 0.86405 0.0
H2641 H 0.77111 0.61476 0.93604 0.0
H2642 H 0.78274 0.63625 0.92807 0.0
C2643 C 0.81158 0.70561 0.85721 0.0
C2644 C 0.78924 0.67641 0.90796 0.0
H2645 H 0.78385 0.65419 0.97927 0.0
C2646 C 0.78093 0.66958 0.87596 0.0
C2647 C 0.7904 0.67079 0.94549 0.0
C2648 C 0.79958 0.67758 0.97994 0.0
C2649 C 0.77372 0.65727 0.8805 0.0
C2650 C 0.7747 0.6517 0.91848 0.0
C2651 C 0.78304 0.65852 0.95041 0.0
C2652 C 0.76753 0.63871 0.9248 0.0
C2653 C 0.76534 0.65032 0.84408 0.0
C2654 C 0.75512 0.63299 0.92645 0.0
C2655 C 0.74843 0.62068 0.93082 0.0
C2656 C 0.75405 0.61389 0.93399 0.0
C2657 C 0.7665 0.61971 0.93357 0.0
C2658 C 0.77316 0.632 0.92905 0.0
H2659 H 0.76773 0.65543 0.81319 0.0
H2660 H 0.76528 0.64188 0.83833 0.0
H2661 H 0.75623 0.64816 0.85306 0.0
H2662 H 0.75061 0.63804 0.92417 0.0
H2663 H 0.73886 0.61649 0.93136 0.0
H2664 H 0.38143 0.1339 0.93101 0.0
H2665 H 0.36019 0.12123 0.91721 0.0
H2666 H 0.35344 0.14707 0.97819 0.0
H2667 H 0.37456 0.15969 0.99259 0.0
H2668 H 0.33786 0.12364 0.00455 0.0
H2669 H 0.34154 0.12796 0.82435 0.0
H2670 H 0.35059 0.12289 0.84994 0.0
H2671 H 0.35344 0.13765 0.86021 0.0
C2672 C 0.37542 0.13687 0.94155 0.0
C2673 C 0.3797 0.14784 0.96269 0.0
C2674 C 0.3633 0.12965 0.93346 0.0
C2675 C 0.35528 0.1333 0.94619 0.0
C2676 C 0.3595 0.14411 0.96801 0.0
H2677 H 0.28536 0.11427 0.86531 0.0
H2678 H 0.30652 0.12317 0.87983 0.0
C2679 C 0.37158 0.15133 0.97613 0.0
C2680 C 0.34248 0.12596 0.93661 0.0
H2681 H 0.32246 0.11574 0.8534 0.0
C2682 C 0.33447 0.12182 0.97154 0.0
C2683 C 0.33813 0.12372 0.89346 0.0
C2684 C 0.34633 0.12835 0.85473 0.0
C2685 C 0.32219 0.11564 0.96449 0.0
C2686 C 0.31784 0.11341 0.92135 0.0
C2687 C 0.32585 0.1174 0.88642 0.0
C2688 C 0.30502 0.1077 0.91175 0.0
C2689 C 0.31398 0.11193 0.0032 0.0
C2690 C 0.29719 0.09598 0.92442 0.0
C2691 C 0.28505 0.09085 0.91626 0.0
C2692 C 0.28057 0.09736 0.89512 0.0
C2693 C 0.2885 0.10902 0.88178 0.0
C2694 C 0.30061 0.11412 0.88995 0.0
H2695 H 0.31872 0.1164 0.0336 0.0
H2696 H 0.30675 0.11394 0.9977 0.0
H2697 H 0.30988 0.10223 0.008 0.0
H2698 H 0.30046 0.09081 0.94067 0.0
H2699 H 0.27918 0.08182 0.92673 0.0
H2700 H 0.90974 0.19686 0.95621 0.0
H2701 H 0.90075 0.20912 0.96982 0.0
H2702 H 0.89241 0.20781 0.83347 0.0
H2703 H 0.90118 0.19535 0.81958 0.0
H2704 H 0.90531 0.23094 0.93676 0.0
H2705 H 0.8602 0.19502 0.89237 0.0
H2706 H 0.87235 0.19237 0.90125 0.0
H2707 H 0.87108 0.19854 0.85058 0.0
C2708 C 0.90606 0.19923 0.92902 0.0
C2709 C 0.90606 0.19502 0.88685 0.0
C2710 C 0.90094 0.20625 0.93689 0.0
C2711 C 0.89573 0.20918 0.90281 0.0
C2712 C 0.89616 0.20542 0.86038 0.0
H2713 H 0.85574 0.24549 0.88684 0.0
H2714 H 0.86775 0.23632 0.87233 0.0
C2715 C 0.90123 0.19835 0.85248 0.0
C2716 C 0.88952 0.21585 0.91195 0.0
H2717 H 0.86246 0.2139 0.90624 0.0
C2718 C 0.89593 0.22722 0.9302 0.0
C2719 C 0.87728 0.21092 0.90362 0.0
C2720 C 0.86978 0.1985 0.88626 0.0
C2721 C 0.89046 0.2339 0.93954 0.0
C2722 C 0.87825 0.229 0.93078 0.0
C2723 C 0.87184 0.21763 0.91269 0.0
C2724 C 0.87186 0.23548 0.93992 0.0
C2725 C 0.89778 0.24621 0.95793 0.0
C2726 C 0.87025 0.2381 0.98282 0.0
C2727 C 0.86335 0.24333 0.99134 0.0
C2728 C 0.85792 0.24599 0.95704 0.0
C2729 C 0.85979 0.24357 0.91405 0.0
C2730 C 0.86665 0.23833 0.90563 0.0
H2731 H 0.90743 0.24963 0.95395 0.0
H2732 H 0.89549 0.25244 0.94195 0.0
H2733 H 0.89588 0.24604 0.9932 0.0
H2734 H 0.87406 0.23579 0.00978 0.0
H2735 H 0.86206 0.24505 0.02479 0.0
H2736 H 0.71058 0.82566 0.63021 0.0
H2737 H 0.68951 0.81213 0.61831 0.0
H2738 H 0.69682 0.78447 0.5818 0.0
H2739 H 0.71802 0.79805 0.59292 0.0
H2740 H 0.68195 0.78658 0.52463 0.0
H2741 H 0.66613 0.7847 0.69305 0.0
H2742 H 0.6749 0.79964 0.67399 0.0
H2743 H 0.68157 0.79052 0.68012 0.0
C2744 C 0.70773 0.81668 0.61996 0.0
C2745 C 0.71598 0.81293 0.61261 0.0
C2746 C 0.69566 0.80892 0.61348 0.0
C2747 C 0.69158 0.79723 0.59998 0.0
C2748 C 0.69978 0.79344 0.59257 0.0
H2749 H 0.61487 0.74841 0.59117 0.0
H2750 H 0.636 0.75662 0.60621 0.0
C2751 C 0.71189 0.80121 0.59894 0.0
C2752 C 0.67881 0.78923 0.59142 0.0
H2753 H 0.65143 0.77856 0.63666 0.0
C2754 C 0.67527 0.78468 0.54927 0.0
C2755 C 0.67011 0.78657 0.62379 0.0
C2756 C 0.67337 0.79051 0.67038 0.0
C2757 C 0.66325 0.77805 0.53804 0.0
C2758 C 0.65457 0.77615 0.5696 0.0
C2759 C 0.6581 0.78016 0.61233 0.0
C2760 C 0.64184 0.77064 0.55847 0.0
C2761 C 0.65997 0.77324 0.49239 0.0
C2762 C 0.63813 0.77583 0.52678 0.0
C2763 C 0.6261 0.77115 0.51802 0.0
C2764 C 0.61753 0.76126 0.54116 0.0
C2765 C 0.62126 0.75602 0.57274 0.0
C2766 C 0.63332 0.7607 0.58138 0.0
H2767 H 0.66704 0.77201 0.47736 0.0
H2768 H 0.65155 0.76463 0.4919 0.0
H2769 H 0.65885 0.77963 0.47202 0.0
H2770 H 0.64453 0.78369 0.50951 0.0
H2771 H 0.62354 0.77545 0.4937 0.0
H2772 H 0.19035 0.9044 0.55209 0.0
H2773 H 0.20233 0.89505 0.54085 0.0
H2774 H 0.21325 0.9013 0.67524 0.0
H2775 H 0.20111 0.91056 0.68709 0.0
H2776 H 0.22675 0.90395 0.55303 0.0
H2777 H 0.1994 0.86543 0.66073 0.0
H2778 H 0.1944 0.87534 0.64224 0.0
H2779 H 0.20512 0.87979 0.68522 0.0
C2780 C 0.19531 0.90383 0.57932 0.0
C2781 C 0.1947 0.90815 0.62061 0.0
C2782 C 0.20218 0.8985 0.57277 0.0
C2783 C 0.20854 0.89735 0.60733 0.0
C2784 C 0.20823 0.90193 0.64834 0.0
H2785 H 0.24657 0.85787 0.60943 0.0
H2786 H 0.23939 0.87134 0.62971 0.0
C2787 C 0.20133 0.90726 0.65498 0.0
C2788 C 0.21527 0.89112 0.60021 0.0
H2789 H 0.2158 0.86596 0.62654 0.0
C2790 C 0.22442 0.89568 0.56929 0.0
C2791 C 0.21221 0.88035 0.62159 0.0
C2792 C 0.20219 0.87485 0.65407 0.0
C2793 C 0.2305 0.88968 0.55869 0.0
C2794 C 0.2272 0.87874 0.5791 0.0
C2795 C 0.2183 0.87436 0.61099 0.0
C2796 C 0.23233 0.87132 0.56602 0.0
C2797 C 0.24038 0.89507 0.52568 0.0
C2798 C 0.23071 0.86684 0.52352 0.0
C2799 C 0.23478 0.85915 0.51183 0.0
C2800 C 0.24049 0.85573 0.54252 0.0
C2801 C 0.24223 0.86035 0.58497 0.0
C2802 C 0.23813 0.86804 0.59665 0.0
H2803 H 0.2441 0.90479 0.5229 0.0
H2804 H 0.24764 0.89332 0.53427 0.0
H2805 H 0.23686 0.89109 0.49331 0.0
H2806 H 0.22602 0.86907 0.49965 0.0
H2807 H 0.23325 0.85572 0.47892 0.0
H2808 H 0.15416 0.37288 0.49953 0.0
H2809 H 0.14134 0.35196 0.51701 0.0
H2810 H 0.12126 0.36096 0.60492 0.0
H2811 H 0.13395 0.38194 0.5872 0.0
H2812 H 0.13793 0.34145 0.59819 0.0
H2813 H 0.09552 0.33463 0.52992 0.0
H2814 H 0.10966 0.34736 0.51663 0.0
H2815 H 0.10263 0.34672 0.56763 0.0
C2816 C 0.14697 0.37043 0.52235 0.0
C2817 C 0.14507 0.37908 0.54191 0.0
C2818 C 0.13966 0.35846 0.53232 0.0
C2819 C 0.13028 0.3549 0.56186 0.0
C2820 C 0.12831 0.3635 0.5814 0.0
H2821 H 0.09517 0.28604 0.69021 0.0
H2822 H 0.10564 0.3073 0.67476 0.0
C2823 C 0.13562 0.37549 0.57141 0.0
C2824 C 0.12289 0.34223 0.57342 0.0
H2825 H 0.09467 0.31872 0.57031 0.0
C2826 C 0.12847 0.33648 0.59215 0.0
C2827 C 0.11058 0.33576 0.56509 0.0
C2828 C 0.10423 0.34138 0.54337 0.0
C2829 C 0.12206 0.32441 0.60288 0.0
C2830 C 0.10971 0.31799 0.59535 0.0
C2831 C 0.10412 0.32372 0.57645 0.0
C2832 C 0.10255 0.30519 0.60534 0.0
C2833 C 0.12863 0.31858 0.62117 0.0
C2834 C 0.09696 0.29701 0.57161 0.0
C2835 C 0.09091 0.28486 0.58033 0.0
C2836 C 0.09031 0.28069 0.623 0.0
C2837 C 0.09554 0.28895 0.65695 0.0
C2838 C 0.10158 0.3011 0.64818 0.0
H2839 H 0.13832 0.32399 0.61543 0.0
H2840 H 0.12714 0.31745 0.65682 0.0
H2841 H 0.12536 0.30969 0.60655 0.0
H2842 H 0.09757 0.30001 0.53835 0.0
H2843 H 0.08695 0.27875 0.55345 0.0
H2844 H 0.04606 0.5844 0.83929 0.0
H2845 H 0.02468 0.57384 0.82504 0.0
H2846 H 0.03079 0.5637 0.69837 0.0
H2847 H 0.05205 0.57408 0.71228 0.0
H2848 H 0.01114 0.57611 0.75477 0.0
H2849 H 0.00789 0.532 0.75882 0.0
H2850 H 0.02054 0.54519 0.77982 0.0
H2851 H 0.01895 0.5424 0.72225 0.0
C2852 C 0.04285 0.57999 0.8083 0.0
C2853 C 0.05075 0.57998 0.77711 0.0
C2854 C 0.03065 0.57398 0.80022 0.0
C2855 C 0.02618 0.56784 0.76097 0.0
C2856 C 0.03406 0.5682 0.72919 0.0
H2857 H 0.95768 0.5214 0.64846 0.0
H2858 H 0.97874 0.53463 0.66292 0.0
C2859 C 0.04622 0.57418 0.73719 0.0
C2860 C 0.01326 0.56077 0.75342 0.0
H2861 H 0.99094 0.53255 0.73421 0.0
C2862 C 0.00668 0.56658 0.75053 0.0
C2863 C 0.0075 0.54834 0.74804 0.0
C2864 C 0.01404 0.54157 0.75276 0.0
C2865 C 0.9945 0.5603 0.74108 0.0
C2866 C 0.9888 0.54789 0.73505 0.0
C2867 C 0.99537 0.54208 0.73854 0.0
C2868 C 0.976 0.54067 0.7251 0.0
C2869 C 0.98791 0.56701 0.73648 0.0
C2870 C 0.96749 0.53973 0.75524 0.0
C2871 C 0.95543 0.53218 0.74708 0.0
C2872 C 0.95169 0.52538 0.70874 0.0
C2873 C 0.96025 0.52651 0.6783 0.0
C2874 C 0.97229 0.53406 0.68649 0.0
H2875 H 0.99405 0.57664 0.73159 0.0
H2876 H 0.98163 0.56356 0.70873 0.0
H2877 H 0.98274 0.56587 0.76656 0.0
H2878 H 0.97018 0.54458 0.78561 0.0
H2879 H 0.94908 0.53148 0.77128 0.0
H2880 H 0.41867 0.46408 0.73117 0.0
H2881 H 0.4277 0.45172 0.72017 0.0
H2882 H 0.46007 0.47871 0.77885 0.0
H2883 H 0.4512 0.49117 0.78948 0.0
H2884 H 0.46354 0.47006 0.70061 0.0
H2885 H 0.43479 0.43347 0.8132 0.0
H2886 H 0.42704 0.43699 0.7729 0.0
H2887 H 0.43553 0.44768 0.81408 0.0
C2888 C 0.42769 0.46736 0.74191 0.0
C2889 C 0.43421 0.4786 0.76129 0.0
C2890 C 0.43281 0.46026 0.73579 0.0
C2891 C 0.4445 0.46425 0.74919 0.0
C2892 C 0.45102 0.47546 0.76842 0.0
H2893 H 0.48304 0.42713 0.78501 0.0
H2894 H 0.47211 0.43775 0.79271 0.0
C2895 C 0.44593 0.48256 0.77451 0.0
C2896 C 0.45011 0.45692 0.74222 0.0
H2897 H 0.44849 0.43085 0.77088 0.0
C2898 C 0.46024 0.46147 0.71587 0.0
C2899 C 0.44583 0.44578 0.76254 0.0
C2900 C 0.43526 0.4407 0.79259 0.0
C2901 C 0.46625 0.45518 0.70929 0.0
C2902 C 0.46187 0.44396 0.72908 0.0
C2903 C 0.45174 0.43941 0.75546 0.0
C2904 C 0.468 0.43706 0.72423 0.0
C2905 C 0.4774 0.46073 0.68219 0.0
C2906 C 0.46912 0.43298 0.68324 0.0
C2907 C 0.47538 0.42692 0.67867 0.0
C2908 C 0.48059 0.42481 0.71509 0.0
C2909 C 0.47918 0.42865 0.75627 0.0
C2910 C 0.47292 0.4347 0.76078 0.0
H2911 H 0.48101 0.47039 0.67767 0.0
H2912 H 0.48433 0.45934 0.69742 0.0
H2913 H 0.4754 0.45652 0.64957 0.0
H2914 H 0.4652 0.43454 0.65475 0.0
H2915 H 0.47624 0.42402 0.64655 0.0
H2916 H 0.53462 0.95215 0.71352 0.0
H2917 H 0.54784 0.97328 0.6999 0.0
H2918 H 0.54037 0.9814 0.82799 0.0
H2919 H 0.52721 0.96031 0.84209 0.0
H2920 H 0.54064 0.99032 0.70138 0.0
H2921 H 0.5767 0.00127 0.82015 0.0
H2922 H 0.56643 0.98626 0.80348 0.0
H2923 H 0.5621 0.99348 0.84324 0.0
C2924 C 0.53592 0.95841 0.73906 0.0
C2925 C 0.52985 0.95455 0.77891 0.0
C2926 C 0.54347 0.97048 0.73118 0.0
C2927 C 0.54519 0.97887 0.76312 0.0
C2928 C 0.53935 0.97504 0.80323 0.0
H2929 H 0.57547 0.05397 0.78543 0.0
H2930 H 0.56659 0.03263 0.7957 0.0
C2931 C 0.53177 0.96299 0.81111 0.0
C2932 C 0.55232 0.99168 0.75335 0.0
H2933 H 0.57597 0.01758 0.78825 0.0
C2934 C 0.54846 0.99628 0.71996 0.0
C2935 C 0.56247 -0.0006 0.77781 0.0
C2936 C 0.56726 0.99486 0.81293 0.0
C2937 C 0.55422 0.00847 0.7114 0.0
C2938 C 0.56427 0.01624 0.73636 0.0
C2939 C 0.56828 0.01161 0.76917 0.0
C2940 C 0.57034 0.02924 0.73037 0.0
C2941 C 0.54921 0.01298 0.67696 0.0
C2942 C 0.57562 0.03444 0.69048 0.0
C2943 C 0.58066 0.04665 0.68438 0.0
C2944 C 0.58058 0.05387 0.71822 0.0
C2945 C 0.57565 0.04867 0.75862 0.0
C2946 C 0.57058 0.03647 0.7646 0.0
H2947 H 0.54 0.00625 0.66801 0.0
H2948 H 0.54926 0.02111 0.68816 0.0
H2949 H 0.55475 0.01523 0.64721 0.0
H2950 H 0.57574 0.02904 0.66392 0.0
H2951 H 0.58448 0.0504 0.653 0.0
H2952 H 0.47009 0.03779 0.15602 0.0
H2953 H 0.45778 0.01665 0.17115 0.0
H2954 H 0.45695 0.02426 0.30725 0.0
H2955 H 0.46911 0.04546 0.29235 0.0
H2956 H 0.4638 0.00364 0.22519 0.0
H2957 H 0.4221 0.00114 0.28123 0.0
H2958 H 0.4335 0.01382 0.25256 0.0
H2959 H 0.43517 0.01184 0.30945 0.0
C2960 C 0.46719 0.035 0.18912 0.0
C2961 C 0.47058 0.04332 0.22298 0.0
C2962 C 0.46016 0.02291 0.19769 0.0
C2963 C 0.45634 0.0189 0.24022 0.0
C2964 C 0.45959 0.02718 0.27406 0.0
H2965 H 0.42123 0.9477 0.35074 0.0
H2966 H 0.43088 0.96922 0.34069 0.0
C2967 C 0.4666 0.03929 0.2655 0.0
C2968 C 0.44963 0.00602 0.24934 0.0
H2969 H 0.42341 0.9837 0.28888 0.0
C2970 C 0.45496 -0.00072 0.23897 0.0
C2971 C 0.43812 0.00038 0.26763 0.0
C2972 C 0.43182 0.00713 0.27806 0.0
C2973 C 0.44911 0.98704 0.24642 0.0
C2974 C 0.43756 0.98138 0.2642 0.0
C2975 C 0.43226 0.98811 0.27521 0.0
C2976 C 0.43081 0.9684 0.2704 0.0
C2977 C 0.45535 0.98025 0.23553 0.0
C2978 C 0.42731 0.96088 0.23416 0.0
C2979 C 0.42181 0.94864 0.23972 0.0
C2980 C 0.41969 0.94369 0.2817 0.0
C2981 C 0.42278 0.95124 0.318 0.0
C2982 C 0.42828 0.96352 0.31235 0.0
H2983 H 0.46505 0.98622 0.23157 0.0
H2984 H 0.45381 0.97365 0.26125 0.0
H2985 H 0.45179 0.97541 0.20449 0.0
H2986 H 0.42906 0.9645 0.20153 0.0
H2987 H 0.41948 0.94309 0.21104 0.0
H2988 H 0.04336 0.4723 0.3568 0.0
H2989 H 0.02195 0.4602 0.34577 0.0
H2990 H 0.02727 0.46217 0.20684 0.0
H2991 H 0.04865 0.47413 0.21749 0.0
H2992 H 0.00773 0.46682 0.30085 0.0
H2993 H 0.00508 0.42678 0.22667 0.0
H2994 H 0.01807 0.43777 0.25519 0.0
H2995 H 0.01538 0.44033 0.19996 0.0
C2996 C 0.03999 0.47006 0.3239 0.0
C2997 C 0.04771 0.47416 0.28802 0.0
C2998 C 0.02776 0.46315 0.31768 0.0
C2999 C 0.02305 0.46015 0.27553 0.0
C3000 C 0.03073 0.46417 0.23967 0.0
H3001 H 0.95383 0.42833 0.15844 0.0
H3002 H 0.97497 0.43756 0.17474 0.0
C3003 C 0.04296 0.47107 0.24584 0.0
C3004 C 0.01006 0.45342 0.26892 0.0
H3005 H 0.98771 0.42847 0.22212 0.0
C3006 C 0.00333 0.45838 0.28405 0.0
C3007 C 0.00436 0.44243 0.24686 0.0
C3008 C 0.01107 0.43644 0.23157 0.0
C3009 C 0.99109 0.45279 0.27663 0.0
C3010 C 0.98542 0.44188 0.25408 0.0
C3011 C 0.99211 0.43685 0.23937 0.0
C3012 C 0.97258 0.43572 0.24451 0.0
C3013 C 0.98437 0.45879 0.29179 0.0
C3014 C 0.96425 0.43141 0.27837 0.0
C3015 C 0.95216 0.42614 0.2692 0.0
C3016 C 0.9482 0.42506 0.22597 0.0
C3017 C 0.95658 0.42908 0.19209 0.0
C3018 C 0.96866 0.43433 0.20131 0.0
H3019 H 0.9904 0.46825 0.29996 0.0
H3020 H 0.97804 0.45823 0.26648 0.0
H3021 H 0.97923 0.45425 0.32141 0.0
H3022 H 0.96711 0.43223 0.3119 0.0
H3023 H 0.94594 0.42307 0.29604 0.0
H3024 H 0.58231 0.53452 0.26132 0.0
H3025 H 0.57352 0.54693 0.27646 0.0
H3026 H 0.5455 0.52656 0.18511 0.0
H3027 H 0.55416 0.51411 0.16974 0.0
H3028 H 0.56737 0.56053 0.21584 0.0
H3029 H 0.52875 0.52476 0.30366 0.0
H3030 H 0.54215 0.52428 0.29368 0.0
H3031 H 0.53157 0.5208 0.25077 0.0
C3032 C 0.57431 0.53272 0.24425 0.0
C3033 C 0.56889 0.52327 0.21455 0.0
C3034 C 0.56932 0.53982 0.25291 0.0
C3035 C 0.5588 0.53754 0.23229 0.0
C3036 C 0.55355 0.52835 0.20175 0.0
H3037 H 0.5223 0.57698 0.2105 0.0
H3038 H 0.53425 0.56757 0.19898 0.0
C3039 C 0.55854 0.52127 0.19293 0.0
C3040 C 0.55311 0.54457 0.24334 0.0
H3041 H 0.5281 0.54225 0.28824 0.0
C3042 C 0.55882 0.55658 0.23187 0.0
C3043 C 0.54204 0.53939 0.26475 0.0
C3044 C 0.53578 0.52662 0.27933 0.0
C3045 C 0.55354 0.5635 0.24018 0.0
C3046 C 0.54226 0.5582 0.26015 0.0
C3047 C 0.53673 0.54626 0.2727 0.0
C3048 C 0.53586 0.56474 0.26741 0.0
C3049 C 0.56007 0.57642 0.22769 0.0
C3050 C 0.53274 0.5662 0.30971 0.0
C3051 C 0.52588 0.57155 0.31644 0.0
C3052 C 0.52192 0.57543 0.2809 0.0
C3053 C 0.52523 0.57412 0.23859 0.0
C3054 C 0.53212 0.5688 0.23193 0.0
H3055 H 0.5697 0.5798 0.22312 0.0
H3056 H 0.55645 0.57755 0.19654 0.0
H3057 H 0.5589 0.58188 0.25279 0.0
H3058 H 0.53549 0.56305 0.33749 0.0
H3059 H 0.52348 0.57241 0.34942 0.0
loop_
_geom_bond_atom_site_label_1
_geom_bond_atom_site_label_2
_geom_bond_distance
_geom_bond_site_symmetry_2
_ccdc_geom_bond_type
C0 O1 1.160 . S
C0 O7 1.185 . S
O1 C0 1.160 . S
O2 Zn3 1.899 . S
O2 C10 1.284 . S
Zn3 O2 1.899 . S
Zn3 O4 2.032 . S
Zn3 O7 2.086 . S
Zn3 O12 1.977 . S
O4 Zn3 2.032 . S
O4 C8 1.278 . S
C5 O6 1.203 . S
C5 O12 1.267 . S
O6 C5 1.203 . S
O7 C0 1.185 . S
O7 Zn3 2.086 . S
C8 O4 1.278 . S
C8 O9 1.211 . S
O9 C8 1.211 . S
C10 O2 1.284 . S
C10 O11 1.273 . S
O11 C10 1.273 . S
O12 Zn3 1.977 . S
O12 C5 1.267 . S
C13 O14 1.160 . S
C13 O20 1.185 . S
O14 C13 1.160 . S
O15 Zn16 1.899 . S
O15 C23 1.284 . S
Zn16 O15 1.899 . S
Zn16 O17 2.032 . S
Zn16 O20 2.086 . S
Zn16 O25 1.977 . S
O17 Zn16 2.032 . S
O17 C21 1.278 . S
C18 O19 1.203 . S
C18 O25 1.267 . S
O19 C18 1.203 . S
O20 C13 1.185 . S
O20 Zn16 2.086 . S
C21 O17 1.278 . S
C21 O22 1.211 . S
O22 C21 1.211 . S
C23 O15 1.284 . S
C23 O24 1.273 . S
O24 C23 1.273 . S
O25 Zn16 1.977 . S
O25 C18 1.267 . S
C26 O27 1.160 . S
C26 O33 1.185 . S
O27 C26 1.160 . S
O28 Zn29 1.899 . S
O28 C36 1.284 . S
Zn29 O28 1.899 . S
Zn29 O30 2.032 . S
Zn29 O33 2.086 . S
Zn29 O38 1.977 . S
O30 Zn29 2.032 . S
O30 C34 1.278 . S
C31 O32 1.203 . S
C31 O38 1.267 . S
O32 C31 1.203 . S
O33 C26 1.185 . S
O33 Zn29 2.086 . S
C34 O30 1.278 . S
C34 O35 1.211 . S
O35 C34 1.211 . S
C36 O28 1.284 . S
C36 O37 1.273 . S
O37 C36 1.273 . S
O38 Zn29 1.977 . S
O38 C31 1.267 . S
C39 O40 1.160 . S
C39 O46 1.185 . S
O40 C39 1.160 . S
O41 Zn42 1.899 . S
O41 C49 1.284 . S
Zn42 O41 1.899 . S
Zn42 O43 2.032 . S
Zn42 O46 2.086 . S
Zn42 O51 1.977 . S
O43 Zn42 2.032 . S
O43 C47 1.278 . S
C44 O45 1.203 . S
C44 O51 1.267 . S
O45 C44 1.203 . S
O46 C39 1.185 . S
O46 Zn42 2.086 . S
C47 O43 1.278 . S
C47 O48 1.211 . S
O48 C47 1.211 . S
C49 O41 1.284 . S
C49 O50 1.273 . S
O50 C49 1.273 . S
O51 Zn42 1.977 . S
O51 C44 1.267 . S
C52 O53 1.160 . S
C52 O59 1.185 . S
O53 C52 1.160 . S
O54 Zn55 1.899 . S
O54 C62 1.284 . S
Zn55 O54 1.899 . S
Zn55 O56 2.032 . S
Zn55 O59 2.086 . S
Zn55 O64 1.977 . S
O56 Zn55 2.032 . S
O56 C60 1.278 . S
C57 O58 1.203 . S
C57 O64 1.267 . S
O58 C57 1.203 . S
O59 C52 1.185 . S
O59 Zn55 2.086 . S
C60 O56 1.278 . S
C60 O61 1.211 . S
O61 C60 1.211 . S
C62 O54 1.284 . S
C62 O63 1.273 . S
O63 C62 1.273 . S
O64 Zn55 1.977 . S
O64 C57 1.267 . S
C65 O66 1.160 . S
C65 O72 1.185 . S
O66 C65 1.160 . S
O67 Zn68 1.899 . S
O67 C75 1.284 . S
Zn68 O67 1.899 . S
Zn68 O69 2.032 . S
Zn68 O72 2.086 . S
Zn68 O77 1.977 . S
O69 Zn68 2.032 . S
O69 C73 1.278 . S
C70 O71 1.203 . S
C70 O77 1.267 . S
O71 C70 1.203 . S
O72 C65 1.185 . S
O72 Zn68 2.086 . S
C73 O69 1.278 . S
C73 O74 1.211 . S
O74 C73 1.211 . S
C75 O67 1.284 . S
C75 O76 1.273 . S
O76 C75 1.273 . S
O77 Zn68 1.977 . S
O77 C70 1.267 . S
C78 O79 1.160 . S
C78 O85 1.185 . S
O79 C78 1.160 . S
O80 Zn81 1.899 . S
O80 C88 1.284 . S
Zn81 O80 1.899 . S
Zn81 O82 2.032 . S
Zn81 O85 2.086 . S
Zn81 O90 1.977 . S
O82 Zn81 2.032 . S
O82 C86 1.278 . S
C83 O84 1.203 . S
C83 O90 1.267 . S
O84 C83 1.203 . S
O85 C78 1.185 . S
O85 Zn81 2.086 . S
C86 O82 1.278 . S
C86 O87 1.211 . S
O87 C86 1.211 . S
C88 O80 1.284 . S
C88 O89 1.273 . S
O89 C88 1.273 . S
O90 Zn81 1.977 . S
O90 C83 1.267 . S
C91 O92 1.160 . S
C91 O98 1.185 . S
O92 C91 1.160 . S
O93 Zn94 1.899 . S
O93 C101 1.284 . S
Zn94 O93 1.899 . S
Zn94 O95 2.032 . S
Zn94 O98 2.086 . S
Zn94 O103 1.977 . S
O95 Zn94 2.032 . S
O95 C99 1.278 . S
C96 O97 1.203 . S
C96 O103 1.267 . S
O97 C96 1.203 . S
O98 C91 1.185 . S
O98 Zn94 2.086 . S
C99 O95 1.278 . S
C99 O100 1.211 . S
O100 C99 1.211 . S
C101 O93 1.284 . S
C101 O102 1.273 . S
O102 C101 1.273 . S
O103 Zn94 1.977 . S
O103 C96 1.267 . S
C104 O105 1.160 . S
C104 O111 1.185 . S
O105 C104 1.160 . S
O106 Zn107 1.899 . S
O106 C114 1.284 . S
Zn107 O106 1.899 . S
Zn107 O108 2.032 . S
Zn107 O111 2.086 . S
Zn107 O116 1.977 . S
O108 Zn107 2.032 . S
O108 C112 1.278 . S
C109 O110 1.203 . S
C109 O116 1.267 . S
O110 C109 1.203 . S
O111 C104 1.185 . S
O111 Zn107 2.086 . S
C112 O108 1.278 . S
C112 O113 1.211 . S
O113 C112 1.211 . S
C114 O106 1.284 . S
C114 O115 1.273 . S
O115 C114 1.273 . S
O116 Zn107 1.977 . S
O116 C109 1.267 . S
C117 O118 1.160 . S
C117 O124 1.185 . S
O118 C117 1.160 . S
O119 Zn120 1.899 . S
O119 C127 1.284 . S
Zn120 O119 1.899 . S
Zn120 O121 2.032 . S
Zn120 O124 2.086 . S
Zn120 O129 1.977 . S
O121 Zn120 2.032 . S
O121 C125 1.278 . S
C122 O123 1.203 . S
C122 O129 1.267 . S
O123 C122 1.203 . S
O124 C117 1.185 . S
O124 Zn120 2.086 . S
C125 O121 1.278 . S
C125 O126 1.211 . S
O126 C125 1.211 . S
C127 O119 1.284 . S
C127 O128 1.273 . S
O128 C127 1.273 . S
O129 Zn120 1.977 . S
O129 C122 1.267 . S
C130 O131 1.160 . S
C130 O137 1.185 . S
O131 C130 1.160 . S
O132 Zn133 1.899 . S
O132 C140 1.284 . S
Zn133 O132 1.899 . S
Zn133 O134 2.032 . S
Zn133 O137 2.086 . S
Zn133 O142 1.977 . S
O134 Zn133 2.032 . S
O134 C138 1.278 . S
C135 O136 1.203 . S
C135 O142 1.267 . S
O136 C135 1.203 . S
O137 C130 1.185 . S
O137 Zn133 2.086 . S
C138 O134 1.278 . S
C138 O139 1.211 . S
O139 C138 1.211 . S
C140 O132 1.284 . S
C140 O141 1.273 . S
O141 C140 1.273 . S
O142 Zn133 1.977 . S
O142 C135 1.267 . S
C143 O144 1.160 . S
C143 O150 1.185 . S
O144 C143 1.160 . S
O145 Zn146 1.899 . S
O145 C153 1.284 . S
Zn146 O145 1.899 . S
Zn146 O147 2.032 . S
Zn146 O150 2.086 . S
Zn146 O155 1.977 . S
O147 Zn146 2.032 . S
O147 C151 1.278 . S
C148 O149 1.203 . S
C148 O155 1.267 . S
O149 C148 1.203 . S
O150 C143 1.185 . S
O150 Zn146 2.086 . S
C151 O147 1.278 . S
C151 O152 1.211 . S
O152 C151 1.211 . S
C153 O145 1.284 . S
C153 O154 1.273 . S
O154 C153 1.273 . S
O155 Zn146 1.977 . S
O155 C148 1.267 . S
C156 O157 1.160 . S
C156 O163 1.185 . S
O157 C156 1.160 . S
O158 Zn159 1.899 . S
O158 C166 1.284 . S
Zn159 O158 1.899 . S
Zn159 O160 2.032 . S
Zn159 O163 2.086 . S
Zn159 O168 1.977 . S
O160 Zn159 2.032 . S
O160 C164 1.278 . S
C161 O162 1.203 . S
C161 O168 1.267 . S
O162 C161 1.203 . S
O163 C156 1.185 . S
O163 Zn159 2.086 . S
C164 O160 1.278 . S
C164 O165 1.211 . S
O165 C164 1.211 . S
C166 O158 1.284 . S
C166 O167 1.273 . S
O167 C166 1.273 . S
O168 Zn159 1.977 . S
O168 C161 1.267 . S
C169 O170 1.160 . S
C169 O176 1.185 . S
O170 C169 1.160 . S
O171 Zn172 1.899 . S
O171 C179 1.284 . S
Zn172 O171 1.899 . S
Zn172 O173 2.032 . S
Zn172 O176 2.086 . S
Zn172 O181 1.977 . S
O173 Zn172 2.032 . S
O173 C177 1.278 . S
C174 O175 1.203 . S
C174 O181 1.267 . S
O175 C174 1.203 . S
O176 C169 1.185 . S
O176 Zn172 2.086 . S
C177 O173 1.278 . S
C177 O178 1.211 . S
O178 C177 1.211 . S
C179 O171 1.284 . S
C179 O180 1.273 . S
O180 C179 1.273 . S
O181 Zn172 1.977 . S
O181 C174 1.267 . S
C182 O183 1.160 . S
C182 O189 1.185 . S
O183 C182 1.160 . S
O184 Zn185 1.899 . S
O184 C192 1.284 . S
Zn185 O184 1.899 . S
Zn185 O186 2.032 . S
Zn185 O189 2.086 . S
Zn185 O194 1.977 . S
O186 Zn185 2.032 . S
O186 C190 1.278 . S
C187 O188 1.203 . S
C187 O194 1.267 . S
O188 C187 1.203 . S
O189 C182 1.185 . S
O189 Zn185 2.086 . S
C190 O186 1.278 . S
C190 O191 1.211 . S
O191 C190 1.211 . S
C192 O184 1.284 . S
C192 O193 1.273 . S
O193 C192 1.273 . S
O194 Zn185 1.977 . S
O194 C187 1.267 . S
C195 O196 1.160 . S
C195 O202 1.185 . S
O196 C195 1.160 . S
O197 Zn198 1.899 . S
O197 C205 1.284 . S
Zn198 O197 1.899 . S
Zn198 O199 2.032 . S
Zn198 O202 2.086 . S
Zn198 O207 1.977 . S
O199 Zn198 2.032 . S
O199 C203 1.278 . S
C200 O201 1.203 . S
C200 O207 1.267 . S
O201 C200 1.203 . S
O202 C195 1.185 . S
O202 Zn198 2.086 . S
C203 O199 1.278 . S
C203 O204 1.211 . S
O204 C203 1.211 . S
C205 O197 1.284 . S
C205 O206 1.273 . S
O206 C205 1.273 . S
O207 Zn198 1.977 . S
O207 C200 1.267 . S
C208 O209 1.160 . S
C208 O215 1.185 . S
O209 C208 1.160 . S
O210 Zn211 1.899 . S
O210 C218 1.284 . S
Zn211 O210 1.899 . S
Zn211 O212 2.032 . S
Zn211 O215 2.086 . S
Zn211 O220 1.977 . S
O212 Zn211 2.032 . S
O212 C216 1.278 . S
C213 O214 1.203 . S
C213 O220 1.267 . S
O214 C213 1.203 . S
O215 C208 1.185 . S
O215 Zn211 2.086 . S
C216 O212 1.278 . S
C216 O217 1.211 . S
O217 C216 1.211 . S
C218 O210 1.284 . S
C218 O219 1.273 . S
O219 C218 1.273 . S
O220 Zn211 1.977 . S
O220 C213 1.267 . S
C221 O222 1.160 . S
C221 O228 1.185 . S
O222 C221 1.160 . S
O223 Zn224 1.899 . S
O223 C231 1.284 . S
Zn224 O223 1.899 . S
Zn224 O225 2.032 . S
Zn224 O228 2.086 . S
Zn224 O233 1.977 . S
O225 Zn224 2.032 . S
O225 C229 1.278 . S
C226 O227 1.203 . S
C226 O233 1.267 . S
O227 C226 1.203 . S
O228 C221 1.185 . S
O228 Zn224 2.086 . S
C229 O225 1.278 . S
C229 O230 1.211 . S
O230 C229 1.211 . S
C231 O223 1.284 . S
C231 O232 1.273 . S
O232 C231 1.273 . S
O233 Zn224 1.977 . S
O233 C226 1.267 . S
C234 O235 1.160 . S
C234 O241 1.185 . S
O235 C234 1.160 . S
O236 Zn237 1.899 . S
O236 C244 1.284 . S
Zn237 O236 1.899 . S
Zn237 O238 2.032 . S
Zn237 O241 2.086 . S
Zn237 O246 1.977 . S
O238 Zn237 2.032 . S
O238 C242 1.278 . S
C239 O240 1.203 . S
C239 O246 1.267 . S
O240 C239 1.203 . S
O241 C234 1.185 . S
O241 Zn237 2.086 . S
C242 O238 1.278 . S
C242 O243 1.211 . S
O243 C242 1.211 . S
C244 O236 1.284 . S
C244 O245 1.273 . S
O245 C244 1.273 . S
O246 Zn237 1.977 . S
O246 C239 1.267 . S
C247 O248 1.160 . S
C247 O254 1.185 . S
O248 C247 1.160 . S
O249 Zn250 1.899 . S
O249 C257 1.284 . S
Zn250 O249 1.899 . S
Zn250 O251 2.032 . S
Zn250 O254 2.086 . S
Zn250 O259 1.977 . S
O251 Zn250 2.032 . S
O251 C255 1.278 . S
C252 O253 1.203 . S
C252 O259 1.267 . S
O253 C252 1.203 . S
O254 C247 1.185 . S
O254 Zn250 2.086 . S
C255 O251 1.278 . S
C255 O256 1.211 . S
O256 C255 1.211 . S
C257 O249 1.284 . S
C257 O258 1.273 . S
O258 C257 1.273 . S
O259 Zn250 1.977 . S
O259 C252 1.267 . S
C260 O261 1.160 . S
C260 O267 1.185 . S
O261 C260 1.160 . S
O262 Zn263 1.899 . S
O262 C270 1.284 . S
Zn263 O262 1.899 . S
Zn263 O264 2.032 . S
Zn263 O267 2.086 . S
Zn263 O272 1.977 . S
O264 Zn263 2.032 . S
O264 C268 1.278 . S
C265 O266 1.203 . S
C265 O272 1.267 . S
O266 C265 1.203 . S
O267 C260 1.185 . S
O267 Zn263 2.086 . S
C268 O264 1.278 . S
C268 O269 1.211 . S
O269 C268 1.211 . S
C270 O262 1.284 . S
C270 O271 1.273 . S
O271 C270 1.273 . S
O272 Zn263 1.977 . S
O272 C265 1.267 . S
C273 O274 1.160 . S
C273 O280 1.185 1_554 S
O274 C273 1.160 . S
O275 Zn276 1.899 . S
O275 C283 1.284 . S
Zn276 O275 1.899 . S
Zn276 O277 2.032 1_556 S
Zn276 O280 2.086 . S
Zn276 O285 1.977 . S
O277 Zn276 2.032 1_554 S
O277 C281 1.278 . S
C278 O279 1.203 . S
C278 O285 1.267 . S
O279 C278 1.203 . S
O280 C273 1.185 1_556 S
O280 Zn276 2.086 . S
C281 O277 1.278 . S
C281 O282 1.211 . S
O282 C281 1.211 . S
C283 O275 1.284 . S
C283 O284 1.273 1_556 S
O284 C283 1.273 1_554 S
O285 Zn276 1.977 . S
O285 C278 1.267 . S
C286 O287 1.160 . S
C286 O293 1.185 1_554 S
O287 C286 1.160 . S
O288 Zn289 1.899 . S
O288 C296 1.284 . S
Zn289 O288 1.899 . S
Zn289 O290 2.032 1_556 S
Zn289 O293 2.086 . S
Zn289 O298 1.977 . S
O290 Zn289 2.032 1_554 S
O290 C294 1.278 . S
C291 O292 1.203 . S
C291 O298 1.267 . S
O292 C291 1.203 . S
O293 C286 1.185 1_556 S
O293 Zn289 2.086 . S
C294 O290 1.278 . S
C294 O295 1.211 . S
O295 C294 1.211 . S
C296 O288 1.284 . S
C296 O297 1.273 1_556 S
O297 C296 1.273 1_554 S
O298 Zn289 1.977 . S
O298 C291 1.267 . S
C299 O300 1.160 . S
C299 O306 1.185 1_554 S
O300 C299 1.160 . S
O301 Zn302 1.899 . S
O301 C309 1.284 . S
Zn302 O301 1.899 . S
Zn302 O303 2.032 1_556 S
Zn302 O306 2.086 . S
Zn302 O311 1.977 . S
O303 Zn302 2.032 1_554 S
O303 C307 1.278 . S
C304 O305 1.203 . S
C304 O311 1.267 . S
O305 C304 1.203 . S
O306 C299 1.185 1_556 S
O306 Zn302 2.086 . S
C307 O303 1.278 . S
C307 O308 1.211 . S
O308 C307 1.211 . S
C309 O301 1.284 . S
C309 O310 1.273 1_556 S
O310 C309 1.273 1_554 S
O311 Zn302 1.977 . S
O311 C304 1.267 . S
C312 O313 1.160 . S
C312 O319 1.185 . S
O313 C312 1.160 . S
O314 Zn315 1.899 . S
O314 C322 1.284 . S
Zn315 O314 1.899 . S
Zn315 O316 2.032 . S
Zn315 O319 2.086 . S
Zn315 O324 1.977 . S
O316 Zn315 2.032 . S
O316 C320 1.278 . S
C317 O318 1.203 . S
C317 O324 1.267 . S
O318 C317 1.203 . S
O319 C312 1.185 . S
O319 Zn315 2.086 . S
C320 O316 1.278 . S
C320 O321 1.211 . S
O321 C320 1.211 . S
C322 O314 1.284 . S
C322 O323 1.273 . S
O323 C322 1.273 . S
O324 Zn315 1.977 . S
O324 C317 1.267 . S
C325 O326 1.160 . S
C325 O332 1.185 . S
O326 C325 1.160 . S
O327 Zn328 1.899 . S
O327 C335 1.284 . S
Zn328 O327 1.899 . S
Zn328 O329 2.032 . S
Zn328 O332 2.086 . S
Zn328 O337 1.977 . S
O329 Zn328 2.032 . S
O329 C333 1.278 . S
C330 O331 1.203 . S
C330 O337 1.267 . S
O331 C330 1.203 . S
O332 C325 1.185 . S
O332 Zn328 2.086 . S
C333 O329 1.278 . S
C333 O334 1.211 . S
O334 C333 1.211 . S
C335 O327 1.284 . S
C335 O336 1.273 . S
O336 C335 1.273 . S
O337 Zn328 1.977 . S
O337 C330 1.267 . S
C338 O339 1.160 . S
C338 O345 1.185 . S
O339 C338 1.160 . S
O340 Zn341 1.899 . S
O340 C348 1.284 . S
Zn341 O340 1.899 . S
Zn341 O342 2.032 . S
Zn341 O345 2.086 . S
Zn341 O350 1.977 . S
O342 Zn341 2.032 . S
O342 C346 1.278 . S
C343 O344 1.203 . S
C343 O350 1.267 . S
O344 C343 1.203 . S
O345 C338 1.185 . S
O345 Zn341 2.086 . S
C346 O342 1.278 . S
C346 O347 1.211 . S
O347 C346 1.211 . S
C348 O340 1.284 . S
C348 O349 1.273 . S
O349 C348 1.273 . S
O350 Zn341 1.977 . S
O350 C343 1.267 . S
C351 O352 1.160 . S
C351 O358 1.185 1_556 S
O352 C351 1.160 . S
O353 Zn354 1.899 . S
O353 C361 1.284 . S
Zn354 O353 1.899 . S
Zn354 O355 2.032 1_554 S
Zn354 O358 2.086 . S
Zn354 O363 1.977 . S
O355 Zn354 2.032 1_556 S
O355 C359 1.278 . S
C356 O357 1.203 . S
C356 O363 1.267 . S
O357 C356 1.203 . S
O358 C351 1.185 1_554 S
O358 Zn354 2.086 . S
C359 O355 1.278 . S
C359 O360 1.211 . S
O360 C359 1.211 . S
C361 O353 1.284 . S
C361 O362 1.273 1_554 S
O362 C361 1.273 1_556 S
O363 Zn354 1.977 . S
O363 C356 1.267 . S
C364 O365 1.160 . S
C364 O371 1.185 1_556 S
O365 C364 1.160 . S
O366 Zn367 1.899 . S
O366 C374 1.284 . S
Zn367 O366 1.899 . S
Zn367 O368 2.032 1_554 S
Zn367 O371 2.086 . S
Zn367 O376 1.977 . S
O368 Zn367 2.032 1_556 S
O368 C372 1.278 . S
C369 O370 1.203 . S
C369 O376 1.267 . S
O370 C369 1.203 . S
O371 C364 1.185 1_554 S
O371 Zn367 2.086 . S
C372 O368 1.278 . S
C372 O373 1.211 . S
O373 C372 1.211 . S
C374 O366 1.284 . S
C374 O375 1.273 1_554 S
O375 C374 1.273 1_556 S
O376 Zn367 1.977 . S
O376 C369 1.267 . S
C377 O378 1.160 . S
C377 O384 1.185 1_556 S
O378 C377 1.160 . S
O379 Zn380 1.899 . S
O379 C387 1.284 . S
Zn380 O379 1.899 . S
Zn380 O381 2.032 1_554 S
Zn380 O384 2.086 . S
Zn380 O389 1.977 . S
O381 Zn380 2.032 1_556 S
O381 C385 1.278 . S
C382 O383 1.203 . S
C382 O389 1.267 . S
O383 C382 1.203 . S
O384 C377 1.185 1_554 S
O384 Zn380 2.086 . S
C385 O381 1.278 . S
C385 O386 1.211 . S
O386 C385 1.211 . S
C387 O379 1.284 . S
C387 O388 1.273 1_554 S
O388 C387 1.273 1_556 S
O389 Zn380 1.977 . S
O389 C382 1.267 . S
C390 O391 1.160 . S
C390 O397 1.185 . S
O391 C390 1.160 . S
O392 Zn393 1.899 . S
O392 C400 1.284 . S
Zn393 O392 1.899 . S
Zn393 O394 2.032 . S
Zn393 O397 2.086 . S
Zn393 O402 1.977 . S
O394 Zn393 2.032 . S
O394 C398 1.278 . S
C395 O396 1.203 . S
C395 O402 1.267 . S
O396 C395 1.203 . S
O397 C390 1.185 . S
O397 Zn393 2.086 . S
C398 O394 1.278 . S
C398 O399 1.211 . S
O399 C398 1.211 . S
C400 O392 1.284 . S
C400 O401 1.273 . S
O401 C400 1.273 . S
O402 Zn393 1.977 . S
O402 C395 1.267 . S
C403 O404 1.160 . S
C403 O410 1.185 . S
O404 C403 1.160 . S
O405 Zn406 1.899 . S
O405 C413 1.284 . S
Zn406 O405 1.899 . S
Zn406 O407 2.032 . S
Zn406 O410 2.086 . S
Zn406 O415 1.977 . S
O407 Zn406 2.032 . S
O407 C411 1.278 . S
C408 O409 1.203 . S
C408 O415 1.267 . S
O409 C408 1.203 . S
O410 C403 1.185 . S
O410 Zn406 2.086 . S
C411 O407 1.278 . S
C411 O412 1.211 . S
O412 C411 1.211 . S
C413 O405 1.284 . S
C413 O414 1.273 . S
O414 C413 1.273 . S
O415 Zn406 1.977 . S
O415 C408 1.267 . S
C416 O417 1.160 . S
C416 O423 1.185 . S
O417 C416 1.160 . S
O418 Zn419 1.899 . S
O418 C426 1.284 . S
Zn419 O418 1.899 . S
Zn419 O420 2.032 . S
Zn419 O423 2.086 . S
Zn419 O428 1.977 . S
O420 Zn419 2.032 . S
O420 C424 1.278 . S
C421 O422 1.203 . S
C421 O428 1.267 . S
O422 C421 1.203 . S
O423 C416 1.185 . S
O423 Zn419 2.086 . S
C424 O420 1.278 . S
C424 O425 1.211 . S
O425 C424 1.211 . S
C426 O418 1.284 . S
C426 O427 1.273 . S
O427 C426 1.273 . S
O428 Zn419 1.977 . S
O428 C421 1.267 . S
C429 O430 1.160 . S
C429 O436 1.185 . S
O430 C429 1.160 . S
O431 Zn432 1.899 . S
O431 C439 1.284 . S
Zn432 O431 1.899 . S
Zn432 O433 2.032 . S
Zn432 O436 2.086 . S
Zn432 O441 1.977 . S
O433 Zn432 2.032 . S
O433 C437 1.278 . S
C434 O435 1.203 . S
C434 O441 1.267 . S
O435 C434 1.203 . S
O436 C429 1.185 . S
O436 Zn432 2.086 . S
C437 O433 1.278 . S
C437 O438 1.211 . S
O438 C437 1.211 . S
C439 O431 1.284 . S
C439 O440 1.273 . S
O440 C439 1.273 . S
O441 Zn432 1.977 . S
O441 C434 1.267 . S
C442 O443 1.160 . S
C442 O449 1.185 . S
O443 C442 1.160 . S
O444 Zn445 1.899 . S
O444 C452 1.284 . S
Zn445 O444 1.899 . S
Zn445 O446 2.032 . S
Zn445 O449 2.086 . S
Zn445 O454 1.977 . S
O446 Zn445 2.032 . S
O446 C450 1.278 . S
C447 O448 1.203 . S
C447 O454 1.267 . S
O448 C447 1.203 . S
O449 C442 1.185 . S
O449 Zn445 2.086 . S
C450 O446 1.278 . S
C450 O451 1.211 . S
O451 C450 1.211 . S
C452 O444 1.284 . S
C452 O453 1.273 . S
O453 C452 1.273 . S
O454 Zn445 1.977 . S
O454 C447 1.267 . S
C455 O456 1.160 . S
C455 O462 1.185 . S
O456 C455 1.160 . S
O457 Zn458 1.899 . S
O457 C465 1.284 . S
Zn458 O457 1.899 . S
Zn458 O459 2.032 . S
Zn458 O462 2.086 . S
Zn458 O467 1.977 . S
O459 Zn458 2.032 . S
O459 C463 1.278 . S
C460 O461 1.203 . S
C460 O467 1.267 . S
O461 C460 1.203 . S
O462 C455 1.185 . S
O462 Zn458 2.086 . S
C463 O459 1.278 . S
C463 O464 1.211 . S
O464 C463 1.211 . S
C465 O457 1.284 . S
C465 O466 1.273 . S
O466 C465 1.273 . S
O467 Zn458 1.977 . S
O467 C460 1.267 . S
H468 C476 0.929 . S
H469 C478 0.930 . S
H470 C480 0.930 . S
H471 C483 0.929 . S
H472 C486 0.930 . S
H473 C488 0.960 . S
H474 C488 0.960 . S
H475 C488 0.960 . S
C476 H468 0.929 . S
C476 C477 1.377 . S
C476 C478 1.384 . S
C477 C476 1.377 . S
C477 C483 1.390 . S
C478 H469 0.930 . S
C478 C476 1.384 . S
C478 C479 1.372 . S
C479 C478 1.372 . S
C479 C480 1.400 . S
C479 C484 1.490 . S
C480 H470 0.930 . S
C480 C479 1.400 . S
C480 C483 1.386 . S
H481 C497 0.930 . S
H482 C498 0.931 . S
C483 H471 0.929 . S
C483 C477 1.390 . S
C483 C480 1.386 . S
C484 C479 1.490 . S
C484 C486 1.395 . S
C484 C487 1.403 . S
H485 C491 0.930 . S
C486 H472 0.930 . S
C486 C484 1.395 . S
C486 C489 1.403 . S
C487 C484 1.403 . S
C487 C488 1.524 . S
C487 C491 1.400 . S
C488 H473 0.960 . S
C488 H474 0.960 . S
C488 H475 0.960 . S
C488 C487 1.524 . S
C489 C486 1.403 . S
C489 C490 1.392 . S
C489 C493 1.495 . S
C490 C489 1.392 . S
C490 C491 1.385 . S
C490 C492 1.478 . S
C491 H485 0.930 . S
C491 C487 1.400 . S
C491 C490 1.385 . S
C492 C490 1.478 . S
C492 C494 1.381 . S
C492 C498 1.383 . S
C493 C489 1.495 . S
C493 H499 0.959 . S
C493 H500 0.961 . S
C493 H501 0.960 . S
C494 C492 1.381 . S
C494 C495 1.394 . S
C494 H502 0.930 . S
C495 C494 1.394 . S
C495 C496 1.383 . S
C495 H503 0.929 . S
C496 C495 1.383 . S
C496 C497 1.377 . S
C497 H481 0.930 . S
C497 C496 1.377 . S
C497 C498 1.379 . S
C498 H482 0.931 . S
C498 C492 1.383 . S
C498 C497 1.379 . S
H499 C493 0.959 . S
H500 C493 0.961 . S
H501 C493 0.960 . S
H502 C494 0.930 . S
H503 C495 0.929 . S
H504 C512 0.929 . S
H505 C514 0.930 . S
H506 C516 0.930 . S
H507 C519 0.929 . S
H508 C522 0.930 . S
H509 C524 0.977 . S
H510 C524 0.960 . S
H511 C524 0.960 . S
C512 H504 0.929 . S
C512 C513 1.377 . S
C512 C514 1.384 . S
C513 C512 1.377 . S
C513 C519 1.390 . S
C514 H505 0.930 . S
C514 C512 1.384 . S
C514 C515 1.372 . S
C515 C514 1.372 . S
C515 C516 1.400 . S
C515 C520 1.490 . S
C516 H506 0.930 . S
C516 C515 1.400 . S
C516 C519 1.386 . S
H517 C533 0.930 . S
H518 C534 0.931 . S
C519 H507 0.929 . S
C519 C513 1.390 . S
C519 C516 1.386 . S
C520 C515 1.490 . S
C520 C522 1.395 . S
C520 C523 1.403 . S
H521 C527 0.930 . S
C522 H508 0.930 . S
C522 C520 1.395 . S
C522 C525 1.403 1_545 S
C523 C520 1.403 . S
C523 C524 1.524 . S
C523 C527 1.400 1_545 S
C524 H509 0.977 . S
C524 H510 0.960 . S
C524 H511 0.960 . S
C524 C523 1.524 . S
C525 C522 1.403 1_565 S
C525 C526 1.392 . S
C525 C529 1.495 . S
C526 C525 1.392 . S
C526 C527 1.385 . S
C526 C528 1.478 . S
C527 H521 0.930 . S
C527 C523 1.400 1_565 S
C527 C526 1.385 . S
C528 C526 1.478 . S
C528 C530 1.381 . S
C528 C534 1.383 . S
C529 C525 1.495 . S
C529 H535 0.959 . S
C529 H536 0.961 . S
C529 H537 0.960 . S
C530 C528 1.381 . S
C530 C531 1.394 . S
C530 H538 0.930 . S
C531 C530 1.394 . S
C531 C532 1.383 . S
C531 H539 0.929 . S
C532 C531 1.383 . S
C532 C533 1.377 . S
C533 H517 0.930 . S
C533 C532 1.377 . S
C533 C534 1.379 . S
C534 H518 0.931 . S
C534 C528 1.383 . S
C534 C533 1.379 . S
H535 C529 0.959 . S
H536 C529 0.961 . S
H537 C529 0.960 . S
H538 C530 0.930 . S
H539 C531 0.929 . S
H540 C548 0.929 . S
H541 C550 0.930 . S
H542 C552 0.930 . S
H543 C555 0.929 . S
H544 C558 0.930 . S
H545 C560 0.960 . S
H546 C560 0.960 . S
H547 C560 0.960 . S
C548 H540 0.929 . S
C548 C549 1.377 . S
C548 C550 1.384 . S
C549 C548 1.377 . S
C549 C555 1.390 . S
C550 H541 0.930 . S
C550 C548 1.384 . S
C550 C551 1.372 . S
C551 C550 1.372 . S
C551 C552 1.400 . S
C551 C556 1.490 . S
C552 H542 0.930 . S
C552 C551 1.400 . S
C552 C555 1.386 . S
H553 C569 0.930 . S
H554 C570 0.931 . S
C555 H543 0.929 . S
C555 C549 1.390 . S
C555 C552 1.386 . S
C556 C551 1.490 . S
C556 C558 1.395 . S
C556 C559 1.403 . S
H557 C563 0.930 . S
C558 H544 0.930 . S
C558 C556 1.395 . S
C558 C561 1.403 1_655 S
C559 C556 1.403 . S
C559 C560 1.524 . S
C559 C563 1.400 1_655 S
C560 H545 0.960 . S
C560 H546 0.960 . S
C560 H547 0.960 . S
C560 C559 1.524 . S
C561 C558 1.403 1_455 S
C561 C562 1.392 . S
C561 C565 1.495 . S
C562 C561 1.392 . S
C562 C563 1.385 . S
C562 C564 1.478 . S
C563 H557 0.930 . S
C563 C559 1.400 1_455 S
C563 C562 1.385 . S
C564 C562 1.478 . S
C564 C566 1.381 . S
C564 C570 1.383 . S
C565 C561 1.495 . S
C565 H571 0.959 . S
C565 H572 0.961 . S
C565 H573 0.960 . S
C566 C564 1.381 . S
C566 C567 1.394 . S
C566 H574 0.930 . S
C567 C566 1.394 . S
C567 C568 1.383 . S
C567 H575 0.929 . S
C568 C567 1.383 . S
C568 C569 1.377 . S
C569 H553 0.930 . S
C569 C568 1.377 . S
C569 C570 1.379 . S
C570 H554 0.931 . S
C570 C564 1.383 . S
C570 C569 1.379 . S
H571 C565 0.959 . S
H572 C565 0.961 . S
H573 C565 0.960 . S
H574 C566 0.930 . S
H575 C567 0.929 . S
H576 C584 0.929 . S
H577 C586 0.930 . S
H578 C588 0.930 . S
H579 C591 0.929 . S
H580 C594 0.930 . S
H581 C596 0.960 . S
H582 C596 0.960 . S
H583 C596 0.960 . S
C584 H576 0.929 . S
C584 C585 1.377 . S
C584 C586 1.384 . S
C585 C584 1.377 . S
C585 C591 1.390 . S
C586 H577 0.930 . S
C586 C584 1.384 . S
C586 C587 1.372 . S
C587 C586 1.372 . S
C587 C588 1.400 . S
C587 C592 1.490 . S
C588 H578 0.930 . S
C588 C587 1.400 . S
C588 C591 1.386 . S
H589 C605 0.930 . S
H590 C606 0.931 . S
C591 H579 0.929 . S
C591 C585 1.390 . S
C591 C588 1.386 . S
C592 C587 1.490 . S
C592 C594 1.395 . S
C592 C595 1.403 . S
H593 C599 0.930 . S
C594 H580 0.930 . S
C594 C592 1.395 . S
C594 C597 1.403 . S
C595 C592 1.403 . S
C595 C596 1.524 . S
C595 C599 1.400 . S
C596 H581 0.960 . S
C596 H582 0.960 . S
C596 H583 0.960 . S
C596 C595 1.524 . S
C597 C594 1.403 . S
C597 C598 1.392 . S
C597 C601 1.495 . S
C598 C597 1.392 . S
C598 C599 1.385 . S
C598 C600 1.478 . S
C599 H593 0.930 . S
C599 C595 1.400 . S
C599 C598 1.385 . S
C600 C598 1.478 . S
C600 C602 1.381 . S
C600 C606 1.383 . S
C601 C597 1.495 . S
C601 H607 0.959 . S
C601 H608 0.961 . S
C601 H609 0.960 . S
C602 C600 1.381 . S
C602 C603 1.394 . S
C602 H610 0.930 . S
C603 C602 1.394 . S
C603 C604 1.383 . S
C603 H611 0.929 . S
C604 C603 1.383 . S
C604 C605 1.377 . S
C605 H589 0.930 . S
C605 C604 1.377 . S
C605 C606 1.379 . S
C606 H590 0.931 . S
C606 C600 1.383 . S
C606 C605 1.379 . S
H607 C601 0.959 . S
H608 C601 0.961 . S
H609 C601 0.960 . S
H610 C602 0.930 . S
H611 C603 0.929 . S
H612 C620 0.929 . S
H613 C622 0.930 . S
H614 C624 0.930 . S
H615 C627 0.929 . S
H616 C630 0.930 . S
H617 C632 0.960 1_565 S
H618 C632 0.960 . S
H619 C632 0.960 . S
C620 H612 0.929 . S
C620 C621 1.377 . S
C620 C622 1.384 . S
C621 C620 1.377 . S
C621 C627 1.390 . S
C622 H613 0.930 . S
C622 C620 1.384 . S
C622 C623 1.372 . S
C623 C622 1.372 . S
C623 C624 1.400 . S
C623 C628 1.490 . S
C624 H614 0.930 . S
C624 C623 1.400 . S
C624 C627 1.386 . S
H625 C641 0.930 . S
H626 C642 0.931 . S
C627 H615 0.929 . S
C627 C621 1.390 . S
C627 C624 1.386 . S
C628 C623 1.490 . S
C628 C630 1.395 . S
C628 C631 1.403 . S
H629 C635 0.930 . S
C630 H616 0.930 . S
C630 C628 1.395 . S
C630 C633 1.403 1_545 S
C631 C628 1.403 . S
C631 C632 1.524 . S
C631 C635 1.400 1_545 S
C632 H617 0.960 1_545 S
C632 H618 0.960 . S
C632 H619 0.960 . S
C632 C631 1.524 . S
C633 C630 1.403 1_565 S
C633 C634 1.392 . S
C633 C637 1.495 . S
C634 C633 1.392 . S
C634 C635 1.385 . S
C634 C636 1.478 . S
C635 H629 0.930 . S
C635 C631 1.400 1_565 S
C635 C634 1.385 . S
C636 C634 1.478 . S
C636 C638 1.381 . S
C636 C642 1.383 . S
C637 C633 1.495 . S
C637 H643 0.959 1_565 S
C637 H644 0.961 . S
C637 H645 0.960 . S
C638 C636 1.381 . S
C638 C639 1.394 . S
C638 H646 0.930 . S
C639 C638 1.394 . S
C639 C640 1.383 . S
C639 H647 0.929 . S
C640 C639 1.383 . S
C640 C641 1.377 . S
C641 H625 0.930 . S
C641 C640 1.377 . S
C641 C642 1.379 . S
C642 H626 0.931 . S
C642 C636 1.383 . S
C642 C641 1.379 . S
H643 C637 0.959 1_545 S
H644 C637 0.961 . S
H645 C637 0.960 . S
H646 C638 0.930 . S
H647 C639 0.929 . S
H648 C656 0.929 . S
H649 C658 0.930 . S
H650 C660 0.930 . S
H651 C663 0.929 . S
H652 C666 0.930 . S
H653 C668 0.960 1_655 S
H654 C668 0.960 . S
H655 C668 0.960 . S
C656 H648 0.929 . S
C656 C657 1.377 . S
C656 C658 1.384 . S
C657 C656 1.377 . S
C657 C663 1.390 . S
C658 H649 0.930 . S
C658 C656 1.384 . S
C658 C659 1.372 . S
C659 C658 1.372 . S
C659 C660 1.400 . S
C659 C664 1.490 . S
C660 H650 0.930 . S
C660 C659 1.400 . S
C660 C663 1.386 . S
H661 C677 0.930 . S
H662 C678 0.931 . S
C663 H651 0.929 . S
C663 C657 1.390 . S
C663 C660 1.386 . S
C664 C659 1.490 . S
C664 C666 1.395 . S
C664 C667 1.403 . S
H665 C671 0.930 . S
C666 H652 0.930 . S
C666 C664 1.395 . S
C666 C669 1.403 1_455 S
C667 C664 1.403 . S
C667 C668 1.524 . S
C667 C671 1.400 1_455 S
C668 H653 0.960 1_455 S
C668 H654 0.960 . S
C668 H655 0.960 . S
C668 C667 1.524 . S
C669 C666 1.403 1_655 S
C669 C670 1.392 . S
C669 C673 1.495 . S
C670 C669 1.392 . S
C670 C671 1.385 . S
C670 C672 1.478 . S
C671 H665 0.930 . S
C671 C667 1.400 1_655 S
C671 C670 1.385 . S
C672 C670 1.478 . S
C672 C674 1.381 . S
C672 C678 1.383 . S
C673 C669 1.495 . S
C673 H679 0.959 1_655 S
C673 H680 0.961 . S
C673 H681 0.960 . S
C674 C672 1.381 . S
C674 C675 1.394 . S
C674 H682 0.930 . S
C675 C674 1.394 . S
C675 C676 1.383 . S
C675 H683 0.929 . S
C676 C675 1.383 . S
C676 C677 1.377 . S
C677 H661 0.930 . S
C677 C676 1.377 . S
C677 C678 1.379 . S
C678 H662 0.931 . S
C678 C672 1.383 . S
C678 C677 1.379 . S
H679 C673 0.959 1_455 S
H680 C673 0.961 . S
H681 C673 0.960 . S
H682 C674 0.930 . S
H683 C675 0.929 . S
H684 C692 0.929 . S
H685 C694 0.930 . S
H686 C696 0.930 . S
H687 C699 0.929 . S
H688 C702 0.930 . S
H689 C704 0.960 . S
H690 C704 0.960 . S
H691 C704 0.960 . S
C692 H684 0.929 . S
C692 C693 1.377 . S
C692 C694 1.384 . S
C693 C692 1.377 . S
C693 C699 1.390 . S
C694 H685 0.930 . S
C694 C692 1.384 . S
C694 C695 1.372 . S
C695 C694 1.372 . S
C695 C696 1.400 . S
C695 C700 1.490 . S
C696 H686 0.930 . S
C696 C695 1.400 . S
C696 C699 1.386 . S
H697 C713 0.930 . S
H698 C714 0.931 . S
C699 H687 0.929 . S
C699 C693 1.390 . S
C699 C696 1.386 . S
C700 C695 1.490 . S
C700 C702 1.395 . S
C700 C703 1.403 . S
H701 C707 0.930 . S
C702 H688 0.930 . S
C702 C700 1.395 . S
C702 C705 1.403 . S
C703 C700 1.403 . S
C703 C704 1.524 . S
C703 C707 1.400 . S
C704 H689 0.960 . S
C704 H690 0.960 . S
C704 H691 0.960 . S
C704 C703 1.524 . S
C705 C702 1.403 . S
C705 C706 1.392 . S
C705 C709 1.495 . S
C706 C705 1.392 . S
C706 C707 1.385 . S
C706 C708 1.478 . S
C707 H701 0.930 . S
C707 C703 1.400 . S
C707 C706 1.385 . S
C708 C706 1.478 . S
C708 C710 1.381 . S
C708 C714 1.383 . S
C709 C705 1.495 . S
C709 H715 0.959 . S
C709 H716 0.961 . S
C709 H717 0.960 . S
C710 C708 1.381 . S
C710 C711 1.394 . S
C710 H718 0.930 . S
C711 C710 1.394 . S
C711 C712 1.383 . S
C711 H719 0.929 . S
C712 C711 1.383 . S
C712 C713 1.377 . S
C713 H697 0.930 . S
C713 C712 1.377 . S
C713 C714 1.379 . S
C714 H698 0.931 . S
C714 C708 1.383 . S
C714 C713 1.379 . S
H715 C709 0.959 . S
H716 C709 0.961 . S
H717 C709 0.960 . S
H718 C710 0.930 . S
H719 C711 0.929 . S
H720 C728 0.929 . S
H721 C730 0.930 . S
H722 C732 0.930 . S
H723 C735 0.929 . S
H724 C738 0.930 . S
H725 C740 0.960 . S
H726 C740 0.960 . S
H727 C740 0.960 . S
C728 H720 0.929 . S
C728 C729 1.377 . S
C728 C730 1.384 . S
C729 C728 1.377 . S
C729 C735 1.390 . S
C730 H721 0.930 . S
C730 C728 1.384 . S
C730 C731 1.372 . S
C731 C730 1.372 . S
C731 C732 1.400 . S
C731 C736 1.490 . S
C732 H722 0.930 . S
C732 C731 1.400 . S
C732 C735 1.386 . S
H733 C749 0.930 . S
H734 C750 0.931 . S
C735 H723 0.929 . S
C735 C729 1.390 . S
C735 C732 1.386 . S
C736 C731 1.490 . S
C736 C738 1.395 . S
C736 C739 1.403 . S
H737 C743 0.930 . S
C738 H724 0.930 . S
C738 C736 1.395 . S
C738 C741 1.403 . S
C739 C736 1.403 . S
C739 C740 1.524 . S
C739 C743 1.400 . S
C740 H725 0.960 . S
C740 H726 0.960 . S
C740 H727 0.960 . S
C740 C739 1.524 . S
C741 C738 1.403 . S
C741 C742 1.392 . S
C741 C745 1.495 . S
C742 C741 1.392 . S
C742 C743 1.385 . S
C742 C744 1.478 . S
C743 H737 0.930 . S
C743 C739 1.400 . S
C743 C742 1.385 . S
C744 C742 1.478 . S
C744 C746 1.381 . S
C744 C750 1.383 . S
C745 C741 1.495 . S
C745 H751 0.959 . S
C745 H752 0.961 . S
C745 H753 0.960 . S
C746 C744 1.381 . S
C746 C747 1.394 . S
C746 H754 0.930 . S
C747 C746 1.394 . S
C747 C748 1.383 . S
C747 H755 0.929 . S
C748 C747 1.383 . S
C748 C749 1.377 . S
C749 H733 0.930 . S
C749 C748 1.377 . S
C749 C750 1.379 . S
C750 H734 0.931 . S
C750 C744 1.383 . S
C750 C749 1.379 . S
H751 C745 0.959 . S
H752 C745 0.961 . S
H753 C745 0.960 . S
H754 C746 0.930 . S
H755 C747 0.929 . S
H756 C764 0.929 . S
H757 C766 0.930 . S
H758 C768 0.930 . S
H759 C771 0.929 . S
H760 C774 0.930 . S
H761 C776 0.960 . S
H762 C776 0.960 . S
H763 C776 0.960 . S
C764 H756 0.929 . S
C764 C765 1.377 . S
C764 C766 1.384 . S
C765 C764 1.377 . S
C765 C771 1.390 . S
C766 H757 0.930 . S
C766 C764 1.384 . S
C766 C767 1.372 . S
C767 C766 1.372 . S
C767 C768 1.400 . S
C767 C772 1.490 . S
C768 H758 0.930 . S
C768 C767 1.400 . S
C768 C771 1.386 . S
H769 C785 0.930 . S
H770 C786 0.931 . S
C771 H759 0.929 . S
C771 C765 1.390 . S
C771 C768 1.386 . S
C772 C767 1.490 . S
C772 C774 1.395 . S
C772 C775 1.403 . S
H773 C779 0.930 . S
C774 H760 0.930 . S
C774 C772 1.395 . S
C774 C777 1.403 . S
C775 C772 1.403 . S
C775 C776 1.524 . S
C775 C779 1.400 . S
C776 H761 0.960 . S
C776 H762 0.960 . S
C776 H763 0.960 . S
C776 C775 1.524 . S
C777 C774 1.403 . S
C777 C778 1.392 . S
C777 C781 1.495 . S
C778 C777 1.392 . S
C778 C779 1.385 . S
C778 C780 1.478 . S
C779 H773 0.930 . S
C779 C775 1.400 . S
C779 C778 1.385 . S
C780 C778 1.478 . S
C780 C782 1.381 . S
C780 C786 1.383 . S
C781 C777 1.495 . S
C781 H787 0.959 . S
C781 H788 0.961 . S
C781 H789 0.960 . S
C782 C780 1.381 . S
C782 C783 1.394 . S
C782 H790 0.930 . S
C783 C782 1.394 . S
C783 C784 1.383 . S
C783 H791 0.929 . S
C784 C783 1.383 . S
C784 C785 1.377 . S
C785 H769 0.930 . S
C785 C784 1.377 . S
C785 C786 1.379 . S
C786 H770 0.931 . S
C786 C780 1.383 . S
C786 C785 1.379 . S
H787 C781 0.959 . S
H788 C781 0.961 . S
H789 C781 0.960 . S
H790 C782 0.930 . S
H791 C783 0.929 . S
H792 C800 0.929 . S
H793 C802 0.930 . S
H794 C804 0.930 . S
H795 C807 0.929 . S
H796 C810 0.930 . S
H797 C812 0.960 . S
H798 C812 0.960 . S
H799 C812 0.960 . S
C800 H792 0.929 . S
C800 C801 1.377 . S
C800 C802 1.384 . S
C801 C800 1.377 . S
C801 C807 1.390 . S
C802 H793 0.930 . S
C802 C800 1.384 . S
C802 C803 1.372 . S
C803 C802 1.372 . S
C803 C804 1.400 . S
C803 C808 1.490 . S
C804 H794 0.930 . S
C804 C803 1.400 . S
C804 C807 1.386 . S
H805 C821 0.930 . S
H806 C822 0.931 . S
C807 H795 0.929 . S
C807 C801 1.390 . S
C807 C804 1.386 . S
C808 C803 1.490 . S
C808 C810 1.395 . S
C808 C811 1.403 . S
H809 C815 0.930 . S
C810 H796 0.930 . S
C810 C808 1.395 . S
C810 C813 1.403 . S
C811 C808 1.403 . S
C811 C812 1.524 . S
C811 C815 1.400 . S
C812 H797 0.960 . S
C812 H798 0.960 . S
C812 H799 0.960 . S
C812 C811 1.524 . S
C813 C810 1.403 . S
C813 C814 1.392 . S
C813 C817 1.495 . S
C814 C813 1.392 . S
C814 C815 1.385 . S
C814 C816 1.478 . S
C815 H809 0.930 . S
C815 C811 1.400 . S
C815 C814 1.385 . S
C816 C814 1.478 . S
C816 C818 1.381 . S
C816 C822 1.383 . S
C817 C813 1.495 . S
C817 H823 0.959 . S
C817 H824 0.961 . S
C817 H825 0.960 1_554 S
C818 C816 1.381 . S
C818 C819 1.395 1_554 S
C818 H826 0.930 1_554 S
C819 C818 1.395 1_556 S
C819 C820 1.385 1_556 S
C819 H827 0.927 . S
C820 C819 1.385 1_554 S
C820 C821 1.377 . S
C821 H805 0.930 . S
C821 C820 1.377 . S
C821 C822 1.379 . S
C822 H806 0.931 . S
C822 C816 1.383 . S
C822 C821 1.379 . S
H823 C817 0.959 . S
H824 C817 0.961 . S
H825 C817 0.960 1_556 S
H826 C818 0.930 1_556 S
H827 C819 0.927 . S
H828 C836 0.929 . S
H829 C838 0.930 . S
H830 C840 0.930 . S
H831 C843 0.929 . S
H832 C846 0.930 . S
H833 C848 0.960 1_556 S
H834 C848 0.960 1_556 S
H835 C848 0.960 . S
C836 H828 0.929 . S
C836 C837 1.377 . S
C836 C838 1.384 . S
C837 C836 1.377 . S
C837 C843 1.390 . S
C838 H829 0.930 . S
C838 C836 1.384 . S
C838 C839 1.372 . S
C839 C838 1.372 . S
C839 C840 1.400 . S
C839 C844 1.490 . S
C840 H830 0.930 . S
C840 C839 1.400 . S
C840 C843 1.386 . S
H841 C857 0.930 . S
H842 C858 0.931 . S
C843 H831 0.929 . S
C843 C837 1.390 . S
C843 C840 1.386 . S
C844 C839 1.490 . S
C844 C846 1.395 . S
C844 C847 1.403 . S
H845 C851 0.930 . S
C846 H832 0.930 . S
C846 C844 1.395 . S
C846 C849 1.403 . S
C847 C844 1.403 . S
C847 C848 1.524 . S
C847 C851 1.400 . S
C848 H833 0.960 1_554 S
C848 H834 0.960 1_554 S
C848 H835 0.960 . S
C848 C847 1.524 . S
C849 C846 1.403 . S
C849 C850 1.392 . S
C849 C853 1.495 . S
C850 C849 1.392 . S
C850 C851 1.385 . S
C850 C852 1.478 . S
C851 H845 0.930 . S
C851 C847 1.400 . S
C851 C850 1.385 . S
C852 C850 1.478 . S
C852 C854 1.381 . S
C852 C858 1.383 . S
C853 C849 1.495 . S
C853 H859 0.959 . S
C853 H860 0.961 . S
C853 H861 0.960 . S
C854 C852 1.381 . S
C854 C855 1.394 . S
C854 H862 0.930 . S
C855 C854 1.394 . S
C855 C856 1.383 . S
C855 H863 0.929 . S
C856 C855 1.383 . S
C856 C857 1.377 . S
C857 H841 0.930 . S
C857 C856 1.377 . S
C857 C858 1.379 . S
C858 H842 0.931 . S
C858 C852 1.383 . S
C858 C857 1.379 . S
H859 C853 0.959 . S
H860 C853 0.961 . S
H861 C853 0.960 . S
H862 C854 0.930 . S
H863 C855 0.929 . S
H864 C872 0.929 . S
H865 C874 0.930 . S
H866 C876 0.930 . S
H867 C879 0.929 . S
H868 C882 0.930 . S
H869 C884 0.960 . S
H870 C884 0.960 . S
H871 C884 0.960 . S
C872 H864 0.929 . S
C872 C873 1.377 . S
C872 C874 1.384 . S
C873 C872 1.377 . S
C873 C879 1.390 . S
C874 H865 0.930 . S
C874 C872 1.384 . S
C874 C875 1.372 . S
C875 C874 1.372 . S
C875 C876 1.400 . S
C875 C880 1.490 . S
C876 H866 0.930 . S
C876 C875 1.400 . S
C876 C879 1.386 . S
H877 C893 0.930 . S
H878 C894 0.931 . S
C879 H867 0.929 . S
C879 C873 1.390 . S
C879 C876 1.386 . S
C880 C875 1.490 . S
C880 C882 1.395 . S
C880 C883 1.403 . S
H881 C887 0.930 . S
C882 H868 0.930 . S
C882 C880 1.395 . S
C882 C885 1.403 . S
C883 C880 1.403 . S
C883 C884 1.524 . S
C883 C887 1.400 . S
C884 H869 0.960 . S
C884 H870 0.960 . S
C884 H871 0.960 . S
C884 C883 1.524 . S
C885 C882 1.403 . S
C885 C886 1.392 . S
C885 C889 1.495 . S
C886 C885 1.392 . S
C886 C887 1.385 . S
C886 C888 1.478 . S
C887 H881 0.930 . S
C887 C883 1.400 . S
C887 C886 1.385 . S
C888 C886 1.478 . S
C888 C890 1.381 . S
C888 C894 1.383 . S
C889 C885 1.495 . S
C889 H895 0.959 . S
C889 H896 0.961 . S
C889 H897 0.960 . S
C890 C888 1.381 . S
C890 C891 1.394 . S
C890 H898 0.930 . S
C891 C890 1.394 . S
C891 C892 1.383 . S
C891 H899 0.929 1_554 S
C892 C891 1.383 . S
C892 C893 1.377 . S
C893 H877 0.930 . S
C893 C892 1.377 . S
C893 C894 1.379 . S
C894 H878 0.931 . S
C894 C888 1.383 . S
C894 C893 1.379 . S
H895 C889 0.959 . S
H896 C889 0.961 . S
H897 C889 0.960 . S
H898 C890 0.930 . S
H899 C891 0.929 1_556 S
H900 C908 0.929 . S
H901 C910 0.930 . S
H902 C912 0.930 . S
H903 C915 0.929 . S
H904 C918 0.930 . S
H905 C920 0.960 . S
H906 C920 0.960 . S
H907 C920 0.960 . S
C908 H900 0.929 . S
C908 C909 1.377 . S
C908 C910 1.384 . S
C909 C908 1.377 . S
C909 C915 1.390 . S
C910 H901 0.930 . S
C910 C908 1.384 . S
C910 C911 1.372 . S
C911 C910 1.372 . S
C911 C912 1.400 . S
C911 C916 1.490 . S
C912 H902 0.930 . S
C912 C911 1.400 . S
C912 C915 1.386 . S
H913 C929 0.930 . S
H914 C930 0.931 . S
C915 H903 0.929 . S
C915 C909 1.390 . S
C915 C912 1.386 . S
C916 C911 1.490 . S
C916 C918 1.395 . S
C916 C919 1.403 . S
H917 C923 0.930 . S
C918 H904 0.930 . S
C918 C916 1.395 . S
C918 C921 1.403 . S
C919 C916 1.403 . S
C919 C920 1.524 . S
C919 C923 1.400 . S
C920 H905 0.960 . S
C920 H906 0.960 . S
C920 H907 0.960 . S
C920 C919 1.524 . S
C921 C918 1.403 . S
C921 C922 1.392 . S
C921 C925 1.495 . S
C922 C921 1.392 . S
C922 C923 1.385 . S
C922 C924 1.478 . S
C923 H917 0.930 . S
C923 C919 1.400 . S
C923 C922 1.385 . S
C924 C922 1.478 . S
C924 C926 1.381 . S
C924 C930 1.383 . S
C925 C921 1.495 . S
C925 H931 0.959 1_556 S
C925 H932 0.961 . S
C925 H933 0.960 1_556 S
C926 C924 1.381 . S
C926 C927 1.394 . S
C926 H934 0.930 . S
C927 C926 1.394 . S
C927 C928 1.383 . S
C927 H935 0.929 1_556 S
C928 C927 1.383 . S
C928 C929 1.377 . S
C929 H913 0.930 . S
C929 C928 1.377 . S
C929 C930 1.379 . S
C930 H914 0.931 . S
C930 C924 1.383 . S
C930 C929 1.379 . S
H931 C925 0.959 1_554 S
H932 C925 0.961 . S
H933 C925 0.960 1_554 S
H934 C926 0.930 . S
H935 C927 0.929 1_554 S
H936 C944 0.929 . S
H937 C946 0.930 . S
H938 C948 0.930 . S
H939 C951 0.929 . S
H940 C954 0.930 . S
H941 C956 0.960 . S
H942 C956 0.960 . S
H943 C956 0.960 . S
C944 H936 0.929 . S
C944 C945 1.377 . S
C944 C946 1.384 . S
C945 C944 1.377 . S
C945 C951 1.390 . S
C946 H937 0.930 . S
C946 C944 1.384 . S
C946 C947 1.372 . S
C947 C946 1.372 . S
C947 C948 1.400 . S
C947 C952 1.490 . S
C948 H938 0.930 . S
C948 C947 1.400 . S
C948 C951 1.386 . S
H949 C965 0.930 . S
H950 C966 0.931 . S
C951 H939 0.929 . S
C951 C945 1.390 . S
C951 C948 1.386 . S
C952 C947 1.490 . S
C952 C954 1.395 . S
C952 C955 1.403 . S
H953 C959 0.930 . S
C954 H940 0.930 . S
C954 C952 1.395 . S
C954 C957 1.403 . S
C955 C952 1.403 . S
C955 C956 1.524 . S
C955 C959 1.400 . S
C956 H941 0.960 . S
C956 H942 0.960 . S
C956 H943 0.960 . S
C956 C955 1.524 . S
C957 C954 1.403 . S
C957 C958 1.392 . S
C957 C961 1.495 . S
C958 C957 1.392 . S
C958 C959 1.385 . S
C958 C960 1.478 . S
C959 H953 0.930 . S
C959 C955 1.400 . S
C959 C958 1.385 . S
C960 C958 1.478 . S
C960 C962 1.381 . S
C960 C966 1.383 . S
C961 C957 1.495 . S
C961 H967 0.959 . S
C961 H968 0.961 1_556 S
C961 H969 0.960 . S
C962 C960 1.381 . S
C962 C963 1.394 . S
C962 H970 0.930 . S
C963 C962 1.394 . S
C963 C964 1.383 . S
C963 H971 0.929 . S
C964 C963 1.383 . S
C964 C965 1.377 . S
C965 H949 0.930 . S
C965 C964 1.377 . S
C965 C966 1.379 . S
C966 H950 0.931 . S
C966 C960 1.383 . S
C966 C965 1.379 . S
H967 C961 0.959 . S
H968 C961 0.961 1_554 S
H969 C961 0.960 . S
H970 C962 0.930 . S
H971 C963 0.929 . S
H972 C980 0.929 1_554 S
H973 C982 0.930 . S
H974 C984 0.930 . S
H975 C987 0.929 . S
H976 C990 0.930 . S
H977 C992 0.960 . S
H978 C992 0.960 . S
H979 C992 0.960 . S
C980 H972 0.929 1_556 S
C980 C981 1.377 . S
C980 C982 1.384 . S
C981 C980 1.377 . S
C981 C987 1.390 . S
C982 H973 0.930 . S
C982 C980 1.384 . S
C982 C983 1.372 . S
C983 C982 1.372 . S
C983 C984 1.400 . S
C983 C988 1.490 . S
C984 H974 0.930 . S
C984 C983 1.400 . S
C984 C987 1.386 . S
H985 C1001 0.930 . S
H986 C1002 0.931 . S
C987 H975 0.929 . S
C987 C981 1.390 . S
C987 C984 1.386 . S
C988 C983 1.490 . S
C988 C990 1.395 . S
C988 C991 1.403 . S
H989 C995 0.930 . S
C990 H976 0.930 . S
C990 C988 1.395 . S
C990 C993 1.403 . S
C991 C988 1.403 . S
C991 C992 1.524 . S
C991 C995 1.400 . S
C992 H977 0.960 . S
C992 H978 0.960 . S
C992 H979 0.960 . S
C992 C991 1.524 . S
C993 C990 1.403 . S
C993 C994 1.392 . S
C993 C997 1.495 . S
C994 C993 1.392 . S
C994 C995 1.385 . S
C994 C996 1.478 . S
C995 H989 0.930 . S
C995 C991 1.400 . S
C995 C994 1.385 . S
C996 C994 1.478 . S
C996 C998 1.381 . S
C996 C1002 1.383 . S
C997 C993 1.495 . S
C997 H1003 0.959 . S
C997 H1004 0.961 . S
C997 H1005 0.960 . S
C998 C996 1.381 . S
C998 C999 1.394 . S
C998 H1006 0.930 . S
C999 C998 1.394 . S
C999 C1000 1.383 . S
C999 H1007 0.929 . S
C1000 C999 1.383 . S
C1000 C1001 1.377 . S
C1001 H985 0.930 . S
C1001 C1000 1.377 . S
C1001 C1002 1.379 . S
C1002 H986 0.931 . S
C1002 C996 1.383 . S
C1002 C1001 1.379 . S
H1003 C997 0.959 . S
H1004 C997 0.961 . S
H1005 C997 0.960 . S
H1006 C998 0.930 . S
H1007 C999 0.929 . S
H1008 C1016 0.929 . S
H1009 C1018 0.930 . S
H1010 C1020 0.930 . S
H1011 C1023 0.929 . S
H1012 C1026 0.930 . S
H1013 C1028 0.960 . S
H1014 C1028 0.960 . S
H1015 C1028 0.960 . S
C1016 H1008 0.929 . S
C1016 C1017 1.377 . S
C1016 C1018 1.384 . S
C1017 C1016 1.377 . S
C1017 C1023 1.390 . S
C1018 H1009 0.930 . S
C1018 C1016 1.384 . S
C1018 C1019 1.372 . S
C1019 C1018 1.372 . S
C1019 C1020 1.400 . S
C1019 C1024 1.490 . S
C1020 H1010 0.930 . S
C1020 C1019 1.400 . S
C1020 C1023 1.386 . S
H1021 C1037 0.930 . S
H1022 C1038 0.931 . S
C1023 H1011 0.929 . S
C1023 C1017 1.390 . S
C1023 C1020 1.386 . S
C1024 C1019 1.490 . S
C1024 C1026 1.395 . S
C1024 C1027 1.403 . S
H1025 C1031 0.930 . S
C1026 H1012 0.930 . S
C1026 C1024 1.395 . S
C1026 C1029 1.403 . S
C1027 C1024 1.403 . S
C1027 C1028 1.524 . S
C1027 C1031 1.400 . S
C1028 H1013 0.960 . S
C1028 H1014 0.960 . S
C1028 H1015 0.960 . S
C1028 C1027 1.524 . S
C1029 C1026 1.403 . S
C1029 C1030 1.392 . S
C1029 C1033 1.495 . S
C1030 C1029 1.392 . S
C1030 C1031 1.385 . S
C1030 C1032 1.478 . S
C1031 H1025 0.930 . S
C1031 C1027 1.400 . S
C1031 C1030 1.385 . S
C1032 C1030 1.478 . S
C1032 C1034 1.381 . S
C1032 C1038 1.383 . S
C1033 C1029 1.495 . S
C1033 H1039 0.959 . S
C1033 H1040 0.961 . S
C1033 H1041 0.960 . S
C1034 C1032 1.381 . S
C1034 C1035 1.394 . S
C1034 H1042 0.930 . S
C1035 C1034 1.394 . S
C1035 C1036 1.383 . S
C1035 H1043 0.929 . S
C1036 C1035 1.383 . S
C1036 C1037 1.377 . S
C1037 H1021 0.930 . S
C1037 C1036 1.377 . S
C1037 C1038 1.379 . S
C1038 H1022 0.931 . S
C1038 C1032 1.383 . S
C1038 C1037 1.379 . S
H1039 C1033 0.959 . S
H1040 C1033 0.961 . S
H1041 C1033 0.960 . S
H1042 C1034 0.930 . S
H1043 C1035 0.929 . S
H1044 C1052 0.929 . S
H1045 C1054 0.930 . S
H1046 C1056 0.930 . S
H1047 C1059 0.929 . S
H1048 C1062 0.930 . S
H1049 C1064 0.960 . S
H1050 C1064 0.960 . S
H1051 C1064 0.960 . S
C1052 H1044 0.929 . S
C1052 C1053 1.377 . S
C1052 C1054 1.384 . S
C1053 C1052 1.377 . S
C1053 C1059 1.390 . S
C1054 H1045 0.930 . S
C1054 C1052 1.384 . S
C1054 C1055 1.372 . S
C1055 C1054 1.372 . S
C1055 C1056 1.400 . S
C1055 C1060 1.490 . S
C1056 H1046 0.930 . S
C1056 C1055 1.400 . S
C1056 C1059 1.386 . S
H1057 C1073 0.930 . S
H1058 C1074 0.931 . S
C1059 H1047 0.929 . S
C1059 C1053 1.390 . S
C1059 C1056 1.386 . S
C1060 C1055 1.490 . S
C1060 C1062 1.395 . S
C1060 C1063 1.403 . S
H1061 C1067 0.930 . S
C1062 H1048 0.930 . S
C1062 C1060 1.395 . S
C1062 C1065 1.403 . S
C1063 C1060 1.403 . S
C1063 C1064 1.524 . S
C1063 C1067 1.400 . S
C1064 H1049 0.960 . S
C1064 H1050 0.960 . S
C1064 H1051 0.960 . S
C1064 C1063 1.524 . S
C1065 C1062 1.403 . S
C1065 C1066 1.392 . S
C1065 C1069 1.495 . S
C1066 C1065 1.392 . S
C1066 C1067 1.385 . S
C1066 C1068 1.478 . S
C1067 H1061 0.930 . S
C1067 C1063 1.400 . S
C1067 C1066 1.385 . S
C1068 C1066 1.478 . S
C1068 C1070 1.381 . S
C1068 C1074 1.383 . S
C1069 C1065 1.495 . S
C1069 H1075 0.959 . S
C1069 H1076 0.961 . S
C1069 H1077 0.960 . S
C1070 C1068 1.381 . S
C1070 C1071 1.394 . S
C1070 H1078 0.930 . S
C1071 C1070 1.394 . S
C1071 C1072 1.383 . S
C1071 H1079 0.929 . S
C1072 C1071 1.383 . S
C1072 C1073 1.377 . S
C1073 H1057 0.930 . S
C1073 C1072 1.377 . S
C1073 C1074 1.379 . S
C1074 H1058 0.931 . S
C1074 C1068 1.383 . S
C1074 C1073 1.379 . S
H1075 C1069 0.959 . S
H1076 C1069 0.961 . S
H1077 C1069 0.960 . S
H1078 C1070 0.930 . S
H1079 C1071 0.929 . S
H1080 C1088 0.929 . S
H1081 C1090 0.930 . S
H1082 C1092 0.930 . S
H1083 C1095 0.929 . S
H1084 C1098 0.930 . S
H1085 C1100 0.960 . S
H1086 C1100 0.960 . S
H1087 C1100 0.960 . S
C1088 H1080 0.929 . S
C1088 C1089 1.377 . S
C1088 C1090 1.384 . S
C1089 C1088 1.377 . S
C1089 C1095 1.390 . S
C1090 H1081 0.930 . S
C1090 C1088 1.384 . S
C1090 C1091 1.372 . S
C1091 C1090 1.372 . S
C1091 C1092 1.400 . S
C1091 C1096 1.490 . S
C1092 H1082 0.930 . S
C1092 C1091 1.400 . S
C1092 C1095 1.386 . S
H1093 C1109 0.930 . S
H1094 C1110 0.931 . S
C1095 H1083 0.929 . S
C1095 C1089 1.390 . S
C1095 C1092 1.386 . S
C1096 C1091 1.490 . S
C1096 C1098 1.395 . S
C1096 C1099 1.403 . S
H1097 C1103 0.930 . S
C1098 H1084 0.930 . S
C1098 C1096 1.395 . S
C1098 C1101 1.403 . S
C1099 C1096 1.403 . S
C1099 C1100 1.524 . S
C1099 C1103 1.400 . S
C1100 H1085 0.960 . S
C1100 H1086 0.960 . S
C1100 H1087 0.960 . S
C1100 C1099 1.524 . S
C1101 C1098 1.403 . S
C1101 C1102 1.392 . S
C1101 C1105 1.495 . S
C1102 C1101 1.392 . S
C1102 C1103 1.385 . S
C1102 C1104 1.478 . S
C1103 H1097 0.930 . S
C1103 C1099 1.400 . S
C1103 C1102 1.385 . S
C1104 C1102 1.478 . S
C1104 C1106 1.381 . S
C1104 C1110 1.383 . S
C1105 C1101 1.495 . S
C1105 H1111 0.959 . S
C1105 H1112 0.961 . S
C1105 H1113 0.960 . S
C1106 C1104 1.381 . S
C1106 C1107 1.394 . S
C1106 H1114 0.930 . S
C1107 C1106 1.394 . S
C1107 C1108 1.383 . S
C1107 H1115 0.929 . S
C1108 C1107 1.383 . S
C1108 C1109 1.377 . S
C1109 H1093 0.930 . S
C1109 C1108 1.377 . S
C1109 C1110 1.379 . S
C1110 H1094 0.931 . S
C1110 C1104 1.383 . S
C1110 C1109 1.379 . S
H1111 C1105 0.959 . S
H1112 C1105 0.961 . S
H1113 C1105 0.960 . S
H1114 C1106 0.930 . S
H1115 C1107 0.929 . S
H1116 C1124 0.929 . S
H1117 C1126 0.930 . S
H1118 C1128 0.930 . S
H1119 C1131 0.929 . S
H1120 C1134 0.930 . S
H1121 C1136 0.960 . S
H1122 C1136 0.960 . S
H1123 C1136 0.960 . S
C1124 H1116 0.929 . S
C1124 C1125 1.377 . S
C1124 C1126 1.384 . S
C1125 C1124 1.377 . S
C1125 C1131 1.390 . S
C1126 H1117 0.930 . S
C1126 C1124 1.384 . S
C1126 C1127 1.372 . S
C1127 C1126 1.372 . S
C1127 C1128 1.400 . S
C1127 C1132 1.490 . S
C1128 H1118 0.930 . S
C1128 C1127 1.400 . S
C1128 C1131 1.386 . S
H1129 C1145 0.930 . S
H1130 C1146 0.931 . S
C1131 H1119 0.929 . S
C1131 C1125 1.390 . S
C1131 C1128 1.386 . S
C1132 C1127 1.490 . S
C1132 C1134 1.395 . S
C1132 C1135 1.403 . S
H1133 C1139 0.930 . S
C1134 H1120 0.930 . S
C1134 C1132 1.395 . S
C1134 C1137 1.403 . S
C1135 C1132 1.403 . S
C1135 C1136 1.524 . S
C1135 C1139 1.400 . S
C1136 H1121 0.960 . S
C1136 H1122 0.960 . S
C1136 H1123 0.960 . S
C1136 C1135 1.524 . S
C1137 C1134 1.403 . S
C1137 C1138 1.392 . S
C1137 C1141 1.495 . S
C1138 C1137 1.392 . S
C1138 C1139 1.385 . S
C1138 C1140 1.478 . S
C1139 H1133 0.930 . S
C1139 C1135 1.400 . S
C1139 C1138 1.385 . S
C1140 C1138 1.478 . S
C1140 C1142 1.381 . S
C1140 C1146 1.383 . S
C1141 C1137 1.495 . S
C1141 H1147 0.959 . S
C1141 H1148 0.961 . S
C1141 H1149 0.960 . S
C1142 C1140 1.381 . S
C1142 C1143 1.394 1_556 S
C1142 H1150 0.930 . S
C1143 C1142 1.394 1_554 S
C1143 C1144 1.383 . S
C1143 H1151 0.929 . S
C1144 C1143 1.383 . S
C1144 C1145 1.377 . S
C1145 H1129 0.930 . S
C1145 C1144 1.377 . S
C1145 C1146 1.379 1_554 S
C1146 H1130 0.931 . S
C1146 C1140 1.383 . S
C1146 C1145 1.379 1_556 S
H1147 C1141 0.959 . S
H1148 C1141 0.961 . S
H1149 C1141 0.960 . S
H1150 C1142 0.930 . S
H1151 C1143 0.929 . S
H1152 C1160 0.929 . S
H1153 C1162 0.930 . S
H1154 C1164 0.930 . S
H1155 C1167 0.929 . S
H1156 C1170 0.930 . S
H1157 C1172 0.960 . S
H1158 C1172 0.960 . S
H1159 C1172 0.960 . S
C1160 H1152 0.929 . S
C1160 C1161 1.377 . S
C1160 C1162 1.384 1_554 S
C1161 C1160 1.377 . S
C1161 C1167 1.390 . S
C1162 H1153 0.930 . S
C1162 C1160 1.384 1_556 S
C1162 C1163 1.372 . S
C1163 C1162 1.372 . S
C1163 C1164 1.400 . S
C1163 C1168 1.490 . S
C1164 H1154 0.930 . S
C1164 C1163 1.400 . S
C1164 C1167 1.386 1_556 S
H1165 C1181 0.930 . S
H1166 C1182 0.931 . S
C1167 H1155 0.929 . S
C1167 C1161 1.390 . S
C1167 C1164 1.386 1_554 S
C1168 C1163 1.490 . S
C1168 C1170 1.395 . S
C1168 C1171 1.403 . S
H1169 C1175 0.930 . S
C1170 H1156 0.930 . S
C1170 C1168 1.395 . S
C1170 C1173 1.403 . S
C1171 C1168 1.403 . S
C1171 C1172 1.524 . S
C1171 C1175 1.400 . S
C1172 H1157 0.960 . S
C1172 H1158 0.960 . S
C1172 H1159 0.960 . S
C1172 C1171 1.524 . S
C1173 C1170 1.403 . S
C1173 C1174 1.392 . S
C1173 C1177 1.495 . S
C1174 C1173 1.392 . S
C1174 C1175 1.385 . S
C1174 C1176 1.478 . S
C1175 H1169 0.930 . S
C1175 C1171 1.400 . S
C1175 C1174 1.385 . S
C1176 C1174 1.478 . S
C1176 C1178 1.381 . S
C1176 C1182 1.383 . S
C1177 C1173 1.495 . S
C1177 H1183 0.959 . S
C1177 H1184 0.961 . S
C1177 H1185 0.960 . S
C1178 C1176 1.381 . S
C1178 C1179 1.394 . S
C1178 H1186 0.930 . S
C1179 C1178 1.394 . S
C1179 C1180 1.383 . S
C1179 H1187 0.929 . S
C1180 C1179 1.383 . S
C1180 C1181 1.377 . S
C1181 H1165 0.930 . S
C1181 C1180 1.377 . S
C1181 C1182 1.379 . S
C1182 H1166 0.931 . S
C1182 C1176 1.383 . S
C1182 C1181 1.379 . S
H1183 C1177 0.959 . S
H1184 C1177 0.961 . S
H1185 C1177 0.960 . S
H1186 C1178 0.930 . S
H1187 C1179 0.929 . S
H1188 C1196 0.929 . S
H1189 C1198 0.930 . S
H1190 C1200 0.930 . S
H1191 C1203 0.929 . S
H1192 C1206 0.930 . S
H1193 C1208 0.960 . S
H1194 C1208 0.960 . S
H1195 C1208 0.960 . S
C1196 H1188 0.929 . S
C1196 C1197 1.377 . S
C1196 C1198 1.384 . S
C1197 C1196 1.377 . S
C1197 C1203 1.390 . S
C1198 H1189 0.930 . S
C1198 C1196 1.384 . S
C1198 C1199 1.372 1_554 S
C1199 C1198 1.372 1_556 S
C1199 C1200 1.400 . S
C1199 C1204 1.490 . S
C1200 H1190 0.930 . S
C1200 C1199 1.400 . S
C1200 C1203 1.386 1_556 S
H1201 C1217 0.930 . S
H1202 C1218 0.931 . S
C1203 H1191 0.929 . S
C1203 C1197 1.390 . S
C1203 C1200 1.386 1_554 S
C1204 C1199 1.490 . S
C1204 C1206 1.395 . S
C1204 C1207 1.403 . S
H1205 C1211 0.930 . S
C1206 H1192 0.930 . S
C1206 C1204 1.395 . S
C1206 C1209 1.403 . S
C1207 C1204 1.403 . S
C1207 C1208 1.524 . S
C1207 C1211 1.400 . S
C1208 H1193 0.960 . S
C1208 H1194 0.960 . S
C1208 H1195 0.960 . S
C1208 C1207 1.524 . S
C1209 C1206 1.403 . S
C1209 C1210 1.392 . S
C1209 C1213 1.495 . S
C1210 C1209 1.392 . S
C1210 C1211 1.385 . S
C1210 C1212 1.478 . S
C1211 H1205 0.930 . S
C1211 C1207 1.400 . S
C1211 C1210 1.385 . S
C1212 C1210 1.478 . S
C1212 C1214 1.381 . S
C1212 C1218 1.383 . S
C1213 C1209 1.495 . S
C1213 H1219 0.959 . S
C1213 H1220 0.961 . S
C1213 H1221 0.960 . S
C1214 C1212 1.381 . S
C1214 C1215 1.394 . S
C1214 H1222 0.930 . S
C1215 C1214 1.394 . S
C1215 C1216 1.383 . S
C1215 H1223 0.929 . S
C1216 C1215 1.383 . S
C1216 C1217 1.377 . S
C1217 H1201 0.930 . S
C1217 C1216 1.377 . S
C1217 C1218 1.379 . S
C1218 H1202 0.931 . S
C1218 C1212 1.383 . S
C1218 C1217 1.379 . S
H1219 C1213 0.959 . S
H1220 C1213 0.961 . S
H1221 C1213 0.960 . S
H1222 C1214 0.930 . S
H1223 C1215 0.929 . S
H1224 C1232 0.929 . S
H1225 C1234 0.930 . S
H1226 C1236 0.930 . S
H1227 C1239 0.929 . S
H1228 C1242 0.930 . S
H1229 C1244 0.960 . S
H1230 C1244 0.960 . S
H1231 C1244 0.960 . S
C1232 H1224 0.929 . S
C1232 C1233 1.377 . S
C1232 C1234 1.384 . S
C1233 C1232 1.377 . S
C1233 C1239 1.390 . S
C1234 H1225 0.930 . S
C1234 C1232 1.384 . S
C1234 C1235 1.372 . S
C1235 C1234 1.372 . S
C1235 C1236 1.400 . S
C1235 C1240 1.490 . S
C1236 H1226 0.930 . S
C1236 C1235 1.400 . S
C1236 C1239 1.386 . S
H1237 C1253 0.930 . S
H1238 C1254 0.931 . S
C1239 H1227 0.929 . S
C1239 C1233 1.390 . S
C1239 C1236 1.386 . S
C1240 C1235 1.490 . S
C1240 C1242 1.395 . S
C1240 C1243 1.403 . S
H1241 C1247 0.930 . S
C1242 H1228 0.930 . S
C1242 C1240 1.395 . S
C1242 C1245 1.403 . S
C1243 C1240 1.403 . S
C1243 C1244 1.524 . S
C1243 C1247 1.400 . S
C1244 H1229 0.960 . S
C1244 H1230 0.960 . S
C1244 H1231 0.960 . S
C1244 C1243 1.524 . S
C1245 C1242 1.403 . S
C1245 C1246 1.392 . S
C1245 C1249 1.495 . S
C1246 C1245 1.392 . S
C1246 C1247 1.385 . S
C1246 C1248 1.478 . S
C1247 H1241 0.930 . S
C1247 C1243 1.400 . S
C1247 C1246 1.385 . S
C1248 C1246 1.478 . S
C1248 C1250 1.381 . S
C1248 C1254 1.383 . S
C1249 C1245 1.495 . S
C1249 H1255 0.959 . S
C1249 H1256 0.961 . S
C1249 H1257 0.960 . S
C1250 C1248 1.381 . S
C1250 C1251 1.394 . S
C1250 H1258 0.930 . S
C1251 C1250 1.394 . S
C1251 C1252 1.383 . S
C1251 H1259 0.929 . S
C1252 C1251 1.383 . S
C1252 C1253 1.377 . S
C1253 H1237 0.930 . S
C1253 C1252 1.377 . S
C1253 C1254 1.379 . S
C1254 H1238 0.931 . S
C1254 C1248 1.383 . S
C1254 C1253 1.379 . S
H1255 C1249 0.959 . S
H1256 C1249 0.961 . S
H1257 C1249 0.960 . S
H1258 C1250 0.930 . S
H1259 C1251 0.929 . S
H1260 C1268 0.929 . S
H1261 C1270 0.930 . S
H1262 C1272 0.930 . S
H1263 C1275 0.929 . S
H1264 C1278 0.930 . S
H1265 C1280 0.960 . S
H1266 C1280 0.960 . S
H1267 C1280 0.960 . S
C1268 H1260 0.929 . S
C1268 C1269 1.377 . S
C1268 C1270 1.384 . S
C1269 C1268 1.377 . S
C1269 C1275 1.390 . S
C1270 H1261 0.930 . S
C1270 C1268 1.384 . S
C1270 C1271 1.372 . S
C1271 C1270 1.372 . S
C1271 C1272 1.400 . S
C1271 C1276 1.490 . S
C1272 H1262 0.930 . S
C1272 C1271 1.400 . S
C1272 C1275 1.386 . S
H1273 C1289 0.930 . S
H1274 C1290 0.931 . S
C1275 H1263 0.929 . S
C1275 C1269 1.390 . S
C1275 C1272 1.386 . S
C1276 C1271 1.490 . S
C1276 C1278 1.395 . S
C1276 C1279 1.403 . S
H1277 C1283 0.930 . S
C1278 H1264 0.930 . S
C1278 C1276 1.395 . S
C1278 C1281 1.403 . S
C1279 C1276 1.403 . S
C1279 C1280 1.524 . S
C1279 C1283 1.400 . S
C1280 H1265 0.960 . S
C1280 H1266 0.960 . S
C1280 H1267 0.960 . S
C1280 C1279 1.524 . S
C1281 C1278 1.403 . S
C1281 C1282 1.392 . S
C1281 C1285 1.495 . S
C1282 C1281 1.392 . S
C1282 C1283 1.385 . S
C1282 C1284 1.478 . S
C1283 H1277 0.930 . S
C1283 C1279 1.400 . S
C1283 C1282 1.385 . S
C1284 C1282 1.478 . S
C1284 C1286 1.381 . S
C1284 C1290 1.383 . S
C1285 C1281 1.495 . S
C1285 H1291 0.959 . S
C1285 H1292 0.961 . S
C1285 H1293 0.960 . S
C1286 C1284 1.381 . S
C1286 C1287 1.394 . S
C1286 H1294 0.930 . S
C1287 C1286 1.394 . S
C1287 C1288 1.383 . S
C1287 H1295 0.929 . S
C1288 C1287 1.383 . S
C1288 C1289 1.377 . S
C1289 H1273 0.930 . S
C1289 C1288 1.377 . S
C1289 C1290 1.379 . S
C1290 H1274 0.931 . S
C1290 C1284 1.383 . S
C1290 C1289 1.379 . S
H1291 C1285 0.959 . S
H1292 C1285 0.961 . S
H1293 C1285 0.960 . S
H1294 C1286 0.930 . S
H1295 C1287 0.929 . S
H1296 C1304 0.929 . S
H1297 C1306 0.930 . S
H1298 C1308 0.930 . S
H1299 C1311 0.929 . S
H1300 C1314 0.930 . S
H1301 C1316 0.960 . S
H1302 C1316 0.960 . S
H1303 C1316 0.960 . S
C1304 H1296 0.929 . S
C1304 C1305 1.377 . S
C1304 C1306 1.384 . S
C1305 C1304 1.377 . S
C1305 C1311 1.390 . S
C1306 H1297 0.930 . S
C1306 C1304 1.384 . S
C1306 C1307 1.372 . S
C1307 C1306 1.372 . S
C1307 C1308 1.400 . S
C1307 C1312 1.490 . S
C1308 H1298 0.930 . S
C1308 C1307 1.400 . S
C1308 C1311 1.386 . S
H1309 C1325 0.930 . S
H1310 C1326 0.931 . S
C1311 H1299 0.929 . S
C1311 C1305 1.390 . S
C1311 C1308 1.386 . S
C1312 C1307 1.490 . S
C1312 C1314 1.395 . S
C1312 C1315 1.403 . S
H1313 C1319 0.930 . S
C1314 H1300 0.930 . S
C1314 C1312 1.395 . S
C1314 C1317 1.403 . S
C1315 C1312 1.403 . S
C1315 C1316 1.524 . S
C1315 C1319 1.400 . S
C1316 H1301 0.960 . S
C1316 H1302 0.960 . S
C1316 H1303 0.960 . S
C1316 C1315 1.524 . S
C1317 C1314 1.403 . S
C1317 C1318 1.392 . S
C1317 C1321 1.495 . S
C1318 C1317 1.392 . S
C1318 C1319 1.385 . S
C1318 C1320 1.478 . S
C1319 H1313 0.930 . S
C1319 C1315 1.400 . S
C1319 C1318 1.385 . S
C1320 C1318 1.478 . S
C1320 C1322 1.381 . S
C1320 C1326 1.383 . S
C1321 C1317 1.495 . S
C1321 H1327 0.959 . S
C1321 H1328 0.961 . S
C1321 H1329 0.960 . S
C1322 C1320 1.381 . S
C1322 C1323 1.394 . S
C1322 H1330 0.930 . S
C1323 C1322 1.394 . S
C1323 C1324 1.383 . S
C1323 H1331 0.929 . S
C1324 C1323 1.383 . S
C1324 C1325 1.377 . S
C1325 H1309 0.930 . S
C1325 C1324 1.377 . S
C1325 C1326 1.379 . S
C1326 H1310 0.931 . S
C1326 C1320 1.383 . S
C1326 C1325 1.379 . S
H1327 C1321 0.959 . S
H1328 C1321 0.961 . S
H1329 C1321 0.960 . S
H1330 C1322 0.930 . S
H1331 C1323 0.929 . S
H1332 C1340 0.929 . S
H1333 C1342 0.930 . S
H1334 C1344 0.930 . S
H1335 C1347 0.929 . S
H1336 C1350 0.930 . S
H1337 C1352 0.960 . S
H1338 C1352 0.960 . S
H1339 C1352 0.960 . S
C1340 H1332 0.929 . S
C1340 C1341 1.377 . S
C1340 C1342 1.384 1_556 S
C1341 C1340 1.377 . S
C1341 C1347 1.390 . S
C1342 H1333 0.930 . S
C1342 C1340 1.384 1_554 S
C1342 C1343 1.372 . S
C1343 C1342 1.372 . S
C1343 C1344 1.400 . S
C1343 C1348 1.490 . S
C1344 H1334 0.930 . S
C1344 C1343 1.400 . S
C1344 C1347 1.386 1_554 S
H1345 C1361 0.930 . S
H1346 C1362 0.931 . S
C1347 H1335 0.929 . S
C1347 C1341 1.390 . S
C1347 C1344 1.386 1_556 S
C1348 C1343 1.490 . S
C1348 C1350 1.395 . S
C1348 C1351 1.403 . S
H1349 C1355 0.930 . S
C1350 H1336 0.930 . S
C1350 C1348 1.395 . S
C1350 C1353 1.403 . S
C1351 C1348 1.403 . S
C1351 C1352 1.524 . S
C1351 C1355 1.400 . S
C1352 H1337 0.960 . S
C1352 H1338 0.960 . S
C1352 H1339 0.960 . S
C1352 C1351 1.524 . S
C1353 C1350 1.403 . S
C1353 C1354 1.392 . S
C1353 C1357 1.495 . S
C1354 C1353 1.392 . S
C1354 C1355 1.385 . S
C1354 C1356 1.478 . S
C1355 H1349 0.930 . S
C1355 C1351 1.400 . S
C1355 C1354 1.385 . S
C1356 C1354 1.478 . S
C1356 C1358 1.381 . S
C1356 C1362 1.383 . S
C1357 C1353 1.495 . S
C1357 H1363 0.959 . S
C1357 H1364 0.961 . S
C1357 H1365 0.960 . S
C1358 C1356 1.381 . S
C1358 C1359 1.394 . S
C1358 H1366 0.930 . S
C1359 C1358 1.394 . S
C1359 C1360 1.383 . S
C1359 H1367 0.929 . S
C1360 C1359 1.383 . S
C1360 C1361 1.377 . S
C1361 H1345 0.930 . S
C1361 C1360 1.377 . S
C1361 C1362 1.379 . S
C1362 H1346 0.931 . S
C1362 C1356 1.383 . S
C1362 C1361 1.379 . S
H1363 C1357 0.959 . S
H1364 C1357 0.961 . S
H1365 C1357 0.960 . S
H1366 C1358 0.930 . S
H1367 C1359 0.929 . S
H1368 C1376 0.929 . S
H1369 C1378 0.930 . S
H1370 C1380 0.930 . S
H1371 C1383 0.929 . S
H1372 C1386 0.930 . S
H1373 C1388 0.960 . S
H1374 C1388 0.960 . S
H1375 C1388 0.960 . S
C1376 H1368 0.929 . S
C1376 C1377 1.377 . S
C1376 C1378 1.384 1_556 S
C1377 C1376 1.377 . S
C1377 C1383 1.390 . S
C1378 H1369 0.930 . S
C1378 C1376 1.384 1_554 S
C1378 C1379 1.372 . S
C1379 C1378 1.372 . S
C1379 C1380 1.400 . S
C1379 C1384 1.490 . S
C1380 H1370 0.930 . S
C1380 C1379 1.400 . S
C1380 C1383 1.386 1_554 S
H1381 C1397 0.930 . S
H1382 C1398 0.931 . S
C1383 H1371 0.929 . S
C1383 C1377 1.390 . S
C1383 C1380 1.386 1_556 S
C1384 C1379 1.490 . S
C1384 C1386 1.395 . S
C1384 C1387 1.403 . S
H1385 C1391 0.930 . S
C1386 H1372 0.930 . S
C1386 C1384 1.395 . S
C1386 C1389 1.403 . S
C1387 C1384 1.403 . S
C1387 C1388 1.524 . S
C1387 C1391 1.400 . S
C1388 H1373 0.960 . S
C1388 H1374 0.960 . S
C1388 H1375 0.960 . S
C1388 C1387 1.524 . S
C1389 C1386 1.403 . S
C1389 C1390 1.392 . S
C1389 C1393 1.495 . S
C1390 C1389 1.392 . S
C1390 C1391 1.385 . S
C1390 C1392 1.478 . S
C1391 H1385 0.930 . S
C1391 C1387 1.400 . S
C1391 C1390 1.385 . S
C1392 C1390 1.478 . S
C1392 C1394 1.381 . S
C1392 C1398 1.383 . S
C1393 C1389 1.495 . S
C1393 H1399 0.959 . S
C1393 H1400 0.961 . S
C1393 H1401 0.960 . S
C1394 C1392 1.381 . S
C1394 C1395 1.394 . S
C1394 H1402 0.930 . S
C1395 C1394 1.394 . S
C1395 C1396 1.383 . S
C1395 H1403 0.929 . S
C1396 C1395 1.383 . S
C1396 C1397 1.377 . S
C1397 H1381 0.930 . S
C1397 C1396 1.377 . S
C1397 C1398 1.379 . S
C1398 H1382 0.931 . S
C1398 C1392 1.383 . S
C1398 C1397 1.379 . S
H1399 C1393 0.959 . S
H1400 C1393 0.961 . S
H1401 C1393 0.960 . S
H1402 C1394 0.930 . S
H1403 C1395 0.929 . S
H1404 C1412 0.929 . S
H1405 C1414 0.930 . S
H1406 C1416 0.930 . S
H1407 C1419 0.929 . S
H1408 C1422 0.930 . S
H1409 C1424 0.960 . S
H1410 C1424 0.960 . S
H1411 C1424 0.960 . S
C1412 H1404 0.929 . S
C1412 C1413 1.377 . S
C1412 C1414 1.384 . S
C1413 C1412 1.377 . S
C1413 C1419 1.390 . S
C1414 H1405 0.930 . S
C1414 C1412 1.384 . S
C1414 C1415 1.372 . S
C1415 C1414 1.372 . S
C1415 C1416 1.400 . S
C1415 C1420 1.490 . S
C1416 H1406 0.930 . S
C1416 C1415 1.400 . S
C1416 C1419 1.386 . S
H1417 C1433 0.930 . S
H1418 C1434 0.931 . S
C1419 H1407 0.929 . S
C1419 C1413 1.390 . S
C1419 C1416 1.386 . S
C1420 C1415 1.490 . S
C1420 C1422 1.395 . S
C1420 C1423 1.403 . S
H1421 C1427 0.930 . S
C1422 H1408 0.930 . S
C1422 C1420 1.395 . S
C1422 C1425 1.403 . S
C1423 C1420 1.403 . S
C1423 C1424 1.524 . S
C1423 C1427 1.400 . S
C1424 H1409 0.960 . S
C1424 H1410 0.960 . S
C1424 H1411 0.960 . S
C1424 C1423 1.524 . S
C1425 C1422 1.403 . S
C1425 C1426 1.392 . S
C1425 C1429 1.495 . S
C1426 C1425 1.392 . S
C1426 C1427 1.385 . S
C1426 C1428 1.478 . S
C1427 H1421 0.930 . S
C1427 C1423 1.400 . S
C1427 C1426 1.385 . S
C1428 C1426 1.478 . S
C1428 C1430 1.381 . S
C1428 C1434 1.383 . S
C1429 C1425 1.495 . S
C1429 H1435 0.959 . S
C1429 H1436 0.961 . S
C1429 H1437 0.960 . S
C1430 C1428 1.381 . S
C1430 C1431 1.394 1_554 S
C1430 H1438 0.930 . S
C1431 C1430 1.394 1_556 S
C1431 C1432 1.383 . S
C1431 H1439 0.929 . S
C1432 C1431 1.383 . S
C1432 C1433 1.377 . S
C1433 H1417 0.930 . S
C1433 C1432 1.377 . S
C1433 C1434 1.379 1_556 S
C1434 H1418 0.931 . S
C1434 C1428 1.383 . S
C1434 C1433 1.379 1_554 S
H1435 C1429 0.959 . S
H1436 C1429 0.961 . S
H1437 C1429 0.960 . S
H1438 C1430 0.930 . S
H1439 C1431 0.929 . S
H1440 C1448 0.929 . S
H1441 C1450 0.930 . S
H1442 C1452 0.930 . S
H1443 C1455 0.929 . S
H1444 C1458 0.930 . S
H1445 C1460 0.960 . S
H1446 C1460 0.960 . S
H1447 C1460 0.960 . S
C1448 H1440 0.929 . S
C1448 C1449 1.377 . S
C1448 C1450 1.384 . S
C1449 C1448 1.377 . S
C1449 C1455 1.390 . S
C1450 H1441 0.930 . S
C1450 C1448 1.384 . S
C1450 C1451 1.372 . S
C1451 C1450 1.372 . S
C1451 C1452 1.400 . S
C1451 C1456 1.490 . S
C1452 H1442 0.930 . S
C1452 C1451 1.400 . S
C1452 C1455 1.386 . S
H1453 C1469 0.930 . S
H1454 C1470 0.931 . S
C1455 H1443 0.929 . S
C1455 C1449 1.390 . S
C1455 C1452 1.386 . S
C1456 C1451 1.490 . S
C1456 C1458 1.395 . S
C1456 C1459 1.403 . S
H1457 C1463 0.930 . S
C1458 H1444 0.930 . S
C1458 C1456 1.395 . S
C1458 C1461 1.403 . S
C1459 C1456 1.403 . S
C1459 C1460 1.524 . S
C1459 C1463 1.400 . S
C1460 H1445 0.960 . S
C1460 H1446 0.960 . S
C1460 H1447 0.960 . S
C1460 C1459 1.524 . S
C1461 C1458 1.403 . S
C1461 C1462 1.392 . S
C1461 C1465 1.495 . S
C1462 C1461 1.392 . S
C1462 C1463 1.385 . S
C1462 C1464 1.478 . S
C1463 H1457 0.930 . S
C1463 C1459 1.400 . S
C1463 C1462 1.385 . S
C1464 C1462 1.478 . S
C1464 C1466 1.381 . S
C1464 C1470 1.383 . S
C1465 C1461 1.495 . S
C1465 H1471 0.959 . S
C1465 H1472 0.961 . S
C1465 H1473 0.960 . S
C1466 C1464 1.381 . S
C1466 C1467 1.394 . S
C1466 H1474 0.930 . S
C1467 C1466 1.394 . S
C1467 C1468 1.383 . S
C1467 H1475 0.929 . S
C1468 C1467 1.383 . S
C1468 C1469 1.377 . S
C1469 H1453 0.930 . S
C1469 C1468 1.377 . S
C1469 C1470 1.379 . S
C1470 H1454 0.931 . S
C1470 C1464 1.383 . S
C1470 C1469 1.379 . S
H1471 C1465 0.959 . S
H1472 C1465 0.961 . S
H1473 C1465 0.960 . S
H1474 C1466 0.930 . S
H1475 C1467 0.929 . S
H1476 C1484 0.929 . S
H1477 C1486 0.930 . S
H1478 C1488 0.930 . S
H1479 C1491 0.929 . S
H1480 C1494 0.930 . S
H1481 C1496 0.960 . S
H1482 C1496 0.960 . S
H1483 C1496 0.960 . S
C1484 H1476 0.929 . S
C1484 C1485 1.377 . S
C1484 C1486 1.384 . S
C1485 C1484 1.377 . S
C1485 C1491 1.390 . S
C1486 H1477 0.930 . S
C1486 C1484 1.384 . S
C1486 C1487 1.372 . S
C1487 C1486 1.372 . S
C1487 C1488 1.400 . S
C1487 C1492 1.490 . S
C1488 H1478 0.930 . S
C1488 C1487 1.400 . S
C1488 C1491 1.386 . S
H1489 C1505 0.930 . S
H1490 C1506 0.931 . S
C1491 H1479 0.929 . S
C1491 C1485 1.390 . S
C1491 C1488 1.386 . S
C1492 C1487 1.490 . S
C1492 C1494 1.395 . S
C1492 C1495 1.403 . S
H1493 C1499 0.930 . S
C1494 H1480 0.930 . S
C1494 C1492 1.395 . S
C1494 C1497 1.403 . S
C1495 C1492 1.403 . S
C1495 C1496 1.524 . S
C1495 C1499 1.400 . S
C1496 H1481 0.960 . S
C1496 H1482 0.960 . S
C1496 H1483 0.960 . S
C1496 C1495 1.524 . S
C1497 C1494 1.403 . S
C1497 C1498 1.392 . S
C1497 C1501 1.495 . S
C1498 C1497 1.392 . S
C1498 C1499 1.385 . S
C1498 C1500 1.478 . S
C1499 H1493 0.930 . S
C1499 C1495 1.400 . S
C1499 C1498 1.385 . S
C1500 C1498 1.478 . S
C1500 C1502 1.381 . S
C1500 C1506 1.383 . S
C1501 C1497 1.495 . S
C1501 H1507 0.959 . S
C1501 H1508 0.961 . S
C1501 H1509 0.960 . S
C1502 C1500 1.381 . S
C1502 C1503 1.394 . S
C1502 H1510 0.930 . S
C1503 C1502 1.394 . S
C1503 C1504 1.383 . S
C1503 H1511 0.929 . S
C1504 C1503 1.383 . S
C1504 C1505 1.377 . S
C1505 H1489 0.930 . S
C1505 C1504 1.377 . S
C1505 C1506 1.379 . S
C1506 H1490 0.931 . S
C1506 C1500 1.383 . S
C1506 C1505 1.379 . S
H1507 C1501 0.959 . S
H1508 C1501 0.961 . S
H1509 C1501 0.960 . S
H1510 C1502 0.930 . S
H1511 C1503 0.929 . S
H1512 C1520 0.929 . S
H1513 C1522 0.930 . S
H1514 C1524 0.930 . S
H1515 C1527 0.929 . S
H1516 C1530 0.930 . S
H1517 C1532 0.960 . S
H1518 C1532 0.960 . S
H1519 C1532 0.960 . S
C1520 H1512 0.929 . S
C1520 C1521 1.377 . S
C1520 C1522 1.384 . S
C1521 C1520 1.377 . S
C1521 C1527 1.390 . S
C1522 H1513 0.930 . S
C1522 C1520 1.384 . S
C1522 C1523 1.372 . S
C1523 C1522 1.372 . S
C1523 C1524 1.400 . S
C1523 C1528 1.490 . S
C1524 H1514 0.930 . S
C1524 C1523 1.400 . S
C1524 C1527 1.386 . S
H1525 C1541 0.930 . S
H1526 C1542 0.931 . S
C1527 H1515 0.929 . S
C1527 C1521 1.390 . S
C1527 C1524 1.386 . S
C1528 C1523 1.490 . S
C1528 C1530 1.395 . S
C1528 C1531 1.403 . S
H1529 C1535 0.930 . S
C1530 H1516 0.930 . S
C1530 C1528 1.395 . S
C1530 C1533 1.403 . S
C1531 C1528 1.403 . S
C1531 C1532 1.524 . S
C1531 C1535 1.400 . S
C1532 H1517 0.960 . S
C1532 H1518 0.960 . S
C1532 H1519 0.960 . S
C1532 C1531 1.524 . S
C1533 C1530 1.403 . S
C1533 C1534 1.392 . S
C1533 C1537 1.495 . S
C1534 C1533 1.392 . S
C1534 C1535 1.385 . S
C1534 C1536 1.478 . S
C1535 H1529 0.930 . S
C1535 C1531 1.400 . S
C1535 C1534 1.385 . S
C1536 C1534 1.478 . S
C1536 C1538 1.381 . S
C1536 C1542 1.383 . S
C1537 C1533 1.495 . S
C1537 H1543 0.959 . S
C1537 H1544 0.961 . S
C1537 H1545 0.960 . S
C1538 C1536 1.381 . S
C1538 C1539 1.394 . S
C1538 H1546 0.930 . S
C1539 C1538 1.394 . S
C1539 C1540 1.383 . S
C1539 H1547 0.929 . S
C1540 C1539 1.383 . S
C1540 C1541 1.377 . S
C1541 H1525 0.930 . S
C1541 C1540 1.377 . S
C1541 C1542 1.379 . S
C1542 H1526 0.931 . S
C1542 C1536 1.383 . S
C1542 C1541 1.379 . S
H1543 C1537 0.959 . S
H1544 C1537 0.961 . S
H1545 C1537 0.960 . S
H1546 C1538 0.930 . S
H1547 C1539 0.929 . S
H1548 C1556 0.929 . S
H1549 C1558 0.930 . S
H1550 C1560 0.930 . S
H1551 C1563 0.929 . S
H1552 C1566 0.930 . S
H1553 C1568 0.960 . S
H1554 C1568 0.960 . S
H1555 C1568 0.960 . S
C1556 H1548 0.929 . S
C1556 C1557 1.377 . S
C1556 C1558 1.384 . S
C1557 C1556 1.377 . S
C1557 C1563 1.390 . S
C1558 H1549 0.930 . S
C1558 C1556 1.384 . S
C1558 C1559 1.372 . S
C1559 C1558 1.372 . S
C1559 C1560 1.400 . S
C1559 C1564 1.490 . S
C1560 H1550 0.930 . S
C1560 C1559 1.400 . S
C1560 C1563 1.386 . S
H1561 C1577 0.930 . S
H1562 C1578 0.931 . S
C1563 H1551 0.929 . S
C1563 C1557 1.390 . S
C1563 C1560 1.386 . S
C1564 C1559 1.490 . S
C1564 C1566 1.395 . S
C1564 C1567 1.403 . S
H1565 C1571 0.930 . S
C1566 H1552 0.930 . S
C1566 C1564 1.395 . S
C1566 C1569 1.403 . S
C1567 C1564 1.403 . S
C1567 C1568 1.524 . S
C1567 C1571 1.400 . S
C1568 H1553 0.960 . S
C1568 H1554 0.960 . S
C1568 H1555 0.960 . S
C1568 C1567 1.524 . S
C1569 C1566 1.403 . S
C1569 C1570 1.392 . S
C1569 C1573 1.495 . S
C1570 C1569 1.392 . S
C1570 C1571 1.385 . S
C1570 C1572 1.478 . S
C1571 H1565 0.930 . S
C1571 C1567 1.400 . S
C1571 C1570 1.385 . S
C1572 C1570 1.478 . S
C1572 C1574 1.381 . S
C1572 C1578 1.383 . S
C1573 C1569 1.495 . S
C1573 H1579 0.959 . S
C1573 H1580 0.961 . S
C1573 H1581 0.960 . S
C1574 C1572 1.381 . S
C1574 C1575 1.394 . S
C1574 H1582 0.930 . S
C1575 C1574 1.394 . S
C1575 C1576 1.383 . S
C1575 H1583 0.929 . S
C1576 C1575 1.383 . S
C1576 C1577 1.377 . S
C1577 H1561 0.930 . S
C1577 C1576 1.377 . S
C1577 C1578 1.379 . S
C1578 H1562 0.931 . S
C1578 C1572 1.383 . S
C1578 C1577 1.379 . S
H1579 C1573 0.959 . S
H1580 C1573 0.961 . S
H1581 C1573 0.960 . S
H1582 C1574 0.930 . S
H1583 C1575 0.929 . S
H1584 C1592 0.929 . S
H1585 C1594 0.930 . S
H1586 C1596 0.930 . S
H1587 C1599 0.929 . S
H1588 C1602 0.930 . S
H1589 C1604 0.960 . S
H1590 C1604 0.960 . S
H1591 C1604 0.960 . S
C1592 H1584 0.929 . S
C1592 C1593 1.377 . S
C1592 C1594 1.384 . S
C1593 C1592 1.377 . S
C1593 C1599 1.390 . S
C1594 H1585 0.930 . S
C1594 C1592 1.384 . S
C1594 C1595 1.372 . S
C1595 C1594 1.372 . S
C1595 C1596 1.400 . S
C1595 C1600 1.490 . S
C1596 H1586 0.930 . S
C1596 C1595 1.400 . S
C1596 C1599 1.386 . S
H1597 C1613 0.930 . S
H1598 C1614 0.931 . S
C1599 H1587 0.929 . S
C1599 C1593 1.390 . S
C1599 C1596 1.386 . S
C1600 C1595 1.490 . S
C1600 C1602 1.395 . S
C1600 C1603 1.403 . S
H1601 C1607 0.930 . S
C1602 H1588 0.930 . S
C1602 C1600 1.395 . S
C1602 C1605 1.403 . S
C1603 C1600 1.403 . S
C1603 C1604 1.524 . S
C1603 C1607 1.400 . S
C1604 H1589 0.960 . S
C1604 H1590 0.960 . S
C1604 H1591 0.960 . S
C1604 C1603 1.524 . S
C1605 C1602 1.403 . S
C1605 C1606 1.392 . S
C1605 C1609 1.495 . S
C1606 C1605 1.392 . S
C1606 C1607 1.385 . S
C1606 C1608 1.478 . S
C1607 H1601 0.930 . S
C1607 C1603 1.400 . S
C1607 C1606 1.385 . S
C1608 C1606 1.478 . S
C1608 C1610 1.381 . S
C1608 C1614 1.383 . S
C1609 C1605 1.495 . S
C1609 H1615 0.959 . S
C1609 H1616 0.961 . S
C1609 H1617 0.960 . S
C1610 C1608 1.381 . S
C1610 C1611 1.394 . S
C1610 H1618 0.930 . S
C1611 C1610 1.394 . S
C1611 C1612 1.383 . S
C1611 H1619 0.929 . S
C1612 C1611 1.383 . S
C1612 C1613 1.377 . S
C1613 H1597 0.930 . S
C1613 C1612 1.377 . S
C1613 C1614 1.379 . S
C1614 H1598 0.931 . S
C1614 C1608 1.383 . S
C1614 C1613 1.379 . S
H1615 C1609 0.959 . S
H1616 C1609 0.961 . S
H1617 C1609 0.960 . S
H1618 C1610 0.930 . S
H1619 C1611 0.929 . S
H1620 C1628 0.929 . S
H1621 C1630 0.930 . S
H1622 C1632 0.930 . S
H1623 C1635 0.929 . S
H1624 C1638 0.930 . S
H1625 C1640 0.960 . S
H1626 C1640 0.960 . S
H1627 C1640 0.960 . S
C1628 H1620 0.929 . S
C1628 C1629 1.377 . S
C1628 C1630 1.384 . S
C1629 C1628 1.377 . S
C1629 C1635 1.390 . S
C1630 H1621 0.930 . S
C1630 C1628 1.384 . S
C1630 C1631 1.372 . S
C1631 C1630 1.372 . S
C1631 C1632 1.400 . S
C1631 C1636 1.490 . S
C1632 H1622 0.930 . S
C1632 C1631 1.400 . S
C1632 C1635 1.386 . S
H1633 C1649 0.930 . S
H1634 C1650 0.931 . S
C1635 H1623 0.929 . S
C1635 C1629 1.390 . S
C1635 C1632 1.386 . S
C1636 C1631 1.490 . S
C1636 C1638 1.395 . S
C1636 C1639 1.403 . S
H1637 C1643 0.930 . S
C1638 H1624 0.930 . S
C1638 C1636 1.395 . S
C1638 C1641 1.403 . S
C1639 C1636 1.403 . S
C1639 C1640 1.524 . S
C1639 C1643 1.400 . S
C1640 H1625 0.960 . S
C1640 H1626 0.960 . S
C1640 H1627 0.960 . S
C1640 C1639 1.524 . S
C1641 C1638 1.403 . S
C1641 C1642 1.392 . S
C1641 C1645 1.495 . S
C1642 C1641 1.392 . S
C1642 C1643 1.385 . S
C1642 C1644 1.478 . S
C1643 H1637 0.930 . S
C1643 C1639 1.400 . S
C1643 C1642 1.385 . S
C1644 C1642 1.478 . S
C1644 C1646 1.381 . S
C1644 C1650 1.383 . S
C1645 C1641 1.495 . S
C1645 H1651 0.959 . S
C1645 H1652 0.961 . S
C1645 H1653 0.960 . S
C1646 C1644 1.381 . S
C1646 C1647 1.394 . S
C1646 H1654 0.930 . S
C1647 C1646 1.394 . S
C1647 C1648 1.383 . S
C1647 H1655 0.929 . S
C1648 C1647 1.383 . S
C1648 C1649 1.377 . S
C1649 H1633 0.930 . S
C1649 C1648 1.377 . S
C1649 C1650 1.379 . S
C1650 H1634 0.931 . S
C1650 C1644 1.383 . S
C1650 C1649 1.379 . S
H1651 C1645 0.959 . S
H1652 C1645 0.961 . S
H1653 C1645 0.960 . S
H1654 C1646 0.930 . S
H1655 C1647 0.929 . S
H1656 C1664 0.929 . S
H1657 C1666 0.930 . S
H1658 C1668 0.930 . S
H1659 C1671 0.929 . S
H1660 C1674 0.930 . S
H1661 C1676 0.960 . S
H1662 C1676 0.960 . S
H1663 C1676 0.960 . S
C1664 H1656 0.929 . S
C1664 C1665 1.377 . S
C1664 C1666 1.384 . S
C1665 C1664 1.377 . S
C1665 C1671 1.390 . S
C1666 H1657 0.930 . S
C1666 C1664 1.384 . S
C1666 C1667 1.372 . S
C1667 C1666 1.372 . S
C1667 C1668 1.400 . S
C1667 C1672 1.490 . S
C1668 H1658 0.930 . S
C1668 C1667 1.400 . S
C1668 C1671 1.386 . S
H1669 C1685 0.930 . S
H1670 C1686 0.931 1_556 S
C1671 H1659 0.929 . S
C1671 C1665 1.390 . S
C1671 C1668 1.386 . S
C1672 C1667 1.490 . S
C1672 C1674 1.395 . S
C1672 C1675 1.403 . S
H1673 C1679 0.930 . S
C1674 H1660 0.930 . S
C1674 C1672 1.395 . S
C1674 C1677 1.403 . S
C1675 C1672 1.403 . S
C1675 C1676 1.524 . S
C1675 C1679 1.400 . S
C1676 H1661 0.960 . S
C1676 H1662 0.960 . S
C1676 H1663 0.960 . S
C1676 C1675 1.524 . S
C1677 C1674 1.403 . S
C1677 C1678 1.392 . S
C1677 C1681 1.495 1_556 S
C1678 C1677 1.392 . S
C1678 C1679 1.385 . S
C1678 C1680 1.478 1_556 S
C1679 H1673 0.930 . S
C1679 C1675 1.400 . S
C1679 C1678 1.385 . S
C1680 C1678 1.478 1_554 S
C1680 C1682 1.381 . S
C1680 C1686 1.383 . S
C1681 C1677 1.495 1_554 S
C1681 H1687 0.959 1_554 S
C1681 H1688 0.961 . S
C1681 H1689 0.960 . S
C1682 C1680 1.381 . S
C1682 C1683 1.394 . S
C1682 H1690 0.930 . S
C1683 C1682 1.394 . S
C1683 C1684 1.383 . S
C1683 H1691 0.929 . S
C1684 C1683 1.383 . S
C1684 C1685 1.377 . S
C1685 H1669 0.930 . S
C1685 C1684 1.377 . S
C1685 C1686 1.379 . S
C1686 H1670 0.931 1_554 S
C1686 C1680 1.383 . S
C1686 C1685 1.379 . S
H1687 C1681 0.959 1_556 S
H1688 C1681 0.961 . S
H1689 C1681 0.960 . S
H1690 C1682 0.930 . S
H1691 C1683 0.929 . S
H1692 C1700 0.929 . S
H1693 C1702 0.930 . S
H1694 C1704 0.930 1_556 S
H1695 C1707 0.929 . S
H1696 C1710 0.930 1_554 S
H1697 C1712 0.960 . S
H1698 C1712 0.960 . S
H1699 C1712 0.960 . S
C1700 H1692 0.929 . S
C1700 C1701 1.377 . S
C1700 C1702 1.384 . S
C1701 C1700 1.377 . S
C1701 C1707 1.390 . S
C1702 H1693 0.930 . S
C1702 C1700 1.384 . S
C1702 C1703 1.372 . S
C1703 C1702 1.372 . S
C1703 C1704 1.400 . S
C1703 C1708 1.490 1_554 S
C1704 H1694 0.930 1_554 S
C1704 C1703 1.400 . S
C1704 C1707 1.386 . S
H1705 C1721 0.930 . S
H1706 C1722 0.931 . S
C1707 H1695 0.929 . S
C1707 C1701 1.390 . S
C1707 C1704 1.386 . S
C1708 C1703 1.490 1_556 S
C1708 C1710 1.395 . S
C1708 C1711 1.403 . S
H1709 C1715 0.930 . S
C1710 H1696 0.930 1_556 S
C1710 C1708 1.395 . S
C1710 C1713 1.403 . S
C1711 C1708 1.403 . S
C1711 C1712 1.524 . S
C1711 C1715 1.400 . S
C1712 H1697 0.960 . S
C1712 H1698 0.960 . S
C1712 H1699 0.960 . S
C1712 C1711 1.524 . S
C1713 C1710 1.403 . S
C1713 C1714 1.392 . S
C1713 C1717 1.495 . S
C1714 C1713 1.392 . S
C1714 C1715 1.385 . S
C1714 C1716 1.478 . S
C1715 H1709 0.930 . S
C1715 C1711 1.400 . S
C1715 C1714 1.385 . S
C1716 C1714 1.478 . S
C1716 C1718 1.381 . S
C1716 C1722 1.383 . S
C1717 C1713 1.495 . S
C1717 H1723 0.959 . S
C1717 H1724 0.961 . S
C1717 H1725 0.960 . S
C1718 C1716 1.381 . S
C1718 C1719 1.394 . S
C1718 H1726 0.930 . S
C1719 C1718 1.394 . S
C1719 C1720 1.383 . S
C1719 H1727 0.929 . S
C1720 C1719 1.383 . S
C1720 C1721 1.377 . S
C1721 H1705 0.930 . S
C1721 C1720 1.377 . S
C1721 C1722 1.379 . S
C1722 H1706 0.931 . S
C1722 C1716 1.383 . S
C1722 C1721 1.379 . S
H1723 C1717 0.959 . S
H1724 C1717 0.961 . S
H1725 C1717 0.960 . S
H1726 C1718 0.930 . S
H1727 C1719 0.929 . S
H1728 C1736 0.929 . S
H1729 C1738 0.930 . S
H1730 C1740 0.930 . S
H1731 C1743 0.929 . S
H1732 C1746 0.930 . S
H1733 C1748 0.960 . S
H1734 C1748 0.960 . S
H1735 C1748 0.960 . S
C1736 H1728 0.929 . S
C1736 C1737 1.377 . S
C1736 C1738 1.384 . S
C1737 C1736 1.377 . S
C1737 C1743 1.390 . S
C1738 H1729 0.930 . S
C1738 C1736 1.384 . S
C1738 C1739 1.372 . S
C1739 C1738 1.372 . S
C1739 C1740 1.400 . S
C1739 C1744 1.490 . S
C1740 H1730 0.930 . S
C1740 C1739 1.400 . S
C1740 C1743 1.386 . S
H1741 C1757 0.930 . S
H1742 C1758 0.931 . S
C1743 H1731 0.929 . S
C1743 C1737 1.390 . S
C1743 C1740 1.386 . S
C1744 C1739 1.490 . S
C1744 C1746 1.395 . S
C1744 C1747 1.403 . S
H1745 C1751 0.930 1_554 S
C1746 H1732 0.930 . S
C1746 C1744 1.395 . S
C1746 C1749 1.403 . S
C1747 C1744 1.403 . S
C1747 C1748 1.524 . S
C1747 C1751 1.400 . S
C1748 H1733 0.960 . S
C1748 H1734 0.960 . S
C1748 H1735 0.960 . S
C1748 C1747 1.524 . S
C1749 C1746 1.403 . S
C1749 C1750 1.392 . S
C1749 C1753 1.495 . S
C1750 C1749 1.392 . S
C1750 C1751 1.385 . S
C1750 C1752 1.478 1_556 S
C1751 H1745 0.930 1_556 S
C1751 C1747 1.400 . S
C1751 C1750 1.385 . S
C1752 C1750 1.478 1_554 S
C1752 C1754 1.381 . S
C1752 C1758 1.383 . S
C1753 C1749 1.495 . S
C1753 H1759 0.959 . S
C1753 H1760 0.961 . S
C1753 H1761 0.960 . S
C1754 C1752 1.381 . S
C1754 C1755 1.394 . S
C1754 H1762 0.930 . S
C1755 C1754 1.394 . S
C1755 C1756 1.383 . S
C1755 H1763 0.929 . S
C1756 C1755 1.383 . S
C1756 C1757 1.377 . S
C1757 H1741 0.930 . S
C1757 C1756 1.377 . S
C1757 C1758 1.379 . S
C1758 H1742 0.931 . S
C1758 C1752 1.383 . S
C1758 C1757 1.379 . S
H1759 C1753 0.959 . S
H1760 C1753 0.961 . S
H1761 C1753 0.960 . S
H1762 C1754 0.930 . S
H1763 C1755 0.929 . S
H1764 C1772 0.929 . S
H1765 C1774 0.930 . S
H1766 C1776 0.930 . S
H1767 C1779 0.929 . S
H1768 C1782 0.930 . S
H1769 C1784 0.960 . S
H1770 C1784 0.960 . S
H1771 C1784 0.960 . S
C1772 H1764 0.929 . S
C1772 C1773 1.377 . S
C1772 C1774 1.384 . S
C1773 C1772 1.377 . S
C1773 C1779 1.390 . S
C1774 H1765 0.930 . S
C1774 C1772 1.384 . S
C1774 C1775 1.372 . S
C1775 C1774 1.372 . S
C1775 C1776 1.400 . S
C1775 C1780 1.490 . S
C1776 H1766 0.930 . S
C1776 C1775 1.400 . S
C1776 C1779 1.386 . S
H1777 C1793 0.930 . S
H1778 C1794 0.931 . S
C1779 H1767 0.929 . S
C1779 C1773 1.390 . S
C1779 C1776 1.386 . S
C1780 C1775 1.490 . S
C1780 C1782 1.395 . S
C1780 C1783 1.403 . S
H1781 C1787 0.930 . S
C1782 H1768 0.930 . S
C1782 C1780 1.395 . S
C1782 C1785 1.403 . S
C1783 C1780 1.403 . S
C1783 C1784 1.524 . S
C1783 C1787 1.400 . S
C1784 H1769 0.960 . S
C1784 H1770 0.960 . S
C1784 H1771 0.960 . S
C1784 C1783 1.524 . S
C1785 C1782 1.403 . S
C1785 C1786 1.392 . S
C1785 C1789 1.495 . S
C1786 C1785 1.392 . S
C1786 C1787 1.385 . S
C1786 C1788 1.478 . S
C1787 H1781 0.930 . S
C1787 C1783 1.400 . S
C1787 C1786 1.385 . S
C1788 C1786 1.478 . S
C1788 C1790 1.381 . S
C1788 C1794 1.383 . S
C1789 C1785 1.495 . S
C1789 H1795 0.959 . S
C1789 H1796 0.961 . S
C1789 H1797 0.960 . S
C1790 C1788 1.381 . S
C1790 C1791 1.394 . S
C1790 H1798 0.930 . S
C1791 C1790 1.394 . S
C1791 C1792 1.383 . S
C1791 H1799 0.929 . S
C1792 C1791 1.383 . S
C1792 C1793 1.377 . S
C1793 H1777 0.930 . S
C1793 C1792 1.377 . S
C1793 C1794 1.379 . S
C1794 H1778 0.931 . S
C1794 C1788 1.383 . S
C1794 C1793 1.379 . S
H1795 C1789 0.959 . S
H1796 C1789 0.961 . S
H1797 C1789 0.960 . S
H1798 C1790 0.930 . S
H1799 C1791 0.929 . S
H1800 C1808 0.929 . S
H1801 C1810 0.930 . S
H1802 C1812 0.930 . S
H1803 C1815 0.929 . S
H1804 C1818 0.930 . S
H1805 C1820 0.960 . S
H1806 C1820 0.960 . S
H1807 C1820 0.960 . S
C1808 H1800 0.929 . S
C1808 C1809 1.377 . S
C1808 C1810 1.384 . S
C1809 C1808 1.377 . S
C1809 C1815 1.390 . S
C1810 H1801 0.930 . S
C1810 C1808 1.384 . S
C1810 C1811 1.372 . S
C1811 C1810 1.372 . S
C1811 C1812 1.400 . S
C1811 C1816 1.490 . S
C1812 H1802 0.930 . S
C1812 C1811 1.400 . S
C1812 C1815 1.386 . S
H1813 C1829 0.930 . S
H1814 C1830 0.931 . S
C1815 H1803 0.929 . S
C1815 C1809 1.390 . S
C1815 C1812 1.386 . S
C1816 C1811 1.490 . S
C1816 C1818 1.395 . S
C1816 C1819 1.403 . S
H1817 C1823 0.930 . S
C1818 H1804 0.930 . S
C1818 C1816 1.395 . S
C1818 C1821 1.403 . S
C1819 C1816 1.403 . S
C1819 C1820 1.524 . S
C1819 C1823 1.400 . S
C1820 H1805 0.960 . S
C1820 H1806 0.960 . S
C1820 H1807 0.960 . S
C1820 C1819 1.524 . S
C1821 C1818 1.403 . S
C1821 C1822 1.392 . S
C1821 C1825 1.495 . S
C1822 C1821 1.392 . S
C1822 C1823 1.385 . S
C1822 C1824 1.478 . S
C1823 H1817 0.930 . S
C1823 C1819 1.400 . S
C1823 C1822 1.385 . S
C1824 C1822 1.478 . S
C1824 C1826 1.381 . S
C1824 C1830 1.383 . S
C1825 C1821 1.495 . S
C1825 H1831 0.959 . S
C1825 H1832 0.961 . S
C1825 H1833 0.960 . S
C1826 C1824 1.381 . S
C1826 C1827 1.394 . S
C1826 H1834 0.930 . S
C1827 C1826 1.394 . S
C1827 C1828 1.383 . S
C1827 H1835 0.929 . S
C1828 C1827 1.383 . S
C1828 C1829 1.377 . S
C1829 H1813 0.930 . S
C1829 C1828 1.377 . S
C1829 C1830 1.379 . S
C1830 H1814 0.931 . S
C1830 C1824 1.383 . S
C1830 C1829 1.379 . S
H1831 C1825 0.959 . S
H1832 C1825 0.961 . S
H1833 C1825 0.960 . S
H1834 C1826 0.930 . S
H1835 C1827 0.929 . S
H1836 C1844 0.929 . S
H1837 C1846 0.930 . S
H1838 C1848 0.930 . S
H1839 C1851 0.929 . S
H1840 C1854 0.930 . S
H1841 C1856 0.960 . S
H1842 C1856 0.960 . S
H1843 C1856 0.960 . S
C1844 H1836 0.929 . S
C1844 C1845 1.377 . S
C1844 C1846 1.384 . S
C1845 C1844 1.377 . S
C1845 C1851 1.390 . S
C1846 H1837 0.930 . S
C1846 C1844 1.384 . S
C1846 C1847 1.372 . S
C1847 C1846 1.372 . S
C1847 C1848 1.400 . S
C1847 C1852 1.490 . S
C1848 H1838 0.930 . S
C1848 C1847 1.400 . S
C1848 C1851 1.386 . S
H1849 C1865 0.930 . S
H1850 C1866 0.931 . S
C1851 H1839 0.929 . S
C1851 C1845 1.390 . S
C1851 C1848 1.386 . S
C1852 C1847 1.490 . S
C1852 C1854 1.395 . S
C1852 C1855 1.403 . S
H1853 C1859 0.930 . S
C1854 H1840 0.930 . S
C1854 C1852 1.395 . S
C1854 C1857 1.403 . S
C1855 C1852 1.403 . S
C1855 C1856 1.524 . S
C1855 C1859 1.400 . S
C1856 H1841 0.960 . S
C1856 H1842 0.960 . S
C1856 H1843 0.960 . S
C1856 C1855 1.524 . S
C1857 C1854 1.403 . S
C1857 C1858 1.392 . S
C1857 C1861 1.495 . S
C1858 C1857 1.392 . S
C1858 C1859 1.385 . S
C1858 C1860 1.478 . S
C1859 H1853 0.930 . S
C1859 C1855 1.400 . S
C1859 C1858 1.385 . S
C1860 C1858 1.478 . S
C1860 C1862 1.381 . S
C1860 C1866 1.383 . S
C1861 C1857 1.495 . S
C1861 H1867 0.959 . S
C1861 H1868 0.961 . S
C1861 H1869 0.960 . S
C1862 C1860 1.381 . S
C1862 C1863 1.394 . S
C1862 H1870 0.930 . S
C1863 C1862 1.394 . S
C1863 C1864 1.383 . S
C1863 H1871 0.929 . S
C1864 C1863 1.383 . S
C1864 C1865 1.377 . S
C1865 H1849 0.930 . S
C1865 C1864 1.377 . S
C1865 C1866 1.379 . S
C1866 H1850 0.931 . S
C1866 C1860 1.383 . S
C1866 C1865 1.379 . S
H1867 C1861 0.959 . S
H1868 C1861 0.961 . S
H1869 C1861 0.960 . S
H1870 C1862 0.930 . S
H1871 C1863 0.929 . S
H1872 C1880 0.929 . S
H1873 C1882 0.930 . S
H1874 C1884 0.930 . S
H1875 C1887 0.929 . S
H1876 C1890 0.930 . S
H1877 C1892 0.960 . S
H1878 C1892 0.960 . S
H1879 C1892 0.960 . S
C1880 H1872 0.929 . S
C1880 C1881 1.377 . S
C1880 C1882 1.384 . S
C1881 C1880 1.377 . S
C1881 C1887 1.390 . S
C1882 H1873 0.930 . S
C1882 C1880 1.384 . S
C1882 C1883 1.372 . S
C1883 C1882 1.372 . S
C1883 C1884 1.400 . S
C1883 C1888 1.490 . S
C1884 H1874 0.930 . S
C1884 C1883 1.400 . S
C1884 C1887 1.386 . S
H1885 C1901 0.930 . S
H1886 C1902 0.931 . S
C1887 H1875 0.929 . S
C1887 C1881 1.390 . S
C1887 C1884 1.386 . S
C1888 C1883 1.490 . S
C1888 C1890 1.395 . S
C1888 C1891 1.403 . S
H1889 C1895 0.930 . S
C1890 H1876 0.930 . S
C1890 C1888 1.395 . S
C1890 C1893 1.403 . S
C1891 C1888 1.403 . S
C1891 C1892 1.524 . S
C1891 C1895 1.400 . S
C1892 H1877 0.960 . S
C1892 H1878 0.960 . S
C1892 H1879 0.960 . S
C1892 C1891 1.524 . S
C1893 C1890 1.403 . S
C1893 C1894 1.392 . S
C1893 C1897 1.495 . S
C1894 C1893 1.392 . S
C1894 C1895 1.385 . S
C1894 C1896 1.478 . S
C1895 H1889 0.930 . S
C1895 C1891 1.400 . S
C1895 C1894 1.385 . S
C1896 C1894 1.478 . S
C1896 C1898 1.381 . S
C1896 C1902 1.383 . S
C1897 C1893 1.495 . S
C1897 H1903 0.959 . S
C1897 H1904 0.961 . S
C1897 H1905 0.960 . S
C1898 C1896 1.381 . S
C1898 C1899 1.394 . S
C1898 H1906 0.930 . S
C1899 C1898 1.394 . S
C1899 C1900 1.383 . S
C1899 H1907 0.929 . S
C1900 C1899 1.383 . S
C1900 C1901 1.377 . S
C1901 H1885 0.930 . S
C1901 C1900 1.377 . S
C1901 C1902 1.379 . S
C1902 H1886 0.931 . S
C1902 C1896 1.383 . S
C1902 C1901 1.379 . S
H1903 C1897 0.959 . S
H1904 C1897 0.961 . S
H1905 C1897 0.960 . S
H1906 C1898 0.930 . S
H1907 C1899 0.929 . S
H1908 C1916 0.929 . S
H1909 C1918 0.930 . S
H1910 C1920 0.930 . S
H1911 C1923 0.929 . S
H1912 C1926 0.930 . S
H1913 C1928 0.960 . S
H1914 C1928 0.960 . S
H1915 C1928 0.960 . S
C1916 H1908 0.929 . S
C1916 C1917 1.377 . S
C1916 C1918 1.384 . S
C1917 C1916 1.377 . S
C1917 C1923 1.390 . S
C1918 H1909 0.930 . S
C1918 C1916 1.384 . S
C1918 C1919 1.372 . S
C1919 C1918 1.372 . S
C1919 C1920 1.400 . S
C1919 C1924 1.490 . S
C1920 H1910 0.930 . S
C1920 C1919 1.400 . S
C1920 C1923 1.386 . S
H1921 C1937 0.930 . S
H1922 C1938 0.931 . S
C1923 H1911 0.929 . S
C1923 C1917 1.390 . S
C1923 C1920 1.386 . S
C1924 C1919 1.490 . S
C1924 C1926 1.395 . S
C1924 C1927 1.403 . S
H1925 C1931 0.930 . S
C1926 H1912 0.930 . S
C1926 C1924 1.395 . S
C1926 C1929 1.403 . S
C1927 C1924 1.403 . S
C1927 C1928 1.524 . S
C1927 C1931 1.400 . S
C1928 H1913 0.960 . S
C1928 H1914 0.960 . S
C1928 H1915 0.960 . S
C1928 C1927 1.524 . S
C1929 C1926 1.403 . S
C1929 C1930 1.392 . S
C1929 C1933 1.495 . S
C1930 C1929 1.392 . S
C1930 C1931 1.385 . S
C1930 C1932 1.478 . S
C1931 H1925 0.930 . S
C1931 C1927 1.400 . S
C1931 C1930 1.385 . S
C1932 C1930 1.478 . S
C1932 C1934 1.381 . S
C1932 C1938 1.383 . S
C1933 C1929 1.495 . S
C1933 H1939 0.959 . S
C1933 H1940 0.961 . S
C1933 H1941 0.960 . S
C1934 C1932 1.381 . S
C1934 C1935 1.394 . S
C1934 H1942 0.930 . S
C1935 C1934 1.394 . S
C1935 C1936 1.383 . S
C1935 H1943 0.929 . S
C1936 C1935 1.383 . S
C1936 C1937 1.377 . S
C1937 H1921 0.930 . S
C1937 C1936 1.377 . S
C1937 C1938 1.379 . S
C1938 H1922 0.931 . S
C1938 C1932 1.383 . S
C1938 C1937 1.379 . S
H1939 C1933 0.959 . S
H1940 C1933 0.961 . S
H1941 C1933 0.960 . S
H1942 C1934 0.930 . S
H1943 C1935 0.929 . S
H1944 C1952 0.929 . S
H1945 C1954 0.930 . S
H1946 C1956 0.930 . S
H1947 C1959 0.929 . S
H1948 C1962 0.930 . S
H1949 C1964 0.960 . S
H1950 C1964 0.960 . S
H1951 C1964 0.960 . S
C1952 H1944 0.929 . S
C1952 C1953 1.377 . S
C1952 C1954 1.384 . S
C1953 C1952 1.377 . S
C1953 C1959 1.390 . S
C1954 H1945 0.930 . S
C1954 C1952 1.384 . S
C1954 C1955 1.372 . S
C1955 C1954 1.372 . S
C1955 C1956 1.400 . S
C1955 C1960 1.490 . S
C1956 H1946 0.930 . S
C1956 C1955 1.400 . S
C1956 C1959 1.386 . S
H1957 C1973 0.930 . S
H1958 C1974 0.931 . S
C1959 H1947 0.929 . S
C1959 C1953 1.390 . S
C1959 C1956 1.386 . S
C1960 C1955 1.490 . S
C1960 C1962 1.395 . S
C1960 C1963 1.403 . S
H1961 C1967 0.930 . S
C1962 H1948 0.930 . S
C1962 C1960 1.395 . S
C1962 C1965 1.403 . S
C1963 C1960 1.403 . S
C1963 C1964 1.524 . S
C1963 C1967 1.400 . S
C1964 H1949 0.960 . S
C1964 H1950 0.960 . S
C1964 H1951 0.960 . S
C1964 C1963 1.524 . S
C1965 C1962 1.403 . S
C1965 C1966 1.392 . S
C1965 C1969 1.495 . S
C1966 C1965 1.392 . S
C1966 C1967 1.385 . S
C1966 C1968 1.478 . S
C1967 H1961 0.930 . S
C1967 C1963 1.400 . S
C1967 C1966 1.385 . S
C1968 C1966 1.478 . S
C1968 C1970 1.381 . S
C1968 C1974 1.383 . S
C1969 C1965 1.495 . S
C1969 H1975 0.959 . S
C1969 H1976 0.961 . S
C1969 H1977 0.960 . S
C1970 C1968 1.381 . S
C1970 C1971 1.394 . S
C1970 H1978 0.930 . S
C1971 C1970 1.394 . S
C1971 C1972 1.383 . S
C1971 H1979 0.929 . S
C1972 C1971 1.383 . S
C1972 C1973 1.377 . S
C1973 H1957 0.930 . S
C1973 C1972 1.377 . S
C1973 C1974 1.379 . S
C1974 H1958 0.931 . S
C1974 C1968 1.383 . S
C1974 C1973 1.379 . S
H1975 C1969 0.959 . S
H1976 C1969 0.961 . S
H1977 C1969 0.960 . S
H1978 C1970 0.930 . S
H1979 C1971 0.929 . S
H1980 C1988 0.929 . S
H1981 C1990 0.930 . S
H1982 C1992 0.930 . S
H1983 C1995 0.929 . S
H1984 C1998 0.930 . S
H1985 C2000 0.960 . S
H1986 C2000 0.960 . S
H1987 C2000 0.960 . S
C1988 H1980 0.929 . S
C1988 C1989 1.377 . S
C1988 C1990 1.384 . S
C1989 C1988 1.377 . S
C1989 C1995 1.390 . S
C1990 H1981 0.930 . S
C1990 C1988 1.384 . S
C1990 C1991 1.372 . S
C1991 C1990 1.372 . S
C1991 C1992 1.400 . S
C1991 C1996 1.490 . S
C1992 H1982 0.930 . S
C1992 C1991 1.400 . S
C1992 C1995 1.386 . S
H1993 C2009 0.930 . S
H1994 C2010 0.931 . S
C1995 H1983 0.929 . S
C1995 C1989 1.390 . S
C1995 C1992 1.386 . S
C1996 C1991 1.490 . S
C1996 C1998 1.395 . S
C1996 C1999 1.403 . S
H1997 C2003 0.930 . S
C1998 H1984 0.930 . S
C1998 C1996 1.395 . S
C1998 C2001 1.403 . S
C1999 C1996 1.403 . S
C1999 C2000 1.524 . S
C1999 C2003 1.400 . S
C2000 H1985 0.960 . S
C2000 H1986 0.960 . S
C2000 H1987 0.960 . S
C2000 C1999 1.524 . S
C2001 C1998 1.403 . S
C2001 C2002 1.392 . S
C2001 C2005 1.495 . S
C2002 C2001 1.392 . S
C2002 C2003 1.385 . S
C2002 C2004 1.478 . S
C2003 H1997 0.930 . S
C2003 C1999 1.400 . S
C2003 C2002 1.385 . S
C2004 C2002 1.478 . S
C2004 C2006 1.381 . S
C2004 C2010 1.383 . S
C2005 C2001 1.495 . S
C2005 H2011 0.959 . S
C2005 H2012 0.961 . S
C2005 H2013 0.960 . S
C2006 C2004 1.381 . S
C2006 C2007 1.394 . S
C2006 H2014 0.930 . S
C2007 C2006 1.394 . S
C2007 C2008 1.383 . S
C2007 H2015 0.929 . S
C2008 C2007 1.383 . S
C2008 C2009 1.377 . S
C2009 H1993 0.930 . S
C2009 C2008 1.377 . S
C2009 C2010 1.379 . S
C2010 H1994 0.931 . S
C2010 C2004 1.383 . S
C2010 C2009 1.379 . S
H2011 C2005 0.959 . S
H2012 C2005 0.961 . S
H2013 C2005 0.960 . S
H2014 C2006 0.930 . S
H2015 C2007 0.929 . S
H2016 C2024 0.929 . S
H2017 C2026 0.930 . S
H2018 C2028 0.930 . S
H2019 C2031 0.929 . S
H2020 C2034 0.930 . S
H2021 C2036 0.960 . S
H2022 C2036 0.960 . S
H2023 C2036 0.960 . S
C2024 H2016 0.929 . S
C2024 C2025 1.377 . S
C2024 C2026 1.384 . S
C2025 C2024 1.377 . S
C2025 C2031 1.390 . S
C2026 H2017 0.930 . S
C2026 C2024 1.384 . S
C2026 C2027 1.372 . S
C2027 C2026 1.372 . S
C2027 C2028 1.400 . S
C2027 C2032 1.490 . S
C2028 H2018 0.930 . S
C2028 C2027 1.400 . S
C2028 C2031 1.386 . S
H2029 C2045 0.930 . S
H2030 C2046 0.931 . S
C2031 H2019 0.929 . S
C2031 C2025 1.390 . S
C2031 C2028 1.386 . S
C2032 C2027 1.490 . S
C2032 C2034 1.395 . S
C2032 C2035 1.403 . S
H2033 C2039 0.930 . S
C2034 H2020 0.930 . S
C2034 C2032 1.395 . S
C2034 C2037 1.403 . S
C2035 C2032 1.403 . S
C2035 C2036 1.524 . S
C2035 C2039 1.400 . S
C2036 H2021 0.960 . S
C2036 H2022 0.960 . S
C2036 H2023 0.960 . S
C2036 C2035 1.524 . S
C2037 C2034 1.403 . S
C2037 C2038 1.392 . S
C2037 C2041 1.495 . S
C2038 C2037 1.392 . S
C2038 C2039 1.385 . S
C2038 C2040 1.478 . S
C2039 H2033 0.930 . S
C2039 C2035 1.400 . S
C2039 C2038 1.385 . S
C2040 C2038 1.478 . S
C2040 C2042 1.381 . S
C2040 C2046 1.383 . S
C2041 C2037 1.495 . S
C2041 H2047 0.959 . S
C2041 H2048 0.961 . S
C2041 H2049 0.960 . S
C2042 C2040 1.381 . S
C2042 C2043 1.394 . S
C2042 H2050 0.930 . S
C2043 C2042 1.394 . S
C2043 C2044 1.383 . S
C2043 H2051 0.929 . S
C2044 C2043 1.383 . S
C2044 C2045 1.377 . S
C2045 H2029 0.930 . S
C2045 C2044 1.377 . S
C2045 C2046 1.379 . S
C2046 H2030 0.931 . S
C2046 C2040 1.383 . S
C2046 C2045 1.379 . S
H2047 C2041 0.959 . S
H2048 C2041 0.961 . S
H2049 C2041 0.960 . S
H2050 C2042 0.930 . S
H2051 C2043 0.929 . S
H2052 C2060 0.929 . S
H2053 C2062 0.930 . S
H2054 C2064 0.930 . S
H2055 C2067 0.929 . S
H2056 C2070 0.930 . S
H2057 C2072 0.960 . S
H2058 C2072 0.960 . S
H2059 C2072 0.960 . S
C2060 H2052 0.929 . S
C2060 C2061 1.377 . S
C2060 C2062 1.384 . S
C2061 C2060 1.377 . S
C2061 C2067 1.390 . S
C2062 H2053 0.930 . S
C2062 C2060 1.384 . S
C2062 C2063 1.372 . S
C2063 C2062 1.372 . S
C2063 C2064 1.400 . S
C2063 C2068 1.490 . S
C2064 H2054 0.930 . S
C2064 C2063 1.400 . S
C2064 C2067 1.386 . S
H2065 C2081 0.930 . S
H2066 C2082 0.931 . S
C2067 H2055 0.929 . S
C2067 C2061 1.390 . S
C2067 C2064 1.386 . S
C2068 C2063 1.490 . S
C2068 C2070 1.395 . S
C2068 C2071 1.403 . S
H2069 C2075 0.930 . S
C2070 H2056 0.930 . S
C2070 C2068 1.395 . S
C2070 C2073 1.403 . S
C2071 C2068 1.403 . S
C2071 C2072 1.524 . S
C2071 C2075 1.400 . S
C2072 H2057 0.960 . S
C2072 H2058 0.960 . S
C2072 H2059 0.960 . S
C2072 C2071 1.524 . S
C2073 C2070 1.403 . S
C2073 C2074 1.392 . S
C2073 C2077 1.495 . S
C2074 C2073 1.392 . S
C2074 C2075 1.385 . S
C2074 C2076 1.478 . S
C2075 H2069 0.930 . S
C2075 C2071 1.400 . S
C2075 C2074 1.385 . S
C2076 C2074 1.478 . S
C2076 C2078 1.381 . S
C2076 C2082 1.383 . S
C2077 C2073 1.495 . S
C2077 H2083 0.959 . S
C2077 H2084 0.961 . S
C2077 H2085 0.960 . S
C2078 C2076 1.381 . S
C2078 C2079 1.394 . S
C2078 H2086 0.930 . S
C2079 C2078 1.394 . S
C2079 C2080 1.383 . S
C2079 H2087 0.929 . S
C2080 C2079 1.383 . S
C2080 C2081 1.377 . S
C2081 H2065 0.930 . S
C2081 C2080 1.377 . S
C2081 C2082 1.379 . S
C2082 H2066 0.931 . S
C2082 C2076 1.383 . S
C2082 C2081 1.379 . S
H2083 C2077 0.959 . S
H2084 C2077 0.961 . S
H2085 C2077 0.960 . S
H2086 C2078 0.930 . S
H2087 C2079 0.929 . S
H2088 C2096 0.929 . S
H2089 C2098 0.930 . S
H2090 C2100 0.930 . S
H2091 C2103 0.929 . S
H2092 C2106 0.930 . S
H2093 C2108 0.960 . S
H2094 C2108 0.960 . S
H2095 C2108 0.960 . S
C2096 H2088 0.929 . S
C2096 C2097 1.377 . S
C2096 C2098 1.384 . S
C2097 C2096 1.377 . S
C2097 C2103 1.390 . S
C2098 H2089 0.930 . S
C2098 C2096 1.384 . S
C2098 C2099 1.372 . S
C2099 C2098 1.372 . S
C2099 C2100 1.400 . S
C2099 C2104 1.490 . S
C2100 H2090 0.930 . S
C2100 C2099 1.400 . S
C2100 C2103 1.386 . S
H2101 C2117 0.930 . S
H2102 C2118 0.931 . S
C2103 H2091 0.929 . S
C2103 C2097 1.390 . S
C2103 C2100 1.386 . S
C2104 C2099 1.490 . S
C2104 C2106 1.395 . S
C2104 C2107 1.403 . S
H2105 C2111 0.930 . S
C2106 H2092 0.930 . S
C2106 C2104 1.395 . S
C2106 C2109 1.403 . S
C2107 C2104 1.403 . S
C2107 C2108 1.524 . S
C2107 C2111 1.400 . S
C2108 H2093 0.960 . S
C2108 H2094 0.960 . S
C2108 H2095 0.960 . S
C2108 C2107 1.524 . S
C2109 C2106 1.403 . S
C2109 C2110 1.392 . S
C2109 C2113 1.495 . S
C2110 C2109 1.392 . S
C2110 C2111 1.385 . S
C2110 C2112 1.478 . S
C2111 H2105 0.930 . S
C2111 C2107 1.400 . S
C2111 C2110 1.385 . S
C2112 C2110 1.478 . S
C2112 C2114 1.381 . S
C2112 C2118 1.383 . S
C2113 C2109 1.495 . S
C2113 H2119 0.959 . S
C2113 H2120 0.961 . S
C2113 H2121 0.960 . S
C2114 C2112 1.381 . S
C2114 C2115 1.394 . S
C2114 H2122 0.930 . S
C2115 C2114 1.394 . S
C2115 C2116 1.383 . S
C2115 H2123 0.929 . S
C2116 C2115 1.383 . S
C2116 C2117 1.377 . S
C2117 H2101 0.930 . S
C2117 C2116 1.377 . S
C2117 C2118 1.379 . S
C2118 H2102 0.931 . S
C2118 C2112 1.383 . S
C2118 C2117 1.379 . S
H2119 C2113 0.959 . S
H2120 C2113 0.961 . S
H2121 C2113 0.960 . S
H2122 C2114 0.930 . S
H2123 C2115 0.929 . S
H2124 C2132 0.929 . S
H2125 C2134 0.930 . S
H2126 C2136 0.930 . S
H2127 C2139 0.929 . S
H2128 C2142 0.930 . S
H2129 C2144 0.960 . S
H2130 C2144 0.960 . S
H2131 C2144 0.960 . S
C2132 H2124 0.929 . S
C2132 C2133 1.377 . S
C2132 C2134 1.384 . S
C2133 C2132 1.377 . S
C2133 C2139 1.390 . S
C2134 H2125 0.930 . S
C2134 C2132 1.384 . S
C2134 C2135 1.372 . S
C2135 C2134 1.372 . S
C2135 C2136 1.400 . S
C2135 C2140 1.490 . S
C2136 H2126 0.930 . S
C2136 C2135 1.400 . S
C2136 C2139 1.386 . S
H2137 C2153 0.930 . S
H2138 C2154 0.931 . S
C2139 H2127 0.929 . S
C2139 C2133 1.390 . S
C2139 C2136 1.386 . S
C2140 C2135 1.490 . S
C2140 C2142 1.395 . S
C2140 C2143 1.403 . S
H2141 C2147 0.930 . S
C2142 H2128 0.930 . S
C2142 C2140 1.395 . S
C2142 C2145 1.403 . S
C2143 C2140 1.403 . S
C2143 C2144 1.524 . S
C2143 C2147 1.400 . S
C2144 H2129 0.960 . S
C2144 H2130 0.960 . S
C2144 H2131 0.960 . S
C2144 C2143 1.524 . S
C2145 C2142 1.403 . S
C2145 C2146 1.392 . S
C2145 C2149 1.495 . S
C2146 C2145 1.392 . S
C2146 C2147 1.385 . S
C2146 C2148 1.478 . S
C2147 H2141 0.930 . S
C2147 C2143 1.400 . S
C2147 C2146 1.385 . S
C2148 C2146 1.478 . S
C2148 C2150 1.381 . S
C2148 C2154 1.383 . S
C2149 C2145 1.495 . S
C2149 H2155 0.959 . S
C2149 H2156 0.961 . S
C2149 H2157 0.960 . S
C2150 C2148 1.381 . S
C2150 C2151 1.394 . S
C2150 H2158 0.930 . S
C2151 C2150 1.394 . S
C2151 C2152 1.383 . S
C2151 H2159 0.929 . S
C2152 C2151 1.383 . S
C2152 C2153 1.377 . S
C2153 H2137 0.930 . S
C2153 C2152 1.377 . S
C2153 C2154 1.379 . S
C2154 H2138 0.931 . S
C2154 C2148 1.383 . S
C2154 C2153 1.379 . S
H2155 C2149 0.959 . S
H2156 C2149 0.961 . S
H2157 C2149 0.960 . S
H2158 C2150 0.930 . S
H2159 C2151 0.929 . S
H2160 C2168 0.929 . S
H2161 C2170 0.930 . S
H2162 C2172 0.930 . S
H2163 C2175 0.929 . S
H2164 C2178 0.930 . S
H2165 C2180 0.960 . S
H2166 C2180 0.960 . S
H2167 C2180 0.960 . S
C2168 H2160 0.929 . S
C2168 C2169 1.377 . S
C2168 C2170 1.384 . S
C2169 C2168 1.377 . S
C2169 C2175 1.390 . S
C2170 H2161 0.930 . S
C2170 C2168 1.384 . S
C2170 C2171 1.372 . S
C2171 C2170 1.372 . S
C2171 C2172 1.400 . S
C2171 C2176 1.490 . S
C2172 H2162 0.930 . S
C2172 C2171 1.400 . S
C2172 C2175 1.386 . S
H2173 C2189 0.930 . S
H2174 C2190 0.931 . S
C2175 H2163 0.929 . S
C2175 C2169 1.390 . S
C2175 C2172 1.386 . S
C2176 C2171 1.490 . S
C2176 C2178 1.395 . S
C2176 C2179 1.403 . S
H2177 C2183 0.930 . S
C2178 H2164 0.930 . S
C2178 C2176 1.395 . S
C2178 C2181 1.403 . S
C2179 C2176 1.403 . S
C2179 C2180 1.524 . S
C2179 C2183 1.400 . S
C2180 H2165 0.960 . S
C2180 H2166 0.960 . S
C2180 H2167 0.960 . S
C2180 C2179 1.524 . S
C2181 C2178 1.403 . S
C2181 C2182 1.392 . S
C2181 C2185 1.495 . S
C2182 C2181 1.392 . S
C2182 C2183 1.385 . S
C2182 C2184 1.478 . S
C2183 H2177 0.930 . S
C2183 C2179 1.400 . S
C2183 C2182 1.385 . S
C2184 C2182 1.478 . S
C2184 C2186 1.381 . S
C2184 C2190 1.383 . S
C2185 C2181 1.495 . S
C2185 H2191 0.959 . S
C2185 H2192 0.961 . S
C2185 H2193 0.960 . S
C2186 C2184 1.381 . S
C2186 C2187 1.394 . S
C2186 H2194 0.930 . S
C2187 C2186 1.394 . S
C2187 C2188 1.383 . S
C2187 H2195 0.929 . S
C2188 C2187 1.383 . S
C2188 C2189 1.377 . S
C2189 H2173 0.930 . S
C2189 C2188 1.377 . S
C2189 C2190 1.379 . S
C2190 H2174 0.931 . S
C2190 C2184 1.383 . S
C2190 C2189 1.379 . S
H2191 C2185 0.959 . S
H2192 C2185 0.961 . S
H2193 C2185 0.960 . S
H2194 C2186 0.930 . S
H2195 C2187 0.929 . S
H2196 C2204 0.929 . S
H2197 C2206 0.930 . S
H2198 C2208 0.930 . S
H2199 C2211 0.929 . S
H2200 C2214 0.930 . S
H2201 C2216 0.960 . S
H2202 C2216 0.960 . S
H2203 C2216 0.960 . S
C2204 H2196 0.929 . S
C2204 C2205 1.377 . S
C2204 C2206 1.384 . S
C2205 C2204 1.377 . S
C2205 C2211 1.390 . S
C2206 H2197 0.930 . S
C2206 C2204 1.384 . S
C2206 C2207 1.372 . S
C2207 C2206 1.372 . S
C2207 C2208 1.400 . S
C2207 C2212 1.490 . S
C2208 H2198 0.930 . S
C2208 C2207 1.400 . S
C2208 C2211 1.386 . S
H2209 C2225 0.930 . S
H2210 C2226 0.931 . S
C2211 H2199 0.929 . S
C2211 C2205 1.390 . S
C2211 C2208 1.386 . S
C2212 C2207 1.490 . S
C2212 C2214 1.395 . S
C2212 C2215 1.403 . S
H2213 C2219 0.930 . S
C2214 H2200 0.930 . S
C2214 C2212 1.395 . S
C2214 C2217 1.403 . S
C2215 C2212 1.403 . S
C2215 C2216 1.524 . S
C2215 C2219 1.400 . S
C2216 H2201 0.960 . S
C2216 H2202 0.960 . S
C2216 H2203 0.960 . S
C2216 C2215 1.524 . S
C2217 C2214 1.403 . S
C2217 C2218 1.392 . S
C2217 C2221 1.495 . S
C2218 C2217 1.392 . S
C2218 C2219 1.385 . S
C2218 C2220 1.478 . S
C2219 H2213 0.930 . S
C2219 C2215 1.400 . S
C2219 C2218 1.385 . S
C2220 C2218 1.478 . S
C2220 C2222 1.381 . S
C2220 C2226 1.383 . S
C2221 C2217 1.495 . S
C2221 H2227 0.959 . S
C2221 H2228 0.961 . S
C2221 H2229 0.960 . S
C2222 C2220 1.381 . S
C2222 C2223 1.394 . S
C2222 H2230 0.930 . S
C2223 C2222 1.394 . S
C2223 C2224 1.383 . S
C2223 H2231 0.929 . S
C2224 C2223 1.383 . S
C2224 C2225 1.377 . S
C2225 H2209 0.930 . S
C2225 C2224 1.377 . S
C2225 C2226 1.379 . S
C2226 H2210 0.931 . S
C2226 C2220 1.383 . S
C2226 C2225 1.379 . S
H2227 C2221 0.959 . S
H2228 C2221 0.961 . S
H2229 C2221 0.960 . S
H2230 C2222 0.930 . S
H2231 C2223 0.929 . S
H2232 C2240 0.929 . S
H2233 C2242 0.930 . S
H2234 C2244 0.930 . S
H2235 C2247 0.929 . S
H2236 C2250 0.930 . S
H2237 C2252 0.960 . S
H2238 C2252 0.960 . S
H2239 C2252 0.960 . S
C2240 H2232 0.929 . S
C2240 C2241 1.377 . S
C2240 C2242 1.384 . S
C2241 C2240 1.377 . S
C2241 C2247 1.390 . S
C2242 H2233 0.930 . S
C2242 C2240 1.384 . S
C2242 C2243 1.372 . S
C2243 C2242 1.372 . S
C2243 C2244 1.400 . S
C2243 C2248 1.490 . S
C2244 H2234 0.930 . S
C2244 C2243 1.400 . S
C2244 C2247 1.386 . S
H2245 C2261 0.930 . S
H2246 C2262 0.931 . S
C2247 H2235 0.929 . S
C2247 C2241 1.390 . S
C2247 C2244 1.386 . S
C2248 C2243 1.490 . S
C2248 C2250 1.395 . S
C2248 C2251 1.403 . S
H2249 C2255 0.930 . S
C2250 H2236 0.930 . S
C2250 C2248 1.395 . S
C2250 C2253 1.403 . S
C2251 C2248 1.403 . S
C2251 C2252 1.524 . S
C2251 C2255 1.400 . S
C2252 H2237 0.960 . S
C2252 H2238 0.960 . S
C2252 H2239 0.960 . S
C2252 C2251 1.524 . S
C2253 C2250 1.403 . S
C2253 C2254 1.392 . S
C2253 C2257 1.495 . S
C2254 C2253 1.392 . S
C2254 C2255 1.385 . S
C2254 C2256 1.478 . S
C2255 H2249 0.930 . S
C2255 C2251 1.400 . S
C2255 C2254 1.385 . S
C2256 C2254 1.478 . S
C2256 C2258 1.381 . S
C2256 C2262 1.383 . S
C2257 C2253 1.495 . S
C2257 H2263 0.959 . S
C2257 H2264 0.961 . S
C2257 H2265 0.960 . S
C2258 C2256 1.381 . S
C2258 C2259 1.394 . S
C2258 H2266 0.930 . S
C2259 C2258 1.394 . S
C2259 C2260 1.383 . S
C2259 H2267 0.929 . S
C2260 C2259 1.383 . S
C2260 C2261 1.377 . S
C2261 H2245 0.930 . S
C2261 C2260 1.377 . S
C2261 C2262 1.379 . S
C2262 H2246 0.931 . S
C2262 C2256 1.383 . S
C2262 C2261 1.379 . S
H2263 C2257 0.959 . S
H2264 C2257 0.961 . S
H2265 C2257 0.960 . S
H2266 C2258 0.930 . S
H2267 C2259 0.929 . S
H2268 C2276 0.929 . S
H2269 C2278 0.930 . S
H2270 C2280 0.930 . S
H2271 C2283 0.929 . S
H2272 C2286 0.930 . S
H2273 C2288 0.960 . S
H2274 C2288 0.960 . S
H2275 C2288 0.960 . S
C2276 H2268 0.929 . S
C2276 C2277 1.377 . S
C2276 C2278 1.384 . S
C2277 C2276 1.377 . S
C2277 C2283 1.390 . S
C2278 H2269 0.930 . S
C2278 C2276 1.384 . S
C2278 C2279 1.372 . S
C2279 C2278 1.372 . S
C2279 C2280 1.400 . S
C2279 C2284 1.490 . S
C2280 H2270 0.930 . S
C2280 C2279 1.400 . S
C2280 C2283 1.386 . S
H2281 C2297 0.930 . S
H2282 C2298 0.931 . S
C2283 H2271 0.929 . S
C2283 C2277 1.390 . S
C2283 C2280 1.386 . S
C2284 C2279 1.490 . S
C2284 C2286 1.395 . S
C2284 C2287 1.403 . S
H2285 C2291 0.930 . S
C2286 H2272 0.930 . S
C2286 C2284 1.395 . S
C2286 C2289 1.403 . S
C2287 C2284 1.403 . S
C2287 C2288 1.524 . S
C2287 C2291 1.400 . S
C2288 H2273 0.960 . S
C2288 H2274 0.960 . S
C2288 H2275 0.960 . S
C2288 C2287 1.524 . S
C2289 C2286 1.403 . S
C2289 C2290 1.392 . S
C2289 C2293 1.495 . S
C2290 C2289 1.392 . S
C2290 C2291 1.385 . S
C2290 C2292 1.478 . S
C2291 H2285 0.930 . S
C2291 C2287 1.400 . S
C2291 C2290 1.385 . S
C2292 C2290 1.478 . S
C2292 C2294 1.381 . S
C2292 C2298 1.383 . S
C2293 C2289 1.495 . S
C2293 H2299 0.959 . S
C2293 H2300 0.961 . S
C2293 H2301 0.960 . S
C2294 C2292 1.381 . S
C2294 C2295 1.394 . S
C2294 H2302 0.930 . S
C2295 C2294 1.394 . S
C2295 C2296 1.383 . S
C2295 H2303 0.929 . S
C2296 C2295 1.383 . S
C2296 C2297 1.377 . S
C2297 H2281 0.930 . S
C2297 C2296 1.377 . S
C2297 C2298 1.379 . S
C2298 H2282 0.931 . S
C2298 C2292 1.383 . S
C2298 C2297 1.379 . S
H2299 C2293 0.959 . S
H2300 C2293 0.961 . S
H2301 C2293 0.960 . S
H2302 C2294 0.930 . S
H2303 C2295 0.929 . S
H2304 C2312 0.929 . S
H2305 C2314 0.930 . S
H2306 C2316 0.930 1_554 S
H2307 C2319 0.929 . S
H2308 C2322 0.930 1_556 S
H2309 C2324 0.960 . S
H2310 C2324 0.960 . S
H2311 C2324 0.960 . S
C2312 H2304 0.929 . S
C2312 C2313 1.377 . S
C2312 C2314 1.384 . S
C2313 C2312 1.377 . S
C2313 C2319 1.390 . S
C2314 H2305 0.930 . S
C2314 C2312 1.384 . S
C2314 C2315 1.372 . S
C2315 C2314 1.372 . S
C2315 C2316 1.400 . S
C2315 C2320 1.490 1_556 S
C2316 H2306 0.930 1_556 S
C2316 C2315 1.400 . S
C2316 C2319 1.386 . S
H2317 C2333 0.930 . S
H2318 C2334 0.931 . S
C2319 H2307 0.929 . S
C2319 C2313 1.390 . S
C2319 C2316 1.386 . S
C2320 C2315 1.490 1_554 S
C2320 C2322 1.395 . S
C2320 C2323 1.403 . S
H2321 C2327 0.930 . S
C2322 H2308 0.930 1_554 S
C2322 C2320 1.395 . S
C2322 C2325 1.403 . S
C2323 C2320 1.403 . S
C2323 C2324 1.524 . S
C2323 C2327 1.400 . S
C2324 H2309 0.960 . S
C2324 H2310 0.960 . S
C2324 H2311 0.960 . S
C2324 C2323 1.524 . S
C2325 C2322 1.403 . S
C2325 C2326 1.392 . S
C2325 C2329 1.495 . S
C2326 C2325 1.392 . S
C2326 C2327 1.385 . S
C2326 C2328 1.478 . S
C2327 H2321 0.930 . S
C2327 C2323 1.400 . S
C2327 C2326 1.385 . S
C2328 C2326 1.478 . S
C2328 C2330 1.381 . S
C2328 C2334 1.383 . S
C2329 C2325 1.495 . S
C2329 H2335 0.959 . S
C2329 H2336 0.961 . S
C2329 H2337 0.960 . S
C2330 C2328 1.381 . S
C2330 C2331 1.394 . S
C2330 H2338 0.930 . S
C2331 C2330 1.394 . S
C2331 C2332 1.383 . S
C2331 H2339 0.929 . S
C2332 C2331 1.383 . S
C2332 C2333 1.377 . S
C2333 H2317 0.930 . S
C2333 C2332 1.377 . S
C2333 C2334 1.379 . S
C2334 H2318 0.931 . S
C2334 C2328 1.383 . S
C2334 C2333 1.379 . S
H2335 C2329 0.959 . S
H2336 C2329 0.961 . S
H2337 C2329 0.960 . S
H2338 C2330 0.930 . S
H2339 C2331 0.929 . S
H2340 C2348 0.929 . S
H2341 C2350 0.930 1_554 S
H2342 C2352 0.930 . S
H2343 C2355 0.929 . S
H2344 C2358 0.930 . S
H2345 C2360 0.960 . S
H2346 C2360 0.960 . S
H2347 C2360 0.960 . S
C2348 H2340 0.929 . S
C2348 C2349 1.377 . S
C2348 C2350 1.384 . S
C2349 C2348 1.377 . S
C2349 C2355 1.390 . S
C2350 H2341 0.930 1_556 S
C2350 C2348 1.384 . S
C2350 C2351 1.372 . S
C2351 C2350 1.372 . S
C2351 C2352 1.400 . S
C2351 C2356 1.490 1_556 S
C2352 H2342 0.930 . S
C2352 C2351 1.400 . S
C2352 C2355 1.386 . S
H2353 C2369 0.930 . S
H2354 C2370 0.931 . S
C2355 H2343 0.929 . S
C2355 C2349 1.390 . S
C2355 C2352 1.386 . S
C2356 C2351 1.490 1_554 S
C2356 C2358 1.395 . S
C2356 C2359 1.403 . S
H2357 C2363 0.930 . S
C2358 H2344 0.930 . S
C2358 C2356 1.395 . S
C2358 C2361 1.403 . S
C2359 C2356 1.403 . S
C2359 C2360 1.524 . S
C2359 C2363 1.400 . S
C2360 H2345 0.960 . S
C2360 H2346 0.960 . S
C2360 H2347 0.960 . S
C2360 C2359 1.524 . S
C2361 C2358 1.403 . S
C2361 C2362 1.392 . S
C2361 C2365 1.495 . S
C2362 C2361 1.392 . S
C2362 C2363 1.385 . S
C2362 C2364 1.478 . S
C2363 H2357 0.930 . S
C2363 C2359 1.400 . S
C2363 C2362 1.385 . S
C2364 C2362 1.478 . S
C2364 C2366 1.381 . S
C2364 C2370 1.383 . S
C2365 C2361 1.495 . S
C2365 H2371 0.959 . S
C2365 H2372 0.961 . S
C2365 H2373 0.960 . S
C2366 C2364 1.381 . S
C2366 C2367 1.394 . S
C2366 H2374 0.930 . S
C2367 C2366 1.394 . S
C2367 C2368 1.383 . S
C2367 H2375 0.929 . S
C2368 C2367 1.383 . S
C2368 C2369 1.377 . S
C2369 H2353 0.930 . S
C2369 C2368 1.377 . S
C2369 C2370 1.379 . S
C2370 H2354 0.931 . S
C2370 C2364 1.383 . S
C2370 C2369 1.379 . S
H2371 C2365 0.959 . S
H2372 C2365 0.961 . S
H2373 C2365 0.960 . S
H2374 C2366 0.930 . S
H2375 C2367 0.929 . S
H2376 C2384 0.929 . S
H2377 C2386 0.930 1_554 S
H2378 C2388 0.930 . S
H2379 C2391 0.929 . S
H2380 C2394 0.930 . S
H2381 C2396 0.960 . S
H2382 C2396 0.960 . S
H2383 C2396 0.960 . S
C2384 H2376 0.929 . S
C2384 C2385 1.377 . S
C2384 C2386 1.384 . S
C2385 C2384 1.377 . S
C2385 C2391 1.390 . S
C2386 H2377 0.930 1_556 S
C2386 C2384 1.384 . S
C2386 C2387 1.372 . S
C2387 C2386 1.372 . S
C2387 C2388 1.400 . S
C2387 C2392 1.490 1_556 S
C2388 H2378 0.930 . S
C2388 C2387 1.400 . S
C2388 C2391 1.386 . S
H2389 C2405 0.930 . S
H2390 C2406 0.931 . S
C2391 H2379 0.929 . S
C2391 C2385 1.390 . S
C2391 C2388 1.386 . S
C2392 C2387 1.490 1_554 S
C2392 C2394 1.395 . S
C2392 C2395 1.403 . S
H2393 C2399 0.930 . S
C2394 H2380 0.930 . S
C2394 C2392 1.395 . S
C2394 C2397 1.403 . S
C2395 C2392 1.403 . S
C2395 C2396 1.524 . S
C2395 C2399 1.400 . S
C2396 H2381 0.960 . S
C2396 H2382 0.960 . S
C2396 H2383 0.960 . S
C2396 C2395 1.524 . S
C2397 C2394 1.403 . S
C2397 C2398 1.392 . S
C2397 C2401 1.495 . S
C2398 C2397 1.392 . S
C2398 C2399 1.385 . S
C2398 C2400 1.478 . S
C2399 H2393 0.930 . S
C2399 C2395 1.400 . S
C2399 C2398 1.385 . S
C2400 C2398 1.478 . S
C2400 C2402 1.381 . S
C2400 C2406 1.383 . S
C2401 C2397 1.495 . S
C2401 H2407 0.959 . S
C2401 H2408 0.961 . S
C2401 H2409 0.960 . S
C2402 C2400 1.381 . S
C2402 C2403 1.394 . S
C2402 H2410 0.930 . S
C2403 C2402 1.394 . S
C2403 C2404 1.383 . S
C2403 H2411 0.929 . S
C2404 C2403 1.383 . S
C2404 C2405 1.377 . S
C2405 H2389 0.930 . S
C2405 C2404 1.377 . S
C2405 C2406 1.379 . S
C2406 H2390 0.931 . S
C2406 C2400 1.383 . S
C2406 C2405 1.379 . S
H2407 C2401 0.959 . S
H2408 C2401 0.961 . S
H2409 C2401 0.960 . S
H2410 C2402 0.930 . S
H2411 C2403 0.929 . S
H2412 C2420 0.929 . S
H2413 C2422 0.930 . S
H2414 C2424 0.930 . S
H2415 C2427 0.929 . S
H2416 C2430 0.930 . S
H2417 C2432 0.954 1_556 S
H2418 C2432 0.944 1_556 S
H2419 C2432 0.966 . S
C2420 H2412 0.929 . S
C2420 C2421 1.377 . S
C2420 C2422 1.384 . S
C2421 C2420 1.377 . S
C2421 C2427 1.390 . S
C2422 H2413 0.930 . S
C2422 C2420 1.384 . S
C2422 C2423 1.372 . S
C2423 C2422 1.372 . S
C2423 C2424 1.400 . S
C2423 C2428 1.490 . S
C2424 H2414 0.930 . S
C2424 C2423 1.400 . S
C2424 C2427 1.386 . S
H2425 C2441 0.930 . S
H2426 C2442 0.931 . S
C2427 H2415 0.929 . S
C2427 C2421 1.390 . S
C2427 C2424 1.386 . S
C2428 C2423 1.490 . S
C2428 C2430 1.395 . S
C2428 C2431 1.403 . S
H2429 C2435 0.930 . S
C2430 H2416 0.930 . S
C2430 C2428 1.395 . S
C2430 C2433 1.403 . S
C2431 C2428 1.403 . S
C2431 C2432 1.540 . S
C2431 C2435 1.400 . S
C2432 H2417 0.954 1_554 S
C2432 H2418 0.944 1_554 S
C2432 H2419 0.966 . S
C2432 C2431 1.540 . S
C2433 C2430 1.403 . S
C2433 C2434 1.392 . S
C2433 C2437 1.495 . S
C2434 C2433 1.392 . S
C2434 C2435 1.385 . S
C2434 C2436 1.478 . S
C2435 H2429 0.930 . S
C2435 C2431 1.400 . S
C2435 C2434 1.385 . S
C2436 C2434 1.478 . S
C2436 C2438 1.381 . S
C2436 C2442 1.383 . S
C2437 C2433 1.495 . S
C2437 H2443 0.959 . S
C2437 H2444 0.961 . S
C2437 H2445 0.960 . S
C2438 C2436 1.381 . S
C2438 C2439 1.394 . S
C2438 H2446 0.930 . S
C2439 C2438 1.394 . S
C2439 C2440 1.383 . S
C2439 H2447 0.929 . S
C2440 C2439 1.383 . S
C2440 C2441 1.377 . S
C2441 H2425 0.930 . S
C2441 C2440 1.377 . S
C2441 C2442 1.379 . S
C2442 H2426 0.931 . S
C2442 C2436 1.383 . S
C2442 C2441 1.379 . S
H2443 C2437 0.959 . S
H2444 C2437 0.961 . S
H2445 C2437 0.960 . S
H2446 C2438 0.930 . S
H2447 C2439 0.929 . S
H2448 C2456 0.929 . S
H2449 C2458 0.930 . S
H2450 C2460 0.930 . S
H2451 C2463 0.929 . S
H2452 C2466 0.930 . S
H2453 C2468 0.960 1_556 S
H2454 C2468 0.960 . S
H2455 C2468 0.960 . S
C2456 H2448 0.929 . S
C2456 C2457 1.377 . S
C2456 C2458 1.384 . S
C2457 C2456 1.377 . S
C2457 C2463 1.390 . S
C2458 H2449 0.930 . S
C2458 C2456 1.384 . S
C2458 C2459 1.372 . S
C2459 C2458 1.372 . S
C2459 C2460 1.400 . S
C2459 C2464 1.490 . S
C2460 H2450 0.930 . S
C2460 C2459 1.400 . S
C2460 C2463 1.386 . S
H2461 C2477 0.930 1_556 S
H2462 C2478 0.931 . S
C2463 H2451 0.929 . S
C2463 C2457 1.390 . S
C2463 C2460 1.386 . S
C2464 C2459 1.490 . S
C2464 C2466 1.395 . S
C2464 C2467 1.403 . S
H2465 C2471 0.930 . S
C2466 H2452 0.930 . S
C2466 C2464 1.395 . S
C2466 C2469 1.403 . S
C2467 C2464 1.403 . S
C2467 C2468 1.524 . S
C2467 C2471 1.400 . S
C2468 H2453 0.960 1_554 S
C2468 H2454 0.960 . S
C2468 H2455 0.960 . S
C2468 C2467 1.524 . S
C2469 C2466 1.403 . S
C2469 C2470 1.392 . S
C2469 C2473 1.495 . S
C2470 C2469 1.392 . S
C2470 C2471 1.385 . S
C2470 C2472 1.478 . S
C2471 H2465 0.930 . S
C2471 C2467 1.400 . S
C2471 C2470 1.385 . S
C2472 C2470 1.478 . S
C2472 C2474 1.381 . S
C2472 C2478 1.383 . S
C2473 C2469 1.495 . S
C2473 H2479 0.959 . S
C2473 H2480 0.961 . S
C2473 H2481 0.960 . S
C2474 C2472 1.381 . S
C2474 C2475 1.394 . S
C2474 H2482 0.930 . S
C2475 C2474 1.394 . S
C2475 C2476 1.383 . S
C2475 H2483 0.929 . S
C2476 C2475 1.383 . S
C2476 C2477 1.377 . S
C2477 H2461 0.930 1_554 S
C2477 C2476 1.377 . S
C2477 C2478 1.379 . S
C2478 H2462 0.931 . S
C2478 C2472 1.383 . S
C2478 C2477 1.379 . S
H2479 C2473 0.959 . S
H2480 C2473 0.961 . S
H2481 C2473 0.960 . S
H2482 C2474 0.930 . S
H2483 C2475 0.929 . S
H2484 C2492 0.929 . S
H2485 C2494 0.930 . S
H2486 C2496 0.930 . S
H2487 C2499 0.929 1_556 S
H2488 C2502 0.930 . S
H2489 C2504 0.960 . S
H2490 C2504 0.960 . S
H2491 C2504 0.960 . S
C2492 H2484 0.929 . S
C2492 C2493 1.377 . S
C2492 C2494 1.384 . S
C2493 C2492 1.377 . S
C2493 C2499 1.390 . S
C2494 H2485 0.930 . S
C2494 C2492 1.384 . S
C2494 C2495 1.372 . S
C2495 C2494 1.372 . S
C2495 C2496 1.400 . S
C2495 C2500 1.490 . S
C2496 H2486 0.930 . S
C2496 C2495 1.400 . S
C2496 C2499 1.386 . S
H2497 C2513 0.930 . S
H2498 C2514 0.931 . S
C2499 H2487 0.929 1_554 S
C2499 C2493 1.390 . S
C2499 C2496 1.386 . S
C2500 C2495 1.490 . S
C2500 C2502 1.395 . S
C2500 C2503 1.403 . S
H2501 C2507 0.930 . S
C2502 H2488 0.930 . S
C2502 C2500 1.395 . S
C2502 C2505 1.403 . S
C2503 C2500 1.403 . S
C2503 C2504 1.524 . S
C2503 C2507 1.400 . S
C2504 H2489 0.960 . S
C2504 H2490 0.960 . S
C2504 H2491 0.960 . S
C2504 C2503 1.524 . S
C2505 C2502 1.403 . S
C2505 C2506 1.392 . S
C2505 C2509 1.495 . S
C2506 C2505 1.392 . S
C2506 C2507 1.385 . S
C2506 C2508 1.478 . S
C2507 H2501 0.930 . S
C2507 C2503 1.400 . S
C2507 C2506 1.385 . S
C2508 C2506 1.478 . S
C2508 C2510 1.381 . S
C2508 C2514 1.383 . S
C2509 C2505 1.495 . S
C2509 H2515 0.959 . S
C2509 H2516 0.961 . S
C2509 H2517 0.960 . S
C2510 C2508 1.381 . S
C2510 C2511 1.394 . S
C2510 H2518 0.930 . S
C2511 C2510 1.394 . S
C2511 C2512 1.383 . S
C2511 H2519 0.929 . S
C2512 C2511 1.383 . S
C2512 C2513 1.377 . S
C2513 H2497 0.930 . S
C2513 C2512 1.377 . S
C2513 C2514 1.379 . S
C2514 H2498 0.931 . S
C2514 C2508 1.383 . S
C2514 C2513 1.379 . S
H2515 C2509 0.959 . S
H2516 C2509 0.961 . S
H2517 C2509 0.960 . S
H2518 C2510 0.930 . S
H2519 C2511 0.929 . S
H2520 C2528 0.929 . S
H2521 C2530 0.930 . S
H2522 C2532 0.930 . S
H2523 C2535 0.929 . S
H2524 C2538 0.930 . S
H2525 C2540 0.960 . S
H2526 C2540 0.960 . S
H2527 C2540 0.960 . S
C2528 H2520 0.929 . S
C2528 C2529 1.377 . S
C2528 C2530 1.384 . S
C2529 C2528 1.377 . S
C2529 C2535 1.390 . S
C2530 H2521 0.930 . S
C2530 C2528 1.384 . S
C2530 C2531 1.372 . S
C2531 C2530 1.372 . S
C2531 C2532 1.400 . S
C2531 C2536 1.490 . S
C2532 H2522 0.930 . S
C2532 C2531 1.400 . S
C2532 C2535 1.386 . S
H2533 C2549 0.930 . S
H2534 C2550 0.931 . S
C2535 H2523 0.929 . S
C2535 C2529 1.390 . S
C2535 C2532 1.386 . S
C2536 C2531 1.490 . S
C2536 C2538 1.395 . S
C2536 C2539 1.403 . S
H2537 C2543 0.930 . S
C2538 H2524 0.930 . S
C2538 C2536 1.395 . S
C2538 C2541 1.403 . S
C2539 C2536 1.403 . S
C2539 C2540 1.524 . S
C2539 C2543 1.400 . S
C2540 H2525 0.960 . S
C2540 H2526 0.960 . S
C2540 H2527 0.960 . S
C2540 C2539 1.524 . S
C2541 C2538 1.403 . S
C2541 C2542 1.392 . S
C2541 C2545 1.495 . S
C2542 C2541 1.392 . S
C2542 C2543 1.385 . S
C2542 C2544 1.478 . S
C2543 H2537 0.930 . S
C2543 C2539 1.400 . S
C2543 C2542 1.385 . S
C2544 C2542 1.478 . S
C2544 C2546 1.381 . S
C2544 C2550 1.383 . S
C2545 C2541 1.495 . S
C2545 H2551 0.959 . S
C2545 H2552 0.961 . S
C2545 H2553 0.960 . S
C2546 C2544 1.381 . S
C2546 C2547 1.394 . S
C2546 H2554 0.930 . S
C2547 C2546 1.394 . S
C2547 C2548 1.383 . S
C2547 H2555 0.929 . S
C2548 C2547 1.383 . S
C2548 C2549 1.377 . S
C2549 H2533 0.930 . S
C2549 C2548 1.377 . S
C2549 C2550 1.379 . S
C2550 H2534 0.931 . S
C2550 C2544 1.383 . S
C2550 C2549 1.379 . S
H2551 C2545 0.959 . S
H2552 C2545 0.961 . S
H2553 C2545 0.960 . S
H2554 C2546 0.930 . S
H2555 C2547 0.929 . S
H2556 C2564 0.929 . S
H2557 C2566 0.930 . S
H2558 C2568 0.930 . S
H2559 C2571 0.929 . S
H2560 C2574 0.930 . S
H2561 C2576 0.960 . S
H2562 C2576 0.960 . S
H2563 C2576 0.960 . S
C2564 H2556 0.929 . S
C2564 C2565 1.377 . S
C2564 C2566 1.384 . S
C2565 C2564 1.377 . S
C2565 C2571 1.390 . S
C2566 H2557 0.930 . S
C2566 C2564 1.384 . S
C2566 C2567 1.372 . S
C2567 C2566 1.372 . S
C2567 C2568 1.400 . S
C2567 C2572 1.490 . S
C2568 H2558 0.930 . S
C2568 C2567 1.400 . S
C2568 C2571 1.386 . S
H2569 C2585 0.930 . S
H2570 C2586 0.931 . S
C2571 H2559 0.929 . S
C2571 C2565 1.390 . S
C2571 C2568 1.386 . S
C2572 C2567 1.490 . S
C2572 C2574 1.395 . S
C2572 C2575 1.403 . S
H2573 C2579 0.930 . S
C2574 H2560 0.930 . S
C2574 C2572 1.395 . S
C2574 C2577 1.403 . S
C2575 C2572 1.403 . S
C2575 C2576 1.524 . S
C2575 C2579 1.400 . S
C2576 H2561 0.960 . S
C2576 H2562 0.960 . S
C2576 H2563 0.960 . S
C2576 C2575 1.524 . S
C2577 C2574 1.403 . S
C2577 C2578 1.392 . S
C2577 C2581 1.495 . S
C2578 C2577 1.392 . S
C2578 C2579 1.385 . S
C2578 C2580 1.478 . S
C2579 H2573 0.930 . S
C2579 C2575 1.400 . S
C2579 C2578 1.385 . S
C2580 C2578 1.478 . S
C2580 C2582 1.381 . S
C2580 C2586 1.383 . S
C2581 C2577 1.495 . S
C2581 H2587 0.959 . S
C2581 H2588 0.961 . S
C2581 H2589 0.960 . S
C2582 C2580 1.381 . S
C2582 C2583 1.394 . S
C2582 H2590 0.930 . S
C2583 C2582 1.394 . S
C2583 C2584 1.383 . S
C2583 H2591 0.929 . S
C2584 C2583 1.383 . S
C2584 C2585 1.377 . S
C2585 H2569 0.930 . S
C2585 C2584 1.377 . S
C2585 C2586 1.379 . S
C2586 H2570 0.931 . S
C2586 C2580 1.383 . S
C2586 C2585 1.379 . S
H2587 C2581 0.959 . S
H2588 C2581 0.961 . S
H2589 C2581 0.960 . S
H2590 C2582 0.930 . S
H2591 C2583 0.929 . S
H2592 C2600 0.929 . S
H2593 C2602 0.930 . S
H2594 C2604 0.930 . S
H2595 C2607 0.929 . S
H2596 C2610 0.930 . S
H2597 C2612 0.960 . S
H2598 C2612 0.960 . S
H2599 C2612 0.960 . S
C2600 H2592 0.929 . S
C2600 C2601 1.377 . S
C2600 C2602 1.384 . S
C2601 C2600 1.377 . S
C2601 C2607 1.390 . S
C2602 H2593 0.930 . S
C2602 C2600 1.384 . S
C2602 C2603 1.372 . S
C2603 C2602 1.372 . S
C2603 C2604 1.400 . S
C2603 C2608 1.490 . S
C2604 H2594 0.930 . S
C2604 C2603 1.400 . S
C2604 C2607 1.386 . S
H2605 C2621 0.930 . S
H2606 C2622 0.931 . S
C2607 H2595 0.929 . S
C2607 C2601 1.390 . S
C2607 C2604 1.386 . S
C2608 C2603 1.490 . S
C2608 C2610 1.395 . S
C2608 C2611 1.403 . S
H2609 C2615 0.930 . S
C2610 H2596 0.930 . S
C2610 C2608 1.395 . S
C2610 C2613 1.403 . S
C2611 C2608 1.403 . S
C2611 C2612 1.524 . S
C2611 C2615 1.400 . S
C2612 H2597 0.960 . S
C2612 H2598 0.960 . S
C2612 H2599 0.960 . S
C2612 C2611 1.524 . S
C2613 C2610 1.403 . S
C2613 C2614 1.392 . S
C2613 C2617 1.495 . S
C2614 C2613 1.392 . S
C2614 C2615 1.385 . S
C2614 C2616 1.478 . S
C2615 H2609 0.930 . S
C2615 C2611 1.400 . S
C2615 C2614 1.385 . S
C2616 C2614 1.478 . S
C2616 C2618 1.381 . S
C2616 C2622 1.383 . S
C2617 C2613 1.495 . S
C2617 H2623 0.959 . S
C2617 H2624 0.961 . S
C2617 H2625 0.960 . S
C2618 C2616 1.381 . S
C2618 C2619 1.394 . S
C2618 H2626 0.930 . S
C2619 C2618 1.394 . S
C2619 C2620 1.383 . S
C2619 H2627 0.929 . S
C2620 C2619 1.383 . S
C2620 C2621 1.377 . S
C2621 H2605 0.930 . S
C2621 C2620 1.377 . S
C2621 C2622 1.379 . S
C2622 H2606 0.931 . S
C2622 C2616 1.383 . S
C2622 C2621 1.379 . S
H2623 C2617 0.959 . S
H2624 C2617 0.961 . S
H2625 C2617 0.960 . S
H2626 C2618 0.930 . S
H2627 C2619 0.929 . S
H2628 C2636 0.929 . S
H2629 C2638 0.930 . S
H2630 C2640 0.930 . S
H2631 C2643 0.929 . S
H2632 C2646 0.930 . S
H2633 C2648 0.960 . S
H2634 C2648 0.960 . S
H2635 C2648 0.960 . S
C2636 H2628 0.929 . S
C2636 C2637 1.377 . S
C2636 C2638 1.384 . S
C2637 C2636 1.377 . S
C2637 C2643 1.390 . S
C2638 H2629 0.930 . S
C2638 C2636 1.384 . S
C2638 C2639 1.372 . S
C2639 C2638 1.372 . S
C2639 C2640 1.400 . S
C2639 C2644 1.490 . S
C2640 H2630 0.930 . S
C2640 C2639 1.400 . S
C2640 C2643 1.386 . S
H2641 C2657 0.930 . S
H2642 C2658 0.931 . S
C2643 H2631 0.929 . S
C2643 C2637 1.390 . S
C2643 C2640 1.386 . S
C2644 C2639 1.490 . S
C2644 C2646 1.395 . S
C2644 C2647 1.403 . S
H2645 C2651 0.930 . S
C2646 H2632 0.930 . S
C2646 C2644 1.395 . S
C2646 C2649 1.403 . S
C2647 C2644 1.403 . S
C2647 C2648 1.524 . S
C2647 C2651 1.400 . S
C2648 H2633 0.960 . S
C2648 H2634 0.960 . S
C2648 H2635 0.960 . S
C2648 C2647 1.524 . S
C2649 C2646 1.403 . S
C2649 C2650 1.392 . S
C2649 C2653 1.495 . S
C2650 C2649 1.392 . S
C2650 C2651 1.385 . S
C2650 C2652 1.478 . S
C2651 H2645 0.930 . S
C2651 C2647 1.400 . S
C2651 C2650 1.385 . S
C2652 C2650 1.478 . S
C2652 C2654 1.381 . S
C2652 C2658 1.383 . S
C2653 C2649 1.495 . S
C2653 H2659 0.959 . S
C2653 H2660 0.961 . S
C2653 H2661 0.960 . S
C2654 C2652 1.381 . S
C2654 C2655 1.394 . S
C2654 H2662 0.930 . S
C2655 C2654 1.394 . S
C2655 C2656 1.383 . S
C2655 H2663 0.929 1_556 S
C2656 C2655 1.383 . S
C2656 C2657 1.377 . S
C2657 H2641 0.930 . S
C2657 C2656 1.377 . S
C2657 C2658 1.379 . S
C2658 H2642 0.931 . S
C2658 C2652 1.383 . S
C2658 C2657 1.379 . S
H2659 C2653 0.959 . S
H2660 C2653 0.961 . S
H2661 C2653 0.960 . S
H2662 C2654 0.930 . S
H2663 C2655 0.929 1_554 S
H2664 C2672 0.929 . S
H2665 C2674 0.930 . S
H2666 C2676 0.930 . S
H2667 C2679 0.929 . S
H2668 C2682 0.930 . S
H2669 C2684 0.960 . S
H2670 C2684 0.960 . S
H2671 C2684 0.960 . S
C2672 H2664 0.929 . S
C2672 C2673 1.377 . S
C2672 C2674 1.384 . S
C2673 C2672 1.377 . S
C2673 C2679 1.390 . S
C2674 H2665 0.930 . S
C2674 C2672 1.384 . S
C2674 C2675 1.372 . S
C2675 C2674 1.372 . S
C2675 C2676 1.400 . S
C2675 C2680 1.490 . S
C2676 H2666 0.930 . S
C2676 C2675 1.400 . S
C2676 C2679 1.386 . S
H2677 C2693 0.930 . S
H2678 C2694 0.931 . S
C2679 H2667 0.929 . S
C2679 C2673 1.390 . S
C2679 C2676 1.386 . S
C2680 C2675 1.490 . S
C2680 C2682 1.395 . S
C2680 C2683 1.403 . S
H2681 C2687 0.930 . S
C2682 H2668 0.930 . S
C2682 C2680 1.395 . S
C2682 C2685 1.403 . S
C2683 C2680 1.403 . S
C2683 C2684 1.524 . S
C2683 C2687 1.400 . S
C2684 H2669 0.960 . S
C2684 H2670 0.960 . S
C2684 H2671 0.960 . S
C2684 C2683 1.524 . S
C2685 C2682 1.403 . S
C2685 C2686 1.392 . S
C2685 C2689 1.495 . S
C2686 C2685 1.392 . S
C2686 C2687 1.385 . S
C2686 C2688 1.478 . S
C2687 H2681 0.930 . S
C2687 C2683 1.400 . S
C2687 C2686 1.385 . S
C2688 C2686 1.478 . S
C2688 C2690 1.381 . S
C2688 C2694 1.383 . S
C2689 C2685 1.495 . S
C2689 H2695 0.959 1_556 S
C2689 H2696 0.961 1_556 S
C2689 H2697 0.960 . S
C2690 C2688 1.381 . S
C2690 C2691 1.394 . S
C2690 H2698 0.930 . S
C2691 C2690 1.394 . S
C2691 C2692 1.383 . S
C2691 H2699 0.929 . S
C2692 C2691 1.383 . S
C2692 C2693 1.377 . S
C2693 H2677 0.930 . S
C2693 C2692 1.377 . S
C2693 C2694 1.379 . S
C2694 H2678 0.931 . S
C2694 C2688 1.383 . S
C2694 C2693 1.379 . S
H2695 C2689 0.959 1_554 S
H2696 C2689 0.961 1_554 S
H2697 C2689 0.960 . S
H2698 C2690 0.930 . S
H2699 C2691 0.929 . S
H2700 C2708 0.929 . S
H2701 C2710 0.930 . S
H2702 C2712 0.930 . S
H2703 C2715 0.929 . S
H2704 C2718 0.930 . S
H2705 C2720 0.960 . S
H2706 C2720 0.960 . S
H2707 C2720 0.960 . S
C2708 H2700 0.929 . S
C2708 C2709 1.377 . S
C2708 C2710 1.384 . S
C2709 C2708 1.377 . S
C2709 C2715 1.390 . S
C2710 H2701 0.930 . S
C2710 C2708 1.384 . S
C2710 C2711 1.372 . S
C2711 C2710 1.372 . S
C2711 C2712 1.400 . S
C2711 C2716 1.490 . S
C2712 H2702 0.930 . S
C2712 C2711 1.400 . S
C2712 C2715 1.386 . S
H2713 C2729 0.930 . S
H2714 C2730 0.931 . S
C2715 H2703 0.929 . S
C2715 C2709 1.390 . S
C2715 C2712 1.386 . S
C2716 C2711 1.490 . S
C2716 C2718 1.395 . S
C2716 C2719 1.403 . S
H2717 C2723 0.930 . S
C2718 H2704 0.930 . S
C2718 C2716 1.395 . S
C2718 C2721 1.403 . S
C2719 C2716 1.403 . S
C2719 C2720 1.524 . S
C2719 C2723 1.400 . S
C2720 H2705 0.960 . S
C2720 H2706 0.960 . S
C2720 H2707 0.960 . S
C2720 C2719 1.524 . S
C2721 C2718 1.403 . S
C2721 C2722 1.392 . S
C2721 C2725 1.495 . S
C2722 C2721 1.392 . S
C2722 C2723 1.385 . S
C2722 C2724 1.478 . S
C2723 H2717 0.930 . S
C2723 C2719 1.400 . S
C2723 C2722 1.385 . S
C2724 C2722 1.478 . S
C2724 C2726 1.381 . S
C2724 C2730 1.383 . S
C2725 C2721 1.495 . S
C2725 H2731 0.959 . S
C2725 H2732 0.961 . S
C2725 H2733 0.960 . S
C2726 C2724 1.381 . S
C2726 C2727 1.394 1_556 S
C2726 H2734 0.930 1_556 S
C2727 C2726 1.394 1_554 S
C2727 C2728 1.383 1_554 S
C2727 H2735 0.929 . S
C2728 C2727 1.383 1_556 S
C2728 C2729 1.377 . S
C2729 H2713 0.930 . S
C2729 C2728 1.377 . S
C2729 C2730 1.379 . S
C2730 H2714 0.931 . S
C2730 C2724 1.383 . S
C2730 C2729 1.379 . S
H2731 C2725 0.959 . S
H2732 C2725 0.961 . S
H2733 C2725 0.960 . S
H2734 C2726 0.930 1_554 S
H2735 C2727 0.929 . S
H2736 C2744 0.929 . S
H2737 C2746 0.930 . S
H2738 C2748 0.930 . S
H2739 C2751 0.929 . S
H2740 C2754 0.930 . S
H2741 C2756 0.960 . S
H2742 C2756 0.960 . S
H2743 C2756 0.960 . S
C2744 H2736 0.929 . S
C2744 C2745 1.377 . S
C2744 C2746 1.384 . S
C2745 C2744 1.377 . S
C2745 C2751 1.390 . S
C2746 H2737 0.930 . S
C2746 C2744 1.384 . S
C2746 C2747 1.372 . S
C2747 C2746 1.372 . S
C2747 C2748 1.400 . S
C2747 C2752 1.490 . S
C2748 H2738 0.930 . S
C2748 C2747 1.400 . S
C2748 C2751 1.386 . S
H2749 C2765 0.930 . S
H2750 C2766 0.931 . S
C2751 H2739 0.929 . S
C2751 C2745 1.390 . S
C2751 C2748 1.386 . S
C2752 C2747 1.490 . S
C2752 C2754 1.395 . S
C2752 C2755 1.403 . S
H2753 C2759 0.930 . S
C2754 H2740 0.930 . S
C2754 C2752 1.395 . S
C2754 C2757 1.403 . S
C2755 C2752 1.403 . S
C2755 C2756 1.524 . S
C2755 C2759 1.400 . S
C2756 H2741 0.960 . S
C2756 H2742 0.960 . S
C2756 H2743 0.960 . S
C2756 C2755 1.524 . S
C2757 C2754 1.403 . S
C2757 C2758 1.392 . S
C2757 C2761 1.495 . S
C2758 C2757 1.392 . S
C2758 C2759 1.385 . S
C2758 C2760 1.478 . S
C2759 H2753 0.930 . S
C2759 C2755 1.400 . S
C2759 C2758 1.385 . S
C2760 C2758 1.478 . S
C2760 C2762 1.381 . S
C2760 C2766 1.383 . S
C2761 C2757 1.495 . S
C2761 H2767 0.959 . S
C2761 H2768 0.961 . S
C2761 H2769 0.960 . S
C2762 C2760 1.381 . S
C2762 C2763 1.394 . S
C2762 H2770 0.930 . S
C2763 C2762 1.394 . S
C2763 C2764 1.383 . S
C2763 H2771 0.929 . S
C2764 C2763 1.383 . S
C2764 C2765 1.377 . S
C2765 H2749 0.930 . S
C2765 C2764 1.377 . S
C2765 C2766 1.379 . S
C2766 H2750 0.931 . S
C2766 C2760 1.383 . S
C2766 C2765 1.379 . S
H2767 C2761 0.959 . S
H2768 C2761 0.961 . S
H2769 C2761 0.960 . S
H2770 C2762 0.930 . S
H2771 C2763 0.929 . S
H2772 C2780 0.929 . S
H2773 C2782 0.930 . S
H2774 C2784 0.930 . S
H2775 C2787 0.929 . S
H2776 C2790 0.930 . S
H2777 C2792 0.960 . S
H2778 C2792 0.960 . S
H2779 C2792 0.960 . S
C2780 H2772 0.929 . S
C2780 C2781 1.377 . S
C2780 C2782 1.384 . S
C2781 C2780 1.377 . S
C2781 C2787 1.390 . S
C2782 H2773 0.930 . S
C2782 C2780 1.384 . S
C2782 C2783 1.372 . S
C2783 C2782 1.372 . S
C2783 C2784 1.400 . S
C2783 C2788 1.490 . S
C2784 H2774 0.930 . S
C2784 C2783 1.400 . S
C2784 C2787 1.386 . S
H2785 C2801 0.930 . S
H2786 C2802 0.931 . S
C2787 H2775 0.929 . S
C2787 C2781 1.390 . S
C2787 C2784 1.386 . S
C2788 C2783 1.490 . S
C2788 C2790 1.395 . S
C2788 C2791 1.403 . S
H2789 C2795 0.930 . S
C2790 H2776 0.930 . S
C2790 C2788 1.395 . S
C2790 C2793 1.403 . S
C2791 C2788 1.403 . S
C2791 C2792 1.524 . S
C2791 C2795 1.400 . S
C2792 H2777 0.960 . S
C2792 H2778 0.960 . S
C2792 H2779 0.960 . S
C2792 C2791 1.524 . S
C2793 C2790 1.403 . S
C2793 C2794 1.392 . S
C2793 C2797 1.495 . S
C2794 C2793 1.392 . S
C2794 C2795 1.385 . S
C2794 C2796 1.478 . S
C2795 H2789 0.930 . S
C2795 C2791 1.400 . S
C2795 C2794 1.385 . S
C2796 C2794 1.478 . S
C2796 C2798 1.381 . S
C2796 C2802 1.383 . S
C2797 C2793 1.495 . S
C2797 H2803 0.959 . S
C2797 H2804 0.961 . S
C2797 H2805 0.960 . S
C2798 C2796 1.381 . S
C2798 C2799 1.394 . S
C2798 H2806 0.930 . S
C2799 C2798 1.394 . S
C2799 C2800 1.383 . S
C2799 H2807 0.929 . S
C2800 C2799 1.383 . S
C2800 C2801 1.377 . S
C2801 H2785 0.930 . S
C2801 C2800 1.377 . S
C2801 C2802 1.379 . S
C2802 H2786 0.931 . S
C2802 C2796 1.383 . S
C2802 C2801 1.379 . S
H2803 C2797 0.959 . S
H2804 C2797 0.961 . S
H2805 C2797 0.960 . S
H2806 C2798 0.930 . S
H2807 C2799 0.929 . S
H2808 C2816 0.929 . S
H2809 C2818 0.930 . S
H2810 C2820 0.930 . S
H2811 C2823 0.929 . S
H2812 C2826 0.930 . S
H2813 C2828 0.960 . S
H2814 C2828 0.960 . S
H2815 C2828 0.960 . S
C2816 H2808 0.929 . S
C2816 C2817 1.377 . S
C2816 C2818 1.384 . S
C2817 C2816 1.377 . S
C2817 C2823 1.390 . S
C2818 H2809 0.930 . S
C2818 C2816 1.384 . S
C2818 C2819 1.372 . S
C2819 C2818 1.372 . S
C2819 C2820 1.400 . S
C2819 C2824 1.490 . S
C2820 H2810 0.930 . S
C2820 C2819 1.400 . S
C2820 C2823 1.386 . S
H2821 C2837 0.930 . S
H2822 C2838 0.931 . S
C2823 H2811 0.929 . S
C2823 C2817 1.390 . S
C2823 C2820 1.386 . S
C2824 C2819 1.490 . S
C2824 C2826 1.395 . S
C2824 C2827 1.403 . S
H2825 C2831 0.930 . S
C2826 H2812 0.930 . S
C2826 C2824 1.395 . S
C2826 C2829 1.403 . S
C2827 C2824 1.403 . S
C2827 C2828 1.524 . S
C2827 C2831 1.400 . S
C2828 H2813 0.960 . S
C2828 H2814 0.960 . S
C2828 H2815 0.960 . S
C2828 C2827 1.524 . S
C2829 C2826 1.403 . S
C2829 C2830 1.392 . S
C2829 C2833 1.495 . S
C2830 C2829 1.392 . S
C2830 C2831 1.385 . S
C2830 C2832 1.478 . S
C2831 H2825 0.930 . S
C2831 C2827 1.400 . S
C2831 C2830 1.385 . S
C2832 C2830 1.478 . S
C2832 C2834 1.381 . S
C2832 C2838 1.383 . S
C2833 C2829 1.495 . S
C2833 H2839 0.959 . S
C2833 H2840 0.961 . S
C2833 H2841 0.960 . S
C2834 C2832 1.381 . S
C2834 C2835 1.394 . S
C2834 H2842 0.930 . S
C2835 C2834 1.394 . S
C2835 C2836 1.383 . S
C2835 H2843 0.929 . S
C2836 C2835 1.383 . S
C2836 C2837 1.377 . S
C2837 H2821 0.930 . S
C2837 C2836 1.377 . S
C2837 C2838 1.379 . S
C2838 H2822 0.931 . S
C2838 C2832 1.383 . S
C2838 C2837 1.379 . S
H2839 C2833 0.959 . S
H2840 C2833 0.961 . S
H2841 C2833 0.960 . S
H2842 C2834 0.930 . S
H2843 C2835 0.929 . S
H2844 C2852 0.929 . S
H2845 C2854 0.930 . S
H2846 C2856 0.930 . S
H2847 C2859 0.929 . S
H2848 C2862 0.930 . S
H2849 C2864 0.960 . S
H2850 C2864 0.960 . S
H2851 C2864 0.960 . S
C2852 H2844 0.929 . S
C2852 C2853 1.377 . S
C2852 C2854 1.384 . S
C2853 C2852 1.377 . S
C2853 C2859 1.390 . S
C2854 H2845 0.930 . S
C2854 C2852 1.384 . S
C2854 C2855 1.372 . S
C2855 C2854 1.372 . S
C2855 C2856 1.400 . S
C2855 C2860 1.490 . S
C2856 H2846 0.930 . S
C2856 C2855 1.400 . S
C2856 C2859 1.386 . S
H2857 C2873 0.930 . S
H2858 C2874 0.931 . S
C2859 H2847 0.929 . S
C2859 C2853 1.390 . S
C2859 C2856 1.386 . S
C2860 C2855 1.490 . S
C2860 C2862 1.395 . S
C2860 C2863 1.403 . S
H2861 C2867 0.930 . S
C2862 H2848 0.930 . S
C2862 C2860 1.395 . S
C2862 C2865 1.403 1_455 S
C2863 C2860 1.403 . S
C2863 C2864 1.524 . S
C2863 C2867 1.400 1_455 S
C2864 H2849 0.960 . S
C2864 H2850 0.960 . S
C2864 H2851 0.960 . S
C2864 C2863 1.524 . S
C2865 C2862 1.403 1_655 S
C2865 C2866 1.392 . S
C2865 C2869 1.495 . S
C2866 C2865 1.392 . S
C2866 C2867 1.385 . S
C2866 C2868 1.478 . S
C2867 H2861 0.930 . S
C2867 C2863 1.400 1_655 S
C2867 C2866 1.385 . S
C2868 C2866 1.478 . S
C2868 C2870 1.381 . S
C2868 C2874 1.383 . S
C2869 C2865 1.495 . S
C2869 H2875 0.959 . S
C2869 H2876 0.961 . S
C2869 H2877 0.960 . S
C2870 C2868 1.381 . S
C2870 C2871 1.394 . S
C2870 H2878 0.930 . S
C2871 C2870 1.394 . S
C2871 C2872 1.383 . S
C2871 H2879 0.929 . S
C2872 C2871 1.383 . S
C2872 C2873 1.377 . S
C2873 H2857 0.930 . S
C2873 C2872 1.377 . S
C2873 C2874 1.379 . S
C2874 H2858 0.931 . S
C2874 C2868 1.383 . S
C2874 C2873 1.379 . S
H2875 C2869 0.959 . S
H2876 C2869 0.961 . S
H2877 C2869 0.960 . S
H2878 C2870 0.930 . S
H2879 C2871 0.929 . S
H2880 C2888 0.929 . S
H2881 C2890 0.930 . S
H2882 C2892 0.930 . S
H2883 C2895 0.929 . S
H2884 C2898 0.930 . S
H2885 C2900 0.960 . S
H2886 C2900 0.960 . S
H2887 C2900 0.960 . S
C2888 H2880 0.929 . S
C2888 C2889 1.377 . S
C2888 C2890 1.384 . S
C2889 C2888 1.377 . S
C2889 C2895 1.390 . S
C2890 H2881 0.930 . S
C2890 C2888 1.384 . S
C2890 C2891 1.372 . S
C2891 C2890 1.372 . S
C2891 C2892 1.400 . S
C2891 C2896 1.490 . S
C2892 H2882 0.930 . S
C2892 C2891 1.400 . S
C2892 C2895 1.386 . S
H2893 C2909 0.930 . S
H2894 C2910 0.931 . S
C2895 H2883 0.929 . S
C2895 C2889 1.390 . S
C2895 C2892 1.386 . S
C2896 C2891 1.490 . S
C2896 C2898 1.395 . S
C2896 C2899 1.403 . S
H2897 C2903 0.930 . S
C2898 H2884 0.930 . S
C2898 C2896 1.395 . S
C2898 C2901 1.403 . S
C2899 C2896 1.403 . S
C2899 C2900 1.524 . S
C2899 C2903 1.400 . S
C2900 H2885 0.960 . S
C2900 H2886 0.960 . S
C2900 H2887 0.960 . S
C2900 C2899 1.524 . S
C2901 C2898 1.403 . S
C2901 C2902 1.392 . S
C2901 C2905 1.495 . S
C2902 C2901 1.392 . S
C2902 C2903 1.385 . S
C2902 C2904 1.478 . S
C2903 H2897 0.930 . S
C2903 C2899 1.400 . S
C2903 C2902 1.385 . S
C2904 C2902 1.478 . S
C2904 C2906 1.381 . S
C2904 C2910 1.383 . S
C2905 C2901 1.495 . S
C2905 H2911 0.959 . S
C2905 H2912 0.961 . S
C2905 H2913 0.960 . S
C2906 C2904 1.381 . S
C2906 C2907 1.394 . S
C2906 H2914 0.930 . S
C2907 C2906 1.394 . S
C2907 C2908 1.383 . S
C2907 H2915 0.929 . S
C2908 C2907 1.383 . S
C2908 C2909 1.377 . S
C2909 H2893 0.930 . S
C2909 C2908 1.377 . S
C2909 C2910 1.379 . S
C2910 H2894 0.931 . S
C2910 C2904 1.383 . S
C2910 C2909 1.379 . S
H2911 C2905 0.959 . S
H2912 C2905 0.961 . S
H2913 C2905 0.960 . S
H2914 C2906 0.930 . S
H2915 C2907 0.929 . S
H2916 C2924 0.929 . S
H2917 C2926 0.930 . S
H2918 C2928 0.930 . S
H2919 C2931 0.929 . S
H2920 C2934 0.930 . S
H2921 C2936 0.960 1_545 S
H2922 C2936 0.960 . S
H2923 C2936 0.960 . S
C2924 H2916 0.929 . S
C2924 C2925 1.377 . S
C2924 C2926 1.384 . S
C2925 C2924 1.377 . S
C2925 C2931 1.390 . S
C2926 H2917 0.930 . S
C2926 C2924 1.384 . S
C2926 C2927 1.372 . S
C2927 C2926 1.372 . S
C2927 C2928 1.400 . S
C2927 C2932 1.490 . S
C2928 H2918 0.930 . S
C2928 C2927 1.400 . S
C2928 C2931 1.386 . S
H2929 C2945 0.930 . S
H2930 C2946 0.931 . S
C2931 H2919 0.929 . S
C2931 C2925 1.390 . S
C2931 C2928 1.386 . S
C2932 C2927 1.490 . S
C2932 C2934 1.395 . S
C2932 C2935 1.403 . S
H2933 C2939 0.930 . S
C2934 H2920 0.930 . S
C2934 C2932 1.395 . S
C2934 C2937 1.403 1_565 S
C2935 C2932 1.403 . S
C2935 C2936 1.524 . S
C2935 C2939 1.400 1_565 S
C2936 H2921 0.960 1_565 S
C2936 H2922 0.960 . S
C2936 H2923 0.960 . S
C2936 C2935 1.524 . S
C2937 C2934 1.403 1_545 S
C2937 C2938 1.392 . S
C2937 C2941 1.495 . S
C2938 C2937 1.392 . S
C2938 C2939 1.385 . S
C2938 C2940 1.478 . S
C2939 H2933 0.930 . S
C2939 C2935 1.400 1_545 S
C2939 C2938 1.385 . S
C2940 C2938 1.478 . S
C2940 C2942 1.381 . S
C2940 C2946 1.383 . S
C2941 C2937 1.495 . S
C2941 H2947 0.959 1_545 S
C2941 H2948 0.961 . S
C2941 H2949 0.960 . S
C2942 C2940 1.381 . S
C2942 C2943 1.394 . S
C2942 H2950 0.930 . S
C2943 C2942 1.394 . S
C2943 C2944 1.383 . S
C2943 H2951 0.929 . S
C2944 C2943 1.383 . S
C2944 C2945 1.377 . S
C2945 H2929 0.930 . S
C2945 C2944 1.377 . S
C2945 C2946 1.379 . S
C2946 H2930 0.931 . S
C2946 C2940 1.383 . S
C2946 C2945 1.379 . S
H2947 C2941 0.959 1_565 S
H2948 C2941 0.961 . S
H2949 C2941 0.960 . S
H2950 C2942 0.930 . S
H2951 C2943 0.929 . S
H2952 C2960 0.929 . S
H2953 C2962 0.930 . S
H2954 C2964 0.930 . S
H2955 C2967 0.929 . S
H2956 C2970 0.930 . S
H2957 C2972 0.960 . S
H2958 C2972 0.960 . S
H2959 C2972 0.960 . S
C2960 H2952 0.929 . S
C2960 C2961 1.377 . S
C2960 C2962 1.384 . S
C2961 C2960 1.377 . S
C2961 C2967 1.390 . S
C2962 H2953 0.930 . S
C2962 C2960 1.384 . S
C2962 C2963 1.372 . S
C2963 C2962 1.372 . S
C2963 C2964 1.400 . S
C2963 C2968 1.490 . S
C2964 H2954 0.930 . S
C2964 C2963 1.400 . S
C2964 C2967 1.386 . S
H2965 C2981 0.930 . S
H2966 C2982 0.931 . S
C2967 H2955 0.929 . S
C2967 C2961 1.390 . S
C2967 C2964 1.386 . S
C2968 C2963 1.490 . S
C2968 C2970 1.395 . S
C2968 C2971 1.403 . S
H2969 C2975 0.930 . S
C2970 H2956 0.930 . S
C2970 C2968 1.395 . S
C2970 C2973 1.403 1_545 S
C2971 C2968 1.403 . S
C2971 C2972 1.524 . S
C2971 C2975 1.400 1_545 S
C2972 H2957 0.960 . S
C2972 H2958 0.960 . S
C2972 H2959 0.960 . S
C2972 C2971 1.524 . S
C2973 C2970 1.403 1_565 S
C2973 C2974 1.392 . S
C2973 C2977 1.495 . S
C2974 C2973 1.392 . S
C2974 C2975 1.385 . S
C2974 C2976 1.478 . S
C2975 H2969 0.930 . S
C2975 C2971 1.400 1_565 S
C2975 C2974 1.385 . S
C2976 C2974 1.478 . S
C2976 C2978 1.381 . S
C2976 C2982 1.383 . S
C2977 C2973 1.495 . S
C2977 H2983 0.959 . S
C2977 H2984 0.961 . S
C2977 H2985 0.960 . S
C2978 C2976 1.381 . S
C2978 C2979 1.394 . S
C2978 H2986 0.930 . S
C2979 C2978 1.394 . S
C2979 C2980 1.383 . S
C2979 H2987 0.929 . S
C2980 C2979 1.383 . S
C2980 C2981 1.377 . S
C2981 H2965 0.930 . S
C2981 C2980 1.377 . S
C2981 C2982 1.379 . S
C2982 H2966 0.931 . S
C2982 C2976 1.383 . S
C2982 C2981 1.379 . S
H2983 C2977 0.959 . S
H2984 C2977 0.961 . S
H2985 C2977 0.960 . S
H2986 C2978 0.930 . S
H2987 C2979 0.929 . S
H2988 C2996 0.929 . S
H2989 C2998 0.930 . S
H2990 C3000 0.930 . S
H2991 C3003 0.929 . S
H2992 C3006 0.930 . S
H2993 C3008 0.960 . S
H2994 C3008 0.960 . S
H2995 C3008 0.960 . S
C2996 H2988 0.929 . S
C2996 C2997 1.377 . S
C2996 C2998 1.384 . S
C2997 C2996 1.377 . S
C2997 C3003 1.390 . S
C2998 H2989 0.930 . S
C2998 C2996 1.384 . S
C2998 C2999 1.372 . S
C2999 C2998 1.372 . S
C2999 C3000 1.400 . S
C2999 C3004 1.490 . S
C3000 H2990 0.930 . S
C3000 C2999 1.400 . S
C3000 C3003 1.386 . S
H3001 C3017 0.930 . S
H3002 C3018 0.931 . S
C3003 H2991 0.929 . S
C3003 C2997 1.390 . S
C3003 C3000 1.386 . S
C3004 C2999 1.490 . S
C3004 C3006 1.395 . S
C3004 C3007 1.403 . S
H3005 C3011 0.930 . S
C3006 H2992 0.930 . S
C3006 C3004 1.395 . S
C3006 C3009 1.403 1_455 S
C3007 C3004 1.403 . S
C3007 C3008 1.524 . S
C3007 C3011 1.400 1_455 S
C3008 H2993 0.960 . S
C3008 H2994 0.960 . S
C3008 H2995 0.960 . S
C3008 C3007 1.524 . S
C3009 C3006 1.403 1_655 S
C3009 C3010 1.392 . S
C3009 C3013 1.495 . S
C3010 C3009 1.392 . S
C3010 C3011 1.385 . S
C3010 C3012 1.478 . S
C3011 H3005 0.930 . S
C3011 C3007 1.400 1_655 S
C3011 C3010 1.385 . S
C3012 C3010 1.478 . S
C3012 C3014 1.381 . S
C3012 C3018 1.383 . S
C3013 C3009 1.495 . S
C3013 H3019 0.959 . S
C3013 H3020 0.961 . S
C3013 H3021 0.960 . S
C3014 C3012 1.381 . S
C3014 C3015 1.394 . S
C3014 H3022 0.930 . S
C3015 C3014 1.394 . S
C3015 C3016 1.383 . S
C3015 H3023 0.929 . S
C3016 C3015 1.383 . S
C3016 C3017 1.377 . S
C3017 H3001 0.930 . S
C3017 C3016 1.377 . S
C3017 C3018 1.379 . S
C3018 H3002 0.931 . S
C3018 C3012 1.383 . S
C3018 C3017 1.379 . S
H3019 C3013 0.959 . S
H3020 C3013 0.961 . S
H3021 C3013 0.960 . S
H3022 C3014 0.930 . S
H3023 C3015 0.929 . S
H3024 C3032 0.929 . S
H3025 C3034 0.930 . S
H3026 C3036 0.930 . S
H3027 C3039 0.929 . S
H3028 C3042 0.930 . S
H3029 C3044 0.960 . S
H3030 C3044 0.960 . S
H3031 C3044 0.960 . S
C3032 H3024 0.929 . S
C3032 C3033 1.377 . S
C3032 C3034 1.384 . S
C3033 C3032 1.377 . S
C3033 C3039 1.390 . S
C3034 H3025 0.930 . S
C3034 C3032 1.384 . S
C3034 C3035 1.372 . S
C3035 C3034 1.372 . S
C3035 C3036 1.400 . S
C3035 C3040 1.490 . S
C3036 H3026 0.930 . S
C3036 C3035 1.400 . S
C3036 C3039 1.386 . S
H3037 C3053 0.930 . S
H3038 C3054 0.931 . S
C3039 H3027 0.929 . S
C3039 C3033 1.390 . S
C3039 C3036 1.386 . S
C3040 C3035 1.490 . S
C3040 C3042 1.395 . S
C3040 C3043 1.403 . S
H3041 C3047 0.930 . S
C3042 H3028 0.930 . S
C3042 C3040 1.395 . S
C3042 C3045 1.403 . S
C3043 C3040 1.403 . S
C3043 C3044 1.524 . S
C3043 C3047 1.400 . S
C3044 H3029 0.960 . S
C3044 H3030 0.960 . S
C3044 H3031 0.960 . S
C3044 C3043 1.524 . S
C3045 C3042 1.403 . S
C3045 C3046 1.392 . S
C3045 C3049 1.495 . S
C3046 C3045 1.392 . S
C3046 C3047 1.385 . S
C3046 C3048 1.478 . S
C3047 H3041 0.930 . S
C3047 C3043 1.400 . S
C3047 C3046 1.385 . S
C3048 C3046 1.478 . S
C3048 C3050 1.381 . S
C3048 C3054 1.383 . S
C3049 C3045 1.495 . S
C3049 H3055 0.959 . S
C3049 H3056 0.961 . S
C3049 H3057 0.960 . S
C3050 C3048 1.381 . S
C3050 C3051 1.394 . S
C3050 H3058 0.930 . S
C3051 C3050 1.394 . S
C3051 C3052 1.383 . S
C3051 H3059 0.929 . S
C3052 C3051 1.383 . S
C3052 C3053 1.377 . S
C3053 H3037 0.930 . S
C3053 C3052 1.377 . S
C3053 C3054 1.379 . S
C3054 H3038 0.931 . S
C3054 C3048 1.383 . S
C3054 C3053 1.379 . S
H3055 C3049 0.959 . S
H3056 C3049 0.961 . S
H3057 C3049 0.960 . S
H3058 C3050 0.930 . S
H3059 C3051 0.929 . S
C477 C39 1.148 . S
C496 C0 1.136 . S
C513 C52 1.150 . S
C532 C13 1.125 . S
C549 C65 1.144 . S
C568 C26 1.171 . S
C585 C78 1.147 . S
C604 C117 1.119 . S
C621 C91 1.152 . S
C640 C130 1.133 . S
C657 C143 1.153 . S
C676 C104 1.134 . S
C693 C156 1.120 . S
C712 C195 1.148 . S
C729 C169 1.119 . S
C748 C208 1.144 . S
C765 C182 1.129 . S
C784 C221 1.105 . S
C801 C234 1.121 . S
C820 C273 1.100 . S
C837 C286 1.123 . S
C856 C247 1.127 . S
C873 C260 1.115 . S
C892 C299 1.089 . S
C909 C312 1.111 . S
C928 C351 1.135 . S
C945 C325 1.115 . S
C964 C364 1.103 . S
C981 C377 1.120 . S
C1000 C338 1.088 . S
C1017 C429 1.118 . S
C1036 C390 1.113 . S
C1053 C442 1.126 . S
C1072 C403 1.144 . S
C1089 C455 1.117 . S
C1108 C416 1.121 . S
C1125 C151 1.225 . S
C1144 C5 1.188 . S
C1161 C18 1.169 . S
C1180 C125 1.203 . S
C1197 C31 1.182 . S
C1216 C138 1.240 . S
C1233 C99 1.243 . S
C1252 C44 1.202 . S
C1269 C57 1.197 . S
C1288 C112 1.259 . S
C1305 C86 1.236 . S
C1324 C70 1.164 . S
C1341 C83 1.175 . S
C1360 C73 1.230 . S
C1377 C96 1.178 . S
C1396 C47 1.196 . S
C1413 C60 1.225 . S
C1432 C109 1.174 . S
C1449 C21 1.243 . S
C1468 C122 1.148 . S
C1485 C34 1.237 . S
C1504 C135 1.182 . S
C1521 C148 1.183 . S
C1540 C8 1.259 . S
C1557 C161 1.113 . S
C1576 C307 1.133 . S
C1593 C281 1.167 . S
C1612 C174 1.154 . S
C1629 C294 1.169 . S
C1648 C187 1.152 . S
C1665 C200 1.163 . S
C1684 C255 1.202 . S
C1701 C268 1.214 . S
C1720 C213 1.164 . S
C1737 C226 1.176 . S
C1756 C242 1.233 . S
C1773 C239 1.170 . S
C1792 C229 1.181 . S
C1809 C252 1.156 . S
C1828 C203 1.204 . S
C1845 C216 1.204 . S
C1864 C265 1.137 . S
C1881 C177 1.257 . S
C1900 C278 1.252 . S
C1917 C190 1.265 . S
C1936 C291 1.198 . S
C1953 C304 1.217 . S
C1972 C164 1.267 . S
C1989 C463 1.209 . S
C2008 C317 1.188 . S
C2025 C330 1.157 . S
C2044 C437 1.195 . S
C2061 C343 1.167 . S
C2080 C450 1.210 . S
C2097 C356 1.214 . S
C2116 C411 1.256 . S
C2133 C424 1.261 . S
C2152 C369 1.204 . S
C2169 C382 1.209 . S
C2188 C398 1.255 . S
C2205 C385 1.160 . S
C2224 C395 1.160 . S
C2241 C359 1.161 . S
C2260 C408 1.158 . S
C2277 C372 1.159 . S
C2296 C421 1.140 . S
C2313 C333 1.211 . S
C2332 C434 1.200 . S
C2349 C346 1.217 . S
C2368 C447 1.130 . S
C2385 C320 1.218 . S
C2404 C460 1.135 . S
C2421 C387 1.367 . S
C2440 C10 1.371 . S
C2457 C23 1.362 . S
C2476 C361 1.382 . S
C2493 C374 1.369 . S
C2512 C36 1.349 . S
C2529 C49 1.369 . S
C2548 C179 1.356 . S
C2565 C192 1.365 . S
C2584 C62 1.377 . S
C2601 C75 1.363 . S
C2620 C166 1.376 . S
C2637 C88 1.369 . S
C2656 C309 1.383 . S
C2673 C283 1.370 . S
C2692 C101 1.379 . S
C2709 C114 1.366 . S
C2728 C296 1.384 . S
C2745 C127 1.362 . S
C2764 C413 1.359 . S
C2781 C140 1.363 . S
C2800 C426 1.374 . S
C2817 C400 1.366 . S
C2836 C153 1.343 . S
C2853 C335 1.351 . S
C2872 C205 1.370 . S
C2889 C348 1.357 . S
C2908 C218 1.337 . S
C2925 C322 1.359 . S
C2944 C231 1.337 . S
C2961 C244 1.357 . S
C2980 C465 1.340 . S
C2997 C439 1.356 . S
C3016 C257 1.335 . S
C3033 C270 1.354 . S
C3052 C452 1.369 . S
