# Generated by pormake.
# Topology bcu, (8)-cn, num edge types: 1
# Building blocks:
#     Node 0, Type 0, BuildingBlock: TAGTUT_clean_sbu_3, # of connection points: 8
#     Node 1, Type 0, BuildingBlock: TAGTUT_clean_sbu_3, # of connection points: 8
#     Edge 2, Type (0, 0), BuildingBlock: MIFKUJ_clean_linker_0, # of connection points: 2
#     Edge 3, Type (0, 0), BuildingBlock: MIFKUJ_clean_linker_0, # of connection points: 2
#     Edge 4, Type (0, 0), BuildingBlock: MIFKUJ_clean_linker_0, # of connection points: 2
#     Edge 5, Type (0, 0), BuildingBlock: MIFKUJ_clean_linker_0, # of connection points: 2
#     Edge 6, Type (0, 0), BuildingBlock: MIFKUJ_clean_linker_0, # of connection points: 2
#     Edge 7, Type (0, 0), BuildingBlock: MIFKUJ_clean_linker_0, # of connection points: 2
#     Edge 8, Type (0, 0), BuildingBlock: MIFKUJ_clean_linker_0, # of connection points: 2
#     Edge 9, Type (0, 0), BuildingBlock: MIFKUJ_clean_linker_0, # of connection points: 2
# Relax obj value: 0.016
# Max RMSD: 0.069
# Mean RMSD: 0.069
data_MOF--net-bcu--node1-TAGTUT_clean_sbu_3--edge1-MIFKUJ_clean_linker_0
_symmetry_space_group_name_H-M    P1
_symmetry_Int_Tables_number       1
_symmetry_cell_setting            triclinic
loop_
_symmetry_equiv_pos_as_xyz
'x, y, z'
_cell_length_a     24.22726
_cell_length_b     24.437601
_cell_length_c     26.85088
_cell_angle_alpha  91.765252
_cell_angle_beta   88.427401
_cell_angle_gamma 105.05934
loop_
_atom_site_label
_atom_site_type_symbol
_atom_site_fract_x
_atom_site_fract_y
_atom_site_fract_z
_atom_type_partial_charge
C0 C 0.11384 0.07975 0.02778 0.0
C1 C 0.14164 0.88015 0.0606 0.0
C2 C 0.06818 0.83525 0.91384 0.0
Mg3 Mg 0.01862 0.11963 0.96781 0.0
Mg4 Mg 0.89135 0.0362 0.94918 0.0
O5 O 0.96982 0.04445 0.94331 0.0
Mg6 Mg 1.00749 0.99119 0.9757 0.0
O7 O 0.05199 0.94326 0.00694 0.0
Mg8 Mg 0.12564 0.96517 0.96729 0.0
Mg9 Mg 0.02169 0.86544 0.01482 0.0
C10 C 0.89367 0.90863 0.92396 0.0
O11 O 0.93848 0.96396 0.03723 0.0
O12 O 0.97245 0.16122 0.90937 0.0
O13 O 0.93907 0.87178 0.04365 0.0
O14 O 0.95263 0.13266 0.02898 0.0
O15 O 0.8881 0.09823 0.89515 0.0
O16 O 0.8708 0.06591 0.02121 0.0
O17 O 0.07806 0.01146 0.91522 0.0
O18 O 0.08297 0.10409 0.90963 0.0
C19 C 0.10028 0.06028 0.89697 0.0
C20 C 0.9249 0.14519 0.88611 0.0
O21 O 0.94749 0.9173 0.9321 0.0
O22 O 0.16346 0.91821 0.02833 0.0
O23 O 0.86633 0.94676 0.93149 0.0
O24 O 0.10454 0.88355 0.91725 0.0
O25 O 0.088 0.85545 0.06242 0.0
O26 O 0.0285 0.8196 0.94647 0.0
O27 O 0.06018 0.06781 0.01948 0.0
O28 O 0.14458 0.04637 0.01407 0.0
C29 C 0.90166 0.109 0.0441 0.0
C30 C 0.91637 0.91331 0.05231 0.0
C31 C 0.59541 0.57889 0.56232 0.0
C32 C 0.67123 0.40256 0.52371 0.0
C33 C 0.60401 0.40515 0.37709 0.0
Mg34 Mg 0.49025 0.62012 0.51742 0.0
Mg35 Mg 0.37655 0.52681 0.47701 0.0
O36 O 0.45596 0.55378 0.47237 0.0
Mg37 Mg 0.50694 0.50339 0.48443 0.0
O38 O 0.56348 0.45901 0.49728 0.0
Mg39 Mg 0.63475 0.50949 0.46708 0.0
Mg40 Mg 0.54917 0.38215 0.48021 0.0
C41 C 0.40925 0.42886 0.41095 0.0
O42 O 0.44172 0.44005 0.53289 0.0
O43 O 0.43447 0.66814 0.47398 0.0
O44 O 0.46318 0.35736 0.51164 0.0
O45 O 0.41855 0.59591 0.57806 0.0
O46 O 0.35947 0.60027 0.44527 0.0
O47 O 0.34812 0.52285 0.55344 0.0
O48 O 0.57566 0.56005 0.43451 0.0
O49 O 0.56069 0.64329 0.45901 0.0
C50 C 0.58815 0.6142 0.43282 0.0
C51 C 0.3882 0.65228 0.44878 0.0
O52 O 0.46308 0.44612 0.41964 0.0
O53 O 0.68425 0.45321 0.50688 0.0
O54 O 0.3715 0.45062 0.43229 0.0
O55 O 0.63237 0.4529 0.39535 0.0
O56 O 0.62153 0.36843 0.51821 0.0
O57 O 0.56387 0.37247 0.402 0.0
O58 O 0.54282 0.56214 0.55038 0.0
O59 O 0.63485 0.56335 0.5376 0.0
C60 C 0.37086 0.55971 0.58652 0.0
C61 C 0.4307 0.38558 0.53283 0.0
H62 H 0.22085 0.14503 0.01212 0.0
H63 H 0.27723 0.21357 0.07126 0.0
H64 H 0.128 0.19658 0.16707 0.0
H65 H 0.0709 0.12889 0.10705 0.0
H66 H 0.19758 0.30286 0.172 0.0
H67 H 0.21605 0.11196 0.18119 0.0
H68 H 0.23628 0.0235 0.14872 0.0
H69 H 0.40821 0.11462 0.11075 0.0
H70 H 0.38877 0.20379 0.1425 0.0
H71 H 0.30539 0.35408 0.40804 0.0
H72 H 0.26231 0.29748 0.33609 0.0
H73 H 0.42252 0.34815 0.2544 0.0
H74 H 0.46648 0.40514 0.32696 0.0
H75 H 0.35561 0.23178 0.23667 0.0
H76 H 0.33537 0.42272 0.23768 0.0
H77 H 0.31156 0.50677 0.27634 0.0
H78 H 0.13806 0.41036 0.30056 0.0
H79 H 0.16108 0.32545 0.26285 0.0
C80 C 0.19977 0.15732 0.04512 0.0
C81 C 0.14202 0.13128 0.05578 0.0
C82 C 0.232 0.19618 0.07886 0.0
C83 C 0.20708 0.20852 0.12407 0.0
C84 C 0.148 0.18698 0.13246 0.0
C85 C 0.11542 0.14857 0.09823 0.0
C86 C 0.24358 0.23851 0.16463 0.0
C87 C 0.23198 0.28727 0.18624 0.0
C88 C 0.28895 0.21829 0.18265 0.0
C89 C 0.30075 0.16467 0.16363 0.0
C90 C 0.25803 0.11322 0.16554 0.0
C91 C 0.26938 0.06293 0.14736 0.0
C92 C 0.32347 0.06348 0.12758 0.0
C93 C 0.36634 0.11429 0.12604 0.0
C94 C 0.35519 0.16471 0.14413 0.0
C95 C 0.33183 0.35228 0.37512 0.0
C96 C 0.38879 0.38491 0.37242 0.0
C97 C 0.30718 0.32 0.33416 0.0
C98 C 0.33895 0.32022 0.28981 0.0
C99 C 0.39738 0.34824 0.28838 0.0
C100 C 0.42236 0.38053 0.32973 0.0
C101 C 0.30913 0.29564 0.24417 0.0
C102 C 0.32188 0.24786 0.22174 0.0
C103 C 0.26431 0.31626 0.22583 0.0
C104 C 0.25009 0.3676 0.24772 0.0
C105 C 0.29223 0.41934 0.25154 0.0
C106 C 0.27887 0.46715 0.27327 0.0
C107 C 0.22336 0.46389 0.29098 0.0
C108 C 0.18106 0.41283 0.28686 0.0
C109 C 0.19423 0.36486 0.26526 0.0
H110 H 0.21312 0.50095 0.30781 0.0
H111 H 0.33223 0.02452 0.11358 0.0
H112 H 0.94186 0.2154 0.08518 0.0
H113 H 0.8897 0.26698 0.13979 0.0
H114 H 0.74807 0.11789 0.14865 0.0
H115 H 0.79948 0.06631 0.09299 0.0
H116 H 0.71029 0.20594 0.12807 0.0
H117 H 0.83644 0.16875 0.24917 0.0
H118 H 0.92908 0.16683 0.28387 0.0
H119 H 0.98594 0.34823 0.27763 0.0
H120 H 0.89384 0.35119 0.24228 0.0
H121 H 0.5602 0.30219 0.33065 0.0
H122 H 0.60956 0.25472 0.26994 0.0
H123 H 0.74705 0.40696 0.25849 0.0
H124 H 0.69852 0.4546 0.32016 0.0
H125 H 0.787 0.31863 0.27927 0.0
H126 H 0.65716 0.35431 0.15997 0.0
H127 H 0.56262 0.35388 0.12794 0.0
H128 H 0.51057 0.17228 0.13382 0.0
H129 H 0.60458 0.17164 0.16646 0.0
C130 C 0.90011 0.19313 0.09953 0.0
C131 C 0.8748 0.13673 0.08446 0.0
C132 C 0.87025 0.22277 0.13082 0.0
C133 C 0.81484 0.1964 0.14842 0.0
C134 C 0.79056 0.13931 0.13528 0.0
C135 C 0.8202 0.10976 0.10367 0.0
C136 C 0.78109 0.22921 0.17819 0.0
C137 C 0.72677 0.22997 0.16154 0.0
C138 C 0.80304 0.26174 0.22116 0.0
C139 C 0.85842 0.26013 0.24261 0.0
C140 C 0.86885 0.2082 0.25484 0.0
C141 C 0.92123 0.20694 0.2747 0.0
C142 C 0.96343 0.25737 0.28282 0.0
C143 C 0.95324 0.3092 0.27125 0.0
C144 C 0.90093 0.3107 0.25136 0.0
C145 C 0.60022 0.32622 0.31433 0.0
C146 C 0.62567 0.3821 0.33091 0.0
C147 C 0.62843 0.29891 0.27945 0.0
C148 C 0.68226 0.32711 0.25982 0.0
C149 C 0.70576 0.3842 0.27344 0.0
C150 C 0.67767 0.41154 0.30847 0.0
C151 C 0.71632 0.29552 0.22908 0.0
C152 C 0.77065 0.29486 0.24565 0.0
C153 C 0.69417 0.26276 0.18629 0.0
C154 C 0.63783 0.26298 0.16602 0.0
C155 C 0.62545 0.3143 0.15472 0.0
C156 C 0.57196 0.31424 0.1364 0.0
C157 C 0.53058 0.26309 0.12893 0.0
C158 C 0.54265 0.21187 0.13963 0.0
C159 C 0.59608 0.21169 0.15796 0.0
H160 H 0.48922 0.26316 0.11473 0.0
H161 H 1.00397 0.2563 0.29817 0.0
H162 H 0.82749 0.82116 0.04465 0.0
H163 H 0.75796 0.78433 0.11036 0.0
H164 H 0.8188 0.93947 0.19657 0.0
H165 H 0.88916 0.97658 0.13019 0.0
H166 H 0.83521 0.84972 0.24237 0.0
H167 H 0.67695 0.8924 0.16835 0.0
H168 H 0.61026 0.89954 0.10264 0.0
H169 H 0.56177 0.7184 0.08365 0.0
H170 H 0.62873 0.71009 0.14874 0.0
H171 H 0.65447 0.72108 0.44362 0.0
H172 H 0.70626 0.78111 0.37773 0.0
H173 H 0.66776 0.63847 0.27407 0.0
H174 H 0.6153 0.5778 0.34032 0.0
H175 H 0.63456 0.73274 0.2421 0.0
H176 H 0.80154 0.69231 0.30871 0.0
H177 H 0.86839 0.68532 0.37436 0.0
H178 H 0.90012 0.86389 0.40641 0.0
H179 H 0.8328 0.87182 0.34138 0.0
C180 C 0.82441 0.84826 0.07678 0.0
C181 C 0.86406 0.90104 0.08317 0.0
C182 C 0.78436 0.82739 0.11418 0.0
C183 C 0.78352 0.85899 0.15853 0.0
C184 C 0.81894 0.91448 0.16256 0.0
C185 C 0.85889 0.93569 0.12471 0.0
C186 C 0.75557 0.82918 0.20321 0.0
C187 C 0.79081 0.82541 0.24294 0.0
C188 C 0.69829 0.79596 0.20301 0.0
C189 C 0.65824 0.80067 0.16336 0.0
C190 C 0.65249 0.85408 0.14989 0.0
C191 C 0.61453 0.85833 0.11278 0.0
C192 C 0.58191 0.80946 0.08891 0.0
C193 C 0.58709 0.75622 0.10216 0.0
C194 C 0.62498 0.75171 0.13924 0.0
C195 C 0.65831 0.70216 0.40708 0.0
C196 C 0.63072 0.64502 0.39679 0.0
C197 C 0.68785 0.73649 0.36954 0.0
C198 C 0.69034 0.71422 0.32111 0.0
C199 C 0.66589 0.65629 0.31133 0.0
C200 C 0.6366 0.62163 0.34917 0.0
C201 C 0.71465 0.75266 0.28023 0.0
C202 C 0.67865 0.75785 0.24157 0.0
C203 C 0.77123 0.78726 0.2813 0.0
C204 C 0.81163 0.78254 0.32053 0.0
C205 C 0.82234 0.73 0.33008 0.0
C206 C 0.86042 0.72588 0.36711 0.0
C207 C 0.88836 0.7741 0.39464 0.0
C208 C 0.87838 0.82656 0.38511 0.0
C209 C 0.8403 0.8309 0.34814 0.0
H210 H 0.91786 0.77083 0.42327 0.0
H211 H 0.55255 0.81285 0.06021 0.0
H212 H 0.25406 0.93313 0.08269 0.0
H213 H 0.30919 0.91331 0.15242 0.0
H214 H 0.16632 0.77585 0.19576 0.0
H215 H 0.11147 0.79513 0.1272 0.0
H216 H 0.20741 0.84655 0.27433 0.0
H217 H 0.28428 0.75233 0.13585 0.0
H218 H 0.33549 0.74948 0.05551 0.0
H219 H 0.48371 0.86916 0.11351 0.0
H220 H 0.43314 0.87308 0.19404 0.0
H221 H 0.28159 0.64303 0.41429 0.0
H222 H 0.25303 0.70204 0.35384 0.0
H223 H 0.4233 0.81357 0.35214 0.0
H224 H 0.45257 0.75396 0.41304 0.0
H225 H 0.38526 0.7823 0.25787 0.0
H226 H 0.31568 0.86244 0.4007 0.0
H227 H 0.26654 0.86466 0.48206 0.0
H228 H 0.10701 0.77562 0.41761 0.0
H229 H 0.15529 0.77205 0.336 0.0
C230 C 0.23472 0.8983 0.10679 0.0
C231 C 0.17814 0.86595 0.09933 0.0
C232 C 0.26625 0.88709 0.14665 0.0
C233 C 0.24174 0.84324 0.17951 0.0
C234 C 0.18597 0.81022 0.17124 0.0
C235 C 0.15466 0.82128 0.13173 0.0
C236 C 0.27251 0.83151 0.22352 0.0
C237 C 0.24631 0.83247 0.27075 0.0
C238 C 0.32465 0.81563 0.21927 0.0
C239 C 0.35467 0.81362 0.17069 0.0
C240 C 0.32758 0.77847 0.13128 0.0
C241 C 0.35656 0.77652 0.08577 0.0
C242 C 0.41278 0.80922 0.07936 0.0
C243 C 0.44017 0.84388 0.11849 0.0
C244 C 0.41137 0.84598 0.16406 0.0
C245 C 0.31285 0.68065 0.40185 0.0
C246 C 0.36938 0.69377 0.4186 0.0
C247 C 0.29636 0.71455 0.36731 0.0
C248 C 0.33588 0.76252 0.34858 0.0
C249 C 0.39204 0.77686 0.3662 0.0
C250 C 0.40856 0.74303 0.40129 0.0
C251 C 0.31849 0.79464 0.30824 0.0
C252 C 0.34719 0.79774 0.26179 0.0
C253 C 0.26875 0.81464 0.31318 0.0
C254 C 0.23925 0.81678 0.36219 0.0
C255 C 0.27019 0.84298 0.40392 0.0
C256 C 0.24246 0.84453 0.45009 0.0
C257 C 0.1837 0.82024 0.45501 0.0
C258 C 0.15252 0.79443 0.41374 0.0
C259 C 0.18005 0.79273 0.36747 0.0
H260 H 0.16232 0.82147 0.4908 0.0
H261 H 0.43517 0.8076 0.04413 0.0
H262 H 0.12171 0.85688 0.82292 0.0
H263 H 0.1561 0.78982 0.76858 0.0
H264 H 0.07511 0.65356 0.86554 0.0
H265 H 0.03911 0.71997 0.91933 0.0
H266 H 0.20299 0.68045 0.84942 0.0
H267 H 0.0264 0.60911 0.75191 0.0
H268 H 0.94424 0.62287 0.70596 0.0
H269 H 0.05755 0.7501 0.61796 0.0
H270 H 0.14042 0.73594 0.66269 0.0
H271 H 0.26255 0.49909 0.6131 0.0
H272 H 0.19899 0.52695 0.67541 0.0
H273 H 0.33677 0.66791 0.72269 0.0
H274 H 0.40076 0.63986 0.66138 0.0
H275 H 0.16704 0.62167 0.67232 0.0
H276 H 0.31304 0.71316 0.83932 0.0
H277 H 0.3901 0.69219 0.8873 0.0
H278 H 0.33413 0.51669 0.84247 0.0
H279 H 0.2562 0.53641 0.7947 0.0
C280 C 0.10981 0.81236 0.83185 0.0
C281 C 0.07806 0.79376 0.87554 0.0
C282 C 0.12933 0.7741 0.80074 0.0
C283 C 0.11823 0.71688 0.81324 0.0
C284 C 0.08387 0.69755 0.85525 0.0
C285 C 0.06324 0.73556 0.88582 0.0
C286 C 0.14953 0.67987 0.78668 0.0
C287 C 0.19507 0.66704 0.81079 0.0
C288 C 0.13856 0.66196 0.73675 0.0
C289 C 0.08925 0.6717 0.71064 0.0
C290 C 0.03363 0.63998 0.72272 0.0
C291 C 0.98706 0.64752 0.69667 0.0
C292 C 0.99567 0.68737 0.65908 0.0
C293 C 0.05094 0.71929 0.6471 0.0
C294 C 0.09773 0.71126 0.67253 0.0
C295 C 0.27987 0.53506 0.63771 0.0
C296 C 0.3367 0.56763 0.63169 0.0
C297 C 0.2433 0.55111 0.67319 0.0
C298 C 0.26287 0.59973 0.70361 0.0
C299 C 0.32065 0.62989 0.70011 0.0
C300 C 0.35728 0.61381 0.66477 0.0
C301 C 0.22188 0.62271 0.73466 0.0
C302 C 0.17477 0.63373 0.71124 0.0
C303 C 0.23144 0.63862 0.78552 0.0
C304 C 0.27888 0.62636 0.81323 0.0
C305 C 0.31705 0.67005 0.83978 0.0
C306 C 0.36088 0.65839 0.86694 0.0
C307 C 0.36688 0.60314 0.86803 0.0
C308 C 0.32937 0.55948 0.8416 0.0
C309 C 0.28544 0.5709 0.81436 0.0
H310 H 0.40057 0.59418 0.88945 0.0
H311 H 0.9595 0.69358 0.63934 0.0
H312 H 0.39401 0.41134 0.62504 0.0
H313 H 0.33058 0.34415 0.68095 0.0
H314 H 0.29394 0.21921 0.56121 0.0
H315 H 0.35857 0.28543 0.50564 0.0
H316 H 0.197 0.23645 0.64685 0.0
H317 H 0.38217 0.19001 0.60871 0.0
H318 H 0.48704 0.22202 0.598 0.0
H319 H 0.50068 0.29587 0.74584 0.0
H320 H 0.39571 0.26504 0.757 0.0
H321 H 0.09427 0.01028 0.8051 0.0
H322 H 0.15194 0.05308 0.73283 0.0
H323 H 0.26239 0.17427 0.83075 0.0
H324 H 0.20481 0.13186 0.90246 0.0
H325 H 0.32047 0.1516 0.74841 0.0
H326 H 0.14668 0.20242 0.79228 0.0
H327 H 0.04335 0.18556 0.80975 0.0
H328 H 1.00754 0.11959 0.66068 0.0
H329 H 0.11089 0.13486 0.6427 0.0
C330 C 0.37078 0.37029 0.6103 0.0
C331 C 0.38139 0.35298 0.56149 0.0
C332 C 0.33476 0.33206 0.64215 0.0
C333 C 0.30828 0.27692 0.62497 0.0
C334 C 0.31412 0.26172 0.57483 0.0
C335 C 0.35106 0.29938 0.54333 0.0
C336 C 0.2829 0.23277 0.6609 0.0
C337 C 0.22358 0.21682 0.66839 0.0
C338 C 0.31818 0.20875 0.68961 0.0
C339 C 0.38124 0.22567 0.6835 0.0
C340 C 0.40756 0.21339 0.63877 0.0
C341 C 0.46698 0.23127 0.63264 0.0
C342 C 0.5005 0.26107 0.67118 0.0
C343 C 0.47467 0.27284 0.716 0.0
C344 C 0.41524 0.25514 0.72226 0.0
C345 C 0.13271 0.04402 0.81112 0.0
C346 C 0.14549 0.06813 0.85883 0.0
C347 C 0.16518 0.06879 0.76995 0.0
C348 C 0.2105 0.11755 0.77657 0.0
C349 C 0.22746 0.13682 0.8249 0.0
C350 C 0.19478 0.1125 0.86582 0.0
C351 C 0.23404 0.15422 0.7343 0.0
C352 C 0.29335 0.16956 0.72591 0.0
C353 C 0.19866 0.17866 0.70563 0.0
C354 C 0.13648 0.16894 0.71638 0.0
C355 C 0.11677 0.18369 0.7634 0.0
C356 C 0.05819 0.17454 0.77337 0.0
C357 C 0.01884 0.15143 0.73638 0.0
C358 C 0.03806 0.13736 0.68934 0.0
C359 C 0.09664 0.14615 0.67926 0.0
H360 H 0.9735 0.14457 0.74411 0.0
H361 H 0.54649 0.27494 0.66634 0.0
H362 H 0.9811 0.25504 0.86225 0.0
H363 H 0.95885 0.31095 0.7946 0.0
H364 H 0.81913 0.16998 0.75119 0.0
H365 H 0.84067 0.11434 0.81789 0.0
H366 H 0.88496 0.2186 0.67069 0.0
H367 H 0.79539 0.27843 0.82098 0.0
H368 H 0.79708 0.3209 0.90564 0.0
H369 H 0.91066 0.47532 0.85412 0.0
H370 H 0.91021 0.43341 0.76925 0.0
H371 H 0.66557 0.29501 0.55224 0.0
H372 H 0.7298 0.26416 0.60651 0.0
H373 H 0.83698 0.4351 0.61697 0.0
H374 H 0.77222 0.46676 0.56253 0.0
H375 H 0.81362 0.38851 0.70804 0.0
H376 H 0.88683 0.33599 0.55443 0.0
H377 H 0.88488 0.29497 0.46926 0.0
H378 H 0.80592 0.12953 0.5249 0.0
H379 H 0.80655 0.16962 0.61034 0.0
C380 C 0.94563 0.23606 0.83828 0.0
C381 C 0.91243 0.18031 0.84585 0.0
C382 C 0.93303 0.26803 0.79966 0.0
C383 C 0.88726 0.2446 0.76792 0.0
C384 C 0.85476 0.18885 0.77508 0.0
C385 C 0.86695 0.15721 0.81363 0.0
C386 C 0.87121 0.27767 0.72781 0.0
C387 C 0.86941 0.25581 0.67874 0.0
C388 C 0.85311 0.32753 0.73801 0.0
C389 C 0.85342 0.35253 0.789 0.0
C390 C 0.82116 0.32124 0.82784 0.0
C391 C 0.8218 0.34524 0.87582 0.0
C392 C 0.85414 0.40069 0.8853 0.0
C393 C 0.88577 0.43232 0.84677 0.0
C394 C 0.88534 0.40846 0.79872 0.0
C395 C 0.70308 0.32614 0.5655 0.0
C396 C 0.71363 0.38344 0.55293 0.0
C397 C 0.74004 0.3083 0.59639 0.0
C398 C 0.78861 0.34717 0.61542 0.0
C399 C 0.7999 0.40433 0.60249 0.0
C400 C 0.76297 0.42227 0.57121 0.0
C401 C 0.82488 0.32786 0.65124 0.0
C402 C 0.83058 0.35227 0.69949 0.0
C403 C 0.84692 0.2805 0.64021 0.0
C404 C 0.84652 0.25594 0.58886 0.0
C405 C 0.86868 0.29091 0.5485 0.0
C406 C 0.86786 0.26781 0.50016 0.0
C407 C 0.84524 0.2097 0.49167 0.0
C408 C 0.82346 0.17454 0.53153 0.0
C409 C 0.82412 0.19743 0.57996 0.0
H410 H 0.84464 0.1919 0.45421 0.0
H411 H 0.85454 0.41922 0.92247 0.0
H412 H 0.57548 0.52205 0.6475 0.0
H413 H 0.62682 0.55076 0.72521 0.0
H414 H 0.70342 0.71591 0.66523 0.0
H415 H 0.65469 0.6856 0.58647 0.0
H416 H 0.78246 0.67428 0.70161 0.0
H417 H 0.59034 0.6861 0.76027 0.0
H418 H 0.48748 0.64064 0.7733 0.0
H419 H 0.52835 0.51561 0.8642 0.0
H420 H 0.63137 0.56008 0.85137 0.0
H421 H 0.78953 0.88511 0.88196 0.0
H422 H 0.73755 0.79717 0.8427 0.0
H423 H 0.86796 0.71685 0.88401 0.0
H424 H 0.92208 0.80655 0.9225 0.0
H425 H 0.69553 0.67906 0.87059 0.0
H426 H 0.89274 0.66904 0.80541 0.0
H427 H 0.99339 0.72203 0.79232 0.0
H428 H 0.93992 0.8484 0.71272 0.0
H429 H 0.83874 0.79703 0.72693 0.0
C430 C 0.60173 0.56513 0.6519 0.0
C431 C 0.61043 0.60239 0.61203 0.0
C432 C 0.63138 0.5813 0.69601 0.0
C433 C 0.66899 0.63545 0.70102 0.0
C434 C 0.67492 0.67374 0.66197 0.0
C435 C 0.64641 0.65702 0.61746 0.0
C436 C 0.70433 0.65219 0.74573 0.0
C437 C 0.7635 0.6743 0.7387 0.0
C438 C 0.68018 0.65033 0.79442 0.0
C439 C 0.61839 0.62597 0.80444 0.0
C440 C 0.5773 0.64895 0.78307 0.0
C441 C 0.51903 0.62334 0.79036 0.0
C442 C 0.50148 0.57505 0.81925 0.0
C443 C 0.54206 0.55287 0.84167 0.0
C444 C 0.60035 0.5783 0.83448 0.0
C445 C 0.80726 0.84881 0.8833 0.0
C446 C 0.86083 0.8532 0.90418 0.0
C447 C 0.777 0.79826 0.8613 0.0
C448 C 0.79927 0.75082 0.85995 0.0
C449 C 0.85073 0.7535 0.88384 0.0
C450 C 0.8817 0.80471 0.9055 0.0
C451 C 0.77265 0.70374 0.82571 0.0
C452 C 0.71489 0.67582 0.83406 0.0
C453 C 0.79796 0.70001 0.77817 0.0
C454 C 0.85846 0.72948 0.76748 0.0
C455 C 0.90256 0.70823 0.78525 0.0
C456 C 0.95962 0.73819 0.77799 0.0
C457 C 0.97311 0.7886 0.75179 0.0
C458 C 0.92945 0.80935 0.73303 0.0
C459 C 0.87223 0.78001 0.7409 0.0
H460 H 0.01738 0.81143 0.74588 0.0
H461 H 0.45647 0.55464 0.82415 0.0
loop_
_geom_bond_atom_site_label_1
_geom_bond_atom_site_label_2
_geom_bond_distance
_geom_bond_site_symmetry_2
_ccdc_geom_bond_type
C0 O27 1.312 . S
C0 O28 1.208 . S
C1 O22 1.331 . S
C1 O25 1.244 . S
C2 O24 1.264 . S
C2 O26 1.273 . S
Mg3 O5 1.936 . S
Mg3 O12 2.081 . S
Mg3 O14 2.023 1_556 S
Mg3 O18 2.031 1_655 S
Mg3 O27 2.291 1_656 S
Mg4 O5 1.963 . S
Mg4 O15 1.942 . S
Mg4 O16 1.955 1_556 S
Mg4 O23 1.986 1_545 S
O5 Mg3 1.936 . S
O5 Mg4 1.963 . S
O5 Mg6 1.915 1_546 S
Mg6 O5 1.915 1_564 S
Mg6 O7 1.915 1_655 S
Mg6 O11 2.013 . S
Mg6 O17 2.114 1_664 S
Mg6 O21 2.013 1_554 S
Mg6 O27 2.114 1_665 S
O7 Mg6 1.915 1_455 S
O7 Mg8 1.936 . S
O7 Mg9 1.963 . S
Mg8 O7 1.936 . S
Mg8 O17 2.291 1_564 S
Mg8 O22 2.081 . S
Mg8 O24 2.023 1_554 S
Mg8 O28 2.031 1_565 S
Mg9 O7 1.963 . S
Mg9 O13 1.986 1_455 S
Mg9 O25 1.942 . S
Mg9 O26 1.955 1_554 S
C10 O21 1.191 . S
C10 O23 1.307 . S
O11 Mg6 2.013 . S
O11 C30 1.191 . S
O12 Mg3 2.081 . S
O12 C20 1.331 . S
O13 Mg9 1.986 1_655 S
O13 C30 1.307 . S
O14 Mg3 2.023 1_554 S
O14 C29 1.264 . S
O15 Mg4 1.942 . S
O15 C20 1.244 . S
O16 Mg4 1.955 1_554 S
O16 C29 1.273 . S
O17 Mg6 2.114 1_446 S
O17 Mg8 2.291 1_546 S
O17 C19 1.312 . S
O18 Mg3 2.031 1_455 S
O18 C19 1.208 . S
C19 O17 1.312 . S
C19 O18 1.208 . S
C20 O12 1.331 . S
C20 O15 1.244 . S
O21 Mg6 2.013 1_556 S
O21 C10 1.191 . S
O22 C1 1.331 . S
O22 Mg8 2.081 . S
O23 Mg4 1.986 1_565 S
O23 C10 1.307 . S
O24 C2 1.264 . S
O24 Mg8 2.023 1_556 S
O25 C1 1.244 . S
O25 Mg9 1.942 . S
O26 C2 1.273 . S
O26 Mg9 1.955 1_556 S
O27 C0 1.312 . S
O27 Mg3 2.291 1_454 S
O27 Mg6 2.114 1_445 S
O28 C0 1.208 . S
O28 Mg8 2.031 1_545 S
C29 O14 1.264 . S
C29 O16 1.273 . S
C30 O11 1.191 . S
C30 O13 1.307 . S
C31 O58 1.312 . S
C31 O59 1.208 . S
C32 O53 1.331 . S
C32 O56 1.244 . S
C33 O55 1.264 . S
C33 O57 1.273 . S
Mg34 O36 1.936 . S
Mg34 O43 2.081 . S
Mg34 O45 2.023 . S
Mg34 O49 2.031 . S
Mg34 O58 2.291 . S
Mg35 O36 1.963 . S
Mg35 O46 1.942 . S
Mg35 O47 1.955 . S
Mg35 O54 1.986 . S
O36 Mg34 1.936 . S
O36 Mg35 1.963 . S
O36 Mg37 1.915 . S
Mg37 O36 1.915 . S
Mg37 O38 1.915 . S
Mg37 O42 2.013 . S
Mg37 O48 2.114 . S
Mg37 O52 2.013 . S
Mg37 O58 2.114 . S
O38 Mg37 1.915 . S
O38 Mg39 1.936 . S
O38 Mg40 1.963 . S
Mg39 O38 1.936 . S
Mg39 O48 2.291 . S
Mg39 O53 2.081 . S
Mg39 O55 2.023 . S
Mg39 O59 2.031 . S
Mg40 O38 1.963 . S
Mg40 O44 1.986 . S
Mg40 O56 1.942 . S
Mg40 O57 1.955 . S
C41 O52 1.191 . S
C41 O54 1.307 . S
O42 Mg37 2.013 . S
O42 C61 1.191 . S
O43 Mg34 2.081 . S
O43 C51 1.331 . S
O44 Mg40 1.986 . S
O44 C61 1.307 . S
O45 Mg34 2.023 . S
O45 C60 1.264 . S
O46 Mg35 1.942 . S
O46 C51 1.244 . S
O47 Mg35 1.955 . S
O47 C60 1.273 . S
O48 Mg37 2.114 . S
O48 Mg39 2.291 . S
O48 C50 1.312 . S
O49 Mg34 2.031 . S
O49 C50 1.208 . S
C50 O48 1.312 . S
C50 O49 1.208 . S
C51 O43 1.331 . S
C51 O46 1.244 . S
O52 Mg37 2.013 . S
O52 C41 1.191 . S
O53 C32 1.331 . S
O53 Mg39 2.081 . S
O54 Mg35 1.986 . S
O54 C41 1.307 . S
O55 C33 1.264 . S
O55 Mg39 2.023 . S
O56 C32 1.244 . S
O56 Mg40 1.942 . S
O57 C33 1.273 . S
O57 Mg40 1.955 . S
O58 C31 1.312 . S
O58 Mg34 2.291 . S
O58 Mg37 2.114 . S
O59 C31 1.208 . S
O59 Mg39 2.031 . S
C60 O45 1.264 . S
C60 O47 1.273 . S
C61 O42 1.191 . S
C61 O44 1.307 . S
H62 C80 0.951 . S
H63 C82 0.951 . S
H64 C84 0.950 . S
H65 C85 0.950 . S
H66 C87 0.950 . S
H67 C90 0.950 . S
H68 C91 0.950 . S
H69 C93 0.950 . S
H70 C94 0.950 . S
H71 C95 0.951 . S
H72 C97 0.951 . S
H73 C99 0.950 . S
H74 C100 0.950 . S
H75 C102 0.950 . S
H76 C105 0.950 . S
H77 C106 0.950 . S
H78 C108 0.950 . S
H79 C109 0.950 . S
C80 H62 0.951 . S
C80 C81 1.366 . S
C80 C82 1.388 . S
C81 C80 1.366 . S
C81 C85 1.385 . S
C82 H63 0.951 . S
C82 C80 1.388 . S
C82 C83 1.366 . S
C83 C82 1.366 . S
C83 C84 1.414 . S
C83 C86 1.499 . S
C84 H64 0.950 . S
C84 C83 1.414 . S
C84 C85 1.374 . S
C85 H65 0.950 . S
C85 C81 1.385 . S
C85 C84 1.374 . S
C86 C83 1.499 . S
C86 C87 1.373 . S
C86 C88 1.389 . S
C87 H66 0.950 . S
C87 C86 1.373 . S
C87 C103 1.377 . S
C88 C86 1.389 . S
C88 C89 1.524 . S
C88 C102 1.377 . S
C89 C88 1.524 . S
C89 C90 1.397 . S
C89 C94 1.363 . S
C90 H67 0.950 . S
C90 C89 1.397 . S
C90 C91 1.334 . S
C91 H68 0.950 . S
C91 C90 1.334 . S
C91 C92 1.287 . S
C92 C91 1.287 . S
C92 C93 1.524 . S
C92 H111 0.913 1_545 S
C93 H69 0.950 . S
C93 C92 1.524 . S
C93 C94 1.415 . S
C94 H70 0.950 . S
C94 C89 1.363 . S
C94 C93 1.415 . S
C95 H71 0.951 . S
C95 C96 1.366 . S
C95 C97 1.388 . S
C96 C95 1.366 . S
C96 C100 1.385 . S
C97 H72 0.951 . S
C97 C95 1.388 . S
C97 C98 1.366 . S
C98 C97 1.366 . S
C98 C99 1.414 . S
C98 C101 1.499 . S
C99 H73 0.950 . S
C99 C98 1.414 . S
C99 C100 1.374 . S
C100 H74 0.950 . S
C100 C96 1.385 . S
C100 C99 1.374 . S
C101 C98 1.499 . S
C101 C102 1.373 . S
C101 C103 1.389 . S
C102 H75 0.950 . S
C102 C88 1.377 . S
C102 C101 1.373 . S
C103 C87 1.377 . S
C103 C101 1.389 . S
C103 C104 1.524 . S
C104 C103 1.524 . S
C104 C105 1.397 . S
C104 C109 1.363 . S
C105 H76 0.950 . S
C105 C104 1.397 . S
C105 C106 1.334 . S
C106 H77 0.950 . S
C106 C105 1.334 . S
C106 C107 1.287 . S
C107 C106 1.287 . S
C107 C108 1.524 . S
C107 H110 0.999 . S
C108 H78 0.950 . S
C108 C107 1.524 . S
C108 C109 1.415 . S
C109 H79 0.950 . S
C109 C104 1.363 . S
C109 C108 1.415 . S
H110 C107 0.999 . S
H111 C92 0.913 1_565 S
H112 C130 0.951 . S
H113 C132 0.951 . S
H114 C134 0.950 . S
H115 C135 0.950 . S
H116 C137 0.950 . S
H117 C140 0.950 . S
H118 C141 0.950 . S
H119 C143 0.950 . S
H120 C144 0.950 . S
H121 C145 0.951 . S
H122 C147 0.951 . S
H123 C149 0.950 . S
H124 C150 0.950 . S
H125 C152 0.950 . S
H126 C155 0.950 . S
H127 C156 0.950 . S
H128 C158 0.950 . S
H129 C159 0.950 . S
C130 H112 0.951 . S
C130 C131 1.366 . S
C130 C132 1.388 . S
C131 C130 1.366 . S
C131 C135 1.385 . S
C132 H113 0.951 . S
C132 C130 1.388 . S
C132 C133 1.366 . S
C133 C132 1.366 . S
C133 C134 1.414 . S
C133 C136 1.499 . S
C134 H114 0.950 . S
C134 C133 1.414 . S
C134 C135 1.374 . S
C135 H115 0.950 . S
C135 C131 1.385 . S
C135 C134 1.374 . S
C136 C133 1.499 . S
C136 C137 1.373 . S
C136 C138 1.389 . S
C137 H116 0.950 . S
C137 C136 1.373 . S
C137 C153 1.377 . S
C138 C136 1.389 . S
C138 C139 1.524 . S
C138 C152 1.377 . S
C139 C138 1.524 . S
C139 C140 1.397 . S
C139 C144 1.363 . S
C140 H117 0.950 . S
C140 C139 1.397 . S
C140 C141 1.334 . S
C141 H118 0.950 . S
C141 C140 1.334 . S
C141 C142 1.287 . S
C142 C141 1.287 . S
C142 C143 1.524 . S
C142 H161 0.913 . S
C143 H119 0.950 . S
C143 C142 1.524 . S
C143 C144 1.415 . S
C144 H120 0.950 . S
C144 C139 1.363 . S
C144 C143 1.415 . S
C145 H121 0.951 . S
C145 C146 1.366 . S
C145 C147 1.388 . S
C146 C145 1.366 . S
C146 C150 1.385 . S
C147 H122 0.951 . S
C147 C145 1.388 . S
C147 C148 1.366 . S
C148 C147 1.366 . S
C148 C149 1.414 . S
C148 C151 1.499 . S
C149 H123 0.950 . S
C149 C148 1.414 . S
C149 C150 1.374 . S
C150 H124 0.950 . S
C150 C146 1.385 . S
C150 C149 1.374 . S
C151 C148 1.499 . S
C151 C152 1.373 . S
C151 C153 1.389 . S
C152 H125 0.950 . S
C152 C138 1.377 . S
C152 C151 1.373 . S
C153 C137 1.377 . S
C153 C151 1.389 . S
C153 C154 1.524 . S
C154 C153 1.524 . S
C154 C155 1.397 . S
C154 C159 1.363 . S
C155 H126 0.950 . S
C155 C154 1.397 . S
C155 C156 1.334 . S
C156 H127 0.950 . S
C156 C155 1.334 . S
C156 C157 1.287 . S
C157 C156 1.287 . S
C157 C158 1.524 . S
C157 H160 0.999 . S
C158 H128 0.950 . S
C158 C157 1.524 . S
C158 C159 1.415 . S
C159 H129 0.950 . S
C159 C154 1.363 . S
C159 C158 1.415 . S
H160 C157 0.999 . S
H161 C142 0.913 . S
H162 C180 0.951 . S
H163 C182 0.951 . S
H164 C184 0.950 . S
H165 C185 0.950 . S
H166 C187 0.950 . S
H167 C190 0.950 . S
H168 C191 0.950 . S
H169 C193 0.950 . S
H170 C194 0.950 . S
H171 C195 0.951 . S
H172 C197 0.951 . S
H173 C199 0.950 . S
H174 C200 0.950 . S
H175 C202 0.950 . S
H176 C205 0.950 . S
H177 C206 0.950 . S
H178 C208 0.950 . S
H179 C209 0.950 . S
C180 H162 0.951 . S
C180 C181 1.366 . S
C180 C182 1.388 . S
C181 C180 1.366 . S
C181 C185 1.385 . S
C182 H163 0.951 . S
C182 C180 1.388 . S
C182 C183 1.366 . S
C183 C182 1.366 . S
C183 C184 1.414 . S
C183 C186 1.499 . S
C184 H164 0.950 . S
C184 C183 1.414 . S
C184 C185 1.374 . S
C185 H165 0.950 . S
C185 C181 1.385 . S
C185 C184 1.374 . S
C186 C183 1.499 . S
C186 C187 1.373 . S
C186 C188 1.389 . S
C187 H166 0.950 . S
C187 C186 1.373 . S
C187 C203 1.377 . S
C188 C186 1.389 . S
C188 C189 1.524 . S
C188 C202 1.377 . S
C189 C188 1.524 . S
C189 C190 1.397 . S
C189 C194 1.363 . S
C190 H167 0.950 . S
C190 C189 1.397 . S
C190 C191 1.334 . S
C191 H168 0.950 . S
C191 C190 1.334 . S
C191 C192 1.287 . S
C192 C191 1.287 . S
C192 C193 1.524 . S
C192 H211 0.913 . S
C193 H169 0.950 . S
C193 C192 1.524 . S
C193 C194 1.415 . S
C194 H170 0.950 . S
C194 C189 1.363 . S
C194 C193 1.415 . S
C195 H171 0.951 . S
C195 C196 1.366 . S
C195 C197 1.388 . S
C196 C195 1.366 . S
C196 C200 1.385 . S
C197 H172 0.951 . S
C197 C195 1.388 . S
C197 C198 1.366 . S
C198 C197 1.366 . S
C198 C199 1.414 . S
C198 C201 1.499 . S
C199 H173 0.950 . S
C199 C198 1.414 . S
C199 C200 1.374 . S
C200 H174 0.950 . S
C200 C196 1.385 . S
C200 C199 1.374 . S
C201 C198 1.499 . S
C201 C202 1.373 . S
C201 C203 1.389 . S
C202 H175 0.950 . S
C202 C188 1.377 . S
C202 C201 1.373 . S
C203 C187 1.377 . S
C203 C201 1.389 . S
C203 C204 1.524 . S
C204 C203 1.524 . S
C204 C205 1.397 . S
C204 C209 1.363 . S
C205 H176 0.950 . S
C205 C204 1.397 . S
C205 C206 1.334 . S
C206 H177 0.950 . S
C206 C205 1.334 . S
C206 C207 1.287 . S
C207 C206 1.287 . S
C207 C208 1.524 . S
C207 H210 0.999 . S
C208 H178 0.950 . S
C208 C207 1.524 . S
C208 C209 1.415 . S
C209 H179 0.950 . S
C209 C204 1.363 . S
C209 C208 1.415 . S
H210 C207 0.999 . S
H211 C192 0.913 . S
H212 C230 0.951 . S
H213 C232 0.951 . S
H214 C234 0.950 . S
H215 C235 0.950 . S
H216 C237 0.950 . S
H217 C240 0.950 . S
H218 C241 0.950 . S
H219 C243 0.950 . S
H220 C244 0.950 . S
H221 C245 0.951 . S
H222 C247 0.951 . S
H223 C249 0.950 . S
H224 C250 0.950 . S
H225 C252 0.950 . S
H226 C255 0.950 . S
H227 C256 0.950 . S
H228 C258 0.950 . S
H229 C259 0.950 . S
C230 H212 0.951 . S
C230 C231 1.366 . S
C230 C232 1.388 . S
C231 C230 1.366 . S
C231 C235 1.385 . S
C232 H213 0.951 . S
C232 C230 1.388 . S
C232 C233 1.366 . S
C233 C232 1.366 . S
C233 C234 1.414 . S
C233 C236 1.499 . S
C234 H214 0.950 . S
C234 C233 1.414 . S
C234 C235 1.374 . S
C235 H215 0.950 . S
C235 C231 1.385 . S
C235 C234 1.374 . S
C236 C233 1.499 . S
C236 C237 1.373 . S
C236 C238 1.389 . S
C237 H216 0.950 . S
C237 C236 1.373 . S
C237 C253 1.377 . S
C238 C236 1.389 . S
C238 C239 1.524 . S
C238 C252 1.377 . S
C239 C238 1.524 . S
C239 C240 1.397 . S
C239 C244 1.363 . S
C240 H217 0.950 . S
C240 C239 1.397 . S
C240 C241 1.334 . S
C241 H218 0.950 . S
C241 C240 1.334 . S
C241 C242 1.287 . S
C242 C241 1.287 . S
C242 C243 1.524 . S
C242 H261 0.913 . S
C243 H219 0.950 . S
C243 C242 1.524 . S
C243 C244 1.415 . S
C244 H220 0.950 . S
C244 C239 1.363 . S
C244 C243 1.415 . S
C245 H221 0.951 . S
C245 C246 1.366 . S
C245 C247 1.388 . S
C246 C245 1.366 . S
C246 C250 1.385 . S
C247 H222 0.951 . S
C247 C245 1.388 . S
C247 C248 1.366 . S
C248 C247 1.366 . S
C248 C249 1.414 . S
C248 C251 1.499 . S
C249 H223 0.950 . S
C249 C248 1.414 . S
C249 C250 1.374 . S
C250 H224 0.950 . S
C250 C246 1.385 . S
C250 C249 1.374 . S
C251 C248 1.499 . S
C251 C252 1.373 . S
C251 C253 1.389 . S
C252 H225 0.950 . S
C252 C238 1.377 . S
C252 C251 1.373 . S
C253 C237 1.377 . S
C253 C251 1.389 . S
C253 C254 1.524 . S
C254 C253 1.524 . S
C254 C255 1.397 . S
C254 C259 1.363 . S
C255 H226 0.950 . S
C255 C254 1.397 . S
C255 C256 1.334 . S
C256 H227 0.950 . S
C256 C255 1.334 . S
C256 C257 1.287 . S
C257 C256 1.287 . S
C257 C258 1.524 . S
C257 H260 0.999 . S
C258 H228 0.950 . S
C258 C257 1.524 . S
C258 C259 1.415 . S
C259 H229 0.950 . S
C259 C254 1.363 . S
C259 C258 1.415 . S
H260 C257 0.999 . S
H261 C242 0.913 . S
H262 C280 0.951 . S
H263 C282 0.951 . S
H264 C284 0.950 . S
H265 C285 0.950 . S
H266 C287 0.950 . S
H267 C290 0.950 . S
H268 C291 0.951 1_655 S
H269 C293 0.950 . S
H270 C294 0.950 . S
H271 C295 0.951 . S
H272 C297 0.951 . S
H273 C299 0.950 . S
H274 C300 0.950 . S
H275 C302 0.950 . S
H276 C305 0.950 . S
H277 C306 0.950 . S
H278 C308 0.950 . S
H279 C309 0.950 . S
C280 H262 0.951 . S
C280 C281 1.366 . S
C280 C282 1.388 . S
C281 C280 1.366 . S
C281 C285 1.385 . S
C282 H263 0.951 . S
C282 C280 1.388 . S
C282 C283 1.366 . S
C283 C282 1.366 . S
C283 C284 1.414 . S
C283 C286 1.499 . S
C284 H264 0.950 . S
C284 C283 1.414 . S
C284 C285 1.374 . S
C285 H265 0.950 . S
C285 C281 1.385 . S
C285 C284 1.374 . S
C286 C283 1.499 . S
C286 C287 1.373 . S
C286 C288 1.389 . S
C287 H266 0.950 . S
C287 C286 1.373 . S
C287 C303 1.377 . S
C288 C286 1.389 . S
C288 C289 1.524 . S
C288 C302 1.377 . S
C289 C288 1.524 . S
C289 C290 1.397 . S
C289 C294 1.363 . S
C290 H267 0.950 . S
C290 C289 1.397 . S
C290 C291 1.334 . S
C291 H268 0.951 1_455 S
C291 C290 1.334 . S
C291 C292 1.287 . S
C292 C291 1.287 . S
C292 C293 1.524 . S
C292 H311 0.913 1_455 S
C293 H269 0.950 . S
C293 C292 1.524 . S
C293 C294 1.415 . S
C294 H270 0.950 . S
C294 C289 1.363 . S
C294 C293 1.415 . S
C295 H271 0.951 . S
C295 C296 1.366 . S
C295 C297 1.388 . S
C296 C295 1.366 . S
C296 C300 1.385 . S
C297 H272 0.951 . S
C297 C295 1.388 . S
C297 C298 1.366 . S
C298 C297 1.366 . S
C298 C299 1.414 . S
C298 C301 1.499 . S
C299 H273 0.950 . S
C299 C298 1.414 . S
C299 C300 1.374 . S
C300 H274 0.950 . S
C300 C296 1.385 . S
C300 C299 1.374 . S
C301 C298 1.499 . S
C301 C302 1.373 . S
C301 C303 1.389 . S
C302 H275 0.950 . S
C302 C288 1.377 . S
C302 C301 1.373 . S
C303 C287 1.377 . S
C303 C301 1.389 . S
C303 C304 1.524 . S
C304 C303 1.524 . S
C304 C305 1.397 . S
C304 C309 1.363 . S
C305 H276 0.950 . S
C305 C304 1.397 . S
C305 C306 1.334 . S
C306 H277 0.950 . S
C306 C305 1.334 . S
C306 C307 1.287 . S
C307 C306 1.287 . S
C307 C308 1.524 . S
C307 H310 0.999 . S
C308 H278 0.950 . S
C308 C307 1.524 . S
C308 C309 1.415 . S
C309 H279 0.950 . S
C309 C304 1.363 . S
C309 C308 1.415 . S
H310 C307 0.999 . S
H311 C292 0.913 1_655 S
H312 C330 0.951 . S
H313 C332 0.951 . S
H314 C334 0.950 . S
H315 C335 0.950 . S
H316 C337 0.950 . S
H317 C340 0.950 . S
H318 C341 0.950 . S
H319 C343 0.950 . S
H320 C344 0.950 . S
H321 C345 0.951 . S
H322 C347 0.951 . S
H323 C349 0.950 . S
H324 C350 0.950 . S
H325 C352 0.950 . S
H326 C355 0.950 . S
H327 C356 0.950 . S
H328 C358 0.950 . S
H329 C359 0.950 . S
C330 H312 0.951 . S
C330 C331 1.366 . S
C330 C332 1.388 . S
C331 C330 1.366 . S
C331 C335 1.385 . S
C332 H313 0.951 . S
C332 C330 1.388 . S
C332 C333 1.366 . S
C333 C332 1.366 . S
C333 C334 1.414 . S
C333 C336 1.499 . S
C334 H314 0.950 . S
C334 C333 1.414 . S
C334 C335 1.374 . S
C335 H315 0.950 . S
C335 C331 1.385 . S
C335 C334 1.374 . S
C336 C333 1.499 . S
C336 C337 1.373 . S
C336 C338 1.389 . S
C337 H316 0.950 . S
C337 C336 1.373 . S
C337 C353 1.377 . S
C338 C336 1.389 . S
C338 C339 1.524 . S
C338 C352 1.377 . S
C339 C338 1.524 . S
C339 C340 1.397 . S
C339 C344 1.363 . S
C340 H317 0.950 . S
C340 C339 1.397 . S
C340 C341 1.334 . S
C341 H318 0.950 . S
C341 C340 1.334 . S
C341 C342 1.287 . S
C342 C341 1.287 . S
C342 C343 1.524 . S
C342 H361 0.913 . S
C343 H319 0.950 . S
C343 C342 1.524 . S
C343 C344 1.415 . S
C344 H320 0.950 . S
C344 C339 1.363 . S
C344 C343 1.415 . S
C345 H321 0.951 . S
C345 C346 1.366 . S
C345 C347 1.388 . S
C346 C345 1.366 . S
C346 C350 1.385 . S
C347 H322 0.951 . S
C347 C345 1.388 . S
C347 C348 1.366 . S
C348 C347 1.366 . S
C348 C349 1.414 . S
C348 C351 1.499 . S
C349 H323 0.950 . S
C349 C348 1.414 . S
C349 C350 1.374 . S
C350 H324 0.950 . S
C350 C346 1.385 . S
C350 C349 1.374 . S
C351 C348 1.499 . S
C351 C352 1.373 . S
C351 C353 1.389 . S
C352 H325 0.950 . S
C352 C338 1.377 . S
C352 C351 1.373 . S
C353 C337 1.377 . S
C353 C351 1.389 . S
C353 C354 1.524 . S
C354 C353 1.524 . S
C354 C355 1.397 . S
C354 C359 1.363 . S
C355 H326 0.950 . S
C355 C354 1.397 . S
C355 C356 1.334 . S
C356 H327 0.950 . S
C356 C355 1.334 . S
C356 C357 1.287 . S
C357 C356 1.287 . S
C357 C358 1.524 . S
C357 H360 0.999 1_455 S
C358 H328 0.950 . S
C358 C357 1.524 . S
C358 C359 1.415 . S
C359 H329 0.950 . S
C359 C354 1.363 . S
C359 C358 1.415 . S
H360 C357 0.999 1_655 S
H361 C342 0.913 . S
H362 C380 0.951 . S
H363 C382 0.951 . S
H364 C384 0.950 . S
H365 C385 0.950 . S
H366 C387 0.950 . S
H367 C390 0.950 . S
H368 C391 0.950 . S
H369 C393 0.950 . S
H370 C394 0.950 . S
H371 C395 0.951 . S
H372 C397 0.951 . S
H373 C399 0.950 . S
H374 C400 0.950 . S
H375 C402 0.950 . S
H376 C405 0.950 . S
H377 C406 0.950 . S
H378 C408 0.950 . S
H379 C409 0.950 . S
C380 H362 0.951 . S
C380 C381 1.366 . S
C380 C382 1.388 . S
C381 C380 1.366 . S
C381 C385 1.385 . S
C382 H363 0.951 . S
C382 C380 1.388 . S
C382 C383 1.366 . S
C383 C382 1.366 . S
C383 C384 1.414 . S
C383 C386 1.499 . S
C384 H364 0.950 . S
C384 C383 1.414 . S
C384 C385 1.374 . S
C385 H365 0.950 . S
C385 C381 1.385 . S
C385 C384 1.374 . S
C386 C383 1.499 . S
C386 C387 1.373 . S
C386 C388 1.389 . S
C387 H366 0.950 . S
C387 C386 1.373 . S
C387 C403 1.377 . S
C388 C386 1.389 . S
C388 C389 1.524 . S
C388 C402 1.377 . S
C389 C388 1.524 . S
C389 C390 1.397 . S
C389 C394 1.363 . S
C390 H367 0.950 . S
C390 C389 1.397 . S
C390 C391 1.334 . S
C391 H368 0.950 . S
C391 C390 1.334 . S
C391 C392 1.287 . S
C392 C391 1.287 . S
C392 C393 1.524 . S
C392 H411 0.913 . S
C393 H369 0.950 . S
C393 C392 1.524 . S
C393 C394 1.415 . S
C394 H370 0.950 . S
C394 C389 1.363 . S
C394 C393 1.415 . S
C395 H371 0.951 . S
C395 C396 1.366 . S
C395 C397 1.388 . S
C396 C395 1.366 . S
C396 C400 1.385 . S
C397 H372 0.951 . S
C397 C395 1.388 . S
C397 C398 1.366 . S
C398 C397 1.366 . S
C398 C399 1.414 . S
C398 C401 1.499 . S
C399 H373 0.950 . S
C399 C398 1.414 . S
C399 C400 1.374 . S
C400 H374 0.950 . S
C400 C396 1.385 . S
C400 C399 1.374 . S
C401 C398 1.499 . S
C401 C402 1.373 . S
C401 C403 1.389 . S
C402 H375 0.950 . S
C402 C388 1.377 . S
C402 C401 1.373 . S
C403 C387 1.377 . S
C403 C401 1.389 . S
C403 C404 1.524 . S
C404 C403 1.524 . S
C404 C405 1.397 . S
C404 C409 1.363 . S
C405 H376 0.950 . S
C405 C404 1.397 . S
C405 C406 1.334 . S
C406 H377 0.950 . S
C406 C405 1.334 . S
C406 C407 1.287 . S
C407 C406 1.287 . S
C407 C408 1.524 . S
C407 H410 0.999 . S
C408 H378 0.950 . S
C408 C407 1.524 . S
C408 C409 1.415 . S
C409 H379 0.950 . S
C409 C404 1.363 . S
C409 C408 1.415 . S
H410 C407 0.999 . S
H411 C392 0.913 . S
H412 C430 0.951 . S
H413 C432 0.951 . S
H414 C434 0.950 . S
H415 C435 0.950 . S
H416 C437 0.950 . S
H417 C440 0.950 . S
H418 C441 0.950 . S
H419 C443 0.950 . S
H420 C444 0.950 . S
H421 C445 0.951 . S
H422 C447 0.951 . S
H423 C449 0.950 . S
H424 C450 0.950 . S
H425 C452 0.950 . S
H426 C455 0.950 . S
H427 C456 0.950 . S
H428 C458 0.950 . S
H429 C459 0.950 . S
C430 H412 0.951 . S
C430 C431 1.366 . S
C430 C432 1.388 . S
C431 C430 1.366 . S
C431 C435 1.385 . S
C432 H413 0.951 . S
C432 C430 1.388 . S
C432 C433 1.366 . S
C433 C432 1.366 . S
C433 C434 1.414 . S
C433 C436 1.499 . S
C434 H414 0.950 . S
C434 C433 1.414 . S
C434 C435 1.374 . S
C435 H415 0.950 . S
C435 C431 1.385 . S
C435 C434 1.374 . S
C436 C433 1.499 . S
C436 C437 1.373 . S
C436 C438 1.389 . S
C437 H416 0.950 . S
C437 C436 1.373 . S
C437 C453 1.377 . S
C438 C436 1.389 . S
C438 C439 1.524 . S
C438 C452 1.377 . S
C439 C438 1.524 . S
C439 C440 1.397 . S
C439 C444 1.363 . S
C440 H417 0.950 . S
C440 C439 1.397 . S
C440 C441 1.334 . S
C441 H418 0.950 . S
C441 C440 1.334 . S
C441 C442 1.287 . S
C442 C441 1.287 . S
C442 C443 1.524 . S
C442 H461 0.913 . S
C443 H419 0.950 . S
C443 C442 1.524 . S
C443 C444 1.415 . S
C444 H420 0.950 . S
C444 C439 1.363 . S
C444 C443 1.415 . S
C445 H421 0.951 . S
C445 C446 1.366 . S
C445 C447 1.388 . S
C446 C445 1.366 . S
C446 C450 1.385 . S
C447 H422 0.951 . S
C447 C445 1.388 . S
C447 C448 1.366 . S
C448 C447 1.366 . S
C448 C449 1.414 . S
C448 C451 1.499 . S
C449 H423 0.950 . S
C449 C448 1.414 . S
C449 C450 1.374 . S
C450 H424 0.950 . S
C450 C446 1.385 . S
C450 C449 1.374 . S
C451 C448 1.499 . S
C451 C452 1.373 . S
C451 C453 1.389 . S
C452 H425 0.950 . S
C452 C438 1.377 . S
C452 C451 1.373 . S
C453 C437 1.377 . S
C453 C451 1.389 . S
C453 C454 1.524 . S
C454 C453 1.524 . S
C454 C455 1.397 . S
C454 C459 1.363 . S
C455 H426 0.950 . S
C455 C454 1.397 . S
C455 C456 1.334 . S
C456 H427 0.950 . S
C456 C455 1.334 . S
C456 C457 1.287 . S
C457 C456 1.287 . S
C457 C458 1.524 . S
C457 H460 0.999 . S
C458 H428 0.950 . S
C458 C457 1.524 . S
C458 C459 1.415 . S
C459 H429 0.950 . S
C459 C454 1.363 . S
C459 C458 1.415 . S
H460 C457 0.999 . S
H461 C442 0.913 . S
C81 C0 1.119 . S
C96 C41 1.131 . S
C131 C29 1.802 . S
C146 C33 1.800 . S
C181 C30 1.135 . S
C196 C50 1.118 . S
C231 C1 1.661 . S
C246 C51 1.659 . S
C281 C2 1.802 . S
C296 C60 1.804 . S
C331 C61 1.135 . S
C346 C19 1.119 . S
C381 C20 1.661 . S
C396 C32 1.662 . S
C431 C31 1.118 . S
C446 C10 1.138 . S
