# Generated by pormake.
# Topology wkj, (6)-cn, num edge types: 1
# Building blocks:
#     Node 0, Type 0, BuildingBlock: BETDIP_clean_sbu_0, # of connection points: 6
#     Node 1, Type 0, BuildingBlock: BETDIP_clean_sbu_0, # of connection points: 6
#     Node 2, Type 0, BuildingBlock: BETDIP_clean_sbu_0, # of connection points: 6
#     Node 3, Type 0, BuildingBlock: BETDIP_clean_sbu_0, # of connection points: 6
#     Node 4, Type 0, BuildingBlock: BETDIP_clean_sbu_0, # of connection points: 6
#     Node 5, Type 0, BuildingBlock: BETDIP_clean_sbu_0, # of connection points: 6
#     Node 6, Type 0, BuildingBlock: BETDIP_clean_sbu_0, # of connection points: 6
#     Node 7, Type 0, BuildingBlock: BETDIP_clean_sbu_0, # of connection points: 6
#     Node 8, Type 0, BuildingBlock: BETDIP_clean_sbu_0, # of connection points: 6
#     Node 9, Type 0, BuildingBlock: BETDIP_clean_sbu_0, # of connection points: 6
#     Node 10, Type 0, BuildingBlock: BETDIP_clean_sbu_0, # of connection points: 6
#     Node 11, Type 0, BuildingBlock: BETDIP_clean_sbu_0, # of connection points: 6
#     Edge 12, Type (0, 0), BuildingBlock: XUDNAN_clean_linker_2, # of connection points: 2
#     Edge 13, Type (0, 0), BuildingBlock: XUDNAN_clean_linker_2, # of connection points: 2
#     Edge 14, Type (0, 0), BuildingBlock: XUDNAN_clean_linker_2, # of connection points: 2
#     Edge 15, Type (0, 0), BuildingBlock: XUDNAN_clean_linker_2, # of connection points: 2
#     Edge 16, Type (0, 0), BuildingBlock: XUDNAN_clean_linker_2, # of connection points: 2
#     Edge 17, Type (0, 0), BuildingBlock: XUDNAN_clean_linker_2, # of connection points: 2
#     Edge 18, Type (0, 0), BuildingBlock: XUDNAN_clean_linker_2, # of connection points: 2
#     Edge 19, Type (0, 0), BuildingBlock: XUDNAN_clean_linker_2, # of connection points: 2
#     Edge 20, Type (0, 0), BuildingBlock: XUDNAN_clean_linker_2, # of connection points: 2
#     Edge 21, Type (0, 0), BuildingBlock: XUDNAN_clean_linker_2, # of connection points: 2
#     Edge 22, Type (0, 0), BuildingBlock: XUDNAN_clean_linker_2, # of connection points: 2
#     Edge 23, Type (0, 0), BuildingBlock: XUDNAN_clean_linker_2, # of connection points: 2
#     Edge 24, Type (0, 0), BuildingBlock: XUDNAN_clean_linker_2, # of connection points: 2
#     Edge 25, Type (0, 0), BuildingBlock: XUDNAN_clean_linker_2, # of connection points: 2
#     Edge 26, Type (0, 0), BuildingBlock: XUDNAN_clean_linker_2, # of connection points: 2
#     Edge 27, Type (0, 0), BuildingBlock: XUDNAN_clean_linker_2, # of connection points: 2
#     Edge 28, Type (0, 0), BuildingBlock: XUDNAN_clean_linker_2, # of connection points: 2
#     Edge 29, Type (0, 0), BuildingBlock: XUDNAN_clean_linker_2, # of connection points: 2
#     Edge 30, Type (0, 0), BuildingBlock: XUDNAN_clean_linker_2, # of connection points: 2
#     Edge 31, Type (0, 0), BuildingBlock: XUDNAN_clean_linker_2, # of connection points: 2
#     Edge 32, Type (0, 0), BuildingBlock: XUDNAN_clean_linker_2, # of connection points: 2
#     Edge 33, Type (0, 0), BuildingBlock: XUDNAN_clean_linker_2, # of connection points: 2
#     Edge 34, Type (0, 0), BuildingBlock: XUDNAN_clean_linker_2, # of connection points: 2
#     Edge 35, Type (0, 0), BuildingBlock: XUDNAN_clean_linker_2, # of connection points: 2
#     Edge 36, Type (0, 0), BuildingBlock: XUDNAN_clean_linker_2, # of connection points: 2
#     Edge 37, Type (0, 0), BuildingBlock: XUDNAN_clean_linker_2, # of connection points: 2
#     Edge 38, Type (0, 0), BuildingBlock: XUDNAN_clean_linker_2, # of connection points: 2
#     Edge 39, Type (0, 0), BuildingBlock: XUDNAN_clean_linker_2, # of connection points: 2
#     Edge 40, Type (0, 0), BuildingBlock: XUDNAN_clean_linker_2, # of connection points: 2
#     Edge 41, Type (0, 0), BuildingBlock: XUDNAN_clean_linker_2, # of connection points: 2
#     Edge 42, Type (0, 0), BuildingBlock: XUDNAN_clean_linker_2, # of connection points: 2
#     Edge 43, Type (0, 0), BuildingBlock: XUDNAN_clean_linker_2, # of connection points: 2
#     Edge 44, Type (0, 0), BuildingBlock: XUDNAN_clean_linker_2, # of connection points: 2
#     Edge 45, Type (0, 0), BuildingBlock: XUDNAN_clean_linker_2, # of connection points: 2
#     Edge 46, Type (0, 0), BuildingBlock: XUDNAN_clean_linker_2, # of connection points: 2
#     Edge 47, Type (0, 0), BuildingBlock: XUDNAN_clean_linker_2, # of connection points: 2
# Relax obj value: 0.776
# Max RMSD: 0.175
# Mean RMSD: 0.175
data_MOF--net-wkj--node1-BETDIP_clean_sbu_0--edge1-XUDNAN_clean_linker_2
_symmetry_space_group_name_H-M    P1
_symmetry_Int_Tables_number       1
_symmetry_cell_setting            triclinic
loop_
_symmetry_equiv_pos_as_xyz
'x, y, z'
_cell_length_a     48.480966
_cell_length_b     48.460839
_cell_length_c     30.347211
_cell_angle_alpha  89.633622
_cell_angle_beta   90.020016
_cell_angle_gamma 119.81659
loop_
_atom_site_label
_atom_site_type_symbol
_atom_site_fract_x
_atom_site_fract_y
_atom_site_fract_z
_atom_type_partial_charge
Tb0 Tb 0.46223 0.0854 0.36012 0.0
Tb1 Tb 0.52279 0.09336 0.35255 0.0
C2 C 0.40812 0.07838 0.37727 0.0
C3 C 0.38367 0.06371 0.41126 0.0
C4 C 0.39156 0.05887 0.45388 0.0
C5 C 0.36768 0.04267 0.48495 0.0
C6 C 0.33577 0.03144 0.47383 0.0
C7 C 0.32786 0.03709 0.4317 0.0
C8 C 0.35183 0.05314 0.40038 0.0
C9 C 0.49955 0.13932 0.31481 0.0
C10 C 0.50627 0.1001 0.4538 0.0
C11 C 0.58028 0.11653 0.32947 0.0
C12 C 0.6016 0.14501 0.30381 0.0
C13 C 0.6347 0.15819 0.30643 0.0
C14 C 0.655 0.18759 0.28633 0.0
C15 C 0.64232 0.20436 0.2643 0.0
C16 C 0.60912 0.19072 0.26139 0.0
C17 C 0.58898 0.16133 0.28086 0.0
C18 C 0.48412 0.04143 0.39707 0.0
C19 C 0.47165 0.05031 0.27304 0.0
O20 O 0.41263 0.05873 0.35343 0.0
O21 O 0.43488 0.10301 0.38907 0.0
O22 O 0.50736 0.12919 0.34897 0.0
O23 O 0.47211 0.11665 0.30342 0.0
O24 O 0.47798 0.09243 0.43448 0.0
O25 O 0.52931 0.10379 0.42608 0.0
O26 O 0.57106 0.12278 0.36642 0.0
O27 O 0.55652 0.09358 0.30845 0.0
O28 O 0.47785 0.0526 0.36383 0.0
O29 O 0.51473 0.05633 0.40141 0.0
O30 O 0.50214 0.06587 0.28718 0.0
O31 O 0.45077 0.05296 0.29953 0.0
H32 H 0.41601 0.06692 0.46284 0.0
H33 H 0.37402 0.03835 0.5175 0.0
H34 H 0.30327 0.02842 0.42281 0.0
H35 H 0.3455 0.05678 0.36747 0.0
H36 H 0.64479 0.14601 0.32456 0.0
H37 H 0.68049 0.19738 0.28837 0.0
H38 H 0.59864 0.20262 0.24343 0.0
H39 H 0.56349 0.15155 0.27872 0.0
Tb40 Tb 0.38056 0.47734 0.70694 0.0
Tb41 Tb 0.42097 0.54013 0.67652 0.0
C42 C 0.34318 0.42543 0.74499 0.0
C43 C 0.33402 0.41639 0.79112 0.0
C44 C 0.35537 0.43255 0.82531 0.0
C45 C 0.34465 0.42826 0.8688 0.0
C46 C 0.31235 0.40782 0.87883 0.0
C47 C 0.29125 0.39078 0.84466 0.0
C48 C 0.30203 0.39513 0.80112 0.0
C49 C 0.34938 0.50296 0.66458 0.0
C50 C 0.41672 0.53376 0.78538 0.0
C51 C 0.43395 0.59112 0.63729 0.0
C52 C 0.41937 0.598 0.5994 0.0
C53 C 0.40068 0.57393 0.56956 0.0
C54 C 0.3849 0.57981 0.53548 0.0
C55 C 0.38705 0.60978 0.53086 0.0
C56 C 0.40555 0.63373 0.56129 0.0
C57 C 0.42154 0.62785 0.59528 0.0
C58 C 0.454 0.5194 0.71766 0.0
C59 C 0.40844 0.48095 0.60666 0.0
O60 O 0.37202 0.43323 0.73297 0.0
O61 O 0.3349 0.4454 0.72988 0.0
O62 O 0.37109 0.51562 0.69349 0.0
O63 O 0.34733 0.47598 0.65598 0.0
O64 O 0.39776 0.50258 0.77541 0.0
O65 O 0.42712 0.55372 0.75019 0.0
O66 O 0.41547 0.58022 0.67182 0.0
O67 O 0.44865 0.57513 0.62945 0.0
O68 O 0.42991 0.50289 0.69367 0.0
O69 O 0.46327 0.5494 0.71185 0.0
O70 O 0.41914 0.51244 0.61251 0.0
O71 O 0.39337 0.46221 0.64188 0.0
H72 H 0.38008 0.44922 0.81838 0.0
H73 H 0.36167 0.44109 0.89456 0.0
H74 H 0.26627 0.37486 0.85141 0.0
H75 H 0.2851 0.38287 0.77501 0.0
H76 H 0.39816 0.5505 0.57267 0.0
H77 H 0.37156 0.56094 0.51224 0.0
H78 H 0.40754 0.65697 0.55902 0.0
H79 H 0.43532 0.6465 0.61865 0.0
Tb80 Tb 0.88979 0.37311 1.03454 0.0
Tb81 Tb 0.87581 0.42033 1.01517 0.0
C82 C 0.90448 0.33252 1.06105 0.0
C83 C 0.93211 0.33072 1.07678 0.0
C84 C 0.96293 0.35117 1.06066 0.0
C85 C 0.98904 0.35113 1.08007 0.0
C86 C 0.98451 0.33015 1.11506 0.0
C87 C 0.95344 0.30818 0.12872 0.0
C88 C 0.92748 0.30858 1.10983 0.0
C89 C 0.83196 0.34705 0.9951 0.0
C90 C 0.87018 0.40436 1.11995 0.0
C91 C 0.84949 0.44862 0.97996 0.0
C92 C 0.81665 0.44202 0.97608 0.0
C93 C 0.79208 0.4162 0.99882 0.0
C94 C 0.76086 0.40246 0.98334 0.0
C95 C 0.75422 0.41413 0.94456 0.0
C96 C 0.7781 0.44313 0.92663 0.0
C97 C 0.80921 0.45682 0.94212 0.0
C98 C 0.92957 0.44232 1.05811 0.0
C99 C 0.9247 0.41424 0.94336 0.0
O100 O 0.905 0.34062 1.02 0.0
O101 O 0.89377 0.34654 1.08685 0.0
O102 O 0.84274 0.36894 1.02429 0.0
O103 O 0.85467 0.34158 0.98684 0.0
O104 O 0.8824 0.38599 1.10651 0.0
O105 O 0.86127 0.41698 1.08716 0.0
O106 O 0.86221 0.4553 1.01903 0.0
O107 O 0.85501 0.42817 0.95968 0.0
O108 O 0.91949 0.42201 1.02807 0.0
O109 O 0.91212 0.4556 1.05852 0.0
O110 O 0.90585 0.42667 0.95225 0.0
O111 O 0.92487 0.39481 0.97547 0.0
H112 H 0.96695 0.36811 1.03453 0.0
H113 H 0.0128 0.36842 1.06922 0.0
H114 H 0.94925 0.29214 0.15617 0.0
H115 H 0.90382 0.29242 1.12228 0.0
H116 H 0.79749 0.40466 1.02544 0.0
H117 H 0.74286 0.38037 0.99815 0.0
H118 H 0.77393 0.45288 0.89679 0.0
H119 H 0.82794 0.47688 0.92439 0.0
Tb120 Tb 0.50832 0.90605 0.36878 0.0
Tb121 Tb 0.44665 0.87292 0.34576 0.0
C122 C 0.56482 0.93602 0.39553 0.0
C123 C 0.58461 0.95878 0.42904 0.0
C124 C 0.57312 0.97489 0.45464 0.0
C125 C 0.59384 -0.0003 0.48194 0.0
C126 C 0.62626 0.00867 0.48385 0.0
C127 C 0.63737 0.99191 0.45875 0.0
C128 C 0.61668 0.96719 0.43151 0.0
C129 C 0.49314 0.85128 0.32436 0.0
C130 C 0.45821 0.8771 0.45422 0.0
C131 C 0.39303 0.82791 0.32318 0.0
C132 C 0.37644 0.79305 0.32359 0.0
C133 C 0.39223 0.77652 0.33568 0.0
C134 C 0.38006 0.74486 0.32281 0.0
C135 C 0.3525 0.72974 0.29654 0.0
C136 C 0.33478 0.74534 0.29002 0.0
C137 C 0.34673 0.77672 0.30336 0.0
C138 C 0.45637 0.92771 0.37351 0.0
C139 C 0.49501 0.92904 0.27506 0.0
O140 O 0.5527 0.94706 0.36669 0.0
O141 O 0.54455 0.90702 0.40829 0.0
O142 O 0.47863 0.85496 0.35605 0.0
O143 O 0.51554 0.87939 0.31433 0.0
O144 O 0.48873 0.89588 0.44094 0.0
O145 O 0.43726 0.86398 0.42075 0.0
O146 O 0.39825 0.84235 0.3609 0.0
O147 O 0.41789 0.84125 0.29739 0.0
O148 O 0.47026 0.91321 0.38667 0.0
O149 O 0.44003 0.91369 0.33875 0.0
O150 O 0.46832 0.9004 0.27943 0.0
O151 O 0.51248 0.93857 0.31165 0.0
H152 H 0.54839 0.96877 0.45273 0.0
H153 H 0.58449 0.01178 0.50162 0.0
H154 H 0.6622 -0.00164 0.45948 0.0
H155 H 0.62592 0.9552 0.41138 0.0
H156 H 0.41519 0.7888 0.3517 0.0
H157 H 0.39387 0.73339 0.32973 0.0
H158 H 0.3135 0.73499 0.27009 0.0
H159 H 0.33419 0.78914 0.29395 0.0
Tb160 Tb 0.60673 0.51416 0.70928 0.0
Tb161 Tb 0.57026 0.44959 0.67473 0.0
C162 C 0.63533 0.57284 0.72559 0.0
C163 C 0.65707 0.59442 0.75908 0.0
C164 C 0.65262 0.58574 0.80375 0.0
C165 C 0.66993 0.60817 0.83583 0.0
C166 C 0.69239 0.63967 0.82388 0.0
C167 C 0.69837 0.64757 0.77888 0.0
C168 C 0.68069 0.62512 0.74674 0.0
C169 C 0.64184 0.4866 0.68892 0.0
C170 C 0.57787 0.45903 0.78597 0.0
C171 C 0.56231 0.39865 0.64262 0.0
C172 C 0.5766 0.39 0.60644 0.0
C173 C 0.58046 0.36327 0.61096 0.0
C174 C 0.59687 0.35646 0.57884 0.0
C175 C 0.61014 0.37669 0.54223 0.0
C176 C 0.60589 0.40325 0.53761 0.0
C177 C 0.58909 0.40973 0.56929 0.0
C178 C 0.53327 0.46381 0.7195 0.0
C179 C 0.5782 0.50611 0.60557 0.0
O180 O 0.6066 0.55279 0.73907 0.0
O181 O 0.64655 0.55966 0.69911 0.0
O182 O 0.61886 0.48564 0.66777 0.0
O183 O 0.64536 0.50326 0.72381 0.0
O184 O 0.59207 0.49046 0.77739 0.0
O185 O 0.57125 0.43979 0.75027 0.0
O186 O 0.58185 0.41347 0.67519 0.0
O187 O 0.54478 0.41142 0.63184 0.0
O188 O 0.55772 0.48298 0.6974 0.0
O189 O 0.52571 0.43516 0.70819 0.0
O190 O 0.56863 0.47494 0.61143 0.0
O191 O 0.59251 0.52515 0.6406 0.0
H192 H 0.63459 0.56208 0.81405 0.0
H193 H 0.66409 0.60118 0.87002 0.0
H194 H 0.71574 0.67143 0.76852 0.0
H195 H 0.68456 0.63213 0.71231 0.0
H196 H 0.57115 0.34792 0.63967 0.0
H197 H 0.59957 0.3357 0.58283 0.0
H198 H 0.61528 0.41886 0.50916 0.0
H199 H 0.58662 0.43064 0.56535 0.0
Tb200 Tb 0.0802 0.59582 1.03527 0.0
Tb201 Tb 0.10637 0.55782 1.01246 0.0
C202 C 0.05754 0.6297 1.05977 0.0
C203 C 0.04113 0.63785 1.09291 0.0
C204 C 0.02101 0.61571 1.1243 0.0
C205 C 0.00403 0.62398 0.15332 0.0
C206 C 0.00697 0.6544 0.1511 0.0
C207 C 0.02747 0.67651 1.11985 0.0
C208 C 0.04439 0.66822 1.0909 0.0
C209 C 0.13523 0.62842 0.98763 0.0
C210 C 0.10352 0.56794 1.12126 0.0
C211 C 0.14698 0.5409 0.99547 0.0
C212 C 0.17852 0.55501 0.97387 0.0
C213 C 0.20599 0.57973 0.9935 0.0
C214 C 0.23486 0.5948 0.97041 0.0
C215 C 0.23694 0.58498 0.92767 0.0
C216 C 0.20991 0.5588 0.90951 0.0
C217 C 0.18113 0.54398 0.93239 0.0
C218 C 0.04925 0.52147 1.0456 0.0
C219 C 0.0556 0.55966 0.94121 0.0
O220 O 0.04098 0.60256 1.03938 0.0
O221 O 0.0868 0.63666 1.068 0.0
O222 O 0.12893 0.60843 1.0182 0.0
O223 O 0.10964 0.62977 0.98235 0.0
O224 O 0.0904 0.58571 1.10768 0.0
O225 O 0.11146 0.55455 1.08807 0.0
O226 O 0.14541 0.55338 1.03253 0.0
O227 O 0.12285 0.53479 0.97022 0.0
O228 O 0.06874 0.54969 1.05453 0.0
O229 O 0.06121 0.51341 1.01336 0.0
O230 O 0.08249 0.55791 0.94565 0.0
O231 O 0.04754 0.56988 0.97731 0.0
H232 H 0.01831 0.59215 0.12614 0.0
H233 H 0.98893 0.60672 0.17786 0.0
H234 H 0.03015 0.70004 1.11751 0.0
H235 H 0.05975 0.68543 1.06646 0.0
H236 H 0.20495 0.58841 1.0259 0.0
H237 H 0.25522 0.61482 0.9853 0.0
H238 H 0.21033 0.55087 0.87635 0.0
H239 H 0.16053 0.52462 0.91682 0.0
Tb240 Tb 0.89109 0.50642 0.55387 0.0
Tb241 Tb 0.87235 0.44165 0.56509 0.0
C242 C 0.90527 0.56281 0.53527 0.0
C243 C 0.91316 0.58322 0.49651 0.0
C244 C 0.91778 0.57289 0.45571 0.0
C245 C 0.92201 0.59112 0.41811 0.0
C246 C 0.92155 0.61988 0.42083 0.0
C247 C 0.91782 0.63061 0.46198 0.0
C248 C 0.91345 0.61221 0.49968 0.0
C249 C 0.83515 0.47412 0.59707 0.0
C250 C 0.87267 0.46067 0.46177 0.0
C251 C 0.8387 0.38471 0.58956 0.0
C252 C 0.81295 0.36893 0.62249 0.0
C253 C 0.78104 0.35523 0.60889 0.0
C254 C 0.75663 0.34556 0.63984 0.0
C255 C 0.7636 0.34863 0.68492 0.0
C256 C 0.79516 0.35996 0.69857 0.0
C257 C 0.81966 0.37011 0.66764 0.0
C258 C 0.92693 0.47261 0.52375 0.0
C259 C 0.91614 0.49171 0.64604 0.0
O260 O 0.926 0.55464 0.54754 0.0
O261 O 0.87638 0.53878 0.53587 0.0
O262 O 0.8441 0.46521 0.56317 0.0
O263 O 0.85953 0.50016 0.60971 0.0
O264 O 0.88336 0.48983 0.48015 0.0
O265 O 0.86492 0.43669 0.4904 0.0
O266 O 0.83172 0.39757 0.55663 0.0
O267 O 0.8677 0.40326 0.6038 0.0
O268 O 0.91715 0.48255 0.55484 0.0
O269 O 0.90807 0.44217 0.52072 0.0
O270 O 0.89499 0.46147 0.63385 0.0
O271 O 0.92058 0.51436 0.6165 0.0
H272 H 0.9176 0.55054 0.45282 0.0
H273 H 0.92575 0.58277 0.38685 0.0
H274 H 0.91769 0.65282 0.4648 0.0
H275 H 0.90969 0.62028 0.53116 0.0
H276 H 0.77509 0.35356 0.57423 0.0
H277 H 0.73248 0.3368 0.6286 0.0
H278 H 0.80121 0.36287 0.73325 0.0
H279 H 0.8439 0.38028 0.6792 0.0
Tb280 Tb 0.36972 0.89053 0.88314 0.0
Tb281 Tb 0.40969 0.86383 0.90103 0.0
C282 C 0.33443 0.91257 0.86026 0.0
C283 C 0.32491 0.9235 0.82136 0.0
C284 C 0.33994 0.92705 0.78072 0.0
C285 C 0.32846 0.93473 0.74324 0.0
C286 C 0.30143 0.93841 0.74581 0.0
C287 C 0.28668 0.93507 0.78684 0.0
C288 C 0.2984 0.92769 0.82436 0.0
C289 C 0.33862 0.83277 0.92281 0.0
C290 C 0.39776 0.86996 0.79506 0.0
C291 C 0.42485 0.82412 0.92915 0.0
C292 C 0.4124 0.79905 0.96308 0.0
C293 C 0.38659 0.79408 0.98948 0.0
C294 C 0.37275 0.76828 1.01869 0.0
C295 C 0.38476 0.74723 1.02243 0.0
C296 C 0.41094 0.75259 0.99633 0.0
C297 C 0.42449 0.77818 0.9666 0.0
C298 C 0.44213 0.91825 0.86127 0.0
C299 C 0.40411 0.91021 0.97931 0.0
O300 O 0.36346 0.93025 0.8745 0.0
O301 O 0.32572 0.88244 0.86039 0.0
O302 O 0.35911 0.84162 0.89208 0.0
O303 O 0.33672 0.85748 0.93337 0.0
O304 O 0.38045 0.88256 0.81136 0.0
O305 O 0.41042 0.85883 0.82521 0.0
O306 O 0.4054 0.81888 0.89642 0.0
O307 O 0.43821 0.85358 0.94274 0.0
O308 O 0.41957 0.91084 0.88836 0.0
O309 O 0.45076 0.89687 0.86314 0.0
O310 O 0.41079 0.88688 0.9689 0.0
O311 O 0.38937 0.91753 0.94771 0.0
H312 H 0.36015 0.92341 0.7778 0.0
H313 H 0.34085 0.93788 0.7123 0.0
H314 H 0.26577 0.93756 0.78981 0.0
H315 H 0.28632 0.92454 0.8556 0.0
H316 H 0.37689 0.80992 0.98705 0.0
H317 H 0.35306 0.76521 1.03906 0.0
H318 H 0.42078 0.73687 0.99877 0.0
H319 H 0.44421 0.78153 0.94608 0.0
Tb320 Tb 0.45262 0.36136 0.21038 0.0
Tb321 Tb 0.50988 0.40745 0.2232 0.0
C322 C 0.39726 0.3231 0.18326 0.0
C323 C 0.36843 0.32497 0.17527 0.0
C324 C 0.36075 0.34414 0.20115 0.0
C325 C 0.33687 0.3505 0.18757 0.0
C326 C 0.32094 0.33842 0.1474 0.0
C327 C 0.32726 0.31721 1.12366 0.0
C328 C 0.35063 0.31048 0.13764 0.0
C329 C 0.48619 0.33565 0.24491 0.0
C330 C 0.50156 0.3922 1.12065 0.0
C331 C 0.56478 0.43908 0.25537 0.0
C332 C 0.59384 0.43693 0.25468 0.0
C333 C 0.59546 0.41336 0.23007 0.0
C334 C 0.6177 0.40402 0.24104 0.0
C335 C 0.63793 0.41755 0.27756 0.0
C336 C 0.63879 0.44415 0.29783 0.0
C337 C 0.61692 0.45365 0.28645 0.0
C338 C 0.47368 0.42846 0.18682 0.0
C339 C 0.45988 0.40137 0.30275 0.0
O340 O 0.40618 0.32456 0.22398 0.0
O341 O 0.42112 0.34097 0.15753 0.0
O342 O 0.49575 0.3573 0.21524 0.0
O343 O 0.45804 0.32921 0.25562 0.0
O344 O 0.47181 0.37313 0.13711 0.0
O345 O 0.5234 0.40728 0.15162 0.0
O346 O 0.5562 0.44688 0.21879 0.0
O347 O 0.54093 0.41517 0.27527 0.0
O348 O 0.4663 0.40916 0.21829 0.0
O349 O 0.50227 0.43594 0.17547 0.0
O350 O 0.49017 0.41655 0.28831 0.0
O351 O 0.43981 0.37885 0.2745 0.0
H352 H 0.37428 0.35556 0.23048 0.0
H353 H 0.33233 0.36644 0.20712 0.0
H354 H 0.31624 0.30777 1.09216 0.0
H355 H 0.35634 0.2957 1.11726 0.0
H356 H 0.57777 0.40027 0.20515 0.0
H357 H 0.61688 0.38419 0.22366 0.0
H358 H 0.65365 0.45552 0.3261 0.0
H359 H 0.61597 0.47192 0.30573 0.0
Tb360 Tb 0.08437 0.46752 0.55484 0.0
Tb361 Tb 0.11338 0.53198 0.56849 0.0
C362 C 0.06333 0.41194 0.5271 0.0
C363 C 0.05837 0.39775 0.48333 0.0
C364 C 0.04674 0.40815 0.44851 0.0
C365 C 0.04725 0.39822 0.40564 0.0
C366 C 0.05997 0.37825 0.39677 0.0
C367 C 0.07085 0.36732 0.43203 0.0
C368 C 0.0699 0.3769 0.47495 0.0
C369 C 0.13952 0.49061 0.60066 0.0
C370 C 0.10741 0.51425 0.46284 0.0
C371 C 0.15764 0.58819 0.58115 0.0
C372 C 0.18606 0.60031 0.60875 0.0
C373 C 0.21154 0.63136 0.60325 0.0
C374 C 0.23881 0.64221 0.62937 0.0
C375 C 0.24093 0.62195 0.66097 0.0
C376 C 0.21533 0.59064 0.6655 0.0
C377 C 0.1883 0.57997 0.63962 0.0
C378 C 0.05593 0.51301 0.53948 0.0
C379 C 0.06502 0.48375 0.64782 0.0
O380 O 0.04487 0.42313 0.53945 0.0
O381 O 0.09317 0.43138 0.5359 0.0
O382 O 0.13419 0.50197 0.56632 0.0
O383 O 0.11256 0.46675 0.61228 0.0
O384 O 0.09575 0.48485 0.48129 0.0
O385 O 0.11558 0.53778 0.49234 0.0
O386 O 0.15708 0.57056 0.54861 0.0
O387 O 0.13051 0.5752 0.60217 0.0
O388 O 0.07361 0.50186 0.53033 0.0
O389 O 0.06986 0.53431 0.56963 0.0
O390 O 0.09227 0.51131 0.63826 0.0
O391 O 0.05399 0.46306 0.61459 0.0
H392 H 0.03813 0.42461 0.45416 0.0
H393 H 0.03788 0.40645 0.37945 0.0
H394 H 0.08102 0.35218 0.4264 0.0
H395 H 0.07947 0.3691 0.50145 0.0
H396 H 0.21025 0.64721 0.57904 0.0
H397 H 0.25803 0.66643 0.62522 0.0
H398 H 0.2155 0.57455 0.69031 0.0
H399 H 0.16887 0.55587 0.64414 0.0
Tb400 Tb 0.58984 0.08635 0.87965 0.0
Tb401 Tb 0.55801 0.11982 0.90429 0.0
C402 C 0.61538 0.05639 0.84833 0.0
C403 C 0.64502 0.06647 0.82437 0.0
C404 C 0.6478 0.04411 0.79888 0.0
C405 C 0.66979 0.05418 0.76452 0.0
C406 C 0.68917 0.08689 0.75502 0.0
C407 C 0.68911 0.10913 0.78452 0.0
C408 C 0.66693 0.09897 0.81885 0.0
C409 C 0.63015 0.14531 0.91307 0.0
C410 C 0.5637 0.11212 0.79619 0.0
C411 C 0.55226 0.16438 0.93647 0.0
C412 C 0.57238 0.18876 0.96842 0.0
C413 C 0.58694 0.18095 1.00235 0.0
C414 C 0.61084 0.20477 1.02732 0.0
C415 C 0.62101 0.237 1.01872 0.0
C416 C 0.6056 0.24487 0.98595 0.0
C417 C 0.58154 0.22083 0.96069 0.0
C418 C 0.51754 0.06649 0.86898 0.0
C419 C 0.55918 0.06848 0.978 0.0
O420 O 0.59531 0.06193 0.82703 0.0
O421 O 0.61774 0.06468 0.88952 0.0
O422 O 0.60685 0.13726 0.88721 0.0
O423 O 0.63216 0.12007 0.91845 0.0
O424 O 0.57924 0.09691 0.80916 0.0
O425 O 0.55461 0.12485 0.82885 0.0
O426 O 0.56661 0.16652 0.89921 0.0
O427 O 0.53635 0.13498 0.95091 0.0
O428 O 0.54117 0.07092 0.89244 0.0
O429 O 0.51287 0.09045 0.87363 0.0
O430 O 0.55877 0.09596 0.97085 0.0
O431 O 0.56695 0.05726 0.94255 0.0
H432 H 0.63089 0.01896 0.80264 0.0
H433 H 0.66876 0.0362 0.7425 0.0
H434 H 0.70401 0.13442 0.77851 0.0
H435 H 0.66496 0.11656 0.83837 0.0
H436 H 0.58076 0.15651 1.00856 0.0
H437 H 0.62156 0.19787 1.05332 0.0
H438 H 0.61275 0.2695 0.97914 0.0
H439 H 0.57093 0.22732 0.93405 0.0
Tb440 Tb 0.53626 0.63717 0.2151 0.0
Tb441 Tb 0.48092 0.58051 0.22523 0.0
C442 C 0.58787 0.68502 0.19219 0.0
C443 C 0.60892 0.69285 0.15402 0.0
C444 C 0.6049 0.66877 1.12504 0.0
C445 C 0.62654 0.67538 1.09095 0.0
C446 C 0.65239 0.70628 1.08502 0.0
C447 C 0.6558 0.73067 1.11314 0.0
C448 C 0.63424 0.7239 0.14777 0.0
C449 C 0.49426 0.64858 0.25727 0.0
C450 C 0.49136 0.59864 1.12239 0.0
C451 C 0.42332 0.54073 0.23825 0.0
C452 C 0.3943 0.54288 0.23409 0.0
C453 C 0.39501 0.56857 0.21141 0.0
C454 C 0.37394 0.5792 0.22314 0.0
C455 C 0.35289 0.56515 0.25906 0.0
C456 C 0.34913 0.53628 0.27632 0.0
C457 C 0.36962 0.5253 0.2638 0.0
C458 C 0.53303 0.57756 0.20709 0.0
C459 C 0.5287 0.59467 0.30825 0.0
O460 O 0.58586 0.66181 0.21673 0.0
O461 O 0.56004 0.68228 0.18482 0.0
O462 O 0.48888 0.62999 0.22453 0.0
O463 O 0.52238 0.65632 0.27036 0.0
O464 O 0.51762 0.62418 0.14072 0.0
O465 O 0.47207 0.57696 0.15162 0.0
O466 O 0.43846 0.5414 0.20222 0.0
O467 O 0.44246 0.5597 0.26846 0.0
O468 O 0.52354 0.59419 0.18995 0.0
O469 O 0.5111 0.55798 0.23399 0.0
O470 O 0.49879 0.57779 0.29381 0.0
O471 O 0.54866 0.61803 0.27982 0.0
H472 H 0.58532 0.64474 0.1293 0.0
H473 H 0.62301 0.65632 1.06905 0.0
H474 H 0.67542 0.75469 1.10887 0.0
H475 H 0.63759 0.74271 0.17001 0.0
H476 H 0.41389 0.58242 0.18806 0.0
H477 H 0.37661 0.60043 0.20717 0.0
H478 H 0.33331 0.52398 0.30356 0.0
H479 H 0.36869 0.50539 0.28162 0.0
H480 H 0.45626 0.1598 0.30214 0.0
H481 H 0.55782 0.19692 0.31019 0.0
H482 H 0.56681 0.25082 0.29058 0.0
H483 H 0.45512 0.20692 0.2124 0.0
H484 H 0.42382 0.21227 0.23536 0.0
H485 H 0.42618 0.1773 0.24915 0.0
H486 H 0.42762 0.18987 0.33215 0.0
H487 H 0.42495 0.22471 0.31863 0.0
H488 H 0.45725 0.22826 0.35215 0.0
H489 H 0.56307 0.30248 0.26429 0.0
H490 H 0.54758 0.3432 0.24596 0.0
H491 H 0.4486 0.27153 0.262 0.0
C492 C 0.48055 0.17916 0.29993 0.0
C493 C 0.50635 0.17339 0.30723 0.0
C494 C 0.53753 0.20006 0.30449 0.0
C495 C 0.54281 0.23098 0.2932 0.0
C496 C 0.51669 0.23553 0.2855 0.0
C497 C 0.48613 0.21011 0.28978 0.0
C498 C 0.46172 0.22072 0.28194 0.0
C499 C 0.44046 0.20326 0.24237 0.0
C500 C 0.44171 0.21559 0.3237 0.0
C501 C 0.48294 0.25603 0.27188 0.0
C502 C 0.51467 0.26438 0.27346 0.0
C503 C 0.53823 0.29585 0.26363 0.0
C504 C 0.52921 0.319 0.25284 0.0
C505 C 0.49679 0.3111 0.25237 0.0
C506 C 0.47365 0.27889 0.26209 0.0
H507 H 0.3132 0.50094 0.59115 0.0
H508 H 0.31703 0.51091 0.73307 0.0
H509 H 0.26509 0.50893 0.73213 0.0
H510 H 0.27791 0.55192 0.56999 0.0
H511 H 0.25323 0.52804 0.5253 0.0
H512 H 0.29031 0.52929 0.53674 0.0
H513 H 0.26162 0.46845 0.54383 0.0
H514 H 0.22425 0.46651 0.53221 0.0
H515 H 0.22884 0.4486 0.58187 0.0
H516 H 0.20922 0.50163 0.71588 0.0
H517 H 0.15901 0.49552 0.68595 0.0
H518 H 0.19237 0.49637 0.55337 0.0
C519 C 0.30342 0.50344 0.62195 0.0
C520 C 0.31987 0.50646 0.66233 0.0
C521 C 0.30566 0.50919 0.70168 0.0
C522 C 0.27587 0.50803 0.7014 0.0
C523 C 0.26034 0.50511 0.66128 0.0
C524 C 0.27395 0.50342 0.62209 0.0
C525 C 0.25231 0.50063 0.58343 0.0
C526 C 0.26946 0.52921 0.552 0.0
C527 C 0.2411 0.46918 0.55889 0.0
C528 C 0.22442 0.50092 0.60679 0.0
C529 C 0.22932 0.50291 0.65185 0.0
C530 C 0.20584 0.50103 0.6806 0.0
C531 C 0.17711 0.49739 0.66323 0.0
C532 C 0.17156 0.49619 0.61721 0.0
C533 C 0.19593 0.49814 0.58868 0.0
H534 H 0.80951 0.28316 0.97797 0.0
H535 H 0.77504 0.3494 0.99479 0.0
H536 H 0.7204 0.30631 0.976 0.0
H537 H 0.76129 0.23909 0.88788 0.0
H538 H 0.75442 0.20103 0.90769 0.0
H539 H 0.79011 0.23683 0.923 0.0
H540 H 0.77696 0.22255 1.00544 0.0
H541 H 0.74129 0.18655 0.99054 0.0
H542 H 0.73903 0.2147 1.02677 0.0
H543 H 0.66863 0.25437 0.94521 0.0
H544 H 0.62732 0.20115 0.91985 0.0
H545 H 0.69412 0.16705 0.93294 0.0
C546 C 0.79057 0.28887 0.97792 0.0
C547 C 0.79739 0.32053 0.9877 0.0
C548 C 0.77116 0.32595 0.98756 0.0
C549 C 0.73984 0.30136 0.97655 0.0
C550 C 0.73433 0.27077 0.96604 0.0
C551 C 0.75911 0.26443 0.9679 0.0
C552 C 0.74716 0.22942 0.95735 0.0
C553 C 0.76427 0.22643 0.91656 0.0
C554 C 0.75136 0.21229 0.9974 0.0
C555 C 0.71193 0.21691 0.94787 0.0
C556 C 0.70493 0.24116 0.95243 0.0
C557 C 0.67423 0.23544 0.94246 0.0
C558 C 0.65055 0.20479 0.92808 0.0
C559 C 0.65651 0.17899 0.92512 0.0
C560 C 0.68805 0.18568 0.93531 0.0
H561 H 0.48269 0.67711 0.32968 0.0
H562 H 0.49115 0.68351 0.18747 0.0
H563 H 0.49113 0.73459 0.18923 0.0
H564 H 0.42859 0.71091 0.33655 0.0
H565 H 0.44543 0.73164 0.38729 0.0
H566 H 0.44568 0.69535 0.37527 0.0
H567 H 0.5063 0.72377 0.38531 0.0
H568 H 0.50677 0.76034 0.39753 0.0
H569 H 0.53121 0.75921 0.3536 0.0
H570 H 0.49744 0.78971 0.20783 0.0
H571 H 0.49991 0.83788 0.23926 0.0
H572 H 0.48082 0.79461 0.36912 0.0
C573 C 0.48349 0.68872 0.29873 0.0
C574 C 0.48622 0.67532 0.25817 0.0
C575 C 0.48819 0.69227 0.21885 0.0
C576 C 0.48864 0.72177 0.21965 0.0
C577 C 0.48642 0.73445 0.26005 0.0
C578 C 0.48301 0.71797 0.29885 0.0
C579 C 0.48052 0.73672 0.33779 0.0
C580 C 0.44811 0.71753 0.36063 0.0
C581 C 0.50782 0.74552 0.37049 0.0
C582 C 0.48355 0.76651 0.31514 0.0
C583 C 0.48759 0.76492 0.27028 0.0
C584 C 0.49354 0.79062 0.24277 0.0
C585 C 0.49493 0.81813 0.26103 0.0
C586 C 0.48991 0.82034 0.30663 0.0
C587 C 0.48395 0.79374 0.33394 0.0
H588 H 0.70177 0.50107 0.7224 0.0
H589 H 0.63964 0.45671 0.61139 0.0
H590 H 0.67942 0.44497 0.57852 0.0
H591 H 0.77435 0.53945 0.65952 0.0
H592 H 0.79811 0.53407 0.70069 0.0
H593 H 0.7637 0.53657 0.71697 0.0
H594 H 0.74098 0.48232 0.75733 0.0
H595 H 0.77535 0.4797 0.74103 0.0
H596 H 0.73606 0.44811 0.7275 0.0
H597 H 0.72825 0.43867 0.55644 0.0
H598 H 0.78074 0.44231 0.54577 0.0
H599 H 0.81323 0.49369 0.66848 0.0
C600 C 0.69634 0.48859 0.69139 0.0
C601 C 0.66671 0.47922 0.67007 0.0
C602 C 0.66141 0.4635 0.62906 0.0
C603 C 0.68416 0.45686 0.60995 0.0
C604 C 0.713 0.46637 0.63166 0.0
C605 C 0.71921 0.48214 0.67146 0.0
C606 C 0.75269 0.4912 0.68705 0.0
C607 C 0.77344 0.52748 0.69131 0.0
C608 C 0.75117 0.47433 0.73083 0.0
C609 C 0.76458 0.47862 0.6497 0.0
C610 C 0.74112 0.46386 0.61833 0.0
C611 C 0.74662 0.45028 0.581 0.0
C612 C 0.77667 0.4523 0.5752 0.0
C613 C 0.80163 0.4682 0.60608 0.0
C614 C 0.79495 0.48122 0.64406 0.0
H615 H 0.27483 0.81167 0.9419 0.0
H616 H 0.34001 0.77629 0.92055 0.0
H617 H 0.29653 0.72144 0.9368 0.0
H618 H 0.22641 0.75708 1.02803 0.0
H619 H 0.18943 0.75211 1.00708 0.0
H620 H 0.22602 0.78857 0.99658 0.0
H621 H 0.21519 0.7816 0.91282 0.0
H622 H 0.17854 0.74514 0.92305 0.0
H623 H 0.20809 0.74529 0.88685 0.0
H624 H 0.24482 0.66956 0.96181 0.0
H625 H 0.19014 0.62598 0.97808 0.0
H626 H 0.15635 0.69341 0.97403 0.0
C627 C 0.28009 0.79243 0.94082 0.0
C628 C 0.31158 0.7989 0.93091 0.0
C629 C 0.31668 0.77253 0.92882 0.0
C630 C 0.29189 0.74109 0.93802 0.0
C631 C 0.26131 0.73565 0.94803 0.0
C632 C 0.25522 0.76065 0.94836 0.0
C633 C 0.21983 0.74822 0.95703 0.0
C634 C 0.21515 0.76234 0.99972 0.0
C635 C 0.20451 0.7555 0.91759 0.0
C636 C 0.20686 0.71241 0.96203 0.0
C637 C 0.23134 0.70573 0.95759 0.0
C638 C 0.22554 0.67461 0.96371 0.0
C639 C 0.19429 0.64986 0.97342 0.0
C640 C 0.16844 0.65563 0.97673 0.0
C641 C 0.17517 0.68767 0.97086 0.0
H642 H 0.6771 0.24147 1.03932 0.0
H643 H 0.62033 0.28577 1.0624 0.0
H644 H 0.6479 0.30705 0.13218 0.0
H645 H 0.66338 0.20353 1.11722 0.0
H646 H 0.70039 0.20699 0.13568 0.0
H647 H 0.69651 0.2157 1.07981 0.0
H648 H 0.74552 0.27146 1.087 0.0
H649 H 0.74979 0.26262 0.14363 0.0
H650 H 0.74747 0.29768 0.13023 0.0
H651 H 0.65562 0.29776 0.20665 0.0
H652 H 0.64007 0.25941 0.26748 0.0
H653 H 0.68843 0.2155 0.20518 0.0
C654 C 0.67226 0.25743 1.05822 0.0
C655 C 0.64635 0.26144 1.04652 0.0
C656 C 0.64013 0.28235 1.07096 0.0
C657 C 0.65586 0.29456 1.11089 0.0
C658 C 0.67742 0.28533 0.12593 0.0
C659 C 0.68668 0.26812 1.09927 0.0
C660 C 0.70195 0.25288 0.12632 0.0
C661 C 0.68969 0.2177 1.11407 0.0
C662 C 0.73833 0.27233 1.12154 0.0
C663 C 0.69186 0.25671 0.17212 0.0
C664 C 0.6811 0.2785 0.17164 0.0
C665 C 0.6647 0.28139 0.20755 0.0
C666 C 0.65569 0.25929 0.24202 0.0
C667 C 0.66281 0.23441 0.24019 0.0
C668 C 0.68339 0.23484 0.20712 0.0
H669 H 0.302 0.54351 0.31701 0.0
H670 H 0.38035 0.63084 0.26429 0.0
H671 H 0.38113 0.65848 0.33082 0.0
H672 H 0.27459 0.58472 0.40932 0.0
H673 H 0.26851 0.55317 0.44677 0.0
H674 H 0.2589 0.54478 0.38921 0.0
H675 H 0.29498 0.51962 0.38548 0.0
H676 H 0.30494 0.52824 0.44222 0.0
H677 H 0.33617 0.54295 0.40133 0.0
H678 H 0.39263 0.67023 0.40803 0.0
H679 H 0.41089 0.66453 0.48109 0.0
H680 H 0.32986 0.56952 0.49241 0.0
C681 C 0.31873 0.5687 0.31899 0.0
C682 C 0.34227 0.58412 0.28604 0.0
C683 C 0.36224 0.6176 0.28878 0.0
C684 C 0.36301 0.63383 0.32715 0.0
C685 C 0.34385 0.61645 0.36266 0.0
C686 C 0.32117 0.58458 0.35852 0.0
C687 C 0.30982 0.56903 0.4035 0.0
C688 C 0.27595 0.56256 0.41274 0.0
C689 C 0.31168 0.53822 0.40836 0.0
C690 C 0.33356 0.59534 0.43281 0.0
C691 C 0.35141 0.62318 0.40908 0.0
C692 C 0.37833 0.64889 0.42715 0.0
C693 C 0.38856 0.64544 0.46898 0.0
C694 C 0.37193 0.61634 0.49245 0.0
C695 C 0.34308 0.59191 0.4751 0.0
H696 H 0.73942 0.35433 0.92642 0.0
H697 H 0.71457 0.42587 0.89213 0.0
H698 H 0.69453 0.40004 0.82053 0.0
H699 H 0.77787 0.36138 0.84361 0.0
H700 H 0.76817 0.32092 0.83339 0.0
H701 H 0.76395 0.33224 0.88754 0.0
H702 H 0.70501 0.28906 0.88976 0.0
H703 H 0.70909 0.27624 0.83577 0.0
H704 H 0.67835 0.28606 0.84638 0.0
H705 H 0.69872 0.38242 0.74712 0.0
H706 H 0.72526 0.37481 0.68305 0.0
H707 H 0.74973 0.31541 0.76165 0.0
C708 C 0.7274 0.363 0.90532 0.0
C709 C 0.72851 0.392 0.91479 0.0
C710 C 0.71377 0.40353 0.8856 0.0
C711 C 0.70234 0.38891 0.84473 0.0
C712 C 0.7056 0.3627 0.8338 0.0
C713 C 0.71712 0.34929 0.86393 0.0
C714 C 0.72649 0.32726 0.84157 0.0
C715 C 0.76114 0.33606 0.85211 0.0
C716 C 0.70328 0.29253 0.854 0.0
C717 C 0.72251 0.33359 0.7939 0.0
C718 C 0.70883 0.35271 0.78999 0.0
C719 C 0.70819 0.36642 0.74966 0.0
C720 C 0.72335 0.36198 0.71331 0.0
C721 C 0.73932 0.34439 0.71778 0.0
C722 C 0.73719 0.32854 0.75768 0.0
H723 H 0.41785 0.73402 1.08269 0.0
H724 H 0.32216 0.70485 1.0403 0.0
H725 H 0.30099 0.67385 1.10878 0.0
H726 H 0.39222 0.65747 0.16184 0.0
H727 H 0.42138 0.68233 0.20162 0.0
H728 H 0.43023 0.68929 0.14345 0.0
H729 H 0.44357 0.74733 0.14967 0.0
H730 H 0.43651 0.74203 0.20744 0.0
H731 H 0.41522 0.75642 0.17469 0.0
H732 H 0.2915 0.66268 0.18732 0.0
H733 H 0.29578 0.68126 0.26331 0.0
H734 H 0.39761 0.71943 0.25855 0.0
C735 C 0.39239 0.71941 1.08689 0.0
C736 C 0.37165 0.72171 1.05646 0.0
C737 C 0.33847 0.70338 1.06335 0.0
C738 C 0.32623 0.68532 1.10199 0.0
C739 C 0.34742 0.68558 0.13343 0.0
C740 C 0.37998 0.70172 0.12582 0.0
C741 C 0.39804 0.70522 0.16811 0.0
C742 C 0.41127 0.68223 0.16873 0.0
C743 C 0.42482 0.73982 0.17531 0.0
C744 C 0.37129 0.69457 0.2014 0.0
C745 C 0.342 0.68047 0.18069 0.0
C746 C 0.31429 0.67331 0.20375 0.0
C747 C 0.31697 0.6842 0.24707 0.0
C748 C 0.34731 0.70348 0.266 0.0
C749 C 0.37412 0.70523 0.24484 0.0
H750 H 0.69123 0.44115 0.32977 0.0
H751 H 0.61303 0.35264 0.2826 0.0
H752 H 0.61566 0.32547 0.34845 0.0
H753 H 0.72317 0.40083 0.42073 0.0
H754 H 0.72983 0.43256 0.45759 0.0
H755 H 0.7382 0.4406 0.39951 0.0
H756 H 0.70181 0.46545 0.39705 0.0
H757 H 0.69326 0.4573 0.45425 0.0
H758 H 0.66101 0.4421 0.41519 0.0
H759 H 0.60606 0.31426 0.42558 0.0
H760 H 0.5882 0.32073 0.4986 0.0
H761 H 0.66726 0.41679 0.50479 0.0
C762 C 0.67566 0.41574 0.33274 0.0
C763 C 0.65096 0.3996 0.30195 0.0
C764 C 0.63201 0.3661 0.30562 0.0
C765 C 0.63327 0.35025 0.34357 0.0
C766 C 0.65349 0.36811 0.37767 0.0
C767 C 0.67535 0.40023 0.37207 0.0
C768 C 0.68759 0.4162 0.4163 0.0
C769 C 0.72171 0.42292 0.42398 0.0
C770 C 0.68569 0.44698 0.42091 0.0
C771 C 0.66466 0.38999 0.44693 0.0
C772 C 0.64703 0.36169 0.4245 0.0
C773 C 0.62047 0.33588 0.44381 0.0
C774 C 0.61034 0.33973 0.48538 0.0
C775 C 0.62641 0.36936 0.50681 0.0
C776 C 0.65494 0.39392 0.48874 0.0
H777 H 0.26508 0.56441 0.86871 0.0
H778 H 0.27021 0.64976 0.91988 0.0
H779 H 0.29693 0.67864 0.85266 0.0
H780 H 0.33842 0.60916 0.78167 0.0
H781 H 0.3157 0.57747 0.74355 0.0
H782 H 0.31492 0.56887 0.8016 0.0
H783 H 0.25395 0.54113 0.80013 0.0
H784 H 0.25371 0.55065 0.74339 0.0
H785 H 0.23474 0.56322 0.78305 0.0
H786 H 0.29532 0.68878 0.77556 0.0
H787 H 0.26966 0.67931 0.70343 0.0
H788 H 0.27014 0.59061 0.69324 0.0
C789 C 0.27364 0.58969 0.86643 0.0
C790 C 0.26481 0.60461 0.89878 0.0
C791 C 0.27643 0.63767 0.89546 0.0
C792 C 0.29181 0.65436 0.85706 0.0
C793 C 0.29587 0.63778 0.82254 0.0
C794 C 0.28834 0.60629 0.82756 0.0
C795 C 0.28703 0.59138 0.78327 0.0
C796 C 0.31574 0.58646 0.77718 0.0
C797 C 0.25548 0.5598 0.77721 0.0
C798 C 0.28941 0.6173 0.75268 0.0
C799 C 0.29616 0.64455 0.77575 0.0
C800 C 0.29144 0.66825 0.75679 0.0
C801 C 0.27681 0.66273 0.71544 0.0
C802 C 0.26733 0.63381 0.69332 0.0
C803 C 0.27688 0.61268 0.71011 0.0
H804 H 0.41984 0.97491 1.01076 0.0
H805 H 0.40798 0.88624 1.06262 0.0
H806 H 0.42083 0.90975 0.13721 0.0
H807 H 0.48528 0.02592 1.07457 0.0
H808 H 0.47648 0.05657 1.09056 0.0
H809 H 0.46062 0.0347 1.04019 0.0
H810 H 0.40313 0.01325 1.05968 0.0
H811 H 0.4161 0.03792 1.10807 0.0
H812 H 0.38845 -0.0041 1.11326 0.0
H813 H 0.43713 0.94572 0.21297 0.0
H814 H 0.45439 0.98595 0.27194 0.0
H815 H 0.46037 0.05532 0.17631 0.0
C816 C 0.41973 0.96002 1.03753 0.0
C817 C 0.41238 0.92738 1.02756 0.0
C818 C 0.41314 0.91057 1.06621 0.0
C819 C 0.42049 0.92412 1.11001 0.0
C820 C 0.42833 0.95601 1.11805 0.0
C821 C 0.42777 0.97372 1.0824 0.0
C822 C 0.43752 0.00774 1.10022 0.0
C823 C 0.46674 0.03285 1.07497 0.0
C824 C 0.40966 0.0141 1.09496 0.0
C825 C 0.4451 0.00716 0.15054 0.0
C826 C 0.43874 0.97654 0.1601 0.0
C827 C 0.4422 0.96952 0.20449 0.0
C828 C 0.45233 0.99319 0.23884 0.0
C829 C 0.4601 0.02552 0.23168 0.0
C830 C 0.45574 0.03177 0.18536 0.0
H831 H 0.48554 0.45886 0.36161 0.0
H832 H 0.40492 0.36364 0.35374 0.0
H833 H 0.38429 0.37228 0.42383 0.0
H834 H 0.49136 0.45899 0.48479 0.0
H835 H 0.50319 0.50037 0.48926 0.0
H836 H 0.51114 0.48501 0.43897 0.0
H837 H 0.48273 0.50932 0.39457 0.0
H838 H 0.47353 0.52323 0.44432 0.0
H839 H 0.44207 0.49712 0.40811 0.0
H840 H 0.37277 0.39214 0.5056 0.0
H841 H 0.37066 0.41924 0.5732 0.0
H842 H 0.45505 0.50485 0.53026 0.0
C843 C 0.46338 0.43949 0.37404 0.0
C844 C 0.44774 0.40971 0.34885 0.0
C845 C 0.41856 0.38652 0.36946 0.0
C846 C 0.40629 0.39141 0.4106 0.0
C847 C 0.42213 0.42051 0.43396 0.0
C848 C 0.44998 0.44438 0.41547 0.0
C849 C 0.46232 0.47353 0.44719 0.0
C850 C 0.49405 0.48006 0.46621 0.0
C851 C 0.46542 0.50257 0.4221 0.0
C852 C 0.43744 0.46345 0.48559 0.0
C853 C 0.41469 0.43211 0.47773 0.0
C854 C 0.3907 0.41676 0.5103 0.0
C855 C 0.38969 0.43284 0.54998 0.0
C856 C 0.41194 0.46543 0.56026 0.0
C857 C 0.43647 0.48048 0.52573 0.0
H858 H -0.00042 0.43756 0.68003 0.0
H859 H 0.09022 0.50957 0.73133 0.0
H860 H 0.06675 0.49931 0.80629 0.0
H861 H 0.95122 0.45347 0.74243 0.0
H862 H 0.91916 0.41561 0.76162 0.0
H863 H 0.93972 0.41859 0.71065 0.0
H864 H 0.96042 0.38222 0.72978 0.0
H865 H 0.93554 0.37118 0.77828 0.0
H866 H 0.97725 0.38397 0.78331 0.0
H867 H 0.03067 0.47978 0.8829 0.0
H868 H 0.99025 0.45773 0.94233 0.0
H869 H 0.91918 0.39977 0.84638 0.0
C870 C 0.01491 0.45141 0.70673 0.0
C871 C 0.04803 0.47534 0.69644 0.0
C872 C 0.06547 0.49156 0.73509 0.0
C873 C 0.05193 0.48557 0.77911 0.0
C874 C 0.01958 0.46287 0.78746 0.0
C875 C 0.00137 0.44572 0.75186 0.0
C876 C 0.96707 0.42247 0.77003 0.0
C877 C 0.94268 0.42773 0.74483 0.0
C878 C 0.95961 0.3879 0.76502 0.0
C879 C 0.96792 0.43048 0.82038 0.0
C880 C -0.00095 0.45312 0.82985 0.0
C881 C 0.00647 0.4624 0.87447 0.0
C882 C 0.9827 0.44937 0.90911 0.0
C883 C 0.94984 0.42669 0.902 0.0
C884 C 0.94316 0.41734 0.85541 0.0
H885 H 0.50035 0.92177 0.17654 0.0
H886 H 0.51556 0.99375 0.27229 0.0
H887 H 0.53189 0.03358 0.2124 0.0
H888 H 0.57327 0.98018 1.11214 0.0
H889 H 0.55829 0.96331 1.05878 0.0
H890 H 0.54473 0.9384 1.10742 0.0
H891 H 0.48388 0.92172 1.09205 0.0
H892 H 0.50118 0.94196 1.04067 0.0
H893 H 0.47778 0.95364 1.07232 0.0
H894 H 0.54545 0.06881 0.13632 0.0
H895 H 0.5578 0.09253 1.06151 0.0
H896 H 0.54143 0.00272 1.00925 0.0
C897 C 0.50648 0.94574 0.18535 0.0
C898 C 0.50475 0.9528 0.23214 0.0
C899 C 0.51529 0.98581 0.23894 0.0
C900 C 0.52491 0.00929 0.20406 0.0
C901 C 0.52584 0.00156 0.1594 0.0
C902 C 0.51751 0.97042 0.14999 0.0
C903 C 0.52459 0.96977 1.09942 0.0
C904 C 0.55182 0.96245 1.0941 0.0
C905 C 0.49505 0.94513 1.07484 0.0
C906 C 0.53512 0.00406 1.08128 0.0
C907 C 0.53603 0.02208 1.11705 0.0
C908 C 0.54473 0.05425 1.10897 0.0
C909 C 0.55177 0.06792 1.06505 0.0
C910 C 0.55115 0.05088 1.02623 0.0
C911 C 0.54267 0.01782 1.03615 0.0
H912 H 0.56836 0.56044 0.57511 0.0
H913 H 0.57729 0.48262 0.5216 0.0
H914 H 0.57045 0.49835 0.44676 0.0
H915 H 0.50693 0.55377 0.50125 0.0
H916 H 0.5209 0.59534 0.49117 0.0
H917 H 0.5309 0.58263 0.54176 0.0
H918 H 0.5902 0.61861 0.5287 0.0
H919 H 0.5814 0.63344 0.47908 0.0
H920 H 0.60765 0.61714 0.47696 0.0
H921 H 0.5552 0.51911 0.37204 0.0
H922 H 0.53972 0.54363 0.31275 0.0
H923 H 0.54062 0.61128 0.40553 0.0
C924 C 0.56915 0.54655 0.54789 0.0
C925 C 0.57388 0.5193 0.5576 0.0
C926 C 0.57401 0.50307 0.51836 0.0
C927 C 0.57024 0.51227 0.47437 0.0
C928 C 0.56504 0.53818 0.46634 0.0
C929 C 0.56451 0.55525 0.50243 0.0
C930 C 0.55733 0.58152 0.48393 0.0
C931 C 0.52723 0.57814 0.50578 0.0
C932 C 0.58583 0.61466 0.49272 0.0
C933 C 0.55245 0.57578 0.43269 0.0
C934 C 0.55724 0.55049 0.4237 0.0
C935 C 0.55271 0.53954 0.3797 0.0
C936 C 0.54399 0.55425 0.34495 0.0
C937 C 0.54004 0.58141 0.35052 0.0
C938 C 0.54419 0.59165 0.39695 0.0
H939 H 0.06275 0.57367 0.84292 0.0
H940 H 0.99064 0.51655 0.9393 0.0
H941 H 0.95062 0.49482 0.88001 0.0
H942 H 0.00578 0.59103 0.77997 0.0
H943 H 0.02252 0.59282 0.72634 0.0
H944 H 0.04729 0.60295 0.77469 0.0
H945 H 0.06243 0.55795 0.75813 0.0
H946 H 0.042 0.55538 0.70721 0.0
H947 H 0.02993 0.52034 0.73963 0.0
H948 H 0.91504 0.47534 0.80418 0.0
H949 H 0.89153 0.46533 0.72948 0.0
H950 H 0.98189 0.53805 0.67701 0.0
C951 C 0.03868 0.55616 0.85201 0.0
C952 C 0.03163 0.54677 0.89875 0.0
C953 C -0.00145 0.52467 0.90594 0.0
C954 C 0.97496 0.51186 0.8714 0.0
C955 C 0.98268 0.52116 0.82675 0.0
C956 C 0.01395 0.54354 0.81705 0.0
C957 C 0.01482 0.5519 0.76661 0.0
C958 C 0.02313 0.58676 0.76158 0.0
C959 C 0.03891 0.54618 0.74156 0.0
C960 C 0.98037 0.52919 0.74885 0.0
C961 C 0.96215 0.51189 0.78467 0.0
C962 C 0.92979 0.48928 0.77681 0.0
C963 C 0.91624 0.48343 0.73297 0.0
C964 C 0.93351 0.5001 0.69417 0.0
C965 C 0.96665 0.52403 0.70395 0.0
H966 H 0.49779 0.03242 0.48059 0.0
H967 H 0.42074 0.02204 0.39955 0.0
H968 H 0.38281 0.98719 0.45444 0.0
H969 H 0.50641 0.99147 0.49057 0.0
H970 H 0.49725 0.96328 0.53441 0.0
H971 H 0.50651 0.00331 0.5465 0.0
H972 H 0.45554 0.98083 0.59141 0.0
H973 H 0.44713 0.94123 0.57803 0.0
H974 H 0.4178 0.95281 0.56828 0.0
H975 H 0.37171 0.93436 0.43316 0.0
H976 H 0.39679 0.92153 0.37307 0.0
H977 H 0.47743 0.9445 0.4559 0.0
C978 C 0.47251 0.02203 0.47523 0.0
C979 C 0.46193 0.02693 0.43434 0.0
C980 C 0.42956 0.01697 0.42929 0.0
C981 C 0.40794 -0.00269 0.46115 0.0
C982 C 0.4184 0.9817 0.48979 0.0
C983 C 0.45051 -0.00238 0.50335 0.0
C984 C 0.45827 0.973 0.5207 0.0
C985 C 0.49419 0.98343 0.5229 0.0
C986 C 0.44372 0.96127 0.56717 0.0
C987 C 0.43931 0.94823 0.48661 0.0
C988 C 0.4117 0.94955 0.47736 0.0
C989 C 0.3941 0.93514 0.43918 0.0
C990 C 0.40914 0.92933 0.4042 0.0
C991 C 0.44029 0.93484 0.4092 0.0
C992 C 0.45406 0.94174 0.4515 0.0
H993 H 0.4962 0.55599 0.7789 0.0
H994 H 0.42526 0.45946 0.75225 0.0
H995 H 0.43486 0.44262 0.82306 0.0
H996 H 0.54655 0.56049 0.77196 0.0
H997 H 0.57598 0.56926 0.81387 0.0
H998 H 0.54911 0.58469 0.81781 0.0
H999 H 0.53105 0.56241 0.89318 0.0
H1000 H 0.55916 0.54827 0.89276 0.0
H1001 H 0.5182 0.52171 0.90653 0.0
H1002 H 0.47314 0.4269 0.84655 0.0
H1003 H 0.49284 0.41866 0.77694 0.0
H1004 H 0.55457 0.51935 0.76321 0.0
C1005 C 0.48306 0.5312 0.78868 0.0
C1006 C 0.46037 0.50873 0.75994 0.0
C1007 C 0.44245 0.47707 0.77375 0.0
C1008 C 0.448 0.46768 0.81464 0.0
C1009 C 0.47654 0.48814 0.83618 0.0
C1010 C 0.49286 0.52079 0.82558 0.0
C1011 C 0.52763 0.53396 0.8352 0.0
C1012 C 0.55112 0.56371 0.80792 0.0
C1013 C 0.53432 0.54192 0.88478 0.0
C1014 C 0.52826 0.50387 0.82461 0.0
C1015 C 0.50042 0.47806 0.84144 0.0
C1016 C 0.49249 0.4471 0.82998 0.0
C1017 C 0.50271 0.44268 0.78919 0.0
C1018 C 0.52422 0.46916 0.76377 0.0
C1019 C 0.53843 0.49944 0.78288 0.0
H1020 H 0.93727 0.47201 0.13624 0.0
H1021 H 0.94869 0.39934 1.07334 0.0
H1022 H 0.97777 0.39644 0.13712 0.0
H1023 H 0.9802 0.52066 0.14607 0.0
H1024 H 0.00445 0.54004 0.19301 0.0
H1025 H 0.96272 0.51213 0.20006 0.0
H1026 H 0.97644 0.48275 0.25716 0.0
H1027 H 0.01822 0.51047 0.24917 0.0
H1028 H 0.00345 0.46852 0.24542 0.0
H1029 H 0.03394 0.43404 0.12717 0.0
H1030 H 0.05214 0.4672 1.06133 0.0
H1031 H 0.0292 0.53358 1.12109 0.0
C1032 C 0.94676 0.45599 0.13662 0.0
C1033 C 0.94374 0.43818 1.0987 0.0
C1034 C 0.95273 0.41482 1.10088 0.0
C1035 C 0.96862 0.41276 0.13781 0.0
C1036 C 0.9825 0.43931 0.16534 0.0
C1037 C 0.96763 0.4578 0.17041 0.0
C1038 C 0.99198 0.48986 0.18794 0.0
C1039 C 0.98438 0.5172 0.18112 0.0
C1040 C -0.00213 0.48767 0.23773 0.0
C1041 C 0.01936 0.49251 0.16108 0.0
C1042 C 0.01657 0.46233 0.1589 0.0
C1043 C 0.0338 0.45627 0.127 0.0
C1044 C 0.04263 0.47437 1.08843 0.0
C1045 C 0.03831 0.5009 1.08487 0.0
C1046 C 0.02996 0.51167 1.12288 0.0
H1047 H 0.05253 0.5668 0.52547 0.0
H1048 H 0.03693 0.4806 0.46292 0.0
H1049 H 0.01803 0.49453 0.39709 0.0
H1050 H 0.00787 0.57144 0.53843 0.0
H1051 H -0.00538 0.59619 0.51224 0.0
H1052 H 0.03642 0.60938 0.51624 0.0
H1053 H 0.00332 0.60848 0.42971 0.0
H1054 H 0.02049 0.59077 0.39556 0.0
H1055 H 0.04467 0.61988 0.43556 0.0
H1056 H 0.96517 0.48494 0.38131 0.0
H1057 H 0.93062 0.45223 0.44124 0.0
H1058 H 0.9587 0.53582 0.51818 0.0
C1059 C 0.04467 0.55101 0.49749 0.0
C1060 C 0.04355 0.52148 0.50052 0.0
C1061 C 0.0359 0.50243 0.46268 0.0
C1062 C 0.02622 0.51098 0.42438 0.0
C1063 C 0.01882 0.53542 0.42666 0.0
C1064 C 0.0315 0.55791 0.46059 0.0
C1065 C 0.01143 0.57347 0.46507 0.0
C1066 C 0.01257 0.5883 0.51074 0.0
C1067 C 0.02047 0.59956 0.42931 0.0
C1068 C 0.98028 0.54428 0.45364 0.0
C1069 C 0.98579 0.52803 0.41964 0.0
C1070 C 0.96279 0.49657 0.41023 0.0
C1071 C 0.94394 0.47782 0.44501 0.0
C1072 C 0.9439 0.49214 0.48509 0.0
C1073 C 0.95921 0.52539 0.48736 0.0
H1074 H 0.48867 0.93249 0.80342 0.0
H1075 H 0.40748 0.94378 0.82616 0.0
H1076 H 0.42017 0.97723 0.76106 0.0
H1077 H 0.53482 0.9822 0.82181 0.0
H1078 H 0.5665 0.00642 0.78393 0.0
H1079 H 0.54314 0.96428 0.77593 0.0
H1080 H 0.53169 0.97279 0.69862 0.0
H1081 H 0.55425 0.01531 0.70462 0.0
H1082 H 0.51397 -0.00339 0.68512 0.0
H1083 H 0.45454 0.03293 0.74508 0.0
H1084 H 0.4742 0.06501 0.81142 0.0
H1085 H 0.5395 0.03053 0.83195 0.0
C1086 C 0.47387 0.94242 0.79386 0.0
C1087 C 0.44822 0.93727 0.82086 0.0
C1088 C 0.42811 0.94864 0.80719 0.0
C1089 C 0.4351 0.96716 0.76916 0.0
C1090 C 0.4656 0.97977 0.7508 0.0
C1091 C 0.48431 0.96581 0.76087 0.0
C1092 C 0.51893 0.99073 0.75691 0.0
C1093 C 0.54212 0.98565 0.78661 0.0
C1094 C 0.53025 0.99405 0.7085 0.0
C1095 C 0.515 0.01869 0.76908 0.0
C1096 C 0.48671 0.01435 0.75067 0.0
C1097 C 0.47512 0.03467 0.76165 0.0
C1098 C 0.48537 0.05161 0.80068 0.0
C1099 C 0.50804 0.04924 0.82708 0.0
C1100 C 0.52335 0.03338 0.81069 0.0
H1101 H 0.56742 0.58719 0.13167 0.0
H1102 H 0.58137 0.5856 0.26893 0.0
H1103 H 0.57652 0.53283 0.26387 0.0
H1104 H 0.5112 0.54771 1.11602 0.0
H1105 H 0.5021 0.51795 1.07489 0.0
H1106 H 0.53954 0.55415 1.07276 0.0
H1107 H 0.56858 0.5208 1.07419 0.0
H1108 H 0.52975 0.48543 1.07507 0.0
H1109 H 0.55874 0.49112 1.11651 0.0
H1110 H 0.51762 0.49718 0.26938 0.0
H1111 H 0.46106 0.45711 0.25879 0.0
H1112 H 0.47131 0.46884 1.11939 0.0
C1113 C 0.57066 0.57525 0.15976 0.0
C1114 C 0.566 0.58408 0.20176 0.0
C1115 C 0.57784 0.57447 0.23711 0.0
C1116 C 0.57526 0.54462 0.23414 0.0
C1117 C 0.56032 0.52723 0.19631 0.0
C1118 C 0.5624 0.54312 0.15617 0.0
C1119 C 0.53651 0.52076 1.12453 0.0
C1120 C 0.52151 0.53616 1.09547 0.0
C1121 C 0.54913 0.50345 1.09589 0.0
C1122 C 0.51327 0.49837 0.15769 0.0
C1123 C 0.52734 0.50251 0.19872 0.0
C1124 C 0.5081 0.49052 0.23651 0.0
C1125 C 0.47572 0.46882 0.23021 0.0
C1126 C 0.46684 0.4547 0.18828 0.0
C1127 C 0.48117 0.47541 0.15218 0.0
H1128 H 0.29712 0.91517 0.66307 0.0
H1129 H 0.27989 0.9809 0.73826 0.0
H1130 H 0.26953 0.00136 0.66955 0.0
H1131 H 0.34471 0.96755 0.59138 0.0
H1132 H 0.33301 0.94244 0.54349 0.0
H1133 H 0.32714 0.92503 0.59725 0.0
H1134 H 0.26707 0.8889 0.58073 0.0
H1135 H 0.27289 0.90657 0.52659 0.0
H1136 H 0.24367 0.90651 0.56337 0.0
H1137 H 0.27656 0.02494 0.59598 0.0
H1138 H 0.30292 0.05061 0.52574 0.0
H1139 H 0.31725 0.97142 0.49706 0.0
C1140 C 0.29022 0.93322 0.66505 0.0
C1141 C 0.28939 0.94651 0.70585 0.0
C1142 C 0.28022 0.97002 0.70736 0.0
C1143 C 0.27418 0.98172 0.66842 0.0
C1144 C 0.27715 0.96948 0.62835 0.0
C1145 C 0.28471 0.94546 0.62647 0.0
C1146 C 0.29308 0.94093 0.58012 0.0
C1147 C 0.32644 0.94423 0.57799 0.0
C1148 C 0.26765 0.90882 0.56161 0.0
C1149 C 0.29216 0.9682 0.55709 0.0
C1150 C 0.28153 0.98354 0.58491 0.0
C1151 C 0.28374 0.01251 0.57332 0.0
C1152 C 0.29867 0.02695 0.53347 0.0
C1153 C 0.31126 0.01237 0.50632 0.0
C1154 C 0.30662 0.98213 0.51708 0.0
H1155 H 0.27015 0.30932 1.09124 0.0
H1156 H 0.33317 0.40012 0.1517 0.0
H1157 H 0.32026 0.42724 1.09437 0.0
H1158 H 0.30156 0.32941 0.99818 0.0
H1159 H 0.26754 0.30904 0.96262 0.0
H1160 H 0.26591 0.29469 1.01744 0.0
H1161 H 0.21593 0.29906 1.03436 0.0
H1162 H 0.21696 0.31298 0.97878 0.0
H1163 H 0.21656 0.33612 1.02479 0.0
H1164 H 0.31927 0.44609 1.02076 0.0
H1165 H 0.32831 0.45403 0.94075 0.0
H1166 H 0.27212 0.35233 0.92125 0.0
C1167 C 0.28014 0.33481 1.09331 0.0
C1168 C 0.3032 0.35246 0.1255 0.0
C1169 C 0.31526 0.38571 0.1278 0.0
C1170 C 0.30809 0.40151 1.09494 0.0
C1171 C 0.28892 0.38386 1.05995 0.0
C1172 C 0.27447 0.35097 1.05933 0.0
C1173 C 0.26226 0.33817 1.01366 0.0
C1174 C 0.27514 0.31664 0.99705 0.0
C1175 C 0.22575 0.32055 1.01286 0.0
C1176 C 0.27587 0.36899 0.98778 0.0
C1177 C 0.28953 0.39504 1.01539 0.0
C1178 C 0.30782 0.42592 0.99893 0.0
C1179 C 0.3133 0.4302 0.9535 0.0
C1180 C 0.30116 0.40372 0.92507 0.0
C1181 C 0.28108 0.37297 0.94226 0.0
H1182 H 0.02898 0.38552 0.1496 0.0
H1183 H -0.00234 0.28501 0.14715 0.0
H1184 H 0.02842 0.29069 0.21446 0.0
H1185 H 0.11025 0.41254 0.21048 0.0
H1186 H 0.10475 0.44116 0.24118 0.0
H1187 H 0.09173 0.43283 0.18469 0.0
H1188 H 0.03535 0.41963 0.20819 0.0
H1189 H 0.04764 0.4277 0.26438 0.0
H1190 H 0.01445 0.38957 0.24975 0.0
H1191 H 0.04457 0.30239 0.29127 0.0
H1192 H 0.04935 0.32017 0.36792 0.0
H1193 H 0.07304 0.4144 0.32185 0.0
C1194 C 0.03055 0.3653 0.16154 0.0
C1195 C 0.01132 0.33498 0.14325 0.0
C1196 C 0.01253 0.30849 0.16068 0.0
C1197 C 0.03002 0.31158 0.19885 0.0
C1198 C 0.04641 0.34135 0.21868 0.0
C1199 C 0.0476 0.36808 0.19992 0.0
C1200 C 0.06112 0.39571 0.2317 0.0
C1201 C 0.09392 0.42211 0.21606 0.0
C1202 C 0.03825 0.40884 0.23893 0.0
C1203 C 0.06396 0.37934 0.27258 0.0
C1204 C 0.05636 0.34834 0.26411 0.0
C1205 C 0.05194 0.32699 0.29806 0.0
C1206 C 0.05462 0.33731 0.34164 0.0
C1207 C 0.06156 0.36872 0.35094 0.0
C1208 C 0.06755 0.39021 0.3158 0.0
H1209 H 0.71684 0.06158 0.7027 0.0
H1210 H 0.68703 0.1323 0.70372 0.0
H1211 H 0.68319 0.13023 0.62357 0.0
H1212 H 0.75109 0.07839 0.57988 0.0
H1213 H 0.73446 0.03614 0.57304 0.0
H1214 H 0.75079 0.05422 0.62549 0.0
H1215 H 0.69754 0.01452 0.6629 0.0
H1216 H 0.68072 -0.00302 0.61103 0.0
H1217 H 0.66131 0.01287 0.6447 0.0
H1218 H 0.66121 0.10601 0.55308 0.0
H1219 H 0.63032 0.06656 0.49616 0.0
H1220 H 0.67039 0.0085 0.53898 0.0
C1221 C 0.71133 0.07791 0.68561 0.0
C1222 C 0.7018 0.09663 0.70956 0.0
C1223 C 0.69476 0.11785 0.6864 0.0
C1224 C 0.6923 0.1167 0.64048 0.0
C1225 C 0.69735 0.09456 0.61816 0.0
C1226 C 0.70778 0.07615 0.63979 0.0
C1227 C 0.70435 0.04924 0.61086 0.0
C1228 C 0.73713 0.05485 0.59645 0.0
C1229 C 0.6848 0.01653 0.63374 0.0
C1230 C 0.6867 0.05297 0.57226 0.0
C1231 C 0.68405 0.07999 0.57618 0.0
C1232 C 0.66423 0.08553 0.54862 0.0
C1233 C 0.64638 0.06277 0.51682 0.0
C1234 C 0.64819 0.03463 0.51316 0.0
C1235 C 0.66935 0.03028 0.54031 0.0
H1236 H 0.68248 0.67335 1.06627 0.0
H1237 H 0.67108 0.75189 1.02084 0.0
H1238 H 0.69732 0.75303 0.95057 0.0
H1239 H 0.75961 0.69558 0.99875 0.0
H1240 H 0.74526 0.65394 0.98929 0.0
H1241 H 0.73652 0.66664 1.0406 0.0
H1242 H 0.67641 0.62818 1.02828 0.0
H1243 H 0.68483 0.61562 0.97721 0.0
H1244 H 0.65812 0.63142 0.97821 0.0
H1245 H 0.70785 0.73497 0.88046 0.0
H1246 H 0.70203 0.70036 0.8184 0.0
H1247 H 0.71035 0.63476 0.90788 0.0
C1248 C 0.68693 0.69168 1.04213 0.0
C1249 C 0.67495 0.71255 1.0486 0.0
C1250 C 0.68054 0.736 1.01651 0.0
C1251 C 0.69549 0.73682 0.97659 0.0
C1252 C 0.70523 0.71446 0.96987 0.0
C1253 C 0.70179 0.69271 1.00228 0.0
C1254 C 0.7086 0.66758 0.98456 0.0
C1255 C 0.73934 0.67117 1.00448 0.0
C1256 C 0.6803 0.63376 0.9925 0.0
C1257 C 0.713 0.6765 0.9362 0.0
C1258 C 0.71211 0.70424 0.92856 0.0
C1259 C 0.70986 0.71396 0.88603 0.0
C1260 C 0.70665 0.69408 0.85077 0.0
C1261 C 0.7056 0.66467 0.85825 0.0
C1262 C 0.71098 0.65703 0.90118 0.0
H1263 H 0.94541 0.61904 0.17695 0.0
H1264 H 0.03086 0.70933 0.19824 0.0
H1265 H 0.00642 0.71842 0.26342 0.0
H1266 H 0.88609 0.64159 0.23463 0.0
H1267 H 0.86448 0.60181 0.25698 0.0
H1268 H 0.88209 0.60852 0.20281 0.0
H1269 H 0.91223 0.57922 0.22647 0.0
H1270 H 0.89492 0.57256 0.28014 0.0
H1271 H 0.93758 0.59283 0.27428 0.0
H1272 H 0.98295 0.70948 0.33627 0.0
H1273 H 0.96354 0.68302 0.40821 0.0
H1274 H 0.89186 0.5986 0.34285 0.0
C1275 C 0.95829 0.64127 0.19448 0.0
C1276 C 0.98989 0.66337 0.18299 0.0
C1277 C 0.0064 0.69223 0.20633 0.0
C1278 C 0.9926 0.69765 0.24333 0.0
C1279 C 0.96217 0.67417 0.25611 0.0
C1280 C 0.94488 0.64672 0.23174 0.0
C1281 C 0.91611 0.62216 0.25695 0.0
C1282 C 0.88537 0.61832 0.23663 0.0
C1283 C 0.91524 0.58987 0.25965 0.0
C1284 C 0.9224 0.63825 0.30124 0.0
C1285 C 0.94809 0.66891 0.29956 0.0
C1286 C 0.9621 0.68606 0.33782 0.0
C1287 C 0.95099 0.67087 0.37863 0.0
C1288 C 0.9264 0.63884 0.38053 0.0
C1289 C 0.91061 0.62324 0.34173 0.0
H1290 H 0.54982 0.09108 0.5142 0.0
H1291 H 0.47489 0.11488 0.51985 0.0
H1292 H 0.48179 0.12096 0.60071 0.0
H1293 H 0.52599 0.04418 0.62052 0.0
H1294 H 0.56603 0.05592 0.63706 0.0
H1295 H 0.55643 0.05429 0.57937 0.0
H1296 H 0.60043 0.11251 0.56958 0.0
H1297 H 0.61018 0.11435 0.62723 0.0
H1298 H 0.60043 0.14274 0.60393 0.0
H1299 H 0.49921 0.12737 0.68769 0.0
H1300 H 0.51966 0.12805 0.76238 0.0
H1301 H 0.58128 0.09556 0.70896 0.0
C1302 C 0.53476 0.09778 0.53203 0.0
C1303 C 0.51165 0.10293 0.50704 0.0
C1304 C 0.49284 0.11087 0.53494 0.0
C1305 C 0.49677 0.11448 0.58222 0.0
C1306 C 0.5195 0.10955 0.60509 0.0
C1307 C 0.53789 0.10071 0.58059 0.0
C1308 C 0.5595 0.09522 0.61409 0.0
C1309 C 0.55153 0.06033 0.61266 0.0
C1310 C 0.59474 0.11752 0.60303 0.0
C1311 C 0.55131 0.10315 0.66076 0.0
C1312 C 0.52813 0.11154 0.65434 0.0
C1313 C 0.51718 0.12055 0.69183 0.0
C1314 C 0.52939 0.12101 0.73543 0.0
C1315 C 0.55294 0.1122 0.74516 0.0
C1316 C 0.5636 0.10284 0.70545 0.0
H1317 H 0.40417 0.50462 0.87781 0.0
H1318 H 0.46201 0.59513 0.81213 0.0
H1319 H 0.48588 0.61922 0.88347 0.0
H1320 H 0.39023 0.53785 0.98124 0.0
H1321 H 0.39277 0.50978 1.01791 0.0
H1322 H 0.3803 0.49897 0.96164 0.0
H1323 H 0.4245 0.48509 0.95049 0.0
H1324 H 0.43742 0.49621 1.0066 0.0
H1325 H 0.46516 0.51458 0.96174 0.0
H1326 H 0.50691 0.63601 0.96956 0.0
H1327 H 0.51785 0.64157 1.04975 0.0
H1328 H 0.44655 0.54266 1.06803 0.0
C1329 C 0.4217 0.52967 0.87781 0.0
C1330 C 0.42996 0.54715 0.83538 0.0
C1331 C 0.45377 0.57993 0.84104 0.0
C1332 C 0.46802 0.59427 0.88284 0.0
C1333 C 0.45936 0.57679 0.92296 0.0
C1334 C 0.43636 0.5449 0.92068 0.0
C1335 C 0.43128 0.53162 0.96936 0.0
C1336 C 0.39657 0.51876 0.98339 0.0
C1337 C 0.44008 0.50528 0.97223 0.0
C1338 C 0.45424 0.56058 0.99923 0.0
C1339 C 0.47056 0.58639 0.97123 0.0
C1340 C 0.49359 0.61547 0.99065 0.0
C1341 C 0.49992 0.61858 1.03773 0.0
C1342 C 0.48366 0.59331 1.06918 0.0
C1343 C 0.46012 0.56352 1.0476 0.0
H1344 H 0.87568 0.38009 0.21053 0.0
H1345 H 0.86415 0.45506 0.15066 0.0
H1346 H 0.86452 0.47628 0.22428 0.0
H1347 H 0.82389 0.36834 0.30837 0.0
H1348 H 0.84785 0.36125 0.34724 0.0
H1349 H 0.84804 0.35194 0.28982 0.0
H1350 H 0.90894 0.3875 0.28757 0.0
H1351 H 0.90892 0.39699 0.34497 0.0
H1352 H 0.92673 0.42841 0.30444 0.0
H1353 H 0.86839 0.49298 0.3112 0.0
H1354 H 0.87014 0.49834 0.39235 0.0
H1355 H 0.87409 0.41133 0.40438 0.0
C1356 C 0.87303 0.40093 0.21233 0.0
C1357 C 0.86966 0.41505 0.17097 0.0
C1358 C 0.86651 0.44254 0.17877 0.0
C1359 C 0.86683 0.45526 0.22182 0.0
C1360 C 0.86991 0.44095 0.26086 0.0
C1361 C 0.8726 0.41393 0.25647 0.0
C1362 C 0.87471 0.40281 0.30456 0.0
C1363 C 0.84698 0.36906 0.313 0.0
C1364 C 0.90671 0.40396 0.31076 0.0
C1365 C 0.87241 0.42713 0.33635 0.0
C1366 C 0.87032 0.44938 0.30992 0.0
C1367 C 0.86954 0.47498 0.33115 0.0
C1368 C 0.87054 0.47797 0.37866 0.0
C1369 C 0.87161 0.45545 0.40843 0.0
C1370 C 0.8726 0.42939 0.38509 0.0
H1371 H 0.48788 0.88488 0.54442 0.0
H1372 H 0.39883 0.86474 0.48429 0.0
H1373 H 0.37625 0.862 0.55805 0.0
H1374 H 0.45077 0.83019 0.64093 0.0
H1375 H 0.48023 0.85544 0.68036 0.0
H1376 H 0.49076 0.85753 0.62293 0.0
H1377 H 0.5105 0.91773 0.622 0.0
H1378 H 0.5001 0.91553 0.67951 0.0
H1379 H 0.48416 0.93172 0.63987 0.0
H1380 H 0.36187 0.86355 0.64471 0.0
H1381 H 0.35715 0.86394 0.72576 0.0
H1382 H 0.45193 0.87725 0.73831 0.0
C1383 C 0.46349 0.87973 0.54622 0.0
C1384 C 0.44582 0.87498 0.5049 0.0
C1385 C 0.41389 0.86833 0.51251 0.0
C1386 C 0.40051 0.86682 0.55557 0.0
C1387 C 0.41814 0.87123 0.59462 0.0
C1388 C 0.44908 0.8772 0.5903 0.0
C1389 C 0.46229 0.8799 0.63837 0.0
C1390 C 0.4716 0.85425 0.64611 0.0
C1391 C 0.491 0.91321 0.64533 0.0
C1392 C 0.43438 0.87443 0.67015 0.0
C1393 C 0.40932 0.87014 0.64365 0.0
C1394 C 0.38159 0.86639 0.66472 0.0
C1395 C 0.37899 0.86661 0.71215 0.0
C1396 C 0.40325 0.86969 0.74202 0.0
C1397 C 0.43176 0.87383 0.71891 0.0
H1398 H 0.59019 0.48671 0.87705 0.0
H1399 H 0.53369 0.39649 0.81192 0.0
H1400 H 0.50903 0.37189 0.88338 0.0
H1401 H 0.60436 0.45245 0.98014 0.0
H1402 H 0.60203 0.4805 1.01651 0.0
H1403 H 0.61475 0.49157 0.96015 0.0
H1404 H 0.57044 0.50561 0.94753 0.0
H1405 H 0.55858 0.4954 1.00412 0.0
H1406 H 0.52991 0.47657 0.96086 0.0
H1407 H 0.48569 0.35573 0.96881 0.0
H1408 H 0.47399 0.3503 1.04888 0.0
H1409 H 0.54929 0.4473 1.06692 0.0
C1410 C 0.5729 0.46159 0.8773 0.0
C1411 C 0.56491 0.44436 0.83529 0.0
C1412 C 0.54155 0.41141 0.84083 0.0
C1413 C 0.52685 0.39685 0.88255 0.0
C1414 C 0.53515 0.41427 0.92235 0.0
C1415 C 0.55836 0.44606 0.91999 0.0
C1416 C 0.56362 0.4592 0.96822 0.0
C1417 C 0.59827 0.4717 0.98208 0.0
C1418 C 0.55514 0.48577 0.97033 0.0
C1419 C 0.54043 0.43022 0.99821 0.0
C1420 C 0.5236 0.40467 0.97046 0.0
C1421 C 0.49958 0.37594 0.98981 0.0
C1422 C 0.49284 0.37292 1.03672 0.0
C1423 C 0.51006 0.39772 1.06791 0.0
C1424 C 0.53476 0.42703 1.0465 0.0
H1425 H 0.10695 0.56458 0.4053 0.0
H1426 H 0.10557 0.47487 0.39435 0.0
H1427 H 0.1046 0.47897 0.31321 0.0
H1428 H 0.05208 0.54915 0.31015 0.0
H1429 H 0.07117 0.58974 0.2907 0.0
H1430 H 0.073 0.58126 0.34828 0.0
H1431 H 0.134 0.61355 0.34596 0.0
H1432 H 0.13265 0.62258 0.28851 0.0
H1433 H 0.15534 0.60415 0.30564 0.0
H1434 H 0.10596 0.49414 0.22645 0.0
H1435 H 0.10578 0.51505 0.15238 0.0
H1436 H 0.1019 0.59429 0.2111 0.0
C1437 C 0.10681 0.54574 0.38619 0.0
C1438 C 0.10714 0.51927 0.4097 0.0
C1439 C 0.10587 0.49562 0.38036 0.0
C1440 C 0.10527 0.49783 0.3329 0.0
C1441 C 0.10526 0.52386 0.31143 0.0
C1442 C 0.10553 0.54732 0.3375 0.0
C1443 C 0.1039 0.57208 0.30543 0.0
C1444 C 0.07323 0.57316 0.31416 0.0
C1445 C 0.13321 0.60507 0.31179 0.0
C1446 C 0.1036 0.55967 0.25758 0.0
C1447 C 0.1045 0.53168 0.26235 0.0
C1448 C 0.1052 0.51601 0.2236 0.0
C1449 C 0.1052 0.52852 0.18034 0.0
C1450 C 0.10397 0.55708 0.17222 0.0
C1451 C 0.10287 0.5725 0.21328 0.0
loop_
_geom_bond_atom_site_label_1
_geom_bond_atom_site_label_2
_geom_bond_distance
_geom_bond_site_symmetry_2
_ccdc_geom_bond_type
Tb0 C2 2.809 . S
Tb0 O20 2.484 . S
Tb0 O21 2.440 . S
Tb0 O22 2.658 . S
Tb0 O23 2.409 . S
Tb0 O24 2.378 . S
Tb0 O28 2.325 . S
Tb0 O31 2.341 . S
Tb1 C11 2.809 . S
Tb1 O22 2.325 . S
Tb1 O25 2.341 . S
Tb1 O26 2.484 . S
Tb1 O27 2.440 . S
Tb1 O28 2.658 . S
Tb1 O29 2.409 . S
Tb1 O30 2.378 . S
C2 Tb0 2.809 . S
C2 C3 1.514 . S
C2 O20 1.248 . S
C2 O21 1.266 . S
C3 C2 1.514 . S
C3 C4 1.359 . S
C3 C8 1.348 . S
C4 C3 1.359 . S
C4 C5 1.380 . S
C4 H32 0.929 . S
C5 C4 1.380 . S
C5 C6 1.347 . S
C5 H33 0.931 . S
C6 C5 1.347 . S
C6 C7 1.369 . S
C7 C6 1.369 . S
C7 C8 1.408 . S
C7 H34 0.930 . S
C8 C3 1.348 . S
C8 C7 1.408 . S
C8 H35 0.930 . S
C9 O22 1.281 . S
C9 O23 1.254 . S
C10 O24 1.236 . S
C10 O25 1.266 . S
C11 Tb1 2.809 . S
C11 C12 1.514 . S
C11 O26 1.248 . S
C11 O27 1.266 . S
C12 C11 1.514 . S
C12 C13 1.359 . S
C12 C17 1.348 . S
C13 C12 1.359 . S
C13 C14 1.380 . S
C13 H36 0.929 . S
C14 C13 1.380 . S
C14 C15 1.347 . S
C14 H37 0.931 . S
C15 C14 1.347 . S
C15 C16 1.369 . S
C16 C15 1.369 . S
C16 C17 1.408 . S
C16 H38 0.930 . S
C17 C12 1.348 . S
C17 C16 1.408 . S
C17 H39 0.930 . S
C18 O28 1.281 . S
C18 O29 1.254 . S
C19 O30 1.236 . S
C19 O31 1.266 . S
O20 Tb0 2.484 . S
O20 C2 1.248 . S
O21 Tb0 2.440 . S
O21 C2 1.266 . S
O22 Tb0 2.658 . S
O22 Tb1 2.325 . S
O22 C9 1.281 . S
O23 Tb0 2.409 . S
O23 C9 1.254 . S
O24 Tb0 2.378 . S
O24 C10 1.236 . S
O25 Tb1 2.341 . S
O25 C10 1.266 . S
O26 Tb1 2.484 . S
O26 C11 1.248 . S
O27 Tb1 2.440 . S
O27 C11 1.266 . S
O28 Tb0 2.325 . S
O28 Tb1 2.658 . S
O28 C18 1.281 . S
O29 Tb1 2.409 . S
O29 C18 1.254 . S
O30 Tb1 2.378 . S
O30 C19 1.236 . S
O31 Tb0 2.341 . S
O31 C19 1.266 . S
H32 C4 0.929 . S
H33 C5 0.931 . S
H34 C7 0.930 . S
H35 C8 0.930 . S
H36 C13 0.929 . S
H37 C14 0.931 . S
H38 C16 0.930 . S
H39 C17 0.930 . S
Tb40 C42 2.809 . S
Tb40 O60 2.484 . S
Tb40 O61 2.440 . S
Tb40 O62 2.658 . S
Tb40 O63 2.409 . S
Tb40 O64 2.378 . S
Tb40 O68 2.325 . S
Tb40 O71 2.341 . S
Tb41 C51 2.809 . S
Tb41 O62 2.325 . S
Tb41 O65 2.341 . S
Tb41 O66 2.484 . S
Tb41 O67 2.440 . S
Tb41 O68 2.658 . S
Tb41 O69 2.409 . S
Tb41 O70 2.378 . S
C42 Tb40 2.809 . S
C42 C43 1.514 . S
C42 O60 1.248 . S
C42 O61 1.266 . S
C43 C42 1.514 . S
C43 C44 1.359 . S
C43 C48 1.348 . S
C44 C43 1.359 . S
C44 C45 1.380 . S
C44 H72 0.929 . S
C45 C44 1.380 . S
C45 C46 1.347 . S
C45 H73 0.931 . S
C46 C45 1.347 . S
C46 C47 1.369 . S
C47 C46 1.369 . S
C47 C48 1.408 . S
C47 H74 0.930 . S
C48 C43 1.348 . S
C48 C47 1.408 . S
C48 H75 0.930 . S
C49 O62 1.281 . S
C49 O63 1.254 . S
C50 O64 1.236 . S
C50 O65 1.266 . S
C51 Tb41 2.809 . S
C51 C52 1.514 . S
C51 O66 1.248 . S
C51 O67 1.266 . S
C52 C51 1.514 . S
C52 C53 1.359 . S
C52 C57 1.348 . S
C53 C52 1.359 . S
C53 C54 1.380 . S
C53 H76 0.929 . S
C54 C53 1.380 . S
C54 C55 1.347 . S
C54 H77 0.931 . S
C55 C54 1.347 . S
C55 C56 1.369 . S
C56 C55 1.369 . S
C56 C57 1.408 . S
C56 H78 0.930 . S
C57 C52 1.348 . S
C57 C56 1.408 . S
C57 H79 0.930 . S
C58 O68 1.281 . S
C58 O69 1.254 . S
C59 O70 1.236 . S
C59 O71 1.266 . S
O60 Tb40 2.484 . S
O60 C42 1.248 . S
O61 Tb40 2.440 . S
O61 C42 1.266 . S
O62 Tb40 2.658 . S
O62 Tb41 2.325 . S
O62 C49 1.281 . S
O63 Tb40 2.409 . S
O63 C49 1.254 . S
O64 Tb40 2.378 . S
O64 C50 1.236 . S
O65 Tb41 2.341 . S
O65 C50 1.266 . S
O66 Tb41 2.484 . S
O66 C51 1.248 . S
O67 Tb41 2.440 . S
O67 C51 1.266 . S
O68 Tb40 2.325 . S
O68 Tb41 2.658 . S
O68 C58 1.281 . S
O69 Tb41 2.409 . S
O69 C58 1.254 . S
O70 Tb41 2.378 . S
O70 C59 1.236 . S
O71 Tb40 2.341 . S
O71 C59 1.266 . S
H72 C44 0.929 . S
H73 C45 0.931 . S
H74 C47 0.930 . S
H75 C48 0.930 . S
H76 C53 0.929 . S
H77 C54 0.931 . S
H78 C56 0.930 . S
H79 C57 0.930 . S
Tb80 C82 2.809 1_556 S
Tb80 O100 2.484 . S
Tb80 O101 2.440 . S
Tb80 O102 2.658 . S
Tb80 O103 2.409 . S
Tb80 O104 2.378 . S
Tb80 O108 2.325 . S
Tb80 O111 2.341 . S
Tb81 C91 2.809 . S
Tb81 O102 2.325 . S
Tb81 O105 2.341 . S
Tb81 O106 2.484 . S
Tb81 O107 2.440 . S
Tb81 O108 2.658 . S
Tb81 O109 2.409 . S
Tb81 O110 2.378 . S
C82 Tb80 2.809 1_554 S
C82 C83 1.514 . S
C82 O100 1.248 1_554 S
C82 O101 1.266 1_554 S
C83 C82 1.514 . S
C83 C84 1.359 . S
C83 C88 1.348 . S
C84 C83 1.359 . S
C84 C85 1.380 . S
C84 H112 0.929 . S
C85 C84 1.380 . S
C85 C86 1.347 . S
C85 H113 0.931 . S
C86 C85 1.347 . S
C86 C87 1.369 . S
C87 C86 1.369 . S
C87 C88 1.408 . S
C87 H114 0.930 . S
C88 C83 1.348 . S
C88 C87 1.408 . S
C88 H115 0.930 . S
C89 O102 1.281 . S
C89 O103 1.254 . S
C90 O104 1.236 . S
C90 O105 1.266 . S
C91 Tb81 2.809 . S
C91 C92 1.514 . S
C91 O106 1.248 . S
C91 O107 1.266 . S
C92 C91 1.514 . S
C92 C93 1.359 . S
C92 C97 1.348 . S
C93 C92 1.359 . S
C93 C94 1.380 . S
C93 H116 0.929 . S
C94 C93 1.380 . S
C94 C95 1.347 . S
C94 H117 0.931 . S
C95 C94 1.347 . S
C95 C96 1.369 . S
C96 C95 1.369 . S
C96 C97 1.408 . S
C96 H118 0.930 . S
C97 C92 1.348 . S
C97 C96 1.408 . S
C97 H119 0.930 . S
C98 O108 1.281 . S
C98 O109 1.254 . S
C99 O110 1.236 . S
C99 O111 1.266 . S
O100 Tb80 2.484 . S
O100 C82 1.248 1_556 S
O101 Tb80 2.440 . S
O101 C82 1.266 1_556 S
O102 Tb80 2.658 . S
O102 Tb81 2.325 . S
O102 C89 1.281 . S
O103 Tb80 2.409 . S
O103 C89 1.254 . S
O104 Tb80 2.378 . S
O104 C90 1.236 . S
O105 Tb81 2.341 . S
O105 C90 1.266 . S
O106 Tb81 2.484 . S
O106 C91 1.248 . S
O107 Tb81 2.440 . S
O107 C91 1.266 . S
O108 Tb80 2.325 . S
O108 Tb81 2.658 . S
O108 C98 1.281 . S
O109 Tb81 2.409 . S
O109 C98 1.254 . S
O110 Tb81 2.378 . S
O110 C99 1.236 . S
O111 Tb80 2.341 . S
O111 C99 1.266 . S
H112 C84 0.929 . S
H113 C85 0.931 . S
H114 C87 0.930 . S
H115 C88 0.930 . S
H116 C93 0.929 . S
H117 C94 0.931 . S
H118 C96 0.930 . S
H119 C97 0.930 . S
Tb120 C122 2.809 . S
Tb120 O140 2.484 . S
Tb120 O141 2.440 . S
Tb120 O142 2.658 . S
Tb120 O143 2.409 . S
Tb120 O144 2.378 . S
Tb120 O148 2.325 . S
Tb120 O151 2.341 . S
Tb121 C131 2.809 . S
Tb121 O142 2.325 . S
Tb121 O145 2.341 . S
Tb121 O146 2.484 . S
Tb121 O147 2.440 . S
Tb121 O148 2.658 . S
Tb121 O149 2.409 . S
Tb121 O150 2.378 . S
C122 Tb120 2.809 . S
C122 C123 1.514 . S
C122 O140 1.248 . S
C122 O141 1.266 . S
C123 C122 1.514 . S
C123 C124 1.359 . S
C123 C128 1.348 . S
C124 C123 1.359 . S
C124 C125 1.380 . S
C124 H152 0.929 . S
C125 C124 1.380 . S
C125 C126 1.347 . S
C125 H153 0.931 . S
C126 C125 1.347 . S
C126 C127 1.369 . S
C127 C126 1.369 . S
C127 C128 1.408 . S
C127 H154 0.930 . S
C128 C123 1.348 . S
C128 C127 1.408 . S
C128 H155 0.930 . S
C129 O142 1.281 . S
C129 O143 1.254 . S
C130 O144 1.236 . S
C130 O145 1.266 . S
C131 Tb121 2.809 . S
C131 C132 1.514 . S
C131 O146 1.248 . S
C131 O147 1.266 . S
C132 C131 1.514 . S
C132 C133 1.359 . S
C132 C137 1.348 . S
C133 C132 1.359 . S
C133 C134 1.380 . S
C133 H156 0.929 . S
C134 C133 1.380 . S
C134 C135 1.347 . S
C134 H157 0.931 . S
C135 C134 1.347 . S
C135 C136 1.369 . S
C136 C135 1.369 . S
C136 C137 1.408 . S
C136 H158 0.930 . S
C137 C132 1.348 . S
C137 C136 1.408 . S
C137 H159 0.930 . S
C138 O148 1.281 . S
C138 O149 1.254 . S
C139 O150 1.236 . S
C139 O151 1.266 . S
O140 Tb120 2.484 . S
O140 C122 1.248 . S
O141 Tb120 2.440 . S
O141 C122 1.266 . S
O142 Tb120 2.658 . S
O142 Tb121 2.325 . S
O142 C129 1.281 . S
O143 Tb120 2.409 . S
O143 C129 1.254 . S
O144 Tb120 2.378 . S
O144 C130 1.236 . S
O145 Tb121 2.341 . S
O145 C130 1.266 . S
O146 Tb121 2.484 . S
O146 C131 1.248 . S
O147 Tb121 2.440 . S
O147 C131 1.266 . S
O148 Tb120 2.325 . S
O148 Tb121 2.658 . S
O148 C138 1.281 . S
O149 Tb121 2.409 . S
O149 C138 1.254 . S
O150 Tb121 2.378 . S
O150 C139 1.236 . S
O151 Tb120 2.341 . S
O151 C139 1.266 . S
H152 C124 0.929 . S
H153 C125 0.931 . S
H154 C127 0.930 . S
H155 C128 0.930 . S
H156 C133 0.929 . S
H157 C134 0.931 . S
H158 C136 0.930 . S
H159 C137 0.930 . S
Tb160 C162 2.809 . S
Tb160 O180 2.484 . S
Tb160 O181 2.440 . S
Tb160 O182 2.658 . S
Tb160 O183 2.409 . S
Tb160 O184 2.378 . S
Tb160 O188 2.325 . S
Tb160 O191 2.341 . S
Tb161 C171 2.809 . S
Tb161 O182 2.325 . S
Tb161 O185 2.341 . S
Tb161 O186 2.484 . S
Tb161 O187 2.440 . S
Tb161 O188 2.658 . S
Tb161 O189 2.409 . S
Tb161 O190 2.378 . S
C162 Tb160 2.809 . S
C162 C163 1.514 . S
C162 O180 1.248 . S
C162 O181 1.266 . S
C163 C162 1.514 . S
C163 C164 1.359 . S
C163 C168 1.348 . S
C164 C163 1.359 . S
C164 C165 1.380 . S
C164 H192 0.929 . S
C165 C164 1.380 . S
C165 C166 1.347 . S
C165 H193 0.931 . S
C166 C165 1.347 . S
C166 C167 1.369 . S
C167 C166 1.369 . S
C167 C168 1.408 . S
C167 H194 0.930 . S
C168 C163 1.348 . S
C168 C167 1.408 . S
C168 H195 0.930 . S
C169 O182 1.281 . S
C169 O183 1.254 . S
C170 O184 1.236 . S
C170 O185 1.266 . S
C171 Tb161 2.809 . S
C171 C172 1.514 . S
C171 O186 1.248 . S
C171 O187 1.266 . S
C172 C171 1.514 . S
C172 C173 1.359 . S
C172 C177 1.348 . S
C173 C172 1.359 . S
C173 C174 1.380 . S
C173 H196 0.929 . S
C174 C173 1.380 . S
C174 C175 1.347 . S
C174 H197 0.931 . S
C175 C174 1.347 . S
C175 C176 1.369 . S
C176 C175 1.369 . S
C176 C177 1.408 . S
C176 H198 0.930 . S
C177 C172 1.348 . S
C177 C176 1.408 . S
C177 H199 0.930 . S
C178 O188 1.281 . S
C178 O189 1.254 . S
C179 O190 1.236 . S
C179 O191 1.266 . S
O180 Tb160 2.484 . S
O180 C162 1.248 . S
O181 Tb160 2.440 . S
O181 C162 1.266 . S
O182 Tb160 2.658 . S
O182 Tb161 2.325 . S
O182 C169 1.281 . S
O183 Tb160 2.409 . S
O183 C169 1.254 . S
O184 Tb160 2.378 . S
O184 C170 1.236 . S
O185 Tb161 2.341 . S
O185 C170 1.266 . S
O186 Tb161 2.484 . S
O186 C171 1.248 . S
O187 Tb161 2.440 . S
O187 C171 1.266 . S
O188 Tb160 2.325 . S
O188 Tb161 2.658 . S
O188 C178 1.281 . S
O189 Tb161 2.409 . S
O189 C178 1.254 . S
O190 Tb161 2.378 . S
O190 C179 1.236 . S
O191 Tb160 2.341 . S
O191 C179 1.266 . S
H192 C164 0.929 . S
H193 C165 0.931 . S
H194 C167 0.930 . S
H195 C168 0.930 . S
H196 C173 0.929 . S
H197 C174 0.931 . S
H198 C176 0.930 . S
H199 C177 0.930 . S
Tb200 C202 2.809 1_556 S
Tb200 O220 2.484 . S
Tb200 O221 2.440 . S
Tb200 O222 2.658 . S
Tb200 O223 2.409 . S
Tb200 O224 2.378 . S
Tb200 O228 2.325 . S
Tb200 O231 2.341 . S
Tb201 C211 2.809 . S
Tb201 O222 2.325 . S
Tb201 O225 2.341 . S
Tb201 O226 2.484 . S
Tb201 O227 2.440 . S
Tb201 O228 2.658 . S
Tb201 O229 2.409 . S
Tb201 O230 2.378 . S
C202 Tb200 2.809 1_554 S
C202 C203 1.514 . S
C202 O220 1.248 1_554 S
C202 O221 1.266 1_554 S
C203 C202 1.514 . S
C203 C204 1.359 . S
C203 C208 1.348 . S
C204 C203 1.359 . S
C204 C205 1.380 . S
C204 H232 0.929 . S
C205 C204 1.380 . S
C205 C206 1.347 . S
C205 H233 0.931 . S
C206 C205 1.347 . S
C206 C207 1.369 . S
C207 C206 1.369 . S
C207 C208 1.408 . S
C207 H234 0.930 . S
C208 C203 1.348 . S
C208 C207 1.408 . S
C208 H235 0.930 . S
C209 O222 1.281 . S
C209 O223 1.254 . S
C210 O224 1.236 . S
C210 O225 1.266 . S
C211 Tb201 2.809 . S
C211 C212 1.514 . S
C211 O226 1.248 . S
C211 O227 1.266 . S
C212 C211 1.514 . S
C212 C213 1.359 . S
C212 C217 1.348 . S
C213 C212 1.359 . S
C213 C214 1.380 . S
C213 H236 0.929 . S
C214 C213 1.380 . S
C214 C215 1.347 . S
C214 H237 0.931 . S
C215 C214 1.347 . S
C215 C216 1.369 . S
C216 C215 1.369 . S
C216 C217 1.408 . S
C216 H238 0.930 . S
C217 C212 1.348 . S
C217 C216 1.408 . S
C217 H239 0.930 . S
C218 O228 1.281 . S
C218 O229 1.254 . S
C219 O230 1.236 . S
C219 O231 1.266 . S
O220 Tb200 2.484 . S
O220 C202 1.248 1_556 S
O221 Tb200 2.440 . S
O221 C202 1.266 1_556 S
O222 Tb200 2.658 . S
O222 Tb201 2.325 . S
O222 C209 1.281 . S
O223 Tb200 2.409 . S
O223 C209 1.254 . S
O224 Tb200 2.378 . S
O224 C210 1.236 . S
O225 Tb201 2.341 . S
O225 C210 1.266 . S
O226 Tb201 2.484 . S
O226 C211 1.248 . S
O227 Tb201 2.440 . S
O227 C211 1.266 . S
O228 Tb200 2.325 . S
O228 Tb201 2.658 . S
O228 C218 1.281 . S
O229 Tb201 2.409 . S
O229 C218 1.254 . S
O230 Tb201 2.378 . S
O230 C219 1.236 . S
O231 Tb200 2.341 . S
O231 C219 1.266 . S
H232 C204 0.929 . S
H233 C205 0.931 . S
H234 C207 0.930 . S
H235 C208 0.930 . S
H236 C213 0.929 . S
H237 C214 0.931 . S
H238 C216 0.930 . S
H239 C217 0.930 . S
Tb240 C242 2.809 . S
Tb240 O260 2.484 . S
Tb240 O261 2.440 . S
Tb240 O262 2.658 . S
Tb240 O263 2.409 . S
Tb240 O264 2.378 . S
Tb240 O268 2.325 . S
Tb240 O271 2.341 . S
Tb241 C251 2.809 . S
Tb241 O262 2.325 . S
Tb241 O265 2.341 . S
Tb241 O266 2.484 . S
Tb241 O267 2.440 . S
Tb241 O268 2.658 . S
Tb241 O269 2.409 . S
Tb241 O270 2.378 . S
C242 Tb240 2.809 . S
C242 C243 1.514 . S
C242 O260 1.248 . S
C242 O261 1.266 . S
C243 C242 1.514 . S
C243 C244 1.359 . S
C243 C248 1.348 . S
C244 C243 1.359 . S
C244 C245 1.380 . S
C244 H272 0.929 . S
C245 C244 1.380 . S
C245 C246 1.347 . S
C245 H273 0.931 . S
C246 C245 1.347 . S
C246 C247 1.369 . S
C247 C246 1.369 . S
C247 C248 1.408 . S
C247 H274 0.930 . S
C248 C243 1.348 . S
C248 C247 1.408 . S
C248 H275 0.930 . S
C249 O262 1.281 . S
C249 O263 1.254 . S
C250 O264 1.236 . S
C250 O265 1.266 . S
C251 Tb241 2.809 . S
C251 C252 1.514 . S
C251 O266 1.248 . S
C251 O267 1.266 . S
C252 C251 1.514 . S
C252 C253 1.359 . S
C252 C257 1.348 . S
C253 C252 1.359 . S
C253 C254 1.380 . S
C253 H276 0.929 . S
C254 C253 1.380 . S
C254 C255 1.347 . S
C254 H277 0.931 . S
C255 C254 1.347 . S
C255 C256 1.369 . S
C256 C255 1.369 . S
C256 C257 1.408 . S
C256 H278 0.930 . S
C257 C252 1.348 . S
C257 C256 1.408 . S
C257 H279 0.930 . S
C258 O268 1.281 . S
C258 O269 1.254 . S
C259 O270 1.236 . S
C259 O271 1.266 . S
O260 Tb240 2.484 . S
O260 C242 1.248 . S
O261 Tb240 2.440 . S
O261 C242 1.266 . S
O262 Tb240 2.658 . S
O262 Tb241 2.325 . S
O262 C249 1.281 . S
O263 Tb240 2.409 . S
O263 C249 1.254 . S
O264 Tb240 2.378 . S
O264 C250 1.236 . S
O265 Tb241 2.341 . S
O265 C250 1.266 . S
O266 Tb241 2.484 . S
O266 C251 1.248 . S
O267 Tb241 2.440 . S
O267 C251 1.266 . S
O268 Tb240 2.325 . S
O268 Tb241 2.658 . S
O268 C258 1.281 . S
O269 Tb241 2.409 . S
O269 C258 1.254 . S
O270 Tb241 2.378 . S
O270 C259 1.236 . S
O271 Tb240 2.341 . S
O271 C259 1.266 . S
H272 C244 0.929 . S
H273 C245 0.931 . S
H274 C247 0.930 . S
H275 C248 0.930 . S
H276 C253 0.929 . S
H277 C254 0.931 . S
H278 C256 0.930 . S
H279 C257 0.930 . S
Tb280 C282 2.809 . S
Tb280 O300 2.484 . S
Tb280 O301 2.440 . S
Tb280 O302 2.658 . S
Tb280 O303 2.409 . S
Tb280 O304 2.378 . S
Tb280 O308 2.325 . S
Tb280 O311 2.341 . S
Tb281 C291 2.809 . S
Tb281 O302 2.325 . S
Tb281 O305 2.341 . S
Tb281 O306 2.484 . S
Tb281 O307 2.440 . S
Tb281 O308 2.658 . S
Tb281 O309 2.409 . S
Tb281 O310 2.378 . S
C282 Tb280 2.809 . S
C282 C283 1.514 . S
C282 O300 1.248 . S
C282 O301 1.266 . S
C283 C282 1.514 . S
C283 C284 1.359 . S
C283 C288 1.348 . S
C284 C283 1.359 . S
C284 C285 1.380 . S
C284 H312 0.929 . S
C285 C284 1.380 . S
C285 C286 1.347 . S
C285 H313 0.931 . S
C286 C285 1.347 . S
C286 C287 1.369 . S
C287 C286 1.369 . S
C287 C288 1.408 . S
C287 H314 0.930 . S
C288 C283 1.348 . S
C288 C287 1.408 . S
C288 H315 0.930 . S
C289 O302 1.281 . S
C289 O303 1.254 . S
C290 O304 1.236 . S
C290 O305 1.266 . S
C291 Tb281 2.809 . S
C291 C292 1.514 . S
C291 O306 1.248 . S
C291 O307 1.266 . S
C292 C291 1.514 . S
C292 C293 1.359 . S
C292 C297 1.348 . S
C293 C292 1.359 . S
C293 C294 1.380 . S
C293 H316 0.929 . S
C294 C293 1.380 . S
C294 C295 1.347 . S
C294 H317 0.931 . S
C295 C294 1.347 . S
C295 C296 1.369 . S
C296 C295 1.369 . S
C296 C297 1.408 . S
C296 H318 0.930 . S
C297 C292 1.348 . S
C297 C296 1.408 . S
C297 H319 0.930 . S
C298 O308 1.281 . S
C298 O309 1.254 . S
C299 O310 1.236 . S
C299 O311 1.266 . S
O300 Tb280 2.484 . S
O300 C282 1.248 . S
O301 Tb280 2.440 . S
O301 C282 1.266 . S
O302 Tb280 2.658 . S
O302 Tb281 2.325 . S
O302 C289 1.281 . S
O303 Tb280 2.409 . S
O303 C289 1.254 . S
O304 Tb280 2.378 . S
O304 C290 1.236 . S
O305 Tb281 2.341 . S
O305 C290 1.266 . S
O306 Tb281 2.484 . S
O306 C291 1.248 . S
O307 Tb281 2.440 . S
O307 C291 1.266 . S
O308 Tb280 2.325 . S
O308 Tb281 2.658 . S
O308 C298 1.281 . S
O309 Tb281 2.409 . S
O309 C298 1.254 . S
O310 Tb281 2.378 . S
O310 C299 1.236 . S
O311 Tb280 2.341 . S
O311 C299 1.266 . S
H312 C284 0.929 . S
H313 C285 0.931 . S
H314 C287 0.930 . S
H315 C288 0.930 . S
H316 C293 0.929 . S
H317 C294 0.931 . S
H318 C296 0.930 . S
H319 C297 0.930 . S
Tb320 C322 2.809 1_554 S
Tb320 O340 2.484 . S
Tb320 O341 2.440 . S
Tb320 O342 2.658 . S
Tb320 O343 2.409 . S
Tb320 O344 2.378 . S
Tb320 O348 2.325 . S
Tb320 O351 2.341 . S
Tb321 C331 2.809 . S
Tb321 O342 2.325 . S
Tb321 O345 2.341 . S
Tb321 O346 2.484 . S
Tb321 O347 2.440 . S
Tb321 O348 2.658 . S
Tb321 O349 2.409 . S
Tb321 O350 2.378 . S
C322 Tb320 2.809 1_556 S
C322 C323 1.514 . S
C322 O340 1.248 1_556 S
C322 O341 1.266 1_556 S
C323 C322 1.514 . S
C323 C324 1.359 . S
C323 C328 1.348 . S
C324 C323 1.359 . S
C324 C325 1.380 . S
C324 H352 0.929 . S
C325 C324 1.380 . S
C325 C326 1.347 . S
C325 H353 0.931 . S
C326 C325 1.347 . S
C326 C327 1.369 . S
C327 C326 1.369 . S
C327 C328 1.408 . S
C327 H354 0.930 . S
C328 C323 1.348 . S
C328 C327 1.408 . S
C328 H355 0.930 . S
C329 O342 1.281 . S
C329 O343 1.254 . S
C330 O344 1.236 . S
C330 O345 1.266 . S
C331 Tb321 2.809 . S
C331 C332 1.514 . S
C331 O346 1.248 . S
C331 O347 1.266 . S
C332 C331 1.514 . S
C332 C333 1.359 . S
C332 C337 1.348 . S
C333 C332 1.359 . S
C333 C334 1.380 . S
C333 H356 0.929 . S
C334 C333 1.380 . S
C334 C335 1.347 . S
C334 H357 0.931 . S
C335 C334 1.347 . S
C335 C336 1.369 . S
C336 C335 1.369 . S
C336 C337 1.408 . S
C336 H358 0.930 . S
C337 C332 1.348 . S
C337 C336 1.408 . S
C337 H359 0.930 . S
C338 O348 1.281 . S
C338 O349 1.254 . S
C339 O350 1.236 . S
C339 O351 1.266 . S
O340 Tb320 2.484 . S
O340 C322 1.248 1_554 S
O341 Tb320 2.440 . S
O341 C322 1.266 1_554 S
O342 Tb320 2.658 . S
O342 Tb321 2.325 . S
O342 C329 1.281 . S
O343 Tb320 2.409 . S
O343 C329 1.254 . S
O344 Tb320 2.378 . S
O344 C330 1.236 . S
O345 Tb321 2.341 . S
O345 C330 1.266 . S
O346 Tb321 2.484 . S
O346 C331 1.248 . S
O347 Tb321 2.440 . S
O347 C331 1.266 . S
O348 Tb320 2.325 . S
O348 Tb321 2.658 . S
O348 C338 1.281 . S
O349 Tb321 2.409 . S
O349 C338 1.254 . S
O350 Tb321 2.378 . S
O350 C339 1.236 . S
O351 Tb320 2.341 . S
O351 C339 1.266 . S
H352 C324 0.929 . S
H353 C325 0.931 . S
H354 C327 0.930 . S
H355 C328 0.930 . S
H356 C333 0.929 . S
H357 C334 0.931 . S
H358 C336 0.930 . S
H359 C337 0.930 . S
Tb360 C362 2.809 . S
Tb360 O380 2.484 . S
Tb360 O381 2.440 . S
Tb360 O382 2.658 . S
Tb360 O383 2.409 . S
Tb360 O384 2.378 . S
Tb360 O388 2.325 . S
Tb360 O391 2.341 . S
Tb361 C371 2.809 . S
Tb361 O382 2.325 . S
Tb361 O385 2.341 . S
Tb361 O386 2.484 . S
Tb361 O387 2.440 . S
Tb361 O388 2.658 . S
Tb361 O389 2.409 . S
Tb361 O390 2.378 . S
C362 Tb360 2.809 . S
C362 C363 1.514 . S
C362 O380 1.248 . S
C362 O381 1.266 . S
C363 C362 1.514 . S
C363 C364 1.359 . S
C363 C368 1.348 . S
C364 C363 1.359 . S
C364 C365 1.380 . S
C364 H392 0.929 . S
C365 C364 1.380 . S
C365 C366 1.347 . S
C365 H393 0.931 . S
C366 C365 1.347 . S
C366 C367 1.369 . S
C367 C366 1.369 . S
C367 C368 1.408 . S
C367 H394 0.930 . S
C368 C363 1.348 . S
C368 C367 1.408 . S
C368 H395 0.930 . S
C369 O382 1.281 . S
C369 O383 1.254 . S
C370 O384 1.236 . S
C370 O385 1.266 . S
C371 Tb361 2.809 . S
C371 C372 1.514 . S
C371 O386 1.248 . S
C371 O387 1.266 . S
C372 C371 1.514 . S
C372 C373 1.359 . S
C372 C377 1.348 . S
C373 C372 1.359 . S
C373 C374 1.380 . S
C373 H396 0.929 . S
C374 C373 1.380 . S
C374 C375 1.347 . S
C374 H397 0.931 . S
C375 C374 1.347 . S
C375 C376 1.369 . S
C376 C375 1.369 . S
C376 C377 1.408 . S
C376 H398 0.930 . S
C377 C372 1.348 . S
C377 C376 1.408 . S
C377 H399 0.930 . S
C378 O388 1.281 . S
C378 O389 1.254 . S
C379 O390 1.236 . S
C379 O391 1.266 . S
O380 Tb360 2.484 . S
O380 C362 1.248 . S
O381 Tb360 2.440 . S
O381 C362 1.266 . S
O382 Tb360 2.658 . S
O382 Tb361 2.325 . S
O382 C369 1.281 . S
O383 Tb360 2.409 . S
O383 C369 1.254 . S
O384 Tb360 2.378 . S
O384 C370 1.236 . S
O385 Tb361 2.341 . S
O385 C370 1.266 . S
O386 Tb361 2.484 . S
O386 C371 1.248 . S
O387 Tb361 2.440 . S
O387 C371 1.266 . S
O388 Tb360 2.325 . S
O388 Tb361 2.658 . S
O388 C378 1.281 . S
O389 Tb361 2.409 . S
O389 C378 1.254 . S
O390 Tb361 2.378 . S
O390 C379 1.236 . S
O391 Tb360 2.341 . S
O391 C379 1.266 . S
H392 C364 0.929 . S
H393 C365 0.931 . S
H394 C367 0.930 . S
H395 C368 0.930 . S
H396 C373 0.929 . S
H397 C374 0.931 . S
H398 C376 0.930 . S
H399 C377 0.930 . S
Tb400 C402 2.809 . S
Tb400 O420 2.484 . S
Tb400 O421 2.440 . S
Tb400 O422 2.658 . S
Tb400 O423 2.409 . S
Tb400 O424 2.378 . S
Tb400 O428 2.325 . S
Tb400 O431 2.341 . S
Tb401 C411 2.809 . S
Tb401 O422 2.325 . S
Tb401 O425 2.341 . S
Tb401 O426 2.484 . S
Tb401 O427 2.440 . S
Tb401 O428 2.658 . S
Tb401 O429 2.409 . S
Tb401 O430 2.378 . S
C402 Tb400 2.809 . S
C402 C403 1.514 . S
C402 O420 1.248 . S
C402 O421 1.266 . S
C403 C402 1.514 . S
C403 C404 1.359 . S
C403 C408 1.348 . S
C404 C403 1.359 . S
C404 C405 1.380 . S
C404 H432 0.929 . S
C405 C404 1.380 . S
C405 C406 1.347 . S
C405 H433 0.931 . S
C406 C405 1.347 . S
C406 C407 1.369 . S
C407 C406 1.369 . S
C407 C408 1.408 . S
C407 H434 0.930 . S
C408 C403 1.348 . S
C408 C407 1.408 . S
C408 H435 0.930 . S
C409 O422 1.281 . S
C409 O423 1.254 . S
C410 O424 1.236 . S
C410 O425 1.266 . S
C411 Tb401 2.809 . S
C411 C412 1.514 . S
C411 O426 1.248 . S
C411 O427 1.266 . S
C412 C411 1.514 . S
C412 C413 1.359 . S
C412 C417 1.348 . S
C413 C412 1.359 . S
C413 C414 1.380 . S
C413 H436 0.929 . S
C414 C413 1.380 . S
C414 C415 1.347 . S
C414 H437 0.931 . S
C415 C414 1.347 . S
C415 C416 1.369 . S
C416 C415 1.369 . S
C416 C417 1.408 . S
C416 H438 0.930 . S
C417 C412 1.348 . S
C417 C416 1.408 . S
C417 H439 0.930 . S
C418 O428 1.281 . S
C418 O429 1.254 . S
C419 O430 1.236 . S
C419 O431 1.266 . S
O420 Tb400 2.484 . S
O420 C402 1.248 . S
O421 Tb400 2.440 . S
O421 C402 1.266 . S
O422 Tb400 2.658 . S
O422 Tb401 2.325 . S
O422 C409 1.281 . S
O423 Tb400 2.409 . S
O423 C409 1.254 . S
O424 Tb400 2.378 . S
O424 C410 1.236 . S
O425 Tb401 2.341 . S
O425 C410 1.266 . S
O426 Tb401 2.484 . S
O426 C411 1.248 . S
O427 Tb401 2.440 . S
O427 C411 1.266 . S
O428 Tb400 2.325 . S
O428 Tb401 2.658 . S
O428 C418 1.281 . S
O429 Tb401 2.409 . S
O429 C418 1.254 . S
O430 Tb401 2.378 . S
O430 C419 1.236 . S
O431 Tb400 2.341 . S
O431 C419 1.266 . S
H432 C404 0.929 . S
H433 C405 0.931 . S
H434 C407 0.930 . S
H435 C408 0.930 . S
H436 C413 0.929 . S
H437 C414 0.931 . S
H438 C416 0.930 . S
H439 C417 0.930 . S
Tb440 C442 2.809 1_554 S
Tb440 O460 2.484 . S
Tb440 O461 2.440 . S
Tb440 O462 2.658 . S
Tb440 O463 2.409 . S
Tb440 O464 2.378 . S
Tb440 O468 2.325 . S
Tb440 O471 2.341 . S
Tb441 C451 2.809 . S
Tb441 O462 2.325 . S
Tb441 O465 2.341 . S
Tb441 O466 2.484 . S
Tb441 O467 2.440 . S
Tb441 O468 2.658 . S
Tb441 O469 2.409 . S
Tb441 O470 2.378 . S
C442 Tb440 2.809 1_556 S
C442 C443 1.514 . S
C442 O460 1.248 1_556 S
C442 O461 1.266 1_556 S
C443 C442 1.514 . S
C443 C444 1.359 . S
C443 C448 1.348 . S
C444 C443 1.359 . S
C444 C445 1.380 . S
C444 H472 0.929 . S
C445 C444 1.380 . S
C445 C446 1.347 . S
C445 H473 0.931 . S
C446 C445 1.347 . S
C446 C447 1.369 . S
C447 C446 1.369 . S
C447 C448 1.408 . S
C447 H474 0.930 . S
C448 C443 1.348 . S
C448 C447 1.408 . S
C448 H475 0.930 . S
C449 O462 1.281 . S
C449 O463 1.254 . S
C450 O464 1.236 . S
C450 O465 1.266 . S
C451 Tb441 2.809 . S
C451 C452 1.514 . S
C451 O466 1.248 . S
C451 O467 1.266 . S
C452 C451 1.514 . S
C452 C453 1.359 . S
C452 C457 1.348 . S
C453 C452 1.359 . S
C453 C454 1.380 . S
C453 H476 0.929 . S
C454 C453 1.380 . S
C454 C455 1.347 . S
C454 H477 0.931 . S
C455 C454 1.347 . S
C455 C456 1.369 . S
C456 C455 1.369 . S
C456 C457 1.408 . S
C456 H478 0.930 . S
C457 C452 1.348 . S
C457 C456 1.408 . S
C457 H479 0.930 . S
C458 O468 1.281 . S
C458 O469 1.254 . S
C459 O470 1.236 . S
C459 O471 1.266 . S
O460 Tb440 2.484 . S
O460 C442 1.248 1_554 S
O461 Tb440 2.440 . S
O461 C442 1.266 1_554 S
O462 Tb440 2.658 . S
O462 Tb441 2.325 . S
O462 C449 1.281 . S
O463 Tb440 2.409 . S
O463 C449 1.254 . S
O464 Tb440 2.378 . S
O464 C450 1.236 . S
O465 Tb441 2.341 . S
O465 C450 1.266 . S
O466 Tb441 2.484 . S
O466 C451 1.248 . S
O467 Tb441 2.440 . S
O467 C451 1.266 . S
O468 Tb440 2.325 . S
O468 Tb441 2.658 . S
O468 C458 1.281 . S
O469 Tb441 2.409 . S
O469 C458 1.254 . S
O470 Tb441 2.378 . S
O470 C459 1.236 . S
O471 Tb440 2.341 . S
O471 C459 1.266 . S
H472 C444 0.929 . S
H473 C445 0.931 . S
H474 C447 0.930 . S
H475 C448 0.930 . S
H476 C453 0.929 . S
H477 C454 0.931 . S
H478 C456 0.930 . S
H479 C457 0.930 . S
H480 C492 0.930 . S
H481 C494 0.930 . S
H482 C495 0.930 . S
H483 C499 0.959 . S
H484 C499 0.959 . S
H485 C499 0.961 . S
H486 C500 0.960 . S
H487 C500 0.961 . S
H488 C500 0.959 . S
H489 C503 0.929 . S
H490 C504 0.931 . S
H491 C506 0.930 . S
C492 H480 0.930 . S
C492 C493 1.399 . S
C492 C497 1.399 . S
C493 C492 1.399 . S
C493 C494 1.376 . S
C494 H481 0.930 . S
C494 C493 1.376 . S
C494 C495 1.388 . S
C495 H482 0.930 . S
C495 C494 1.388 . S
C495 C496 1.390 . S
C496 C495 1.390 . S
C496 C497 1.394 . S
C496 C502 1.465 . S
C497 C492 1.399 . S
C497 C496 1.394 . S
C497 C498 1.516 . S
C498 C497 1.516 . S
C498 C499 1.502 . S
C498 C500 1.561 . S
C498 C501 1.526 . S
C499 H483 0.959 . S
C499 H484 0.959 . S
C499 H485 0.961 . S
C499 C498 1.502 . S
C500 H486 0.960 . S
C500 H487 0.961 . S
C500 H488 0.959 . S
C500 C498 1.561 . S
C501 C498 1.526 . S
C501 C502 1.396 . S
C501 C506 1.390 . S
C502 C496 1.465 . S
C502 C501 1.396 . S
C502 C503 1.399 . S
C503 H489 0.929 . S
C503 C502 1.399 . S
C503 C504 1.385 . S
C504 H490 0.931 . S
C504 C503 1.385 . S
C504 C505 1.389 . S
C505 C504 1.389 . S
C505 C506 1.387 . S
C506 H491 0.930 . S
C506 C501 1.390 . S
C506 C505 1.387 . S
H507 C519 0.930 . S
H508 C521 0.930 . S
H509 C522 0.930 . S
H510 C526 0.959 . S
H511 C526 0.959 . S
H512 C526 0.961 . S
H513 C527 0.960 . S
H514 C527 0.961 . S
H515 C527 0.959 . S
H516 C530 0.929 . S
H517 C531 0.931 . S
H518 C533 0.930 . S
C519 H507 0.930 . S
C519 C520 1.399 . S
C519 C524 1.399 . S
C520 C519 1.399 . S
C520 C521 1.376 . S
C521 H508 0.930 . S
C521 C520 1.376 . S
C521 C522 1.388 . S
C522 H509 0.930 . S
C522 C521 1.388 . S
C522 C523 1.390 . S
C523 C522 1.390 . S
C523 C524 1.394 . S
C523 C529 1.465 . S
C524 C519 1.399 . S
C524 C523 1.394 . S
C524 C525 1.516 . S
C525 C524 1.516 . S
C525 C526 1.502 . S
C525 C527 1.561 . S
C525 C528 1.526 . S
C526 H510 0.959 . S
C526 H511 0.959 . S
C526 H512 0.961 . S
C526 C525 1.502 . S
C527 H513 0.960 . S
C527 H514 0.961 . S
C527 H515 0.959 . S
C527 C525 1.561 . S
C528 C525 1.526 . S
C528 C529 1.396 . S
C528 C533 1.390 . S
C529 C523 1.465 . S
C529 C528 1.396 . S
C529 C530 1.399 . S
C530 H516 0.929 . S
C530 C529 1.399 . S
C530 C531 1.385 . S
C531 H517 0.931 . S
C531 C530 1.385 . S
C531 C532 1.389 . S
C532 C531 1.389 . S
C532 C533 1.387 . S
C533 H518 0.930 . S
C533 C528 1.390 . S
C533 C532 1.387 . S
H534 C546 0.930 . S
H535 C548 0.930 . S
H536 C549 0.930 . S
H537 C553 0.959 . S
H538 C553 0.959 . S
H539 C553 0.961 . S
H540 C554 0.960 . S
H541 C554 0.961 . S
H542 C554 0.959 . S
H543 C557 0.929 . S
H544 C558 0.931 . S
H545 C560 0.930 . S
C546 H534 0.930 . S
C546 C547 1.399 . S
C546 C551 1.399 . S
C547 C546 1.399 . S
C547 C548 1.376 . S
C548 H535 0.930 . S
C548 C547 1.376 . S
C548 C549 1.388 . S
C549 H536 0.930 . S
C549 C548 1.388 . S
C549 C550 1.390 . S
C550 C549 1.390 . S
C550 C551 1.394 . S
C550 C556 1.465 . S
C551 C546 1.399 . S
C551 C550 1.394 . S
C551 C552 1.516 . S
C552 C551 1.516 . S
C552 C553 1.502 . S
C552 C554 1.561 . S
C552 C555 1.526 . S
C553 H537 0.959 . S
C553 H538 0.959 . S
C553 H539 0.961 . S
C553 C552 1.502 . S
C554 H540 0.960 . S
C554 H541 0.961 . S
C554 H542 0.959 . S
C554 C552 1.561 . S
C555 C552 1.526 . S
C555 C556 1.396 . S
C555 C560 1.390 . S
C556 C550 1.465 . S
C556 C555 1.396 . S
C556 C557 1.399 . S
C557 H543 0.929 . S
C557 C556 1.399 . S
C557 C558 1.385 . S
C558 H544 0.931 . S
C558 C557 1.385 . S
C558 C559 1.389 . S
C559 C558 1.389 . S
C559 C560 1.387 . S
C560 H545 0.930 . S
C560 C555 1.390 . S
C560 C559 1.387 . S
H561 C573 0.930 . S
H562 C575 0.930 . S
H563 C576 0.930 . S
H564 C580 0.959 . S
H565 C580 0.959 . S
H566 C580 0.961 . S
H567 C581 0.960 . S
H568 C581 0.961 . S
H569 C581 0.959 . S
H570 C584 0.929 . S
H571 C585 0.931 . S
H572 C587 0.930 . S
C573 H561 0.930 . S
C573 C574 1.399 . S
C573 C578 1.399 . S
C574 C573 1.399 . S
C574 C575 1.376 . S
C575 H562 0.930 . S
C575 C574 1.376 . S
C575 C576 1.388 . S
C576 H563 0.930 . S
C576 C575 1.388 . S
C576 C577 1.390 . S
C577 C576 1.390 . S
C577 C578 1.394 . S
C577 C583 1.465 . S
C578 C573 1.399 . S
C578 C577 1.394 . S
C578 C579 1.516 . S
C579 C578 1.516 . S
C579 C580 1.502 . S
C579 C581 1.561 . S
C579 C582 1.526 . S
C580 H564 0.959 . S
C580 H565 0.959 . S
C580 H566 0.961 . S
C580 C579 1.502 . S
C581 H567 0.960 . S
C581 H568 0.961 . S
C581 H569 0.959 . S
C581 C579 1.561 . S
C582 C579 1.526 . S
C582 C583 1.396 . S
C582 C587 1.390 . S
C583 C577 1.465 . S
C583 C582 1.396 . S
C583 C584 1.399 . S
C584 H570 0.929 . S
C584 C583 1.399 . S
C584 C585 1.385 . S
C585 H571 0.931 . S
C585 C584 1.385 . S
C585 C586 1.389 . S
C586 C585 1.389 . S
C586 C587 1.387 . S
C587 H572 0.930 . S
C587 C582 1.390 . S
C587 C586 1.387 . S
H588 C600 0.930 . S
H589 C602 0.930 . S
H590 C603 0.930 . S
H591 C607 0.959 . S
H592 C607 0.959 . S
H593 C607 0.961 . S
H594 C608 0.960 . S
H595 C608 0.961 . S
H596 C608 0.959 . S
H597 C611 0.929 . S
H598 C612 0.931 . S
H599 C614 0.930 . S
C600 H588 0.930 . S
C600 C601 1.399 . S
C600 C605 1.399 . S
C601 C600 1.399 . S
C601 C602 1.376 . S
C602 H589 0.930 . S
C602 C601 1.376 . S
C602 C603 1.388 . S
C603 H590 0.930 . S
C603 C602 1.388 . S
C603 C604 1.390 . S
C604 C603 1.390 . S
C604 C605 1.394 . S
C604 C610 1.465 . S
C605 C600 1.399 . S
C605 C604 1.394 . S
C605 C606 1.516 . S
C606 C605 1.516 . S
C606 C607 1.502 . S
C606 C608 1.561 . S
C606 C609 1.526 . S
C607 H591 0.959 . S
C607 H592 0.959 . S
C607 H593 0.961 . S
C607 C606 1.502 . S
C608 H594 0.960 . S
C608 H595 0.961 . S
C608 H596 0.959 . S
C608 C606 1.561 . S
C609 C606 1.526 . S
C609 C610 1.396 . S
C609 C614 1.390 . S
C610 C604 1.465 . S
C610 C609 1.396 . S
C610 C611 1.399 . S
C611 H597 0.929 . S
C611 C610 1.399 . S
C611 C612 1.385 . S
C612 H598 0.931 . S
C612 C611 1.385 . S
C612 C613 1.389 . S
C613 C612 1.389 . S
C613 C614 1.387 . S
C614 H599 0.930 . S
C614 C609 1.390 . S
C614 C613 1.387 . S
H615 C627 0.930 . S
H616 C629 0.930 . S
H617 C630 0.930 . S
H618 C634 0.959 . S
H619 C634 0.959 . S
H620 C634 0.961 . S
H621 C635 0.960 . S
H622 C635 0.961 . S
H623 C635 0.959 . S
H624 C638 0.929 . S
H625 C639 0.931 . S
H626 C641 0.930 . S
C627 H615 0.930 . S
C627 C628 1.399 . S
C627 C632 1.399 . S
C628 C627 1.399 . S
C628 C629 1.376 . S
C629 H616 0.930 . S
C629 C628 1.376 . S
C629 C630 1.388 . S
C630 H617 0.930 . S
C630 C629 1.388 . S
C630 C631 1.390 . S
C631 C630 1.390 . S
C631 C632 1.394 . S
C631 C637 1.465 . S
C632 C627 1.399 . S
C632 C631 1.394 . S
C632 C633 1.516 . S
C633 C632 1.516 . S
C633 C634 1.502 . S
C633 C635 1.561 . S
C633 C636 1.526 . S
C634 H618 0.959 . S
C634 H619 0.959 . S
C634 H620 0.961 . S
C634 C633 1.502 . S
C635 H621 0.960 . S
C635 H622 0.961 . S
C635 H623 0.959 . S
C635 C633 1.561 . S
C636 C633 1.526 . S
C636 C637 1.396 . S
C636 C641 1.390 . S
C637 C631 1.465 . S
C637 C636 1.396 . S
C637 C638 1.399 . S
C638 H624 0.929 . S
C638 C637 1.399 . S
C638 C639 1.385 . S
C639 H625 0.931 . S
C639 C638 1.385 . S
C639 C640 1.389 . S
C640 C639 1.389 . S
C640 C641 1.387 . S
C641 H626 0.930 . S
C641 C636 1.390 . S
C641 C640 1.387 . S
H642 C654 0.930 . S
H643 C656 0.930 . S
H644 C657 0.930 . S
H645 C661 0.959 . S
H646 C661 0.959 . S
H647 C661 0.961 . S
H648 C662 0.960 . S
H649 C662 0.961 1_554 S
H650 C662 0.959 . S
H651 C665 0.929 . S
H652 C666 0.931 . S
H653 C668 0.930 . S
C654 H642 0.930 . S
C654 C655 1.399 . S
C654 C659 1.399 . S
C655 C654 1.399 . S
C655 C656 1.376 . S
C656 H643 0.930 . S
C656 C655 1.376 . S
C656 C657 1.388 . S
C657 H644 0.930 . S
C657 C656 1.388 . S
C657 C658 1.390 . S
C658 C657 1.390 . S
C658 C659 1.394 . S
C658 C664 1.465 1_556 S
C659 C654 1.399 . S
C659 C658 1.394 . S
C659 C660 1.516 1_556 S
C660 C659 1.516 1_554 S
C660 C661 1.502 . S
C660 C662 1.561 1_554 S
C660 C663 1.526 . S
C661 H645 0.959 . S
C661 H646 0.959 . S
C661 H647 0.961 . S
C661 C660 1.502 . S
C662 H648 0.960 . S
C662 H649 0.961 1_556 S
C662 H650 0.959 . S
C662 C660 1.561 1_556 S
C663 C660 1.526 . S
C663 C664 1.396 . S
C663 C668 1.390 . S
C664 C658 1.465 1_554 S
C664 C663 1.396 . S
C664 C665 1.399 . S
C665 H651 0.929 . S
C665 C664 1.399 . S
C665 C666 1.385 . S
C666 H652 0.931 . S
C666 C665 1.385 . S
C666 C667 1.389 . S
C667 C666 1.389 . S
C667 C668 1.387 . S
C668 H653 0.930 . S
C668 C663 1.390 . S
C668 C667 1.387 . S
H669 C681 0.930 . S
H670 C683 0.930 . S
H671 C684 0.930 . S
H672 C688 0.959 . S
H673 C688 0.959 . S
H674 C688 0.961 . S
H675 C689 0.960 . S
H676 C689 0.961 . S
H677 C689 0.959 . S
H678 C692 0.929 . S
H679 C693 0.931 . S
H680 C695 0.930 . S
C681 H669 0.930 . S
C681 C682 1.399 . S
C681 C686 1.399 . S
C682 C681 1.399 . S
C682 C683 1.376 . S
C683 H670 0.930 . S
C683 C682 1.376 . S
C683 C684 1.388 . S
C684 H671 0.930 . S
C684 C683 1.388 . S
C684 C685 1.390 . S
C685 C684 1.390 . S
C685 C686 1.394 . S
C685 C691 1.465 . S
C686 C681 1.399 . S
C686 C685 1.394 . S
C686 C687 1.516 . S
C687 C686 1.516 . S
C687 C688 1.502 . S
C687 C689 1.561 . S
C687 C690 1.526 . S
C688 H672 0.959 . S
C688 H673 0.959 . S
C688 H674 0.961 . S
C688 C687 1.502 . S
C689 H675 0.960 . S
C689 H676 0.961 . S
C689 H677 0.959 . S
C689 C687 1.561 . S
C690 C687 1.526 . S
C690 C691 1.396 . S
C690 C695 1.390 . S
C691 C685 1.465 . S
C691 C690 1.396 . S
C691 C692 1.399 . S
C692 H678 0.929 . S
C692 C691 1.399 . S
C692 C693 1.385 . S
C693 H679 0.931 . S
C693 C692 1.385 . S
C693 C694 1.389 . S
C694 C693 1.389 . S
C694 C695 1.387 . S
C695 H680 0.930 . S
C695 C690 1.390 . S
C695 C694 1.387 . S
H696 C708 0.930 . S
H697 C710 0.930 . S
H698 C711 0.930 . S
H699 C715 0.959 . S
H700 C715 0.959 . S
H701 C715 0.961 . S
H702 C716 0.960 . S
H703 C716 0.961 . S
H704 C716 0.959 . S
H705 C719 0.929 . S
H706 C720 0.931 . S
H707 C722 0.930 . S
C708 H696 0.930 . S
C708 C709 1.399 . S
C708 C713 1.399 . S
C709 C708 1.399 . S
C709 C710 1.376 . S
C710 H697 0.930 . S
C710 C709 1.376 . S
C710 C711 1.388 . S
C711 H698 0.930 . S
C711 C710 1.388 . S
C711 C712 1.390 . S
C712 C711 1.390 . S
C712 C713 1.394 . S
C712 C718 1.465 . S
C713 C708 1.399 . S
C713 C712 1.394 . S
C713 C714 1.516 . S
C714 C713 1.516 . S
C714 C715 1.502 . S
C714 C716 1.561 . S
C714 C717 1.526 . S
C715 H699 0.959 . S
C715 H700 0.959 . S
C715 H701 0.961 . S
C715 C714 1.502 . S
C716 H702 0.960 . S
C716 H703 0.961 . S
C716 H704 0.959 . S
C716 C714 1.561 . S
C717 C714 1.526 . S
C717 C718 1.396 . S
C717 C722 1.390 . S
C718 C712 1.465 . S
C718 C717 1.396 . S
C718 C719 1.399 . S
C719 H705 0.929 . S
C719 C718 1.399 . S
C719 C720 1.385 . S
C720 H706 0.931 . S
C720 C719 1.385 . S
C720 C721 1.389 . S
C721 C720 1.389 . S
C721 C722 1.387 . S
C722 H707 0.930 . S
C722 C717 1.390 . S
C722 C721 1.387 . S
H723 C735 0.930 . S
H724 C737 0.930 . S
H725 C738 0.930 . S
H726 C742 0.959 . S
H727 C742 0.959 . S
H728 C742 0.961 . S
H729 C743 0.960 . S
H730 C743 0.961 . S
H731 C743 0.959 . S
H732 C746 0.929 . S
H733 C747 0.931 . S
H734 C749 0.930 . S
C735 H723 0.930 . S
C735 C736 1.399 . S
C735 C740 1.399 . S
C736 C735 1.399 . S
C736 C737 1.376 . S
C737 H724 0.930 . S
C737 C736 1.376 . S
C737 C738 1.388 . S
C738 H725 0.930 . S
C738 C737 1.388 . S
C738 C739 1.390 . S
C739 C738 1.390 . S
C739 C740 1.394 . S
C739 C745 1.465 1_556 S
C740 C735 1.399 . S
C740 C739 1.394 . S
C740 C741 1.516 . S
C741 C740 1.516 . S
C741 C742 1.502 . S
C741 C743 1.561 1_556 S
C741 C744 1.526 1_556 S
C742 H726 0.959 . S
C742 H727 0.959 . S
C742 H728 0.961 . S
C742 C741 1.502 . S
C743 H729 0.960 . S
C743 H730 0.961 . S
C743 H731 0.959 . S
C743 C741 1.561 1_554 S
C744 C741 1.526 1_554 S
C744 C745 1.396 . S
C744 C749 1.390 . S
C745 C739 1.465 1_554 S
C745 C744 1.396 . S
C745 C746 1.399 . S
C746 H732 0.929 . S
C746 C745 1.399 . S
C746 C747 1.385 . S
C747 H733 0.931 . S
C747 C746 1.385 . S
C747 C748 1.389 . S
C748 C747 1.389 . S
C748 C749 1.387 . S
C749 H734 0.930 . S
C749 C744 1.390 . S
C749 C748 1.387 . S
H750 C762 0.930 . S
H751 C764 0.930 . S
H752 C765 0.930 . S
H753 C769 0.959 . S
H754 C769 0.959 . S
H755 C769 0.961 . S
H756 C770 0.960 . S
H757 C770 0.961 . S
H758 C770 0.959 . S
H759 C773 0.929 . S
H760 C774 0.931 . S
H761 C776 0.930 . S
C762 H750 0.930 . S
C762 C763 1.399 . S
C762 C767 1.399 . S
C763 C762 1.399 . S
C763 C764 1.376 . S
C764 H751 0.930 . S
C764 C763 1.376 . S
C764 C765 1.388 . S
C765 H752 0.930 . S
C765 C764 1.388 . S
C765 C766 1.390 . S
C766 C765 1.390 . S
C766 C767 1.394 . S
C766 C772 1.465 . S
C767 C762 1.399 . S
C767 C766 1.394 . S
C767 C768 1.516 . S
C768 C767 1.516 . S
C768 C769 1.502 . S
C768 C770 1.561 . S
C768 C771 1.526 . S
C769 H753 0.959 . S
C769 H754 0.959 . S
C769 H755 0.961 . S
C769 C768 1.502 . S
C770 H756 0.960 . S
C770 H757 0.961 . S
C770 H758 0.959 . S
C770 C768 1.561 . S
C771 C768 1.526 . S
C771 C772 1.396 . S
C771 C776 1.390 . S
C772 C766 1.465 . S
C772 C771 1.396 . S
C772 C773 1.399 . S
C773 H759 0.929 . S
C773 C772 1.399 . S
C773 C774 1.385 . S
C774 H760 0.931 . S
C774 C773 1.385 . S
C774 C775 1.389 . S
C775 C774 1.389 . S
C775 C776 1.387 . S
C776 H761 0.930 . S
C776 C771 1.390 . S
C776 C775 1.387 . S
H777 C789 0.930 . S
H778 C791 0.930 . S
H779 C792 0.930 . S
H780 C796 0.959 . S
H781 C796 0.959 . S
H782 C796 0.961 . S
H783 C797 0.960 . S
H784 C797 0.961 . S
H785 C797 0.959 . S
H786 C800 0.929 . S
H787 C801 0.931 . S
H788 C803 0.930 . S
C789 H777 0.930 . S
C789 C790 1.399 . S
C789 C794 1.399 . S
C790 C789 1.399 . S
C790 C791 1.376 . S
C791 H778 0.930 . S
C791 C790 1.376 . S
C791 C792 1.388 . S
C792 H779 0.930 . S
C792 C791 1.388 . S
C792 C793 1.390 . S
C793 C792 1.390 . S
C793 C794 1.394 . S
C793 C799 1.465 . S
C794 C789 1.399 . S
C794 C793 1.394 . S
C794 C795 1.516 . S
C795 C794 1.516 . S
C795 C796 1.502 . S
C795 C797 1.561 . S
C795 C798 1.526 . S
C796 H780 0.959 . S
C796 H781 0.959 . S
C796 H782 0.961 . S
C796 C795 1.502 . S
C797 H783 0.960 . S
C797 H784 0.961 . S
C797 H785 0.959 . S
C797 C795 1.561 . S
C798 C795 1.526 . S
C798 C799 1.396 . S
C798 C803 1.390 . S
C799 C793 1.465 . S
C799 C798 1.396 . S
C799 C800 1.399 . S
C800 H786 0.929 . S
C800 C799 1.399 . S
C800 C801 1.385 . S
C801 H787 0.931 . S
C801 C800 1.385 . S
C801 C802 1.389 . S
C802 C801 1.389 . S
C802 C803 1.387 . S
C803 H788 0.930 . S
C803 C798 1.390 . S
C803 C802 1.387 . S
H804 C816 0.930 1_545 S
H805 C818 0.930 . S
H806 C819 0.930 . S
H807 C823 0.959 . S
H808 C823 0.959 . S
H809 C823 0.961 . S
H810 C824 0.960 . S
H811 C824 0.961 . S
H812 C824 0.959 . S
H813 C827 0.929 . S
H814 C828 0.933 . S
H815 C830 0.930 . S
C816 H804 0.930 1_565 S
C816 C817 1.399 . S
C816 C821 1.399 . S
C817 C816 1.399 . S
C817 C818 1.376 . S
C818 H805 0.930 . S
C818 C817 1.376 . S
C818 C819 1.388 . S
C819 H806 0.930 . S
C819 C818 1.388 . S
C819 C820 1.390 . S
C820 C819 1.390 . S
C820 C821 1.393 . S
C820 C826 1.465 1_556 S
C821 C816 1.399 . S
C821 C820 1.393 . S
C821 C822 1.517 1_565 S
C822 C821 1.517 1_545 S
C822 C823 1.502 . S
C822 C824 1.561 . S
C822 C825 1.526 1_556 S
C823 H807 0.959 . S
C823 H808 0.959 . S
C823 H809 0.961 . S
C823 C822 1.502 . S
C824 H810 0.960 . S
C824 H811 0.961 . S
C824 H812 0.959 . S
C824 C822 1.561 . S
C825 C822 1.526 1_554 S
C825 C826 1.396 1_545 S
C825 C830 1.390 . S
C826 C820 1.465 1_554 S
C826 C825 1.396 1_565 S
C826 C827 1.399 . S
C827 H813 0.929 . S
C827 C826 1.399 . S
C827 C828 1.385 1_565 S
C828 H814 0.933 . S
C828 C827 1.385 1_545 S
C828 C829 1.389 . S
C829 C828 1.389 . S
C829 C830 1.387 . S
C830 H815 0.930 . S
C830 C825 1.390 . S
C830 C829 1.387 . S
H831 C843 0.930 . S
H832 C845 0.930 . S
H833 C846 0.930 . S
H834 C850 0.959 . S
H835 C850 0.959 . S
H836 C850 0.961 . S
H837 C851 0.960 . S
H838 C851 0.961 . S
H839 C851 0.959 . S
H840 C854 0.929 . S
H841 C855 0.931 . S
H842 C857 0.930 . S
C843 H831 0.930 . S
C843 C844 1.399 . S
C843 C848 1.399 . S
C844 C843 1.399 . S
C844 C845 1.376 . S
C845 H832 0.930 . S
C845 C844 1.376 . S
C845 C846 1.388 . S
C846 H833 0.930 . S
C846 C845 1.388 . S
C846 C847 1.390 . S
C847 C846 1.390 . S
C847 C848 1.394 . S
C847 C853 1.465 . S
C848 C843 1.399 . S
C848 C847 1.394 . S
C848 C849 1.516 . S
C849 C848 1.516 . S
C849 C850 1.502 . S
C849 C851 1.561 . S
C849 C852 1.526 . S
C850 H834 0.959 . S
C850 H835 0.959 . S
C850 H836 0.961 . S
C850 C849 1.502 . S
C851 H837 0.960 . S
C851 H838 0.961 . S
C851 H839 0.959 . S
C851 C849 1.561 . S
C852 C849 1.526 . S
C852 C853 1.396 . S
C852 C857 1.390 . S
C853 C847 1.465 . S
C853 C852 1.396 . S
C853 C854 1.399 . S
C854 H840 0.929 . S
C854 C853 1.399 . S
C854 C855 1.385 . S
C855 H841 0.931 . S
C855 C854 1.385 . S
C855 C856 1.389 . S
C856 C855 1.389 . S
C856 C857 1.387 . S
C857 H842 0.930 . S
C857 C852 1.390 . S
C857 C856 1.387 . S
H858 C870 0.930 1_655 S
H859 C872 0.930 . S
H860 C873 0.930 . S
H861 C877 0.959 . S
H862 C877 0.959 . S
H863 C877 0.961 . S
H864 C878 0.960 . S
H865 C878 0.961 . S
H866 C878 0.959 . S
H867 C881 0.929 . S
H868 C882 0.931 . S
H869 C884 0.930 . S
C870 H858 0.930 1_455 S
C870 C871 1.399 . S
C870 C875 1.400 . S
C871 C870 1.399 . S
C871 C872 1.376 . S
C872 H859 0.930 . S
C872 C871 1.376 . S
C872 C873 1.388 . S
C873 H860 0.930 . S
C873 C872 1.388 . S
C873 C874 1.390 . S
C874 C873 1.390 . S
C874 C875 1.398 . S
C874 C880 1.465 . S
C875 C870 1.400 . S
C875 C874 1.398 . S
C875 C876 1.511 1_455 S
C876 C875 1.511 1_655 S
C876 C877 1.502 . S
C876 C878 1.561 . S
C876 C879 1.526 . S
C877 H861 0.959 . S
C877 H862 0.959 . S
C877 H863 0.961 . S
C877 C876 1.502 . S
C878 H864 0.960 . S
C878 H865 0.961 . S
C878 H866 0.959 . S
C878 C876 1.561 . S
C879 C876 1.526 . S
C879 C880 1.396 1_655 S
C879 C884 1.390 . S
C880 C874 1.465 . S
C880 C879 1.396 1_455 S
C880 C881 1.399 . S
C881 H867 0.929 . S
C881 C880 1.399 . S
C881 C882 1.385 1_455 S
C882 H868 0.931 . S
C882 C881 1.385 1_655 S
C882 C883 1.389 . S
C883 C882 1.389 . S
C883 C884 1.387 . S
C884 H869 0.930 . S
C884 C879 1.390 . S
C884 C883 1.387 . S
H885 C897 0.930 . S
H886 C899 0.930 1_545 S
H887 C900 0.930 . S
H888 C904 0.959 . S
H889 C904 0.959 . S
H890 C904 0.961 . S
H891 C905 0.960 . S
H892 C905 0.961 . S
H893 C905 0.959 . S
H894 C908 0.929 1_554 S
H895 C909 0.931 . S
H896 C911 0.930 1_565 S
C897 H885 0.930 . S
C897 C898 1.399 . S
C897 C902 1.399 . S
C898 C897 1.399 . S
C898 C899 1.376 . S
C899 H886 0.930 1_565 S
C899 C898 1.376 . S
C899 C900 1.388 1_565 S
C900 H887 0.930 . S
C900 C899 1.388 1_545 S
C900 C901 1.390 . S
C901 C900 1.390 . S
C901 C902 1.394 1_545 S
C901 C907 1.465 1_554 S
C902 C897 1.399 . S
C902 C901 1.394 1_565 S
C902 C903 1.516 1_554 S
C903 C902 1.516 1_556 S
C903 C904 1.502 . S
C903 C905 1.561 . S
C903 C906 1.504 1_565 S
C904 H888 0.959 . S
C904 H889 0.959 . S
C904 H890 0.961 . S
C904 C903 1.502 . S
C905 H891 0.960 . S
C905 H892 0.961 . S
C905 H893 0.959 . S
C905 C903 1.561 . S
C906 C903 1.504 1_545 S
C906 C907 1.412 . S
C906 C911 1.397 . S
C907 C901 1.465 1_556 S
C907 C906 1.412 . S
C907 C908 1.399 . S
C908 H894 0.929 1_556 S
C908 C907 1.399 . S
C908 C909 1.385 . S
C909 H895 0.931 . S
C909 C908 1.385 . S
C909 C910 1.389 . S
C910 C909 1.389 . S
C910 C911 1.387 . S
C911 H896 0.930 1_545 S
C911 C906 1.397 . S
C911 C910 1.387 . S
H912 C924 0.930 . S
H913 C926 0.930 . S
H914 C927 0.930 . S
H915 C931 0.959 . S
H916 C931 0.959 . S
H917 C931 0.961 . S
H918 C932 0.960 . S
H919 C932 0.961 . S
H920 C932 0.959 . S
H921 C935 0.929 . S
H922 C936 0.931 . S
H923 C938 0.930 . S
C924 H912 0.930 . S
C924 C925 1.399 . S
C924 C929 1.399 . S
C925 C924 1.399 . S
C925 C926 1.376 . S
C926 H913 0.930 . S
C926 C925 1.376 . S
C926 C927 1.388 . S
C927 H914 0.930 . S
C927 C926 1.388 . S
C927 C928 1.390 . S
C928 C927 1.390 . S
C928 C929 1.394 . S
C928 C934 1.465 . S
C929 C924 1.399 . S
C929 C928 1.394 . S
C929 C930 1.516 . S
C930 C929 1.516 . S
C930 C931 1.502 . S
C930 C932 1.561 . S
C930 C933 1.526 . S
C931 H915 0.959 . S
C931 H916 0.959 . S
C931 H917 0.961 . S
C931 C930 1.502 . S
C932 H918 0.960 . S
C932 H919 0.961 . S
C932 H920 0.959 . S
C932 C930 1.561 . S
C933 C930 1.526 . S
C933 C934 1.396 . S
C933 C938 1.390 . S
C934 C928 1.465 . S
C934 C933 1.396 . S
C934 C935 1.399 . S
C935 H921 0.929 . S
C935 C934 1.399 . S
C935 C936 1.385 . S
C936 H922 0.931 . S
C936 C935 1.385 . S
C936 C937 1.389 . S
C937 C936 1.389 . S
C937 C938 1.387 . S
C938 H923 0.930 . S
C938 C933 1.390 . S
C938 C937 1.387 . S
H939 C951 0.930 . S
H940 C953 0.930 . S
H941 C954 0.930 . S
H942 C958 0.959 . S
H943 C958 0.959 1_655 S
H944 C958 0.961 . S
H945 C959 0.960 . S
H946 C959 0.961 . S
H947 C959 0.959 . S
H948 C962 0.929 . S
H949 C963 0.931 . S
H950 C965 0.930 . S
C951 H939 0.930 . S
C951 C952 1.399 . S
C951 C956 1.399 . S
C952 C951 1.399 . S
C952 C953 1.376 . S
C953 H940 0.930 . S
C953 C952 1.376 . S
C953 C954 1.388 . S
C954 H941 0.930 . S
C954 C953 1.388 . S
C954 C955 1.390 . S
C955 C954 1.390 . S
C955 C956 1.394 . S
C955 C961 1.465 1_455 S
C956 C951 1.399 . S
C956 C955 1.394 . S
C956 C957 1.516 1_455 S
C957 C956 1.516 1_655 S
C957 C958 1.502 1_655 S
C957 C959 1.561 . S
C957 C960 1.526 . S
C958 H942 0.959 . S
C958 H943 0.959 1_455 S
C958 H944 0.961 . S
C958 C957 1.502 1_455 S
C959 H945 0.960 . S
C959 H946 0.961 . S
C959 H947 0.959 . S
C959 C957 1.561 . S
C960 C957 1.526 . S
C960 C961 1.396 . S
C960 C965 1.390 . S
C961 C955 1.465 1_655 S
C961 C960 1.396 . S
C961 C962 1.399 . S
C962 H948 0.929 . S
C962 C961 1.399 . S
C962 C963 1.385 . S
C963 H949 0.931 . S
C963 C962 1.385 . S
C963 C964 1.389 . S
C964 C963 1.389 . S
C964 C965 1.387 . S
C965 H950 0.930 . S
C965 C960 1.390 . S
C965 C964 1.387 . S
H966 C978 0.930 . S
H967 C980 0.930 . S
H968 C981 0.930 . S
H969 C985 0.959 . S
H970 C985 0.959 . S
H971 C985 0.961 . S
H972 C986 0.960 . S
H973 C986 0.961 . S
H974 C986 0.959 . S
H975 C989 0.929 . S
H976 C990 0.931 . S
H977 C992 0.930 . S
C978 H966 0.930 . S
C978 C979 1.399 . S
C978 C983 1.399 . S
C979 C978 1.399 . S
C979 C980 1.376 . S
C980 H967 0.930 . S
C980 C979 1.376 . S
C980 C981 1.388 . S
C981 H968 0.930 . S
C981 C980 1.388 . S
C981 C982 1.390 . S
C982 C981 1.390 . S
C982 C983 1.394 . S
C982 C988 1.465 1_545 S
C983 C978 1.399 . S
C983 C982 1.394 . S
C983 C984 1.516 1_545 S
C984 C983 1.516 1_565 S
C984 C985 1.502 1_565 S
C984 C986 1.561 . S
C984 C987 1.526 . S
C985 H969 0.959 . S
C985 H970 0.959 . S
C985 H971 0.961 . S
C985 C984 1.502 1_545 S
C986 H972 0.960 . S
C986 H973 0.961 . S
C986 H974 0.959 . S
C986 C984 1.561 . S
C987 C984 1.526 . S
C987 C988 1.396 . S
C987 C992 1.390 . S
C988 C982 1.465 1_565 S
C988 C987 1.396 . S
C988 C989 1.399 . S
C989 H975 0.929 . S
C989 C988 1.399 . S
C989 C990 1.385 . S
C990 H976 0.931 . S
C990 C989 1.385 . S
C990 C991 1.389 . S
C991 C990 1.389 . S
C991 C992 1.387 . S
C992 H977 0.930 . S
C992 C987 1.390 . S
C992 C991 1.387 . S
H993 C1005 0.930 . S
H994 C1007 0.930 . S
H995 C1008 0.930 . S
H996 C1012 0.959 . S
H997 C1012 0.959 . S
H998 C1012 0.961 . S
H999 C1013 0.960 . S
H1000 C1013 0.961 . S
H1001 C1013 0.959 . S
H1002 C1016 0.929 . S
H1003 C1017 0.931 . S
H1004 C1019 0.930 . S
C1005 H993 0.930 . S
C1005 C1006 1.399 . S
C1005 C1010 1.399 . S
C1006 C1005 1.399 . S
C1006 C1007 1.376 . S
C1007 H994 0.930 . S
C1007 C1006 1.376 . S
C1007 C1008 1.388 . S
C1008 H995 0.930 . S
C1008 C1007 1.388 . S
C1008 C1009 1.390 . S
C1009 C1008 1.390 . S
C1009 C1010 1.394 . S
C1009 C1015 1.465 . S
C1010 C1005 1.399 . S
C1010 C1009 1.394 . S
C1010 C1011 1.516 . S
C1011 C1010 1.516 . S
C1011 C1012 1.502 . S
C1011 C1013 1.561 . S
C1011 C1014 1.526 . S
C1012 H996 0.959 . S
C1012 H997 0.959 . S
C1012 H998 0.961 . S
C1012 C1011 1.502 . S
C1013 H999 0.960 . S
C1013 H1000 0.961 . S
C1013 H1001 0.959 . S
C1013 C1011 1.561 . S
C1014 C1011 1.526 . S
C1014 C1015 1.396 . S
C1014 C1019 1.390 . S
C1015 C1009 1.465 . S
C1015 C1014 1.396 . S
C1015 C1016 1.399 . S
C1016 H1002 0.929 . S
C1016 C1015 1.399 . S
C1016 C1017 1.385 . S
C1017 H1003 0.931 . S
C1017 C1016 1.385 . S
C1017 C1018 1.389 . S
C1018 C1017 1.389 . S
C1018 C1019 1.387 . S
C1019 H1004 0.930 . S
C1019 C1014 1.390 . S
C1019 C1018 1.387 . S
H1020 C1032 0.930 . S
H1021 C1034 0.930 . S
H1022 C1035 0.930 . S
H1023 C1039 0.959 . S
H1024 C1039 0.959 . S
H1025 C1039 0.961 . S
H1026 C1040 0.960 1_554 S
H1027 C1040 0.961 1_554 S
H1028 C1040 0.959 . S
H1029 C1043 0.929 . S
H1030 C1044 0.931 . S
H1031 C1046 0.930 . S
C1032 H1020 0.930 . S
C1032 C1033 1.399 . S
C1032 C1037 1.399 . S
C1033 C1032 1.399 . S
C1033 C1034 1.376 . S
C1034 H1021 0.930 . S
C1034 C1033 1.376 . S
C1034 C1035 1.388 . S
C1035 H1022 0.930 . S
C1035 C1034 1.388 . S
C1035 C1036 1.390 . S
C1036 C1035 1.390 . S
C1036 C1037 1.394 . S
C1036 C1042 1.465 1_655 S
C1037 C1032 1.399 . S
C1037 C1036 1.394 . S
C1037 C1038 1.516 . S
C1038 C1037 1.516 . S
C1038 C1039 1.502 . S
C1038 C1040 1.561 1_655 S
C1038 C1041 1.526 1_655 S
C1039 H1023 0.959 . S
C1039 H1024 0.959 . S
C1039 H1025 0.961 . S
C1039 C1038 1.502 . S
C1040 H1026 0.960 1_556 S
C1040 H1027 0.961 1_556 S
C1040 H1028 0.959 . S
C1040 C1038 1.561 1_455 S
C1041 C1038 1.526 1_455 S
C1041 C1042 1.396 . S
C1041 C1046 1.390 . S
C1042 C1036 1.465 1_455 S
C1042 C1041 1.396 . S
C1042 C1043 1.399 . S
C1043 H1029 0.929 . S
C1043 C1042 1.399 . S
C1043 C1044 1.385 . S
C1044 H1030 0.931 . S
C1044 C1043 1.385 . S
C1044 C1045 1.389 . S
C1045 C1044 1.389 . S
C1045 C1046 1.387 . S
C1046 H1031 0.930 . S
C1046 C1041 1.390 . S
C1046 C1045 1.387 . S
H1047 C1059 0.930 . S
H1048 C1061 0.930 . S
H1049 C1062 0.930 . S
H1050 C1066 0.959 . S
H1051 C1066 0.959 . S
H1052 C1066 0.961 . S
H1053 C1067 0.960 . S
H1054 C1067 0.961 . S
H1055 C1067 0.959 . S
H1056 C1070 0.929 . S
H1057 C1071 0.931 . S
H1058 C1073 0.930 . S
C1059 H1047 0.930 . S
C1059 C1060 1.399 . S
C1059 C1064 1.399 . S
C1060 C1059 1.399 . S
C1060 C1061 1.376 . S
C1061 H1048 0.930 . S
C1061 C1060 1.376 . S
C1061 C1062 1.388 . S
C1062 H1049 0.930 . S
C1062 C1061 1.388 . S
C1062 C1063 1.390 . S
C1063 C1062 1.390 . S
C1063 C1064 1.394 . S
C1063 C1069 1.465 1_455 S
C1064 C1059 1.399 . S
C1064 C1063 1.394 . S
C1064 C1065 1.516 1_455 S
C1065 C1064 1.516 1_655 S
C1065 C1066 1.502 . S
C1065 C1067 1.561 1_655 S
C1065 C1068 1.526 . S
C1066 H1050 0.959 . S
C1066 H1051 0.959 . S
C1066 H1052 0.961 . S
C1066 C1065 1.502 . S
C1067 H1053 0.960 . S
C1067 H1054 0.961 . S
C1067 H1055 0.959 . S
C1067 C1065 1.561 1_455 S
C1068 C1065 1.526 . S
C1068 C1069 1.396 . S
C1068 C1073 1.390 . S
C1069 C1063 1.465 1_655 S
C1069 C1068 1.396 . S
C1069 C1070 1.399 . S
C1070 H1056 0.929 . S
C1070 C1069 1.399 . S
C1070 C1071 1.385 . S
C1071 H1057 0.931 . S
C1071 C1070 1.385 . S
C1071 C1072 1.389 . S
C1072 C1071 1.389 . S
C1072 C1073 1.387 . S
C1073 H1058 0.930 . S
C1073 C1068 1.390 . S
C1073 C1072 1.387 . S
H1074 C1086 0.930 . S
H1075 C1088 0.930 . S
H1076 C1089 0.930 . S
H1077 C1093 0.959 . S
H1078 C1093 0.959 . S
H1079 C1093 0.961 . S
H1080 C1094 0.960 . S
H1081 C1094 0.961 . S
H1082 C1094 0.959 . S
H1083 C1097 0.929 . S
H1084 C1098 0.931 . S
H1085 C1100 0.930 . S
C1086 H1074 0.930 . S
C1086 C1087 1.399 . S
C1086 C1091 1.399 . S
C1087 C1086 1.399 . S
C1087 C1088 1.376 . S
C1088 H1075 0.930 . S
C1088 C1087 1.376 . S
C1088 C1089 1.388 . S
C1089 H1076 0.930 . S
C1089 C1088 1.388 . S
C1089 C1090 1.390 . S
C1090 C1089 1.390 . S
C1090 C1091 1.394 . S
C1090 C1096 1.465 1_565 S
C1091 C1086 1.399 . S
C1091 C1090 1.394 . S
C1091 C1092 1.516 1_565 S
C1092 C1091 1.516 1_545 S
C1092 C1093 1.502 1_545 S
C1092 C1094 1.561 . S
C1092 C1095 1.526 . S
C1093 H1077 0.959 . S
C1093 H1078 0.959 . S
C1093 H1079 0.961 . S
C1093 C1092 1.502 1_565 S
C1094 H1080 0.960 . S
C1094 H1081 0.961 . S
C1094 H1082 0.959 . S
C1094 C1092 1.561 . S
C1095 C1092 1.526 . S
C1095 C1096 1.396 . S
C1095 C1100 1.390 . S
C1096 C1090 1.465 1_545 S
C1096 C1095 1.396 . S
C1096 C1097 1.399 . S
C1097 H1083 0.929 . S
C1097 C1096 1.399 . S
C1097 C1098 1.385 . S
C1098 H1084 0.931 . S
C1098 C1097 1.385 . S
C1098 C1099 1.389 . S
C1099 C1098 1.389 . S
C1099 C1100 1.387 . S
C1100 H1085 0.930 . S
C1100 C1095 1.390 . S
C1100 C1099 1.387 . S
H1101 C1113 0.930 . S
H1102 C1115 0.930 . S
H1103 C1116 0.930 . S
H1104 C1120 0.959 . S
H1105 C1120 0.959 . S
H1106 C1120 0.961 . S
H1107 C1121 0.960 1_556 S
H1108 C1121 0.961 1_556 S
H1109 C1121 0.959 . S
H1110 C1124 0.929 . S
H1111 C1125 0.931 . S
H1112 C1127 0.930 . S
C1113 H1101 0.930 . S
C1113 C1114 1.399 . S
C1113 C1118 1.399 . S
C1114 C1113 1.399 . S
C1114 C1115 1.376 . S
C1115 H1102 0.930 . S
C1115 C1114 1.376 . S
C1115 C1116 1.388 . S
C1116 H1103 0.930 . S
C1116 C1115 1.388 . S
C1116 C1117 1.390 . S
C1117 C1116 1.390 . S
C1117 C1118 1.394 . S
C1117 C1123 1.465 . S
C1118 C1113 1.399 . S
C1118 C1117 1.394 . S
C1118 C1119 1.516 . S
C1119 C1118 1.516 . S
C1119 C1120 1.502 . S
C1119 C1121 1.561 . S
C1119 C1122 1.526 . S
C1120 H1104 0.959 . S
C1120 H1105 0.959 . S
C1120 H1106 0.961 . S
C1120 C1119 1.502 . S
C1121 H1107 0.960 1_554 S
C1121 H1108 0.961 1_554 S
C1121 H1109 0.959 . S
C1121 C1119 1.561 . S
C1122 C1119 1.526 . S
C1122 C1123 1.396 . S
C1122 C1127 1.390 . S
C1123 C1117 1.465 . S
C1123 C1122 1.396 . S
C1123 C1124 1.399 . S
C1124 H1110 0.929 . S
C1124 C1123 1.399 . S
C1124 C1125 1.385 . S
C1125 H1111 0.931 . S
C1125 C1124 1.385 . S
C1125 C1126 1.389 . S
C1126 C1125 1.389 . S
C1126 C1127 1.387 . S
C1127 H1112 0.930 . S
C1127 C1122 1.390 . S
C1127 C1126 1.387 . S
H1128 C1140 0.930 . S
H1129 C1142 0.930 . S
H1130 C1143 0.930 1_545 S
H1131 C1147 0.959 . S
H1132 C1147 0.959 . S
H1133 C1147 0.961 . S
H1134 C1148 0.960 . S
H1135 C1148 0.961 . S
H1136 C1148 0.959 . S
H1137 C1151 0.929 . S
H1138 C1152 0.931 . S
H1139 C1154 0.930 . S
C1140 H1128 0.930 . S
C1140 C1141 1.399 . S
C1140 C1145 1.399 . S
C1141 C1140 1.399 . S
C1141 C1142 1.376 . S
C1142 H1129 0.930 . S
C1142 C1141 1.376 . S
C1142 C1143 1.388 . S
C1143 H1130 0.930 1_565 S
C1143 C1142 1.388 . S
C1143 C1144 1.390 . S
C1144 C1143 1.390 . S
C1144 C1145 1.394 . S
C1144 C1150 1.465 1_565 S
C1145 C1140 1.399 . S
C1145 C1144 1.394 . S
C1145 C1146 1.516 . S
C1146 C1145 1.516 . S
C1146 C1147 1.502 . S
C1146 C1148 1.561 . S
C1146 C1149 1.526 1_565 S
C1147 H1131 0.959 . S
C1147 H1132 0.959 . S
C1147 H1133 0.961 . S
C1147 C1146 1.502 . S
C1148 H1134 0.960 . S
C1148 H1135 0.961 . S
C1148 H1136 0.959 . S
C1148 C1146 1.561 . S
C1149 C1146 1.526 1_545 S
C1149 C1150 1.396 . S
C1149 C1154 1.390 . S
C1150 C1144 1.465 1_545 S
C1150 C1149 1.396 . S
C1150 C1151 1.399 . S
C1151 H1137 0.929 . S
C1151 C1150 1.399 . S
C1151 C1152 1.385 . S
C1152 H1138 0.931 . S
C1152 C1151 1.385 . S
C1152 C1153 1.389 . S
C1153 C1152 1.389 . S
C1153 C1154 1.387 . S
C1154 H1139 0.930 . S
C1154 C1149 1.390 . S
C1154 C1153 1.387 . S
H1155 C1167 0.930 . S
H1156 C1169 0.930 . S
H1157 C1170 0.930 . S
H1158 C1174 0.959 . S
H1159 C1174 0.959 . S
H1160 C1174 0.961 . S
H1161 C1175 0.960 . S
H1162 C1175 0.961 . S
H1163 C1175 0.959 . S
H1164 C1178 0.929 . S
H1165 C1179 0.931 . S
H1166 C1181 0.930 . S
C1167 H1155 0.930 . S
C1167 C1168 1.399 . S
C1167 C1172 1.399 . S
C1168 C1167 1.399 . S
C1168 C1169 1.376 . S
C1169 H1156 0.930 . S
C1169 C1168 1.376 . S
C1169 C1170 1.388 . S
C1170 H1157 0.930 . S
C1170 C1169 1.388 . S
C1170 C1171 1.390 . S
C1171 C1170 1.390 . S
C1171 C1172 1.394 . S
C1171 C1177 1.465 . S
C1172 C1167 1.399 . S
C1172 C1171 1.394 . S
C1172 C1173 1.516 . S
C1173 C1172 1.516 . S
C1173 C1174 1.502 . S
C1173 C1175 1.561 . S
C1173 C1176 1.526 . S
C1174 H1158 0.959 . S
C1174 H1159 0.959 . S
C1174 H1160 0.961 . S
C1174 C1173 1.502 . S
C1175 H1161 0.960 . S
C1175 H1162 0.961 . S
C1175 H1163 0.959 . S
C1175 C1173 1.561 . S
C1176 C1173 1.526 . S
C1176 C1177 1.396 . S
C1176 C1181 1.390 . S
C1177 C1171 1.465 . S
C1177 C1176 1.396 . S
C1177 C1178 1.399 . S
C1178 H1164 0.929 . S
C1178 C1177 1.399 . S
C1178 C1179 1.385 . S
C1179 H1165 0.931 . S
C1179 C1178 1.385 . S
C1179 C1180 1.389 . S
C1180 C1179 1.389 . S
C1180 C1181 1.387 . S
C1181 H1166 0.930 . S
C1181 C1176 1.390 . S
C1181 C1180 1.387 . S
H1182 C1194 0.930 . S
H1183 C1196 0.930 . S
H1184 C1197 0.930 . S
H1185 C1201 0.959 . S
H1186 C1201 0.959 . S
H1187 C1201 0.961 . S
H1188 C1202 0.960 . S
H1189 C1202 0.961 1_455 S
H1190 C1202 0.959 . S
H1191 C1205 0.929 . S
H1192 C1206 0.931 . S
H1193 C1208 0.930 . S
C1194 H1182 0.930 . S
C1194 C1195 1.399 . S
C1194 C1199 1.399 . S
C1195 C1194 1.399 . S
C1195 C1196 1.376 . S
C1196 H1183 0.930 . S
C1196 C1195 1.376 . S
C1196 C1197 1.388 . S
C1197 H1184 0.930 . S
C1197 C1196 1.388 . S
C1197 C1198 1.390 . S
C1198 C1197 1.390 . S
C1198 C1199 1.394 . S
C1198 C1204 1.465 1_655 S
C1199 C1194 1.399 . S
C1199 C1198 1.394 . S
C1199 C1200 1.516 1_655 S
C1200 C1199 1.516 1_455 S
C1200 C1201 1.502 . S
C1200 C1202 1.561 1_455 S
C1200 C1203 1.526 . S
C1201 H1185 0.959 . S
C1201 H1186 0.959 . S
C1201 H1187 0.961 . S
C1201 C1200 1.502 . S
C1202 H1188 0.960 . S
C1202 H1189 0.961 1_655 S
C1202 H1190 0.959 . S
C1202 C1200 1.561 1_655 S
C1203 C1200 1.526 . S
C1203 C1204 1.396 . S
C1203 C1208 1.390 . S
C1204 C1198 1.465 1_455 S
C1204 C1203 1.396 . S
C1204 C1205 1.399 . S
C1205 H1191 0.929 . S
C1205 C1204 1.399 . S
C1205 C1206 1.385 . S
C1206 H1192 0.931 . S
C1206 C1205 1.385 . S
C1206 C1207 1.389 . S
C1207 C1206 1.389 . S
C1207 C1208 1.387 . S
C1208 H1193 0.930 . S
C1208 C1203 1.390 . S
C1208 C1207 1.387 . S
H1209 C1221 0.930 . S
H1210 C1223 0.930 . S
H1211 C1224 0.930 . S
H1212 C1228 0.959 . S
H1213 C1228 0.959 . S
H1214 C1228 0.961 . S
H1215 C1229 0.960 . S
H1216 C1229 0.961 . S
H1217 C1229 0.959 . S
H1218 C1232 0.929 1_545 S
H1219 C1233 0.931 . S
H1220 C1235 0.930 . S
C1221 H1209 0.930 . S
C1221 C1222 1.399 . S
C1221 C1226 1.399 . S
C1222 C1221 1.399 . S
C1222 C1223 1.376 . S
C1223 H1210 0.930 . S
C1223 C1222 1.376 . S
C1223 C1224 1.388 . S
C1224 H1211 0.930 . S
C1224 C1223 1.388 . S
C1224 C1225 1.390 . S
C1225 C1224 1.390 . S
C1225 C1226 1.394 . S
C1225 C1231 1.465 1_545 S
C1226 C1221 1.399 . S
C1226 C1225 1.394 . S
C1226 C1227 1.516 1_545 S
C1227 C1226 1.516 1_565 S
C1227 C1228 1.502 . S
C1227 C1229 1.561 . S
C1227 C1230 1.526 . S
C1228 H1212 0.959 . S
C1228 H1213 0.959 . S
C1228 H1214 0.961 . S
C1228 C1227 1.502 . S
C1229 H1215 0.960 . S
C1229 H1216 0.961 . S
C1229 H1217 0.959 . S
C1229 C1227 1.561 . S
C1230 C1227 1.526 . S
C1230 C1231 1.396 . S
C1230 C1235 1.390 . S
C1231 C1225 1.465 1_565 S
C1231 C1230 1.396 . S
C1231 C1232 1.399 . S
C1232 H1218 0.929 1_565 S
C1232 C1231 1.399 . S
C1232 C1233 1.385 . S
C1233 H1219 0.931 . S
C1233 C1232 1.385 . S
C1233 C1234 1.389 . S
C1234 C1233 1.389 . S
C1234 C1235 1.387 . S
C1235 H1220 0.930 . S
C1235 C1230 1.390 . S
C1235 C1234 1.387 . S
H1236 C1248 0.930 . S
H1237 C1250 0.930 . S
H1238 C1251 0.930 . S
H1239 C1255 0.959 . S
H1240 C1255 0.959 . S
H1241 C1255 0.961 . S
H1242 C1256 0.960 . S
H1243 C1256 0.961 . S
H1244 C1256 0.959 . S
H1245 C1259 0.929 . S
H1246 C1260 0.931 . S
H1247 C1262 0.930 . S
C1248 H1236 0.930 . S
C1248 C1249 1.399 . S
C1248 C1253 1.399 . S
C1249 C1248 1.399 . S
C1249 C1250 1.376 . S
C1250 H1237 0.930 . S
C1250 C1249 1.376 . S
C1250 C1251 1.388 . S
C1251 H1238 0.930 . S
C1251 C1250 1.388 . S
C1251 C1252 1.390 . S
C1252 C1251 1.390 . S
C1252 C1253 1.394 . S
C1252 C1258 1.465 . S
C1253 C1248 1.399 . S
C1253 C1252 1.394 . S
C1253 C1254 1.516 . S
C1254 C1253 1.516 . S
C1254 C1255 1.502 . S
C1254 C1256 1.561 . S
C1254 C1257 1.526 . S
C1255 H1239 0.959 . S
C1255 H1240 0.959 . S
C1255 H1241 0.961 . S
C1255 C1254 1.502 . S
C1256 H1242 0.960 . S
C1256 H1243 0.961 . S
C1256 H1244 0.959 . S
C1256 C1254 1.561 . S
C1257 C1254 1.526 . S
C1257 C1258 1.396 . S
C1257 C1262 1.390 . S
C1258 C1252 1.465 . S
C1258 C1257 1.396 . S
C1258 C1259 1.399 . S
C1259 H1245 0.929 . S
C1259 C1258 1.399 . S
C1259 C1260 1.385 . S
C1260 H1246 0.931 . S
C1260 C1259 1.385 . S
C1260 C1261 1.389 . S
C1261 C1260 1.389 . S
C1261 C1262 1.387 . S
C1262 H1247 0.930 . S
C1262 C1257 1.390 . S
C1262 C1261 1.387 . S
H1263 C1275 0.930 . S
H1264 C1277 0.930 . S
H1265 C1278 0.930 . S
H1266 C1282 0.959 . S
H1267 C1282 0.959 . S
H1268 C1282 0.961 . S
H1269 C1283 0.960 . S
H1270 C1283 0.961 . S
H1271 C1283 0.959 . S
H1272 C1286 0.929 1_455 S
H1273 C1287 0.931 . S
H1274 C1289 0.930 . S
C1275 H1263 0.930 . S
C1275 C1276 1.399 . S
C1275 C1280 1.399 . S
C1276 C1275 1.399 . S
C1276 C1277 1.376 . S
C1277 H1264 0.930 . S
C1277 C1276 1.376 . S
C1277 C1278 1.388 . S
C1278 H1265 0.930 . S
C1278 C1277 1.388 . S
C1278 C1279 1.390 . S
C1279 C1278 1.390 . S
C1279 C1280 1.394 . S
C1279 C1285 1.465 1_455 S
C1280 C1275 1.399 . S
C1280 C1279 1.394 . S
C1280 C1281 1.516 1_455 S
C1281 C1280 1.516 1_655 S
C1281 C1282 1.502 . S
C1281 C1283 1.561 . S
C1281 C1284 1.526 . S
C1282 H1266 0.959 . S
C1282 H1267 0.959 . S
C1282 H1268 0.961 . S
C1282 C1281 1.502 . S
C1283 H1269 0.960 . S
C1283 H1270 0.961 . S
C1283 H1271 0.959 . S
C1283 C1281 1.561 . S
C1284 C1281 1.526 . S
C1284 C1285 1.396 . S
C1284 C1289 1.390 . S
C1285 C1279 1.465 1_655 S
C1285 C1284 1.396 . S
C1285 C1286 1.399 . S
C1286 H1272 0.929 1_655 S
C1286 C1285 1.399 . S
C1286 C1287 1.385 . S
C1287 H1273 0.931 . S
C1287 C1286 1.385 . S
C1287 C1288 1.389 . S
C1288 C1287 1.389 . S
C1288 C1289 1.387 . S
C1289 H1274 0.930 . S
C1289 C1284 1.390 . S
C1289 C1288 1.387 . S
H1290 C1302 0.930 . S
H1291 C1304 0.930 . S
H1292 C1305 0.930 . S
H1293 C1309 0.959 . S
H1294 C1309 0.959 . S
H1295 C1309 0.961 . S
H1296 C1310 0.960 . S
H1297 C1310 0.961 . S
H1298 C1310 0.959 . S
H1299 C1313 0.929 . S
H1300 C1314 0.931 . S
H1301 C1316 0.930 . S
C1302 H1290 0.930 . S
C1302 C1303 1.399 . S
C1302 C1307 1.399 . S
C1303 C1302 1.399 . S
C1303 C1304 1.376 . S
C1304 H1291 0.930 . S
C1304 C1303 1.376 . S
C1304 C1305 1.388 . S
C1305 H1292 0.930 . S
C1305 C1304 1.388 . S
C1305 C1306 1.390 . S
C1306 C1305 1.390 . S
C1306 C1307 1.394 . S
C1306 C1312 1.465 . S
C1307 C1302 1.399 . S
C1307 C1306 1.394 . S
C1307 C1308 1.516 . S
C1308 C1307 1.516 . S
C1308 C1309 1.502 . S
C1308 C1310 1.561 . S
C1308 C1311 1.526 . S
C1309 H1293 0.959 . S
C1309 H1294 0.959 . S
C1309 H1295 0.961 . S
C1309 C1308 1.502 . S
C1310 H1296 0.960 . S
C1310 H1297 0.961 . S
C1310 H1298 0.959 . S
C1310 C1308 1.561 . S
C1311 C1308 1.526 . S
C1311 C1312 1.396 . S
C1311 C1316 1.390 . S
C1312 C1306 1.465 . S
C1312 C1311 1.396 . S
C1312 C1313 1.399 . S
C1313 H1299 0.929 . S
C1313 C1312 1.399 . S
C1313 C1314 1.385 . S
C1314 H1300 0.931 . S
C1314 C1313 1.385 . S
C1314 C1315 1.389 . S
C1315 C1314 1.389 . S
C1315 C1316 1.387 . S
C1316 H1301 0.930 . S
C1316 C1311 1.390 . S
C1316 C1315 1.387 . S
H1317 C1329 0.930 . S
H1318 C1331 0.930 . S
H1319 C1332 0.930 . S
H1320 C1336 0.959 . S
H1321 C1336 0.959 . S
H1322 C1336 0.961 . S
H1323 C1337 0.960 . S
H1324 C1337 0.961 . S
H1325 C1337 0.959 . S
H1326 C1340 0.929 . S
H1327 C1341 0.931 . S
H1328 C1343 0.930 . S
C1329 H1317 0.930 . S
C1329 C1330 1.399 . S
C1329 C1334 1.399 . S
C1330 C1329 1.399 . S
C1330 C1331 1.376 . S
C1331 H1318 0.930 . S
C1331 C1330 1.376 . S
C1331 C1332 1.388 . S
C1332 H1319 0.930 . S
C1332 C1331 1.388 . S
C1332 C1333 1.390 . S
C1333 C1332 1.390 . S
C1333 C1334 1.394 . S
C1333 C1339 1.465 . S
C1334 C1329 1.399 . S
C1334 C1333 1.394 . S
C1334 C1335 1.516 . S
C1335 C1334 1.516 . S
C1335 C1336 1.502 . S
C1335 C1337 1.561 . S
C1335 C1338 1.526 . S
C1336 H1320 0.959 . S
C1336 H1321 0.959 . S
C1336 H1322 0.961 . S
C1336 C1335 1.502 . S
C1337 H1323 0.960 . S
C1337 H1324 0.961 . S
C1337 H1325 0.959 . S
C1337 C1335 1.561 . S
C1338 C1335 1.526 . S
C1338 C1339 1.396 . S
C1338 C1343 1.390 . S
C1339 C1333 1.465 . S
C1339 C1338 1.396 . S
C1339 C1340 1.399 . S
C1340 H1326 0.929 . S
C1340 C1339 1.399 . S
C1340 C1341 1.385 . S
C1341 H1327 0.931 . S
C1341 C1340 1.385 . S
C1341 C1342 1.389 . S
C1342 C1341 1.389 . S
C1342 C1343 1.387 . S
C1343 H1328 0.930 . S
C1343 C1338 1.390 . S
C1343 C1342 1.387 . S
H1344 C1356 0.930 . S
H1345 C1358 0.930 . S
H1346 C1359 0.930 . S
H1347 C1363 0.959 . S
H1348 C1363 0.959 . S
H1349 C1363 0.961 . S
H1350 C1364 0.960 . S
H1351 C1364 0.961 . S
H1352 C1364 0.959 . S
H1353 C1367 0.929 . S
H1354 C1368 0.931 . S
H1355 C1370 0.930 . S
C1356 H1344 0.930 . S
C1356 C1357 1.399 . S
C1356 C1361 1.399 . S
C1357 C1356 1.399 . S
C1357 C1358 1.376 . S
C1358 H1345 0.930 . S
C1358 C1357 1.376 . S
C1358 C1359 1.388 . S
C1359 H1346 0.930 . S
C1359 C1358 1.388 . S
C1359 C1360 1.390 . S
C1360 C1359 1.390 . S
C1360 C1361 1.394 . S
C1360 C1366 1.465 . S
C1361 C1356 1.399 . S
C1361 C1360 1.394 . S
C1361 C1362 1.516 . S
C1362 C1361 1.516 . S
C1362 C1363 1.502 . S
C1362 C1364 1.561 . S
C1362 C1365 1.526 . S
C1363 H1347 0.959 . S
C1363 H1348 0.959 . S
C1363 H1349 0.961 . S
C1363 C1362 1.502 . S
C1364 H1350 0.960 . S
C1364 H1351 0.961 . S
C1364 H1352 0.959 . S
C1364 C1362 1.561 . S
C1365 C1362 1.526 . S
C1365 C1366 1.396 . S
C1365 C1370 1.390 . S
C1366 C1360 1.465 . S
C1366 C1365 1.396 . S
C1366 C1367 1.399 . S
C1367 H1353 0.929 . S
C1367 C1366 1.399 . S
C1367 C1368 1.385 . S
C1368 H1354 0.931 . S
C1368 C1367 1.385 . S
C1368 C1369 1.389 . S
C1369 C1368 1.389 . S
C1369 C1370 1.387 . S
C1370 H1355 0.930 . S
C1370 C1365 1.390 . S
C1370 C1369 1.387 . S
H1371 C1383 0.930 . S
H1372 C1385 0.930 . S
H1373 C1386 0.930 . S
H1374 C1390 0.959 . S
H1375 C1390 0.959 . S
H1376 C1390 0.961 . S
H1377 C1391 0.960 . S
H1378 C1391 0.961 . S
H1379 C1391 0.959 . S
H1380 C1394 0.929 . S
H1381 C1395 0.931 . S
H1382 C1397 0.930 . S
C1383 H1371 0.930 . S
C1383 C1384 1.399 . S
C1383 C1388 1.399 . S
C1384 C1383 1.399 . S
C1384 C1385 1.376 . S
C1385 H1372 0.930 . S
C1385 C1384 1.376 . S
C1385 C1386 1.388 . S
C1386 H1373 0.930 . S
C1386 C1385 1.388 . S
C1386 C1387 1.390 . S
C1387 C1386 1.390 . S
C1387 C1388 1.394 . S
C1387 C1393 1.465 . S
C1388 C1383 1.399 . S
C1388 C1387 1.394 . S
C1388 C1389 1.516 . S
C1389 C1388 1.516 . S
C1389 C1390 1.502 . S
C1389 C1391 1.561 . S
C1389 C1392 1.526 . S
C1390 H1374 0.959 . S
C1390 H1375 0.959 . S
C1390 H1376 0.961 . S
C1390 C1389 1.502 . S
C1391 H1377 0.960 . S
C1391 H1378 0.961 . S
C1391 H1379 0.959 . S
C1391 C1389 1.561 . S
C1392 C1389 1.526 . S
C1392 C1393 1.396 . S
C1392 C1397 1.390 . S
C1393 C1387 1.465 . S
C1393 C1392 1.396 . S
C1393 C1394 1.399 . S
C1394 H1380 0.929 . S
C1394 C1393 1.399 . S
C1394 C1395 1.385 . S
C1395 H1381 0.931 . S
C1395 C1394 1.385 . S
C1395 C1396 1.389 . S
C1396 C1395 1.389 . S
C1396 C1397 1.387 . S
C1397 H1382 0.930 . S
C1397 C1392 1.390 . S
C1397 C1396 1.387 . S
H1398 C1410 0.930 . S
H1399 C1412 0.930 . S
H1400 C1413 0.930 . S
H1401 C1417 0.959 . S
H1402 C1417 0.959 . S
H1403 C1417 0.961 . S
H1404 C1418 0.960 . S
H1405 C1418 0.961 . S
H1406 C1418 0.959 . S
H1407 C1421 0.929 . S
H1408 C1422 0.931 . S
H1409 C1424 0.930 . S
C1410 H1398 0.930 . S
C1410 C1411 1.399 . S
C1410 C1415 1.399 . S
C1411 C1410 1.399 . S
C1411 C1412 1.376 . S
C1412 H1399 0.930 . S
C1412 C1411 1.376 . S
C1412 C1413 1.388 . S
C1413 H1400 0.930 . S
C1413 C1412 1.388 . S
C1413 C1414 1.390 . S
C1414 C1413 1.390 . S
C1414 C1415 1.394 . S
C1414 C1420 1.465 . S
C1415 C1410 1.399 . S
C1415 C1414 1.394 . S
C1415 C1416 1.516 . S
C1416 C1415 1.516 . S
C1416 C1417 1.502 . S
C1416 C1418 1.561 . S
C1416 C1419 1.526 . S
C1417 H1401 0.959 . S
C1417 H1402 0.959 . S
C1417 H1403 0.961 . S
C1417 C1416 1.502 . S
C1418 H1404 0.960 . S
C1418 H1405 0.961 . S
C1418 H1406 0.959 . S
C1418 C1416 1.561 . S
C1419 C1416 1.526 . S
C1419 C1420 1.396 . S
C1419 C1424 1.390 . S
C1420 C1414 1.465 . S
C1420 C1419 1.396 . S
C1420 C1421 1.399 . S
C1421 H1407 0.929 . S
C1421 C1420 1.399 . S
C1421 C1422 1.385 . S
C1422 H1408 0.931 . S
C1422 C1421 1.385 . S
C1422 C1423 1.389 . S
C1423 C1422 1.389 . S
C1423 C1424 1.387 . S
C1424 H1409 0.930 . S
C1424 C1419 1.390 . S
C1424 C1423 1.387 . S
H1425 C1437 0.930 . S
H1426 C1439 0.930 . S
H1427 C1440 0.930 . S
H1428 C1444 0.959 . S
H1429 C1444 0.959 . S
H1430 C1444 0.961 . S
H1431 C1445 0.960 . S
H1432 C1445 0.961 . S
H1433 C1445 0.959 . S
H1434 C1448 0.929 . S
H1435 C1449 0.931 . S
H1436 C1451 0.930 . S
C1437 H1425 0.930 . S
C1437 C1438 1.399 . S
C1437 C1442 1.399 . S
C1438 C1437 1.399 . S
C1438 C1439 1.376 . S
C1439 H1426 0.930 . S
C1439 C1438 1.376 . S
C1439 C1440 1.388 . S
C1440 H1427 0.930 . S
C1440 C1439 1.388 . S
C1440 C1441 1.390 . S
C1441 C1440 1.390 . S
C1441 C1442 1.394 . S
C1441 C1447 1.465 . S
C1442 C1437 1.399 . S
C1442 C1441 1.394 . S
C1442 C1443 1.516 . S
C1443 C1442 1.516 . S
C1443 C1444 1.502 . S
C1443 C1445 1.561 . S
C1443 C1446 1.526 . S
C1444 H1428 0.959 . S
C1444 H1429 0.959 . S
C1444 H1430 0.961 . S
C1444 C1443 1.502 . S
C1445 H1431 0.960 . S
C1445 H1432 0.961 . S
C1445 H1433 0.959 . S
C1445 C1443 1.561 . S
C1446 C1443 1.526 . S
C1446 C1447 1.396 . S
C1446 C1451 1.390 . S
C1447 C1441 1.465 . S
C1447 C1446 1.396 . S
C1447 C1448 1.399 . S
C1448 H1434 0.929 . S
C1448 C1447 1.399 . S
C1448 C1449 1.385 . S
C1449 H1435 0.931 . S
C1449 C1448 1.385 . S
C1449 C1450 1.389 . S
C1450 C1449 1.389 . S
C1450 C1451 1.387 . S
C1451 H1436 0.930 . S
C1451 C1446 1.390 . S
C1451 C1450 1.387 . S
C493 C9 1.050 . S
C505 C329 1.113 . S
C520 C49 1.088 . S
C532 C369 1.046 . S
C547 C89 1.103 . S
C559 C409 1.148 . S
C574 C449 1.132 . S
C586 C129 1.065 . S
C601 C169 1.045 . S
C613 C249 1.092 . S
C628 C289 1.099 . S
C640 C209 1.148 . S
C655 C415 1.546 . S
C667 C15 1.578 . S
C682 C455 1.577 . S
C694 C55 1.546 . S
C709 C95 1.554 . S
C721 C255 1.609 . S
C736 C295 1.614 . S
C748 C135 1.585 . S
C763 C335 1.608 . S
C775 C175 1.550 . S
C790 C215 1.602 . S
C802 C375 1.546 . S
C817 C299 4.262 . S
C829 C19 4.248 . S
C844 C339 4.257 . S
C856 C59 4.258 . S
C871 C379 4.262 . S
C883 C99 4.248 . S
C898 C139 4.239 . S
C910 C419 4.258 . S
C925 C179 4.259 . S
C937 C459 4.241 . S
C952 C219 4.256 . S
C964 C259 4.259 . S
C979 C18 0.542 . S
C991 C138 0.455 . S
C1006 C58 0.507 . S
C1018 C178 0.618 . S
C1033 C98 0.567 . S
C1045 C218 0.432 . S
C1060 C378 0.504 . S
C1072 C258 0.620 . S
C1087 C298 0.536 . S
C1099 C418 0.460 . S
C1114 C458 0.578 . S
C1126 C338 0.422 . S
C1141 C286 0.695 . S
C1153 C6 0.807 . S
C1168 C326 0.602 . S
C1180 C46 0.742 . S
C1195 C86 0.802 . S
C1207 C366 0.723 . S
C1222 C406 0.713 . S
C1234 C126 0.610 . S
C1249 C446 0.786 . S
C1261 C166 0.617 . S
C1276 C206 0.785 . S
C1288 C246 0.615 . S
C1303 C10 4.701 . S
C1315 C410 4.700 . S
C1330 C50 4.700 . S
C1342 C450 4.703 1_556 S
C1357 C90 4.699 1_554 S
C1369 C250 4.701 . S
C1384 C130 4.705 . S
C1396 C290 4.707 . S
C1411 C170 4.701 . S
C1423 C330 4.705 1_556 S
C1438 C370 4.706 . S
C1450 C210 4.705 1_554 S
