# Generated by pormake.
# Topology wfa, (4)-cn, num edge types: 1
# Building blocks:
#     Node 0, Type 0, BuildingBlock: QUQFOY_clean_sbu_1, # of connection points: 4
#     Node 1, Type 0, BuildingBlock: QUQFOY_clean_sbu_1, # of connection points: 4
#     Node 2, Type 0, BuildingBlock: QUQFOY_clean_sbu_1, # of connection points: 4
#     Node 3, Type 0, BuildingBlock: QUQFOY_clean_sbu_1, # of connection points: 4
#     Node 4, Type 0, BuildingBlock: QUQFOY_clean_sbu_1, # of connection points: 4
#     Node 5, Type 0, BuildingBlock: QUQFOY_clean_sbu_1, # of connection points: 4
#     Node 6, Type 0, BuildingBlock: QUQFOY_clean_sbu_1, # of connection points: 4
#     Node 7, Type 0, BuildingBlock: QUQFOY_clean_sbu_1, # of connection points: 4
#     Node 8, Type 0, BuildingBlock: QUQFOY_clean_sbu_1, # of connection points: 4
#     Node 9, Type 0, BuildingBlock: QUQFOY_clean_sbu_1, # of connection points: 4
#     Node 10, Type 0, BuildingBlock: QUQFOY_clean_sbu_1, # of connection points: 4
#     Node 11, Type 0, BuildingBlock: QUQFOY_clean_sbu_1, # of connection points: 4
#     Node 12, Type 0, BuildingBlock: QUQFOY_clean_sbu_1, # of connection points: 4
#     Node 13, Type 0, BuildingBlock: QUQFOY_clean_sbu_1, # of connection points: 4
#     Node 14, Type 0, BuildingBlock: QUQFOY_clean_sbu_1, # of connection points: 4
#     Node 15, Type 0, BuildingBlock: QUQFOY_clean_sbu_1, # of connection points: 4
#     Edge 16, Type (0, 0), BuildingBlock: XUDNAN_clean_linker_2, # of connection points: 2
#     Edge 17, Type (0, 0), BuildingBlock: XUDNAN_clean_linker_2, # of connection points: 2
#     Edge 18, Type (0, 0), BuildingBlock: XUDNAN_clean_linker_2, # of connection points: 2
#     Edge 19, Type (0, 0), BuildingBlock: XUDNAN_clean_linker_2, # of connection points: 2
#     Edge 20, Type (0, 0), BuildingBlock: XUDNAN_clean_linker_2, # of connection points: 2
#     Edge 21, Type (0, 0), BuildingBlock: XUDNAN_clean_linker_2, # of connection points: 2
#     Edge 22, Type (0, 0), BuildingBlock: XUDNAN_clean_linker_2, # of connection points: 2
#     Edge 23, Type (0, 0), BuildingBlock: XUDNAN_clean_linker_2, # of connection points: 2
#     Edge 24, Type (0, 0), BuildingBlock: XUDNAN_clean_linker_2, # of connection points: 2
#     Edge 25, Type (0, 0), BuildingBlock: XUDNAN_clean_linker_2, # of connection points: 2
#     Edge 26, Type (0, 0), BuildingBlock: XUDNAN_clean_linker_2, # of connection points: 2
#     Edge 27, Type (0, 0), BuildingBlock: XUDNAN_clean_linker_2, # of connection points: 2
#     Edge 28, Type (0, 0), BuildingBlock: XUDNAN_clean_linker_2, # of connection points: 2
#     Edge 29, Type (0, 0), BuildingBlock: XUDNAN_clean_linker_2, # of connection points: 2
#     Edge 30, Type (0, 0), BuildingBlock: XUDNAN_clean_linker_2, # of connection points: 2
#     Edge 31, Type (0, 0), BuildingBlock: XUDNAN_clean_linker_2, # of connection points: 2
#     Edge 32, Type (0, 0), BuildingBlock: XUDNAN_clean_linker_2, # of connection points: 2
#     Edge 33, Type (0, 0), BuildingBlock: XUDNAN_clean_linker_2, # of connection points: 2
#     Edge 34, Type (0, 0), BuildingBlock: XUDNAN_clean_linker_2, # of connection points: 2
#     Edge 35, Type (0, 0), BuildingBlock: XUDNAN_clean_linker_2, # of connection points: 2
#     Edge 36, Type (0, 0), BuildingBlock: XUDNAN_clean_linker_2, # of connection points: 2
#     Edge 37, Type (0, 0), BuildingBlock: XUDNAN_clean_linker_2, # of connection points: 2
#     Edge 38, Type (0, 0), BuildingBlock: XUDNAN_clean_linker_2, # of connection points: 2
#     Edge 39, Type (0, 0), BuildingBlock: XUDNAN_clean_linker_2, # of connection points: 2
#     Edge 40, Type (0, 0), BuildingBlock: XUDNAN_clean_linker_2, # of connection points: 2
#     Edge 41, Type (0, 0), BuildingBlock: XUDNAN_clean_linker_2, # of connection points: 2
#     Edge 42, Type (0, 0), BuildingBlock: XUDNAN_clean_linker_2, # of connection points: 2
#     Edge 43, Type (0, 0), BuildingBlock: XUDNAN_clean_linker_2, # of connection points: 2
#     Edge 44, Type (0, 0), BuildingBlock: XUDNAN_clean_linker_2, # of connection points: 2
#     Edge 45, Type (0, 0), BuildingBlock: XUDNAN_clean_linker_2, # of connection points: 2
#     Edge 46, Type (0, 0), BuildingBlock: XUDNAN_clean_linker_2, # of connection points: 2
#     Edge 47, Type (0, 0), BuildingBlock: XUDNAN_clean_linker_2, # of connection points: 2
# Relax obj value: 0.081
# Max RMSD: 0.147
# Mean RMSD: 0.147
data_MOF--net-wfa--node1-QUQFOY_clean_sbu_1--edge1-XUDNAN_clean_linker_2
_symmetry_space_group_name_H-M    P1
_symmetry_Int_Tables_number       1
_symmetry_cell_setting            triclinic
loop_
_symmetry_equiv_pos_as_xyz
'x, y, z'
_cell_length_a     51.029477
_cell_length_b     50.875835
_cell_length_c     23.925549
_cell_angle_alpha  90.11998
_cell_angle_beta   90.157568
_cell_angle_gamma 90.181664
loop_
_atom_site_label
_atom_site_type_symbol
_atom_site_fract_x
_atom_site_fract_y
_atom_site_fract_z
_atom_type_partial_charge
O0 O 0.68618 0.02497 0.11929 0.0
Cd1 Cd 0.67627 0.04945 0.05525 0.0
Cd2 Cd 0.62801 0.04648 0.10567 0.0
O3 O 0.64895 0.02538 0.16624 0.0
O4 O 0.70849 0.04731 0.00809 0.0
O5 O 0.66956 0.03474 0.97779 0.0
C6 C 0.69446 0.03679 0.96921 0.0
C7 C 0.58878 0.03347 0.061 0.0
C8 C 0.67305 0.01905 0.16242 0.0
C9 C 0.65471 0.09911 0.10541 0.0
O10 O 0.63376 0.08622 0.11426 0.0
O11 O 0.67419 0.08832 0.08155 0.0
O12 O 0.58903 0.04055 0.11285 0.0
O13 O 0.61106 0.03239 0.03541 0.0
O14 O 0.498 0.68284 0.162 0.0
Cd15 Cd 0.48152 0.68779 0.08206 0.0
Cd16 Cd 0.48778 0.6191 0.13604 0.0
O17 O 0.50526 0.64261 0.19759 0.0
O18 O 0.48641 0.72499 0.0582 0.0
O19 O 0.5039 0.69102 0.01357 0.0
C20 C 0.50075 0.71617 0.01789 0.0
C21 C 0.49033 0.57362 0.12529 0.0
C22 C 0.50616 0.66779 0.20126 0.0
C23 C 0.44452 0.651 0.08903 0.0
O24 O 0.46683 0.64074 0.08104 0.0
O25 O 0.44277 0.67496 0.07574 0.0
O26 O 0.47286 0.58405 0.15758 0.0
O27 O 0.50696 0.58908 0.10097 0.0
O28 O 0.82848 0.52138 0.14229 0.0
Cd29 Cd 0.83414 0.50102 0.06988 0.0
Cd30 Cd 0.88604 0.50557 0.10303 0.0
O31 O 0.86957 0.52594 0.16997 0.0
O32 O 0.80009 0.50471 0.02957 0.0
O33 O 0.83753 0.52002 0.99644 0.0
C34 C 0.81243 0.51742 0.99122 0.0
C35 C 0.92545 0.51789 0.0588 0.0
C36 C 0.8451 0.52899 0.17846 0.0
C37 C 0.86053 0.45137 0.10127 0.0
O38 O 0.88073 0.46564 0.10883 0.0
O39 O 0.83919 0.46128 0.08391 0.0
O40 O 0.92521 0.50952 0.10958 0.0
O41 O 0.90311 0.5207 0.03398 0.0
O42 O 0.02008 0.82627 0.09261 0.0
Cd43 Cd 0.04513 0.83683 0.0303 0.0
Cd44 Cd 0.03921 0.88549 0.07898 0.0
O45 O 0.01771 0.86409 0.13791 0.0
O46 O 0.04467 0.80441 0.98278 0.0
O47 O 0.03114 0.84293 0.95219 0.0
C48 C 0.03403 0.81803 0.94357 0.0
C49 C 0.0267 0.92501 0.03527 0.0
C50 C 0.01267 0.83956 0.13455 0.0
C51 C 0.09258 0.86089 0.08486 0.0
O52 O 0.07865 0.88128 0.09185 0.0
O53 O 0.08327 0.84073 0.06007 0.0
O54 O 0.03259 0.92433 0.08773 0.0
O55 O 0.02636 0.90292 0.00838 0.0
O56 O 0.18185 1.00314 0.38353 0.0
Cd57 Cd 0.17562 0.98063 0.45293 0.0
Cd58 Cd 0.12414 0.98432 0.41473 0.0
O59 O 0.14114 1.00802 0.35368 0.0
O60 O 0.21006 0.98314 0.49323 0.0
O61 O 0.17298 0.99715 0.52969 0.0
C62 C 0.19808 0.99456 0.53383 0.0
C63 C 0.08407 0.99346 0.46035 0.0
C64 C 0.16573 1.01143 0.34715 0.0
C65 C 0.152 0.93188 0.405 0.0
O66 O 0.13143 0.94547 0.39743 0.0
O67 O 0.17176 0.94151 0.43038 0.0
O68 O 0.08482 0.9879 0.4078 0.0
O69 O 0.10619 0.995 0.48662 0.0
O70 O 0.50822 0.18309 0.3777 0.0
Cd71 Cd 0.53226 0.18387 0.44619 0.0
Cd72 Cd 0.54048 0.13214 0.41769 0.0
O73 O 0.52169 0.14491 0.34526 0.0
O74 O 0.52422 0.21992 0.47483 0.0
O75 O 0.51919 0.18442 0.52637 0.0
C76 C 0.51701 0.20957 0.52131 0.0
C77 C 0.5299 0.09266 0.46402 0.0
C78 C 0.51006 0.16675 0.33774 0.0
C79 C 0.58682 0.16723 0.41278 0.0
O80 O 0.57921 0.14355 0.4181 0.0
O81 O 0.57105 0.1861 0.42146 0.0
O82 O 0.54092 0.09254 0.4156 0.0
O83 O 0.52403 0.11524 0.48542 0.0
O84 O 0.3344 0.53197 0.38668 0.0
Cd85 Cd 0.33463 0.55066 0.46388 0.0
Cd86 Cd 0.39859 0.54633 0.39575 0.0
O87 O 0.37213 0.53008 0.33824 0.0
O88 O 0.29964 0.54617 0.49918 0.0
O89 O 0.3363 0.52951 0.53416 0.0
C90 C 0.31115 0.53234 0.5372 0.0
C91 C 0.44368 0.54038 0.40246 0.0
C92 C 0.34748 0.52564 0.3432 0.0
C93 C 0.36783 0.58888 0.43921 0.0
O94 O 0.38109 0.56908 0.454 0.0
O95 O 0.34478 0.58991 0.45826 0.0
O96 O 0.43391 0.55823 0.37017 0.0
O97 O 0.42764 0.52487 0.42835 0.0
O98 O 0.01484 0.32734 0.37885 0.0
Cd99 Cd 0.99075 0.34191 0.43982 0.0
Cd100 Cd 1.00803 0.38831 0.38307 0.0
O101 O 0.03301 0.36271 0.34138 0.0
O102 O 0.98576 0.30992 0.48715 0.0
O103 O 1.00519 0.34593 0.51816 0.0
C104 C 0.99841 0.32177 0.52649 0.0
C105 C 0.01766 0.43324 0.40227 0.0
C106 C 0.03044 0.3378 0.34409 0.0
C107 C 0.95145 0.36801 0.36987 0.0
O108 O 0.9705 0.38258 0.35535 0.0
O109 O 0.95379 0.35163 0.40968 0.0
O110 O 0.01603 0.42421 0.35209 0.0
O111 O 0.01539 0.41648 0.44241 0.0
O112 O 0.30053 1.00878 0.88519 0.0
Cd113 Cd 0.30846 0.98468 0.95133 0.0
Cd114 Cd 0.3629 1.0002 0.90341 0.0
O115 O 0.33855 0.02018 0.84726 0.0
O116 O 0.27165 0.97858 0.97709 0.0
O117 O 0.30136 0.99762 0.03049 0.0
C118 C 0.27735 0.99029 0.02321 0.0
C119 C 0.4071 0.01329 0.9205 0.0
C120 C 0.31355 0.02066 0.84781 0.0
C121 C 0.34342 0.94219 0.90712 0.0
O122 O 0.36021 0.96007 0.89718 0.0
O123 O 0.32135 0.94743 0.92901 0.0
O124 O 0.39913 1.0055 0.87217 0.0
O125 O 0.38962 0.01542 0.95911 0.0
O126 O 0.51999 0.29974 0.88201 0.0
Cd127 Cd 0.54446 0.31062 0.94616 0.0
Cd128 Cd 0.51707 0.35698 0.9226 0.0
O129 O 0.4934 0.3336 0.87192 0.0
O130 O 0.55543 0.27538 0.97437 0.0
O131 O 0.53253 0.3033 0.02522 0.0
C132 C 0.54255 0.28016 0.01948 0.0
C133 C 0.50266 0.3935 0.97511 0.0
C134 C 0.50047 0.31045 0.85829 0.0
C135 C 0.57526 0.35118 0.89019 0.0
O136 O 0.55323 0.3627 0.88773 0.0
O137 O 0.57791 0.33029 0.91884 0.0
O138 O 0.50317 0.3939 0.9213 0.0
O139 O 0.50864 0.37169 0.99952 0.0
O140 O 0.21328 0.52221 0.88498 0.0
Cd141 Cd 0.20518 0.54913 0.94577 0.0
Cd142 Cd 0.15204 0.53771 0.90103 0.0
O143 O 0.17415 0.51361 0.84867 0.0
O144 O 0.23938 0.55208 0.98647 0.0
O145 O 0.20327 0.53686 0.02567 0.0
C146 C 0.22808 0.54176 0.02922 0.0
C147 C 0.10726 0.52823 0.91933 0.0
C148 C 0.19893 0.51052 0.8493 0.0
C149 C 0.17619 0.59327 0.89243 0.0
O150 O 0.1574 0.57708 0.88624 0.0
O151 O 0.19754 0.58649 0.91571 0.0
O152 O 0.11562 0.53373 0.87009 0.0
O153 O 0.12456 0.5265 0.95857 0.0
O154 O 1.0094 0.21531 0.88137 0.0
Cd155 Cd 0.98758 0.20238 0.94724 0.0
Cd156 Cd 0.99905 0.15297 0.88931 0.0
O157 O 0.01892 0.17864 0.83567 0.0
O158 O 0.98657 0.23457 0.99538 0.0
O159 O 1.00515 0.19758 0.02243 0.0
C160 C 1.00006 0.22203 0.0322 0.0
C161 C 0.01168 0.10857 0.90372 0.0
C162 C 0.01994 0.20361 0.84035 0.0
C163 C 0.94231 0.17301 0.89866 0.0
O164 O 0.95911 0.15611 0.88335 0.0
O165 O 0.94902 0.19338 0.92618 0.0
O166 O 1.00422 0.11711 0.85568 0.0
O167 O 0.01379 0.12564 0.94351 0.0
O168 O 0.79671 0.02316 0.62135 0.0
Cd169 Cd 0.81372 0.04652 0.56188 0.0
Cd170 Cd 0.85764 0.02122 0.61297 0.0
O171 O 0.82929 0.99839 0.65224 0.0
O172 O 0.7831 0.05531 0.51276 0.0
O173 O 0.81658 0.03144 0.48413 0.0
C174 C 0.79349 0.04085 0.47452 0.0
C175 C 0.90101 1.00718 0.59273 0.0
C176 C 0.80514 1.00476 0.65224 0.0
C177 C 0.84597 0.07992 0.63429 0.0
O178 O 0.8574 0.0584 0.6453 0.0
O179 O 0.82919 0.08127 0.5949 0.0
O180 O 0.89219 1.00849 0.64299 0.0
O181 O 0.88463 1.01199 0.55286 0.0
O182 O 0.51079 0.80756 0.66385 0.0
Cd183 Cd 0.48549 0.81475 0.59852 0.0
Cd184 Cd 0.5046 0.86765 0.63579 0.0
O185 O 0.52991 0.8455 0.68433 0.0
O186 O 0.47892 0.77765 0.57384 0.0
O187 O 0.4963 0.8073 0.5181 0.0
C188 C 0.48926 0.78323 0.52636 0.0
C189 C 0.5146 0.91211 0.61289 0.0
C190 C 0.52695 0.82095 0.69285 0.0
C191 C 0.44745 0.84833 0.65672 0.0
O192 O 0.46682 0.86376 0.66359 0.0
O193 O 0.44919 0.82813 0.62552 0.0
O194 O 0.51144 0.90437 0.6635 0.0
O195 O 0.51359 0.89434 0.57441 0.0
O196 O 0.71772 0.52266 0.64351 0.0
Cd197 Cd 0.70995 0.49607 0.58167 0.0
Cd198 Cd 0.65895 0.51462 0.60929 0.0
O199 O 0.67886 0.53859 0.66607 0.0
O200 O 0.74616 0.48996 0.55371 0.0
O201 O 0.7151 0.50767 0.50166 0.0
C202 C 0.7394 0.50115 0.50768 0.0
C203 C 0.62221 0.5282 0.55725 0.0
C204 C 0.70361 0.53785 0.67268 0.0
C205 C 0.67334 0.45676 0.62973 0.0
O206 O 0.65724 0.47575 0.63171 0.0
O207 O 0.69613 0.4599 0.60927 0.0
O208 O 0.62094 0.52443 0.61041 0.0
O209 O 0.64486 0.52588 0.53373 0.0
O210 O 0.02493 0.71739 0.59319 0.0
Cd211 Cd 0.04944 0.7024 0.53353 0.0
Cd212 Cd 0.02918 0.65759 0.58091 0.0
O213 O 1.00327 0.6823 0.6224 0.0
O214 O 0.05564 0.73376 0.48483 0.0
O215 O 0.03469 0.69818 0.45578 0.0
C216 C 0.04214 0.72208 0.44646 0.0
C217 C 0.02034 0.61809 0.53263 0.0
C218 C 1.00741 0.70703 0.62367 0.0
C219 C 0.08568 0.67351 0.60571 0.0
O220 O 0.06546 0.65991 0.61694 0.0
O221 O 0.08532 0.69033 0.56635 0.0
O222 O 0.01874 0.6194 0.58642 0.0
O223 O 0.02522 0.63968 0.50604 0.0
H224 H 0.58259 0.18573 0.31 0.0
H225 H 0.6388 0.15443 0.42724 0.0
H226 H 0.67054 0.14828 0.35033 0.0
H227 H 0.58835 0.13627 0.2264 0.0
H228 H 0.58252 0.1533 0.16145 0.0
H229 H 0.57036 0.16668 0.22539 0.0
H230 H 0.5948 0.2102 0.20481 0.0
H231 H 0.60769 0.19641 0.1411 0.0
H232 H 0.62969 0.20983 0.19297 0.0
H233 H 0.69132 0.1355 0.26132 0.0
H234 H 0.69493 0.10897 0.17571 0.0
H235 H 0.62155 0.14065 0.11586 0.0
C236 C 0.60232 0.17933 0.31968 0.0
C237 C 0.60887 0.17171 0.37455 0.0
C238 C 0.63396 0.16141 0.38576 0.0
C239 C 0.65204 0.15788 0.34214 0.0
C240 C 0.64435 0.16395 0.28743 0.0
C241 C 0.61978 0.1742 0.27614 0.0
C242 C 0.6128 0.17149 0.21471 0.0
C243 C 0.58704 0.15596 0.20654 0.0
C244 C 0.61117 0.1986 0.18676 0.0
C245 C 0.63628 0.15627 0.19387 0.0
C246 C 0.65503 0.15368 0.23551 0.0
C247 C 0.67709 0.13793 0.22814 0.0
C248 C 0.6791 0.12303 0.17898 0.0
C249 C 0.65861 0.1231 0.13904 0.0
C250 C 0.63775 0.14096 0.14517 0.0
H251 H 0.41355 0.61026 0.40245 0.0
H252 H 0.33409 0.59208 0.3505 0.0
H253 H 0.34446 0.60649 0.25434 0.0
H254 H 0.41954 0.66928 0.31574 0.0
H255 H 0.45359 0.6639 0.30011 0.0
H256 H 0.44028 0.65274 0.36557 0.0
H257 H 0.4561 0.60568 0.34525 0.0
H258 H 0.46967 0.61616 0.27971 0.0
H259 H 0.44637 0.58956 0.28103 0.0
H260 H 0.36487 0.62057 0.16141 0.0
H261 H 0.39298 0.6357 0.08278 0.0
H262 H 0.45741 0.64638 0.19805 0.0
C263 C 0.3983 0.60972 0.37089 0.0
C264 C 0.37301 0.60035 0.38375 0.0
C265 C 0.35348 0.59966 0.34154 0.0
C266 C 0.35926 0.60758 0.28674 0.0
C267 C 0.38453 0.61645 0.27513 0.0
C268 C 0.40362 0.61795 0.3163 0.0
C269 C 0.42912 0.62857 0.29332 0.0
C270 C 0.43603 0.6552 0.3203 0.0
C271 C 0.45161 0.60878 0.30029 0.0
C272 C 0.4217 0.6318 0.23255 0.0
C273 C 0.39594 0.62487 0.22257 0.0
C274 C 0.38508 0.62607 0.16891 0.0
C275 C 0.40111 0.63457 0.12457 0.0
C276 C 0.42759 0.64142 0.13444 0.0
C277 C 0.43768 0.64032 0.1891 0.0
H278 H 0.89809 0.41455 0.09044 0.0
H279 H 0.82544 0.43163 0.17507 0.0
H280 H 0.83691 0.40014 0.2493 0.0
H281 H 0.90395 0.34116 0.14632 0.0
H282 H 0.93893 0.34546 0.15088 0.0
H283 H 0.92084 0.36066 0.09481 0.0
H284 H 0.94039 0.40579 0.12224 0.0
H285 H 0.95824 0.39116 0.17837 0.0
H286 H 0.93608 0.41789 0.19257 0.0
H287 H 0.86292 0.38068 0.32791 0.0
H288 H 0.89866 0.37133 0.39578 0.0
H289 H 0.95349 0.36499 0.25893 0.0
C290 C 0.88384 0.41007 0.12253 0.0
C291 C 0.86088 0.42513 0.12694 0.0
C292 C 0.84288 0.41973 0.17031 0.0
C293 C 0.84937 0.40198 0.21298 0.0
C294 C 0.87351 0.38921 0.2105 0.0
C295 C 0.89002 0.39222 0.16494 0.0
C296 C 0.91654 0.38007 0.17595 0.0
C297 C 0.92027 0.35537 0.13984 0.0
C298 C 0.93908 0.39993 0.16683 0.0
C299 C 0.91353 0.37289 0.23686 0.0
C300 C 0.88837 0.37736 0.25592 0.0
C301 C 0.88238 0.37608 0.31301 0.0
C302 C 0.90272 0.37085 0.35139 0.0
C303 C 0.92861 0.36747 0.33216 0.0
C304 C 0.93368 0.36735 0.2743 0.0
H305 H 0.13127 0.8969 0.10107 0.0
H306 H 0.10308 0.82102 0.15578 0.0
H307 H 0.12657 0.82649 0.24499 0.0
H308 H 0.19796 0.8943 0.18748 0.0
H309 H 0.19531 0.92919 0.19951 0.0
H310 H 0.18445 0.91523 0.13404 0.0
H311 H 0.13908 0.9367 0.14855 0.0
H312 H 0.14951 0.95013 0.21405 0.0
H313 H 0.12079 0.92942 0.21111 0.0
H314 H 0.13709 0.84744 0.33649 0.0
H315 H 0.14138 0.8788 0.41569 0.0
H316 H 0.16832 0.93871 0.30157 0.0
C317 C 0.13181 0.88067 0.13024 0.0
C318 C 0.11574 0.85846 0.12139 0.0
C319 C 0.11586 0.83789 0.16112 0.0
C320 C 0.129 0.84097 0.21231 0.0
C321 C 0.14283 0.86423 0.22208 0.0
C322 C 0.14539 0.88326 0.18098 0.0
C323 C 0.158 0.90799 0.2042 0.0
C324 C 0.18557 0.91189 0.17987 0.0
C325 C 0.1408 0.93244 0.19392 0.0
C326 C 0.15938 0.901 0.26561 0.0
C327 C 0.15092 0.87555 0.27533 0.0
C328 C 0.1452 0.86683 0.3295 0.0
C329 C 0.14765 0.88467 0.37434 0.0
C330 C 0.15618 0.91063 0.3645 0.0
C331 C 0.16303 0.91845 0.31 0.0
H332 H 0.3882 0.91521 0.91899 0.0
H333 H 0.31254 0.91276 0.83759 0.0
H334 H 0.32926 0.87984 0.7703 0.0
H335 H 0.42306 0.91911 0.80702 0.0
H336 H 0.45054 0.89921 0.82795 0.0
H337 H 0.43092 0.91498 0.88002 0.0
H338 H 0.42141 0.8703 0.92766 0.0
H339 H 0.44174 0.85424 0.87646 0.0
H340 H 0.40846 0.84336 0.88689 0.0
H341 H 0.35785 0.85645 0.69794 0.0
H342 H 0.39412 0.84347 0.63412 0.0
H343 H 0.45031 0.86236 0.76417 0.0
C344 C 0.37476 0.90641 0.88918 0.0
C345 C 0.34906 0.91601 0.88393 0.0
C346 C 0.33211 0.905 0.84319 0.0
C347 C 0.34156 0.88646 0.80449 0.0
C348 C 0.3678 0.87884 0.80803 0.0
C349 C 0.38394 0.88801 0.85059 0.0
C350 C 0.41217 0.88049 0.84101 0.0
C351 C 0.43018 0.90489 0.83883 0.0
C352 C 0.42148 0.86092 0.88565 0.0
C353 C 0.40982 0.8674 0.78456 0.0
C354 C 0.38413 0.86591 0.76638 0.0
C355 C 0.37794 0.85692 0.7125 0.0
C356 C 0.39857 0.84967 0.67642 0.0
C357 C 0.42488 0.85216 0.69429 0.0
C358 C 0.4303 0.86039 0.74942 0.0
H359 H 0.62448 0.43696 0.63816 0.0
H360 H 0.70462 0.42269 0.68935 0.0
H361 H 0.68898 0.38953 0.75769 0.0
H362 H 0.59869 0.43836 0.76667 0.0
H363 H 0.56796 0.42273 0.74941 0.0
H364 H 0.58568 0.44035 0.69665 0.0
H365 H 0.5864 0.39899 0.6332 0.0
H366 H 0.56803 0.38129 0.68526 0.0
H367 H 0.59876 0.36843 0.6605 0.0
H368 H 0.66271 0.36266 0.83145 0.0
H369 H 0.62943 0.34452 0.89713 0.0
H370 H 0.56793 0.37926 0.79627 0.0
C371 C 0.63885 0.42611 0.66219 0.0
C372 C 0.66572 0.43217 0.65824 0.0
C373 C 0.68394 0.41793 0.69102 0.0
C374 C 0.67519 0.39921 0.73023 0.0
C375 C 0.64824 0.39482 0.73536 0.0
C376 C 0.63046 0.40763 0.7012 0.0
C377 C 0.60255 0.40195 0.71789 0.0
C378 C 0.58789 0.42735 0.7336 0.0
C379 C 0.58809 0.38675 0.67146 0.0
C380 C 0.60722 0.38487 0.76832 0.0
C381 C 0.63355 0.3804 0.77768 0.0
C382 C 0.64205 0.36586 0.82392 0.0
C383 C 0.62309 0.35573 0.86115 0.0
C384 C 0.59613 0.3608 0.85234 0.0
C385 C 0.58839 0.37531 0.8049 0.0
H386 H 0.08078 0.6722 0.71663 0.0
H387 H 0.13922 0.6713 0.58593 0.0
H388 H 0.17353 0.6614 0.65692 0.0
H389 H 0.1251 0.69716 0.83456 0.0
H390 H 0.1083 0.67615 0.88345 0.0
H391 H 0.09072 0.69026 0.82543 0.0
H392 H 0.07563 0.64366 0.79461 0.0
H393 H 0.09307 0.62963 0.8522 0.0
H394 H 0.09999 0.61874 0.78203 0.0
H395 H 0.19881 0.64227 0.73882 0.0
H396 H 0.21093 0.61322 0.81742 0.0
H397 H 0.13532 0.62656 0.89311 0.0
C398 C 0.10098 0.6707 0.7032 0.0
C399 C 0.10751 0.67236 0.64611 0.0
C400 C 0.13398 0.67028 0.6297 0.0
C401 C 0.15352 0.66477 0.66983 0.0
C402 C 0.14616 0.6621 0.72594 0.0
C403 C 0.12042 0.66535 0.74244 0.0
C404 C 0.11634 0.6576 0.80273 0.0
C405 C 0.10974 0.68174 0.83867 0.0
C406 C 0.09505 0.63613 0.80812 0.0
C407 C 0.14327 0.64731 0.8167 0.0
C408 C 0.16059 0.65099 0.77286 0.0
C409 C 0.18565 0.64002 0.77389 0.0
C410 C 0.19251 0.62373 0.81902 0.0
C411 C 0.17413 0.61815 0.86157 0.0
C412 C 0.14989 0.63123 0.86179 0.0
H413 H 0.91068 0.13088 0.90714 0.0
H414 H 0.91726 0.2073 0.83009 0.0
H415 H 0.88444 0.19424 0.7589 0.0
H416 H 0.91323 0.09646 0.79516 0.0
H417 H 0.8901 0.07086 0.81213 0.0
H418 H 0.90629 0.08853 0.86708 0.0
H419 H 0.86173 0.1021 0.90964 0.0
H420 H 0.84514 0.08374 0.85549 0.0
H421 H 0.83752 0.11793 0.86637 0.0
H422 H 0.86105 0.16837 0.68203 0.0
H423 H 0.84696 0.13383 0.61431 0.0
H424 H 0.85565 0.07513 0.74388 0.0
C425 C 0.90374 0.14539 0.87757 0.0
C426 C 0.9159 0.17019 0.87463 0.0
C427 C 0.90746 0.18848 0.83398 0.0
C428 C 0.88899 0.18109 0.79304 0.0
C429 C 0.87879 0.15559 0.79434 0.0
C430 C 0.88529 0.1383 0.83692 0.0
C431 C 0.87518 0.11091 0.82492 0.0
C432 C 0.89753 0.09054 0.82477 0.0
C433 C 0.8536 0.10323 0.86657 0.0
C434 C 0.86398 0.1149 0.7671 0.0
C435 C 0.86553 0.14081 0.75023 0.0
C436 C 0.85904 0.14818 0.6955 0.0
C437 C 0.85116 0.12851 0.6572 0.0
C438 C 0.85047 0.10187 0.67383 0.0
C439 C 0.85615 0.09536 0.72986 0.0
H440 H 0.7469 0.03435 0.94599 0.0
H441 H 0.67047 0.01526 0.87673 0.0
H442 H 0.69181 0.99721 0.79227 0.0
H443 H 0.77565 0.05581 0.82128 0.0
H444 H 0.80755 0.04252 0.83677 0.0
H445 H 0.78604 0.05169 0.89281 0.0
H446 H 0.78995 1.00464 0.93352 0.0
H447 H 0.81109 0.99523 0.87668 0.0
H448 H 0.78162 0.97672 0.89038 0.0
H449 H 0.72122 0.98598 0.71147 0.0
H450 H 0.75592 0.98505 0.63954 0.0
H451 H 0.81328 1.00865 0.76349 0.0
C452 C 0.73459 0.0262 0.91328 0.0
C453 C 0.70696 0.02626 0.91796 0.0
C454 C 0.69165 0.01546 0.87408 0.0
C455 C 0.70362 1.00498 0.82614 0.0
C456 C 0.73093 1.00513 0.82304 0.0
C457 C 0.74621 0.0155 0.86548 0.0
C458 C 0.77504 0.01493 0.85051 0.0
C459 C 0.78674 0.04289 0.8503 0.0
C460 C 0.79032 0.99679 0.89014 0.0
C461 C 0.7736 1.00342 0.79212 0.0
C462 C 0.74799 0.99761 0.77725 0.0
C463 C 0.7414 0.98973 0.72313 0.0
C464 C 0.76124 0.98899 0.68263 0.0
C465 C 0.78736 0.99575 0.69662 0.0
C466 C 0.79372 1.00204 0.7525 0.0
H467 H 0.53144 0.76858 0.71513 0.0
H468 H 0.54269 0.84565 0.78926 0.0
H469 H 0.54387 0.8255 0.88289 0.0
H470 H 0.48737 0.74686 0.80487 0.0
H471 H 0.49789 0.71315 0.80951 0.0
H472 H 0.5051 0.73194 0.748 0.0
H473 H 0.55465 0.72266 0.75946 0.0
H474 H 0.54763 0.70314 0.82047 0.0
H475 H 0.57067 0.73 0.82493 0.0
H476 H 0.53213 0.79902 0.96733 0.0
H477 H 0.5149 0.76724 0.03613 0.0
H478 H 0.5128 0.70683 0.90817 0.0
C479 C 0.53548 0.78108 0.75085 0.0
C480 C 0.53707 0.8087 0.74476 0.0
C481 C 0.54182 0.82444 0.79263 0.0
C482 C 0.54234 0.81314 0.84616 0.0
C483 C 0.53868 0.78604 0.85096 0.0
C484 C 0.53614 0.77008 0.80441 0.0
C485 C 0.52948 0.74205 0.8208 0.0
C486 C 0.50342 0.733 0.79423 0.0
C487 C 0.55196 0.72336 0.80552 0.0
C488 C 0.52704 0.74506 0.88354 0.0
C489 C 0.53265 0.77053 0.9002 0.0
C490 C 0.52856 0.77884 0.95506 0.0
C491 C 0.51855 0.76072 0.99374 0.0
C492 C 0.51288 0.73452 0.97757 0.0
C493 C 0.51763 0.72655 0.92197 0.0
H494 H 0.76031 0.51191 0.96651 0.0
H495 H 0.83186 0.54879 0.90769 0.0
H496 H 0.80766 0.56706 0.82712 0.0
H497 H 0.73835 0.49109 0.83758 0.0
H498 H 0.70408 0.49642 0.85154 0.0
H499 H 0.72624 0.49007 0.90828 0.0
H500 H 0.71147 0.53339 0.95596 0.0
H501 H 0.6896 0.54007 0.89842 0.0
H502 H 0.71404 0.56398 0.91846 0.0
H503 H 0.77764 0.57573 0.74699 0.0
H504 H 0.74564 0.57041 0.6702 0.0
H505 H 0.69297 0.52946 0.78165 0.0
C506 C 0.77082 0.52425 0.93727 0.0
C507 C 0.79798 0.529 0.94351 0.0
C508 C 0.81106 0.5449 0.90383 0.0
C509 C 0.7974 0.55557 0.85822 0.0
C510 C 0.77063 0.55039 0.85316 0.0
C511 C 0.75749 0.53502 0.89158 0.0
C512 C 0.72949 0.52983 0.87336 0.0
C513 C 0.72426 0.50011 0.86729 0.0
C514 C 0.71 0.54259 0.91398 0.0
C515 C 0.72923 0.54361 0.81727 0.0
C516 C 0.753 0.55588 0.807 0.0
C517 C 0.75871 0.56692 0.75515 0.0
C518 C 0.74034 0.56405 0.71187 0.0
C519 C 0.71654 0.55038 0.72079 0.0
C520 C 0.71043 0.54117 0.77475 0.0
H521 H 0.03444 0.76542 0.9188 0.0
H522 H 1.01103 0.84106 0.85198 0.0
H523 H 0.99361 0.8189 0.76751 0.0
H524 H 0.05653 0.73831 0.79278 0.0
H525 H 0.04497 0.70555 0.80761 0.0
H526 H 0.05337 0.72737 0.86409 0.0
H527 H 1.00701 0.72055 0.90579 0.0
H528 H 0.99842 0.69905 0.84857 0.0
H529 H 0.97853 0.72741 0.86358 0.0
H530 H 0.98328 0.78907 0.68641 0.0
H531 H 0.98414 0.7547 0.61327 0.0
H532 H 0.01172 0.69819 0.73463 0.0
C533 C 0.02549 0.77737 0.88662 0.0
C534 C 0.02413 0.80503 0.89204 0.0
C535 C 0.01233 0.81987 0.84879 0.0
C536 C 1.00218 0.80742 0.80086 0.0
C537 C 1.00368 0.78008 0.79707 0.0
C538 C 0.01511 0.76526 0.83879 0.0
C539 C 0.01597 0.73641 0.82298 0.0
C540 C 0.0444 0.72635 0.82178 0.0
C541 C 0.99896 0.71988 0.8626 0.0
C542 C 1.00411 0.73737 0.76489 0.0
C543 C 0.99679 0.76271 0.75101 0.0
C544 C 0.98826 0.76906 0.6973 0.0
C545 C 0.98853 0.74937 0.6561 0.0
C546 C 0.99703 0.72363 0.66892 0.0
C547 C 1.00383 0.71735 0.72451 0.0
H548 H 0.25025 0.98777 0.55793 0.0
H549 H 0.17967 0.02519 0.61961 0.0
H550 H 0.20473 0.04318 0.69963 0.0
H551 H 0.27376 0.96757 0.68857 0.0
H552 H 0.30783 0.97285 0.67219 0.0
H553 H 0.28484 0.96561 0.6172 0.0
H554 H 0.29901 1.00825 0.56619 0.0
H555 H 0.3217 0.01585 0.62187 0.0
H556 H 0.29701 0.03936 0.60215 0.0
H557 H 0.23617 0.05344 0.77718 0.0
H558 H 0.27017 0.05125 0.85064 0.0
H559 H 0.32079 1.00818 0.73837 0.0
C560 C 0.2401 1.00001 0.5879 0.0
C561 C 0.21297 1.00515 0.58234 0.0
C562 C 0.20041 0.02097 0.62292 0.0
C563 C 0.21454 0.03148 0.66827 0.0
C564 C 0.24128 0.02611 0.67236 0.0
C565 C 0.2539 1.01059 0.63345 0.0
C566 C 0.28218 1.0058 0.65013 0.0
C567 C 0.28744 0.97621 0.65749 0.0
C568 C 0.30109 0.01805 0.60754 0.0
C569 C 0.28332 0.02033 0.7055 0.0
C570 C 0.25962 0.03233 0.71701 0.0
C571 C 0.25498 0.04466 0.76809 0.0
C572 C 0.27448 0.04354 0.80944 0.0
C573 C 0.29837 0.03029 0.7995 0.0
C574 C 0.30321 0.01949 0.74611 0.0
H575 H 0.51561 0.19923 0.63398 0.0
H576 H 0.49518 0.25809 0.51067 0.0
H577 H 0.47988 0.2876 0.58568 0.0
H578 H 0.46239 0.21442 0.73681 0.0
H579 H 0.484 0.20955 0.79558 0.0
H580 H 0.48883 0.19111 0.73201 0.0
H581 H 0.53677 0.20794 0.7264 0.0
H582 H 0.53214 0.22606 0.79009 0.0
H583 H 0.54306 0.24283 0.72804 0.0
H584 H 0.47164 0.31275 0.67408 0.0
H585 H 0.47627 0.33295 0.76766 0.0
H586 H 0.50273 0.25826 0.8337 0.0
C587 C 0.50727 0.21805 0.6228 0.0
C588 C 0.50636 0.22629 0.56654 0.0
C589 C 0.49601 0.25136 0.55355 0.0
C590 C 0.48704 0.26818 0.59585 0.0
C591 C 0.48855 0.2597 0.65108 0.0
C592 C 0.49857 0.23526 0.66468 0.0
C593 C 0.50131 0.23226 0.72737 0.0
C594 C 0.48304 0.21054 0.74922 0.0
C595 C 0.53002 0.22698 0.74391 0.0
C596 C 0.49234 0.25916 0.74669 0.0
C597 C 0.48436 0.27448 0.70224 0.0
C598 C 0.4774 0.3008 0.70938 0.0
C599 C 0.4799 0.3121 0.76282 0.0
C600 C 0.48972 0.29716 0.80804 0.0
C601 C 0.49484 0.27009 0.80009 0.0
H602 H 0.25876 0.53804 0.55874 0.0
H603 H 0.32894 0.49937 0.61939 0.0
H604 H 0.30371 0.48077 0.69792 0.0
H605 H 0.23643 0.55816 0.68701 0.0
H606 H 0.20211 0.55354 0.67173 0.0
H607 H 0.2247 0.55985 0.61595 0.0
H608 H 0.20921 0.51709 0.56645 0.0
H609 H 0.18684 0.51047 0.62297 0.0
H610 H 0.2108 0.48623 0.60317 0.0
H611 H 0.27313 0.47232 0.77672 0.0
H612 H 0.24082 0.4777 0.85243 0.0
H613 H 0.18974 0.52014 0.7399 0.0
C614 C 0.26872 0.52519 0.58784 0.0
C615 C 0.29582 0.52008 0.58279 0.0
C616 C 0.30819 0.50353 0.62231 0.0
C617 C 0.29395 0.49268 0.6668 0.0
C618 C 0.2673 0.49833 0.67091 0.0
C619 C 0.25479 0.51422 0.63246 0.0
C620 C 0.22682 0.51981 0.64981 0.0
C621 C 0.22227 0.54959 0.65656 0.0
C622 C 0.20726 0.50767 0.60811 0.0
C623 C 0.22592 0.50569 0.70549 0.0
C624 C 0.2493 0.49292 0.71631 0.0
C625 C 0.25447 0.48153 0.76811 0.0
C626 C 0.23594 0.4845 0.81081 0.0
C627 C 0.21252 0.49863 0.80136 0.0
C628 C 0.20693 0.50819 0.74733 0.0
H629 H 0.98883 0.27007 0.55168 0.0
H630 H 0.02665 0.34045 0.61614 0.0
H631 H 0.04218 0.31538 0.69818 0.0
H632 H 0.9663 0.24608 0.68193 0.0
H633 H 0.97159 0.21203 0.6645 0.0
H634 H 0.96495 0.23542 0.61006 0.0
H635 H 1.00784 0.22156 0.56032 0.0
H636 H 0.01486 0.19851 0.61544 0.0
H637 H 0.03854 0.22347 0.59762 0.0
H638 H 0.05096 0.28344 0.77599 0.0
H639 H 0.04899 0.24832 0.84705 0.0
H640 H 1.00712 0.19821 0.73042 0.0
C641 C 1.00042 0.28026 0.58296 0.0
C642 C 1.0065 0.30729 0.57745 0.0
C643 C 0.02168 0.31981 0.61946 0.0
C644 C 0.03077 0.30566 0.66599 0.0
C645 C 0.02471 0.27896 0.66968 0.0
C646 C 1.00973 0.26642 0.62945 0.0
C647 C 1.00471 0.23795 0.64476 0.0
C648 C 0.97514 0.23257 0.65069 0.0
C649 C 0.01724 0.21927 0.60198 0.0
C650 C 0.01867 0.23652 0.70066 0.0
C651 C 0.03035 0.26033 0.71395 0.0
C652 C 0.04236 0.26458 0.76558 0.0
C653 C 0.04136 0.24446 0.80552 0.0
C654 C 0.02861 0.22033 0.79357 0.0
C655 C 0.01798 0.21602 0.73976 0.0
H656 H 0.21651 0.02379 0.32137 0.0
H657 H 0.13972 1.01231 0.24663 0.0
H658 H 0.16017 1.0092 0.1536 0.0
H659 H 0.24699 0.06056 0.20036 0.0
H660 H 0.27796 0.04439 0.21134 0.0
H661 H 0.25683 0.05111 0.26988 0.0
H662 H 0.25806 1.00181 0.29633 0.0
H663 H 0.27852 0.99472 0.23717 0.0
H664 H 0.24785 0.97753 0.24567 0.0
H665 H 0.18931 0.99875 0.07241 0.0
H666 H 0.22456 0.98782 0.00622 0.0
H667 H 0.28276 1.00646 0.13297 0.0
C668 C 0.20384 0.02182 0.28521 0.0
C669 C 0.17642 0.0185 0.29148 0.0
C670 C 0.16066 0.01538 0.24306 0.0
C671 C 0.17217 0.01334 0.18996 0.0
C672 C 0.1994 0.01492 0.18584 0.0
C673 C 0.21501 0.01976 0.23199 0.0
C674 C 0.24388 0.0183 0.21716 0.0
C675 C 0.2572 0.04519 0.22514 0.0
C676 C 0.25788 0.99681 0.2511 0.0
C677 C 0.24211 1.01095 0.15588 0.0
C678 C 0.21626 1.00917 0.13866 0.0
C679 C 0.20959 1.00069 0.08511 0.0
C680 C 0.22981 0.99428 0.04795 0.0
C681 C 0.25647 0.9964 0.06427 0.0
C682 C 0.26261 1.00494 0.11902 0.0
H683 H 0.49542 0.21634 0.30625 0.0
H684 H 0.51798 0.1405 0.23853 0.0
H685 H 0.52624 0.16126 0.14714 0.0
H686 H 0.46611 0.24381 0.17364 0.0
H687 H 0.4788 0.27609 0.18949 0.0
H688 H 0.46948 0.25428 0.24534 0.0
H689 H 0.51581 0.25966 0.28837 0.0
H690 H 0.52565 0.28072 0.23188 0.0
H691 H 0.54414 0.25144 0.24706 0.0
H692 H 0.54084 0.19153 0.07011 0.0
H693 H 0.55264 0.22779 0.00665 0.0
H694 H 0.52039 0.28406 0.12425 0.0
C695 C 0.50099 0.20379 0.2717 0.0
C696 C 0.50606 0.17669 0.27992 0.0
C697 C 0.51373 0.1612 0.23347 0.0
C698 C 0.51868 0.1729 0.18137 0.0
C699 C 0.51564 0.20003 0.17625 0.0
C700 C 0.50621 0.21517 0.21968 0.0
C701 C 0.50655 0.24416 0.20491 0.0
C702 C 0.47857 0.25523 0.20323 0.0
C703 C 0.52408 0.2599 0.24547 0.0
C704 C 0.51844 0.24308 0.14704 0.0
C705 C 0.52359 0.21744 0.13134 0.0
C706 C 0.5363 0.21161 0.08142 0.0
C707 C 0.54318 0.23242 0.04589 0.0
C708 C 0.53734 0.25882 0.06027 0.0
C709 C 0.52493 0.26411 0.1118 0.0
H710 H 0.35153 0.54248 0.23509 0.0
H711 H 0.30638 0.49184 0.34416 0.0
H712 H 0.27197 0.48795 0.272 0.0
H713 H 0.30084 0.57871 0.18855 0.0
H714 H 0.31087 0.58244 0.1168 0.0
H715 H 0.33505 0.57698 0.17025 0.0
H716 H 0.35259 0.53611 0.11888 0.0
H717 H 0.32926 0.54177 0.06353 0.0
H718 H 0.33022 0.51036 0.09816 0.0
H719 H 0.23933 0.49582 0.1964 0.0
H720 H 0.21266 0.51045 0.11606 0.0
H721 H 0.2787 0.55596 0.05492 0.0
C722 C 0.33508 0.52944 0.24239 0.0
C723 C 0.33181 0.51698 0.29464 0.0
C724 C 0.3094 0.50113 0.30396 0.0
C725 C 0.2897 0.49893 0.26336 0.0
C726 C 0.29273 0.51265 0.2135 0.0
C727 C 0.31509 0.52715 0.20222 0.0
C728 C 0.3123 0.5419 0.14747 0.0
C729 C 0.3149 0.57177 0.15636 0.0
C730 C 0.33228 0.53193 0.10445 0.0
C731 C 0.28457 0.53424 0.13106 0.0
C732 C 0.27371 0.51724 0.16957 0.0
C733 C 0.24778 0.5087 0.16532 0.0
C734 C 0.2327 0.51732 0.11983 0.0
C735 C 0.24358 0.53427 0.07912 0.0
C736 C 0.26986 0.54283 0.08511 0.0
H737 H 0.99798 0.27475 0.05512 0.0
H738 H 0.02617 0.20081 0.12202 0.0
H739 H 0.04441 0.22442 0.20395 0.0
H740 H 0.0535 0.31533 0.10266 0.0
H741 H 0.03294 0.34309 0.11856 0.0
H742 H 0.02382 0.32069 0.06331 0.0
H743 H 0.97879 0.31259 0.11034 0.0
H744 H 0.98766 0.33533 0.16482 0.0
H745 H 0.97775 0.30234 0.1824 0.0
H746 H 0.05516 0.25547 0.28304 0.0
H747 H 0.05504 0.2907 0.3544 0.0
H748 H 0.02269 0.34479 0.23334 0.0
C749 C 1.00811 0.26348 0.08681 0.0
C750 C 1.01057 0.23587 0.08219 0.0
C751 C 0.024 0.22194 0.12465 0.0
C752 C 0.03459 0.23522 0.17113 0.0
C753 C 0.03195 0.26249 0.17416 0.0
C754 C 0.01901 0.27644 0.13307 0.0
C755 C 0.01744 0.3054 0.14769 0.0
C756 C 0.03285 0.32211 0.10554 0.0
C757 C 0.98871 0.31442 0.15157 0.0
C758 C 0.03069 0.30549 0.20444 0.0
C759 C 0.03921 0.28058 0.21872 0.0
C760 C 0.04924 0.27516 0.27173 0.0
C761 C 0.04937 0.29533 0.31188 0.0
C762 C 0.0398 0.32066 0.29867 0.0
C763 C 0.03138 0.326 0.24363 0.0
H764 H 0.67017 0.03944 0.26748 0.0
H765 H 0.71249 0.98326 0.16611 0.0
H766 H 0.74728 0.98107 0.23797 0.0
H767 H 0.72359 0.07572 0.30472 0.0
H768 H 0.71376 0.08332 0.3752 0.0
H769 H 0.68933 0.07653 0.32274 0.0
H770 H 0.66976 0.03917 0.38313 0.0
H771 H 0.69362 0.04635 0.43677 0.0
H772 H 0.69085 0.01351 0.40889 0.0
H773 H 0.78054 0.99021 0.31325 0.0
H774 H 0.80767 1.00621 0.39205 0.0
H775 H 0.74437 0.05764 0.44337 0.0
C776 C 0.68601 0.02556 0.26202 0.0
C777 C 0.68827 1.01088 0.21203 0.0
C778 C 0.71007 0.99408 0.2048 0.0
C779 C 0.73005 0.99293 0.24516 0.0
C780 C 0.72802 1.00883 0.29246 0.0
C781 C 0.70633 0.0245 0.30161 0.0
C782 C 0.71017 0.04163 0.35304 0.0
C783 C 0.70915 0.07103 0.33799 0.0
C784 C 0.6899 0.03474 0.39814 0.0
C785 C 0.73757 0.03353 0.37064 0.0
C786 C 0.74747 0.01454 0.33526 0.0
C787 C 0.77282 1.0048 0.34172 0.0
C788 C 0.78819 0.01419 0.38635 0.0
C789 C 0.77823 0.0332 0.424 0.0
C790 C 0.75262 0.04309 0.41546 0.0
H791 H 0.49913 0.78819 0.41334 0.0
H792 H 0.49053 0.7305 0.54542 0.0
H793 H 0.49965 0.69493 0.47816 0.0
H794 H 0.4663 0.75013 0.30935 0.0
H795 H 0.48697 0.76093 0.25285 0.0
H796 H 0.48199 0.7819 0.31249 0.0
H797 H 0.53228 0.78463 0.32725 0.0
H798 H 0.53733 0.76329 0.26803 0.0
H799 H 0.55086 0.75478 0.33525 0.0
H800 H 0.50842 0.66529 0.39611 0.0
H801 H 0.51058 0.64375 0.30377 0.0
H802 H 0.51209 0.7204 0.22422 0.0
C803 C 0.49939 0.76809 0.42811 0.0
C804 C 0.49423 0.76217 0.48473 0.0
C805 C 0.49436 0.73556 0.50225 0.0
C806 C 0.49974 0.71519 0.46443 0.0
C807 C 0.50482 0.72164 0.40898 0.0
C808 C 0.50437 0.74741 0.39065 0.0
C809 C 0.50841 0.74878 0.32797 0.0
C810 C 0.48449 0.76116 0.29897 0.0
C811 C 0.53373 0.76376 0.31381 0.0
C812 C 0.51084 0.71979 0.31395 0.0
C813 C 0.50919 0.70448 0.36138 0.0
C814 C 0.5099 0.67709 0.35867 0.0
C815 C 0.51131 0.665 0.30591 0.0
C816 C 0.51152 0.68028 0.25643 0.0
C817 C 0.51214 0.70806 0.26104 0.0
H818 H 0.73187 0.51786 0.39932 0.0
H819 H 0.79245 0.50037 0.52125 0.0
H820 H 0.82632 0.51371 0.45372 0.0
H821 H 0.76567 0.4917 0.28389 0.0
H822 H 0.754 0.51594 0.23501 0.0
H823 H 0.73469 0.50778 0.29528 0.0
H824 H 0.73421 0.55702 0.32366 0.0
H825 H 0.75407 0.56517 0.26391 0.0
H826 H 0.76479 0.57434 0.33312 0.0
H827 H 0.85387 0.52624 0.37145 0.0
H828 H 0.87276 0.53039 0.27706 0.0
H829 H 0.79455 0.53962 0.2082 0.0
C830 C 0.75225 0.51706 0.41191 0.0
C831 C 0.75948 0.50814 0.46562 0.0
C832 C 0.7864 0.50705 0.48027 0.0
C833 C 0.80581 0.51488 0.44241 0.0
C834 C 0.79807 0.52376 0.38992 0.0
C835 C 0.77195 0.52459 0.37438 0.0
C836 C 0.76903 0.53242 0.31367 0.0
C837 C 0.75504 0.51066 0.27999 0.0
C838 C 0.75468 0.55881 0.3083 0.0
C839 C 0.79758 0.53506 0.29713 0.0
C840 C 0.81402 0.53061 0.34204 0.0
C841 C 0.84121 0.53006 0.33605 0.0
C842 C 0.85181 0.53267 0.28223 0.0
C843 C 0.83519 0.53536 0.23509 0.0
C844 C 0.80784 0.53786 0.24335 0.0
H845 H 0.03189 0.84479 0.23993 0.0
H846 H 0.97917 0.79789 0.13823 0.0
H847 H 0.97906 0.76326 0.21049 0.0
H848 H 0.07148 0.79449 0.27721 0.0
H849 H 0.07837 0.80497 0.34775 0.0
H850 H 0.06986 0.82884 0.29549 0.0
H851 H 0.03131 0.84557 0.35589 0.0
H852 H 0.04019 0.82236 0.40944 0.0
H853 H 1.00733 0.82251 0.38162 0.0
H854 H 0.99053 0.73085 0.2857 0.0
H855 H 1.00859 0.70504 0.36418 0.0
H856 H 0.05517 0.77247 0.4156 0.0
C857 C 0.01909 0.82795 0.23453 0.0
C858 C 1.00486 0.82435 0.18431 0.0
C859 C 0.98957 0.80131 0.17713 0.0
C860 C 0.98964 0.78143 0.2177 0.0
C861 C 1.00521 0.78482 0.26515 0.0
C862 C 0.0193 0.80772 0.2743 0.0
C863 C 0.03664 0.8053 0.32566 0.0
C864 C 0.0658 0.80859 0.31059 0.0
C865 C 0.02837 0.82511 0.37084 0.0
C866 C 0.03055 0.77731 0.34315 0.0
C867 C 0.01231 0.76588 0.30786 0.0
C868 C 1.00451 0.73975 0.31415 0.0
C869 C 0.01506 0.72515 0.35857 0.0
C870 C 0.03331 0.73666 0.39614 0.0
C871 C 0.04124 0.76305 0.38775 0.0
H872 H 0.43218 0.02533 0.02071 0.0
H873 H 0.44692 1.01014 0.84495 0.0
H874 H 0.49442 1.013 0.86221 0.0
H875 H 0.48604 0.07219 0.0405 0.0
H876 H 0.49367 0.06074 0.10989 0.0
H877 H 0.46063 0.05827 0.08362 0.0
H878 H 0.46071 1.0083 0.10397 0.0
H879 H 0.49384 1.01057 0.12978 0.0
H880 H 0.48595 0.98796 0.07409 0.0
H881 H 0.54054 0.01574 0.89844 0.0
H882 H 0.58207 0.02104 0.95043 0.0
H883 H 0.53831 0.035 0.10296 0.0
C884 C 0.44539 0.02293 0.98575 0.0
C885 C 0.43563 0.01757 0.93134 0.0
C886 C 0.45372 0.01434 0.88695 0.0
C887 C 0.48084 0.01585 0.89634 0.0
C888 C 0.48982 0.0207 0.95042 0.0
C889 C 0.47269 0.02444 0.99437 0.0
C890 C 0.48768 0.02929 0.04848 0.0
C891 C 0.48165 0.05676 0.072 0.0
C892 C 0.48168 1.00774 0.09162 0.0
C893 C 0.51581 0.02754 0.02803 0.0
C894 C 0.51655 0.02247 0.97133 0.0
C895 C 0.54021 0.01981 0.94285 0.0
C896 C 0.56375 0.02276 0.97285 0.0
C897 C 0.56362 0.0284 0.03088 0.0
C898 C 0.53919 0.03062 0.0587 0.0
H899 H 0.51115 0.44405 0.94148 0.0
H900 H 0.48358 0.39817 0.08214 0.0
H901 H 0.47688 0.43925 0.13629 0.0
H902 H 0.54783 0.49024 0.02343 0.0
H903 H 0.54075 0.51773 0.9785 0.0
H904 H 0.54163 0.48495 0.95004 0.0
H905 H 0.49453 0.49062 0.91131 0.0
H906 H 0.49354 0.52347 0.93939 0.0
H907 H 0.46855 0.50001 0.95813 0.0
H908 H 0.47213 0.48624 0.17382 0.0
H909 H 0.47288 0.53409 0.19371 0.0
H910 H 0.50745 0.54831 0.03119 0.0
C911 C 0.50336 0.44264 0.98344 0.0
C912 C 0.49746 0.41792 0.00734 0.0
C913 C 0.48801 0.4169 0.06288 0.0
C914 C 0.48415 0.44014 0.09389 0.0
C915 C 0.49034 0.46421 0.06913 0.0
C916 C 0.50002 0.46553 0.0153 0.0
C917 C 0.50649 0.49361 0.99915 0.0
C918 C 0.53592 0.49681 0.98708 0.0
C919 C 0.48977 0.50244 0.94903 0.0
C920 C 0.49877 0.50801 0.05207 0.0
C921 C 0.48918 0.4908 0.09178 0.0
C922 C 0.47986 0.4998 0.14318 0.0
C923 C 0.48034 0.527 0.15412 0.0
C924 C 0.49055 0.54487 0.11435 0.0
C925 C 0.49998 0.5351 0.06286 0.0
H926 H 0.97566 0.51426 0.101 0.0
H927 H 0.93236 0.53065 0.94861 0.0
H928 H 0.97403 0.53408 0.89687 0.0
H929 H 0.03007 0.55885 0.07306 0.0
H930 H 0.05421 0.53726 0.10316 0.0
H931 H 0.021 0.53665 0.12843 0.0
H932 H 0.0185 0.48667 0.10834 0.0
H933 H 0.05161 0.48717 0.08246 0.0
H934 H 0.02546 0.47469 0.039 0.0
H935 H 0.02011 0.53398 0.86076 0.0
H936 H 0.06764 0.53379 0.84362 0.0
H937 H 0.0818 0.51829 0.01954 0.0
C938 C 0.97493 0.51883 0.05684 0.0
C939 C 0.95063 0.52223 0.02891 0.0
C940 C 0.95063 0.52807 0.97105 0.0
C941 C 0.97423 0.52995 0.94122 0.0
C942 C 0.99776 0.52606 0.9698 0.0
C943 C 0.99834 0.5209 0.02642 0.0
C944 C 0.02635 0.51764 0.04703 0.0
C945 C 0.03331 0.53887 0.09049 0.0
C946 C 0.03073 0.48989 0.07059 0.0
C947 C 0.04142 0.52166 0.99305 0.0
C948 C 0.02446 0.52635 0.94904 0.0
C949 C 0.03356 0.53045 0.89496 0.0
C950 C 0.06068 0.5302 0.88564 0.0
C951 C 0.07861 0.526 0.93015 0.0
C952 C 0.0687 0.52147 0.98455 0.0
H953 H 0.02142 0.08231 1.0032 0.0
H954 H 1.00973 0.06955 0.82537 0.0
H955 H 0.01156 0.02169 0.84004 0.0
H956 H 0.06683 0.02766 0.0245 0.0
H957 H 0.05377 0.01946 0.0922 0.0
H958 H 0.05243 0.05286 0.06758 0.0
H959 H 1.0022 0.05311 0.08289 0.0
H960 H 1.00336 0.01961 0.10698 0.0
H961 H 0.9822 0.02833 0.04954 0.0
H962 H 0.01288 0.97501 0.87388 0.0
H963 H 0.01654 0.93281 0.92402 0.0
H964 H 0.02771 0.97512 0.08011 0.0
C965 C 0.01961 0.06946 0.96726 0.0
C966 C 0.01551 0.07986 0.91302 0.0
C967 C 0.01296 0.06223 0.86729 0.0
C968 C 0.01389 0.03492 0.87519 0.0
C969 C 0.01744 0.02532 0.92914 0.0
C970 C 0.02051 0.042 0.9744 0.0
C971 C 0.0239 0.02641 0.02805 0.0
C972 C 0.05084 0.03193 0.05464 0.0
C973 C 1.00159 0.03222 0.06929 0.0
C974 C 0.02215 0.99844 0.00583 0.0
C975 C 0.01833 0.9983 0.94867 0.0
C976 C 0.01596 0.97488 0.91864 0.0
C977 C 0.01797 0.95096 0.94758 0.0
C978 C 0.02236 0.9505 0.00608 0.0
C979 C 0.02425 0.97469 0.03544 0.0
H980 H 0.03436 0.99706 0.41478 0.0
H981 H 0.07595 0.99606 0.57327 0.0
H982 H 0.03374 0.99781 0.62333 0.0
H983 H 0.9837 0.04273 0.45852 0.0
H984 H 0.95822 0.02666 0.4187 0.0
H985 H 0.99171 0.02522 0.39526 0.0
H986 H 0.98912 0.97438 0.3939 0.0
H987 H 0.95571 0.97566 0.41785 0.0
H988 H 0.9797 0.95708 0.45643 0.0
H989 H 0.98711 0.99814 0.65648 0.0
H990 H 0.93949 1.0012 0.671 0.0
H991 H 0.92733 1.00363 0.49138 0.0
C992 C 0.0346 0.99735 0.46003 0.0
C993 C 0.0586 0.99639 0.49006 0.0
C994 C 0.05795 0.99687 0.54925 0.0
C995 C 0.03402 0.99774 0.57811 0.0
C996 C 1.01078 0.99833 0.54731 0.0
C997 C 1.01084 0.99848 0.48959 0.0
C998 C 0.98302 0.99981 0.46672 0.0
C999 C 0.97893 0.02511 0.4328 0.0
C1000 C 0.97651 0.97527 0.43165 0.0
C1001 C 0.96732 1.00027 0.52062 0.0
C1002 C 0.98379 0.99916 0.56652 0.0
C1003 C 0.97406 0.99913 0.62083 0.0
C1004 C 0.94686 1.00077 0.62861 0.0
C1005 C 0.92947 1.00264 0.58242 0.0
C1006 C 0.93998 1.00213 0.52762 0.0
H1007 H 0.52553 0.93616 0.51131 0.0
H1008 H 0.50941 0.95288 0.6859 0.0
H1009 H 0.51067 1.00031 0.66622 0.0
H1010 H 0.57103 0.99082 0.49146 0.0
H1011 H 0.56017 0.99744 0.42115 0.0
H1012 H 0.55809 0.96458 0.4487 0.0
H1013 H 0.50847 0.96341 0.4257 0.0
H1014 H 0.51037 0.99634 0.39848 0.0
H1015 H 0.48742 0.98868 0.45325 0.0
H1016 H 0.5117 0.04601 0.62768 0.0
H1017 H 0.51638 0.08712 0.57395 0.0
H1018 H 0.53367 0.04173 0.42476 0.0
C1019 C 0.52245 0.94981 0.54542 0.0
C1020 C 0.51735 0.94065 0.60022 0.0
C1021 C 0.51343 0.95926 0.64362 0.0
C1022 C 0.514 0.98633 0.63286 0.0
C1023 C 0.51875 0.99471 0.57847 0.0
C1024 C 0.52323 0.97708 0.53551 0.0
C1025 C 0.52832 0.99153 0.48104 0.0
C1026 C 0.55605 0.98575 0.45932 0.0
C1027 C 0.5074 0.98457 0.43703 0.0
C1028 C 0.52582 0.01992 0.50016 0.0
C1029 C 0.52007 0.02125 0.55646 0.0
C1030 C 0.51636 0.04523 0.58361 0.0
C1031 C 0.51895 0.06851 0.55265 0.0
C1032 C 0.52543 0.06775 0.49514 0.0
C1033 C 0.52877 0.04303 0.46868 0.0
H1034 H 0.57182 0.51686 0.58715 0.0
H1035 H 0.61795 0.54963 0.45207 0.0
H1036 H 0.57738 0.55583 0.39636 0.0
H1037 H 0.5276 0.48046 0.49946 0.0
H1038 H 0.49963 0.48582 0.54384 0.0
H1039 H 0.53208 0.48514 0.57359 0.0
H1040 H 0.52486 0.53131 0.61674 0.0
H1041 H 0.49233 0.53205 0.58749 0.0
H1042 H 0.51517 0.55813 0.57219 0.0
H1043 H 0.53088 0.55955 0.35679 0.0
H1044 H 0.48335 0.55864 0.33553 0.0
H1045 H 0.46866 0.52038 0.49423 0.0
C1046 C 0.57341 0.52561 0.54607 0.0
C1047 C 0.59804 0.5331 0.5242 0.0
C1048 C 0.59928 0.54393 0.46978 0.0
C1049 C 0.57634 0.54749 0.43787 0.0
C1050 C 0.55237 0.5397 0.46061 0.0
C1051 C 0.55084 0.5288 0.51336 0.0
C1052 C 0.52292 0.52122 0.52771 0.0
C1053 C 0.52042 0.49139 0.53666 0.0
C1054 C 0.51325 0.5366 0.57907 0.0
C1055 C 0.50883 0.52977 0.47503 0.0
C1056 C 0.52607 0.54058 0.4369 0.0
C1057 C 0.5173 0.55087 0.38617 0.0
C1058 C 0.49027 0.55028 0.37443 0.0
C1059 C 0.47233 0.53913 0.41286 0.0
C1060 C 0.48191 0.52854 0.46349 0.0
H1061 H 0.01432 0.56843 0.57781 0.0
H1062 H 0.02336 0.60925 0.41983 0.0
H1063 H 0.02447 0.56661 0.37048 0.0
H1064 H 0.05737 0.51505 0.54692 0.0
H1065 H 0.03778 0.49047 0.58153 0.0
H1066 H 0.03673 0.52415 0.60482 0.0
H1067 H 0.98636 0.52471 0.5916 0.0
H1068 H 0.98722 0.49095 0.56882 0.0
H1069 H 0.9725 0.51561 0.5249 0.0
H1070 H 0.02595 0.51961 0.3382 0.0
H1071 H 0.02525 0.47162 0.32437 0.0
H1072 H 0.01524 0.46048 0.50291 0.0
C1073 C 0.01623 0.56844 0.53275 0.0
C1074 C 0.01865 0.59236 0.50275 0.0
C1075 C 0.02135 0.59134 0.44384 0.0
C1076 C 0.0221 0.56716 0.4154 0.0
C1077 C 0.0201 0.54401 0.44626 0.0
C1078 C 0.01702 0.54441 0.50359 0.0
C1079 C 0.01546 0.5166 0.5267 0.0
C1080 C 0.03819 0.51126 0.5674 0.0
C1081 C 0.9888 0.51168 0.55465 0.0
C1082 C 0.01824 0.50053 0.47343 0.0
C1083 C 0.02095 0.5168 0.42759 0.0
C1084 C 0.02378 0.5067 0.3738 0.0
C1085 C 0.02343 0.47932 0.36641 0.0
C1086 C 0.02027 0.4621 0.41247 0.0
C1087 C 0.01788 0.473 0.46681 0.0
loop_
_geom_bond_atom_site_label_1
_geom_bond_atom_site_label_2
_geom_bond_distance
_geom_bond_site_symmetry_2
_ccdc_geom_bond_type
O0 Cd1 2.223 . S
O0 C8 1.315 . S
Cd1 O0 2.223 . S
Cd1 O4 2.297 1_554 S
Cd1 O5 2.439 1_554 S
Cd1 O11 2.240 . S
Cd2 O3 2.240 . S
Cd2 O10 2.223 . S
Cd2 O12 2.297 . S
Cd2 O13 2.439 . S
O3 Cd2 2.240 . S
O3 C8 1.279 . S
O4 Cd1 2.297 1_556 S
O4 C6 1.247 . S
O5 Cd1 2.439 1_556 S
O5 C6 1.208 . S
C6 O4 1.247 . S
C6 O5 1.208 . S
C7 O12 1.247 . S
C7 O13 1.208 . S
C8 O0 1.315 . S
C8 O3 1.279 . S
C9 O10 1.315 . S
C9 O11 1.279 . S
O10 Cd2 2.223 . S
O10 C9 1.315 . S
O11 Cd1 2.240 . S
O11 C9 1.279 . S
O12 Cd2 2.297 . S
O12 C7 1.247 . S
O13 Cd2 2.439 . S
O13 C7 1.208 . S
O14 Cd15 2.223 . S
O14 C22 1.315 . S
Cd15 O14 2.223 . S
Cd15 O18 2.297 1_554 S
Cd15 O19 2.439 1_554 S
Cd15 O25 2.240 . S
Cd16 O17 2.240 . S
Cd16 O24 2.223 . S
Cd16 O26 2.297 . S
Cd16 O27 2.439 . S
O17 Cd16 2.240 . S
O17 C22 1.279 . S
O18 Cd15 2.297 1_556 S
O18 C20 1.247 . S
O19 Cd15 2.439 1_556 S
O19 C20 1.208 . S
C20 O18 1.247 . S
C20 O19 1.208 . S
C21 O26 1.247 . S
C21 O27 1.208 . S
C22 O14 1.315 . S
C22 O17 1.279 . S
C23 O24 1.315 . S
C23 O25 1.279 . S
O24 Cd16 2.223 . S
O24 C23 1.315 . S
O25 Cd15 2.240 . S
O25 C23 1.279 . S
O26 Cd16 2.297 . S
O26 C21 1.247 . S
O27 Cd16 2.439 . S
O27 C21 1.208 . S
O28 Cd29 2.223 . S
O28 C36 1.315 . S
Cd29 O28 2.223 . S
Cd29 O32 2.297 1_554 S
Cd29 O33 2.439 1_554 S
Cd29 O39 2.240 . S
Cd30 O31 2.240 . S
Cd30 O38 2.223 . S
Cd30 O40 2.297 . S
Cd30 O41 2.439 . S
O31 Cd30 2.240 . S
O31 C36 1.279 . S
O32 Cd29 2.297 1_556 S
O32 C34 1.247 . S
O33 Cd29 2.439 1_556 S
O33 C34 1.208 . S
C34 O32 1.247 . S
C34 O33 1.208 . S
C35 O40 1.247 . S
C35 O41 1.208 . S
C36 O28 1.315 . S
C36 O31 1.279 . S
C37 O38 1.315 . S
C37 O39 1.279 . S
O38 Cd30 2.223 . S
O38 C37 1.315 . S
O39 Cd29 2.240 . S
O39 C37 1.279 . S
O40 Cd30 2.297 . S
O40 C35 1.247 . S
O41 Cd30 2.439 . S
O41 C35 1.208 . S
O42 Cd43 2.223 . S
O42 C50 1.315 . S
Cd43 O42 2.223 . S
Cd43 O46 2.297 1_554 S
Cd43 O47 2.439 1_554 S
Cd43 O53 2.240 . S
Cd44 O45 2.240 . S
Cd44 O52 2.223 . S
Cd44 O54 2.297 . S
Cd44 O55 2.439 . S
O45 Cd44 2.240 . S
O45 C50 1.279 . S
O46 Cd43 2.297 1_556 S
O46 C48 1.247 . S
O47 Cd43 2.439 1_556 S
O47 C48 1.208 . S
C48 O46 1.247 . S
C48 O47 1.208 . S
C49 O54 1.247 . S
C49 O55 1.208 . S
C50 O42 1.315 . S
C50 O45 1.279 . S
C51 O52 1.315 . S
C51 O53 1.279 . S
O52 Cd44 2.223 . S
O52 C51 1.315 . S
O53 Cd43 2.240 . S
O53 C51 1.279 . S
O54 Cd44 2.297 . S
O54 C49 1.247 . S
O55 Cd44 2.439 . S
O55 C49 1.208 . S
O56 Cd57 2.223 . S
O56 C64 1.315 . S
Cd57 O56 2.223 . S
Cd57 O60 2.297 . S
Cd57 O61 2.439 . S
Cd57 O67 2.240 . S
Cd58 O59 2.240 . S
Cd58 O66 2.223 . S
Cd58 O68 2.297 . S
Cd58 O69 2.439 . S
O59 Cd58 2.240 . S
O59 C64 1.279 . S
O60 Cd57 2.297 . S
O60 C62 1.247 . S
O61 Cd57 2.439 . S
O61 C62 1.208 . S
C62 O60 1.247 . S
C62 O61 1.208 . S
C63 O68 1.247 . S
C63 O69 1.208 . S
C64 O56 1.315 . S
C64 O59 1.279 . S
C65 O66 1.315 . S
C65 O67 1.279 . S
O66 Cd58 2.223 . S
O66 C65 1.315 . S
O67 Cd57 2.240 . S
O67 C65 1.279 . S
O68 Cd58 2.297 . S
O68 C63 1.247 . S
O69 Cd58 2.439 . S
O69 C63 1.208 . S
O70 Cd71 2.223 . S
O70 C78 1.315 . S
Cd71 O70 2.223 . S
Cd71 O74 2.297 . S
Cd71 O75 2.439 . S
Cd71 O81 2.240 . S
Cd72 O73 2.240 . S
Cd72 O80 2.223 . S
Cd72 O82 2.297 . S
Cd72 O83 2.439 . S
O73 Cd72 2.240 . S
O73 C78 1.279 . S
O74 Cd71 2.297 . S
O74 C76 1.247 . S
O75 Cd71 2.439 . S
O75 C76 1.208 . S
C76 O74 1.247 . S
C76 O75 1.208 . S
C77 O82 1.247 . S
C77 O83 1.208 . S
C78 O70 1.315 . S
C78 O73 1.279 . S
C79 O80 1.315 . S
C79 O81 1.279 . S
O80 Cd72 2.223 . S
O80 C79 1.315 . S
O81 Cd71 2.240 . S
O81 C79 1.279 . S
O82 Cd72 2.297 . S
O82 C77 1.247 . S
O83 Cd72 2.439 . S
O83 C77 1.208 . S
O84 Cd85 2.223 . S
O84 C92 1.315 . S
Cd85 O84 2.223 . S
Cd85 O88 2.297 . S
Cd85 O89 2.439 . S
Cd85 O95 2.240 . S
Cd86 O87 2.240 . S
Cd86 O94 2.223 . S
Cd86 O96 2.297 . S
Cd86 O97 2.439 . S
O87 Cd86 2.240 . S
O87 C92 1.279 . S
O88 Cd85 2.297 . S
O88 C90 1.247 . S
O89 Cd85 2.439 . S
O89 C90 1.208 . S
C90 O88 1.247 . S
C90 O89 1.208 . S
C91 O96 1.247 . S
C91 O97 1.208 . S
C92 O84 1.315 . S
C92 O87 1.279 . S
C93 O94 1.315 . S
C93 O95 1.279 . S
O94 Cd86 2.223 . S
O94 C93 1.315 . S
O95 Cd85 2.240 . S
O95 C93 1.279 . S
O96 Cd86 2.297 . S
O96 C91 1.247 . S
O97 Cd86 2.439 . S
O97 C91 1.208 . S
O98 Cd99 2.223 . S
O98 C106 1.315 . S
Cd99 O98 2.223 . S
Cd99 O102 2.297 . S
Cd99 O103 2.439 . S
Cd99 O109 2.240 . S
Cd100 O101 2.240 . S
Cd100 O108 2.223 . S
Cd100 O110 2.297 . S
Cd100 O111 2.439 . S
O101 Cd100 2.240 . S
O101 C106 1.279 . S
O102 Cd99 2.297 . S
O102 C104 1.247 . S
O103 Cd99 2.439 . S
O103 C104 1.208 . S
C104 O102 1.247 . S
C104 O103 1.208 . S
C105 O110 1.247 . S
C105 O111 1.208 . S
C106 O98 1.315 . S
C106 O101 1.279 . S
C107 O108 1.315 . S
C107 O109 1.279 . S
O108 Cd100 2.223 . S
O108 C107 1.315 . S
O109 Cd99 2.240 . S
O109 C107 1.279 . S
O110 Cd100 2.297 . S
O110 C105 1.247 . S
O111 Cd100 2.439 . S
O111 C105 1.208 . S
O112 Cd113 2.223 . S
O112 C120 1.315 . S
Cd113 O112 2.223 . S
Cd113 O116 2.297 1_556 S
Cd113 O117 2.439 1_556 S
Cd113 O123 2.240 . S
Cd114 O115 2.240 . S
Cd114 O122 2.223 . S
Cd114 O124 2.297 . S
Cd114 O125 2.439 . S
O115 Cd114 2.240 . S
O115 C120 1.279 . S
O116 Cd113 2.297 1_554 S
O116 C118 1.247 . S
O117 Cd113 2.439 1_554 S
O117 C118 1.208 . S
C118 O116 1.247 . S
C118 O117 1.208 . S
C119 O124 1.247 . S
C119 O125 1.208 . S
C120 O112 1.315 . S
C120 O115 1.279 . S
C121 O122 1.315 . S
C121 O123 1.279 . S
O122 Cd114 2.223 . S
O122 C121 1.315 . S
O123 Cd113 2.240 . S
O123 C121 1.279 . S
O124 Cd114 2.297 . S
O124 C119 1.247 . S
O125 Cd114 2.439 . S
O125 C119 1.208 . S
O126 Cd127 2.223 . S
O126 C134 1.315 . S
Cd127 O126 2.223 . S
Cd127 O130 2.297 1_556 S
Cd127 O131 2.439 1_556 S
Cd127 O137 2.240 . S
Cd128 O129 2.240 . S
Cd128 O136 2.223 . S
Cd128 O138 2.297 . S
Cd128 O139 2.439 . S
O129 Cd128 2.240 . S
O129 C134 1.279 . S
O130 Cd127 2.297 1_554 S
O130 C132 1.247 . S
O131 Cd127 2.439 1_554 S
O131 C132 1.208 . S
C132 O130 1.247 . S
C132 O131 1.208 . S
C133 O138 1.247 . S
C133 O139 1.208 . S
C134 O126 1.315 . S
C134 O129 1.279 . S
C135 O136 1.315 . S
C135 O137 1.279 . S
O136 Cd128 2.223 . S
O136 C135 1.315 . S
O137 Cd127 2.240 . S
O137 C135 1.279 . S
O138 Cd128 2.297 . S
O138 C133 1.247 . S
O139 Cd128 2.439 . S
O139 C133 1.208 . S
O140 Cd141 2.223 . S
O140 C148 1.315 . S
Cd141 O140 2.223 . S
Cd141 O144 2.297 1_556 S
Cd141 O145 2.439 1_556 S
Cd141 O151 2.240 . S
Cd142 O143 2.240 . S
Cd142 O150 2.223 . S
Cd142 O152 2.297 . S
Cd142 O153 2.439 . S
O143 Cd142 2.240 . S
O143 C148 1.279 . S
O144 Cd141 2.297 1_554 S
O144 C146 1.247 . S
O145 Cd141 2.439 1_554 S
O145 C146 1.208 . S
C146 O144 1.247 . S
C146 O145 1.208 . S
C147 O152 1.247 . S
C147 O153 1.208 . S
C148 O140 1.315 . S
C148 O143 1.279 . S
C149 O150 1.315 . S
C149 O151 1.279 . S
O150 Cd142 2.223 . S
O150 C149 1.315 . S
O151 Cd141 2.240 . S
O151 C149 1.279 . S
O152 Cd142 2.297 . S
O152 C147 1.247 . S
O153 Cd142 2.439 . S
O153 C147 1.208 . S
O154 Cd155 2.223 . S
O154 C162 1.315 . S
Cd155 O154 2.223 . S
Cd155 O158 2.297 1_556 S
Cd155 O159 2.439 1_556 S
Cd155 O165 2.240 . S
Cd156 O157 2.240 . S
Cd156 O164 2.223 . S
Cd156 O166 2.297 . S
Cd156 O167 2.439 . S
O157 Cd156 2.240 . S
O157 C162 1.279 . S
O158 Cd155 2.297 1_554 S
O158 C160 1.247 . S
O159 Cd155 2.439 1_554 S
O159 C160 1.208 . S
C160 O158 1.247 . S
C160 O159 1.208 . S
C161 O166 1.247 . S
C161 O167 1.208 . S
C162 O154 1.315 . S
C162 O157 1.279 . S
C163 O164 1.315 . S
C163 O165 1.279 . S
O164 Cd156 2.223 . S
O164 C163 1.315 . S
O165 Cd155 2.240 . S
O165 C163 1.279 . S
O166 Cd156 2.297 . S
O166 C161 1.247 . S
O167 Cd156 2.439 . S
O167 C161 1.208 . S
O168 Cd169 2.223 . S
O168 C176 1.315 . S
Cd169 O168 2.223 . S
Cd169 O172 2.297 . S
Cd169 O173 2.439 . S
Cd169 O179 2.240 . S
Cd170 O171 2.240 . S
Cd170 O178 2.223 . S
Cd170 O180 2.297 . S
Cd170 O181 2.439 . S
O171 Cd170 2.240 . S
O171 C176 1.279 . S
O172 Cd169 2.297 . S
O172 C174 1.247 . S
O173 Cd169 2.439 . S
O173 C174 1.208 . S
C174 O172 1.247 . S
C174 O173 1.208 . S
C175 O180 1.247 . S
C175 O181 1.208 . S
C176 O168 1.315 . S
C176 O171 1.279 . S
C177 O178 1.315 . S
C177 O179 1.279 . S
O178 Cd170 2.223 . S
O178 C177 1.315 . S
O179 Cd169 2.240 . S
O179 C177 1.279 . S
O180 Cd170 2.297 . S
O180 C175 1.247 . S
O181 Cd170 2.439 . S
O181 C175 1.208 . S
O182 Cd183 2.223 . S
O182 C190 1.315 . S
Cd183 O182 2.223 . S
Cd183 O186 2.297 . S
Cd183 O187 2.439 . S
Cd183 O193 2.240 . S
Cd184 O185 2.240 . S
Cd184 O192 2.223 . S
Cd184 O194 2.297 . S
Cd184 O195 2.439 . S
O185 Cd184 2.240 . S
O185 C190 1.279 . S
O186 Cd183 2.297 . S
O186 C188 1.247 . S
O187 Cd183 2.439 . S
O187 C188 1.208 . S
C188 O186 1.247 . S
C188 O187 1.208 . S
C189 O194 1.247 . S
C189 O195 1.208 . S
C190 O182 1.315 . S
C190 O185 1.279 . S
C191 O192 1.315 . S
C191 O193 1.279 . S
O192 Cd184 2.223 . S
O192 C191 1.315 . S
O193 Cd183 2.240 . S
O193 C191 1.279 . S
O194 Cd184 2.297 . S
O194 C189 1.247 . S
O195 Cd184 2.439 . S
O195 C189 1.208 . S
O196 Cd197 2.223 . S
O196 C204 1.315 . S
Cd197 O196 2.223 . S
Cd197 O200 2.297 . S
Cd197 O201 2.439 . S
Cd197 O207 2.240 . S
Cd198 O199 2.240 . S
Cd198 O206 2.223 . S
Cd198 O208 2.297 . S
Cd198 O209 2.439 . S
O199 Cd198 2.240 . S
O199 C204 1.279 . S
O200 Cd197 2.297 . S
O200 C202 1.247 . S
O201 Cd197 2.439 . S
O201 C202 1.208 . S
C202 O200 1.247 . S
C202 O201 1.208 . S
C203 O208 1.247 . S
C203 O209 1.208 . S
C204 O196 1.315 . S
C204 O199 1.279 . S
C205 O206 1.315 . S
C205 O207 1.279 . S
O206 Cd198 2.223 . S
O206 C205 1.315 . S
O207 Cd197 2.240 . S
O207 C205 1.279 . S
O208 Cd198 2.297 . S
O208 C203 1.247 . S
O209 Cd198 2.439 . S
O209 C203 1.208 . S
O210 Cd211 2.223 . S
O210 C218 1.315 . S
Cd211 O210 2.223 . S
Cd211 O214 2.297 . S
Cd211 O215 2.439 . S
Cd211 O221 2.240 . S
Cd212 O213 2.240 . S
Cd212 O220 2.223 . S
Cd212 O222 2.297 . S
Cd212 O223 2.439 . S
O213 Cd212 2.240 . S
O213 C218 1.279 . S
O214 Cd211 2.297 . S
O214 C216 1.247 . S
O215 Cd211 2.439 . S
O215 C216 1.208 . S
C216 O214 1.247 . S
C216 O215 1.208 . S
C217 O222 1.247 . S
C217 O223 1.208 . S
C218 O210 1.315 . S
C218 O213 1.279 . S
C219 O220 1.315 . S
C219 O221 1.279 . S
O220 Cd212 2.223 . S
O220 C219 1.315 . S
O221 Cd211 2.240 . S
O221 C219 1.279 . S
O222 Cd212 2.297 . S
O222 C217 1.247 . S
O223 Cd212 2.439 . S
O223 C217 1.208 . S
H224 C236 0.930 . S
H225 C238 0.930 . S
H226 C239 0.930 . S
H227 C243 0.959 . S
H228 C243 0.959 . S
H229 C243 0.961 . S
H230 C244 0.960 . S
H231 C244 0.961 . S
H232 C244 0.959 . S
H233 C247 0.929 . S
H234 C248 0.931 . S
H235 C250 0.930 . S
C236 H224 0.930 . S
C236 C237 1.399 . S
C236 C241 1.399 . S
C237 C236 1.399 . S
C237 C238 1.376 . S
C238 H225 0.930 . S
C238 C237 1.376 . S
C238 C239 1.388 . S
C239 H226 0.930 . S
C239 C238 1.388 . S
C239 C240 1.390 . S
C240 C239 1.390 . S
C240 C241 1.394 . S
C240 C246 1.465 . S
C241 C236 1.399 . S
C241 C240 1.394 . S
C241 C242 1.516 . S
C242 C241 1.516 . S
C242 C243 1.502 . S
C242 C244 1.561 . S
C242 C245 1.526 . S
C243 H227 0.959 . S
C243 H228 0.959 . S
C243 H229 0.961 . S
C243 C242 1.502 . S
C244 H230 0.960 . S
C244 H231 0.961 . S
C244 H232 0.959 . S
C244 C242 1.561 . S
C245 C242 1.526 . S
C245 C246 1.396 . S
C245 C250 1.390 . S
C246 C240 1.465 . S
C246 C245 1.396 . S
C246 C247 1.399 . S
C247 H233 0.929 . S
C247 C246 1.399 . S
C247 C248 1.385 . S
C248 H234 0.931 . S
C248 C247 1.385 . S
C248 C249 1.389 . S
C249 C248 1.389 . S
C249 C250 1.387 . S
C250 H235 0.930 . S
C250 C245 1.390 . S
C250 C249 1.387 . S
H251 C263 0.930 . S
H252 C265 0.930 . S
H253 C266 0.930 . S
H254 C270 0.959 . S
H255 C270 0.959 . S
H256 C270 0.961 . S
H257 C271 0.960 . S
H258 C271 0.961 . S
H259 C271 0.959 . S
H260 C274 0.929 . S
H261 C275 0.931 . S
H262 C277 0.930 . S
C263 H251 0.930 . S
C263 C264 1.399 . S
C263 C268 1.399 . S
C264 C263 1.399 . S
C264 C265 1.376 . S
C265 H252 0.930 . S
C265 C264 1.376 . S
C265 C266 1.388 . S
C266 H253 0.930 . S
C266 C265 1.388 . S
C266 C267 1.390 . S
C267 C266 1.390 . S
C267 C268 1.394 . S
C267 C273 1.465 . S
C268 C263 1.399 . S
C268 C267 1.394 . S
C268 C269 1.516 . S
C269 C268 1.516 . S
C269 C270 1.502 . S
C269 C271 1.561 . S
C269 C272 1.526 . S
C270 H254 0.959 . S
C270 H255 0.959 . S
C270 H256 0.961 . S
C270 C269 1.502 . S
C271 H257 0.960 . S
C271 H258 0.961 . S
C271 H259 0.959 . S
C271 C269 1.561 . S
C272 C269 1.526 . S
C272 C273 1.396 . S
C272 C277 1.390 . S
C273 C267 1.465 . S
C273 C272 1.396 . S
C273 C274 1.399 . S
C274 H260 0.929 . S
C274 C273 1.399 . S
C274 C275 1.385 . S
C275 H261 0.931 . S
C275 C274 1.385 . S
C275 C276 1.389 . S
C276 C275 1.389 . S
C276 C277 1.387 . S
C277 H262 0.930 . S
C277 C272 1.390 . S
C277 C276 1.387 . S
H278 C290 0.930 . S
H279 C292 0.930 . S
H280 C293 0.930 . S
H281 C297 0.959 . S
H282 C297 0.959 . S
H283 C297 0.961 . S
H284 C298 0.960 . S
H285 C298 0.961 . S
H286 C298 0.959 . S
H287 C301 0.929 . S
H288 C302 0.931 . S
H289 C304 0.930 . S
C290 H278 0.930 . S
C290 C291 1.399 . S
C290 C295 1.399 . S
C291 C290 1.399 . S
C291 C292 1.376 . S
C292 H279 0.930 . S
C292 C291 1.376 . S
C292 C293 1.388 . S
C293 H280 0.930 . S
C293 C292 1.388 . S
C293 C294 1.390 . S
C294 C293 1.390 . S
C294 C295 1.394 . S
C294 C300 1.465 . S
C295 C290 1.399 . S
C295 C294 1.394 . S
C295 C296 1.516 . S
C296 C295 1.516 . S
C296 C297 1.502 . S
C296 C298 1.561 . S
C296 C299 1.526 . S
C297 H281 0.959 . S
C297 H282 0.959 . S
C297 H283 0.961 . S
C297 C296 1.502 . S
C298 H284 0.960 . S
C298 H285 0.961 . S
C298 H286 0.959 . S
C298 C296 1.561 . S
C299 C296 1.526 . S
C299 C300 1.396 . S
C299 C304 1.390 . S
C300 C294 1.465 . S
C300 C299 1.396 . S
C300 C301 1.399 . S
C301 H287 0.929 . S
C301 C300 1.399 . S
C301 C302 1.385 . S
C302 H288 0.931 . S
C302 C301 1.385 . S
C302 C303 1.389 . S
C303 C302 1.389 . S
C303 C304 1.387 . S
C304 H289 0.930 . S
C304 C299 1.390 . S
C304 C303 1.387 . S
H305 C317 0.930 . S
H306 C319 0.930 . S
H307 C320 0.930 . S
H308 C324 0.959 . S
H309 C324 0.959 . S
H310 C324 0.961 . S
H311 C325 0.960 . S
H312 C325 0.961 . S
H313 C325 0.959 . S
H314 C328 0.929 . S
H315 C329 0.931 . S
H316 C331 0.930 . S
C317 H305 0.930 . S
C317 C318 1.399 . S
C317 C322 1.399 . S
C318 C317 1.399 . S
C318 C319 1.376 . S
C319 H306 0.930 . S
C319 C318 1.376 . S
C319 C320 1.388 . S
C320 H307 0.930 . S
C320 C319 1.388 . S
C320 C321 1.390 . S
C321 C320 1.390 . S
C321 C322 1.394 . S
C321 C327 1.465 . S
C322 C317 1.399 . S
C322 C321 1.394 . S
C322 C323 1.516 . S
C323 C322 1.516 . S
C323 C324 1.502 . S
C323 C325 1.561 . S
C323 C326 1.526 . S
C324 H308 0.959 . S
C324 H309 0.959 . S
C324 H310 0.961 . S
C324 C323 1.502 . S
C325 H311 0.960 . S
C325 H312 0.961 . S
C325 H313 0.959 . S
C325 C323 1.561 . S
C326 C323 1.526 . S
C326 C327 1.396 . S
C326 C331 1.390 . S
C327 C321 1.465 . S
C327 C326 1.396 . S
C327 C328 1.399 . S
C328 H314 0.929 . S
C328 C327 1.399 . S
C328 C329 1.385 . S
C329 H315 0.931 . S
C329 C328 1.385 . S
C329 C330 1.389 . S
C330 C329 1.389 . S
C330 C331 1.387 . S
C331 H316 0.930 . S
C331 C326 1.390 . S
C331 C330 1.387 . S
H332 C344 0.930 . S
H333 C346 0.930 . S
H334 C347 0.930 . S
H335 C351 0.959 . S
H336 C351 0.959 . S
H337 C351 0.961 . S
H338 C352 0.960 . S
H339 C352 0.961 . S
H340 C352 0.959 . S
H341 C355 0.929 . S
H342 C356 0.931 . S
H343 C358 0.930 . S
C344 H332 0.930 . S
C344 C345 1.399 . S
C344 C349 1.399 . S
C345 C344 1.399 . S
C345 C346 1.376 . S
C346 H333 0.930 . S
C346 C345 1.376 . S
C346 C347 1.388 . S
C347 H334 0.930 . S
C347 C346 1.388 . S
C347 C348 1.390 . S
C348 C347 1.390 . S
C348 C349 1.394 . S
C348 C354 1.465 . S
C349 C344 1.399 . S
C349 C348 1.394 . S
C349 C350 1.516 . S
C350 C349 1.516 . S
C350 C351 1.502 . S
C350 C352 1.561 . S
C350 C353 1.526 . S
C351 H335 0.959 . S
C351 H336 0.959 . S
C351 H337 0.961 . S
C351 C350 1.502 . S
C352 H338 0.960 . S
C352 H339 0.961 . S
C352 H340 0.959 . S
C352 C350 1.561 . S
C353 C350 1.526 . S
C353 C354 1.396 . S
C353 C358 1.390 . S
C354 C348 1.465 . S
C354 C353 1.396 . S
C354 C355 1.399 . S
C355 H341 0.929 . S
C355 C354 1.399 . S
C355 C356 1.385 . S
C356 H342 0.931 . S
C356 C355 1.385 . S
C356 C357 1.389 . S
C357 C356 1.389 . S
C357 C358 1.387 . S
C358 H343 0.930 . S
C358 C353 1.390 . S
C358 C357 1.387 . S
H359 C371 0.930 . S
H360 C373 0.930 . S
H361 C374 0.930 . S
H362 C378 0.959 . S
H363 C378 0.959 . S
H364 C378 0.961 . S
H365 C379 0.960 . S
H366 C379 0.961 . S
H367 C379 0.959 . S
H368 C382 0.929 . S
H369 C383 0.931 . S
H370 C385 0.930 . S
C371 H359 0.930 . S
C371 C372 1.399 . S
C371 C376 1.399 . S
C372 C371 1.399 . S
C372 C373 1.376 . S
C373 H360 0.930 . S
C373 C372 1.376 . S
C373 C374 1.388 . S
C374 H361 0.930 . S
C374 C373 1.388 . S
C374 C375 1.390 . S
C375 C374 1.390 . S
C375 C376 1.394 . S
C375 C381 1.465 . S
C376 C371 1.399 . S
C376 C375 1.394 . S
C376 C377 1.516 . S
C377 C376 1.516 . S
C377 C378 1.502 . S
C377 C379 1.561 . S
C377 C380 1.526 . S
C378 H362 0.959 . S
C378 H363 0.959 . S
C378 H364 0.961 . S
C378 C377 1.502 . S
C379 H365 0.960 . S
C379 H366 0.961 . S
C379 H367 0.959 . S
C379 C377 1.561 . S
C380 C377 1.526 . S
C380 C381 1.396 . S
C380 C385 1.390 . S
C381 C375 1.465 . S
C381 C380 1.396 . S
C381 C382 1.399 . S
C382 H368 0.929 . S
C382 C381 1.399 . S
C382 C383 1.385 . S
C383 H369 0.931 . S
C383 C382 1.385 . S
C383 C384 1.389 . S
C384 C383 1.389 . S
C384 C385 1.387 . S
C385 H370 0.930 . S
C385 C380 1.390 . S
C385 C384 1.387 . S
H386 C398 0.930 . S
H387 C400 0.930 . S
H388 C401 0.930 . S
H389 C405 0.959 . S
H390 C405 0.959 . S
H391 C405 0.961 . S
H392 C406 0.960 . S
H393 C406 0.961 . S
H394 C406 0.959 . S
H395 C409 0.929 . S
H396 C410 0.931 . S
H397 C412 0.930 . S
C398 H386 0.930 . S
C398 C399 1.399 . S
C398 C403 1.399 . S
C399 C398 1.399 . S
C399 C400 1.376 . S
C400 H387 0.930 . S
C400 C399 1.376 . S
C400 C401 1.388 . S
C401 H388 0.930 . S
C401 C400 1.388 . S
C401 C402 1.390 . S
C402 C401 1.390 . S
C402 C403 1.394 . S
C402 C408 1.465 . S
C403 C398 1.399 . S
C403 C402 1.394 . S
C403 C404 1.516 . S
C404 C403 1.516 . S
C404 C405 1.502 . S
C404 C406 1.561 . S
C404 C407 1.526 . S
C405 H389 0.959 . S
C405 H390 0.959 . S
C405 H391 0.961 . S
C405 C404 1.502 . S
C406 H392 0.960 . S
C406 H393 0.961 . S
C406 H394 0.959 . S
C406 C404 1.561 . S
C407 C404 1.526 . S
C407 C408 1.396 . S
C407 C412 1.390 . S
C408 C402 1.465 . S
C408 C407 1.396 . S
C408 C409 1.399 . S
C409 H395 0.929 . S
C409 C408 1.399 . S
C409 C410 1.385 . S
C410 H396 0.931 . S
C410 C409 1.385 . S
C410 C411 1.389 . S
C411 C410 1.389 . S
C411 C412 1.387 . S
C412 H397 0.930 . S
C412 C407 1.390 . S
C412 C411 1.387 . S
H413 C425 0.930 . S
H414 C427 0.930 . S
H415 C428 0.930 . S
H416 C432 0.959 . S
H417 C432 0.959 . S
H418 C432 0.961 . S
H419 C433 0.960 . S
H420 C433 0.961 . S
H421 C433 0.959 . S
H422 C436 0.929 . S
H423 C437 0.931 . S
H424 C439 0.930 . S
C425 H413 0.930 . S
C425 C426 1.399 . S
C425 C430 1.399 . S
C426 C425 1.399 . S
C426 C427 1.376 . S
C427 H414 0.930 . S
C427 C426 1.376 . S
C427 C428 1.388 . S
C428 H415 0.930 . S
C428 C427 1.388 . S
C428 C429 1.390 . S
C429 C428 1.390 . S
C429 C430 1.394 . S
C429 C435 1.465 . S
C430 C425 1.399 . S
C430 C429 1.394 . S
C430 C431 1.516 . S
C431 C430 1.516 . S
C431 C432 1.502 . S
C431 C433 1.561 . S
C431 C434 1.526 . S
C432 H416 0.959 . S
C432 H417 0.959 . S
C432 H418 0.961 . S
C432 C431 1.502 . S
C433 H419 0.960 . S
C433 H420 0.961 . S
C433 H421 0.959 . S
C433 C431 1.561 . S
C434 C431 1.526 . S
C434 C435 1.396 . S
C434 C439 1.390 . S
C435 C429 1.465 . S
C435 C434 1.396 . S
C435 C436 1.399 . S
C436 H422 0.929 . S
C436 C435 1.399 . S
C436 C437 1.385 . S
C437 H423 0.931 . S
C437 C436 1.385 . S
C437 C438 1.389 . S
C438 C437 1.389 . S
C438 C439 1.387 . S
C439 H424 0.930 . S
C439 C434 1.390 . S
C439 C438 1.387 . S
H440 C452 0.930 . S
H441 C454 0.930 . S
H442 C455 0.930 . S
H443 C459 0.959 1_545 S
H444 C459 0.959 . S
H445 C459 0.961 . S
H446 C460 0.960 . S
H447 C460 0.961 . S
H448 C460 0.959 . S
H449 C463 0.929 . S
H450 C464 0.931 . S
H451 C466 0.930 1_565 S
C452 H440 0.930 . S
C452 C453 1.399 . S
C452 C457 1.399 . S
C453 C452 1.399 . S
C453 C454 1.376 . S
C454 H441 0.930 . S
C454 C453 1.376 . S
C454 C455 1.388 . S
C455 H442 0.930 . S
C455 C454 1.388 . S
C455 C456 1.390 . S
C456 C455 1.390 . S
C456 C457 1.394 . S
C456 C462 1.465 . S
C457 C452 1.399 . S
C457 C456 1.394 . S
C457 C458 1.536 . S
C458 C457 1.536 . S
C458 C459 1.490 1_545 S
C458 C460 1.539 1_545 S
C458 C461 1.542 . S
C459 H443 0.959 1_565 S
C459 H444 0.959 . S
C459 H445 0.961 . S
C459 C458 1.490 1_565 S
C460 H446 0.960 . S
C460 H447 0.961 . S
C460 H448 0.959 . S
C460 C458 1.539 1_565 S
C461 C458 1.542 . S
C461 C462 1.396 . S
C461 C466 1.390 . S
C462 C456 1.465 . S
C462 C461 1.396 . S
C462 C463 1.399 . S
C463 H449 0.929 . S
C463 C462 1.399 . S
C463 C464 1.385 . S
C464 H450 0.931 . S
C464 C463 1.385 . S
C464 C465 1.389 . S
C465 C464 1.389 . S
C465 C466 1.387 . S
C466 H451 0.930 1_545 S
C466 C461 1.390 . S
C466 C465 1.387 . S
H467 C479 0.930 . S
H468 C481 0.930 . S
H469 C482 0.930 . S
H470 C486 0.959 . S
H471 C486 0.959 . S
H472 C486 0.961 . S
H473 C487 0.960 . S
H474 C487 0.961 . S
H475 C487 0.959 . S
H476 C490 0.929 . S
H477 C491 0.931 . S
H478 C493 0.930 . S
C479 H467 0.930 . S
C479 C480 1.399 . S
C479 C484 1.399 . S
C480 C479 1.399 . S
C480 C481 1.376 . S
C481 H468 0.930 . S
C481 C480 1.376 . S
C481 C482 1.388 . S
C482 H469 0.930 . S
C482 C481 1.388 . S
C482 C483 1.390 . S
C483 C482 1.390 . S
C483 C484 1.394 . S
C483 C489 1.465 . S
C484 C479 1.399 . S
C484 C483 1.394 . S
C484 C485 1.516 . S
C485 C484 1.516 . S
C485 C486 1.502 . S
C485 C487 1.561 . S
C485 C488 1.526 . S
C486 H470 0.959 . S
C486 H471 0.959 . S
C486 H472 0.961 . S
C486 C485 1.502 . S
C487 H473 0.960 . S
C487 H474 0.961 . S
C487 H475 0.959 . S
C487 C485 1.561 . S
C488 C485 1.526 . S
C488 C489 1.396 . S
C488 C493 1.390 . S
C489 C483 1.465 . S
C489 C488 1.396 . S
C489 C490 1.399 . S
C490 H476 0.929 . S
C490 C489 1.399 . S
C490 C491 1.385 . S
C491 H477 0.931 . S
C491 C490 1.385 . S
C491 C492 1.389 . S
C492 C491 1.389 . S
C492 C493 1.387 . S
C493 H478 0.930 . S
C493 C488 1.390 . S
C493 C492 1.387 . S
H494 C506 0.930 . S
H495 C508 0.930 . S
H496 C509 0.930 . S
H497 C513 0.959 . S
H498 C513 0.959 . S
H499 C513 0.961 . S
H500 C514 0.960 . S
H501 C514 0.961 . S
H502 C514 0.959 . S
H503 C517 0.929 . S
H504 C518 0.931 . S
H505 C520 0.930 . S
C506 H494 0.930 . S
C506 C507 1.399 . S
C506 C511 1.399 . S
C507 C506 1.399 . S
C507 C508 1.376 . S
C508 H495 0.930 . S
C508 C507 1.376 . S
C508 C509 1.388 . S
C509 H496 0.930 . S
C509 C508 1.388 . S
C509 C510 1.390 . S
C510 C509 1.390 . S
C510 C511 1.394 . S
C510 C516 1.465 . S
C511 C506 1.399 . S
C511 C510 1.394 . S
C511 C512 1.516 . S
C512 C511 1.516 . S
C512 C513 1.502 . S
C512 C514 1.561 . S
C512 C515 1.526 . S
C513 H497 0.959 . S
C513 H498 0.959 . S
C513 H499 0.961 . S
C513 C512 1.502 . S
C514 H500 0.960 . S
C514 H501 0.961 . S
C514 H502 0.959 . S
C514 C512 1.561 . S
C515 C512 1.526 . S
C515 C516 1.396 . S
C515 C520 1.390 . S
C516 C510 1.465 . S
C516 C515 1.396 . S
C516 C517 1.399 . S
C517 H503 0.929 . S
C517 C516 1.399 . S
C517 C518 1.385 . S
C518 H504 0.931 . S
C518 C517 1.385 . S
C518 C519 1.389 . S
C519 C518 1.389 . S
C519 C520 1.387 . S
C520 H505 0.930 . S
C520 C515 1.390 . S
C520 C519 1.387 . S
H521 C533 0.930 . S
H522 C535 0.947 . S
H523 C536 0.930 1_655 S
H524 C540 0.959 . S
H525 C540 0.959 . S
H526 C540 0.961 . S
H527 C541 0.960 . S
H528 C541 0.961 . S
H529 C541 0.959 . S
H530 C544 0.929 . S
H531 C545 0.931 1_655 S
H532 C547 0.930 . S
C533 H521 0.930 . S
C533 C534 1.399 . S
C533 C538 1.399 . S
C534 C533 1.399 . S
C534 C535 1.376 . S
C535 H522 0.947 . S
C535 C534 1.376 . S
C535 C536 1.388 . S
C536 H523 0.930 1_455 S
C536 C535 1.388 . S
C536 C537 1.390 . S
C537 C536 1.390 . S
C537 C538 1.394 . S
C537 C543 1.465 . S
C538 C533 1.399 . S
C538 C537 1.394 . S
C538 C539 1.516 . S
C539 C538 1.516 . S
C539 C540 1.502 . S
C539 C541 1.561 . S
C539 C542 1.526 . S
C540 H524 0.959 . S
C540 H525 0.959 . S
C540 H526 0.961 . S
C540 C539 1.502 . S
C541 H527 0.960 . S
C541 H528 0.961 . S
C541 H529 0.959 . S
C541 C539 1.561 . S
C542 C539 1.526 . S
C542 C543 1.396 . S
C542 C547 1.390 . S
C543 C537 1.465 . S
C543 C542 1.396 . S
C543 C544 1.399 1_455 S
C544 H530 0.929 . S
C544 C543 1.399 1_655 S
C544 C545 1.385 1_655 S
C545 H531 0.931 1_455 S
C545 C544 1.385 1_455 S
C545 C546 1.389 . S
C546 C545 1.389 . S
C546 C547 1.387 . S
C547 H532 0.930 . S
C547 C542 1.390 . S
C547 C546 1.387 . S
H548 C560 0.930 . S
H549 C562 0.930 1_545 S
H550 C563 0.930 1_545 S
H551 C567 0.959 . S
H552 C567 0.959 . S
H553 C567 0.961 . S
H554 C568 0.960 . S
H555 C568 0.961 . S
H556 C568 0.959 . S
H557 C571 0.929 . S
H558 C572 0.941 . S
H559 C574 0.930 . S
C560 H548 0.930 . S
C560 C561 1.399 . S
C560 C565 1.399 . S
C561 C560 1.399 . S
C561 C562 1.376 . S
C562 H549 0.930 1_565 S
C562 C561 1.376 . S
C562 C563 1.388 . S
C563 H550 0.930 1_565 S
C563 C562 1.388 . S
C563 C564 1.390 . S
C564 C563 1.390 . S
C564 C565 1.394 . S
C564 C570 1.465 . S
C565 C560 1.399 . S
C565 C564 1.394 . S
C565 C566 1.516 . S
C566 C565 1.516 . S
C566 C567 1.502 . S
C566 C568 1.561 . S
C566 C569 1.526 . S
C567 H551 0.959 . S
C567 H552 0.959 . S
C567 H553 0.961 . S
C567 C566 1.502 . S
C568 H554 0.960 . S
C568 H555 0.961 . S
C568 H556 0.959 . S
C568 C566 1.561 . S
C569 C566 1.526 . S
C569 C570 1.396 . S
C569 C574 1.390 . S
C570 C564 1.465 . S
C570 C569 1.396 . S
C570 C571 1.399 1_565 S
C571 H557 0.929 . S
C571 C570 1.399 1_545 S
C571 C572 1.387 . S
C572 H558 0.941 . S
C572 C571 1.387 . S
C572 C573 1.378 1_545 S
C573 C572 1.378 1_565 S
C573 C574 1.387 . S
C574 H559 0.930 . S
C574 C569 1.390 . S
C574 C573 1.387 . S
H575 C587 0.930 . S
H576 C589 0.930 . S
H577 C590 0.930 . S
H578 C594 0.959 . S
H579 C594 0.959 . S
H580 C594 0.961 . S
H581 C595 0.960 . S
H582 C595 0.961 . S
H583 C595 0.959 . S
H584 C598 0.929 . S
H585 C599 0.931 . S
H586 C601 0.930 . S
C587 H575 0.930 . S
C587 C588 1.399 . S
C587 C592 1.399 . S
C588 C587 1.399 . S
C588 C589 1.376 . S
C589 H576 0.930 . S
C589 C588 1.376 . S
C589 C590 1.388 . S
C590 H577 0.930 . S
C590 C589 1.388 . S
C590 C591 1.390 . S
C591 C590 1.390 . S
C591 C592 1.394 . S
C591 C597 1.465 . S
C592 C587 1.399 . S
C592 C591 1.394 . S
C592 C593 1.516 . S
C593 C592 1.516 . S
C593 C594 1.502 . S
C593 C595 1.561 . S
C593 C596 1.526 . S
C594 H578 0.959 . S
C594 H579 0.959 . S
C594 H580 0.961 . S
C594 C593 1.502 . S
C595 H581 0.960 . S
C595 H582 0.961 . S
C595 H583 0.959 . S
C595 C593 1.561 . S
C596 C593 1.526 . S
C596 C597 1.396 . S
C596 C601 1.390 . S
C597 C591 1.465 . S
C597 C596 1.396 . S
C597 C598 1.399 . S
C598 H584 0.929 . S
C598 C597 1.399 . S
C598 C599 1.385 . S
C599 H585 0.931 . S
C599 C598 1.385 . S
C599 C600 1.389 . S
C600 C599 1.389 . S
C600 C601 1.387 . S
C601 H586 0.930 . S
C601 C596 1.390 . S
C601 C600 1.387 . S
H602 C614 0.930 . S
H603 C616 0.930 . S
H604 C617 0.930 . S
H605 C621 0.959 . S
H606 C621 0.959 . S
H607 C621 0.961 . S
H608 C622 0.960 . S
H609 C622 0.961 . S
H610 C622 0.959 . S
H611 C625 0.929 . S
H612 C626 0.931 . S
H613 C628 0.930 . S
C614 H602 0.930 . S
C614 C615 1.399 . S
C614 C619 1.399 . S
C615 C614 1.399 . S
C615 C616 1.376 . S
C616 H603 0.930 . S
C616 C615 1.376 . S
C616 C617 1.388 . S
C617 H604 0.930 . S
C617 C616 1.388 . S
C617 C618 1.390 . S
C618 C617 1.390 . S
C618 C619 1.394 . S
C618 C624 1.465 . S
C619 C614 1.399 . S
C619 C618 1.394 . S
C619 C620 1.516 . S
C620 C619 1.516 . S
C620 C621 1.502 . S
C620 C622 1.561 . S
C620 C623 1.526 . S
C621 H605 0.959 . S
C621 H606 0.959 . S
C621 H607 0.961 . S
C621 C620 1.502 . S
C622 H608 0.960 . S
C622 H609 0.961 . S
C622 H610 0.959 . S
C622 C620 1.561 . S
C623 C620 1.526 . S
C623 C624 1.396 . S
C623 C628 1.390 . S
C624 C618 1.465 . S
C624 C623 1.396 . S
C624 C625 1.399 . S
C625 H611 0.929 . S
C625 C624 1.399 . S
C625 C626 1.385 . S
C626 H612 0.931 . S
C626 C625 1.385 . S
C626 C627 1.389 . S
C627 C626 1.389 . S
C627 C628 1.387 . S
C628 H613 0.930 . S
C628 C623 1.390 . S
C628 C627 1.387 . S
H629 C641 0.930 . S
H630 C643 0.930 . S
H631 C644 0.930 . S
H632 C648 0.959 . S
H633 C648 0.959 . S
H634 C648 0.961 . S
H635 C649 0.960 . S
H636 C649 0.961 . S
H637 C649 0.959 . S
H638 C652 0.929 1_455 S
H639 C653 0.931 1_455 S
H640 C655 0.930 . S
C641 H629 0.930 . S
C641 C642 1.399 . S
C641 C646 1.399 . S
C642 C641 1.399 . S
C642 C643 1.376 . S
C643 H630 0.930 . S
C643 C642 1.376 . S
C643 C644 1.388 . S
C644 H631 0.930 . S
C644 C643 1.388 . S
C644 C645 1.390 . S
C645 C644 1.390 . S
C645 C646 1.394 . S
C645 C651 1.465 . S
C646 C641 1.399 . S
C646 C645 1.394 . S
C646 C647 1.516 . S
C647 C646 1.516 . S
C647 C648 1.502 . S
C647 C649 1.561 . S
C647 C650 1.526 . S
C648 H632 0.959 . S
C648 H633 0.959 . S
C648 H634 0.961 . S
C648 C647 1.502 . S
C649 H635 0.960 . S
C649 H636 0.961 . S
C649 H637 0.959 . S
C649 C647 1.561 . S
C650 C647 1.526 . S
C650 C651 1.396 . S
C650 C655 1.390 . S
C651 C645 1.465 . S
C651 C650 1.396 . S
C651 C652 1.399 . S
C652 H638 0.929 1_655 S
C652 C651 1.399 . S
C652 C653 1.385 . S
C653 H639 0.931 1_655 S
C653 C652 1.385 . S
C653 C654 1.389 . S
C654 C653 1.389 . S
C654 C655 1.387 . S
C655 H640 0.930 . S
C655 C650 1.390 . S
C655 C654 1.387 . S
H656 C668 0.930 1_545 S
H657 C670 0.930 . S
H658 C671 0.930 . S
H659 C675 0.959 . S
H660 C675 0.959 . S
H661 C675 0.961 . S
H662 C676 0.960 1_545 S
H663 C676 0.961 1_545 S
H664 C676 0.959 . S
H665 C679 0.929 . S
H666 C680 0.931 . S
H667 C682 0.930 . S
C668 H656 0.930 1_565 S
C668 C669 1.399 . S
C668 C673 1.399 . S
C669 C668 1.399 . S
C669 C670 1.376 . S
C670 H657 0.930 . S
C670 C669 1.376 . S
C670 C671 1.388 . S
C671 H658 0.930 . S
C671 C670 1.388 . S
C671 C672 1.390 . S
C672 C671 1.390 . S
C672 C673 1.394 . S
C672 C678 1.465 . S
C673 C668 1.399 . S
C673 C672 1.394 . S
C673 C674 1.516 . S
C674 C673 1.516 . S
C674 C675 1.502 1_565 S
C674 C676 1.561 . S
C674 C677 1.526 . S
C675 H659 0.959 . S
C675 H660 0.959 . S
C675 H661 0.961 . S
C675 C674 1.502 1_545 S
C676 H662 0.960 1_565 S
C676 H663 0.961 1_565 S
C676 H664 0.959 . S
C676 C674 1.561 . S
C677 C674 1.526 . S
C677 C678 1.396 . S
C677 C682 1.390 . S
C678 C672 1.465 . S
C678 C677 1.396 . S
C678 C679 1.399 . S
C679 H665 0.929 . S
C679 C678 1.399 . S
C679 C680 1.385 . S
C680 H666 0.931 . S
C680 C679 1.385 . S
C680 C681 1.389 . S
C681 C680 1.389 . S
C681 C682 1.387 . S
C682 H667 0.930 . S
C682 C677 1.390 . S
C682 C681 1.387 . S
H683 C695 0.930 . S
H684 C697 0.930 . S
H685 C698 0.930 . S
H686 C702 0.959 . S
H687 C702 0.959 . S
H688 C702 0.961 . S
H689 C703 0.960 . S
H690 C703 0.961 . S
H691 C703 0.959 . S
H692 C706 0.929 . S
H693 C707 0.931 . S
H694 C709 0.930 . S
C695 H683 0.930 . S
C695 C696 1.399 . S
C695 C700 1.399 . S
C696 C695 1.399 . S
C696 C697 1.376 . S
C697 H684 0.930 . S
C697 C696 1.376 . S
C697 C698 1.388 . S
C698 H685 0.930 . S
C698 C697 1.388 . S
C698 C699 1.390 . S
C699 C698 1.390 . S
C699 C700 1.394 . S
C699 C705 1.465 . S
C700 C695 1.399 . S
C700 C699 1.394 . S
C700 C701 1.516 . S
C701 C700 1.516 . S
C701 C702 1.502 . S
C701 C703 1.561 . S
C701 C704 1.526 . S
C702 H686 0.959 . S
C702 H687 0.959 . S
C702 H688 0.961 . S
C702 C701 1.502 . S
C703 H689 0.960 . S
C703 H690 0.961 . S
C703 H691 0.959 . S
C703 C701 1.561 . S
C704 C701 1.526 . S
C704 C705 1.396 . S
C704 C709 1.390 . S
C705 C699 1.465 . S
C705 C704 1.396 . S
C705 C706 1.399 . S
C706 H692 0.929 . S
C706 C705 1.399 . S
C706 C707 1.385 . S
C707 H693 0.931 . S
C707 C706 1.385 . S
C707 C708 1.389 . S
C708 C707 1.389 . S
C708 C709 1.387 . S
C709 H694 0.930 . S
C709 C704 1.390 . S
C709 C708 1.387 . S
H710 C722 0.930 . S
H711 C724 0.930 . S
H712 C725 0.930 . S
H713 C729 0.959 . S
H714 C729 0.959 . S
H715 C729 0.961 . S
H716 C730 0.960 . S
H717 C730 0.961 . S
H718 C730 0.959 . S
H719 C733 0.929 . S
H720 C734 0.931 . S
H721 C736 0.930 . S
C722 H710 0.930 . S
C722 C723 1.399 . S
C722 C727 1.399 . S
C723 C722 1.399 . S
C723 C724 1.376 . S
C724 H711 0.930 . S
C724 C723 1.376 . S
C724 C725 1.388 . S
C725 H712 0.930 . S
C725 C724 1.388 . S
C725 C726 1.390 . S
C726 C725 1.390 . S
C726 C727 1.394 . S
C726 C732 1.465 . S
C727 C722 1.399 . S
C727 C726 1.394 . S
C727 C728 1.516 . S
C728 C727 1.516 . S
C728 C729 1.502 . S
C728 C730 1.561 . S
C728 C731 1.526 . S
C729 H713 0.959 . S
C729 H714 0.959 . S
C729 H715 0.961 . S
C729 C728 1.502 . S
C730 H716 0.960 . S
C730 H717 0.961 . S
C730 H718 0.959 . S
C730 C728 1.561 . S
C731 C728 1.526 . S
C731 C732 1.396 . S
C731 C736 1.390 . S
C732 C726 1.465 . S
C732 C731 1.396 . S
C732 C733 1.399 . S
C733 H719 0.929 . S
C733 C732 1.399 . S
C733 C734 1.385 . S
C734 H720 0.931 . S
C734 C733 1.385 . S
C734 C735 1.389 . S
C735 C734 1.389 . S
C735 C736 1.387 . S
C736 H721 0.930 . S
C736 C731 1.390 . S
C736 C735 1.387 . S
H737 C749 0.930 . S
H738 C751 0.930 . S
H739 C752 0.930 1_455 S
H740 C756 0.959 . S
H741 C756 0.959 . S
H742 C756 0.961 . S
H743 C757 0.960 . S
H744 C757 0.961 . S
H745 C757 0.959 . S
H746 C760 0.932 1_455 S
H747 C761 0.931 1_455 S
H748 C763 0.930 . S
C749 H737 0.930 . S
C749 C750 1.399 . S
C749 C754 1.399 . S
C750 C749 1.399 . S
C750 C751 1.376 . S
C751 H738 0.930 . S
C751 C750 1.376 . S
C751 C752 1.388 . S
C752 H739 0.930 1_655 S
C752 C751 1.388 . S
C752 C753 1.390 . S
C753 C752 1.390 . S
C753 C754 1.394 . S
C753 C759 1.465 . S
C754 C749 1.399 . S
C754 C753 1.394 . S
C754 C755 1.516 . S
C755 C754 1.516 . S
C755 C756 1.502 . S
C755 C757 1.561 . S
C755 C758 1.526 . S
C756 H740 0.959 . S
C756 H741 0.959 . S
C756 H742 0.961 . S
C756 C755 1.502 . S
C757 H743 0.960 . S
C757 H744 0.961 . S
C757 H745 0.959 . S
C757 C755 1.561 . S
C758 C755 1.526 . S
C758 C759 1.396 . S
C758 C763 1.390 . S
C759 C753 1.465 . S
C759 C758 1.396 . S
C759 C760 1.397 . S
C760 H746 0.932 1_655 S
C760 C759 1.397 . S
C760 C761 1.385 . S
C761 H747 0.931 1_655 S
C761 C760 1.385 . S
C761 C762 1.389 . S
C762 C761 1.389 . S
C762 C763 1.387 . S
C763 H748 0.930 . S
C763 C758 1.390 . S
C763 C762 1.387 . S
H764 C776 0.930 . S
H765 C778 0.930 . S
H766 C779 0.930 . S
H767 C783 0.959 . S
H768 C783 0.959 . S
H769 C783 0.961 . S
H770 C784 0.960 . S
H771 C784 0.961 . S
H772 C784 0.959 . S
H773 C787 0.923 1_565 S
H774 C788 0.931 1_565 S
H775 C790 0.930 . S
C776 H764 0.930 . S
C776 C777 1.399 . S
C776 C781 1.399 . S
C777 C776 1.399 . S
C777 C778 1.376 1_545 S
C778 H765 0.930 . S
C778 C777 1.376 1_565 S
C778 C779 1.388 . S
C779 H766 0.930 . S
C779 C778 1.388 . S
C779 C780 1.390 1_565 S
C780 C779 1.390 1_545 S
C780 C781 1.394 . S
C780 C786 1.465 . S
C781 C776 1.399 . S
C781 C780 1.394 . S
C781 C782 1.516 . S
C782 C781 1.516 . S
C782 C783 1.502 . S
C782 C784 1.561 . S
C782 C785 1.526 . S
C783 H767 0.959 . S
C783 H768 0.959 . S
C783 H769 0.961 . S
C783 C782 1.502 . S
C784 H770 0.960 . S
C784 H771 0.961 . S
C784 H772 0.959 . S
C784 C782 1.561 . S
C785 C782 1.526 . S
C785 C786 1.396 . S
C785 C790 1.390 . S
C786 C780 1.465 . S
C786 C785 1.396 . S
C786 C787 1.403 . S
C787 H773 0.923 1_545 S
C787 C786 1.403 . S
C787 C788 1.387 . S
C788 H774 0.931 1_545 S
C788 C787 1.387 . S
C788 C789 1.389 . S
C789 C788 1.389 . S
C789 C790 1.387 . S
C790 H775 0.930 . S
C790 C785 1.390 . S
C790 C789 1.387 . S
H791 C803 0.930 . S
H792 C805 0.930 . S
H793 C806 0.930 . S
H794 C810 0.959 . S
H795 C810 0.959 . S
H796 C810 0.961 . S
H797 C811 0.960 . S
H798 C811 0.961 . S
H799 C811 0.959 . S
H800 C814 0.929 . S
H801 C815 0.931 . S
H802 C817 0.930 . S
C803 H791 0.930 . S
C803 C804 1.399 . S
C803 C808 1.399 . S
C804 C803 1.399 . S
C804 C805 1.376 . S
C805 H792 0.930 . S
C805 C804 1.376 . S
C805 C806 1.388 . S
C806 H793 0.930 . S
C806 C805 1.388 . S
C806 C807 1.390 . S
C807 C806 1.390 . S
C807 C808 1.394 . S
C807 C813 1.465 . S
C808 C803 1.399 . S
C808 C807 1.394 . S
C808 C809 1.516 . S
C809 C808 1.516 . S
C809 C810 1.502 . S
C809 C811 1.561 . S
C809 C812 1.526 . S
C810 H794 0.959 . S
C810 H795 0.959 . S
C810 H796 0.961 . S
C810 C809 1.502 . S
C811 H797 0.960 . S
C811 H798 0.961 . S
C811 H799 0.959 . S
C811 C809 1.561 . S
C812 C809 1.526 . S
C812 C813 1.396 . S
C812 C817 1.390 . S
C813 C807 1.465 . S
C813 C812 1.396 . S
C813 C814 1.399 . S
C814 H800 0.929 . S
C814 C813 1.399 . S
C814 C815 1.385 . S
C815 H801 0.931 . S
C815 C814 1.385 . S
C815 C816 1.389 . S
C816 C815 1.389 . S
C816 C817 1.387 . S
C817 H802 0.930 . S
C817 C812 1.390 . S
C817 C816 1.387 . S
H818 C830 0.930 . S
H819 C832 0.930 . S
H820 C833 0.930 . S
H821 C837 0.959 . S
H822 C837 0.959 . S
H823 C837 0.961 . S
H824 C838 0.960 . S
H825 C838 0.961 . S
H826 C838 0.959 . S
H827 C841 0.929 . S
H828 C842 0.931 . S
H829 C844 0.930 . S
C830 H818 0.930 . S
C830 C831 1.399 . S
C830 C835 1.399 . S
C831 C830 1.399 . S
C831 C832 1.376 . S
C832 H819 0.930 . S
C832 C831 1.376 . S
C832 C833 1.388 . S
C833 H820 0.930 . S
C833 C832 1.388 . S
C833 C834 1.390 . S
C834 C833 1.390 . S
C834 C835 1.394 . S
C834 C840 1.465 . S
C835 C830 1.399 . S
C835 C834 1.394 . S
C835 C836 1.516 . S
C836 C835 1.516 . S
C836 C837 1.502 . S
C836 C838 1.561 . S
C836 C839 1.526 . S
C837 H821 0.959 . S
C837 H822 0.959 . S
C837 H823 0.961 . S
C837 C836 1.502 . S
C838 H824 0.960 . S
C838 H825 0.961 . S
C838 H826 0.959 . S
C838 C836 1.561 . S
C839 C836 1.526 . S
C839 C840 1.396 . S
C839 C844 1.390 . S
C840 C834 1.465 . S
C840 C839 1.396 . S
C840 C841 1.399 . S
C841 H827 0.929 . S
C841 C840 1.399 . S
C841 C842 1.385 . S
C842 H828 0.931 . S
C842 C841 1.385 . S
C842 C843 1.389 . S
C843 C842 1.389 . S
C843 C844 1.387 . S
C844 H829 0.930 . S
C844 C839 1.390 . S
C844 C843 1.387 . S
H845 C857 0.930 . S
H846 C859 0.930 1_655 S
H847 C860 0.930 1_655 S
H848 C864 0.959 . S
H849 C864 0.959 . S
H850 C864 0.961 . S
H851 C865 0.960 . S
H852 C865 0.961 . S
H853 C865 0.959 . S
H854 C868 0.929 1_655 S
H855 C869 0.931 . S
H856 C871 0.930 . S
C857 H845 0.930 . S
C857 C858 1.399 . S
C857 C862 1.399 . S
C858 C857 1.399 . S
C858 C859 1.376 . S
C859 H846 0.930 1_455 S
C859 C858 1.376 . S
C859 C860 1.388 . S
C860 H847 0.930 1_455 S
C860 C859 1.388 . S
C860 C861 1.390 . S
C861 C860 1.390 . S
C861 C862 1.394 . S
C861 C867 1.465 . S
C862 C857 1.399 . S
C862 C861 1.394 . S
C862 C863 1.516 . S
C863 C862 1.516 . S
C863 C864 1.502 . S
C863 C865 1.561 . S
C863 C866 1.526 . S
C864 H848 0.959 . S
C864 H849 0.959 . S
C864 H850 0.961 . S
C864 C863 1.502 . S
C865 H851 0.960 . S
C865 H852 0.961 . S
C865 H853 0.959 . S
C865 C863 1.561 . S
C866 C863 1.526 . S
C866 C867 1.396 . S
C866 C871 1.390 . S
C867 C861 1.465 . S
C867 C866 1.396 . S
C867 C868 1.399 . S
C868 H854 0.929 1_455 S
C868 C867 1.399 . S
C868 C869 1.385 . S
C869 H855 0.931 . S
C869 C868 1.385 . S
C869 C870 1.389 . S
C870 C869 1.389 . S
C870 C871 1.387 . S
C871 H856 0.930 . S
C871 C866 1.390 . S
C871 C870 1.387 . S
H872 C884 0.925 1_554 S
H873 C886 0.930 . S
H874 C887 0.930 . S
H875 C891 0.959 . S
H876 C891 0.959 . S
H877 C891 0.961 . S
H878 C892 0.960 . S
H879 C892 0.961 . S
H880 C892 0.959 . S
H881 C895 0.929 . S
H882 C896 0.931 . S
H883 C898 0.930 . S
C884 H872 0.925 1_556 S
C884 C885 1.404 1_565 S
C884 C889 1.399 . S
C885 C884 1.404 1_545 S
C885 C886 1.376 . S
C886 H873 0.930 . S
C886 C885 1.376 . S
C886 C887 1.388 . S
C887 H874 0.930 . S
C887 C886 1.388 . S
C887 C888 1.390 . S
C888 C887 1.390 . S
C888 C889 1.394 1_545 S
C888 C894 1.465 . S
C889 C884 1.399 . S
C889 C888 1.394 1_565 S
C889 C890 1.516 1_556 S
C890 C889 1.516 1_554 S
C890 C891 1.502 . S
C890 C892 1.561 1_554 S
C890 C893 1.526 . S
C891 H875 0.959 . S
C891 H876 0.959 . S
C891 H877 0.961 . S
C891 C890 1.502 . S
C892 H878 0.960 . S
C892 H879 0.961 . S
C892 H880 0.959 . S
C892 C890 1.561 1_556 S
C893 C890 1.526 . S
C893 C894 1.396 1_564 S
C893 C898 1.390 . S
C894 C888 1.465 . S
C894 C893 1.396 1_546 S
C894 C895 1.399 . S
C895 H881 0.929 . S
C895 C894 1.399 . S
C895 C896 1.385 . S
C896 H882 0.931 . S
C896 C895 1.385 . S
C896 C897 1.389 1_556 S
C897 C896 1.389 1_554 S
C897 C898 1.387 1_545 S
C898 H883 0.930 . S
C898 C893 1.390 . S
C898 C897 1.387 1_565 S
H899 C911 0.930 . S
H900 C913 0.930 . S
H901 C914 0.930 . S
H902 C918 0.959 . S
H903 C918 0.959 . S
H904 C918 0.961 . S
H905 C919 0.960 . S
H906 C919 0.961 . S
H907 C919 0.959 . S
H908 C922 0.929 . S
H909 C923 0.931 . S
H910 C925 0.930 . S
C911 H899 0.930 . S
C911 C912 1.399 . S
C911 C916 1.399 . S
C912 C911 1.399 . S
C912 C913 1.376 1_556 S
C913 H900 0.930 . S
C913 C912 1.376 1_554 S
C913 C914 1.388 . S
C914 H901 0.930 . S
C914 C913 1.388 . S
C914 C915 1.390 . S
C915 C914 1.390 . S
C915 C916 1.394 1_554 S
C915 C921 1.465 . S
C916 C911 1.399 . S
C916 C915 1.394 1_556 S
C916 C917 1.516 . S
C917 C916 1.516 . S
C917 C918 1.502 . S
C917 C919 1.561 . S
C917 C920 1.526 . S
C918 H902 0.959 . S
C918 H903 0.959 . S
C918 H904 0.961 . S
C918 C917 1.502 . S
C919 H905 0.960 . S
C919 H906 0.961 . S
C919 H907 0.959 . S
C919 C917 1.561 . S
C920 C917 1.526 . S
C920 C921 1.396 1_556 S
C920 C925 1.390 . S
C921 C915 1.465 . S
C921 C920 1.396 1_554 S
C921 C922 1.399 . S
C922 H908 0.929 . S
C922 C921 1.399 . S
C922 C923 1.385 . S
C923 H909 0.931 . S
C923 C922 1.385 . S
C923 C924 1.389 . S
C924 C923 1.389 . S
C924 C925 1.387 1_554 S
C925 H910 0.930 . S
C925 C920 1.390 . S
C925 C924 1.387 1_556 S
H926 C938 0.930 . S
H927 C940 0.930 . S
H928 C941 0.930 . S
H929 C945 0.959 1_556 S
H930 C945 0.989 . S
H931 C945 0.931 1_655 S
H932 C946 0.960 1_655 S
H933 C946 0.961 . S
H934 C946 0.959 . S
H935 C949 0.929 . S
H936 C950 0.931 . S
H937 C952 0.930 . S
C938 H926 0.930 . S
C938 C939 1.399 . S
C938 C943 1.399 . S
C939 C938 1.399 . S
C939 C940 1.376 1_554 S
C940 H927 0.930 . S
C940 C939 1.376 1_556 S
C940 C941 1.388 . S
C941 H928 0.930 . S
C941 C940 1.388 . S
C941 C942 1.390 . S
C942 C941 1.390 . S
C942 C943 1.394 1_556 S
C942 C948 1.465 1_655 S
C943 C938 1.399 . S
C943 C942 1.394 1_554 S
C943 C944 1.516 1_655 S
C944 C943 1.516 1_455 S
C944 C945 1.503 . S
C944 C946 1.561 . S
C944 C947 1.526 . S
C945 H929 0.959 1_554 S
C945 H930 0.989 . S
C945 H931 0.931 1_455 S
C945 C944 1.503 . S
C946 H932 0.960 1_455 S
C946 H933 0.961 . S
C946 H934 0.959 . S
C946 C944 1.561 . S
C947 C944 1.526 . S
C947 C948 1.396 1_554 S
C947 C952 1.390 . S
C948 C942 1.465 1_455 S
C948 C947 1.396 1_556 S
C948 C949 1.399 . S
C949 H935 0.929 . S
C949 C948 1.399 . S
C949 C950 1.385 . S
C950 H936 0.931 . S
C950 C949 1.385 . S
C950 C951 1.389 . S
C951 C950 1.389 . S
C951 C952 1.387 1_556 S
C952 H937 0.930 . S
C952 C947 1.390 . S
C952 C951 1.387 1_554 S
H953 C965 0.930 . S
H954 C967 0.930 . S
H955 C968 0.930 . S
H956 C972 0.959 . S
H957 C972 0.959 1_565 S
H958 C972 0.961 . S
H959 C973 0.960 . S
H960 C973 0.961 1_565 S
H961 C973 0.959 . S
H962 C976 0.929 . S
H963 C977 0.931 . S
H964 C979 0.930 . S
C965 H953 0.930 . S
C965 C966 1.399 1_454 S
C965 C970 1.403 . S
C966 C965 1.399 1_656 S
C966 C967 1.376 . S
C967 H954 0.930 . S
C967 C966 1.376 . S
C967 C968 1.388 . S
C968 H955 0.930 . S
C968 C967 1.388 . S
C968 C969 1.390 . S
C969 C968 1.390 . S
C969 C970 1.383 1_656 S
C969 C975 1.465 1_545 S
C970 C965 1.403 . S
C970 C969 1.383 1_454 S
C970 C971 1.522 . S
C971 C970 1.522 . S
C971 C972 1.502 . S
C971 C973 1.561 1_455 S
C971 C974 1.526 1_545 S
C972 H956 0.959 . S
C972 H957 0.959 1_545 S
C972 H958 0.961 . S
C972 C971 1.502 . S
C973 H959 0.960 . S
C973 H960 0.961 1_545 S
C973 H961 0.959 . S
C973 C971 1.561 1_655 S
C974 C971 1.526 1_565 S
C974 C975 1.396 1_454 S
C974 C979 1.390 . S
C975 C969 1.465 1_565 S
C975 C974 1.396 1_656 S
C975 C976 1.399 . S
C976 H962 0.929 . S
C976 C975 1.399 . S
C976 C977 1.385 . S
C977 H963 0.931 . S
C977 C976 1.385 . S
C977 C978 1.394 1_556 S
C978 C977 1.394 1_554 S
C978 C979 1.384 1_655 S
C979 H964 0.930 . S
C979 C974 1.390 . S
C979 C978 1.384 1_455 S
H980 C992 0.930 . S
H981 C994 0.930 . S
H982 C995 0.930 . S
H983 C999 0.959 . S
H984 C999 0.959 1_655 S
H985 C999 0.961 . S
H986 C1000 0.960 1_455 S
H987 C1000 0.961 . S
H988 C1000 0.959 . S
H989 C1003 0.929 . S
H990 C1004 0.931 . S
H991 C1006 0.930 . S
C992 H980 0.930 . S
C992 C993 1.399 1_545 S
C992 C997 1.399 . S
C993 C992 1.399 1_565 S
C993 C994 1.376 . S
C994 H981 0.930 . S
C994 C993 1.376 . S
C994 C995 1.388 . S
C995 H982 0.930 . S
C995 C994 1.388 . S
C995 C996 1.390 . S
C996 C995 1.390 . S
C996 C997 1.394 1_565 S
C996 C1002 1.465 1_455 S
C997 C992 1.399 . S
C997 C996 1.394 1_545 S
C997 C998 1.517 . S
C998 C997 1.517 . S
C998 C999 1.502 . S
C998 C1000 1.561 1_455 S
C998 C1001 1.525 1_455 S
C999 H983 0.959 . S
C999 H984 0.959 1_455 S
C999 H985 0.961 . S
C999 C998 1.502 . S
C1000 H986 0.960 1_655 S
C1000 H987 0.961 . S
C1000 H988 0.959 . S
C1000 C998 1.561 1_655 S
C1001 C998 1.525 1_655 S
C1001 C1002 1.396 1_545 S
C1001 C1006 1.390 . S
C1002 C996 1.465 1_655 S
C1002 C1001 1.396 1_565 S
C1002 C1003 1.399 . S
C1003 H989 0.929 . S
C1003 C1002 1.399 . S
C1003 C1004 1.385 . S
C1004 H990 0.931 . S
C1004 C1003 1.385 . S
C1004 C1005 1.389 . S
C1005 C1004 1.389 . S
C1005 C1006 1.387 1_565 S
C1006 H991 0.930 . S
C1006 C1001 1.390 . S
C1006 C1005 1.387 1_545 S
H1007 C1019 0.930 . S
H1008 C1021 0.930 . S
H1009 C1022 0.930 . S
H1010 C1026 0.959 . S
H1011 C1026 0.959 1_545 S
H1012 C1026 0.961 . S
H1013 C1027 0.960 . S
H1014 C1027 0.961 1_545 S
H1015 C1027 0.957 1_545 S
H1016 C1030 0.929 . S
H1017 C1031 0.931 . S
H1018 C1033 0.930 . S
C1019 H1007 0.930 . S
C1019 C1020 1.399 . S
C1019 C1024 1.399 . S
C1020 C1019 1.399 . S
C1020 C1021 1.376 . S
C1021 H1008 0.930 . S
C1021 C1020 1.376 . S
C1021 C1022 1.388 . S
C1022 H1009 0.930 . S
C1022 C1021 1.388 . S
C1022 C1023 1.390 . S
C1023 C1022 1.390 . S
C1023 C1024 1.394 . S
C1023 C1029 1.465 1_565 S
C1024 C1019 1.399 . S
C1024 C1023 1.394 . S
C1024 C1025 1.516 . S
C1025 C1024 1.516 . S
C1025 C1026 1.502 . S
C1025 C1027 1.561 . S
C1025 C1028 1.526 1_565 S
C1026 H1010 0.959 . S
C1026 H1011 0.959 1_565 S
C1026 H1012 0.961 . S
C1026 C1025 1.502 . S
C1027 H1013 0.960 . S
C1027 H1014 0.961 1_565 S
C1027 H1015 0.957 1_565 S
C1027 C1025 1.561 . S
C1028 C1025 1.526 1_545 S
C1028 C1029 1.396 . S
C1028 C1033 1.390 . S
C1029 C1023 1.465 1_545 S
C1029 C1028 1.396 . S
C1029 C1030 1.399 . S
C1030 H1016 0.929 . S
C1030 C1029 1.399 . S
C1030 C1031 1.385 . S
C1031 H1017 0.931 . S
C1031 C1030 1.385 . S
C1031 C1032 1.389 . S
C1032 C1031 1.389 . S
C1032 C1033 1.387 . S
C1033 H1018 0.930 . S
C1033 C1028 1.390 . S
C1033 C1032 1.387 . S
H1034 C1046 0.930 . S
H1035 C1048 0.930 . S
H1036 C1049 0.930 . S
H1037 C1053 0.959 . S
H1038 C1053 0.959 . S
H1039 C1053 0.961 . S
H1040 C1054 0.960 . S
H1041 C1054 0.961 . S
H1042 C1054 0.959 . S
H1043 C1057 0.929 . S
H1044 C1058 0.931 . S
H1045 C1060 0.930 . S
C1046 H1034 0.930 . S
C1046 C1047 1.399 . S
C1046 C1051 1.399 . S
C1047 C1046 1.399 . S
C1047 C1048 1.376 . S
C1048 H1035 0.930 . S
C1048 C1047 1.376 . S
C1048 C1049 1.388 . S
C1049 H1036 0.930 . S
C1049 C1048 1.388 . S
C1049 C1050 1.390 . S
C1050 C1049 1.390 . S
C1050 C1051 1.394 . S
C1050 C1056 1.465 . S
C1051 C1046 1.399 . S
C1051 C1050 1.394 . S
C1051 C1052 1.516 . S
C1052 C1051 1.516 . S
C1052 C1053 1.502 . S
C1052 C1054 1.561 . S
C1052 C1055 1.526 . S
C1053 H1037 0.959 . S
C1053 H1038 0.959 . S
C1053 H1039 0.961 . S
C1053 C1052 1.502 . S
C1054 H1040 0.960 . S
C1054 H1041 0.961 . S
C1054 H1042 0.959 . S
C1054 C1052 1.561 . S
C1055 C1052 1.526 . S
C1055 C1056 1.396 . S
C1055 C1060 1.390 . S
C1056 C1050 1.465 . S
C1056 C1055 1.396 . S
C1056 C1057 1.399 . S
C1057 H1043 0.929 . S
C1057 C1056 1.399 . S
C1057 C1058 1.385 . S
C1058 H1044 0.931 . S
C1058 C1057 1.385 . S
C1058 C1059 1.389 . S
C1059 C1058 1.389 . S
C1059 C1060 1.387 . S
C1060 H1045 0.930 . S
C1060 C1055 1.390 . S
C1060 C1059 1.387 . S
H1061 C1073 0.930 . S
H1062 C1075 0.930 . S
H1063 C1076 0.930 . S
H1064 C1080 0.959 . S
H1065 C1080 0.959 . S
H1066 C1080 0.961 . S
H1067 C1081 0.960 . S
H1068 C1081 0.961 . S
H1069 C1081 0.959 . S
H1070 C1084 0.929 . S
H1071 C1085 0.931 . S
H1072 C1087 0.930 . S
C1073 H1061 0.930 . S
C1073 C1074 1.399 1_655 S
C1073 C1078 1.399 . S
C1074 C1073 1.399 1_455 S
C1074 C1075 1.376 . S
C1075 H1062 0.930 . S
C1075 C1074 1.376 . S
C1075 C1076 1.388 . S
C1076 H1063 0.930 . S
C1076 C1075 1.388 . S
C1076 C1077 1.390 . S
C1077 C1076 1.390 . S
C1077 C1078 1.394 1_455 S
C1077 C1083 1.465 . S
C1078 C1073 1.399 . S
C1078 C1077 1.394 1_655 S
C1078 C1079 1.516 . S
C1079 C1078 1.516 . S
C1079 C1080 1.502 . S
C1079 C1081 1.561 . S
C1079 C1082 1.526 . S
C1080 H1064 0.959 . S
C1080 H1065 0.959 . S
C1080 H1066 0.961 . S
C1080 C1079 1.502 . S
C1081 H1067 0.960 . S
C1081 H1068 0.961 . S
C1081 H1069 0.959 . S
C1081 C1079 1.561 . S
C1082 C1079 1.526 . S
C1082 C1083 1.396 1_655 S
C1082 C1087 1.390 . S
C1083 C1077 1.465 . S
C1083 C1082 1.396 1_455 S
C1083 C1084 1.399 . S
C1084 H1070 0.929 . S
C1084 C1083 1.399 . S
C1084 C1085 1.385 . S
C1085 H1071 0.931 . S
C1085 C1084 1.385 . S
C1085 C1086 1.389 . S
C1086 C1085 1.389 . S
C1086 C1087 1.387 1_455 S
C1087 H1072 0.930 . S
C1087 C1082 1.390 . S
C1087 C1086 1.387 1_655 S
C237 C79 0.587 . S
C249 C9 0.450 . S
C264 C93 0.413 . S
C276 C23 0.516 . S
C291 C37 0.427 . S
C303 C107 0.461 . S
C318 C51 0.519 . S
C330 C65 0.630 . S
C345 C121 0.641 . S
C357 C191 0.613 . S
C372 C205 0.431 . S
C384 C135 0.417 . S
C399 C219 0.617 . S
C411 C149 0.555 . S
C426 C163 0.426 . S
C438 C177 0.420 . S
C453 C6 1.570 . S
C465 C176 1.495 . S
C480 C190 1.556 . S
C492 C20 1.568 . S
C507 C34 1.576 . S
C519 C204 1.564 . S
C534 C48 1.589 . S
C546 C218 1.557 . S
C561 C62 1.587 . S
C573 C120 1.560 . S
C588 C76 1.566 . S
C600 C134 1.553 . S
C615 C90 1.579 . S
C627 C148 1.566 . S
C642 C104 1.568 . S
C654 C162 1.557 . S
C669 C64 1.495 . S
C681 C118 1.557 . S
C696 C78 1.504 . S
C708 C132 1.558 . S
C723 C92 1.565 . S
C735 C146 1.586 . S
C750 C160 1.589 . S
C762 C106 1.551 . S
C777 C8 1.566 . S
C789 C174 1.588 . S
C804 C188 1.556 . S
C816 C22 1.502 . S
C831 C202 1.557 . S
C843 C36 1.503 . S
C858 C50 1.558 . S
C870 C216 1.590 . S
C885 C119 1.510 1_545 S
C897 C7 1.526 . S
C912 C133 1.561 . S
C924 C21 1.486 . S
C939 C35 1.511 . S
C951 C147 1.525 . S
C966 C161 1.487 . S
C978 C49 1.561 1_655 S
C993 C63 1.493 . S
C1005 C175 1.545 1_565 S
C1020 C189 1.485 . S
C1032 C77 1.559 . S
C1047 C203 1.563 . S
C1059 C91 1.485 . S
C1074 C217 1.525 . S
C1086 C105 1.537 1_455 S
