# Generated by pormake.
# Topology acs-a, (4)-cn, num edge types: 1
# Building blocks:
#     Node 0, Type 0, BuildingBlock: GALJAG_clean_sbu_0, # of connection points: 4
#     Node 1, Type 0, BuildingBlock: GALJAG_clean_sbu_0, # of connection points: 4
#     Node 2, Type 0, BuildingBlock: GALJAG_clean_sbu_0, # of connection points: 4
#     Node 3, Type 0, BuildingBlock: GALJAG_clean_sbu_0, # of connection points: 4
#     Node 4, Type 0, BuildingBlock: GALJAG_clean_sbu_0, # of connection points: 4
#     Node 5, Type 0, BuildingBlock: GALJAG_clean_sbu_0, # of connection points: 4
#     Node 6, Type 0, BuildingBlock: GALJAG_clean_sbu_0, # of connection points: 4
#     Node 7, Type 0, BuildingBlock: GALJAG_clean_sbu_0, # of connection points: 4
#     Node 8, Type 0, BuildingBlock: GALJAG_clean_sbu_0, # of connection points: 4
#     Node 9, Type 0, BuildingBlock: GALJAG_clean_sbu_0, # of connection points: 4
#     Node 10, Type 0, BuildingBlock: GALJAG_clean_sbu_0, # of connection points: 4
#     Node 11, Type 0, BuildingBlock: GALJAG_clean_sbu_0, # of connection points: 4
#     Edge 12, Type (0, 0), BuildingBlock: TEMPAE_clean_linker_10, # of connection points: 2
#     Edge 13, Type (0, 0), BuildingBlock: TEMPAE_clean_linker_10, # of connection points: 2
#     Edge 14, Type (0, 0), BuildingBlock: TEMPAE_clean_linker_10, # of connection points: 2
#     Edge 15, Type (0, 0), BuildingBlock: TEMPAE_clean_linker_10, # of connection points: 2
#     Edge 16, Type (0, 0), BuildingBlock: TEMPAE_clean_linker_10, # of connection points: 2
#     Edge 17, Type (0, 0), BuildingBlock: TEMPAE_clean_linker_10, # of connection points: 2
#     Edge 18, Type (0, 0), BuildingBlock: TEMPAE_clean_linker_10, # of connection points: 2
#     Edge 19, Type (0, 0), BuildingBlock: TEMPAE_clean_linker_10, # of connection points: 2
#     Edge 20, Type (0, 0), BuildingBlock: TEMPAE_clean_linker_10, # of connection points: 2
#     Edge 21, Type (0, 0), BuildingBlock: TEMPAE_clean_linker_10, # of connection points: 2
#     Edge 22, Type (0, 0), BuildingBlock: TEMPAE_clean_linker_10, # of connection points: 2
#     Edge 23, Type (0, 0), BuildingBlock: TEMPAE_clean_linker_10, # of connection points: 2
#     Edge 24, Type (0, 0), BuildingBlock: TEMPAE_clean_linker_10, # of connection points: 2
#     Edge 25, Type (0, 0), BuildingBlock: TEMPAE_clean_linker_10, # of connection points: 2
#     Edge 26, Type (0, 0), BuildingBlock: TEMPAE_clean_linker_10, # of connection points: 2
#     Edge 27, Type (0, 0), BuildingBlock: TEMPAE_clean_linker_10, # of connection points: 2
#     Edge 28, Type (0, 0), BuildingBlock: TEMPAE_clean_linker_10, # of connection points: 2
#     Edge 29, Type (0, 0), BuildingBlock: TEMPAE_clean_linker_10, # of connection points: 2
#     Edge 30, Type (0, 0), BuildingBlock: TEMPAE_clean_linker_10, # of connection points: 2
#     Edge 31, Type (0, 0), BuildingBlock: TEMPAE_clean_linker_10, # of connection points: 2
#     Edge 32, Type (0, 0), BuildingBlock: TEMPAE_clean_linker_10, # of connection points: 2
#     Edge 33, Type (0, 0), BuildingBlock: TEMPAE_clean_linker_10, # of connection points: 2
#     Edge 34, Type (0, 0), BuildingBlock: TEMPAE_clean_linker_10, # of connection points: 2
#     Edge 35, Type (0, 0), BuildingBlock: TEMPAE_clean_linker_10, # of connection points: 2
# Relax obj value: 0.468
# Max RMSD: 0.203
# Mean RMSD: 0.201
data_MOF--net-acs-a--node1-GALJAG_clean_sbu_0--edge1-TEMPAE_clean_linker_10
_symmetry_space_group_name_H-M    P1
_symmetry_Int_Tables_number       1
_symmetry_cell_setting            triclinic
loop_
_symmetry_equiv_pos_as_xyz
'x, y, z'
_cell_length_a     52.295582
_cell_length_b     52.30861
_cell_length_c     29.899385
_cell_angle_alpha  90.035016
_cell_angle_beta   89.986326
_cell_angle_gamma 119.80188
loop_
_atom_site_label
_atom_site_type_symbol
_atom_site_fract_x
_atom_site_fract_y
_atom_site_fract_z
_atom_type_partial_charge
In0 In 0.61985 0.15971 0.02087 0.0
O1 O 0.61646 0.18266 0.08359 0.0
O2 O 0.61776 0.14314 0.09245 0.0
C3 C 0.676 0.19083 0.9921 0.0
C4 C 0.59412 0.10193 0.00257 0.0
C5 C 0.58997 0.18424 0.98388 0.0
O6 O 0.66939 0.18274 0.03224 0.0
O7 O 0.65422 0.18126 0.96592 0.0
O8 O 0.58074 0.15696 0.98124 0.0
O9 O 0.6142 0.19869 0.00389 0.0
C10 C 0.61552 0.16372 0.11047 0.0
O11 O 0.58126 0.11343 0.02305 0.0
O12 O 0.62003 0.11983 0.98978 0.0
In13 In 0.45997 0.6278 0.50773 0.0
O14 O 0.45867 0.63512 0.58278 0.0
O15 O 0.43965 0.59105 0.55948 0.0
C16 C 0.47527 0.68257 0.47995 0.0
C17 C 0.50665 0.61992 0.49589 0.0
C18 C 0.40584 0.59823 0.47072 0.0
O19 O 0.46948 0.6743 0.5201 0.0
O20 O 0.47486 0.66351 0.45353 0.0
O21 O 0.42565 0.59194 0.46138 0.0
O22 O 0.41366 0.61931 0.49774 0.0
C23 C 0.44533 0.60807 0.59246 0.0
O24 O 0.48372 0.60702 0.4721 0.0
O25 O 0.50651 0.63783 0.52397 0.0
In26 In 0.82856 0.45665 0.01619 0.0
O27 O 0.86579 0.50375 0.02471 0.0
O28 O 0.87016 0.47809 0.97341 0.0
C29 C 0.80398 0.40009 0.98952 0.0
C30 C 0.83435 0.44615 0.10293 0.0
C31 C 0.78888 0.4711 0.98583 0.0
O32 O 0.8301 0.41892 0.97896 0.0
O33 O 0.79067 0.41005 0.0125 0.0
O34 O 0.79789 0.47516 0.02574 0.0
O35 O 0.8012 0.46119 0.96035 0.0
C36 C 0.8816 0.50232 0.99412 0.0
O37 O 0.81676 0.45456 0.09006 0.0
O38 O 0.84943 0.44362 0.07216 0.0
In39 In 0.37923 0.83695 0.47614 0.0
O40 O 0.4023 0.8832 0.44591 0.0
O41 O 0.3662 0.87187 0.48935 0.0
C42 C 0.41575 0.82562 0.4271 0.0
C43 C 0.39495 0.8296 0.55926 0.0
C44 C 0.32303 0.79459 0.46048 0.0
O45 O 0.38859 0.81422 0.41879 0.0
O46 O 0.42489 0.84452 0.45808 0.0
O47 O 0.33426 0.80089 0.49903 0.0
O48 O 0.33975 0.81077 0.42966 0.0
C49 C 0.38661 0.89157 0.46625 0.0
O50 O 0.39216 0.85141 0.54865 0.0
O51 O 0.38938 0.81129 0.52822 0.0
In52 In 0.52238 0.36254 0.03122 0.0
O53 O 0.52647 0.35481 0.10541 0.0
O54 O 0.54077 0.39861 0.08415 0.0
C55 C 0.50346 0.30753 0.00093 0.0
C56 C 0.47783 0.37312 0.01591 0.0
C57 C 0.57738 0.38952 0.99739 0.0
O58 O 0.50385 0.31358 0.04189 0.0
O59 O 0.51111 0.32912 0.97489 0.0
O60 O 0.55903 0.3976 0.98705 0.0
O61 O 0.56773 0.36801 0.02397 0.0
C62 C 0.53775 0.38161 0.1161 0.0
O63 O 0.50144 0.38527 0.99359 0.0
O64 O 0.47636 0.3549 0.04478 0.0
In65 In 0.15884 0.52742 0.49039 0.0
O66 O 0.11464 0.50513 0.45358 0.0
O67 O 0.12137 0.48162 0.50588 0.0
C68 C 0.1868 0.58252 0.45703 0.0
C69 C 0.1555 0.54339 0.57503 0.0
C70 C 0.19548 0.50895 0.46054 0.0
O71 O 0.15978 0.56511 0.44923 0.0
O72 O 0.19919 0.57186 0.48063 0.0
O73 O 0.18896 0.5085 0.50131 0.0
O74 O 0.18186 0.51695 0.43421 0.0
C75 C 0.10385 0.48218 0.4775 0.0
O76 O 0.17118 0.53219 0.56447 0.0
O77 O 0.14142 0.54622 0.54305 0.0
In78 In 0.83162 0.36617 0.50681 0.0
O79 O 0.87668 0.38932 0.54075 0.0
O80 O 0.8682 0.35565 0.49359 0.0
C81 C 0.80647 0.39684 0.53764 0.0
C82 C 0.83517 0.38273 0.4206 0.0
C83 C 0.79302 0.31274 0.54012 0.0
O84 O 0.83175 0.40244 0.55064 0.0
O85 O 0.79437 0.37601 0.5099 0.0
O86 O 0.79948 0.31733 0.49916 0.0
O87 O 0.80764 0.33485 0.56499 0.0
C88 C 0.8866 0.37535 0.51918 0.0
O89 O 0.81914 0.35639 0.4331 0.0
O90 O 0.84951 0.40055 0.45149 0.0
In91 In 0.45747 0.82263 0.96481 0.0
O92 O 0.46771 0.8689 0.94839 0.0
O93 O 0.4955 0.86443 0.99573 0.0
C94 C 0.40376 0.80004 0.00299 0.0
C95 C 0.44809 0.81392 0.87598 0.0
C96 C 0.48077 0.79084 0.99847 0.0
O97 O 0.42252 0.82713 0.00546 0.0
O98 O 0.41249 0.78477 0.98243 0.0
O99 O 0.48147 0.79662 0.95738 0.0
O100 O 0.47003 0.8028 0.02294 0.0
C101 C 0.48977 0.88156 0.97371 0.0
O102 O 0.4276 0.80384 0.9044 0.0
O103 O 0.47371 0.82792 0.89237 0.0
In104 In 0.62845 0.46885 0.51355 0.0
O105 O 0.60691 0.49114 0.55139 0.0
O106 O 0.63719 0.51518 0.49958 0.0
C107 C 0.59839 0.41329 0.54497 0.0
C108 C 0.61061 0.4545 0.42796 0.0
C109 C 0.68286 0.48529 0.54459 0.0
O110 O 0.5911 0.43229 0.55502 0.0
O111 O 0.62074 0.42263 0.52013 0.0
O112 O 0.67758 0.48755 0.50405 0.0
O113 O 0.66084 0.47642 0.57019 0.0
C114 C 0.61919 0.51442 0.52832 0.0
O115 O 0.63696 0.464 0.43988 0.0
O116 O 0.5935 0.45269 0.45903 0.0
In117 In 0.15454 0.6303 0.97345 0.0
O118 O 0.11225 0.60907 0.01428 0.0
O119 O 0.11534 0.63695 0.9605 0.0
C120 C 0.18029 0.60017 0.00426 0.0
C121 C 0.15104 0.61306 0.88754 0.0
C122 C 0.19242 0.68486 0.00383 0.0
O123 O 0.15425 0.59321 0.01496 0.0
O124 O 0.19298 0.6222 0.9788 0.0
O125 O 0.1846 0.67942 0.96344 0.0
O126 O 0.1795 0.66297 0.02961 0.0
C127 C 0.09968 0.61983 0.99123 0.0
O128 O 0.16715 0.63945 0.89973 0.0
O129 O 0.13631 0.59554 0.91852 0.0
In130 In 0.52758 0.16393 0.50786 0.0
O131 O 0.52695 0.16964 0.43204 0.0
O132 O 0.55554 0.15542 0.45826 0.0
C133 C 0.50982 0.20175 0.53536 0.0
C134 C 0.48379 0.10769 0.5179 0.0
C135 C 0.58134 0.19118 0.54572 0.0
O136 O 0.51241 0.19693 0.49474 0.0
O137 O 0.51441 0.18596 0.5625 0.0
O138 O 0.56279 0.1646 0.55461 0.0
O139 O 0.57234 0.2036 0.51887 0.0
C140 C 0.54613 0.16229 0.4242 0.0
O141 O 0.50655 0.11884 0.54219 0.0
O142 O 0.48256 0.12535 0.49062 0.0
In143 In 0.35926 0.52616 0.99248 0.0
O144 O 0.37763 0.50404 0.03754 0.0
O145 O 0.35067 0.47948 0.98283 0.0
C146 C 0.39232 0.5824 0.01998 0.0
C147 C 0.37597 0.53736 0.90595 0.0
C148 C 0.3049 0.51185 0.02109 0.0
O149 O 0.39931 0.56309 0.02908 0.0
O150 O 0.36872 0.57305 0.99816 0.0
O151 O 0.31017 0.50707 0.98173 0.0
O152 O 0.32689 0.52227 0.04696 0.0
C153 C 0.36644 0.48039 0.01533 0.0
O154 O 0.35048 0.53075 0.91899 0.0
O155 O 0.39281 0.5377 0.93639 0.0
C156 C 0.58521 0.16509 0.37353 0.0
C157 C 0.55737 0.16243 0.37897 0.0
C158 C 0.59661 0.16594 0.33076 0.0
C159 C 0.57938 0.16325 0.29269 0.0
C160 C 0.55105 0.16014 0.29807 0.0
C161 C 0.54054 0.16018 0.34124 0.0
C162 C 0.62721 0.17007 0.3263 0.0
C163 C 0.53178 0.15659 0.25827 0.0
C164 C 0.61429 0.19039 0.17874 0.0
C165 C 0.60923 0.16415 0.15841 0.0
C166 C 0.60567 0.1906 0.2231 0.0
C167 C 0.59095 0.16378 0.24712 0.0
C168 C 0.5863 0.1373 0.22697 0.0
C169 C 0.59586 0.13787 0.18295 0.0
C170 C 0.6117 0.21939 0.24387 0.0
C171 C 0.57016 0.10819 0.25124 0.0
H172 H 0.59835 0.1671 0.40277 0.0
H173 H 0.51894 0.15799 0.34551 0.0
H174 H 0.62624 0.15097 0.3086 0.0
H175 H 0.64117 0.18994 0.30592 0.0
H176 H 0.638 0.1725 0.35926 0.0
H177 H 0.50991 0.15337 0.26829 0.0
H178 H 0.5428 0.17634 0.23655 0.0
H179 H 0.52836 0.13739 0.23791 0.0
H180 H 0.62472 0.21074 0.15976 0.0
H181 H 0.59169 0.11752 0.16707 0.0
H182 H 0.62307 0.22266 0.27647 0.0
H183 H 0.5906 0.21891 0.25049 0.0
H184 H 0.62548 0.23856 0.222 0.0
H185 H 0.58114 0.10942 0.28353 0.0
H186 H 0.56903 0.08973 0.23128 0.0
H187 H 0.54737 0.10316 0.25899 0.0
C188 C 0.42168 0.56676 0.64727 0.0
C189 C 0.43627 0.59709 0.63852 0.0
C190 C 0.41203 0.55593 0.69057 0.0
C191 C 0.41703 0.57594 0.72583 0.0
C192 C 0.43205 0.60662 0.71728 0.0
C193 C 0.44154 0.61684 0.67368 0.0
C194 C 0.3962 0.52308 0.69849 0.0
C195 C 0.43774 0.62863 0.75406 0.0
C196 C 0.36763 0.54885 0.82813 0.0
C197 C 0.38586 0.54564 0.85928 0.0
C198 C 0.37742 0.55845 0.78442 0.0
C199 C 0.40605 0.5648 0.77156 0.0
C200 C 0.42433 0.56103 0.80262 0.0
C201 C 0.41404 0.55158 0.84621 0.0
C202 C 0.35735 0.56234 0.75225 0.0
C203 C 0.4549 0.56739 0.78999 0.0
H204 H 0.41759 0.55141 0.62018 0.0
H205 H 0.4528 0.64031 0.66705 0.0
H206 H 0.40771 0.51765 0.72477 0.0
H207 H 0.37353 0.51558 0.71072 0.0
H208 H 0.3948 0.51053 0.66772 0.0
H209 H 0.45017 0.65175 0.74201 0.0
H210 H 0.4165 0.62466 0.76841 0.0
H211 H 0.4504 0.62583 0.78152 0.0
H212 H 0.34586 0.54437 0.83814 0.0
H213 H 0.4282 0.5491 0.8702 0.0
H214 H 0.35389 0.54889 0.72177 0.0
H215 H 0.36777 0.5857 0.74152 0.0
H216 H 0.33553 0.55591 0.76723 0.0
H217 H 0.45384 0.55419 0.76026 0.0
H218 H 0.46595 0.56239 0.81761 0.0
H219 H 0.46868 0.59094 0.7808 0.0
C220 C 0.85588 0.42894 0.16223 0.0
C221 C 0.8361 0.43845 0.14989 0.0
C222 C 0.85676 0.42017 0.20627 0.0
C223 C 0.83735 0.42088 0.23859 0.0
C224 C 0.81759 0.43082 0.22644 0.0
C225 C 0.81723 0.43953 0.1822 0.0
C226 C 0.87821 0.4098 0.21808 0.0
C227 C 0.79655 0.43185 0.26003 0.0
C228 C 0.81856 0.37198 0.34107 0.0
C229 C 0.83641 0.39221 0.37377 0.0
C230 C 0.81881 0.38099 0.2968 0.0
C231 C 0.83743 0.41089 0.28505 0.0
C232 C 0.85577 0.43132 0.31782 0.0
C233 C 0.85501 0.42173 0.36184 0.0
C234 C 0.79892 0.35858 0.26273 0.0
C235 C 0.87598 0.46337 0.30647 0.0
H236 H 0.8705 0.42806 0.13735 0.0
H237 H 0.80187 0.44682 0.17277 0.0
H238 H 0.89264 0.42321 0.24598 0.0
H239 H 0.86599 0.38661 0.22971 0.0
H240 H 0.89229 0.41123 0.18928 0.0
H241 H 0.7829 0.44058 0.24536 0.0
H242 H 0.78166 0.40941 0.2732 0.0
H243 H 0.80898 0.4459 0.28886 0.0
H244 H 0.80413 0.34914 0.35017 0.0
H245 H 0.86888 0.43745 0.38702 0.0
H246 H 0.81216 0.35786 0.23428 0.0
H247 H 0.78325 0.36509 0.24908 0.0
H248 H 0.78611 0.3361 0.27713 0.0
H249 H 0.89113 0.46531 0.27902 0.0
H250 H 0.88933 0.47629 0.33561 0.0
H251 H 0.86283 0.47332 0.29437 0.0
C252 C 0.46484 0.82826 0.797 0.0
C253 C 0.44211 0.81193 0.82747 0.0
C254 C 0.45863 0.82964 0.75165 0.0
C255 C 0.42903 0.81429 0.73667 0.0
C256 C 0.40622 0.79652 0.7669 0.0
C257 C 0.41304 0.79559 0.81196 0.0
C258 C 0.48355 0.84868 0.72031 0.0
C259 C 0.3744 0.7797 0.75216 0.0
C260 C 0.40681 0.84512 0.6389 0.0
C261 C 0.40424 0.82594 0.60428 0.0
C262 C 0.41527 0.84176 0.68199 0.0
C263 C 0.42151 0.81878 0.69052 0.0
C264 C 0.41944 0.79964 0.65549 0.0
C265 C 0.41069 0.80337 0.61274 0.0
C266 C 0.41709 0.86254 0.71857 0.0
C267 C 0.42613 0.77504 0.66327 0.0
H268 H 0.48735 0.8409 0.80886 0.0
H269 H 0.3954 0.78278 0.83536 0.0
H270 H 0.48226 0.83631 0.68945 0.0
H271 H 0.48165 0.86807 0.71014 0.0
H272 H 0.50548 0.85666 0.73599 0.0
H273 H 0.35965 0.76498 0.77885 0.0
H274 H 0.3669 0.79543 0.74275 0.0
H275 H 0.37204 0.7662 0.72218 0.0
H276 H 0.40189 0.86261 0.63245 0.0
H277 H 0.40892 0.78862 0.58592 0.0
H278 H 0.43943 0.87362 0.73364 0.0
H279 H 0.40121 0.84996 0.74556 0.0
H280 H 0.41222 0.87968 0.70614 0.0
H281 H 0.44839 0.78392 0.67813 0.0
H282 H 0.4251 0.76315 0.63192 0.0
H283 H 0.41012 0.75901 0.68748 0.0
C284 C 0.61938 0.44488 0.34913 0.0
C285 C 0.60023 0.44512 0.38172 0.0
C286 C 0.60937 0.43483 0.3056 0.0
C287 C 0.57957 0.42492 0.29449 0.0
C288 C 0.56025 0.42549 0.32714 0.0
C289 C 0.57082 0.43553 0.37041 0.0
C290 C 0.63059 0.43448 0.27166 0.0
C291 C 0.52837 0.41524 0.31646 0.0
C292 C 0.55952 0.42246 0.17196 0.0
C293 C 0.54768 0.39248 0.162 0.0
C294 C 0.56991 0.43332 0.21501 0.0
C295 C 0.56849 0.41372 0.2488 0.0
C296 C 0.55643 0.38339 0.23899 0.0
C297 C 0.5461 0.37312 0.19567 0.0
C298 C 0.58251 0.46577 0.2243 0.0
C299 C 0.55462 0.36185 0.27417 0.0
H300 H 0.64212 0.45221 0.35777 0.0
H301 H 0.55594 0.4357 0.39551 0.0
H302 H 0.62254 0.41163 0.25981 0.0
H303 H 0.63183 0.44784 0.24206 0.0
H304 H 0.65313 0.44323 0.2855 0.0
H305 H 0.51638 0.41761 0.3454 0.0
H306 H 0.52694 0.42805 0.28797 0.0
H307 H 0.51704 0.39176 0.30615 0.0
H308 H 0.5608 0.43752 0.14602 0.0
H309 H 0.53704 0.34993 0.18807 0.0
H310 H 0.60574 0.47557 0.2355 0.0
H311 H 0.57007 0.46891 0.25177 0.0
H312 H 0.5818 0.47803 0.19444 0.0
H313 H 0.577 0.36855 0.28699 0.0
H314 H 0.54462 0.33899 0.26112 0.0
H315 H 0.54133 0.36203 0.30296 0.0
C316 C 0.13539 0.56433 0.6307 0.0
C317 C 0.15413 0.55307 0.62091 0.0
C318 C 0.13419 0.57417 0.67386 0.0
C319 C 0.15224 0.57281 0.70794 0.0
C320 C 0.17115 0.56138 0.69828 0.0
C321 C 0.17182 0.55158 0.65483 0.0
C322 C 0.11366 0.58611 0.68297 0.0
C323 C 0.19079 0.55968 0.73378 0.0
C324 C 0.16979 0.62273 0.80903 0.0
C325 C 0.15049 0.60312 0.84114 0.0
C326 C 0.17052 0.61318 0.76543 0.0
C327 C 0.15137 0.58337 0.75372 0.0
C328 C 0.13152 0.56359 0.78584 0.0
C329 C 0.13137 0.5737 0.82924 0.0
C330 C 0.19203 0.63488 0.73206 0.0
C331 C 0.11064 0.53169 0.77445 0.0
H332 H 0.12166 0.56552 0.60456 0.0
H333 H 0.18638 0.54294 0.64736 0.0
H334 H 0.09799 0.5732 0.71 0.0
H335 H 0.12646 0.60925 0.69471 0.0
H336 H 0.10087 0.5854 0.65287 0.0
H337 H 0.20421 0.55021 0.72081 0.0
H338 H 0.20586 0.58201 0.7472 0.0
H339 H 0.17724 0.54595 0.76213 0.0
H340 H 0.18467 0.64548 0.81813 0.0
H341 H 0.1164 0.55847 0.85397 0.0
H342 H 0.18004 0.63607 0.70225 0.0
H343 H 0.20734 0.62734 0.72042 0.0
H344 H 0.20521 0.65736 0.74635 0.0
H345 H 0.09657 0.5302 0.74566 0.0
H346 H 0.09616 0.51931 0.80301 0.0
H347 H 0.12332 0.52081 0.7643 0.0
C348 C 0.55371 0.05119 0.01875 0.0
C349 C 0.58022 0.06978 0.99666 0.0
C350 C 0.54045 0.02054 0.01512 0.0
C351 C 0.55387 0.00821 0.98831 0.0
C352 C 0.5806 0.02683 0.96576 0.0
C353 C 0.5936 0.05751 0.97041 0.0
C354 C 0.512 0.00137 0.03988 0.0
C355 C 0.59528 0.01436 0.93647 0.0
C356 C 0.52921 0.92768 0.00927 0.0
C357 C 0.50733 0.91393 0.97661 0.0
C358 C 0.54515 0.95852 0.01285 0.0
C359 C 0.53915 0.97579 0.98278 0.0
C360 C 0.51764 0.96197 0.94899 0.0
C361 C 0.5019 0.9312 0.94646 0.0
C362 C 0.56779 0.97257 0.04952 0.0
C363 C 0.51075 0.97967 0.91616 0.0
H364 H 0.5434 0.06059 0.03937 0.0
H365 H 0.61412 0.07186 0.95336 0.0
H366 H 0.49418 0.98805 0.0157 0.0
H367 H 0.51455 0.98576 0.06201 0.0
H368 H 0.50499 0.01446 0.06054 0.0
H369 H 0.61624 0.03183 0.92176 0.0
H370 H 0.59997 -0.00082 0.95615 0.0
H371 H 0.58023 0.00131 0.90889 0.0
H372 H 0.53347 0.91436 0.03255 0.0
H373 H 0.48515 0.92064 0.92089 0.0
H374 H 0.56082 0.98435 0.07307 0.0
H375 H 0.5893 0.98914 0.0352 0.0
H376 H 0.57094 0.95614 0.06865 0.0
H377 H 0.50137 0.99166 0.93421 0.0
H378 H 0.49478 0.96561 0.89011 0.0
H379 H 0.53123 -0.0036 0.89946 0.0
C380 C 0.55336 0.62465 0.52592 0.0
C381 C 0.52967 0.6114 0.49587 0.0
C382 C 0.57241 0.61328 0.53208 0.0
C383 C 0.56746 0.58801 0.50779 0.0
C384 C 0.54469 0.57569 0.47543 0.0
C385 C 0.52611 0.58761 0.46976 0.0
C386 C 0.59673 0.62729 0.56637 0.0
C387 C 0.53881 0.5488 0.44866 0.0
C388 C 0.62215 0.56064 0.49977 0.0
C389 C 0.60974 0.53674 0.52949 0.0
C390 C 0.60967 0.57877 0.49416 0.0
C391 C 0.58415 0.57269 0.51875 0.0
C392 C 0.57277 0.54984 0.551 0.0
C393 C 0.58577 0.53216 0.55607 0.0
C394 C 0.62268 0.60319 0.45995 0.0
C395 C 0.54567 0.5428 0.57811 0.0
H396 H 0.55629 0.64316 0.54606 0.0
H397 H 0.50788 0.57734 0.44642 0.0
H398 H 0.59101 0.61262 0.59591 0.0
H399 H 0.61772 0.63021 0.55261 0.0
H400 H 0.60027 0.64904 0.57772 0.0
H401 H 0.52172 0.54328 0.42257 0.0
H402 H 0.55933 0.5523 0.43225 0.0
H403 H 0.53129 0.52961 0.47137 0.0
H404 H 0.6408 0.56437 0.47928 0.0
H405 H 0.57616 0.51378 0.57919 0.0
H406 H 0.62451 0.62372 0.47375 0.0
H407 H 0.60794 0.59682 0.43039 0.0
H408 H 0.64481 0.60783 0.44858 0.0
H409 H 0.54819 0.56301 0.59428 0.0
H410 H 0.54116 0.52608 0.60441 0.0
H411 H 0.52624 0.53423 0.55565 0.0
C412 C 0.05418 0.61962 0.96541 0.0
C413 C 0.06795 0.60969 0.99544 0.0
C414 C 0.02336 0.60635 0.96388 0.0
C415 C 0.00608 0.58256 0.99289 0.0
C416 C 0.01997 0.5737 0.02511 0.0
C417 C 0.05077 0.58745 0.02608 0.0
C418 C 0.00932 0.61667 0.92955 0.0
C419 C 0.00228 0.54847 0.0568 0.0
C420 C 0.92448 0.55138 0.01335 0.0
C421 C 0.91251 0.52557 0.98756 0.0
C422 C 0.95489 0.57127 0.01336 0.0
C423 C 0.97364 0.56501 0.9872 0.0
C424 C 0.96144 0.53998 0.95889 0.0
C425 C 0.93095 0.52058 0.9593 0.0
C426 C 0.96707 0.59798 0.04341 0.0
C427 C 0.98074 0.53261 0.93035 0.0
H428 H 0.0674 0.63691 0.94175 0.0
H429 H 0.06133 0.57978 0.04946 0.0
H430 H -0.00069 0.59993 0.90267 0.0
H431 H 0.9914 0.61923 0.94488 0.0
H432 H 0.02558 0.63795 0.91411 0.0
H433 H 0.01639 0.54574 0.08193 0.0
H434 H 0.98568 0.55196 0.07468 0.0
H435 H 0.99016 0.52766 0.03754 0.0
H436 H 0.91025 0.55543 0.03504 0.0
H437 H 0.92177 0.50072 0.93918 0.0
H438 H 0.98361 0.6179 0.02534 0.0
H439 H 0.97839 0.59469 0.07236 0.0
H440 H 0.94948 0.60204 0.05632 0.0
H441 H -0.00383 0.552 0.91017 0.0
H442 H 0.96768 0.51385 0.90739 0.0
H443 H 0.99423 0.52678 0.95221 0.0
C444 C 0.46764 0.05614 0.54182 0.0
C445 C 0.4628 0.07569 0.51604 0.0
C446 C 0.45137 0.02567 0.53415 0.0
C447 C 0.42978 0.01457 0.49992 0.0
C448 C 0.42344 0.03405 0.47588 0.0
C449 C 0.44004 0.06441 0.48425 0.0
C450 C 0.45855 0.00554 0.56085 0.0
C451 C 0.40043 0.02305 0.43942 0.0
C452 C 0.41935 0.94437 0.44629 0.0
C453 C 0.39451 0.92285 0.46897 0.0
C454 C 0.43029 0.97442 0.4547 0.0
C455 C 0.41603 0.9831 0.48658 0.0
C456 C 0.38994 0.96153 0.50765 0.0
C457 C 0.37946 0.93161 0.49856 0.0
C458 C 0.45802 -0.0032 0.43116 0.0
C459 C 0.374 0.96994 0.54155 0.0
H460 H 0.48514 0.06473 0.56651 0.0
H461 H 0.43611 0.07942 0.46432 0.0
H462 H 0.43812 0.98681 0.57462 0.0
H463 H 0.46887 0.99622 0.53864 0.0
H464 H 0.4739 0.01723 0.58892 0.0
H465 H 0.39546 0.04033 0.42803 0.0
H466 H 0.40842 0.01583 0.4103 0.0
H467 H 0.37971 0.00369 0.45108 0.0
H468 H 0.43102 0.93772 0.42332 0.0
H469 H 0.36022 0.91505 0.5162 0.0
H470 H 0.47608 0.00796 0.45589 0.0
H471 H 0.45453 0.01399 0.41528 0.0
H472 H 0.46523 0.9866 0.40506 0.0
H473 H 0.38762 0.97838 0.57224 0.0
H474 H 0.35227 0.95097 0.5509 0.0
H475 H 0.37061 0.98786 0.52841 0.0
C476 C 0.39714 0.46258 0.05286 0.0
C477 C 0.37497 0.45771 0.02212 0.0
C478 C 0.40992 0.44455 0.05317 0.0
C479 C 0.40009 0.42104 0.02218 0.0
C480 C 0.37605 0.41456 0.99363 0.0
C481 C 0.3638 0.43308 0.99383 0.0
C482 C 0.43543 0.45206 0.08435 0.0
C483 C 0.36465 0.38938 0.96069 0.0
C484 C 0.46022 0.40572 0.98465 0.0
C485 C 0.45536 0.38223 0.01254 0.0
C486 C 0.44154 0.41773 0.98616 0.0
C487 C 0.41735 0.4058 0.0161 0.0
C488 C 0.41131 0.38095 0.04239 0.0
C489 C 0.4305 0.36949 0.04041 0.0
C490 C 0.44865 0.44421 0.95745 0.0
C491 C 0.3855 0.36742 0.07421 0.0
H492 H 0.40573 0.4815 0.07495 0.0
H493 H 0.34647 0.4291 0.97022 0.0
H494 H 0.43213 0.4321 0.10231 0.0
H495 H 0.45605 0.46054 0.06462 0.0
H496 H 0.43839 0.46902 0.10938 0.0
H497 H 0.3431 0.38439 0.94619 0.0
H498 H 0.38071 0.39515 0.93298 0.0
H499 H 0.36218 0.3692 0.97689 0.0
H500 H 0.47936 0.41557 0.96297 0.0
H501 H 0.42661 0.35122 0.06192 0.0
H502 H 0.45471 0.46363 0.97912 0.0
H503 H 0.42904 0.44022 0.93774 0.0
H504 H 0.46715 0.44965 0.93401 0.0
H505 H 0.38979 0.38259 0.10275 0.0
H506 H 0.38152 0.34594 0.08758 0.0
H507 H 0.36516 0.3641 0.05737 0.0
C508 C 0.92864 0.3711 0.48813 0.0
C509 C 0.91827 0.38459 0.51801 0.0
C510 C 0.95893 0.38303 0.48039 0.0
C511 C 0.97922 0.40903 0.5031 0.0
C512 C 0.96893 0.42168 0.5353 0.0
C513 C 0.93855 0.40929 0.54238 0.0
C514 C 0.96907 0.36876 0.44615 0.0
C515 C 0.98993 0.44927 0.56054 0.0
C516 C 0.06124 0.43665 0.50838 0.0
C517 C 0.07215 0.46004 0.47771 0.0
C518 C 0.03086 0.41873 0.51537 0.0
C519 C 0.01099 0.42438 0.49111 0.0
C520 C 0.0218 0.44668 0.45796 0.0
C521 C 0.05231 0.46426 0.45163 0.0
C522 C 0.02017 0.39498 0.55066 0.0
C523 C 0.00124 0.45317 0.43108 0.0
H524 H 0.91304 0.35196 0.46922 0.0
H525 H 0.93065 0.41976 0.56557 0.0
H526 H 0.97747 0.38308 0.41617 0.0
H527 H 0.98744 0.36621 0.4596 0.0
H528 H 0.95098 0.3468 0.43557 0.0
H529 H 0.97859 0.45509 0.58668 0.0
H530 H 0.00747 0.44645 0.57667 0.0
H531 H 0.00084 0.46799 0.53686 0.0
H532 H 0.07649 0.43319 0.52852 0.0
H533 H 0.06062 0.48225 0.42782 0.0
H534 H 0.00164 0.37408 0.53773 0.0
H535 H 0.01182 0.40172 0.57989 0.0
H536 H 0.03796 0.39082 0.56226 0.0
H537 H 0.98341 0.43264 0.416 0.0
H538 H 0.0129 0.46937 0.40396 0.0
H539 H 0.99068 0.46216 0.45347 0.0
C540 C 0.58458 0.22846 0.97598 0.0
C541 C 0.57254 0.19806 0.97014 0.0
C542 C 0.56717 0.2417 0.97169 0.0
C543 C 0.53695 0.22413 0.9606 0.0
C544 C 0.52526 0.19386 0.9507 0.0
C545 C 0.5432 0.18105 0.95599 0.0
C546 C 0.58073 0.27416 0.98229 0.0
C547 C 0.49348 0.17455 0.93726 0.0
C548 C 0.49817 0.25872 0.01819 0.0
C549 C 0.50136 0.27962 0.98612 0.0
C550 C 0.50634 0.23757 0.00849 0.0
C551 C 0.51757 0.23721 0.96554 0.0
C552 C 0.51638 0.25518 0.93119 0.0
C553 C 0.50847 0.27647 0.94197 0.0
C554 C 0.50661 0.21834 0.04592 0.0
C555 C 0.52667 0.2543 0.88438 0.0
H556 H 0.60738 0.24179 0.9863 0.0
H557 H 0.53386 0.15755 0.95101 0.0
H558 H 0.57696 0.28582 0.95436 0.0
H559 H 0.57017 0.27708 0.01257 0.0
H560 H 0.60484 0.28485 0.98841 0.0
H561 H 0.49059 0.15551 0.91689 0.0
H562 H 0.47975 0.16572 0.96774 0.0
H563 H 0.48515 0.18702 0.91798 0.0
H564 H 0.49203 0.26064 0.05215 0.0
H565 H 0.51036 0.29217 0.91672 0.0
H566 H 0.52966 0.22663 0.05709 0.0
H567 H 0.4978 0.19536 0.03424 0.0
H568 H 0.49345 0.21826 0.07515 0.0
H569 H 0.55106 0.2677 0.88298 0.0
H570 H 0.51746 0.26346 0.85973 0.0
H571 H 0.52029 0.23143 0.87452 0.0
C572 C 0.3556 0.59147 0.46437 0.0
C573 C 0.37511 0.58118 0.45471 0.0
C574 C 0.32546 0.57423 0.45558 0.0
C575 C 0.31445 0.5459 0.43637 0.0
C576 C 0.33428 0.53612 0.42372 0.0
C577 C 0.3645 0.55389 0.43327 0.0
C578 C 0.30523 0.5858 0.46924 0.0
C579 C 0.3236 0.5064 0.4023 0.0
C580 C 0.2373 0.50099 0.47894 0.0
C581 C 0.22208 0.50786 0.44694 0.0
C582 C 0.26718 0.50997 0.47316 0.0
C583 C 0.28199 0.52608 0.4344 0.0
C584 C 0.26557 0.52893 0.39906 0.0
C585 C 0.23566 0.51983 0.4058 0.0
C586 C 0.28366 0.50572 0.51121 0.0
C587 C 0.2803 0.54482 0.35642 0.0
H588 H 0.36374 0.61272 0.4804 0.0
H589 H 0.37956 0.54591 0.42552 0.0
H590 H 0.2916 0.58521 0.44041 0.0
H591 H 0.29 0.57162 0.49587 0.0
H592 H 0.31752 0.60878 0.48199 0.0
H593 H 0.3414 0.50586 0.38275 0.0
H594 H 0.31646 0.48938 0.4288 0.0
H595 H 0.30451 0.50042 0.37995 0.0
H596 H 0.22669 0.49113 0.51042 0.0
H597 H 0.22386 0.52473 0.38053 0.0
H598 H 0.29648 0.52686 0.52946 0.0
H599 H 0.29945 0.49913 0.49843 0.0
H600 H 0.26849 0.48877 0.53528 0.0
H601 H 0.29099 0.56895 0.36203 0.0
H602 H 0.26412 0.53892 0.32879 0.0
H603 H 0.29765 0.53972 0.34604 0.0
C604 C 0.80662 0.35614 0.96148 0.0
C605 C 0.79014 0.36843 0.97862 0.0
C606 C 0.7937 0.32547 0.95562 0.0
C607 C 0.7638 0.30692 0.96755 0.0
C608 C 0.74687 0.31949 0.98307 0.0
C609 C 0.76025 0.35001 0.98832 0.0
C610 C 0.81244 0.31305 0.93855 0.0
C611 C 0.71478 0.30065 0.99579 0.0
C612 C 0.70925 0.22892 0.93755 0.0
C613 C 0.70518 0.21568 0.9797 0.0
C614 C 0.73158 0.25816 0.93072 0.0
C615 C 0.74992 0.27429 0.96699 0.0
C616 C 0.74881 0.25948 0.00718 0.0
C617 C 0.72641 0.2302 0.01305 0.0
C618 C 0.73293 0.27282 0.88667 0.0
C619 C 0.76855 0.27562 0.04626 0.0
H620 H 0.82977 0.37034 0.95391 0.0
H621 H 0.74733 0.35942 0.00116 0.0
H622 H 0.82082 0.30602 0.96736 0.0
H623 H 0.79954 0.2935 0.91696 0.0
H624 H 0.83173 0.32977 0.91938 0.0
H625 H 0.70463 0.31402 0.00611 0.0
H626 H 0.70203 0.28655 0.96719 0.0
H627 H 0.71264 0.28587 0.0239 0.0
H628 H 0.69329 0.21757 0.91122 0.0
H629 H 0.72379 0.21984 0.04541 0.0
H630 H 0.75604 0.28881 0.87748 0.0
H631 H 0.72078 0.28512 0.88965 0.0
H632 H 0.72271 0.2564 0.85933 0.0
H633 H 0.79142 0.29059 0.03487 0.0
H634 H 0.76882 0.26017 0.07148 0.0
H635 H 0.76044 0.28928 0.06271 0.0
C636 C 0.418 0.78295 0.39551 0.0
C637 C 0.433 0.8119 0.41178 0.0
C638 C 0.43107 0.7652 0.39697 0.0
C639 C 0.46011 0.7771 0.41375 0.0
C640 C 0.4769 0.80763 0.42294 0.0
C641 C 0.46295 0.82467 0.42268 0.0
C642 C 0.41241 0.73282 0.38626 0.0
C643 C 0.5086 0.82156 0.43771 0.0
C644 C 0.46719 0.72481 0.49294 0.0
C645 C 0.47707 0.71024 0.46451 0.0
C646 C 0.46288 0.74753 0.47711 0.0
C647 C 0.46962 0.7567 0.43194 0.0
C648 C 0.48211 0.74385 0.40409 0.0
C649 C 0.48516 0.72029 0.42049 0.0
C650 C 0.44913 0.76025 0.50807 0.0
C651 C 0.49092 0.75376 0.35643 0.0
H652 H 0.39495 0.77308 0.38636 0.0
H653 H 0.47486 0.84728 0.43435 0.0
H654 H 0.4247 0.72545 0.36457 0.0
H655 H 0.40692 0.71988 0.41773 0.0
H656 H 0.39151 0.7277 0.36925 0.0
H657 H 0.52044 0.84578 0.43237 0.0
H658 H 0.50947 0.81738 0.47389 0.0
H659 H 0.52024 0.8119 0.41934 0.0
H660 H 0.46096 0.71719 0.52704 0.0
H661 H 0.49308 0.70924 0.39847 0.0
H662 H 0.42774 0.75616 0.49416 0.0
H663 H 0.4636 0.78442 0.51106 0.0
H664 H 0.44517 0.75058 0.54217 0.0
H665 H 0.47212 0.74014 0.33393 0.0
H666 H 0.50964 0.75073 0.34603 0.0
H667 H 0.49724 0.77721 0.35171 0.0
C668 C 0.62069 0.43192 0.95996 0.0
C669 C 0.6084 0.40486 0.98248 0.0
C670 C 0.65108 0.44792 0.95065 0.0
C671 C 0.66936 0.43658 0.96464 0.0
C672 C 0.65667 0.40852 0.98525 0.0
C673 C 0.62639 0.39303 0.99377 0.0
C674 C 0.66366 0.47746 0.92787 0.0
C675 C 0.67526 0.39539 1.00047 0.0
C676 C 0.74718 0.45826 0.9331 0.0
C677 C 0.76172 0.47138 0.9732 0.0
C678 C 0.71738 0.44987 0.92712 0.0
C679 C 0.70201 0.45457 0.9622 0.0
C680 C 0.71769 0.47128 1.00006 0.0
C681 C 0.74745 0.47957 0.00504 0.0
C682 C 0.70167 0.43308 0.88552 0.0
C683 C 0.70227 0.47724 0.03795 0.0
H684 H 0.6068 0.44108 0.95096 0.0
H685 H 0.61694 0.37194 0.01069 0.0
H686 H 0.67321 0.49516 0.95343 0.0
H687 H 0.68153 0.48104 0.9043 0.0
H688 H 0.64642 0.47964 0.90933 0.0
H689 H 0.66173 0.37278 0.01413 0.0
H690 H 0.6885 0.39447 0.97219 0.0
H691 H 0.69085 0.4095 0.02681 0.0
H692 H 0.75824 0.45227 0.908 0.0
H693 H 0.75877 0.49022 0.03575 0.0
H694 H 0.68509 0.43908 0.87443 0.0
H695 H 0.68987 0.40912 0.89286 0.0
H696 H 0.71737 0.43725 0.8577 0.0
H697 H 0.6871 0.48454 0.02493 0.0
H698 H 0.71815 0.49428 0.06128 0.0
H699 H 0.68889 0.4566 0.0571 0.0
C700 C 0.23353 0.62922 0.44509 0.0
C701 C 0.2027 0.61378 0.44353 0.0
C702 C 0.24943 0.65986 0.44036 0.0
C703 C 0.23409 0.67554 0.43413 0.0
C704 C 0.20303 0.65988 0.42927 0.0
C705 C 0.18761 0.62902 0.43399 0.0
C706 C 0.28258 0.67556 0.44511 0.0
C707 C 0.18592 0.67576 0.42203 0.0
C708 C 0.27799 0.75015 0.4879 0.0
C709 C 0.29502 0.76713 0.45178 0.0
C710 C 0.25584 0.72081 0.48182 0.0
C711 C 0.25064 0.70819 0.43853 0.0
C712 C 0.2656 0.72615 0.40129 0.0
C713 C 0.28773 0.75552 0.40837 0.0
C714 C 0.24014 0.70257 0.52243 0.0
C715 C 0.26026 0.7137 0.35452 0.0
H716 H 0.24528 0.61741 0.45184 0.0
H717 H 0.16374 0.6171 0.4327 0.0
H718 H 0.29322 0.69112 0.41698 0.0
H719 H 0.28916 0.68862 0.47651 0.0
H720 H 0.29125 0.66001 0.44601 0.0
H721 H 0.16329 0.66064 0.4096 0.0
H722 H 0.18416 0.68536 0.45419 0.0
H723 H 0.19738 0.69413 0.39792 0.0
H724 H 0.28328 0.75916 0.52147 0.0
H725 H 0.30068 0.76862 0.38023 0.0
H726 H 0.24847 0.6872 0.52978 0.0
H727 H 0.21613 0.68911 0.51611 0.0
H728 H 0.24368 0.71645 0.55249 0.0
H729 H 0.27205 0.70116 0.34998 0.0
H730 H 0.26838 0.73139 0.32887 0.0
H731 H 0.23646 0.69828 0.34874 0.0
C732 C 0.76291 0.40375 0.53901 0.0
C733 C 0.79222 0.4139 0.55142 0.0
C734 C 0.74941 0.42063 0.54693 0.0
C735 C 0.76562 0.44848 0.56794 0.0
C736 C 0.79477 0.45825 0.58277 0.0
C737 C 0.80782 0.44081 0.57418 0.0
C738 C 0.71813 0.40909 0.53093 0.0
C739 C 0.81265 0.48757 0.6058 0.0
C740 C 0.73285 0.49357 0.5269 0.0
C741 C 0.71024 0.48576 0.55824 0.0
C742 C 0.75393 0.48473 0.53255 0.0
C743 C 0.75222 0.46772 0.57043 0.0
C744 C 0.73214 0.4636 0.60518 0.0
C745 C 0.71124 0.47267 0.59865 0.0
C746 C 0.77548 0.49028 0.49517 0.0
C747 C 0.73031 0.44649 0.64679 0.0
H748 H 0.75061 0.38278 0.5219 0.0
H749 H 0.83049 0.44869 0.58397 0.0
H750 H 0.70404 0.40877 0.55891 0.0
H751 H 0.7177 0.42385 0.50465 0.0
H752 H 0.70827 0.38647 0.5169 0.0
H753 H 0.83114 0.48841 0.62528 0.0
H754 H 0.82211 0.50528 0.58028 0.0
H755 H 0.79876 0.49233 0.62854 0.0
H756 H 0.73254 0.50424 0.49598 0.0
H757 H 0.69409 0.46699 0.62339 0.0
H758 H 0.76777 0.46976 0.47542 0.0
H759 H 0.79756 0.49653 0.50872 0.0
H760 H 0.77758 0.50794 0.47227 0.0
H761 H 0.71765 0.42256 0.6393 0.0
H762 H 0.71898 0.45113 0.67442 0.0
H763 H 0.75258 0.45173 0.65821 0.0
C764 C 0.36218 0.80515 0.0353 0.0
C765 C 0.37289 0.78734 0.01795 0.0
C766 C 0.33187 0.79356 0.04309 0.0
C767 C 0.312 0.76372 0.03243 0.0
C768 C 0.32302 0.74532 0.01749 0.0
C769 C 0.3533 0.75733 0.01078 0.0
C770 C 0.32117 0.8137 0.06036 0.0
C771 C 0.3027 0.71328 0.00582 0.0
C772 C 0.23197 0.71408 0.05944 0.0
C773 C 0.21956 0.71199 0.01706 0.0
C774 C 0.26192 0.73409 0.06723 0.0
C775 C 0.27963 0.75191 0.03163 0.0
C776 C 0.26619 0.75271 0.99094 0.0
C777 C 0.23618 0.73281 0.98426 0.0
C778 C 0.27518 0.73369 0.11182 0.0
C779 C 0.28415 0.77176 0.95232 0.0
H780 H 0.37729 0.82835 0.04125 0.0
H781 H 0.36148 0.74337 0.99784 0.0
H782 H 0.31487 0.82285 0.03169 0.0
H783 H 0.30153 0.80171 0.08213 0.0
H784 H 0.33869 0.83247 0.07944 0.0
H785 H 0.31495 0.70181 0.99627 0.0
H786 H 0.28826 0.70149 0.03462 0.0
H787 H 0.28826 0.71165 0.97747 0.0
H788 H 0.21907 0.69842 0.0853 0.0
H789 H 0.22654 0.7317 0.95171 0.0
H790 H 0.29271 0.75613 0.12145 0.0
H791 H 0.28535 0.71949 0.10948 0.0
H792 H 0.25821 0.72474 0.13859 0.0
H793 H 0.29988 0.79437 0.96391 0.0
H794 H 0.27003 0.77308 0.92571 0.0
H795 H 0.29717 0.76237 0.9375 0.0
C796 C 0.5049 0.24535 0.51667 0.0
C797 C 0.50895 0.22842 0.54921 0.0
C798 C 0.51376 0.27501 0.5246 0.0
C799 C 0.52689 0.2879 0.5661 0.0
C800 C 0.52714 0.26981 0.60111 0.0
C801 C 0.51819 0.24015 0.59222 0.0
C802 C 0.51247 0.29332 0.48658 0.0
C803 C 0.53998 0.28249 0.64632 0.0
C804 C 0.59287 0.36345 0.54889 0.0
C805 C 0.58118 0.38191 0.5577 0.0
C806 C 0.57578 0.33292 0.55408 0.0
C807 C 0.54617 0.32043 0.56859 0.0
C808 C 0.53481 0.33907 0.58051 0.0
C809 C 0.55249 0.36973 0.57476 0.0
C810 C 0.58902 0.31396 0.54141 0.0
C811 C 0.50358 0.32671 0.59689 0.0
H812 H 0.49723 0.2362 0.48361 0.0
H813 H 0.521 0.22705 0.61775 0.0
H814 H 0.50483 0.30845 0.49862 0.0
H815 H 0.5349 0.307 0.47243 0.0
H816 H 0.49759 0.2794 0.45936 0.0
H817 H 0.53226 0.26506 0.67235 0.0
H818 H 0.56436 0.29342 0.64455 0.0
H819 H 0.5341 0.2993 0.65662 0.0
H820 H 0.61518 0.3728 0.53627 0.0
H821 H 0.54341 0.38396 0.58181 0.0
H822 H 0.57732 0.30028 0.51185 0.0
H823 H 0.58636 0.29878 0.56917 0.0
H824 H 0.61284 0.32726 0.53321 0.0
H825 H 0.48843 0.31959 0.56778 0.0
H826 H 0.50076 0.34347 0.61571 0.0
H827 H 0.49691 0.30721 0.61862 0.0
C828 C 0.22415 0.5937 0.00623 0.0
C829 C 0.19468 0.58327 0.01801 0.0
C830 C 0.23784 0.57707 0.0148 0.0
C831 C 0.22169 0.54925 0.03589 0.0
C832 C 0.1923 0.53912 0.04976 0.0
C833 C 0.17904 0.55626 0.04048 0.0
C834 C 0.26933 0.5889 0.99966 0.0
C835 C 0.17449 0.50977 0.07274 0.0
C836 C 0.2556 0.50406 0.99969 0.0
C837 C 0.27752 0.51211 0.03232 0.0
C838 C 0.23457 0.51314 0.00305 0.0
C839 C 0.23554 0.53051 0.04003 0.0
C840 C 0.25497 0.53508 0.07597 0.0
C841 C 0.27589 0.52585 0.07165 0.0
C842 C 0.21385 0.50729 0.96433 0.0
C843 C 0.25605 0.55269 0.11661 0.0
H844 H 0.23642 0.61468 0.98922 0.0
H845 H 0.15625 0.54815 0.04973 0.0
H846 H 0.28323 0.58967 0.02823 0.0
H847 H 0.27027 0.57405 0.97401 0.0
H848 H 0.27904 0.61137 0.98518 0.0
H849 H 0.15483 0.50805 0.08984 0.0
H850 H 0.16683 0.49188 0.04755 0.0
H851 H 0.18805 0.50605 0.09761 0.0
H852 H 0.25643 0.49296 0.96955 0.0
H853 H 0.29251 0.53173 0.09737 0.0
H854 H 0.22204 0.52764 0.94404 0.0
H855 H 0.1915 0.50119 0.97644 0.0
H856 H 0.21223 0.48943 0.94228 0.0
H857 H 0.26858 0.57652 0.10841 0.0
H858 H 0.26711 0.54862 0.14522 0.0
H859 H 0.23356 0.54737 0.12696 0.0
C860 C 0.62445 0.19031 0.58116 0.0
C861 C 0.61232 0.20605 0.56088 0.0
C862 C 0.65502 0.20362 0.58844 0.0
C863 C 0.67365 0.2331 0.57459 0.0
C864 C 0.66114 0.24958 0.55701 0.0
C865 C 0.63066 0.23587 0.55058 0.0
C866 C 0.66736 0.18554 0.60842 0.0
C867 C 0.68008 0.28118 0.54207 0.0
C868 C 0.7539 0.28583 0.59748 0.0
C869 C 0.76591 0.28625 0.55535 0.0
C870 C 0.72414 0.26582 0.60671 0.0
C871 C 0.7062 0.24615 0.57284 0.0
C872 C 0.71928 0.24401 0.53258 0.0
C873 C 0.74907 0.26405 0.5244 0.0
C874 C 0.71128 0.26796 0.65078 0.0
C875 C 0.70109 0.22303 0.49579 0.0
H876 H 0.6103 0.16728 0.58945 0.0
H877 H 0.62135 0.24827 0.53548 0.0
H878 H 0.67479 0.17639 0.58112 0.0
H879 H 0.68664 0.19919 0.6301 0.0
H880 H 0.65047 0.16681 0.62832 0.0
H881 H 0.66675 0.29132 0.53149 0.0
H882 H 0.69496 0.29467 0.56949 0.0
H883 H 0.69409 0.28215 0.51349 0.0
H884 H 0.76694 0.30268 0.62187 0.0
H885 H 0.7584 0.26392 0.49207 0.0
H886 H 0.69429 0.24586 0.66267 0.0
H887 H 0.7005 0.28148 0.64641 0.0
H888 H 0.72858 0.27853 0.67684 0.0
H889 H 0.68605 0.20083 0.50953 0.0
H890 H 0.71508 0.22105 0.46959 0.0
H891 H 0.68729 0.23113 0.47979 0.0
C892 C 0.43985 0.62538 0.04668 0.0
C893 C 0.41107 0.61401 0.03034 0.0
C894 C 0.45872 0.65598 0.0509 0.0
C895 C 0.44851 0.67539 0.03788 0.0
C896 C 0.41893 0.6638 0.02366 0.0
C897 C 0.40062 0.63332 0.02028 0.0
C898 C 0.48982 0.66729 0.06716 0.0
C899 C 0.40688 0.68359 0.00979 0.0
C900 C 0.47596 0.75541 0.05812 0.0
C901 C 0.48437 0.76608 0.01443 0.0
C902 C 0.46823 0.72632 0.06879 0.0
C903 C 0.46866 0.70772 0.03478 0.0
C904 C 0.48176 0.71994 0.99299 0.0
C905 C 0.4896 0.74915 0.98333 0.0
C906 C 0.45595 0.71449 0.11456 0.0
C907 C 0.48354 0.70111 0.95624 0.0
H908 H 0.44799 0.61049 0.05471 0.0
H909 H 0.37828 0.62463 0.00814 0.0
H910 H 0.50438 0.67099 0.03801 0.0
H911 H 0.49837 0.68847 0.08537 0.0
H912 H 0.49119 0.65102 0.08943 0.0
H913 H 0.38316 0.67096 0.00067 0.0
H914 H 0.40953 0.69891 0.03736 0.0
H915 H 0.41935 0.6971 0.98055 0.0
H916 H 0.47259 0.76868 0.08275 0.0
H917 H 0.49684 0.75756 0.94981 0.0
H918 H 0.4622 0.69808 0.12555 0.0
H919 H 0.43153 0.70332 0.11335 0.0
H920 H 0.46379 0.73245 0.13975 0.0
H921 H 0.49119 0.6863 0.96963 0.0
H922 H 0.49865 0.71467 0.92899 0.0
H923 H 0.46127 0.68711 0.94173 0.0
loop_
_geom_bond_atom_site_label_1
_geom_bond_atom_site_label_2
_geom_bond_distance
_geom_bond_site_symmetry_2
_ccdc_geom_bond_type
In0 O1 2.296 . S
In0 O2 2.328 . S
In0 O6 2.266 1_554 S
In0 O7 2.324 1_554 S
In0 O8 2.265 1_554 S
In0 O9 2.326 . S
In0 O11 2.293 1_554 S
In0 O12 2.326 . S
O1 In0 2.296 . S
O1 C10 1.240 . S
O2 In0 2.328 . S
O2 C10 1.252 . S
C3 O6 1.252 . S
C3 O7 1.260 . S
C4 O11 1.240 . S
C4 O12 1.252 1_556 S
C5 O8 1.252 . S
C5 O9 1.260 1_556 S
O6 In0 2.266 1_556 S
O6 C3 1.252 . S
O7 In0 2.324 1_556 S
O7 C3 1.260 . S
O8 In0 2.265 1_556 S
O8 C5 1.252 . S
O9 In0 2.326 . S
O9 C5 1.260 1_554 S
C10 O1 1.240 . S
C10 O2 1.252 . S
O11 In0 2.293 1_556 S
O11 C4 1.240 . S
O12 In0 2.326 . S
O12 C4 1.252 1_554 S
In13 O14 2.294 . S
In13 O15 2.326 . S
In13 O19 2.266 . S
In13 O20 2.326 . S
In13 O21 2.266 . S
In13 O22 2.326 . S
In13 O24 2.294 . S
In13 O25 2.326 . S
O14 In13 2.294 . S
O14 C23 1.240 . S
O15 In13 2.326 . S
O15 C23 1.252 . S
C16 O19 1.252 . S
C16 O20 1.260 . S
C17 O24 1.240 . S
C17 O25 1.252 . S
C18 O21 1.252 . S
C18 O22 1.260 . S
O19 In13 2.266 . S
O19 C16 1.252 . S
O20 In13 2.326 . S
O20 C16 1.260 . S
O21 In13 2.266 . S
O21 C18 1.252 . S
O22 In13 2.326 . S
O22 C18 1.260 . S
C23 O14 1.240 . S
C23 O15 1.252 . S
O24 In13 2.294 . S
O24 C17 1.240 . S
O25 In13 2.326 . S
O25 C17 1.252 . S
In26 O27 2.293 1_554 S
In26 O28 2.326 . S
In26 O32 2.265 1_554 S
In26 O33 2.326 . S
In26 O34 2.266 1_554 S
In26 O35 2.324 1_554 S
In26 O37 2.296 . S
In26 O38 2.328 . S
O27 In26 2.293 1_556 S
O27 C36 1.240 . S
O28 In26 2.326 . S
O28 C36 1.252 1_554 S
C29 O32 1.252 . S
C29 O33 1.260 1_556 S
C30 O37 1.240 . S
C30 O38 1.252 . S
C31 O34 1.252 . S
C31 O35 1.260 . S
O32 In26 2.265 1_556 S
O32 C29 1.252 . S
O33 In26 2.326 . S
O33 C29 1.260 1_554 S
O34 In26 2.266 1_556 S
O34 C31 1.252 . S
O35 In26 2.324 1_556 S
O35 C31 1.260 . S
C36 O27 1.240 . S
C36 O28 1.252 1_556 S
O37 In26 2.296 . S
O37 C30 1.240 . S
O38 In26 2.328 . S
O38 C30 1.252 . S
In39 O40 2.294 . S
In39 O41 2.326 . S
In39 O45 2.266 . S
In39 O46 2.326 . S
In39 O47 2.266 . S
In39 O48 2.326 . S
In39 O50 2.294 . S
In39 O51 2.326 . S
O40 In39 2.294 . S
O40 C49 1.240 . S
O41 In39 2.326 . S
O41 C49 1.252 . S
C42 O45 1.252 . S
C42 O46 1.260 . S
C43 O50 1.240 . S
C43 O51 1.252 . S
C44 O47 1.252 . S
C44 O48 1.260 . S
O45 In39 2.266 . S
O45 C42 1.252 . S
O46 In39 2.326 . S
O46 C42 1.260 . S
O47 In39 2.266 . S
O47 C44 1.252 . S
O48 In39 2.326 . S
O48 C44 1.260 . S
C49 O40 1.240 . S
C49 O41 1.252 . S
O50 In39 2.294 . S
O50 C43 1.240 . S
O51 In39 2.326 . S
O51 C43 1.252 . S
In52 O53 2.296 . S
In52 O54 2.328 . S
In52 O58 2.266 1_554 S
In52 O59 2.324 1_554 S
In52 O60 2.265 1_554 S
In52 O61 2.326 . S
In52 O63 2.293 1_554 S
In52 O64 2.326 . S
O53 In52 2.296 . S
O53 C62 1.240 . S
O54 In52 2.328 . S
O54 C62 1.252 . S
C55 O58 1.252 . S
C55 O59 1.260 . S
C56 O63 1.240 . S
C56 O64 1.252 1_556 S
C57 O60 1.252 . S
C57 O61 1.260 1_556 S
O58 In52 2.266 1_556 S
O58 C55 1.252 . S
O59 In52 2.324 1_556 S
O59 C55 1.260 . S
O60 In52 2.265 1_556 S
O60 C57 1.252 . S
O61 In52 2.326 . S
O61 C57 1.260 1_554 S
C62 O53 1.240 . S
C62 O54 1.252 . S
O63 In52 2.293 1_556 S
O63 C56 1.240 . S
O64 In52 2.326 . S
O64 C56 1.252 1_554 S
In65 O66 2.294 . S
In65 O67 2.326 . S
In65 O71 2.266 . S
In65 O72 2.326 . S
In65 O73 2.266 . S
In65 O74 2.326 . S
In65 O76 2.294 . S
In65 O77 2.326 . S
O66 In65 2.294 . S
O66 C75 1.240 . S
O67 In65 2.326 . S
O67 C75 1.252 . S
C68 O71 1.252 . S
C68 O72 1.260 . S
C69 O76 1.240 . S
C69 O77 1.252 . S
C70 O73 1.252 . S
C70 O74 1.260 . S
O71 In65 2.266 . S
O71 C68 1.252 . S
O72 In65 2.326 . S
O72 C68 1.260 . S
O73 In65 2.266 . S
O73 C70 1.252 . S
O74 In65 2.326 . S
O74 C70 1.260 . S
C75 O66 1.240 . S
C75 O67 1.252 . S
O76 In65 2.294 . S
O76 C69 1.240 . S
O77 In65 2.326 . S
O77 C69 1.252 . S
In78 O79 2.294 . S
In78 O80 2.326 . S
In78 O84 2.266 . S
In78 O85 2.326 . S
In78 O86 2.266 . S
In78 O87 2.326 . S
In78 O89 2.294 . S
In78 O90 2.326 . S
O79 In78 2.294 . S
O79 C88 1.240 . S
O80 In78 2.326 . S
O80 C88 1.252 . S
C81 O84 1.252 . S
C81 O85 1.260 . S
C82 O89 1.240 . S
C82 O90 1.252 . S
C83 O86 1.252 . S
C83 O87 1.260 . S
O84 In78 2.266 . S
O84 C81 1.252 . S
O85 In78 2.326 . S
O85 C81 1.260 . S
O86 In78 2.266 . S
O86 C83 1.252 . S
O87 In78 2.326 . S
O87 C83 1.260 . S
C88 O79 1.240 . S
C88 O80 1.252 . S
O89 In78 2.294 . S
O89 C82 1.240 . S
O90 In78 2.326 . S
O90 C82 1.252 . S
In91 O92 2.293 1_556 S
In91 O93 2.326 . S
In91 O97 2.265 1_556 S
In91 O98 2.326 . S
In91 O99 2.266 1_556 S
In91 O100 2.324 1_556 S
In91 O102 2.296 . S
In91 O103 2.328 . S
O92 In91 2.293 1_554 S
O92 C101 1.240 . S
O93 In91 2.326 . S
O93 C101 1.252 1_556 S
C94 O97 1.252 . S
C94 O98 1.260 1_554 S
C95 O102 1.240 . S
C95 O103 1.252 . S
C96 O99 1.252 . S
C96 O100 1.260 . S
O97 In91 2.265 1_554 S
O97 C94 1.252 . S
O98 In91 2.326 . S
O98 C94 1.260 1_556 S
O99 In91 2.266 1_554 S
O99 C96 1.252 . S
O100 In91 2.324 1_554 S
O100 C96 1.260 . S
C101 O92 1.240 . S
C101 O93 1.252 1_554 S
O102 In91 2.296 . S
O102 C95 1.240 . S
O103 In91 2.328 . S
O103 C95 1.252 . S
In104 O105 2.294 . S
In104 O106 2.326 . S
In104 O110 2.266 . S
In104 O111 2.326 . S
In104 O112 2.266 . S
In104 O113 2.326 . S
In104 O115 2.294 . S
In104 O116 2.326 . S
O105 In104 2.294 . S
O105 C114 1.240 . S
O106 In104 2.326 . S
O106 C114 1.252 . S
C107 O110 1.252 . S
C107 O111 1.260 . S
C108 O115 1.240 . S
C108 O116 1.252 . S
C109 O112 1.252 . S
C109 O113 1.260 . S
O110 In104 2.266 . S
O110 C107 1.252 . S
O111 In104 2.326 . S
O111 C107 1.260 . S
O112 In104 2.266 . S
O112 C109 1.252 . S
O113 In104 2.326 . S
O113 C109 1.260 . S
C114 O105 1.240 . S
C114 O106 1.252 . S
O115 In104 2.294 . S
O115 C108 1.240 . S
O116 In104 2.326 . S
O116 C108 1.252 . S
In117 O118 2.293 1_556 S
In117 O119 2.326 . S
In117 O123 2.265 1_556 S
In117 O124 2.326 . S
In117 O125 2.266 1_556 S
In117 O126 2.324 1_556 S
In117 O128 2.296 . S
In117 O129 2.328 . S
O118 In117 2.293 1_554 S
O118 C127 1.240 . S
O119 In117 2.326 . S
O119 C127 1.252 1_556 S
C120 O123 1.252 . S
C120 O124 1.260 1_554 S
C121 O128 1.240 . S
C121 O129 1.252 . S
C122 O125 1.252 . S
C122 O126 1.260 . S
O123 In117 2.265 1_554 S
O123 C120 1.252 . S
O124 In117 2.326 . S
O124 C120 1.260 1_556 S
O125 In117 2.266 1_554 S
O125 C122 1.252 . S
O126 In117 2.324 1_554 S
O126 C122 1.260 . S
C127 O118 1.240 . S
C127 O119 1.252 1_554 S
O128 In117 2.296 . S
O128 C121 1.240 . S
O129 In117 2.328 . S
O129 C121 1.252 . S
In130 O131 2.294 . S
In130 O132 2.326 . S
In130 O136 2.266 . S
In130 O137 2.326 . S
In130 O138 2.266 . S
In130 O139 2.326 . S
In130 O141 2.294 . S
In130 O142 2.326 . S
O131 In130 2.294 . S
O131 C140 1.240 . S
O132 In130 2.326 . S
O132 C140 1.252 . S
C133 O136 1.252 . S
C133 O137 1.260 . S
C134 O141 1.240 . S
C134 O142 1.252 . S
C135 O138 1.252 . S
C135 O139 1.260 . S
O136 In130 2.266 . S
O136 C133 1.252 . S
O137 In130 2.326 . S
O137 C133 1.260 . S
O138 In130 2.266 . S
O138 C135 1.252 . S
O139 In130 2.326 . S
O139 C135 1.260 . S
C140 O131 1.240 . S
C140 O132 1.252 . S
O141 In130 2.294 . S
O141 C134 1.240 . S
O142 In130 2.326 . S
O142 C134 1.252 . S
In143 O144 2.293 1_556 S
In143 O145 2.326 . S
In143 O149 2.265 1_556 S
In143 O150 2.326 . S
In143 O151 2.266 1_556 S
In143 O152 2.324 1_556 S
In143 O154 2.296 . S
In143 O155 2.328 . S
O144 In143 2.293 1_554 S
O144 C153 1.240 . S
O145 In143 2.326 . S
O145 C153 1.252 1_556 S
C146 O149 1.252 . S
C146 O150 1.260 1_554 S
C147 O154 1.240 . S
C147 O155 1.252 . S
C148 O151 1.252 . S
C148 O152 1.260 . S
O149 In143 2.265 1_554 S
O149 C146 1.252 . S
O150 In143 2.326 . S
O150 C146 1.260 1_556 S
O151 In143 2.266 1_554 S
O151 C148 1.252 . S
O152 In143 2.324 1_554 S
O152 C148 1.260 . S
C153 O144 1.240 . S
C153 O145 1.252 1_554 S
O154 In143 2.296 . S
O154 C147 1.240 . S
O155 In143 2.328 . S
O155 C147 1.252 . S
C156 C157 1.391 . S
C156 C158 1.394 . S
C156 H172 0.931 . S
C157 C156 1.391 . S
C157 C161 1.376 . S
C158 C156 1.394 . S
C158 C159 1.369 . S
C158 C162 1.531 . S
C159 C158 1.369 . S
C159 C160 1.410 . S
C159 C167 1.503 . S
C160 C159 1.410 . S
C160 C161 1.392 . S
C160 C163 1.511 . S
C161 C157 1.376 . S
C161 C160 1.392 . S
C161 H173 0.929 . S
C162 C158 1.531 . S
C162 H174 0.960 . S
C162 H175 0.962 . S
C162 H176 0.960 . S
C163 C160 1.511 . S
C163 H177 0.961 . S
C163 H178 0.961 . S
C163 H179 0.961 . S
C164 C165 1.370 . S
C164 C166 1.363 . S
C164 H180 0.931 . S
C165 C164 1.370 . S
C165 C169 1.408 . S
C166 C164 1.363 . S
C166 C167 1.370 . S
C166 C170 1.524 . S
C167 C159 1.503 . S
C167 C166 1.370 . S
C167 C168 1.403 . S
C168 C167 1.403 . S
C168 C169 1.404 . S
C168 C171 1.539 . S
C169 C165 1.408 . S
C169 C168 1.404 . S
C169 H181 0.930 . S
C170 C166 1.524 . S
C170 H182 0.956 . S
C170 H183 0.961 . S
C170 H184 0.961 . S
C171 C168 1.539 . S
C171 H185 0.958 . S
C171 H186 0.961 . S
C171 H187 0.960 . S
H172 C156 0.931 . S
H173 C161 0.929 . S
H174 C162 0.960 . S
H175 C162 0.962 . S
H176 C162 0.960 . S
H177 C163 0.961 . S
H178 C163 0.961 . S
H179 C163 0.961 . S
H180 C164 0.931 . S
H181 C169 0.930 . S
H182 C170 0.956 . S
H183 C170 0.961 . S
H184 C170 0.961 . S
H185 C171 0.958 . S
H186 C171 0.961 . S
H187 C171 0.960 . S
C188 C189 1.391 . S
C188 C190 1.394 . S
C188 H204 0.931 . S
C189 C188 1.391 . S
C189 C193 1.376 . S
C190 C188 1.394 . S
C190 C191 1.369 . S
C190 C194 1.531 . S
C191 C190 1.369 . S
C191 C192 1.410 . S
C191 C199 1.503 . S
C192 C191 1.410 . S
C192 C193 1.392 . S
C192 C195 1.511 . S
C193 C189 1.376 . S
C193 C192 1.392 . S
C193 H205 0.929 . S
C194 C190 1.531 . S
C194 H206 0.960 . S
C194 H207 0.962 . S
C194 H208 0.960 . S
C195 C192 1.511 . S
C195 H209 0.961 . S
C195 H210 0.961 . S
C195 H211 0.961 . S
C196 C197 1.370 . S
C196 C198 1.363 . S
C196 H212 0.931 . S
C197 C196 1.370 . S
C197 C201 1.408 . S
C198 C196 1.363 . S
C198 C199 1.370 . S
C198 C202 1.524 . S
C199 C191 1.503 . S
C199 C198 1.370 . S
C199 C200 1.403 . S
C200 C199 1.403 . S
C200 C201 1.404 . S
C200 C203 1.539 . S
C201 C197 1.408 . S
C201 C200 1.404 . S
C201 H213 0.930 . S
C202 C198 1.524 . S
C202 H214 0.956 . S
C202 H215 0.961 . S
C202 H216 0.961 . S
C203 C200 1.539 . S
C203 H217 0.958 . S
C203 H218 0.961 . S
C203 H219 0.960 . S
H204 C188 0.931 . S
H205 C193 0.929 . S
H206 C194 0.960 . S
H207 C194 0.962 . S
H208 C194 0.960 . S
H209 C195 0.961 . S
H210 C195 0.961 . S
H211 C195 0.961 . S
H212 C196 0.931 . S
H213 C201 0.930 . S
H214 C202 0.956 . S
H215 C202 0.961 . S
H216 C202 0.961 . S
H217 C203 0.958 . S
H218 C203 0.961 . S
H219 C203 0.960 . S
C220 C221 1.391 . S
C220 C222 1.394 . S
C220 H236 0.931 . S
C221 C220 1.391 . S
C221 C225 1.376 . S
C222 C220 1.394 . S
C222 C223 1.369 . S
C222 C226 1.531 . S
C223 C222 1.369 . S
C223 C224 1.410 . S
C223 C231 1.503 . S
C224 C223 1.410 . S
C224 C225 1.392 . S
C224 C227 1.511 . S
C225 C221 1.376 . S
C225 C224 1.392 . S
C225 H237 0.929 . S
C226 C222 1.531 . S
C226 H238 0.960 . S
C226 H239 0.962 . S
C226 H240 0.960 . S
C227 C224 1.511 . S
C227 H241 0.961 . S
C227 H242 0.961 . S
C227 H243 0.961 . S
C228 C229 1.370 . S
C228 C230 1.363 . S
C228 H244 0.931 . S
C229 C228 1.370 . S
C229 C233 1.408 . S
C230 C228 1.363 . S
C230 C231 1.370 . S
C230 C234 1.524 . S
C231 C223 1.503 . S
C231 C230 1.370 . S
C231 C232 1.403 . S
C232 C231 1.403 . S
C232 C233 1.404 . S
C232 C235 1.539 . S
C233 C229 1.408 . S
C233 C232 1.404 . S
C233 H245 0.930 . S
C234 C230 1.524 . S
C234 H246 0.956 . S
C234 H247 0.961 . S
C234 H248 0.961 . S
C235 C232 1.539 . S
C235 H249 0.958 . S
C235 H250 0.961 . S
C235 H251 0.960 . S
H236 C220 0.931 . S
H237 C225 0.929 . S
H238 C226 0.960 . S
H239 C226 0.962 . S
H240 C226 0.960 . S
H241 C227 0.961 . S
H242 C227 0.961 . S
H243 C227 0.961 . S
H244 C228 0.931 . S
H245 C233 0.930 . S
H246 C234 0.956 . S
H247 C234 0.961 . S
H248 C234 0.961 . S
H249 C235 0.958 . S
H250 C235 0.961 . S
H251 C235 0.960 . S
C252 C253 1.391 . S
C252 C254 1.394 . S
C252 H268 0.931 . S
C253 C252 1.391 . S
C253 C257 1.376 . S
C254 C252 1.394 . S
C254 C255 1.369 . S
C254 C258 1.531 . S
C255 C254 1.369 . S
C255 C256 1.410 . S
C255 C263 1.503 . S
C256 C255 1.410 . S
C256 C257 1.392 . S
C256 C259 1.511 . S
C257 C253 1.376 . S
C257 C256 1.392 . S
C257 H269 0.929 . S
C258 C254 1.531 . S
C258 H270 0.960 . S
C258 H271 0.962 . S
C258 H272 0.960 . S
C259 C256 1.511 . S
C259 H273 0.961 . S
C259 H274 0.961 . S
C259 H275 0.961 . S
C260 C261 1.370 . S
C260 C262 1.363 . S
C260 H276 0.931 . S
C261 C260 1.370 . S
C261 C265 1.408 . S
C262 C260 1.363 . S
C262 C263 1.370 . S
C262 C266 1.524 . S
C263 C255 1.503 . S
C263 C262 1.370 . S
C263 C264 1.403 . S
C264 C263 1.403 . S
C264 C265 1.404 . S
C264 C267 1.539 . S
C265 C261 1.408 . S
C265 C264 1.404 . S
C265 H277 0.930 . S
C266 C262 1.524 . S
C266 H278 0.956 . S
C266 H279 0.961 . S
C266 H280 0.961 . S
C267 C264 1.539 . S
C267 H281 0.958 . S
C267 H282 0.961 . S
C267 H283 0.960 . S
H268 C252 0.931 . S
H269 C257 0.929 . S
H270 C258 0.960 . S
H271 C258 0.962 . S
H272 C258 0.960 . S
H273 C259 0.961 . S
H274 C259 0.961 . S
H275 C259 0.961 . S
H276 C260 0.931 . S
H277 C265 0.930 . S
H278 C266 0.956 . S
H279 C266 0.961 . S
H280 C266 0.961 . S
H281 C267 0.958 . S
H282 C267 0.961 . S
H283 C267 0.960 . S
C284 C285 1.391 . S
C284 C286 1.394 . S
C284 H300 0.931 . S
C285 C284 1.391 . S
C285 C289 1.376 . S
C286 C284 1.394 . S
C286 C287 1.369 . S
C286 C290 1.531 . S
C287 C286 1.369 . S
C287 C288 1.410 . S
C287 C295 1.503 . S
C288 C287 1.410 . S
C288 C289 1.392 . S
C288 C291 1.511 . S
C289 C285 1.376 . S
C289 C288 1.392 . S
C289 H301 0.929 . S
C290 C286 1.531 . S
C290 H302 0.960 . S
C290 H303 0.962 . S
C290 H304 0.960 . S
C291 C288 1.511 . S
C291 H305 0.961 . S
C291 H306 0.961 . S
C291 H307 0.961 . S
C292 C293 1.370 . S
C292 C294 1.363 . S
C292 H308 0.931 . S
C293 C292 1.370 . S
C293 C297 1.408 . S
C294 C292 1.363 . S
C294 C295 1.370 . S
C294 C298 1.524 . S
C295 C287 1.503 . S
C295 C294 1.370 . S
C295 C296 1.403 . S
C296 C295 1.403 . S
C296 C297 1.404 . S
C296 C299 1.539 . S
C297 C293 1.408 . S
C297 C296 1.404 . S
C297 H309 0.930 . S
C298 C294 1.524 . S
C298 H310 0.956 . S
C298 H311 0.961 . S
C298 H312 0.961 . S
C299 C296 1.539 . S
C299 H313 0.958 . S
C299 H314 0.961 . S
C299 H315 0.960 . S
H300 C284 0.931 . S
H301 C289 0.929 . S
H302 C290 0.960 . S
H303 C290 0.962 . S
H304 C290 0.960 . S
H305 C291 0.961 . S
H306 C291 0.961 . S
H307 C291 0.961 . S
H308 C292 0.931 . S
H309 C297 0.930 . S
H310 C298 0.956 . S
H311 C298 0.961 . S
H312 C298 0.961 . S
H313 C299 0.958 . S
H314 C299 0.961 . S
H315 C299 0.960 . S
C316 C317 1.391 . S
C316 C318 1.394 . S
C316 H332 0.931 . S
C317 C316 1.391 . S
C317 C321 1.376 . S
C318 C316 1.394 . S
C318 C319 1.369 . S
C318 C322 1.531 . S
C319 C318 1.369 . S
C319 C320 1.410 . S
C319 C327 1.503 . S
C320 C319 1.410 . S
C320 C321 1.392 . S
C320 C323 1.511 . S
C321 C317 1.376 . S
C321 C320 1.392 . S
C321 H333 0.929 . S
C322 C318 1.531 . S
C322 H334 0.960 . S
C322 H335 0.962 . S
C322 H336 0.960 . S
C323 C320 1.511 . S
C323 H337 0.961 . S
C323 H338 0.961 . S
C323 H339 0.961 . S
C324 C325 1.370 . S
C324 C326 1.363 . S
C324 H340 0.931 . S
C325 C324 1.370 . S
C325 C329 1.408 . S
C326 C324 1.363 . S
C326 C327 1.370 . S
C326 C330 1.524 . S
C327 C319 1.503 . S
C327 C326 1.370 . S
C327 C328 1.403 . S
C328 C327 1.403 . S
C328 C329 1.404 . S
C328 C331 1.539 . S
C329 C325 1.408 . S
C329 C328 1.404 . S
C329 H341 0.930 . S
C330 C326 1.524 . S
C330 H342 0.956 . S
C330 H343 0.961 . S
C330 H344 0.961 . S
C331 C328 1.539 . S
C331 H345 0.958 . S
C331 H346 0.961 . S
C331 H347 0.960 . S
H332 C316 0.931 . S
H333 C321 0.929 . S
H334 C322 0.960 . S
H335 C322 0.962 . S
H336 C322 0.960 . S
H337 C323 0.961 . S
H338 C323 0.961 . S
H339 C323 0.961 . S
H340 C324 0.931 . S
H341 C329 0.930 . S
H342 C330 0.956 . S
H343 C330 0.961 . S
H344 C330 0.961 . S
H345 C331 0.958 . S
H346 C331 0.961 . S
H347 C331 0.960 . S
C348 C349 1.380 1_554 S
C348 C350 1.397 . S
C348 H364 0.939 . S
C349 C348 1.380 1_556 S
C349 C353 1.376 . S
C350 C348 1.397 . S
C350 C351 1.369 1_554 S
C350 C354 1.531 . S
C351 C350 1.369 1_556 S
C351 C352 1.410 . S
C351 C359 1.499 1_546 S
C352 C351 1.410 . S
C352 C353 1.392 . S
C352 C355 1.511 . S
C353 C349 1.376 . S
C353 C352 1.392 . S
C353 H365 0.929 . S
C354 C350 1.531 . S
C354 H366 0.960 . S
C354 H367 0.962 . S
C354 H368 0.960 . S
C355 C352 1.511 . S
C355 H369 0.961 . S
C355 H370 0.961 1_545 S
C355 H371 0.961 1_545 S
C356 C357 1.370 . S
C356 C358 1.363 . S
C356 H372 0.931 . S
C357 C356 1.370 . S
C357 C361 1.408 1_554 S
C358 C356 1.363 . S
C358 C359 1.383 . S
C358 C362 1.524 . S
C359 C351 1.499 1_564 S
C359 C358 1.383 . S
C359 C360 1.395 1_554 S
C360 C359 1.395 1_556 S
C360 C361 1.404 . S
C360 C363 1.539 . S
C361 C357 1.408 1_556 S
C361 C360 1.404 . S
C361 H373 0.930 . S
C362 C358 1.524 . S
C362 H374 0.956 1_565 S
C362 H375 0.961 1_565 S
C362 H376 0.961 . S
C363 C360 1.539 . S
C363 H377 0.958 . S
C363 H378 0.961 . S
C363 H379 0.960 . S
H364 C348 0.939 . S
H365 C353 0.929 . S
H366 C354 0.960 . S
H367 C354 0.962 . S
H368 C354 0.960 . S
H369 C355 0.961 . S
H370 C355 0.961 1_565 S
H371 C355 0.961 1_565 S
H372 C356 0.931 . S
H373 C361 0.930 . S
H374 C362 0.956 1_545 S
H375 C362 0.961 1_545 S
H376 C362 0.961 . S
H377 C363 0.958 . S
H378 C363 0.961 . S
H379 C363 0.960 . S
C380 C381 1.391 . S
C380 C382 1.394 . S
C380 H396 0.931 . S
C381 C380 1.391 . S
C381 C385 1.376 . S
C382 C380 1.394 . S
C382 C383 1.369 . S
C382 C386 1.531 . S
C383 C382 1.369 . S
C383 C384 1.410 . S
C383 C391 1.503 . S
C384 C383 1.410 . S
C384 C385 1.392 . S
C384 C387 1.511 . S
C385 C381 1.376 . S
C385 C384 1.392 . S
C385 H397 0.929 . S
C386 C382 1.531 . S
C386 H398 0.960 . S
C386 H399 0.962 . S
C386 H400 0.960 . S
C387 C384 1.511 . S
C387 H401 0.961 . S
C387 H402 0.961 . S
C387 H403 0.961 . S
C388 C389 1.370 . S
C388 C390 1.363 . S
C388 H404 0.931 . S
C389 C388 1.370 . S
C389 C393 1.408 . S
C390 C388 1.363 . S
C390 C391 1.370 . S
C390 C394 1.524 . S
C391 C383 1.503 . S
C391 C390 1.370 . S
C391 C392 1.403 . S
C392 C391 1.403 . S
C392 C393 1.404 . S
C392 C395 1.539 . S
C393 C389 1.408 . S
C393 C392 1.404 . S
C393 H405 0.930 . S
C394 C390 1.524 . S
C394 H406 0.956 . S
C394 H407 0.961 . S
C394 H408 0.961 . S
C395 C392 1.539 . S
C395 H409 0.958 . S
C395 H410 0.961 . S
C395 H411 0.960 . S
H396 C380 0.931 . S
H397 C385 0.929 . S
H398 C386 0.960 . S
H399 C386 0.962 . S
H400 C386 0.960 . S
H401 C387 0.961 . S
H402 C387 0.961 . S
H403 C387 0.961 . S
H404 C388 0.931 . S
H405 C393 0.930 . S
H406 C394 0.956 . S
H407 C394 0.961 . S
H408 C394 0.961 . S
H409 C395 0.958 . S
H410 C395 0.961 . S
H411 C395 0.960 . S
C412 C413 1.391 . S
C412 C414 1.394 . S
C412 H428 0.931 . S
C413 C412 1.391 . S
C413 C417 1.376 . S
C414 C412 1.394 . S
C414 C415 1.369 1_554 S
C414 C418 1.531 . S
C415 C414 1.369 1_556 S
C415 C416 1.410 . S
C415 C423 1.503 1_455 S
C416 C415 1.410 . S
C416 C417 1.392 1_556 S
C416 C419 1.511 . S
C417 C413 1.376 . S
C417 C416 1.392 1_554 S
C417 H429 0.929 . S
C418 C414 1.531 . S
C418 H430 0.960 1_454 S
C418 H431 0.962 . S
C418 H432 0.960 . S
C419 C416 1.511 . S
C419 H433 0.961 . S
C419 H434 0.941 1_455 S
C419 H435 0.961 . S
C420 C421 1.370 1_554 S
C420 C422 1.363 . S
C420 H436 0.931 . S
C421 C420 1.370 1_556 S
C421 C425 1.408 . S
C422 C420 1.363 . S
C422 C423 1.370 1_554 S
C422 C426 1.524 . S
C423 C415 1.503 1_655 S
C423 C422 1.370 1_556 S
C423 C424 1.403 . S
C424 C423 1.403 . S
C424 C425 1.404 . S
C424 C427 1.539 . S
C425 C421 1.408 . S
C425 C424 1.404 . S
C425 H437 0.930 . S
C426 C422 1.524 . S
C426 H438 0.956 . S
C426 H439 0.961 . S
C426 H440 0.961 . S
C427 C424 1.539 . S
C427 H441 0.958 . S
C427 H442 0.961 . S
C427 H443 0.960 1_655 S
H428 C412 0.931 . S
H429 C417 0.929 . S
H430 C418 0.960 1_656 S
H431 C418 0.962 . S
H432 C418 0.960 . S
H433 C419 0.961 . S
H434 C419 0.941 1_655 S
H435 C419 0.961 . S
H436 C420 0.931 . S
H437 C425 0.930 . S
H438 C426 0.956 . S
H439 C426 0.961 . S
H440 C426 0.961 . S
H441 C427 0.958 . S
H442 C427 0.961 . S
H443 C427 0.960 1_455 S
C444 C445 1.391 . S
C444 C446 1.394 . S
C444 H460 0.931 . S
C445 C444 1.391 . S
C445 C449 1.376 . S
C446 C444 1.394 . S
C446 C447 1.369 . S
C446 C450 1.531 . S
C447 C446 1.369 . S
C447 C448 1.410 . S
C447 C455 1.503 1_545 S
C448 C447 1.410 . S
C448 C449 1.392 . S
C448 C451 1.511 . S
C449 C445 1.376 . S
C449 C448 1.392 . S
C449 H461 0.929 . S
C450 C446 1.531 . S
C450 H462 0.960 1_545 S
C450 H463 0.962 . S
C450 H464 0.960 . S
C451 C448 1.511 . S
C451 H465 0.961 . S
C451 H466 0.961 1_545 S
C451 H467 0.961 . S
C452 C453 1.370 . S
C452 C454 1.363 . S
C452 H468 0.931 . S
C453 C452 1.370 . S
C453 C457 1.408 . S
C454 C452 1.363 . S
C454 C455 1.370 . S
C454 C458 1.524 1_565 S
C455 C447 1.503 1_565 S
C455 C454 1.370 . S
C455 C456 1.403 . S
C456 C455 1.403 . S
C456 C457 1.404 . S
C456 C459 1.539 . S
C457 C453 1.408 . S
C457 C456 1.404 . S
C457 H469 0.930 . S
C458 C454 1.524 1_545 S
C458 H470 0.956 . S
C458 H471 0.961 . S
C458 H472 0.961 1_545 S
C459 C456 1.539 . S
C459 H473 0.958 . S
C459 H474 0.961 . S
C459 H475 0.960 . S
H460 C444 0.931 . S
H461 C449 0.929 . S
H462 C450 0.960 1_565 S
H463 C450 0.962 . S
H464 C450 0.960 . S
H465 C451 0.961 . S
H466 C451 0.961 1_565 S
H467 C451 0.961 . S
H468 C452 0.931 . S
H469 C457 0.930 . S
H470 C458 0.956 . S
H471 C458 0.961 . S
H472 C458 0.961 1_565 S
H473 C459 0.958 . S
H474 C459 0.961 . S
H475 C459 0.960 . S
C476 C477 1.391 . S
C476 C478 1.394 . S
C476 H492 0.931 . S
C477 C476 1.391 . S
C477 C481 1.376 1_554 S
C478 C476 1.394 . S
C478 C479 1.369 . S
C478 C482 1.531 . S
C479 C478 1.369 . S
C479 C480 1.410 1_554 S
C479 C487 1.499 1_554 S
C480 C479 1.410 1_556 S
C480 C481 1.392 . S
C480 C483 1.511 . S
C481 C477 1.376 1_556 S
C481 C480 1.392 . S
C481 H493 0.929 . S
C482 C478 1.531 . S
C482 H494 0.960 . S
C482 H495 0.962 . S
C482 H496 0.960 . S
C483 C480 1.511 . S
C483 H497 0.961 . S
C483 H498 0.961 . S
C483 H499 0.961 . S
C484 C485 1.370 . S
C484 C486 1.363 . S
C484 H500 0.931 . S
C485 C484 1.370 . S
C485 C489 1.408 1_556 S
C486 C484 1.363 . S
C486 C487 1.381 . S
C486 C490 1.524 . S
C487 C479 1.499 1_556 S
C487 C486 1.381 . S
C487 C488 1.396 1_556 S
C488 C487 1.396 1_554 S
C488 C489 1.404 . S
C488 C491 1.539 . S
C489 C485 1.408 1_554 S
C489 C488 1.404 . S
C489 H501 0.930 . S
C490 C486 1.524 . S
C490 H502 0.956 . S
C490 H503 0.961 . S
C490 H504 0.961 . S
C491 C488 1.539 . S
C491 H505 0.958 . S
C491 H506 0.961 . S
C491 H507 0.960 . S
H492 C476 0.931 . S
H493 C481 0.929 . S
H494 C482 0.960 . S
H495 C482 0.962 . S
H496 C482 0.960 . S
H497 C483 0.961 . S
H498 C483 0.961 . S
H499 C483 0.961 . S
H500 C484 0.931 . S
H501 C489 0.930 . S
H502 C490 0.956 . S
H503 C490 0.961 . S
H504 C490 0.961 . S
H505 C491 0.958 . S
H506 C491 0.961 . S
H507 C491 0.960 . S
C508 C509 1.391 . S
C508 C510 1.394 . S
C508 H524 0.931 . S
C509 C508 1.391 . S
C509 C513 1.376 . S
C510 C508 1.394 . S
C510 C511 1.369 . S
C510 C514 1.531 . S
C511 C510 1.369 . S
C511 C512 1.410 . S
C511 C519 1.503 1_655 S
C512 C511 1.410 . S
C512 C513 1.392 . S
C512 C515 1.511 . S
C513 C509 1.376 . S
C513 C512 1.392 . S
C513 H525 0.929 . S
C514 C510 1.531 . S
C514 H526 0.960 . S
C514 H527 0.962 . S
C514 H528 0.960 . S
C515 C512 1.511 . S
C515 H529 0.961 . S
C515 H530 0.961 1_655 S
C515 H531 0.961 . S
C516 C517 1.370 . S
C516 C518 1.363 . S
C516 H532 0.931 . S
C517 C516 1.370 . S
C517 C521 1.408 . S
C518 C516 1.363 . S
C518 C519 1.370 . S
C518 C522 1.524 . S
C519 C511 1.503 1_455 S
C519 C518 1.370 . S
C519 C520 1.403 . S
C520 C519 1.403 . S
C520 C521 1.404 . S
C520 C523 1.511 1_455 S
C521 C517 1.408 . S
C521 C520 1.404 . S
C521 H533 0.930 . S
C522 C518 1.524 . S
C522 H534 0.956 . S
C522 H535 0.961 . S
C522 H536 0.961 . S
C523 C520 1.511 1_655 S
C523 H537 0.950 . S
C523 H538 0.961 1_655 S
C523 H539 0.999 . S
H524 C508 0.931 . S
H525 C513 0.929 . S
H526 C514 0.960 . S
H527 C514 0.962 . S
H528 C514 0.960 . S
H529 C515 0.961 . S
H530 C515 0.961 1_455 S
H531 C515 0.961 . S
H532 C516 0.931 . S
H533 C521 0.930 . S
H534 C522 0.956 . S
H535 C522 0.961 . S
H536 C522 0.961 . S
H537 C523 0.950 . S
H538 C523 0.961 1_455 S
H539 C523 0.999 . S
C540 C541 1.391 1_554 S
C540 C542 1.394 . S
C540 H556 0.931 . S
C541 C540 1.391 1_556 S
C541 C545 1.376 . S
C542 C540 1.394 . S
C542 C543 1.369 1_554 S
C542 C546 1.531 . S
C543 C542 1.369 1_556 S
C543 C544 1.410 . S
C543 C551 1.503 . S
C544 C543 1.410 . S
C544 C545 1.392 . S
C544 C547 1.511 . S
C545 C541 1.376 . S
C545 C544 1.392 . S
C545 H557 0.929 . S
C546 C542 1.531 . S
C546 H558 0.960 . S
C546 H559 0.962 . S
C546 H560 0.960 . S
C547 C544 1.511 . S
C547 H561 0.961 . S
C547 H562 0.961 . S
C547 H563 0.961 . S
C548 C549 1.370 . S
C548 C550 1.363 . S
C548 H564 0.931 . S
C549 C548 1.370 . S
C549 C553 1.408 . S
C550 C548 1.363 . S
C550 C551 1.370 . S
C550 C554 1.524 . S
C551 C543 1.503 . S
C551 C550 1.370 . S
C551 C552 1.403 . S
C552 C551 1.403 . S
C552 C553 1.404 . S
C552 C555 1.539 . S
C553 C549 1.408 . S
C553 C552 1.404 . S
C553 H565 0.930 . S
C554 C550 1.524 . S
C554 H566 0.956 1_556 S
C554 H567 0.961 . S
C554 H568 0.961 . S
C555 C552 1.539 . S
C555 H569 0.958 . S
C555 H570 0.961 . S
C555 H571 0.960 . S
H556 C540 0.931 . S
H557 C545 0.929 . S
H558 C546 0.960 . S
H559 C546 0.962 . S
H560 C546 0.960 . S
H561 C547 0.961 . S
H562 C547 0.961 . S
H563 C547 0.961 . S
H564 C548 0.931 . S
H565 C553 0.930 . S
H566 C554 0.956 1_554 S
H567 C554 0.961 . S
H568 C554 0.961 . S
H569 C555 0.958 . S
H570 C555 0.961 . S
H571 C555 0.960 . S
C572 C573 1.391 . S
C572 C574 1.394 . S
C572 H588 0.931 . S
C573 C572 1.391 . S
C573 C577 1.376 . S
C574 C572 1.394 . S
C574 C575 1.369 . S
C574 C578 1.531 . S
C575 C574 1.369 . S
C575 C576 1.410 . S
C575 C583 1.503 . S
C576 C575 1.410 . S
C576 C577 1.392 . S
C576 C579 1.511 . S
C577 C573 1.376 . S
C577 C576 1.392 . S
C577 H589 0.929 . S
C578 C574 1.531 . S
C578 H590 0.960 . S
C578 H591 0.962 . S
C578 H592 0.960 . S
C579 C576 1.511 . S
C579 H593 0.961 . S
C579 H594 0.961 . S
C579 H595 0.961 . S
C580 C581 1.370 . S
C580 C582 1.363 . S
C580 H596 0.931 . S
C581 C580 1.370 . S
C581 C585 1.408 . S
C582 C580 1.363 . S
C582 C583 1.370 . S
C582 C586 1.524 . S
C583 C575 1.503 . S
C583 C582 1.370 . S
C583 C584 1.403 . S
C584 C583 1.403 . S
C584 C585 1.404 . S
C584 C587 1.539 . S
C585 C581 1.408 . S
C585 C584 1.404 . S
C585 H597 0.930 . S
C586 C582 1.524 . S
C586 H598 0.956 . S
C586 H599 0.961 . S
C586 H600 0.961 . S
C587 C584 1.539 . S
C587 H601 0.958 . S
C587 H602 0.961 . S
C587 H603 0.960 . S
H588 C572 0.931 . S
H589 C577 0.929 . S
H590 C578 0.960 . S
H591 C578 0.962 . S
H592 C578 0.960 . S
H593 C579 0.961 . S
H594 C579 0.961 . S
H595 C579 0.961 . S
H596 C580 0.931 . S
H597 C585 0.930 . S
H598 C586 0.956 . S
H599 C586 0.961 . S
H600 C586 0.961 . S
H601 C587 0.958 . S
H602 C587 0.961 . S
H603 C587 0.960 . S
C604 C605 1.391 1_554 S
C604 C606 1.394 1_554 S
C604 H620 0.931 . S
C605 C604 1.391 1_556 S
C605 C609 1.376 . S
C606 C604 1.394 1_556 S
C606 C607 1.369 . S
C606 C610 1.531 1_556 S
C607 C606 1.369 . S
C607 C608 1.410 . S
C607 C615 1.503 . S
C608 C607 1.410 . S
C608 C609 1.392 . S
C608 C611 1.511 . S
C609 C605 1.376 . S
C609 C608 1.392 . S
C609 H621 0.929 . S
C610 C606 1.531 1_554 S
C610 H622 0.960 . S
C610 H623 0.962 . S
C610 H624 0.960 . S
C611 C608 1.511 . S
C611 H625 0.961 . S
C611 H626 0.961 . S
C611 H627 0.961 . S
C612 C613 1.370 . S
C612 C614 1.363 . S
C612 H628 0.931 . S
C613 C612 1.370 . S
C613 C617 1.408 . S
C614 C612 1.363 . S
C614 C615 1.370 . S
C614 C618 1.524 . S
C615 C607 1.503 . S
C615 C614 1.370 . S
C615 C616 1.403 . S
C616 C615 1.403 . S
C616 C617 1.404 . S
C616 C619 1.539 1_556 S
C617 C613 1.408 . S
C617 C616 1.404 . S
C617 H629 0.930 1_556 S
C618 C614 1.524 . S
C618 H630 0.956 . S
C618 H631 0.961 . S
C618 H632 0.961 . S
C619 C616 1.539 1_554 S
C619 H633 0.958 . S
C619 H634 0.961 . S
C619 H635 0.960 . S
H620 C604 0.931 . S
H621 C609 0.929 . S
H622 C610 0.960 . S
H623 C610 0.962 . S
H624 C610 0.960 . S
H625 C611 0.961 . S
H626 C611 0.961 . S
H627 C611 0.961 . S
H628 C612 0.931 . S
H629 C617 0.930 1_554 S
H630 C618 0.956 . S
H631 C618 0.961 . S
H632 C618 0.961 . S
H633 C619 0.958 . S
H634 C619 0.961 . S
H635 C619 0.960 . S
C636 C637 1.391 . S
C636 C638 1.394 . S
C636 H652 0.931 . S
C637 C636 1.391 . S
C637 C641 1.376 . S
C638 C636 1.394 . S
C638 C639 1.369 . S
C638 C642 1.531 . S
C639 C638 1.369 . S
C639 C640 1.410 . S
C639 C647 1.503 . S
C640 C639 1.410 . S
C640 C641 1.392 . S
C640 C643 1.511 . S
C641 C637 1.376 . S
C641 C640 1.392 . S
C641 H653 0.929 . S
C642 C638 1.531 . S
C642 H654 0.960 . S
C642 H655 0.962 . S
C642 H656 0.960 . S
C643 C640 1.511 . S
C643 H657 0.961 . S
C643 H658 0.961 . S
C643 H659 0.961 . S
C644 C645 1.370 . S
C644 C646 1.363 . S
C644 H660 0.931 . S
C645 C644 1.370 . S
C645 C649 1.408 . S
C646 C644 1.363 . S
C646 C647 1.370 . S
C646 C650 1.524 . S
C647 C639 1.503 . S
C647 C646 1.370 . S
C647 C648 1.403 . S
C648 C647 1.403 . S
C648 C649 1.404 . S
C648 C651 1.539 . S
C649 C645 1.408 . S
C649 C648 1.404 . S
C649 H661 0.930 . S
C650 C646 1.524 . S
C650 H662 0.956 . S
C650 H663 0.961 . S
C650 H664 0.961 . S
C651 C648 1.539 . S
C651 H665 0.958 . S
C651 H666 0.961 . S
C651 H667 0.960 . S
H652 C636 0.931 . S
H653 C641 0.929 . S
H654 C642 0.960 . S
H655 C642 0.962 . S
H656 C642 0.960 . S
H657 C643 0.961 . S
H658 C643 0.961 . S
H659 C643 0.961 . S
H660 C644 0.931 . S
H661 C649 0.930 . S
H662 C650 0.956 . S
H663 C650 0.961 . S
H664 C650 0.961 . S
H665 C651 0.958 . S
H666 C651 0.961 . S
H667 C651 0.960 . S
C668 C669 1.391 . S
C668 C670 1.394 . S
C668 H684 0.928 1_556 S
C669 C668 1.391 . S
C669 C673 1.376 . S
C670 C668 1.394 . S
C670 C671 1.369 . S
C670 C674 1.531 . S
C671 C670 1.369 . S
C671 C672 1.410 . S
C671 C679 1.503 . S
C672 C671 1.410 . S
C672 C673 1.392 . S
C672 C675 1.511 . S
C673 C669 1.376 . S
C673 C672 1.392 . S
C673 H685 0.929 . S
C674 C670 1.531 . S
C674 H686 0.960 1_556 S
C674 H687 0.962 . S
C674 H688 0.960 1_556 S
C675 C672 1.511 . S
C675 H689 0.961 . S
C675 H690 0.961 . S
C675 H691 0.961 . S
C676 C677 1.370 . S
C676 C678 1.363 . S
C676 H692 0.931 . S
C677 C676 1.370 . S
C677 C681 1.408 . S
C678 C676 1.363 . S
C678 C679 1.370 . S
C678 C682 1.524 . S
C679 C671 1.503 . S
C679 C678 1.370 . S
C679 C680 1.408 . S
C680 C679 1.408 . S
C680 C681 1.405 . S
C680 C683 1.533 1_556 S
C681 C677 1.408 . S
C681 C680 1.405 . S
C681 H693 0.930 1_556 S
C682 C678 1.524 . S
C682 H694 0.956 . S
C682 H695 0.961 . S
C682 H696 0.961 . S
C683 C680 1.533 1_554 S
C683 H697 0.958 . S
C683 H698 0.961 . S
C683 H699 0.960 . S
H684 C668 0.928 1_554 S
H685 C673 0.929 . S
H686 C674 0.960 1_554 S
H687 C674 0.962 . S
H688 C674 0.960 1_554 S
H689 C675 0.961 . S
H690 C675 0.961 . S
H691 C675 0.961 . S
H692 C676 0.931 . S
H693 C681 0.930 1_554 S
H694 C682 0.956 . S
H695 C682 0.961 . S
H696 C682 0.961 . S
H697 C683 0.958 . S
H698 C683 0.961 . S
H699 C683 0.960 . S
C700 C701 1.391 . S
C700 C702 1.394 . S
C700 H716 0.931 . S
C701 C700 1.391 . S
C701 C705 1.376 . S
C702 C700 1.394 . S
C702 C703 1.369 . S
C702 C706 1.531 . S
C703 C702 1.369 . S
C703 C704 1.410 . S
C703 C711 1.503 . S
C704 C703 1.410 . S
C704 C705 1.392 . S
C704 C707 1.511 . S
C705 C701 1.376 . S
C705 C704 1.392 . S
C705 H717 0.929 . S
C706 C702 1.531 . S
C706 H718 0.960 . S
C706 H719 0.962 . S
C706 H720 0.960 . S
C707 C704 1.511 . S
C707 H721 0.961 . S
C707 H722 0.961 . S
C707 H723 0.961 . S
C708 C709 1.370 . S
C708 C710 1.363 . S
C708 H724 0.931 . S
C709 C708 1.370 . S
C709 C713 1.408 . S
C710 C708 1.363 . S
C710 C711 1.370 . S
C710 C714 1.524 . S
C711 C703 1.503 . S
C711 C710 1.370 . S
C711 C712 1.403 . S
C712 C711 1.403 . S
C712 C713 1.404 . S
C712 C715 1.539 . S
C713 C709 1.408 . S
C713 C712 1.404 . S
C713 H725 0.930 . S
C714 C710 1.524 . S
C714 H726 0.956 . S
C714 H727 0.961 . S
C714 H728 0.961 . S
C715 C712 1.539 . S
C715 H729 0.958 . S
C715 H730 0.961 . S
C715 H731 0.960 . S
H716 C700 0.931 . S
H717 C705 0.929 . S
H718 C706 0.960 . S
H719 C706 0.962 . S
H720 C706 0.960 . S
H721 C707 0.961 . S
H722 C707 0.961 . S
H723 C707 0.961 . S
H724 C708 0.931 . S
H725 C713 0.930 . S
H726 C714 0.956 . S
H727 C714 0.961 . S
H728 C714 0.961 . S
H729 C715 0.958 . S
H730 C715 0.961 . S
H731 C715 0.960 . S
C732 C733 1.391 . S
C732 C734 1.394 . S
C732 H748 0.931 . S
C733 C732 1.391 . S
C733 C737 1.376 . S
C734 C732 1.394 . S
C734 C735 1.369 . S
C734 C738 1.531 . S
C735 C734 1.369 . S
C735 C736 1.410 . S
C735 C743 1.503 . S
C736 C735 1.410 . S
C736 C737 1.392 . S
C736 C739 1.511 . S
C737 C733 1.376 . S
C737 C736 1.392 . S
C737 H749 0.929 . S
C738 C734 1.531 . S
C738 H750 0.960 . S
C738 H751 0.962 . S
C738 H752 0.960 . S
C739 C736 1.511 . S
C739 H753 0.961 . S
C739 H754 0.961 . S
C739 H755 0.961 . S
C740 C741 1.370 . S
C740 C742 1.363 . S
C740 H756 0.931 . S
C741 C740 1.370 . S
C741 C745 1.408 . S
C742 C740 1.363 . S
C742 C743 1.370 . S
C742 C746 1.524 . S
C743 C735 1.503 . S
C743 C742 1.370 . S
C743 C744 1.403 . S
C744 C743 1.403 . S
C744 C745 1.404 . S
C744 C747 1.539 . S
C745 C741 1.408 . S
C745 C744 1.404 . S
C745 H757 0.930 . S
C746 C742 1.524 . S
C746 H758 0.956 . S
C746 H759 0.961 . S
C746 H760 0.961 . S
C747 C744 1.539 . S
C747 H761 0.958 . S
C747 H762 0.961 . S
C747 H763 0.960 . S
H748 C732 0.931 . S
H749 C737 0.929 . S
H750 C738 0.960 . S
H751 C738 0.962 . S
H752 C738 0.960 . S
H753 C739 0.961 . S
H754 C739 0.961 . S
H755 C739 0.961 . S
H756 C740 0.931 . S
H757 C745 0.930 . S
H758 C746 0.956 . S
H759 C746 0.961 . S
H760 C746 0.961 . S
H761 C747 0.958 . S
H762 C747 0.961 . S
H763 C747 0.960 . S
C764 C765 1.391 . S
C764 C766 1.394 . S
C764 H780 0.931 1_554 S
C765 C764 1.391 . S
C765 C769 1.376 . S
C766 C764 1.394 . S
C766 C767 1.369 . S
C766 C770 1.531 1_554 S
C767 C766 1.369 . S
C767 C768 1.410 . S
C767 C775 1.503 . S
C768 C767 1.410 . S
C768 C769 1.392 . S
C768 C771 1.511 . S
C769 C765 1.376 . S
C769 C768 1.392 . S
C769 H781 0.929 . S
C770 C766 1.531 1_556 S
C770 H782 0.960 . S
C770 H783 0.962 1_556 S
C770 H784 0.960 . S
C771 C768 1.511 . S
C771 H785 0.961 . S
C771 H786 0.961 . S
C771 H787 0.961 . S
C772 C773 1.370 . S
C772 C774 1.363 . S
C772 H788 0.931 . S
C773 C772 1.370 . S
C773 C777 1.408 . S
C774 C772 1.363 . S
C774 C775 1.370 . S
C774 C778 1.524 . S
C775 C767 1.503 . S
C775 C774 1.370 . S
C775 C776 1.403 . S
C776 C775 1.403 . S
C776 C777 1.404 . S
C776 C779 1.539 1_554 S
C777 C773 1.408 . S
C777 C776 1.404 . S
C777 H789 0.930 1_554 S
C778 C774 1.524 . S
C778 H790 0.956 . S
C778 H791 0.961 . S
C778 H792 0.961 . S
C779 C776 1.539 1_556 S
C779 H793 0.958 . S
C779 H794 0.961 . S
C779 H795 0.960 . S
H780 C764 0.931 1_556 S
H781 C769 0.929 . S
H782 C770 0.960 . S
H783 C770 0.962 1_554 S
H784 C770 0.960 . S
H785 C771 0.961 . S
H786 C771 0.961 . S
H787 C771 0.961 . S
H788 C772 0.931 . S
H789 C777 0.930 1_556 S
H790 C778 0.956 . S
H791 C778 0.961 . S
H792 C778 0.961 . S
H793 C779 0.958 . S
H794 C779 0.961 . S
H795 C779 0.960 . S
C796 C797 1.391 . S
C796 C798 1.394 . S
C796 H812 0.931 . S
C797 C796 1.391 . S
C797 C801 1.376 . S
C798 C796 1.394 . S
C798 C799 1.369 . S
C798 C802 1.531 . S
C799 C798 1.369 . S
C799 C800 1.410 . S
C799 C807 1.503 . S
C800 C799 1.410 . S
C800 C801 1.392 . S
C800 C803 1.511 . S
C801 C797 1.376 . S
C801 C800 1.392 . S
C801 H813 0.929 . S
C802 C798 1.531 . S
C802 H814 0.960 . S
C802 H815 0.962 . S
C802 H816 0.960 . S
C803 C800 1.511 . S
C803 H817 0.961 . S
C803 H818 0.961 . S
C803 H819 0.961 . S
C804 C805 1.370 . S
C804 C806 1.363 . S
C804 H820 0.931 . S
C805 C804 1.370 . S
C805 C809 1.408 . S
C806 C804 1.363 . S
C806 C807 1.370 . S
C806 C810 1.524 . S
C807 C799 1.503 . S
C807 C806 1.370 . S
C807 C808 1.403 . S
C808 C807 1.403 . S
C808 C809 1.404 . S
C808 C811 1.539 . S
C809 C805 1.408 . S
C809 C808 1.404 . S
C809 H821 0.930 . S
C810 C806 1.524 . S
C810 H822 0.956 . S
C810 H823 0.961 . S
C810 H824 0.961 . S
C811 C808 1.539 . S
C811 H825 0.958 . S
C811 H826 0.961 . S
C811 H827 0.960 . S
H812 C796 0.931 . S
H813 C801 0.929 . S
H814 C802 0.960 . S
H815 C802 0.962 . S
H816 C802 0.960 . S
H817 C803 0.961 . S
H818 C803 0.961 . S
H819 C803 0.961 . S
H820 C804 0.931 . S
H821 C809 0.930 . S
H822 C810 0.956 . S
H823 C810 0.961 . S
H824 C810 0.961 . S
H825 C811 0.958 . S
H826 C811 0.961 . S
H827 C811 0.960 . S
C828 C829 1.391 . S
C828 C830 1.394 . S
C828 H844 0.931 . S
C829 C828 1.391 . S
C829 C833 1.376 . S
C830 C828 1.394 . S
C830 C831 1.369 . S
C830 C834 1.531 . S
C831 C830 1.369 . S
C831 C832 1.410 . S
C831 C839 1.503 . S
C832 C831 1.410 . S
C832 C833 1.392 . S
C832 C835 1.511 . S
C833 C829 1.376 . S
C833 C832 1.392 . S
C833 H845 0.929 . S
C834 C830 1.531 . S
C834 H846 0.960 . S
C834 H847 0.962 . S
C834 H848 0.960 . S
C835 C832 1.511 . S
C835 H849 0.961 1_554 S
C835 H850 0.961 . S
C835 H851 0.961 . S
C836 C837 1.370 . S
C836 C838 1.363 . S
C836 H852 0.931 1_554 S
C837 C836 1.370 . S
C837 C841 1.408 . S
C838 C836 1.363 . S
C838 C839 1.370 . S
C838 C842 1.524 1_554 S
C839 C831 1.503 . S
C839 C838 1.370 . S
C839 C840 1.403 . S
C840 C839 1.403 . S
C840 C841 1.404 . S
C840 C843 1.539 . S
C841 C837 1.408 . S
C841 C840 1.404 . S
C841 H853 0.930 . S
C842 C838 1.524 1_556 S
C842 H854 0.956 . S
C842 H855 0.961 . S
C842 H856 0.961 . S
C843 C840 1.539 . S
C843 H857 0.958 . S
C843 H858 0.961 . S
C843 H859 0.960 . S
H844 C828 0.931 . S
H845 C833 0.929 . S
H846 C834 0.960 . S
H847 C834 0.962 . S
H848 C834 0.960 . S
H849 C835 0.961 1_556 S
H850 C835 0.961 . S
H851 C835 0.961 . S
H852 C836 0.931 1_556 S
H853 C841 0.930 . S
H854 C842 0.956 . S
H855 C842 0.961 . S
H856 C842 0.961 . S
H857 C843 0.958 . S
H858 C843 0.961 . S
H859 C843 0.960 . S
C860 C861 1.391 . S
C860 C862 1.394 . S
C860 H876 0.931 . S
C861 C860 1.391 . S
C861 C865 1.376 . S
C862 C860 1.394 . S
C862 C863 1.369 . S
C862 C866 1.531 . S
C863 C862 1.369 . S
C863 C864 1.410 . S
C863 C871 1.503 . S
C864 C863 1.410 . S
C864 C865 1.392 . S
C864 C867 1.511 . S
C865 C861 1.376 . S
C865 C864 1.392 . S
C865 H877 0.929 . S
C866 C862 1.531 . S
C866 H878 0.960 . S
C866 H879 0.962 . S
C866 H880 0.960 . S
C867 C864 1.511 . S
C867 H881 0.961 . S
C867 H882 0.961 . S
C867 H883 0.961 . S
C868 C869 1.370 . S
C868 C870 1.363 . S
C868 H884 0.931 . S
C869 C868 1.370 . S
C869 C873 1.408 . S
C870 C868 1.363 . S
C870 C871 1.370 . S
C870 C874 1.524 . S
C871 C863 1.503 . S
C871 C870 1.370 . S
C871 C872 1.403 . S
C872 C871 1.403 . S
C872 C873 1.404 . S
C872 C875 1.539 . S
C873 C869 1.408 . S
C873 C872 1.404 . S
C873 H885 0.930 . S
C874 C870 1.524 . S
C874 H886 0.956 . S
C874 H887 0.961 . S
C874 H888 0.961 . S
C875 C872 1.539 . S
C875 H889 0.958 . S
C875 H890 0.961 . S
C875 H891 0.960 . S
H876 C860 0.931 . S
H877 C865 0.929 . S
H878 C866 0.960 . S
H879 C866 0.962 . S
H880 C866 0.960 . S
H881 C867 0.961 . S
H882 C867 0.961 . S
H883 C867 0.961 . S
H884 C868 0.931 . S
H885 C873 0.930 . S
H886 C874 0.956 . S
H887 C874 0.961 . S
H888 C874 0.961 . S
H889 C875 0.958 . S
H890 C875 0.961 . S
H891 C875 0.960 . S
C892 C893 1.391 . S
C892 C894 1.394 . S
C892 H908 0.931 1_554 S
C893 C892 1.391 . S
C893 C897 1.376 . S
C894 C892 1.394 . S
C894 C895 1.369 . S
C894 C898 1.531 1_554 S
C895 C894 1.369 . S
C895 C896 1.410 . S
C895 C903 1.503 . S
C896 C895 1.410 . S
C896 C897 1.392 . S
C896 C899 1.511 . S
C897 C893 1.376 . S
C897 C896 1.392 . S
C897 H909 0.929 . S
C898 C894 1.531 1_556 S
C898 H910 0.960 . S
C898 H911 0.962 1_556 S
C898 H912 0.960 . S
C899 C896 1.511 . S
C899 H913 0.961 . S
C899 H914 0.961 . S
C899 H915 0.961 . S
C900 C901 1.370 . S
C900 C902 1.363 . S
C900 H916 0.931 . S
C901 C900 1.370 . S
C901 C905 1.408 . S
C902 C900 1.363 . S
C902 C903 1.370 . S
C902 C906 1.524 . S
C903 C895 1.503 . S
C903 C902 1.370 . S
C903 C904 1.403 . S
C904 C903 1.403 . S
C904 C905 1.404 . S
C904 C907 1.539 1_554 S
C905 C901 1.408 . S
C905 C904 1.404 . S
C905 H917 0.930 1_554 S
C906 C902 1.524 . S
C906 H918 0.956 . S
C906 H919 0.961 . S
C906 H920 0.961 . S
C907 C904 1.539 1_556 S
C907 H921 0.958 . S
C907 H922 0.961 . S
C907 H923 0.960 . S
H908 C892 0.931 1_556 S
H909 C897 0.929 . S
H910 C898 0.960 . S
H911 C898 0.962 1_554 S
H912 C898 0.960 . S
H913 C899 0.961 . S
H914 C899 0.961 . S
H915 C899 0.961 . S
H916 C900 0.931 . S
H917 C905 0.930 1_556 S
H918 C906 0.956 . S
H919 C906 0.961 . S
H920 C906 0.961 . S
H921 C907 0.958 . S
H922 C907 0.961 . S
H923 C907 0.960 . S
C157 C140 1.684 . S
C165 C10 1.684 . S
C189 C23 1.694 . S
C197 C147 1.680 . S
C221 C30 1.690 . S
C229 C82 1.683 . S
C253 C95 1.678 . S
C261 C43 1.686 . S
C285 C108 1.662 . S
C293 C62 1.672 . S
C317 C69 1.671 . S
C325 C121 1.683 . S
C349 C4 1.068 . S
C357 C101 1.029 . S
C381 C17 1.028 . S
C389 C114 1.081 . S
C413 C127 1.002 . S
C421 C36 1.066 . S
C445 C134 1.119 . S
C453 C49 1.055 . S
C477 C153 1.081 . S
C485 C56 1.039 . S
C509 C88 1.023 . S
C517 C75 1.094 . S
C541 C5 1.172 . S
C549 C55 1.118 . S
C573 C18 1.225 . S
C581 C70 1.173 . S
C605 C29 1.166 . S
C613 C3 1.097 . S
C637 C42 1.242 . S
C645 C16 1.181 . S
C669 C57 1.170 . S
C677 C31 1.098 . S
C701 C68 1.239 . S
C709 C44 1.178 . S
C733 C81 1.216 . S
C741 C109 1.159 . S
C765 C94 1.169 . S
C773 C122 1.096 . S
C797 C133 1.205 . S
C805 C107 1.231 . S
C829 C120 1.198 . S
C837 C148 1.144 . S
C861 C135 1.218 . S
C869 C83 1.138 . S
C893 C146 1.167 . S
C901 C96 1.098 . S
