# Generated by pormake.
# Topology lcs-e, (6)-cn, num edge types: 1
# Building blocks:
#     Node 0, Type 0, BuildingBlock: KUMBOL_clean_sbu_0, # of connection points: 6
#     Node 1, Type 0, BuildingBlock: KUMBOL_clean_sbu_0, # of connection points: 6
#     Node 2, Type 0, BuildingBlock: KUMBOL_clean_sbu_0, # of connection points: 6
#     Node 3, Type 0, BuildingBlock: KUMBOL_clean_sbu_0, # of connection points: 6
#     Node 4, Type 0, BuildingBlock: KUMBOL_clean_sbu_0, # of connection points: 6
#     Node 5, Type 0, BuildingBlock: KUMBOL_clean_sbu_0, # of connection points: 6
#     Node 6, Type 0, BuildingBlock: KUMBOL_clean_sbu_0, # of connection points: 6
#     Node 7, Type 0, BuildingBlock: KUMBOL_clean_sbu_0, # of connection points: 6
#     Node 8, Type 0, BuildingBlock: KUMBOL_clean_sbu_0, # of connection points: 6
#     Node 9, Type 0, BuildingBlock: KUMBOL_clean_sbu_0, # of connection points: 6
#     Node 10, Type 0, BuildingBlock: KUMBOL_clean_sbu_0, # of connection points: 6
#     Node 11, Type 0, BuildingBlock: KUMBOL_clean_sbu_0, # of connection points: 6
#     Node 12, Type 0, BuildingBlock: KUMBOL_clean_sbu_0, # of connection points: 6
#     Node 13, Type 0, BuildingBlock: KUMBOL_clean_sbu_0, # of connection points: 6
#     Node 14, Type 0, BuildingBlock: KUMBOL_clean_sbu_0, # of connection points: 6
#     Node 15, Type 0, BuildingBlock: KUMBOL_clean_sbu_0, # of connection points: 6
#     Node 16, Type 0, BuildingBlock: KUMBOL_clean_sbu_0, # of connection points: 6
#     Node 17, Type 0, BuildingBlock: KUMBOL_clean_sbu_0, # of connection points: 6
#     Node 18, Type 0, BuildingBlock: KUMBOL_clean_sbu_0, # of connection points: 6
#     Node 19, Type 0, BuildingBlock: KUMBOL_clean_sbu_0, # of connection points: 6
#     Node 20, Type 0, BuildingBlock: KUMBOL_clean_sbu_0, # of connection points: 6
#     Node 21, Type 0, BuildingBlock: KUMBOL_clean_sbu_0, # of connection points: 6
#     Node 22, Type 0, BuildingBlock: KUMBOL_clean_sbu_0, # of connection points: 6
#     Node 23, Type 0, BuildingBlock: KUMBOL_clean_sbu_0, # of connection points: 6
#     Node 24, Type 0, BuildingBlock: KUMBOL_clean_sbu_0, # of connection points: 6
#     Node 25, Type 0, BuildingBlock: KUMBOL_clean_sbu_0, # of connection points: 6
#     Node 26, Type 0, BuildingBlock: KUMBOL_clean_sbu_0, # of connection points: 6
#     Node 27, Type 0, BuildingBlock: KUMBOL_clean_sbu_0, # of connection points: 6
#     Node 28, Type 0, BuildingBlock: KUMBOL_clean_sbu_0, # of connection points: 6
#     Node 29, Type 0, BuildingBlock: KUMBOL_clean_sbu_0, # of connection points: 6
#     Node 30, Type 0, BuildingBlock: KUMBOL_clean_sbu_0, # of connection points: 6
#     Node 31, Type 0, BuildingBlock: KUMBOL_clean_sbu_0, # of connection points: 6
#     Node 32, Type 0, BuildingBlock: KUMBOL_clean_sbu_0, # of connection points: 6
#     Node 33, Type 0, BuildingBlock: KUMBOL_clean_sbu_0, # of connection points: 6
#     Node 34, Type 0, BuildingBlock: KUMBOL_clean_sbu_0, # of connection points: 6
#     Node 35, Type 0, BuildingBlock: KUMBOL_clean_sbu_0, # of connection points: 6
#     Node 36, Type 0, BuildingBlock: KUMBOL_clean_sbu_0, # of connection points: 6
#     Node 37, Type 0, BuildingBlock: KUMBOL_clean_sbu_0, # of connection points: 6
#     Node 38, Type 0, BuildingBlock: KUMBOL_clean_sbu_0, # of connection points: 6
#     Node 39, Type 0, BuildingBlock: KUMBOL_clean_sbu_0, # of connection points: 6
#     Node 40, Type 0, BuildingBlock: KUMBOL_clean_sbu_0, # of connection points: 6
#     Node 41, Type 0, BuildingBlock: KUMBOL_clean_sbu_0, # of connection points: 6
#     Node 42, Type 0, BuildingBlock: KUMBOL_clean_sbu_0, # of connection points: 6
#     Node 43, Type 0, BuildingBlock: KUMBOL_clean_sbu_0, # of connection points: 6
#     Node 44, Type 0, BuildingBlock: KUMBOL_clean_sbu_0, # of connection points: 6
#     Node 45, Type 0, BuildingBlock: KUMBOL_clean_sbu_0, # of connection points: 6
#     Node 46, Type 0, BuildingBlock: KUMBOL_clean_sbu_0, # of connection points: 6
#     Node 47, Type 0, BuildingBlock: KUMBOL_clean_sbu_0, # of connection points: 6
#     Edge 48, Type (0, 0), BuildingBlock: XIVTED_clean_linker_0, # of connection points: 2
#     Edge 49, Type (0, 0), BuildingBlock: XIVTED_clean_linker_0, # of connection points: 2
#     Edge 50, Type (0, 0), BuildingBlock: XIVTED_clean_linker_0, # of connection points: 2
#     Edge 51, Type (0, 0), BuildingBlock: XIVTED_clean_linker_0, # of connection points: 2
#     Edge 52, Type (0, 0), BuildingBlock: XIVTED_clean_linker_0, # of connection points: 2
#     Edge 53, Type (0, 0), BuildingBlock: XIVTED_clean_linker_0, # of connection points: 2
#     Edge 54, Type (0, 0), BuildingBlock: XIVTED_clean_linker_0, # of connection points: 2
#     Edge 55, Type (0, 0), BuildingBlock: XIVTED_clean_linker_0, # of connection points: 2
#     Edge 56, Type (0, 0), BuildingBlock: XIVTED_clean_linker_0, # of connection points: 2
#     Edge 57, Type (0, 0), BuildingBlock: XIVTED_clean_linker_0, # of connection points: 2
#     Edge 58, Type (0, 0), BuildingBlock: XIVTED_clean_linker_0, # of connection points: 2
#     Edge 59, Type (0, 0), BuildingBlock: XIVTED_clean_linker_0, # of connection points: 2
#     Edge 60, Type (0, 0), BuildingBlock: XIVTED_clean_linker_0, # of connection points: 2
#     Edge 61, Type (0, 0), BuildingBlock: XIVTED_clean_linker_0, # of connection points: 2
#     Edge 62, Type (0, 0), BuildingBlock: XIVTED_clean_linker_0, # of connection points: 2
#     Edge 63, Type (0, 0), BuildingBlock: XIVTED_clean_linker_0, # of connection points: 2
#     Edge 64, Type (0, 0), BuildingBlock: XIVTED_clean_linker_0, # of connection points: 2
#     Edge 65, Type (0, 0), BuildingBlock: XIVTED_clean_linker_0, # of connection points: 2
#     Edge 66, Type (0, 0), BuildingBlock: XIVTED_clean_linker_0, # of connection points: 2
#     Edge 67, Type (0, 0), BuildingBlock: XIVTED_clean_linker_0, # of connection points: 2
#     Edge 68, Type (0, 0), BuildingBlock: XIVTED_clean_linker_0, # of connection points: 2
#     Edge 69, Type (0, 0), BuildingBlock: XIVTED_clean_linker_0, # of connection points: 2
#     Edge 70, Type (0, 0), BuildingBlock: XIVTED_clean_linker_0, # of connection points: 2
#     Edge 71, Type (0, 0), BuildingBlock: XIVTED_clean_linker_0, # of connection points: 2
#     Edge 72, Type (0, 0), BuildingBlock: XIVTED_clean_linker_0, # of connection points: 2
#     Edge 73, Type (0, 0), BuildingBlock: XIVTED_clean_linker_0, # of connection points: 2
#     Edge 74, Type (0, 0), BuildingBlock: XIVTED_clean_linker_0, # of connection points: 2
#     Edge 75, Type (0, 0), BuildingBlock: XIVTED_clean_linker_0, # of connection points: 2
#     Edge 76, Type (0, 0), BuildingBlock: XIVTED_clean_linker_0, # of connection points: 2
#     Edge 77, Type (0, 0), BuildingBlock: XIVTED_clean_linker_0, # of connection points: 2
#     Edge 78, Type (0, 0), BuildingBlock: XIVTED_clean_linker_0, # of connection points: 2
#     Edge 79, Type (0, 0), BuildingBlock: XIVTED_clean_linker_0, # of connection points: 2
#     Edge 80, Type (0, 0), BuildingBlock: XIVTED_clean_linker_0, # of connection points: 2
#     Edge 81, Type (0, 0), BuildingBlock: XIVTED_clean_linker_0, # of connection points: 2
#     Edge 82, Type (0, 0), BuildingBlock: XIVTED_clean_linker_0, # of connection points: 2
#     Edge 83, Type (0, 0), BuildingBlock: XIVTED_clean_linker_0, # of connection points: 2
#     Edge 84, Type (0, 0), BuildingBlock: XIVTED_clean_linker_0, # of connection points: 2
#     Edge 85, Type (0, 0), BuildingBlock: XIVTED_clean_linker_0, # of connection points: 2
#     Edge 86, Type (0, 0), BuildingBlock: XIVTED_clean_linker_0, # of connection points: 2
#     Edge 87, Type (0, 0), BuildingBlock: XIVTED_clean_linker_0, # of connection points: 2
#     Edge 88, Type (0, 0), BuildingBlock: XIVTED_clean_linker_0, # of connection points: 2
#     Edge 89, Type (0, 0), BuildingBlock: XIVTED_clean_linker_0, # of connection points: 2
#     Edge 90, Type (0, 0), BuildingBlock: XIVTED_clean_linker_0, # of connection points: 2
#     Edge 91, Type (0, 0), BuildingBlock: XIVTED_clean_linker_0, # of connection points: 2
#     Edge 92, Type (0, 0), BuildingBlock: XIVTED_clean_linker_0, # of connection points: 2
#     Edge 93, Type (0, 0), BuildingBlock: XIVTED_clean_linker_0, # of connection points: 2
#     Edge 94, Type (0, 0), BuildingBlock: XIVTED_clean_linker_0, # of connection points: 2
#     Edge 95, Type (0, 0), BuildingBlock: XIVTED_clean_linker_0, # of connection points: 2
#     Edge 96, Type (0, 0), BuildingBlock: XIVTED_clean_linker_0, # of connection points: 2
#     Edge 97, Type (0, 0), BuildingBlock: XIVTED_clean_linker_0, # of connection points: 2
#     Edge 98, Type (0, 0), BuildingBlock: XIVTED_clean_linker_0, # of connection points: 2
#     Edge 99, Type (0, 0), BuildingBlock: XIVTED_clean_linker_0, # of connection points: 2
#     Edge 100, Type (0, 0), BuildingBlock: XIVTED_clean_linker_0, # of connection points: 2
#     Edge 101, Type (0, 0), BuildingBlock: XIVTED_clean_linker_0, # of connection points: 2
#     Edge 102, Type (0, 0), BuildingBlock: XIVTED_clean_linker_0, # of connection points: 2
#     Edge 103, Type (0, 0), BuildingBlock: XIVTED_clean_linker_0, # of connection points: 2
#     Edge 104, Type (0, 0), BuildingBlock: XIVTED_clean_linker_0, # of connection points: 2
#     Edge 105, Type (0, 0), BuildingBlock: XIVTED_clean_linker_0, # of connection points: 2
#     Edge 106, Type (0, 0), BuildingBlock: XIVTED_clean_linker_0, # of connection points: 2
#     Edge 107, Type (0, 0), BuildingBlock: XIVTED_clean_linker_0, # of connection points: 2
#     Edge 108, Type (0, 0), BuildingBlock: XIVTED_clean_linker_0, # of connection points: 2
#     Edge 109, Type (0, 0), BuildingBlock: XIVTED_clean_linker_0, # of connection points: 2
#     Edge 110, Type (0, 0), BuildingBlock: XIVTED_clean_linker_0, # of connection points: 2
#     Edge 111, Type (0, 0), BuildingBlock: XIVTED_clean_linker_0, # of connection points: 2
#     Edge 112, Type (0, 0), BuildingBlock: XIVTED_clean_linker_0, # of connection points: 2
#     Edge 113, Type (0, 0), BuildingBlock: XIVTED_clean_linker_0, # of connection points: 2
#     Edge 114, Type (0, 0), BuildingBlock: XIVTED_clean_linker_0, # of connection points: 2
#     Edge 115, Type (0, 0), BuildingBlock: XIVTED_clean_linker_0, # of connection points: 2
#     Edge 116, Type (0, 0), BuildingBlock: XIVTED_clean_linker_0, # of connection points: 2
#     Edge 117, Type (0, 0), BuildingBlock: XIVTED_clean_linker_0, # of connection points: 2
#     Edge 118, Type (0, 0), BuildingBlock: XIVTED_clean_linker_0, # of connection points: 2
#     Edge 119, Type (0, 0), BuildingBlock: XIVTED_clean_linker_0, # of connection points: 2
#     Edge 120, Type (0, 0), BuildingBlock: XIVTED_clean_linker_0, # of connection points: 2
#     Edge 121, Type (0, 0), BuildingBlock: XIVTED_clean_linker_0, # of connection points: 2
#     Edge 122, Type (0, 0), BuildingBlock: XIVTED_clean_linker_0, # of connection points: 2
#     Edge 123, Type (0, 0), BuildingBlock: XIVTED_clean_linker_0, # of connection points: 2
#     Edge 124, Type (0, 0), BuildingBlock: XIVTED_clean_linker_0, # of connection points: 2
#     Edge 125, Type (0, 0), BuildingBlock: XIVTED_clean_linker_0, # of connection points: 2
#     Edge 126, Type (0, 0), BuildingBlock: XIVTED_clean_linker_0, # of connection points: 2
#     Edge 127, Type (0, 0), BuildingBlock: XIVTED_clean_linker_0, # of connection points: 2
#     Edge 128, Type (0, 0), BuildingBlock: XIVTED_clean_linker_0, # of connection points: 2
#     Edge 129, Type (0, 0), BuildingBlock: XIVTED_clean_linker_0, # of connection points: 2
#     Edge 130, Type (0, 0), BuildingBlock: XIVTED_clean_linker_0, # of connection points: 2
#     Edge 131, Type (0, 0), BuildingBlock: XIVTED_clean_linker_0, # of connection points: 2
#     Edge 132, Type (0, 0), BuildingBlock: XIVTED_clean_linker_0, # of connection points: 2
#     Edge 133, Type (0, 0), BuildingBlock: XIVTED_clean_linker_0, # of connection points: 2
#     Edge 134, Type (0, 0), BuildingBlock: XIVTED_clean_linker_0, # of connection points: 2
#     Edge 135, Type (0, 0), BuildingBlock: XIVTED_clean_linker_0, # of connection points: 2
#     Edge 136, Type (0, 0), BuildingBlock: XIVTED_clean_linker_0, # of connection points: 2
#     Edge 137, Type (0, 0), BuildingBlock: XIVTED_clean_linker_0, # of connection points: 2
#     Edge 138, Type (0, 0), BuildingBlock: XIVTED_clean_linker_0, # of connection points: 2
#     Edge 139, Type (0, 0), BuildingBlock: XIVTED_clean_linker_0, # of connection points: 2
#     Edge 140, Type (0, 0), BuildingBlock: XIVTED_clean_linker_0, # of connection points: 2
#     Edge 141, Type (0, 0), BuildingBlock: XIVTED_clean_linker_0, # of connection points: 2
#     Edge 142, Type (0, 0), BuildingBlock: XIVTED_clean_linker_0, # of connection points: 2
#     Edge 143, Type (0, 0), BuildingBlock: XIVTED_clean_linker_0, # of connection points: 2
#     Edge 144, Type (0, 0), BuildingBlock: XIVTED_clean_linker_0, # of connection points: 2
#     Edge 145, Type (0, 0), BuildingBlock: XIVTED_clean_linker_0, # of connection points: 2
#     Edge 146, Type (0, 0), BuildingBlock: XIVTED_clean_linker_0, # of connection points: 2
#     Edge 147, Type (0, 0), BuildingBlock: XIVTED_clean_linker_0, # of connection points: 2
#     Edge 148, Type (0, 0), BuildingBlock: XIVTED_clean_linker_0, # of connection points: 2
#     Edge 149, Type (0, 0), BuildingBlock: XIVTED_clean_linker_0, # of connection points: 2
#     Edge 150, Type (0, 0), BuildingBlock: XIVTED_clean_linker_0, # of connection points: 2
#     Edge 151, Type (0, 0), BuildingBlock: XIVTED_clean_linker_0, # of connection points: 2
#     Edge 152, Type (0, 0), BuildingBlock: XIVTED_clean_linker_0, # of connection points: 2
#     Edge 153, Type (0, 0), BuildingBlock: XIVTED_clean_linker_0, # of connection points: 2
#     Edge 154, Type (0, 0), BuildingBlock: XIVTED_clean_linker_0, # of connection points: 2
#     Edge 155, Type (0, 0), BuildingBlock: XIVTED_clean_linker_0, # of connection points: 2
#     Edge 156, Type (0, 0), BuildingBlock: XIVTED_clean_linker_0, # of connection points: 2
#     Edge 157, Type (0, 0), BuildingBlock: XIVTED_clean_linker_0, # of connection points: 2
#     Edge 158, Type (0, 0), BuildingBlock: XIVTED_clean_linker_0, # of connection points: 2
#     Edge 159, Type (0, 0), BuildingBlock: XIVTED_clean_linker_0, # of connection points: 2
#     Edge 160, Type (0, 0), BuildingBlock: XIVTED_clean_linker_0, # of connection points: 2
#     Edge 161, Type (0, 0), BuildingBlock: XIVTED_clean_linker_0, # of connection points: 2
#     Edge 162, Type (0, 0), BuildingBlock: XIVTED_clean_linker_0, # of connection points: 2
#     Edge 163, Type (0, 0), BuildingBlock: XIVTED_clean_linker_0, # of connection points: 2
#     Edge 164, Type (0, 0), BuildingBlock: XIVTED_clean_linker_0, # of connection points: 2
#     Edge 165, Type (0, 0), BuildingBlock: XIVTED_clean_linker_0, # of connection points: 2
#     Edge 166, Type (0, 0), BuildingBlock: XIVTED_clean_linker_0, # of connection points: 2
#     Edge 167, Type (0, 0), BuildingBlock: XIVTED_clean_linker_0, # of connection points: 2
#     Edge 168, Type (0, 0), BuildingBlock: XIVTED_clean_linker_0, # of connection points: 2
#     Edge 169, Type (0, 0), BuildingBlock: XIVTED_clean_linker_0, # of connection points: 2
#     Edge 170, Type (0, 0), BuildingBlock: XIVTED_clean_linker_0, # of connection points: 2
#     Edge 171, Type (0, 0), BuildingBlock: XIVTED_clean_linker_0, # of connection points: 2
#     Edge 172, Type (0, 0), BuildingBlock: XIVTED_clean_linker_0, # of connection points: 2
#     Edge 173, Type (0, 0), BuildingBlock: XIVTED_clean_linker_0, # of connection points: 2
#     Edge 174, Type (0, 0), BuildingBlock: XIVTED_clean_linker_0, # of connection points: 2
#     Edge 175, Type (0, 0), BuildingBlock: XIVTED_clean_linker_0, # of connection points: 2
#     Edge 176, Type (0, 0), BuildingBlock: XIVTED_clean_linker_0, # of connection points: 2
#     Edge 177, Type (0, 0), BuildingBlock: XIVTED_clean_linker_0, # of connection points: 2
#     Edge 178, Type (0, 0), BuildingBlock: XIVTED_clean_linker_0, # of connection points: 2
#     Edge 179, Type (0, 0), BuildingBlock: XIVTED_clean_linker_0, # of connection points: 2
#     Edge 180, Type (0, 0), BuildingBlock: XIVTED_clean_linker_0, # of connection points: 2
#     Edge 181, Type (0, 0), BuildingBlock: XIVTED_clean_linker_0, # of connection points: 2
#     Edge 182, Type (0, 0), BuildingBlock: XIVTED_clean_linker_0, # of connection points: 2
#     Edge 183, Type (0, 0), BuildingBlock: XIVTED_clean_linker_0, # of connection points: 2
#     Edge 184, Type (0, 0), BuildingBlock: XIVTED_clean_linker_0, # of connection points: 2
#     Edge 185, Type (0, 0), BuildingBlock: XIVTED_clean_linker_0, # of connection points: 2
#     Edge 186, Type (0, 0), BuildingBlock: XIVTED_clean_linker_0, # of connection points: 2
#     Edge 187, Type (0, 0), BuildingBlock: XIVTED_clean_linker_0, # of connection points: 2
#     Edge 188, Type (0, 0), BuildingBlock: XIVTED_clean_linker_0, # of connection points: 2
#     Edge 189, Type (0, 0), BuildingBlock: XIVTED_clean_linker_0, # of connection points: 2
#     Edge 190, Type (0, 0), BuildingBlock: XIVTED_clean_linker_0, # of connection points: 2
#     Edge 191, Type (0, 0), BuildingBlock: XIVTED_clean_linker_0, # of connection points: 2
# Relax obj value: 0.210
# Max RMSD: 0.191
# Mean RMSD: 0.189
data_MOF--net-lcs-e--node1-KUMBOL_clean_sbu_0--edge1-XIVTED_clean_linker_0
_symmetry_space_group_name_H-M    P1
_symmetry_Int_Tables_number       1
_symmetry_cell_setting            triclinic
loop_
_symmetry_equiv_pos_as_xyz
'x, y, z'
_cell_length_a     65.568377
_cell_length_b     65.553212
_cell_length_c     65.693062
_cell_angle_alpha  89.969524
_cell_angle_beta   90.143537
_cell_angle_gamma 90.227486
loop_
_atom_site_label
_atom_site_type_symbol
_atom_site_fract_x
_atom_site_fract_y
_atom_site_fract_z
_atom_type_partial_charge
Gd0 Gd 0.06512 0.39967 0.27337 0.0
Gd1 Gd 1.02546 0.40632 0.30818 0.0
C2 C 0.97781 0.43312 0.26627 0.0
C3 C 0.96782 0.4636 0.28481 0.0
C4 C 0.99511 0.44211 0.29772 0.0
C5 C 0.99247 0.42888 0.28139 0.0
C6 C 0.98276 0.4596 0.29961 0.0
C7 C 0.96542 0.45046 0.26814 0.0
C8 C 0.9761 0.41981 0.24968 0.0
C9 C 0.98887 0.40283 0.24847 0.0
N10 N 1.00449 0.4121 0.2801 0.0
C11 C 1.00303 0.39913 0.26398 0.0
H12 H 1.01274 0.38596 0.26305 0.0
C13 C 1.01328 0.45079 0.3277 0.0
N14 N 1.01004 0.43816 0.31148 0.0
C15 C 1.00156 0.4684 0.33009 0.0
C16 C 0.9862 0.47281 0.31602 0.0
H17 H 1.02447 0.44705 0.33919 0.0
H18 H 0.954 0.4539 0.25671 0.0
H19 H 0.11127 0.42442 0.28427 0.0
H20 H 0.96506 0.42257 0.2377 0.0
H21 H 0.9877 0.39251 0.23566 0.0
H22 H 0.95824 0.47698 0.28596 0.0
H23 H 0.0596 0.36232 0.23765 0.0
H24 H 0.15026 0.37938 0.31086 0.0
H25 H 0.14291 0.41548 0.30266 0.0
H26 H 0.12207 0.3175 0.28454 0.0
H27 H 1.00417 0.47838 0.34296 0.0
H28 H 0.97712 0.48644 0.31794 0.0
H29 H 0.14181 0.34239 0.30462 0.0
H30 H 0.07158 0.32693 0.23238 0.0
N31 N 0.09938 0.39409 0.28481 0.0
C32 C 0.13612 0.3833 0.30325 0.0
C33 C 0.13206 0.40367 0.29858 0.0
C34 C 0.1229 0.36812 0.29611 0.0
C35 C 0.10462 0.37411 0.28646 0.0
C36 C 0.114 0.4087 0.28837 0.0
N37 N 0.07747 0.36691 0.26444 0.0
C38 C 0.09331 0.35998 0.27565 0.0
C39 C 0.07757 0.33592 0.24487 0.0
C40 C 0.09155 0.32742 0.25849 0.0
C41 C 0.07099 0.35599 0.24777 0.0
C42 C 0.10028 0.33976 0.2736 0.0
H43 H 0.09657 0.31185 0.25629 0.0
O44 O 0.05254 0.40698 0.24304 0.0
O45 O 0.03953 0.42351 0.28063 0.0
O46 O 1.02171 0.37034 0.30003 0.0
O47 O 0.04635 0.3674 0.27558 0.0
O48 O 0.06755 0.43477 0.27213 0.0
O49 O 0.08453 0.39919 0.24756 0.0
O50 O 1.01619 0.407 0.33967 0.0
O51 O 0.05124 0.38742 0.3005 0.0
O52 O 0.07794 0.4184 0.29938 0.0
O53 O 0.05042 0.42804 0.32005 0.0
O54 O 0.04876 0.39612 0.33099 0.0
O55 O 0.99679 0.39209 0.31725 0.0
C56 C 0.04947 0.44108 0.27741 0.0
C57 C 0.1169 0.33316 0.28535 0.0
C58 C 0.12816 0.34736 0.29675 0.0
C59 C 0.07079 0.40574 0.23487 0.0
C60 C 0.07832 0.42149 0.22049 0.0
C61 C 0.06589 0.42808 0.20441 0.0
C62 C 0.0991 0.42753 0.22082 0.0
C63 C 0.10747 0.439 0.20485 0.0
C64 C 0.07407 0.44008 0.18878 0.0
C65 C 0.09479 0.44526 0.18881 0.0
C66 C 0.03176 0.35803 0.28689 0.0
C67 C 0.05919 0.38582 0.31799 0.0
C68 C 0.9994 0.3969 0.33637 0.0
C69 C 0.98173 0.4032 0.34836 0.0
C70 C 0.96976 0.42 0.34298 0.0
C71 C 0.97773 0.39267 0.36648 0.0
C72 C 0.96203 0.39896 0.37953 0.0
C73 C 0.95425 0.42654 0.35591 0.0
C74 C 0.95044 0.4162 0.37412 0.0
C75 C 0.07001 0.42896 0.31467 0.0
H76 H 0.05004 0.4234 0.20357 0.0
H77 H 0.1092 0.42243 0.23286 0.0
H78 H 0.06443 0.44489 0.17629 0.0
H79 H 0.10097 0.45404 0.17627 0.0
H80 H 0.97243 0.42811 0.32896 0.0
H81 H 0.98681 0.3794 0.37025 0.0
H82 H 0.94519 0.4397 0.35183 0.0
H83 H 0.93845 0.42172 0.38396 0.0
Gd84 Gd 0.89736 0.81613 0.52898 0.0
Gd85 Gd 0.89231 0.77326 0.55955 0.0
C86 C 0.8715 0.73163 0.50822 0.0
C87 C 0.838 0.72103 0.52006 0.0
C88 C 0.85767 0.74611 0.53919 0.0
C89 C 0.87358 0.74447 0.52535 0.0
C90 C 0.83966 0.7345 0.53658 0.0
C91 C 0.85383 0.71967 0.50587 0.0
C92 C 0.88706 0.7315 0.49371 0.0
C93 C 0.90389 0.74434 0.49619 0.0
N94 N 0.8906 0.75614 0.52808 0.0
C95 C 0.90538 0.75668 0.51349 0.0
H96 H 0.91824 0.76672 0.51474 0.0
C97 C 0.84367 0.76257 0.56799 0.0
N98 N 0.85945 0.75966 0.55471 0.0
C99 C 0.82559 0.75138 0.56601 0.0
C100 C 0.82364 0.73713 0.55036 0.0
H101 H 0.8451 0.77317 0.5805 0.0
H102 H 0.85211 0.70956 0.49293 0.0
H103 H 0.86911 0.85878 0.53991 0.0
H104 H 0.88599 0.72192 0.48031 0.0
H105 H 0.91574 0.74476 0.48476 0.0
H106 H 0.82434 0.71193 0.51787 0.0
H107 H 0.93466 0.80915 0.49433 0.0
H108 H 0.91097 0.90574 0.55784 0.0
H109 H 0.87557 0.89303 0.55421 0.0
H110 H 0.97378 0.88236 0.52969 0.0
H111 H 0.81323 0.75366 0.57664 0.0
H112 H 0.80959 0.72851 0.54883 0.0
H113 H 0.94801 0.90131 0.54911 0.0
H114 H 0.96839 0.82394 0.48596 0.0
N115 N 0.90058 0.85112 0.53797 0.0
C116 C 0.90824 0.89049 0.55207 0.0
C117 C 0.88823 0.8834 0.54998 0.0
C118 C 0.9243 0.87853 0.5449 0.0
C119 C 0.91989 0.85872 0.53766 0.0
C120 C 0.88464 0.86389 0.54207 0.0
N121 N 0.92892 0.83012 0.5184 0.0
C122 C 0.93457 0.84791 0.52723 0.0
C123 C 0.95918 0.83068 0.49782 0.0
C124 C 0.96637 0.84756 0.50869 0.0
C125 C 0.94005 0.82246 0.50249 0.0
C126 C 0.95373 0.85683 0.52311 0.0
H127 H 0.98115 0.85399 0.50499 0.0
O128 O 0.8927 0.8003 0.49912 0.0
O129 O 0.87387 0.78988 0.53444 0.0
O130 O 0.92808 0.77016 0.55071 0.0
O131 O 0.93116 0.80093 0.53396 0.0
O132 O 0.86215 0.81873 0.53027 0.0
O133 O 0.89344 0.83378 0.50274 0.0
O134 O 0.88099 0.75961 0.58703 0.0
O135 O 0.9091 0.80129 0.55556 0.0
O136 O 0.88021 0.82678 0.55641 0.0
O137 O 0.87334 0.79762 0.57605 0.0
O138 O 0.90887 0.79074 0.58487 0.0
O139 O 0.90418 0.74354 0.56945 0.0
C140 C 0.85628 0.79996 0.53349 0.0
C141 C 0.95892 0.87552 0.5322 0.0
C142 C 0.94423 0.88632 0.54323 0.0
C143 C 0.89156 0.81833 0.49041 0.0
C144 C 0.88315 0.82313 0.47017 0.0
C145 C 0.88964 0.81231 0.45304 0.0
C146 C 0.87304 0.84185 0.46751 0.0
C147 C 0.87195 0.85129 0.44832 0.0
C148 C 0.887 0.82066 0.43362 0.0
C149 C 0.87875 0.8402 0.43126 0.0
C150 C 0.94052 0.784 0.54147 0.0
C151 C 0.91499 0.80557 0.5735 0.0
C152 C 0.89137 0.74299 0.58468 0.0
C153 C 0.89469 0.73044 0.60275 0.0
C154 C 0.87806 0.71853 0.60917 0.0
C155 C 0.91245 0.73152 0.61474 0.0
C156 C 0.91327 0.72045 0.63307 0.0
C157 C 0.87891 0.7078 0.6274 0.0
C158 C 0.89641 0.70875 0.63932 0.0
C159 C 0.87168 0.81751 0.5722 0.0
H160 H 0.89777 0.79805 0.45474 0.0
H161 H 0.86739 0.84977 0.48079 0.0
H162 H 0.89244 0.81245 0.42043 0.0
H163 H 0.87846 0.84678 0.41616 0.0
H164 H 0.86415 0.7179 0.60022 0.0
H165 H 0.92528 0.74083 0.60998 0.0
H166 H 0.86596 0.69879 0.63233 0.0
H167 H 0.8969 0.7002 0.65345 0.0
Gd168 Gd 0.52955 0.65369 0.81171 0.0
Gd169 Gd 0.49826 0.65783 0.76858 0.0
C170 C 0.54859 0.67357 0.72323 0.0
C171 C 0.5387 0.70743 0.71206 0.0
C172 C 0.51891 0.68972 0.738 0.0
C173 C 0.53178 0.673 0.73665 0.0
C174 C 0.5225 0.70724 0.72597 0.0
C175 C 0.55167 0.69062 0.71065 0.0
C176 C 0.56225 0.65727 0.72329 0.0
C177 C 0.55964 0.6415 0.73725 0.0
N178 N 0.52865 0.65679 0.74926 0.0
C179 C 0.54296 0.64172 0.75043 0.0
H180 H 0.54215 0.62999 0.76171 0.0
C181 C 0.49111 0.70589 0.75417 0.0
N182 N 0.50339 0.68921 0.75163 0.0
C183 C 0.49415 0.72354 0.74262 0.0
C184 C 0.50986 0.7242 0.7284 0.0
H185 H 0.47852 0.70545 0.76473 0.0
H186 H 0.56438 0.69117 0.70015 0.0
H187 H 0.5092 0.67429 0.85625 0.0
H188 H 0.57531 0.65713 0.71321 0.0
H189 H 0.57065 0.62927 0.73808 0.0
H190 H 0.54154 0.72067 0.70258 0.0
H191 H 0.56715 0.62054 0.79954 0.0
H192 H 0.49661 0.62417 0.89569 0.0
H193 H 0.49413 0.66086 0.88757 0.0
H194 H 0.5362 0.57034 0.86755 0.0
H195 H 0.4843 0.73659 0.74466 0.0
H196 H 0.51219 0.73792 0.71949 0.0
H197 H 0.5121 0.59034 0.88788 0.0
H198 H 0.5791 0.58669 0.81085 0.0
N199 N 0.51776 0.64494 0.84474 0.0
C200 C 0.50281 0.62985 0.88149 0.0
C201 C 0.50137 0.65056 0.87696 0.0
C202 C 0.51373 0.61706 0.86849 0.0
C203 C 0.52144 0.62517 0.8501 0.0
C204 C 0.50959 0.65803 0.8588 0.0
N205 N 0.54327 0.62203 0.82147 0.0
C206 C 0.5349 0.61361 0.83845 0.0
C207 C 0.56658 0.59401 0.81862 0.0
C208 C 0.55683 0.5842 0.83478 0.0
C209 C 0.55993 0.61325 0.81242 0.0
C210 C 0.54111 0.59413 0.84519 0.0
H211 H 0.56198 0.56924 0.83952 0.0
O212 O 0.56205 0.65869 0.80307 0.0
O213 O 0.52469 0.67545 0.78392 0.0
O214 O 0.50665 0.6219 0.76676 0.0
O215 O 0.52428 0.61952 0.79705 0.0
O216 O 0.53114 0.68895 0.81136 0.0
O217 O 0.55036 0.66077 0.83483 0.0
O218 O 0.47481 0.66929 0.74835 0.0
O219 O 0.50287 0.64171 0.79702 0.0
O220 O 0.50346 0.67322 0.82159 0.0
O221 O 0.48501 0.68059 0.79169 0.0
O222 O 0.47313 0.64938 0.79095 0.0
O223 O 0.48027 0.63718 0.74923 0.0
C224 C 0.5272 0.69373 0.79259 0.0
C225 C 0.53202 0.58549 0.86248 0.0
C226 C 0.51826 0.59688 0.87403 0.0
C227 C 0.56595 0.66218 0.82255 0.0
C228 C 0.58555 0.66829 0.83181 0.0
C229 C 0.60417 0.66454 0.82215 0.0
C230 C 0.58556 0.67588 0.85192 0.0
C231 C 0.60376 0.67845 0.86278 0.0
C232 C 0.62249 0.6677 0.83272 0.0
C233 C 0.62231 0.6743 0.853 0.0
C234 C 0.51591 0.60972 0.78072 0.0
C235 C 0.48481 0.63966 0.80331 0.0
C236 C 0.46752 0.65148 0.74412 0.0
C237 C 0.44584 0.64853 0.74973 0.0
C238 C 0.43751 0.65979 0.76598 0.0
C239 C 0.43333 0.63463 0.73923 0.0
C240 C 0.41281 0.63183 0.74513 0.0
C241 C 0.4175 0.65655 0.77223 0.0
C242 C 0.40521 0.64262 0.76194 0.0
C243 C 0.48927 0.68335 0.81137 0.0
H244 H 0.60455 0.65856 0.80679 0.0
H245 H 0.57128 0.67879 0.85966 0.0
H246 H 0.63687 0.66454 0.82533 0.0
H247 H 0.63664 0.67615 0.86106 0.0
H248 H 0.44644 0.67117 0.77398 0.0
H249 H 0.43946 0.6262 0.72646 0.0
H250 H 0.41138 0.66514 0.78488 0.0
H251 H 0.38947 0.64094 0.76665 0.0
Gd252 Gd 0.65397 0.2407 1.0246 0.0
Gd253 Gd 0.66311 0.28418 0.05407 0.0
C254 C 0.68449 0.32343 1.00106 0.0
C255 C 0.71935 0.33145 1.01087 0.0
C256 C 0.69866 0.30896 0.03197 0.0
C257 C 0.68229 0.31129 1.01868 0.0
C258 C 0.71742 0.31887 0.02804 0.0
C259 C 0.70295 0.3337 0.99741 0.0
C260 C 0.66817 0.32464 0.98738 0.0
C261 C 0.6504 0.31355 0.99118 0.0
N262 N 0.66455 0.30112 1.02252 0.0
C263 C 0.64888 0.30175 1.00884 0.0
H264 H 0.6352 0.29315 1.01116 0.0
C265 C 0.71268 0.29295 0.06112 0.0
N266 N 0.6965 0.29647 0.04831 0.0
C267 C 0.73146 0.30252 0.05785 0.0
C268 C 0.73382 0.31562 0.04131 0.0
H269 H 0.71101 0.28318 0.07426 0.0
H270 H 0.7048 0.34321 0.98404 0.0
H271 H 0.68081 0.19646 0.0352 0.0
H272 H 0.66927 0.33377 0.97368 0.0
H273 H 0.63783 0.31406 0.98048 0.0
H274 H 0.73359 0.33925 1.00769 0.0
H275 H 0.6136 0.24439 0.99208 0.0
H276 H 0.63912 0.15584 0.06504 0.0
H277 H 0.67423 0.1646 0.05433 0.0
H278 H 0.57446 0.18137 0.04328 0.0
H279 H 0.74409 0.29978 0.06812 0.0
H280 H 0.74844 0.32295 0.03876 0.0
H281 H 0.60148 0.16277 0.06149 0.0
H282 H 0.57796 0.23186 0.99039 0.0
N283 N 0.65009 0.20669 0.03709 0.0
C284 C 0.64198 0.16999 0.05698 0.0
C285 C 0.66181 0.17485 0.05089 0.0
C286 C 0.62587 0.18248 0.05081 0.0
C287 C 0.6305 0.20077 0.04046 0.0
C288 C 0.66549 0.19294 0.04013 0.0
N289 N 0.62093 0.22704 1.01855 0.0
C290 C 0.61528 0.21131 0.03059 0.0
C291 C 0.5882 0.22614 1.002 0.0
C292 C 0.58128 0.21202 1.01637 0.0
C293 C 0.60841 0.23302 1.00286 0.0
C294 C 0.59512 0.20373 0.03033 0.0
H295 H 0.56566 0.20661 1.01562 0.0
O296 O 0.65858 0.25455 0.99439 0.0
O297 O 0.67833 0.26618 0.02854 0.0
O298 O 0.6266 0.288 0.0476 0.0
O299 O 0.62177 0.25894 0.02861 0.0
O300 O 0.68922 0.23722 1.02342 0.0
O301 O 0.65298 0.22195 0.99816 0.0
O302 O 0.67708 0.30282 0.07689 0.0
O303 O 0.6438 0.25782 0.0505 0.0
O304 O 0.6727 0.22995 0.05145 0.0
O305 O 0.68255 0.25925 0.06978 0.0
O306 O 0.65182 0.26456 0.08032 0.0
O307 O 0.64703 0.31065 0.06654 0.0
C308 C 0.69558 0.25586 1.02662 0.0
C309 C 0.58999 0.18705 0.04274 0.0
C310 C 0.60539 0.17645 0.05309 0.0
C311 C 0.65739 0.23663 0.98556 0.0
C312 C 0.67144 0.23104 0.96891 0.0
C313 C 0.67304 0.24383 0.95192 0.0
C314 C 0.68006 0.21132 0.9681 0.0
C315 C 0.68878 0.20373 0.95002 0.0
C316 C 0.68244 0.23687 0.93422 0.0
C317 C 0.68987 0.21695 0.93308 0.0
C318 C 0.6133 0.27557 0.03749 0.0
C319 C 0.64131 0.25246 0.06879 0.0
C320 C 0.66123 0.31388 0.08015 0.0
C321 C 0.65559 0.31477 0.10176 0.0
C322 C 0.67107 0.31303 0.11662 0.0
C323 C 0.63516 0.3159 0.10787 0.0
C324 C 0.63036 0.31439 0.12854 0.0
C325 C 0.66618 0.31138 0.13712 0.0
C326 C 0.6459 0.31189 0.14309 0.0
C327 C 0.68328 0.23919 0.06609 0.0
H328 H 0.66626 0.25887 0.95204 0.0
H329 H 0.67926 0.20161 0.9814 0.0
H330 H 0.68324 0.24671 0.921 0.0
H331 H 0.69587 0.21185 0.91865 0.0
H332 H 0.68701 0.31251 0.11235 0.0
H333 H 0.62309 0.31795 0.09676 0.0
H334 H 0.67814 0.30986 0.14841 0.0
H335 H 0.64237 0.31126 0.15919 0.0
Gd336 Gd 0.06225 0.65035 0.27852 0.0
Gd337 Gd 1.01723 0.64234 0.25086 0.0
C338 C 0.97258 0.62525 0.3009 0.0
C339 C 0.96126 0.59166 0.2899 0.0
C340 C 0.98798 0.60953 0.27133 0.0
C341 C 0.98625 0.62614 0.28435 0.0
C342 C 0.97566 0.59204 0.27414 0.0
C343 C 0.95978 0.60819 0.30329 0.0
C344 C 0.97261 0.64125 0.31496 0.0
C345 C 0.98665 0.65713 0.31285 0.0
N346 N 0.99876 0.64255 0.28163 0.0
C347 C 0.99988 0.6574 0.29619 0.0
H348 H 1.01111 0.66935 0.29548 0.0
C349 C 1.00585 0.59329 0.24458 0.0
N350 N 1.00231 0.6101 0.25649 0.0
C351 C 0.99381 0.57578 0.24664 0.0
C352 C 0.9785 0.57521 0.26135 0.0
H353 H 1.01714 0.59376 0.23266 0.0
H354 H 0.94901 0.60741 0.31575 0.0
H355 H 0.10343 0.61941 0.26859 0.0
H356 H 0.96241 0.64109 0.32791 0.0
H357 H 0.9874 0.66913 0.32414 0.0
H358 H 0.95157 0.57843 0.29219 0.0
H359 H 0.05668 0.69158 0.30921 0.0
H360 H 0.15189 0.65806 0.24789 0.0
H361 H 0.13784 0.62355 0.25407 0.0
H362 H 0.131 0.72408 0.27013 0.0
H363 H 0.99632 0.56275 0.23686 0.0
H364 H 0.9693 0.56155 0.26301 0.0
H365 H 0.14886 0.69584 0.25329 0.0
H366 H 0.07268 0.72545 0.31402 0.0
N367 N 0.09731 0.65135 0.26927 0.0
C368 C 0.13667 0.65637 0.25407 0.0
C369 C 0.12885 0.63686 0.25768 0.0
C370 C 0.12539 0.67341 0.25995 0.0
C371 C 0.10559 0.67036 0.26777 0.0
C372 C 0.10932 0.63461 0.26596 0.0
N373 N 0.07745 0.68237 0.28605 0.0
C374 C 0.09538 0.68642 0.27674 0.0
C375 C 0.07909 0.71476 0.30325 0.0
C376 C 0.09615 0.72013 0.29175 0.0
C377 C 0.07015 0.69557 0.30056 0.0
C378 C 0.10493 0.70566 0.2788 0.0
H379 H 0.10309 0.73501 0.29386 0.0
O380 O 0.04496 0.64499 0.30685 0.0
O381 O 0.0373 0.6255 0.27452 0.0
O382 O 1.0139 0.67791 0.26059 0.0
O383 O 0.0468 0.68284 0.27178 0.0
O384 O 0.06646 0.61542 0.28041 0.0
O385 O 0.07708 0.6534 0.30708 0.0
O386 O 0.99592 0.62891 0.22933 0.0
O387 O 0.04525 0.66029 0.2521 0.0
O388 O 0.0724 0.63373 0.25084 0.0
O389 O 0.04182 0.62142 0.23649 0.0
O390 O 0.03431 0.65363 0.22372 0.0
O391 O 0.99653 0.66128 0.23253 0.0
C392 C 0.04806 0.60837 0.27696 0.0
C393 C 0.12368 0.70925 0.26919 0.0
C394 C 0.13386 0.69315 0.25964 0.0
C395 C 0.06146 0.64767 0.31783 0.0
C396 C 0.06672 0.6335 0.33444 0.0
C397 C 0.05535 0.6337 0.35247 0.0
C398 C 0.08594 0.62396 0.33434 0.0
C399 C 0.09476 0.61695 0.35244 0.0
C400 C 0.06351 0.62537 0.37032 0.0
C401 C 0.08334 0.61753 0.37048 0.0
C402 C 0.02866 0.69112 0.26692 0.0
C403 C 0.04852 0.66326 0.23318 0.0
C404 C 0.99134 0.64605 0.22089 0.0
C405 C 0.99662 0.64752 0.19896 0.0
C406 C 1.01228 0.6351 0.19108 0.0
C407 C 0.98724 0.66181 0.18604 0.0
C408 C 0.99392 0.66399 0.16573 0.0
C409 C 1.01922 0.63768 0.17126 0.0
C410 C 1.01021 0.6521 0.15866 0.0
C411 C 0.0622 0.62208 0.23784 0.0
H412 H 0.04071 0.64129 0.35301 0.0
H413 H 0.09506 0.62399 0.32058 0.0
H414 H 0.05486 0.62595 0.38432 0.0
H415 H 0.08987 0.61224 0.38468 0.0
H416 H 1.01969 0.62371 0.20044 0.0
H417 H 0.97493 0.67119 0.19173 0.0
H418 H 0.03154 0.62833 0.16559 0.0
H419 H 1.01549 0.65343 0.1431 0.0
Gd420 Gd 0.64727 0.80896 0.53641 0.0
Gd421 Gd 0.65315 0.76926 0.50031 0.0
C422 C 0.681 0.72142 0.54134 0.0
C423 C 0.71053 0.71094 0.52161 0.0
C424 C 0.68884 0.73841 0.50951 0.0
C425 C 0.67626 0.736 0.52631 0.0
C426 C 0.706 0.72577 0.50687 0.0
C427 C 0.69815 0.70887 0.53886 0.0
C428 C 0.66834 0.71993 0.55842 0.0
C429 C 0.65147 0.7328 0.56016 0.0
N430 N 0.65951 0.74802 0.52804 0.0
C431 C 0.64721 0.74682 0.54466 0.0
H432 H 0.63417 0.75666 0.54604 0.0
C433 C 0.69609 0.75601 0.47884 0.0
N434 N 0.68439 0.75321 0.49578 0.0
C435 C 0.71322 0.74381 0.47553 0.0
C436 C 0.71818 0.72858 0.48957 0.0
H437 H 0.69191 0.76727 0.46757 0.0
H438 H 0.70196 0.69749 0.5502 0.0
H439 H 0.68617 0.84463 0.54093 0.0
H440 H 0.6715 0.70898 0.57036 0.0
H441 H 0.64169 0.73183 0.57337 0.0
H442 H 0.72368 0.70113 0.5199 0.0
H443 H 0.59873 0.81359 0.55567 0.0
H444 H 0.66571 0.89963 0.51274 0.0
H445 H 0.69301 0.87951 0.52916 0.0
H446 H 0.59343 0.88999 0.50897 0.0
H447 H 0.72244 0.74602 0.46206 0.0
H448 H 0.73146 0.71916 0.48697 0.0
H449 H 0.62838 0.90306 0.50428 0.0
H450 H 0.56794 0.83352 0.54783 0.0
N451 N 0.65514 0.84428 0.53082 0.0
C452 C 0.66253 0.88426 0.51797 0.0
C453 C 0.67794 0.87298 0.52732 0.0
C454 C 0.64285 0.87611 0.51684 0.0
C455 C 0.63959 0.85602 0.52387 0.0
C456 C 0.6739 0.8531 0.53407 0.0
N457 N 0.61796 0.83051 0.53562 0.0
C458 C 0.62013 0.84872 0.52625 0.0
C459 C 0.58241 0.83771 0.54108 0.0
C460 C 0.58393 0.85496 0.52874 0.0
C461 C 0.59984 0.82612 0.54505 0.0
C462 C 0.60318 0.86127 0.52204 0.0
H463 H 0.57051 0.86413 0.5259 0.0
O464 O 0.65393 0.79203 0.56456 0.0
O465 O 0.67144 0.7854 0.5257 0.0
O466 O 0.61784 0.76485 0.51007 0.0
O467 O 0.6147 0.7909 0.53325 0.0
O468 O 0.68199 0.80881 0.54252 0.0
O469 O 0.63896 0.82128 0.56548 0.0
O470 O 0.65156 0.76335 0.46807 0.0
O471 O 0.63462 0.795 0.5094 0.0
O472 O 0.66476 0.82193 0.5099 0.0
O473 O 0.67531 0.79393 0.48996 0.0
O474 O 0.64121 0.79266 0.47844 0.0
O475 O 0.64094 0.74025 0.48936 0.0
C476 C 0.68904 0.79318 0.53263 0.0
C477 C 0.60626 0.88035 0.51284 0.0
C478 C 0.62615 0.88779 0.51022 0.0
C479 C 0.6485 0.80746 0.57585 0.0
C480 C 0.66315 0.81573 0.59096 0.0
C481 C 0.66929 0.80384 0.60759 0.0
C482 C 0.66963 0.83631 0.58983 0.0
C483 C 0.68112 0.84517 0.60558 0.0
C484 C 0.68124 0.81245 0.62306 0.0
C485 C 0.68689 0.83305 0.62224 0.0
C486 C 0.6055 0.77565 0.52256 0.0
C487 C 0.63189 0.80311 0.49211 0.0
C488 C 0.64371 0.74523 0.47027 0.0
C489 C 0.65115 0.72984 0.45596 0.0
C490 C 0.66748 0.71698 0.46069 0.0
C491 C 0.64226 0.72906 0.43651 0.0
C492 C 0.64982 0.71578 0.42154 0.0
C493 C 0.67546 0.70412 0.4458 0.0
C494 C 0.66685 0.70361 0.42633 0.0
C495 C 0.67563 0.81357 0.49509 0.0
H496 H 0.66449 0.78805 0.60882 0.0
H497 H 0.66498 0.84581 0.57716 0.0
H498 H 0.68582 0.80322 0.63594 0.0
H499 H 0.69582 0.83951 0.63456 0.0
H500 H 0.67416 0.71697 0.47571 0.0
H501 H 0.62916 0.73858 0.43328 0.0
H502 H 0.68833 0.69446 0.44939 0.0
H503 H 0.6734 0.69349 0.41512 0.0
Gd504 Gd 0.48984 0.40308 0.77986 0.0
Gd505 Gd 0.53279 0.4071 0.74996 0.0
C506 C 0.57145 0.43938 0.79703 0.0
C507 C 0.58099 0.47052 0.77916 0.0
C508 C 0.55919 0.44541 0.76264 0.0
C509 C 0.56016 0.43306 0.77989 0.0
C510 C 0.56978 0.46415 0.76205 0.0
C511 C 0.58181 0.45818 0.79659 0.0
C512 C 0.57197 0.42657 0.8141 0.0
C513 C 0.56139 0.40799 0.81379 0.0
N514 N 0.54989 0.41497 0.77997 0.0
C515 C 0.55036 0.40235 0.79641 0.0
H516 H 0.54212 0.38805 0.79613 0.0
C517 C 0.54795 0.44981 0.72861 0.0
N518 N 0.54811 0.439 0.74636 0.0
C519 C 0.55818 0.46851 0.72732 0.0
C520 C 0.569 0.47581 0.74418 0.0
H521 H 0.53997 0.44399 0.7154 0.0
H522 H 0.59058 0.4633 0.80963 0.0
H523 H 0.4466 0.41634 0.75005 0.0
H524 H 0.58051 0.43087 0.82759 0.0
H525 H 0.56173 0.39802 0.82692 0.0
H526 H 0.58919 0.4849 0.77902 0.0
H527 H 0.50618 0.37433 0.8195 0.0
H528 H 0.40511 0.36692 0.75419 0.0
H529 H 0.41559 0.39976 0.73924 0.0
H530 H 0.43184 0.32502 0.80694 0.0
H531 H 0.55782 0.47721 0.71332 0.0
H532 H 0.57694 0.4903 0.74313 0.0
H533 H 0.41107 0.33957 0.77954 0.0
H534 H 0.49411 0.34484 0.83935 0.0
N535 N 0.45666 0.39188 0.76963 0.0
C536 C 0.41946 0.37381 0.75877 0.0
C537 C 0.42536 0.39229 0.75024 0.0
C538 C 0.43168 0.36481 0.77367 0.0
C539 C 0.45048 0.37417 0.77893 0.0
C540 C 0.44367 0.40144 0.75624 0.0
N541 N 0.48107 0.37378 0.79871 0.0
C542 C 0.46274 0.3652 0.79394 0.0
C543 C 0.48524 0.35029 0.82656 0.0
C544 C 0.4673 0.34033 0.82091 0.0
C545 C 0.49191 0.36711 0.81536 0.0
C546 C 0.45575 0.34777 0.8046 0.0
H547 H 0.46229 0.32712 0.8295 0.0
O548 O 0.49943 0.41027 0.81131 0.0
O549 O 0.51741 0.42503 0.77558 0.0
O550 O 0.53383 0.37146 0.75966 0.0
O551 O 0.504 0.3688 0.77761 0.0
O552 O 0.48937 0.43838 0.77956 0.0
O553 O 0.46704 0.41188 0.80079 0.0
O554 O 0.54475 0.40301 0.71984 0.0
O555 O 0.50491 0.38904 0.75343 0.0
O556 O 0.48009 0.42104 0.75267 0.0
O557 O 0.51048 0.43005 0.73586 0.0
O558 O 0.51207 0.3996 0.72439 0.0
O559 O 0.56359 0.39503 0.74578 0.0
C560 C 0.5084 0.44316 0.7767 0.0
C561 C 0.43725 0.33854 0.79908 0.0
C562 C 0.42539 0.34688 0.78352 0.0
C563 C 0.48007 0.41353 0.8159 0.0
C564 C 0.47228 0.41968 0.83601 0.0
C565 C 0.48396 0.41664 0.8536 0.0
C566 C 0.45177 0.42576 0.83786 0.0
C567 C 0.44238 0.42754 0.85703 0.0
C568 C 0.47504 0.41888 0.87274 0.0
C569 C 0.4544 0.42393 0.8745 0.0
C570 C 0.52052 0.35928 0.76975 0.0
C571 C 0.49957 0.38844 0.73474 0.0
C572 C 0.56221 0.39608 0.72599 0.0
C573 C 0.57961 0.40306 0.71391 0.0
C574 C 0.59132 0.42016 0.71918 0.0
C575 C 0.58246 0.39366 0.69501 0.0
C576 C 0.5961 0.40176 0.68064 0.0
C577 C 0.60552 0.42795 0.70533 0.0
C578 C 0.60778 0.419 0.6861 0.0
C579 C 0.49041 0.43141 0.73876 0.0
H580 H 0.49967 0.4117 0.85256 0.0
H581 H 0.44302 0.42875 0.82421 0.0
H582 H 0.484 0.41607 0.88631 0.0
H583 H 0.4479 0.42454 0.8896 0.0
H584 H 0.58918 0.4277 0.73366 0.0
H585 H 0.57346 0.38023 0.69139 0.0
H586 H 0.61443 0.44131 0.70929 0.0
H587 H 0.61832 0.42589 0.67544 0.0
Gd588 Gd 0.90426 0.27393 0.99049 0.0
Gd589 Gd 0.91074 0.24883 0.03646 0.0
C590 C 0.93457 0.30439 0.07014 0.0
C591 C 0.96875 0.29363 0.07964 0.0
C592 C 0.94717 0.27149 0.05902 0.0
C593 C 0.93158 0.28581 0.05973 0.0
C594 C 0.96598 0.27538 0.06881 0.0
C595 C 0.9531 0.30809 0.0803 0.0
C596 C 0.91893 0.31884 0.06984 0.0
C597 C 0.90102 0.31476 0.05902 0.0
N598 N 0.91378 0.28187 0.0497 0.0
C599 C 0.8987 0.29611 0.04895 0.0
H600 H 0.88486 0.29328 0.04064 0.0
C601 C 0.95945 0.23999 0.04645 0.0
N602 N 0.94421 0.25409 0.0482 0.0
C603 C 0.97835 0.24328 0.05579 0.0
C604 C 0.9816 0.26098 0.06713 0.0
H605 H 0.95701 0.22593 0.03823 0.0
H606 H 0.95558 0.32222 0.08851 0.0
H607 H 0.91613 0.2416 0.94896 0.0
H608 H 0.92064 0.3333 0.07766 0.0
H609 H 0.88896 0.32597 0.05848 0.0
H610 H 0.98305 0.29683 0.08733 0.0
H611 H 0.87518 0.31367 1.00533 0.0
H612 H 0.86465 0.24122 0.90994 0.0
H613 H 0.89814 0.22764 0.92006 0.0
H614 H 0.82382 0.29612 0.93367 0.0
H615 H 0.99034 0.23207 0.05436 0.0
H616 H 0.99627 0.26348 0.07435 0.0
H617 H 0.8376 0.26713 0.91468 0.0
H618 H 0.84509 0.33236 0.99317 0.0
N619 N 0.89178 0.26137 0.9586 0.0
C620 C 0.87213 0.24708 0.92347 0.0
C621 C 0.89099 0.23935 0.92917 0.0
C622 C 0.86355 0.26289 0.93473 0.0
C623 C 0.87362 0.26971 0.95259 0.0
C624 C 0.90095 0.24713 0.94632 0.0
N625 N 0.87432 0.29159 0.98143 0.0
C626 C 0.86509 0.28554 0.96389 0.0
C627 C 0.85045 0.31919 0.98487 0.0
C628 C 0.84014 0.31253 0.96753 0.0
C629 C 0.86763 0.30863 0.99158 0.0
C630 C 0.84736 0.29559 0.95683 0.0
H631 H 0.82672 0.32068 0.96244 0.0
O632 O 0.9112 0.30503 1.00078 0.0
O633 O 0.92794 0.27227 1.01683 0.0
O634 O 0.87441 0.25703 0.038 0.0
O635 O 0.87072 0.27158 1.00626 0.0
O636 O 0.93923 0.27145 0.98737 0.0
O637 O 0.91228 0.29615 0.96803 0.0
O638 O 0.92134 0.22437 0.05543 0.0
O639 O 0.89242 0.24951 1.00931 0.0
O640 O 0.92123 0.24545 0.98228 0.0
O641 O 0.92953 0.2299 1.01352 0.0
O642 O 0.89776 0.22083 1.02132 0.0
O643 O 0.89675 0.24355 0.0663 0.0
C644 C 0.94523 0.27154 1.00633 0.0
C645 C 0.83751 0.2887 0.93916 0.0
C646 C 0.8454 0.27223 0.92833 0.0
C647 C 0.91394 0.31067 0.98169 0.0
C648 C 0.91979 0.33144 0.97536 0.0
C649 C 0.91521 0.34817 0.98777 0.0
C650 C 0.92716 0.33482 0.95552 0.0
C651 C 0.92911 0.35471 0.9476 0.0
C652 C 0.91733 0.36797 0.98022 0.0
C653 C 0.92394 0.37126 0.96027 0.0
C654 C 0.86167 0.26524 1.02374 0.0
C655 C 0.88877 0.23062 1.00681 0.0
C656 C 0.90892 0.22831 0.07022 0.0
C657 C 0.90152 0.21057 0.08162 0.0
C658 C 0.90685 0.20951 0.10227 0.0
C659 C 0.89258 0.19352 0.07197 0.0
C660 C 0.88963 0.17538 0.08308 0.0
C661 C 0.90375 0.19161 0.11324 0.0
C662 C 0.89532 0.1746 0.1037 0.0
C663 C 0.93044 0.23115 0.99322 0.0
H664 H 0.90918 0.34594 1.00295 0.0
H665 H 0.93111 0.32183 0.94619 0.0
H666 H 0.91332 0.38083 0.98971 0.0
H667 H 0.9246 0.3868 0.95475 0.0
H668 H 0.91412 0.22236 0.10975 0.0
H669 H 0.88859 0.19414 0.05597 0.0
H670 H 0.90811 0.19082 0.12912 0.0
H671 H 0.89294 0.16083 0.11254 0.0
Gd672 Gd 0.27152 0.06413 0.40165 0.0
Gd673 Gd 0.30771 1.02558 0.40651 0.0
C674 C 0.26599 0.98101 0.43857 0.0
C675 C 0.28525 0.9736 0.4694 0.0
C676 C 0.29805 0.99853 0.4451 0.0
C677 C 0.28124 0.99495 0.43257 0.0
C678 C 0.30025 0.98778 0.46358 0.0
C679 C 0.26812 0.97031 0.45699 0.0
C680 C 0.24903 0.97824 0.42584 0.0
C681 C 0.24769 0.98913 0.40757 0.0
N682 N 0.27971 1.00525 0.41464 0.0
C683 C 0.26339 1.00254 0.40207 0.0
H684 H 0.26245 1.01079 0.38788 0.0
C685 C 0.32932 1.01591 0.45065 0.0
N686 N 0.31228 1.0124 0.43918 0.0
C687 C 0.33208 1.00571 0.46913 0.0
C688 C 0.31748 0.9916 0.47565 0.0
H689 H 0.34108 0.0262 0.44535 0.0
H690 H 0.2566 0.95945 0.4618 0.0
H691 H 0.26624 0.10051 0.4402 0.0
H692 H 0.23692 0.96775 0.42996 0.0
H693 H 0.23464 0.98707 0.39765 0.0
H694 H 0.28668 0.96521 0.48354 0.0
H695 H 0.24857 0.06719 0.35454 0.0
H696 H 0.29108 0.15634 0.41772 0.0
H697 H 0.27698 0.13578 0.44597 0.0
H698 H 0.29033 0.1464 0.34568 0.0
H699 H 0.34561 1.00851 0.47819 0.0
H700 H 0.31973 0.98363 0.48992 0.0
H701 H 0.29695 0.15988 0.38005 0.0
H702 H 0.2523 0.08793 0.32346 0.0
N703 N 0.27513 0.09997 0.40884 0.0
C704 C 0.28642 0.14069 0.41502 0.0
C705 C 0.27838 0.12916 0.43095 0.0
C706 C 0.28676 0.1324 0.39546 0.0
C707 C 0.28058 0.11191 0.39284 0.0
C708 C 0.27233 0.10894 0.42752 0.0
N709 N 0.2688 0.0856 0.3723 0.0
C710 C 0.27734 0.10433 0.37369 0.0
C711 C 0.25998 0.09249 0.33734 0.0
C712 C 0.27152 0.11039 0.33787 0.0
C713 C 0.2582 0.08061 0.35495 0.0
C714 C 0.27953 0.11704 0.35647 0.0
H715 H 0.27272 0.11972 0.3243 0.0
O716 O 0.24513 0.04529 0.41056 0.0
O717 O 0.28142 0.0392 0.42502 0.0
O718 O 0.29809 1.02081 0.37112 0.0
O719 O 0.27575 0.04742 0.36818 0.0
O720 O 0.27085 0.06565 0.43701 0.0
O721 O 0.24103 0.07311 0.39386 0.0
O722 O 0.33898 1.01586 0.40613 0.0
O723 O 0.29847 0.0514 0.38824 0.0
O724 O 0.29813 0.07845 0.4184 0.0
O725 O 0.32074 0.0516 0.42607 0.0
O726 O 0.32967 0.04839 0.393 0.0
O727 O 0.31516 0.99571 0.39425 0.0
C728 C 0.27831 0.04827 0.44291 0.0
C729 C 0.28796 0.13661 0.35877 0.0
C730 C 0.29166 0.14429 0.37833 0.0
C731 C 0.23222 0.05902 0.40445 0.0
C732 C 0.21718 0.06695 0.41906 0.0
C733 C 0.19939 0.05597 0.42353 0.0
C734 C 0.21934 0.08703 0.42636 0.0
C735 C 0.20349 0.09658 0.43678 0.0
C736 C 0.18374 0.06521 0.43465 0.0
C737 C 0.18559 0.08556 0.44095 0.0
C738 C 0.28595 0.03199 0.3587 0.0
C739 C 0.31573 0.05934 0.38453 0.0
C740 C 0.33456 0.99828 0.39802 0.0
C741 C 0.34658 0.9811 0.40525 0.0
C742 C 0.34086 0.96855 0.42156 0.0
C743 C 0.36537 0.97838 0.39591 0.0
C744 C 0.37875 0.96321 0.40246 0.0
C745 C 0.35429 0.95346 0.42847 0.0
C746 C 0.37326 0.95081 0.41903 0.0
C747 C 0.31471 0.071 0.42742 0.0
H748 H 0.19733 0.04057 0.41791 0.0
H749 H 0.2328 0.09585 0.42266 0.0
H750 H 0.16989 0.05679 0.43788 0.0
H751 H 0.17309 0.09269 0.44896 0.0
H752 H 0.32631 0.97051 0.42898 0.0
H753 H 0.36977 0.98851 0.38357 0.0
H754 H 0.35 0.94382 0.44114 0.0
H755 H 0.38341 0.93896 0.42439 0.0
Gd756 Gd 0.24318 1.01963 0.65289 0.0
Gd757 Gd 0.28081 0.05687 0.65925 0.0
C758 C 0.33179 1.01114 0.67475 0.0
C759 C 0.3417 1.02186 0.70871 0.0
C760 C 0.31435 0.03932 0.69066 0.0
C761 C 0.31698 0.02679 0.67401 0.0
C762 C 0.32659 0.03692 0.70825 0.0
C763 C 0.34429 1.00899 0.69199 0.0
C764 C 0.3332 0.99762 0.65844 0.0
C765 C 0.31952 0.99932 0.64236 0.0
N766 N 0.30433 0.02904 0.65768 0.0
C767 C 0.30501 1.01487 0.64242 0.0
H768 H 0.29423 1.01463 0.6304 0.0
C769 C 0.2958 0.06561 0.70653 0.0
N770 N 0.29925 0.05332 0.69003 0.0
C771 C 0.30764 0.06393 0.72415 0.0
C772 C 0.32312 0.04952 0.72503 0.0
H773 H 0.28361 0.0766 0.70657 0.0
H774 H 0.35573 0.99712 0.69271 0.0
H775 H 0.20013 0.04846 0.65017 0.0
H776 H 0.34428 0.9854 0.65846 0.0
H777 H 0.31988 0.98841 0.63001 0.0
H778 H 0.35124 1.01984 0.72205 0.0
H779 H 0.2729 0.983 0.63271 0.0
H780 H 0.1706 0.03377 0.59415 0.0
H781 H 0.17221 0.05392 0.62588 0.0
H782 H 0.21137 0.98023 0.56662 0.0
H783 H 0.30464 0.07364 0.73712 0.0
H784 H 0.33216 0.04809 0.73879 0.0
H785 H 0.18509 1.00614 0.57244 0.0
H786 H 0.27166 0.95996 0.60273 0.0
N787 N 0.21561 0.02695 0.63153 0.0
C788 C 0.18329 0.03167 0.60453 0.0
C789 C 0.18415 0.04312 0.62239 0.0
C790 C 0.19845 1.01724 0.60053 0.0
C791 C 0.21478 1.01516 0.61442 0.0
C792 C 0.20028 0.04026 0.63599 0.0
N793 N 0.24641 0.99934 0.62385 0.0
C794 C 0.23003 1.00057 0.61085 0.0
C795 C 0.26005 0.97146 0.60477 0.0
C796 C 0.24396 0.97302 0.59083 0.0
C797 C 0.2609 0.98459 0.62152 0.0
C798 C 0.22873 0.98769 0.59373 0.0
H799 H 0.24342 0.96281 0.57787 0.0
O800 O 0.2391 0.98802 0.66133 0.0
O801 O 0.2679 0.03018 0.67504 0.0
O802 O 0.28492 0.05016 0.62301 0.0
O803 O 0.2597 1.02543 0.61974 0.0
O804 O 0.25369 1.00578 0.68436 0.0
O805 O 0.21352 1.00952 0.66326 0.0
O806 O 0.27898 0.08651 0.67242 0.0
O807 O 0.24905 0.05261 0.64927 0.0
O808 O 0.22809 0.04282 0.6729 0.0
O809 O 0.25502 0.06436 0.68222 0.0
O810 O 0.26633 0.07219 0.632 0.0
O811 O 0.30621 0.07808 0.65581 0.0
C812 C 0.26562 1.01964 0.69174 0.0
C813 C 0.21249 0.98989 0.57995 0.0
C814 C 0.19752 1.00469 0.58325 0.0
C815 C 0.2194 0.99043 0.66426 0.0
C816 C 0.20559 0.97545 0.65467 0.0
C817 C 0.212 0.96323 0.63837 0.0
C818 C 0.18559 0.97338 0.66194 0.0
C819 C 0.17186 0.95966 0.65266 0.0
C820 C 0.19824 0.95048 0.62838 0.0
C821 C 0.17823 0.94886 0.63527 0.0
C822 C 0.27366 0.03782 0.61048 0.0
C823 C 0.24829 0.06437 0.63398 0.0
C824 C 0.29641 0.09259 0.66532 0.0
C825 C 0.29581 0.11286 0.65623 0.0
C826 C 0.28178 0.12741 0.66345 0.0
C827 C 0.30917 0.11798 0.64054 0.0
C828 C 0.308 0.13717 0.63172 0.0
C829 C 0.28068 0.14662 0.6545 0.0
C830 C 0.29371 0.1515 0.63856 0.0
C831 C 0.23609 0.05717 0.68478 0.0
H832 H 0.22758 0.96346 0.63327 0.0
H833 H 0.18108 0.98195 0.67529 0.0
H834 H 0.20318 0.94158 0.61544 0.0
H835 H 0.16792 0.93869 0.62728 0.0
H836 H 0.2716 0.12392 0.67595 0.0
H837 H 0.32055 0.10724 0.63528 0.0
H838 H 0.2699 0.15776 0.66005 0.0
H839 H 0.29314 0.16666 0.63199 0.0
Gd840 Gd 0.27958 0.98878 0.90172 0.0
Gd841 Gd 0.25074 0.03209 0.90549 0.0
C842 C 0.29813 0.07081 0.93725 0.0
C843 C 0.27987 0.08165 0.96758 0.0
C844 C 0.26367 0.0586 0.94341 0.0
C845 C 0.28099 0.05931 0.93116 0.0
C846 C 0.26293 0.06987 0.96168 0.0
C847 C 0.29745 0.08203 0.95547 0.0
C848 C 0.31551 0.07058 0.92489 0.0
C849 C 0.31547 0.05911 0.90694 0.0
N850 N 0.28121 0.04845 0.91351 0.0
C851 C 0.29799 0.04812 0.90136 0.0
H852 H 0.29794 0.0393 0.88749 0.0
C853 C 0.23014 0.04609 0.94876 0.0
N854 N 0.24763 0.04681 0.93757 0.0
C855 C 0.22876 0.05691 0.96703 0.0
C856 C 0.24523 0.06882 0.97355 0.0
H857 H 0.21707 0.03753 0.9434 0.0
H858 H 0.31047 0.09102 0.96036 0.0
H859 H 0.2608 0.94473 0.92317 0.0
H860 H 0.32905 0.07914 0.9291 0.0
H861 H 0.32887 0.0588 0.89736 0.0
H862 H 0.27961 0.09036 0.98159 0.0
H863 H 0.31798 1.00413 0.87095 0.0
H864 H 0.26076 0.89906 0.87679 0.0
H865 H 0.2515 0.9103 0.91145 0.0
H866 H 0.30292 0.9281 0.82505 0.0
H867 H 0.2149 0.05626 0.97593 0.0
H868 H 0.24409 0.07722 0.9877 0.0
H869 H 0.2798 0.90592 0.84452 0.0
H870 H 0.33496 0.9923 0.83961 0.0
N871 N 0.27297 0.95406 0.89448 0.0
C872 C 0.26444 0.91444 0.88164 0.0
C873 C 0.25917 0.92073 0.90121 0.0
C874 C 0.27552 0.92761 0.86904 0.0
C875 C 0.27979 0.94756 0.87598 0.0
C876 C 0.26417 0.94045 0.90766 0.0
N877 N 0.29721 0.97903 0.87207 0.0
C878 C 0.29242 0.96029 0.8646 0.0
C879 C 0.32289 0.98326 0.84634 0.0
C880 C 0.31665 0.96504 0.83724 0.0
C881 C 0.31335 0.98982 0.86414 0.0
C882 C 0.30163 0.95306 0.84661 0.0
H883 H 0.32409 0.95997 0.82343 0.0
O884 O 0.31043 1.0018 0.90924 0.0
O885 O 0.27481 1.01504 0.92515 0.0
O886 O 0.26263 0.03422 0.87026 0.0
O887 O 0.27627 1.00224 0.86726 0.0
O888 O 0.27549 0.98548 0.93629 0.0
O889 O 0.30248 0.96884 0.9105 0.0
O890 O 0.22084 0.04501 0.90279 0.0
O891 O 0.25435 1.00497 0.88749 0.0
O892 O 0.2498 0.97816 0.91503 0.0
O893 O 0.23486 1.00862 0.92642 0.0
O894 O 0.22451 1.01408 0.89285 0.0
O895 O 0.2471 0.06333 0.89411 0.0
C896 C 0.27405 1.0043 0.94241 0.0
C897 C 0.29632 0.93373 0.83907 0.0
C898 C 0.28319 0.92109 0.85019 0.0
C899 C 0.3164 0.98291 0.9129 0.0
C900 C 0.33635 0.9757 0.92041 0.0
C901 C 0.35447 0.98666 0.91746 0.0
C902 C 0.33738 0.95566 0.92805 0.0
C903 C 0.35601 0.94592 0.93138 0.0
C904 C 0.37329 0.97727 0.92141 0.0
C905 C 0.37412 0.95687 0.92795 0.0
C906 C 0.27087 1.01984 0.85783 0.0
C907 C 0.23568 1.00074 0.88387 0.0
C908 C 0.22726 0.06235 0.89565 0.0
C909 C 0.21552 0.08006 0.90236 0.0
C910 C 0.22077 0.09156 0.91953 0.0
C911 C 0.19672 0.08324 0.89272 0.0
C912 C 0.18231 0.09684 0.90076 0.0
C913 C 0.20699 0.10587 0.92717 0.0
C914 C 0.1878 0.10834 0.91806 0.0
C915 C 0.2358 0.98826 0.92558 0.0
H916 H 0.35412 1.00202 0.9114 0.0
H917 H 0.32348 0.94696 0.93037 0.0
H918 H 0.3873 0.98566 0.91886 0.0
H919 H 0.38879 0.94975 0.93044 0.0
H920 H 0.23515 0.08916 0.92726 0.0
H921 H 0.19315 0.07441 0.87923 0.0
H922 H 0.21094 0.11462 0.94059 0.0
H923 H 0.17715 0.11883 0.92495 0.0
Gd924 Gd 0.31561 0.02793 0.15092 0.0
Gd925 Gd 0.27505 0.994 0.15761 0.0
C926 C 0.23023 0.04256 0.17872 0.0
C927 C 0.2223 0.03121 0.213 0.0
C928 C 0.24688 1.0126 0.1925 0.0
C929 C 0.24375 1.026 0.17641 0.0
C930 C 0.23633 1.01525 0.21104 0.0
C931 C 0.21929 0.04486 0.19691 0.0
C932 C 0.2285 0.05671 0.16289 0.0
C933 C 0.2405 0.05452 0.14556 0.0
N934 N 0.25472 1.02358 0.15899 0.0
C935 C 0.2537 0.03792 0.14394 0.0
H936 H 0.26318 0.03709 0.13077 0.0
C937 C 0.2656 0.98512 0.20652 0.0
N938 N 0.26095 0.99761 0.19042 0.0
C939 C 0.25542 0.98711 0.22506 0.0
C940 C 0.2406 1.00212 0.22729 0.0
H941 H 0.27673 0.97313 0.20493 0.0
H942 H 0.20876 0.05741 0.19884 0.0
H943 H 0.35733 1.02479 0.18312 0.0
H944 H 0.21836 0.06966 0.16412 0.0
H945 H 0.23972 0.06572 0.13348 0.0
H946 H 0.21403 0.03342 0.22709 0.0
H947 H 0.31246 0.05705 0.1079 0.0
H948 H 0.40627 0.99932 0.14844 0.0
H949 H 0.39201 1.01024 0.18151 0.0
H950 H 0.38576 1.01338 0.08005 0.0
H951 H 0.25901 0.97704 0.23762 0.0
H952 H 0.23285 1.00372 0.24175 0.0
H953 H 0.40343 0.9998 0.11021 0.0
H954 H 0.3289 0.05872 0.07411 0.0
N955 N 0.35122 1.02021 0.15157 0.0
C956 C 0.39095 1.00543 0.1491 0.0
C957 C 0.383 1.01171 0.16777 0.0
C958 C 0.37972 1.00884 0.13132 0.0
C959 C 0.35976 1.0166 0.13309 0.0
C960 C 0.36334 1.01996 0.16861 0.0
N961 N 0.33188 0.03347 0.119 0.0
C962 C 0.34968 1.0236 0.11608 0.0
C963 C 0.33466 0.04837 0.0856 0.0
C964 C 0.35122 0.0358 0.08137 0.0
C965 C 0.32546 0.04743 0.10476 0.0
C966 C 0.35951 1.02387 0.09699 0.0
H967 H 0.3584 0.0366 0.06656 0.0
O968 O 0.29918 0.05664 0.15751 0.0
O969 O 0.28996 1.02103 0.17437 0.0
O970 O 0.27063 1.00139 0.1217 0.0
O971 O 0.29846 1.0224 0.11802 0.0
O972 O 0.31783 0.02929 0.18626 0.0
O973 O 0.33014 0.05649 0.14624 0.0
O974 O 0.25725 0.9692 0.17016 0.0
O975 O 0.30183 1.00064 0.13917 0.0
O976 O 0.32837 1.00205 0.16986 0.0
O977 O 0.3007 0.98044 0.17742 0.0
O978 O 0.29787 0.97043 0.14716 0.0
O979 O 0.25321 0.97704 0.13872 0.0
C980 C 0.2995 1.02399 0.19206 0.0
C981 C 0.37826 1.01391 0.09472 0.0
C982 C 0.38834 1.00625 0.11191 0.0
C983 C 0.31546 0.06748 0.1534 0.0
C984 C 0.32261 0.08379 0.16721 0.0
C985 C 0.31113 0.10159 0.16959 0.0
C986 C 0.3429 0.08344 0.17444 0.0
C987 C 0.3522 0.101 0.18238 0.0
C988 C 0.31993 0.11885 0.17862 0.0
C989 C 0.34041 0.1187 0.18476 0.0
C990 C 0.28261 1.01243 0.10892 0.0
C991 C 0.30911 0.98293 0.13704 0.0
C992 C 0.25067 0.96311 0.15265 0.0
C993 C 0.25653 0.94205 0.14737 0.0
C994 C 0.27419 0.93338 0.15605 0.0
C995 C 0.24489 0.93052 0.13365 0.0
C996 C 0.25096 0.91059 0.12852 0.0
C997 C 0.28064 0.91403 0.15035 0.0
C998 C 0.26914 0.90267 0.13662 0.0
C999 C 0.32018 0.98612 0.17936 0.0
H1000 H 0.2957 0.10241 0.16372 0.0
H1001 H 0.35194 0.06971 0.1729 0.0
H1002 H 0.31108 0.13267 0.18015 0.0
H1003 H 0.34714 0.13254 0.19081 0.0
H1004 H 0.28314 0.94151 0.1673 0.0
H1005 H 0.23107 0.9369 0.12721 0.0
H1006 H 0.29435 0.90765 0.15694 0.0
H1007 H 0.27401 0.88731 0.13306 0.0
Gd1008 Gd 0.40392 0.3156 1.02486 0.0
Gd1009 Gd 0.39821 0.27886 0.06205 0.0
C1010 C 0.36965 0.23199 1.01993 0.0
C1011 C 0.33764 0.22462 0.03712 0.0
C1012 C 0.36064 0.25056 0.05054 0.0
C1013 C 0.37439 0.24662 0.03496 0.0
C1014 C 0.34219 0.23949 0.05184 0.0
C1015 C 0.35127 0.22097 1.02114 0.0
C1016 C 0.38356 0.22887 1.00411 0.0
C1017 C 0.40169 0.24012 1.00363 0.0
N1018 N 0.39224 0.25725 0.03436 0.0
C1019 C 0.40588 0.25423 1.01906 0.0
H1020 H 0.41993 0.26272 1.01859 0.0
C1021 C 0.35252 0.26918 0.08031 0.0
N1022 N 0.36538 0.26507 0.06453 0.0
C1023 C 0.33396 0.25876 0.08206 0.0
C1024 C 0.32877 0.24383 0.0678 0.0
H1025 H 0.35674 0.2801 0.0919 0.0
H1026 H 0.34744 0.2096 1.00979 0.0
H1027 H 0.36827 0.35422 1.01906 0.0
H1028 H 0.38044 0.21785 0.99221 0.0
H1029 H 0.41251 0.23783 0.99143 0.0
H1030 H 0.32353 0.21599 0.03785 0.0
H1031 H 0.44953 0.31526 0.99884 0.0
H1032 H 0.39547 0.40878 0.04245 0.0
H1033 H 0.36534 0.39017 0.02922 0.0
H1034 H 0.46661 0.39388 0.03897 0.0
H1035 H 0.3238 0.26205 0.09459 0.0
H1036 H 0.31443 0.2357 0.06927 0.0
H1037 H 0.43363 0.40973 0.04701 0.0
H1038 H 0.48219 0.33399 1.00026 0.0
N1039 N 0.39956 0.35171 0.02783 0.0
C1040 C 0.39684 0.39288 0.03819 0.0
C1041 C 0.37984 0.38246 0.03058 0.0
C1042 C 0.41576 0.38316 0.03838 0.0
C1043 C 0.41662 0.36242 0.03277 0.0
C1044 C 0.38161 0.36197 1.02481 0.0
N1045 N 0.43457 0.33484 1.02001 0.0
C1046 C 0.43505 0.35352 0.02865 0.0
C1047 C 0.4692 0.33947 1.00876 0.0
C1048 C 0.47072 0.35732 1.02024 0.0
C1049 C 0.45068 0.32883 1.00815 0.0
C1050 C 0.45321 0.36513 0.02948 0.0
H1051 H 0.48496 0.36577 1.02043 0.0
O1052 O 0.39607 0.29528 0.99938 0.0
O1053 O 0.37992 0.29116 0.03471 0.0
O1054 O 0.43408 0.27447 0.05389 0.0
O1055 O 0.43682 0.29867 0.02902 0.0
O1056 O 0.36869 0.31815 1.02395 0.0
O1057 O 0.40904 0.32508 0.99405 0.0
O1058 O 0.39602 0.27003 0.09367 0.0
O1059 O 0.41741 0.30447 0.053 0.0
O1060 O 0.38693 0.33123 0.05038 0.0
O1061 O 0.3779 0.30507 0.0732 0.0
O1062 O 0.40937 0.30297 0.08357 0.0
O1063 O 0.41168 0.25035 0.07227 0.0
C1064 C 0.36234 0.30076 0.03117 0.0
C1065 C 0.45276 0.38491 0.03764 0.0
C1066 C 0.43397 0.39394 0.04217 0.0
C1067 C 0.39982 0.30951 0.98602 0.0
C1068 C 0.38372 0.31497 0.97131 0.0
C1069 C 0.37831 0.30164 0.95551 0.0
C1070 C 0.37551 0.33478 0.97157 0.0
C1071 C 0.36341 0.3418 0.95551 0.0
C1072 C 0.36543 0.30832 0.93984 0.0
C1073 C 0.35833 0.32845 0.93959 0.0
C1074 C 0.44632 0.28435 0.04048 0.0
C1075 C 0.41921 0.31337 0.07011 0.0
C1076 C 0.40579 0.25302 0.09104 0.0
C1077 C 0.3979 0.2354 0.10223 0.0
C1078 C 0.38125 0.22396 0.09519 0.0
C1079 C 0.40693 0.23061 0.12095 0.0
C1080 C 0.39928 0.21458 0.13292 0.0
C1081 C 0.37326 0.20826 0.10713 0.0
C1082 C 0.38209 0.20364 0.12593 0.0
C1083 C 0.37697 0.3243 0.06659 0.0
H1084 H 0.3845 0.28636 0.95497 0.0
H1085 H 0.37968 0.34537 0.98354 0.0
H1086 H 0.36148 0.29808 0.92752 0.0
H1087 H 0.34906 0.33364 0.92695 0.0
H1088 H 0.37441 0.22711 0.08062 0.0
H1089 H 0.42021 0.23917 0.12593 0.0
H1090 H 0.36023 0.1996 0.10176 0.0
H1091 H 0.37555 0.19141 0.1349 0.0
Gd1092 Gd 0.99 0.89838 0.28296 0.0
Gd1093 Gd 0.0338 0.90391 0.25271 0.0
C1094 C 0.07292 0.94039 0.29604 0.0
C1095 C 0.08119 0.97027 0.27559 0.0
C1096 C 0.05872 0.94397 0.26202 0.0
C1097 C 0.0609 0.93272 0.27994 0.0
C1098 C 0.06907 0.96272 0.25962 0.0
C1099 C 0.08302 0.95921 0.29377 0.0
C1100 C 0.07443 0.92888 0.31395 0.0
C1101 C 0.06434 0.9101 0.31538 0.0
N1102 N 0.05131 0.91435 0.28165 0.0
C1103 C 0.0529 0.90289 0.29885 0.0
H1104 H 0.04524 0.8883 0.29984 0.0
C1105 C 0.0453 0.94625 0.22856 0.0
N1106 N 0.04674 0.93648 0.24687 0.0
C1107 C 0.05518 0.96492 0.22554 0.0
C1108 C 0.06702 0.97327 0.24117 0.0
H1109 H 0.03686 0.93944 0.21612 0.0
H1110 H 0.09235 0.96532 0.30597 0.0
H1111 H 0.95357 0.93539 0.27212 0.0
H1112 H 0.0834 0.93433 0.32673 0.0
H1113 H 0.06548 0.90111 0.32915 0.0
H1114 H 0.08919 0.98469 0.27404 0.0
H1115 H 0.99221 0.85435 0.31075 0.0
H1116 H 0.89736 0.90513 0.25989 0.0
H1117 H 0.91801 0.93663 0.26154 0.0
H1118 H 0.90925 0.83654 0.28098 0.0
H1119 H 0.05392 0.9727 0.21106 0.0
H1120 H 0.07475 0.9877 0.23874 0.0
H1121 H 0.8944 0.86776 0.26663 0.0
H1122 H 0.97198 0.82308 0.31562 0.0
N1123 N 0.95425 0.90293 0.27625 0.0
C1124 C 0.91315 0.90436 0.26472 0.0
C1125 C 0.92473 0.92217 0.26573 0.0
C1126 C 0.92183 0.88592 0.27075 0.0
C1127 C 0.94256 0.88569 0.27676 0.0
C1128 C 0.94511 0.92129 0.27197 0.0
N1129 N 0.97061 0.86842 0.29077 0.0
C1130 C 0.95105 0.86788 0.28412 0.0
C1131 C 0.96602 0.83535 0.30635 0.0
C1132 C 0.94685 0.83362 0.29735 0.0
C1133 C 0.97751 0.85306 0.30331 0.0
C1134 C 0.93885 0.85022 0.28666 0.0
H1135 H 0.93792 0.81988 0.29973 0.0
O1136 O 1.00815 0.907 0.31011 0.0
O1137 O 1.01538 0.92227 0.27635 0.0
O1138 O 0.03748 0.86933 0.26557 0.0
O1139 O 1.00513 0.86505 0.27801 0.0
O1140 O 0.98716 0.93352 0.28338 0.0
O1141 O 0.97834 0.89345 0.31275 0.0
O1142 O 0.04495 0.89892 0.22258 0.0
O1143 O 1.00671 0.88575 0.25752 0.0
O1144 O 0.97965 0.91227 0.25351 0.0
O1145 O 1.00982 0.92429 0.23808 0.0
O1146 O 1.01591 0.88892 0.22745 0.0
O1147 O 0.06583 0.8956 0.2482 0.0
C1148 C 1.00532 0.93982 0.27827 0.0
C1149 C 0.91868 0.85008 0.27954 0.0
C1150 C 0.91021 0.86788 0.27148 0.0
C1151 C 0.99317 0.90228 0.32229 0.0
C1152 C 0.98619 0.91672 0.33802 0.0
C1153 C 0.99833 0.92064 0.35514 0.0
C1154 C 0.96565 0.92309 0.33802 0.0
C1155 C 0.9567 0.93141 0.3555 0.0
C1156 C 0.98991 0.93023 0.37217 0.0
C1157 C 0.96918 0.9353 0.37253 0.0
C1158 C 1.02312 0.85636 0.27298 0.0
C1159 C 1.00242 0.88086 0.23922 0.0
C1160 C 0.06346 0.89502 0.22844 0.0
C1161 C 0.07918 0.90301 0.21479 0.0
C1162 C 0.0915 0.91994 0.21924 0.0
C1163 C 0.08027 0.8939 0.19563 0.0
C1164 C 0.09363 0.90117 0.18068 0.0
C1165 C 0.10474 0.92759 0.20432 0.0
C1166 C 0.10581 0.91832 0.18509 0.0
C1167 C 0.98961 0.92299 0.23951 0.0
H1168 H 1.01402 0.91554 0.35566 0.0
H1169 H 0.95619 0.92045 0.3247 0.0
H1170 H 0.99928 0.93295 0.38549 0.0
H1171 H 0.96282 0.94163 0.38633 0.0
H1172 H 0.09065 0.92736 0.23392 0.0
H1173 H 0.07015 0.8812 0.19222 0.0
H1174 H 0.11419 0.94075 0.20765 0.0
H1175 H 0.11635 0.92429 0.17389 0.0
Gd1176 Gd 0.1498 0.73836 0.52418 0.0
Gd1177 Gd 0.1555 0.78196 0.55489 0.0
C1178 C 0.19482 0.81694 0.51058 0.0
C1179 C 0.22548 0.8231 0.53067 0.0
C1180 C 0.19699 0.80441 0.54535 0.0
C1181 C 0.18605 0.80663 0.52722 0.0
C1182 C 0.21668 0.81293 0.5473 0.0
C1183 C 0.21462 0.82506 0.51236 0.0
C1184 C 0.18343 0.81871 0.49259 0.0
C1185 C 0.16376 0.81042 0.49156 0.0
N1186 N 0.16695 0.79848 0.52578 0.0
C1187 C 0.15563 0.80034 0.5085 0.0
H1188 H 0.14049 0.79379 0.50775 0.0
C1189 C 0.19775 0.79312 0.57963 0.0
N1190 N 0.1884 0.79403 0.56107 0.0
C1191 C 0.21726 0.80136 0.58228 0.0
C1192 C 0.22689 0.81108 0.56597 0.0
H1193 H 0.19009 0.78613 0.59243 0.0
H1194 H 0.22164 0.83298 0.49969 0.0
H1195 H 0.1812 0.69735 0.53469 0.0
H1196 H 0.18967 0.82649 0.47943 0.0
H1197 H 0.15488 0.81176 0.47772 0.0
H1198 H 0.24066 0.8296 0.53183 0.0
H1199 H 0.10916 0.74001 0.49202 0.0
H1200 H 0.14353 0.65066 0.56071 0.0
H1201 H 0.17775 0.66405 0.55201 0.0
H1202 H 0.07688 0.66983 0.53844 0.0
H1203 H 0.2248 0.80034 0.59692 0.0
H1204 H 0.24203 0.81743 0.56806 0.0
H1205 H 0.1055 0.65337 0.55622 0.0
H1206 H 0.07526 0.72357 0.48883 0.0
N1207 N 0.14935 0.70376 0.53554 0.0
C1208 C 0.14497 0.66541 0.55339 0.0
C1209 C 0.1643 0.67287 0.54839 0.0
C1210 C 0.1277 0.67626 0.54723 0.0
C1211 C 0.13046 0.6955 0.53796 0.0
C1212 C 0.16618 0.69176 0.5386 0.0
N1213 N 0.1182 0.72193 0.51745 0.0
C1214 C 0.11425 0.70492 0.52843 0.0
C1215 C 0.08594 0.71836 0.50028 0.0
C1216 C 0.08056 0.70258 0.51355 0.0
C1217 C 0.10513 0.72755 0.50208 0.0
C1218 C 0.09508 0.69513 0.52731 0.0
H1219 H 0.0657 0.69543 0.51212 0.0
O1220 O 0.1571 0.7524 0.49457 0.0
O1221 O 0.17251 0.76482 0.52981 0.0
O1222 O 0.12064 0.78616 0.54285 0.0
O1223 O 0.11639 0.75495 0.52767 0.0
O1224 O 0.18522 0.73671 0.5243 0.0
O1225 O 0.14841 0.72061 0.49697 0.0
O1226 O 0.14721 0.7935 0.58412 0.0
O1227 O 0.13716 0.75535 0.5489 0.0
O1228 O 0.16736 0.72844 0.55225 0.0
O1229 O 0.17601 0.75822 0.57047 0.0
O1230 O 0.14317 0.76141 0.57954 0.0
O1231 O 0.1492 0.81455 0.55871 0.0
C1232 C 0.19038 0.75555 0.52827 0.0
C1233 C 0.09168 0.67725 0.53858 0.0
C1234 C 0.108 0.66786 0.54866 0.0
C1235 C 0.15614 0.73467 0.48539 0.0
C1236 C 0.17353 0.72761 0.47283 0.0
C1237 C 0.18423 0.7412 0.46027 0.0
C1238 C 0.17896 0.70671 0.47269 0.0
C1239 C 0.19484 0.69949 0.46039 0.0
C1240 C 0.20015 0.73414 0.44804 0.0
C1241 C 0.20549 0.71348 0.44812 0.0
C1242 C 0.10759 0.77258 0.53413 0.0
C1243 C 0.13414 0.7493 0.56691 0.0
C1244 C 0.14627 0.81235 0.57822 0.0
C1245 C 0.15526 0.82674 0.59274 0.0
C1246 C 0.17293 0.83822 0.58901 0.0
C1247 C 0.14618 0.82739 0.61187 0.0
C1248 C 0.15408 0.8396 0.62748 0.0
C1249 C 0.18128 0.85022 0.60464 0.0
C1250 C 0.17194 0.85094 0.62383 0.0
C1251 C 0.17714 0.73817 0.56714 0.0
H1252 H 0.18022 0.75721 0.45984 0.0
H1253 H 0.1709 0.69587 0.48221 0.0
H1254 H 0.20829 0.74471 0.43832 0.0
H1255 H 0.21767 0.70837 0.43827 0.0
H1256 H 0.18039 0.83767 0.57434 0.0
H1257 H 0.13291 0.81785 0.61471 0.0
H1258 H 0.195 0.85902 0.60187 0.0
H1259 H 0.17841 0.86058 0.63558 0.0
Gd1260 Gd 0.03349 0.64301 0.74687 0.0
Gd1261 Gd 0.99081 0.64868 0.77932 0.0
C1262 C 0.93764 0.69197 0.76847 0.0
C1263 C 0.94692 0.72074 0.7899 0.0
C1264 C 0.96835 0.69051 0.78913 0.0
C1265 C 0.9552 0.68137 0.77508 0.0
C1266 C 0.96362 0.70978 0.79747 0.0
C1267 C 0.93413 0.71197 0.77523 0.0
C1268 C 0.92347 0.68182 0.75617 0.0
C1269 C 0.92588 0.66106 0.75241 0.0
N1270 N 0.95843 0.6616 0.76941 0.0
C1271 C 0.94307 0.65096 0.7599 0.0
H1272 H 0.94382 0.63466 0.75777 0.0
C1273 C 0.99601 0.68682 0.8122 0.0
N1274 N 0.98509 0.68013 0.79561 0.0
C1275 C 0.99167 0.70566 0.82106 0.0
C1276 C 0.97565 0.71737 0.81343 0.0
H1277 H 1.00878 0.67809 0.81784 0.0
H1278 H 0.92092 0.72039 0.77002 0.0
H1279 H 0.04257 0.66931 0.79156 0.0
H1280 H 0.90996 0.68952 0.75062 0.0
H1281 H 0.91432 0.65273 0.74401 0.0
H1282 H 0.94344 0.73579 0.7957 0.0
H1283 H 0.03277 0.59335 0.73192 0.0
H1284 H 0.09785 0.64663 0.81683 0.0
H1285 H 0.06984 0.67175 0.81684 0.0
H1286 H 0.10818 0.58445 0.78032 0.0
H1287 H 1.0008 0.71123 0.83364 0.0
H1288 H 0.97245 0.73207 0.82022 0.0
H1289 H 0.11216 0.61409 0.80293 0.0
H1290 H 0.05613 0.56403 0.73312 0.0
N1291 N 0.05605 0.64483 0.7751 0.0
C1292 C 0.08615 0.64587 0.80517 0.0
C1293 C 0.07042 0.66012 0.80517 0.0
C1294 C 0.08576 0.62997 0.79101 0.0
C1295 C 0.07008 0.62964 0.77624 0.0
C1296 C 0.05517 0.65904 0.79029 0.0
N1297 N 0.05086 0.61183 0.75176 0.0
C1298 C 0.0675 0.61268 0.764 0.0
C1299 C 0.05959 0.57764 0.74181 0.0
C1300 C 0.07712 0.57857 0.75383 0.0
C1301 C 0.04633 0.5943 0.74128 0.0
C1302 C 0.08101 0.59601 0.76551 0.0
H1303 H 0.08718 0.56551 0.75451 0.0
O1304 O 0.04324 0.62767 0.71968 0.0
O1305 O 1.00496 0.6579 0.75202 0.0
O1306 O 0.97826 0.63271 0.75194 0.0
O1307 O 1.00722 0.62357 0.73308 0.0
O1308 O 1.01734 0.66427 0.72454 0.0
O1309 O 0.05649 0.65688 0.72679 0.0
O1310 O 1.00067 0.64158 0.81067 0.0
O1311 O 1.01735 0.62558 0.77309 0.0
O1312 O 0.03734 0.67865 0.75612 0.0
O1313 O 1.00753 0.68193 0.77477 0.0
O1314 O 0.98874 0.61362 0.77802 0.0
O1315 O 0.96806 0.64087 0.80074 0.0
C1316 C 1.00167 0.66728 0.73561 0.0
C1317 C 0.09755 0.59701 0.77908 0.0
C1318 C 0.09986 0.61392 0.79189 0.0
C1319 C 0.05323 0.64315 0.71268 0.0
C1320 C 0.04581 0.65011 0.69255 0.0
C1321 C 1.02589 0.64484 0.68609 0.0
C1322 C 0.05801 0.66217 0.67982 0.0
C1323 C 0.05018 0.66919 0.66112 0.0
C1324 C 1.01808 0.65206 0.66779 0.0
C1325 C 0.03012 0.66422 0.65535 0.0
C1326 C 0.98715 0.62314 0.7366 0.0
C1327 C 1.00737 0.60785 0.7745 0.0
C1328 C 0.98131 0.6388 0.81558 0.0
C1329 C 0.97373 0.63262 0.83574 0.0
C1330 C 0.98481 0.63726 0.85337 0.0
C1331 C 0.95373 0.62488 0.83745 0.0
C1332 C 0.94412 0.62307 0.8565 0.0
C1333 C 0.97571 0.63498 0.87243 0.0
C1334 C 0.95547 0.62831 0.87402 0.0
C1335 C 1.02402 0.69111 0.76599 0.0
H1336 H 1.01606 0.63535 0.69533 0.0
H1337 H 0.0734 0.66616 0.68447 0.0
H1338 H 1.0027 0.64811 0.66319 0.0
H1339 H 1.02391 0.66934 0.64093 0.0
H1340 H 1.00011 0.64348 0.85238 0.0
H1341 H 0.94555 0.62068 0.82375 0.0
H1342 H 0.98415 0.63903 0.88603 0.0
H1343 H 0.94872 0.62774 0.88901 0.0
Gd1344 Gd 0.15981 0.2764 0.49358 0.0
Gd1345 Gd 0.15345 0.23867 0.52888 0.0
C1346 C 0.10601 0.18826 0.51995 0.0
C1347 C 0.07923 0.19887 0.54302 0.0
C1348 C 0.11054 0.21881 0.54043 0.0
C1349 C 0.11816 0.20512 0.52601 0.0
C1350 C 0.09139 0.21522 0.54961 0.0
C1351 C 0.08641 0.18559 0.52808 0.0
C1352 C 0.11402 0.17414 0.50628 0.0
C1353 C 0.13411 0.17616 0.4999 0.0
N1354 N 0.13756 0.20754 0.51874 0.0
C1355 C 0.14585 0.19264 0.50665 0.0
H1356 H 0.16144 0.19282 0.50175 0.0
C1357 C 0.11645 0.24703 0.56238 0.0
N1358 N 0.12196 0.23539 0.54589 0.0
C1359 C 0.09799 0.24346 0.57233 0.0
C1360 C 0.08517 0.22785 0.56558 0.0
H1361 H 0.12588 0.25967 0.56726 0.0
H1362 H 0.07693 0.17284 0.52341 0.0
H1363 H 0.13321 0.28674 0.5379 0.0
H1364 H 0.10508 0.16118 0.50114 0.0
H1365 H 0.14069 0.16488 0.48986 0.0
H1366 H 0.06436 0.19613 0.54967 0.0
H1367 H 0.20966 0.27721 0.47948 0.0
H1368 H 0.15432 0.34325 0.56141 0.0
H1369 H 0.12979 0.31458 0.56201 0.0
H1370 H 0.21681 0.35389 0.52571 0.0
H1371 H 0.09347 0.25304 0.58494 0.0
H1372 H 0.07068 0.22539 0.5731 0.0
H1373 H 0.1868 0.35785 0.54769 0.0
H1374 H 0.2385 0.30104 0.48054 0.0
N1375 N 0.15721 0.30036 0.52084 0.0
C1376 C 0.15534 0.33132 0.55005 0.0
C1377 C 0.14144 0.31523 0.55038 0.0
C1378 C 0.17133 0.33096 0.53607 0.0
C1379 C 0.17201 0.31495 0.52167 0.0
C1380 C 0.14298 0.29959 0.536 0.0
N1381 N 0.19022 0.29564 0.49795 0.0
C1382 C 0.18906 0.31253 0.50972 0.0
C1383 C 0.22462 0.30461 0.48865 0.0
C1384 C 0.22333 0.32242 0.50013 0.0
C1385 C 0.20802 0.29119 0.488 0.0
C1386 C 0.20562 0.32632 0.51125 0.0
H1387 H 0.23635 0.33263 0.50091 0.0
O1388 O 0.17615 0.27749 0.4658 0.0
O1389 O 0.14941 0.24478 0.49644 0.0
O1390 O 0.17495 0.2236 0.50712 0.0
O1391 O 0.18117 0.24977 0.48382 0.0
O1392 O 0.13207 0.26267 0.47795 0.0
O1393 O 0.15257 0.29975 0.4704 0.0
O1394 O 0.16039 0.24769 0.56011 0.0
O1395 O 0.17599 0.26545 0.52224 0.0
O1396 O 0.12368 0.28124 0.5004 0.0
O1397 O 0.12043 0.2553 0.52384 0.0
O1398 O 0.1885 0.23887 0.53232 0.0
O1399 O 0.15992 0.21498 0.55028 0.0
C1400 C 0.13392 0.24437 0.48493 0.0
C1401 C 0.20432 0.34308 0.52444 0.0
C1402 C 0.18722 0.34536 0.53689 0.0
C1403 C 0.1658 0.29209 0.45767 0.0
C1404 C 0.1602 0.28814 0.43622 0.0
C1405 C 0.17122 0.27341 0.4251 0.0
C1406 C 0.1452 0.2996 0.42621 0.0
C1407 C 0.14118 0.29623 0.4054 0.0
C1408 C 0.16708 0.26994 0.40464 0.0
C1409 C 0.15217 0.28125 0.39481 0.0
C1410 C 0.18485 0.2311 0.49116 0.0
C1411 C 0.19401 0.25695 0.5264 0.0
C1412 C 0.16226 0.22826 0.56512 0.0
C1413 C 0.16766 0.2213 0.58568 0.0
C1414 C 0.16312 0.23323 0.60274 0.0
C1415 C 0.17542 0.20156 0.58835 0.0
C1416 C 0.17767 0.19311 0.60789 0.0
C1417 C 0.1657 0.22521 0.62226 0.0
C1418 C 0.17264 0.20523 0.62487 0.0
C1419 C 0.11114 0.26987 0.51248 0.0
H1420 H 0.18332 0.26463 0.43208 0.0
H1421 H 0.13694 0.31127 0.43443 0.0
H1422 H 0.17576 0.25872 0.39628 0.0
H1423 H 0.1498 0.27878 0.37867 0.0
H1424 H 0.15694 0.24844 0.60099 0.0
H1425 H 0.17953 0.19276 0.57505 0.0
H1426 H 0.16183 0.23433 0.63541 0.0
H1427 H 0.17365 0.19927 0.64019 0.0
Gd1428 Gd 0.55575 0.39488 0.28182 0.0
Gd1429 Gd 0.51987 0.4006 0.2419 0.0
C1430 C 0.54313 0.41819 0.1786 0.0
C1431 C 0.54025 0.45513 0.17936 0.0
C1432 C 0.52757 0.43461 0.20748 0.0
C1433 C 0.5343 0.41712 0.19812 0.0
C1434 C 0.52903 0.45361 0.19746 0.0
C1435 C 0.54738 0.43736 0.16993 0.0
C1436 C 0.54591 0.40006 0.16779 0.0
C1437 C 0.53802 0.38185 0.17564 0.0
N1438 N 0.52926 0.39896 0.20676 0.0
C1439 C 0.52884 0.38174 0.19488 0.0
H1440 H 0.52295 0.36757 0.20096 0.0
C1441 C 0.50272 0.44729 0.22975 0.0
N1442 N 0.51646 0.4324 0.22464 0.0
C1443 C 0.50359 0.46649 0.22048 0.0
C1444 C 0.51756 0.46996 0.20486 0.0
H1445 H 0.49172 0.44463 0.24173 0.0
H1446 H 0.55474 0.43853 0.15522 0.0
H1447 H 0.51149 0.41492 0.29725 0.0
H1448 H 0.55277 0.40017 0.1528 0.0
H1449 H 0.53902 0.3679 0.16689 0.0
H1450 H 0.54212 0.46969 0.17177 0.0
H1451 H 0.58923 0.3564 0.28379 0.0
H1452 H 0.48275 0.37163 0.33677 0.0
H1453 H 0.48269 0.40514 0.3194 0.0
H1454 H 0.52979 0.31582 0.33802 0.0
H1455 H 0.49348 0.47854 0.22537 0.0
H1456 H 0.51811 0.48477 0.19755 0.0
H1457 H 0.50038 0.33832 0.34354 0.0
H1458 H 0.5919 0.32253 0.30004 0.0
N1459 N 0.52763 0.38738 0.30219 0.0
C1460 C 0.49545 0.37587 0.3271 0.0
C1461 C 0.49536 0.39482 0.31733 0.0
C1462 C 0.51187 0.3626 0.32425 0.0
C1463 C 0.52799 0.36885 0.31151 0.0
C1464 C 0.51171 0.40037 0.30483 0.0
N1465 N 0.55965 0.3623 0.29564 0.0
C1466 C 0.54446 0.35599 0.30817 0.0
C1467 C 0.57841 0.33171 0.30232 0.0
C1468 C 0.56259 0.32458 0.31464 0.0
C1469 C 0.57677 0.35081 0.29302 0.0
C1470 C 0.54542 0.3368 0.31784 0.0
H1471 H 0.56389 0.30976 0.32183 0.0
O1472 O 0.58764 0.39643 0.28977 0.0
O1473 O 0.54705 0.41339 0.25577 0.0
O1474 O 0.54638 0.38269 0.22955 0.0
O1475 O 0.56658 0.3727 0.25747 0.0
O1476 O 0.5779 0.40581 0.25816 0.0
O1477 O 0.56506 0.40716 0.31134 0.0
O1478 O 0.49026 0.39257 0.2556 0.0
O1479 O 0.52874 0.37764 0.26734 0.0
O1480 O 0.5465 0.43039 0.28525 0.0
O1481 O 0.52148 0.43268 0.26082 0.0
O1482 O 0.51711 0.36518 0.24129 0.0
O1483 O 0.49221 0.40472 0.2251 0.0
C1484 C 0.56443 0.41554 0.2477 0.0
C1485 C 0.52937 0.33053 0.33052 0.0
C1486 C 0.51263 0.34338 0.33369 0.0
C1487 C 0.58444 0.40463 0.30748 0.0
C1488 C 0.59816 0.39795 0.32381 0.0
C1489 C 0.59475 0.37984 0.33459 0.0
C1490 C 0.61606 0.40929 0.3273 0.0
C1491 C 0.63088 0.40252 0.34128 0.0
C1492 C 0.60937 0.37289 0.34841 0.0
C1493 C 0.62734 0.384 0.35165 0.0
C1494 C 0.56112 0.37177 0.23798 0.0
C1495 C 0.52457 0.35963 0.25884 0.0
C1496 C 0.48079 0.39543 0.23824 0.0
C1497 C 0.46822 0.37872 0.22936 0.0
C1498 C 0.4564 0.36599 0.24182 0.0
C1499 C 0.46792 0.37548 0.20801 0.0
C1500 C 0.45647 0.35954 0.19933 0.0
C1501 C 0.44484 0.35018 0.23325 0.0
C1502 C 0.44497 0.34685 0.2122 0.0
C1503 C 0.53299 0.44229 0.27515 0.0
H1504 H 0.58102 0.37097 0.33214 0.0
H1505 H 0.61833 0.42346 0.31908 0.0
H1506 H 0.60685 0.35874 0.35653 0.0
H1507 H 0.6385 0.37796 0.36219 0.0
H1508 H 0.45614 0.36823 0.25816 0.0
H1509 H 0.47685 0.38511 0.19798 0.0
H1510 H 0.43575 0.34042 0.24298 0.0
H1511 H 0.43588 0.33452 0.20593 0.0
Gd1512 Gd 0.39136 0.76656 1.00058 0.0
Gd1513 Gd 0.39799 0.81249 1.0262 0.0
C1514 C 0.43435 0.86801 1.00467 0.0
C1515 C 0.46643 0.86363 1.02271 0.0
C1516 C 0.4383 0.84002 0.0284 0.0
C1517 C 0.42646 0.8504 1.0143 0.0
C1518 C 0.45794 0.84727 0.0336 0.0
C1519 C 0.45469 0.87389 1.00815 0.0
C1520 C 0.42121 0.87998 0.99296 0.0
C1521 C 0.40042 0.87542 0.99269 0.0
N1522 N 0.40655 0.84481 1.01194 0.0
C1523 C 0.39323 0.85818 1.003 0.0
H1524 H 0.37698 0.85564 1.00362 0.0
C1525 C 0.4389 0.81668 0.05589 0.0
N1526 N 0.42984 0.8241 0.03854 0.0
C1527 C 0.45831 0.82343 0.06167 0.0
C1528 C 0.46809 0.83847 0.05019 0.0
H1529 H 0.43168 0.80461 0.06449 0.0
H1530 H 0.4611 0.88712 1.00056 0.0
H1531 H 0.41728 0.76346 0.04571 0.0
H1532 H 0.42669 0.89355 0.98526 0.0
H1533 H 0.38986 0.88537 0.98485 0.0
H1534 H 0.48169 0.86906 1.02611 0.0
H1535 H 0.34447 0.76439 0.97805 0.0
H1536 H 0.38277 0.72475 0.08488 0.0
H1537 H 0.41378 0.74509 0.07795 0.0
H1538 H 0.32021 0.7144 0.04878 0.0
H1539 H 0.46578 0.8169 0.07484 0.0
H1540 H 0.48316 0.84365 0.05466 0.0
H1541 H 0.34806 0.71329 0.07382 0.0
H1542 H 0.3113 0.74803 0.98467 0.0
N1543 N 0.38901 0.75294 0.03355 0.0
C1544 C 0.38429 0.73265 0.07047 0.0
C1545 C 0.40183 0.74409 0.0666 0.0
C1546 C 0.36863 0.73206 0.05598 0.0
C1547 C 0.37134 0.74259 0.03743 0.0
C1548 C 0.40388 0.75434 0.04805 0.0
N1549 N 0.35802 0.75413 1.00581 0.0
C1550 C 0.35545 0.74326 1.02326 0.0
C1551 C 0.32357 0.74656 0.99561 0.0
C1552 C 0.32081 0.73501 1.01323 0.0
C1553 C 0.34232 0.75611 0.9921 0.0
C1554 C 0.33676 0.73331 1.02734 0.0
H1555 H 0.30624 0.72765 1.0159 0.0
O1556 O 0.37869 0.74099 0.98446 0.0
O1557 O 0.40947 0.79372 1.00213 0.0
O1558 O 0.37995 0.82052 0.99807 0.0
O1559 O 0.37166 0.78951 0.98185 0.0
O1560 O 0.40207 0.78444 0.97278 0.0
O1561 O 0.41106 0.74317 0.98704 0.0
O1562 O 0.39337 0.80265 0.05822 0.0
O1563 O 0.37466 0.78587 1.02426 0.0
O1564 O 0.42729 0.76391 1.01025 0.0
O1565 O 0.43146 0.7964 1.0229 0.0
O1566 O 0.36279 0.8149 1.02498 0.0
O1567 O 0.39135 0.83493 0.04814 0.0
C1568 C 0.41233 0.79754 0.98353 0.0
C1569 C 0.3344 0.72226 0.04548 0.0
C1570 C 0.35027 0.72162 0.05974 0.0
C1571 C 0.39582 0.73407 0.97809 0.0
C1572 C 0.39651 0.73073 0.95594 0.0
C1573 C 0.37814 0.7268 0.94536 0.0
C1574 C 0.41482 0.73229 0.94501 0.0
C1575 C 0.41444 0.73074 0.92376 0.0
C1576 C 0.3779 0.72532 0.92425 0.0
C1577 C 0.39595 0.72742 0.91345 0.0
C1578 C 0.37007 0.80982 0.98393 0.0
C1579 C 0.35706 0.79586 1.02426 0.0
C1580 C 0.39026 0.82189 0.06315 0.0
C1581 C 0.38534 0.82982 0.08356 0.0
C1582 C 0.3872 0.81776 0.10107 0.0
C1583 C 0.37979 0.85046 0.08555 0.0
C1584 C 0.3764 0.85924 0.10468 0.0
C1585 C 0.38382 0.82636 0.12026 0.0
C1586 C 0.37857 0.84698 0.12212 0.0
C1587 C 0.44033 0.77847 1.01748 0.0
H1588 H 0.36381 0.72518 0.95339 0.0
H1589 H 0.42918 0.73482 0.95284 0.0
H1590 H 0.36372 0.7225 0.91625 0.0
H1591 H 0.39562 0.72592 0.89702 0.0
H1592 H 0.39157 0.80189 0.09994 0.0
H1593 H 0.37854 0.86001 0.07213 0.0
H1594 H 0.38538 0.81705 0.13378 0.0
H1595 H 0.37595 0.85325 0.13713 0.0
Gd1596 Gd 0.0308 0.40773 0.80921 0.0
Gd1597 Gd 0.99407 0.4001 0.77276 0.0
C1598 C 0.94302 0.35285 0.77904 0.0
C1599 C 0.95432 0.32635 0.75594 0.0
C1600 C 0.97473 0.35719 0.7604 0.0
C1601 C 0.96031 0.3649 0.77411 0.0
C1602 C 0.97145 0.33811 0.75086 0.0
C1603 C 0.94028 0.3336 0.77009 0.0
C1604 C 0.92877 0.3604 0.79283 0.0
C1605 C 0.93157 0.37966 0.80115 0.0
N1606 N 0.96288 0.38395 0.78236 0.0
C1607 C 0.94856 0.3913 0.79571 0.0
H1608 H 0.94971 0.40591 0.80294 0.0
C1609 C 1.0049 0.36224 0.74101 0.0
N1610 N 0.99194 0.36821 0.75631 0.0
C1611 C 1.00207 0.34358 0.73119 0.0
C1612 C 0.98545 0.33133 0.73634 0.0
H1613 H 1.01799 0.37151 0.7371 0.0
H1614 H 0.92712 0.32427 0.77383 0.0
H1615 H 0.043 0.38276 0.76482 0.0
H1616 H 0.91548 0.35151 0.79708 0.0
H1617 H 0.92059 0.38561 0.81188 0.0
H1618 H 0.95175 0.31159 0.74894 0.0
H1619 H 0.0308 0.45471 0.82941 0.0
H1620 H 0.09788 0.40899 0.74206 0.0
H1621 H 0.07087 0.38264 0.74022 0.0
H1622 H 0.10617 0.46912 0.78255 0.0
H1623 H 1.01274 0.33863 0.71968 0.0
H1624 H 0.98339 0.31679 0.72876 0.0
H1625 H 0.11101 0.44119 0.75807 0.0
H1626 H 0.05346 0.48464 0.83055 0.0
N1627 N 0.05488 0.40738 0.78236 0.0
C1628 C 0.08587 0.40877 0.75337 0.0
C1629 C 0.0707 0.39383 0.75233 0.0
C1630 C 0.08468 0.42391 0.76827 0.0
C1631 C 0.06863 0.42298 0.78252 0.0
C1632 C 0.05506 0.39362 0.76675 0.0
N1633 N 0.04884 0.43864 0.8078 0.0
C1634 C 0.06562 0.439 0.79585 0.0
C1635 C 0.05711 0.47191 0.82075 0.0
C1636 C 0.07471 0.47235 0.80886 0.0
C1637 C 0.04421 0.4549 0.81994 0.0
C1638 C 0.07899 0.45593 0.79596 0.0
H1639 H 0.08459 0.48563 0.80937 0.0
O1640 O 0.02802 0.41854 0.84043 0.0
O1641 O 0.99969 0.39686 0.80535 0.0
O1642 O 0.97781 0.42204 0.79311 0.0
O1643 O 1.00429 0.43008 0.81586 0.0
O1644 O 1.01703 0.37975 0.82438 0.0
O1645 O 0.0563 0.40373 0.83013 0.0
O1646 O 1.00583 0.40702 0.74247 0.0
O1647 O 1.01977 0.42346 0.78029 0.0
O1648 O 0.03743 0.3723 0.80137 0.0
O1649 O 1.01043 0.3681 0.77943 0.0
O1650 O 0.99369 0.43491 0.7678 0.0
O1651 O 0.97297 0.40226 0.74841 0.0
C1652 C 0.99884 0.38161 0.81705 0.0
C1653 C 0.0957 0.45629 0.78267 0.0
C1654 C 0.09848 0.44036 0.76876 0.0
C1655 C 0.04637 0.41256 0.84488 0.0
C1656 C 0.05519 0.41527 0.86514 0.0
C1657 C 0.06221 0.43449 0.87132 0.0
C1658 C 0.05509 0.39898 0.87894 0.0
C1659 C 0.06249 0.40164 0.89891 0.0
C1660 C 0.06936 0.43735 0.89113 0.0
C1661 C 0.06958 0.42107 0.90484 0.0
C1662 C 0.9854 0.43284 0.80854 0.0
C1663 C 1.01122 0.44112 0.77485 0.0
C1664 C 0.98707 0.40731 0.73509 0.0
C1665 C 0.98123 0.42356 0.7208 0.0
C1666 C 0.99505 0.43142 0.70649 0.0
C1667 C 0.96082 0.42977 0.72006 0.0
C1668 C 0.95406 0.44336 0.70526 0.0
C1669 C 0.98842 0.44549 0.69187 0.0
C1670 C 0.96797 0.45151 0.69123 0.0
C1671 C 1.02576 0.35952 0.78993 0.0
H1672 H 0.06208 0.44728 0.86089 0.0
H1673 H 0.04914 0.38431 0.87408 0.0
H1674 H 0.07493 0.45218 0.89584 0.0
H1675 H 0.07593 0.42361 0.91985 0.0
H1676 H 1.01079 0.42648 0.70642 0.0
H1677 H 0.94979 0.42374 0.7308 0.0
H1678 H 0.99908 0.45147 0.6808 0.0
H1679 H 0.96292 0.46208 0.6796 0.0
Gd1680 Gd 0.39882 0.28645 0.55347 0.0
Gd1681 Gd 0.40253 0.24365 0.52133 0.0
C1682 C 0.41491 0.17876 0.54439 0.0
C1683 C 0.45136 0.17559 0.53883 0.0
C1684 C 0.43328 0.2059 0.5276 0.0
C1685 C 0.41533 0.19829 0.53533 0.0
C1686 C 0.45111 0.1939 0.52777 0.0
C1687 C 0.43324 0.16807 0.5473 0.0
C1688 C 0.39601 0.16996 0.54886 0.0
C1689 C 0.37823 0.17977 0.54253 0.0
N1690 N 0.39792 0.20876 0.53138 0.0
C1691 C 0.37949 0.19888 0.53307 0.0
H1692 H 0.36555 0.2063 0.5285 0.0
C1693 C 0.44726 0.22781 0.50291 0.0
N1694 N 0.43232 0.22347 0.51691 0.0
C1695 C 0.46504 0.21612 0.50204 0.0
C1696 C 0.46741 0.19967 0.5153 0.0
H1697 H 0.4457 0.24079 0.49284 0.0
H1698 H 0.4333 0.15329 0.5547 0.0
H1699 H 0.41223 0.29766 0.50574 0.0
H1700 H 0.395 0.15506 0.55595 0.0
H1701 H 0.36353 0.17262 0.54496 0.0
H1702 H 0.46509 0.16646 0.5397 0.0
H1703 H 0.36605 0.29091 0.59215 0.0
H1704 H 0.36933 0.34169 0.48347 0.0
H1705 H 0.39982 0.32022 0.47801 0.0
H1706 H 0.32414 0.35122 0.54 0.0
H1707 H 0.47704 0.22009 0.49146 0.0
H1708 H 0.48126 0.19072 0.51475 0.0
H1709 H 0.34128 0.35331 0.50677 0.0
H1710 H 0.33554 0.31136 0.60029 0.0
N1711 N 0.38867 0.30616 0.52602 0.0
C1712 C 0.37461 0.33176 0.49555 0.0
C1713 C 0.39185 0.31965 0.49241 0.0
C1714 C 0.3644 0.33096 0.51426 0.0
C1715 C 0.37178 0.31767 0.52939 0.0
C1716 C 0.39883 0.30692 0.50802 0.0
N1717 N 0.36842 0.30235 0.56194 0.0
C1718 C 0.36173 0.3161 0.54804 0.0
C1719 C 0.34259 0.31265 0.58546 0.0
C1720 C 0.33497 0.3264 0.5711 0.0
C1721 C 0.35962 0.30086 0.58069 0.0
C1722 C 0.34459 0.32836 0.55217 0.0
H1723 H 0.32175 0.33552 0.57483 0.0
O1724 O 0.40944 0.29326 0.58355 0.0
O1725 O 0.41625 0.25936 0.54655 0.0
O1726 O 0.38543 0.23416 0.54965 0.0
O1727 O 0.37608 0.26428 0.56679 0.0
O1728 O 0.41016 0.26448 0.57729 0.0
O1729 O 0.40752 0.31783 0.56154 0.0
O1730 O 0.3966 0.26014 0.49256 0.0
O1731 O 0.37942 0.26936 0.52888 0.0
O1732 O 0.43303 0.2904 0.54019 0.0
O1733 O 0.43623 0.25919 0.5248 0.0
O1734 O 0.36753 0.24239 0.51868 0.0
O1735 O 0.406 0.22856 0.49297 0.0
C1736 C 0.41907 0.25269 0.56442 0.0
C1737 C 0.33739 0.34181 0.53718 0.0
C1738 C 0.34716 0.34299 0.51824 0.0
C1739 C 0.41155 0.31265 0.58033 0.0
C1740 C 0.40493 0.32537 0.59745 0.0
C1741 C 0.38923 0.33972 0.59604 0.0
C1742 C 0.41469 0.32218 0.61618 0.0
C1743 C 0.4097 0.33371 0.63344 0.0
C1744 C 0.3834 0.35065 0.61336 0.0
C1745 C 0.39363 0.34782 0.63191 0.0
C1746 C 0.37524 0.24431 0.56385 0.0
C1747 C 0.36143 0.26021 0.525 0.0
C1748 C 0.39944 0.24353 0.48191 0.0
C1749 C 0.38467 0.23725 0.46603 0.0
C1750 C 0.3795 0.25057 0.45017 0.0
C1751 C 0.37819 0.2167 0.46495 0.0
C1752 C 0.3677 0.20922 0.44789 0.0
C1753 C 0.36825 0.24342 0.43348 0.0
C1754 C 0.3625 0.22286 0.43223 0.0
C1755 C 0.44547 0.2766 0.53126 0.0
H1756 H 0.38142 0.34235 0.58175 0.0
H1757 H 0.42647 0.31066 0.61713 0.0
H1758 H 0.3712 0.36166 0.61231 0.0
H1759 H 0.38941 0.35723 0.64474 0.0
H1760 H 0.38464 0.26629 0.45043 0.0
H1761 H 0.38185 0.20617 0.47714 0.0
H1762 H 0.36447 0.25374 0.42118 0.0
H1763 H 0.35446 0.21755 0.41881 0.0
Gd1764 Gd 0.52332 0.6434 0.30692 0.0
Gd1765 Gd 0.56307 0.64874 0.27364 0.0
C1766 C 0.62039 0.68871 0.27707 0.0
C1767 C 0.61385 0.71344 0.2504 0.0
C1768 C 0.58866 0.68701 0.25788 0.0
C1769 C 0.60148 0.67894 0.273 0.0
C1770 C 0.59506 0.70407 0.24628 0.0
C1771 C 0.62638 0.70588 0.26579 0.0
C1772 C 0.63288 0.68115 0.29251 0.0
C1773 C 0.62661 0.66428 0.30362 0.0
N1774 N 0.59557 0.66201 0.28382 0.0
C1775 C 0.60801 0.65488 0.29916 0.0
H1776 H 0.60418 0.64226 0.30881 0.0
C1777 C 0.55827 0.68465 0.23823 0.0
N1778 N 0.57018 0.67816 0.25422 0.0
C1779 C 0.5642 0.70126 0.22635 0.0
C1780 C 0.58255 0.71116 0.23053 0.0
H1781 H 0.54377 0.67736 0.23509 0.0
H1782 H 0.64083 0.7134 0.26881 0.0
H1783 H 0.51111 0.66508 0.26246 0.0
H1784 H 0.64735 0.68835 0.29611 0.0
H1785 H 0.6361 0.65851 0.31583 0.0
H1786 H 0.61887 0.72657 0.24169 0.0
H1787 H 0.52021 0.60291 0.33811 0.0
H1788 H 0.46528 0.62775 0.23428 0.0
H1789 H 0.48712 0.65864 0.23401 0.0
H1790 H 0.45816 0.57156 0.28059 0.0
H1791 H 0.55453 0.70652 0.21406 0.0
H1792 H 0.58705 0.72414 0.22133 0.0
H1793 H 0.45444 0.59538 0.25186 0.0
H1794 H 0.50069 0.57075 0.34017 0.0
N1795 N 0.50297 0.63806 0.2783 0.0
C1796 C 0.47581 0.63047 0.24673 0.0
C1797 C 0.48813 0.64793 0.24651 0.0
C1798 C 0.47727 0.61668 0.26295 0.0
C1799 C 0.49124 0.62091 0.27873 0.0
C1800 C 0.50168 0.65157 0.2626 0.0
N1801 N 0.50735 0.61163 0.30962 0.0
C1802 C 0.49348 0.60734 0.29486 0.0
C1803 C 0.49859 0.58084 0.3273 0.0
C1804 C 0.48439 0.57603 0.31215 0.0
C1805 C 0.50982 0.59895 0.32593 0.0
C1806 C 0.48157 0.5894 0.29575 0.0
H1807 H 0.47562 0.56204 0.31331 0.0
O1808 O 0.51296 0.64307 0.33806 0.0
O1809 O 0.55072 0.66197 0.30187 0.0
O1810 O 0.57556 0.62826 0.29795 0.0
O1811 O 0.54713 0.62002 0.31803 0.0
O1812 O 0.54647 0.64922 0.33062 0.0
O1813 O 0.49487 0.65842 0.31506 0.0
O1814 O 0.55283 0.64188 0.24243 0.0
O1815 O 0.5358 0.62655 0.27923 0.0
O1816 O 0.52161 0.67947 0.29901 0.0
O1817 O 0.54801 0.68242 0.27645 0.0
O1818 O 0.56329 0.61357 0.2724 0.0
O1819 O 0.58563 0.64102 0.25183 0.0
C1820 C 0.55778 0.66126 0.31995 0.0
C1821 C 0.46742 0.58528 0.28019 0.0
C1822 C 0.46531 0.59885 0.26382 0.0
C1823 C 0.49659 0.65348 0.33423 0.0
C1824 C 0.47838 0.6471 0.34538 0.0
C1825 C 0.46563 0.63141 0.3384 0.0
C1826 C 0.47485 0.65603 0.3644 0.0
C1827 C 0.45889 0.64911 0.37689 0.0
C1828 C 0.44966 0.62446 0.35061 0.0
C1829 C 0.44635 0.63311 0.36978 0.0
C1830 C 0.56673 0.61783 0.31289 0.0
C1831 C 0.54457 0.60848 0.27643 0.0
C1832 C 0.5721 0.63923 0.23715 0.0
C1833 C 0.57908 0.63334 0.2167 0.0
C1834 C 0.5676 0.63832 0.19942 0.0
C1835 C 0.59893 0.62562 0.21433 0.0
C1836 C 0.60806 0.62419 0.19501 0.0
C1837 C 0.57618 0.63636 0.18008 0.0
C1838 C 0.59631 0.62972 0.17786 0.0
C1839 C 0.53299 0.69177 0.28691 0.0
H1840 H 0.46812 0.62442 0.32374 0.0
H1841 H 0.48467 0.66838 0.36944 0.0
H1842 H 0.43995 0.61216 0.34532 0.0
H1843 H 0.43413 0.62707 0.37908 0.0
H1844 H 0.55241 0.64457 0.20089 0.0
H1845 H 0.60739 0.62115 0.22776 0.0
H1846 H 0.56743 0.64067 0.16678 0.0
H1847 H 0.60269 0.62942 0.1627 0.0
Gd1848 Gd 0.142 0.80215 1.01742 0.0
Gd1849 Gd 0.14869 0.77541 0.06298 0.0
C1850 C 0.18706 0.79675 0.11723 0.0
C1851 C 0.21779 0.77663 0.11333 0.0
C1852 C 0.18929 0.77202 0.08996 0.0
C1853 C 0.17839 0.78701 0.10005 0.0
C1854 C 0.20844 0.76568 0.09749 0.0
C1855 C 0.2072 0.79235 0.12301 0.0
C1856 C 0.17475 0.80941 0.12904 0.0
C1857 C 0.15392 0.81031 0.12496 0.0
N1858 N 0.15853 0.7901 0.09476 0.0
C1859 C 0.14591 0.79978 0.10824 0.0
H1860 H 0.12961 0.79945 0.10634 0.0
C1861 C 0.18802 0.74393 0.0674 0.0
N1862 N 0.18017 0.76204 0.0743 0.0
C1863 C 0.20652 0.73658 0.07501 0.0
C1864 C 0.21707 0.7478 0.08973 0.0
H1865 H 0.1804 0.73553 0.05544 0.0
H1866 H 0.2142 0.80001 0.13588 0.0
H1867 H 0.16764 0.75748 1.0125 0.0
H1868 H 0.18086 0.81724 0.14226 0.0
H1869 H 0.14392 0.81874 0.13495 0.0
H1870 H 0.23276 0.77239 0.11887 0.0
H1871 H 0.09464 0.82368 1.01694 0.0
H1872 H 0.13447 0.72069 0.97016 0.0
H1873 H 0.16473 0.72628 0.99202 0.0
H1874 H 0.07267 0.7579 0.95958 0.0
H1875 H 0.21285 0.72253 0.06918 0.0
H1876 H 0.23157 0.74226 0.09537 0.0
H1877 H 0.10034 0.73276 0.95791 0.0
H1878 H 0.06238 0.81873 0.99856 0.0
N1879 N 0.13956 0.76989 1.00218 0.0
C1880 C 0.13567 0.7345 0.97914 0.0
C1881 C 0.15278 0.73761 0.99146 0.0
C1882 C 0.12008 0.74901 0.97894 0.0
C1883 C 0.12238 0.76671 0.99094 0.0
C1884 C 0.15446 0.75546 1.003 0.0
N1885 N 0.10875 0.79708 1.00462 0.0
C1886 C 0.10662 0.78079 0.99205 0.0
C1887 C 0.07468 0.80795 0.99657 0.0
C1888 C 0.07247 0.79161 0.98316 0.0
C1889 C 0.09297 0.81049 1.00725 0.0
C1890 C 0.08842 0.77766 0.98091 0.0
H1891 H 0.05826 0.78969 0.97491 0.0
O1892 O 0.12992 0.82522 0.99783 0.0
O1893 O 0.16005 0.79987 0.04453 0.0
O1894 O 0.13073 0.80355 0.07127 0.0
O1895 O 0.12258 0.82002 0.04048 0.0
O1896 O 0.15408 0.82944 0.03511 0.0
O1897 O 0.15882 0.81162 0.99006 0.0
O1898 O 0.14319 0.74329 0.05408 0.0
O1899 O 0.1253 0.77773 0.03629 0.0
O1900 O 0.17823 0.79399 1.01533 0.0
O1901 O 0.18191 0.7775 0.04619 0.0
O1902 O 0.1137 0.7765 0.06546 0.0
O1903 O 0.14182 0.75408 0.08616 0.0
C1904 C 0.16337 0.8184 0.04851 0.0
C1905 C 0.08648 0.76048 0.96832 0.0
C1906 C 0.10224 0.74616 0.96738 0.0
C1907 C 0.1449 0.82494 0.98512 0.0
C1908 C 0.15051 0.84522 0.97768 0.0
C1909 C 0.13713 0.85401 0.96348 0.0
C1910 C 0.16644 0.85695 0.98613 0.0
C1911 C 0.16846 0.87756 0.98047 0.0
C1912 C 0.13919 0.87436 0.95793 0.0
C1913 C 0.15469 0.8861 0.96642 0.0
C1914 C 0.12106 0.81785 0.06063 0.0
C1915 C 0.10782 0.77743 0.04654 0.0
C1916 C 0.14048 0.73876 0.07347 0.0
C1917 C 0.13538 0.71848 0.08171 0.0
C1918 C 0.13799 0.70076 0.07008 0.0
C1919 C 0.12893 0.71677 0.10211 0.0
C1920 C 0.12484 0.69769 0.1107 0.0
C1921 C 0.13411 0.68162 0.0787 0.0
C1922 C 0.12742 0.68007 0.09886 0.0
C1923 C 0.19094 0.7849 0.02903 0.0
H1924 H 0.12459 0.84523 0.95713 0.0
H1925 H 0.17684 0.8503 0.99713 0.0
H1926 H 0.12871 0.88107 0.9471 0.0
H1927 H 0.15628 0.90185 0.96159 0.0
H1928 H 0.14327 0.70169 0.05449 0.0
H1929 H 0.12662 0.73031 0.11129 0.0
H1930 H 0.13618 0.66796 0.06971 0.0
H1931 H 0.12409 0.66515 0.10517 0.0
Gd1932 Gd 0.75001 0.02716 0.64536 0.0
Gd1933 Gd 0.78171 0.98604 0.65396 0.0
C1934 C 0.76243 0.92004 0.66708 0.0
C1935 C 0.76271 0.91926 0.70405 0.0
C1936 C 0.77442 0.94935 0.6858 0.0
C1937 C 0.76987 0.94026 0.66754 0.0
C1938 C 0.77241 0.93838 0.70418 0.0
C1939 C 0.75763 0.91009 0.68544 0.0
C1940 C 0.76155 0.90995 0.64838 0.0
C1941 C 0.76972 0.91938 0.63116 0.0
N1942 N 0.7756 0.95017 0.6503 0.0
C1943 C 0.77735 0.93933 0.63252 0.0
H1944 H 0.78355 0.94626 0.61901 0.0
C1945 C 0.79632 0.9731 0.70131 0.0
N1946 N 0.78433 0.96742 0.6851 0.0
C1947 C 0.79472 0.96299 0.72001 0.0
C1948 C 0.78194 0.94602 0.72168 0.0
H1949 H 0.8065 0.98606 0.70003 0.0
H1950 H 0.75142 0.89475 0.68539 0.0
H1951 H 0.79264 0.03851 0.67335 0.0
H1952 H 0.75586 0.89445 0.64733 0.0
H1953 H 0.77013 0.91131 0.61681 0.0
H1954 H 0.76047 0.91082 0.71806 0.0
H1955 H 0.73116 1.02375 0.59714 0.0
H1956 H 0.82649 0.08313 0.64043 0.0
H1957 H 0.82146 0.06214 0.67127 0.0
H1958 H 0.79206 0.08686 0.5763 0.0
H1959 H 0.80341 0.96825 0.73303 0.0
H1960 H 0.78089 0.93803 0.73608 0.0
H1961 H 0.81525 0.09244 0.60522 0.0
H1962 H 0.73589 0.04143 0.56444 0.0
N1963 N 0.78052 0.04616 0.64427 0.0
C1964 C 0.8136 0.07278 0.64129 0.0
C1965 C 0.8108 0.06098 0.65872 0.0
C1966 C 0.80005 0.07069 0.62495 0.0
C1967 C 0.78353 0.05695 0.6268 0.0
C1968 C 0.79416 0.04764 0.65993 0.0
N1969 N 0.75542 0.03962 0.61212 0.0
C1970 C 0.77055 0.05368 0.61033 0.0
C1971 C 0.74571 0.04506 0.57721 0.0
C1972 C 0.76082 0.05996 0.57531 0.0
C1973 C 0.74326 0.03489 0.59575 0.0
C1974 C 0.77363 0.06426 0.59186 0.0
H1975 H 0.76272 0.06777 0.5609 0.0
O1976 O 0.72616 0.04403 0.63086 0.0
O1977 O 0.75459 1.00093 0.66494 0.0
O1978 O 0.75534 0.97272 0.63619 0.0
O1979 O 0.73528 1.00088 0.62674 0.0
O1980 O 0.72452 1.00707 0.65722 0.0
O1981 O 0.73615 0.0533 0.66067 0.0
O1982 O 0.80906 1.00453 0.64746 0.0
O1983 O 0.77581 1.01054 0.62908 0.0
O1984 O 0.75659 0.03191 0.6818 0.0
O1985 O 0.7762 1.00343 0.68662 0.0
O1986 O 0.78362 0.9824 0.61864 0.0
O1987 O 0.8114 0.97469 0.66096 0.0
C1988 C 0.73629 0.995 0.66738 0.0
C1989 C 0.78957 0.0785 0.59031 0.0
C1990 C 0.80277 0.08168 0.60679 0.0
C1991 C 0.72219 0.05503 0.64659 0.0
C1992 C 0.7008 0.05428 0.65291 0.0
C1993 C 0.68646 0.04243 0.64193 0.0
C1994 C 0.69461 0.06497 0.67019 0.0
C1995 C 0.67447 0.06332 0.67667 0.0
C1996 C 0.66634 0.04105 0.6484 0.0
C1997 C 0.66034 0.05139 0.66579 0.0
C1998 C 0.73986 0.98099 0.62612 0.0
C1999 C 0.77856 1.00036 0.6118 0.0
C2000 C 0.82117 0.98961 0.65245 0.0
C2001 C 0.83705 0.9831 0.63799 0.0
C2002 C 0.85128 0.99702 0.63014 0.0
C2003 C 0.83899 0.96226 0.63323 0.0
C2004 C 0.85524 0.95515 0.62155 0.0
C2005 C 0.86721 0.9901 0.6178 0.0
C2006 C 0.86926 0.96926 0.61354 0.0
C2007 C 0.7669 1.01983 0.69522 0.0
H2008 H 0.69071 0.03409 0.62837 0.0
H2009 H 0.70532 0.07447 0.67854 0.0
H2010 H 0.65539 0.03203 0.6399 0.0
H2011 H 0.64453 0.05051 0.67053 0.0
H2012 H 0.85021 1.0131 0.63374 0.0
H2013 H 0.82792 0.95129 0.63882 0.0
H2014 H 0.8782 1.00088 0.6118 0.0
H2015 H 0.88192 0.96416 0.60433 0.0
Gd2016 Gd 0.77539 0.99437 0.39499 0.0
Gd2017 Gd 0.81965 1.02263 0.40126 0.0
C2018 C 0.87987 1.00326 0.43045 0.0
C2019 C 0.877 1.01776 0.46433 0.0
C2020 C 0.85052 1.02364 0.43908 0.0
C2021 C 0.86079 1.01169 0.42523 0.0
C2022 C 0.85934 0.02812 0.45817 0.0
C2023 C 0.88721 1.00517 0.45048 0.0
C2024 C 0.89183 0.9949 0.41498 0.0
C2025 C 0.88561 0.99706 0.39476 0.0
N2026 N 0.85377 1.01128 0.40576 0.0
C2027 C 0.86679 1.00605 0.39036 0.0
H2028 H 0.86243 1.00823 0.37465 0.0
C2029 C 0.82709 0.05062 0.44258 0.0
N2030 N 0.8337 0.03357 0.43252 0.0
C2031 C 0.83573 0.05612 0.46129 0.0
C2032 C 0.85128 0.0442 0.4696 0.0
H2033 H 0.81451 0.05939 0.43656 0.0
H2034 H 0.90159 0.99837 0.45491 0.0
H2035 H 0.76939 0.0379 0.42248 0.0
H2036 H 0.90658 0.98828 0.41832 0.0
H2037 H 0.89544 0.99214 0.38253 0.0
H2038 H 0.88368 1.0205 0.47919 0.0
H2039 H 0.7738 0.97322 0.34771 0.0
H2040 H 0.73018 0.07719 0.38877 0.0
H2041 H 0.75017 0.06974 0.41981 0.0
H2042 H 0.72107 0.04249 0.32536 0.0
H2043 H 0.82999 0.06917 0.46954 0.0
H2044 H 0.85779 0.04833 0.48421 0.0
H2045 H 0.71928 0.06683 0.35372 0.0
H2046 H 0.75653 0.97963 0.31507 0.0
N2047 N 0.76019 0.02673 0.39348 0.0
C2048 C 0.73856 0.06302 0.38988 0.0
C2049 C 0.74981 0.05886 0.40743 0.0
C2050 C 0.73858 0.04905 0.3738 0.0
C2051 C 0.74975 0.03082 0.37599 0.0
C2052 C 0.76064 0.04059 0.40896 0.0
N2053 N 0.76243 1.00013 0.36197 0.0
C2054 C 0.75084 1.01712 0.35985 0.0
C2055 C 0.75476 0.99027 0.32753 0.0
C2056 C 0.74263 1.00753 0.32518 0.0
C2057 C 0.76468 0.98681 0.34605 0.0
C2058 C 0.74065 1.02127 0.34135 0.0
H2059 H 0.73506 1.01022 0.31075 0.0
O2060 O 0.75611 0.97128 0.38234 0.0
O2061 O 0.8029 0.9969 0.41288 0.0
O2062 O 0.82897 0.99481 0.38354 0.0
O2063 O 0.79895 0.97666 0.37572 0.0
O2064 O 0.79301 0.96738 0.40764 0.0
O2065 O 0.74759 0.98499 0.41086 0.0
O2066 O 0.80601 0.05356 0.39715 0.0
O2067 O 0.79347 1.01878 0.37773 0.0
O2068 O 0.77334 1.00161 0.43145 0.0
O2069 O 0.80395 1.01868 0.43525 0.0
O2070 O 0.82247 1.02134 0.36607 0.0
O2071 O 0.83913 0.04732 0.39517 0.0
C2072 C 0.80695 0.97831 0.41636 0.0
C2073 C 0.72907 0.03912 0.33941 0.0
C2074 C 0.72805 0.05297 0.35557 0.0
C2075 C 0.74422 0.97021 0.39793 0.0
C2076 C 0.7416 0.94952 0.40596 0.0
C2077 C 0.7493 0.93262 0.3951 0.0
C2078 C 0.73179 0.94644 0.4246 0.0
C2079 C 0.73035 0.92677 0.4325 0.0
C2080 C 0.7477 0.91304 0.40304 0.0
C2081 C 0.73833 0.91009 0.42173 0.0
C2082 C 0.81908 0.9797 0.37431 0.0
C2083 C 0.80357 1.01924 0.36022 0.0
C2084 C 0.82452 0.06069 0.39391 0.0
C2085 C 0.83042 0.08143 0.38752 0.0
C2086 C 0.81979 0.09859 0.3942 0.0
C2087 C 0.84914 0.08401 0.37737 0.0
C2088 C 0.85855 0.10324 0.37575 0.0
C2089 C 0.82831 0.11802 0.39156 0.0
C2090 C 0.84768 0.12034 0.38285 0.0
C2091 C 0.78699 1.01061 0.44438 0.0
H2092 H 0.75671 0.93443 0.38049 0.0
H2093 H 0.72536 0.95917 0.43291 0.0
H2094 H 0.75362 0.90015 0.39467 0.0
H2095 H 0.73686 0.89471 0.42762 0.0
H2096 H 0.80543 0.09695 0.40217 0.0
H2097 H 0.85675 0.07067 0.37141 0.0
H2098 H 0.82024 0.13128 0.39707 0.0
H2099 H 0.85423 0.1355 0.38223 0.0
Gd2100 Gd 0.80374 1.01577 0.1439 0.0
Gd2101 Gd 0.77399 0.0582 0.15382 0.0
C2102 C 0.7836 0.10977 0.19946 0.0
C2103 C 0.76056 0.09983 0.22664 0.0
C2104 C 0.76337 0.07881 0.19622 0.0
C2105 C 0.77761 0.09251 0.18795 0.0
C2106 C 0.75421 0.08289 0.21525 0.0
C2107 C 0.77539 0.11305 0.2189 0.0
C2108 C 0.79733 0.12369 0.19099 0.0
C2109 C 0.80381 0.12104 0.17104 0.0
N2110 N 0.78486 0.08957 0.16859 0.0
C2111 C 0.79703 0.10423 0.15985 0.0
H2112 H 0.80165 0.10368 0.14419 0.0
C2113 C 0.74254 0.0493 0.19217 0.0
N2114 N 0.7581 0.06174 0.1856 0.0
C2115 C 0.73298 0.05298 0.21075 0.0
C2116 C 0.73896 0.06972 0.22243 0.0
H2117 H 0.73805 0.03611 0.18333 0.0
H2118 H 0.77999 0.12616 0.22787 0.0
H2119 H 0.76259 1.00498 0.17435 0.0
H2120 H 0.80244 0.13694 0.19947 0.0
H2121 H 0.81383 0.1322 0.1641 0.0
H2122 H 0.75399 0.10292 0.24143 0.0
H2123 H 0.81945 1.01798 0.09461 0.0
H2124 H 0.7291 0.95721 0.14563 0.0
H2125 H 0.73498 0.97988 0.17511 0.0
H2126 H 0.7588 0.95296 0.07939 0.0
H2127 H 0.72109 0.04283 0.2161 0.0
H2128 H 0.73163 0.07241 0.23695 0.0
H2129 H 0.73812 0.94726 0.11003 0.0
H2130 H 0.81267 0.99955 0.06265 0.0
N2131 N 0.77373 0.99598 0.1453 0.0
C2132 C 0.74156 0.96811 0.14529 0.0
C2133 C 0.74486 0.98085 0.16197 0.0
C2134 C 0.75386 0.97013 0.12805 0.0
C2135 C 0.76994 0.98452 0.1284 0.0
C2136 C 0.7609 0.99495 0.1616 0.0
N2137 N 0.79647 1.00218 0.11144 0.0
C2138 C 0.78157 0.98776 0.111 0.0
C2139 C 0.80385 0.99606 0.07612 0.0
C2140 C 0.78892 0.98085 0.07556 0.0
C2141 C 0.80742 1.00669 0.09422 0.0
C2142 C 0.77748 0.97663 0.09304 0.0
H2143 H 0.78619 0.97264 0.0615 0.0
O2144 O 0.82484 0.99598 0.12849 0.0
O2145 O 0.80114 0.04226 0.16299 0.0
O2146 O 0.79912 0.07106 0.13442 0.0
O2147 O 0.81682 0.04182 0.12339 0.0
O2148 O 0.83019 0.0362 0.15196 0.0
O2149 O 0.82234 0.99391 0.16091 0.0
O2150 O 0.7429 0.04748 0.14707 0.0
O2151 O 0.7771 0.03287 0.12928 0.0
O2152 O 0.79816 1.01153 0.18058 0.0
O2153 O 0.78115 0.04156 0.18617 0.0
O2154 O 0.77241 0.06217 0.11881 0.0
O2155 O 0.75015 0.07982 0.15283 0.0
C2156 C 0.81961 0.04789 0.16367 0.0
C2157 C 0.76201 0.96179 0.09297 0.0
C2158 C 0.75025 0.95853 0.11043 0.0
C2159 C 0.83357 0.99011 0.14502 0.0
C2160 C 0.85549 0.99508 0.14622 0.0
C2161 C 0.86601 1.00234 0.12893 0.0
C2162 C 0.86578 0.99386 0.16482 0.0
C2163 C 0.88655 0.99899 0.16614 0.0
C2164 C 0.88634 1.00835 0.13039 0.0
C2165 C 0.89663 1.00662 0.14884 0.0
C2166 C 0.81329 0.06202 0.12311 0.0
C2167 C 0.77481 0.04356 0.11218 0.0
C2168 C 0.73607 0.06639 0.14808 0.0
C2169 C 0.72041 0.07384 0.13376 0.0
C2170 C 0.7047 0.06095 0.12694 0.0
C2171 C 0.71966 0.09478 0.12889 0.0
C2172 C 0.70374 0.1027 0.11719 0.0
C2173 C 0.68877 0.06881 0.11512 0.0
C2174 C 0.68832 0.08957 0.11014 0.0
C2175 C 0.78972 1.02462 0.19432 0.0
H2176 H 0.85852 1.00361 0.11428 0.0
H2177 H 0.85775 0.98835 0.17816 0.0
H2178 H 0.8943 1.01387 0.11704 0.0
H2179 H 0.91277 1.01018 0.14917 0.0
H2180 H 0.70456 0.04493 0.131 0.0
H2181 H 0.73146 0.10514 0.13418 0.0
H2182 H 0.67666 0.05882 0.10991 0.0
H2183 H 0.6759 0.09541 0.10095 0.0
Gd2184 Gd 0.78144 0.05931 0.8984 0.0
Gd2185 Gd 0.7399 0.02805 0.90267 0.0
C2186 C 0.68628 0.03466 0.94631 0.0
C2187 C 0.69458 1.00982 0.97241 0.0
C2188 C 0.71723 1.0146 0.94343 0.0
C2189 C 0.70417 0.02946 0.93548 0.0
C2190 C 0.71188 1.00399 0.96141 0.0
C2191 C 0.682 1.02531 0.96505 0.0
C2192 C 0.67263 0.04847 0.93763 0.0
C2193 C 0.676 0.05552 0.91796 0.0
N2194 N 0.70799 0.03763 0.9167 0.0
C2195 C 0.69339 0.04939 0.90742 0.0
H2196 H 0.69452 0.0542 0.89182 0.0
C2197 C 0.7458 0.99295 0.93875 0.0
N2198 N 0.73462 1.00977 0.93319 0.0
C2199 C 0.74076 0.98184 0.95617 0.0
C2200 C 0.7239 0.98752 0.9677 0.0
H2201 H 0.75908 0.98857 0.9301 0.0
H2202 H 0.66845 0.02933 0.97355 0.0
H2203 H 0.78801 1.01356 0.92389 0.0
H2204 H 0.6589 0.05297 0.94558 0.0
H2205 H 0.66495 0.06537 0.91069 0.0
H2206 H 0.69056 1.00215 0.98647 0.0
H2207 H 0.783 0.07965 0.85142 0.0
H2208 H 0.8372 0.98251 0.89572 0.0
H2209 H 0.81173 0.98509 0.92323 0.0
H2210 H 0.84869 1.02074 0.83479 0.0
H2211 H 0.74996 0.96895 0.96076 0.0
H2212 H 0.72015 0.97897 0.98131 0.0
H2213 H 0.85098 0.99602 0.86284 0.0
H2214 H 0.80418 0.07688 0.82078 0.0
N2215 N 0.80071 0.02878 0.89822 0.0
C2216 C 0.827 0.99547 0.89618 0.0
C2217 C 0.8127 0.99691 0.91176 0.0
C2218 C 0.82725 1.0102 0.88081 0.0
C2219 C 0.81356 0.02672 0.88208 0.0
C2220 C 0.79943 1.01353 0.91235 0.0
N2221 N 0.79751 0.055 0.86687 0.0
C2222 C 0.81198 0.04034 0.86601 0.0
C2223 C 0.80656 0.06652 0.83338 0.0
C2224 C 0.82176 0.05173 0.83236 0.0
C2225 C 0.79449 0.06793 0.85081 0.0
C2226 C 0.82447 0.03825 0.84867 0.0
H2227 H 0.83104 0.0506 0.81879 0.0
O2228 O 0.78637 0.0901 0.88783 0.0
O2229 O 0.75015 0.05894 0.90911 0.0
O2230 O 0.7278 0.05395 0.88375 0.0
O2231 O 0.75669 0.07415 0.87809 0.0
O2232 O 0.76945 0.07656 0.92601 0.0
O2233 O 0.81098 0.07418 0.90395 0.0
O2234 O 0.74858 0.99652 0.89485 0.0
O2235 O 0.76699 0.03282 0.88017 0.0
O2236 O 0.78535 0.04997 0.93378 0.0
O2237 O 0.75556 0.03131 0.93621 0.0
O2238 O 0.73855 0.02814 0.86763 0.0
O2239 O 0.71635 1.00761 0.89466 0.0
C2240 C 0.75068 0.07067 0.92437 0.0
C2241 C 0.83888 1.02251 0.84792 0.0
C2242 C 0.84022 1.00847 0.86392 0.0
C2243 C 0.80528 0.0903 0.89372 0.0
C2244 C 0.81636 0.10966 0.89443 0.0
C2245 C 0.82908 0.11439 0.87799 0.0
C2246 C 0.81268 0.1243 0.90956 0.0
C2247 C 0.82198 0.1437 0.90826 0.0
C2248 C 0.83806 0.1336 0.87649 0.0
C2249 C 0.83456 0.14818 0.89148 0.0
C2250 C 0.73715 0.06954 0.87473 0.0
C2251 C 0.75735 0.03137 0.86223 0.0
C2252 C 0.72899 0.99224 0.89249 0.0
C2253 C 0.72055 0.9723 0.8865 0.0
C2254 C 0.73183 0.95424 0.88802 0.0
C2255 C 0.69987 0.97122 0.88126 0.0
C2256 C 0.69018 0.95253 0.87769 0.0
C2257 C 0.72224 0.93538 0.88458 0.0
C2258 C 0.70144 0.93446 0.87959 0.0
C2259 C 0.77184 0.03982 0.94579 0.0
H2260 H 0.83171 0.10332 0.86603 0.0
H2261 H 0.80269 0.12063 0.92218 0.0
H2262 H 0.84787 0.13717 0.86374 0.0
H2263 H 0.84236 0.16272 0.89028 0.0
H2264 H 0.74776 0.95465 0.89239 0.0
H2265 H 0.69093 0.98507 0.88041 0.0
H2266 H 0.73091 0.92143 0.88597 0.0
H2267 H 0.69429 0.91978 0.87693 0.0
Gd2268 Gd 0.65561 0.7763 0.99493 0.0
Gd2269 Gd 0.65022 0.7384 0.03102 0.0
C2270 C 0.61927 0.67638 1.0236 0.0
C2271 C 0.58553 0.6829 0.03729 0.0
C2272 C 0.61151 0.70945 0.03795 0.0
C2273 C 0.62514 0.69661 0.0282 0.0
C2274 C 0.59209 0.70222 0.0438 0.0
C2275 C 0.59907 0.67003 1.02706 0.0
C2276 C 0.63423 0.66266 1.01725 0.0
C2277 C 0.65468 0.66862 1.01772 0.0
N2278 N 0.64488 0.70287 1.02612 0.0
C2279 C 0.6598 0.68863 1.02314 0.0
H2280 H 0.67567 0.69282 1.02441 0.0
C2281 C 0.60807 0.73827 0.05931 0.0
N2282 N 0.61835 0.72792 0.04431 0.0
C2283 C 0.58875 0.73177 0.0655 0.0
C2284 C 0.58044 0.71396 0.05723 0.0
H2285 H 0.61436 0.75228 0.06543 0.0
H2286 H 0.59421 0.65469 1.02321 0.0
H2287 H 0.63493 0.79019 0.03952 0.0
H2288 H 0.63033 0.64703 1.01348 0.0
H2289 H 0.66654 0.65773 1.01424 0.0
H2290 H 0.57046 0.67729 0.04117 0.0
H2291 H 0.69683 0.77582 0.96469 0.0
H2292 H 0.67331 0.83647 0.06535 0.0
H2293 H 0.64219 0.81503 0.0669 0.0
H2294 H 0.729 0.84083 1.01832 0.0
H2295 H 0.58026 0.74053 0.07655 0.0
H2296 H 0.56549 0.70888 0.06213 0.0
H2297 H 0.70551 0.8462 0.04697 0.0
H2298 H 0.72923 0.79477 0.96154 0.0
N2299 N 0.66164 0.79752 1.02281 0.0
C2300 C 0.67022 0.82557 0.05333 0.0
C2301 C 0.65262 0.81349 0.05425 0.0
C2302 C 0.68373 0.82329 0.03702 0.0
C2303 C 0.67906 0.8088 1.02186 0.0
C2304 C 0.6485 0.79948 0.03871 0.0
N2305 N 0.6881 0.79072 0.99209 0.0
C2306 C 0.69256 0.80544 1.00593 0.0
C2307 C 0.71913 0.79782 0.97418 0.0
C2308 C 0.72405 0.81297 0.98832 0.0
C2309 C 0.7009 0.78688 0.9762 0.0
C2310 C 0.71071 0.81698 1.00443 0.0
H2311 H 0.73817 0.82145 0.98667 0.0
O2312 O 0.65695 0.78457 0.96317 0.0
O2313 O 0.63702 0.75037 1.00347 0.0
O2314 O 0.66708 0.72338 1.00515 0.0
O2315 O 0.67619 0.75034 0.98326 0.0
O2316 O 0.64371 0.75302 0.97272 0.0
O2317 O 0.64253 0.8051 0.98459 0.0
O2318 O 0.6587 0.75622 0.05855 0.0
O2319 O 0.67411 0.76342 1.02228 0.0
O2320 O 0.62004 0.78143 1.00456 0.0
O2321 O 0.61667 0.75315 1.02452 0.0
O2322 O 0.6853 0.73512 0.03034 0.0
O2323 O 0.64975 0.72416 0.05981 0.0
C2324 C 0.63449 0.74214 0.98618 0.0
C2325 C 0.71512 0.83184 1.0192 0.0
C2326 C 0.70174 0.8349 0.03552 0.0
C2327 C 0.64742 0.80172 0.96564 0.0
C2328 C 0.65463 0.81874 0.95306 0.0
C2329 C 0.67257 0.82942 0.95766 0.0
C2330 C 0.64402 0.82304 0.935 0.0
C2331 C 0.65142 0.8377 0.92121 0.0
C2332 C 0.68022 0.84381 0.94398 0.0
C2333 C 0.66987 0.84782 0.9258 0.0
C2334 C 0.67694 0.73082 0.98909 0.0
C2335 C 0.69158 0.75324 1.02475 0.0
C2336 C 0.65658 0.73982 0.06988 0.0
C2337 C 0.67117 0.73424 0.08613 0.0
C2338 C 0.67229 0.74618 0.10374 0.0
C2339 C 0.67892 0.71417 0.08666 0.0
C2340 C 0.68465 0.70492 0.10514 0.0
C2341 C 0.67992 0.73783 0.1218 0.0
C2342 C 0.68547 0.71725 0.12271 0.0
C2343 C 0.60738 0.76926 1.01555 0.0
H2344 H 0.68078 0.82652 0.97159 0.0
H2345 H 0.62988 0.815 0.93186 0.0
H2346 H 0.69429 0.85181 0.94742 0.0
H2347 H 0.67635 0.85887 0.91539 0.0
H2348 H 0.66611 0.76148 0.10387 0.0
H2349 H 0.67877 0.70518 0.07284 0.0
H2350 H 0.68031 0.74701 0.13549 0.0
H2351 H 0.68962 0.71094 0.13735 0.0
Gd2352 Gd 1.01829 0.14575 0.80287 0.0
Gd2353 Gd 0.06376 0.15007 0.77628 0.0
C2354 C 0.12489 0.18121 0.78941 0.0
C2355 C 0.1215 0.21297 0.7706 0.0
C2356 C 0.09445 0.1875 0.76943 0.0
C2357 C 0.1055 0.17486 0.78239 0.0
C2358 C 0.10281 0.20618 0.76265 0.0
C2359 C 0.13243 0.20059 0.78409 0.0
C2360 C 0.13658 0.16757 0.80082 0.0
C2361 C 0.12963 0.14763 0.80355 0.0
N2362 N 0.09805 0.15589 0.78683 0.0
C2363 C 0.1106 0.14181 0.79577 0.0
H2364 H 0.10611 0.12602 0.79708 0.0
C2365 C 0.06713 0.19049 0.74602 0.0
N2366 N 0.07621 0.18084 0.76224 0.0
C2367 C 0.07489 0.20897 0.73875 0.0
C2368 C 0.09256 0.21711 0.74745 0.0
H2369 H 0.05321 0.18439 0.73951 0.0
H2370 H 0.14716 0.20576 0.7896 0.0
H2371 H 1.01084 0.16254 0.75542 0.0
H2372 H 0.15145 0.17193 0.80663 0.0
H2373 H 0.13908 0.13661 0.81137 0.0
H2374 H 0.12797 0.22745 0.76588 0.0
H2375 H 1.0103 0.11014 0.83858 0.0
H2376 H 0.97808 0.11588 0.72311 0.0
H2377 H 0.99446 0.14997 0.72372 0.0
H2378 H 0.96888 0.06353 0.77336 0.0
H2379 H 0.06719 0.21695 0.72654 0.0
H2380 H 0.09855 0.23146 0.74181 0.0
H2381 H 0.96864 0.08367 0.74175 0.0
H2382 H 0.99432 0.07598 0.84084 0.0
N2383 N 1.00382 0.13574 0.77211 0.0
C2384 C 0.98523 0.1213 0.73699 0.0
C2385 C 0.99446 0.14058 0.73727 0.0
C2386 C 0.98525 0.10926 0.75463 0.0
C2387 C 0.99478 0.117 0.77225 0.0
C2388 C 1.00367 0.14768 0.75516 0.0
N2389 N 1.00453 0.11321 0.80686 0.0
C2390 C 0.99514 0.10546 0.7901 0.0
C2391 C 0.99464 0.08401 0.82644 0.0
C2392 C 0.98565 0.07534 0.80916 0.0
C2393 C 1.00386 0.10321 0.82506 0.0
C2394 C 0.98563 0.08615 0.79075 0.0
H2395 H 0.97848 0.06047 0.81029 0.0
O2396 O 1.0042 0.15205 0.83151 0.0
O2397 O 0.04626 0.16322 0.80078 0.0
O2398 O 0.07212 0.13296 0.80501 0.0
O2399 O 0.04053 0.12474 0.8202 0.0
O2400 O 0.03556 0.15716 0.82992 0.0
O2401 O 0.98623 0.1553 0.80398 0.0
O2402 O 0.04945 0.14339 0.74648 0.0
O2403 O 0.03702 0.12726 0.77965 0.0
O2404 O 1.01677 0.18072 0.79061 0.0
O2405 O 0.04999 0.18422 0.7807 0.0
O2406 O 0.06583 0.11472 0.77748 0.0
O2407 O 0.08231 0.14767 0.75019 0.0
C2408 C 0.04975 0.16611 0.81966 0.0
C2409 C 0.97621 0.07838 0.77316 0.0
C2410 C 0.97604 0.08987 0.75516 0.0
C2411 C 0.98658 0.15664 0.82381 0.0
C2412 C 0.96936 0.14947 0.83605 0.0
C2413 C 0.95888 0.13131 0.83189 0.0
C2414 C 0.96616 0.15957 0.85454 0.0
C2415 C 0.95391 0.15096 0.86984 0.0
C2416 C 0.94563 0.12318 0.84647 0.0
C2417 C 0.94337 0.1327 0.86543 0.0
C2418 C 0.06085 0.1234 0.81894 0.0
C2419 C 0.04666 0.10938 0.77945 0.0
C2420 C 0.06747 0.14309 0.73774 0.0
C2421 C 0.07286 0.12775 0.72221 0.0
C2422 C 0.05888 0.1217 0.70719 0.0
C2423 C 0.09333 0.12152 0.72054 0.0
C2424 C 0.09997 0.10981 0.70411 0.0
C2425 C 0.06531 0.10951 0.69093 0.0
C2426 C 0.08576 0.10356 0.68935 0.0
C2427 C 0.03193 0.19342 0.78446 0.0
H2428 H 0.96141 0.12316 0.81779 0.0
H2429 H 0.9742 0.17379 0.85728 0.0
H2430 H 0.9377 0.109 0.84338 0.0
H2431 H 0.93392 0.12536 0.87677 0.0
H2432 H 0.04318 0.12675 0.70778 0.0
H2433 H 0.10448 0.12604 0.7319 0.0
H2434 H 0.05448 0.10494 0.67931 0.0
H2435 H 0.09052 0.09441 0.6765 0.0
Gd2436 Gd 0.89344 0.2709 0.49841 0.0
Gd2437 Gd 0.90074 0.31062 0.53172 0.0
C2438 C 0.95053 0.35874 0.52615 0.0
C2439 C 0.9751 0.34713 0.55129 0.0
C2440 C 0.94357 0.32812 0.54596 0.0
C2441 C 0.93751 0.3422 0.53103 0.0
C2442 C 0.96204 0.33103 0.55668 0.0
C2443 C 0.96948 0.36077 0.53593 0.0
C2444 C 0.94393 0.37326 0.51204 0.0
C2445 C 0.92428 0.37192 0.5041 0.0
N2446 N 0.91869 0.34045 0.52214 0.0
C2447 C 0.91162 0.35572 0.50975 0.0
H2448 H 0.89632 0.35588 0.50385 0.0
C2449 C 0.93541 0.29941 0.56664 0.0
N2450 N 0.93136 0.31172 0.55024 0.0
C2451 C 0.95314 0.30234 0.57812 0.0
C2452 C 0.9667 0.31794 0.57287 0.0
H2453 H 0.92513 0.28709 0.57053 0.0
H2454 H 0.97964 0.3733 0.5322 0.0
H2455 H 0.9222 0.26097 0.54162 0.0
H2456 H 0.95359 0.38601 0.50778 0.0
H2457 H 0.91876 0.38353 0.49376 0.0
H2458 H 0.98948 0.34937 0.55915 0.0
H2459 H 0.84391 0.27048 0.48333 0.0
H2460 H 0.89768 0.20833 0.5702 0.0
H2461 H 0.92442 0.23482 0.56768 0.0
H2462 H 0.83359 0.19893 0.53674 0.0
H2463 H 0.95649 0.29237 0.59082 0.0
H2464 H 0.98061 0.31991 0.5816 0.0
H2465 H 0.86388 0.19499 0.55846 0.0
H2466 H 0.81395 0.24833 0.48679 0.0
N2467 N 0.89583 0.24873 0.52707 0.0
C2468 C 0.89693 0.21959 0.55814 0.0
C2469 C 0.91207 0.23445 0.55671 0.0
C2470 C 0.88038 0.22021 0.54475 0.0
C2471 C 0.8801 0.2353 0.52937 0.0
C2472 C 0.91105 0.24915 0.54133 0.0
N2473 N 0.86232 0.25352 0.5042 0.0
C2474 C 0.86286 0.23774 0.51749 0.0
C2475 C 0.82764 0.24505 0.49541 0.0
C2476 C 0.82815 0.22848 0.50869 0.0
C2477 C 0.84484 0.25754 0.49345 0.0
C2478 C 0.84575 0.22483 0.52017 0.0
H2479 H 0.81473 0.21894 0.51033 0.0
O2480 O 0.87776 0.26813 0.47013 0.0
O2481 O 0.90457 0.30198 0.50023 0.0
O2482 O 0.88133 0.325 0.50761 0.0
O2483 O 0.87214 0.29724 0.48718 0.0
O2484 O 0.9201 0.28414 0.48017 0.0
O2485 O 0.89855 0.24418 0.47919 0.0
O2486 O 0.89236 0.30582 0.56363 0.0
O2487 O 0.87801 0.28366 0.52662 0.0
O2488 O 0.92979 0.2666 0.50457 0.0
O2489 O 0.93367 0.29364 0.52683 0.0
O2490 O 0.86561 0.31113 0.53426 0.0
O2491 O 0.89404 0.33684 0.54943 0.0
C2492 C 0.91916 0.30226 0.48779 0.0
C2493 C 0.84651 0.20906 0.53458 0.0
C2494 C 0.86377 0.20679 0.5469 0.0
C2495 C 0.88654 0.25127 0.46491 0.0
C2496 C 0.89351 0.25157 0.44383 0.0
C2497 C 0.8804 0.25963 0.42887 0.0
C2498 C 0.91309 0.24516 0.43847 0.0
C2499 C 0.91963 0.24733 0.41837 0.0
C2500 C 0.88703 0.26198 0.40893 0.0
C2501 C 0.9066 0.25594 0.40367 0.0
C2502 C 0.87011 0.31675 0.49289 0.0
C2503 C 0.86015 0.29271 0.52969 0.0
C2504 C 0.89063 0.32578 0.56578 0.0
C2505 C 0.88457 0.33591 0.58472 0.0
C2506 C 0.88508 0.32561 0.60343 0.0
C2507 C 0.87945 0.35667 0.58419 0.0
C2508 C 0.87544 0.36734 0.60215 0.0
C2509 C 0.88086 0.33615 0.62142 0.0
C2510 C 0.87623 0.35695 0.62085 0.0
C2511 C 0.94264 0.27866 0.51571 0.0
H2512 H 0.86509 0.26445 0.43271 0.0
H2513 H 0.92314 0.23839 0.44971 0.0
H2514 H 0.87692 0.26825 0.3975 0.0
H2515 H 0.91123 0.25713 0.38789 0.0
H2516 H 0.88911 0.30962 0.60418 0.0
H2517 H 0.87914 0.3648 0.56981 0.0
H2518 H 0.8814 0.32822 0.63587 0.0
H2519 H 0.87309 0.36487 0.63496 0.0
Gd2520 Gd 0.5637 0.9059 0.77819 0.0
Gd2521 Gd 0.51794 0.90773 0.8054 0.0
C2522 C 0.48154 0.93075 0.75091 0.0
C2523 C 0.47124 0.96443 0.7622 0.0
C2524 C 0.49194 0.94292 0.78427 0.0
C2525 C 0.49172 0.92751 0.76962 0.0
C2526 C 0.48176 0.96154 0.78057 0.0
C2527 C 0.47113 0.9491 0.74743 0.0
C2528 C 0.48257 0.91568 0.73592 0.0
C2529 C 0.4941 0.89822 0.73942 0.0
N2530 N 0.50227 0.90993 0.77313 0.0
C2531 C 0.50412 0.89571 0.75805 0.0
H2532 H 0.5136 0.88257 0.75981 0.0
C2533 C 0.50364 0.95516 0.8162 0.0
N2534 N 0.50264 0.94005 0.80178 0.0
C2535 C 0.49353 0.97364 0.81326 0.0
C2536 C 0.48262 0.97689 0.79535 0.0
H2537 H 0.51177 0.95287 0.8303 0.0
H2538 H 0.46321 0.95173 0.73318 0.0
H2539 H 0.60427 0.93344 0.79789 0.0
H2540 H 0.47499 0.91763 0.72137 0.0
H2541 H 0.49552 0.88678 0.72765 0.0
H2542 H 0.46335 0.97861 0.75916 0.0
H2543 H 0.56033 0.87052 0.74105 0.0
H2544 H 0.64898 0.89036 0.8175 0.0
H2545 H 0.63637 0.92583 0.81576 0.0
H2546 H 0.62969 0.82995 0.78164 0.0
H2547 H 0.49429 0.98542 0.82478 0.0
H2548 H 0.47501 0.99135 0.79302 0.0
H2549 H 0.64594 0.85423 0.80522 0.0
H2550 H 0.57639 0.8377 0.73209 0.0
N2551 N 0.59708 0.90216 0.79194 0.0
C2552 C 0.63455 0.89352 0.81009 0.0
C2553 C 0.62751 0.91356 0.8091 0.0
C2554 C 0.62372 0.8781 0.80003 0.0
C2555 C 0.60494 0.88302 0.79071 0.0
C2556 C 0.60906 0.91774 0.79923 0.0
N2557 N 0.5789 0.87522 0.76733 0.0
C2558 C 0.59564 0.86915 0.77777 0.0
C2559 C 0.58181 0.84625 0.74512 0.0
C2560 C 0.59759 0.83862 0.7572 0.0
C2561 C 0.57289 0.86491 0.75014 0.0
C2562 C 0.60509 0.85035 0.77341 0.0
H2563 H 0.6045 0.82416 0.7533 0.0
O2564 O 0.55346 0.90956 0.74594 0.0
O2565 O 0.53549 0.92698 0.78152 0.0
O2566 O 0.51682 0.87257 0.79449 0.0
O2567 O 0.54921 0.87105 0.78096 0.0
O2568 O 0.56356 0.94111 0.77906 0.0
O2569 O 0.58536 0.91414 0.75622 0.0
O2570 O 0.49198 0.91696 0.82373 0.0
O2571 O 0.54688 0.89221 0.80243 0.0
O2572 O 0.57014 0.92499 0.8063 0.0
O2573 O 0.53891 0.92913 0.82325 0.0
O2574 O 0.53838 0.89806 0.83197 0.0
O2575 O 0.49959 0.88543 0.82234 0.0
C2576 C 0.54431 0.94538 0.78105 0.0
C2577 C 0.62255 0.84458 0.78435 0.0
C2578 C 0.6318 0.85842 0.79776 0.0
C2579 C 0.57244 0.91421 0.74111 0.0
C2580 C 0.58057 0.91952 0.7208 0.0
C2581 C 0.56871 0.9178 0.70313 0.0
C2582 C 0.60123 0.92546 0.71911 0.0
C2583 C 0.6102 0.92926 0.70013 0.0
C2584 C 0.57749 0.92167 0.68409 0.0
C2585 C 0.5981 0.92722 0.68254 0.0
C2586 C 0.53193 0.86081 0.78673 0.0
C2587 C 0.5518 0.88915 0.82077 0.0
C2588 C 0.49044 0.89954 0.83271 0.0
C2589 C 0.49437 0.89995 0.8549 0.0
C2590 C 0.50869 0.91394 0.86286 0.0
C2591 C 0.48487 0.88612 0.86815 0.0
C2592 C 0.48983 0.88619 0.88908 0.0
C2593 C 0.51395 0.9137 0.88338 0.0
C2594 C 0.50464 0.89988 0.89646 0.0
C2595 C 0.55859 0.9332 0.82077 0.0
H2596 H 0.55285 0.9132 0.704 0.0
H2597 H 0.61068 0.92666 0.73262 0.0
H2598 H 0.56831 0.92023 0.67045 0.0
H2599 H 0.6045 0.93016 0.66764 0.0
H2600 H 0.51605 0.92504 0.85323 0.0
H2601 H 0.47373 0.87537 0.86224 0.0
H2602 H 0.52513 0.92442 0.88919 0.0
H2603 H 0.50853 0.90036 0.91249 0.0
Gd2604 Gd 1.02612 0.14961 0.31358 0.0
Gd2605 Gd 0.99701 0.15535 0.269 0.0
C2606 C 0.04506 0.16681 0.22018 0.0
C2607 C 0.0349 0.20003 0.20733 0.0
C2608 C 1.01778 0.18514 0.23663 0.0
C2609 C 0.0295 0.16776 0.23495 0.0
C2610 C 1.02043 0.20156 0.22294 0.0
C2611 C 0.04731 0.18275 0.20605 0.0
C2612 C 0.05843 0.15028 0.22059 0.0
C2613 C 0.05673 0.13585 0.23609 0.0
N2614 N 1.02678 0.15255 0.24879 0.0
C2615 C 0.041 0.13745 0.25034 0.0
H2616 H 0.04082 0.1268 0.26268 0.0
C2617 C 0.99391 0.2041 0.25561 0.0
N2618 N 1.00456 0.18642 0.25234 0.0
C2619 C 0.99551 0.22049 0.24208 0.0
C2620 C 1.00874 0.21917 0.22557 0.0
H2621 H 0.98365 0.2055 0.26838 0.0
H2622 H 0.05897 0.18211 0.1944 0.0
H2623 H 1.01063 0.17504 0.35658 0.0
H2624 H 0.07066 0.14903 0.20961 0.0
H2625 H 0.06767 0.12358 0.23722 0.0
H2626 H 0.03705 0.21239 0.19657 0.0
H2627 H 0.06305 0.11451 0.30635 0.0
H2628 H 0.9933 0.12962 0.4002 0.0
H2629 H 0.99524 0.16581 0.38961 0.0
H2630 H 1.02548 0.06956 0.37474 0.0
H2631 H 0.98671 0.23419 0.24456 0.0
H2632 H 1.01021 0.23201 0.21527 0.0
H2633 H 1.00394 0.09331 0.39404 0.0
H2634 H 0.07265 0.08071 0.32007 0.0
N2635 N 1.01576 0.14416 0.34774 0.0
C2636 C 0.99982 0.13354 0.38556 0.0
C2637 C 1.00099 0.15399 0.37969 0.0
C2638 C 1.00852 0.11857 0.37318 0.0
C2639 C 1.01667 0.12448 0.35422 0.0
C2640 C 1.00968 0.15914 0.36092 0.0
N2641 N 0.03755 0.11786 0.3261 0.0
C2642 C 0.02819 0.11089 0.34309 0.0
C2643 C 0.05985 0.08886 0.32647 0.0
C2644 C 0.04824 0.08006 0.34197 0.0
C2645 C 0.05448 0.10804 0.31885 0.0
C2646 C 0.03266 0.09141 0.35102 0.0
H2647 H 0.0523 0.06512 0.34773 0.0
O2648 O 0.05739 0.15395 0.30114 0.0
O2649 O 1.02201 0.17329 0.28714 0.0
O2650 O 1.00433 0.11921 0.26683 0.0
O2651 O 1.02237 0.11619 0.29718 0.0
O2652 O 1.025 0.1845 0.31638 0.0
O2653 O 0.04979 0.15736 0.33389 0.0
O2654 O 0.97053 0.17158 0.2609 0.0
O2655 O 0.99894 0.14015 0.29807 0.0
O2656 O 0.99719 0.16503 0.32326 0.0
O2657 O 0.98226 0.17571 0.29274 0.0
O2658 O 0.97271 0.13427 0.28254 0.0
O2659 O 0.97893 0.1462 0.24173 0.0
C2660 C 1.02298 0.19077 0.29767 0.0
C2661 C 1.02275 0.08471 0.36874 0.0
C2662 C 1.01054 0.09827 0.37976 0.0
C2663 C 0.06375 0.15808 0.31978 0.0
C2664 C 0.08459 0.16396 0.32611 0.0
C2665 C 0.10159 0.15897 0.31434 0.0
C2666 C 0.08754 0.17262 0.34558 0.0
C2667 C 0.10716 0.17504 0.35401 0.0
C2668 C 0.12121 0.16193 0.3222 0.0
C2669 C 0.12402 0.16958 0.34193 0.0
C2670 C 1.01372 0.10688 0.28068 0.0
C2671 C 0.98187 0.13102 0.29957 0.0
C2672 C 0.96603 0.16111 0.24485 0.0
C2673 C 0.94379 0.15922 0.24206 0.0
C2674 C 0.9324 0.1773 0.24408 0.0
C2675 C 0.93356 0.14074 0.23821 0.0
C2676 C 0.91205 0.1405 0.23695 0.0
C2677 C 0.91125 0.17697 0.24315 0.0
C2678 C 0.9011 0.15869 0.23972 0.0
C2679 C 0.9831 0.17502 0.31283 0.0
H2680 H 0.09971 0.15218 0.29942 0.0
H2681 H 0.07436 0.17717 0.35432 0.0
H2682 H 0.13434 0.15772 0.31319 0.0
H2683 H 0.13943 0.17073 0.34776 0.0
H2684 H 0.93994 0.19182 0.24668 0.0
H2685 H 0.94214 0.12679 0.23614 0.0
H2686 H 0.90272 0.19097 0.24485 0.0
H2687 H 0.88463 0.15897 0.23832 0.0
Gd2688 Gd 0.55753 0.15199 0.78192 0.0
Gd2689 Gd 0.51627 0.14518 0.7466 0.0
C2690 C 0.46508 0.12991 0.79192 0.0
C2691 C 0.45656 0.09507 0.78276 0.0
C2692 C 0.48406 0.11304 0.76532 0.0
C2693 C 0.48033 0.13038 0.7767 0.0
C2694 C 0.47229 0.09515 0.76837 0.0
C2695 C 0.45301 0.11238 0.79457 0.0
C2696 C 0.46285 0.14678 0.80464 0.0
C2697 C 0.47616 0.16318 0.80264 0.0
N2698 N 0.4924 0.14714 0.77394 0.0
C2699 C 0.49104 0.16296 0.78746 0.0
H2700 H 0.50152 0.17536 0.78745 0.0
C2701 C 0.50445 0.09594 0.74126 0.0
N2702 N 0.49974 0.1133 0.75193 0.0
C2703 C 0.49304 0.07807 0.74355 0.0
C2704 C 0.47684 0.07767 0.75713 0.0
H2705 H 0.51702 0.09567 0.73069 0.0
H2706 H 0.44118 0.11191 0.80606 0.0
H2707 H 0.60449 0.13196 0.76742 0.0
H2708 H 0.45145 0.14693 0.81656 0.0
H2709 H 0.47521 0.17595 0.81304 0.0
H2710 H 0.44735 0.08152 0.78521 0.0
H2711 H 0.54667 0.1872 0.8186 0.0
H2712 H 0.64059 0.18237 0.74701 0.0
H2713 H 0.63547 0.14519 0.75092 0.0
H2714 H 0.6077 0.23936 0.77763 0.0
H2715 H 0.4969 0.06457 0.73492 0.0
H2716 H 0.46812 0.06372 0.75903 0.0
H2717 H 0.6296 0.21773 0.75642 0.0
H2718 H 0.55572 0.223 0.82625 0.0
N2719 N 0.59076 0.16134 0.77066 0.0
C2720 C 0.62671 0.17666 0.75392 0.0
C2721 C 0.6239 0.15567 0.75615 0.0
C2722 C 0.61243 0.19002 0.76228 0.0
C2723 C 0.59454 0.18178 0.77102 0.0
C2724 C 0.6061 0.14824 0.76529 0.0
N2725 N 0.5662 0.18537 0.79271 0.0
C2726 C 0.582 0.19415 0.78265 0.0
C2727 C 0.56302 0.21517 0.81375 0.0
C2728 C 0.57705 0.22544 0.80146 0.0
C2729 C 0.55812 0.19483 0.80952 0.0
C2730 C 0.58734 0.21472 0.7862 0.0
H2731 H 0.58076 0.24123 0.80471 0.0
O2732 O 0.54731 0.14846 0.81416 0.0
O2733 O 0.53133 0.12915 0.7741 0.0
O2734 O 0.51355 0.18111 0.7534 0.0
O2735 O 0.5397 0.18386 0.77707 0.0
O2736 O 0.55734 0.11684 0.78596 0.0
O2737 O 0.57962 0.14645 0.80402 0.0
O2738 O 0.50917 0.12908 0.7193 0.0
O2739 O 0.54563 0.15963 0.75247 0.0
O2740 O 0.56992 0.1328 0.75711 0.0
O2741 O 0.54191 0.12415 0.73635 0.0
O2742 O 0.53434 0.16504 0.72428 0.0
O2743 O 0.49343 0.15716 0.72485 0.0
C2744 C 0.53967 0.11123 0.77892 0.0
C2745 C 0.60375 0.22343 0.77558 0.0
C2746 C 0.61623 0.21109 0.76352 0.0
C2747 C 0.5667 0.146 0.81915 0.0
C2748 C 0.57535 0.14192 0.83949 0.0
C2749 C 0.56492 0.14619 0.85756 0.0
C2750 C 0.59575 0.13558 0.84054 0.0
C2751 C 0.60605 0.13388 0.85909 0.0
C2752 C 0.5751 0.14448 0.87632 0.0
C2753 C 0.59564 0.13855 0.87712 0.0
C2754 C 0.52543 0.19315 0.7654 0.0
C2755 C 0.54982 0.16837 0.73578 0.0
C2756 C 0.49779 0.14302 0.71148 0.0
C2757 C 0.50384 0.14881 0.69044 0.0
C2758 C 0.52092 0.13939 0.68127 0.0
C2759 C 0.49246 0.16288 0.67898 0.0
C2760 C 0.49832 0.16765 0.65889 0.0
C2761 C 0.5265 0.14399 0.66137 0.0
C2762 C 0.51534 0.15807 0.65025 0.0
C2763 C 0.56123 0.12246 0.74213 0.0
H2764 H 0.54926 0.15136 0.85716 0.0
H2765 H 0.60408 0.13244 0.82667 0.0
H2766 H 0.5671 0.14798 0.89027 0.0
H2767 H 0.60324 0.13733 0.89172 0.0
H2768 H 0.53005 0.12827 0.68935 0.0
H2769 H 0.47918 0.17006 0.68561 0.0
H2770 H 0.53947 0.1365 0.65451 0.0
H2771 H 0.51976 0.16119 0.63466 0.0
Gd2772 Gd 0.15302 0.31423 0.02791 0.0
Gd2773 Gd 0.16004 0.27532 0.99415 0.0
C2774 C 0.18755 0.22742 0.03521 0.0
C2775 C 0.21722 0.21697 1.01566 0.0
C2776 C 0.19551 0.24431 1.00332 0.0
C2777 C 0.18287 0.24195 1.02012 0.0
C2778 C 0.21277 0.23178 1.00087 0.0
C2779 C 0.20473 0.21489 0.03285 0.0
C2780 C 0.17484 0.22601 0.05227 0.0
C2781 C 0.15792 0.23885 0.05388 0.0
N2782 N 0.16626 0.25413 1.02189 0.0
C2783 C 0.15374 0.25285 0.03835 0.0
H2784 H 0.14063 0.26268 0.03953 0.0
C2785 C 0.20326 0.2623 0.97302 0.0
N2786 N 0.19129 0.25928 0.98972 0.0
C2787 C 0.22056 0.25029 0.96996 0.0
C2788 C 0.22534 0.23495 0.98393 0.0
H2789 H 0.19919 0.27359 0.96174 0.0
H2790 H 0.20854 0.20359 0.04426 0.0
H2791 H 0.15956 0.35091 0.98721 0.0
H2792 H 0.17797 0.21512 0.06427 0.0
H2793 H 0.14805 0.23788 0.06703 0.0
H2794 H 0.23048 0.20728 1.01412 0.0
H2795 H 0.11996 0.29903 0.06395 0.0
H2796 H 0.11959 0.39957 0.99793 0.0
H2797 H 0.14731 0.38377 0.97851 0.0
H2798 H 0.07745 0.37711 0.05214 0.0
H2799 H 0.23003 0.2527 0.9567 0.0
H2800 H 0.23877 0.22569 0.98154 0.0
H2801 H 0.09365 0.39679 1.0249 0.0
H2802 H 0.09004 0.31211 0.08218 0.0
N2803 N 0.14189 0.34714 1.01484 0.0
C2804 C 0.12559 0.38496 1.00274 0.0
C2805 C 0.14131 0.37618 0.99188 0.0
C2806 C 0.11704 0.37431 1.01897 0.0
C2807 C 0.12531 0.35513 1.02465 0.0
C2808 C 0.1489 0.35722 0.99773 0.0
N2809 N 0.12288 0.325 0.04451 0.0
C2810 C 0.11559 0.34377 0.03972 0.0
C2811 C 0.09702 0.32116 0.07028 0.0
C2812 C 0.08905 0.34011 0.06517 0.0
C2813 C 0.11403 0.31387 0.05992 0.0
C2814 C 0.09829 0.35168 0.04985 0.0
H2815 H 0.0758 0.34573 0.07321 0.0
O2816 O 0.15853 0.2989 0.05745 0.0
O2817 O 0.1772 0.28862 1.02197 0.0
O2818 O 0.12426 0.27043 1.00327 0.0
O2819 O 0.11995 0.2982 1.02373 0.0
O2820 O 0.18805 0.31677 0.03063 0.0
O2821 O 0.15559 0.33228 0.05429 0.0
O2822 O 0.15854 0.26851 0.96216 0.0
O2823 O 0.14036 0.30109 1.0004 0.0
O2824 O 0.17529 0.32757 1.00553 0.0
O2825 O 0.18244 0.30028 0.9833 0.0
O2826 O 0.15286 0.29935 0.97144 0.0
O2827 O 0.14751 0.24607 0.98385 0.0
C2828 C 0.19469 0.29857 1.02598 0.0
C2829 C 0.09068 0.37088 0.04453 0.0
C2830 C 0.09998 0.38212 0.0291 0.0
C2831 C 0.15882 0.31685 0.06653 0.0
C2832 C 0.17156 0.32147 0.08448 0.0
C2833 C 0.17102 0.30867 0.10158 0.0
C2834 C 0.17996 0.34113 0.08644 0.0
C2835 C 0.18603 0.34875 0.10542 0.0
C2836 C 0.17812 0.31578 0.12043 0.0
C2837 C 0.18516 0.33589 0.12249 0.0
C2838 C 0.11127 0.282 1.01442 0.0
C2839 C 0.14056 0.30933 0.98294 0.0
C2840 C 0.15015 0.25076 0.96472 0.0
C2841 C 0.15607 0.23516 0.95002 0.0
C2842 C 0.17245 0.22189 0.95313 0.0
C2843 C 0.14542 0.23477 0.93154 0.0
C2844 C 0.15047 0.22081 0.91619 0.0
C2845 C 0.17807 0.20835 0.9377 0.0
C2846 C 0.16714 0.20772 0.91934 0.0
C2847 C 0.18476 0.31958 0.98948 0.0
H2848 H 0.16417 0.29363 0.1006 0.0
H2849 H 0.18009 0.35135 0.07347 0.0
H2850 H 0.17736 0.30596 0.13365 0.0
H2851 H 0.18978 0.34141 0.13734 0.0
H2852 H 0.1809 0.22208 0.96729 0.0
H2853 H 0.13303 0.24544 0.92919 0.0
H2854 H 0.19076 0.19809 0.94006 0.0
H2855 H 0.17131 0.19655 0.90798 0.0
Gd2856 Gd 0.40001 0.77432 0.48965 0.0
Gd2857 Gd 0.40261 0.75161 0.53762 0.0
C2858 C 0.43834 0.79942 0.57146 0.0
C2859 C 0.46751 0.77993 0.58352 0.0
C2860 C 0.44194 0.76368 0.56201 0.0
C2861 C 0.43088 0.78198 0.56131 0.0
C2862 C 0.46024 0.76255 0.5733 0.0
C2863 C 0.45665 0.79828 0.58257 0.0
C2864 C 0.42717 0.81755 0.57009 0.0
C2865 C 0.40899 0.81798 0.5589 0.0
N2866 N 0.41294 0.78273 0.55077 0.0
C2867 C 0.40195 0.80023 0.54934 0.0
H2868 H 0.38783 0.80046 0.54084 0.0
C2869 C 0.44414 0.72853 0.55362 0.0
N2870 N 0.43467 0.74698 0.55201 0.0
C2871 C 0.46249 0.72684 0.56432 0.0
C2872 C 0.47065 0.74394 0.5741 0.0
H2873 H 0.43728 0.71497 0.54717 0.0
H2874 H 0.46257 0.81154 0.59049 0.0
H2875 H 0.42491 0.74847 0.45131 0.0
H2876 H 0.43247 0.83131 0.57759 0.0
H2877 H 0.40033 0.83196 0.55777 0.0
H2878 H 0.48157 0.77934 0.5922 0.0
H2879 H 0.36743 0.81337 0.49543 0.0
H2880 H 0.3826 0.74003 0.40254 0.0
H2881 H 0.41623 0.73344 0.41822 0.0
H2882 H 0.32822 0.78525 0.41941 0.0
H2883 H 0.47009 0.71225 0.56541 0.0
H2884 H 0.48478 0.74251 0.58256 0.0
H2885 H 0.34974 0.75932 0.4032 0.0
H2886 H 0.33679 0.82726 0.47855 0.0
N2887 N 0.39535 0.76134 0.45609 0.0
C2888 C 0.3861 0.7463 0.41741 0.0
C2889 C 0.40506 0.74249 0.42624 0.0
C2890 C 0.37244 0.75927 0.42725 0.0
C2891 C 0.3777 0.76697 0.44665 0.0
C2892 C 0.40973 0.75075 0.44532 0.0
N2893 N 0.37111 0.78914 0.47415 0.0
C2894 C 0.36536 0.78143 0.45586 0.0
C2895 C 0.34451 0.81421 0.47212 0.0
C2896 C 0.33709 0.80501 0.45443 0.0
C2897 C 0.36191 0.80636 0.48156 0.0
C2898 C 0.34779 0.78873 0.44581 0.0
H2899 H 0.32356 0.81107 0.44715 0.0
O2900 O 0.40625 0.80625 0.49947 0.0
O2901 O 0.42231 0.77274 0.51719 0.0
O2902 O 0.36842 0.76587 0.5379 0.0
O2903 O 0.36537 0.77377 0.50389 0.0
O2904 O 0.43462 0.76956 0.48838 0.0
O2905 O 0.41063 0.79553 0.46782 0.0
O2906 O 0.3874 0.72661 0.55248 0.0
O2907 O 0.38537 0.75249 0.50974 0.0
O2908 O 0.41354 0.74294 0.4846 0.0
O2909 O 0.42275 0.73132 0.51725 0.0
O2910 O 0.38986 0.72374 0.52284 0.0
O2911 O 0.40012 0.75033 0.57102 0.0
C2912 C 0.43994 0.77046 0.50746 0.0
C2913 C 0.34188 0.78011 0.42716 0.0
C2914 C 0.35414 0.76535 0.41793 0.0
C2915 C 0.41145 0.81073 0.48059 0.0
C2916 C 0.41819 0.83085 0.47272 0.0
C2917 C 0.41785 0.84825 0.48506 0.0
C2918 C 0.42394 0.83284 0.45204 0.0
C2919 C 0.429 0.85196 0.44366 0.0
C2920 C 0.42291 0.86731 0.47689 0.0
C2921 C 0.42835 0.86921 0.45638 0.0
C2922 C 0.35596 0.77133 0.52224 0.0
C2923 C 0.38089 0.73357 0.5083 0.0
C2924 C 0.39204 0.73222 0.57073 0.0
C2925 C 0.40071 0.71579 0.58341 0.0
C2926 C 0.41808 0.7185 0.59565 0.0
C2927 C 0.39152 0.69645 0.58236 0.0
C2928 C 0.39923 0.6798 0.59337 0.0
C2929 C 0.42622 0.70192 0.60631 0.0
C2930 C 0.4169 0.68267 0.60521 0.0
C2931 C 0.42301 0.72995 0.49695 0.0
H2932 H 0.4134 0.84718 0.5009 0.0
H2933 H 0.42406 0.81956 0.44223 0.0
H2934 H 0.42254 0.88072 0.48648 0.0
H2935 H 0.43234 0.88415 0.45055 0.0
H2936 H 0.42551 0.73324 0.59673 0.0
H2937 H 0.37829 0.69437 0.57263 0.0
H2938 H 0.43972 0.70402 0.61559 0.0
H2939 H 0.4232 0.67025 0.61405 0.0
Gd2940 Gd 0.77378 0.5612 0.89826 0.0
Gd2941 Gd 0.80731 0.52177 0.90787 0.0
C2942 C 0.76058 0.47219 0.92117 0.0
C2943 C 0.77124 0.46098 0.95482 0.0
C2944 C 0.78742 0.4904 0.93894 0.0
C2945 C 0.77561 0.48765 0.92165 0.0
C2946 C 0.7853 0.47716 0.95577 0.0
C2947 C 0.7588 0.45859 0.93762 0.0
C2948 C 0.74739 0.47125 0.90444 0.0
C2949 C 0.74888 0.48598 0.88919 0.0
N2950 N 0.77796 0.50087 0.90587 0.0
C2951 C 0.76416 0.50089 0.89027 0.0
H2952 H 0.76446 0.51246 0.87877 0.0
C2953 C 0.81109 0.51084 0.95703 0.0
N2954 N 0.80031 0.5066 0.93963 0.0
C2955 C 0.8099 0.49786 0.97389 0.0
C2956 C 0.79707 0.48083 0.97321 0.0
H2957 H 0.82128 0.52383 0.95767 0.0
H2958 H 0.74755 0.44644 0.93736 0.0
H2959 H 0.78273 0.60848 0.9204 0.0
H2960 H 0.73557 0.45969 0.90353 0.0
H2961 H 0.7382 0.48592 0.87659 0.0
H2962 H 0.76948 0.45058 0.96753 0.0
H2963 H 0.74075 0.54486 0.86209 0.0
H2964 H 0.79712 0.6495 0.87185 0.0
H2965 H 0.79535 0.64193 0.90869 0.0
H2966 H 0.76858 0.61583 0.81393 0.0
H2967 H 0.8188 0.50106 0.98742 0.0
H2968 H 0.79598 0.47094 0.98638 0.0
H2969 H 0.78736 0.63941 0.8363 0.0
H2970 H 0.73078 0.55437 0.82698 0.0
N2971 N 0.78034 0.59602 0.89051 0.0
C2972 C 0.79218 0.63454 0.8769 0.0
C2973 C 0.79114 0.63034 0.8977 0.0
C2974 C 0.78505 0.62003 0.86298 0.0
C2975 C 0.77902 0.60069 0.87033 0.0
C2976 C 0.7843 0.61121 0.90429 0.0
N2977 N 0.76197 0.56938 0.86529 0.0
C2978 C 0.76902 0.58717 0.85743 0.0
C2979 C 0.74171 0.5636 0.83527 0.0
C2980 C 0.75055 0.58071 0.82612 0.0
C2981 C 0.74725 0.55836 0.85514 0.0
C2982 C 0.76403 0.59299 0.83734 0.0
H2983 H 0.74627 0.58473 0.81069 0.0
O2984 O 0.74597 0.54374 0.90564 0.0
O2985 O 0.78006 0.53725 0.92395 0.0
O2986 O 0.80174 0.51635 0.87129 0.0
O2987 O 0.78252 0.54513 0.86586 0.0
O2988 O 0.77252 0.56642 0.93311 0.0
O2989 O 0.7449 0.57551 0.89586 0.0
O2990 O 0.83379 0.51202 0.92382 0.0
O2991 O 0.80191 0.54787 0.88895 0.0
O2992 O 0.7989 0.57596 0.91633 0.0
O2993 O 0.8193 0.54865 0.92735 0.0
O2994 O 0.83221 0.54167 0.89399 0.0
O2995 O 0.82416 0.4946 0.8975 0.0
C2996 C 0.777 0.54845 0.94067 0.0
C2997 C 0.77171 0.61138 0.82952 0.0
C2998 C 0.78241 0.6248 0.84227 0.0
C2999 C 0.73483 0.56025 0.90365 0.0
C3000 C 0.72073 0.5664 0.92002 0.0
C3001 C 0.70583 0.55293 0.92738 0.0
C3002 C 0.72073 0.58683 0.92679 0.0
C3003 C 0.70585 0.59389 0.94017 0.0
C3004 C 0.69123 0.55979 0.94128 0.0
C3005 C 0.69119 0.58018 0.94766 0.0
C3006 C 0.79209 0.52876 0.8576 0.0
C3007 C 0.81983 0.55421 0.88537 0.0
C3008 C 0.83694 0.49607 0.91278 0.0
C3009 C 0.85856 0.49134 0.91073 0.0
C3010 C 0.86814 0.48277 0.92783 0.0
C3011 C 0.87028 0.49782 0.89412 0.0
C3012 C 0.89162 0.4955 0.89462 0.0
C3013 C 0.88923 0.48083 0.92854 0.0
C3014 C 0.90094 0.48714 0.91208 0.0
C3015 C 0.81431 0.56839 0.92708 0.0
H3016 H 0.70527 0.53728 0.92211 0.0
H3017 H 0.7321 0.5976 0.92141 0.0
H3018 H 0.67967 0.54938 0.94685 0.0
H3019 H 0.67952 0.58534 0.95808 0.0
H3020 H 0.85928 0.47815 0.94098 0.0
H3021 H 0.8629 0.50468 0.88102 0.0
H3022 H 0.89651 0.47432 0.94184 0.0
H3023 H 0.91725 0.48469 0.91273 0.0
Gd3024 Gd 0.77687 0.56482 0.14917 0.0
Gd3025 Gd 0.74485 0.52298 0.14385 0.0
C3026 C 0.79267 0.47575 0.1273 0.0
C3027 C 0.77974 0.46312 0.09496 0.0
C3028 C 0.76284 0.49129 0.11206 0.0
C3029 C 0.77653 0.48991 0.12814 0.0
C3030 C 0.76445 0.47804 0.0952 0.0
C3031 C 0.79389 0.46206 0.11091 0.0
C3032 C 0.80752 0.47622 0.14261 0.0
C3033 C 0.8065 0.49107 0.15776 0.0
N3034 N 0.77494 0.50335 0.14384 0.0
C3035 C 0.79017 0.50472 0.158 0.0
H3036 H 0.79024 0.51651 0.16931 0.0
C3037 C 0.73655 0.50985 0.0957 0.0
N3038 N 0.74876 0.50639 0.11232 0.0
C3039 C 0.73733 0.49685 0.07885 0.0
C3040 C 0.75115 0.48071 0.0787 0.0
H3041 H 0.72539 0.52192 0.09591 0.0
H3042 H 0.80605 0.45093 0.11018 0.0
H3043 H 0.76937 0.60639 0.11758 0.0
H3044 H 0.82023 0.4657 0.14244 0.0
H3045 H 0.81837 0.49211 0.16919 0.0
H3046 H 0.78116 0.45277 0.08219 0.0
H3047 H 0.80817 0.5591 0.19012 0.0
H3048 H 0.74957 0.65565 0.15531 0.0
H3049 H 0.75562 0.64115 0.12111 0.0
H3050 H 0.77112 0.63469 0.22161 0.0
H3051 H 0.72727 0.4993 0.066 0.0
H3052 H 0.75189 0.47083 0.06551 0.0
H3053 H 0.75479 0.6528 0.19313 0.0
H3054 H 0.81355 0.57526 0.22371 0.0
N3055 N 0.76931 0.60038 0.14951 0.0
C3056 C 0.75534 0.64025 0.15388 0.0
C3057 C 0.75886 0.63216 0.13455 0.0
C3058 C 0.76086 0.62897 0.17107 0.0
C3059 C 0.76808 0.60891 0.16834 0.0
C3060 C 0.76663 0.6124 0.13264 0.0
N3061 N 0.78548 0.58038 0.18069 0.0
C3062 C 0.77668 0.59858 0.18452 0.0
C3063 C 0.8029 0.58185 0.21297 0.0
C3064 C 0.79184 0.59924 0.21813 0.0
C3065 C 0.7999 0.57284 0.19392 0.0
C3066 C 0.77907 0.60824 0.20358 0.0
H3067 H 0.79418 0.60623 0.2329 0.0
O3068 O 0.80467 0.54687 0.1429 0.0
O3069 O 0.77042 0.53926 0.12531 0.0
O3070 O 0.75444 0.51875 0.17936 0.0
O3071 O 0.77032 0.54979 0.18272 0.0
O3072 O 0.77724 0.56802 0.11424 0.0
O3073 O 0.80598 0.57871 0.15183 0.0
O3074 O 0.72114 0.5031 0.13208 0.0
O3075 O 0.75045 0.55039 0.16147 0.0
O3076 O 0.74991 0.57648 0.13093 0.0
O3077 O 0.72996 0.5475 0.12355 0.0
O3078 O 0.72032 0.54479 0.15455 0.0
O3079 O 0.72698 0.50316 0.16408 0.0
C3080 C 0.77264 0.54965 0.10788 0.0
C3081 C 0.76997 0.62728 0.20691 0.0
C3082 C 0.76073 0.6376 0.19066 0.0
C3083 C 0.81621 0.56296 0.14576 0.0
C3084 C 0.83287 0.56821 0.13165 0.0
C3085 C 0.85102 0.55702 0.13228 0.0
C3086 C 0.83284 0.58751 0.12216 0.0
C3087 C 0.85109 0.59662 0.11584 0.0
C3088 C 0.86906 0.56546 0.12455 0.0
C3089 C 0.86925 0.5854 0.11691 0.0
C3090 C 0.76315 0.53267 0.19202 0.0
C3091 C 0.73252 0.55688 0.16405 0.0
C3092 C 0.71403 0.49848 0.14977 0.0
C3093 C 0.69251 0.50434 0.15293 0.0
C3094 C 0.68448 0.52122 0.1423 0.0
C3095 C 0.67988 0.49358 0.16645 0.0
C3096 C 0.65961 0.49998 0.16958 0.0
C3097 C 0.66471 0.52789 0.14588 0.0
C3098 C 0.65234 0.51741 0.1595 0.0
C3099 C 0.73427 0.56734 0.1217 0.0
H3100 H 0.85153 0.54234 0.13985 0.0
H3101 H 0.81898 0.5965 0.12186 0.0
H3102 H 0.88314 0.55695 0.1255 0.0
H3103 H 0.88356 0.59217 0.11215 0.0
H3104 H 0.69349 0.52943 0.13119 0.0
H3105 H 0.68571 0.4803 0.17435 0.0
H3106 H 0.65886 0.54104 0.13781 0.0
H3107 H 0.63677 0.52249 0.16152 0.0
Gd3108 Gd 0.78125 0.49005 0.39989 0.0
Gd3109 Gd 0.75207 0.53337 0.4076 0.0
C3110 C 0.80564 0.57109 0.4298 0.0
C3111 C 0.79421 0.58142 0.46343 0.0
C3112 C 0.77347 0.55835 0.44296 0.0
C3113 C 0.78769 0.55945 0.42729 0.0
C3114 C 0.77666 0.5693 0.46121 0.0
C3115 C 0.80871 0.58222 0.44782 0.0
C3116 C 0.82011 0.57104 0.41417 0.0
C3117 C 0.81655 0.55949 0.39665 0.0
N3118 N 0.7843 0.54861 0.40991 0.0
C3119 C 0.79841 0.54836 0.39472 0.0
H3120 H 0.79589 0.53951 0.38116 0.0
C3121 C 0.74307 0.54383 0.45607 0.0
N3122 N 0.75692 0.54604 0.44067 0.0
C3123 C 0.74568 0.55429 0.47443 0.0
C3124 C 0.76244 0.56723 0.47695 0.0
H3125 H 0.72959 0.5345 0.45412 0.0
H3126 H 0.82235 0.59136 0.44993 0.0
H3127 H 0.76999 0.44532 0.42468 0.0
H3128 H 0.83414 0.57973 0.41555 0.0
H3129 H 0.82774 0.55923 0.38458 0.0
H3130 H 0.79692 0.5899 0.47733 0.0
H3131 H 0.81492 0.50035 0.36212 0.0
H3132 H 0.74948 0.40279 0.37964 0.0
H3133 H 0.75407 0.41225 0.41582 0.0
H3134 H 0.77748 0.43073 0.31862 0.0
H3135 H 0.73464 0.55253 0.48653 0.0
H3136 H 0.76443 0.57529 0.49122 0.0
H3137 H 0.75789 0.41012 0.34307 0.0
H3138 H 0.82213 0.48829 0.32718 0.0
N3139 N 0.77109 0.45581 0.39416 0.0
C3140 C 0.75573 0.41761 0.38351 0.0
C3141 C 0.75831 0.4229 0.40395 0.0
C3142 C 0.7631 0.43072 0.3684 0.0
C3143 C 0.77102 0.44988 0.37429 0.0
C3144 C 0.76685 0.44184 0.40899 0.0
N3145 N 0.79096 0.47884 0.36708 0.0
C3146 C 0.78166 0.46163 0.36034 0.0
C3147 C 0.81055 0.48079 0.33623 0.0
C3148 C 0.79937 0.46449 0.32818 0.0
C3149 C 0.80656 0.48745 0.35603 0.0
C3150 C 0.78516 0.4543 0.34046 0.0
H3151 H 0.80253 0.4593 0.31286 0.0
O3152 O 0.8109 0.50498 0.4057 0.0
O3153 O 0.77769 0.5158 0.42387 0.0
O3154 O 0.75874 0.53693 0.37139 0.0
O3155 O 0.77412 0.50589 0.36704 0.0
O3156 O 0.78256 0.4867 0.435 0.0
O3157 O 0.80844 0.47271 0.3983 0.0
O3158 O 0.72569 0.54975 0.41782 0.0
O3159 O 0.75457 0.50595 0.38984 0.0
O3160 O 0.75516 0.47936 0.41994 0.0
O3161 O 0.73712 0.50937 0.42807 0.0
O3162 O 0.72503 0.51504 0.39491 0.0
O3163 O 0.7458 0.56373 0.39542 0.0
C3164 C 0.7799 0.5055 0.44124 0.0
C3165 C 0.77546 0.43631 0.334 0.0
C3166 C 0.7643 0.42459 0.34794 0.0
C3167 C 0.82034 0.48739 0.40447 0.0
C3168 C 0.83496 0.4811 0.42045 0.0
C3169 C 0.84923 0.49484 0.42857 0.0
C3170 C 0.8358 0.46042 0.42637 0.0
C3171 C 0.85064 0.4534 0.43995 0.0
C3172 C 0.86395 0.48801 0.44246 0.0
C3173 C 0.86467 0.46742 0.44816 0.0
C3174 C 0.76677 0.52312 0.3583 0.0
C3175 C 0.73612 0.50109 0.38662 0.0
C3176 C 0.72981 0.56587 0.40703 0.0
C3177 C 0.71236 0.57739 0.39958 0.0
C3178 C 0.71153 0.59823 0.40428 0.0
C3179 C 0.6955 0.56764 0.3906 0.0
C3180 C 0.67764 0.57875 0.38702 0.0
C3181 C 0.69386 0.6093 0.40041 0.0
C3182 C 0.67692 0.5996 0.39195 0.0
C3183 C 0.74055 0.48941 0.42992 0.0
H3184 H 0.84916 0.51073 0.42402 0.0
H3185 H 0.82486 0.4495 0.42042 0.0
H3186 H 0.87497 0.49866 0.44867 0.0
H3187 H 0.87632 0.46242 0.45874 0.0
H3188 H 0.72436 0.60579 0.41152 0.0
H3189 H 0.69604 0.5515 0.38707 0.0
H3190 H 0.69319 0.62535 0.40421 0.0
H3191 H 0.66327 0.60841 0.38902 0.0
Gd3192 Gd 0.81451 0.53068 0.65048 0.0
Gd3193 Gd 0.77454 0.49487 0.65447 0.0
C3194 C 0.73359 0.5397 0.68693 0.0
C3195 C 0.72746 0.52243 0.71915 0.0
C3196 C 0.74899 0.50673 0.69353 0.0
C3197 C 0.74581 0.52326 0.68061 0.0
C3198 C 0.73967 0.50608 0.71284 0.0
C3199 C 0.72446 0.5392 0.70626 0.0
C3200 C 0.73099 0.55621 0.67365 0.0
C3201 C 0.7405 0.55607 0.65463 0.0
N3202 N 0.75495 0.52344 0.66202 0.0
C3203 C 0.75251 0.53941 0.64901 0.0
H3204 H 0.75996 0.53944 0.63441 0.0
C3205 C 0.76369 0.4742 0.69884 0.0
N3206 N 0.76116 0.49128 0.68721 0.0
C3207 C 0.75469 0.47285 0.71806 0.0
C3208 C 0.74277 0.48893 0.72518 0.0
H3209 H 0.77253 0.4615 0.69328 0.0
H3210 H 0.71502 0.55171 0.71138 0.0
H3211 H 0.85352 0.52764 0.68568 0.0
H3212 H 0.72173 0.56915 0.67796 0.0
H3213 H 0.73863 0.5688 0.64432 0.0
H3214 H 0.72024 0.52224 0.73397 0.0
H3215 H 0.81308 0.56025 0.6077 0.0
H3216 H 0.90662 0.50682 0.65433 0.0
H3217 H 0.88905 0.51564 0.6864 0.0
H3218 H 0.89077 0.52161 0.58491 0.0
H3219 H 0.75688 0.45938 0.72733 0.0
H3220 H 0.73585 0.48786 0.7401 0.0
H3221 H 0.9068 0.5083 0.61607 0.0
H3222 H 0.83183 0.56344 0.5753 0.0
N3223 N 0.85025 0.52429 0.65355 0.0
C3224 C 0.89092 0.51191 0.65391 0.0
C3225 C 0.88107 0.51693 0.67204 0.0
C3226 C 0.88096 0.51528 0.6354 0.0
C3227 C 0.86049 0.52185 0.63575 0.0
C3228 C 0.86089 0.5238 0.67154 0.0
N3229 N 0.83285 0.53749 0.61989 0.0
C3230 C 0.85138 0.52874 0.61818 0.0
C3231 C 0.83728 0.55317 0.58701 0.0
C3232 C 0.85487 0.54175 0.5839 0.0
C3233 C 0.8267 0.55125 0.60536 0.0
C3234 C 0.86265 0.53003 0.59992 0.0
H3235 H 0.86313 0.54334 0.56972 0.0
O3236 O 0.79684 0.55801 0.65913 0.0
O3237 O 0.78914 0.52104 0.67308 0.0
O3238 O 0.77097 0.50461 0.61913 0.0
O3239 O 0.79802 0.52684 0.61704 0.0
O3240 O 0.81592 0.53145 0.68576 0.0
O3241 O 0.82717 0.56038 0.64667 0.0
O3242 O 0.76533 0.46332 0.65345 0.0
O3243 O 0.80113 0.50393 0.63714 0.0
O3244 O 0.82685 0.50352 0.66796 0.0
O3245 O 0.79893 0.48195 0.67534 0.0
O3246 O 0.79743 0.47278 0.64144 0.0
O3247 O 0.74459 0.48668 0.64238 0.0
C3248 C 0.79821 0.52405 0.69104 0.0
C3249 C 0.88211 0.5213 0.59894 0.0
C3250 C 0.89125 0.51379 0.61671 0.0
C3251 C 0.81246 0.56992 0.65556 0.0
C3252 C 0.81967 0.58462 0.67109 0.0
C3253 C 0.80826 0.60213 0.67528 0.0
C3254 C 0.83992 0.58336 0.67841 0.0
C3255 C 0.84932 0.6001 0.6879 0.0
C3256 C 0.81719 0.61843 0.68585 0.0
C3257 C 0.83773 0.61765 0.69171 0.0
C3258 C 0.78265 0.5168 0.60722 0.0
C3259 C 0.80883 0.48667 0.63346 0.0
C3260 C 0.74762 0.46723 0.64545 0.0
C3261 C 0.73082 0.4545 0.65277 0.0
C3262 C 0.7199 0.45914 0.67045 0.0
C3263 C 0.72706 0.43616 0.64249 0.0
C3264 C 0.71272 0.42204 0.64987 0.0
C3265 C 0.70551 0.44527 0.67792 0.0
C3266 C 0.70199 0.42679 0.6678 0.0
C3267 C 0.81833 0.48755 0.67723 0.0
H3268 H 0.79281 0.60358 0.66959 0.0
H3269 H 0.84907 0.57002 0.67513 0.0
H3270 H 0.80841 0.63206 0.68876 0.0
H3271 H 0.8446 0.63078 0.69905 0.0
H3272 H 0.72265 0.47324 0.67857 0.0
H3273 H 0.73541 0.43297 0.62863 0.0
H3274 H 0.6972 0.44875 0.69169 0.0
H3275 H 0.69099 0.41619 0.67413 0.0
Gd3276 Gd 0.53165 0.14379 0.24537 0.0
Gd3277 Gd 0.48984 0.14823 0.27774 0.0
C3278 C 0.43628 0.19115 0.2694 0.0
C3279 C 0.44587 0.21936 0.29145 0.0
C3280 C 0.46755 0.1894 0.28929 0.0
C3281 C 0.45415 0.18057 0.27511 0.0
C3282 C 0.46302 0.2085 0.29809 0.0
C3283 C 0.43264 0.21079 0.27705 0.0
C3284 C 0.42203 0.18135 0.25688 0.0
C3285 C 0.42491 0.16097 0.25166 0.0
N3286 N 0.45767 0.16124 0.26815 0.0
C3287 C 0.44256 0.1509 0.25798 0.0
H3288 H 0.44379 0.13489 0.25452 0.0
C3289 C 0.49646 0.18585 0.31096 0.0
N3290 N 0.48472 0.17915 0.29496 0.0
C3291 C 0.49236 0.20458 0.32015 0.0
C3292 C 0.47579 0.21611 0.31346 0.0
H3293 H 0.50964 0.17724 0.3158 0.0
H3294 H 0.41916 0.21918 0.27252 0.0
H3295 H 0.54146 0.17188 0.28868 0.0
H3296 H 0.40823 0.18904 0.25207 0.0
H3297 H 0.41342 0.15292 0.24291 0.0
H3298 H 0.44244 0.23424 0.29772 0.0
H3299 H 0.5332 0.09603 0.22558 0.0
H3300 H 0.5898 0.14305 0.32062 0.0
H3301 H 0.56604 0.17187 0.31646 0.0
H3302 H 0.59682 0.079 0.28685 0.0
H3303 H 0.50207 0.21021 0.33227 0.0
H3304 H 0.47278 0.23072 0.32053 0.0
H3305 H 0.60109 0.10848 0.30952 0.0
H3306 H 0.55246 0.06433 0.23074 0.0
N3307 N 0.55209 0.14436 0.27514 0.0
C3308 C 0.57926 0.14318 0.30789 0.0
C3309 C 0.56592 0.15949 0.30556 0.0
C3310 C 0.57817 0.12679 0.29435 0.0
C3311 C 0.56419 0.12773 0.27796 0.0
C3312 C 0.55214 0.15964 0.28929 0.0
N3313 N 0.5477 0.11192 0.25003 0.0
C3314 C 0.56181 0.11102 0.26516 0.0
C3315 C 0.55526 0.07733 0.24052 0.0
C3316 C 0.56992 0.07624 0.25586 0.0
C3317 C 0.54422 0.09531 0.23781 0.0
C3318 C 0.57334 0.09313 0.26843 0.0
H3319 H 0.57842 0.06225 0.25796 0.0
O3320 O 0.55033 0.13166 0.22115 0.0
O3321 O 0.50378 0.16041 0.251 0.0
O3322 O 0.47823 0.12951 0.25142 0.0
O3323 O 0.50724 0.12216 0.2317 0.0
O3324 O 0.50891 0.15362 0.22102 0.0
O3325 O 0.55201 0.1636 0.22761 0.0
O3326 O 0.49759 0.14135 0.30991 0.0
O3327 O 0.51707 0.12607 0.27213 0.0
O3328 O 0.53435 0.17986 0.25376 0.0
O3329 O 0.50481 0.18243 0.27244 0.0
O3330 O 0.48914 0.11296 0.27774 0.0
O3331 O 0.46583 0.14084 0.2975 0.0
C3332 C 0.49708 0.16324 0.23321 0.0
C3333 C 0.58773 0.09253 0.28425 0.0
C3334 C 0.59018 0.10933 0.29713 0.0
C3335 C 0.5557 0.14933 0.21435 0.0
C3336 C 0.54971 0.15322 0.19297 0.0
C3337 C 0.53235 0.14342 0.18474 0.0
C3338 C 0.561 0.16653 0.18061 0.0
C3339 C 0.55469 0.17035 0.16043 0.0
C3340 C 0.52571 0.14777 0.16509 0.0
C3341 C 0.53673 0.16123 0.15299 0.0
C3342 C 0.48758 0.11959 0.23642 0.0
C3343 C 0.50787 0.10795 0.27401 0.0
C3344 C 0.47785 0.13869 0.31331 0.0
C3345 C 0.46827 0.13285 0.33275 0.0
C3346 C 0.47892 0.13387 0.35122 0.0
C3347 C 0.44736 0.12774 0.33285 0.0
C3348 C 0.43695 0.12423 0.35109 0.0
C3349 C 0.46868 0.13018 0.36953 0.0
C3350 C 0.44781 0.12554 0.36953 0.0
C3351 C 0.52096 0.19219 0.26364 0.0
H3352 H 0.52379 0.13232 0.19347 0.0
H3353 H 0.57466 0.17375 0.18658 0.0
H3354 H 0.51218 0.14037 0.1591 0.0
H3355 H 0.53167 0.16385 0.1375 0.0
H3356 H 0.49494 0.13795 0.35154 0.0
H3357 H 0.43887 0.12709 0.31868 0.0
H3358 H 0.4769 0.13112 0.38381 0.0
H3359 H 0.44021 0.12279 0.3839 0.0
Gd3360 Gd 0.05668 0.89605 0.78401 0.0
Gd3361 Gd 1.02604 0.89703 0.74013 0.0
C3362 C 0.03942 0.92919 0.67987 0.0
C3363 C 1.02042 0.96071 0.68345 0.0
C3364 C 1.01878 0.93471 0.70984 0.0
C3365 C 0.03221 0.9226 0.69903 0.0
C3366 C 1.01207 0.95349 0.70172 0.0
C3367 C 0.03415 0.94863 0.67258 0.0
C3368 C 0.05078 0.91564 0.66808 0.0
C3369 C 0.0533 0.8956 0.67472 0.0
N3370 N 0.0366 0.90362 0.70623 0.0
C3371 C 0.04551 0.88965 0.69362 0.0
H3372 H 0.04677 0.87384 0.69798 0.0
C3373 C 0.99499 0.93717 0.73672 0.0
N3374 N 1.01106 0.92743 0.72754 0.0
C3375 C 0.98778 0.95571 0.72917 0.0
C3376 C 0.99661 0.96411 0.71179 0.0
H3377 H 0.98884 0.93146 0.75086 0.0
H3378 H 0.03984 0.95404 0.65807 0.0
H3379 H 1.00933 0.912 0.79429 0.0
H3380 H 0.05663 0.92014 0.65332 0.0
H3381 H 0.06104 0.88464 0.66518 0.0
H3382 H 1.01576 0.97528 0.6772 0.0
H3383 H 0.09444 0.8621 0.7917 0.0
H3384 H 0.98076 0.86551 0.8304 0.0
H3385 H 0.97926 0.89907 0.8132 0.0
H3386 H 0.03269 0.81469 0.83716 0.0
H3387 H 0.97565 0.96365 0.73696 0.0
H3388 H 0.99106 0.97855 0.70601 0.0
H3389 H 1.0007 0.83403 0.83904 0.0
H3390 H 0.09835 0.82837 0.80807 0.0
N3391 N 0.02739 0.88611 0.80117 0.0
C3392 C 0.99399 0.87114 0.82227 0.0
C3393 C 0.99308 0.89013 0.81258 0.0
C3394 C 1.01192 0.85962 0.82135 0.0
C3395 C 0.0287 0.86761 0.81059 0.0
C3396 C 1.01009 0.89747 0.80199 0.0
N3397 N 0.06284 0.86429 0.79869 0.0
C3398 C 0.04682 0.85644 0.80928 0.0
C3399 C 0.08373 0.83597 0.80829 0.0
C3400 C 0.06714 0.82703 0.81823 0.0
C3401 C 0.0814 0.85491 0.79884 0.0
C3402 C 0.04851 0.83738 0.81909 0.0
H3403 H 0.06902 0.81235 0.82557 0.0
O3404 O 0.08472 0.90995 0.7938 0.0
O3405 O 0.05106 0.91143 0.75553 0.0
O3406 O 0.05468 0.87886 0.7324 0.0
O3407 O 0.0725 0.87357 0.76318 0.0
O3408 O 0.08155 0.90655 0.76234 0.0
O3409 O 0.06243 0.90175 0.81645 0.0
O3410 O 0.99425 0.89421 0.75071 0.0
O3411 O 0.03163 0.87644 0.76835 0.0
O3412 O 0.04342 0.93033 0.78582 0.0
O3413 O 0.0298 0.93213 0.75365 0.0
O3414 O 0.02828 0.86199 0.74064 0.0
O3415 O 1.00434 0.88164 0.72164 0.0
C3416 C 0.06912 0.91477 0.74948 0.0
C3417 C 0.0317 0.82938 0.82965 0.0
C3418 C 1.01348 0.84043 0.83076 0.0
C3419 C 0.08073 0.90866 0.81302 0.0
C3420 C 0.09801 0.90169 0.82544 0.0
C3421 C 0.09733 0.88412 0.83759 0.0
C3422 C 0.11613 0.913 0.82417 0.0
C3423 C 0.13355 0.90736 0.83519 0.0
C3424 C 0.1148 0.87796 0.84817 0.0
C3425 C 0.1328 0.8895 0.84707 0.0
C3426 C 0.0694 0.87011 0.7435 0.0
C3427 C 0.031 0.85791 0.7598 0.0
C3428 C 0.98883 0.8855 0.7334 0.0
C3429 C 0.97067 0.89242 0.72174 0.0
C3430 C 0.95713 0.90708 0.72921 0.0
C3431 C 0.96739 0.88439 0.70203 0.0
C3432 C 0.95195 0.89192 0.68914 0.0
C3433 C 0.94173 0.91473 0.71663 0.0
C3434 C 0.93933 0.90752 0.6967 0.0
C3435 C 0.03548 0.94225 0.77097 0.0
H3436 H 0.0835 0.87513 0.83876 0.0
H3437 H 0.11658 0.92633 0.81438 0.0
H3438 H 0.11432 0.86434 0.85748 0.0
H3439 H 0.14585 0.88474 0.85598 0.0
H3440 H 0.95864 0.9129 0.74455 0.0
H3441 H 0.97702 0.87209 0.6968 0.0
H3442 H 0.93168 0.92648 0.7223 0.0
H3443 H 0.92757 0.91425 0.68731 0.0
Gd3444 Gd 0.5369 0.90616 0.30608 0.0
Gd3445 Gd 0.49277 0.9003 0.2762 0.0
C3446 C 0.42957 0.88314 0.30032 0.0
C3447 C 0.42947 0.84626 0.29657 0.0
C3448 C 0.45801 0.86649 0.2842 0.0
C3449 C 0.44906 0.88403 0.29133 0.0
C3450 C 0.44766 0.84761 0.28543 0.0
C3451 C 0.42042 0.86407 0.30407 0.0
C3452 C 0.41924 0.90142 0.30381 0.0
C3453 C 0.42762 0.91971 0.29672 0.0
N3454 N 0.45805 0.90214 0.28662 0.0
C3455 C 0.44683 0.91969 0.28745 0.0
H3456 H 0.45313 0.93386 0.28187 0.0
C3457 C 0.48014 0.8536 0.25926 0.0
N3458 N 0.47509 0.86861 0.27296 0.0
C3459 C 0.47074 0.83445 0.26016 0.0
C3460 C 0.45488 0.83119 0.27393 0.0
H3461 H 0.49242 0.85605 0.24854 0.0
H3462 H 0.40568 0.86304 0.31143 0.0
H3463 H 0.54506 0.87919 0.26209 0.0
H3464 H 0.40425 0.90143 0.31072 0.0
H3465 H 0.41927 0.93382 0.29832 0.0
H3466 H 0.42156 0.83181 0.29817 0.0
H3467 H 0.54032 0.95229 0.32946 0.0
H3468 H 0.58564 0.91384 0.22526 0.0
H3469 H 0.56547 0.88256 0.23133 0.0
H3470 H 0.59328 0.97668 0.26121 0.0
H3471 H 0.47568 0.82228 0.25021 0.0
H3472 H 0.44738 0.81645 0.27442 0.0
H3473 H 0.59584 0.94877 0.23647 0.0
H3474 H 0.55759 0.98513 0.32403 0.0
N3475 N 0.55421 0.90774 0.27471 0.0
C3476 C 0.57685 0.91236 0.23913 0.0
C3477 C 0.56553 0.89467 0.24253 0.0
C3478 C 0.57627 0.92816 0.25338 0.0
C3479 C 0.5646 0.92549 0.27125 0.0
C3480 C 0.5541 0.89269 0.26034 0.0
N3481 N 0.55141 0.93885 0.30205 0.0
C3482 C 0.5631 0.94142 0.2852 0.0
C3483 C 0.55926 0.973 0.31299 0.0
C3484 C 0.57129 0.97591 0.29578 0.0
C3485 C 0.5493 0.95437 0.31587 0.0
C3486 C 0.57333 0.9601 0.28164 0.0
H3487 H 0.57891 0.99044 0.29353 0.0
O3488 O 0.56155 0.91697 0.32549 0.0
O3489 O 0.5086 0.88869 0.30265 0.0
O3490 O 0.48373 0.92079 0.30264 0.0
O3491 O 0.51403 0.92754 0.32095 0.0
O3492 O 0.5157 0.89788 0.33209 0.0
O3493 O 0.55516 0.88505 0.32444 0.0
O3494 O 0.5084 0.90489 0.24678 0.0
O3495 O 0.51869 0.92351 0.28156 0.0
O3496 O 0.53992 0.87057 0.29752 0.0
O3497 O 0.50947 0.86747 0.28058 0.0
O3498 O 0.49145 0.93552 0.27214 0.0
O3499 O 0.47659 0.89597 0.24846 0.0
C3500 C 0.50295 0.88754 0.3211 0.0
C3501 C 0.58525 0.9625 0.26411 0.0
C3502 C 0.58673 0.94658 0.25005 0.0
C3503 C 0.56361 0.89973 0.33473 0.0
C3504 C 0.55958 0.90012 0.35685 0.0
C3505 C 0.54682 0.91534 0.36496 0.0
C3506 C 0.56716 0.88484 0.3698 0.0
C3507 C 0.56173 0.88472 0.39054 0.0
C3508 C 0.54165 0.91529 0.38548 0.0
C3509 C 0.54896 0.90003 0.39821 0.0
C3510 C 0.49431 0.93051 0.31708 0.0
C3511 C 0.50977 0.94138 0.27749 0.0
C3512 C 0.49139 0.90186 0.23674 0.0
C3513 C 0.485 0.916 0.2204 0.0
C3514 C 0.49728 0.91886 0.2032 0.0
C3515 C 0.46491 0.92365 0.22023 0.0
C3516 C 0.45662 0.93253 0.20268 0.0
C3517 C 0.48939 0.92861 0.18593 0.0
C3518 C 0.46905 0.93505 0.18549 0.0
C3519 C 0.52619 0.85816 0.28831 0.0
H3520 H 0.54052 0.92719 0.35541 0.0
H3521 H 0.57698 0.87304 0.36378 0.0
H3522 H 0.53191 0.92711 0.39153 0.0
H3523 H 0.545 0.90043 0.41421 0.0
H3524 H 0.51266 0.91289 0.20284 0.0
H3525 H 0.45508 0.92142 0.23329 0.0
H3526 H 0.49886 0.93056 0.1726 0.0
H3527 H 0.46303 0.94195 0.17175 0.0
Gd3528 Gd 0.89446 0.77867 0.05975 0.0
Gd3529 Gd 0.90054 0.73973 1.02373 0.0
C3530 C 0.91411 0.67476 0.04532 0.0
C3531 C 0.95118 0.67453 0.0455 0.0
C3532 C 0.93264 0.70364 0.03216 0.0
C3533 C 0.91443 0.6946 0.03708 0.0
C3534 C 0.95115 0.69305 0.03479 0.0
C3535 C 0.93258 0.66536 0.05084 0.0
C3536 C 0.89544 0.66444 0.04624 0.0
C3537 C 0.87823 0.67322 0.03725 0.0
N3538 N 0.89713 0.70404 0.0308 0.0
C3539 C 0.8795 0.69287 0.0289 0.0
H3540 H 0.86602 0.69964 1.02232 0.0
C3541 C 0.94775 0.72621 1.00899 0.0
N3542 N 0.93174 0.72117 1.02146 0.0
C3543 C 0.96659 0.71647 1.01109 0.0
C3544 C 0.96856 0.70038 1.02486 0.0
H3545 H 0.94618 0.7384 0.99798 0.0
H3546 H 0.93265 0.65037 0.05779 0.0
H3547 H 0.91325 0.79254 1.01437 0.0
H3548 H 0.89445 0.64919 0.05255 0.0
H3549 H 0.86394 0.66491 0.03687 0.0
H3550 H 0.9653 0.66646 0.04831 0.0
H3551 H 0.85532 0.77935 0.09245 0.0
H3552 H 0.87519 0.84006 0.99092 0.0
H3553 H 0.90538 0.81778 0.98752 0.0
H3554 H 0.82275 0.84598 0.04134 0.0
H3555 H 0.9795 0.72132 1.00203 0.0
H3556 H 0.98308 0.69269 1.02635 0.0
H3557 H 0.84454 0.85066 1.01124 0.0
H3558 H 0.82418 0.7996 0.09792 0.0
N3559 N 0.88769 0.80034 0.03244 0.0
C3560 C 0.87852 0.82894 1.00266 0.0
C3561 C 0.89559 0.81639 1.00069 0.0
C3562 C 0.86589 0.82694 1.01971 0.0
C3563 C 0.87085 0.81216 0.03448 0.0
C3564 C 0.90004 0.80212 1.01589 0.0
N3565 N 0.86289 0.79416 0.06462 0.0
C3566 C 0.85831 0.80924 0.05125 0.0
C3567 C 0.83355 0.80237 0.08465 0.0
C3568 C 0.82843 0.81782 0.07094 0.0
C3569 C 0.85104 0.79071 0.08133 0.0
C3570 C 0.84085 0.82145 0.054 0.0
H3571 H 0.81488 0.82684 0.07356 0.0
O3572 O 0.89532 0.78585 0.09174 0.0
O3573 O 0.91329 0.75309 0.05089 0.0
O3574 O 0.88253 0.72618 0.05003 0.0
O3575 O 0.87287 0.75361 0.07094 0.0
O3576 O 0.90575 0.75494 0.08166 0.0
O3577 O 0.90802 0.80739 0.06986 0.0
O3578 O 0.89397 0.75691 0.99567 0.0
O3579 O 0.87665 0.7644 0.03274 0.0
O3580 O 0.92992 0.78331 0.0503 0.0
O3581 O 0.93275 0.75802 1.02646 0.0
O3582 O 0.8655 0.7378 1.02089 0.0
O3583 O 0.90621 0.72638 0.99466 0.0
C3584 C 0.9156 0.7448 0.06813 0.0
C3585 C 0.83612 0.8365 0.03954 0.0
C3586 C 0.84854 0.83916 1.02239 0.0
C3587 C 0.90476 0.80311 0.08901 0.0
C3588 C 0.89979 0.81943 0.10328 0.0
C3589 C 0.88327 0.83259 0.10038 0.0
C3590 C 0.91141 0.82066 0.12113 0.0
C3591 C 0.9069 0.83506 0.13625 0.0
C3592 C 0.87848 0.84688 0.11541 0.0
C3593 C 0.89018 0.84815 0.13325 0.0
C3594 C 0.87203 0.73408 0.06541 0.0
C3595 C 0.85901 0.75508 0.02824 0.0
C3596 C 0.89814 0.74113 0.9843 0.0
C3597 C 0.88323 0.73436 0.96882 0.0
C3598 C 0.87643 0.74781 0.9537 0.0
C3599 C 0.87704 0.71374 0.96808 0.0
C3600 C 0.86461 0.7065 0.95231 0.0
C3601 C 0.86364 0.74076 0.93812 0.0
C3602 C 0.85775 0.72023 0.93738 0.0
C3603 C 0.94207 0.77299 0.03724 0.0
H3604 H 0.87407 0.83172 0.08672 0.0
H3605 H 0.92384 0.81001 0.12339 0.0
H3606 H 0.86569 0.85704 0.11323 0.0
H3607 H 0.88635 0.85959 0.14448 0.0
H3608 H 0.88123 0.76365 0.95379 0.0
H3609 H 0.88197 0.7031 0.97972 0.0
H3610 H 0.85848 0.75119 0.92643 0.0
H3611 H 0.8481 0.71502 0.92501 0.0
Gd3612 Gd 0.64658 0.30279 0.51945 0.0
Gd3613 Gd 0.64904 0.27278 0.56436 0.0
C3614 C 0.68824 0.2844 0.62043 0.0
C3615 C 0.71745 0.26266 0.61414 0.0
C3616 C 0.68904 0.26312 0.59025 0.0
C3617 C 0.67913 0.27758 0.60214 0.0
C3618 C 0.70768 0.25466 0.59687 0.0
C3619 C 0.70785 0.27769 0.62577 0.0
C3620 C 0.67687 0.29673 0.6335 0.0
C3621 C 0.65638 0.3004 0.62914 0.0
N3622 N 0.65982 0.28326 0.59704 0.0
C3623 C 0.64785 0.2929 0.61108 0.0
H3624 H 0.63179 0.29527 0.60839 0.0
C3625 C 0.68697 0.2392 0.56328 0.0
N3626 N 0.6797 0.25615 0.57312 0.0
C3627 C 0.70486 0.22974 0.56988 0.0
C3628 C 0.71552 0.23778 0.58648 0.0
H3629 H 0.67939 0.23354 0.54978 0.0
H3630 H 0.71521 0.28313 0.63953 0.0
H3631 H 0.67447 0.25917 0.51134 0.0
H3632 H 0.68337 0.3024 0.64759 0.0
H3633 H 0.64709 0.30889 0.63974 0.0
H3634 H 0.73206 0.25676 0.61909 0.0
H3635 H 0.60031 0.325 0.51568 0.0
H3636 H 0.64172 0.22248 0.469 0.0
H3637 H 0.6722 0.2287 0.49028 0.0
H3638 H 0.57881 0.25786 0.45982 0.0
H3639 H 0.7107 0.2166 0.56185 0.0
H3640 H 0.72962 0.23067 0.59132 0.0
H3641 H 0.60702 0.23342 0.4578 0.0
H3642 H 0.56844 0.31988 0.49671 0.0
N3643 N 0.64595 0.27142 0.50177 0.0
C3644 C 0.64268 0.23619 0.47816 0.0
C3645 C 0.65991 0.23967 0.49012 0.0
C3646 C 0.62667 0.25019 0.47852 0.0
C3647 C 0.62865 0.26783 0.49072 0.0
C3648 C 0.66123 0.25731 0.502 0.0
N3649 N 0.61436 0.29789 0.5045 0.0
C3650 C 0.61251 0.28148 0.49205 0.0
C3651 C 0.58068 0.30896 0.49525 0.0
C3652 C 0.5784 0.29201 0.48265 0.0
C3653 C 0.59886 0.31174 0.50606 0.0
C3654 C 0.59436 0.27802 0.48091 0.0
H3655 H 0.56424 0.28985 0.47437 0.0
O3656 O 0.63675 0.33211 0.50921 0.0
O3657 O 0.6595 0.29989 0.54944 0.0
O3658 O 0.6319 0.3012 0.57318 0.0
O3659 O 0.62618 0.31893 0.54248 0.0
O3660 O 0.66717 0.32649 0.53533 0.0
O3661 O 0.65577 0.31346 0.48896 0.0
O3662 O 0.64294 0.2406 0.55706 0.0
O3663 O 0.62831 0.27782 0.53603 0.0
O3664 O 0.68208 0.29446 0.51882 0.0
O3665 O 0.68334 0.27604 0.54911 0.0
O3666 O 0.61412 0.27502 0.56394 0.0
O3667 O 0.63427 0.25408 0.5864 0.0
C3668 C 0.66885 0.3166 0.5522 0.0
C3669 C 0.59262 0.26073 0.46847 0.0
C3670 C 0.6087 0.24684 0.4673 0.0
C3671 C 0.6447 0.3299 0.49126 0.0
C3672 C 0.64639 0.34797 0.47841 0.0
C3673 C 0.63498 0.34855 0.46036 0.0
C3674 C 0.65584 0.36577 0.48569 0.0
C3675 C 0.65379 0.38419 0.47494 0.0
C3676 C 0.63277 0.36682 0.44974 0.0
C3677 C 0.64204 0.38456 0.45698 0.0
C3678 C 0.62357 0.31625 0.56238 0.0
C3679 C 0.61007 0.27746 0.54479 0.0
C3680 C 0.63548 0.23743 0.57549 0.0
C3681 C 0.64131 0.21924 0.58764 0.0
C3682 C 0.65508 0.20465 0.58047 0.0
C3683 C 0.6328 0.21673 0.60726 0.0
C3684 C 0.63865 0.2005 0.6201 0.0
C3685 C 0.66128 0.18869 0.59312 0.0
C3686 C 0.65338 0.18674 0.61279 0.0
C3687 C 0.69351 0.28469 0.53303 0.0
H3688 H 0.62708 0.33504 0.45494 0.0
H3689 H 0.6644 0.36536 0.49983 0.0
H3690 H 0.62376 0.36726 0.43592 0.0
H3691 H 0.64052 0.39845 0.44817 0.0
H3692 H 0.66118 0.20558 0.56522 0.0
H3693 H 0.62133 0.22741 0.61234 0.0
H3694 H 0.6723 0.17775 0.58765 0.0
H3695 H 0.65887 0.17436 0.62221 0.0
Gd3696 Gd 0.249 0.53165 0.14609 0.0
Gd3697 Gd 0.27853 0.48916 0.15389 0.0
C3698 C 0.26157 0.42356 0.1715 0.0
C3699 C 0.26831 0.42351 0.20787 0.0
C3700 C 0.27628 0.4534 0.1874 0.0
C3701 C 0.26882 0.44384 0.17025 0.0
C3702 C 0.27745 0.44282 0.20608 0.0
C3703 C 0.26024 0.41392 0.19057 0.0
C3704 C 0.25721 0.41312 0.15347 0.0
C3705 C 0.26175 0.42228 0.13486 0.0
N3706 N 0.27124 0.45338 0.15202 0.0
C3707 C 0.26943 0.44222 0.13441 0.0
H3708 H 0.27274 0.44891 0.11979 0.0
C3709 C 0.29862 0.47888 0.19955 0.0
N3710 N 0.28522 0.47185 0.18501 0.0
C3711 C 0.3005 0.46888 0.21825 0.0
C3712 C 0.28918 0.45118 0.22185 0.0
H3713 H 0.30715 0.49282 0.19697 0.0
H3714 H 0.25429 0.39854 0.19188 0.0
H3715 H 0.293 0.5401 0.1732 0.0
H3716 H 0.2515 0.39758 0.15377 0.0
H3717 H 0.25934 0.41398 0.12081 0.0
H3718 H 0.26854 0.41537 0.22222 0.0
H3719 H 0.22978 0.52953 0.09782 0.0
H3720 H 0.32695 0.58546 0.14123 0.0
H3721 H 0.32257 0.56291 0.17106 0.0
H3722 H 0.28975 0.59421 0.07914 0.0
H3723 H 0.31044 0.475 0.22995 0.0
H3724 H 0.29061 0.44346 0.23637 0.0
H3725 H 0.3144 0.59729 0.10721 0.0
H3726 H 0.23328 0.54942 0.06624 0.0
N3727 N 0.27995 0.54986 0.14513 0.0
C3728 C 0.31374 0.57552 0.14211 0.0
C3729 C 0.3113 0.56284 0.15899 0.0
C3730 C 0.29941 0.57484 0.12632 0.0
C3731 C 0.28259 0.56147 0.12811 0.0
C3732 C 0.29425 0.55004 0.16027 0.0
N3733 N 0.25404 0.545 0.11321 0.0
C3734 C 0.269 0.55932 0.11193 0.0
C3735 C 0.24339 0.55238 0.07896 0.0
C3736 C 0.2581 0.56777 0.0777 0.0
C3737 C 0.24174 0.54084 0.09678 0.0
C3738 C 0.27142 0.57111 0.09408 0.0
H3739 H 0.2595 0.5765 0.06376 0.0
O3740 O 0.22848 0.55312 0.13231 0.0
O3741 O 0.25226 0.50498 0.16513 0.0
O3742 O 0.2511 0.47745 0.13649 0.0
O3743 O 0.23281 0.50678 0.12705 0.0
O3744 O 0.22253 0.51223 0.15718 0.0
O3745 O 0.2327 0.55423 0.16453 0.0
O3746 O 0.3055 0.50839 0.14804 0.0
O3747 O 0.2739 0.51371 0.1287 0.0
O3748 O 0.25755 0.5363 0.18202 0.0
O3749 O 0.27161 0.50473 0.18721 0.0
O3750 O 0.27977 0.48463 0.11891 0.0
O3751 O 0.30844 0.47718 0.15814 0.0
C3752 C 0.23377 0.49973 0.16745 0.0
C3753 C 0.2876 0.5851 0.09274 0.0
C3754 C 0.30165 0.58683 0.10873 0.0
C3755 C 0.22132 0.55977 0.14924 0.0
C3756 C 0.199 0.55768 0.15097 0.0
C3757 C 0.18712 0.55654 0.13309 0.0
C3758 C 0.18947 0.55546 0.16996 0.0
C3759 C 0.16833 0.55195 0.17102 0.0
C3760 C 0.16633 0.55251 0.13409 0.0
C3761 C 0.15697 0.55017 0.15288 0.0
C3762 C 0.23616 0.4867 0.12644 0.0
C3763 C 0.27601 0.50277 0.11163 0.0
C3764 C 0.31785 0.49314 0.15115 0.0
C3765 C 0.33369 0.48848 0.13595 0.0
C3766 C 0.34863 0.50291 0.13079 0.0
C3767 C 0.33547 0.46842 0.12859 0.0
C3768 C 0.35254 0.46232 0.11749 0.0
C3769 C 0.36521 0.49719 0.11867 0.0
C3770 C 0.36729 0.47695 0.11218 0.0
C3771 C 0.26503 0.52252 0.19563 0.0
H3772 H 0.19395 0.55841 0.1182 0.0
H3773 H 0.19835 0.55677 0.18385 0.0
H3774 H 0.15737 0.55157 0.12026 0.0
H3775 H 0.14058 0.54812 0.15316 0.0
H3776 H 0.34774 0.51838 0.1365 0.0
H3777 H 0.32389 0.45712 0.13215 0.0
H3778 H 0.3768 0.50833 0.11483 0.0
H3779 H 0.38065 0.47263 0.10355 0.0
Gd3780 Gd 0.31066 0.52443 0.90722 0.0
Gd3781 Gd 0.27299 0.48685 0.90222 0.0
C3782 C 0.28777 0.41914 0.89337 0.0
C3783 C 0.28896 0.41639 0.85652 0.0
C3784 C 0.2784 0.44798 0.87266 0.0
C3785 C 0.28167 0.43967 0.89153 0.0
C3786 C 0.28058 0.43599 0.85496 0.0
C3787 C 0.2926 0.40795 0.87578 0.0
C3788 C 0.28749 0.41013 0.91264 0.0
C3789 C 0.27963 0.42106 0.92907 0.0
N3790 N 0.27627 0.45092 0.90799 0.0
C3791 C 0.27351 0.44133 0.92637 0.0
H3792 H 0.26765 0.44947 0.93933 0.0
C3793 C 0.25908 0.47217 0.85487 0.0
N3794 N 0.26981 0.46664 0.87199 0.0
C3795 C 0.26105 0.46115 0.83676 0.0
C3796 C 0.27263 0.44336 0.8366 0.0
H3797 H 0.24945 0.48552 0.85492 0.0
H3798 H 0.29784 0.39233 0.8769 0.0
H3799 H 0.26591 0.53831 0.88583 0.0
H3800 H 0.29212 0.39442 0.91476 0.0
H3801 H 0.27839 0.41391 0.94387 0.0
H3802 H 0.29132 0.40715 0.84306 0.0
H3803 H 0.34034 0.52456 0.94886 0.0
H3804 H 0.24098 0.58619 0.92206 0.0
H3805 H 0.23899 0.56361 0.89195 0.0
H3806 H 0.2886 0.59243 0.97721 0.0
H3807 H 0.25346 0.4663 0.82304 0.0
H3808 H 0.27392 0.43465 0.82266 0.0
H3809 H 0.25977 0.59706 0.95364 0.0
H3810 H 0.34417 0.54506 0.98012 0.0
N3811 N 0.28288 0.54614 0.91225 0.0
C3812 C 0.2528 0.57498 0.9195 0.0
C3813 C 0.25163 0.56227 0.90248 0.0
C3814 C 0.26915 0.57301 0.93309 0.0
C3815 C 0.28404 0.55807 0.92914 0.0
C3816 C 0.26697 0.54793 0.899 0.0
N3817 N 0.31345 0.53986 0.93913 0.0
C3818 C 0.29998 0.55508 0.94276 0.0
C3819 C 0.33162 0.54797 0.9698 0.0
C3820 C 0.31799 0.5638 0.97375 0.0
C3821 C 0.3292 0.53617 0.95223 0.0
C3822 C 0.30192 0.56753 0.9602 0.0
H3823 H 0.31994 0.57295 0.98736 0.0
O3824 O 0.34255 0.53279 0.90917 0.0
O3825 O 0.30089 0.49838 0.88915 0.0
O3826 O 0.2988 0.47228 0.92005 0.0
O3827 O 0.32181 0.49882 0.92813 0.0
O3828 O 0.33195 0.5004 0.89529 0.0
O3829 O 0.32146 0.55235 0.8928 0.0
O3830 O 0.247 0.5064 0.9101 0.0
O3831 O 0.28386 0.51106 0.92593 0.0
O3832 O 0.30201 0.52826 0.8715 0.0
O3833 O 0.27683 0.50409 0.86952 0.0
O3834 O 0.27047 0.48549 0.93731 0.0
O3835 O 0.24239 0.47763 0.89499 0.0
C3836 C 0.31797 0.48981 0.88634 0.0
C3837 C 0.28743 0.5828 0.96386 0.0
C3838 C 0.271 0.58542 0.95043 0.0
C3839 C 0.3403 0.54941 0.89855 0.0
C3840 C 0.35241 0.56709 0.90507 0.0
C3841 C 0.34712 0.57861 0.92218 0.0
C3842 C 0.3703 0.57181 0.89433 0.0
C3843 C 0.38318 0.58776 0.9008 0.0
C3844 C 0.35992 0.59424 0.92894 0.0
C3845 C 0.3779 0.59871 0.91848 0.0
C3846 C 0.31515 0.47963 0.92969 0.0
C3847 C 0.27907 0.50225 0.94373 0.0
C3848 C 0.23391 0.49223 0.90514 0.0
C3849 C 0.21934 0.48513 0.92071 0.0
C3850 C 0.2052 0.49843 0.92952 0.0
C3851 C 0.21923 0.46444 0.92645 0.0
C3852 C 0.20514 0.45694 0.94051 0.0
C3853 C 0.19125 0.49107 0.94391 0.0
C3854 C 0.19123 0.47042 0.94946 0.0
C3855 C 0.28837 0.51816 0.85968 0.0
H3856 H 0.33326 0.57553 0.93036 0.0
H3857 H 0.37396 0.56316 0.88078 0.0
H3858 H 0.35592 0.6029 0.94236 0.0
H3859 H 0.38764 0.61077 0.92426 0.0
H3860 H 0.20492 0.51439 0.92525 0.0
H3861 H 0.23016 0.45392 0.92 0.0
H3862 H 0.18034 0.50136 0.95069 0.0
H3863 H 0.1802 0.46494 0.96045 0.0
Gd3864 Gd 0.29926 0.51682 0.64352 0.0
Gd3865 Gd 0.27185 0.56131 0.65293 0.0
C3866 C 0.29716 0.61785 0.68489 0.0
C3867 C 0.28616 0.61226 0.71976 0.0
C3868 C 0.27573 0.58891 0.69294 0.0
C3869 C 0.28691 0.59987 0.67886 0.0
C3870 C 0.27408 0.5958 0.7132 0.0
C3871 C 0.29781 0.62324 0.7056 0.0
C3872 C 0.30496 0.63071 0.6698 0.0
C3873 C 0.30059 0.62653 0.64939 0.0
N3874 N 0.28512 0.59465 0.6589 0.0
C3875 C 0.28983 0.60877 0.64427 0.0
H3876 H 0.28582 0.60605 0.62857 0.0
C3877 C 0.24774 0.56663 0.69731 0.0
N3878 N 0.26409 0.5733 0.68603 0.0
C3879 C 0.24543 0.57295 0.71749 0.0
C3880 C 0.25919 0.58702 0.72574 0.0
H3881 H 0.23748 0.55522 0.69115 0.0
H3882 H 0.30604 0.63671 0.71058 0.0
H3883 H 0.25624 0.50859 0.67133 0.0
H3884 H 0.31297 0.64464 0.67376 0.0
H3885 H 0.30529 0.6371 0.63763 0.0
H3886 H 0.28556 0.61744 0.73541 0.0
H3887 H 0.31932 0.51814 0.5957 0.0
H3888 H 0.21833 0.46788 0.63751 0.0
H3889 H 0.22535 0.48765 0.66879 0.0
H3890 H 0.25201 0.46247 0.57326 0.0
H3891 H 0.23321 0.56679 0.72672 0.0
H3892 H 0.25736 0.59194 0.74137 0.0
H3893 H 0.22849 0.45844 0.60206 0.0
H3894 H 0.31264 0.50199 0.56258 0.0
N3895 N 0.26742 0.50043 0.6421 0.0
C3896 C 0.2321 0.47702 0.63856 0.0
C3897 C 0.23602 0.48814 0.65625 0.0
C3898 C 0.24571 0.47823 0.62225 0.0
C3899 C 0.26343 0.49034 0.62439 0.0
C3900 C 0.25377 0.49992 0.65772 0.0
N3901 N 0.29323 0.50499 0.61016 0.0
C3902 C 0.27667 0.49267 0.60801 0.0
C3903 C 0.30242 0.49923 0.57521 0.0
C3904 C 0.28576 0.48615 0.5729 0.0
C3905 C 0.30596 0.50861 0.59398 0.0
C3906 C 0.27257 0.48284 0.58931 0.0
H3907 H 0.28306 0.4789 0.55832 0.0
O3908 O 0.3195 0.49522 0.62947 0.0
O3909 O 0.29733 0.54329 0.66283 0.0
O3910 O 0.29894 0.57152 0.63385 0.0
O3911 O 0.31579 0.54131 0.62424 0.0
O3912 O 0.32659 0.53552 0.65371 0.0
O3913 O 0.31293 0.49214 0.66128 0.0
O3914 O 0.24117 0.54832 0.64755 0.0
O3915 O 0.27442 0.53608 0.62846 0.0
O3916 O 0.29251 0.51283 0.6798 0.0
O3917 O 0.27623 0.54328 0.68509 0.0
O3918 O 0.27081 0.56552 0.6179 0.0
O3919 O 0.24603 0.58062 0.65408 0.0
C3920 C 0.316 0.5478 0.66484 0.0
C3921 C 0.25531 0.47026 0.58745 0.0
C3922 C 0.24192 0.46796 0.60385 0.0
C3923 C 0.32542 0.4876 0.64656 0.0
C3924 C 0.34734 0.49001 0.65064 0.0
C3925 C 0.36009 0.49952 0.6361 0.0
C3926 C 0.35529 0.48495 0.66976 0.0
C3927 C 0.37548 0.49002 0.67451 0.0
C3928 C 0.38016 0.50448 0.64089 0.0
C3929 C 0.38782 0.49991 0.66007 0.0
C3930 C 0.31313 0.56152 0.62335 0.0
C3931 C 0.27284 0.5468 0.61136 0.0
C3932 C 0.23292 0.56646 0.64918 0.0
C3933 C 0.2165 0.57323 0.6353 0.0
C3934 C 0.19905 0.5611 0.63259 0.0
C3935 C 0.21634 0.59354 0.62817 0.0
C3936 C 0.19865 0.60211 0.61982 0.0
C3937 C 0.18159 0.56932 0.62347 0.0
C3938 C 0.18123 0.58981 0.61746 0.0
C3939 C 0.28381 0.52592 0.69329 0.0
H3940 H 0.3545 0.5036 0.62112 0.0
H3941 H 0.34585 0.47724 0.68093 0.0
H3942 H 0.38982 0.51182 0.6297 0.0
H3943 H 0.40368 0.50332 0.66335 0.0
H3944 H 0.19861 0.54559 0.63829 0.0
H3945 H 0.22953 0.60331 0.63045 0.0
H3946 H 0.16807 0.55996 0.62169 0.0
H3947 H 0.16736 0.59606 0.61105 0.0
Gd3948 Gd 0.27642 0.5604 0.3975 0.0
Gd3949 Gd 0.23733 0.52582 0.40256 0.0
C3950 C 0.17452 0.53524 0.43099 0.0
C3951 C 0.17898 0.52006 0.46443 0.0
C3952 C 0.20648 0.51908 0.43969 0.0
C3953 C 0.19465 0.52974 0.42581 0.0
C3954 C 0.19816 0.51281 0.45851 0.0
C3955 C 0.16725 0.53148 0.45075 0.0
C3956 C 0.16174 0.54283 0.41573 0.0
C3957 C 0.16839 0.5427 0.39558 0.0
N3958 N 0.20172 0.53196 0.40644 0.0
C3959 C 0.18819 0.53628 0.39109 0.0
H3960 H 0.19285 0.53556 0.37533 0.0
C3961 C 0.2344 0.49675 0.44398 0.0
N3962 N 0.22493 0.51228 0.43356 0.0
C3963 C 0.22648 0.48966 0.46241 0.0
C3964 C 0.20864 0.49825 0.47007 0.0
H3965 H 0.24854 0.49048 0.43834 0.0
H3966 H 0.15199 0.53599 0.45509 0.0
H3967 H 0.28988 0.51605 0.41936 0.0
H3968 H 0.14624 0.54739 0.41912 0.0
H3969 H 0.15817 0.54726 0.38345 0.0
H3970 H 0.17259 0.51591 0.47907 0.0
H3971 H 0.27915 0.59191 0.3575 0.0
H3972 H 0.33007 0.48529 0.37846 0.0
H3973 H 0.31165 0.48654 0.41126 0.0
H3974 H 0.33394 0.53055 0.32123 0.0
H3975 H 0.23435 0.47787 0.47085 0.0
H3976 H 0.2026 0.49285 0.48445 0.0
H3977 H 0.3383 0.50182 0.34493 0.0
H3978 H 0.2963 0.59314 0.32411 0.0
N3979 N 0.29609 0.53139 0.39157 0.0
C3980 C 0.3206 0.49833 0.38197 0.0
C3981 C 0.31024 0.49899 0.40052 0.0
C3982 C 0.31856 0.51443 0.36812 0.0
C3983 C 0.30601 0.531 0.37339 0.0
C3984 C 0.29801 0.51578 0.40513 0.0
N3985 N 0.29069 0.56257 0.36507 0.0
C3986 C 0.30328 0.54707 0.35982 0.0
C3987 C 0.29825 0.58001 0.33392 0.0
C3988 C 0.31069 0.56388 0.3279 0.0
C3989 C 0.28841 0.57918 0.35276 0.0
C3990 C 0.31343 0.54718 0.34093 0.0
H3991 H 0.31828 0.56455 0.31328 0.0
O3992 O 0.28434 0.59215 0.39752 0.0
O3993 O 0.25008 0.55309 0.41627 0.0
O3994 O 0.22373 0.55238 0.38519 0.0
O3995 O 0.25173 0.5729 0.37615 0.0
O3996 O 0.25352 0.58337 0.40806 0.0
O3997 O 0.3067 0.5699 0.40799 0.0
O3998 O 0.25583 0.49877 0.39484 0.0
O3999 O 0.26251 0.53386 0.37932 0.0
O4000 O 0.28084 0.55106 0.43317 0.0
O4001 O 0.25227 0.5312 0.43626 0.0
O4002 O 0.23447 0.52605 0.36726 0.0
O4003 O 0.22364 0.49656 0.40249 0.0
C4004 C 0.24219 0.57067 0.41784 0.0
C4005 C 0.32605 0.53076 0.3357 0.0
C4006 C 0.32856 0.51441 0.34922 0.0
C4007 C 0.30241 0.5891 0.40494 0.0
C4008 C 0.31804 0.60366 0.39878 0.0
C4009 C 0.33213 0.60035 0.38317 0.0
C4010 C 0.31796 0.62214 0.40916 0.0
C4011 C 0.33291 0.63698 0.40565 0.0
C4012 C 0.34644 0.61563 0.37856 0.0
C4013 C 0.34703 0.6338 0.38989 0.0
C4014 C 0.23203 0.56793 0.37517 0.0
C4015 C 0.25278 0.53172 0.36167 0.0
C4016 C 0.23963 0.48701 0.39583 0.0
C4017 C 0.23495 0.47208 0.37964 0.0
C4018 C 0.24905 0.45707 0.3741 0.0
C4019 C 0.21478 0.47057 0.37235 0.0
C4020 C 0.20833 0.45381 0.36094 0.0
C4021 C 0.24293 0.44077 0.36165 0.0
C4022 C 0.22259 0.43901 0.3552 0.0
C4023 C 0.2685 0.54007 0.44565 0.0
H4024 H 0.33202 0.5862 0.37466 0.0
H4025 H 0.30634 0.62469 0.42062 0.0
H4026 H 0.35741 0.61319 0.36654 0.0
H4027 H 0.35888 0.64492 0.3868 0.0
H4028 H 0.26453 0.4576 0.37989 0.0
H4029 H 0.20353 0.48196 0.37635 0.0
H4030 H 0.25381 0.42911 0.35756 0.0
H4031 H 0.21789 0.42591 0.34628 0.0
H4032 H 1.01281 0.46865 0.27476 0.0
H4033 H 0.07592 0.5779 0.26674 0.0
H4034 H 0.07759 0.47358 0.27662 0.0
H4035 H 1.01423 0.57931 0.28782 0.0
H4036 H 0.07479 0.54045 0.26696 0.0
H4037 H 1.01047 0.50641 0.27662 0.0
C4038 C 1.02665 0.47702 0.27723 0.0
C4039 C 0.04543 0.46584 0.27838 0.0
C4040 C 0.06109 0.54861 0.27109 0.0
C4041 C 0.0431 0.51231 0.27749 0.0
C4042 C 0.0616 0.57072 0.27078 0.0
C4043 C 0.04468 0.58363 0.27569 0.0
C4044 C 0.04342 0.5373 0.27675 0.0
C4045 C 0.02744 0.57146 0.28209 0.0
C4046 C 1.02537 0.4994 0.27742 0.0
C4047 C 0.06249 0.47984 0.2777 0.0
N4048 N 0.02724 0.54985 0.28212 0.0
N4049 N 0.06091 0.50116 0.27734 0.0
H4050 H 0.83005 0.76978 0.51203 0.0
H4051 H 0.71912 0.81902 0.54822 0.0
H4052 H 0.8236 0.81908 0.55418 0.0
H4053 H 0.71961 0.76383 0.51358 0.0
H4054 H 0.75642 0.81905 0.54851 0.0
H4055 H 0.79212 0.76642 0.51106 0.0
C4056 C 0.82117 0.77974 0.52164 0.0
C4057 C 0.83187 0.79444 0.53397 0.0
C4058 C 0.74869 0.80668 0.54073 0.0
C4059 C 0.78554 0.79141 0.53175 0.0
C4060 C 0.72657 0.80655 0.54046 0.0
C4061 C 0.71403 0.79129 0.53077 0.0
C4062 C 0.76053 0.79128 0.53121 0.0
C4063 C 0.72682 0.77616 0.5213 0.0
C4064 C 0.79882 0.77799 0.52075 0.0
C4065 C 0.8176 0.80723 0.54458 0.0
N4066 N 0.74843 0.77658 0.52176 0.0
N4067 N 0.79631 0.80545 0.54323 0.0
H4068 H 0.51532 0.47097 0.80948 0.0
H4069 H 0.51055 0.58151 0.74676 0.0
H4070 H 0.51361 0.4732 0.74433 0.0
H4071 H 0.52059 0.57831 0.81116 0.0
H4072 H 0.51091 0.5436 0.74538 0.0
H4073 H 0.51729 0.50872 0.81028 0.0
C4074 C 0.51604 0.47898 0.79509 0.0
C4075 C 0.51531 0.46709 0.77677 0.0
C4076 C 0.51322 0.55094 0.75996 0.0
C4077 C 0.51631 0.51346 0.77761 0.0
C4078 C 0.513 0.57324 0.76082 0.0
C4079 C 0.51604 0.58479 0.77915 0.0
C4080 C 0.51619 0.53847 0.77763 0.0
C4081 C 0.51881 0.57143 0.79635 0.0
C4082 C 0.51686 0.50122 0.79561 0.0
C4083 C 0.51505 0.48024 0.75913 0.0
N4084 N 0.51874 0.54998 0.79515 0.0
N4085 N 0.51549 0.50174 0.76005 0.0
H4086 H 0.83375 0.24895 0.0541 0.0
H4087 H 0.72255 0.27813 0.99933 0.0
H4088 H 0.83046 0.28033 0.99688 0.0
H4089 H 0.7269 0.24451 0.0551 0.0
H4090 H 0.76042 0.28073 0.99878 0.0
H4091 H 0.79589 0.2481 0.05511 0.0
C4092 C 0.82546 0.25597 0.04169 0.0
C4093 C 0.83689 0.26508 1.02547 0.0
C4094 C 0.75327 0.27275 1.01131 0.0
C4095 C 0.7908 0.26404 1.02656 0.0
C4096 C 0.73103 0.27141 1.01178 0.0
C4097 C 0.71984 0.2612 1.02753 0.0
C4098 C 0.76594 0.2636 1.02656 0.0
C4099 C 0.73344 0.25247 0.04238 0.0
C4100 C 0.80323 0.2554 0.04228 0.0
C4101 C 0.82359 0.27335 1.01008 0.0
N4102 N 0.75478 0.25392 0.04156 0.0
N4103 N 0.80218 0.27268 1.01107 0.0
H4104 H 0.29439 0.07291 0.47451 0.0
H4105 H 0.26051 1.00968 0.57911 0.0
H4106 H 0.26475 1.01482 0.47074 0.0
H4107 H 0.29166 0.06707 0.58162 0.0
H4108 H 0.26212 1.01062 0.54152 0.0
H4109 H 0.29384 0.07067 0.5119 0.0
C4110 C 0.2883 0.05913 0.48108 0.0
C4111 C 0.28089 0.04361 0.46743 0.0
C4112 C 0.26872 1.02319 0.54997 0.0
C4113 C 0.27925 0.04105 0.51391 0.0
C4114 C 0.26772 1.02268 0.5722 0.0
C4115 C 0.27585 0.03816 0.58545 0.0
C4116 C 0.27797 0.0396 0.53897 0.0
C4117 C 0.2851 0.05425 0.57353 0.0
C4118 C 0.2878 0.05796 0.50324 0.0
C4119 C 0.27217 0.02699 0.47904 0.0
N4120 N 0.28575 0.05446 0.552 0.0
N4121 N 0.27177 0.02624 0.50061 0.0
H4122 H 0.25676 0.05274 0.72066 0.0
H4123 H 0.28108 0.99017 0.82787 0.0
H4124 H 0.28008 0.99173 0.72164 0.0
H4125 H 0.26009 0.05206 0.82867 0.0
H4126 H 0.28107 0.99101 0.79032 0.0
H4127 H 0.25823 0.05347 0.75818 0.0
C4128 C 0.26281 0.03949 0.72823 0.0
C4129 C 0.26927 1.02245 0.71615 0.0
C4130 C 0.27652 1.00462 0.79841 0.0
C4131 C 0.27002 1.02285 0.76226 0.0
C4132 C 0.27666 1.00422 0.82052 0.0
C4133 C 0.27099 1.02114 0.83307 0.0
C4134 C 0.27047 1.02213 0.78707 0.0
C4135 C 0.26493 0.03838 0.8209 0.0
C4136 C 0.26339 0.03988 0.75043 0.0
C4137 C 0.27556 1.00578 0.72895 0.0
N4138 N 0.26487 0.03834 0.79943 0.0
N4139 N 0.27584 1.00649 0.75033 0.0
H4140 H 0.26536 0.98261 0.08118 0.0
H4141 H 0.29036 0.03752 0.969 0.0
H4142 H 0.29346 0.04163 0.07737 0.0
H4143 H 0.26096 0.97937 0.97472 0.0
H4144 H 0.29113 0.0402 1.00677 0.0
H4145 H 0.26322 0.98178 0.04346 0.0
C4146 C 0.27117 0.99562 0.07281 0.0
C4147 C 0.27999 1.01216 0.08414 0.0
C4148 C 0.28404 0.02691 0.99997 0.0
C4149 C 0.27748 1.01124 0.038 0.0
C4150 C 0.28308 1.0256 0.9777 0.0
C4151 C 0.27406 1.0088 0.96691 0.0
C4152 C 0.27649 1.01106 1.01308 0.0
C4153 C 0.26717 0.99332 0.98098 0.0
C4154 C 0.26999 0.99505 0.05062 0.0
C4155 C 0.28707 0.02804 0.07065 0.0
N4156 N 0.2684 0.99487 1.00226 0.0
N4157 N 0.28568 0.02715 0.04926 0.0
H4158 H 0.31656 1.00009 0.22414 0.0
H4159 H 0.26089 0.04949 0.32647 0.0
H4160 H 0.27112 0.04651 0.21865 0.0
H4161 H 0.31165 1.00871 0.33086 0.0
H4162 H 0.26287 0.04761 0.28899 0.0
H4163 H 0.31355 1.00166 0.26149 0.0
C4164 C 0.30562 1.01058 0.23034 0.0
C4165 C 0.29387 1.02264 0.21635 0.0
C4166 C 0.27375 0.03896 0.29787 0.0
C4167 C 0.29026 1.02499 0.26254 0.0
C4168 C 0.27273 0.04017 0.32006 0.0
C4169 C 0.2862 0.0296 0.33374 0.0
C4170 C 0.28841 0.02676 0.28745 0.0
C4171 C 0.30054 1.01744 0.32237 0.0
C4172 C 0.3039 1.0115 0.25243 0.0
C4173 C 0.28036 0.03601 0.22737 0.0
N4174 N 0.30114 1.01647 0.3009 0.0
N4175 N 0.27899 0.03663 0.24886 0.0
H4176 H 0.47559 0.27289 0.07159 0.0
H4177 H 0.58308 0.27142 1.00588 0.0
H4178 H 0.47646 0.2908 1.00877 0.0
H4179 H 0.58428 0.28493 0.06974 0.0
H4180 H 0.54533 0.27324 1.00649 0.0
H4181 H 0.51346 0.27194 0.07136 0.0
C4182 C 0.48333 0.27653 0.05751 0.0
C4183 C 0.47115 0.28206 0.04019 0.0
C4184 C 0.55359 0.27589 1.02053 0.0
C4185 C 0.51739 0.28049 0.03969 0.0
C4186 C 0.57578 0.27482 1.02022 0.0
C4187 C 0.58852 0.27824 0.03768 0.0
C4188 C 0.54232 0.27976 0.0387 0.0
C4189 C 0.5764 0.28245 0.05547 0.0
C4190 C 0.5056 0.27606 0.05745 0.0
C4191 C 0.48385 0.28654 1.02286 0.0
N4192 N 0.55488 0.28279 0.05547 0.0
N4193 N 0.5053 0.28542 1.02307 0.0
H4194 H 0.97113 0.30027 0.02898 0.0
H4195 H 0.08411 0.25137 0.99695 0.0
H4196 H 0.97742 0.24556 0.9939 0.0
H4197 H 0.07928 0.30693 0.03107 0.0
H4198 H 0.04631 0.2488 0.99659 0.0
H4199 H 1.009 0.30251 0.03135 0.0
C4200 C 0.98006 0.28829 1.02206 0.0
C4201 C 0.96948 0.27217 1.01166 0.0
C4202 C 0.05329 0.26161 1.00434 0.0
C4203 C 1.01554 0.2753 1.01366 0.0
C4204 C 0.0755 0.26312 1.0046 0.0
C4205 C 0.08651 0.27934 1.01434 0.0
C4206 C 0.04042 0.2764 1.01383 0.0
C4207 C 0.07277 0.29377 1.02354 0.0
C4208 C 1.00231 0.28978 1.02322 0.0
C4209 C 0.9836 0.2582 1.00245 0.0
N4210 N 0.05139 0.29196 1.02304 0.0
N4211 N 1.00489 0.26002 1.00373 0.0
H4212 H 0.99381 0.71858 0.26793 0.0
H4213 H 0.05744 0.82876 0.26901 0.0
H4214 H 0.05913 0.72198 0.2655 0.0
H4215 H 0.9922 0.82564 0.27325 0.0
H4216 H 0.05834 0.7909 0.26729 0.0
H4217 H 0.99271 0.7565 0.26923 0.0
C4218 C 1.00808 0.72693 0.26772 0.0
C4219 C 1.02668 0.71567 0.267 0.0
C4220 C 0.0437 0.79831 0.26876 0.0
C4221 C 1.02548 0.76142 0.2685 0.0
C4222 C 0.04316 0.82047 0.26977 0.0
C4223 C 1.0247 0.83179 0.27189 0.0
C4224 C 1.02563 0.78606 0.26955 0.0
C4225 C 1.00707 0.81869 0.27238 0.0
C4226 C 1.00742 0.74911 0.26854 0.0
C4227 C 0.04424 0.72885 0.26668 0.0
N4228 N 1.00801 0.79739 0.27128 0.0
N4229 N 0.04318 0.75016 0.26743 0.0
H4230 H 0.57863 0.75609 0.49384 0.0
H4231 H 0.46547 0.7905 0.53932 0.0
H4232 H 0.57335 0.79048 0.54913 0.0
H4233 H 0.47287 0.755 0.48536 0.0
H4234 H 0.50302 0.79026 0.54419 0.0
H4235 H 0.54093 0.755 0.49141 0.0
C4236 C 0.56992 0.76341 0.50573 0.0
C4237 C 0.58079 0.77351 0.52178 0.0
C4238 C 0.49659 0.78186 0.53151 0.0
C4239 C 0.53485 0.7724 0.51882 0.0
C4240 C 0.47442 0.78142 0.52907 0.0
C4241 C 0.46416 0.77067 0.51303 0.0
C4242 C 0.51009 0.77218 0.51742 0.0
C4243 C 0.47865 0.76201 0.49907 0.0
C4244 C 0.54779 0.76286 0.50421 0.0
C4245 C 0.56699 0.78268 0.53612 0.0
N4246 N 0.49984 0.76279 0.50161 0.0
N4247 N 0.54563 0.78189 0.53431 0.0
H4248 H 0.96773 0.74906 0.54479 0.0
H4249 H 0.08077 0.80785 0.53773 0.0
H4250 H 0.97277 0.81377 0.53657 0.0
H4251 H 0.07495 0.74284 0.53343 0.0
H4252 H 0.04298 0.8104 0.53929 0.0
H4253 H 1.0055 0.74657 0.54286 0.0
C4254 C 0.97638 0.76296 0.54251 0.0
C4255 C 0.96537 0.78174 0.54053 0.0
C4256 C 0.04971 0.79543 0.53786 0.0
C4257 C 1.01157 0.77886 0.5385 0.0
C4258 C 0.07194 0.79389 0.53692 0.0
C4259 C 0.08272 0.775 0.53481 0.0
C4260 C 0.03653 0.77795 0.53724 0.0
C4261 C 0.06866 0.75801 0.53428 0.0
C4262 C 0.9986 0.76146 0.54135 0.0
C4263 C 0.97921 0.79868 0.53775 0.0
N4264 N 0.0473 0.75989 0.53554 0.0
N4265 N 1.0006 0.79683 0.53695 0.0
H4266 H 1.01794 0.22307 0.32502 0.0
H4267 H 0.03814 0.3273 0.25577 0.0
H4268 H 0.03464 0.21815 0.26226 0.0
H4269 H 1.01987 0.3291 0.31833 0.0
H4270 H 0.03711 0.28948 0.25698 0.0
H4271 H 1.01894 0.26035 0.32224 0.0
C4272 C 1.0211 0.22941 0.31014 0.0
C4273 C 1.02412 0.21551 0.29347 0.0
C4274 C 0.0333 0.29787 0.27062 0.0
C4275 C 1.02673 0.26181 0.29029 0.0
C4276 C 0.03408 0.32015 0.27001 0.0
C4277 C 0.02936 0.33312 0.28696 0.0
C4278 C 0.02772 0.28677 0.28852 0.0
C4279 C 1.02361 0.32111 0.30444 0.0
C4280 C 1.0219 0.25148 0.30869 0.0
C4281 C 0.03011 0.22673 0.27551 0.0
N4282 N 1.0231 0.29961 0.30465 0.0
N4283 N 0.03089 0.24832 0.27446 0.0
H4284 H 0.49838 0.83245 0.79352 0.0
H4285 H 0.55869 0.72126 0.77902 0.0
H4286 H 0.56209 0.8293 0.77958 0.0
H4287 H 0.49542 0.72471 0.79465 0.0
H4288 H 0.55992 0.75908 0.77747 0.0
H4289 H 0.49679 0.7946 0.79309 0.0
C4290 C 0.51223 0.82421 0.79011 0.0
C4291 C 0.53041 0.83582 0.7861 0.0
C4292 C 0.54551 0.7518 0.78097 0.0
C4293 C 0.52861 0.78942 0.78571 0.0
C4294 C 0.54465 0.7295 0.78155 0.0
C4295 C 0.52662 0.71785 0.78609 0.0
C4296 C 0.52827 0.76436 0.78543 0.0
C4297 C 0.50985 0.73141 0.79049 0.0
C4298 C 0.51125 0.80192 0.7899 0.0
C4299 C 0.54736 0.82242 0.7822 0.0
N4300 N 0.51108 0.75287 0.7899 0.0
N4301 N 0.54601 0.80095 0.78209 0.0
H4302 H 0.98187 0.47131 0.77981 0.0
H4303 H 0.04365 0.58172 0.78473 0.0
H4304 H 0.0468 0.47035 0.77301 0.0
H4305 H 0.98098 0.57479 0.76767 0.0
H4306 H 0.04688 0.54376 0.7848 0.0
H4307 H 0.98271 0.50861 0.77998 0.0
C4308 C 0.99671 0.47853 0.77915 0.0
C4309 C 1.01438 0.46573 0.77785 0.0
C4310 C 0.03238 0.55038 0.78057 0.0
C4311 C 1.01544 0.51206 0.77727 0.0
C4312 C 0.03057 0.57275 0.78015 0.0
C4313 C 1.01224 0.58331 0.77442 0.0
C4314 C 1.01547 0.53702 0.77637 0.0
C4315 C 0.99594 0.56891 0.77087 0.0
C4316 C 0.99707 0.5006 0.77897 0.0
C4317 C 0.03256 0.47805 0.77568 0.0
N4318 N 0.99792 0.54767 0.77189 0.0
N4319 N 0.03256 0.49967 0.77569 0.0
H4320 H 0.22534 0.23111 0.51383 0.0
H4321 H 0.33291 0.29618 0.53091 0.0
H4322 H 0.22192 0.29216 0.53656 0.0
H4323 H 0.32958 0.23215 0.51917 0.0
H4324 H 0.29513 0.29735 0.53196 0.0
H4325 H 0.26259 0.23331 0.51395 0.0
C4326 C 0.23199 0.24545 0.51831 0.0
C4327 C 0.2185 0.26164 0.52401 0.0
C4328 C 0.30247 0.2828 0.52952 0.0
C4329 C 0.26489 0.2643 0.52509 0.0
C4330 C 0.3249 0.28207 0.52944 0.0
C4331 C 0.33657 0.2638 0.52643 0.0
C4332 C 0.28994 0.26516 0.52585 0.0
C4333 C 0.32292 0.24685 0.52246 0.0
C4334 C 0.25407 0.24661 0.51861 0.0
C4335 C 0.23019 0.27916 0.53079 0.0
N4336 N 0.30155 0.24797 0.52238 0.0
N4337 N 0.25183 0.27995 0.53093 0.0
H4338 H 0.56321 0.47029 0.29058 0.0
H4339 H 0.50975 0.5824 0.26336 0.0
H4340 H 0.50342 0.47355 0.26415 0.0
H4341 H 0.56867 0.57609 0.29058 0.0
H4342 H 0.50593 0.54461 0.26422 0.0
H4343 H 0.56451 0.50804 0.29138 0.0
C4344 C 0.55009 0.47856 0.28498 0.0
C4345 C 0.53315 0.4671 0.27716 0.0
C4346 C 0.51962 0.55134 0.27058 0.0
C4347 C 0.53469 0.51323 0.27795 0.0
C4348 C 0.52162 0.57362 0.27061 0.0
C4349 C 0.539 0.58429 0.27866 0.0
C4350 C 0.53537 0.53812 0.27803 0.0
C4351 C 0.55429 0.57006 0.28545 0.0
C4352 C 0.55094 0.50076 0.28535 0.0
C4353 C 0.5172 0.48042 0.27007 0.0
N4354 N 0.55211 0.5488 0.28509 0.0
N4355 N 0.51838 0.50187 0.27065 0.0
H4356 H 0.32654 0.80453 0.99446 0.0
H4357 H 0.22183 0.76867 0.05488 0.0
H4358 H 0.32926 0.77532 0.05272 0.0
H4359 H 0.21952 0.80267 0.9994 0.0
H4360 H 0.25939 0.76914 0.05363 0.0
H4361 H 0.28914 0.80277 0.99536 0.0
C4362 C 0.3197 0.79767 1.00765 0.0
C4363 C 0.33287 0.79006 1.02336 0.0
C4364 C 0.25098 0.77651 0.0415 0.0
C4365 C 0.28676 0.78757 1.02453 0.0
C4366 C 0.22884 0.77603 0.04212 0.0
C4367 C 0.21579 0.78503 1.02713 0.0
C4368 C 0.26192 0.78645 1.02564 0.0
C4369 C 0.22761 0.79493 1.0115 0.0
C4370 C 0.29761 0.7965 1.00805 0.0
C4371 C 0.32113 0.78113 0.03961 0.0
N4372 N 0.24913 0.79528 1.01126 0.0
N4373 N 0.29962 0.78014 0.03963 0.0
H4374 H 0.80748 0.03291 0.47646 0.0
H4375 H 0.75519 0.98171 0.58002 0.0
H4376 H 0.76106 0.98706 0.47256 0.0
H4377 H 0.80139 0.02786 0.5842 0.0
H4378 H 0.75668 0.9838 0.54256 0.0
H4379 H 0.80522 0.03191 0.51393 0.0
C4380 C 0.79672 1.02247 0.48301 0.0
C4381 C 0.78463 1.01023 0.4694 0.0
C4382 C 0.76647 0.99381 0.55134 0.0
C4383 C 0.78169 1.00867 0.51581 0.0
C4384 C 0.7656 0.99264 0.5735 0.0
C4385 C 0.77759 1.00494 0.58719 0.0
C4386 C 0.77991 1.00734 0.54082 0.0
C4387 C 0.79093 1.01825 0.57575 0.0
C4388 C 0.79537 1.0219 0.5052 0.0
C4389 C 0.77099 0.99728 0.48094 0.0
N4390 N 0.79156 1.01903 0.55422 0.0
N4391 N 0.77007 0.9969 0.50247 0.0
H4392 H 0.81304 0.98957 0.32979 0.0
H4393 H 0.7784 0.05203 0.22575 0.0
H4394 H 0.78274 0.0473 0.33247 0.0
H4395 H 0.80531 0.99278 0.22234 0.0
H4396 H 0.77952 0.05033 0.26313 0.0
H4397 H 0.81041 0.99019 0.29235 0.0
C4398 C 0.80565 1.00252 0.32292 0.0
C4399 C 0.79787 1.01814 0.33606 0.0
C4400 C 0.78515 0.03745 0.25453 0.0
C4401 C 0.79486 1.0192 0.29001 0.0
C4402 C 0.78425 0.03832 0.23247 0.0
C4403 C 0.79106 1.02246 0.21912 0.0
C4404 C 0.79338 1.02046 0.26519 0.0
C4405 C 0.79936 1.0057 0.23064 0.0
C4406 C 0.80408 1.0028 0.30083 0.0
C4407 C 0.78864 0.03425 0.32435 0.0
N4408 N 0.80021 1.00527 0.25214 0.0
N4409 N 0.78748 0.03425 0.3029 0.0
H4410 H 0.80087 0.05753 0.97448 0.0
H4411 H 0.75211 1.01626 0.08461 0.0
H4412 H 0.74632 1.02154 0.97649 0.0
H4413 H 0.79781 0.06289 0.08091 0.0
H4414 H 0.75154 1.01489 0.04668 0.0
H4415 H 0.80187 0.0571 1.01229 0.0
C4416 C 0.78904 0.0492 0.98244 0.0
C4417 C 0.77357 0.03918 0.97061 0.0
C4418 C 0.76205 1.02532 0.05402 0.0
C4419 C 0.77472 0.03854 1.01672 0.0
C4420 C 0.76258 1.02597 0.07631 0.0
C4421 C 0.7758 0.03922 0.08773 0.0
C4422 C 0.77474 0.03811 0.04157 0.0
C4423 C 0.78781 0.05177 0.07428 0.0
C4424 C 0.78963 0.04901 1.00467 0.0
C4425 C 0.75896 0.02917 0.9836 0.0
N4426 N 0.78715 0.05076 0.05298 0.0
N4427 N 0.75996 0.02904 1.00498 0.0
H4428 H 0.7951 1.00703 0.72675 0.0
H4429 H 0.73519 0.04864 0.82995 0.0
H4430 H 0.73897 0.04018 0.72365 0.0
H4431 H 0.78974 1.0134 0.8353 0.0
H4432 H 0.73732 0.0465 0.79274 0.0
H4433 H 0.79435 1.00955 0.76425 0.0
C4434 C 0.78227 1.01469 0.73349 0.0
C4435 C 0.76695 1.02295 0.72013 0.0
C4436 C 0.74921 0.03938 0.80168 0.0
C4437 C 0.76619 0.0266 0.76648 0.0
C4438 C 0.7481 0.04074 0.82374 0.0
C4439 C 0.76255 0.03209 0.83775 0.0
C4440 C 0.76505 0.02876 0.79145 0.0
C4441 C 0.77828 1.02147 0.82663 0.0
C4442 C 0.782 1.01634 0.75568 0.0
C4443 C 0.75153 0.03331 0.73184 0.0
N4444 N 0.779 1.02029 0.80507 0.0
N4445 N 0.75162 0.03465 0.75333 0.0
H4446 H 0.47159 0.80891 1.01921 0.0
H4447 H 0.57663 0.73876 1.02087 0.0
H4448 H 0.46867 0.74376 1.01452 0.0
H4449 H 0.5787 0.80315 1.00956 0.0
H4450 H 0.53893 0.74021 1.02133 0.0
H4451 H 0.50918 0.80723 1.01854 0.0
C4452 C 0.47847 0.79402 1.01839 0.0
C4453 C 0.46523 0.77657 1.01731 0.0
C4454 C 0.54734 0.75422 1.01882 0.0
C4455 C 0.51143 0.77433 1.01632 0.0
C4456 C 0.56953 0.75345 1.01872 0.0
C4457 C 0.58252 0.77083 1.0155 0.0
C4458 C 0.53633 0.77273 1.01591 0.0
C4459 C 0.57064 0.78899 1.01226 0.0
C4460 C 0.50062 0.7931 1.01777 0.0
C4461 C 0.4769 0.75806 1.01557 0.0
N4462 N 0.54913 0.78936 1.01275 0.0
N4463 N 0.49843 0.75755 1.01532 0.0
H4464 H 0.97215 0.76081 1.00775 0.0
H4465 H 0.07696 0.79923 0.06619 0.0
H4466 H 0.97109 0.79069 0.06579 0.0
H4467 H 0.08022 0.75588 1.01765 0.0
H4468 H 0.03968 0.79863 0.06405 0.0
H4469 H 1.00979 0.76106 1.00876 0.0
C4470 C 0.97941 0.76727 1.02101 0.0
C4471 C 0.96678 0.7753 0.03687 0.0
C4472 C 0.04824 0.78944 0.05341 0.0
C4473 C 1.0128 0.77642 0.03782 0.0
C4474 C 0.07026 0.78988 0.05453 0.0
C4475 C 0.08355 0.77854 0.04153 0.0
C4476 C 0.03757 0.77729 0.03903 0.0
C4477 C 0.072 0.76613 1.02752 0.0
C4478 C 1.00158 0.76759 1.02144 0.0
C4479 C 0.9789 0.78419 0.05286 0.0
N4480 N 0.05048 0.76608 1.0266 0.0
N4481 N 1.00035 0.78448 0.05281 0.0
H4482 H 0.99777 0.22124 0.78808 0.0
H4483 H 0.06035 0.33186 0.79461 0.0
H4484 H 0.06296 0.22445 0.78296 0.0
H4485 H 0.99566 0.32838 0.78531 0.0
H4486 H 0.0618 0.29394 0.79308 0.0
H4487 H 0.99675 0.25909 0.78942 0.0
C4488 C 1.01204 0.22953 0.78716 0.0
C4489 C 0.0305 0.21814 0.78512 0.0
C4490 C 0.04715 0.30128 0.79127 0.0
C4491 C 0.02943 0.26409 0.78717 0.0
C4492 C 0.04627 0.32351 0.79222 0.0
C4493 C 0.02781 0.33484 0.78974 0.0
C4494 C 0.02939 0.28887 0.78821 0.0
C4495 C 1.01054 0.32155 0.78679 0.0
C4496 C 1.01142 0.25173 0.78797 0.0
C4497 C 0.04808 0.23136 0.78428 0.0
N4498 N 1.01176 0.3002 0.78625 0.0
N4499 N 0.04707 0.25273 0.78538 0.0
H4500 H 0.4734 0.31002 0.54041 0.0
H4501 H 0.58355 0.24996 0.52261 0.0
H4502 H 0.4764 0.24659 0.52532 0.0
H4503 H 0.58011 0.30732 0.55372 0.0
H4504 H 0.54577 0.25 0.51931 0.0
H4505 H 0.51129 0.31091 0.54191 0.0
C4506 C 0.48163 0.29617 0.53697 0.0
C4507 C 0.47017 0.27826 0.53181 0.0
C4508 C 0.55312 0.2629 0.52658 0.0
C4509 C 0.51607 0.27922 0.53364 0.0
C4510 C 0.57527 0.26304 0.52825 0.0
C4511 C 0.58656 0.27915 0.53776 0.0
C4512 C 0.54077 0.27896 0.53452 0.0
C4513 C 0.57331 0.2947 0.54559 0.0
C4514 C 0.50383 0.29671 0.53791 0.0
C4515 C 0.48332 0.26116 0.52819 0.0
N4516 N 0.55203 0.29429 0.54363 0.0
N4517 N 0.50465 0.26211 0.529 0.0
H4518 H 0.97364 0.28469 0.54665 0.0
H4519 H 0.08121 0.27488 0.48002 0.0
H4520 H 0.97194 0.26769 0.48377 0.0
H4521 H 0.08086 0.26992 0.54504 0.0
H4522 H 0.0433 0.27599 0.48035 0.0
H4523 H 1.01132 0.28311 0.54593 0.0
C4524 C 0.98075 0.28072 0.53246 0.0
C4525 C 0.96771 0.27638 0.51537 0.0
C4526 C 0.05124 0.27468 0.49474 0.0
C4527 C 1.0143 0.27465 0.51416 0.0
C4528 C 0.07361 0.27415 0.49461 0.0
C4529 C 0.08608 0.27213 0.51255 0.0
C4530 C 0.03946 0.27375 0.51309 0.0
C4531 C 0.07337 0.27112 0.53046 0.0
C4532 C 1.00303 0.27967 0.53208 0.0
C4533 C 0.97988 0.27108 0.49783 0.0
N4534 N 0.05184 0.27213 0.5302 0.0
N4535 N 1.00147 0.27062 0.49774 0.0
H4536 H 0.05761 0.71891 0.75582 0.0
H4537 H 1.00093 0.83098 0.77789 0.0
H4538 H 0.99577 0.72321 0.77598 0.0
H4539 H 0.06161 0.82697 0.75429 0.0
H4540 H 0.99951 0.79312 0.77946 0.0
H4541 H 0.05994 0.75679 0.75639 0.0
C4542 C 0.04435 0.72738 0.76068 0.0
C4543 C 1.02646 0.71608 0.76647 0.0
C4544 C 1.01344 0.80027 0.77421 0.0
C4545 C 0.02915 0.76248 0.76705 0.0
C4546 C 1.01444 0.82259 0.77363 0.0
C4547 C 0.03187 0.83401 0.76679 0.0
C4548 C 0.02985 0.78755 0.76753 0.0
C4549 C 0.04785 0.82034 0.76041 0.0
C4550 C 0.04575 0.74969 0.76098 0.0
C4551 C 1.01029 0.7298 0.77212 0.0
N4552 N 0.04648 0.79889 0.76103 0.0
N4553 N 1.01202 0.75123 0.77229 0.0
H4554 H 0.49314 0.33112 0.2681 0.0
H4555 H 0.55479 0.22051 0.2561 0.0
H4556 H 0.55783 0.32945 0.25941 0.0
H4557 H 0.49136 0.22391 0.27119 0.0
H4558 H 0.55656 0.25843 0.25681 0.0
H4559 H 0.49259 0.29339 0.26944 0.0
C4560 C 0.50758 0.32324 0.26714 0.0
C4561 C 0.52571 0.33537 0.26477 0.0
C4562 C 0.54212 0.25114 0.26015 0.0
C4563 C 0.52501 0.28883 0.26505 0.0
C4564 C 0.54103 0.2288 0.25973 0.0
C4565 C 0.52286 0.21722 0.26401 0.0
C4566 C 0.52486 0.26371 0.26463 0.0
C4567 C 0.50607 0.23071 0.26831 0.0
C4568 C 0.50716 0.30098 0.26761 0.0
C4569 C 0.54326 0.32231 0.26233 0.0
N4570 N 0.5075 0.25218 0.26843 0.0
N4571 N 0.54241 0.30075 0.26256 0.0
H4572 H 0.52526 0.08327 0.80914 0.0
H4573 H 0.53316 0.97234 0.74834 0.0
H4574 H 0.54583 0.0804 0.74739 0.0
H4575 H 0.54313 0.97612 0.81269 0.0
H4576 H 0.53073 1.01012 0.74702 0.0
H4577 H 0.52473 0.04544 0.81022 0.0
C4578 C 0.5289 0.07512 0.79531 0.0
C4579 C 0.53425 0.0869 0.77765 0.0
C4580 C 0.53298 1.0029 0.76167 0.0
C4581 C 0.53439 0.04048 0.77907 0.0
C4582 C 0.53408 0.98066 0.76254 0.0
C4583 C 0.53722 0.9692 0.7809 0.0
C4584 C 0.53502 1.0155 0.77934 0.0
C4585 C 0.53967 0.98278 0.79805 0.0
C4586 C 0.52889 0.05285 0.7961 0.0
C4587 C 0.54031 0.07355 0.76126 0.0
N4588 N 0.53818 1.00418 0.79687 0.0
N4589 N 0.53978 0.05208 0.76227 0.0
H4590 H 0.22314 0.26218 1.02523 0.0
H4591 H 0.33078 0.32728 0.0423 0.0
H4592 H 0.22651 0.32697 0.031 0.0
H4593 H 0.33426 0.26617 1.01996 0.0
H4594 H 0.29346 0.32545 0.04077 0.0
H4595 H 0.26099 0.26084 1.02534 0.0
C4596 C 0.23123 0.27638 1.02529 0.0
C4597 C 0.21959 0.29493 1.02597 0.0
C4598 C 0.30202 0.31198 0.03667 0.0
C4599 C 0.26619 0.29347 0.02848 0.0
C4600 C 0.32413 0.31293 0.03779 0.0
C4601 C 0.33766 0.29651 0.03283 0.0
C4602 C 0.29123 0.29424 0.03019 0.0
C4603 C 0.32599 0.27907 1.02583 0.0
C4604 C 0.25367 0.27559 1.02604 0.0
C4605 C 0.2332 0.31211 0.02891 0.0
N4606 N 0.30437 0.27844 1.02501 0.0
N4607 N 0.25455 0.31093 0.02997 0.0
H4608 H 0.04353 0.07647 0.29169 0.0
H4609 H 0.97932 0.97054 0.26378 0.0
H4610 H 0.98401 0.07763 0.26478 0.0
H4611 H 0.0385 0.96829 0.29122 0.0
H4612 H 0.98132 1.00807 0.26331 0.0
H4613 H 0.04266 0.03875 0.29115 0.0
C4614 C 0.02995 0.0692 0.28594 0.0
C4615 C 1.01374 0.08197 0.27875 0.0
C4616 C 0.99433 0.99968 0.26898 0.0
C4617 C 1.0127 0.03565 0.27741 0.0
C4618 C 0.99337 0.97752 0.26899 0.0
C4619 C 1.00944 0.96434 0.27588 0.0
C4620 C 1.01147 1.01068 0.27664 0.0
C4621 C 1.02617 0.97625 0.28387 0.0
C4622 C 0.02958 0.04696 0.28536 0.0
C4623 C 0.99727 0.06978 0.27063 0.0
N4624 N 1.02668 0.99782 0.28387 0.0
N4625 N 0.99725 0.04826 0.27033 0.0
H4626 H 0.32471 0.77849 0.49232 0.0
H4627 H 0.2206 0.75265 0.55999 0.0
H4628 H 0.32789 0.76223 0.55552 0.0
H4629 H 0.21756 0.77168 0.49762 0.0
H4630 H 0.25816 0.75657 0.55902 0.0
H4631 H 0.28703 0.7767 0.49409 0.0
C4632 C 0.31787 0.77474 0.50682 0.0
C4633 C 0.33112 0.77096 0.52381 0.0
C4634 C 0.24953 0.76025 0.54546 0.0
C4635 C 0.28504 0.76827 0.52597 0.0
C4636 C 0.2274 0.75813 0.54604 0.0
C4637 C 0.21421 0.76247 0.52915 0.0
C4638 C 0.26022 0.76647 0.52756 0.0
C4639 C 0.22579 0.76871 0.5116 0.0
C4640 C 0.2957 0.77358 0.50778 0.0
C4641 C 0.31958 0.76569 0.54171 0.0
N4642 N 0.2472 0.77046 0.51138 0.0
N4643 N 0.29811 0.76456 0.54219 0.0
H4644 H 0.78173 0.57726 0.97206 0.0
H4645 H 0.77997 0.51356 0.08065 0.0
H4646 H 0.76786 0.51363 0.96947 0.0
H4647 H 0.76866 0.57747 0.07559 0.0
H4648 H 0.77939 0.51105 0.04278 0.0
H4649 H 0.781 0.57597 1.00914 0.0
C4650 C 0.77955 0.5625 0.9788 0.0
C4651 C 0.777 0.54525 0.96557 0.0
C4652 C 0.77642 0.52569 0.04975 0.0
C4653 C 0.77494 0.54363 1.01189 0.0
C4654 C 0.77616 0.52703 0.07211 0.0
C4655 C 0.77215 0.54548 0.0832 0.0
C4656 C 0.77385 0.54319 0.03684 0.0
C4657 C 0.77026 0.56239 0.06926 0.0
C4658 C 0.77873 0.56188 1.00084 0.0
C4659 C 0.77202 0.52736 0.97751 0.0
N4660 N 0.77111 0.56083 0.04798 0.0
N4661 N 0.77158 0.52702 0.99909 0.0
H4662 H 0.7649 0.56345 0.22272 0.0
H4663 H 0.76634 0.49249 0.32753 0.0
H4664 H 0.76071 0.4982 0.22044 0.0
H4665 H 0.76387 0.55777 0.33006 0.0
H4666 H 0.7656 0.49419 0.28994 0.0
H4667 H 0.76579 0.56178 0.26032 0.0
C4668 C 0.76449 0.54855 0.22976 0.0
C4669 C 0.76319 0.53101 0.21678 0.0
C4670 C 0.76531 0.50834 0.29842 0.0
C4671 C 0.76381 0.52884 0.26279 0.0
C4672 C 0.76598 0.50739 0.32053 0.0
C4673 C 0.76567 0.52491 0.33357 0.0
C4674 C 0.76433 0.52716 0.28758 0.0
C4675 C 0.76432 0.54346 0.3219 0.0
C4676 C 0.76478 0.54764 0.25188 0.0
C4677 C 0.76189 0.51251 0.22854 0.0
N4678 N 0.76386 0.54397 0.30044 0.0
N4679 N 0.76236 0.51204 0.25 0.0
H4680 H 0.7974 0.54487 0.57659 0.0
H4681 H 0.75923 0.48466 0.47264 0.0
H4682 H 0.76379 0.48872 0.57849 0.0
H4683 H 0.8007 0.53485 0.46873 0.0
H4684 H 0.75908 0.48754 0.50975 0.0
H4685 H 0.79744 0.54326 0.53902 0.0
C4686 C 0.79022 0.53188 0.56954 0.0
C4687 C 0.78104 0.51677 0.58242 0.0
C4688 C 0.76791 0.49848 0.50108 0.0
C4689 C 0.78026 0.51506 0.53638 0.0
C4690 C 0.76774 0.49702 0.47909 0.0
C4691 C 0.77851 0.51039 0.46558 0.0
C4692 C 0.77955 0.51345 0.51161 0.0
C4693 C 0.79056 0.52484 0.47703 0.0
C4694 C 0.79003 0.5311 0.54739 0.0
C4695 C 0.77125 0.50109 0.57051 0.0
N4696 N 0.79051 0.52602 0.49851 0.0
N4697 N 0.77118 0.50076 0.54907 0.0
H4698 H 0.8003 0.49419 0.83013 0.0
H4699 H 0.78505 0.55459 0.71896 0.0
H4700 H 0.78618 0.55776 0.82555 0.0
H4701 H 0.80121 0.49138 0.72123 0.0
H4702 H 0.78386 0.55517 0.75663 0.0
H4703 H 0.80003 0.49208 0.79225 0.0
C4704 C 0.79698 0.50791 0.82159 0.0
C4705 C 0.79274 0.52626 0.83275 0.0
C4706 C 0.78734 0.54089 0.74919 0.0
C4707 C 0.79242 0.5238 0.78646 0.0
C4708 C 0.78773 0.54042 0.72698 0.0
C4709 C 0.79221 0.52263 0.71511 0.0
C4710 C 0.79196 0.52348 0.76145 0.0
C4711 C 0.79674 0.50556 0.72827 0.0
C4712 C 0.79678 0.50662 0.79929 0.0
C4713 C 0.78883 0.54294 0.819 0.0
N4714 N 0.79639 0.50643 0.74975 0.0
N4715 N 0.78875 0.5413 0.79764 0.0
H4716 H 0.53651 0.33154 0.73982 0.0
H4717 H 0.52225 0.22108 0.79896 0.0
H4718 H 0.50707 0.32807 0.79794 0.0
H4719 H 0.52389 0.22385 0.73375 0.0
H4720 H 0.52128 0.25887 0.80009 0.0
H4721 H 0.53672 0.29369 0.73835 0.0
C4722 C 0.53024 0.32318 0.75257 0.0
C4723 C 0.52188 0.33454 0.76919 0.0
C4724 C 0.52188 0.25146 0.78539 0.0
C4725 C 0.52237 0.28855 0.76763 0.0
C4726 C 0.52254 0.2293 0.78468 0.0
C4727 C 0.52322 0.21778 0.7662 0.0
C4728 C 0.52248 0.26374 0.76745 0.0
C4729 C 0.52329 0.23087 0.74863 0.0
C4730 C 0.53027 0.30099 0.75161 0.0
C4731 C 0.51383 0.32124 0.78465 0.0
N4732 N 0.52319 0.2523 0.74974 0.0
N4733 N 0.51455 0.29984 0.78359 0.0
H4734 H 0.51055 0.97147 0.31045 0.0
H4735 H 0.50151 0.07733 0.24324 0.0
H4736 H 0.51689 0.97029 0.24561 0.0
H4737 H 0.52412 0.07998 0.30441 0.0
H4738 H 0.50396 0.03974 0.24424 0.0
H4739 H 0.51258 1.00918 0.30955 0.0
C4740 C 0.51323 0.97863 0.29589 0.0
C4741 C 0.51526 0.96577 0.27827 0.0
C4742 C 0.50883 0.04826 0.25751 0.0
C4743 C 0.51553 1.01228 0.27681 0.0
C4744 C 0.50767 0.07047 0.25688 0.0
C4745 C 0.51392 0.08375 0.27319 0.0
C4746 C 0.51518 0.03731 0.27521 0.0
C4747 C 0.52016 0.07185 0.29062 0.0
C4748 C 0.51402 1.00094 0.29537 0.0
C4749 C 0.51655 0.97811 0.2601 0.0
N4750 N 0.52049 0.05029 0.29109 0.0
N4751 N 0.5166 0.99963 0.25994 0.0
H4752 H 0.82789 0.7261 1.02625 0.0
H4753 H 0.71859 0.78919 0.03438 0.0
H4754 H 0.83004 0.7912 0.02905 0.0
H4755 H 0.72433 0.72656 1.01756 0.0
H4756 H 0.75652 0.79207 0.03458 0.0
H4757 H 0.79068 0.72732 1.02565 0.0
C4758 C 0.821 0.74095 0.0278 0.0
C4759 C 0.83419 0.75842 0.02966 0.0
C4760 C 0.74966 0.77765 0.0303 0.0
C4761 C 0.78776 0.76012 0.02775 0.0
C4762 C 0.72724 0.77613 0.02954 0.0
C4763 C 0.71627 0.75787 1.02402 0.0
C4764 C 0.76275 0.76054 1.02645 0.0
C4765 C 0.73043 0.74143 1.02069 0.0
C4766 C 0.79892 0.74159 1.02704 0.0
C4767 C 0.82215 0.77686 0.02967 0.0
N4768 N 0.75172 0.74315 1.0219 0.0
N4769 N 0.80052 0.77712 0.02896 0.0
H4770 H 0.04552 0.07881 0.81106 0.0
H4771 H 0.02958 0.97374 0.74056 0.0
H4772 H 0.03594 0.08169 0.74659 0.0
H4773 H 0.04228 0.97088 0.80455 0.0
H4774 H 0.03037 1.01152 0.74252 0.0
H4775 H 0.04268 0.04111 0.80939 0.0
C4776 C 0.04221 0.07197 0.79644 0.0
C4777 C 0.04004 0.08527 0.77918 0.0
C4778 C 0.03289 1.00292 0.75636 0.0
C4779 C 0.03765 0.03884 0.77681 0.0
C4780 C 0.03228 0.98063 0.75528 0.0
C4781 C 0.03546 0.96732 0.77239 0.0
C4782 C 0.03675 1.01379 0.77488 0.0
C4783 C 0.03944 0.9791 0.79056 0.0
C4784 C 0.04082 0.04971 0.79545 0.0
C4785 C 0.03689 0.07349 0.76086 0.0
N4786 N 0.03986 1.00065 0.7912 0.0
N4787 N 0.03579 0.05197 0.7603 0.0
H4788 H 0.72178 0.30766 0.50818 0.0
H4789 H 0.83358 0.26137 0.54826 0.0
H4790 H 0.72492 0.26203 0.55465 0.0
H4791 H 0.82827 0.31333 0.50912 0.0
H4792 H 0.79561 0.2589 0.54893 0.0
H4793 H 0.75956 0.30813 0.50681 0.0
C4794 C 0.73 0.29738 0.51812 0.0
C4795 C 0.71843 0.28451 0.53152 0.0
C4796 C 0.80258 0.27084 0.5399 0.0
C4797 C 0.76468 0.28489 0.5298 0.0
C4798 C 0.8249 0.27212 0.53926 0.0
C4799 C 0.83587 0.28732 0.52792 0.0
C4800 C 0.78962 0.28496 0.52935 0.0
C4801 C 0.82194 0.30093 0.51777 0.0
C4802 C 0.75223 0.29773 0.51732 0.0
C4803 C 0.73177 0.27216 0.54382 0.0
N4804 N 0.80062 0.29937 0.51861 0.0
N4805 N 0.75322 0.27258 0.54258 0.0
H4806 H 0.28893 0.53677 0.08375 0.0
H4807 H 0.27882 0.47308 0.97488 0.0
H4808 H 0.27051 0.47463 0.07934 0.0
H4809 H 0.2789 0.53808 0.97293 0.0
H4810 H 0.27888 0.47429 1.01211 0.0
H4811 H 0.28868 0.53907 0.0459 0.0
C4812 C 0.28318 0.5239 0.07536 0.0
C4813 C 0.27659 0.5063 0.08671 0.0
C4814 C 0.27973 0.48859 1.0039 0.0
C4815 C 0.27909 0.50781 0.04017 0.0
C4816 C 0.28014 0.48795 0.98179 0.0
C4817 C 0.28126 0.50545 0.96858 0.0
C4818 C 0.28003 0.50715 1.01511 0.0
C4819 C 0.28064 0.52385 0.98073 0.0
C4820 C 0.28379 0.52497 0.05297 0.0
C4821 C 0.27324 0.48947 0.07288 0.0
N4822 N 0.28034 0.52412 1.00234 0.0
N4823 N 0.27434 0.49069 0.05154 0.0
H4824 H 0.2553 0.51369 0.83099 0.0
H4825 H 0.31696 0.51663 0.72095 0.0
H4826 H 0.31948 0.52658 0.82925 0.0
H4827 H 0.25307 0.52987 0.72448 0.0
H4828 H 0.31844 0.51569 0.75876 0.0
H4829 H 0.25432 0.51515 0.79333 0.0
C4830 C 0.2694 0.51685 0.82307 0.0
C4831 C 0.28749 0.52018 0.83494 0.0
C4832 C 0.30392 0.51871 0.75151 0.0
C4833 C 0.28651 0.52138 0.78887 0.0
C4834 C 0.30298 0.5191 0.7293 0.0
C4835 C 0.28475 0.52326 0.71795 0.0
C4836 C 0.28639 0.52197 0.764 0.0
C4837 C 0.26772 0.52664 0.7313 0.0
C4838 C 0.26877 0.51772 0.80092 0.0
C4839 C 0.30482 0.52412 0.82204 0.0
N4840 N 0.26895 0.52569 0.75267 0.0
N4841 N 0.30389 0.52436 0.8006 0.0
H4842 H 0.29977 0.56199 0.5811 0.0
H4843 H 0.24101 0.5256 0.47595 0.0
H4844 H 0.24724 0.52307 0.58321 0.0
H4845 H 0.29889 0.55601 0.47451 0.0
H4846 H 0.2426 0.5247 0.51344 0.0
H4847 H 0.29932 0.56045 0.54378 0.0
C4848 C 0.28818 0.55271 0.57414 0.0
C4849 C 0.27409 0.54216 0.58708 0.0
C4850 C 0.2552 0.53148 0.50522 0.0
C4851 C 0.27286 0.54077 0.54111 0.0
C4852 C 0.25446 0.5317 0.48313 0.0
C4853 C 0.2701 0.54006 0.4704 0.0
C4854 C 0.27168 0.54025 0.51636 0.0
C4855 C 0.28629 0.54884 0.4824 0.0
C4856 C 0.2879 0.5519 0.5521 0.0
C4857 C 0.25924 0.5311 0.57521 0.0
N4858 N 0.28652 0.5487 0.50385 0.0
N4859 N 0.2591 0.53077 0.55374 0.0
H4860 H 0.26734 0.49997 0.33538 0.0
H4861 H 0.25764 0.5576 0.22218 0.0
H4862 H 0.24971 0.56263 0.33019 0.0
H4863 H 0.26885 0.49355 0.22848 0.0
H4864 H 0.25631 0.56043 0.25993 0.0
H4865 H 0.2701 0.49815 0.29776 0.0
C4866 C 0.26464 0.51376 0.32673 0.0
C4867 C 0.25921 0.53186 0.3377 0.0
C4868 C 0.25929 0.54564 0.2533 0.0
C4869 C 0.26161 0.52951 0.29155 0.0
C4870 C 0.26008 0.54393 0.23109 0.0
C4871 C 0.264 0.52523 0.22044 0.0
C4872 C 0.26233 0.52856 0.2666 0.0
C4873 C 0.26659 0.50862 0.23461 0.0
C4874 C 0.26598 0.51257 0.30458 0.0
C4875 C 0.25484 0.54835 0.32381 0.0
N4876 N 0.26581 0.51069 0.25593 0.0
N4877 N 0.25626 0.54681 0.30244 0.0
H4878 H 0.52128 0.82916 0.25582 0.0
H4879 H 0.52121 0.71999 0.31843 0.0
H4880 H 0.53472 0.82829 0.31976 0.0
H4881 H 0.5412 0.72256 0.25636 0.0
H4882 H 0.52048 0.75787 0.31915 0.0
H4883 H 0.52298 0.79137 0.25538 0.0
C4884 C 0.52464 0.82137 0.26995 0.0
C4885 C 0.52814 0.83345 0.28779 0.0
C4886 C 0.52495 0.75037 0.3052 0.0
C4887 C 0.52938 0.78742 0.28754 0.0
C4888 C 0.52527 0.72814 0.30469 0.0
C4889 C 0.5312 0.71652 0.28721 0.0
C4890 C 0.52999 0.76258 0.28788 0.0
C4891 C 0.53644 0.7296 0.27041 0.0
C4892 C 0.52562 0.7992 0.26965 0.0
C4893 C 0.53219 0.82084 0.30528 0.0
N4894 N 0.53544 0.75102 0.27113 0.0
N4895 N 0.5324 0.79937 0.3047 0.0
H4896 H 0.06341 0.34496 0.31161 0.0
H4897 H 0.1377 0.33766 0.40769 0.0
H4898 H 0.09135 0.39678 0.34078 0.0
H4899 H 0.11316 0.28493 0.37666 0.0
H4900 H 0.11969 0.35963 0.38376 0.0
H4901 H 0.08305 0.32237 0.33372 0.0
C4902 C 0.07422 0.35155 0.32216 0.0
C4903 C 0.07581 0.37269 0.3245 0.0
C4904 C 0.11823 0.34324 0.38218 0.0
C4905 C 0.09755 0.34723 0.35035 0.0
C4906 C 0.12823 0.33072 0.39606 0.0
C4907 C 0.12716 0.30948 0.3939 0.0
C4908 C 0.10718 0.33442 0.36606 0.0
C4909 C 0.11473 0.30128 0.37851 0.0
C4910 C 0.08518 0.3387 0.33503 0.0
C4911 C 0.08974 0.38054 0.33864 0.0
N4912 N 0.10535 0.31378 0.36501 0.0
N4913 N 0.09992 0.36782 0.35125 0.0
H4914 H 0.91615 0.88857 0.66701 0.0
H4915 H 0.95238 0.80608 0.59068 0.0
H4916 H 0.98051 0.87498 0.66285 0.0
H4917 H 0.90175 0.84573 0.57793 0.0
H4918 H 0.9644 0.83068 0.61625 0.0
H4919 H 0.91096 0.8724 0.63415 0.0
C4920 C 0.92932 0.88251 0.65922 0.0
C4921 C 0.94882 0.88314 0.66819 0.0
C4922 C 0.95097 0.83421 0.60732 0.0
C4923 C 0.94266 0.86376 0.63042 0.0
C4924 C 0.94419 0.82028 0.59256 0.0
C4925 C 0.92594 0.82364 0.58183 0.0
C4926 C 0.93903 0.85136 0.61179 0.0
C4927 C 0.91577 0.8421 0.58538 0.0
C4928 C 0.92626 0.87313 0.64037 0.0
C4929 C 0.96504 0.87442 0.65712 0.0
N4930 N 0.92217 0.85499 0.60029 0.0
N4931 N 0.96155 0.8648 0.63904 0.0
H4932 H 0.50764 0.71345 0.83225 0.0
H4933 H 0.44109 0.69983 0.92052 0.0
H4934 H 0.44853 0.68744 0.81912 0.0
H4935 H 0.42838 0.76046 0.89861 0.0
H4936 H 0.4618 0.69369 0.89006 0.0
H4937 H 0.4934 0.73071 0.86186 0.0
C4938 C 0.49144 0.7121 0.83511 0.0
C4939 C 0.47912 0.69909 0.82329 0.0
C4940 C 0.45504 0.70857 0.89242 0.0
C4941 C 0.46325 0.71812 0.85721 0.0
C4942 C 0.44359 0.71217 0.90981 0.0
C4943 C 0.43313 0.73061 0.91176 0.0
C4944 C 0.45591 0.72359 0.87728 0.0
C4945 C 0.43633 0.74608 0.89738 0.0
C4946 C 0.48349 0.7218 0.85205 0.0
C4947 C 0.45836 0.69756 0.82776 0.0
N4948 N 0.44717 0.74207 0.88029 0.0
N4949 N 0.45111 0.70653 0.8449 0.0
H4950 H 0.654 0.22109 0.09216 0.0
H4951 H 0.54262 0.20051 0.13432 0.0
H4952 H 0.60032 0.24624 0.06447 0.0
H4953 H 0.59556 0.16701 0.15419 0.0
H4954 H 0.56341 0.21729 0.10831 0.0
H4955 H 0.63283 0.19936 0.11335 0.0
C4956 C 0.63776 0.2217 0.09023 0.0
C4957 C 0.62898 0.23551 0.07663 0.0
C4958 C 0.57046 0.20621 0.1183 0.0
C4959 C 0.60434 0.21138 0.1014 0.0
C4960 C 0.55866 0.19677 0.13322 0.0
C4961 C 0.56745 0.18242 0.14639 0.0
C4962 C 0.59118 0.20123 0.11658 0.0
C4963 C 0.58829 0.1782 0.14449 0.0
C4964 C 0.62559 0.20938 0.10242 0.0
C4965 C 0.60772 0.23577 0.07472 0.0
N4966 N 0.59945 0.18754 0.12981 0.0
N4967 N 0.59604 0.22413 0.08726 0.0
H4968 H 0.0742 0.69762 0.23643 0.0
H4969 H 0.08641 0.68671 0.1197 0.0
H4970 H 0.06295 0.64292 0.20156 0.0
H4971 H 0.14255 0.70616 0.148 0.0
H4972 H 0.07138 0.68212 0.15337 0.0
H4973 H 0.09591 0.71027 0.20797 0.0
C4974 C 0.07712 0.68785 0.22348 0.0
C4975 C 0.06714 0.6689 0.22171 0.0
C4976 C 0.08696 0.6876 0.15224 0.0
C4977 C 0.09084 0.68339 0.18933 0.0
C4978 C 0.09551 0.69005 0.13309 0.0
C4979 C 0.11579 0.6963 0.13123 0.0
C4980 C 0.09881 0.69107 0.16976 0.0
C4981 C 0.1269 0.70095 0.14902 0.0
C4982 C 0.08926 0.69515 0.20722 0.0
C4983 C 0.07068 0.6573 0.2041 0.0
N4984 N 0.11838 0.69784 0.16776 0.0
N4985 N 0.08195 0.66476 0.18872 0.0
H4986 H 0.64115 0.84204 0.4825 0.0
H4987 H 0.54125 0.85979 0.41686 0.0
H4988 H 0.5913 0.79937 0.4859 0.0
H4989 H 0.60175 0.87671 0.39742 0.0
H4990 H 0.55614 0.84128 0.44585 0.0
H4991 H 0.62262 0.86131 0.45676 0.0
C4992 C 0.62594 0.83719 0.4784 0.0
C4993 C 0.61771 0.81919 0.48635 0.0
C4994 C 0.56609 0.84888 0.43509 0.0
C4995 C 0.59672 0.84057 0.45639 0.0
C4996 C 0.55768 0.85926 0.41855 0.0
C4997 C 0.57037 0.86982 0.40493 0.0
C4998 C 0.58724 0.84961 0.43817 0.0
C4999 C 0.59151 0.86873 0.40762 0.0
C5000 C 0.61551 0.84797 0.46347 0.0
C5001 C 0.59794 0.81347 0.48044 0.0
N5002 N 0.59929 0.85907 0.42415 0.0
N5003 N 0.58814 0.82396 0.4655 0.0
H5004 H 0.50638 0.37668 0.69629 0.0
H5005 H 0.39906 0.33865 0.67412 0.0
H5006 H 0.46923 0.36101 0.74788 0.0
H5007 H 0.45076 0.32619 0.63538 0.0
H5008 H 0.42273 0.34369 0.70276 0.0
H5009 H 0.48607 0.35483 0.67524 0.0
C5010 C 0.49368 0.36879 0.70335 0.0
C5011 C 0.4885 0.37202 0.72382 0.0
C5012 C 0.42867 0.33916 0.68809 0.0
C5013 C 0.46461 0.34679 0.69917 0.0
C5014 C 0.41523 0.3366 0.67164 0.0
C5015 C 0.42282 0.33256 0.65201 0.0
C5016 C 0.44974 0.33782 0.68475 0.0
C5017 C 0.4439 0.32932 0.64999 0.0
C5018 C 0.48211 0.35605 0.69119 0.0
C5019 C 0.47252 0.36039 0.73196 0.0
N5020 N 0.45654 0.33234 0.66601 0.0
N5021 N 0.4605 0.34878 0.71944 0.0
H5022 H 0.98445 0.17226 0.88976 0.0
H5023 H 0.92445 0.18994 0.99314 0.0
H5024 H 0.92238 0.15117 0.89783 0.0
H5025 H 0.95868 0.23802 0.96417 0.0
H5026 H 0.93212 0.16754 0.96403 0.0
H5027 H 0.98264 0.18929 0.9226 0.0
C5028 C 0.97036 0.17121 0.89823 0.0
C5029 C 0.95333 0.16048 0.89053 0.0
C5030 C 0.93846 0.18281 0.9645 0.0
C5031 C 0.95188 0.17901 0.92894 0.0
C5032 C 0.93432 0.19545 0.98114 0.0
C5033 C 0.94108 0.21572 0.98107 0.0
C5034 C 0.94991 0.19047 0.94814 0.0
C5035 C 0.95356 0.22232 0.96501 0.0
C5036 C 0.96955 0.18072 0.91718 0.0
C5037 C 0.93595 0.15906 0.90299 0.0
N5038 N 0.95752 0.20976 0.94912 0.0
N5039 N 0.93567 0.16823 0.92157 0.0
H5040 H 0.32029 0.09922 0.39574 0.0
H5041 H 0.41639 0.09793 0.32572 0.0
H5042 H 0.32652 0.05822 0.34502 0.0
H5043 H 0.40688 0.1401 0.37515 0.0
H5044 H 0.38019 0.08882 0.32675 0.0
H5045 H 0.34634 0.12093 0.38157 0.0
C5046 C 0.32626 0.09526 0.38101 0.0
C5047 C 0.32103 0.07681 0.37158 0.0
C5048 C 0.38593 0.1003 0.33716 0.0
C5049 C 0.35254 0.10089 0.35599 0.0
C5050 C 0.40663 0.10546 0.33664 0.0
C5051 C 0.41476 0.11946 0.35071 0.0
C5052 C 0.37327 0.10916 0.35191 0.0
C5053 C 0.40139 0.12879 0.36444 0.0
C5054 C 0.34163 0.10758 0.37305 0.0
C5055 C 0.33001 0.07242 0.35273 0.0
N5056 N 0.38139 0.12331 0.36483 0.0
N5057 N 0.34586 0.08397 0.34587 0.0
H5058 H 0.21805 0.07966 0.65766 0.0
H5059 H 0.17212 0.16003 0.58205 0.0
H5060 H 0.24004 0.07921 0.59617 0.0
H5061 H 0.19994 0.17677 0.63952 0.0
H5062 H 0.18559 0.12552 0.58619 0.0
H5063 H 0.19772 0.1096 0.65018 0.0
C5064 C 0.21806 0.08537 0.64244 0.0
C5065 C 0.23076 0.07688 0.62768 0.0
C5066 C 0.18853 0.13686 0.59783 0.0
C5067 C 0.20763 0.11135 0.61881 0.0
C5068 C 0.18108 0.15667 0.59548 0.0
C5069 C 0.18496 0.17168 0.61041 0.0
C5070 C 0.19927 0.13185 0.61552 0.0
C5071 C 0.1961 0.16588 0.62776 0.0
C5072 C 0.20653 0.10257 0.63816 0.0
C5073 C 0.23025 0.08521 0.60798 0.0
N5074 N 0.20271 0.14641 0.62988 0.0
N5075 N 0.21899 0.10222 0.60409 0.0
H5076 H 0.20746 1.01204 0.85642 0.0
H5077 H 0.17434 0.89689 0.83661 0.0
H5078 H 0.2419 0.96019 0.87603 0.0
H5079 H 0.13442 0.94914 0.83388 0.0
H5080 H 0.20346 0.92015 0.84057 0.0
H5081 H 0.18514 0.9894 0.83699 0.0
C5082 C 0.21095 0.99589 0.85592 0.0
C5083 C 0.22696 0.98787 0.86765 0.0
C5084 C 0.18831 0.92642 0.83871 0.0
C5085 C 0.20129 0.96184 0.84574 0.0
C5086 C 0.17167 0.91317 0.83667 0.0
C5087 C 0.15178 0.92096 0.83523 0.0
C5088 C 0.18502 0.94757 0.83928 0.0
C5089 C 0.14937 0.94227 0.83479 0.0
C5090 C 0.19815 0.98299 0.84489 0.0
C5091 C 0.23057 0.96697 0.86665 0.0
N5092 N 0.16574 0.95476 0.83701 0.0
N5093 N 0.21768 0.95455 0.85616 0.0
H5094 H 0.39075 0.88817 0.13142 0.0
H5095 H 0.308 0.96985 0.09825 0.0
H5096 H 0.34921 0.88031 0.08096 0.0
H5097 H 0.34871 0.97699 0.14924 0.0
H5098 H 0.32886 0.94149 0.08619 0.0
H5099 H 0.3803 0.92388 0.13395 0.0
C5100 C 0.37942 0.89395 0.12089 0.0
C5101 C 0.37065 0.88114 0.10615 0.0
C5102 C 0.33363 0.9497 0.09969 0.0
C5103 C 0.35878 0.92211 0.10874 0.0
C5104 C 0.32195 0.96621 0.10635 0.0
C5105 C 0.32648 0.9758 0.12489 0.0
C5106 C 0.34984 0.94269 0.11185 0.0
C5107 C 0.34438 0.97002 0.13504 0.0
C5108 C 0.37362 0.91441 0.12217 0.0
C5109 C 0.3564 0.88961 0.09256 0.0
N5110 N 0.35516 0.95359 0.12867 0.0
N5111 N 0.35075 0.90947 0.09433 0.0
H5112 H 0.43556 0.95496 0.23052 0.0
H5113 H 0.32784 0.94552 0.17361 0.0
H5114 H 0.4277 0.92166 0.17442 0.0
H5115 H 0.34734 0.99815 0.20787 0.0
H5116 H 0.36041 0.9288 0.18206 0.0
H5117 H 0.39918 0.96335 0.23001 0.0
C5118 C 0.42613 0.94939 0.21813 0.0
C5119 C 0.43468 0.93797 0.20227 0.0
C5120 C 0.35713 0.94372 0.18831 0.0
C5121 C 0.39305 0.94709 0.20186 0.0
C5122 C 0.33846 0.95309 0.18379 0.0
C5123 C 0.33486 0.97314 0.19027 0.0
C5124 C 0.37182 0.95437 0.1998 0.0
C5125 C 0.34935 0.98257 0.20288 0.0
C5126 C 0.40541 0.95408 0.2179 0.0
C5127 C 0.42175 0.93093 0.18667 0.0
N5128 N 0.36722 0.97317 0.20714 0.0
N5129 N 0.40155 0.93565 0.18681 0.0
H5130 H 0.39247 0.17664 0.45695 0.0
H5131 H 0.35546 0.07875 0.42143 0.0
H5132 H 0.33197 0.1913 0.43555 0.0
H5133 H 0.30278 0.09939 0.45444 0.0
H5134 H 0.37208 0.11195 0.42825 0.0
H5135 H 0.38356 0.14014 0.45545 0.0
C5136 C 0.37734 0.1722 0.45192 0.0
C5137 C 0.36288 0.18707 0.44636 0.0
C5138 C 0.35716 0.1088 0.43457 0.0
C5139 C 0.3528 0.14561 0.44476 0.0
C5140 C 0.3478 0.08984 0.43093 0.0
C5141 C 0.32771 0.08638 0.43745 0.0
C5142 C 0.34608 0.12417 0.4445 0.0
C5143 C 0.3182 0.10146 0.4491 0.0
C5144 C 0.37241 0.15144 0.45095 0.0
C5145 C 0.34361 0.18044 0.43983 0.0
N5146 N 0.32721 0.11987 0.4518 0.0
N5147 N 0.33905 0.16021 0.43947 0.0
H5148 H 0.20826 0.03916 0.70874 0.0
H5149 H 0.1336 0.13463 0.70752 0.0
H5150 H 0.22986 0.09844 0.69011 0.0
H5151 H 0.11575 0.07181 0.69912 0.0
H5152 H 0.1695 0.12394 0.70959 0.0
H5153 H 0.17534 0.05396 0.71713 0.0
C5154 C 0.20627 0.05549 0.70716 0.0
C5155 C 0.22146 0.06752 0.69816 0.0
C5156 C 0.15768 0.11257 0.7073 0.0
C5157 C 0.18369 0.08438 0.70696 0.0
C5158 C 0.13729 0.11861 0.70601 0.0
C5159 C 0.12175 0.10401 0.70307 0.0
C5160 C 0.16243 0.09178 0.70607 0.0
C5161 C 0.12725 0.08352 0.7012 0.0
C5162 C 0.18739 0.06386 0.71162 0.0
C5163 C 0.21832 0.08864 0.69677 0.0
N5164 N 0.14711 0.07801 0.70287 0.0
N5165 N 0.19943 0.09641 0.70049 0.0
H5166 H 0.20736 0.8742 0.96784 0.0
H5167 H 0.22456 0.99354 0.96567 0.0
H5168 H 0.16826 0.91096 1.00532 0.0
H5169 H 0.2189 0.95273 0.91449 0.0
H5170 H 0.21436 0.96516 0.98849 0.0
H5171 H 0.22697 0.90469 0.95913 0.0
C5172 C 0.20373 0.88847 0.97531 0.0
C5173 C 0.18584 0.89035 0.9867 0.0
C5174 C 0.21528 0.96266 0.97223 0.0
C5175 C 0.20759 0.92509 0.97638 0.0
C5176 C 0.22061 0.97883 0.95924 0.0
C5177 C 0.2228 0.97525 0.93829 0.0
C5178 C 0.21251 0.94309 0.96397 0.0
C5179 C 0.21765 0.95599 0.93061 0.0
C5180 C 0.21467 0.90592 0.97005 0.0
C5181 C 0.18176 0.90917 0.99604 0.0
N5182 N 0.21314 0.94055 0.94346 0.0
N5183 N 0.19208 0.92616 0.99003 0.0
H5184 H 0.34726 0.42958 0.1428 0.0
H5185 H 0.3805 0.33245 0.10737 0.0
H5186 H 0.36301 0.44527 0.08098 0.0
H5187 H 0.35123 0.3528 0.05228 0.0
H5188 H 0.37273 0.36567 0.12306 0.0
H5189 H 0.34924 0.39329 0.13387 0.0
C5190 C 0.35123 0.42537 0.12737 0.0
C5191 C 0.35501 0.44043 0.11255 0.0
C5192 C 0.3674 0.36249 0.10777 0.0
C5193 C 0.35725 0.39918 0.10241 0.0
C5194 C 0.37161 0.34351 0.09893 0.0
C5195 C 0.36643 0.33997 0.07851 0.0
C5196 C 0.3582 0.37777 0.09587 0.0
C5197 C 0.3555 0.35495 0.06799 0.0
C5198 C 0.35246 0.40472 0.12239 0.0
C5199 C 0.36016 0.43418 0.09286 0.0
N5200 N 0.35217 0.37337 0.07659 0.0
N5201 N 0.36091 0.414 0.08831 0.0
H5202 H 0.81771 0.18547 0.9067 0.0
H5203 H 0.88893 0.19075 0.99917 0.0
H5204 H 0.82493 0.13549 0.94885 0.0
H5205 H 0.85707 0.2457 0.98242 0.0
H5206 H 0.86534 0.17109 0.97884 0.0
H5207 H 0.82937 0.20912 0.93324 0.0
C5208 C 0.82114 0.17955 0.92171 0.0
C5209 C 0.82117 0.1584 0.92537 0.0
C5210 C 0.86344 0.18748 0.97953 0.0
C5211 C 0.83449 0.1852 0.95545 0.0
C5212 C 0.8772 0.19883 0.99085 0.0
C5213 C 0.87552 0.22009 0.99198 0.0
C5214 C 0.84782 0.19736 0.96892 0.0
C5215 C 0.85955 0.22953 0.98131 0.0
C5216 C 0.82771 0.19307 0.93682 0.0
C5217 C 0.82509 0.1516 0.9452 0.0
N5218 N 0.84638 0.21809 0.96991 0.0
N5219 N 0.83216 0.16491 0.95936 0.0
H5220 H 0.05714 0.58141 0.2282 0.0
H5221 H 0.17495 0.5802 0.20071 0.0
H5222 H 0.09809 0.63266 0.22158 0.0
H5223 H 0.13597 0.52927 0.18533 0.0
H5224 H 0.1478 0.59423 0.22128 0.0
H5225 H 0.0858 0.55843 0.21999 0.0
C5226 C 0.07188 0.58782 0.22436 0.0
C5227 C 0.07533 0.60888 0.22566 0.0
C5228 C 0.14529 0.57971 0.21376 0.0
C5229 C 0.10782 0.58315 0.21735 0.0
C5230 C 0.16098 0.57148 0.20231 0.0
C5231 C 0.1572 0.55416 0.19038 0.0
C5232 C 0.12582 0.5707 0.21287 0.0
C5233 C 0.13895 0.5433 0.19351 0.0
C5234 C 0.08825 0.57478 0.22019 0.0
C5235 C 0.09467 0.61654 0.22068 0.0
N5236 N 0.12345 0.5522 0.20382 0.0
N5237 N 0.11019 0.60369 0.21704 0.0
H5238 H 0.66718 0.82964 0.45843 0.0
H5239 H 0.7455 0.91827 0.4699 0.0
H5240 H 0.71009 0.83146 0.50808 0.0
H5241 H 0.68956 0.92376 0.43601 0.0
H5242 H 0.73104 0.8895 0.48847 0.0
H5243 H 0.6761 0.86486 0.45002 0.0
C5244 C 0.67919 0.83723 0.46693 0.0
C5245 C 0.68799 0.82792 0.48389 0.0
C5246 C 0.72158 0.89745 0.47754 0.0
C5247 C 0.69769 0.86803 0.4751 0.0
C5248 C 0.72967 0.91417 0.46732 0.0
C5249 C 0.71888 0.9225 0.45094 0.0
C5250 C 0.70287 0.88937 0.47091 0.0
C5251 C 0.69844 0.91707 0.44821 0.0
C5252 C 0.68378 0.85747 0.46262 0.0
C5253 C 0.70323 0.83824 0.49472 0.0
N5254 N 0.69128 0.90006 0.45745 0.0
N5255 N 0.70755 0.85793 0.49024 0.0
H5256 H 0.95549 0.90969 0.22141 0.0
H5257 H 0.91958 1.01822 0.184 0.0
H5258 H 0.99403 0.96274 0.22766 0.0
H5259 H 0.8813 0.96459 0.1888 0.0
H5260 H 0.94602 1.00046 0.20344 0.0
H5261 H 0.92816 0.93096 0.20918 0.0
C5262 C 0.95825 0.92589 0.2198 0.0
C5263 C 0.97671 0.93466 0.2259 0.0
C5264 C 0.93161 0.99285 0.20057 0.0
C5265 C 0.94538 0.95932 0.21245 0.0
C5266 C 0.91653 1.00296 0.18956 0.0
C5267 C 0.89862 0.99253 0.18395 0.0
C5268 C 0.92851 0.97236 0.20582 0.0
C5269 C 0.89498 0.97319 0.1923 0.0
C5270 C 0.94253 0.93812 0.21317 0.0
C5271 C 0.97978 0.95561 0.22324 0.0
N5272 N 0.91003 0.96355 0.20243 0.0
N5273 N 0.96404 0.96744 0.21688 0.0
H5274 H 0.1706 0.63054 0.63171 0.0
H5275 H 0.20961 0.71523 0.55726 0.0
H5276 H 0.22622 0.62402 0.59751 0.0
H5277 H 0.1693 0.72919 0.6069 0.0
H5278 H 0.21841 0.68312 0.5737 0.0
H5279 H 0.17067 0.66716 0.62394 0.0
C5280 C 0.18275 0.63683 0.62247 0.0
C5281 C 0.19824 0.62422 0.61494 0.0
C5282 C 0.20815 0.69344 0.58143 0.0
C5283 C 0.1986 0.66604 0.60623 0.0
C5284 C 0.20338 0.71194 0.57217 0.0
C5285 C 0.18879 0.72484 0.58081 0.0
C5286 C 0.19779 0.68755 0.59916 0.0
C5287 C 0.18076 0.71967 0.59988 0.0
C5288 C 0.18296 0.65775 0.6183 0.0
C5289 C 0.21392 0.6332 0.60348 0.0
N5290 N 0.18488 0.70108 0.60817 0.0
N5291 N 0.21356 0.6535 0.59926 0.0
H5292 H 0.09569 0.45567 0.29775 0.0
H5293 H 0.17659 0.45242 0.38763 0.0
H5294 H 0.07944 0.42978 0.35566 0.0
H5295 H 0.19043 0.45165 0.32354 0.0
H5296 H 0.13993 0.45234 0.37938 0.0
H5297 H 0.12847 0.46571 0.31124 0.0
C5298 C 0.09856 0.45313 0.3137 0.0
C5299 C 0.08476 0.44195 0.32555 0.0
C5300 C 0.15102 0.45217 0.36719 0.0
C5301 C 0.12313 0.45202 0.34082 0.0
C5302 C 0.17183 0.45209 0.37183 0.0
C5303 C 0.18641 0.45179 0.35616 0.0
C5304 C 0.14488 0.45243 0.34676 0.0
C5305 C 0.17964 0.45158 0.33599 0.0
C5306 C 0.1176 0.45835 0.32126 0.0
C5307 C 0.08973 0.43834 0.346 0.0
N5308 N 0.15935 0.45202 0.33187 0.0
N5309 N 0.10886 0.44288 0.35294 0.0
H5310 H 0.47011 0.65914 0.83657 0.0
H5311 H 0.40987 0.56292 0.8795 0.0
H5312 H 0.48006 0.59914 0.81217 0.0
H5313 H 0.39833 0.62606 0.89418 0.0
H5314 H 0.43894 0.57382 0.85856 0.0
H5315 H 0.44909 0.64505 0.8628 0.0
C5316 C 0.46837 0.64289 0.83697 0.0
C5317 C 0.47736 0.6304 0.82234 0.0
C5318 C 0.43013 0.58517 0.8666 0.0
C5319 C 0.45152 0.61384 0.85188 0.0
C5320 C 0.41342 0.57902 0.87843 0.0
C5321 C 0.40155 0.59358 0.88877 0.0
C5322 C 0.43503 0.60598 0.86524 0.0
C5323 C 0.40713 0.61417 0.88697 0.0
C5324 C 0.456 0.63474 0.85198 0.0
C5325 C 0.47384 0.60928 0.82356 0.0
N5326 N 0.42335 0.61967 0.87547 0.0
N5327 N 0.46085 0.60162 0.83791 0.0
H5328 H 0.92501 0.74726 0.66272 0.0
H5329 H 0.96428 0.65482 0.72283 0.0
H5330 H 0.94122 0.69068 0.63376 0.0
H5331 H 1.00203 0.70815 0.7302 0.0
H5332 H 0.94514 0.67223 0.69647 0.0
H5333 H 0.94643 0.73783 0.69222 0.0
C5334 C 0.93383 0.73333 0.66222 0.0
C5335 C 0.93158 0.71969 0.64591 0.0
C5336 C 0.95719 0.68035 0.7044 0.0
C5337 C 0.95467 0.70851 0.67954 0.0
C5338 C 0.96791 0.67052 0.71977 0.0
C5339 C 0.98463 0.68005 0.72898 0.0
C5340 C 0.96316 0.69995 0.69834 0.0
C5341 C 0.9889 0.70043 0.72377 0.0
C5342 C 0.94573 0.72788 0.67907 0.0
C5343 C 0.94278 0.70159 0.64605 0.0
N5344 N 0.97838 0.70975 0.70852 0.0
N5345 N 0.95344 0.69624 0.66289 0.0
H5346 H 0.15728 0.21381 0.46907 0.0
H5347 H 0.08107 0.17074 0.38711 0.0
H5348 H 0.0962 0.23708 0.46897 0.0
H5349 H 0.13945 0.19682 0.37052 0.0
H5350 H 0.08557 0.18429 0.42151 0.0
H5351 H 0.15005 0.19495 0.43801 0.0
C5352 C 0.14221 0.21449 0.46294 0.0
C5353 C 0.12756 0.22726 0.47159 0.0
C5354 C 0.09733 0.18688 0.41023 0.0
C5355 C 0.11883 0.20543 0.43601 0.0
C5356 C 0.09477 0.17937 0.39044 0.0
C5357 C 0.10983 0.18269 0.37543 0.0
C5358 C 0.11535 0.19716 0.41535 0.0
C5359 C 0.12752 0.19341 0.38135 0.0
C5360 C 0.13807 0.20378 0.44509 0.0
C5361 C 0.10798 0.22735 0.46282 0.0
N5362 N 0.12983 0.2001 0.40082 0.0
N5363 N 0.10416 0.2167 0.44537 0.0
H5364 H 0.54315 0.33836 0.22232 0.0
H5365 H 0.6112 0.35043 0.12638 0.0
H5366 H 0.59862 0.37384 0.22103 0.0
H5367 H 0.60447 0.28901 0.14886 0.0
H5368 H 0.58959 0.36252 0.15411 0.0
H5369 H 0.55296 0.322 0.19031 0.0
C5370 C 0.55781 0.34205 0.21572 0.0
C5371 C 0.57039 0.35713 0.22436 0.0
C5372 C 0.59214 0.34629 0.15234 0.0
C5373 C 0.58047 0.34005 0.18734 0.0
C5374 C 0.60411 0.33936 0.13641 0.0
C5375 C 0.60989 0.31886 0.13592 0.0
C5376 C 0.58588 0.33244 0.16732 0.0
C5377 C 0.60047 0.30501 0.14919 0.0
C5378 C 0.56303 0.33313 0.1973 0.0
C5379 C 0.5887 0.36213 0.21484 0.0
N5380 N 0.58927 0.31216 0.16494 0.0
N5381 N 0.59306 0.35387 0.19647 0.0
H5382 H 0.45341 0.80385 0.9855 0.0
H5383 H 0.44889 0.88009 0.89128 0.0
H5384 H 0.39851 0.829 0.96077 0.0
H5385 H 0.50549 0.86333 0.92035 0.0
H5386 H 0.43029 0.86141 0.9174 0.0
H5387 H 0.47331 0.8272 0.96417 0.0
C5388 C 0.44549 0.81472 0.9761 0.0
C5389 C 0.42417 0.8145 0.97485 0.0
C5390 C 0.44679 0.86179 0.91813 0.0
C5391 C 0.44658 0.84038 0.94965 0.0
C5392 C 0.45739 0.87223 0.90305 0.0
C5393 C 0.4787 0.87316 0.90365 0.0
C5394 C 0.45758 0.85207 0.93388 0.0
C5395 C 0.489 0.86303 0.91945 0.0
C5396 C 0.45682 0.82781 0.96365 0.0
C5397 C 0.4147 0.82835 0.96185 0.0
N5398 N 0.47833 0.85282 0.93396 0.0
N5399 N 0.42588 0.84059 0.9496 0.0
H5400 H 0.92381 0.33005 0.91352 0.0
H5401 H 0.97722 0.40908 0.839 0.0
H5402 H 0.9509 0.38732 0.93231 0.0
H5403 H 0.98363 0.34456 0.8288 0.0
H5404 H 0.95671 0.40217 0.86881 0.0
H5405 H 0.93694 0.33584 0.87914 0.0
C5406 C 0.93252 0.34379 0.91062 0.0
C5407 C 0.93627 0.35815 0.92621 0.0
C5408 C 0.9621 0.38948 0.85976 0.0
C5409 C 0.95043 0.36515 0.88647 0.0
C5410 C 0.97348 0.39345 0.84235 0.0
C5411 C 0.9817 0.37741 0.83095 0.0
C5412 C 0.95903 0.3693 0.86605 0.0
C5413 C 0.97725 0.35735 0.83702 0.0
C5414 C 0.93981 0.34711 0.89087 0.0
C5415 C 0.94716 0.37592 0.92101 0.0
N5416 N 0.9663 0.35379 0.85431 0.0
N5417 N 0.95374 0.37891 0.90165 0.0
H5418 H 0.51243 0.20017 0.63739 0.0
H5419 H 0.40782 0.2147 0.57678 0.0
H5420 H 0.45747 0.16648 0.65078 0.0
H5421 H 0.45977 0.25426 0.5694 0.0
H5422 H 0.42717 0.19404 0.60082 0.0
H5423 H 0.49412 0.21901 0.611 0.0
C5424 C 0.49639 0.19699 0.6349 0.0
C5425 C 0.48641 0.18173 0.64609 0.0
C5426 C 0.43452 0.20702 0.59368 0.0
C5427 C 0.46552 0.20277 0.61569 0.0
C5428 C 0.42352 0.21868 0.57978 0.0
C5429 C 0.43229 0.23606 0.57102 0.0
C5430 C 0.45436 0.21306 0.59903 0.0
C5431 C 0.45267 0.24062 0.57545 0.0
C5432 C 0.486 0.2076 0.61977 0.0
C5433 C 0.46564 0.1782 0.64247 0.0
N5434 N 0.463 0.22932 0.58937 0.0
N5435 N 0.45589 0.18853 0.6274 0.0
H5436 H 0.62998 0.74494 0.39794 0.0
H5437 H 0.58212 0.69392 0.3055 0.0
H5438 H 0.64389 0.68057 0.40027 0.0
H5439 H 0.55985 0.66542 0.36038 0.0
H5440 H 0.60719 0.71318 0.32657 0.0
H5441 H 0.60731 0.73826 0.36862 0.0
C5442 C 0.6287 0.72954 0.39209 0.0
C5443 C 0.63885 0.71324 0.40179 0.0
C5444 C 0.59639 0.70293 0.33375 0.0
C5445 C 0.61375 0.7059 0.36808 0.0
C5446 C 0.58258 0.69158 0.32174 0.0
C5447 C 0.57025 0.67663 0.33092 0.0
C5448 C 0.59683 0.69969 0.35491 0.0
C5449 C 0.5699 0.67573 0.35229 0.0
C5450 C 0.61606 0.72591 0.37519 0.0
C5451 C 0.63677 0.69371 0.39333 0.0
N5452 N 0.58322 0.68674 0.36344 0.0
N5453 N 0.6242 0.69059 0.37727 0.0
H5454 H 0.11746 0.8598 0.05742 0.0
H5455 H 0.09267 0.86016 0.17481 0.0
H5456 H 0.0975 0.80792 0.09259 0.0
H5457 H 0.09729 0.91687 0.14162 0.0
H5458 H 0.09231 0.84174 0.14312 0.0
H5459 H 0.10681 0.88227 0.08558 0.0
C5460 C 0.11008 0.85323 0.07063 0.0
C5461 C 0.10875 0.83198 0.07291 0.0
C5462 C 0.09323 0.85823 0.14256 0.0
C5463 C 0.09684 0.85722 0.10487 0.0
C5464 C 0.09342 0.86882 0.16078 0.0
C5465 C 0.09479 0.89017 0.16095 0.0
C5466 C 0.09495 0.86887 0.12409 0.0
C5467 C 0.09639 0.90039 0.14219 0.0
C5468 C 0.10421 0.86599 0.08675 0.0
C5469 C 0.09913 0.82419 0.09028 0.0
N5470 N 0.09658 0.88962 0.12442 0.0
N5471 N 0.09384 0.83673 0.10564 0.0
H5472 H 0.7204 0.99955 0.70479 0.0
H5473 H 0.63939 0.9151 0.67382 0.0
H5474 H 0.73048 0.95435 0.65847 0.0
H5475 H 0.63118 0.95666 0.72398 0.0
H5476 H 0.67512 0.92578 0.67156 0.0
H5477 H 0.69132 0.97962 0.71708 0.0
C5478 C 0.71718 0.98489 0.69784 0.0
C5479 C 0.72793 0.97873 0.68047 0.0
C5480 C 0.66558 0.93243 0.68321 0.0
C5481 C 0.69394 0.95635 0.69368 0.0
C5482 C 0.6451 0.92649 0.68434 0.0
C5483 C 0.63216 0.93519 0.69891 0.0
C5484 C 0.67321 0.94741 0.69659 0.0
C5485 C 0.64056 0.94955 0.71248 0.0
C5486 C 0.70028 0.97369 0.70461 0.0
C5487 C 0.72272 0.95988 0.67178 0.0
N5488 N 0.66044 0.95537 0.71084 0.0
N5489 N 0.70584 0.94961 0.67813 0.0
H5490 H 0.87574 0.88244 0.47677 0.0
H5491 H 0.84677 0.97114 0.40452 0.0
H5492 H 0.85344 0.87072 0.41578 0.0
H5493 H 0.80455 0.96167 0.45377 0.0
H5494 H 0.86578 0.94165 0.41532 0.0
H5495 H 0.86389 0.9176 0.47382 0.0
C5496 C 0.86821 0.88697 0.46282 0.0
C5497 C 0.86528 0.87308 0.4466 0.0
C5498 C 0.85282 0.94657 0.42424 0.0
C5499 C 0.85304 0.91383 0.44297 0.0
C5500 C 0.84191 0.9637 0.41819 0.0
C5501 C 0.82377 0.96906 0.42808 0.0
C5502 C 0.84566 0.9348 0.44044 0.0
C5503 C 0.81851 0.95817 0.44574 0.0
C5504 C 0.86176 0.90719 0.46118 0.0
C5505 C 0.85629 0.88059 0.42866 0.0
N5506 N 0.82915 0.9412 0.45117 0.0
N5507 N 0.85061 0.90046 0.42731 0.0
H5508 H 0.81178 0.06139 0.20266 0.0
H5509 H 0.92032 0.1167 0.20426 0.0
H5510 H 0.8497 0.07184 0.15012 0.0
H5511 H 0.87735 0.12396 0.25332 0.0
H5512 H 0.89603 0.09443 0.18691 0.0
H5513 H 0.83563 0.08173 0.22322 0.0
C5514 C 0.8247 0.06849 0.19532 0.0
C5515 C 0.82886 0.06496 0.17471 0.0
C5516 C 0.89197 0.1007 0.2016 0.0
C5517 C 0.85644 0.08728 0.19809 0.0
C5518 C 0.90601 0.11308 0.21166 0.0
C5519 C 0.90065 0.12236 0.23003 0.0
C5520 C 0.87249 0.09765 0.21 0.0
C5521 C 0.88183 0.11727 0.23894 0.0
C5522 C 0.83848 0.0798 0.20711 0.0
C5523 C 0.84601 0.07421 0.166 0.0
N5524 N 0.86822 0.10545 0.22868 0.0
N5525 N 0.8593 0.08474 0.17777 0.0
H5526 H 0.71878 0.18748 0.92535 0.0
H5527 H 0.74846 0.08704 0.96212 0.0
H5528 H 0.67468 0.16948 0.97098 0.0
H5529 H 0.71608 0.08502 0.90515 0.0
H5530 H 0.72986 0.11832 0.97094 0.0
H5531 H 0.72813 0.15176 0.9214 0.0
C5532 C 0.71091 0.17624 0.93451 0.0
C5533 C 0.69566 0.18192 0.94843 0.0
C5534 C 0.72646 0.11058 0.95676 0.0
C5535 C 0.70719 0.14092 0.94441 0.0
C5536 C 0.73691 0.0927 0.95175 0.0
C5537 C 0.73409 0.08351 0.93262 0.0
C5538 C 0.71351 0.11947 0.94232 0.0
C5539 C 0.71908 0.09163 0.91977 0.0
C5540 C 0.71644 0.15584 0.93229 0.0
C5541 C 0.68674 0.16624 0.96029 0.0
N5542 N 0.70985 0.10955 0.92449 0.0
N5543 N 0.69276 0.14646 0.95813 0.0
H5544 H 0.63945 0.14996 0.87934 0.0
H5545 H 0.70808 0.058 0.84838 0.0
H5546 H 0.62161 0.10233 0.83753 0.0
H5547 H 0.73429 0.11127 0.87675 0.0
H5548 H 0.67834 0.07734 0.8393 0.0
H5549 H 0.67513 0.13861 0.8764 0.0
C5550 C 0.64303 0.13712 0.86964 0.0
C5551 C 0.62755 0.12694 0.85882 0.0
C5552 C 0.69073 0.08518 0.84698 0.0
C5553 C 0.66807 0.11437 0.85493 0.0
C5554 C 0.70805 0.07416 0.85172 0.0
C5555 C 0.72381 0.08312 0.86304 0.0
C5556 C 0.68859 0.10506 0.85455 0.0
C5557 C 0.72245 0.10391 0.86785 0.0
C5558 C 0.66337 0.13091 0.86768 0.0
C5559 C 0.63302 0.11068 0.84613 0.0
N5560 N 0.70471 0.11409 0.86422 0.0
N5561 N 0.65272 0.10491 0.84461 0.0
H5562 H 0.69912 0.97405 0.63256 0.0
H5563 H 0.70226 0.86566 0.57606 0.0
H5564 H 0.75081 0.95253 0.59856 0.0
H5565 H 0.67181 0.87468 0.6334 0.0
H5566 H 0.71263 0.90176 0.57631 0.0
H5567 H 0.68118 0.94183 0.62471 0.0
C5568 C 0.70626 0.96306 0.62257 0.0
C5569 C 0.72634 0.96612 0.61585 0.0
C5570 C 0.70346 0.89586 0.5887 0.0
C5571 C 0.70613 0.92944 0.60699 0.0
C5572 C 0.6976 0.87532 0.58858 0.0
C5573 C 0.6865 0.86718 0.60492 0.0
C5574 C 0.69777 0.90844 0.60504 0.0
C5575 C 0.6807 0.88035 0.62072 0.0
C5576 C 0.69618 0.94458 0.61838 0.0
C5577 C 0.7352 0.95104 0.6036 0.0
N5578 N 0.68642 0.90034 0.62042 0.0
N5579 N 0.7251 0.93337 0.59963 0.0
H5580 H 0.82569 0.93871 0.3804 0.0
H5581 H 0.92594 0.90721 0.33974 0.0
H5582 H 0.84524 0.99047 0.34492 0.0
H5583 H 0.93601 0.96328 0.37288 0.0
H5584 H 0.88903 0.91388 0.34023 0.0
H5585 H 0.85899 0.92248 0.37383 0.0
C5586 C 0.83639 0.94606 0.37019 0.0
C5587 C 0.8326 0.96586 0.36297 0.0
C5588 C 0.89943 0.92448 0.34754 0.0
C5589 C 0.87055 0.94797 0.35621 0.0
C5590 C 0.92047 0.92091 0.34711 0.0
C5591 C 0.93422 0.93483 0.35618 0.0
C5592 C 0.8922 0.94219 0.35687 0.0
C5593 C 0.92612 0.95209 0.36577 0.0
C5594 C 0.85546 0.93697 0.36675 0.0
C5595 C 0.84735 0.97507 0.35048 0.0
N5596 N 0.90568 0.95539 0.36561 0.0
N5597 N 0.86587 0.96638 0.34805 0.0
H5598 H 0.90589 0.13772 0.0769 0.0
H5599 H 0.79858 0.09653 0.10631 0.0
H5600 H 0.85016 0.17172 0.07107 0.0
H5601 H 0.85209 0.05841 0.10664 0.0
H5602 H 0.81618 0.12105 0.08526 0.0
H5603 H 0.88611 0.10599 0.07784 0.0
C5604 C 0.8895 0.13837 0.07491 0.0
C5605 C 0.87952 0.15726 0.07434 0.0
C5606 C 0.82417 0.1073 0.08968 0.0
C5607 C 0.85684 0.12132 0.07628 0.0
C5608 C 0.81419 0.09334 0.10201 0.0
C5609 C 0.8241 0.07561 0.10875 0.0
C5610 C 0.84463 0.1041 0.08456 0.0
C5611 C 0.84401 0.07201 0.10199 0.0
C5612 C 0.8782 0.12029 0.07566 0.0
C5613 C 0.85836 0.15743 0.07172 0.0
N5614 N 0.85385 0.08642 0.09063 0.0
N5615 N 0.84765 0.13974 0.07337 0.0
H5616 H 0.6773 0.72181 0.94801 0.0
H5617 H 0.70744 0.60994 0.97822 0.0
H5618 H 0.70301 0.70435 1.00575 0.0
H5619 H 0.7044 0.62716 0.91496 0.0
H5620 H 0.70693 0.6459 0.98762 0.0
H5621 H 0.68922 0.68913 0.93365 0.0
C5622 C 0.6863 0.71161 0.95737 0.0
C5623 C 0.68938 0.71582 0.97808 0.0
C5624 C 0.70652 0.64193 0.97163 0.0
C5625 C 0.70237 0.67861 0.96218 0.0
C5626 C 0.70659 0.62138 0.96634 0.0
C5627 C 0.70565 0.61569 0.94589 0.0
C5628 C 0.70503 0.65695 0.95636 0.0
C5629 C 0.70496 0.63108 0.93096 0.0
C5630 C 0.69291 0.69293 0.94927 0.0
C5631 C 0.70069 0.70196 0.98969 0.0
N5632 N 0.70434 0.65109 0.93649 0.0
N5633 N 0.70649 0.68394 0.98172 0.0
H5634 H 0.26172 0.88471 0.09774 0.0
H5635 H 0.15001 0.84579 0.07601 0.0
H5636 H 0.20991 0.90554 0.1323 0.0
H5637 H 0.20311 0.81172 0.05863 0.0
H5638 H 0.17116 0.86742 0.09743 0.0
H5639 H 0.24003 0.85884 0.08174 0.0
C5640 C 0.24575 0.88387 0.10187 0.0
C5641 C 0.23757 0.89715 0.11642 0.0
C5642 C 0.17818 0.85495 0.08926 0.0
C5643 C 0.21286 0.8676 0.09846 0.0
C5644 C 0.16603 0.84246 0.0772 0.0
C5645 C 0.17478 0.8269 0.06565 0.0
C5646 C 0.19936 0.8523 0.08905 0.0
C5647 C 0.19575 0.82344 0.0674 0.0
C5648 C 0.23346 0.86903 0.0929 0.0
C5649 C 0.21675 0.8957 0.12102 0.0
N5650 N 0.20748 0.83637 0.07857 0.0
N5651 N 0.20509 0.88111 0.11208 0.0
H5652 H 0.9296 0.5131 0.89194 0.0
H5653 H 0.94805 0.44486 0.79491 0.0
H5654 H 0.88237 0.485 0.85554 0.0
H5655 H 0.99356 0.45843 0.84069 0.0
H5656 H 0.92587 0.47036 0.80979 0.0
H5657 H 0.95433 0.50529 0.86528 0.0
C5658 C 0.92432 0.50588 0.87805 0.0
C5659 C 0.90414 0.49883 0.87627 0.0
C5660 C 0.94081 0.46795 0.81642 0.0
C5661 C 0.93216 0.4899 0.84601 0.0
C5662 C 0.95344 0.45321 0.80811 0.0
C5663 C 0.97249 0.44907 0.81697 0.0
C5664 C 0.94713 0.47848 0.83389 0.0
C5665 C 0.97883 0.46083 0.83364 0.0
C5666 C 0.93843 0.50141 0.8629 0.0
C5667 C 0.89788 0.49028 0.85774 0.0
N5668 N 0.966 0.47483 0.84179 0.0
N5669 N 0.912 0.48552 0.84351 0.0
H5670 H 0.38466 0.23157 0.60172 0.0
H5671 H 0.30238 0.14401 0.59157 0.0
H5672 H 0.33976 0.2271 0.55413 0.0
H5673 H 0.34737 0.14576 0.63944 0.0
H5674 H 0.32174 0.1697 0.57296 0.0
H5675 H 0.37381 0.19812 0.61442 0.0
C5676 C 0.37187 0.22387 0.59455 0.0
C5677 C 0.36292 0.23178 0.57694 0.0
C5678 C 0.32773 0.16413 0.5873 0.0
C5679 C 0.35116 0.19372 0.59049 0.0
C5680 C 0.31686 0.14927 0.59765 0.0
C5681 C 0.3232 0.14358 0.6171 0.0
C5682 C 0.34438 0.17353 0.59705 0.0
C5683 C 0.342 0.15037 0.62453 0.0
C5684 C 0.36613 0.20461 0.60133 0.0
C5685 C 0.34675 0.22141 0.56783 0.0
N5686 N 0.35173 0.16571 0.61476 0.0
N5687 N 0.34148 0.20271 0.57456 0.0
H5688 H 0.08858 0.09391 0.81156 0.0
H5689 H 0.15661 0.13018 0.89848 0.0
H5690 H 0.06022 0.12698 0.8604 0.0
H5691 H 0.15996 0.06642 0.88186 0.0
H5692 H 0.12311 0.13189 0.88207 0.0
H5693 H 0.11644 0.08443 0.8346 0.0
C5694 C 0.08799 0.09872 0.82733 0.0
C5695 C 0.07247 0.11169 0.83407 0.0
C5696 C 0.13123 0.11753 0.88229 0.0
C5697 C 0.10453 0.10178 0.86001 0.0
C5698 C 0.15036 0.11649 0.89165 0.0
C5699 C 0.16149 0.09819 0.89146 0.0
C5700 C 0.12333 0.10032 0.87229 0.0
C5701 C 0.15249 0.0811 0.88191 0.0
C5702 C 0.10391 0.09345 0.84038 0.0
C5703 C 0.07229 0.11751 0.85456 0.0
N5704 N 0.13415 0.08269 0.8724 0.0
N5705 N 0.08853 0.11312 0.86673 0.0
H5706 H 0.84778 0.41981 0.41496 0.0
H5707 H 0.84633 0.34486 0.51016 0.0
H5708 H 0.85332 0.43719 0.47806 0.0
H5709 H 0.86565 0.32329 0.45134 0.0
H5710 H 0.83722 0.37728 0.49517 0.0
H5711 H 0.84586 0.38376 0.4254 0.0
C5712 C 0.8486 0.41603 0.431 0.0
C5713 C 0.85083 0.4315 0.44573 0.0
C5714 C 0.84302 0.36538 0.48536 0.0
C5715 C 0.84817 0.39057 0.45761 0.0
C5716 C 0.84783 0.34665 0.49383 0.0
C5717 C 0.85696 0.33141 0.48201 0.0
C5718 C 0.84774 0.36919 0.46495 0.0
C5719 C 0.8587 0.3347 0.46097 0.0
C5720 C 0.84747 0.39552 0.43687 0.0
C5721 C 0.85187 0.4258 0.46622 0.0
N5722 N 0.85473 0.35359 0.45311 0.0
N5723 N 0.85044 0.40584 0.47152 0.0
H5724 H 0.97865 0.62828 0.69587 0.0
H5725 H 0.87097 0.57139 0.70905 0.0
H5726 H 0.96113 0.59409 0.74896 0.0
H5727 H 0.87834 0.62744 0.67548 0.0
H5728 H 0.90781 0.5713 0.71598 0.0
H5729 H 0.94574 0.61914 0.68001 0.0
C5730 C 0.96851 0.61782 0.70368 0.0
C5731 C 0.97288 0.61147 0.72361 0.0
C5732 C 0.90136 0.5835 0.70692 0.0
C5733 C 0.93532 0.6013 0.70586 0.0
C5734 C 0.88038 0.58362 0.70308 0.0
C5735 C 0.87159 0.59971 0.69211 0.0
C5736 C 0.9137 0.59937 0.69938 0.0
C5737 C 0.8845 0.61504 0.68445 0.0
C5738 C 0.94959 0.61293 0.6948 0.0
C5739 C 0.95881 0.5986 0.73335 0.0
N5740 N 0.90491 0.61454 0.68828 0.0
N5741 N 0.94065 0.59409 0.72451 0.0
H5742 H 0.63307 0.51346 0.19859 0.0
H5743 H 0.5809 0.40416 0.21196 0.0
H5744 H 0.65292 0.45898 0.16776 0.0
H5745 H 0.56333 0.45687 0.24655 0.0
H5746 H 0.60368 0.42542 0.19169 0.0
H5747 H 0.60545 0.4939 0.21436 0.0
C5748 C 0.63168 0.49732 0.19531 0.0
C5749 C 0.6452 0.48778 0.18184 0.0
C5750 C 0.59458 0.43248 0.20345 0.0
C5751 C 0.61351 0.46546 0.19943 0.0
C5752 C 0.58143 0.42037 0.21485 0.0
C5753 C 0.57031 0.42882 0.23088 0.0
C5754 C 0.59693 0.45315 0.20852 0.0
C5755 C 0.57143 0.44988 0.2341 0.0
C5756 C 0.61586 0.48621 0.20418 0.0
C5757 C 0.6429 0.46685 0.1782 0.0
N5758 N 0.58486 0.46134 0.22324 0.0
N5759 N 0.62726 0.4564 0.18685 0.0
H5760 H 0.62791 0.81265 0.89632 0.0
H5761 H 0.58661 0.90793 0.83436 0.0
H5762 H 0.64727 0.87531 0.90373 0.0
H5763 H 0.55914 0.84867 0.82756 0.0
H5764 H 0.61284 0.89388 0.85505 0.0
H5765 H 0.60613 0.82323 0.86777 0.0
C5766 C 0.62771 0.82858 0.89196 0.0
C5767 C 0.63946 0.84312 0.90265 0.0
C5768 C 0.6013 0.88369 0.84897 0.0
C5769 C 0.61492 0.85511 0.86975 0.0
C5770 C 0.58608 0.89188 0.83691 0.0
C5771 C 0.57052 0.87966 0.82894 0.0
C5772 C 0.60078 0.86294 0.85392 0.0
C5773 C 0.57111 0.85865 0.83312 0.0
C5774 C 0.61538 0.83452 0.87555 0.0
C5775 C 0.63885 0.86341 0.89594 0.0
N5776 N 0.58588 0.85091 0.84561 0.0
N5777 N 0.62677 0.86874 0.88008 0.0
H5778 H 0.41293 0.35347 0.07824 0.0
H5779 H 0.46476 0.32421 0.17899 0.0
H5780 H 0.45828 0.30636 0.08061 0.0
H5781 H 0.44856 0.38703 0.16871 0.0
H5782 H 0.46308 0.31815 0.14223 0.0
H5783 H 0.42749 0.36856 0.10907 0.0
C5784 C 0.42679 0.34702 0.08447 0.0
C5785 C 0.43434 0.32852 0.07686 0.0
C5786 C 0.46019 0.33336 0.14795 0.0
C5787 C 0.45032 0.34497 0.11287 0.0
C5788 C 0.46095 0.33675 0.16895 0.0
C5789 C 0.45661 0.35609 0.17691 0.0
C5790 C 0.45453 0.34928 0.13476 0.0
C5791 C 0.45195 0.37187 0.16317 0.0
C5792 C 0.43486 0.35542 0.10238 0.0
C5793 C 0.45205 0.32066 0.08589 0.0
N5794 N 0.45063 0.36804 0.1428 0.0
N5795 N 0.45894 0.32839 0.10387 0.0
H5796 H 0.92961 0.20761 0.42252 0.0
H5797 H 0.9839 0.21608 0.31533 0.0
H5798 H 0.95122 0.26455 0.39764 0.0
H5799 H 0.9521 0.16362 0.33794 0.0
H5800 H 0.97798 0.23357 0.34783 0.0
H5801 H 0.94836 0.18934 0.39634 0.0
C5802 C 0.93917 0.21621 0.41212 0.0
C5803 C 0.93832 0.23752 0.41145 0.0
C5804 C 0.97246 0.21811 0.34577 0.0
C5805 C 0.95868 0.21706 0.38119 0.0
C5806 C 0.97568 0.20835 0.32726 0.0
C5807 C 0.97 0.18798 0.32493 0.0
C5808 C 0.96277 0.20739 0.36154 0.0
C5809 C 0.95802 0.17884 0.33991 0.0
C5810 C 0.9495 0.20583 0.39693 0.0
C5811 C 0.9511 0.24803 0.398 0.0
N5812 N 0.95504 0.18848 0.35782 0.0
N5813 N 0.96028 0.23768 0.38278 0.0
H5814 H 0.14469 0.71163 0.58076 0.0
H5815 H 0.04011 0.70413 0.64128 0.0
H5816 H 0.09353 0.75123 0.57051 0.0
H5817 H 0.08884 0.66067 0.64851 0.0
H5818 H 0.05939 0.72091 0.61434 0.0
H5819 H 0.12382 0.69075 0.6033 0.0
C5820 C 0.12887 0.71557 0.58278 0.0
C5821 C 0.12066 0.73295 0.57359 0.0
C5822 C 0.06589 0.70769 0.62176 0.0
C5823 C 0.09691 0.70976 0.59985 0.0
C5824 C 0.05496 0.69822 0.63719 0.0
C5825 C 0.06292 0.68098 0.64694 0.0
C5826 C 0.08493 0.69986 0.61605 0.0
C5827 C 0.08229 0.67402 0.64138 0.0
C5828 C 0.11698 0.70372 0.59574 0.0
C5829 C 0.10014 0.73752 0.57676 0.0
N5830 N 0.09266 0.68347 0.62618 0.0
N5831 N 0.08898 0.72613 0.58989 0.0
H5832 H 0.55509 0.20704 0.72166 0.0
H5833 H 0.63096 0.16445 0.64044 0.0
H5834 H 0.58675 0.15024 0.7285 0.0
H5835 H 0.62376 0.22963 0.64707 0.0
H5836 H 0.61419 0.1596 0.67296 0.0
H5837 H 0.57998 0.21721 0.69558 0.0
C5838 C 0.56776 0.19702 0.71843 0.0
C5839 C 0.56884 0.17772 0.72774 0.0
C5840 C 0.61646 0.17501 0.66741 0.0
C5841 C 0.59665 0.18872 0.69701 0.0
C5842 C 0.6262 0.17785 0.64875 0.0
C5843 C 0.62897 0.19754 0.64065 0.0
C5844 C 0.60889 0.19187 0.67814 0.0
C5845 C 0.62169 0.21411 0.65226 0.0
C5846 C 0.58181 0.20274 0.70332 0.0
C5847 C 0.58516 0.16517 0.72223 0.0
N5848 N 0.61178 0.21089 0.67024 0.0
N5849 N 0.59812 0.17066 0.70708 0.0
H5850 H 0.07263 0.36244 0.8888 0.0
H5851 H 0.10456 0.32541 0.99945 0.0
H5852 H 0.05819 0.40008 0.94077 0.0
H5853 H 0.13977 0.32119 0.9441 0.0
H5854 H 0.07824 0.34445 0.98034 0.0
H5855 H 0.08514 0.33632 0.91172 0.0
C5856 C 0.07149 0.36508 0.90502 0.0
C5857 C 0.06501 0.3839 0.91279 0.0
C5858 C 0.09173 0.33905 0.97257 0.0
C5859 C 0.07999 0.35413 0.93906 0.0
C5860 C 0.10682 0.32847 0.98346 0.0
C5861 C 0.12454 0.32191 0.97345 0.0
C5862 C 0.09423 0.34218 0.95156 0.0
C5863 C 0.12646 0.32594 0.95257 0.0
C5864 C 0.0788 0.35014 0.91811 0.0
C5865 C 0.06394 0.38616 0.93409 0.0
N5866 N 0.11149 0.33562 0.94238 0.0
N5867 N 0.07191 0.37164 0.94656 0.0
H5868 H 1.01037 0.84874 0.2153 0.0
H5869 H 0.8953 0.84233 0.17587 0.0
H5870 H 0.96085 0.88086 0.24301 0.0
H5871 H 0.94844 0.83107 0.13887 0.0
H5872 H 0.91767 0.84691 0.2055 0.0
H5873 H 0.98606 0.83167 0.19265 0.0
C5874 C 0.99421 0.85151 0.21729 0.0
C5875 C 0.98745 0.86601 0.23142 0.0
C5876 C 0.92432 0.84318 0.1909 0.0
C5877 C 0.95966 0.847 0.20528 0.0
C5878 C 0.91161 0.84077 0.17395 0.0
C5879 C 0.91997 0.83658 0.15474 0.0
C5880 C 0.94551 0.84131 0.18864 0.0
C5881 C 0.94122 0.83416 0.15334 0.0
C5882 C 0.98039 0.84192 0.20424 0.0
C5883 C 0.96652 0.8693 0.23311 0.0
N5884 N 0.95323 0.83671 0.17 0.0
N5885 N 0.95331 0.86013 0.21999 0.0
H5886 H 0.48736 0.66375 0.40445 0.0
H5887 H 0.40232 0.69706 0.48413 0.0
H5888 H 0.42239 0.65635 0.39579 0.0
H5889 H 0.46258 0.72275 0.48534 0.0
H5890 H 0.41222 0.67484 0.45635 0.0
H5891 H 0.48077 0.68012 0.43726 0.0
C5892 C 0.47171 0.66555 0.40935 0.0
C5893 C 0.45538 0.65857 0.3972 0.0
C5894 C 0.42347 0.68509 0.46284 0.0
C5895 C 0.44792 0.67671 0.43506 0.0
C5896 C 0.41785 0.69758 0.47894 0.0
C5897 C 0.43152 0.71193 0.48686 0.0
C5898 C 0.44302 0.68704 0.45447 0.0
C5899 C 0.45152 0.71211 0.4794 0.0
C5900 C 0.46803 0.67474 0.42818 0.0
C5901 C 0.43551 0.66104 0.40466 0.0
N5902 N 0.45667 0.70005 0.46334 0.0
N5903 N 0.43238 0.66986 0.42306 0.0
H5904 H 0.83425 0.55338 0.84703 0.0
H5905 H 0.9252 0.60268 0.88807 0.0
H5906 H 0.8246 0.59443 0.8972 0.0
H5907 H 0.91262 0.62751 0.82827 0.0
H5908 H 0.88966 0.59215 0.89045 0.0
H5909 H 0.8632 0.57463 0.83623 0.0
C5910 C 0.83742 0.56742 0.85517 0.0
C5911 C 0.82707 0.57179 0.87333 0.0
C5912 C 0.89484 0.59998 0.87686 0.0
C5913 C 0.86055 0.59542 0.86167 0.0
C5914 C 0.91514 0.60617 0.87548 0.0
C5915 C 0.9223 0.6162 0.85797 0.0
C5916 C 0.8816 0.60322 0.86045 0.0
C5917 C 0.90822 0.61946 0.84194 0.0
C5918 C 0.85411 0.57935 0.84913 0.0
C5919 C 0.8322 0.58994 0.88348 0.0
N5920 N 0.88858 0.61272 0.84344 0.0
N5921 N 0.84907 0.60064 0.87801 0.0
H5922 H 0.74276 0.59308 0.09091 0.0
H5923 H 0.70944 0.68321 0.13156 0.0
H5924 H 0.69449 0.57494 0.13138 0.0
H5925 H 0.66721 0.67429 0.08154 0.0
H5926 H 0.71476 0.64636 0.13259 0.0
H5927 H 0.72555 0.62543 0.08497 0.0
C5928 C 0.72797 0.59541 0.09763 0.0
C5929 C 0.71998 0.58125 0.11146 0.0
C5930 C 0.70428 0.65269 0.12152 0.0
C5931 C 0.70082 0.61862 0.10562 0.0
C5932 C 0.70115 0.67373 0.12088 0.0
C5933 C 0.68808 0.6823 0.10621 0.0
C5934 C 0.69463 0.64008 0.10723 0.0
C5935 C 0.67804 0.66878 0.09267 0.0
C5936 C 0.71832 0.614 0.09448 0.0
C5937 C 0.70101 0.58542 0.1204 0.0
N5938 N 0.68183 0.64838 0.09324 0.0
N5939 N 0.69237 0.60417 0.11795 0.0
H5940 H 0.72741 0.46333 0.40355 0.0
H5941 H 0.65359 0.42646 0.31468 0.0
H5942 H 0.7227 0.49726 0.34753 0.0
H5943 H 0.65108 0.40729 0.37756 0.0
H5944 H 0.68314 0.44807 0.32297 0.0
H5945 H 0.7058 0.43746 0.38995 0.0
C5946 C 0.72259 0.46528 0.38812 0.0
C5947 C 0.72759 0.48262 0.37664 0.0
C5948 C 0.67616 0.43895 0.33483 0.0
C5949 C 0.70079 0.45294 0.36117 0.0
C5950 C 0.65917 0.42671 0.33019 0.0
C5951 C 0.64962 0.41495 0.34545 0.0
C5952 C 0.68379 0.43926 0.35479 0.0
C5953 C 0.65796 0.41567 0.36514 0.0
C5954 C 0.70968 0.45035 0.38037 0.0
C5955 C 0.71955 0.48398 0.35683 0.0
N5956 N 0.67443 0.42759 0.36918 0.0
N5957 N 0.70629 0.46948 0.34976 0.0
H5958 H 0.84836 0.38675 0.57705 0.0
H5959 H 0.84796 0.48149 0.64696 0.0
H5960 H 0.8924 0.39799 0.62464 0.0
H5961 H 0.80978 0.47693 0.59371 0.0
H5962 H 0.87067 0.45662 0.63285 0.0
H5963 H 0.83918 0.42289 0.57752 0.0
C5964 C 0.85628 0.39692 0.58741 0.0
C5965 C 0.87077 0.38936 0.60122 0.0
C5966 C 0.85775 0.46147 0.62378 0.0
C5967 C 0.86052 0.43067 0.60174 0.0
C5968 C 0.84482 0.47615 0.63177 0.0
C5969 C 0.82691 0.48154 0.62148 0.0
C5970 C 0.85204 0.45116 0.60594 0.0
C5971 C 0.82357 0.47331 0.60206 0.0
C5972 C 0.85114 0.41757 0.58759 0.0
C5973 C 0.88069 0.40313 0.6142 0.0
N5974 N 0.8356 0.45794 0.59519 0.0
N5975 N 0.87521 0.42307 0.61431 0.0
H5976 H 0.93655 0.48079 0.70762 0.0
H5977 H 0.82913 0.44772 0.67338 0.0
H5978 H 0.92234 0.41671 0.70249 0.0
H5979 H 0.8392 0.50166 0.70951 0.0
H5980 H 0.86157 0.43394 0.68592 0.0
H5981 H 0.90002 0.48818 0.70883 0.0
C5982 C 0.92566 0.46836 0.70653 0.0
C5983 C 0.93224 0.44824 0.70457 0.0
C5984 C 0.85628 0.44845 0.69169 0.0
C5985 C 0.89073 0.4564 0.70602 0.0
C5986 C 0.83773 0.45617 0.68471 0.0
C5987 C 0.83192 0.47587 0.69028 0.0
C5988 C 0.86889 0.46086 0.70388 0.0
C5989 C 0.84353 0.48649 0.7047 0.0
C5990 C 0.9049 0.47249 0.70753 0.0
C5991 C 0.91767 0.43249 0.70373 0.0
N5992 N 0.86182 0.47909 0.71064 0.0
N5993 N 0.89749 0.43691 0.70414 0.0
H5994 H 0.85573 0.57658 0.92832 0.0
H5995 H 0.82659 0.69061 0.94749 0.0
H5996 H 0.79766 0.59656 0.95102 0.0
H5997 H 0.88931 0.67286 0.95601 0.0
H5998 H 0.81679 0.65473 0.9468 0.0
H5999 H 0.87036 0.61003 0.93812 0.0
C6000 C 0.84637 0.58746 0.93641 0.0
C6001 C 0.82549 0.58365 0.93928 0.0
C6002 C 0.83272 0.65861 0.94897 0.0
C6003 C 0.84169 0.62171 0.94972 0.0
C6004 C 0.83829 0.6791 0.94913 0.0
C6005 C 0.85874 0.68466 0.95168 0.0
C6006 C 0.84771 0.64345 0.95105 0.0
C6007 C 0.87333 0.66911 0.95403 0.0
C6008 C 0.85461 0.60659 0.94174 0.0
C6009 C 0.81386 0.59848 0.94919 0.0
N6010 N 0.86758 0.64911 0.95343 0.0
N6011 N 0.82198 0.61687 0.95373 0.0
H6012 H 0.6264 0.60468 0.16258 0.0
H6013 H 0.71786 0.55521 0.20222 0.0
H6014 H 0.64007 0.62836 0.22264 0.0
H6015 H 0.72752 0.59695 0.15253 0.0
H6016 H 0.68874 0.57591 0.21314 0.0
H6017 H 0.6619 0.59436 0.15944 0.0
C6018 C 0.63668 0.60794 0.17507 0.0
C6019 C 0.62983 0.61754 0.19293 0.0
C6020 C 0.69785 0.58092 0.20034 0.0
C6021 C 0.67044 0.60485 0.18953 0.0
C6022 C 0.71464 0.56933 0.19425 0.0
C6023 C 0.72506 0.57414 0.17623 0.0
C6024 C 0.6914 0.5971 0.188 0.0
C6025 C 0.71986 0.5923 0.16623 0.0
C6026 C 0.65694 0.60189 0.17325 0.0
C6027 C 0.64419 0.62058 0.20876 0.0
N6028 N 0.7029 0.60271 0.17175 0.0
N6029 N 0.66376 0.61397 0.20681 0.0
H6030 H 0.75227 0.45562 0.4506 0.0
H6031 H 0.64072 0.4239 0.47678 0.0
H6032 H 0.7013 0.49629 0.44338 0.0
H6033 H 0.69373 0.3863 0.48626 0.0
H6034 H 0.6629 0.45392 0.4745 0.0
H6035 H 0.73193 0.43375 0.47195 0.0
C6036 C 0.73658 0.45972 0.45311 0.0
C6037 C 0.72825 0.47736 0.44442 0.0
C6038 C 0.66963 0.43919 0.47763 0.0
C6039 C 0.70458 0.45227 0.46933 0.0
C6040 C 0.657 0.42207 0.47892 0.0
C6041 C 0.66554 0.40255 0.48083 0.0
C6042 C 0.69085 0.43656 0.47797 0.0
C6043 C 0.68655 0.40102 0.4843 0.0
C6044 C 0.72505 0.44745 0.46583 0.0
C6045 C 0.70823 0.48265 0.44955 0.0
N6046 N 0.69856 0.41775 0.4822 0.0
N6047 N 0.69685 0.46986 0.46134 0.0
H6048 H 0.87828 0.82389 0.61305 0.0
H6049 H 0.85232 0.92402 0.64933 0.0
H6050 H 0.84341 0.84482 0.56154 0.0
H6051 H 0.86168 0.9358 0.5854 0.0
H6052 H 0.85207 0.88715 0.64222 0.0
H6053 H 0.87285 0.85728 0.62944 0.0
C6054 C 0.86837 0.83491 0.6058 0.0
C6055 C 0.86095 0.83144 0.58603 0.0
C6056 C 0.85442 0.89787 0.62989 0.0
C6057 C 0.85546 0.86948 0.60407 0.0
C6058 C 0.85451 0.91882 0.63384 0.0
C6059 C 0.8571 0.93294 0.61787 0.0
C6060 C 0.85657 0.89115 0.60979 0.0
C6061 C 0.85985 0.92548 0.59814 0.0
C6062 C 0.86556 0.85405 0.61498 0.0
C6063 C 0.84887 0.84653 0.57696 0.0
N6064 N 0.85924 0.90509 0.59464 0.0
N6065 N 0.847 0.86504 0.58575 0.0
H6066 H 0.3265 0.6356 0.44647 0.0
H6067 H 0.35836 0.74842 0.47567 0.0
H6068 H 0.34368 0.67748 0.39852 0.0
H6069 H 0.37098 0.694 0.50944 0.0
H6070 H 0.3424 0.72752 0.44849 0.0
H6071 H 0.33036 0.66252 0.47097 0.0
C6072 C 0.33069 0.65059 0.4409 0.0
C6073 C 0.33468 0.6542 0.42021 0.0
C6074 C 0.3489 0.72031 0.46184 0.0
C6075 C 0.34028 0.68505 0.44885 0.0
C6076 C 0.35845 0.73219 0.47686 0.0
C6077 C 0.36793 0.72284 0.49344 0.0
C6078 C 0.34791 0.69911 0.46451 0.0
C6079 C 0.36492 0.70187 0.49627 0.0
C6080 C 0.33305 0.66596 0.45506 0.0
C6081 C 0.34076 0.67394 0.41434 0.0
N6082 N 0.35547 0.69072 0.48183 0.0
N6083 N 0.34372 0.68868 0.4287 0.0
H6084 H 0.57181 0.12292 0.70237 0.0
H6085 H 0.6646 0.05021 0.7144 0.0
H6086 H 0.5828 0.09256 0.75956 0.0
H6087 H 0.66575 0.10328 0.67574 0.0
H6088 H 0.63571 0.06461 0.73283 0.0
H6089 H 0.60539 0.11175 0.69061 0.0
C6090 C 0.58092 0.11307 0.712 0.0
C6091 C 0.57486 0.10861 0.73184 0.0
C6092 C 0.64275 0.07344 0.72079 0.0
C6093 C 0.61302 0.09665 0.71914 0.0
C6094 C 0.65939 0.06541 0.71059 0.0
C6095 C 0.66694 0.07552 0.69343 0.0
C6096 C 0.63372 0.09126 0.71323 0.0
C6097 C 0.65992 0.09507 0.68881 0.0
C6098 C 0.60026 0.10732 0.70564 0.0
C6099 C 0.58718 0.09618 0.74408 0.0
N6100 N 0.64306 0.1021 0.69823 0.0
N6101 N 0.60591 0.09074 0.73761 0.0
H6102 H 0.21328 0.34474 1.00491 0.0
H6103 H 0.20308 0.42459 0.91435 0.0
H6104 H 0.18302 0.32886 0.9489 0.0
H6105 H 0.20851 0.43956 0.97803 0.0
H6106 H 0.20474 0.38812 0.92309 0.0
H6107 H 0.22309 0.37736 0.99047 0.0
C6108 C 0.20964 0.34768 0.98917 0.0
C6109 C 0.19753 0.33401 0.97805 0.0
C6110 C 0.20565 0.39942 0.93508 0.0
C6111 C 0.20749 0.37198 0.96179 0.0
C6112 C 0.20462 0.42014 0.93017 0.0
C6113 C 0.20535 0.43498 0.94559 0.0
C6114 C 0.20787 0.39364 0.9555 0.0
C6115 C 0.20752 0.42856 0.96578 0.0
C6116 C 0.21483 0.36654 0.98106 0.0
C6117 C 0.19259 0.33894 0.95786 0.0
N6118 N 0.20875 0.40836 0.97014 0.0
N6119 N 0.19717 0.35784 0.95046 0.0
H6120 H 0.39472 0.51153 0.70441 0.0
H6121 H 0.47346 0.42349 0.70251 0.0
H6122 H 0.37938 0.45057 0.685 0.0
H6123 H 0.4764 0.4678 0.75083 0.0
H6124 H 0.44017 0.43708 0.69263 0.0
H6125 H 0.42444 0.49803 0.72251 0.0
C6126 C 0.39713 0.49519 0.70484 0.0
C6127 C 0.3852 0.4821 0.69285 0.0
C6128 C 0.44841 0.44412 0.70511 0.0
C6129 C 0.41915 0.46696 0.71225 0.0
C6130 C 0.46763 0.43687 0.71022 0.0
C6131 C 0.47792 0.44512 0.72693 0.0
C6132 C 0.43971 0.45976 0.71677 0.0
C6133 C 0.46936 0.46174 0.73723 0.0
C6134 C 0.41416 0.48755 0.71485 0.0
C6135 C 0.38859 0.46109 0.69385 0.0
N6136 N 0.4506 0.46853 0.73205 0.0
N6137 N 0.40582 0.45415 0.70277 0.0
H6138 H 0.70528 0.11856 0.07929 0.0
H6139 H 0.68493 0.23295 0.10792 0.0
H6140 H 0.70364 0.1361 0.14247 0.0
H6141 H 0.71038 0.21273 0.05104 0.0
H6142 H 0.69372 0.1996 0.123 0.0
H6143 H 0.70756 0.15439 0.06974 0.0
C6144 C 0.70519 0.13008 0.09112 0.0
C6145 C 0.704 0.12452 0.11159 0.0
C6146 C 0.698 0.20283 0.10742 0.0
C6147 C 0.70652 0.16569 0.10092 0.0
C6148 C 0.69319 0.22192 0.09889 0.0
C6149 C 0.69634 0.22529 0.07804 0.0
C6150 C 0.70621 0.1875 0.09489 0.0
C6151 C 0.70726 0.21062 0.06708 0.0
C6152 C 0.7067 0.15054 0.08574 0.0
C6153 C 0.70435 0.13996 0.12645 0.0
N6154 N 0.71138 0.19227 0.07546 0.0
N6155 N 0.70527 0.15997 0.12083 0.0
H6156 H 0.56209 0.92724 0.86177 0.0
H6157 H 0.672 0.97704 0.84987 0.0
H6158 H 0.58123 0.96646 0.81276 0.0
H6159 H 0.65871 0.92888 0.89272 0.0
H6160 H 0.63594 0.97984 0.84221 0.0
H6161 H 0.59372 0.93562 0.88015 0.0
C6162 C 0.57235 0.93859 0.85547 0.0
C6163 C 0.5695 0.94584 0.83559 0.0
C6164 C 0.64079 0.96869 0.85337 0.0
C6165 C 0.60538 0.95518 0.85609 0.0
C6166 C 0.66142 0.96702 0.8577 0.0
C6167 C 0.66835 0.95266 0.87191 0.0
C6168 C 0.62683 0.95566 0.86302 0.0
C6169 C 0.65398 0.93995 0.88143 0.0
C6170 C 0.59058 0.94301 0.86574 0.0
C6171 C 0.58315 0.96035 0.82796 0.0
N6172 N 0.63381 0.94165 0.87671 0.0
N6173 N 0.60075 0.96419 0.83802 0.0
H6174 H 0.87664 0.13601 0.35604 0.0
H6175 H 0.96054 0.09593 0.29597 0.0
H6176 H 0.88983 0.07471 0.37669 0.0
H6177 H 0.97865 0.14009 0.34084 0.0
H6178 H 0.93219 0.08575 0.31818 0.0
H6179 H 0.91123 0.1382 0.34247 0.0
C6180 C 0.88661 0.12304 0.35791 0.0
C6181 C 0.87982 0.10505 0.36746 0.0
C6182 C 0.94296 0.09719 0.32339 0.0
C6183 C 0.91926 0.1074 0.35115 0.0
C6184 C 0.95924 0.10294 0.31085 0.0
C6185 C 0.97211 0.11927 0.31631 0.0
C6186 C 0.93938 0.1082 0.34126 0.0
C6187 C 0.96954 0.12766 0.33573 0.0
C6188 C 0.90633 0.12432 0.35002 0.0
C6189 C 0.89378 0.08868 0.36887 0.0
N6190 N 0.95303 0.12265 0.34719 0.0
N6191 N 0.9127 0.09011 0.36049 0.0
H6192 H 0.40559 0.17597 0.14667 0.0
H6193 H 0.48777 0.20403 0.23108 0.0
H6194 H 0.41826 0.23887 0.16192 0.0
H6195 H 0.46366 0.14449 0.21796 0.0
H6196 H 0.46065 0.21878 0.20943 0.0
H6197 H 0.42517 0.16529 0.17582 0.0
C6198 C 0.41216 0.18762 0.15639 0.0
C6199 C 0.41011 0.20835 0.1518 0.0
C6200 C 0.46108 0.20246 0.21188 0.0
C6201 C 0.43346 0.19614 0.18529 0.0
C6202 C 0.47637 0.19408 0.22438 0.0
C6203 C 0.47792 0.17281 0.22653 0.0
C6204 C 0.44753 0.1893 0.20157 0.0
C6205 C 0.46334 0.16066 0.21689 0.0
C6206 C 0.42357 0.1815 0.17308 0.0
C6207 C 0.41966 0.22267 0.16474 0.0
N6208 N 0.44889 0.16897 0.20494 0.0
N6209 N 0.43114 0.21629 0.18084 0.0
H6210 H 0.59625 0.74778 0.9726 0.0
H6211 H 0.62149 0.65879 0.89479 0.0
H6212 H 0.64144 0.70141 0.98253 0.0
H6213 H 0.58381 0.71061 0.88052 0.0
H6214 H 0.62117 0.66878 0.93069 0.0
H6215 H 0.58289 0.72823 0.94377 0.0
C6216 C 0.60251 0.73281 0.96956 0.0
C6217 C 0.62001 0.72622 0.97998 0.0
C6218 C 0.61287 0.67793 0.91975 0.0
C6219 C 0.60542 0.70418 0.94654 0.0
C6220 C 0.61324 0.67234 0.89925 0.0
C6221 C 0.60314 0.6842 0.88464 0.0
C6222 C 0.60256 0.69569 0.92572 0.0
C6223 C 0.59205 0.70122 0.89131 0.0
C6224 C 0.59518 0.72188 0.95278 0.0
C6225 C 0.62788 0.70703 0.97505 0.0
N6226 N 0.59232 0.70666 0.91132 0.0
N6227 N 0.62085 0.6969 0.95839 0.0
H6228 H 0.113 0.84056 0.63262 0.0
H6229 H 0.11094 0.86828 0.74707 0.0
H6230 H 0.16936 0.84082 0.66684 0.0
H6231 H 0.05983 0.84232 0.71469 0.0
H6232 H 0.13385 0.85528 0.72054 0.0
H6233 H 0.0941 0.83967 0.66399 0.0
C6234 C 0.12148 0.84019 0.64679 0.0
C6235 C 0.14287 0.8405 0.64703 0.0
C6236 C 0.1177 0.85188 0.71963 0.0
C6237 C 0.12104 0.84012 0.68342 0.0
C6238 C 0.10469 0.85916 0.73479 0.0
C6239 C 0.08354 0.85687 0.73251 0.0
C6240 C 0.10925 0.8424 0.70237 0.0
C6241 C 0.07605 0.84496 0.7165 0.0
C6242 C 0.11061 0.83964 0.66479 0.0
C6243 C 0.15288 0.84076 0.66597 0.0
N6244 N 0.08886 0.83849 0.7018 0.0
N6245 N 0.14183 0.84079 0.68352 0.0
H6246 H 0.89771 0.33332 0.47147 0.0
H6247 H 0.98862 0.37991 0.40613 0.0
H6248 H 0.9587 0.31056 0.47704 0.0
H6249 H 0.92448 0.39048 0.39545 0.0
H6250 H 0.9797 0.35831 0.43531 0.0
H6251 H 0.90901 0.35882 0.44782 0.0
C6252 C 0.91359 0.33403 0.46819 0.0
C6253 C 0.92717 0.32013 0.47676 0.0
C6254 C 0.96766 0.36552 0.42662 0.0
C6255 C 0.94065 0.34901 0.44849 0.0
C6256 C 0.97269 0.37777 0.4099 0.0
C6257 C 0.95726 0.38705 0.3982 0.0
C6258 C 0.9471 0.3627 0.43174 0.0
C6259 C 0.93694 0.38399 0.40409 0.0
C6260 C 0.92016 0.34856 0.45436 0.0
C6261 C 0.94775 0.32135 0.47107 0.0
N6262 N 0.93251 0.37208 0.42035 0.0
N6263 N 0.95394 0.33556 0.45717 0.0
H6264 H 0.50021 0.84825 0.33349 0.0
H6265 H 0.41752 0.88125 0.41601 0.0
H6266 H 0.46582 0.90402 0.33162 0.0
H6267 H 0.45429 0.82708 0.4213 0.0
H6268 H 0.43003 0.88601 0.38131 0.0
H6269 H 0.47793 0.83597 0.36092 0.0
C6270 C 0.48744 0.85756 0.33817 0.0
C6271 C 0.48496 0.87721 0.33007 0.0
C6272 C 0.43526 0.87296 0.38996 0.0
C6273 C 0.45992 0.8637 0.36208 0.0
C6274 C 0.4282 0.87031 0.40987 0.0
C6275 C 0.43512 0.85395 0.42181 0.0
C6276 C 0.44955 0.85926 0.38183 0.0
C6277 C 0.44857 0.83997 0.41274 0.0
C6278 C 0.47492 0.85069 0.35408 0.0
C6279 C 0.46856 0.88887 0.33724 0.0
N6280 N 0.45555 0.8431 0.39345 0.0
N6281 N 0.45688 0.88207 0.35292 0.0
H6282 H 1.01026 0.69196 0.13938 0.0
H6283 H 0.90401 0.70791 0.08214 0.0
H6284 H 0.95317 0.66512 0.15815 0.0
H6285 H 0.95696 0.74461 0.06933 0.0
H6286 H 0.92404 0.68745 0.10567 0.0
H6287 H 0.9926 0.70881 0.11107 0.0
C6288 C 0.99395 0.68984 0.13764 0.0
C6289 C 0.98309 0.67717 0.15106 0.0
C6290 C 0.93147 0.69972 0.09745 0.0
C6291 C 0.96301 0.69581 0.11853 0.0
C6292 C 0.92006 0.71123 0.08383 0.0
C6293 C 0.92887 0.72791 0.07385 0.0
C6294 C 0.95179 0.70522 0.10139 0.0
C6295 C 0.94974 0.73163 0.07652 0.0
C6296 C 0.98394 0.6993 0.12143 0.0
C6297 C 0.96203 0.67492 0.14824 0.0
N6298 N 0.9605 0.72057 0.09037 0.0
N6299 N 0.9527 0.68402 0.13219 0.0
H6300 H 0.16085 0.21258 0.87611 0.0
H6301 H 0.05939 0.16116 0.85865 0.0
H6302 H 0.10901 0.22374 0.91498 0.0
H6303 H 0.07756 0.19573 0.80593 0.0
H6304 H 0.08483 0.17856 0.87863 0.0
H6305 H 0.13712 0.20299 0.84848 0.0
C6306 C 0.14459 0.2134 0.87875 0.0
C6307 C 0.13697 0.21859 0.89808 0.0
C6308 C 0.0836 0.18205 0.86254 0.0
C6309 C 0.11015 0.20805 0.8667 0.0
C6310 C 0.06932 0.17183 0.85094 0.0
C6311 C 0.06713 0.17597 0.83013 0.0
C6312 C 0.09591 0.19686 0.85348 0.0
C6313 C 0.07967 0.19108 0.8215 0.0
C6314 C 0.13115 0.20824 0.86291 0.0
C6315 C 0.11574 0.21988 0.90047 0.0
N6316 N 0.0938 0.20104 0.83324 0.0
N6317 N 0.10314 0.21423 0.88513 0.0
H6318 H 0.62988 0.3986 0.65583 0.0
H6319 H 0.59488 0.30962 0.59121 0.0
H6320 H 0.56564 0.38344 0.65797 0.0
H6321 H 0.62892 0.35733 0.56136 0.0
H6322 H 0.58484 0.33392 0.61766 0.0
H6323 H 0.6321 0.3812 0.62299 0.0
C6324 C 0.61618 0.39193 0.64939 0.0
C6325 C 0.5976 0.39236 0.66001 0.0
C6326 C 0.594 0.33919 0.60498 0.0
C6327 C 0.60029 0.3721 0.62267 0.0
C6328 C 0.59961 0.32542 0.5899 0.0
C6329 C 0.61256 0.33166 0.57413 0.0
C6330 C 0.60211 0.35899 0.60463 0.0
C6331 C 0.61866 0.35214 0.57319 0.0
C6332 C 0.61751 0.38201 0.63065 0.0
C6333 C 0.58048 0.38301 0.65085 0.0
N6334 N 0.6139 0.36502 0.58866 0.0
N6335 N 0.58233 0.37291 0.63291 0.0
H6336 H 0.13573 0.4224 0.17958 0.0
H6337 H 0.21772 0.50703 0.20431 0.0
H6338 H 0.12949 0.4652 0.22884 0.0
H6339 H 0.22761 0.45863 0.16129 0.0
H6340 H 0.18922 0.48777 0.21871 0.0
H6341 H 0.17189 0.43165 0.1767 0.0
C6342 C 0.14209 0.43369 0.18986 0.0
C6343 C 0.12966 0.44334 0.20422 0.0
C6344 C 0.19797 0.48101 0.20651 0.0
C6345 C 0.17093 0.45416 0.201 0.0
C6346 C 0.21449 0.49188 0.1985 0.0
C6347 C 0.22495 0.48452 0.18145 0.0
C6348 C 0.19161 0.46284 0.19704 0.0
C6349 C 0.21991 0.46501 0.17429 0.0
C6350 C 0.16274 0.43888 0.18833 0.0
C6351 C 0.1386 0.4576 0.21743 0.0
N6352 N 0.20325 0.45507 0.18174 0.0
N6353 N 0.15861 0.46284 0.21529 0.0
H6354 H 0.35511 0.46955 0.92417 0.0
H6355 H 0.34072 0.36333 0.98279 0.0
H6356 H 0.30174 0.45404 0.95894 0.0
H6357 H 0.37496 0.3698 0.92724 0.0
H6358 H 0.33314 0.40003 0.9818 0.0
H6359 H 0.37015 0.43653 0.93373 0.0
C6360 C 0.34701 0.45966 0.93464 0.0
C6361 C 0.32719 0.46446 0.94091 0.0
C6362 C 0.34241 0.3934 0.9699 0.0
C6363 C 0.344 0.42696 0.95165 0.0
C6364 C 0.34655 0.37253 0.97037 0.0
C6365 C 0.35795 0.36361 0.95474 0.0
C6366 C 0.35015 0.40542 0.95396 0.0
C6367 C 0.36563 0.37613 0.93922 0.0
C6368 C 0.35542 0.44075 0.93981 0.0
C6369 C 0.31708 0.45097 0.95401 0.0
N6370 N 0.36158 0.39645 0.93919 0.0
N6371 N 0.32549 0.43274 0.95882 0.0
H6372 H 0.40889 0.63076 0.70383 0.0
H6373 H 0.31061 0.55797 0.70495 0.0
H6374 H 0.38401 0.60465 0.75879 0.0
H6375 H 0.34371 0.57475 0.651 0.0
H6376 H 0.33374 0.57946 0.7251 0.0
H6377 H 0.38249 0.61333 0.68416 0.0
C6378 C 0.39806 0.62108 0.71172 0.0
C6379 C 0.39862 0.61914 0.73295 0.0
C6380 C 0.33563 0.57875 0.70875 0.0
C6381 C 0.36802 0.59956 0.71063 0.0
C6382 C 0.32225 0.56672 0.69723 0.0
C6383 C 0.32515 0.5648 0.6762 0.0
C6384 C 0.35189 0.58884 0.69903 0.0
C6385 C 0.34078 0.57605 0.66704 0.0
C6386 C 0.38282 0.61134 0.70053 0.0
C6387 C 0.38395 0.6067 0.74243 0.0
N6388 N 0.35362 0.58751 0.67847 0.0
N6389 N 0.36919 0.5974 0.73121 0.0
H6390 H 0.23252 0.68161 0.46264 0.0
H6391 H 0.20157 0.57858 0.41626 0.0
H6392 H 0.16858 0.66687 0.45726 0.0
H6393 H 0.25458 0.58366 0.45468 0.0
H6394 H 0.18733 0.60892 0.43262 0.0
H6395 H 0.24056 0.64524 0.45988 0.0
C6396 C 0.22018 0.6707 0.46099 0.0
C6397 C 0.19987 0.67732 0.45999 0.0
C6398 C 0.2017 0.60291 0.43809 0.0
C6399 C 0.20895 0.63563 0.45678 0.0
C6400 C 0.20964 0.58531 0.42903 0.0
C6401 C 0.22922 0.57851 0.43422 0.0
C6402 C 0.21378 0.61402 0.45193 0.0
C6403 C 0.23931 0.58827 0.45041 0.0
C6404 C 0.22474 0.64993 0.45964 0.0
C6405 C 0.18445 0.66244 0.45808 0.0
N6406 N 0.23187 0.60597 0.45816 0.0
N6407 N 0.18931 0.64234 0.45615 0.0
H6408 H 0.11468 0.59048 0.32729 0.0
H6409 H 0.22207 0.60731 0.38271 0.0
H6410 H 0.12468 0.63215 0.37712 0.0
H6411 H 0.2083 0.55635 0.34363 0.0
H6412 H 0.18934 0.62276 0.37328 0.0
H6413 H 0.15129 0.58306 0.32684 0.0
C6414 C 0.12462 0.59799 0.33817 0.0
C6415 C 0.11665 0.61151 0.35262 0.0
C6416 C 0.19375 0.60849 0.36629 0.0
C6417 C 0.15849 0.60356 0.35188 0.0
C6418 C 0.21254 0.59989 0.3714 0.0
C6419 C 0.2177 0.58065 0.36385 0.0
C6420 C 0.18019 0.59761 0.35366 0.0
C6421 C 0.20473 0.57129 0.34967 0.0
C6422 C 0.14548 0.59389 0.33782 0.0
C6423 C 0.13018 0.62115 0.36615 0.0
N6424 N 0.18638 0.57971 0.34525 0.0
N6425 N 0.15044 0.61694 0.3655 0.0
H6426 H 0.21169 0.37015 0.08092 0.0
H6427 H 0.19723 0.4768 0.13789 0.0
H6428 H 0.17225 0.37721 0.13288 0.0
H6429 H 0.24358 0.46339 0.09393 0.0
H6430 H 0.18168 0.4432 0.13112 0.0
H6431 H 0.21819 0.40668 0.08111 0.0
C6432 C 0.2045 0.37944 0.09248 0.0
C6433 C 0.19163 0.37062 0.10706 0.0
C6434 C 0.19489 0.44796 0.12245 0.0
C6435 C 0.19893 0.41266 0.10736 0.0
C6436 C 0.20355 0.46724 0.12605 0.0
C6437 C 0.22176 0.47282 0.11632 0.0
C6438 C 0.20452 0.43454 0.10884 0.0
C6439 C 0.22952 0.45982 0.10145 0.0
C6440 C 0.20811 0.40034 0.09253 0.0
C6441 C 0.18263 0.38339 0.12164 0.0
N6442 N 0.22108 0.44122 0.09835 0.0
N6443 N 0.18651 0.40383 0.12149 0.0
H6444 H 0.32821 0.48827 0.84659 0.0
H6445 H 0.42262 0.44757 0.88821 0.0
H6446 H 0.32266 0.45057 0.89991 0.0
H6447 H 0.41074 0.41954 0.82967 0.0
H6448 H 0.3865 0.45538 0.89094 0.0
H6449 H 0.3576 0.46784 0.83593 0.0
C6450 C 0.33229 0.47494 0.85545 0.0
C6451 C 0.32322 0.47154 0.87451 0.0
C6452 C 0.39195 0.44743 0.87756 0.0
C6453 C 0.35715 0.44886 0.8629 0.0
C6454 C 0.4126 0.44281 0.87598 0.0
C6455 C 0.42014 0.4327 0.85871 0.0
C6456 C 0.37865 0.44255 0.86156 0.0
C6457 C 0.40603 0.42774 0.84312 0.0
C6458 C 0.3493 0.46353 0.84951 0.0
C6459 C 0.32945 0.45428 0.88548 0.0
N6460 N 0.386 0.43299 0.84477 0.0
N6461 N 0.34658 0.44414 0.88004 0.0
H6462 H 0.41452 0.64035 0.59413 0.0
H6463 H 0.30221 0.59385 0.60049 0.0
H6464 H 0.35799 0.67397 0.59231 0.0
H6465 H 0.35487 0.55858 0.61751 0.0
H6466 H 0.32432 0.6206 0.58783 0.0
H6467 H 0.39467 0.60839 0.59525 0.0
C6468 C 0.39803 0.64107 0.59387 0.0
C6469 C 0.38798 0.66 0.59313 0.0
C6470 C 0.3312 0.60702 0.59419 0.0
C6471 C 0.36537 0.62361 0.59389 0.0
C6472 C 0.31854 0.59175 0.60151 0.0
C6473 C 0.32673 0.57442 0.61087 0.0
C6474 C 0.35237 0.60528 0.59665 0.0
C6475 C 0.34799 0.57195 0.61072 0.0
C6476 C 0.38677 0.62283 0.59432 0.0
C6477 C 0.36658 0.65992 0.59247 0.0
N6478 N 0.36021 0.58757 0.60427 0.0
N6479 N 0.35611 0.64211 0.59291 0.0
H6480 H 0.17928 0.1278 0.42404 0.0
H6481 H 0.20761 0.20107 0.50767 0.0
H6482 H 0.23255 0.11498 0.46034 0.0
H6483 H 0.18975 0.22645 0.44976 0.0
H6484 H 0.21861 0.17023 0.49065 0.0
H6485 H 0.18256 0.1641 0.4329 0.0
C6486 C 0.19163 0.13269 0.4339 0.0
C6487 C 0.20537 0.11846 0.44193 0.0
C6488 C 0.21294 0.18276 0.48152 0.0
C6489 C 0.20932 0.15968 0.45188 0.0
C6490 C 0.20684 0.20053 0.49121 0.0
C6491 C 0.19773 0.21639 0.48011 0.0
C6492 C 0.20903 0.1804 0.46071 0.0
C6493 C 0.19671 0.21457 0.45885 0.0
C6494 C 0.1937 0.15336 0.43864 0.0
C6495 C 0.22146 0.12552 0.45418 0.0
N6496 N 0.2015 0.19648 0.44986 0.0
N6497 N 0.22274 0.14561 0.45917 0.0
H6498 H 0.65082 0.32664 0.5887 0.0
H6499 H 0.73994 0.39766 0.62897 0.0
H6500 H 0.70817 0.3295 0.5572 0.0
H6501 H 0.67611 0.40256 0.64438 0.0
H6502 H 0.73185 0.36802 0.6076 0.0
H6503 H 0.66377 0.34779 0.61481 0.0
C6504 C 0.66645 0.33071 0.58747 0.0
C6505 C 0.67843 0.32521 0.57078 0.0
C6506 C 0.71974 0.37554 0.61585 0.0
C6507 C 0.69338 0.35184 0.60068 0.0
C6508 C 0.72425 0.39254 0.62795 0.0
C6509 C 0.70863 0.40284 0.63843 0.0
C6510 C 0.69954 0.36866 0.61445 0.0
C6511 C 0.68873 0.39511 0.63689 0.0
C6512 C 0.67385 0.34351 0.6025 0.0
C6513 C 0.69845 0.33292 0.57005 0.0
N6514 N 0.6848 0.3786 0.62509 0.0
N6515 N 0.70531 0.34607 0.5847 0.0
H6516 H 0.46534 0.95778 0.30668 0.0
H6517 H 0.41746 0.95881 0.41812 0.0
H6518 H 0.49668 0.9323 0.35846 0.0
H6519 H 0.38396 0.96252 0.36159 0.0
H6520 H 0.44944 0.95759 0.39853 0.0
H6521 H 0.43888 0.97059 0.32927 0.0
C6522 C 0.46676 0.95525 0.32291 0.0
C6523 C 0.48263 0.94346 0.33079 0.0
C6524 C 0.43502 0.95881 0.39055 0.0
C6525 C 0.45257 0.95771 0.35659 0.0
C6526 C 0.41686 0.95922 0.40165 0.0
C6527 C 0.39813 0.96071 0.39141 0.0
C6528 C 0.43425 0.96003 0.36922 0.0
C6529 C 0.3981 0.96156 0.37008 0.0
C6530 C 0.45172 0.96252 0.33578 0.0
C6531 C 0.48439 0.94116 0.35191 0.0
N6532 N 0.41586 0.96124 0.35973 0.0
N6533 N 0.46915 0.94781 0.36418 0.0
H6534 H 0.87387 0.62695 0.13316 0.0
H6535 H 0.84291 0.70856 0.05154 0.0
H6536 H 0.82769 0.6162 0.08756 0.0
H6537 H 0.87589 0.72488 0.10583 0.0
H6538 H 0.83333 0.6763 0.06691 0.0
H6539 H 0.87276 0.66353 0.12533 0.0
C6540 C 0.86367 0.63233 0.12134 0.0
C6541 C 0.85123 0.61858 0.11059 0.0
C6542 C 0.84215 0.68708 0.07582 0.0
C6543 C 0.8496 0.66029 0.10181 0.0
C6544 C 0.84738 0.70569 0.06708 0.0
C6545 C 0.86019 0.71932 0.0774 0.0
C6546 C 0.85038 0.6818 0.09482 0.0
C6547 C 0.86591 0.71471 0.09743 0.0
C6548 C 0.8628 0.6532 0.11711 0.0
C6549 C 0.83776 0.62632 0.09594 0.0
N6550 N 0.86148 0.69599 0.10532 0.0
N6551 N 0.83749 0.64662 0.09179 0.0
H6552 H 0.60056 0.60027 0.29726 0.0
H6553 H 0.64019 0.57247 0.40348 0.0
H6554 H 0.56188 0.59928 0.35035 0.0
H6555 H 0.67453 0.56498 0.34824 0.0
H6556 H 0.60855 0.57077 0.38381 0.0
H6557 H 0.62405 0.57754 0.31408 0.0
C6558 C 0.59697 0.59523 0.31256 0.0
C6559 C 0.5795 0.60221 0.32271 0.0
C6560 C 0.62293 0.56877 0.376 0.0
C6561 C 0.60685 0.57632 0.34235 0.0
C6562 C 0.64094 0.56963 0.38725 0.0
C6563 C 0.65977 0.56941 0.37726 0.0
C6564 C 0.624 0.56838 0.35467 0.0
C6565 C 0.66019 0.56554 0.35635 0.0
C6566 C 0.61034 0.58197 0.32208 0.0
C6567 C 0.57537 0.59457 0.34217 0.0
N6568 N 0.64251 0.56578 0.3456 0.0
N6569 N 0.58929 0.58243 0.35163 0.0
H6570 H 0.37049 0.81418 0.94179 0.0
H6571 H 0.33363 0.9287 0.96163 0.0
H6572 H 0.34162 0.83636 0.99624 0.0
H6573 H 0.3768 0.91344 0.91468 0.0
H6574 H 0.32956 0.89264 0.96937 0.0
H6575 H 0.3646 0.84775 0.92581 0.0
C6576 C 0.36187 0.82559 0.94997 0.0
C6577 C 0.35711 0.82265 0.9706 0.0
C6578 C 0.33996 0.89707 0.95735 0.0
C6579 C 0.35029 0.8607 0.95261 0.0
C6580 C 0.34238 0.9177 0.95303 0.0
C6581 C 0.35572 0.92411 0.93763 0.0
C6582 C 0.35103 0.88249 0.94633 0.0
C6583 C 0.36664 0.90914 0.92693 0.0
C6584 C 0.35893 0.84489 0.94102 0.0
C6585 C 0.34578 0.83789 0.98038 0.0
N6586 N 0.36411 0.88897 0.93152 0.0
N6587 N 0.34319 0.85632 0.97151 0.0
H6588 H 0.38368 0.08484 0.15996 0.0
H6589 H 0.48415 0.11636 0.19453 0.0
H6590 H 0.37126 0.11674 0.21601 0.0
H6591 H 0.4591 0.09391 0.25088 0.0
H6592 H 0.45141 0.10847 0.17759 0.0
H6593 H 0.42003 0.08342 0.16943 0.0
C6594 C 0.38857 0.09154 0.17424 0.0
C6595 C 0.37436 0.10085 0.18733 0.0
C6596 C 0.45347 0.10457 0.19348 0.0
C6597 C 0.41563 0.09909 0.19809 0.0
C6598 C 0.47223 0.10873 0.20306 0.0
C6599 C 0.47402 0.10629 0.22423 0.0
C6600 C 0.43688 0.0979 0.20533 0.0
C6601 C 0.45808 0.09653 0.23463 0.0
C6602 C 0.40927 0.09081 0.17948 0.0
C6603 C 0.3816 0.10949 0.20547 0.0
N6604 N 0.43991 0.09344 0.22528 0.0
N6605 N 0.40167 0.10815 0.21042 0.0
H6606 H 0.15265 0.92277 0.65452 0.0
H6607 H 0.07059 0.95473 0.73735 0.0
H6608 H 0.14548 0.98556 0.67317 0.0
H6609 H 0.08566 0.89409 0.71756 0.0
H6610 H 0.09194 0.96831 0.70944 0.0
H6611 H 0.12194 0.91401 0.67245 0.0
C6612 C 0.14441 0.93491 0.66201 0.0
C6613 C 0.15182 0.95499 0.66219 0.0
C6614 C 0.08985 0.95199 0.71095 0.0
C6615 C 0.11662 0.94471 0.68397 0.0
C6616 C 0.07754 0.94426 0.7267 0.0
C6617 C 0.07589 0.92309 0.72972 0.0
C6618 C 0.10035 0.93832 0.69826 0.0
C6619 C 0.08582 0.91027 0.71599 0.0
C6620 C 0.12683 0.92981 0.67254 0.0
C6621 C 0.14057 0.96979 0.67289 0.0
N6622 N 0.0975 0.91803 0.70101 0.0
N6623 N 0.12365 0.9643 0.68364 0.0
loop_
_geom_bond_atom_site_label_1
_geom_bond_atom_site_label_2
_geom_bond_distance
_geom_bond_site_symmetry_2
_ccdc_geom_bond_type
Gd0 N31 2.661 . S
Gd0 N37 2.601 . S
Gd0 O44 2.545 . S
Gd0 O45 2.606 . S
Gd0 O47 2.429 . S
Gd0 O48 2.545 . S
Gd0 O49 2.412 . S
Gd0 O51 2.362 . S
Gd0 O52 2.324 . S
Gd0 C59 2.828 . S
Gd1 N10 2.661 1_455 S
Gd1 N14 2.601 1_455 S
Gd1 O45 2.362 . S
Gd1 O46 2.322 . S
Gd1 O50 2.543 1_455 S
Gd1 O51 2.606 . S
Gd1 O53 2.429 . S
Gd1 O54 2.545 . S
Gd1 O55 2.412 1_455 S
Gd1 C68 2.828 1_455 S
C2 C5 1.417 . S
C2 C7 1.431 . S
C2 C8 1.412 . S
C3 C6 1.437 . S
C3 C7 1.317 . S
C3 H22 0.929 . S
C4 C5 1.426 . S
C4 C6 1.413 . S
C4 N14 1.359 . S
C5 C2 1.417 . S
C5 C4 1.426 . S
C5 N10 1.350 . S
C6 C3 1.437 . S
C6 C4 1.413 . S
C6 C16 1.391 . S
C7 C2 1.431 . S
C7 C3 1.317 . S
C7 H18 0.930 . S
C8 C2 1.412 . S
C8 C9 1.355 . S
C8 H20 0.930 . S
C9 C8 1.355 . S
C9 C11 1.402 . S
C9 H21 0.930 . S
N10 Gd1 2.661 1_655 S
N10 C5 1.350 . S
N10 C11 1.307 . S
C11 C9 1.402 . S
C11 N10 1.307 . S
C11 H12 0.930 . S
H12 C11 0.930 . S
C13 N14 1.334 1_455 S
C13 C15 1.395 . S
C13 H17 0.930 . S
N14 Gd1 2.601 1_655 S
N14 C4 1.359 . S
N14 C13 1.334 1_655 S
C15 C13 1.395 . S
C15 C16 1.358 1_455 S
C15 H27 0.931 . S
C16 C6 1.391 . S
C16 C15 1.358 1_655 S
C16 H28 0.929 . S
H17 C13 0.930 . S
H18 C7 0.930 . S
H19 C36 0.930 . S
H20 C8 0.930 . S
H21 C9 0.930 . S
H22 C3 0.929 . S
H23 C41 0.930 . S
H24 C32 0.930 . S
H25 C33 0.930 . S
H26 C57 0.929 . S
H27 C15 0.931 . S
H28 C16 0.929 . S
H29 C58 0.930 . S
H30 C39 0.930 . S
N31 Gd0 2.661 . S
N31 C35 1.350 . S
N31 C36 1.307 . S
C32 H24 0.930 . S
C32 C33 1.355 . S
C32 C34 1.412 . S
C33 H25 0.930 . S
C33 C32 1.355 . S
C33 C36 1.402 . S
C34 C32 1.412 . S
C34 C35 1.417 . S
C34 C58 1.431 . S
C35 N31 1.350 . S
C35 C34 1.417 . S
C35 C38 1.426 . S
C36 H19 0.930 . S
C36 N31 1.307 . S
C36 C33 1.402 . S
N37 Gd0 2.601 . S
N37 C38 1.359 . S
N37 C41 1.334 . S
C38 C35 1.426 . S
C38 N37 1.359 . S
C38 C42 1.413 . S
C39 H30 0.930 . S
C39 C40 1.359 . S
C39 C41 1.394 . S
C40 C39 1.359 . S
C40 C42 1.391 . S
C40 H43 0.929 . S
C41 H23 0.930 . S
C41 N37 1.334 . S
C41 C39 1.394 . S
C42 C38 1.413 . S
C42 C40 1.391 . S
C42 C57 1.437 . S
H43 C40 0.929 . S
O44 Gd0 2.545 . S
O44 C59 1.258 . S
O45 Gd0 2.606 . S
O45 Gd1 2.362 . S
O45 C56 1.284 . S
O46 Gd1 2.322 . S
O46 C66 1.252 . S
O47 Gd0 2.429 . S
O47 C66 1.268 . S
O48 Gd0 2.545 . S
O48 C56 1.250 . S
O49 Gd0 2.412 . S
O49 C59 1.252 . S
O50 Gd1 2.543 1_655 S
O50 C68 1.264 . S
O51 Gd0 2.362 . S
O51 Gd1 2.606 . S
O51 C67 1.284 . S
O52 Gd0 2.324 . S
O52 C75 1.254 . S
O53 Gd1 2.429 . S
O53 C75 1.268 . S
O54 Gd1 2.545 . S
O54 C67 1.250 . S
O55 Gd1 2.412 1_655 S
O55 C68 1.252 . S
C56 O45 1.284 . S
C56 O48 1.250 . S
C57 H26 0.929 . S
C57 C42 1.437 . S
C57 C58 1.317 . S
C58 H29 0.930 . S
C58 C34 1.431 . S
C58 C57 1.317 . S
C59 Gd0 2.828 . S
C59 O44 1.258 . S
C59 O49 1.252 . S
C59 C60 1.497 . S
C60 C59 1.497 . S
C60 C61 1.395 . S
C60 C62 1.380 . S
C61 C60 1.395 . S
C61 C64 1.398 . S
C61 H76 0.930 . S
C62 C60 1.380 . S
C62 C63 1.391 . S
C62 H77 0.930 . S
C63 C62 1.391 . S
C63 C65 1.387 . S
C64 C61 1.398 . S
C64 C65 1.380 . S
C64 H78 0.930 . S
C65 C63 1.387 . S
C65 C64 1.380 . S
C65 H79 0.930 . S
C66 O46 1.252 . S
C66 O47 1.268 . S
C67 O51 1.284 . S
C67 O54 1.250 . S
C68 Gd1 2.828 1_655 S
C68 O50 1.264 . S
C68 O55 1.252 . S
C68 C69 1.497 . S
C69 C68 1.497 . S
C69 C70 1.395 . S
C69 C71 1.380 . S
C70 C69 1.395 . S
C70 C73 1.398 . S
C70 H80 0.930 . S
C71 C69 1.380 . S
C71 C72 1.391 . S
C71 H81 0.930 . S
C72 C71 1.391 . S
C72 C74 1.387 . S
C73 C70 1.398 . S
C73 C74 1.380 . S
C73 H82 0.930 . S
C74 C72 1.387 . S
C74 C73 1.380 . S
C74 H83 0.930 . S
C75 O52 1.254 . S
C75 O53 1.268 . S
H76 C61 0.930 . S
H77 C62 0.930 . S
H78 C64 0.930 . S
H79 C65 0.930 . S
H80 C70 0.930 . S
H81 C71 0.930 . S
H82 C73 0.930 . S
H83 C74 0.930 . S
Gd84 N115 2.661 . S
Gd84 N121 2.601 . S
Gd84 O128 2.545 . S
Gd84 O129 2.606 . S
Gd84 O131 2.429 . S
Gd84 O132 2.545 . S
Gd84 O133 2.412 . S
Gd84 O135 2.362 . S
Gd84 O136 2.324 . S
Gd84 C143 2.828 . S
Gd85 N94 2.661 . S
Gd85 N98 2.601 . S
Gd85 O129 2.362 . S
Gd85 O130 2.324 . S
Gd85 O134 2.545 . S
Gd85 O135 2.606 . S
Gd85 O137 2.429 . S
Gd85 O138 2.545 . S
Gd85 O139 2.412 . S
Gd85 C152 2.828 . S
C86 C89 1.417 . S
C86 C91 1.431 . S
C86 C92 1.412 . S
C87 C90 1.437 . S
C87 C91 1.317 . S
C87 H106 0.929 . S
C88 C89 1.426 . S
C88 C90 1.413 . S
C88 N98 1.359 . S
C89 C86 1.417 . S
C89 C88 1.426 . S
C89 N94 1.350 . S
C90 C87 1.437 . S
C90 C88 1.413 . S
C90 C100 1.391 . S
C91 C86 1.431 . S
C91 C87 1.317 . S
C91 H102 0.930 . S
C92 C86 1.412 . S
C92 C93 1.355 . S
C92 H104 0.930 . S
C93 C92 1.355 . S
C93 C95 1.402 . S
C93 H105 0.930 . S
N94 Gd85 2.661 . S
N94 C89 1.350 . S
N94 C95 1.307 . S
C95 C93 1.402 . S
C95 N94 1.307 . S
C95 H96 0.930 . S
H96 C95 0.930 . S
C97 N98 1.334 . S
C97 C99 1.394 . S
C97 H101 0.930 . S
N98 Gd85 2.601 . S
N98 C88 1.359 . S
N98 C97 1.334 . S
C99 C97 1.394 . S
C99 C100 1.359 . S
C99 H111 0.930 . S
C100 C90 1.391 . S
C100 C99 1.359 . S
C100 H112 0.929 . S
H101 C97 0.930 . S
H102 C91 0.930 . S
H103 C120 0.930 . S
H104 C92 0.930 . S
H105 C93 0.930 . S
H106 C87 0.929 . S
H107 C125 0.930 . S
H108 C116 0.930 . S
H109 C117 0.930 . S
H110 C141 0.929 . S
H111 C99 0.930 . S
H112 C100 0.929 . S
H113 C142 0.930 . S
H114 C123 0.930 . S
N115 Gd84 2.661 . S
N115 C119 1.350 . S
N115 C120 1.307 . S
C116 H108 0.930 . S
C116 C117 1.355 . S
C116 C118 1.412 . S
C117 H109 0.930 . S
C117 C116 1.355 . S
C117 C120 1.402 . S
C118 C116 1.412 . S
C118 C119 1.417 . S
C118 C142 1.431 . S
C119 N115 1.350 . S
C119 C118 1.417 . S
C119 C122 1.426 . S
C120 H103 0.930 . S
C120 N115 1.307 . S
C120 C117 1.402 . S
N121 Gd84 2.601 . S
N121 C122 1.359 . S
N121 C125 1.334 . S
C122 C119 1.426 . S
C122 N121 1.359 . S
C122 C126 1.413 . S
C123 H114 0.930 . S
C123 C124 1.359 . S
C123 C125 1.394 . S
C124 C123 1.359 . S
C124 C126 1.391 . S
C124 H127 0.929 . S
C125 H107 0.930 . S
C125 N121 1.334 . S
C125 C123 1.394 . S
C126 C122 1.413 . S
C126 C124 1.391 . S
C126 C141 1.437 . S
H127 C124 0.929 . S
O128 Gd84 2.545 . S
O128 C143 1.258 . S
O129 Gd84 2.606 . S
O129 Gd85 2.362 . S
O129 C140 1.284 . S
O130 Gd85 2.324 . S
O130 C150 1.254 . S
O131 Gd84 2.429 . S
O131 C150 1.268 . S
O132 Gd84 2.545 . S
O132 C140 1.250 . S
O133 Gd84 2.412 . S
O133 C143 1.252 . S
O134 Gd85 2.545 . S
O134 C152 1.258 . S
O135 Gd84 2.362 . S
O135 Gd85 2.606 . S
O135 C151 1.284 . S
O136 Gd84 2.324 . S
O136 C159 1.254 . S
O137 Gd85 2.429 . S
O137 C159 1.268 . S
O138 Gd85 2.545 . S
O138 C151 1.250 . S
O139 Gd85 2.412 . S
O139 C152 1.252 . S
C140 O129 1.284 . S
C140 O132 1.250 . S
C141 H110 0.929 . S
C141 C126 1.437 . S
C141 C142 1.317 . S
C142 H113 0.930 . S
C142 C118 1.431 . S
C142 C141 1.317 . S
C143 Gd84 2.828 . S
C143 O128 1.258 . S
C143 O133 1.252 . S
C143 C144 1.497 . S
C144 C143 1.497 . S
C144 C145 1.395 . S
C144 C146 1.380 . S
C145 C144 1.395 . S
C145 C148 1.398 . S
C145 H160 0.930 . S
C146 C144 1.380 . S
C146 C147 1.391 . S
C146 H161 0.930 . S
C147 C146 1.391 . S
C147 C149 1.387 . S
C148 C145 1.398 . S
C148 C149 1.380 . S
C148 H162 0.930 . S
C149 C147 1.387 . S
C149 C148 1.380 . S
C149 H163 0.930 . S
C150 O130 1.254 . S
C150 O131 1.268 . S
C151 O135 1.284 . S
C151 O138 1.250 . S
C152 Gd85 2.828 . S
C152 O134 1.258 . S
C152 O139 1.252 . S
C152 C153 1.497 . S
C153 C152 1.497 . S
C153 C154 1.395 . S
C153 C155 1.380 . S
C154 C153 1.395 . S
C154 C157 1.398 . S
C154 H164 0.930 . S
C155 C153 1.380 . S
C155 C156 1.391 . S
C155 H165 0.930 . S
C156 C155 1.391 . S
C156 C158 1.387 . S
C157 C154 1.398 . S
C157 C158 1.380 . S
C157 H166 0.930 . S
C158 C156 1.387 . S
C158 C157 1.380 . S
C158 H167 0.930 . S
C159 O136 1.254 . S
C159 O137 1.268 . S
H160 C145 0.930 . S
H161 C146 0.930 . S
H162 C148 0.930 . S
H163 C149 0.930 . S
H164 C154 0.930 . S
H165 C155 0.930 . S
H166 C157 0.930 . S
H167 C158 0.930 . S
Gd168 N199 2.661 . S
Gd168 N205 2.601 . S
Gd168 O212 2.545 . S
Gd168 O213 2.606 . S
Gd168 O215 2.429 . S
Gd168 O216 2.545 . S
Gd168 O217 2.412 . S
Gd168 O219 2.362 . S
Gd168 O220 2.324 . S
Gd168 C227 2.828 . S
Gd169 N178 2.661 . S
Gd169 N182 2.601 . S
Gd169 O213 2.362 . S
Gd169 O214 2.324 . S
Gd169 O218 2.545 . S
Gd169 O219 2.606 . S
Gd169 O221 2.429 . S
Gd169 O222 2.545 . S
Gd169 O223 2.412 . S
Gd169 C236 2.828 . S
C170 C173 1.417 . S
C170 C175 1.431 . S
C170 C176 1.412 . S
C171 C174 1.437 . S
C171 C175 1.317 . S
C171 H190 0.929 . S
C172 C173 1.426 . S
C172 C174 1.413 . S
C172 N182 1.359 . S
C173 C170 1.417 . S
C173 C172 1.426 . S
C173 N178 1.350 . S
C174 C171 1.437 . S
C174 C172 1.413 . S
C174 C184 1.391 . S
C175 C170 1.431 . S
C175 C171 1.317 . S
C175 H186 0.930 . S
C176 C170 1.412 . S
C176 C177 1.355 . S
C176 H188 0.930 . S
C177 C176 1.355 . S
C177 C179 1.402 . S
C177 H189 0.930 . S
N178 Gd169 2.661 . S
N178 C173 1.350 . S
N178 C179 1.307 . S
C179 C177 1.402 . S
C179 N178 1.307 . S
C179 H180 0.930 . S
H180 C179 0.930 . S
C181 N182 1.334 . S
C181 C183 1.394 . S
C181 H185 0.930 . S
N182 Gd169 2.601 . S
N182 C172 1.359 . S
N182 C181 1.334 . S
C183 C181 1.394 . S
C183 C184 1.359 . S
C183 H195 0.930 . S
C184 C174 1.391 . S
C184 C183 1.359 . S
C184 H196 0.929 . S
H185 C181 0.930 . S
H186 C175 0.930 . S
H187 C204 0.930 . S
H188 C176 0.930 . S
H189 C177 0.930 . S
H190 C171 0.929 . S
H191 C209 0.930 . S
H192 C200 0.930 . S
H193 C201 0.930 . S
H194 C225 0.929 . S
H195 C183 0.930 . S
H196 C184 0.929 . S
H197 C226 0.930 . S
H198 C207 0.930 . S
N199 Gd168 2.661 . S
N199 C203 1.350 . S
N199 C204 1.307 . S
C200 H192 0.930 . S
C200 C201 1.355 . S
C200 C202 1.412 . S
C201 H193 0.930 . S
C201 C200 1.355 . S
C201 C204 1.402 . S
C202 C200 1.412 . S
C202 C203 1.417 . S
C202 C226 1.431 . S
C203 N199 1.350 . S
C203 C202 1.417 . S
C203 C206 1.426 . S
C204 H187 0.930 . S
C204 N199 1.307 . S
C204 C201 1.402 . S
N205 Gd168 2.601 . S
N205 C206 1.359 . S
N205 C209 1.334 . S
C206 C203 1.426 . S
C206 N205 1.359 . S
C206 C210 1.413 . S
C207 H198 0.930 . S
C207 C208 1.359 . S
C207 C209 1.394 . S
C208 C207 1.359 . S
C208 C210 1.391 . S
C208 H211 0.929 . S
C209 H191 0.930 . S
C209 N205 1.334 . S
C209 C207 1.394 . S
C210 C206 1.413 . S
C210 C208 1.391 . S
C210 C225 1.437 . S
H211 C208 0.929 . S
O212 Gd168 2.545 . S
O212 C227 1.258 . S
O213 Gd168 2.606 . S
O213 Gd169 2.362 . S
O213 C224 1.284 . S
O214 Gd169 2.324 . S
O214 C234 1.254 . S
O215 Gd168 2.429 . S
O215 C234 1.268 . S
O216 Gd168 2.545 . S
O216 C224 1.250 . S
O217 Gd168 2.412 . S
O217 C227 1.252 . S
O218 Gd169 2.545 . S
O218 C236 1.258 . S
O219 Gd168 2.362 . S
O219 Gd169 2.606 . S
O219 C235 1.284 . S
O220 Gd168 2.324 . S
O220 C243 1.254 . S
O221 Gd169 2.429 . S
O221 C243 1.268 . S
O222 Gd169 2.545 . S
O222 C235 1.250 . S
O223 Gd169 2.412 . S
O223 C236 1.252 . S
C224 O213 1.284 . S
C224 O216 1.250 . S
C225 H194 0.929 . S
C225 C210 1.437 . S
C225 C226 1.317 . S
C226 H197 0.930 . S
C226 C202 1.431 . S
C226 C225 1.317 . S
C227 Gd168 2.828 . S
C227 O212 1.258 . S
C227 O217 1.252 . S
C227 C228 1.497 . S
C228 C227 1.497 . S
C228 C229 1.395 . S
C228 C230 1.380 . S
C229 C228 1.395 . S
C229 C232 1.398 . S
C229 H244 0.930 . S
C230 C228 1.380 . S
C230 C231 1.391 . S
C230 H245 0.930 . S
C231 C230 1.391 . S
C231 C233 1.387 . S
C232 C229 1.398 . S
C232 C233 1.380 . S
C232 H246 0.930 . S
C233 C231 1.387 . S
C233 C232 1.380 . S
C233 H247 0.930 . S
C234 O214 1.254 . S
C234 O215 1.268 . S
C235 O219 1.284 . S
C235 O222 1.250 . S
C236 Gd169 2.828 . S
C236 O218 1.258 . S
C236 O223 1.252 . S
C236 C237 1.497 . S
C237 C236 1.497 . S
C237 C238 1.395 . S
C237 C239 1.380 . S
C238 C237 1.395 . S
C238 C241 1.398 . S
C238 H248 0.930 . S
C239 C237 1.380 . S
C239 C240 1.391 . S
C239 H249 0.930 . S
C240 C239 1.391 . S
C240 C242 1.387 . S
C241 C238 1.398 . S
C241 C242 1.380 . S
C241 H250 0.930 . S
C242 C240 1.387 . S
C242 C241 1.380 . S
C242 H251 0.930 . S
C243 O220 1.254 . S
C243 O221 1.268 . S
H244 C229 0.930 . S
H245 C230 0.930 . S
H246 C232 0.930 . S
H247 C233 0.930 . S
H248 C238 0.930 . S
H249 C239 0.930 . S
H250 C241 0.930 . S
H251 C242 0.930 . S
Gd252 N283 2.661 . S
Gd252 N289 2.601 1_554 S
Gd252 O296 2.545 1_554 S
Gd252 O297 2.606 . S
Gd252 O299 2.429 . S
Gd252 O300 2.545 1_554 S
Gd252 O301 2.412 1_554 S
Gd252 O303 2.362 . S
Gd252 O304 2.324 . S
Gd252 C311 2.828 1_554 S
Gd253 N262 2.661 . S
Gd253 N266 2.601 . S
Gd253 O297 2.362 . S
Gd253 O298 2.324 . S
Gd253 O302 2.545 . S
Gd253 O303 2.606 . S
Gd253 O305 2.429 . S
Gd253 O306 2.545 . S
Gd253 O307 2.412 . S
Gd253 C320 2.828 . S
C254 C257 1.417 . S
C254 C259 1.431 . S
C254 C260 1.412 . S
C255 C258 1.437 . S
C255 C259 1.317 . S
C255 H274 0.929 . S
C256 C257 1.426 . S
C256 C258 1.413 . S
C256 N266 1.359 . S
C257 C254 1.417 . S
C257 C256 1.426 . S
C257 N262 1.350 . S
C258 C255 1.437 . S
C258 C256 1.413 . S
C258 C268 1.391 . S
C259 C254 1.431 . S
C259 C255 1.317 . S
C259 H270 0.930 . S
C260 C254 1.412 . S
C260 C261 1.355 . S
C260 H272 0.930 . S
C261 C260 1.355 . S
C261 C263 1.402 . S
C261 H273 0.930 1_554 S
N262 Gd253 2.661 . S
N262 C257 1.350 . S
N262 C263 1.307 . S
C263 C261 1.402 . S
C263 N262 1.307 . S
C263 H264 0.930 . S
H264 C263 0.930 . S
C265 N266 1.334 . S
C265 C267 1.394 . S
C265 H269 0.930 . S
N266 Gd253 2.601 . S
N266 C256 1.359 . S
N266 C265 1.334 . S
C267 C265 1.394 . S
C267 C268 1.359 . S
C267 H279 0.930 . S
C268 C258 1.391 . S
C268 C267 1.359 . S
C268 H280 0.929 . S
H269 C265 0.930 . S
H270 C259 0.930 . S
H271 C288 0.930 . S
H272 C260 0.930 . S
H273 C261 0.930 1_556 S
H274 C255 0.929 . S
H275 C293 0.930 . S
H276 C284 0.930 . S
H277 C285 0.930 . S
H278 C309 0.929 . S
H279 C267 0.930 . S
H280 C268 0.929 . S
H281 C310 0.930 . S
H282 C291 0.930 . S
N283 Gd252 2.661 . S
N283 C287 1.350 . S
N283 C288 1.307 . S
C284 H276 0.930 . S
C284 C285 1.355 . S
C284 C286 1.412 . S
C285 H277 0.930 . S
C285 C284 1.355 . S
C285 C288 1.402 . S
C286 C284 1.412 . S
C286 C287 1.417 . S
C286 C310 1.431 . S
C287 N283 1.350 . S
C287 C286 1.417 . S
C287 C290 1.426 . S
C288 H271 0.930 . S
C288 N283 1.307 . S
C288 C285 1.402 . S
N289 Gd252 2.601 1_556 S
N289 C290 1.359 1_556 S
N289 C293 1.334 . S
C290 C287 1.426 . S
C290 N289 1.359 1_554 S
C290 C294 1.413 1_554 S
C291 H282 0.930 . S
C291 C292 1.359 . S
C291 C293 1.394 . S
C292 C291 1.359 . S
C292 C294 1.391 . S
C292 H295 0.929 . S
C293 H275 0.930 . S
C293 N289 1.334 . S
C293 C291 1.394 . S
C294 C290 1.413 1_556 S
C294 C292 1.391 . S
C294 C309 1.437 1_556 S
H295 C292 0.929 . S
O296 Gd252 2.545 1_556 S
O296 C311 1.258 . S
O297 Gd252 2.606 . S
O297 Gd253 2.362 . S
O297 C308 1.284 . S
O298 Gd253 2.324 . S
O298 C318 1.254 . S
O299 Gd252 2.429 . S
O299 C318 1.268 . S
O300 Gd252 2.545 1_556 S
O300 C308 1.250 1_556 S
O301 Gd252 2.412 1_556 S
O301 C311 1.252 . S
O302 Gd253 2.545 . S
O302 C320 1.258 . S
O303 Gd252 2.362 . S
O303 Gd253 2.606 . S
O303 C319 1.284 . S
O304 Gd252 2.324 . S
O304 C327 1.254 . S
O305 Gd253 2.429 . S
O305 C327 1.268 . S
O306 Gd253 2.545 . S
O306 C319 1.250 . S
O307 Gd253 2.412 . S
O307 C320 1.252 . S
C308 O297 1.284 . S
C308 O300 1.250 1_554 S
C309 H278 0.929 . S
C309 C294 1.437 1_554 S
C309 C310 1.317 . S
C310 H281 0.930 . S
C310 C286 1.431 . S
C310 C309 1.317 . S
C311 Gd252 2.828 1_556 S
C311 O296 1.258 . S
C311 O301 1.252 . S
C311 C312 1.497 . S
C312 C311 1.497 . S
C312 C313 1.395 . S
C312 C314 1.380 . S
C313 C312 1.395 . S
C313 C316 1.398 . S
C313 H328 0.930 . S
C314 C312 1.380 . S
C314 C315 1.391 . S
C314 H329 0.930 . S
C315 C314 1.391 . S
C315 C317 1.387 . S
C316 C313 1.398 . S
C316 C317 1.380 . S
C316 H330 0.930 . S
C317 C315 1.387 . S
C317 C316 1.380 . S
C317 H331 0.930 . S
C318 O298 1.254 . S
C318 O299 1.268 . S
C319 O303 1.284 . S
C319 O306 1.250 . S
C320 Gd253 2.828 . S
C320 O302 1.258 . S
C320 O307 1.252 . S
C320 C321 1.497 . S
C321 C320 1.497 . S
C321 C322 1.395 . S
C321 C323 1.380 . S
C322 C321 1.395 . S
C322 C325 1.398 . S
C322 H332 0.930 . S
C323 C321 1.380 . S
C323 C324 1.391 . S
C323 H333 0.930 . S
C324 C323 1.391 . S
C324 C326 1.387 . S
C325 C322 1.398 . S
C325 C326 1.380 . S
C325 H334 0.930 . S
C326 C324 1.387 . S
C326 C325 1.380 . S
C326 H335 0.930 . S
C327 O304 1.254 . S
C327 O305 1.268 . S
H328 C313 0.930 . S
H329 C314 0.930 . S
H330 C316 0.930 . S
H331 C317 0.930 . S
H332 C322 0.930 . S
H333 C323 0.930 . S
H334 C325 0.930 . S
H335 C326 0.930 . S
Gd336 N367 2.661 . S
Gd336 N373 2.601 . S
Gd336 O380 2.545 . S
Gd336 O381 2.606 . S
Gd336 O383 2.429 . S
Gd336 O384 2.545 . S
Gd336 O385 2.412 . S
Gd336 O387 2.362 . S
Gd336 O388 2.324 . S
Gd336 C395 2.828 . S
Gd337 N346 2.661 1_455 S
Gd337 N350 2.601 1_455 S
Gd337 O381 2.362 . S
Gd337 O382 2.307 1_455 S
Gd337 O386 2.545 1_455 S
Gd337 O387 2.606 . S
Gd337 O389 2.429 . S
Gd337 O390 2.545 . S
Gd337 O391 2.412 1_455 S
Gd337 C404 2.828 1_455 S
C338 C341 1.417 . S
C338 C343 1.431 . S
C338 C344 1.412 . S
C339 C342 1.437 . S
C339 C343 1.317 . S
C339 H358 0.929 . S
C340 C341 1.426 . S
C340 C342 1.413 . S
C340 N350 1.359 . S
C341 C338 1.417 . S
C341 C340 1.426 . S
C341 N346 1.350 . S
C342 C339 1.437 . S
C342 C340 1.413 . S
C342 C352 1.391 . S
C343 C338 1.431 . S
C343 C339 1.317 . S
C343 H354 0.930 . S
C344 C338 1.412 . S
C344 C345 1.355 . S
C344 H356 0.930 . S
C345 C344 1.355 . S
C345 C347 1.402 . S
C345 H357 0.930 . S
N346 Gd337 2.661 1_655 S
N346 C341 1.350 . S
N346 C347 1.307 . S
C347 C345 1.402 . S
C347 N346 1.307 . S
C347 H348 0.930 . S
H348 C347 0.930 . S
C349 N350 1.334 1_455 S
C349 C351 1.394 1_455 S
C349 H353 0.930 . S
N350 Gd337 2.601 1_655 S
N350 C340 1.359 . S
N350 C349 1.334 1_655 S
C351 C349 1.394 1_655 S
C351 C352 1.359 . S
C351 H363 0.930 1_655 S
C352 C342 1.391 . S
C352 C351 1.359 . S
C352 H364 0.929 . S
H353 C349 0.930 . S
H354 C343 0.930 . S
H355 C372 0.930 . S
H356 C344 0.930 . S
H357 C345 0.930 . S
H358 C339 0.929 . S
H359 C377 0.930 . S
H360 C368 0.930 . S
H361 C369 0.930 . S
H362 C393 0.929 . S
H363 C351 0.930 1_455 S
H364 C352 0.929 . S
H365 C394 0.930 . S
H366 C375 0.930 . S
N367 Gd336 2.661 . S
N367 C371 1.350 . S
N367 C372 1.307 . S
C368 H360 0.930 . S
C368 C369 1.355 . S
C368 C370 1.412 . S
C369 H361 0.930 . S
C369 C368 1.355 . S
C369 C372 1.402 . S
C370 C368 1.412 . S
C370 C371 1.417 . S
C370 C394 1.431 . S
C371 N367 1.350 . S
C371 C370 1.417 . S
C371 C374 1.426 . S
C372 H355 0.930 . S
C372 N367 1.307 . S
C372 C369 1.402 . S
N373 Gd336 2.601 . S
N373 C374 1.359 . S
N373 C377 1.334 . S
C374 C371 1.426 . S
C374 N373 1.359 . S
C374 C378 1.413 . S
C375 H366 0.930 . S
C375 C376 1.359 . S
C375 C377 1.394 . S
C376 C375 1.359 . S
C376 C378 1.391 . S
C376 H379 0.929 . S
C377 H359 0.930 . S
C377 N373 1.334 . S
C377 C375 1.394 . S
C378 C374 1.413 . S
C378 C376 1.391 . S
C378 C393 1.437 . S
H379 C376 0.929 . S
O380 Gd336 2.545 . S
O380 C395 1.258 . S
O381 Gd336 2.606 . S
O381 Gd337 2.362 . S
O381 C392 1.284 . S
O382 Gd337 2.307 1_655 S
O382 C402 1.234 1_655 S
O383 Gd336 2.429 . S
O383 C402 1.268 . S
O384 Gd336 2.545 . S
O384 C392 1.250 . S
O385 Gd336 2.412 . S
O385 C395 1.252 . S
O386 Gd337 2.545 1_655 S
O386 C404 1.258 . S
O387 Gd336 2.362 . S
O387 Gd337 2.606 . S
O387 C403 1.284 . S
O388 Gd336 2.324 . S
O388 C411 1.254 . S
O389 Gd337 2.429 . S
O389 C411 1.268 . S
O390 Gd337 2.545 . S
O390 C403 1.250 . S
O391 Gd337 2.412 1_655 S
O391 C404 1.252 . S
C392 O381 1.284 . S
C392 O384 1.250 . S
C393 H362 0.929 . S
C393 C378 1.437 . S
C393 C394 1.317 . S
C394 H365 0.930 . S
C394 C370 1.431 . S
C394 C393 1.317 . S
C395 Gd336 2.828 . S
C395 O380 1.258 . S
C395 O385 1.252 . S
C395 C396 1.497 . S
C396 C395 1.497 . S
C396 C397 1.395 . S
C396 C398 1.380 . S
C397 C396 1.395 . S
C397 C400 1.398 . S
C397 H412 0.930 . S
C398 C396 1.380 . S
C398 C399 1.391 . S
C398 H413 0.930 . S
C399 C398 1.391 . S
C399 C401 1.387 . S
C400 C397 1.398 . S
C400 C401 1.380 . S
C400 H414 0.930 . S
C401 C399 1.387 . S
C401 C400 1.380 . S
C401 H415 0.930 . S
C402 O382 1.234 1_455 S
C402 O383 1.268 . S
C403 O387 1.284 . S
C403 O390 1.250 . S
C404 Gd337 2.828 1_655 S
C404 O386 1.258 . S
C404 O391 1.252 . S
C404 C405 1.497 . S
C405 C404 1.497 . S
C405 C406 1.395 . S
C405 C407 1.380 . S
C406 C405 1.395 . S
C406 C409 1.398 . S
C406 H416 0.930 . S
C407 C405 1.380 . S
C407 C408 1.391 . S
C407 H417 0.930 . S
C408 C407 1.391 . S
C408 C410 1.387 . S
C409 C406 1.398 . S
C409 C410 1.380 . S
C409 H418 0.930 . S
C410 C408 1.387 . S
C410 C409 1.380 . S
C410 H419 0.930 . S
C411 O388 1.254 . S
C411 O389 1.268 . S
H412 C397 0.930 . S
H413 C398 0.930 . S
H414 C400 0.930 . S
H415 C401 0.930 . S
H416 C406 0.930 . S
H417 C407 0.930 . S
H418 C409 0.930 . S
H419 C410 0.930 . S
Gd420 N451 2.661 . S
Gd420 N457 2.601 . S
Gd420 O464 2.545 . S
Gd420 O465 2.606 . S
Gd420 O467 2.429 . S
Gd420 O468 2.545 . S
Gd420 O469 2.412 . S
Gd420 O471 2.362 . S
Gd420 O472 2.324 . S
Gd420 C479 2.828 . S
Gd421 N430 2.661 . S
Gd421 N434 2.601 . S
Gd421 O465 2.362 . S
Gd421 O466 2.324 . S
Gd421 O470 2.545 . S
Gd421 O471 2.606 . S
Gd421 O473 2.429 . S
Gd421 O474 2.545 . S
Gd421 O475 2.412 . S
Gd421 C488 2.828 . S
C422 C425 1.417 . S
C422 C427 1.431 . S
C422 C428 1.412 . S
C423 C426 1.437 . S
C423 C427 1.317 . S
C423 H442 0.929 . S
C424 C425 1.426 . S
C424 C426 1.413 . S
C424 N434 1.359 . S
C425 C422 1.417 . S
C425 C424 1.426 . S
C425 N430 1.350 . S
C426 C423 1.437 . S
C426 C424 1.413 . S
C426 C436 1.391 . S
C427 C422 1.431 . S
C427 C423 1.317 . S
C427 H438 0.930 . S
C428 C422 1.412 . S
C428 C429 1.355 . S
C428 H440 0.930 . S
C429 C428 1.355 . S
C429 C431 1.402 . S
C429 H441 0.930 . S
N430 Gd421 2.661 . S
N430 C425 1.350 . S
N430 C431 1.307 . S
C431 C429 1.402 . S
C431 N430 1.307 . S
C431 H432 0.930 . S
H432 C431 0.930 . S
C433 N434 1.334 . S
C433 C435 1.394 . S
C433 H437 0.930 . S
N434 Gd421 2.601 . S
N434 C424 1.359 . S
N434 C433 1.334 . S
C435 C433 1.394 . S
C435 C436 1.359 . S
C435 H447 0.930 . S
C436 C426 1.391 . S
C436 C435 1.359 . S
C436 H448 0.929 . S
H437 C433 0.930 . S
H438 C427 0.930 . S
H439 C456 0.930 . S
H440 C428 0.930 . S
H441 C429 0.930 . S
H442 C423 0.929 . S
H443 C461 0.930 . S
H444 C452 0.930 . S
H445 C453 0.930 . S
H446 C477 0.929 . S
H447 C435 0.930 . S
H448 C436 0.929 . S
H449 C478 0.930 . S
H450 C459 0.930 . S
N451 Gd420 2.661 . S
N451 C455 1.350 . S
N451 C456 1.307 . S
C452 H444 0.930 . S
C452 C453 1.355 . S
C452 C454 1.412 . S
C453 H445 0.930 . S
C453 C452 1.355 . S
C453 C456 1.402 . S
C454 C452 1.412 . S
C454 C455 1.417 . S
C454 C478 1.431 . S
C455 N451 1.350 . S
C455 C454 1.417 . S
C455 C458 1.426 . S
C456 H439 0.930 . S
C456 N451 1.307 . S
C456 C453 1.402 . S
N457 Gd420 2.601 . S
N457 C458 1.359 . S
N457 C461 1.334 . S
C458 C455 1.426 . S
C458 N457 1.359 . S
C458 C462 1.413 . S
C459 H450 0.930 . S
C459 C460 1.359 . S
C459 C461 1.394 . S
C460 C459 1.359 . S
C460 C462 1.391 . S
C460 H463 0.929 . S
C461 H443 0.930 . S
C461 N457 1.334 . S
C461 C459 1.394 . S
C462 C458 1.413 . S
C462 C460 1.391 . S
C462 C477 1.437 . S
H463 C460 0.929 . S
O464 Gd420 2.545 . S
O464 C479 1.258 . S
O465 Gd420 2.606 . S
O465 Gd421 2.362 . S
O465 C476 1.284 . S
O466 Gd421 2.324 . S
O466 C486 1.254 . S
O467 Gd420 2.429 . S
O467 C486 1.268 . S
O468 Gd420 2.545 . S
O468 C476 1.250 . S
O469 Gd420 2.412 . S
O469 C479 1.252 . S
O470 Gd421 2.545 . S
O470 C488 1.258 . S
O471 Gd420 2.362 . S
O471 Gd421 2.606 . S
O471 C487 1.284 . S
O472 Gd420 2.324 . S
O472 C495 1.254 . S
O473 Gd421 2.429 . S
O473 C495 1.268 . S
O474 Gd421 2.545 . S
O474 C487 1.250 . S
O475 Gd421 2.412 . S
O475 C488 1.252 . S
C476 O465 1.284 . S
C476 O468 1.250 . S
C477 H446 0.929 . S
C477 C462 1.437 . S
C477 C478 1.317 . S
C478 H449 0.930 . S
C478 C454 1.431 . S
C478 C477 1.317 . S
C479 Gd420 2.828 . S
C479 O464 1.258 . S
C479 O469 1.252 . S
C479 C480 1.497 . S
C480 C479 1.497 . S
C480 C481 1.395 . S
C480 C482 1.380 . S
C481 C480 1.395 . S
C481 C484 1.398 . S
C481 H496 0.930 . S
C482 C480 1.380 . S
C482 C483 1.391 . S
C482 H497 0.930 . S
C483 C482 1.391 . S
C483 C485 1.387 . S
C484 C481 1.398 . S
C484 C485 1.380 . S
C484 H498 0.930 . S
C485 C483 1.387 . S
C485 C484 1.380 . S
C485 H499 0.930 . S
C486 O466 1.254 . S
C486 O467 1.268 . S
C487 O471 1.284 . S
C487 O474 1.250 . S
C488 Gd421 2.828 . S
C488 O470 1.258 . S
C488 O475 1.252 . S
C488 C489 1.497 . S
C489 C488 1.497 . S
C489 C490 1.395 . S
C489 C491 1.380 . S
C490 C489 1.395 . S
C490 C493 1.398 . S
C490 H500 0.930 . S
C491 C489 1.380 . S
C491 C492 1.391 . S
C491 H501 0.930 . S
C492 C491 1.391 . S
C492 C494 1.387 . S
C493 C490 1.398 . S
C493 C494 1.380 . S
C493 H502 0.930 . S
C494 C492 1.387 . S
C494 C493 1.380 . S
C494 H503 0.930 . S
C495 O472 1.254 . S
C495 O473 1.268 . S
H496 C481 0.930 . S
H497 C482 0.930 . S
H498 C484 0.930 . S
H499 C485 0.930 . S
H500 C490 0.930 . S
H501 C491 0.930 . S
H502 C493 0.930 . S
H503 C494 0.930 . S
Gd504 N535 2.661 . S
Gd504 N541 2.601 . S
Gd504 O548 2.545 . S
Gd504 O549 2.606 . S
Gd504 O551 2.429 . S
Gd504 O552 2.545 . S
Gd504 O553 2.412 . S
Gd504 O555 2.362 . S
Gd504 O556 2.324 . S
Gd504 C563 2.828 . S
Gd505 N514 2.661 . S
Gd505 N518 2.601 . S
Gd505 O549 2.362 . S
Gd505 O550 2.324 . S
Gd505 O554 2.545 . S
Gd505 O555 2.606 . S
Gd505 O557 2.429 . S
Gd505 O558 2.545 . S
Gd505 O559 2.412 . S
Gd505 C572 2.828 . S
C506 C509 1.417 . S
C506 C511 1.431 . S
C506 C512 1.412 . S
C507 C510 1.437 . S
C507 C511 1.317 . S
C507 H526 0.929 . S
C508 C509 1.426 . S
C508 C510 1.413 . S
C508 N518 1.359 . S
C509 C506 1.417 . S
C509 C508 1.426 . S
C509 N514 1.350 . S
C510 C507 1.437 . S
C510 C508 1.413 . S
C510 C520 1.391 . S
C511 C506 1.431 . S
C511 C507 1.317 . S
C511 H522 0.930 . S
C512 C506 1.412 . S
C512 C513 1.355 . S
C512 H524 0.930 . S
C513 C512 1.355 . S
C513 C515 1.402 . S
C513 H525 0.930 . S
N514 Gd505 2.661 . S
N514 C509 1.350 . S
N514 C515 1.307 . S
C515 C513 1.402 . S
C515 N514 1.307 . S
C515 H516 0.930 . S
H516 C515 0.930 . S
C517 N518 1.334 . S
C517 C519 1.394 . S
C517 H521 0.930 . S
N518 Gd505 2.601 . S
N518 C508 1.359 . S
N518 C517 1.334 . S
C519 C517 1.394 . S
C519 C520 1.359 . S
C519 H531 0.930 . S
C520 C510 1.391 . S
C520 C519 1.359 . S
C520 H532 0.929 . S
H521 C517 0.930 . S
H522 C511 0.930 . S
H523 C540 0.930 . S
H524 C512 0.930 . S
H525 C513 0.930 . S
H526 C507 0.929 . S
H527 C545 0.930 . S
H528 C536 0.930 . S
H529 C537 0.930 . S
H530 C561 0.929 . S
H531 C519 0.930 . S
H532 C520 0.929 . S
H533 C562 0.930 . S
H534 C543 0.930 . S
N535 Gd504 2.661 . S
N535 C539 1.350 . S
N535 C540 1.307 . S
C536 H528 0.930 . S
C536 C537 1.355 . S
C536 C538 1.412 . S
C537 H529 0.930 . S
C537 C536 1.355 . S
C537 C540 1.402 . S
C538 C536 1.412 . S
C538 C539 1.417 . S
C538 C562 1.431 . S
C539 N535 1.350 . S
C539 C538 1.417 . S
C539 C542 1.426 . S
C540 H523 0.930 . S
C540 N535 1.307 . S
C540 C537 1.402 . S
N541 Gd504 2.601 . S
N541 C542 1.359 . S
N541 C545 1.334 . S
C542 C539 1.426 . S
C542 N541 1.359 . S
C542 C546 1.413 . S
C543 H534 0.930 . S
C543 C544 1.359 . S
C543 C545 1.394 . S
C544 C543 1.359 . S
C544 C546 1.391 . S
C544 H547 0.929 . S
C545 H527 0.930 . S
C545 N541 1.334 . S
C545 C543 1.394 . S
C546 C542 1.413 . S
C546 C544 1.391 . S
C546 C561 1.437 . S
H547 C544 0.929 . S
O548 Gd504 2.545 . S
O548 C563 1.258 . S
O549 Gd504 2.606 . S
O549 Gd505 2.362 . S
O549 C560 1.284 . S
O550 Gd505 2.324 . S
O550 C570 1.254 . S
O551 Gd504 2.429 . S
O551 C570 1.268 . S
O552 Gd504 2.545 . S
O552 C560 1.250 . S
O553 Gd504 2.412 . S
O553 C563 1.252 . S
O554 Gd505 2.545 . S
O554 C572 1.258 . S
O555 Gd504 2.362 . S
O555 Gd505 2.606 . S
O555 C571 1.284 . S
O556 Gd504 2.324 . S
O556 C579 1.254 . S
O557 Gd505 2.429 . S
O557 C579 1.268 . S
O558 Gd505 2.545 . S
O558 C571 1.250 . S
O559 Gd505 2.412 . S
O559 C572 1.252 . S
C560 O549 1.284 . S
C560 O552 1.250 . S
C561 H530 0.929 . S
C561 C546 1.437 . S
C561 C562 1.317 . S
C562 H533 0.930 . S
C562 C538 1.431 . S
C562 C561 1.317 . S
C563 Gd504 2.828 . S
C563 O548 1.258 . S
C563 O553 1.252 . S
C563 C564 1.497 . S
C564 C563 1.497 . S
C564 C565 1.395 . S
C564 C566 1.380 . S
C565 C564 1.395 . S
C565 C568 1.398 . S
C565 H580 0.930 . S
C566 C564 1.380 . S
C566 C567 1.391 . S
C566 H581 0.930 . S
C567 C566 1.391 . S
C567 C569 1.387 . S
C568 C565 1.398 . S
C568 C569 1.380 . S
C568 H582 0.930 . S
C569 C567 1.387 . S
C569 C568 1.380 . S
C569 H583 0.930 . S
C570 O550 1.254 . S
C570 O551 1.268 . S
C571 O555 1.284 . S
C571 O558 1.250 . S
C572 Gd505 2.828 . S
C572 O554 1.258 . S
C572 O559 1.252 . S
C572 C573 1.497 . S
C573 C572 1.497 . S
C573 C574 1.395 . S
C573 C575 1.380 . S
C574 C573 1.395 . S
C574 C577 1.398 . S
C574 H584 0.930 . S
C575 C573 1.380 . S
C575 C576 1.391 . S
C575 H585 0.930 . S
C576 C575 1.391 . S
C576 C578 1.387 . S
C577 C574 1.398 . S
C577 C578 1.380 . S
C577 H586 0.930 . S
C578 C576 1.387 . S
C578 C577 1.380 . S
C578 H587 0.930 . S
C579 O556 1.254 . S
C579 O557 1.268 . S
H580 C565 0.930 . S
H581 C566 0.930 . S
H582 C568 0.930 . S
H583 C569 0.930 . S
H584 C574 0.930 . S
H585 C575 0.930 . S
H586 C577 0.930 . S
H587 C578 0.930 . S
Gd588 N619 2.661 . S
Gd588 N625 2.601 . S
Gd588 O632 2.545 . S
Gd588 O633 2.606 . S
Gd588 O635 2.429 . S
Gd588 O636 2.545 . S
Gd588 O637 2.412 . S
Gd588 O639 2.362 . S
Gd588 O640 2.324 . S
Gd588 C647 2.828 . S
Gd589 N598 2.661 1_556 S
Gd589 N602 2.601 1_556 S
Gd589 O633 2.362 . S
Gd589 O634 2.324 1_556 S
Gd589 O638 2.545 1_556 S
Gd589 O639 2.606 . S
Gd589 O641 2.429 . S
Gd589 O642 2.545 . S
Gd589 O643 2.412 1_556 S
Gd589 C656 2.828 1_556 S
C590 C593 1.417 . S
C590 C595 1.431 . S
C590 C596 1.412 . S
C591 C594 1.437 . S
C591 C595 1.317 . S
C591 H610 0.929 . S
C592 C593 1.426 . S
C592 C594 1.413 . S
C592 N602 1.359 . S
C593 C590 1.417 . S
C593 C592 1.426 . S
C593 N598 1.350 . S
C594 C591 1.437 . S
C594 C592 1.413 . S
C594 C604 1.391 . S
C595 C590 1.431 . S
C595 C591 1.317 . S
C595 H606 0.930 . S
C596 C590 1.412 . S
C596 C597 1.355 . S
C596 H608 0.930 . S
C597 C596 1.355 . S
C597 C599 1.402 . S
C597 H609 0.930 . S
N598 Gd589 2.661 1_554 S
N598 C593 1.350 . S
N598 C599 1.307 . S
C599 C597 1.402 . S
C599 N598 1.307 . S
C599 H600 0.930 . S
H600 C599 0.930 . S
C601 N602 1.334 1_556 S
C601 C603 1.394 1_556 S
C601 H605 0.930 . S
N602 Gd589 2.601 1_554 S
N602 C592 1.359 . S
N602 C601 1.334 1_554 S
C603 C601 1.394 1_554 S
C603 C604 1.359 . S
C603 H615 0.930 1_554 S
C604 C594 1.391 . S
C604 C603 1.359 . S
C604 H616 0.929 . S
H605 C601 0.930 . S
H606 C595 0.930 . S
H607 C624 0.930 . S
H608 C596 0.930 . S
H609 C597 0.930 . S
H610 C591 0.929 . S
H611 C629 0.930 . S
H612 C620 0.930 . S
H613 C621 0.930 . S
H614 C645 0.929 . S
H615 C603 0.930 1_556 S
H616 C604 0.929 . S
H617 C646 0.930 . S
H618 C627 0.930 . S
N619 Gd588 2.661 . S
N619 C623 1.350 . S
N619 C624 1.307 . S
C620 H612 0.930 . S
C620 C621 1.355 . S
C620 C622 1.412 . S
C621 H613 0.930 . S
C621 C620 1.355 . S
C621 C624 1.402 . S
C622 C620 1.412 . S
C622 C623 1.417 . S
C622 C646 1.431 . S
C623 N619 1.350 . S
C623 C622 1.417 . S
C623 C626 1.426 . S
C624 H607 0.930 . S
C624 N619 1.307 . S
C624 C621 1.402 . S
N625 Gd588 2.601 . S
N625 C626 1.359 . S
N625 C629 1.334 . S
C626 C623 1.426 . S
C626 N625 1.359 . S
C626 C630 1.413 . S
C627 H618 0.930 . S
C627 C628 1.359 . S
C627 C629 1.394 . S
C628 C627 1.359 . S
C628 C630 1.391 . S
C628 H631 0.929 . S
C629 H611 0.930 . S
C629 N625 1.334 . S
C629 C627 1.394 . S
C630 C626 1.413 . S
C630 C628 1.391 . S
C630 C645 1.437 . S
H631 C628 0.929 . S
O632 Gd588 2.545 . S
O632 C647 1.258 . S
O633 Gd588 2.606 . S
O633 Gd589 2.362 . S
O633 C644 1.284 . S
O634 Gd589 2.324 1_554 S
O634 C654 1.254 1_554 S
O635 Gd588 2.429 . S
O635 C654 1.268 . S
O636 Gd588 2.545 . S
O636 C644 1.250 . S
O637 Gd588 2.412 . S
O637 C647 1.252 . S
O638 Gd589 2.545 1_554 S
O638 C656 1.258 . S
O639 Gd588 2.362 . S
O639 Gd589 2.606 . S
O639 C655 1.284 . S
O640 Gd588 2.324 . S
O640 C663 1.254 . S
O641 Gd589 2.429 . S
O641 C663 1.268 . S
O642 Gd589 2.545 . S
O642 C655 1.250 . S
O643 Gd589 2.412 1_554 S
O643 C656 1.252 . S
C644 O633 1.284 . S
C644 O636 1.250 . S
C645 H614 0.929 . S
C645 C630 1.437 . S
C645 C646 1.317 . S
C646 H617 0.930 . S
C646 C622 1.431 . S
C646 C645 1.317 . S
C647 Gd588 2.828 . S
C647 O632 1.258 . S
C647 O637 1.252 . S
C647 C648 1.497 . S
C648 C647 1.497 . S
C648 C649 1.395 . S
C648 C650 1.380 . S
C649 C648 1.395 . S
C649 C652 1.398 . S
C649 H664 0.930 . S
C650 C648 1.380 . S
C650 C651 1.391 . S
C650 H665 0.930 . S
C651 C650 1.391 . S
C651 C653 1.387 . S
C652 C649 1.398 . S
C652 C653 1.380 . S
C652 H666 0.930 . S
C653 C651 1.387 . S
C653 C652 1.380 . S
C653 H667 0.930 . S
C654 O634 1.254 1_556 S
C654 O635 1.268 . S
C655 O639 1.284 . S
C655 O642 1.250 . S
C656 Gd589 2.828 1_554 S
C656 O638 1.258 . S
C656 O643 1.252 . S
C656 C657 1.497 . S
C657 C656 1.497 . S
C657 C658 1.395 . S
C657 C659 1.380 . S
C658 C657 1.395 . S
C658 C661 1.398 . S
C658 H668 0.930 . S
C659 C657 1.380 . S
C659 C660 1.391 . S
C659 H669 0.930 . S
C660 C659 1.391 . S
C660 C662 1.387 . S
C661 C658 1.398 . S
C661 C662 1.380 . S
C661 H670 0.930 . S
C662 C660 1.387 . S
C662 C661 1.380 . S
C662 H671 0.930 . S
C663 O640 1.254 . S
C663 O641 1.268 . S
H664 C649 0.930 . S
H665 C650 0.930 . S
H666 C652 0.930 . S
H667 C653 0.930 . S
H668 C658 0.930 . S
H669 C659 0.930 . S
H670 C661 0.930 . S
H671 C662 0.930 . S
Gd672 N703 2.661 . S
Gd672 N709 2.601 . S
Gd672 O716 2.545 . S
Gd672 O717 2.606 . S
Gd672 O719 2.429 . S
Gd672 O720 2.545 . S
Gd672 O721 2.412 . S
Gd672 O723 2.362 . S
Gd672 O724 2.324 . S
Gd672 C731 2.828 . S
Gd673 N682 2.661 1_545 S
Gd673 N686 2.601 1_545 S
Gd673 O717 2.362 . S
Gd673 O718 2.310 1_545 S
Gd673 O722 2.545 1_545 S
Gd673 O723 2.606 . S
Gd673 O725 2.429 . S
Gd673 O726 2.545 . S
Gd673 O727 2.412 1_545 S
Gd673 C740 2.828 1_545 S
C674 C677 1.417 . S
C674 C679 1.431 . S
C674 C680 1.412 . S
C675 C678 1.437 . S
C675 C679 1.317 . S
C675 H694 0.929 . S
C676 C677 1.426 . S
C676 C678 1.413 . S
C676 N686 1.359 . S
C677 C674 1.417 . S
C677 C676 1.426 . S
C677 N682 1.350 . S
C678 C675 1.437 . S
C678 C676 1.413 . S
C678 C688 1.391 . S
C679 C674 1.431 . S
C679 C675 1.317 . S
C679 H690 0.930 . S
C680 C674 1.412 . S
C680 C681 1.355 . S
C680 H692 0.930 . S
C681 C680 1.355 . S
C681 C683 1.402 . S
C681 H693 0.930 . S
N682 Gd673 2.661 1_565 S
N682 C677 1.350 . S
N682 C683 1.307 . S
C683 C681 1.402 . S
C683 N682 1.307 . S
C683 H684 0.930 . S
H684 C683 0.930 . S
C685 N686 1.334 1_545 S
C685 C687 1.394 1_545 S
C685 H689 0.930 . S
N686 Gd673 2.601 1_565 S
N686 C676 1.359 . S
N686 C685 1.334 1_565 S
C687 C685 1.394 1_565 S
C687 C688 1.359 . S
C687 H699 0.930 1_565 S
C688 C678 1.391 . S
C688 C687 1.359 . S
C688 H700 0.929 . S
H689 C685 0.930 . S
H690 C679 0.930 . S
H691 C708 0.930 . S
H692 C680 0.930 . S
H693 C681 0.930 . S
H694 C675 0.929 . S
H695 C713 0.930 . S
H696 C704 0.930 . S
H697 C705 0.930 . S
H698 C729 0.929 . S
H699 C687 0.930 1_545 S
H700 C688 0.929 . S
H701 C730 0.930 . S
H702 C711 0.930 . S
N703 Gd672 2.661 . S
N703 C707 1.350 . S
N703 C708 1.307 . S
C704 H696 0.930 . S
C704 C705 1.355 . S
C704 C706 1.412 . S
C705 H697 0.930 . S
C705 C704 1.355 . S
C705 C708 1.402 . S
C706 C704 1.412 . S
C706 C707 1.417 . S
C706 C730 1.431 . S
C707 N703 1.350 . S
C707 C706 1.417 . S
C707 C710 1.426 . S
C708 H691 0.930 . S
C708 N703 1.307 . S
C708 C705 1.402 . S
N709 Gd672 2.601 . S
N709 C710 1.359 . S
N709 C713 1.334 . S
C710 C707 1.426 . S
C710 N709 1.359 . S
C710 C714 1.413 . S
C711 H702 0.930 . S
C711 C712 1.359 . S
C711 C713 1.394 . S
C712 C711 1.359 . S
C712 C714 1.391 . S
C712 H715 0.929 . S
C713 H695 0.930 . S
C713 N709 1.334 . S
C713 C711 1.394 . S
C714 C710 1.413 . S
C714 C712 1.391 . S
C714 C729 1.437 . S
H715 C712 0.929 . S
O716 Gd672 2.545 . S
O716 C731 1.258 . S
O717 Gd672 2.606 . S
O717 Gd673 2.362 . S
O717 C728 1.284 . S
O718 Gd673 2.310 1_565 S
O718 C738 1.236 1_565 S
O719 Gd672 2.429 . S
O719 C738 1.268 . S
O720 Gd672 2.545 . S
O720 C728 1.250 . S
O721 Gd672 2.412 . S
O721 C731 1.252 . S
O722 Gd673 2.545 1_565 S
O722 C740 1.258 . S
O723 Gd672 2.362 . S
O723 Gd673 2.606 . S
O723 C739 1.284 . S
O724 Gd672 2.324 . S
O724 C747 1.254 . S
O725 Gd673 2.429 . S
O725 C747 1.268 . S
O726 Gd673 2.545 . S
O726 C739 1.250 . S
O727 Gd673 2.412 1_565 S
O727 C740 1.252 . S
C728 O717 1.284 . S
C728 O720 1.250 . S
C729 H698 0.929 . S
C729 C714 1.437 . S
C729 C730 1.317 . S
C730 H701 0.930 . S
C730 C706 1.431 . S
C730 C729 1.317 . S
C731 Gd672 2.828 . S
C731 O716 1.258 . S
C731 O721 1.252 . S
C731 C732 1.497 . S
C732 C731 1.497 . S
C732 C733 1.395 . S
C732 C734 1.380 . S
C733 C732 1.395 . S
C733 C736 1.398 . S
C733 H748 0.930 . S
C734 C732 1.380 . S
C734 C735 1.391 . S
C734 H749 0.930 . S
C735 C734 1.391 . S
C735 C737 1.387 . S
C736 C733 1.398 . S
C736 C737 1.380 . S
C736 H750 0.930 . S
C737 C735 1.387 . S
C737 C736 1.380 . S
C737 H751 0.930 . S
C738 O718 1.236 1_545 S
C738 O719 1.268 . S
C739 O723 1.284 . S
C739 O726 1.250 . S
C740 Gd673 2.828 1_565 S
C740 O722 1.258 . S
C740 O727 1.252 . S
C740 C741 1.497 . S
C741 C740 1.497 . S
C741 C742 1.395 . S
C741 C743 1.380 . S
C742 C741 1.395 . S
C742 C745 1.398 . S
C742 H752 0.930 . S
C743 C741 1.380 . S
C743 C744 1.391 . S
C743 H753 0.930 . S
C744 C743 1.391 . S
C744 C746 1.387 . S
C745 C742 1.398 . S
C745 C746 1.380 . S
C745 H754 0.930 . S
C746 C744 1.387 . S
C746 C745 1.380 . S
C746 H755 0.930 . S
C747 O724 1.254 . S
C747 O725 1.268 . S
H748 C733 0.930 . S
H749 C734 0.930 . S
H750 C736 0.930 . S
H751 C737 0.930 . S
H752 C742 0.930 . S
H753 C743 0.930 . S
H754 C745 0.930 . S
H755 C746 0.930 . S
Gd756 N787 2.661 . S
Gd756 N793 2.601 1_545 S
Gd756 O800 2.545 1_545 S
Gd756 O801 2.606 . S
Gd756 O803 2.429 . S
Gd756 O804 2.545 1_545 S
Gd756 O805 2.412 1_545 S
Gd756 O807 2.362 . S
Gd756 O808 2.324 . S
Gd756 C815 2.828 1_545 S
Gd757 N766 2.661 . S
Gd757 N770 2.601 . S
Gd757 O801 2.362 . S
Gd757 O802 2.324 . S
Gd757 O806 2.545 . S
Gd757 O807 2.606 . S
Gd757 O809 2.429 . S
Gd757 O810 2.545 . S
Gd757 O811 2.412 . S
Gd757 C824 2.828 . S
C758 C761 1.417 . S
C758 C763 1.431 . S
C758 C764 1.412 . S
C759 C762 1.437 . S
C759 C763 1.317 . S
C759 H778 0.929 . S
C760 C761 1.426 . S
C760 C762 1.413 . S
C760 N770 1.359 . S
C761 C758 1.417 . S
C761 C760 1.426 . S
C761 N766 1.350 . S
C762 C759 1.437 . S
C762 C760 1.413 . S
C762 C772 1.391 . S
C763 C758 1.431 . S
C763 C759 1.317 . S
C763 H774 0.930 . S
C764 C758 1.412 . S
C764 C765 1.355 . S
C764 H776 0.930 . S
C765 C764 1.355 . S
C765 C767 1.402 . S
C765 H777 0.930 1_545 S
N766 Gd757 2.661 . S
N766 C761 1.350 . S
N766 C767 1.307 . S
C767 C765 1.402 . S
C767 N766 1.307 . S
C767 H768 0.930 . S
H768 C767 0.930 . S
C769 N770 1.334 . S
C769 C771 1.394 . S
C769 H773 0.930 . S
N770 Gd757 2.601 . S
N770 C760 1.359 . S
N770 C769 1.334 . S
C771 C769 1.394 . S
C771 C772 1.359 . S
C771 H783 0.930 . S
C772 C762 1.391 . S
C772 C771 1.359 . S
C772 H784 0.929 . S
H773 C769 0.930 . S
H774 C763 0.930 . S
H775 C792 0.930 . S
H776 C764 0.930 . S
H777 C765 0.930 1_565 S
H778 C759 0.929 . S
H779 C797 0.930 . S
H780 C788 0.930 . S
H781 C789 0.930 . S
H782 C813 0.929 . S
H783 C771 0.930 . S
H784 C772 0.929 . S
H785 C814 0.930 . S
H786 C795 0.930 . S
N787 Gd756 2.661 . S
N787 C791 1.350 . S
N787 C792 1.307 . S
C788 H780 0.930 . S
C788 C789 1.355 . S
C788 C790 1.412 . S
C789 H781 0.930 . S
C789 C788 1.355 . S
C789 C792 1.402 . S
C790 C788 1.412 . S
C790 C791 1.417 . S
C790 C814 1.431 . S
C791 N787 1.350 . S
C791 C790 1.417 . S
C791 C794 1.426 . S
C792 H775 0.930 . S
C792 N787 1.307 . S
C792 C789 1.402 . S
N793 Gd756 2.601 1_565 S
N793 C794 1.359 1_565 S
N793 C797 1.334 . S
C794 C791 1.426 . S
C794 N793 1.359 1_545 S
C794 C798 1.404 1_545 S
C795 H786 0.930 . S
C795 C796 1.359 . S
C795 C797 1.394 . S
C796 C795 1.359 . S
C796 C798 1.414 . S
C796 H799 0.929 . S
C797 H779 0.930 . S
C797 N793 1.334 . S
C797 C795 1.394 . S
C798 C794 1.404 1_565 S
C798 C796 1.414 . S
C798 C813 1.423 1_565 S
H799 C796 0.929 . S
O800 Gd756 2.545 1_565 S
O800 C815 1.258 . S
O801 Gd756 2.606 . S
O801 Gd757 2.362 . S
O801 C812 1.284 . S
O802 Gd757 2.324 . S
O802 C822 1.254 . S
O803 Gd756 2.429 . S
O803 C822 1.268 . S
O804 Gd756 2.545 1_565 S
O804 C812 1.250 1_565 S
O805 Gd756 2.412 1_565 S
O805 C815 1.252 . S
O806 Gd757 2.545 . S
O806 C824 1.258 . S
O807 Gd756 2.362 . S
O807 Gd757 2.606 . S
O807 C823 1.284 . S
O808 Gd756 2.324 . S
O808 C831 1.254 . S
O809 Gd757 2.429 . S
O809 C831 1.268 . S
O810 Gd757 2.545 . S
O810 C823 1.250 . S
O811 Gd757 2.412 . S
O811 C824 1.252 . S
C812 O801 1.284 . S
C812 O804 1.250 1_545 S
C813 H782 0.929 . S
C813 C798 1.423 1_545 S
C813 C814 1.317 . S
C814 H785 0.930 . S
C814 C790 1.431 . S
C814 C813 1.317 . S
C815 Gd756 2.828 1_565 S
C815 O800 1.258 . S
C815 O805 1.252 . S
C815 C816 1.497 . S
C816 C815 1.497 . S
C816 C817 1.395 . S
C816 C818 1.380 . S
C817 C816 1.395 . S
C817 C820 1.398 . S
C817 H832 0.930 . S
C818 C816 1.380 . S
C818 C819 1.391 . S
C818 H833 0.930 . S
C819 C818 1.391 . S
C819 C821 1.387 . S
C820 C817 1.398 . S
C820 C821 1.380 . S
C820 H834 0.930 . S
C821 C819 1.387 . S
C821 C820 1.380 . S
C821 H835 0.930 . S
C822 O802 1.254 . S
C822 O803 1.268 . S
C823 O807 1.284 . S
C823 O810 1.250 . S
C824 Gd757 2.828 . S
C824 O806 1.258 . S
C824 O811 1.252 . S
C824 C825 1.497 . S
C825 C824 1.497 . S
C825 C826 1.395 . S
C825 C827 1.380 . S
C826 C825 1.395 . S
C826 C829 1.398 . S
C826 H836 0.930 . S
C827 C825 1.380 . S
C827 C828 1.391 . S
C827 H837 0.930 . S
C828 C827 1.391 . S
C828 C830 1.387 . S
C829 C826 1.398 . S
C829 C830 1.380 . S
C829 H838 0.930 . S
C830 C828 1.387 . S
C830 C829 1.380 . S
C830 H839 0.930 . S
C831 O808 1.254 . S
C831 O809 1.268 . S
H832 C817 0.930 . S
H833 C818 0.930 . S
H834 C820 0.930 . S
H835 C821 0.930 . S
H836 C826 0.930 . S
H837 C827 0.930 . S
H838 C829 0.930 . S
H839 C830 0.930 . S
Gd840 N871 2.661 . S
Gd840 N877 2.601 . S
Gd840 O884 2.545 . S
Gd840 O885 2.606 . S
Gd840 O887 2.429 . S
Gd840 O888 2.545 . S
Gd840 O889 2.412 . S
Gd840 O891 2.362 . S
Gd840 O892 2.324 . S
Gd840 C899 2.828 . S
Gd841 N850 2.661 1_565 S
Gd841 N854 2.601 1_565 S
Gd841 O885 2.362 . S
Gd841 O886 2.324 1_565 S
Gd841 O890 2.545 1_565 S
Gd841 O891 2.606 . S
Gd841 O893 2.429 . S
Gd841 O894 2.545 . S
Gd841 O895 2.412 1_565 S
Gd841 C908 2.828 1_565 S
C842 C845 1.417 . S
C842 C847 1.431 . S
C842 C848 1.412 . S
C843 C846 1.437 . S
C843 C847 1.317 . S
C843 H862 0.929 . S
C844 C845 1.426 . S
C844 C846 1.413 . S
C844 N854 1.359 . S
C845 C842 1.417 . S
C845 C844 1.426 . S
C845 N850 1.350 . S
C846 C843 1.437 . S
C846 C844 1.413 . S
C846 C856 1.391 . S
C847 C842 1.431 . S
C847 C843 1.317 . S
C847 H858 0.930 . S
C848 C842 1.412 . S
C848 C849 1.355 . S
C848 H860 0.930 . S
C849 C848 1.355 . S
C849 C851 1.402 . S
C849 H861 0.930 . S
N850 Gd841 2.661 1_545 S
N850 C845 1.350 . S
N850 C851 1.307 . S
C851 C849 1.402 . S
C851 N850 1.307 . S
C851 H852 0.930 . S
H852 C851 0.930 . S
C853 N854 1.334 1_565 S
C853 C855 1.394 1_565 S
C853 H857 0.930 . S
N854 Gd841 2.601 1_545 S
N854 C844 1.359 . S
N854 C853 1.334 1_545 S
C855 C853 1.394 1_545 S
C855 C856 1.359 . S
C855 H867 0.930 1_545 S
C856 C846 1.391 . S
C856 C855 1.359 . S
C856 H868 0.929 . S
H857 C853 0.930 . S
H858 C847 0.930 . S
H859 C876 0.930 . S
H860 C848 0.930 . S
H861 C849 0.930 . S
H862 C843 0.929 . S
H863 C881 0.930 . S
H864 C872 0.930 . S
H865 C873 0.930 . S
H866 C897 0.929 . S
H867 C855 0.930 1_565 S
H868 C856 0.929 . S
H869 C898 0.930 . S
H870 C879 0.930 . S
N871 Gd840 2.661 . S
N871 C875 1.350 . S
N871 C876 1.307 . S
C872 H864 0.930 . S
C872 C873 1.355 . S
C872 C874 1.412 . S
C873 H865 0.930 . S
C873 C872 1.355 . S
C873 C876 1.402 . S
C874 C872 1.412 . S
C874 C875 1.417 . S
C874 C898 1.431 . S
C875 N871 1.350 . S
C875 C874 1.417 . S
C875 C878 1.426 . S
C876 H859 0.930 . S
C876 N871 1.307 . S
C876 C873 1.402 . S
N877 Gd840 2.601 . S
N877 C878 1.359 . S
N877 C881 1.334 . S
C878 C875 1.426 . S
C878 N877 1.359 . S
C878 C882 1.413 . S
C879 H870 0.930 . S
C879 C880 1.359 . S
C879 C881 1.394 . S
C880 C879 1.359 . S
C880 C882 1.391 . S
C880 H883 0.929 . S
C881 H863 0.930 . S
C881 N877 1.334 . S
C881 C879 1.394 . S
C882 C878 1.413 . S
C882 C880 1.391 . S
C882 C897 1.437 . S
H883 C880 0.929 . S
O884 Gd840 2.545 . S
O884 C899 1.258 . S
O885 Gd840 2.606 . S
O885 Gd841 2.362 . S
O885 C896 1.284 . S
O886 Gd841 2.324 1_545 S
O886 C906 1.254 1_545 S
O887 Gd840 2.429 . S
O887 C906 1.268 . S
O888 Gd840 2.545 . S
O888 C896 1.250 . S
O889 Gd840 2.412 . S
O889 C899 1.252 . S
O890 Gd841 2.545 1_545 S
O890 C908 1.258 . S
O891 Gd840 2.362 . S
O891 Gd841 2.606 . S
O891 C907 1.284 . S
O892 Gd840 2.324 . S
O892 C915 1.254 . S
O893 Gd841 2.429 . S
O893 C915 1.268 . S
O894 Gd841 2.545 . S
O894 C907 1.250 . S
O895 Gd841 2.412 1_545 S
O895 C908 1.252 . S
C896 O885 1.284 . S
C896 O888 1.250 . S
C897 H866 0.929 . S
C897 C882 1.437 . S
C897 C898 1.317 . S
C898 H869 0.930 . S
C898 C874 1.431 . S
C898 C897 1.317 . S
C899 Gd840 2.828 . S
C899 O884 1.258 . S
C899 O889 1.252 . S
C899 C900 1.497 . S
C900 C899 1.497 . S
C900 C901 1.395 . S
C900 C902 1.380 . S
C901 C900 1.395 . S
C901 C904 1.398 . S
C901 H916 0.930 . S
C902 C900 1.380 . S
C902 C903 1.391 . S
C902 H917 0.930 . S
C903 C902 1.391 . S
C903 C905 1.387 . S
C904 C901 1.398 . S
C904 C905 1.380 . S
C904 H918 0.930 . S
C905 C903 1.387 . S
C905 C904 1.380 . S
C905 H919 0.930 . S
C906 O886 1.254 1_565 S
C906 O887 1.268 . S
C907 O891 1.284 . S
C907 O894 1.250 . S
C908 Gd841 2.828 1_545 S
C908 O890 1.258 . S
C908 O895 1.252 . S
C908 C909 1.497 . S
C909 C908 1.497 . S
C909 C910 1.395 . S
C909 C911 1.380 . S
C910 C909 1.395 . S
C910 C913 1.398 . S
C910 H920 0.930 . S
C911 C909 1.380 . S
C911 C912 1.391 . S
C911 H921 0.930 . S
C912 C911 1.391 . S
C912 C914 1.387 . S
C913 C910 1.398 . S
C913 C914 1.380 . S
C913 H922 0.930 . S
C914 C912 1.387 . S
C914 C913 1.380 . S
C914 H923 0.930 . S
C915 O892 1.254 . S
C915 O893 1.268 . S
H916 C901 0.930 . S
H917 C902 0.930 . S
H918 C904 0.930 . S
H919 C905 0.930 . S
H920 C910 0.930 . S
H921 C911 0.930 . S
H922 C913 0.930 . S
H923 C914 0.930 . S
Gd924 N955 2.661 . S
Gd924 N961 2.601 1_565 S
Gd924 O968 2.545 1_565 S
Gd924 O969 2.606 . S
Gd924 O971 2.429 . S
Gd924 O972 2.545 1_565 S
Gd924 O973 2.412 1_565 S
Gd924 O975 2.362 . S
Gd924 O976 2.324 . S
Gd924 C983 2.828 1_565 S
Gd925 N934 2.661 . S
Gd925 N938 2.601 . S
Gd925 O969 2.362 . S
Gd925 O970 2.324 . S
Gd925 O974 2.545 . S
Gd925 O975 2.606 . S
Gd925 O977 2.429 . S
Gd925 O978 2.545 . S
Gd925 O979 2.412 . S
Gd925 C992 2.828 . S
C926 C929 1.417 . S
C926 C931 1.431 . S
C926 C932 1.412 . S
C927 C930 1.437 . S
C927 C931 1.317 . S
C927 H946 0.929 . S
C928 C929 1.426 . S
C928 C930 1.413 . S
C928 N938 1.359 . S
C929 C926 1.417 . S
C929 C928 1.426 . S
C929 N934 1.350 . S
C930 C927 1.437 . S
C930 C928 1.413 . S
C930 C940 1.391 . S
C931 C926 1.431 . S
C931 C927 1.317 . S
C931 H942 0.930 . S
C932 C926 1.412 . S
C932 C933 1.355 . S
C932 H944 0.930 . S
C933 C932 1.355 . S
C933 C935 1.402 . S
C933 H945 0.930 1_565 S
N934 Gd925 2.661 . S
N934 C929 1.350 . S
N934 C935 1.307 . S
C935 C933 1.402 . S
C935 N934 1.307 . S
C935 H936 0.930 . S
H936 C935 0.930 . S
C937 N938 1.334 . S
C937 C939 1.394 . S
C937 H941 0.930 . S
N938 Gd925 2.601 . S
N938 C928 1.359 . S
N938 C937 1.334 . S
C939 C937 1.394 . S
C939 C940 1.359 . S
C939 H951 0.930 . S
C940 C930 1.391 . S
C940 C939 1.359 . S
C940 H952 0.929 . S
H941 C937 0.930 . S
H942 C931 0.930 . S
H943 C960 0.930 . S
H944 C932 0.930 . S
H945 C933 0.930 1_545 S
H946 C927 0.929 . S
H947 C965 0.930 . S
H948 C956 0.930 . S
H949 C957 0.930 . S
H950 C981 0.929 . S
H951 C939 0.930 . S
H952 C940 0.929 . S
H953 C982 0.930 . S
H954 C963 0.930 . S
N955 Gd924 2.661 . S
N955 C959 1.350 . S
N955 C960 1.307 . S
C956 H948 0.930 . S
C956 C957 1.355 . S
C956 C958 1.412 . S
C957 H949 0.930 . S
C957 C956 1.355 . S
C957 C960 1.402 . S
C958 C956 1.412 . S
C958 C959 1.417 . S
C958 C982 1.431 . S
C959 N955 1.350 . S
C959 C958 1.417 . S
C959 C962 1.426 . S
C960 H943 0.930 . S
C960 N955 1.307 . S
C960 C957 1.402 . S
N961 Gd924 2.601 1_545 S
N961 C962 1.359 1_545 S
N961 C965 1.334 . S
C962 C959 1.426 . S
C962 N961 1.359 1_565 S
C962 C966 1.398 1_565 S
C963 H954 0.930 . S
C963 C964 1.359 . S
C963 C965 1.394 . S
C964 C963 1.359 . S
C964 C966 1.429 . S
C964 H967 0.929 . S
C965 H947 0.930 . S
C965 N961 1.334 . S
C965 C963 1.394 . S
C966 C962 1.398 1_545 S
C966 C964 1.429 . S
C966 C981 1.414 1_545 S
H967 C964 0.929 . S
O968 Gd924 2.545 1_545 S
O968 C983 1.258 . S
O969 Gd924 2.606 . S
O969 Gd925 2.362 . S
O969 C980 1.284 . S
O970 Gd925 2.324 . S
O970 C990 1.254 . S
O971 Gd924 2.429 . S
O971 C990 1.268 . S
O972 Gd924 2.545 1_545 S
O972 C980 1.250 1_545 S
O973 Gd924 2.412 1_545 S
O973 C983 1.252 . S
O974 Gd925 2.545 . S
O974 C992 1.258 . S
O975 Gd924 2.362 . S
O975 Gd925 2.606 . S
O975 C991 1.284 . S
O976 Gd924 2.324 . S
O976 C999 1.254 . S
O977 Gd925 2.429 . S
O977 C999 1.268 . S
O978 Gd925 2.545 . S
O978 C991 1.250 . S
O979 Gd925 2.412 . S
O979 C992 1.252 . S
C980 O969 1.284 . S
C980 O972 1.250 1_565 S
C981 H950 0.929 . S
C981 C966 1.414 1_565 S
C981 C982 1.317 . S
C982 H953 0.930 . S
C982 C958 1.431 . S
C982 C981 1.317 . S
C983 Gd924 2.828 1_545 S
C983 O968 1.258 . S
C983 O973 1.252 . S
C983 C984 1.497 . S
C984 C983 1.497 . S
C984 C985 1.395 . S
C984 C986 1.380 . S
C985 C984 1.395 . S
C985 C988 1.398 . S
C985 H1000 0.930 . S
C986 C984 1.380 . S
C986 C987 1.391 . S
C986 H1001 0.930 . S
C987 C986 1.391 . S
C987 C989 1.387 . S
C988 C985 1.398 . S
C988 C989 1.380 . S
C988 H1002 0.930 . S
C989 C987 1.387 . S
C989 C988 1.380 . S
C989 H1003 0.930 . S
C990 O970 1.254 . S
C990 O971 1.268 . S
C991 O975 1.284 . S
C991 O978 1.250 . S
C992 Gd925 2.828 . S
C992 O974 1.258 . S
C992 O979 1.252 . S
C992 C993 1.497 . S
C993 C992 1.497 . S
C993 C994 1.395 . S
C993 C995 1.380 . S
C994 C993 1.395 . S
C994 C997 1.398 . S
C994 H1004 0.930 . S
C995 C993 1.380 . S
C995 C996 1.391 . S
C995 H1005 0.930 . S
C996 C995 1.391 . S
C996 C998 1.387 . S
C997 C994 1.398 . S
C997 C998 1.380 . S
C997 H1006 0.930 . S
C998 C996 1.387 . S
C998 C997 1.380 . S
C998 H1007 0.930 . S
C999 O976 1.254 . S
C999 O977 1.268 . S
H1000 C985 0.930 . S
H1001 C986 0.930 . S
H1002 C988 0.930 . S
H1003 C989 0.930 . S
H1004 C994 0.930 . S
H1005 C995 0.930 . S
H1006 C997 0.930 . S
H1007 C998 0.930 . S
Gd1008 N1039 2.661 . S
Gd1008 N1045 2.601 1_554 S
Gd1008 O1052 2.545 1_554 S
Gd1008 O1053 2.606 . S
Gd1008 O1055 2.429 . S
Gd1008 O1056 2.545 1_554 S
Gd1008 O1057 2.412 1_554 S
Gd1008 O1059 2.362 . S
Gd1008 O1060 2.324 . S
Gd1008 C1067 2.828 1_554 S
Gd1009 N1018 2.661 . S
Gd1009 N1022 2.601 . S
Gd1009 O1053 2.362 . S
Gd1009 O1054 2.324 . S
Gd1009 O1058 2.545 . S
Gd1009 O1059 2.606 . S
Gd1009 O1061 2.429 . S
Gd1009 O1062 2.545 . S
Gd1009 O1063 2.412 . S
Gd1009 C1076 2.828 . S
C1010 C1013 1.417 . S
C1010 C1015 1.431 . S
C1010 C1016 1.412 . S
C1011 C1014 1.437 . S
C1011 C1015 1.317 . S
C1011 H1030 0.929 . S
C1012 C1013 1.426 . S
C1012 C1014 1.413 . S
C1012 N1022 1.359 . S
C1013 C1010 1.417 . S
C1013 C1012 1.426 . S
C1013 N1018 1.350 . S
C1014 C1011 1.437 . S
C1014 C1012 1.413 . S
C1014 C1024 1.391 . S
C1015 C1010 1.431 . S
C1015 C1011 1.317 . S
C1015 H1026 0.930 . S
C1016 C1010 1.412 . S
C1016 C1017 1.355 . S
C1016 H1028 0.930 . S
C1017 C1016 1.355 . S
C1017 C1019 1.402 . S
C1017 H1029 0.930 1_554 S
N1018 Gd1009 2.661 . S
N1018 C1013 1.350 . S
N1018 C1019 1.307 . S
C1019 C1017 1.402 . S
C1019 N1018 1.307 . S
C1019 H1020 0.930 . S
H1020 C1019 0.930 . S
C1021 N1022 1.334 . S
C1021 C1023 1.394 . S
C1021 H1025 0.930 . S
N1022 Gd1009 2.601 . S
N1022 C1012 1.359 . S
N1022 C1021 1.334 . S
C1023 C1021 1.394 . S
C1023 C1024 1.359 . S
C1023 H1035 0.930 . S
C1024 C1014 1.391 . S
C1024 C1023 1.359 . S
C1024 H1036 0.929 . S
H1025 C1021 0.930 . S
H1026 C1015 0.930 . S
H1027 C1044 0.930 . S
H1028 C1016 0.930 . S
H1029 C1017 0.930 1_556 S
H1030 C1011 0.929 . S
H1031 C1049 0.930 . S
H1032 C1040 0.930 . S
H1033 C1041 0.930 . S
H1034 C1065 0.929 . S
H1035 C1023 0.930 . S
H1036 C1024 0.929 . S
H1037 C1066 0.930 . S
H1038 C1047 0.930 . S
N1039 Gd1008 2.661 . S
N1039 C1043 1.350 . S
N1039 C1044 1.307 . S
C1040 H1032 0.930 . S
C1040 C1041 1.355 . S
C1040 C1042 1.412 . S
C1041 H1033 0.930 . S
C1041 C1040 1.355 . S
C1041 C1044 1.402 . S
C1042 C1040 1.412 . S
C1042 C1043 1.417 . S
C1042 C1066 1.431 . S
C1043 N1039 1.350 . S
C1043 C1042 1.417 . S
C1043 C1046 1.426 . S
C1044 H1027 0.930 . S
C1044 N1039 1.307 . S
C1044 C1041 1.402 . S
N1045 Gd1008 2.601 1_556 S
N1045 C1046 1.359 1_556 S
N1045 C1049 1.334 . S
C1046 C1043 1.426 . S
C1046 N1045 1.359 1_554 S
C1046 C1050 1.400 1_554 S
C1047 H1038 0.930 . S
C1047 C1048 1.359 . S
C1047 C1049 1.394 . S
C1048 C1047 1.359 . S
C1048 C1050 1.425 . S
C1048 H1051 0.929 . S
C1049 H1031 0.930 . S
C1049 N1045 1.334 . S
C1049 C1047 1.394 . S
C1050 C1046 1.400 1_556 S
C1050 C1048 1.425 . S
C1050 C1065 1.417 1_556 S
H1051 C1048 0.929 . S
O1052 Gd1008 2.545 1_556 S
O1052 C1067 1.258 . S
O1053 Gd1008 2.606 . S
O1053 Gd1009 2.362 . S
O1053 C1064 1.284 . S
O1054 Gd1009 2.324 . S
O1054 C1074 1.254 . S
O1055 Gd1008 2.429 . S
O1055 C1074 1.268 . S
O1056 Gd1008 2.545 1_556 S
O1056 C1064 1.250 1_556 S
O1057 Gd1008 2.412 1_556 S
O1057 C1067 1.252 . S
O1058 Gd1009 2.545 . S
O1058 C1076 1.258 . S
O1059 Gd1008 2.362 . S
O1059 Gd1009 2.606 . S
O1059 C1075 1.284 . S
O1060 Gd1008 2.324 . S
O1060 C1083 1.254 . S
O1061 Gd1009 2.429 . S
O1061 C1083 1.268 . S
O1062 Gd1009 2.545 . S
O1062 C1075 1.250 . S
O1063 Gd1009 2.412 . S
O1063 C1076 1.252 . S
C1064 O1053 1.284 . S
C1064 O1056 1.250 1_554 S
C1065 H1034 0.929 . S
C1065 C1050 1.417 1_554 S
C1065 C1066 1.317 . S
C1066 H1037 0.930 . S
C1066 C1042 1.431 . S
C1066 C1065 1.317 . S
C1067 Gd1008 2.828 1_556 S
C1067 O1052 1.258 . S
C1067 O1057 1.252 . S
C1067 C1068 1.497 . S
C1068 C1067 1.497 . S
C1068 C1069 1.395 . S
C1068 C1070 1.380 . S
C1069 C1068 1.395 . S
C1069 C1072 1.398 . S
C1069 H1084 0.930 . S
C1070 C1068 1.380 . S
C1070 C1071 1.391 . S
C1070 H1085 0.930 . S
C1071 C1070 1.391 . S
C1071 C1073 1.387 . S
C1072 C1069 1.398 . S
C1072 C1073 1.380 . S
C1072 H1086 0.930 . S
C1073 C1071 1.387 . S
C1073 C1072 1.380 . S
C1073 H1087 0.930 . S
C1074 O1054 1.254 . S
C1074 O1055 1.268 . S
C1075 O1059 1.284 . S
C1075 O1062 1.250 . S
C1076 Gd1009 2.828 . S
C1076 O1058 1.258 . S
C1076 O1063 1.252 . S
C1076 C1077 1.497 . S
C1077 C1076 1.497 . S
C1077 C1078 1.395 . S
C1077 C1079 1.380 . S
C1078 C1077 1.395 . S
C1078 C1081 1.398 . S
C1078 H1088 0.930 . S
C1079 C1077 1.380 . S
C1079 C1080 1.391 . S
C1079 H1089 0.930 . S
C1080 C1079 1.391 . S
C1080 C1082 1.387 . S
C1081 C1078 1.398 . S
C1081 C1082 1.380 . S
C1081 H1090 0.930 . S
C1082 C1080 1.387 . S
C1082 C1081 1.380 . S
C1082 H1091 0.930 . S
C1083 O1060 1.254 . S
C1083 O1061 1.268 . S
H1084 C1069 0.930 . S
H1085 C1070 0.930 . S
H1086 C1072 0.930 . S
H1087 C1073 0.930 . S
H1088 C1078 0.930 . S
H1089 C1079 0.930 . S
H1090 C1081 0.930 . S
H1091 C1082 0.930 . S
Gd1092 N1123 2.661 . S
Gd1092 N1129 2.601 . S
Gd1092 O1136 2.545 . S
Gd1092 O1137 2.606 . S
Gd1092 O1139 2.429 . S
Gd1092 O1140 2.545 . S
Gd1092 O1141 2.412 . S
Gd1092 O1143 2.362 . S
Gd1092 O1144 2.324 . S
Gd1092 C1151 2.828 . S
Gd1093 N1102 2.661 1_655 S
Gd1093 N1106 2.601 1_655 S
Gd1093 O1137 2.362 . S
Gd1093 O1138 2.324 1_655 S
Gd1093 O1142 2.545 1_655 S
Gd1093 O1143 2.606 . S
Gd1093 O1145 2.429 . S
Gd1093 O1146 2.545 . S
Gd1093 O1147 2.412 1_655 S
Gd1093 C1160 2.828 1_655 S
C1094 C1097 1.417 . S
C1094 C1099 1.431 . S
C1094 C1100 1.412 . S
C1095 C1098 1.437 . S
C1095 C1099 1.317 . S
C1095 H1114 0.929 . S
C1096 C1097 1.426 . S
C1096 C1098 1.413 . S
C1096 N1106 1.359 . S
C1097 C1094 1.417 . S
C1097 C1096 1.426 . S
C1097 N1102 1.350 . S
C1098 C1095 1.437 . S
C1098 C1096 1.413 . S
C1098 C1108 1.391 . S
C1099 C1094 1.431 . S
C1099 C1095 1.317 . S
C1099 H1110 0.930 . S
C1100 C1094 1.412 . S
C1100 C1101 1.355 . S
C1100 H1112 0.930 . S
C1101 C1100 1.355 . S
C1101 C1103 1.402 . S
C1101 H1113 0.930 . S
N1102 Gd1093 2.661 1_455 S
N1102 C1097 1.350 . S
N1102 C1103 1.307 . S
C1103 C1101 1.402 . S
C1103 N1102 1.307 . S
C1103 H1104 0.930 . S
H1104 C1103 0.930 . S
C1105 N1106 1.334 1_655 S
C1105 C1107 1.394 1_655 S
C1105 H1109 0.930 . S
N1106 Gd1093 2.601 1_455 S
N1106 C1096 1.359 . S
N1106 C1105 1.334 1_455 S
C1107 C1105 1.394 1_455 S
C1107 C1108 1.359 . S
C1107 H1119 0.930 1_455 S
C1108 C1098 1.391 . S
C1108 C1107 1.359 . S
C1108 H1120 0.929 . S
H1109 C1105 0.930 . S
H1110 C1099 0.930 . S
H1111 C1128 0.930 . S
H1112 C1100 0.930 . S
H1113 C1101 0.930 . S
H1114 C1095 0.929 . S
H1115 C1133 0.930 . S
H1116 C1124 0.930 . S
H1117 C1125 0.930 . S
H1118 C1149 0.929 . S
H1119 C1107 0.930 1_655 S
H1120 C1108 0.929 . S
H1121 C1150 0.930 . S
H1122 C1131 0.930 . S
N1123 Gd1092 2.661 . S
N1123 C1127 1.350 . S
N1123 C1128 1.307 . S
C1124 H1116 0.930 . S
C1124 C1125 1.355 . S
C1124 C1126 1.412 . S
C1125 H1117 0.930 . S
C1125 C1124 1.355 . S
C1125 C1128 1.402 . S
C1126 C1124 1.412 . S
C1126 C1127 1.417 . S
C1126 C1150 1.431 . S
C1127 N1123 1.350 . S
C1127 C1126 1.417 . S
C1127 C1130 1.426 . S
C1128 H1111 0.930 . S
C1128 N1123 1.307 . S
C1128 C1125 1.402 . S
N1129 Gd1092 2.601 . S
N1129 C1130 1.359 . S
N1129 C1133 1.334 . S
C1130 C1127 1.426 . S
C1130 N1129 1.359 . S
C1130 C1134 1.413 . S
C1131 H1122 0.930 . S
C1131 C1132 1.359 . S
C1131 C1133 1.394 . S
C1132 C1131 1.359 . S
C1132 C1134 1.391 . S
C1132 H1135 0.929 . S
C1133 H1115 0.930 . S
C1133 N1129 1.334 . S
C1133 C1131 1.394 . S
C1134 C1130 1.413 . S
C1134 C1132 1.391 . S
C1134 C1149 1.437 . S
H1135 C1132 0.929 . S
O1136 Gd1092 2.545 . S
O1136 C1151 1.258 . S
O1137 Gd1092 2.606 . S
O1137 Gd1093 2.362 . S
O1137 C1148 1.284 . S
O1138 Gd1093 2.324 1_455 S
O1138 C1158 1.254 1_455 S
O1139 Gd1092 2.429 . S
O1139 C1158 1.268 . S
O1140 Gd1092 2.545 . S
O1140 C1148 1.250 . S
O1141 Gd1092 2.412 . S
O1141 C1151 1.252 . S
O1142 Gd1093 2.545 1_455 S
O1142 C1160 1.258 . S
O1143 Gd1092 2.362 . S
O1143 Gd1093 2.606 . S
O1143 C1159 1.284 . S
O1144 Gd1092 2.324 . S
O1144 C1167 1.254 . S
O1145 Gd1093 2.429 . S
O1145 C1167 1.268 . S
O1146 Gd1093 2.545 . S
O1146 C1159 1.250 . S
O1147 Gd1093 2.412 1_455 S
O1147 C1160 1.252 . S
C1148 O1137 1.284 . S
C1148 O1140 1.250 . S
C1149 H1118 0.929 . S
C1149 C1134 1.437 . S
C1149 C1150 1.317 . S
C1150 H1121 0.930 . S
C1150 C1126 1.431 . S
C1150 C1149 1.317 . S
C1151 Gd1092 2.828 . S
C1151 O1136 1.258 . S
C1151 O1141 1.252 . S
C1151 C1152 1.497 . S
C1152 C1151 1.497 . S
C1152 C1153 1.395 . S
C1152 C1154 1.380 . S
C1153 C1152 1.395 . S
C1153 C1156 1.398 . S
C1153 H1168 0.930 . S
C1154 C1152 1.380 . S
C1154 C1155 1.391 . S
C1154 H1169 0.930 . S
C1155 C1154 1.391 . S
C1155 C1157 1.387 . S
C1156 C1153 1.398 . S
C1156 C1157 1.380 . S
C1156 H1170 0.930 . S
C1157 C1155 1.387 . S
C1157 C1156 1.380 . S
C1157 H1171 0.930 . S
C1158 O1138 1.254 1_655 S
C1158 O1139 1.268 . S
C1159 O1143 1.284 . S
C1159 O1146 1.250 . S
C1160 Gd1093 2.828 1_455 S
C1160 O1142 1.258 . S
C1160 O1147 1.252 . S
C1160 C1161 1.497 . S
C1161 C1160 1.497 . S
C1161 C1162 1.395 . S
C1161 C1163 1.380 . S
C1162 C1161 1.395 . S
C1162 C1165 1.398 . S
C1162 H1172 0.930 . S
C1163 C1161 1.380 . S
C1163 C1164 1.391 . S
C1163 H1173 0.930 . S
C1164 C1163 1.391 . S
C1164 C1166 1.387 . S
C1165 C1162 1.398 . S
C1165 C1166 1.380 . S
C1165 H1174 0.930 . S
C1166 C1164 1.387 . S
C1166 C1165 1.380 . S
C1166 H1175 0.930 . S
C1167 O1144 1.254 . S
C1167 O1145 1.268 . S
H1168 C1153 0.930 . S
H1169 C1154 0.930 . S
H1170 C1156 0.930 . S
H1171 C1157 0.930 . S
H1172 C1162 0.930 . S
H1173 C1163 0.930 . S
H1174 C1165 0.930 . S
H1175 C1166 0.930 . S
Gd1176 N1207 2.661 . S
Gd1176 N1213 2.601 . S
Gd1176 O1220 2.545 . S
Gd1176 O1221 2.606 . S
Gd1176 O1223 2.429 . S
Gd1176 O1224 2.545 . S
Gd1176 O1225 2.412 . S
Gd1176 O1227 2.362 . S
Gd1176 O1228 2.324 . S
Gd1176 C1235 2.828 . S
Gd1177 N1186 2.661 . S
Gd1177 N1190 2.601 . S
Gd1177 O1221 2.362 . S
Gd1177 O1222 2.324 . S
Gd1177 O1226 2.545 . S
Gd1177 O1227 2.606 . S
Gd1177 O1229 2.429 . S
Gd1177 O1230 2.545 . S
Gd1177 O1231 2.412 . S
Gd1177 C1244 2.828 . S
C1178 C1181 1.417 . S
C1178 C1183 1.431 . S
C1178 C1184 1.412 . S
C1179 C1182 1.437 . S
C1179 C1183 1.317 . S
C1179 H1198 0.929 . S
C1180 C1181 1.426 . S
C1180 C1182 1.413 . S
C1180 N1190 1.359 . S
C1181 C1178 1.417 . S
C1181 C1180 1.426 . S
C1181 N1186 1.350 . S
C1182 C1179 1.437 . S
C1182 C1180 1.413 . S
C1182 C1192 1.391 . S
C1183 C1178 1.431 . S
C1183 C1179 1.317 . S
C1183 H1194 0.930 . S
C1184 C1178 1.412 . S
C1184 C1185 1.355 . S
C1184 H1196 0.930 . S
C1185 C1184 1.355 . S
C1185 C1187 1.402 . S
C1185 H1197 0.930 . S
N1186 Gd1177 2.661 . S
N1186 C1181 1.350 . S
N1186 C1187 1.307 . S
C1187 C1185 1.402 . S
C1187 N1186 1.307 . S
C1187 H1188 0.930 . S
H1188 C1187 0.930 . S
C1189 N1190 1.334 . S
C1189 C1191 1.394 . S
C1189 H1193 0.930 . S
N1190 Gd1177 2.601 . S
N1190 C1180 1.359 . S
N1190 C1189 1.334 . S
C1191 C1189 1.394 . S
C1191 C1192 1.359 . S
C1191 H1203 0.930 . S
C1192 C1182 1.391 . S
C1192 C1191 1.359 . S
C1192 H1204 0.929 . S
H1193 C1189 0.930 . S
H1194 C1183 0.930 . S
H1195 C1212 0.930 . S
H1196 C1184 0.930 . S
H1197 C1185 0.930 . S
H1198 C1179 0.929 . S
H1199 C1217 0.930 . S
H1200 C1208 0.930 . S
H1201 C1209 0.930 . S
H1202 C1233 0.929 . S
H1203 C1191 0.930 . S
H1204 C1192 0.929 . S
H1205 C1234 0.930 . S
H1206 C1215 0.930 . S
N1207 Gd1176 2.661 . S
N1207 C1211 1.350 . S
N1207 C1212 1.307 . S
C1208 H1200 0.930 . S
C1208 C1209 1.355 . S
C1208 C1210 1.412 . S
C1209 H1201 0.930 . S
C1209 C1208 1.355 . S
C1209 C1212 1.402 . S
C1210 C1208 1.412 . S
C1210 C1211 1.417 . S
C1210 C1234 1.431 . S
C1211 N1207 1.350 . S
C1211 C1210 1.417 . S
C1211 C1214 1.426 . S
C1212 H1195 0.930 . S
C1212 N1207 1.307 . S
C1212 C1209 1.402 . S
N1213 Gd1176 2.601 . S
N1213 C1214 1.359 . S
N1213 C1217 1.334 . S
C1214 C1211 1.426 . S
C1214 N1213 1.359 . S
C1214 C1218 1.413 . S
C1215 H1206 0.930 . S
C1215 C1216 1.359 . S
C1215 C1217 1.394 . S
C1216 C1215 1.359 . S
C1216 C1218 1.391 . S
C1216 H1219 0.929 . S
C1217 H1199 0.930 . S
C1217 N1213 1.334 . S
C1217 C1215 1.394 . S
C1218 C1214 1.413 . S
C1218 C1216 1.391 . S
C1218 C1233 1.437 . S
H1219 C1216 0.929 . S
O1220 Gd1176 2.545 . S
O1220 C1235 1.258 . S
O1221 Gd1176 2.606 . S
O1221 Gd1177 2.362 . S
O1221 C1232 1.284 . S
O1222 Gd1177 2.324 . S
O1222 C1242 1.254 . S
O1223 Gd1176 2.429 . S
O1223 C1242 1.268 . S
O1224 Gd1176 2.545 . S
O1224 C1232 1.250 . S
O1225 Gd1176 2.412 . S
O1225 C1235 1.252 . S
O1226 Gd1177 2.545 . S
O1226 C1244 1.258 . S
O1227 Gd1176 2.362 . S
O1227 Gd1177 2.606 . S
O1227 C1243 1.284 . S
O1228 Gd1176 2.324 . S
O1228 C1251 1.254 . S
O1229 Gd1177 2.429 . S
O1229 C1251 1.268 . S
O1230 Gd1177 2.545 . S
O1230 C1243 1.250 . S
O1231 Gd1177 2.412 . S
O1231 C1244 1.252 . S
C1232 O1221 1.284 . S
C1232 O1224 1.250 . S
C1233 H1202 0.929 . S
C1233 C1218 1.437 . S
C1233 C1234 1.317 . S
C1234 H1205 0.930 . S
C1234 C1210 1.431 . S
C1234 C1233 1.317 . S
C1235 Gd1176 2.828 . S
C1235 O1220 1.258 . S
C1235 O1225 1.252 . S
C1235 C1236 1.497 . S
C1236 C1235 1.497 . S
C1236 C1237 1.395 . S
C1236 C1238 1.380 . S
C1237 C1236 1.395 . S
C1237 C1240 1.398 . S
C1237 H1252 0.930 . S
C1238 C1236 1.380 . S
C1238 C1239 1.391 . S
C1238 H1253 0.930 . S
C1239 C1238 1.391 . S
C1239 C1241 1.387 . S
C1240 C1237 1.398 . S
C1240 C1241 1.380 . S
C1240 H1254 0.930 . S
C1241 C1239 1.387 . S
C1241 C1240 1.380 . S
C1241 H1255 0.930 . S
C1242 O1222 1.254 . S
C1242 O1223 1.268 . S
C1243 O1227 1.284 . S
C1243 O1230 1.250 . S
C1244 Gd1177 2.828 . S
C1244 O1226 1.258 . S
C1244 O1231 1.252 . S
C1244 C1245 1.497 . S
C1245 C1244 1.497 . S
C1245 C1246 1.395 . S
C1245 C1247 1.380 . S
C1246 C1245 1.395 . S
C1246 C1249 1.398 . S
C1246 H1256 0.930 . S
C1247 C1245 1.380 . S
C1247 C1248 1.391 . S
C1247 H1257 0.930 . S
C1248 C1247 1.391 . S
C1248 C1250 1.387 . S
C1249 C1246 1.398 . S
C1249 C1250 1.380 . S
C1249 H1258 0.930 . S
C1250 C1248 1.387 . S
C1250 C1249 1.380 . S
C1250 H1259 0.930 . S
C1251 O1228 1.254 . S
C1251 O1229 1.268 . S
H1252 C1237 0.930 . S
H1253 C1238 0.930 . S
H1254 C1240 0.930 . S
H1255 C1241 0.930 . S
H1256 C1246 0.930 . S
H1257 C1247 0.930 . S
H1258 C1249 0.930 . S
H1259 C1250 0.930 . S
Gd1260 N1291 2.661 1_655 S
Gd1260 N1297 2.601 1_655 S
Gd1260 O1304 2.543 1_655 S
Gd1260 O1305 2.606 . S
Gd1260 O1307 2.429 . S
Gd1260 O1308 2.545 . S
Gd1260 O1309 2.412 1_655 S
Gd1260 O1311 2.362 . S
Gd1260 O1312 2.322 . S
Gd1260 C1319 2.828 1_655 S
Gd1261 N1270 2.661 . S
Gd1261 N1274 2.601 . S
Gd1261 O1305 2.362 . S
Gd1261 O1306 2.324 . S
Gd1261 O1310 2.545 . S
Gd1261 O1311 2.606 . S
Gd1261 O1313 2.429 . S
Gd1261 O1314 2.545 . S
Gd1261 O1315 2.412 . S
Gd1261 C1328 2.828 . S
C1262 C1265 1.417 . S
C1262 C1267 1.431 . S
C1262 C1268 1.412 . S
C1263 C1266 1.437 . S
C1263 C1267 1.317 . S
C1263 H1282 0.929 . S
C1264 C1265 1.426 . S
C1264 C1266 1.413 . S
C1264 N1274 1.359 . S
C1265 C1262 1.417 . S
C1265 C1264 1.426 . S
C1265 N1270 1.350 . S
C1266 C1263 1.437 . S
C1266 C1264 1.413 . S
C1266 C1276 1.391 . S
C1267 C1262 1.431 . S
C1267 C1263 1.317 . S
C1267 H1278 0.930 . S
C1268 C1262 1.412 . S
C1268 C1269 1.355 . S
C1268 H1280 0.930 . S
C1269 C1268 1.355 . S
C1269 C1271 1.402 . S
C1269 H1281 0.930 . S
N1270 Gd1261 2.661 . S
N1270 C1265 1.350 . S
N1270 C1271 1.307 . S
C1271 C1269 1.402 . S
C1271 N1270 1.307 . S
C1271 H1272 0.930 . S
H1272 C1271 0.930 . S
C1273 N1274 1.334 . S
C1273 C1275 1.394 . S
C1273 H1277 0.930 . S
N1274 Gd1261 2.601 . S
N1274 C1264 1.359 . S
N1274 C1273 1.334 . S
C1275 C1273 1.394 . S
C1275 C1276 1.359 . S
C1275 H1287 0.930 . S
C1276 C1266 1.391 . S
C1276 C1275 1.359 . S
C1276 H1288 0.929 . S
H1277 C1273 0.930 . S
H1278 C1267 0.930 . S
H1279 C1296 0.930 . S
H1280 C1268 0.930 . S
H1281 C1269 0.930 . S
H1282 C1263 0.929 . S
H1283 C1301 0.930 . S
H1284 C1292 0.930 . S
H1285 C1293 0.930 . S
H1286 C1317 0.929 . S
H1287 C1275 0.930 . S
H1288 C1276 0.929 . S
H1289 C1318 0.930 . S
H1290 C1299 0.931 . S
N1291 Gd1260 2.661 1_455 S
N1291 C1295 1.350 . S
N1291 C1296 1.307 . S
C1292 H1284 0.930 . S
C1292 C1293 1.355 . S
C1292 C1294 1.412 . S
C1293 H1285 0.930 . S
C1293 C1292 1.355 . S
C1293 C1296 1.402 . S
C1294 C1292 1.412 . S
C1294 C1295 1.417 . S
C1294 C1318 1.431 . S
C1295 N1291 1.350 . S
C1295 C1294 1.417 . S
C1295 C1298 1.426 . S
C1296 H1279 0.930 . S
C1296 N1291 1.307 . S
C1296 C1293 1.402 . S
N1297 Gd1260 2.601 1_455 S
N1297 C1298 1.359 . S
N1297 C1301 1.334 1_455 S
C1298 C1295 1.426 . S
C1298 N1297 1.359 . S
C1298 C1302 1.413 . S
C1299 H1290 0.931 . S
C1299 C1300 1.358 1_655 S
C1299 C1301 1.395 . S
C1300 C1299 1.358 1_455 S
C1300 C1302 1.391 . S
C1300 H1303 0.929 . S
C1301 H1283 0.930 . S
C1301 N1297 1.334 1_655 S
C1301 C1299 1.395 . S
C1302 C1298 1.413 . S
C1302 C1300 1.391 . S
C1302 C1317 1.437 . S
H1303 C1300 0.929 . S
O1304 Gd1260 2.543 1_455 S
O1304 C1319 1.264 . S
O1305 Gd1260 2.606 . S
O1305 Gd1261 2.362 . S
O1305 C1316 1.284 . S
O1306 Gd1261 2.324 . S
O1306 C1326 1.254 . S
O1307 Gd1260 2.429 . S
O1307 C1326 1.268 . S
O1308 Gd1260 2.545 . S
O1308 C1316 1.250 . S
O1309 Gd1260 2.412 1_455 S
O1309 C1319 1.252 . S
O1310 Gd1261 2.545 . S
O1310 C1328 1.258 . S
O1311 Gd1260 2.362 . S
O1311 Gd1261 2.606 . S
O1311 C1327 1.284 . S
O1312 Gd1260 2.322 . S
O1312 C1335 1.252 . S
O1313 Gd1261 2.429 . S
O1313 C1335 1.268 . S
O1314 Gd1261 2.545 . S
O1314 C1327 1.250 . S
O1315 Gd1261 2.412 . S
O1315 C1328 1.252 . S
C1316 O1305 1.284 . S
C1316 O1308 1.250 . S
C1317 H1286 0.929 . S
C1317 C1302 1.437 . S
C1317 C1318 1.317 . S
C1318 H1289 0.930 . S
C1318 C1294 1.431 . S
C1318 C1317 1.317 . S
C1319 Gd1260 2.828 1_455 S
C1319 O1304 1.264 . S
C1319 O1309 1.252 . S
C1319 C1320 1.497 . S
C1320 C1319 1.497 . S
C1320 C1321 1.395 . S
C1320 C1322 1.380 . S
C1321 C1320 1.395 . S
C1321 C1324 1.398 . S
C1321 H1336 0.930 . S
C1322 C1320 1.380 . S
C1322 C1323 1.391 . S
C1322 H1337 0.930 . S
C1323 C1322 1.391 . S
C1323 C1325 1.387 . S
C1324 C1321 1.398 . S
C1324 C1325 1.380 . S
C1324 H1338 0.930 . S
C1325 C1323 1.387 . S
C1325 C1324 1.380 . S
C1325 H1339 0.930 . S
C1326 O1306 1.254 . S
C1326 O1307 1.268 . S
C1327 O1311 1.284 . S
C1327 O1314 1.250 . S
C1328 Gd1261 2.828 . S
C1328 O1310 1.258 . S
C1328 O1315 1.252 . S
C1328 C1329 1.497 . S
C1329 C1328 1.497 . S
C1329 C1330 1.395 . S
C1329 C1331 1.380 . S
C1330 C1329 1.395 . S
C1330 C1333 1.398 . S
C1330 H1340 0.930 . S
C1331 C1329 1.380 . S
C1331 C1332 1.391 . S
C1331 H1341 0.930 . S
C1332 C1331 1.391 . S
C1332 C1334 1.387 . S
C1333 C1330 1.398 . S
C1333 C1334 1.380 . S
C1333 H1342 0.930 . S
C1334 C1332 1.387 . S
C1334 C1333 1.380 . S
C1334 H1343 0.930 . S
C1335 O1312 1.252 . S
C1335 O1313 1.268 . S
H1336 C1321 0.930 . S
H1337 C1322 0.930 . S
H1338 C1324 0.930 . S
H1339 C1325 0.930 . S
H1340 C1330 0.930 . S
H1341 C1331 0.930 . S
H1342 C1333 0.930 . S
H1343 C1334 0.930 . S
Gd1344 N1375 2.661 . S
Gd1344 N1381 2.601 . S
Gd1344 O1388 2.545 . S
Gd1344 O1389 2.606 . S
Gd1344 O1391 2.429 . S
Gd1344 O1392 2.545 . S
Gd1344 O1393 2.412 . S
Gd1344 O1395 2.362 . S
Gd1344 O1396 2.324 . S
Gd1344 C1403 2.828 . S
Gd1345 N1354 2.661 . S
Gd1345 N1358 2.601 . S
Gd1345 O1389 2.362 . S
Gd1345 O1390 2.324 . S
Gd1345 O1394 2.545 . S
Gd1345 O1395 2.606 . S
Gd1345 O1397 2.429 . S
Gd1345 O1398 2.545 . S
Gd1345 O1399 2.412 . S
Gd1345 C1412 2.828 . S
C1346 C1349 1.417 . S
C1346 C1351 1.431 . S
C1346 C1352 1.412 . S
C1347 C1350 1.437 . S
C1347 C1351 1.317 . S
C1347 H1366 0.929 . S
C1348 C1349 1.426 . S
C1348 C1350 1.413 . S
C1348 N1358 1.359 . S
C1349 C1346 1.417 . S
C1349 C1348 1.426 . S
C1349 N1354 1.350 . S
C1350 C1347 1.437 . S
C1350 C1348 1.413 . S
C1350 C1360 1.391 . S
C1351 C1346 1.431 . S
C1351 C1347 1.317 . S
C1351 H1362 0.930 . S
C1352 C1346 1.412 . S
C1352 C1353 1.355 . S
C1352 H1364 0.930 . S
C1353 C1352 1.355 . S
C1353 C1355 1.402 . S
C1353 H1365 0.930 . S
N1354 Gd1345 2.661 . S
N1354 C1349 1.350 . S
N1354 C1355 1.307 . S
C1355 C1353 1.402 . S
C1355 N1354 1.307 . S
C1355 H1356 0.930 . S
H1356 C1355 0.930 . S
C1357 N1358 1.334 . S
C1357 C1359 1.394 . S
C1357 H1361 0.930 . S
N1358 Gd1345 2.601 . S
N1358 C1348 1.359 . S
N1358 C1357 1.334 . S
C1359 C1357 1.394 . S
C1359 C1360 1.359 . S
C1359 H1371 0.930 . S
C1360 C1350 1.391 . S
C1360 C1359 1.359 . S
C1360 H1372 0.929 . S
H1361 C1357 0.930 . S
H1362 C1351 0.930 . S
H1363 C1380 0.930 . S
H1364 C1352 0.930 . S
H1365 C1353 0.930 . S
H1366 C1347 0.929 . S
H1367 C1385 0.930 . S
H1368 C1376 0.930 . S
H1369 C1377 0.930 . S
H1370 C1401 0.929 . S
H1371 C1359 0.930 . S
H1372 C1360 0.929 . S
H1373 C1402 0.930 . S
H1374 C1383 0.930 . S
N1375 Gd1344 2.661 . S
N1375 C1379 1.350 . S
N1375 C1380 1.307 . S
C1376 H1368 0.930 . S
C1376 C1377 1.355 . S
C1376 C1378 1.412 . S
C1377 H1369 0.930 . S
C1377 C1376 1.355 . S
C1377 C1380 1.402 . S
C1378 C1376 1.412 . S
C1378 C1379 1.417 . S
C1378 C1402 1.431 . S
C1379 N1375 1.350 . S
C1379 C1378 1.417 . S
C1379 C1382 1.426 . S
C1380 H1363 0.930 . S
C1380 N1375 1.307 . S
C1380 C1377 1.402 . S
N1381 Gd1344 2.601 . S
N1381 C1382 1.359 . S
N1381 C1385 1.334 . S
C1382 C1379 1.426 . S
C1382 N1381 1.359 . S
C1382 C1386 1.413 . S
C1383 H1374 0.930 . S
C1383 C1384 1.359 . S
C1383 C1385 1.394 . S
C1384 C1383 1.359 . S
C1384 C1386 1.391 . S
C1384 H1387 0.929 . S
C1385 H1367 0.930 . S
C1385 N1381 1.334 . S
C1385 C1383 1.394 . S
C1386 C1382 1.413 . S
C1386 C1384 1.391 . S
C1386 C1401 1.437 . S
H1387 C1384 0.929 . S
O1388 Gd1344 2.545 . S
O1388 C1403 1.258 . S
O1389 Gd1344 2.606 . S
O1389 Gd1345 2.362 . S
O1389 C1400 1.284 . S
O1390 Gd1345 2.324 . S
O1390 C1410 1.254 . S
O1391 Gd1344 2.429 . S
O1391 C1410 1.268 . S
O1392 Gd1344 2.545 . S
O1392 C1400 1.250 . S
O1393 Gd1344 2.412 . S
O1393 C1403 1.252 . S
O1394 Gd1345 2.545 . S
O1394 C1412 1.258 . S
O1395 Gd1344 2.362 . S
O1395 Gd1345 2.606 . S
O1395 C1411 1.284 . S
O1396 Gd1344 2.324 . S
O1396 C1419 1.254 . S
O1397 Gd1345 2.429 . S
O1397 C1419 1.268 . S
O1398 Gd1345 2.545 . S
O1398 C1411 1.250 . S
O1399 Gd1345 2.412 . S
O1399 C1412 1.252 . S
C1400 O1389 1.284 . S
C1400 O1392 1.250 . S
C1401 H1370 0.929 . S
C1401 C1386 1.437 . S
C1401 C1402 1.317 . S
C1402 H1373 0.930 . S
C1402 C1378 1.431 . S
C1402 C1401 1.317 . S
C1403 Gd1344 2.828 . S
C1403 O1388 1.258 . S
C1403 O1393 1.252 . S
C1403 C1404 1.497 . S
C1404 C1403 1.497 . S
C1404 C1405 1.395 . S
C1404 C1406 1.380 . S
C1405 C1404 1.395 . S
C1405 C1408 1.398 . S
C1405 H1420 0.930 . S
C1406 C1404 1.380 . S
C1406 C1407 1.391 . S
C1406 H1421 0.930 . S
C1407 C1406 1.391 . S
C1407 C1409 1.387 . S
C1408 C1405 1.398 . S
C1408 C1409 1.380 . S
C1408 H1422 0.930 . S
C1409 C1407 1.387 . S
C1409 C1408 1.380 . S
C1409 H1423 0.930 . S
C1410 O1390 1.254 . S
C1410 O1391 1.268 . S
C1411 O1395 1.284 . S
C1411 O1398 1.250 . S
C1412 Gd1345 2.828 . S
C1412 O1394 1.258 . S
C1412 O1399 1.252 . S
C1412 C1413 1.497 . S
C1413 C1412 1.497 . S
C1413 C1414 1.395 . S
C1413 C1415 1.380 . S
C1414 C1413 1.395 . S
C1414 C1417 1.398 . S
C1414 H1424 0.930 . S
C1415 C1413 1.380 . S
C1415 C1416 1.391 . S
C1415 H1425 0.930 . S
C1416 C1415 1.391 . S
C1416 C1418 1.387 . S
C1417 C1414 1.398 . S
C1417 C1418 1.380 . S
C1417 H1426 0.930 . S
C1418 C1416 1.387 . S
C1418 C1417 1.380 . S
C1418 H1427 0.930 . S
C1419 O1396 1.254 . S
C1419 O1397 1.268 . S
H1420 C1405 0.930 . S
H1421 C1406 0.930 . S
H1422 C1408 0.930 . S
H1423 C1409 0.930 . S
H1424 C1414 0.930 . S
H1425 C1415 0.930 . S
H1426 C1417 0.930 . S
H1427 C1418 0.930 . S
Gd1428 N1459 2.661 . S
Gd1428 N1465 2.601 . S
Gd1428 O1472 2.545 . S
Gd1428 O1473 2.606 . S
Gd1428 O1475 2.429 . S
Gd1428 O1476 2.545 . S
Gd1428 O1477 2.412 . S
Gd1428 O1479 2.362 . S
Gd1428 O1480 2.324 . S
Gd1428 C1487 2.828 . S
Gd1429 N1438 2.661 . S
Gd1429 N1442 2.601 . S
Gd1429 O1473 2.362 . S
Gd1429 O1474 2.324 . S
Gd1429 O1478 2.545 . S
Gd1429 O1479 2.606 . S
Gd1429 O1481 2.429 . S
Gd1429 O1482 2.545 . S
Gd1429 O1483 2.412 . S
Gd1429 C1496 2.828 . S
C1430 C1433 1.417 . S
C1430 C1435 1.431 . S
C1430 C1436 1.412 . S
C1431 C1434 1.437 . S
C1431 C1435 1.317 . S
C1431 H1450 0.929 . S
C1432 C1433 1.426 . S
C1432 C1434 1.413 . S
C1432 N1442 1.359 . S
C1433 C1430 1.417 . S
C1433 C1432 1.426 . S
C1433 N1438 1.350 . S
C1434 C1431 1.437 . S
C1434 C1432 1.413 . S
C1434 C1444 1.391 . S
C1435 C1430 1.431 . S
C1435 C1431 1.317 . S
C1435 H1446 0.930 . S
C1436 C1430 1.412 . S
C1436 C1437 1.355 . S
C1436 H1448 0.930 . S
C1437 C1436 1.355 . S
C1437 C1439 1.402 . S
C1437 H1449 0.930 . S
N1438 Gd1429 2.661 . S
N1438 C1433 1.350 . S
N1438 C1439 1.307 . S
C1439 C1437 1.402 . S
C1439 N1438 1.307 . S
C1439 H1440 0.930 . S
H1440 C1439 0.930 . S
C1441 N1442 1.334 . S
C1441 C1443 1.394 . S
C1441 H1445 0.930 . S
N1442 Gd1429 2.601 . S
N1442 C1432 1.359 . S
N1442 C1441 1.334 . S
C1443 C1441 1.394 . S
C1443 C1444 1.359 . S
C1443 H1455 0.930 . S
C1444 C1434 1.391 . S
C1444 C1443 1.359 . S
C1444 H1456 0.929 . S
H1445 C1441 0.930 . S
H1446 C1435 0.930 . S
H1447 C1464 0.930 . S
H1448 C1436 0.930 . S
H1449 C1437 0.930 . S
H1450 C1431 0.929 . S
H1451 C1469 0.930 . S
H1452 C1460 0.930 . S
H1453 C1461 0.930 . S
H1454 C1485 0.929 . S
H1455 C1443 0.930 . S
H1456 C1444 0.929 . S
H1457 C1486 0.930 . S
H1458 C1467 0.930 . S
N1459 Gd1428 2.661 . S
N1459 C1463 1.350 . S
N1459 C1464 1.307 . S
C1460 H1452 0.930 . S
C1460 C1461 1.355 . S
C1460 C1462 1.412 . S
C1461 H1453 0.930 . S
C1461 C1460 1.355 . S
C1461 C1464 1.402 . S
C1462 C1460 1.412 . S
C1462 C1463 1.417 . S
C1462 C1486 1.431 . S
C1463 N1459 1.350 . S
C1463 C1462 1.417 . S
C1463 C1466 1.426 . S
C1464 H1447 0.930 . S
C1464 N1459 1.307 . S
C1464 C1461 1.402 . S
N1465 Gd1428 2.601 . S
N1465 C1466 1.359 . S
N1465 C1469 1.334 . S
C1466 C1463 1.426 . S
C1466 N1465 1.359 . S
C1466 C1470 1.413 . S
C1467 H1458 0.930 . S
C1467 C1468 1.359 . S
C1467 C1469 1.394 . S
C1468 C1467 1.359 . S
C1468 C1470 1.391 . S
C1468 H1471 0.929 . S
C1469 H1451 0.930 . S
C1469 N1465 1.334 . S
C1469 C1467 1.394 . S
C1470 C1466 1.413 . S
C1470 C1468 1.391 . S
C1470 C1485 1.437 . S
H1471 C1468 0.929 . S
O1472 Gd1428 2.545 . S
O1472 C1487 1.258 . S
O1473 Gd1428 2.606 . S
O1473 Gd1429 2.362 . S
O1473 C1484 1.284 . S
O1474 Gd1429 2.324 . S
O1474 C1494 1.254 . S
O1475 Gd1428 2.429 . S
O1475 C1494 1.268 . S
O1476 Gd1428 2.545 . S
O1476 C1484 1.250 . S
O1477 Gd1428 2.412 . S
O1477 C1487 1.252 . S
O1478 Gd1429 2.545 . S
O1478 C1496 1.258 . S
O1479 Gd1428 2.362 . S
O1479 Gd1429 2.606 . S
O1479 C1495 1.284 . S
O1480 Gd1428 2.324 . S
O1480 C1503 1.254 . S
O1481 Gd1429 2.429 . S
O1481 C1503 1.268 . S
O1482 Gd1429 2.545 . S
O1482 C1495 1.250 . S
O1483 Gd1429 2.412 . S
O1483 C1496 1.252 . S
C1484 O1473 1.284 . S
C1484 O1476 1.250 . S
C1485 H1454 0.929 . S
C1485 C1470 1.437 . S
C1485 C1486 1.317 . S
C1486 H1457 0.930 . S
C1486 C1462 1.431 . S
C1486 C1485 1.317 . S
C1487 Gd1428 2.828 . S
C1487 O1472 1.258 . S
C1487 O1477 1.252 . S
C1487 C1488 1.497 . S
C1488 C1487 1.497 . S
C1488 C1489 1.395 . S
C1488 C1490 1.380 . S
C1489 C1488 1.395 . S
C1489 C1492 1.398 . S
C1489 H1504 0.930 . S
C1490 C1488 1.380 . S
C1490 C1491 1.391 . S
C1490 H1505 0.930 . S
C1491 C1490 1.391 . S
C1491 C1493 1.387 . S
C1492 C1489 1.398 . S
C1492 C1493 1.380 . S
C1492 H1506 0.930 . S
C1493 C1491 1.387 . S
C1493 C1492 1.380 . S
C1493 H1507 0.930 . S
C1494 O1474 1.254 . S
C1494 O1475 1.268 . S
C1495 O1479 1.284 . S
C1495 O1482 1.250 . S
C1496 Gd1429 2.828 . S
C1496 O1478 1.258 . S
C1496 O1483 1.252 . S
C1496 C1497 1.497 . S
C1497 C1496 1.497 . S
C1497 C1498 1.395 . S
C1497 C1499 1.380 . S
C1498 C1497 1.395 . S
C1498 C1501 1.398 . S
C1498 H1508 0.930 . S
C1499 C1497 1.380 . S
C1499 C1500 1.391 . S
C1499 H1509 0.930 . S
C1500 C1499 1.391 . S
C1500 C1502 1.387 . S
C1501 C1498 1.398 . S
C1501 C1502 1.380 . S
C1501 H1510 0.930 . S
C1502 C1500 1.387 . S
C1502 C1501 1.380 . S
C1502 H1511 0.930 . S
C1503 O1480 1.254 . S
C1503 O1481 1.268 . S
H1504 C1489 0.930 . S
H1505 C1490 0.930 . S
H1506 C1492 0.930 . S
H1507 C1493 0.930 . S
H1508 C1498 0.930 . S
H1509 C1499 0.930 . S
H1510 C1501 0.930 . S
H1511 C1502 0.930 . S
Gd1512 N1543 2.661 . S
Gd1512 N1549 2.601 . S
Gd1512 O1556 2.545 . S
Gd1512 O1557 2.606 . S
Gd1512 O1559 2.429 . S
Gd1512 O1560 2.545 . S
Gd1512 O1561 2.412 . S
Gd1512 O1563 2.362 . S
Gd1512 O1564 2.324 . S
Gd1512 C1571 2.828 . S
Gd1513 N1522 2.661 . S
Gd1513 N1526 2.601 1_556 S
Gd1513 O1557 2.362 . S
Gd1513 O1558 2.324 . S
Gd1513 O1562 2.545 1_556 S
Gd1513 O1563 2.606 . S
Gd1513 O1565 2.429 . S
Gd1513 O1566 2.545 1_556 S
Gd1513 O1567 2.412 1_556 S
Gd1513 C1580 2.828 1_556 S
C1514 C1517 1.417 . S
C1514 C1519 1.431 . S
C1514 C1520 1.412 . S
C1515 C1518 1.437 1_556 S
C1515 C1519 1.317 . S
C1515 H1534 0.929 . S
C1516 C1517 1.426 . S
C1516 C1518 1.413 1_556 S
C1516 N1526 1.359 1_556 S
C1517 C1514 1.417 . S
C1517 C1516 1.426 . S
C1517 N1522 1.350 . S
C1518 C1515 1.437 1_554 S
C1518 C1516 1.413 1_554 S
C1518 C1528 1.391 . S
C1519 C1514 1.431 . S
C1519 C1515 1.317 . S
C1519 H1530 0.930 . S
C1520 C1514 1.412 . S
C1520 C1521 1.355 . S
C1520 H1532 0.930 . S
C1521 C1520 1.355 . S
C1521 C1523 1.402 . S
C1521 H1533 0.930 . S
N1522 Gd1513 2.661 . S
N1522 C1517 1.350 . S
N1522 C1523 1.307 . S
C1523 C1521 1.402 . S
C1523 N1522 1.307 . S
C1523 H1524 0.930 . S
H1524 C1523 0.930 . S
C1525 N1526 1.334 . S
C1525 C1527 1.394 . S
C1525 H1529 0.930 . S
N1526 Gd1513 2.601 1_554 S
N1526 C1516 1.359 1_554 S
N1526 C1525 1.334 . S
C1527 C1525 1.394 . S
C1527 C1528 1.359 . S
C1527 H1539 0.930 . S
C1528 C1518 1.391 . S
C1528 C1527 1.359 . S
C1528 H1540 0.929 . S
H1529 C1525 0.930 . S
H1530 C1519 0.930 . S
H1531 C1548 0.930 . S
H1532 C1520 0.930 . S
H1533 C1521 0.930 . S
H1534 C1515 0.929 . S
H1535 C1553 0.930 . S
H1536 C1544 0.930 . S
H1537 C1545 0.930 1_554 S
H1538 C1569 0.929 . S
H1539 C1527 0.930 . S
H1540 C1528 0.929 . S
H1541 C1570 0.930 . S
H1542 C1551 0.930 . S
N1543 Gd1512 2.661 . S
N1543 C1547 1.350 . S
N1543 C1548 1.307 . S
C1544 H1536 0.930 . S
C1544 C1545 1.355 . S
C1544 C1546 1.412 . S
C1545 H1537 0.930 1_556 S
C1545 C1544 1.355 . S
C1545 C1548 1.402 . S
C1546 C1544 1.412 . S
C1546 C1547 1.417 . S
C1546 C1570 1.431 . S
C1547 N1543 1.350 . S
C1547 C1546 1.417 . S
C1547 C1550 1.426 . S
C1548 H1531 0.930 . S
C1548 N1543 1.307 . S
C1548 C1545 1.402 . S
N1549 Gd1512 2.601 . S
N1549 C1550 1.359 . S
N1549 C1553 1.334 . S
C1550 C1547 1.426 . S
C1550 N1549 1.359 . S
C1550 C1554 1.413 . S
C1551 H1542 0.930 . S
C1551 C1552 1.359 . S
C1551 C1553 1.394 . S
C1552 C1551 1.359 . S
C1552 C1554 1.391 . S
C1552 H1555 0.929 . S
C1553 H1535 0.930 . S
C1553 N1549 1.334 . S
C1553 C1551 1.394 . S
C1554 C1550 1.413 . S
C1554 C1552 1.391 . S
C1554 C1569 1.437 . S
H1555 C1552 0.929 . S
O1556 Gd1512 2.545 . S
O1556 C1571 1.258 . S
O1557 Gd1512 2.606 . S
O1557 Gd1513 2.362 . S
O1557 C1568 1.284 . S
O1558 Gd1513 2.324 . S
O1558 C1578 1.254 . S
O1559 Gd1512 2.429 . S
O1559 C1578 1.268 . S
O1560 Gd1512 2.545 . S
O1560 C1568 1.250 . S
O1561 Gd1512 2.412 . S
O1561 C1571 1.252 . S
O1562 Gd1513 2.545 1_554 S
O1562 C1580 1.258 . S
O1563 Gd1512 2.362 . S
O1563 Gd1513 2.606 . S
O1563 C1579 1.284 . S
O1564 Gd1512 2.324 . S
O1564 C1587 1.254 . S
O1565 Gd1513 2.429 . S
O1565 C1587 1.268 . S
O1566 Gd1513 2.545 1_554 S
O1566 C1579 1.250 1_554 S
O1567 Gd1513 2.412 1_554 S
O1567 C1580 1.252 . S
C1568 O1557 1.284 . S
C1568 O1560 1.250 . S
C1569 H1538 0.929 . S
C1569 C1554 1.437 . S
C1569 C1570 1.317 . S
C1570 H1541 0.930 . S
C1570 C1546 1.431 . S
C1570 C1569 1.317 . S
C1571 Gd1512 2.828 . S
C1571 O1556 1.258 . S
C1571 O1561 1.252 . S
C1571 C1572 1.497 . S
C1572 C1571 1.497 . S
C1572 C1573 1.395 . S
C1572 C1574 1.380 . S
C1573 C1572 1.395 . S
C1573 C1576 1.398 . S
C1573 H1588 0.930 . S
C1574 C1572 1.380 . S
C1574 C1575 1.391 . S
C1574 H1589 0.930 . S
C1575 C1574 1.391 . S
C1575 C1577 1.387 . S
C1576 C1573 1.398 . S
C1576 C1577 1.380 . S
C1576 H1590 0.930 . S
C1577 C1575 1.387 . S
C1577 C1576 1.380 . S
C1577 H1591 0.930 . S
C1578 O1558 1.254 . S
C1578 O1559 1.268 . S
C1579 O1563 1.284 . S
C1579 O1566 1.250 1_556 S
C1580 Gd1513 2.828 1_554 S
C1580 O1562 1.258 . S
C1580 O1567 1.252 . S
C1580 C1581 1.497 . S
C1581 C1580 1.497 . S
C1581 C1582 1.395 . S
C1581 C1583 1.380 . S
C1582 C1581 1.395 . S
C1582 C1585 1.398 . S
C1582 H1592 0.930 . S
C1583 C1581 1.380 . S
C1583 C1584 1.391 . S
C1583 H1593 0.930 . S
C1584 C1583 1.391 . S
C1584 C1586 1.387 . S
C1585 C1582 1.398 . S
C1585 C1586 1.380 . S
C1585 H1594 0.930 . S
C1586 C1584 1.387 . S
C1586 C1585 1.380 . S
C1586 H1595 0.930 . S
C1587 O1564 1.254 . S
C1587 O1565 1.268 . S
H1588 C1573 0.930 . S
H1589 C1574 0.930 . S
H1590 C1576 0.930 . S
H1591 C1577 0.930 . S
H1592 C1582 0.930 . S
H1593 C1583 0.930 . S
H1594 C1585 0.930 . S
H1595 C1586 0.930 . S
Gd1596 N1627 2.661 1_655 S
Gd1596 N1633 2.601 1_655 S
Gd1596 O1640 2.545 1_655 S
Gd1596 O1641 2.606 . S
Gd1596 O1643 2.429 . S
Gd1596 O1644 2.545 . S
Gd1596 O1645 2.412 1_655 S
Gd1596 O1647 2.362 . S
Gd1596 O1648 2.307 1_655 S
Gd1596 C1655 2.828 1_655 S
Gd1597 N1606 2.661 . S
Gd1597 N1610 2.601 . S
Gd1597 O1641 2.362 . S
Gd1597 O1642 2.324 . S
Gd1597 O1646 2.545 . S
Gd1597 O1647 2.606 . S
Gd1597 O1649 2.429 . S
Gd1597 O1650 2.545 . S
Gd1597 O1651 2.412 . S
Gd1597 C1664 2.828 . S
C1598 C1601 1.417 . S
C1598 C1603 1.431 . S
C1598 C1604 1.412 . S
C1599 C1602 1.437 . S
C1599 C1603 1.317 . S
C1599 H1618 0.929 . S
C1600 C1601 1.426 . S
C1600 C1602 1.413 . S
C1600 N1610 1.359 . S
C1601 C1598 1.417 . S
C1601 C1600 1.426 . S
C1601 N1606 1.350 . S
C1602 C1599 1.437 . S
C1602 C1600 1.413 . S
C1602 C1612 1.391 . S
C1603 C1598 1.431 . S
C1603 C1599 1.317 . S
C1603 H1614 0.930 . S
C1604 C1598 1.412 . S
C1604 C1605 1.355 . S
C1604 H1616 0.930 . S
C1605 C1604 1.355 . S
C1605 C1607 1.402 . S
C1605 H1617 0.930 . S
N1606 Gd1597 2.661 . S
N1606 C1601 1.350 . S
N1606 C1607 1.307 . S
C1607 C1605 1.402 . S
C1607 N1606 1.307 . S
C1607 H1608 0.930 . S
H1608 C1607 0.930 . S
C1609 N1610 1.334 . S
C1609 C1611 1.394 . S
C1609 H1613 0.930 . S
N1610 Gd1597 2.601 . S
N1610 C1600 1.359 . S
N1610 C1609 1.334 . S
C1611 C1609 1.394 . S
C1611 C1612 1.359 . S
C1611 H1623 0.930 . S
C1612 C1602 1.391 . S
C1612 C1611 1.359 . S
C1612 H1624 0.929 . S
H1613 C1609 0.930 . S
H1614 C1603 0.930 . S
H1615 C1632 0.930 . S
H1616 C1604 0.930 . S
H1617 C1605 0.930 . S
H1618 C1599 0.929 . S
H1619 C1637 0.930 . S
H1620 C1628 0.930 . S
H1621 C1629 0.930 . S
H1622 C1653 0.929 . S
H1623 C1611 0.930 . S
H1624 C1612 0.929 . S
H1625 C1654 0.930 . S
H1626 C1635 0.930 1_655 S
N1627 Gd1596 2.661 1_455 S
N1627 C1631 1.350 . S
N1627 C1632 1.307 . S
C1628 H1620 0.930 . S
C1628 C1629 1.355 . S
C1628 C1630 1.412 . S
C1629 H1621 0.930 . S
C1629 C1628 1.355 . S
C1629 C1632 1.402 . S
C1630 C1628 1.412 . S
C1630 C1631 1.417 . S
C1630 C1654 1.431 . S
C1631 N1627 1.350 . S
C1631 C1630 1.417 . S
C1631 C1634 1.426 . S
C1632 H1615 0.930 . S
C1632 N1627 1.307 . S
C1632 C1629 1.402 . S
N1633 Gd1596 2.601 1_455 S
N1633 C1634 1.359 . S
N1633 C1637 1.334 1_455 S
C1634 C1631 1.426 . S
C1634 N1633 1.359 . S
C1634 C1638 1.413 . S
C1635 H1626 0.930 1_455 S
C1635 C1636 1.359 . S
C1635 C1637 1.394 1_455 S
C1636 C1635 1.359 . S
C1636 C1638 1.391 . S
C1636 H1639 0.929 . S
C1637 H1619 0.930 . S
C1637 N1633 1.334 1_655 S
C1637 C1635 1.394 1_655 S
C1638 C1634 1.413 . S
C1638 C1636 1.391 . S
C1638 C1653 1.437 . S
H1639 C1636 0.929 . S
O1640 Gd1596 2.545 1_455 S
O1640 C1655 1.258 . S
O1641 Gd1596 2.606 . S
O1641 Gd1597 2.362 . S
O1641 C1652 1.284 . S
O1642 Gd1597 2.324 . S
O1642 C1662 1.254 . S
O1643 Gd1596 2.429 . S
O1643 C1662 1.268 . S
O1644 Gd1596 2.545 . S
O1644 C1652 1.250 . S
O1645 Gd1596 2.412 1_455 S
O1645 C1655 1.252 . S
O1646 Gd1597 2.545 . S
O1646 C1664 1.258 . S
O1647 Gd1596 2.362 . S
O1647 Gd1597 2.606 . S
O1647 C1663 1.284 . S
O1648 Gd1596 2.307 1_455 S
O1648 C1671 1.234 1_455 S
O1649 Gd1597 2.429 . S
O1649 C1671 1.268 . S
O1650 Gd1597 2.545 . S
O1650 C1663 1.250 . S
O1651 Gd1597 2.412 . S
O1651 C1664 1.252 . S
C1652 O1641 1.284 . S
C1652 O1644 1.250 . S
C1653 H1622 0.929 . S
C1653 C1638 1.437 . S
C1653 C1654 1.317 . S
C1654 H1625 0.930 . S
C1654 C1630 1.431 . S
C1654 C1653 1.317 . S
C1655 Gd1596 2.828 1_455 S
C1655 O1640 1.258 . S
C1655 O1645 1.252 . S
C1655 C1656 1.497 . S
C1656 C1655 1.497 . S
C1656 C1657 1.395 . S
C1656 C1658 1.380 . S
C1657 C1656 1.395 . S
C1657 C1660 1.398 . S
C1657 H1672 0.930 . S
C1658 C1656 1.380 . S
C1658 C1659 1.391 . S
C1658 H1673 0.930 . S
C1659 C1658 1.391 . S
C1659 C1661 1.387 . S
C1660 C1657 1.398 . S
C1660 C1661 1.380 . S
C1660 H1674 0.930 . S
C1661 C1659 1.387 . S
C1661 C1660 1.380 . S
C1661 H1675 0.930 . S
C1662 O1642 1.254 . S
C1662 O1643 1.268 . S
C1663 O1647 1.284 . S
C1663 O1650 1.250 . S
C1664 Gd1597 2.828 . S
C1664 O1646 1.258 . S
C1664 O1651 1.252 . S
C1664 C1665 1.497 . S
C1665 C1664 1.497 . S
C1665 C1666 1.395 . S
C1665 C1667 1.380 . S
C1666 C1665 1.395 . S
C1666 C1669 1.398 . S
C1666 H1676 0.930 . S
C1667 C1665 1.380 . S
C1667 C1668 1.391 . S
C1667 H1677 0.930 . S
C1668 C1667 1.391 . S
C1668 C1670 1.387 . S
C1669 C1666 1.398 . S
C1669 C1670 1.380 . S
C1669 H1678 0.930 . S
C1670 C1668 1.387 . S
C1670 C1669 1.380 . S
C1670 H1679 0.930 . S
C1671 O1648 1.234 1_655 S
C1671 O1649 1.268 . S
H1672 C1657 0.930 . S
H1673 C1658 0.930 . S
H1674 C1660 0.930 . S
H1675 C1661 0.930 . S
H1676 C1666 0.930 . S
H1677 C1667 0.930 . S
H1678 C1669 0.930 . S
H1679 C1670 0.930 . S
Gd1680 N1711 2.661 . S
Gd1680 N1717 2.601 . S
Gd1680 O1724 2.545 . S
Gd1680 O1725 2.606 . S
Gd1680 O1727 2.429 . S
Gd1680 O1728 2.545 . S
Gd1680 O1729 2.412 . S
Gd1680 O1731 2.362 . S
Gd1680 O1732 2.324 . S
Gd1680 C1739 2.828 . S
Gd1681 N1690 2.661 . S
Gd1681 N1694 2.601 . S
Gd1681 O1725 2.362 . S
Gd1681 O1726 2.324 . S
Gd1681 O1730 2.545 . S
Gd1681 O1731 2.606 . S
Gd1681 O1733 2.429 . S
Gd1681 O1734 2.545 . S
Gd1681 O1735 2.412 . S
Gd1681 C1748 2.828 . S
C1682 C1685 1.417 . S
C1682 C1687 1.431 . S
C1682 C1688 1.412 . S
C1683 C1686 1.437 . S
C1683 C1687 1.317 . S
C1683 H1702 0.929 . S
C1684 C1685 1.426 . S
C1684 C1686 1.413 . S
C1684 N1694 1.359 . S
C1685 C1682 1.417 . S
C1685 C1684 1.426 . S
C1685 N1690 1.350 . S
C1686 C1683 1.437 . S
C1686 C1684 1.413 . S
C1686 C1696 1.391 . S
C1687 C1682 1.431 . S
C1687 C1683 1.317 . S
C1687 H1698 0.930 . S
C1688 C1682 1.412 . S
C1688 C1689 1.355 . S
C1688 H1700 0.930 . S
C1689 C1688 1.355 . S
C1689 C1691 1.402 . S
C1689 H1701 0.930 . S
N1690 Gd1681 2.661 . S
N1690 C1685 1.350 . S
N1690 C1691 1.307 . S
C1691 C1689 1.402 . S
C1691 N1690 1.307 . S
C1691 H1692 0.930 . S
H1692 C1691 0.930 . S
C1693 N1694 1.334 . S
C1693 C1695 1.394 . S
C1693 H1697 0.930 . S
N1694 Gd1681 2.601 . S
N1694 C1684 1.359 . S
N1694 C1693 1.334 . S
C1695 C1693 1.394 . S
C1695 C1696 1.359 . S
C1695 H1707 0.930 . S
C1696 C1686 1.391 . S
C1696 C1695 1.359 . S
C1696 H1708 0.929 . S
H1697 C1693 0.930 . S
H1698 C1687 0.930 . S
H1699 C1716 0.930 . S
H1700 C1688 0.930 . S
H1701 C1689 0.930 . S
H1702 C1683 0.929 . S
H1703 C1721 0.930 . S
H1704 C1712 0.930 . S
H1705 C1713 0.930 . S
H1706 C1737 0.929 . S
H1707 C1695 0.930 . S
H1708 C1696 0.929 . S
H1709 C1738 0.930 . S
H1710 C1719 0.930 . S
N1711 Gd1680 2.661 . S
N1711 C1715 1.350 . S
N1711 C1716 1.307 . S
C1712 H1704 0.930 . S
C1712 C1713 1.355 . S
C1712 C1714 1.412 . S
C1713 H1705 0.930 . S
C1713 C1712 1.355 . S
C1713 C1716 1.402 . S
C1714 C1712 1.412 . S
C1714 C1715 1.417 . S
C1714 C1738 1.431 . S
C1715 N1711 1.350 . S
C1715 C1714 1.417 . S
C1715 C1718 1.426 . S
C1716 H1699 0.930 . S
C1716 N1711 1.307 . S
C1716 C1713 1.402 . S
N1717 Gd1680 2.601 . S
N1717 C1718 1.359 . S
N1717 C1721 1.334 . S
C1718 C1715 1.426 . S
C1718 N1717 1.359 . S
C1718 C1722 1.413 . S
C1719 H1710 0.930 . S
C1719 C1720 1.359 . S
C1719 C1721 1.394 . S
C1720 C1719 1.359 . S
C1720 C1722 1.391 . S
C1720 H1723 0.929 . S
C1721 H1703 0.930 . S
C1721 N1717 1.334 . S
C1721 C1719 1.394 . S
C1722 C1718 1.413 . S
C1722 C1720 1.391 . S
C1722 C1737 1.437 . S
H1723 C1720 0.929 . S
O1724 Gd1680 2.545 . S
O1724 C1739 1.258 . S
O1725 Gd1680 2.606 . S
O1725 Gd1681 2.362 . S
O1725 C1736 1.284 . S
O1726 Gd1681 2.324 . S
O1726 C1746 1.254 . S
O1727 Gd1680 2.429 . S
O1727 C1746 1.268 . S
O1728 Gd1680 2.545 . S
O1728 C1736 1.250 . S
O1729 Gd1680 2.412 . S
O1729 C1739 1.252 . S
O1730 Gd1681 2.545 . S
O1730 C1748 1.258 . S
O1731 Gd1680 2.362 . S
O1731 Gd1681 2.606 . S
O1731 C1747 1.284 . S
O1732 Gd1680 2.324 . S
O1732 C1755 1.254 . S
O1733 Gd1681 2.429 . S
O1733 C1755 1.268 . S
O1734 Gd1681 2.545 . S
O1734 C1747 1.250 . S
O1735 Gd1681 2.412 . S
O1735 C1748 1.252 . S
C1736 O1725 1.284 . S
C1736 O1728 1.250 . S
C1737 H1706 0.929 . S
C1737 C1722 1.437 . S
C1737 C1738 1.317 . S
C1738 H1709 0.930 . S
C1738 C1714 1.431 . S
C1738 C1737 1.317 . S
C1739 Gd1680 2.828 . S
C1739 O1724 1.258 . S
C1739 O1729 1.252 . S
C1739 C1740 1.497 . S
C1740 C1739 1.497 . S
C1740 C1741 1.395 . S
C1740 C1742 1.380 . S
C1741 C1740 1.395 . S
C1741 C1744 1.398 . S
C1741 H1756 0.930 . S
C1742 C1740 1.380 . S
C1742 C1743 1.391 . S
C1742 H1757 0.930 . S
C1743 C1742 1.391 . S
C1743 C1745 1.387 . S
C1744 C1741 1.398 . S
C1744 C1745 1.380 . S
C1744 H1758 0.930 . S
C1745 C1743 1.387 . S
C1745 C1744 1.380 . S
C1745 H1759 0.930 . S
C1746 O1726 1.254 . S
C1746 O1727 1.268 . S
C1747 O1731 1.284 . S
C1747 O1734 1.250 . S
C1748 Gd1681 2.828 . S
C1748 O1730 1.258 . S
C1748 O1735 1.252 . S
C1748 C1749 1.497 . S
C1749 C1748 1.497 . S
C1749 C1750 1.395 . S
C1749 C1751 1.380 . S
C1750 C1749 1.395 . S
C1750 C1753 1.398 . S
C1750 H1760 0.930 . S
C1751 C1749 1.380 . S
C1751 C1752 1.391 . S
C1751 H1761 0.930 . S
C1752 C1751 1.391 . S
C1752 C1754 1.387 . S
C1753 C1750 1.398 . S
C1753 C1754 1.380 . S
C1753 H1762 0.930 . S
C1754 C1752 1.387 . S
C1754 C1753 1.380 . S
C1754 H1763 0.930 . S
C1755 O1732 1.254 . S
C1755 O1733 1.268 . S
H1756 C1741 0.930 . S
H1757 C1742 0.930 . S
H1758 C1744 0.930 . S
H1759 C1745 0.930 . S
H1760 C1750 0.930 . S
H1761 C1751 0.930 . S
H1762 C1753 0.930 . S
H1763 C1754 0.930 . S
Gd1764 N1795 2.661 . S
Gd1764 N1801 2.601 . S
Gd1764 O1808 2.545 . S
Gd1764 O1809 2.606 . S
Gd1764 O1811 2.429 . S
Gd1764 O1812 2.545 . S
Gd1764 O1813 2.412 . S
Gd1764 O1815 2.362 . S
Gd1764 O1816 2.324 . S
Gd1764 C1823 2.828 . S
Gd1765 N1774 2.661 . S
Gd1765 N1778 2.601 . S
Gd1765 O1809 2.362 . S
Gd1765 O1810 2.324 . S
Gd1765 O1814 2.545 . S
Gd1765 O1815 2.606 . S
Gd1765 O1817 2.429 . S
Gd1765 O1818 2.545 . S
Gd1765 O1819 2.412 . S
Gd1765 C1832 2.828 . S
C1766 C1769 1.417 . S
C1766 C1771 1.431 . S
C1766 C1772 1.412 . S
C1767 C1770 1.437 . S
C1767 C1771 1.317 . S
C1767 H1786 0.929 . S
C1768 C1769 1.426 . S
C1768 C1770 1.413 . S
C1768 N1778 1.359 . S
C1769 C1766 1.417 . S
C1769 C1768 1.426 . S
C1769 N1774 1.350 . S
C1770 C1767 1.437 . S
C1770 C1768 1.413 . S
C1770 C1780 1.391 . S
C1771 C1766 1.431 . S
C1771 C1767 1.317 . S
C1771 H1782 0.930 . S
C1772 C1766 1.412 . S
C1772 C1773 1.355 . S
C1772 H1784 0.930 . S
C1773 C1772 1.355 . S
C1773 C1775 1.402 . S
C1773 H1785 0.930 . S
N1774 Gd1765 2.661 . S
N1774 C1769 1.350 . S
N1774 C1775 1.307 . S
C1775 C1773 1.402 . S
C1775 N1774 1.307 . S
C1775 H1776 0.930 . S
H1776 C1775 0.930 . S
C1777 N1778 1.334 . S
C1777 C1779 1.394 . S
C1777 H1781 0.930 . S
N1778 Gd1765 2.601 . S
N1778 C1768 1.359 . S
N1778 C1777 1.334 . S
C1779 C1777 1.394 . S
C1779 C1780 1.359 . S
C1779 H1791 0.930 . S
C1780 C1770 1.391 . S
C1780 C1779 1.359 . S
C1780 H1792 0.929 . S
H1781 C1777 0.930 . S
H1782 C1771 0.930 . S
H1783 C1800 0.930 . S
H1784 C1772 0.930 . S
H1785 C1773 0.930 . S
H1786 C1767 0.929 . S
H1787 C1805 0.930 . S
H1788 C1796 0.930 . S
H1789 C1797 0.930 . S
H1790 C1821 0.929 . S
H1791 C1779 0.930 . S
H1792 C1780 0.929 . S
H1793 C1822 0.930 . S
H1794 C1803 0.930 . S
N1795 Gd1764 2.661 . S
N1795 C1799 1.350 . S
N1795 C1800 1.307 . S
C1796 H1788 0.930 . S
C1796 C1797 1.355 . S
C1796 C1798 1.412 . S
C1797 H1789 0.930 . S
C1797 C1796 1.355 . S
C1797 C1800 1.402 . S
C1798 C1796 1.412 . S
C1798 C1799 1.417 . S
C1798 C1822 1.431 . S
C1799 N1795 1.350 . S
C1799 C1798 1.417 . S
C1799 C1802 1.426 . S
C1800 H1783 0.930 . S
C1800 N1795 1.307 . S
C1800 C1797 1.402 . S
N1801 Gd1764 2.601 . S
N1801 C1802 1.359 . S
N1801 C1805 1.334 . S
C1802 C1799 1.426 . S
C1802 N1801 1.359 . S
C1802 C1806 1.413 . S
C1803 H1794 0.930 . S
C1803 C1804 1.359 . S
C1803 C1805 1.394 . S
C1804 C1803 1.359 . S
C1804 C1806 1.391 . S
C1804 H1807 0.929 . S
C1805 H1787 0.930 . S
C1805 N1801 1.334 . S
C1805 C1803 1.394 . S
C1806 C1802 1.413 . S
C1806 C1804 1.391 . S
C1806 C1821 1.437 . S
H1807 C1804 0.929 . S
O1808 Gd1764 2.545 . S
O1808 C1823 1.258 . S
O1809 Gd1764 2.606 . S
O1809 Gd1765 2.362 . S
O1809 C1820 1.284 . S
O1810 Gd1765 2.324 . S
O1810 C1830 1.254 . S
O1811 Gd1764 2.429 . S
O1811 C1830 1.268 . S
O1812 Gd1764 2.545 . S
O1812 C1820 1.250 . S
O1813 Gd1764 2.412 . S
O1813 C1823 1.252 . S
O1814 Gd1765 2.545 . S
O1814 C1832 1.258 . S
O1815 Gd1764 2.362 . S
O1815 Gd1765 2.606 . S
O1815 C1831 1.284 . S
O1816 Gd1764 2.324 . S
O1816 C1839 1.254 . S
O1817 Gd1765 2.429 . S
O1817 C1839 1.268 . S
O1818 Gd1765 2.545 . S
O1818 C1831 1.250 . S
O1819 Gd1765 2.412 . S
O1819 C1832 1.252 . S
C1820 O1809 1.284 . S
C1820 O1812 1.250 . S
C1821 H1790 0.929 . S
C1821 C1806 1.437 . S
C1821 C1822 1.317 . S
C1822 H1793 0.930 . S
C1822 C1798 1.431 . S
C1822 C1821 1.317 . S
C1823 Gd1764 2.828 . S
C1823 O1808 1.258 . S
C1823 O1813 1.252 . S
C1823 C1824 1.497 . S
C1824 C1823 1.497 . S
C1824 C1825 1.395 . S
C1824 C1826 1.380 . S
C1825 C1824 1.395 . S
C1825 C1828 1.398 . S
C1825 H1840 0.930 . S
C1826 C1824 1.380 . S
C1826 C1827 1.391 . S
C1826 H1841 0.930 . S
C1827 C1826 1.391 . S
C1827 C1829 1.387 . S
C1828 C1825 1.398 . S
C1828 C1829 1.380 . S
C1828 H1842 0.930 . S
C1829 C1827 1.387 . S
C1829 C1828 1.380 . S
C1829 H1843 0.930 . S
C1830 O1810 1.254 . S
C1830 O1811 1.268 . S
C1831 O1815 1.284 . S
C1831 O1818 1.250 . S
C1832 Gd1765 2.828 . S
C1832 O1814 1.258 . S
C1832 O1819 1.252 . S
C1832 C1833 1.497 . S
C1833 C1832 1.497 . S
C1833 C1834 1.395 . S
C1833 C1835 1.380 . S
C1834 C1833 1.395 . S
C1834 C1837 1.398 . S
C1834 H1844 0.930 . S
C1835 C1833 1.380 . S
C1835 C1836 1.391 . S
C1835 H1845 0.930 . S
C1836 C1835 1.391 . S
C1836 C1838 1.387 . S
C1837 C1834 1.398 . S
C1837 C1838 1.380 . S
C1837 H1846 0.930 . S
C1838 C1836 1.387 . S
C1838 C1837 1.380 . S
C1838 H1847 0.930 . S
C1839 O1816 1.254 . S
C1839 O1817 1.268 . S
H1840 C1825 0.930 . S
H1841 C1826 0.930 . S
H1842 C1828 0.930 . S
H1843 C1829 0.930 . S
H1844 C1834 0.930 . S
H1845 C1835 0.930 . S
H1846 C1837 0.930 . S
H1847 C1838 0.930 . S
Gd1848 N1879 2.661 1_554 S
Gd1848 N1885 2.601 1_554 S
Gd1848 O1892 2.545 1_554 S
Gd1848 O1893 2.606 . S
Gd1848 O1895 2.429 . S
Gd1848 O1896 2.545 . S
Gd1848 O1897 2.412 1_554 S
Gd1848 O1899 2.362 . S
Gd1848 O1900 2.324 1_554 S
Gd1848 C1907 2.828 1_554 S
Gd1849 N1858 2.661 . S
Gd1849 N1862 2.601 . S
Gd1849 O1893 2.362 . S
Gd1849 O1894 2.324 . S
Gd1849 O1898 2.545 . S
Gd1849 O1899 2.606 . S
Gd1849 O1901 2.429 . S
Gd1849 O1902 2.545 . S
Gd1849 O1903 2.412 . S
Gd1849 C1916 2.828 . S
C1850 C1853 1.417 . S
C1850 C1855 1.431 . S
C1850 C1856 1.412 . S
C1851 C1854 1.437 . S
C1851 C1855 1.317 . S
C1851 H1870 0.929 . S
C1852 C1853 1.426 . S
C1852 C1854 1.413 . S
C1852 N1862 1.359 . S
C1853 C1850 1.417 . S
C1853 C1852 1.426 . S
C1853 N1858 1.350 . S
C1854 C1851 1.437 . S
C1854 C1852 1.413 . S
C1854 C1864 1.391 . S
C1855 C1850 1.431 . S
C1855 C1851 1.317 . S
C1855 H1866 0.930 . S
C1856 C1850 1.412 . S
C1856 C1857 1.355 . S
C1856 H1868 0.930 . S
C1857 C1856 1.355 . S
C1857 C1859 1.402 . S
C1857 H1869 0.930 . S
N1858 Gd1849 2.661 . S
N1858 C1853 1.350 . S
N1858 C1859 1.307 . S
C1859 C1857 1.402 . S
C1859 N1858 1.307 . S
C1859 H1860 0.930 . S
H1860 C1859 0.930 . S
C1861 N1862 1.334 . S
C1861 C1863 1.394 . S
C1861 H1865 0.930 . S
N1862 Gd1849 2.601 . S
N1862 C1852 1.359 . S
N1862 C1861 1.334 . S
C1863 C1861 1.394 . S
C1863 C1864 1.359 . S
C1863 H1875 0.930 . S
C1864 C1854 1.391 . S
C1864 C1863 1.359 . S
C1864 H1876 0.929 . S
H1865 C1861 0.930 . S
H1866 C1855 0.930 . S
H1867 C1884 0.930 . S
H1868 C1856 0.930 . S
H1869 C1857 0.930 . S
H1870 C1851 0.929 . S
H1871 C1889 0.930 . S
H1872 C1880 0.930 . S
H1873 C1881 0.930 . S
H1874 C1905 0.929 . S
H1875 C1863 0.930 . S
H1876 C1864 0.929 . S
H1877 C1906 0.930 . S
H1878 C1887 0.930 1_554 S
N1879 Gd1848 2.661 1_556 S
N1879 C1883 1.350 . S
N1879 C1884 1.307 . S
C1880 H1872 0.930 . S
C1880 C1881 1.355 . S
C1880 C1882 1.412 . S
C1881 H1873 0.930 . S
C1881 C1880 1.355 . S
C1881 C1884 1.402 . S
C1882 C1880 1.412 . S
C1882 C1883 1.417 . S
C1882 C1906 1.431 . S
C1883 N1879 1.350 . S
C1883 C1882 1.417 . S
C1883 C1886 1.426 . S
C1884 H1867 0.930 . S
C1884 N1879 1.307 . S
C1884 C1881 1.402 . S
N1885 Gd1848 2.601 1_556 S
N1885 C1886 1.359 . S
N1885 C1889 1.334 1_556 S
C1886 C1883 1.426 . S
C1886 N1885 1.359 . S
C1886 C1890 1.413 . S
C1887 H1878 0.930 1_556 S
C1887 C1888 1.359 . S
C1887 C1889 1.394 1_556 S
C1888 C1887 1.359 . S
C1888 C1890 1.391 . S
C1888 H1891 0.929 . S
C1889 H1871 0.930 . S
C1889 N1885 1.334 1_554 S
C1889 C1887 1.394 1_554 S
C1890 C1886 1.413 . S
C1890 C1888 1.391 . S
C1890 C1905 1.437 . S
H1891 C1888 0.929 . S
O1892 Gd1848 2.545 1_556 S
O1892 C1907 1.258 . S
O1893 Gd1848 2.606 . S
O1893 Gd1849 2.362 . S
O1893 C1904 1.284 . S
O1894 Gd1849 2.324 . S
O1894 C1914 1.254 . S
O1895 Gd1848 2.429 . S
O1895 C1914 1.268 . S
O1896 Gd1848 2.545 . S
O1896 C1904 1.250 . S
O1897 Gd1848 2.412 1_556 S
O1897 C1907 1.252 . S
O1898 Gd1849 2.545 . S
O1898 C1916 1.258 . S
O1899 Gd1848 2.362 . S
O1899 Gd1849 2.606 . S
O1899 C1915 1.284 . S
O1900 Gd1848 2.324 1_556 S
O1900 C1923 1.254 1_556 S
O1901 Gd1849 2.429 . S
O1901 C1923 1.268 . S
O1902 Gd1849 2.545 . S
O1902 C1915 1.250 . S
O1903 Gd1849 2.412 . S
O1903 C1916 1.252 . S
C1904 O1893 1.284 . S
C1904 O1896 1.250 . S
C1905 H1874 0.929 . S
C1905 C1890 1.437 . S
C1905 C1906 1.317 . S
C1906 H1877 0.930 . S
C1906 C1882 1.431 . S
C1906 C1905 1.317 . S
C1907 Gd1848 2.828 1_556 S
C1907 O1892 1.258 . S
C1907 O1897 1.252 . S
C1907 C1908 1.497 . S
C1908 C1907 1.497 . S
C1908 C1909 1.395 . S
C1908 C1910 1.380 . S
C1909 C1908 1.395 . S
C1909 C1912 1.398 . S
C1909 H1924 0.930 . S
C1910 C1908 1.380 . S
C1910 C1911 1.391 . S
C1910 H1925 0.930 . S
C1911 C1910 1.391 . S
C1911 C1913 1.387 . S
C1912 C1909 1.398 . S
C1912 C1913 1.380 . S
C1912 H1926 0.930 . S
C1913 C1911 1.387 . S
C1913 C1912 1.380 . S
C1913 H1927 0.930 . S
C1914 O1894 1.254 . S
C1914 O1895 1.268 . S
C1915 O1899 1.284 . S
C1915 O1902 1.250 . S
C1916 Gd1849 2.828 . S
C1916 O1898 1.258 . S
C1916 O1903 1.252 . S
C1916 C1917 1.497 . S
C1917 C1916 1.497 . S
C1917 C1918 1.395 . S
C1917 C1919 1.380 . S
C1918 C1917 1.395 . S
C1918 C1921 1.398 . S
C1918 H1928 0.930 . S
C1919 C1917 1.380 . S
C1919 C1920 1.391 . S
C1919 H1929 0.930 . S
C1920 C1919 1.391 . S
C1920 C1922 1.387 . S
C1921 C1918 1.398 . S
C1921 C1922 1.380 . S
C1921 H1930 0.930 . S
C1922 C1920 1.387 . S
C1922 C1921 1.380 . S
C1922 H1931 0.930 . S
C1923 O1900 1.254 1_554 S
C1923 O1901 1.268 . S
H1924 C1909 0.930 . S
H1925 C1910 0.930 . S
H1926 C1912 0.930 . S
H1927 C1913 0.930 . S
H1928 C1918 0.930 . S
H1929 C1919 0.930 . S
H1930 C1921 0.930 . S
H1931 C1922 0.930 . S
Gd1932 N1963 2.661 1_565 S
Gd1932 N1969 2.601 1_565 S
Gd1932 O1976 2.545 1_565 S
Gd1932 O1977 2.606 . S
Gd1932 O1979 2.429 . S
Gd1932 O1980 2.545 . S
Gd1932 O1981 2.412 1_565 S
Gd1932 O1983 2.362 . S
Gd1932 O1984 2.310 1_565 S
Gd1932 C1991 2.828 1_565 S
Gd1933 N1942 2.661 . S
Gd1933 N1946 2.601 . S
Gd1933 O1977 2.362 . S
Gd1933 O1978 2.324 . S
Gd1933 O1982 2.545 . S
Gd1933 O1983 2.606 . S
Gd1933 O1985 2.429 . S
Gd1933 O1986 2.545 . S
Gd1933 O1987 2.412 . S
Gd1933 C2000 2.828 . S
C1934 C1937 1.417 . S
C1934 C1939 1.431 . S
C1934 C1940 1.412 . S
C1935 C1938 1.437 . S
C1935 C1939 1.317 . S
C1935 H1954 0.929 . S
C1936 C1937 1.426 . S
C1936 C1938 1.413 . S
C1936 N1946 1.359 . S
C1937 C1934 1.417 . S
C1937 C1936 1.426 . S
C1937 N1942 1.350 . S
C1938 C1935 1.437 . S
C1938 C1936 1.413 . S
C1938 C1948 1.391 . S
C1939 C1934 1.431 . S
C1939 C1935 1.317 . S
C1939 H1950 0.930 . S
C1940 C1934 1.412 . S
C1940 C1941 1.355 . S
C1940 H1952 0.930 . S
C1941 C1940 1.355 . S
C1941 C1943 1.402 . S
C1941 H1953 0.930 . S
N1942 Gd1933 2.661 . S
N1942 C1937 1.350 . S
N1942 C1943 1.307 . S
C1943 C1941 1.402 . S
C1943 N1942 1.307 . S
C1943 H1944 0.930 . S
H1944 C1943 0.930 . S
C1945 N1946 1.334 . S
C1945 C1947 1.394 . S
C1945 H1949 0.930 . S
N1946 Gd1933 2.601 . S
N1946 C1936 1.359 . S
N1946 C1945 1.334 . S
C1947 C1945 1.394 . S
C1947 C1948 1.359 . S
C1947 H1959 0.930 . S
C1948 C1938 1.391 . S
C1948 C1947 1.359 . S
C1948 H1960 0.929 . S
H1949 C1945 0.930 . S
H1950 C1939 0.930 . S
H1951 C1968 0.930 . S
H1952 C1940 0.930 . S
H1953 C1941 0.930 . S
H1954 C1935 0.929 . S
H1955 C1973 0.930 . S
H1956 C1964 0.930 . S
H1957 C1965 0.930 . S
H1958 C1989 0.929 . S
H1959 C1947 0.930 . S
H1960 C1948 0.929 . S
H1961 C1990 0.930 . S
H1962 C1971 0.930 1_565 S
N1963 Gd1932 2.661 1_545 S
N1963 C1967 1.350 . S
N1963 C1968 1.307 . S
C1964 H1956 0.930 . S
C1964 C1965 1.355 . S
C1964 C1966 1.412 . S
C1965 H1957 0.930 . S
C1965 C1964 1.355 . S
C1965 C1968 1.402 . S
C1966 C1964 1.412 . S
C1966 C1967 1.417 . S
C1966 C1990 1.431 . S
C1967 N1963 1.350 . S
C1967 C1966 1.417 . S
C1967 C1970 1.426 . S
C1968 H1951 0.930 . S
C1968 N1963 1.307 . S
C1968 C1965 1.402 . S
N1969 Gd1932 2.601 1_545 S
N1969 C1970 1.359 . S
N1969 C1973 1.334 1_545 S
C1970 C1967 1.426 . S
C1970 N1969 1.359 . S
C1970 C1974 1.413 . S
C1971 H1962 0.930 1_545 S
C1971 C1972 1.359 . S
C1971 C1973 1.394 1_545 S
C1972 C1971 1.359 . S
C1972 C1974 1.391 . S
C1972 H1975 0.929 . S
C1973 H1955 0.930 . S
C1973 N1969 1.334 1_565 S
C1973 C1971 1.394 1_565 S
C1974 C1970 1.413 . S
C1974 C1972 1.391 . S
C1974 C1989 1.437 . S
H1975 C1972 0.929 . S
O1976 Gd1932 2.545 1_545 S
O1976 C1991 1.258 . S
O1977 Gd1932 2.606 . S
O1977 Gd1933 2.362 . S
O1977 C1988 1.284 . S
O1978 Gd1933 2.324 . S
O1978 C1998 1.254 . S
O1979 Gd1932 2.429 . S
O1979 C1998 1.268 . S
O1980 Gd1932 2.545 . S
O1980 C1988 1.250 . S
O1981 Gd1932 2.412 1_545 S
O1981 C1991 1.252 . S
O1982 Gd1933 2.545 . S
O1982 C2000 1.258 . S
O1983 Gd1932 2.362 . S
O1983 Gd1933 2.606 . S
O1983 C1999 1.284 . S
O1984 Gd1932 2.310 1_545 S
O1984 C2007 1.236 1_545 S
O1985 Gd1933 2.429 . S
O1985 C2007 1.268 . S
O1986 Gd1933 2.545 . S
O1986 C1999 1.250 . S
O1987 Gd1933 2.412 . S
O1987 C2000 1.252 . S
C1988 O1977 1.284 . S
C1988 O1980 1.250 . S
C1989 H1958 0.929 . S
C1989 C1974 1.437 . S
C1989 C1990 1.317 . S
C1990 H1961 0.930 . S
C1990 C1966 1.431 . S
C1990 C1989 1.317 . S
C1991 Gd1932 2.828 1_545 S
C1991 O1976 1.258 . S
C1991 O1981 1.252 . S
C1991 C1992 1.497 . S
C1992 C1991 1.497 . S
C1992 C1993 1.395 . S
C1992 C1994 1.380 . S
C1993 C1992 1.395 . S
C1993 C1996 1.398 . S
C1993 H2008 0.930 . S
C1994 C1992 1.380 . S
C1994 C1995 1.391 . S
C1994 H2009 0.930 . S
C1995 C1994 1.391 . S
C1995 C1997 1.387 . S
C1996 C1993 1.398 . S
C1996 C1997 1.380 . S
C1996 H2010 0.930 . S
C1997 C1995 1.387 . S
C1997 C1996 1.380 . S
C1997 H2011 0.930 . S
C1998 O1978 1.254 . S
C1998 O1979 1.268 . S
C1999 O1983 1.284 . S
C1999 O1986 1.250 . S
C2000 Gd1933 2.828 . S
C2000 O1982 1.258 . S
C2000 O1987 1.252 . S
C2000 C2001 1.497 . S
C2001 C2000 1.497 . S
C2001 C2002 1.395 . S
C2001 C2003 1.380 . S
C2002 C2001 1.395 . S
C2002 C2005 1.398 . S
C2002 H2012 0.930 . S
C2003 C2001 1.380 . S
C2003 C2004 1.391 . S
C2003 H2013 0.930 . S
C2004 C2003 1.391 . S
C2004 C2006 1.387 . S
C2005 C2002 1.398 . S
C2005 C2006 1.380 . S
C2005 H2014 0.930 . S
C2006 C2004 1.387 . S
C2006 C2005 1.380 . S
C2006 H2015 0.930 . S
C2007 O1984 1.236 1_565 S
C2007 O1985 1.268 . S
H2008 C1993 0.930 . S
H2009 C1994 0.930 . S
H2010 C1996 0.930 . S
H2011 C1997 0.930 . S
H2012 C2002 0.930 . S
H2013 C2003 0.930 . S
H2014 C2005 0.930 . S
H2015 C2006 0.930 . S
Gd2016 N2047 2.661 . S
Gd2016 N2053 2.601 . S
Gd2016 O2060 2.545 . S
Gd2016 O2061 2.606 . S
Gd2016 O2063 2.429 . S
Gd2016 O2064 2.545 . S
Gd2016 O2065 2.412 . S
Gd2016 O2067 2.362 . S
Gd2016 O2068 2.324 . S
Gd2016 C2075 2.828 . S
Gd2017 N2026 2.661 . S
Gd2017 N2030 2.601 1_565 S
Gd2017 O2061 2.362 . S
Gd2017 O2062 2.324 . S
Gd2017 O2066 2.545 1_565 S
Gd2017 O2067 2.606 . S
Gd2017 O2069 2.429 . S
Gd2017 O2070 2.545 1_565 S
Gd2017 O2071 2.412 1_565 S
Gd2017 C2084 2.828 1_565 S
C2018 C2021 1.417 . S
C2018 C2023 1.431 . S
C2018 C2024 1.412 . S
C2019 C2022 1.423 1_565 S
C2019 C2023 1.317 . S
C2019 H2038 0.929 . S
C2020 C2021 1.426 . S
C2020 C2022 1.404 1_565 S
C2020 N2030 1.359 1_565 S
C2021 C2018 1.417 . S
C2021 C2020 1.426 . S
C2021 N2026 1.350 . S
C2022 C2019 1.423 1_545 S
C2022 C2020 1.404 1_545 S
C2022 C2032 1.414 . S
C2023 C2018 1.431 . S
C2023 C2019 1.317 . S
C2023 H2034 0.930 . S
C2024 C2018 1.412 . S
C2024 C2025 1.355 . S
C2024 H2036 0.930 . S
C2025 C2024 1.355 . S
C2025 C2027 1.402 . S
C2025 H2037 0.930 . S
N2026 Gd2017 2.661 . S
N2026 C2021 1.350 . S
N2026 C2027 1.307 . S
C2027 C2025 1.402 . S
C2027 N2026 1.307 . S
C2027 H2028 0.930 . S
H2028 C2027 0.930 . S
C2029 N2030 1.334 . S
C2029 C2031 1.394 . S
C2029 H2033 0.930 . S
N2030 Gd2017 2.601 1_545 S
N2030 C2020 1.359 1_545 S
N2030 C2029 1.334 . S
C2031 C2029 1.394 . S
C2031 C2032 1.359 . S
C2031 H2043 0.930 . S
C2032 C2022 1.414 . S
C2032 C2031 1.359 . S
C2032 H2044 0.929 . S
H2033 C2029 0.930 . S
H2034 C2023 0.930 . S
H2035 C2052 0.930 . S
H2036 C2024 0.930 . S
H2037 C2025 0.930 . S
H2038 C2019 0.929 . S
H2039 C2057 0.930 . S
H2040 C2048 0.930 . S
H2041 C2049 0.930 1_545 S
H2042 C2073 0.929 . S
H2043 C2031 0.930 . S
H2044 C2032 0.929 . S
H2045 C2074 0.930 . S
H2046 C2055 0.930 . S
N2047 Gd2016 2.661 . S
N2047 C2051 1.350 . S
N2047 C2052 1.307 . S
C2048 H2040 0.930 . S
C2048 C2049 1.355 . S
C2048 C2050 1.412 . S
C2049 H2041 0.930 1_565 S
C2049 C2048 1.355 . S
C2049 C2052 1.402 . S
C2050 C2048 1.412 . S
C2050 C2051 1.417 . S
C2050 C2074 1.431 . S
C2051 N2047 1.350 . S
C2051 C2050 1.417 . S
C2051 C2054 1.426 . S
C2052 H2035 0.930 . S
C2052 N2047 1.307 . S
C2052 C2049 1.402 . S
N2053 Gd2016 2.601 . S
N2053 C2054 1.359 . S
N2053 C2057 1.334 . S
C2054 C2051 1.426 . S
C2054 N2053 1.359 . S
C2054 C2058 1.413 . S
C2055 H2046 0.930 . S
C2055 C2056 1.359 . S
C2055 C2057 1.394 . S
C2056 C2055 1.359 . S
C2056 C2058 1.391 . S
C2056 H2059 0.929 . S
C2057 H2039 0.930 . S
C2057 N2053 1.334 . S
C2057 C2055 1.394 . S
C2058 C2054 1.413 . S
C2058 C2056 1.391 . S
C2058 C2073 1.437 . S
H2059 C2056 0.929 . S
O2060 Gd2016 2.545 . S
O2060 C2075 1.258 . S
O2061 Gd2016 2.606 . S
O2061 Gd2017 2.362 . S
O2061 C2072 1.284 . S
O2062 Gd2017 2.324 . S
O2062 C2082 1.254 . S
O2063 Gd2016 2.429 . S
O2063 C2082 1.268 . S
O2064 Gd2016 2.545 . S
O2064 C2072 1.250 . S
O2065 Gd2016 2.412 . S
O2065 C2075 1.252 . S
O2066 Gd2017 2.545 1_545 S
O2066 C2084 1.258 . S
O2067 Gd2016 2.362 . S
O2067 Gd2017 2.606 . S
O2067 C2083 1.284 . S
O2068 Gd2016 2.324 . S
O2068 C2091 1.254 . S
O2069 Gd2017 2.429 . S
O2069 C2091 1.268 . S
O2070 Gd2017 2.545 1_545 S
O2070 C2083 1.250 1_545 S
O2071 Gd2017 2.412 1_545 S
O2071 C2084 1.252 . S
C2072 O2061 1.284 . S
C2072 O2064 1.250 . S
C2073 H2042 0.929 . S
C2073 C2058 1.437 . S
C2073 C2074 1.317 . S
C2074 H2045 0.930 . S
C2074 C2050 1.431 . S
C2074 C2073 1.317 . S
C2075 Gd2016 2.828 . S
C2075 O2060 1.258 . S
C2075 O2065 1.252 . S
C2075 C2076 1.497 . S
C2076 C2075 1.497 . S
C2076 C2077 1.395 . S
C2076 C2078 1.380 . S
C2077 C2076 1.395 . S
C2077 C2080 1.398 . S
C2077 H2092 0.930 . S
C2078 C2076 1.380 . S
C2078 C2079 1.391 . S
C2078 H2093 0.930 . S
C2079 C2078 1.391 . S
C2079 C2081 1.387 . S
C2080 C2077 1.398 . S
C2080 C2081 1.380 . S
C2080 H2094 0.930 . S
C2081 C2079 1.387 . S
C2081 C2080 1.380 . S
C2081 H2095 0.930 . S
C2082 O2062 1.254 . S
C2082 O2063 1.268 . S
C2083 O2067 1.284 . S
C2083 O2070 1.250 1_565 S
C2084 Gd2017 2.828 1_545 S
C2084 O2066 1.258 . S
C2084 O2071 1.252 . S
C2084 C2085 1.497 . S
C2085 C2084 1.497 . S
C2085 C2086 1.395 . S
C2085 C2087 1.380 . S
C2086 C2085 1.395 . S
C2086 C2089 1.398 . S
C2086 H2096 0.930 . S
C2087 C2085 1.380 . S
C2087 C2088 1.391 . S
C2087 H2097 0.930 . S
C2088 C2087 1.391 . S
C2088 C2090 1.387 . S
C2089 C2086 1.398 . S
C2089 C2090 1.380 . S
C2089 H2098 0.930 . S
C2090 C2088 1.387 . S
C2090 C2089 1.380 . S
C2090 H2099 0.930 . S
C2091 O2068 1.254 . S
C2091 O2069 1.268 . S
H2092 C2077 0.930 . S
H2093 C2078 0.930 . S
H2094 C2080 0.930 . S
H2095 C2081 0.930 . S
H2096 C2086 0.930 . S
H2097 C2087 0.930 . S
H2098 C2089 0.930 . S
H2099 C2090 0.930 . S
Gd2100 N2131 2.661 1_545 S
Gd2100 N2137 2.601 1_545 S
Gd2100 O2144 2.545 1_545 S
Gd2100 O2145 2.606 . S
Gd2100 O2147 2.429 . S
Gd2100 O2148 2.545 . S
Gd2100 O2149 2.412 1_545 S
Gd2100 O2151 2.362 . S
Gd2100 O2152 2.324 1_545 S
Gd2100 C2159 2.828 1_545 S
Gd2101 N2110 2.661 . S
Gd2101 N2114 2.601 . S
Gd2101 O2145 2.362 . S
Gd2101 O2146 2.324 . S
Gd2101 O2150 2.545 . S
Gd2101 O2151 2.606 . S
Gd2101 O2153 2.429 . S
Gd2101 O2154 2.545 . S
Gd2101 O2155 2.412 . S
Gd2101 C2168 2.828 . S
C2102 C2105 1.417 . S
C2102 C2107 1.431 . S
C2102 C2108 1.412 . S
C2103 C2106 1.437 . S
C2103 C2107 1.317 . S
C2103 H2122 0.929 . S
C2104 C2105 1.426 . S
C2104 C2106 1.413 . S
C2104 N2114 1.359 . S
C2105 C2102 1.417 . S
C2105 C2104 1.426 . S
C2105 N2110 1.350 . S
C2106 C2103 1.437 . S
C2106 C2104 1.413 . S
C2106 C2116 1.391 . S
C2107 C2102 1.431 . S
C2107 C2103 1.317 . S
C2107 H2118 0.930 . S
C2108 C2102 1.412 . S
C2108 C2109 1.355 . S
C2108 H2120 0.930 . S
C2109 C2108 1.355 . S
C2109 C2111 1.402 . S
C2109 H2121 0.930 . S
N2110 Gd2101 2.661 . S
N2110 C2105 1.350 . S
N2110 C2111 1.307 . S
C2111 C2109 1.402 . S
C2111 N2110 1.307 . S
C2111 H2112 0.930 . S
H2112 C2111 0.930 . S
C2113 N2114 1.334 . S
C2113 C2115 1.394 . S
C2113 H2117 0.930 . S
N2114 Gd2101 2.601 . S
N2114 C2104 1.359 . S
N2114 C2113 1.334 . S
C2115 C2113 1.394 . S
C2115 C2116 1.359 . S
C2115 H2127 0.930 . S
C2116 C2106 1.391 . S
C2116 C2115 1.359 . S
C2116 H2128 0.929 . S
H2117 C2113 0.930 . S
H2118 C2107 0.930 . S
H2119 C2136 0.930 . S
H2120 C2108 0.930 . S
H2121 C2109 0.930 . S
H2122 C2103 0.929 . S
H2123 C2141 0.930 . S
H2124 C2132 0.930 . S
H2125 C2133 0.930 . S
H2126 C2157 0.929 . S
H2127 C2115 0.930 . S
H2128 C2116 0.929 . S
H2129 C2158 0.930 . S
H2130 C2139 0.930 1_545 S
N2131 Gd2100 2.661 1_565 S
N2131 C2135 1.350 . S
N2131 C2136 1.307 . S
C2132 H2124 0.930 . S
C2132 C2133 1.355 . S
C2132 C2134 1.412 . S
C2133 H2125 0.930 . S
C2133 C2132 1.355 . S
C2133 C2136 1.402 . S
C2134 C2132 1.412 . S
C2134 C2135 1.417 . S
C2134 C2158 1.431 . S
C2135 N2131 1.350 . S
C2135 C2134 1.417 . S
C2135 C2138 1.426 . S
C2136 H2119 0.930 . S
C2136 N2131 1.307 . S
C2136 C2133 1.402 . S
N2137 Gd2100 2.601 1_565 S
N2137 C2138 1.359 . S
N2137 C2141 1.334 1_565 S
C2138 C2135 1.426 . S
C2138 N2137 1.359 . S
C2138 C2142 1.413 . S
C2139 H2130 0.930 1_565 S
C2139 C2140 1.359 . S
C2139 C2141 1.394 1_565 S
C2140 C2139 1.359 . S
C2140 C2142 1.391 . S
C2140 H2143 0.929 . S
C2141 H2123 0.930 . S
C2141 N2137 1.334 1_545 S
C2141 C2139 1.394 1_545 S
C2142 C2138 1.413 . S
C2142 C2140 1.391 . S
C2142 C2157 1.437 . S
H2143 C2140 0.929 . S
O2144 Gd2100 2.545 1_565 S
O2144 C2159 1.258 . S
O2145 Gd2100 2.606 . S
O2145 Gd2101 2.362 . S
O2145 C2156 1.284 . S
O2146 Gd2101 2.324 . S
O2146 C2166 1.254 . S
O2147 Gd2100 2.429 . S
O2147 C2166 1.268 . S
O2148 Gd2100 2.545 . S
O2148 C2156 1.250 . S
O2149 Gd2100 2.412 1_565 S
O2149 C2159 1.252 . S
O2150 Gd2101 2.545 . S
O2150 C2168 1.258 . S
O2151 Gd2100 2.362 . S
O2151 Gd2101 2.606 . S
O2151 C2167 1.284 . S
O2152 Gd2100 2.324 1_565 S
O2152 C2175 1.254 1_565 S
O2153 Gd2101 2.429 . S
O2153 C2175 1.268 . S
O2154 Gd2101 2.545 . S
O2154 C2167 1.250 . S
O2155 Gd2101 2.412 . S
O2155 C2168 1.252 . S
C2156 O2145 1.284 . S
C2156 O2148 1.250 . S
C2157 H2126 0.929 . S
C2157 C2142 1.437 . S
C2157 C2158 1.317 . S
C2158 H2129 0.930 . S
C2158 C2134 1.431 . S
C2158 C2157 1.317 . S
C2159 Gd2100 2.828 1_565 S
C2159 O2144 1.258 . S
C2159 O2149 1.252 . S
C2159 C2160 1.497 . S
C2160 C2159 1.497 . S
C2160 C2161 1.395 . S
C2160 C2162 1.380 . S
C2161 C2160 1.395 . S
C2161 C2164 1.398 . S
C2161 H2176 0.930 . S
C2162 C2160 1.380 . S
C2162 C2163 1.391 . S
C2162 H2177 0.930 . S
C2163 C2162 1.391 . S
C2163 C2165 1.387 . S
C2164 C2161 1.398 . S
C2164 C2165 1.380 . S
C2164 H2178 0.930 . S
C2165 C2163 1.387 . S
C2165 C2164 1.380 . S
C2165 H2179 0.930 . S
C2166 O2146 1.254 . S
C2166 O2147 1.268 . S
C2167 O2151 1.284 . S
C2167 O2154 1.250 . S
C2168 Gd2101 2.828 . S
C2168 O2150 1.258 . S
C2168 O2155 1.252 . S
C2168 C2169 1.497 . S
C2169 C2168 1.497 . S
C2169 C2170 1.395 . S
C2169 C2171 1.380 . S
C2170 C2169 1.395 . S
C2170 C2173 1.398 . S
C2170 H2180 0.930 . S
C2171 C2169 1.380 . S
C2171 C2172 1.391 . S
C2171 H2181 0.930 . S
C2172 C2171 1.391 . S
C2172 C2174 1.387 . S
C2173 C2170 1.398 . S
C2173 C2174 1.380 . S
C2173 H2182 0.930 . S
C2174 C2172 1.387 . S
C2174 C2173 1.380 . S
C2174 H2183 0.930 . S
C2175 O2152 1.254 1_545 S
C2175 O2153 1.268 . S
H2176 C2161 0.930 . S
H2177 C2162 0.930 . S
H2178 C2164 0.930 . S
H2179 C2165 0.930 . S
H2180 C2170 0.930 . S
H2181 C2171 0.930 . S
H2182 C2173 0.930 . S
H2183 C2174 0.930 . S
Gd2184 N2215 2.661 . S
Gd2184 N2221 2.601 . S
Gd2184 O2228 2.545 . S
Gd2184 O2229 2.606 . S
Gd2184 O2231 2.429 . S
Gd2184 O2232 2.545 . S
Gd2184 O2233 2.412 . S
Gd2184 O2235 2.362 . S
Gd2184 O2236 2.324 . S
Gd2184 C2243 2.828 . S
Gd2185 N2194 2.661 . S
Gd2185 N2198 2.601 1_545 S
Gd2185 O2229 2.362 . S
Gd2185 O2230 2.324 . S
Gd2185 O2234 2.545 1_545 S
Gd2185 O2235 2.606 . S
Gd2185 O2237 2.429 . S
Gd2185 O2238 2.545 1_545 S
Gd2185 O2239 2.412 1_545 S
Gd2185 C2252 2.828 1_545 S
C2186 C2189 1.417 . S
C2186 C2191 1.431 . S
C2186 C2192 1.412 . S
C2187 C2190 1.414 1_545 S
C2187 C2191 1.317 . S
C2187 H2206 0.929 . S
C2188 C2189 1.426 . S
C2188 C2190 1.398 1_545 S
C2188 N2198 1.359 1_545 S
C2189 C2186 1.417 . S
C2189 C2188 1.426 . S
C2189 N2194 1.350 . S
C2190 C2187 1.414 1_565 S
C2190 C2188 1.398 1_565 S
C2190 C2200 1.429 . S
C2191 C2186 1.431 . S
C2191 C2187 1.317 . S
C2191 H2202 0.930 . S
C2192 C2186 1.412 . S
C2192 C2193 1.355 . S
C2192 H2204 0.930 . S
C2193 C2192 1.355 . S
C2193 C2195 1.402 . S
C2193 H2205 0.930 . S
N2194 Gd2185 2.661 . S
N2194 C2189 1.350 . S
N2194 C2195 1.307 . S
C2195 C2193 1.402 . S
C2195 N2194 1.307 . S
C2195 H2196 0.930 . S
H2196 C2195 0.930 . S
C2197 N2198 1.334 . S
C2197 C2199 1.394 . S
C2197 H2201 0.930 . S
N2198 Gd2185 2.601 1_565 S
N2198 C2188 1.359 1_565 S
N2198 C2197 1.334 . S
C2199 C2197 1.394 . S
C2199 C2200 1.359 . S
C2199 H2211 0.930 . S
C2200 C2190 1.429 . S
C2200 C2199 1.359 . S
C2200 H2212 0.929 . S
H2201 C2197 0.930 . S
H2202 C2191 0.930 . S
H2203 C2220 0.930 . S
H2204 C2192 0.930 . S
H2205 C2193 0.930 . S
H2206 C2187 0.929 . S
H2207 C2225 0.930 . S
H2208 C2216 0.930 . S
H2209 C2217 0.930 1_565 S
H2210 C2241 0.929 . S
H2211 C2199 0.930 . S
H2212 C2200 0.929 . S
H2213 C2242 0.930 . S
H2214 C2223 0.930 . S
N2215 Gd2184 2.661 . S
N2215 C2219 1.350 . S
N2215 C2220 1.307 . S
C2216 H2208 0.930 . S
C2216 C2217 1.355 . S
C2216 C2218 1.412 . S
C2217 H2209 0.930 1_545 S
C2217 C2216 1.355 . S
C2217 C2220 1.402 . S
C2218 C2216 1.412 . S
C2218 C2219 1.417 . S
C2218 C2242 1.431 . S
C2219 N2215 1.350 . S
C2219 C2218 1.417 . S
C2219 C2222 1.426 . S
C2220 H2203 0.930 . S
C2220 N2215 1.307 . S
C2220 C2217 1.402 . S
N2221 Gd2184 2.601 . S
N2221 C2222 1.359 . S
N2221 C2225 1.334 . S
C2222 C2219 1.426 . S
C2222 N2221 1.359 . S
C2222 C2226 1.413 . S
C2223 H2214 0.930 . S
C2223 C2224 1.359 . S
C2223 C2225 1.394 . S
C2224 C2223 1.359 . S
C2224 C2226 1.391 . S
C2224 H2227 0.929 . S
C2225 H2207 0.930 . S
C2225 N2221 1.334 . S
C2225 C2223 1.394 . S
C2226 C2222 1.413 . S
C2226 C2224 1.391 . S
C2226 C2241 1.437 . S
H2227 C2224 0.929 . S
O2228 Gd2184 2.545 . S
O2228 C2243 1.258 . S
O2229 Gd2184 2.606 . S
O2229 Gd2185 2.362 . S
O2229 C2240 1.284 . S
O2230 Gd2185 2.324 . S
O2230 C2250 1.254 . S
O2231 Gd2184 2.429 . S
O2231 C2250 1.268 . S
O2232 Gd2184 2.545 . S
O2232 C2240 1.250 . S
O2233 Gd2184 2.412 . S
O2233 C2243 1.252 . S
O2234 Gd2185 2.545 1_565 S
O2234 C2252 1.258 . S
O2235 Gd2184 2.362 . S
O2235 Gd2185 2.606 . S
O2235 C2251 1.284 . S
O2236 Gd2184 2.324 . S
O2236 C2259 1.254 . S
O2237 Gd2185 2.429 . S
O2237 C2259 1.268 . S
O2238 Gd2185 2.545 1_565 S
O2238 C2251 1.250 1_565 S
O2239 Gd2185 2.412 1_565 S
O2239 C2252 1.252 . S
C2240 O2229 1.284 . S
C2240 O2232 1.250 . S
C2241 H2210 0.929 . S
C2241 C2226 1.437 . S
C2241 C2242 1.317 . S
C2242 H2213 0.930 . S
C2242 C2218 1.431 . S
C2242 C2241 1.317 . S
C2243 Gd2184 2.828 . S
C2243 O2228 1.258 . S
C2243 O2233 1.252 . S
C2243 C2244 1.497 . S
C2244 C2243 1.497 . S
C2244 C2245 1.395 . S
C2244 C2246 1.380 . S
C2245 C2244 1.395 . S
C2245 C2248 1.398 . S
C2245 H2260 0.930 . S
C2246 C2244 1.380 . S
C2246 C2247 1.391 . S
C2246 H2261 0.930 . S
C2247 C2246 1.391 . S
C2247 C2249 1.387 . S
C2248 C2245 1.398 . S
C2248 C2249 1.380 . S
C2248 H2262 0.930 . S
C2249 C2247 1.387 . S
C2249 C2248 1.380 . S
C2249 H2263 0.930 . S
C2250 O2230 1.254 . S
C2250 O2231 1.268 . S
C2251 O2235 1.284 . S
C2251 O2238 1.250 1_545 S
C2252 Gd2185 2.828 1_565 S
C2252 O2234 1.258 . S
C2252 O2239 1.252 . S
C2252 C2253 1.497 . S
C2253 C2252 1.497 . S
C2253 C2254 1.395 . S
C2253 C2255 1.380 . S
C2254 C2253 1.395 . S
C2254 C2257 1.398 . S
C2254 H2264 0.930 . S
C2255 C2253 1.380 . S
C2255 C2256 1.391 . S
C2255 H2265 0.930 . S
C2256 C2255 1.391 . S
C2256 C2258 1.387 . S
C2257 C2254 1.398 . S
C2257 C2258 1.380 . S
C2257 H2266 0.930 . S
C2258 C2256 1.387 . S
C2258 C2257 1.380 . S
C2258 H2267 0.930 . S
C2259 O2236 1.254 . S
C2259 O2237 1.268 . S
H2260 C2245 0.930 . S
H2261 C2246 0.930 . S
H2262 C2248 0.930 . S
H2263 C2249 0.930 . S
H2264 C2254 0.930 . S
H2265 C2255 0.930 . S
H2266 C2257 0.930 . S
H2267 C2258 0.930 . S
Gd2268 N2299 2.661 . S
Gd2268 N2305 2.601 . S
Gd2268 O2312 2.545 . S
Gd2268 O2313 2.606 . S
Gd2268 O2315 2.429 . S
Gd2268 O2316 2.545 . S
Gd2268 O2317 2.412 . S
Gd2268 O2319 2.362 . S
Gd2268 O2320 2.324 . S
Gd2268 C2327 2.828 . S
Gd2269 N2278 2.661 . S
Gd2269 N2282 2.601 1_556 S
Gd2269 O2313 2.362 . S
Gd2269 O2314 2.324 . S
Gd2269 O2318 2.545 1_556 S
Gd2269 O2319 2.606 . S
Gd2269 O2321 2.429 . S
Gd2269 O2322 2.545 1_556 S
Gd2269 O2323 2.412 1_556 S
Gd2269 C2336 2.828 1_556 S
C2270 C2273 1.417 . S
C2270 C2275 1.431 . S
C2270 C2276 1.412 . S
C2271 C2274 1.417 1_556 S
C2271 C2275 1.317 . S
C2271 H2290 0.929 . S
C2272 C2273 1.426 . S
C2272 C2274 1.400 1_556 S
C2272 N2282 1.359 1_556 S
C2273 C2270 1.417 . S
C2273 C2272 1.426 . S
C2273 N2278 1.350 . S
C2274 C2271 1.417 1_554 S
C2274 C2272 1.400 1_554 S
C2274 C2284 1.425 . S
C2275 C2270 1.431 . S
C2275 C2271 1.317 . S
C2275 H2286 0.930 . S
C2276 C2270 1.412 . S
C2276 C2277 1.355 . S
C2276 H2288 0.930 . S
C2277 C2276 1.355 . S
C2277 C2279 1.402 . S
C2277 H2289 0.930 . S
N2278 Gd2269 2.661 . S
N2278 C2273 1.350 . S
N2278 C2279 1.307 . S
C2279 C2277 1.402 . S
C2279 N2278 1.307 . S
C2279 H2280 0.930 . S
H2280 C2279 0.930 . S
C2281 N2282 1.334 . S
C2281 C2283 1.394 . S
C2281 H2285 0.930 . S
N2282 Gd2269 2.601 1_554 S
N2282 C2272 1.359 1_554 S
N2282 C2281 1.334 . S
C2283 C2281 1.394 . S
C2283 C2284 1.359 . S
C2283 H2295 0.930 . S
C2284 C2274 1.425 . S
C2284 C2283 1.359 . S
C2284 H2296 0.929 . S
H2285 C2281 0.930 . S
H2286 C2275 0.930 . S
H2287 C2304 0.930 . S
H2288 C2276 0.930 . S
H2289 C2277 0.930 . S
H2290 C2271 0.929 . S
H2291 C2309 0.930 . S
H2292 C2300 0.930 . S
H2293 C2301 0.930 1_554 S
H2294 C2325 0.929 . S
H2295 C2283 0.930 . S
H2296 C2284 0.929 . S
H2297 C2326 0.930 . S
H2298 C2307 0.930 . S
N2299 Gd2268 2.661 . S
N2299 C2303 1.350 . S
N2299 C2304 1.307 . S
C2300 H2292 0.930 . S
C2300 C2301 1.355 . S
C2300 C2302 1.412 . S
C2301 H2293 0.930 1_556 S
C2301 C2300 1.355 . S
C2301 C2304 1.402 . S
C2302 C2300 1.412 . S
C2302 C2303 1.417 . S
C2302 C2326 1.431 . S
C2303 N2299 1.350 . S
C2303 C2302 1.417 . S
C2303 C2306 1.426 . S
C2304 H2287 0.930 . S
C2304 N2299 1.307 . S
C2304 C2301 1.402 . S
N2305 Gd2268 2.601 . S
N2305 C2306 1.359 . S
N2305 C2309 1.334 . S
C2306 C2303 1.426 . S
C2306 N2305 1.359 . S
C2306 C2310 1.413 . S
C2307 H2298 0.930 . S
C2307 C2308 1.359 . S
C2307 C2309 1.394 . S
C2308 C2307 1.359 . S
C2308 C2310 1.391 . S
C2308 H2311 0.929 . S
C2309 H2291 0.930 . S
C2309 N2305 1.334 . S
C2309 C2307 1.394 . S
C2310 C2306 1.413 . S
C2310 C2308 1.391 . S
C2310 C2325 1.437 . S
H2311 C2308 0.929 . S
O2312 Gd2268 2.545 . S
O2312 C2327 1.258 . S
O2313 Gd2268 2.606 . S
O2313 Gd2269 2.362 . S
O2313 C2324 1.284 . S
O2314 Gd2269 2.324 . S
O2314 C2334 1.254 . S
O2315 Gd2268 2.429 . S
O2315 C2334 1.268 . S
O2316 Gd2268 2.545 . S
O2316 C2324 1.250 . S
O2317 Gd2268 2.412 . S
O2317 C2327 1.252 . S
O2318 Gd2269 2.545 1_554 S
O2318 C2336 1.258 . S
O2319 Gd2268 2.362 . S
O2319 Gd2269 2.606 . S
O2319 C2335 1.284 . S
O2320 Gd2268 2.324 . S
O2320 C2343 1.254 . S
O2321 Gd2269 2.429 . S
O2321 C2343 1.268 . S
O2322 Gd2269 2.545 1_554 S
O2322 C2335 1.250 1_554 S
O2323 Gd2269 2.412 1_554 S
O2323 C2336 1.252 . S
C2324 O2313 1.284 . S
C2324 O2316 1.250 . S
C2325 H2294 0.929 . S
C2325 C2310 1.437 . S
C2325 C2326 1.317 . S
C2326 H2297 0.930 . S
C2326 C2302 1.431 . S
C2326 C2325 1.317 . S
C2327 Gd2268 2.828 . S
C2327 O2312 1.258 . S
C2327 O2317 1.252 . S
C2327 C2328 1.497 . S
C2328 C2327 1.497 . S
C2328 C2329 1.395 . S
C2328 C2330 1.380 . S
C2329 C2328 1.395 . S
C2329 C2332 1.398 . S
C2329 H2344 0.930 . S
C2330 C2328 1.380 . S
C2330 C2331 1.391 . S
C2330 H2345 0.930 . S
C2331 C2330 1.391 . S
C2331 C2333 1.387 . S
C2332 C2329 1.398 . S
C2332 C2333 1.380 . S
C2332 H2346 0.930 . S
C2333 C2331 1.387 . S
C2333 C2332 1.380 . S
C2333 H2347 0.930 . S
C2334 O2314 1.254 . S
C2334 O2315 1.268 . S
C2335 O2319 1.284 . S
C2335 O2322 1.250 1_556 S
C2336 Gd2269 2.828 1_554 S
C2336 O2318 1.258 . S
C2336 O2323 1.252 . S
C2336 C2337 1.497 . S
C2337 C2336 1.497 . S
C2337 C2338 1.395 . S
C2337 C2339 1.380 . S
C2338 C2337 1.395 . S
C2338 C2341 1.398 . S
C2338 H2348 0.930 . S
C2339 C2337 1.380 . S
C2339 C2340 1.391 . S
C2339 H2349 0.930 . S
C2340 C2339 1.391 . S
C2340 C2342 1.387 . S
C2341 C2338 1.398 . S
C2341 C2342 1.380 . S
C2341 H2350 0.930 . S
C2342 C2340 1.387 . S
C2342 C2341 1.380 . S
C2342 H2351 0.930 . S
C2343 O2320 1.254 . S
C2343 O2321 1.268 . S
H2344 C2329 0.930 . S
H2345 C2330 0.930 . S
H2346 C2332 0.930 . S
H2347 C2333 0.930 . S
H2348 C2338 0.930 . S
H2349 C2339 0.930 . S
H2350 C2341 0.930 . S
H2351 C2342 0.930 . S
Gd2352 N2383 2.661 1_455 S
Gd2352 N2389 2.601 1_455 S
Gd2352 O2396 2.545 1_455 S
Gd2352 O2397 2.606 . S
Gd2352 O2399 2.429 . S
Gd2352 O2400 2.545 . S
Gd2352 O2401 2.412 1_455 S
Gd2352 O2403 2.362 . S
Gd2352 O2404 2.324 1_455 S
Gd2352 C2411 2.828 1_455 S
Gd2353 N2362 2.661 . S
Gd2353 N2366 2.601 . S
Gd2353 O2397 2.362 . S
Gd2353 O2398 2.324 . S
Gd2353 O2402 2.545 . S
Gd2353 O2403 2.606 . S
Gd2353 O2405 2.429 . S
Gd2353 O2406 2.545 . S
Gd2353 O2407 2.412 . S
Gd2353 C2420 2.828 . S
C2354 C2357 1.417 . S
C2354 C2359 1.431 . S
C2354 C2360 1.412 . S
C2355 C2358 1.437 . S
C2355 C2359 1.317 . S
C2355 H2374 0.929 . S
C2356 C2357 1.426 . S
C2356 C2358 1.413 . S
C2356 N2366 1.359 . S
C2357 C2354 1.417 . S
C2357 C2356 1.426 . S
C2357 N2362 1.350 . S
C2358 C2355 1.437 . S
C2358 C2356 1.413 . S
C2358 C2368 1.391 . S
C2359 C2354 1.431 . S
C2359 C2355 1.317 . S
C2359 H2370 0.930 . S
C2360 C2354 1.412 . S
C2360 C2361 1.355 . S
C2360 H2372 0.930 . S
C2361 C2360 1.355 . S
C2361 C2363 1.402 . S
C2361 H2373 0.930 . S
N2362 Gd2353 2.661 . S
N2362 C2357 1.350 . S
N2362 C2363 1.307 . S
C2363 C2361 1.402 . S
C2363 N2362 1.307 . S
C2363 H2364 0.930 . S
H2364 C2363 0.930 . S
C2365 N2366 1.334 . S
C2365 C2367 1.394 . S
C2365 H2369 0.930 . S
N2366 Gd2353 2.601 . S
N2366 C2356 1.359 . S
N2366 C2365 1.334 . S
C2367 C2365 1.394 . S
C2367 C2368 1.359 . S
C2367 H2379 0.930 . S
C2368 C2358 1.391 . S
C2368 C2367 1.359 . S
C2368 H2380 0.929 . S
H2369 C2365 0.930 . S
H2370 C2359 0.930 . S
H2371 C2388 0.930 . S
H2372 C2360 0.930 . S
H2373 C2361 0.930 . S
H2374 C2355 0.929 . S
H2375 C2393 0.930 . S
H2376 C2384 0.930 . S
H2377 C2385 0.930 . S
H2378 C2409 0.929 . S
H2379 C2367 0.930 . S
H2380 C2368 0.929 . S
H2381 C2410 0.930 . S
H2382 C2391 0.930 1_455 S
N2383 Gd2352 2.661 1_655 S
N2383 C2387 1.350 . S
N2383 C2388 1.307 . S
C2384 H2376 0.930 . S
C2384 C2385 1.355 . S
C2384 C2386 1.412 . S
C2385 H2377 0.930 . S
C2385 C2384 1.355 . S
C2385 C2388 1.402 . S
C2386 C2384 1.412 . S
C2386 C2387 1.417 . S
C2386 C2410 1.431 . S
C2387 N2383 1.350 . S
C2387 C2386 1.417 . S
C2387 C2390 1.426 . S
C2388 H2371 0.930 . S
C2388 N2383 1.307 . S
C2388 C2385 1.402 . S
N2389 Gd2352 2.601 1_655 S
N2389 C2390 1.359 . S
N2389 C2393 1.334 1_655 S
C2390 C2387 1.426 . S
C2390 N2389 1.359 . S
C2390 C2394 1.413 . S
C2391 H2382 0.930 1_655 S
C2391 C2392 1.359 . S
C2391 C2393 1.394 1_655 S
C2392 C2391 1.359 . S
C2392 C2394 1.391 . S
C2392 H2395 0.929 . S
C2393 H2375 0.930 . S
C2393 N2389 1.334 1_455 S
C2393 C2391 1.394 1_455 S
C2394 C2390 1.413 . S
C2394 C2392 1.391 . S
C2394 C2409 1.437 . S
H2395 C2392 0.929 . S
O2396 Gd2352 2.545 1_655 S
O2396 C2411 1.258 . S
O2397 Gd2352 2.606 . S
O2397 Gd2353 2.362 . S
O2397 C2408 1.284 . S
O2398 Gd2353 2.324 . S
O2398 C2418 1.254 . S
O2399 Gd2352 2.429 . S
O2399 C2418 1.268 . S
O2400 Gd2352 2.545 . S
O2400 C2408 1.250 . S
O2401 Gd2352 2.412 1_655 S
O2401 C2411 1.252 . S
O2402 Gd2353 2.545 . S
O2402 C2420 1.258 . S
O2403 Gd2352 2.362 . S
O2403 Gd2353 2.606 . S
O2403 C2419 1.284 . S
O2404 Gd2352 2.324 1_655 S
O2404 C2427 1.254 1_655 S
O2405 Gd2353 2.429 . S
O2405 C2427 1.268 . S
O2406 Gd2353 2.545 . S
O2406 C2419 1.250 . S
O2407 Gd2353 2.412 . S
O2407 C2420 1.252 . S
C2408 O2397 1.284 . S
C2408 O2400 1.250 . S
C2409 H2378 0.929 . S
C2409 C2394 1.437 . S
C2409 C2410 1.317 . S
C2410 H2381 0.930 . S
C2410 C2386 1.431 . S
C2410 C2409 1.317 . S
C2411 Gd2352 2.828 1_655 S
C2411 O2396 1.258 . S
C2411 O2401 1.252 . S
C2411 C2412 1.497 . S
C2412 C2411 1.497 . S
C2412 C2413 1.395 . S
C2412 C2414 1.380 . S
C2413 C2412 1.395 . S
C2413 C2416 1.398 . S
C2413 H2428 0.930 . S
C2414 C2412 1.380 . S
C2414 C2415 1.391 . S
C2414 H2429 0.930 . S
C2415 C2414 1.391 . S
C2415 C2417 1.387 . S
C2416 C2413 1.398 . S
C2416 C2417 1.380 . S
C2416 H2430 0.930 . S
C2417 C2415 1.387 . S
C2417 C2416 1.380 . S
C2417 H2431 0.930 . S
C2418 O2398 1.254 . S
C2418 O2399 1.268 . S
C2419 O2403 1.284 . S
C2419 O2406 1.250 . S
C2420 Gd2353 2.828 . S
C2420 O2402 1.258 . S
C2420 O2407 1.252 . S
C2420 C2421 1.497 . S
C2421 C2420 1.497 . S
C2421 C2422 1.395 . S
C2421 C2423 1.380 . S
C2422 C2421 1.395 . S
C2422 C2425 1.398 . S
C2422 H2432 0.930 . S
C2423 C2421 1.380 . S
C2423 C2424 1.391 . S
C2423 H2433 0.930 . S
C2424 C2423 1.391 . S
C2424 C2426 1.387 . S
C2425 C2422 1.398 . S
C2425 C2426 1.380 . S
C2425 H2434 0.930 . S
C2426 C2424 1.387 . S
C2426 C2425 1.380 . S
C2426 H2435 0.930 . S
C2427 O2404 1.254 1_455 S
C2427 O2405 1.268 . S
H2428 C2413 0.930 . S
H2429 C2414 0.930 . S
H2430 C2416 0.930 . S
H2431 C2417 0.930 . S
H2432 C2422 0.930 . S
H2433 C2423 0.930 . S
H2434 C2425 0.930 . S
H2435 C2426 0.930 . S
Gd2436 N2467 2.661 . S
Gd2436 N2473 2.601 . S
Gd2436 O2480 2.545 . S
Gd2436 O2481 2.606 . S
Gd2436 O2483 2.429 . S
Gd2436 O2484 2.545 . S
Gd2436 O2485 2.412 . S
Gd2436 O2487 2.362 . S
Gd2436 O2488 2.324 . S
Gd2436 C2495 2.828 . S
Gd2437 N2446 2.661 . S
Gd2437 N2450 2.601 . S
Gd2437 O2481 2.362 . S
Gd2437 O2482 2.324 . S
Gd2437 O2486 2.545 . S
Gd2437 O2487 2.606 . S
Gd2437 O2489 2.429 . S
Gd2437 O2490 2.545 . S
Gd2437 O2491 2.412 . S
Gd2437 C2504 2.828 . S
C2438 C2441 1.417 . S
C2438 C2443 1.431 . S
C2438 C2444 1.412 . S
C2439 C2442 1.437 . S
C2439 C2443 1.317 . S
C2439 H2458 0.929 . S
C2440 C2441 1.426 . S
C2440 C2442 1.413 . S
C2440 N2450 1.359 . S
C2441 C2438 1.417 . S
C2441 C2440 1.426 . S
C2441 N2446 1.350 . S
C2442 C2439 1.437 . S
C2442 C2440 1.413 . S
C2442 C2452 1.391 . S
C2443 C2438 1.431 . S
C2443 C2439 1.317 . S
C2443 H2454 0.930 . S
C2444 C2438 1.412 . S
C2444 C2445 1.355 . S
C2444 H2456 0.930 . S
C2445 C2444 1.355 . S
C2445 C2447 1.402 . S
C2445 H2457 0.930 . S
N2446 Gd2437 2.661 . S
N2446 C2441 1.350 . S
N2446 C2447 1.307 . S
C2447 C2445 1.402 . S
C2447 N2446 1.307 . S
C2447 H2448 0.930 . S
H2448 C2447 0.930 . S
C2449 N2450 1.334 . S
C2449 C2451 1.394 . S
C2449 H2453 0.930 . S
N2450 Gd2437 2.601 . S
N2450 C2440 1.359 . S
N2450 C2449 1.334 . S
C2451 C2449 1.394 . S
C2451 C2452 1.359 . S
C2451 H2463 0.930 . S
C2452 C2442 1.391 . S
C2452 C2451 1.359 . S
C2452 H2464 0.929 . S
H2453 C2449 0.930 . S
H2454 C2443 0.930 . S
H2455 C2472 0.930 . S
H2456 C2444 0.930 . S
H2457 C2445 0.930 . S
H2458 C2439 0.929 . S
H2459 C2477 0.930 . S
H2460 C2468 0.930 . S
H2461 C2469 0.930 . S
H2462 C2493 0.929 . S
H2463 C2451 0.930 . S
H2464 C2452 0.929 . S
H2465 C2494 0.930 . S
H2466 C2475 0.930 . S
N2467 Gd2436 2.661 . S
N2467 C2471 1.350 . S
N2467 C2472 1.307 . S
C2468 H2460 0.930 . S
C2468 C2469 1.355 . S
C2468 C2470 1.412 . S
C2469 H2461 0.930 . S
C2469 C2468 1.355 . S
C2469 C2472 1.402 . S
C2470 C2468 1.412 . S
C2470 C2471 1.417 . S
C2470 C2494 1.431 . S
C2471 N2467 1.350 . S
C2471 C2470 1.417 . S
C2471 C2474 1.426 . S
C2472 H2455 0.930 . S
C2472 N2467 1.307 . S
C2472 C2469 1.402 . S
N2473 Gd2436 2.601 . S
N2473 C2474 1.359 . S
N2473 C2477 1.334 . S
C2474 C2471 1.426 . S
C2474 N2473 1.359 . S
C2474 C2478 1.413 . S
C2475 H2466 0.930 . S
C2475 C2476 1.359 . S
C2475 C2477 1.394 . S
C2476 C2475 1.359 . S
C2476 C2478 1.391 . S
C2476 H2479 0.929 . S
C2477 H2459 0.930 . S
C2477 N2473 1.334 . S
C2477 C2475 1.394 . S
C2478 C2474 1.413 . S
C2478 C2476 1.391 . S
C2478 C2493 1.437 . S
H2479 C2476 0.929 . S
O2480 Gd2436 2.545 . S
O2480 C2495 1.258 . S
O2481 Gd2436 2.606 . S
O2481 Gd2437 2.362 . S
O2481 C2492 1.284 . S
O2482 Gd2437 2.324 . S
O2482 C2502 1.254 . S
O2483 Gd2436 2.429 . S
O2483 C2502 1.268 . S
O2484 Gd2436 2.545 . S
O2484 C2492 1.250 . S
O2485 Gd2436 2.412 . S
O2485 C2495 1.252 . S
O2486 Gd2437 2.545 . S
O2486 C2504 1.258 . S
O2487 Gd2436 2.362 . S
O2487 Gd2437 2.606 . S
O2487 C2503 1.284 . S
O2488 Gd2436 2.324 . S
O2488 C2511 1.254 . S
O2489 Gd2437 2.429 . S
O2489 C2511 1.268 . S
O2490 Gd2437 2.545 . S
O2490 C2503 1.250 . S
O2491 Gd2437 2.412 . S
O2491 C2504 1.252 . S
C2492 O2481 1.284 . S
C2492 O2484 1.250 . S
C2493 H2462 0.929 . S
C2493 C2478 1.437 . S
C2493 C2494 1.317 . S
C2494 H2465 0.930 . S
C2494 C2470 1.431 . S
C2494 C2493 1.317 . S
C2495 Gd2436 2.828 . S
C2495 O2480 1.258 . S
C2495 O2485 1.252 . S
C2495 C2496 1.497 . S
C2496 C2495 1.497 . S
C2496 C2497 1.395 . S
C2496 C2498 1.380 . S
C2497 C2496 1.395 . S
C2497 C2500 1.398 . S
C2497 H2512 0.930 . S
C2498 C2496 1.380 . S
C2498 C2499 1.391 . S
C2498 H2513 0.930 . S
C2499 C2498 1.391 . S
C2499 C2501 1.387 . S
C2500 C2497 1.398 . S
C2500 C2501 1.380 . S
C2500 H2514 0.930 . S
C2501 C2499 1.387 . S
C2501 C2500 1.380 . S
C2501 H2515 0.930 . S
C2502 O2482 1.254 . S
C2502 O2483 1.268 . S
C2503 O2487 1.284 . S
C2503 O2490 1.250 . S
C2504 Gd2437 2.828 . S
C2504 O2486 1.258 . S
C2504 O2491 1.252 . S
C2504 C2505 1.497 . S
C2505 C2504 1.497 . S
C2505 C2506 1.395 . S
C2505 C2507 1.380 . S
C2506 C2505 1.395 . S
C2506 C2509 1.398 . S
C2506 H2516 0.930 . S
C2507 C2505 1.380 . S
C2507 C2508 1.391 . S
C2507 H2517 0.930 . S
C2508 C2507 1.391 . S
C2508 C2510 1.387 . S
C2509 C2506 1.398 . S
C2509 C2510 1.380 . S
C2509 H2518 0.930 . S
C2510 C2508 1.387 . S
C2510 C2509 1.380 . S
C2510 H2519 0.930 . S
C2511 O2488 1.254 . S
C2511 O2489 1.268 . S
H2512 C2497 0.930 . S
H2513 C2498 0.930 . S
H2514 C2500 0.930 . S
H2515 C2501 0.930 . S
H2516 C2506 0.930 . S
H2517 C2507 0.930 . S
H2518 C2509 0.930 . S
H2519 C2510 0.930 . S
Gd2520 N2551 2.661 . S
Gd2520 N2557 2.601 . S
Gd2520 O2564 2.545 . S
Gd2520 O2565 2.606 . S
Gd2520 O2567 2.429 . S
Gd2520 O2568 2.545 . S
Gd2520 O2569 2.412 . S
Gd2520 O2571 2.362 . S
Gd2520 O2572 2.324 . S
Gd2520 C2579 2.828 . S
Gd2521 N2530 2.661 . S
Gd2521 N2534 2.601 . S
Gd2521 O2565 2.362 . S
Gd2521 O2566 2.324 . S
Gd2521 O2570 2.545 . S
Gd2521 O2571 2.606 . S
Gd2521 O2573 2.429 . S
Gd2521 O2574 2.545 . S
Gd2521 O2575 2.412 . S
Gd2521 C2588 2.828 . S
C2522 C2525 1.417 . S
C2522 C2527 1.431 . S
C2522 C2528 1.412 . S
C2523 C2526 1.437 . S
C2523 C2527 1.317 . S
C2523 H2542 0.929 . S
C2524 C2525 1.426 . S
C2524 C2526 1.413 . S
C2524 N2534 1.359 . S
C2525 C2522 1.417 . S
C2525 C2524 1.426 . S
C2525 N2530 1.350 . S
C2526 C2523 1.437 . S
C2526 C2524 1.413 . S
C2526 C2536 1.391 . S
C2527 C2522 1.431 . S
C2527 C2523 1.317 . S
C2527 H2538 0.930 . S
C2528 C2522 1.412 . S
C2528 C2529 1.355 . S
C2528 H2540 0.930 . S
C2529 C2528 1.355 . S
C2529 C2531 1.402 . S
C2529 H2541 0.930 . S
N2530 Gd2521 2.661 . S
N2530 C2525 1.350 . S
N2530 C2531 1.307 . S
C2531 C2529 1.402 . S
C2531 N2530 1.307 . S
C2531 H2532 0.930 . S
H2532 C2531 0.930 . S
C2533 N2534 1.334 . S
C2533 C2535 1.394 . S
C2533 H2537 0.930 . S
N2534 Gd2521 2.601 . S
N2534 C2524 1.359 . S
N2534 C2533 1.334 . S
C2535 C2533 1.394 . S
C2535 C2536 1.359 . S
C2535 H2547 0.930 . S
C2536 C2526 1.391 . S
C2536 C2535 1.359 . S
C2536 H2548 0.929 . S
H2537 C2533 0.930 . S
H2538 C2527 0.930 . S
H2539 C2556 0.930 . S
H2540 C2528 0.930 . S
H2541 C2529 0.930 . S
H2542 C2523 0.929 . S
H2543 C2561 0.930 . S
H2544 C2552 0.930 . S
H2545 C2553 0.930 . S
H2546 C2577 0.929 . S
H2547 C2535 0.930 . S
H2548 C2536 0.929 . S
H2549 C2578 0.930 . S
H2550 C2559 0.930 . S
N2551 Gd2520 2.661 . S
N2551 C2555 1.350 . S
N2551 C2556 1.307 . S
C2552 H2544 0.930 . S
C2552 C2553 1.355 . S
C2552 C2554 1.412 . S
C2553 H2545 0.930 . S
C2553 C2552 1.355 . S
C2553 C2556 1.402 . S
C2554 C2552 1.412 . S
C2554 C2555 1.417 . S
C2554 C2578 1.431 . S
C2555 N2551 1.350 . S
C2555 C2554 1.417 . S
C2555 C2558 1.426 . S
C2556 H2539 0.930 . S
C2556 N2551 1.307 . S
C2556 C2553 1.402 . S
N2557 Gd2520 2.601 . S
N2557 C2558 1.359 . S
N2557 C2561 1.334 . S
C2558 C2555 1.426 . S
C2558 N2557 1.359 . S
C2558 C2562 1.413 . S
C2559 H2550 0.930 . S
C2559 C2560 1.359 . S
C2559 C2561 1.394 . S
C2560 C2559 1.359 . S
C2560 C2562 1.391 . S
C2560 H2563 0.929 . S
C2561 H2543 0.930 . S
C2561 N2557 1.334 . S
C2561 C2559 1.394 . S
C2562 C2558 1.413 . S
C2562 C2560 1.391 . S
C2562 C2577 1.437 . S
H2563 C2560 0.929 . S
O2564 Gd2520 2.545 . S
O2564 C2579 1.258 . S
O2565 Gd2520 2.606 . S
O2565 Gd2521 2.362 . S
O2565 C2576 1.284 . S
O2566 Gd2521 2.324 . S
O2566 C2586 1.254 . S
O2567 Gd2520 2.429 . S
O2567 C2586 1.268 . S
O2568 Gd2520 2.545 . S
O2568 C2576 1.250 . S
O2569 Gd2520 2.412 . S
O2569 C2579 1.252 . S
O2570 Gd2521 2.545 . S
O2570 C2588 1.258 . S
O2571 Gd2520 2.362 . S
O2571 Gd2521 2.606 . S
O2571 C2587 1.284 . S
O2572 Gd2520 2.324 . S
O2572 C2595 1.254 . S
O2573 Gd2521 2.429 . S
O2573 C2595 1.268 . S
O2574 Gd2521 2.545 . S
O2574 C2587 1.250 . S
O2575 Gd2521 2.412 . S
O2575 C2588 1.252 . S
C2576 O2565 1.284 . S
C2576 O2568 1.250 . S
C2577 H2546 0.929 . S
C2577 C2562 1.437 . S
C2577 C2578 1.317 . S
C2578 H2549 0.930 . S
C2578 C2554 1.431 . S
C2578 C2577 1.317 . S
C2579 Gd2520 2.828 . S
C2579 O2564 1.258 . S
C2579 O2569 1.252 . S
C2579 C2580 1.497 . S
C2580 C2579 1.497 . S
C2580 C2581 1.395 . S
C2580 C2582 1.380 . S
C2581 C2580 1.395 . S
C2581 C2584 1.398 . S
C2581 H2596 0.930 . S
C2582 C2580 1.380 . S
C2582 C2583 1.391 . S
C2582 H2597 0.930 . S
C2583 C2582 1.391 . S
C2583 C2585 1.387 . S
C2584 C2581 1.398 . S
C2584 C2585 1.380 . S
C2584 H2598 0.930 . S
C2585 C2583 1.387 . S
C2585 C2584 1.380 . S
C2585 H2599 0.930 . S
C2586 O2566 1.254 . S
C2586 O2567 1.268 . S
C2587 O2571 1.284 . S
C2587 O2574 1.250 . S
C2588 Gd2521 2.828 . S
C2588 O2570 1.258 . S
C2588 O2575 1.252 . S
C2588 C2589 1.497 . S
C2589 C2588 1.497 . S
C2589 C2590 1.395 . S
C2589 C2591 1.380 . S
C2590 C2589 1.395 . S
C2590 C2593 1.398 . S
C2590 H2600 0.930 . S
C2591 C2589 1.380 . S
C2591 C2592 1.391 . S
C2591 H2601 0.930 . S
C2592 C2591 1.391 . S
C2592 C2594 1.387 . S
C2593 C2590 1.398 . S
C2593 C2594 1.380 . S
C2593 H2602 0.930 . S
C2594 C2592 1.387 . S
C2594 C2593 1.380 . S
C2594 H2603 0.930 . S
C2595 O2572 1.254 . S
C2595 O2573 1.268 . S
H2596 C2581 0.930 . S
H2597 C2582 0.930 . S
H2598 C2584 0.930 . S
H2599 C2585 0.930 . S
H2600 C2590 0.930 . S
H2601 C2591 0.930 . S
H2602 C2593 0.930 . S
H2603 C2594 0.930 . S
Gd2604 N2635 2.661 . S
Gd2604 N2641 2.601 1_655 S
Gd2604 O2648 2.545 1_655 S
Gd2604 O2649 2.606 . S
Gd2604 O2651 2.429 . S
Gd2604 O2652 2.545 1_655 S
Gd2604 O2653 2.412 1_655 S
Gd2604 O2655 2.362 . S
Gd2604 O2656 2.324 . S
Gd2604 C2663 2.828 1_655 S
Gd2605 N2614 2.661 . S
Gd2605 N2618 2.601 . S
Gd2605 O2649 2.362 . S
Gd2605 O2650 2.324 . S
Gd2605 O2654 2.545 . S
Gd2605 O2655 2.606 . S
Gd2605 O2657 2.429 . S
Gd2605 O2658 2.545 . S
Gd2605 O2659 2.412 . S
Gd2605 C2672 2.828 . S
C2606 C2609 1.417 . S
C2606 C2611 1.431 . S
C2606 C2612 1.412 . S
C2607 C2610 1.437 . S
C2607 C2611 1.317 . S
C2607 H2626 0.929 . S
C2608 C2609 1.426 . S
C2608 C2610 1.413 . S
C2608 N2618 1.359 . S
C2609 C2606 1.417 . S
C2609 C2608 1.426 . S
C2609 N2614 1.350 . S
C2610 C2607 1.437 . S
C2610 C2608 1.413 . S
C2610 C2620 1.391 . S
C2611 C2606 1.431 . S
C2611 C2607 1.317 . S
C2611 H2622 0.930 . S
C2612 C2606 1.412 . S
C2612 C2613 1.355 . S
C2612 H2624 0.930 . S
C2613 C2612 1.355 . S
C2613 C2615 1.402 . S
C2613 H2625 0.930 1_655 S
N2614 Gd2605 2.661 . S
N2614 C2609 1.350 . S
N2614 C2615 1.307 . S
C2615 C2613 1.402 . S
C2615 N2614 1.307 . S
C2615 H2616 0.930 . S
H2616 C2615 0.930 . S
C2617 N2618 1.334 . S
C2617 C2619 1.394 . S
C2617 H2621 0.930 . S
N2618 Gd2605 2.601 . S
N2618 C2608 1.359 . S
N2618 C2617 1.334 . S
C2619 C2617 1.394 . S
C2619 C2620 1.359 . S
C2619 H2631 0.930 . S
C2620 C2610 1.391 . S
C2620 C2619 1.359 . S
C2620 H2632 0.929 . S
H2621 C2617 0.930 . S
H2622 C2611 0.930 . S
H2623 C2640 0.930 . S
H2624 C2612 0.930 . S
H2625 C2613 0.930 1_455 S
H2626 C2607 0.929 . S
H2627 C2645 0.930 . S
H2628 C2636 0.930 . S
H2629 C2637 0.930 . S
H2630 C2661 0.929 . S
H2631 C2619 0.930 . S
H2632 C2620 0.929 . S
H2633 C2662 0.930 . S
H2634 C2643 0.930 . S
N2635 Gd2604 2.661 . S
N2635 C2639 1.350 . S
N2635 C2640 1.307 . S
C2636 H2628 0.930 . S
C2636 C2637 1.355 . S
C2636 C2638 1.412 . S
C2637 H2629 0.930 . S
C2637 C2636 1.355 . S
C2637 C2640 1.402 . S
C2638 C2636 1.412 . S
C2638 C2639 1.417 . S
C2638 C2662 1.431 . S
C2639 N2635 1.350 . S
C2639 C2638 1.417 . S
C2639 C2642 1.426 . S
C2640 H2623 0.930 . S
C2640 N2635 1.307 . S
C2640 C2637 1.402 . S
N2641 Gd2604 2.601 1_455 S
N2641 C2642 1.359 1_455 S
N2641 C2645 1.334 . S
C2642 C2639 1.426 . S
C2642 N2641 1.359 1_655 S
C2642 C2646 1.403 1_655 S
C2643 H2634 0.930 . S
C2643 C2644 1.359 . S
C2643 C2645 1.394 . S
C2644 C2643 1.359 . S
C2644 C2646 1.418 . S
C2644 H2647 0.929 . S
C2645 H2627 0.930 . S
C2645 N2641 1.334 . S
C2645 C2643 1.394 . S
C2646 C2642 1.403 1_455 S
C2646 C2644 1.418 . S
C2646 C2661 1.421 1_455 S
H2647 C2644 0.929 . S
O2648 Gd2604 2.545 1_455 S
O2648 C2663 1.258 . S
O2649 Gd2604 2.606 . S
O2649 Gd2605 2.362 . S
O2649 C2660 1.284 . S
O2650 Gd2605 2.324 . S
O2650 C2670 1.254 . S
O2651 Gd2604 2.429 . S
O2651 C2670 1.268 . S
O2652 Gd2604 2.545 1_455 S
O2652 C2660 1.250 1_455 S
O2653 Gd2604 2.412 1_455 S
O2653 C2663 1.252 . S
O2654 Gd2605 2.545 . S
O2654 C2672 1.258 . S
O2655 Gd2604 2.362 . S
O2655 Gd2605 2.606 . S
O2655 C2671 1.284 . S
O2656 Gd2604 2.324 . S
O2656 C2679 1.254 . S
O2657 Gd2605 2.429 . S
O2657 C2679 1.268 . S
O2658 Gd2605 2.545 . S
O2658 C2671 1.250 . S
O2659 Gd2605 2.412 . S
O2659 C2672 1.252 . S
C2660 O2649 1.284 . S
C2660 O2652 1.250 1_655 S
C2661 H2630 0.929 . S
C2661 C2646 1.421 1_655 S
C2661 C2662 1.317 . S
C2662 H2633 0.930 . S
C2662 C2638 1.431 . S
C2662 C2661 1.317 . S
C2663 Gd2604 2.828 1_455 S
C2663 O2648 1.258 . S
C2663 O2653 1.252 . S
C2663 C2664 1.497 . S
C2664 C2663 1.497 . S
C2664 C2665 1.395 . S
C2664 C2666 1.380 . S
C2665 C2664 1.395 . S
C2665 C2668 1.398 . S
C2665 H2680 0.930 . S
C2666 C2664 1.380 . S
C2666 C2667 1.391 . S
C2666 H2681 0.930 . S
C2667 C2666 1.391 . S
C2667 C2669 1.387 . S
C2668 C2665 1.398 . S
C2668 C2669 1.380 . S
C2668 H2682 0.930 . S
C2669 C2667 1.387 . S
C2669 C2668 1.380 . S
C2669 H2683 0.930 . S
C2670 O2650 1.254 . S
C2670 O2651 1.268 . S
C2671 O2655 1.284 . S
C2671 O2658 1.250 . S
C2672 Gd2605 2.828 . S
C2672 O2654 1.258 . S
C2672 O2659 1.252 . S
C2672 C2673 1.497 . S
C2673 C2672 1.497 . S
C2673 C2674 1.395 . S
C2673 C2675 1.380 . S
C2674 C2673 1.395 . S
C2674 C2677 1.398 . S
C2674 H2684 0.930 . S
C2675 C2673 1.380 . S
C2675 C2676 1.391 . S
C2675 H2685 0.930 . S
C2676 C2675 1.391 . S
C2676 C2678 1.387 . S
C2677 C2674 1.398 . S
C2677 C2678 1.380 . S
C2677 H2686 0.930 . S
C2678 C2676 1.387 . S
C2678 C2677 1.380 . S
C2678 H2687 0.930 . S
C2679 O2656 1.254 . S
C2679 O2657 1.268 . S
H2680 C2665 0.930 . S
H2681 C2666 0.930 . S
H2682 C2668 0.930 . S
H2683 C2669 0.930 . S
H2684 C2674 0.930 . S
H2685 C2675 0.930 . S
H2686 C2677 0.930 . S
H2687 C2678 0.930 . S
Gd2688 N2719 2.661 . S
Gd2688 N2725 2.601 . S
Gd2688 O2732 2.545 . S
Gd2688 O2733 2.606 . S
Gd2688 O2735 2.429 . S
Gd2688 O2736 2.545 . S
Gd2688 O2737 2.412 . S
Gd2688 O2739 2.362 . S
Gd2688 O2740 2.324 . S
Gd2688 C2747 2.828 . S
Gd2689 N2698 2.661 . S
Gd2689 N2702 2.601 . S
Gd2689 O2733 2.362 . S
Gd2689 O2734 2.324 . S
Gd2689 O2738 2.545 . S
Gd2689 O2739 2.606 . S
Gd2689 O2741 2.429 . S
Gd2689 O2742 2.545 . S
Gd2689 O2743 2.412 . S
Gd2689 C2756 2.828 . S
C2690 C2693 1.417 . S
C2690 C2695 1.431 . S
C2690 C2696 1.412 . S
C2691 C2694 1.437 . S
C2691 C2695 1.317 . S
C2691 H2710 0.929 . S
C2692 C2693 1.426 . S
C2692 C2694 1.413 . S
C2692 N2702 1.359 . S
C2693 C2690 1.417 . S
C2693 C2692 1.426 . S
C2693 N2698 1.350 . S
C2694 C2691 1.437 . S
C2694 C2692 1.413 . S
C2694 C2704 1.391 . S
C2695 C2690 1.431 . S
C2695 C2691 1.317 . S
C2695 H2706 0.930 . S
C2696 C2690 1.412 . S
C2696 C2697 1.355 . S
C2696 H2708 0.930 . S
C2697 C2696 1.355 . S
C2697 C2699 1.402 . S
C2697 H2709 0.930 . S
N2698 Gd2689 2.661 . S
N2698 C2693 1.350 . S
N2698 C2699 1.307 . S
C2699 C2697 1.402 . S
C2699 N2698 1.307 . S
C2699 H2700 0.930 . S
H2700 C2699 0.930 . S
C2701 N2702 1.334 . S
C2701 C2703 1.394 . S
C2701 H2705 0.930 . S
N2702 Gd2689 2.601 . S
N2702 C2692 1.359 . S
N2702 C2701 1.334 . S
C2703 C2701 1.394 . S
C2703 C2704 1.359 . S
C2703 H2715 0.930 . S
C2704 C2694 1.391 . S
C2704 C2703 1.359 . S
C2704 H2716 0.929 . S
H2705 C2701 0.930 . S
H2706 C2695 0.930 . S
H2707 C2724 0.930 . S
H2708 C2696 0.930 . S
H2709 C2697 0.930 . S
H2710 C2691 0.929 . S
H2711 C2729 0.930 . S
H2712 C2720 0.930 . S
H2713 C2721 0.930 . S
H2714 C2745 0.929 . S
H2715 C2703 0.930 . S
H2716 C2704 0.929 . S
H2717 C2746 0.930 . S
H2718 C2727 0.930 . S
N2719 Gd2688 2.661 . S
N2719 C2723 1.350 . S
N2719 C2724 1.307 . S
C2720 H2712 0.930 . S
C2720 C2721 1.355 . S
C2720 C2722 1.412 . S
C2721 H2713 0.930 . S
C2721 C2720 1.355 . S
C2721 C2724 1.402 . S
C2722 C2720 1.412 . S
C2722 C2723 1.417 . S
C2722 C2746 1.431 . S
C2723 N2719 1.350 . S
C2723 C2722 1.417 . S
C2723 C2726 1.426 . S
C2724 H2707 0.930 . S
C2724 N2719 1.307 . S
C2724 C2721 1.402 . S
N2725 Gd2688 2.601 . S
N2725 C2726 1.359 . S
N2725 C2729 1.334 . S
C2726 C2723 1.426 . S
C2726 N2725 1.359 . S
C2726 C2730 1.413 . S
C2727 H2718 0.930 . S
C2727 C2728 1.359 . S
C2727 C2729 1.394 . S
C2728 C2727 1.359 . S
C2728 C2730 1.391 . S
C2728 H2731 0.929 . S
C2729 H2711 0.930 . S
C2729 N2725 1.334 . S
C2729 C2727 1.394 . S
C2730 C2726 1.413 . S
C2730 C2728 1.391 . S
C2730 C2745 1.437 . S
H2731 C2728 0.929 . S
O2732 Gd2688 2.545 . S
O2732 C2747 1.258 . S
O2733 Gd2688 2.606 . S
O2733 Gd2689 2.362 . S
O2733 C2744 1.284 . S
O2734 Gd2689 2.324 . S
O2734 C2754 1.254 . S
O2735 Gd2688 2.429 . S
O2735 C2754 1.268 . S
O2736 Gd2688 2.545 . S
O2736 C2744 1.250 . S
O2737 Gd2688 2.412 . S
O2737 C2747 1.252 . S
O2738 Gd2689 2.545 . S
O2738 C2756 1.258 . S
O2739 Gd2688 2.362 . S
O2739 Gd2689 2.606 . S
O2739 C2755 1.284 . S
O2740 Gd2688 2.324 . S
O2740 C2763 1.254 . S
O2741 Gd2689 2.429 . S
O2741 C2763 1.268 . S
O2742 Gd2689 2.545 . S
O2742 C2755 1.250 . S
O2743 Gd2689 2.412 . S
O2743 C2756 1.252 . S
C2744 O2733 1.284 . S
C2744 O2736 1.250 . S
C2745 H2714 0.929 . S
C2745 C2730 1.437 . S
C2745 C2746 1.317 . S
C2746 H2717 0.930 . S
C2746 C2722 1.431 . S
C2746 C2745 1.317 . S
C2747 Gd2688 2.828 . S
C2747 O2732 1.258 . S
C2747 O2737 1.252 . S
C2747 C2748 1.497 . S
C2748 C2747 1.497 . S
C2748 C2749 1.395 . S
C2748 C2750 1.380 . S
C2749 C2748 1.395 . S
C2749 C2752 1.398 . S
C2749 H2764 0.930 . S
C2750 C2748 1.380 . S
C2750 C2751 1.391 . S
C2750 H2765 0.930 . S
C2751 C2750 1.391 . S
C2751 C2753 1.387 . S
C2752 C2749 1.398 . S
C2752 C2753 1.380 . S
C2752 H2766 0.930 . S
C2753 C2751 1.387 . S
C2753 C2752 1.380 . S
C2753 H2767 0.930 . S
C2754 O2734 1.254 . S
C2754 O2735 1.268 . S
C2755 O2739 1.284 . S
C2755 O2742 1.250 . S
C2756 Gd2689 2.828 . S
C2756 O2738 1.258 . S
C2756 O2743 1.252 . S
C2756 C2757 1.497 . S
C2757 C2756 1.497 . S
C2757 C2758 1.395 . S
C2757 C2759 1.380 . S
C2758 C2757 1.395 . S
C2758 C2761 1.398 . S
C2758 H2768 0.930 . S
C2759 C2757 1.380 . S
C2759 C2760 1.391 . S
C2759 H2769 0.930 . S
C2760 C2759 1.391 . S
C2760 C2762 1.387 . S
C2761 C2758 1.398 . S
C2761 C2762 1.380 . S
C2761 H2770 0.930 . S
C2762 C2760 1.387 . S
C2762 C2761 1.380 . S
C2762 H2771 0.930 . S
C2763 O2740 1.254 . S
C2763 O2741 1.268 . S
H2764 C2749 0.930 . S
H2765 C2750 0.930 . S
H2766 C2752 0.930 . S
H2767 C2753 0.930 . S
H2768 C2758 0.930 . S
H2769 C2759 0.930 . S
H2770 C2761 0.930 . S
H2771 C2762 0.930 . S
Gd2772 N2803 2.661 . S
Gd2772 N2809 2.601 1_556 S
Gd2772 O2816 2.545 1_556 S
Gd2772 O2817 2.606 . S
Gd2772 O2819 2.429 . S
Gd2772 O2820 2.545 1_556 S
Gd2772 O2821 2.412 1_556 S
Gd2772 O2823 2.362 . S
Gd2772 O2824 2.324 . S
Gd2772 C2831 2.828 1_556 S
Gd2773 N2782 2.661 . S
Gd2773 N2786 2.601 . S
Gd2773 O2817 2.362 . S
Gd2773 O2818 2.324 . S
Gd2773 O2822 2.545 . S
Gd2773 O2823 2.606 . S
Gd2773 O2825 2.429 . S
Gd2773 O2826 2.545 . S
Gd2773 O2827 2.412 . S
Gd2773 C2840 2.828 . S
C2774 C2777 1.417 . S
C2774 C2779 1.431 . S
C2774 C2780 1.412 . S
C2775 C2778 1.437 . S
C2775 C2779 1.317 . S
C2775 H2794 0.929 . S
C2776 C2777 1.426 . S
C2776 C2778 1.413 . S
C2776 N2786 1.359 . S
C2777 C2774 1.417 . S
C2777 C2776 1.426 . S
C2777 N2782 1.350 . S
C2778 C2775 1.437 . S
C2778 C2776 1.413 . S
C2778 C2788 1.391 . S
C2779 C2774 1.431 . S
C2779 C2775 1.317 . S
C2779 H2790 0.930 . S
C2780 C2774 1.412 . S
C2780 C2781 1.355 . S
C2780 H2792 0.930 . S
C2781 C2780 1.355 . S
C2781 C2783 1.402 . S
C2781 H2793 0.930 1_556 S
N2782 Gd2773 2.661 . S
N2782 C2777 1.350 . S
N2782 C2783 1.307 . S
C2783 C2781 1.402 . S
C2783 N2782 1.307 . S
C2783 H2784 0.930 . S
H2784 C2783 0.930 . S
C2785 N2786 1.334 . S
C2785 C2787 1.394 . S
C2785 H2789 0.930 . S
N2786 Gd2773 2.601 . S
N2786 C2776 1.359 . S
N2786 C2785 1.334 . S
C2787 C2785 1.394 . S
C2787 C2788 1.359 . S
C2787 H2799 0.930 . S
C2788 C2778 1.391 . S
C2788 C2787 1.359 . S
C2788 H2800 0.929 . S
H2789 C2785 0.930 . S
H2790 C2779 0.930 . S
H2791 C2808 0.930 . S
H2792 C2780 0.930 . S
H2793 C2781 0.930 1_554 S
H2794 C2775 0.929 . S
H2795 C2813 0.930 . S
H2796 C2804 0.930 . S
H2797 C2805 0.930 . S
H2798 C2829 0.929 . S
H2799 C2787 0.930 . S
H2800 C2788 0.929 . S
H2801 C2830 0.930 . S
H2802 C2811 0.930 . S
N2803 Gd2772 2.661 . S
N2803 C2807 1.350 . S
N2803 C2808 1.307 . S
C2804 H2796 0.930 . S
C2804 C2805 1.355 . S
C2804 C2806 1.412 . S
C2805 H2797 0.930 . S
C2805 C2804 1.355 . S
C2805 C2808 1.402 . S
C2806 C2804 1.412 . S
C2806 C2807 1.417 . S
C2806 C2830 1.431 . S
C2807 N2803 1.350 . S
C2807 C2806 1.417 . S
C2807 C2810 1.426 . S
C2808 H2791 0.930 . S
C2808 N2803 1.307 . S
C2808 C2805 1.402 . S
N2809 Gd2772 2.601 1_554 S
N2809 C2810 1.359 1_554 S
N2809 C2813 1.334 . S
C2810 C2807 1.426 . S
C2810 N2809 1.359 1_556 S
C2810 C2814 1.411 1_556 S
C2811 H2802 0.930 . S
C2811 C2812 1.359 . S
C2811 C2813 1.394 . S
C2812 C2811 1.359 . S
C2812 C2814 1.397 . S
C2812 H2815 0.929 . S
C2813 H2795 0.930 . S
C2813 N2809 1.334 . S
C2813 C2811 1.394 . S
C2814 C2810 1.411 1_554 S
C2814 C2812 1.397 . S
C2814 C2829 1.433 1_554 S
H2815 C2812 0.929 . S
O2816 Gd2772 2.545 1_554 S
O2816 C2831 1.258 . S
O2817 Gd2772 2.606 . S
O2817 Gd2773 2.362 . S
O2817 C2828 1.284 . S
O2818 Gd2773 2.324 . S
O2818 C2838 1.254 . S
O2819 Gd2772 2.429 . S
O2819 C2838 1.268 . S
O2820 Gd2772 2.545 1_554 S
O2820 C2828 1.250 1_554 S
O2821 Gd2772 2.412 1_554 S
O2821 C2831 1.252 . S
O2822 Gd2773 2.545 . S
O2822 C2840 1.258 . S
O2823 Gd2772 2.362 . S
O2823 Gd2773 2.606 . S
O2823 C2839 1.284 . S
O2824 Gd2772 2.324 . S
O2824 C2847 1.254 . S
O2825 Gd2773 2.429 . S
O2825 C2847 1.268 . S
O2826 Gd2773 2.545 . S
O2826 C2839 1.250 . S
O2827 Gd2773 2.412 . S
O2827 C2840 1.252 . S
C2828 O2817 1.284 . S
C2828 O2820 1.250 1_556 S
C2829 H2798 0.929 . S
C2829 C2814 1.433 1_556 S
C2829 C2830 1.317 . S
C2830 H2801 0.930 . S
C2830 C2806 1.431 . S
C2830 C2829 1.317 . S
C2831 Gd2772 2.828 1_554 S
C2831 O2816 1.258 . S
C2831 O2821 1.252 . S
C2831 C2832 1.497 . S
C2832 C2831 1.497 . S
C2832 C2833 1.395 . S
C2832 C2834 1.380 . S
C2833 C2832 1.395 . S
C2833 C2836 1.398 . S
C2833 H2848 0.930 . S
C2834 C2832 1.380 . S
C2834 C2835 1.391 . S
C2834 H2849 0.930 . S
C2835 C2834 1.391 . S
C2835 C2837 1.387 . S
C2836 C2833 1.398 . S
C2836 C2837 1.380 . S
C2836 H2850 0.930 . S
C2837 C2835 1.387 . S
C2837 C2836 1.380 . S
C2837 H2851 0.930 . S
C2838 O2818 1.254 . S
C2838 O2819 1.268 . S
C2839 O2823 1.284 . S
C2839 O2826 1.250 . S
C2840 Gd2773 2.828 . S
C2840 O2822 1.258 . S
C2840 O2827 1.252 . S
C2840 C2841 1.497 . S
C2841 C2840 1.497 . S
C2841 C2842 1.395 . S
C2841 C2843 1.380 . S
C2842 C2841 1.395 . S
C2842 C2845 1.398 . S
C2842 H2852 0.930 . S
C2843 C2841 1.380 . S
C2843 C2844 1.391 . S
C2843 H2853 0.930 . S
C2844 C2843 1.391 . S
C2844 C2846 1.387 . S
C2845 C2842 1.398 . S
C2845 C2846 1.380 . S
C2845 H2854 0.930 . S
C2846 C2844 1.387 . S
C2846 C2845 1.380 . S
C2846 H2855 0.930 . S
C2847 O2824 1.254 . S
C2847 O2825 1.268 . S
H2848 C2833 0.930 . S
H2849 C2834 0.930 . S
H2850 C2836 0.930 . S
H2851 C2837 0.930 . S
H2852 C2842 0.930 . S
H2853 C2843 0.930 . S
H2854 C2845 0.930 . S
H2855 C2846 0.930 . S
Gd2856 N2887 2.661 . S
Gd2856 N2893 2.601 . S
Gd2856 O2900 2.545 . S
Gd2856 O2901 2.606 . S
Gd2856 O2903 2.429 . S
Gd2856 O2904 2.545 . S
Gd2856 O2905 2.412 . S
Gd2856 O2907 2.362 . S
Gd2856 O2908 2.324 . S
Gd2856 C2915 2.828 . S
Gd2857 N2866 2.661 . S
Gd2857 N2870 2.601 . S
Gd2857 O2901 2.362 . S
Gd2857 O2902 2.324 . S
Gd2857 O2906 2.545 . S
Gd2857 O2907 2.606 . S
Gd2857 O2909 2.429 . S
Gd2857 O2910 2.545 . S
Gd2857 O2911 2.412 . S
Gd2857 C2924 2.828 . S
C2858 C2861 1.417 . S
C2858 C2863 1.431 . S
C2858 C2864 1.412 . S
C2859 C2862 1.437 . S
C2859 C2863 1.317 . S
C2859 H2878 0.929 . S
C2860 C2861 1.426 . S
C2860 C2862 1.413 . S
C2860 N2870 1.359 . S
C2861 C2858 1.417 . S
C2861 C2860 1.426 . S
C2861 N2866 1.350 . S
C2862 C2859 1.437 . S
C2862 C2860 1.413 . S
C2862 C2872 1.391 . S
C2863 C2858 1.431 . S
C2863 C2859 1.317 . S
C2863 H2874 0.930 . S
C2864 C2858 1.412 . S
C2864 C2865 1.355 . S
C2864 H2876 0.930 . S
C2865 C2864 1.355 . S
C2865 C2867 1.402 . S
C2865 H2877 0.930 . S
N2866 Gd2857 2.661 . S
N2866 C2861 1.350 . S
N2866 C2867 1.307 . S
C2867 C2865 1.402 . S
C2867 N2866 1.307 . S
C2867 H2868 0.930 . S
H2868 C2867 0.930 . S
C2869 N2870 1.334 . S
C2869 C2871 1.394 . S
C2869 H2873 0.930 . S
N2870 Gd2857 2.601 . S
N2870 C2860 1.359 . S
N2870 C2869 1.334 . S
C2871 C2869 1.394 . S
C2871 C2872 1.359 . S
C2871 H2883 0.930 . S
C2872 C2862 1.391 . S
C2872 C2871 1.359 . S
C2872 H2884 0.929 . S
H2873 C2869 0.930 . S
H2874 C2863 0.930 . S
H2875 C2892 0.930 . S
H2876 C2864 0.930 . S
H2877 C2865 0.930 . S
H2878 C2859 0.929 . S
H2879 C2897 0.930 . S
H2880 C2888 0.930 . S
H2881 C2889 0.930 . S
H2882 C2913 0.929 . S
H2883 C2871 0.930 . S
H2884 C2872 0.929 . S
H2885 C2914 0.930 . S
H2886 C2895 0.930 . S
N2887 Gd2856 2.661 . S
N2887 C2891 1.350 . S
N2887 C2892 1.307 . S
C2888 H2880 0.930 . S
C2888 C2889 1.355 . S
C2888 C2890 1.412 . S
C2889 H2881 0.930 . S
C2889 C2888 1.355 . S
C2889 C2892 1.402 . S
C2890 C2888 1.412 . S
C2890 C2891 1.417 . S
C2890 C2914 1.431 . S
C2891 N2887 1.350 . S
C2891 C2890 1.417 . S
C2891 C2894 1.426 . S
C2892 H2875 0.930 . S
C2892 N2887 1.307 . S
C2892 C2889 1.402 . S
N2893 Gd2856 2.601 . S
N2893 C2894 1.359 . S
N2893 C2897 1.334 . S
C2894 C2891 1.426 . S
C2894 N2893 1.359 . S
C2894 C2898 1.413 . S
C2895 H2886 0.930 . S
C2895 C2896 1.359 . S
C2895 C2897 1.394 . S
C2896 C2895 1.359 . S
C2896 C2898 1.391 . S
C2896 H2899 0.929 . S
C2897 H2879 0.930 . S
C2897 N2893 1.334 . S
C2897 C2895 1.394 . S
C2898 C2894 1.413 . S
C2898 C2896 1.391 . S
C2898 C2913 1.437 . S
H2899 C2896 0.929 . S
O2900 Gd2856 2.545 . S
O2900 C2915 1.258 . S
O2901 Gd2856 2.606 . S
O2901 Gd2857 2.362 . S
O2901 C2912 1.284 . S
O2902 Gd2857 2.324 . S
O2902 C2922 1.254 . S
O2903 Gd2856 2.429 . S
O2903 C2922 1.268 . S
O2904 Gd2856 2.545 . S
O2904 C2912 1.250 . S
O2905 Gd2856 2.412 . S
O2905 C2915 1.252 . S
O2906 Gd2857 2.545 . S
O2906 C2924 1.258 . S
O2907 Gd2856 2.362 . S
O2907 Gd2857 2.606 . S
O2907 C2923 1.284 . S
O2908 Gd2856 2.324 . S
O2908 C2931 1.254 . S
O2909 Gd2857 2.429 . S
O2909 C2931 1.268 . S
O2910 Gd2857 2.545 . S
O2910 C2923 1.250 . S
O2911 Gd2857 2.412 . S
O2911 C2924 1.252 . S
C2912 O2901 1.284 . S
C2912 O2904 1.250 . S
C2913 H2882 0.929 . S
C2913 C2898 1.437 . S
C2913 C2914 1.317 . S
C2914 H2885 0.930 . S
C2914 C2890 1.431 . S
C2914 C2913 1.317 . S
C2915 Gd2856 2.828 . S
C2915 O2900 1.258 . S
C2915 O2905 1.252 . S
C2915 C2916 1.497 . S
C2916 C2915 1.497 . S
C2916 C2917 1.395 . S
C2916 C2918 1.380 . S
C2917 C2916 1.395 . S
C2917 C2920 1.398 . S
C2917 H2932 0.930 . S
C2918 C2916 1.380 . S
C2918 C2919 1.391 . S
C2918 H2933 0.930 . S
C2919 C2918 1.391 . S
C2919 C2921 1.387 . S
C2920 C2917 1.398 . S
C2920 C2921 1.380 . S
C2920 H2934 0.930 . S
C2921 C2919 1.387 . S
C2921 C2920 1.380 . S
C2921 H2935 0.930 . S
C2922 O2902 1.254 . S
C2922 O2903 1.268 . S
C2923 O2907 1.284 . S
C2923 O2910 1.250 . S
C2924 Gd2857 2.828 . S
C2924 O2906 1.258 . S
C2924 O2911 1.252 . S
C2924 C2925 1.497 . S
C2925 C2924 1.497 . S
C2925 C2926 1.395 . S
C2925 C2927 1.380 . S
C2926 C2925 1.395 . S
C2926 C2929 1.398 . S
C2926 H2936 0.930 . S
C2927 C2925 1.380 . S
C2927 C2928 1.391 . S
C2927 H2937 0.930 . S
C2928 C2927 1.391 . S
C2928 C2930 1.387 . S
C2929 C2926 1.398 . S
C2929 C2930 1.380 . S
C2929 H2938 0.930 . S
C2930 C2928 1.387 . S
C2930 C2929 1.380 . S
C2930 H2939 0.930 . S
C2931 O2908 1.254 . S
C2931 O2909 1.268 . S
H2932 C2917 0.930 . S
H2933 C2918 0.930 . S
H2934 C2920 0.930 . S
H2935 C2921 0.930 . S
H2936 C2926 0.930 . S
H2937 C2927 0.930 . S
H2938 C2929 0.930 . S
H2939 C2930 0.930 . S
Gd2940 N2971 2.661 . S
Gd2940 N2977 2.601 . S
Gd2940 O2984 2.545 . S
Gd2940 O2985 2.606 . S
Gd2940 O2987 2.429 . S
Gd2940 O2988 2.545 . S
Gd2940 O2989 2.412 . S
Gd2940 O2991 2.362 . S
Gd2940 O2992 2.324 . S
Gd2940 C2999 2.828 . S
Gd2941 N2950 2.661 . S
Gd2941 N2954 2.601 . S
Gd2941 O2985 2.362 . S
Gd2941 O2986 2.324 . S
Gd2941 O2990 2.545 . S
Gd2941 O2991 2.606 . S
Gd2941 O2993 2.429 . S
Gd2941 O2994 2.545 . S
Gd2941 O2995 2.412 . S
Gd2941 C3008 2.828 . S
C2942 C2945 1.417 . S
C2942 C2947 1.431 . S
C2942 C2948 1.412 . S
C2943 C2946 1.437 . S
C2943 C2947 1.317 . S
C2943 H2962 0.929 . S
C2944 C2945 1.426 . S
C2944 C2946 1.413 . S
C2944 N2954 1.359 . S
C2945 C2942 1.417 . S
C2945 C2944 1.426 . S
C2945 N2950 1.350 . S
C2946 C2943 1.437 . S
C2946 C2944 1.413 . S
C2946 C2956 1.391 . S
C2947 C2942 1.431 . S
C2947 C2943 1.317 . S
C2947 H2958 0.930 . S
C2948 C2942 1.412 . S
C2948 C2949 1.355 . S
C2948 H2960 0.930 . S
C2949 C2948 1.355 . S
C2949 C2951 1.402 . S
C2949 H2961 0.930 . S
N2950 Gd2941 2.661 . S
N2950 C2945 1.350 . S
N2950 C2951 1.307 . S
C2951 C2949 1.402 . S
C2951 N2950 1.307 . S
C2951 H2952 0.930 . S
H2952 C2951 0.930 . S
C2953 N2954 1.334 . S
C2953 C2955 1.394 . S
C2953 H2957 0.930 . S
N2954 Gd2941 2.601 . S
N2954 C2944 1.359 . S
N2954 C2953 1.334 . S
C2955 C2953 1.394 . S
C2955 C2956 1.359 . S
C2955 H2967 0.930 . S
C2956 C2946 1.391 . S
C2956 C2955 1.359 . S
C2956 H2968 0.929 . S
H2957 C2953 0.930 . S
H2958 C2947 0.930 . S
H2959 C2976 0.930 . S
H2960 C2948 0.930 . S
H2961 C2949 0.930 . S
H2962 C2943 0.929 . S
H2963 C2981 0.930 . S
H2964 C2972 0.930 . S
H2965 C2973 0.930 . S
H2966 C2997 0.929 . S
H2967 C2955 0.930 . S
H2968 C2956 0.929 . S
H2969 C2998 0.930 . S
H2970 C2979 0.930 . S
N2971 Gd2940 2.661 . S
N2971 C2975 1.350 . S
N2971 C2976 1.307 . S
C2972 H2964 0.930 . S
C2972 C2973 1.355 . S
C2972 C2974 1.412 . S
C2973 H2965 0.930 . S
C2973 C2972 1.355 . S
C2973 C2976 1.402 . S
C2974 C2972 1.412 . S
C2974 C2975 1.417 . S
C2974 C2998 1.431 . S
C2975 N2971 1.350 . S
C2975 C2974 1.417 . S
C2975 C2978 1.426 . S
C2976 H2959 0.930 . S
C2976 N2971 1.307 . S
C2976 C2973 1.402 . S
N2977 Gd2940 2.601 . S
N2977 C2978 1.359 . S
N2977 C2981 1.334 . S
C2978 C2975 1.426 . S
C2978 N2977 1.359 . S
C2978 C2982 1.413 . S
C2979 H2970 0.930 . S
C2979 C2980 1.359 . S
C2979 C2981 1.394 . S
C2980 C2979 1.359 . S
C2980 C2982 1.391 . S
C2980 H2983 0.929 . S
C2981 H2963 0.930 . S
C2981 N2977 1.334 . S
C2981 C2979 1.394 . S
C2982 C2978 1.413 . S
C2982 C2980 1.391 . S
C2982 C2997 1.437 . S
H2983 C2980 0.929 . S
O2984 Gd2940 2.545 . S
O2984 C2999 1.258 . S
O2985 Gd2940 2.606 . S
O2985 Gd2941 2.362 . S
O2985 C2996 1.284 . S
O2986 Gd2941 2.324 . S
O2986 C3006 1.254 . S
O2987 Gd2940 2.429 . S
O2987 C3006 1.268 . S
O2988 Gd2940 2.545 . S
O2988 C2996 1.250 . S
O2989 Gd2940 2.412 . S
O2989 C2999 1.252 . S
O2990 Gd2941 2.545 . S
O2990 C3008 1.258 . S
O2991 Gd2940 2.362 . S
O2991 Gd2941 2.606 . S
O2991 C3007 1.284 . S
O2992 Gd2940 2.324 . S
O2992 C3015 1.254 . S
O2993 Gd2941 2.429 . S
O2993 C3015 1.268 . S
O2994 Gd2941 2.545 . S
O2994 C3007 1.250 . S
O2995 Gd2941 2.412 . S
O2995 C3008 1.252 . S
C2996 O2985 1.284 . S
C2996 O2988 1.250 . S
C2997 H2966 0.929 . S
C2997 C2982 1.437 . S
C2997 C2998 1.317 . S
C2998 H2969 0.930 . S
C2998 C2974 1.431 . S
C2998 C2997 1.317 . S
C2999 Gd2940 2.828 . S
C2999 O2984 1.258 . S
C2999 O2989 1.252 . S
C2999 C3000 1.497 . S
C3000 C2999 1.497 . S
C3000 C3001 1.395 . S
C3000 C3002 1.380 . S
C3001 C3000 1.395 . S
C3001 C3004 1.398 . S
C3001 H3016 0.930 . S
C3002 C3000 1.380 . S
C3002 C3003 1.391 . S
C3002 H3017 0.930 . S
C3003 C3002 1.391 . S
C3003 C3005 1.387 . S
C3004 C3001 1.398 . S
C3004 C3005 1.380 . S
C3004 H3018 0.930 . S
C3005 C3003 1.387 . S
C3005 C3004 1.380 . S
C3005 H3019 0.930 . S
C3006 O2986 1.254 . S
C3006 O2987 1.268 . S
C3007 O2991 1.284 . S
C3007 O2994 1.250 . S
C3008 Gd2941 2.828 . S
C3008 O2990 1.258 . S
C3008 O2995 1.252 . S
C3008 C3009 1.497 . S
C3009 C3008 1.497 . S
C3009 C3010 1.395 . S
C3009 C3011 1.380 . S
C3010 C3009 1.395 . S
C3010 C3013 1.398 . S
C3010 H3020 0.930 . S
C3011 C3009 1.380 . S
C3011 C3012 1.391 . S
C3011 H3021 0.930 . S
C3012 C3011 1.391 . S
C3012 C3014 1.387 . S
C3013 C3010 1.398 . S
C3013 C3014 1.380 . S
C3013 H3022 0.930 . S
C3014 C3012 1.387 . S
C3014 C3013 1.380 . S
C3014 H3023 0.930 . S
C3015 O2992 1.254 . S
C3015 O2993 1.268 . S
H3016 C3001 0.930 . S
H3017 C3002 0.930 . S
H3018 C3004 0.930 . S
H3019 C3005 0.930 . S
H3020 C3010 0.930 . S
H3021 C3011 0.930 . S
H3022 C3013 0.930 . S
H3023 C3014 0.930 . S
Gd3024 N3055 2.661 . S
Gd3024 N3061 2.601 . S
Gd3024 O3068 2.545 . S
Gd3024 O3069 2.606 . S
Gd3024 O3071 2.429 . S
Gd3024 O3072 2.545 . S
Gd3024 O3073 2.412 . S
Gd3024 O3075 2.362 . S
Gd3024 O3076 2.324 . S
Gd3024 C3083 2.828 . S
Gd3025 N3034 2.661 . S
Gd3025 N3038 2.601 . S
Gd3025 O3069 2.362 . S
Gd3025 O3070 2.324 . S
Gd3025 O3074 2.545 . S
Gd3025 O3075 2.606 . S
Gd3025 O3077 2.429 . S
Gd3025 O3078 2.545 . S
Gd3025 O3079 2.412 . S
Gd3025 C3092 2.828 . S
C3026 C3029 1.417 . S
C3026 C3031 1.431 . S
C3026 C3032 1.412 . S
C3027 C3030 1.437 . S
C3027 C3031 1.317 . S
C3027 H3046 0.929 . S
C3028 C3029 1.426 . S
C3028 C3030 1.413 . S
C3028 N3038 1.359 . S
C3029 C3026 1.417 . S
C3029 C3028 1.426 . S
C3029 N3034 1.350 . S
C3030 C3027 1.437 . S
C3030 C3028 1.413 . S
C3030 C3040 1.391 . S
C3031 C3026 1.431 . S
C3031 C3027 1.317 . S
C3031 H3042 0.930 . S
C3032 C3026 1.412 . S
C3032 C3033 1.355 . S
C3032 H3044 0.930 . S
C3033 C3032 1.355 . S
C3033 C3035 1.402 . S
C3033 H3045 0.930 . S
N3034 Gd3025 2.661 . S
N3034 C3029 1.350 . S
N3034 C3035 1.307 . S
C3035 C3033 1.402 . S
C3035 N3034 1.307 . S
C3035 H3036 0.930 . S
H3036 C3035 0.930 . S
C3037 N3038 1.334 . S
C3037 C3039 1.394 . S
C3037 H3041 0.930 . S
N3038 Gd3025 2.601 . S
N3038 C3028 1.359 . S
N3038 C3037 1.334 . S
C3039 C3037 1.394 . S
C3039 C3040 1.359 . S
C3039 H3051 0.930 . S
C3040 C3030 1.391 . S
C3040 C3039 1.359 . S
C3040 H3052 0.929 . S
H3041 C3037 0.930 . S
H3042 C3031 0.930 . S
H3043 C3060 0.930 . S
H3044 C3032 0.930 . S
H3045 C3033 0.930 . S
H3046 C3027 0.929 . S
H3047 C3065 0.930 . S
H3048 C3056 0.930 . S
H3049 C3057 0.930 . S
H3050 C3081 0.929 . S
H3051 C3039 0.930 . S
H3052 C3040 0.929 . S
H3053 C3082 0.930 . S
H3054 C3063 0.930 . S
N3055 Gd3024 2.661 . S
N3055 C3059 1.350 . S
N3055 C3060 1.307 . S
C3056 H3048 0.930 . S
C3056 C3057 1.355 . S
C3056 C3058 1.412 . S
C3057 H3049 0.930 . S
C3057 C3056 1.355 . S
C3057 C3060 1.402 . S
C3058 C3056 1.412 . S
C3058 C3059 1.417 . S
C3058 C3082 1.431 . S
C3059 N3055 1.350 . S
C3059 C3058 1.417 . S
C3059 C3062 1.426 . S
C3060 H3043 0.930 . S
C3060 N3055 1.307 . S
C3060 C3057 1.402 . S
N3061 Gd3024 2.601 . S
N3061 C3062 1.359 . S
N3061 C3065 1.334 . S
C3062 C3059 1.426 . S
C3062 N3061 1.359 . S
C3062 C3066 1.413 . S
C3063 H3054 0.930 . S
C3063 C3064 1.359 . S
C3063 C3065 1.394 . S
C3064 C3063 1.359 . S
C3064 C3066 1.391 . S
C3064 H3067 0.929 . S
C3065 H3047 0.930 . S
C3065 N3061 1.334 . S
C3065 C3063 1.394 . S
C3066 C3062 1.413 . S
C3066 C3064 1.391 . S
C3066 C3081 1.437 . S
H3067 C3064 0.929 . S
O3068 Gd3024 2.545 . S
O3068 C3083 1.258 . S
O3069 Gd3024 2.606 . S
O3069 Gd3025 2.362 . S
O3069 C3080 1.284 . S
O3070 Gd3025 2.324 . S
O3070 C3090 1.254 . S
O3071 Gd3024 2.429 . S
O3071 C3090 1.268 . S
O3072 Gd3024 2.545 . S
O3072 C3080 1.250 . S
O3073 Gd3024 2.412 . S
O3073 C3083 1.252 . S
O3074 Gd3025 2.545 . S
O3074 C3092 1.258 . S
O3075 Gd3024 2.362 . S
O3075 Gd3025 2.606 . S
O3075 C3091 1.284 . S
O3076 Gd3024 2.324 . S
O3076 C3099 1.254 . S
O3077 Gd3025 2.429 . S
O3077 C3099 1.268 . S
O3078 Gd3025 2.545 . S
O3078 C3091 1.250 . S
O3079 Gd3025 2.412 . S
O3079 C3092 1.252 . S
C3080 O3069 1.284 . S
C3080 O3072 1.250 . S
C3081 H3050 0.929 . S
C3081 C3066 1.437 . S
C3081 C3082 1.317 . S
C3082 H3053 0.930 . S
C3082 C3058 1.431 . S
C3082 C3081 1.317 . S
C3083 Gd3024 2.828 . S
C3083 O3068 1.258 . S
C3083 O3073 1.252 . S
C3083 C3084 1.497 . S
C3084 C3083 1.497 . S
C3084 C3085 1.395 . S
C3084 C3086 1.380 . S
C3085 C3084 1.395 . S
C3085 C3088 1.398 . S
C3085 H3100 0.930 . S
C3086 C3084 1.380 . S
C3086 C3087 1.391 . S
C3086 H3101 0.930 . S
C3087 C3086 1.391 . S
C3087 C3089 1.387 . S
C3088 C3085 1.398 . S
C3088 C3089 1.380 . S
C3088 H3102 0.930 . S
C3089 C3087 1.387 . S
C3089 C3088 1.380 . S
C3089 H3103 0.930 . S
C3090 O3070 1.254 . S
C3090 O3071 1.268 . S
C3091 O3075 1.284 . S
C3091 O3078 1.250 . S
C3092 Gd3025 2.828 . S
C3092 O3074 1.258 . S
C3092 O3079 1.252 . S
C3092 C3093 1.497 . S
C3093 C3092 1.497 . S
C3093 C3094 1.395 . S
C3093 C3095 1.380 . S
C3094 C3093 1.395 . S
C3094 C3097 1.398 . S
C3094 H3104 0.930 . S
C3095 C3093 1.380 . S
C3095 C3096 1.391 . S
C3095 H3105 0.930 . S
C3096 C3095 1.391 . S
C3096 C3098 1.387 . S
C3097 C3094 1.398 . S
C3097 C3098 1.380 . S
C3097 H3106 0.930 . S
C3098 C3096 1.387 . S
C3098 C3097 1.380 . S
C3098 H3107 0.930 . S
C3099 O3076 1.254 . S
C3099 O3077 1.268 . S
H3100 C3085 0.930 . S
H3101 C3086 0.930 . S
H3102 C3088 0.930 . S
H3103 C3089 0.930 . S
H3104 C3094 0.930 . S
H3105 C3095 0.930 . S
H3106 C3097 0.930 . S
H3107 C3098 0.930 . S
Gd3108 N3139 2.661 . S
Gd3108 N3145 2.601 . S
Gd3108 O3152 2.545 . S
Gd3108 O3153 2.606 . S
Gd3108 O3155 2.429 . S
Gd3108 O3156 2.545 . S
Gd3108 O3157 2.412 . S
Gd3108 O3159 2.362 . S
Gd3108 O3160 2.324 . S
Gd3108 C3167 2.828 . S
Gd3109 N3118 2.661 . S
Gd3109 N3122 2.601 . S
Gd3109 O3153 2.362 . S
Gd3109 O3154 2.324 . S
Gd3109 O3158 2.545 . S
Gd3109 O3159 2.606 . S
Gd3109 O3161 2.429 . S
Gd3109 O3162 2.545 . S
Gd3109 O3163 2.412 . S
Gd3109 C3176 2.828 . S
C3110 C3113 1.417 . S
C3110 C3115 1.431 . S
C3110 C3116 1.412 . S
C3111 C3114 1.437 . S
C3111 C3115 1.317 . S
C3111 H3130 0.929 . S
C3112 C3113 1.426 . S
C3112 C3114 1.413 . S
C3112 N3122 1.359 . S
C3113 C3110 1.417 . S
C3113 C3112 1.426 . S
C3113 N3118 1.350 . S
C3114 C3111 1.437 . S
C3114 C3112 1.413 . S
C3114 C3124 1.391 . S
C3115 C3110 1.431 . S
C3115 C3111 1.317 . S
C3115 H3126 0.930 . S
C3116 C3110 1.412 . S
C3116 C3117 1.355 . S
C3116 H3128 0.930 . S
C3117 C3116 1.355 . S
C3117 C3119 1.402 . S
C3117 H3129 0.930 . S
N3118 Gd3109 2.661 . S
N3118 C3113 1.350 . S
N3118 C3119 1.307 . S
C3119 C3117 1.402 . S
C3119 N3118 1.307 . S
C3119 H3120 0.930 . S
H3120 C3119 0.930 . S
C3121 N3122 1.334 . S
C3121 C3123 1.394 . S
C3121 H3125 0.930 . S
N3122 Gd3109 2.601 . S
N3122 C3112 1.359 . S
N3122 C3121 1.334 . S
C3123 C3121 1.394 . S
C3123 C3124 1.359 . S
C3123 H3135 0.930 . S
C3124 C3114 1.391 . S
C3124 C3123 1.359 . S
C3124 H3136 0.929 . S
H3125 C3121 0.930 . S
H3126 C3115 0.930 . S
H3127 C3144 0.930 . S
H3128 C3116 0.930 . S
H3129 C3117 0.930 . S
H3130 C3111 0.929 . S
H3131 C3149 0.930 . S
H3132 C3140 0.930 . S
H3133 C3141 0.930 . S
H3134 C3165 0.929 . S
H3135 C3123 0.930 . S
H3136 C3124 0.929 . S
H3137 C3166 0.930 . S
H3138 C3147 0.930 . S
N3139 Gd3108 2.661 . S
N3139 C3143 1.350 . S
N3139 C3144 1.307 . S
C3140 H3132 0.930 . S
C3140 C3141 1.355 . S
C3140 C3142 1.412 . S
C3141 H3133 0.930 . S
C3141 C3140 1.355 . S
C3141 C3144 1.402 . S
C3142 C3140 1.412 . S
C3142 C3143 1.417 . S
C3142 C3166 1.431 . S
C3143 N3139 1.350 . S
C3143 C3142 1.417 . S
C3143 C3146 1.426 . S
C3144 H3127 0.930 . S
C3144 N3139 1.307 . S
C3144 C3141 1.402 . S
N3145 Gd3108 2.601 . S
N3145 C3146 1.359 . S
N3145 C3149 1.334 . S
C3146 C3143 1.426 . S
C3146 N3145 1.359 . S
C3146 C3150 1.413 . S
C3147 H3138 0.930 . S
C3147 C3148 1.359 . S
C3147 C3149 1.394 . S
C3148 C3147 1.359 . S
C3148 C3150 1.391 . S
C3148 H3151 0.929 . S
C3149 H3131 0.930 . S
C3149 N3145 1.334 . S
C3149 C3147 1.394 . S
C3150 C3146 1.413 . S
C3150 C3148 1.391 . S
C3150 C3165 1.437 . S
H3151 C3148 0.929 . S
O3152 Gd3108 2.545 . S
O3152 C3167 1.258 . S
O3153 Gd3108 2.606 . S
O3153 Gd3109 2.362 . S
O3153 C3164 1.284 . S
O3154 Gd3109 2.324 . S
O3154 C3174 1.254 . S
O3155 Gd3108 2.429 . S
O3155 C3174 1.268 . S
O3156 Gd3108 2.545 . S
O3156 C3164 1.250 . S
O3157 Gd3108 2.412 . S
O3157 C3167 1.252 . S
O3158 Gd3109 2.545 . S
O3158 C3176 1.258 . S
O3159 Gd3108 2.362 . S
O3159 Gd3109 2.606 . S
O3159 C3175 1.284 . S
O3160 Gd3108 2.324 . S
O3160 C3183 1.254 . S
O3161 Gd3109 2.429 . S
O3161 C3183 1.268 . S
O3162 Gd3109 2.545 . S
O3162 C3175 1.250 . S
O3163 Gd3109 2.412 . S
O3163 C3176 1.252 . S
C3164 O3153 1.284 . S
C3164 O3156 1.250 . S
C3165 H3134 0.929 . S
C3165 C3150 1.437 . S
C3165 C3166 1.317 . S
C3166 H3137 0.930 . S
C3166 C3142 1.431 . S
C3166 C3165 1.317 . S
C3167 Gd3108 2.828 . S
C3167 O3152 1.258 . S
C3167 O3157 1.252 . S
C3167 C3168 1.497 . S
C3168 C3167 1.497 . S
C3168 C3169 1.395 . S
C3168 C3170 1.380 . S
C3169 C3168 1.395 . S
C3169 C3172 1.398 . S
C3169 H3184 0.930 . S
C3170 C3168 1.380 . S
C3170 C3171 1.391 . S
C3170 H3185 0.930 . S
C3171 C3170 1.391 . S
C3171 C3173 1.387 . S
C3172 C3169 1.398 . S
C3172 C3173 1.380 . S
C3172 H3186 0.930 . S
C3173 C3171 1.387 . S
C3173 C3172 1.380 . S
C3173 H3187 0.930 . S
C3174 O3154 1.254 . S
C3174 O3155 1.268 . S
C3175 O3159 1.284 . S
C3175 O3162 1.250 . S
C3176 Gd3109 2.828 . S
C3176 O3158 1.258 . S
C3176 O3163 1.252 . S
C3176 C3177 1.497 . S
C3177 C3176 1.497 . S
C3177 C3178 1.395 . S
C3177 C3179 1.380 . S
C3178 C3177 1.395 . S
C3178 C3181 1.398 . S
C3178 H3188 0.930 . S
C3179 C3177 1.380 . S
C3179 C3180 1.391 . S
C3179 H3189 0.930 . S
C3180 C3179 1.391 . S
C3180 C3182 1.387 . S
C3181 C3178 1.398 . S
C3181 C3182 1.380 . S
C3181 H3190 0.930 . S
C3182 C3180 1.387 . S
C3182 C3181 1.380 . S
C3182 H3191 0.930 . S
C3183 O3160 1.254 . S
C3183 O3161 1.268 . S
H3184 C3169 0.930 . S
H3185 C3170 0.930 . S
H3186 C3172 0.930 . S
H3187 C3173 0.930 . S
H3188 C3178 0.930 . S
H3189 C3179 0.930 . S
H3190 C3181 0.930 . S
H3191 C3182 0.930 . S
Gd3192 N3223 2.661 . S
Gd3192 N3229 2.601 . S
Gd3192 O3236 2.545 . S
Gd3192 O3237 2.606 . S
Gd3192 O3239 2.429 . S
Gd3192 O3240 2.545 . S
Gd3192 O3241 2.412 . S
Gd3192 O3243 2.362 . S
Gd3192 O3244 2.324 . S
Gd3192 C3251 2.828 . S
Gd3193 N3202 2.661 . S
Gd3193 N3206 2.601 . S
Gd3193 O3237 2.362 . S
Gd3193 O3238 2.324 . S
Gd3193 O3242 2.545 . S
Gd3193 O3243 2.606 . S
Gd3193 O3245 2.429 . S
Gd3193 O3246 2.545 . S
Gd3193 O3247 2.412 . S
Gd3193 C3260 2.828 . S
C3194 C3197 1.417 . S
C3194 C3199 1.431 . S
C3194 C3200 1.412 . S
C3195 C3198 1.437 . S
C3195 C3199 1.317 . S
C3195 H3214 0.929 . S
C3196 C3197 1.426 . S
C3196 C3198 1.413 . S
C3196 N3206 1.359 . S
C3197 C3194 1.417 . S
C3197 C3196 1.426 . S
C3197 N3202 1.350 . S
C3198 C3195 1.437 . S
C3198 C3196 1.413 . S
C3198 C3208 1.391 . S
C3199 C3194 1.431 . S
C3199 C3195 1.317 . S
C3199 H3210 0.930 . S
C3200 C3194 1.412 . S
C3200 C3201 1.355 . S
C3200 H3212 0.930 . S
C3201 C3200 1.355 . S
C3201 C3203 1.402 . S
C3201 H3213 0.930 . S
N3202 Gd3193 2.661 . S
N3202 C3197 1.350 . S
N3202 C3203 1.307 . S
C3203 C3201 1.402 . S
C3203 N3202 1.307 . S
C3203 H3204 0.930 . S
H3204 C3203 0.930 . S
C3205 N3206 1.334 . S
C3205 C3207 1.394 . S
C3205 H3209 0.930 . S
N3206 Gd3193 2.601 . S
N3206 C3196 1.359 . S
N3206 C3205 1.334 . S
C3207 C3205 1.394 . S
C3207 C3208 1.359 . S
C3207 H3219 0.930 . S
C3208 C3198 1.391 . S
C3208 C3207 1.359 . S
C3208 H3220 0.929 . S
H3209 C3205 0.930 . S
H3210 C3199 0.930 . S
H3211 C3228 0.930 . S
H3212 C3200 0.930 . S
H3213 C3201 0.930 . S
H3214 C3195 0.929 . S
H3215 C3233 0.930 . S
H3216 C3224 0.930 . S
H3217 C3225 0.930 . S
H3218 C3249 0.929 . S
H3219 C3207 0.930 . S
H3220 C3208 0.929 . S
H3221 C3250 0.930 . S
H3222 C3231 0.930 . S
N3223 Gd3192 2.661 . S
N3223 C3227 1.350 . S
N3223 C3228 1.307 . S
C3224 H3216 0.930 . S
C3224 C3225 1.355 . S
C3224 C3226 1.412 . S
C3225 H3217 0.930 . S
C3225 C3224 1.355 . S
C3225 C3228 1.402 . S
C3226 C3224 1.412 . S
C3226 C3227 1.417 . S
C3226 C3250 1.431 . S
C3227 N3223 1.350 . S
C3227 C3226 1.417 . S
C3227 C3230 1.426 . S
C3228 H3211 0.930 . S
C3228 N3223 1.307 . S
C3228 C3225 1.402 . S
N3229 Gd3192 2.601 . S
N3229 C3230 1.359 . S
N3229 C3233 1.334 . S
C3230 C3227 1.426 . S
C3230 N3229 1.359 . S
C3230 C3234 1.413 . S
C3231 H3222 0.930 . S
C3231 C3232 1.359 . S
C3231 C3233 1.394 . S
C3232 C3231 1.359 . S
C3232 C3234 1.391 . S
C3232 H3235 0.929 . S
C3233 H3215 0.930 . S
C3233 N3229 1.334 . S
C3233 C3231 1.394 . S
C3234 C3230 1.413 . S
C3234 C3232 1.391 . S
C3234 C3249 1.437 . S
H3235 C3232 0.929 . S
O3236 Gd3192 2.545 . S
O3236 C3251 1.258 . S
O3237 Gd3192 2.606 . S
O3237 Gd3193 2.362 . S
O3237 C3248 1.284 . S
O3238 Gd3193 2.324 . S
O3238 C3258 1.254 . S
O3239 Gd3192 2.429 . S
O3239 C3258 1.268 . S
O3240 Gd3192 2.545 . S
O3240 C3248 1.250 . S
O3241 Gd3192 2.412 . S
O3241 C3251 1.252 . S
O3242 Gd3193 2.545 . S
O3242 C3260 1.258 . S
O3243 Gd3192 2.362 . S
O3243 Gd3193 2.606 . S
O3243 C3259 1.284 . S
O3244 Gd3192 2.324 . S
O3244 C3267 1.254 . S
O3245 Gd3193 2.429 . S
O3245 C3267 1.268 . S
O3246 Gd3193 2.545 . S
O3246 C3259 1.250 . S
O3247 Gd3193 2.412 . S
O3247 C3260 1.252 . S
C3248 O3237 1.284 . S
C3248 O3240 1.250 . S
C3249 H3218 0.929 . S
C3249 C3234 1.437 . S
C3249 C3250 1.317 . S
C3250 H3221 0.930 . S
C3250 C3226 1.431 . S
C3250 C3249 1.317 . S
C3251 Gd3192 2.828 . S
C3251 O3236 1.258 . S
C3251 O3241 1.252 . S
C3251 C3252 1.497 . S
C3252 C3251 1.497 . S
C3252 C3253 1.395 . S
C3252 C3254 1.380 . S
C3253 C3252 1.395 . S
C3253 C3256 1.398 . S
C3253 H3268 0.930 . S
C3254 C3252 1.380 . S
C3254 C3255 1.391 . S
C3254 H3269 0.930 . S
C3255 C3254 1.391 . S
C3255 C3257 1.387 . S
C3256 C3253 1.398 . S
C3256 C3257 1.380 . S
C3256 H3270 0.930 . S
C3257 C3255 1.387 . S
C3257 C3256 1.380 . S
C3257 H3271 0.930 . S
C3258 O3238 1.254 . S
C3258 O3239 1.268 . S
C3259 O3243 1.284 . S
C3259 O3246 1.250 . S
C3260 Gd3193 2.828 . S
C3260 O3242 1.258 . S
C3260 O3247 1.252 . S
C3260 C3261 1.497 . S
C3261 C3260 1.497 . S
C3261 C3262 1.395 . S
C3261 C3263 1.380 . S
C3262 C3261 1.395 . S
C3262 C3265 1.398 . S
C3262 H3272 0.930 . S
C3263 C3261 1.380 . S
C3263 C3264 1.391 . S
C3263 H3273 0.930 . S
C3264 C3263 1.391 . S
C3264 C3266 1.387 . S
C3265 C3262 1.398 . S
C3265 C3266 1.380 . S
C3265 H3274 0.930 . S
C3266 C3264 1.387 . S
C3266 C3265 1.380 . S
C3266 H3275 0.930 . S
C3267 O3244 1.254 . S
C3267 O3245 1.268 . S
H3268 C3253 0.930 . S
H3269 C3254 0.930 . S
H3270 C3256 0.930 . S
H3271 C3257 0.930 . S
H3272 C3262 0.930 . S
H3273 C3263 0.930 . S
H3274 C3265 0.930 . S
H3275 C3266 0.930 . S
Gd3276 N3307 2.661 . S
Gd3276 N3313 2.601 . S
Gd3276 O3320 2.545 . S
Gd3276 O3321 2.606 . S
Gd3276 O3323 2.429 . S
Gd3276 O3324 2.545 . S
Gd3276 O3325 2.412 . S
Gd3276 O3327 2.362 . S
Gd3276 O3328 2.324 . S
Gd3276 C3335 2.828 . S
Gd3277 N3286 2.661 . S
Gd3277 N3290 2.601 . S
Gd3277 O3321 2.362 . S
Gd3277 O3322 2.324 . S
Gd3277 O3326 2.545 . S
Gd3277 O3327 2.606 . S
Gd3277 O3329 2.429 . S
Gd3277 O3330 2.545 . S
Gd3277 O3331 2.412 . S
Gd3277 C3344 2.828 . S
C3278 C3281 1.417 . S
C3278 C3283 1.431 . S
C3278 C3284 1.412 . S
C3279 C3282 1.437 . S
C3279 C3283 1.317 . S
C3279 H3298 0.929 . S
C3280 C3281 1.426 . S
C3280 C3282 1.413 . S
C3280 N3290 1.359 . S
C3281 C3278 1.417 . S
C3281 C3280 1.426 . S
C3281 N3286 1.350 . S
C3282 C3279 1.437 . S
C3282 C3280 1.413 . S
C3282 C3292 1.391 . S
C3283 C3278 1.431 . S
C3283 C3279 1.317 . S
C3283 H3294 0.930 . S
C3284 C3278 1.412 . S
C3284 C3285 1.355 . S
C3284 H3296 0.930 . S
C3285 C3284 1.355 . S
C3285 C3287 1.402 . S
C3285 H3297 0.930 . S
N3286 Gd3277 2.661 . S
N3286 C3281 1.350 . S
N3286 C3287 1.307 . S
C3287 C3285 1.402 . S
C3287 N3286 1.307 . S
C3287 H3288 0.930 . S
H3288 C3287 0.930 . S
C3289 N3290 1.334 . S
C3289 C3291 1.394 . S
C3289 H3293 0.930 . S
N3290 Gd3277 2.601 . S
N3290 C3280 1.359 . S
N3290 C3289 1.334 . S
C3291 C3289 1.394 . S
C3291 C3292 1.359 . S
C3291 H3303 0.930 . S
C3292 C3282 1.391 . S
C3292 C3291 1.359 . S
C3292 H3304 0.929 . S
H3293 C3289 0.930 . S
H3294 C3283 0.930 . S
H3295 C3312 0.930 . S
H3296 C3284 0.930 . S
H3297 C3285 0.930 . S
H3298 C3279 0.929 . S
H3299 C3317 0.930 . S
H3300 C3308 0.930 . S
H3301 C3309 0.930 . S
H3302 C3333 0.929 . S
H3303 C3291 0.930 . S
H3304 C3292 0.929 . S
H3305 C3334 0.930 . S
H3306 C3315 0.930 . S
N3307 Gd3276 2.661 . S
N3307 C3311 1.350 . S
N3307 C3312 1.307 . S
C3308 H3300 0.930 . S
C3308 C3309 1.355 . S
C3308 C3310 1.412 . S
C3309 H3301 0.930 . S
C3309 C3308 1.355 . S
C3309 C3312 1.402 . S
C3310 C3308 1.412 . S
C3310 C3311 1.417 . S
C3310 C3334 1.431 . S
C3311 N3307 1.350 . S
C3311 C3310 1.417 . S
C3311 C3314 1.426 . S
C3312 H3295 0.930 . S
C3312 N3307 1.307 . S
C3312 C3309 1.402 . S
N3313 Gd3276 2.601 . S
N3313 C3314 1.359 . S
N3313 C3317 1.334 . S
C3314 C3311 1.426 . S
C3314 N3313 1.359 . S
C3314 C3318 1.413 . S
C3315 H3306 0.930 . S
C3315 C3316 1.359 . S
C3315 C3317 1.394 . S
C3316 C3315 1.359 . S
C3316 C3318 1.391 . S
C3316 H3319 0.929 . S
C3317 H3299 0.930 . S
C3317 N3313 1.334 . S
C3317 C3315 1.394 . S
C3318 C3314 1.413 . S
C3318 C3316 1.391 . S
C3318 C3333 1.437 . S
H3319 C3316 0.929 . S
O3320 Gd3276 2.545 . S
O3320 C3335 1.258 . S
O3321 Gd3276 2.606 . S
O3321 Gd3277 2.362 . S
O3321 C3332 1.284 . S
O3322 Gd3277 2.324 . S
O3322 C3342 1.254 . S
O3323 Gd3276 2.429 . S
O3323 C3342 1.268 . S
O3324 Gd3276 2.545 . S
O3324 C3332 1.250 . S
O3325 Gd3276 2.412 . S
O3325 C3335 1.252 . S
O3326 Gd3277 2.545 . S
O3326 C3344 1.258 . S
O3327 Gd3276 2.362 . S
O3327 Gd3277 2.606 . S
O3327 C3343 1.284 . S
O3328 Gd3276 2.324 . S
O3328 C3351 1.254 . S
O3329 Gd3277 2.429 . S
O3329 C3351 1.268 . S
O3330 Gd3277 2.545 . S
O3330 C3343 1.250 . S
O3331 Gd3277 2.412 . S
O3331 C3344 1.252 . S
C3332 O3321 1.284 . S
C3332 O3324 1.250 . S
C3333 H3302 0.929 . S
C3333 C3318 1.437 . S
C3333 C3334 1.317 . S
C3334 H3305 0.930 . S
C3334 C3310 1.431 . S
C3334 C3333 1.317 . S
C3335 Gd3276 2.828 . S
C3335 O3320 1.258 . S
C3335 O3325 1.252 . S
C3335 C3336 1.497 . S
C3336 C3335 1.497 . S
C3336 C3337 1.395 . S
C3336 C3338 1.380 . S
C3337 C3336 1.395 . S
C3337 C3340 1.398 . S
C3337 H3352 0.930 . S
C3338 C3336 1.380 . S
C3338 C3339 1.391 . S
C3338 H3353 0.930 . S
C3339 C3338 1.391 . S
C3339 C3341 1.387 . S
C3340 C3337 1.398 . S
C3340 C3341 1.380 . S
C3340 H3354 0.930 . S
C3341 C3339 1.387 . S
C3341 C3340 1.380 . S
C3341 H3355 0.930 . S
C3342 O3322 1.254 . S
C3342 O3323 1.268 . S
C3343 O3327 1.284 . S
C3343 O3330 1.250 . S
C3344 Gd3277 2.828 . S
C3344 O3326 1.258 . S
C3344 O3331 1.252 . S
C3344 C3345 1.497 . S
C3345 C3344 1.497 . S
C3345 C3346 1.395 . S
C3345 C3347 1.380 . S
C3346 C3345 1.395 . S
C3346 C3349 1.398 . S
C3346 H3356 0.930 . S
C3347 C3345 1.380 . S
C3347 C3348 1.391 . S
C3347 H3357 0.930 . S
C3348 C3347 1.391 . S
C3348 C3350 1.387 . S
C3349 C3346 1.398 . S
C3349 C3350 1.380 . S
C3349 H3358 0.930 . S
C3350 C3348 1.387 . S
C3350 C3349 1.380 . S
C3350 H3359 0.930 . S
C3351 O3328 1.254 . S
C3351 O3329 1.268 . S
H3352 C3337 0.930 . S
H3353 C3338 0.930 . S
H3354 C3340 0.930 . S
H3355 C3341 0.930 . S
H3356 C3346 0.930 . S
H3357 C3347 0.930 . S
H3358 C3349 0.930 . S
H3359 C3350 0.930 . S
Gd3360 N3391 2.661 . S
Gd3360 N3397 2.601 . S
Gd3360 O3404 2.545 . S
Gd3360 O3405 2.606 . S
Gd3360 O3407 2.429 . S
Gd3360 O3408 2.545 . S
Gd3360 O3409 2.412 . S
Gd3360 O3411 2.362 . S
Gd3360 O3412 2.324 . S
Gd3360 C3419 2.828 . S
Gd3361 N3370 2.661 . S
Gd3361 N3374 2.601 1_455 S
Gd3361 O3405 2.362 . S
Gd3361 O3406 2.324 . S
Gd3361 O3410 2.545 1_455 S
Gd3361 O3411 2.606 . S
Gd3361 O3413 2.429 . S
Gd3361 O3414 2.545 1_455 S
Gd3361 O3415 2.412 1_455 S
Gd3361 C3428 2.828 1_455 S
C3362 C3365 1.417 . S
C3362 C3367 1.431 . S
C3362 C3368 1.412 . S
C3363 C3366 1.421 1_455 S
C3363 C3367 1.317 . S
C3363 H3382 0.929 . S
C3364 C3365 1.426 . S
C3364 C3366 1.403 1_455 S
C3364 N3374 1.359 1_455 S
C3365 C3362 1.417 . S
C3365 C3364 1.426 . S
C3365 N3370 1.350 . S
C3366 C3363 1.421 1_655 S
C3366 C3364 1.403 1_655 S
C3366 C3376 1.418 . S
C3367 C3362 1.431 . S
C3367 C3363 1.317 . S
C3367 H3378 0.930 . S
C3368 C3362 1.412 . S
C3368 C3369 1.355 . S
C3368 H3380 0.930 . S
C3369 C3368 1.355 . S
C3369 C3371 1.402 . S
C3369 H3381 0.930 . S
N3370 Gd3361 2.661 . S
N3370 C3365 1.350 . S
N3370 C3371 1.307 . S
C3371 C3369 1.402 . S
C3371 N3370 1.307 . S
C3371 H3372 0.930 . S
H3372 C3371 0.930 . S
C3373 N3374 1.334 . S
C3373 C3375 1.394 . S
C3373 H3377 0.930 . S
N3374 Gd3361 2.601 1_655 S
N3374 C3364 1.359 1_655 S
N3374 C3373 1.334 . S
C3375 C3373 1.394 . S
C3375 C3376 1.359 . S
C3375 H3387 0.930 . S
C3376 C3366 1.418 . S
C3376 C3375 1.359 . S
C3376 H3388 0.929 . S
H3377 C3373 0.930 . S
H3378 C3367 0.930 . S
H3379 C3396 0.930 . S
H3380 C3368 0.930 . S
H3381 C3369 0.930 . S
H3382 C3363 0.929 . S
H3383 C3401 0.930 . S
H3384 C3392 0.930 . S
H3385 C3393 0.930 1_655 S
H3386 C3417 0.929 . S
H3387 C3375 0.930 . S
H3388 C3376 0.929 . S
H3389 C3418 0.930 . S
H3390 C3399 0.930 . S
N3391 Gd3360 2.661 . S
N3391 C3395 1.350 . S
N3391 C3396 1.307 . S
C3392 H3384 0.930 . S
C3392 C3393 1.355 . S
C3392 C3394 1.412 . S
C3393 H3385 0.930 1_455 S
C3393 C3392 1.355 . S
C3393 C3396 1.402 . S
C3394 C3392 1.412 . S
C3394 C3395 1.417 . S
C3394 C3418 1.431 . S
C3395 N3391 1.350 . S
C3395 C3394 1.417 . S
C3395 C3398 1.426 . S
C3396 H3379 0.930 . S
C3396 N3391 1.307 . S
C3396 C3393 1.402 . S
N3397 Gd3360 2.601 . S
N3397 C3398 1.359 . S
N3397 C3401 1.334 . S
C3398 C3395 1.426 . S
C3398 N3397 1.359 . S
C3398 C3402 1.413 . S
C3399 H3390 0.930 . S
C3399 C3400 1.359 . S
C3399 C3401 1.394 . S
C3400 C3399 1.359 . S
C3400 C3402 1.391 . S
C3400 H3403 0.929 . S
C3401 H3383 0.930 . S
C3401 N3397 1.334 . S
C3401 C3399 1.394 . S
C3402 C3398 1.413 . S
C3402 C3400 1.391 . S
C3402 C3417 1.437 . S
H3403 C3400 0.929 . S
O3404 Gd3360 2.545 . S
O3404 C3419 1.258 . S
O3405 Gd3360 2.606 . S
O3405 Gd3361 2.362 . S
O3405 C3416 1.284 . S
O3406 Gd3361 2.324 . S
O3406 C3426 1.254 . S
O3407 Gd3360 2.429 . S
O3407 C3426 1.268 . S
O3408 Gd3360 2.545 . S
O3408 C3416 1.250 . S
O3409 Gd3360 2.412 . S
O3409 C3419 1.252 . S
O3410 Gd3361 2.545 1_655 S
O3410 C3428 1.258 . S
O3411 Gd3360 2.362 . S
O3411 Gd3361 2.606 . S
O3411 C3427 1.284 . S
O3412 Gd3360 2.324 . S
O3412 C3435 1.254 . S
O3413 Gd3361 2.429 . S
O3413 C3435 1.268 . S
O3414 Gd3361 2.545 1_655 S
O3414 C3427 1.250 1_655 S
O3415 Gd3361 2.412 1_655 S
O3415 C3428 1.252 . S
C3416 O3405 1.284 . S
C3416 O3408 1.250 . S
C3417 H3386 0.929 . S
C3417 C3402 1.437 . S
C3417 C3418 1.317 . S
C3418 H3389 0.930 . S
C3418 C3394 1.431 . S
C3418 C3417 1.317 . S
C3419 Gd3360 2.828 . S
C3419 O3404 1.258 . S
C3419 O3409 1.252 . S
C3419 C3420 1.497 . S
C3420 C3419 1.497 . S
C3420 C3421 1.395 . S
C3420 C3422 1.380 . S
C3421 C3420 1.395 . S
C3421 C3424 1.398 . S
C3421 H3436 0.930 . S
C3422 C3420 1.380 . S
C3422 C3423 1.391 . S
C3422 H3437 0.930 . S
C3423 C3422 1.391 . S
C3423 C3425 1.387 . S
C3424 C3421 1.398 . S
C3424 C3425 1.380 . S
C3424 H3438 0.930 . S
C3425 C3423 1.387 . S
C3425 C3424 1.380 . S
C3425 H3439 0.930 . S
C3426 O3406 1.254 . S
C3426 O3407 1.268 . S
C3427 O3411 1.284 . S
C3427 O3414 1.250 1_455 S
C3428 Gd3361 2.828 1_655 S
C3428 O3410 1.258 . S
C3428 O3415 1.252 . S
C3428 C3429 1.497 . S
C3429 C3428 1.497 . S
C3429 C3430 1.395 . S
C3429 C3431 1.380 . S
C3430 C3429 1.395 . S
C3430 C3433 1.398 . S
C3430 H3440 0.930 . S
C3431 C3429 1.380 . S
C3431 C3432 1.391 . S
C3431 H3441 0.930 . S
C3432 C3431 1.391 . S
C3432 C3434 1.387 . S
C3433 C3430 1.398 . S
C3433 C3434 1.380 . S
C3433 H3442 0.930 . S
C3434 C3432 1.387 . S
C3434 C3433 1.380 . S
C3434 H3443 0.930 . S
C3435 O3412 1.254 . S
C3435 O3413 1.268 . S
H3436 C3421 0.930 . S
H3437 C3422 0.930 . S
H3438 C3424 0.930 . S
H3439 C3425 0.930 . S
H3440 C3430 0.930 . S
H3441 C3431 0.930 . S
H3442 C3433 0.930 . S
H3443 C3434 0.930 . S
Gd3444 N3475 2.661 . S
Gd3444 N3481 2.601 . S
Gd3444 O3488 2.545 . S
Gd3444 O3489 2.606 . S
Gd3444 O3491 2.429 . S
Gd3444 O3492 2.545 . S
Gd3444 O3493 2.412 . S
Gd3444 O3495 2.362 . S
Gd3444 O3496 2.324 . S
Gd3444 C3503 2.828 . S
Gd3445 N3454 2.661 . S
Gd3445 N3458 2.601 . S
Gd3445 O3489 2.362 . S
Gd3445 O3490 2.324 . S
Gd3445 O3494 2.545 . S
Gd3445 O3495 2.606 . S
Gd3445 O3497 2.429 . S
Gd3445 O3498 2.545 . S
Gd3445 O3499 2.412 . S
Gd3445 C3512 2.828 . S
C3446 C3449 1.417 . S
C3446 C3451 1.431 . S
C3446 C3452 1.412 . S
C3447 C3450 1.437 . S
C3447 C3451 1.317 . S
C3447 H3466 0.929 . S
C3448 C3449 1.426 . S
C3448 C3450 1.413 . S
C3448 N3458 1.359 . S
C3449 C3446 1.417 . S
C3449 C3448 1.426 . S
C3449 N3454 1.350 . S
C3450 C3447 1.437 . S
C3450 C3448 1.413 . S
C3450 C3460 1.391 . S
C3451 C3446 1.431 . S
C3451 C3447 1.317 . S
C3451 H3462 0.930 . S
C3452 C3446 1.412 . S
C3452 C3453 1.355 . S
C3452 H3464 0.930 . S
C3453 C3452 1.355 . S
C3453 C3455 1.402 . S
C3453 H3465 0.930 . S
N3454 Gd3445 2.661 . S
N3454 C3449 1.350 . S
N3454 C3455 1.307 . S
C3455 C3453 1.402 . S
C3455 N3454 1.307 . S
C3455 H3456 0.930 . S
H3456 C3455 0.930 . S
C3457 N3458 1.334 . S
C3457 C3459 1.394 . S
C3457 H3461 0.930 . S
N3458 Gd3445 2.601 . S
N3458 C3448 1.359 . S
N3458 C3457 1.334 . S
C3459 C3457 1.394 . S
C3459 C3460 1.359 . S
C3459 H3471 0.930 . S
C3460 C3450 1.391 . S
C3460 C3459 1.359 . S
C3460 H3472 0.929 . S
H3461 C3457 0.930 . S
H3462 C3451 0.930 . S
H3463 C3480 0.930 . S
H3464 C3452 0.930 . S
H3465 C3453 0.930 . S
H3466 C3447 0.929 . S
H3467 C3485 0.930 . S
H3468 C3476 0.930 . S
H3469 C3477 0.930 . S
H3470 C3501 0.929 . S
H3471 C3459 0.930 . S
H3472 C3460 0.929 . S
H3473 C3502 0.930 . S
H3474 C3483 0.930 . S
N3475 Gd3444 2.661 . S
N3475 C3479 1.350 . S
N3475 C3480 1.307 . S
C3476 H3468 0.930 . S
C3476 C3477 1.355 . S
C3476 C3478 1.412 . S
C3477 H3469 0.930 . S
C3477 C3476 1.355 . S
C3477 C3480 1.402 . S
C3478 C3476 1.412 . S
C3478 C3479 1.417 . S
C3478 C3502 1.431 . S
C3479 N3475 1.350 . S
C3479 C3478 1.417 . S
C3479 C3482 1.426 . S
C3480 H3463 0.930 . S
C3480 N3475 1.307 . S
C3480 C3477 1.402 . S
N3481 Gd3444 2.601 . S
N3481 C3482 1.359 . S
N3481 C3485 1.334 . S
C3482 C3479 1.426 . S
C3482 N3481 1.359 . S
C3482 C3486 1.413 . S
C3483 H3474 0.930 . S
C3483 C3484 1.359 . S
C3483 C3485 1.394 . S
C3484 C3483 1.359 . S
C3484 C3486 1.391 . S
C3484 H3487 0.929 . S
C3485 H3467 0.930 . S
C3485 N3481 1.334 . S
C3485 C3483 1.394 . S
C3486 C3482 1.413 . S
C3486 C3484 1.391 . S
C3486 C3501 1.437 . S
H3487 C3484 0.929 . S
O3488 Gd3444 2.545 . S
O3488 C3503 1.258 . S
O3489 Gd3444 2.606 . S
O3489 Gd3445 2.362 . S
O3489 C3500 1.284 . S
O3490 Gd3445 2.324 . S
O3490 C3510 1.254 . S
O3491 Gd3444 2.429 . S
O3491 C3510 1.268 . S
O3492 Gd3444 2.545 . S
O3492 C3500 1.250 . S
O3493 Gd3444 2.412 . S
O3493 C3503 1.252 . S
O3494 Gd3445 2.545 . S
O3494 C3512 1.258 . S
O3495 Gd3444 2.362 . S
O3495 Gd3445 2.606 . S
O3495 C3511 1.284 . S
O3496 Gd3444 2.324 . S
O3496 C3519 1.254 . S
O3497 Gd3445 2.429 . S
O3497 C3519 1.268 . S
O3498 Gd3445 2.545 . S
O3498 C3511 1.250 . S
O3499 Gd3445 2.412 . S
O3499 C3512 1.252 . S
C3500 O3489 1.284 . S
C3500 O3492 1.250 . S
C3501 H3470 0.929 . S
C3501 C3486 1.437 . S
C3501 C3502 1.317 . S
C3502 H3473 0.930 . S
C3502 C3478 1.431 . S
C3502 C3501 1.317 . S
C3503 Gd3444 2.828 . S
C3503 O3488 1.258 . S
C3503 O3493 1.252 . S
C3503 C3504 1.497 . S
C3504 C3503 1.497 . S
C3504 C3505 1.395 . S
C3504 C3506 1.380 . S
C3505 C3504 1.395 . S
C3505 C3508 1.398 . S
C3505 H3520 0.930 . S
C3506 C3504 1.380 . S
C3506 C3507 1.391 . S
C3506 H3521 0.930 . S
C3507 C3506 1.391 . S
C3507 C3509 1.387 . S
C3508 C3505 1.398 . S
C3508 C3509 1.380 . S
C3508 H3522 0.930 . S
C3509 C3507 1.387 . S
C3509 C3508 1.380 . S
C3509 H3523 0.930 . S
C3510 O3490 1.254 . S
C3510 O3491 1.268 . S
C3511 O3495 1.284 . S
C3511 O3498 1.250 . S
C3512 Gd3445 2.828 . S
C3512 O3494 1.258 . S
C3512 O3499 1.252 . S
C3512 C3513 1.497 . S
C3513 C3512 1.497 . S
C3513 C3514 1.395 . S
C3513 C3515 1.380 . S
C3514 C3513 1.395 . S
C3514 C3517 1.398 . S
C3514 H3524 0.930 . S
C3515 C3513 1.380 . S
C3515 C3516 1.391 . S
C3515 H3525 0.930 . S
C3516 C3515 1.391 . S
C3516 C3518 1.387 . S
C3517 C3514 1.398 . S
C3517 C3518 1.380 . S
C3517 H3526 0.930 . S
C3518 C3516 1.387 . S
C3518 C3517 1.380 . S
C3518 H3527 0.930 . S
C3519 O3496 1.254 . S
C3519 O3497 1.268 . S
H3520 C3505 0.930 . S
H3521 C3506 0.930 . S
H3522 C3508 0.930 . S
H3523 C3509 0.930 . S
H3524 C3514 0.930 . S
H3525 C3515 0.930 . S
H3526 C3517 0.930 . S
H3527 C3518 0.930 . S
Gd3528 N3559 2.661 . S
Gd3528 N3565 2.601 . S
Gd3528 O3572 2.545 . S
Gd3528 O3573 2.606 . S
Gd3528 O3575 2.429 . S
Gd3528 O3576 2.545 . S
Gd3528 O3577 2.412 . S
Gd3528 O3579 2.362 . S
Gd3528 O3580 2.324 . S
Gd3528 C3587 2.828 . S
Gd3529 N3538 2.661 . S
Gd3529 N3542 2.601 1_554 S
Gd3529 O3573 2.362 . S
Gd3529 O3574 2.324 . S
Gd3529 O3578 2.545 1_554 S
Gd3529 O3579 2.606 . S
Gd3529 O3581 2.429 . S
Gd3529 O3582 2.545 1_554 S
Gd3529 O3583 2.412 1_554 S
Gd3529 C3596 2.828 1_554 S
C3530 C3533 1.417 . S
C3530 C3535 1.431 . S
C3530 C3536 1.412 . S
C3531 C3534 1.433 1_554 S
C3531 C3535 1.317 . S
C3531 H3550 0.929 . S
C3532 C3533 1.426 . S
C3532 C3534 1.411 1_554 S
C3532 N3542 1.359 1_554 S
C3533 C3530 1.417 . S
C3533 C3532 1.426 . S
C3533 N3538 1.350 . S
C3534 C3531 1.433 1_556 S
C3534 C3532 1.411 1_556 S
C3534 C3544 1.397 . S
C3535 C3530 1.431 . S
C3535 C3531 1.317 . S
C3535 H3546 0.930 . S
C3536 C3530 1.412 . S
C3536 C3537 1.355 . S
C3536 H3548 0.930 . S
C3537 C3536 1.355 . S
C3537 C3539 1.402 . S
C3537 H3549 0.930 . S
N3538 Gd3529 2.661 . S
N3538 C3533 1.350 . S
N3538 C3539 1.307 . S
C3539 C3537 1.402 . S
C3539 N3538 1.307 . S
C3539 H3540 0.930 . S
H3540 C3539 0.930 . S
C3541 N3542 1.334 . S
C3541 C3543 1.394 . S
C3541 H3545 0.930 . S
N3542 Gd3529 2.601 1_556 S
N3542 C3532 1.359 1_556 S
N3542 C3541 1.334 . S
C3543 C3541 1.394 . S
C3543 C3544 1.359 . S
C3543 H3555 0.930 . S
C3544 C3534 1.397 . S
C3544 C3543 1.359 . S
C3544 H3556 0.929 . S
H3545 C3541 0.930 . S
H3546 C3535 0.930 . S
H3547 C3564 0.930 . S
H3548 C3536 0.930 . S
H3549 C3537 0.930 . S
H3550 C3531 0.929 . S
H3551 C3569 0.930 . S
H3552 C3560 0.930 . S
H3553 C3561 0.930 1_556 S
H3554 C3585 0.929 . S
H3555 C3543 0.930 . S
H3556 C3544 0.929 . S
H3557 C3586 0.930 . S
H3558 C3567 0.930 . S
N3559 Gd3528 2.661 . S
N3559 C3563 1.350 . S
N3559 C3564 1.307 . S
C3560 H3552 0.930 . S
C3560 C3561 1.355 . S
C3560 C3562 1.412 . S
C3561 H3553 0.930 1_554 S
C3561 C3560 1.355 . S
C3561 C3564 1.402 . S
C3562 C3560 1.412 . S
C3562 C3563 1.417 . S
C3562 C3586 1.431 . S
C3563 N3559 1.350 . S
C3563 C3562 1.417 . S
C3563 C3566 1.426 . S
C3564 H3547 0.930 . S
C3564 N3559 1.307 . S
C3564 C3561 1.402 . S
N3565 Gd3528 2.601 . S
N3565 C3566 1.359 . S
N3565 C3569 1.334 . S
C3566 C3563 1.426 . S
C3566 N3565 1.359 . S
C3566 C3570 1.413 . S
C3567 H3558 0.930 . S
C3567 C3568 1.359 . S
C3567 C3569 1.394 . S
C3568 C3567 1.359 . S
C3568 C3570 1.391 . S
C3568 H3571 0.929 . S
C3569 H3551 0.930 . S
C3569 N3565 1.334 . S
C3569 C3567 1.394 . S
C3570 C3566 1.413 . S
C3570 C3568 1.391 . S
C3570 C3585 1.437 . S
H3571 C3568 0.929 . S
O3572 Gd3528 2.545 . S
O3572 C3587 1.258 . S
O3573 Gd3528 2.606 . S
O3573 Gd3529 2.362 . S
O3573 C3584 1.284 . S
O3574 Gd3529 2.324 . S
O3574 C3594 1.254 . S
O3575 Gd3528 2.429 . S
O3575 C3594 1.268 . S
O3576 Gd3528 2.545 . S
O3576 C3584 1.250 . S
O3577 Gd3528 2.412 . S
O3577 C3587 1.252 . S
O3578 Gd3529 2.545 1_556 S
O3578 C3596 1.258 . S
O3579 Gd3528 2.362 . S
O3579 Gd3529 2.606 . S
O3579 C3595 1.284 . S
O3580 Gd3528 2.324 . S
O3580 C3603 1.254 . S
O3581 Gd3529 2.429 . S
O3581 C3603 1.268 . S
O3582 Gd3529 2.545 1_556 S
O3582 C3595 1.250 1_556 S
O3583 Gd3529 2.412 1_556 S
O3583 C3596 1.252 . S
C3584 O3573 1.284 . S
C3584 O3576 1.250 . S
C3585 H3554 0.929 . S
C3585 C3570 1.437 . S
C3585 C3586 1.317 . S
C3586 H3557 0.930 . S
C3586 C3562 1.431 . S
C3586 C3585 1.317 . S
C3587 Gd3528 2.828 . S
C3587 O3572 1.258 . S
C3587 O3577 1.252 . S
C3587 C3588 1.497 . S
C3588 C3587 1.497 . S
C3588 C3589 1.395 . S
C3588 C3590 1.380 . S
C3589 C3588 1.395 . S
C3589 C3592 1.398 . S
C3589 H3604 0.930 . S
C3590 C3588 1.380 . S
C3590 C3591 1.391 . S
C3590 H3605 0.930 . S
C3591 C3590 1.391 . S
C3591 C3593 1.387 . S
C3592 C3589 1.398 . S
C3592 C3593 1.380 . S
C3592 H3606 0.930 . S
C3593 C3591 1.387 . S
C3593 C3592 1.380 . S
C3593 H3607 0.930 . S
C3594 O3574 1.254 . S
C3594 O3575 1.268 . S
C3595 O3579 1.284 . S
C3595 O3582 1.250 1_554 S
C3596 Gd3529 2.828 1_556 S
C3596 O3578 1.258 . S
C3596 O3583 1.252 . S
C3596 C3597 1.497 . S
C3597 C3596 1.497 . S
C3597 C3598 1.395 . S
C3597 C3599 1.380 . S
C3598 C3597 1.395 . S
C3598 C3601 1.398 . S
C3598 H3608 0.930 . S
C3599 C3597 1.380 . S
C3599 C3600 1.391 . S
C3599 H3609 0.930 . S
C3600 C3599 1.391 . S
C3600 C3602 1.387 . S
C3601 C3598 1.398 . S
C3601 C3602 1.380 . S
C3601 H3610 0.930 . S
C3602 C3600 1.387 . S
C3602 C3601 1.380 . S
C3602 H3611 0.930 . S
C3603 O3580 1.254 . S
C3603 O3581 1.268 . S
H3604 C3589 0.930 . S
H3605 C3590 0.930 . S
H3606 C3592 0.930 . S
H3607 C3593 0.930 . S
H3608 C3598 0.930 . S
H3609 C3599 0.930 . S
H3610 C3601 0.930 . S
H3611 C3602 0.930 . S
Gd3612 N3643 2.661 . S
Gd3612 N3649 2.601 . S
Gd3612 O3656 2.545 . S
Gd3612 O3657 2.606 . S
Gd3612 O3659 2.429 . S
Gd3612 O3660 2.545 . S
Gd3612 O3661 2.412 . S
Gd3612 O3663 2.362 . S
Gd3612 O3664 2.324 . S
Gd3612 C3671 2.828 . S
Gd3613 N3622 2.661 . S
Gd3613 N3626 2.601 . S
Gd3613 O3657 2.362 . S
Gd3613 O3658 2.324 . S
Gd3613 O3662 2.545 . S
Gd3613 O3663 2.606 . S
Gd3613 O3665 2.429 . S
Gd3613 O3666 2.545 . S
Gd3613 O3667 2.412 . S
Gd3613 C3680 2.828 . S
C3614 C3617 1.417 . S
C3614 C3619 1.431 . S
C3614 C3620 1.412 . S
C3615 C3618 1.437 . S
C3615 C3619 1.317 . S
C3615 H3634 0.929 . S
C3616 C3617 1.426 . S
C3616 C3618 1.413 . S
C3616 N3626 1.359 . S
C3617 C3614 1.417 . S
C3617 C3616 1.426 . S
C3617 N3622 1.350 . S
C3618 C3615 1.437 . S
C3618 C3616 1.413 . S
C3618 C3628 1.391 . S
C3619 C3614 1.431 . S
C3619 C3615 1.317 . S
C3619 H3630 0.930 . S
C3620 C3614 1.412 . S
C3620 C3621 1.355 . S
C3620 H3632 0.930 . S
C3621 C3620 1.355 . S
C3621 C3623 1.402 . S
C3621 H3633 0.930 . S
N3622 Gd3613 2.661 . S
N3622 C3617 1.350 . S
N3622 C3623 1.307 . S
C3623 C3621 1.402 . S
C3623 N3622 1.307 . S
C3623 H3624 0.930 . S
H3624 C3623 0.930 . S
C3625 N3626 1.334 . S
C3625 C3627 1.394 . S
C3625 H3629 0.930 . S
N3626 Gd3613 2.601 . S
N3626 C3616 1.359 . S
N3626 C3625 1.334 . S
C3627 C3625 1.394 . S
C3627 C3628 1.359 . S
C3627 H3639 0.930 . S
C3628 C3618 1.391 . S
C3628 C3627 1.359 . S
C3628 H3640 0.929 . S
H3629 C3625 0.930 . S
H3630 C3619 0.930 . S
H3631 C3648 0.930 . S
H3632 C3620 0.930 . S
H3633 C3621 0.930 . S
H3634 C3615 0.929 . S
H3635 C3653 0.930 . S
H3636 C3644 0.930 . S
H3637 C3645 0.930 . S
H3638 C3669 0.929 . S
H3639 C3627 0.930 . S
H3640 C3628 0.929 . S
H3641 C3670 0.930 . S
H3642 C3651 0.930 . S
N3643 Gd3612 2.661 . S
N3643 C3647 1.350 . S
N3643 C3648 1.307 . S
C3644 H3636 0.930 . S
C3644 C3645 1.355 . S
C3644 C3646 1.412 . S
C3645 H3637 0.930 . S
C3645 C3644 1.355 . S
C3645 C3648 1.402 . S
C3646 C3644 1.412 . S
C3646 C3647 1.417 . S
C3646 C3670 1.431 . S
C3647 N3643 1.350 . S
C3647 C3646 1.417 . S
C3647 C3650 1.426 . S
C3648 H3631 0.930 . S
C3648 N3643 1.307 . S
C3648 C3645 1.402 . S
N3649 Gd3612 2.601 . S
N3649 C3650 1.359 . S
N3649 C3653 1.334 . S
C3650 C3647 1.426 . S
C3650 N3649 1.359 . S
C3650 C3654 1.413 . S
C3651 H3642 0.930 . S
C3651 C3652 1.359 . S
C3651 C3653 1.394 . S
C3652 C3651 1.359 . S
C3652 C3654 1.391 . S
C3652 H3655 0.929 . S
C3653 H3635 0.930 . S
C3653 N3649 1.334 . S
C3653 C3651 1.394 . S
C3654 C3650 1.413 . S
C3654 C3652 1.391 . S
C3654 C3669 1.437 . S
H3655 C3652 0.929 . S
O3656 Gd3612 2.545 . S
O3656 C3671 1.258 . S
O3657 Gd3612 2.606 . S
O3657 Gd3613 2.362 . S
O3657 C3668 1.284 . S
O3658 Gd3613 2.324 . S
O3658 C3678 1.254 . S
O3659 Gd3612 2.429 . S
O3659 C3678 1.268 . S
O3660 Gd3612 2.545 . S
O3660 C3668 1.250 . S
O3661 Gd3612 2.412 . S
O3661 C3671 1.252 . S
O3662 Gd3613 2.545 . S
O3662 C3680 1.258 . S
O3663 Gd3612 2.362 . S
O3663 Gd3613 2.606 . S
O3663 C3679 1.284 . S
O3664 Gd3612 2.324 . S
O3664 C3687 1.254 . S
O3665 Gd3613 2.429 . S
O3665 C3687 1.268 . S
O3666 Gd3613 2.545 . S
O3666 C3679 1.250 . S
O3667 Gd3613 2.412 . S
O3667 C3680 1.252 . S
C3668 O3657 1.284 . S
C3668 O3660 1.250 . S
C3669 H3638 0.929 . S
C3669 C3654 1.437 . S
C3669 C3670 1.317 . S
C3670 H3641 0.930 . S
C3670 C3646 1.431 . S
C3670 C3669 1.317 . S
C3671 Gd3612 2.828 . S
C3671 O3656 1.258 . S
C3671 O3661 1.252 . S
C3671 C3672 1.497 . S
C3672 C3671 1.497 . S
C3672 C3673 1.395 . S
C3672 C3674 1.380 . S
C3673 C3672 1.395 . S
C3673 C3676 1.398 . S
C3673 H3688 0.930 . S
C3674 C3672 1.380 . S
C3674 C3675 1.391 . S
C3674 H3689 0.930 . S
C3675 C3674 1.391 . S
C3675 C3677 1.387 . S
C3676 C3673 1.398 . S
C3676 C3677 1.380 . S
C3676 H3690 0.930 . S
C3677 C3675 1.387 . S
C3677 C3676 1.380 . S
C3677 H3691 0.930 . S
C3678 O3658 1.254 . S
C3678 O3659 1.268 . S
C3679 O3663 1.284 . S
C3679 O3666 1.250 . S
C3680 Gd3613 2.828 . S
C3680 O3662 1.258 . S
C3680 O3667 1.252 . S
C3680 C3681 1.497 . S
C3681 C3680 1.497 . S
C3681 C3682 1.395 . S
C3681 C3683 1.380 . S
C3682 C3681 1.395 . S
C3682 C3685 1.398 . S
C3682 H3692 0.930 . S
C3683 C3681 1.380 . S
C3683 C3684 1.391 . S
C3683 H3693 0.930 . S
C3684 C3683 1.391 . S
C3684 C3686 1.387 . S
C3685 C3682 1.398 . S
C3685 C3686 1.380 . S
C3685 H3694 0.930 . S
C3686 C3684 1.387 . S
C3686 C3685 1.380 . S
C3686 H3695 0.930 . S
C3687 O3664 1.254 . S
C3687 O3665 1.268 . S
H3688 C3673 0.930 . S
H3689 C3674 0.930 . S
H3690 C3676 0.930 . S
H3691 C3677 0.930 . S
H3692 C3682 0.930 . S
H3693 C3683 0.930 . S
H3694 C3685 0.930 . S
H3695 C3686 0.930 . S
Gd3696 N3727 2.661 . S
Gd3696 N3733 2.601 . S
Gd3696 O3740 2.545 . S
Gd3696 O3741 2.606 . S
Gd3696 O3743 2.429 . S
Gd3696 O3744 2.545 . S
Gd3696 O3745 2.412 . S
Gd3696 O3747 2.362 . S
Gd3696 O3748 2.324 . S
Gd3696 C3755 2.828 . S
Gd3697 N3706 2.661 . S
Gd3697 N3710 2.601 . S
Gd3697 O3741 2.362 . S
Gd3697 O3742 2.324 . S
Gd3697 O3746 2.545 . S
Gd3697 O3747 2.606 . S
Gd3697 O3749 2.429 . S
Gd3697 O3750 2.545 . S
Gd3697 O3751 2.412 . S
Gd3697 C3764 2.828 . S
C3698 C3701 1.417 . S
C3698 C3703 1.431 . S
C3698 C3704 1.412 . S
C3699 C3702 1.437 . S
C3699 C3703 1.317 . S
C3699 H3718 0.929 . S
C3700 C3701 1.426 . S
C3700 C3702 1.413 . S
C3700 N3710 1.359 . S
C3701 C3698 1.417 . S
C3701 C3700 1.426 . S
C3701 N3706 1.350 . S
C3702 C3699 1.437 . S
C3702 C3700 1.413 . S
C3702 C3712 1.391 . S
C3703 C3698 1.431 . S
C3703 C3699 1.317 . S
C3703 H3714 0.930 . S
C3704 C3698 1.412 . S
C3704 C3705 1.355 . S
C3704 H3716 0.930 . S
C3705 C3704 1.355 . S
C3705 C3707 1.402 . S
C3705 H3717 0.930 . S
N3706 Gd3697 2.661 . S
N3706 C3701 1.350 . S
N3706 C3707 1.307 . S
C3707 C3705 1.402 . S
C3707 N3706 1.307 . S
C3707 H3708 0.930 . S
H3708 C3707 0.930 . S
C3709 N3710 1.334 . S
C3709 C3711 1.394 . S
C3709 H3713 0.930 . S
N3710 Gd3697 2.601 . S
N3710 C3700 1.359 . S
N3710 C3709 1.334 . S
C3711 C3709 1.394 . S
C3711 C3712 1.359 . S
C3711 H3723 0.930 . S
C3712 C3702 1.391 . S
C3712 C3711 1.359 . S
C3712 H3724 0.929 . S
H3713 C3709 0.930 . S
H3714 C3703 0.930 . S
H3715 C3732 0.930 . S
H3716 C3704 0.930 . S
H3717 C3705 0.930 . S
H3718 C3699 0.929 . S
H3719 C3737 0.930 . S
H3720 C3728 0.930 . S
H3721 C3729 0.930 . S
H3722 C3753 0.929 . S
H3723 C3711 0.930 . S
H3724 C3712 0.929 . S
H3725 C3754 0.930 . S
H3726 C3735 0.930 . S
N3727 Gd3696 2.661 . S
N3727 C3731 1.350 . S
N3727 C3732 1.307 . S
C3728 H3720 0.930 . S
C3728 C3729 1.355 . S
C3728 C3730 1.412 . S
C3729 H3721 0.930 . S
C3729 C3728 1.355 . S
C3729 C3732 1.402 . S
C3730 C3728 1.412 . S
C3730 C3731 1.417 . S
C3730 C3754 1.431 . S
C3731 N3727 1.350 . S
C3731 C3730 1.417 . S
C3731 C3734 1.426 . S
C3732 H3715 0.930 . S
C3732 N3727 1.307 . S
C3732 C3729 1.402 . S
N3733 Gd3696 2.601 . S
N3733 C3734 1.359 . S
N3733 C3737 1.334 . S
C3734 C3731 1.426 . S
C3734 N3733 1.359 . S
C3734 C3738 1.413 . S
C3735 H3726 0.930 . S
C3735 C3736 1.359 . S
C3735 C3737 1.394 . S
C3736 C3735 1.359 . S
C3736 C3738 1.391 . S
C3736 H3739 0.929 . S
C3737 H3719 0.930 . S
C3737 N3733 1.334 . S
C3737 C3735 1.394 . S
C3738 C3734 1.413 . S
C3738 C3736 1.391 . S
C3738 C3753 1.437 . S
H3739 C3736 0.929 . S
O3740 Gd3696 2.545 . S
O3740 C3755 1.258 . S
O3741 Gd3696 2.606 . S
O3741 Gd3697 2.362 . S
O3741 C3752 1.284 . S
O3742 Gd3697 2.324 . S
O3742 C3762 1.254 . S
O3743 Gd3696 2.429 . S
O3743 C3762 1.268 . S
O3744 Gd3696 2.545 . S
O3744 C3752 1.250 . S
O3745 Gd3696 2.412 . S
O3745 C3755 1.252 . S
O3746 Gd3697 2.545 . S
O3746 C3764 1.258 . S
O3747 Gd3696 2.362 . S
O3747 Gd3697 2.606 . S
O3747 C3763 1.284 . S
O3748 Gd3696 2.324 . S
O3748 C3771 1.254 . S
O3749 Gd3697 2.429 . S
O3749 C3771 1.268 . S
O3750 Gd3697 2.545 . S
O3750 C3763 1.250 . S
O3751 Gd3697 2.412 . S
O3751 C3764 1.252 . S
C3752 O3741 1.284 . S
C3752 O3744 1.250 . S
C3753 H3722 0.929 . S
C3753 C3738 1.437 . S
C3753 C3754 1.317 . S
C3754 H3725 0.930 . S
C3754 C3730 1.431 . S
C3754 C3753 1.317 . S
C3755 Gd3696 2.828 . S
C3755 O3740 1.258 . S
C3755 O3745 1.252 . S
C3755 C3756 1.497 . S
C3756 C3755 1.497 . S
C3756 C3757 1.395 . S
C3756 C3758 1.380 . S
C3757 C3756 1.395 . S
C3757 C3760 1.398 . S
C3757 H3772 0.930 . S
C3758 C3756 1.380 . S
C3758 C3759 1.391 . S
C3758 H3773 0.930 . S
C3759 C3758 1.391 . S
C3759 C3761 1.387 . S
C3760 C3757 1.398 . S
C3760 C3761 1.380 . S
C3760 H3774 0.930 . S
C3761 C3759 1.387 . S
C3761 C3760 1.380 . S
C3761 H3775 0.930 . S
C3762 O3742 1.254 . S
C3762 O3743 1.268 . S
C3763 O3747 1.284 . S
C3763 O3750 1.250 . S
C3764 Gd3697 2.828 . S
C3764 O3746 1.258 . S
C3764 O3751 1.252 . S
C3764 C3765 1.497 . S
C3765 C3764 1.497 . S
C3765 C3766 1.395 . S
C3765 C3767 1.380 . S
C3766 C3765 1.395 . S
C3766 C3769 1.398 . S
C3766 H3776 0.930 . S
C3767 C3765 1.380 . S
C3767 C3768 1.391 . S
C3767 H3777 0.930 . S
C3768 C3767 1.391 . S
C3768 C3770 1.387 . S
C3769 C3766 1.398 . S
C3769 C3770 1.380 . S
C3769 H3778 0.930 . S
C3770 C3768 1.387 . S
C3770 C3769 1.380 . S
C3770 H3779 0.930 . S
C3771 O3748 1.254 . S
C3771 O3749 1.268 . S
H3772 C3757 0.930 . S
H3773 C3758 0.930 . S
H3774 C3760 0.930 . S
H3775 C3761 0.930 . S
H3776 C3766 0.930 . S
H3777 C3767 0.930 . S
H3778 C3769 0.930 . S
H3779 C3770 0.930 . S
Gd3780 N3811 2.661 . S
Gd3780 N3817 2.601 . S
Gd3780 O3824 2.545 . S
Gd3780 O3825 2.606 . S
Gd3780 O3827 2.429 . S
Gd3780 O3828 2.545 . S
Gd3780 O3829 2.412 . S
Gd3780 O3831 2.362 . S
Gd3780 O3832 2.324 . S
Gd3780 C3839 2.828 . S
Gd3781 N3790 2.661 . S
Gd3781 N3794 2.601 . S
Gd3781 O3825 2.362 . S
Gd3781 O3826 2.324 . S
Gd3781 O3830 2.545 . S
Gd3781 O3831 2.606 . S
Gd3781 O3833 2.429 . S
Gd3781 O3834 2.545 . S
Gd3781 O3835 2.412 . S
Gd3781 C3848 2.828 . S
C3782 C3785 1.417 . S
C3782 C3787 1.431 . S
C3782 C3788 1.412 . S
C3783 C3786 1.437 . S
C3783 C3787 1.317 . S
C3783 H3802 0.929 . S
C3784 C3785 1.426 . S
C3784 C3786 1.413 . S
C3784 N3794 1.359 . S
C3785 C3782 1.417 . S
C3785 C3784 1.426 . S
C3785 N3790 1.350 . S
C3786 C3783 1.437 . S
C3786 C3784 1.413 . S
C3786 C3796 1.391 . S
C3787 C3782 1.431 . S
C3787 C3783 1.317 . S
C3787 H3798 0.930 . S
C3788 C3782 1.412 . S
C3788 C3789 1.355 . S
C3788 H3800 0.930 . S
C3789 C3788 1.355 . S
C3789 C3791 1.402 . S
C3789 H3801 0.930 . S
N3790 Gd3781 2.661 . S
N3790 C3785 1.350 . S
N3790 C3791 1.307 . S
C3791 C3789 1.402 . S
C3791 N3790 1.307 . S
C3791 H3792 0.930 . S
H3792 C3791 0.930 . S
C3793 N3794 1.334 . S
C3793 C3795 1.394 . S
C3793 H3797 0.930 . S
N3794 Gd3781 2.601 . S
N3794 C3784 1.359 . S
N3794 C3793 1.334 . S
C3795 C3793 1.394 . S
C3795 C3796 1.359 . S
C3795 H3807 0.930 . S
C3796 C3786 1.391 . S
C3796 C3795 1.359 . S
C3796 H3808 0.929 . S
H3797 C3793 0.930 . S
H3798 C3787 0.930 . S
H3799 C3816 0.930 . S
H3800 C3788 0.930 . S
H3801 C3789 0.930 . S
H3802 C3783 0.929 . S
H3803 C3821 0.930 . S
H3804 C3812 0.930 . S
H3805 C3813 0.930 . S
H3806 C3837 0.929 . S
H3807 C3795 0.930 . S
H3808 C3796 0.929 . S
H3809 C3838 0.930 . S
H3810 C3819 0.930 . S
N3811 Gd3780 2.661 . S
N3811 C3815 1.350 . S
N3811 C3816 1.307 . S
C3812 H3804 0.930 . S
C3812 C3813 1.355 . S
C3812 C3814 1.412 . S
C3813 H3805 0.930 . S
C3813 C3812 1.355 . S
C3813 C3816 1.402 . S
C3814 C3812 1.412 . S
C3814 C3815 1.417 . S
C3814 C3838 1.431 . S
C3815 N3811 1.350 . S
C3815 C3814 1.417 . S
C3815 C3818 1.426 . S
C3816 H3799 0.930 . S
C3816 N3811 1.307 . S
C3816 C3813 1.402 . S
N3817 Gd3780 2.601 . S
N3817 C3818 1.359 . S
N3817 C3821 1.334 . S
C3818 C3815 1.426 . S
C3818 N3817 1.359 . S
C3818 C3822 1.413 . S
C3819 H3810 0.930 . S
C3819 C3820 1.359 . S
C3819 C3821 1.394 . S
C3820 C3819 1.359 . S
C3820 C3822 1.391 . S
C3820 H3823 0.929 . S
C3821 H3803 0.930 . S
C3821 N3817 1.334 . S
C3821 C3819 1.394 . S
C3822 C3818 1.413 . S
C3822 C3820 1.391 . S
C3822 C3837 1.437 . S
H3823 C3820 0.929 . S
O3824 Gd3780 2.545 . S
O3824 C3839 1.258 . S
O3825 Gd3780 2.606 . S
O3825 Gd3781 2.362 . S
O3825 C3836 1.284 . S
O3826 Gd3781 2.324 . S
O3826 C3846 1.254 . S
O3827 Gd3780 2.429 . S
O3827 C3846 1.268 . S
O3828 Gd3780 2.545 . S
O3828 C3836 1.250 . S
O3829 Gd3780 2.412 . S
O3829 C3839 1.252 . S
O3830 Gd3781 2.545 . S
O3830 C3848 1.258 . S
O3831 Gd3780 2.362 . S
O3831 Gd3781 2.606 . S
O3831 C3847 1.284 . S
O3832 Gd3780 2.324 . S
O3832 C3855 1.254 . S
O3833 Gd3781 2.429 . S
O3833 C3855 1.268 . S
O3834 Gd3781 2.545 . S
O3834 C3847 1.250 . S
O3835 Gd3781 2.412 . S
O3835 C3848 1.252 . S
C3836 O3825 1.284 . S
C3836 O3828 1.250 . S
C3837 H3806 0.929 . S
C3837 C3822 1.437 . S
C3837 C3838 1.317 . S
C3838 H3809 0.930 . S
C3838 C3814 1.431 . S
C3838 C3837 1.317 . S
C3839 Gd3780 2.828 . S
C3839 O3824 1.258 . S
C3839 O3829 1.252 . S
C3839 C3840 1.497 . S
C3840 C3839 1.497 . S
C3840 C3841 1.395 . S
C3840 C3842 1.380 . S
C3841 C3840 1.395 . S
C3841 C3844 1.398 . S
C3841 H3856 0.930 . S
C3842 C3840 1.380 . S
C3842 C3843 1.391 . S
C3842 H3857 0.930 . S
C3843 C3842 1.391 . S
C3843 C3845 1.387 . S
C3844 C3841 1.398 . S
C3844 C3845 1.380 . S
C3844 H3858 0.930 . S
C3845 C3843 1.387 . S
C3845 C3844 1.380 . S
C3845 H3859 0.930 . S
C3846 O3826 1.254 . S
C3846 O3827 1.268 . S
C3847 O3831 1.284 . S
C3847 O3834 1.250 . S
C3848 Gd3781 2.828 . S
C3848 O3830 1.258 . S
C3848 O3835 1.252 . S
C3848 C3849 1.497 . S
C3849 C3848 1.497 . S
C3849 C3850 1.395 . S
C3849 C3851 1.380 . S
C3850 C3849 1.395 . S
C3850 C3853 1.398 . S
C3850 H3860 0.930 . S
C3851 C3849 1.380 . S
C3851 C3852 1.391 . S
C3851 H3861 0.930 . S
C3852 C3851 1.391 . S
C3852 C3854 1.387 . S
C3853 C3850 1.398 . S
C3853 C3854 1.380 . S
C3853 H3862 0.930 . S
C3854 C3852 1.387 . S
C3854 C3853 1.380 . S
C3854 H3863 0.930 . S
C3855 O3832 1.254 . S
C3855 O3833 1.268 . S
H3856 C3841 0.930 . S
H3857 C3842 0.930 . S
H3858 C3844 0.930 . S
H3859 C3845 0.930 . S
H3860 C3850 0.930 . S
H3861 C3851 0.930 . S
H3862 C3853 0.930 . S
H3863 C3854 0.930 . S
Gd3864 N3895 2.661 . S
Gd3864 N3901 2.601 . S
Gd3864 O3908 2.545 . S
Gd3864 O3909 2.606 . S
Gd3864 O3911 2.429 . S
Gd3864 O3912 2.545 . S
Gd3864 O3913 2.412 . S
Gd3864 O3915 2.362 . S
Gd3864 O3916 2.324 . S
Gd3864 C3923 2.828 . S
Gd3865 N3874 2.661 . S
Gd3865 N3878 2.601 . S
Gd3865 O3909 2.362 . S
Gd3865 O3910 2.324 . S
Gd3865 O3914 2.545 . S
Gd3865 O3915 2.606 . S
Gd3865 O3917 2.429 . S
Gd3865 O3918 2.545 . S
Gd3865 O3919 2.412 . S
Gd3865 C3932 2.828 . S
C3866 C3869 1.417 . S
C3866 C3871 1.431 . S
C3866 C3872 1.412 . S
C3867 C3870 1.437 . S
C3867 C3871 1.317 . S
C3867 H3886 0.929 . S
C3868 C3869 1.426 . S
C3868 C3870 1.413 . S
C3868 N3878 1.359 . S
C3869 C3866 1.417 . S
C3869 C3868 1.426 . S
C3869 N3874 1.350 . S
C3870 C3867 1.437 . S
C3870 C3868 1.413 . S
C3870 C3880 1.391 . S
C3871 C3866 1.431 . S
C3871 C3867 1.317 . S
C3871 H3882 0.930 . S
C3872 C3866 1.412 . S
C3872 C3873 1.355 . S
C3872 H3884 0.930 . S
C3873 C3872 1.355 . S
C3873 C3875 1.402 . S
C3873 H3885 0.930 . S
N3874 Gd3865 2.661 . S
N3874 C3869 1.350 . S
N3874 C3875 1.307 . S
C3875 C3873 1.402 . S
C3875 N3874 1.307 . S
C3875 H3876 0.930 . S
H3876 C3875 0.930 . S
C3877 N3878 1.334 . S
C3877 C3879 1.394 . S
C3877 H3881 0.930 . S
N3878 Gd3865 2.601 . S
N3878 C3868 1.359 . S
N3878 C3877 1.334 . S
C3879 C3877 1.394 . S
C3879 C3880 1.359 . S
C3879 H3891 0.930 . S
C3880 C3870 1.391 . S
C3880 C3879 1.359 . S
C3880 H3892 0.929 . S
H3881 C3877 0.930 . S
H3882 C3871 0.930 . S
H3883 C3900 0.930 . S
H3884 C3872 0.930 . S
H3885 C3873 0.930 . S
H3886 C3867 0.929 . S
H3887 C3905 0.930 . S
H3888 C3896 0.930 . S
H3889 C3897 0.930 . S
H3890 C3921 0.929 . S
H3891 C3879 0.930 . S
H3892 C3880 0.929 . S
H3893 C3922 0.930 . S
H3894 C3903 0.930 . S
N3895 Gd3864 2.661 . S
N3895 C3899 1.350 . S
N3895 C3900 1.307 . S
C3896 H3888 0.930 . S
C3896 C3897 1.355 . S
C3896 C3898 1.412 . S
C3897 H3889 0.930 . S
C3897 C3896 1.355 . S
C3897 C3900 1.402 . S
C3898 C3896 1.412 . S
C3898 C3899 1.417 . S
C3898 C3922 1.431 . S
C3899 N3895 1.350 . S
C3899 C3898 1.417 . S
C3899 C3902 1.426 . S
C3900 H3883 0.930 . S
C3900 N3895 1.307 . S
C3900 C3897 1.402 . S
N3901 Gd3864 2.601 . S
N3901 C3902 1.359 . S
N3901 C3905 1.334 . S
C3902 C3899 1.426 . S
C3902 N3901 1.359 . S
C3902 C3906 1.413 . S
C3903 H3894 0.930 . S
C3903 C3904 1.359 . S
C3903 C3905 1.394 . S
C3904 C3903 1.359 . S
C3904 C3906 1.391 . S
C3904 H3907 0.929 . S
C3905 H3887 0.930 . S
C3905 N3901 1.334 . S
C3905 C3903 1.394 . S
C3906 C3902 1.413 . S
C3906 C3904 1.391 . S
C3906 C3921 1.437 . S
H3907 C3904 0.929 . S
O3908 Gd3864 2.545 . S
O3908 C3923 1.258 . S
O3909 Gd3864 2.606 . S
O3909 Gd3865 2.362 . S
O3909 C3920 1.284 . S
O3910 Gd3865 2.324 . S
O3910 C3930 1.254 . S
O3911 Gd3864 2.429 . S
O3911 C3930 1.268 . S
O3912 Gd3864 2.545 . S
O3912 C3920 1.250 . S
O3913 Gd3864 2.412 . S
O3913 C3923 1.252 . S
O3914 Gd3865 2.545 . S
O3914 C3932 1.258 . S
O3915 Gd3864 2.362 . S
O3915 Gd3865 2.606 . S
O3915 C3931 1.284 . S
O3916 Gd3864 2.324 . S
O3916 C3939 1.254 . S
O3917 Gd3865 2.429 . S
O3917 C3939 1.268 . S
O3918 Gd3865 2.545 . S
O3918 C3931 1.250 . S
O3919 Gd3865 2.412 . S
O3919 C3932 1.252 . S
C3920 O3909 1.284 . S
C3920 O3912 1.250 . S
C3921 H3890 0.929 . S
C3921 C3906 1.437 . S
C3921 C3922 1.317 . S
C3922 H3893 0.930 . S
C3922 C3898 1.431 . S
C3922 C3921 1.317 . S
C3923 Gd3864 2.828 . S
C3923 O3908 1.258 . S
C3923 O3913 1.252 . S
C3923 C3924 1.497 . S
C3924 C3923 1.497 . S
C3924 C3925 1.395 . S
C3924 C3926 1.380 . S
C3925 C3924 1.395 . S
C3925 C3928 1.398 . S
C3925 H3940 0.930 . S
C3926 C3924 1.380 . S
C3926 C3927 1.391 . S
C3926 H3941 0.930 . S
C3927 C3926 1.391 . S
C3927 C3929 1.387 . S
C3928 C3925 1.398 . S
C3928 C3929 1.380 . S
C3928 H3942 0.930 . S
C3929 C3927 1.387 . S
C3929 C3928 1.380 . S
C3929 H3943 0.930 . S
C3930 O3910 1.254 . S
C3930 O3911 1.268 . S
C3931 O3915 1.284 . S
C3931 O3918 1.250 . S
C3932 Gd3865 2.828 . S
C3932 O3914 1.258 . S
C3932 O3919 1.252 . S
C3932 C3933 1.497 . S
C3933 C3932 1.497 . S
C3933 C3934 1.395 . S
C3933 C3935 1.380 . S
C3934 C3933 1.395 . S
C3934 C3937 1.398 . S
C3934 H3944 0.930 . S
C3935 C3933 1.380 . S
C3935 C3936 1.391 . S
C3935 H3945 0.930 . S
C3936 C3935 1.391 . S
C3936 C3938 1.387 . S
C3937 C3934 1.398 . S
C3937 C3938 1.380 . S
C3937 H3946 0.930 . S
C3938 C3936 1.387 . S
C3938 C3937 1.380 . S
C3938 H3947 0.930 . S
C3939 O3916 1.254 . S
C3939 O3917 1.268 . S
H3940 C3925 0.930 . S
H3941 C3926 0.930 . S
H3942 C3928 0.930 . S
H3943 C3929 0.930 . S
H3944 C3934 0.930 . S
H3945 C3935 0.930 . S
H3946 C3937 0.930 . S
H3947 C3938 0.930 . S
Gd3948 N3979 2.661 . S
Gd3948 N3985 2.601 . S
Gd3948 O3992 2.545 . S
Gd3948 O3993 2.606 . S
Gd3948 O3995 2.429 . S
Gd3948 O3996 2.545 . S
Gd3948 O3997 2.412 . S
Gd3948 O3999 2.362 . S
Gd3948 O4000 2.324 . S
Gd3948 C4007 2.828 . S
Gd3949 N3958 2.661 . S
Gd3949 N3962 2.601 . S
Gd3949 O3993 2.362 . S
Gd3949 O3994 2.324 . S
Gd3949 O3998 2.545 . S
Gd3949 O3999 2.606 . S
Gd3949 O4001 2.429 . S
Gd3949 O4002 2.545 . S
Gd3949 O4003 2.412 . S
Gd3949 C4016 2.828 . S
C3950 C3953 1.417 . S
C3950 C3955 1.431 . S
C3950 C3956 1.412 . S
C3951 C3954 1.437 . S
C3951 C3955 1.317 . S
C3951 H3970 0.929 . S
C3952 C3953 1.426 . S
C3952 C3954 1.413 . S
C3952 N3962 1.359 . S
C3953 C3950 1.417 . S
C3953 C3952 1.426 . S
C3953 N3958 1.350 . S
C3954 C3951 1.437 . S
C3954 C3952 1.413 . S
C3954 C3964 1.391 . S
C3955 C3950 1.431 . S
C3955 C3951 1.317 . S
C3955 H3966 0.930 . S
C3956 C3950 1.412 . S
C3956 C3957 1.355 . S
C3956 H3968 0.930 . S
C3957 C3956 1.355 . S
C3957 C3959 1.402 . S
C3957 H3969 0.930 . S
N3958 Gd3949 2.661 . S
N3958 C3953 1.350 . S
N3958 C3959 1.307 . S
C3959 C3957 1.402 . S
C3959 N3958 1.307 . S
C3959 H3960 0.930 . S
H3960 C3959 0.930 . S
C3961 N3962 1.334 . S
C3961 C3963 1.394 . S
C3961 H3965 0.930 . S
N3962 Gd3949 2.601 . S
N3962 C3952 1.359 . S
N3962 C3961 1.334 . S
C3963 C3961 1.394 . S
C3963 C3964 1.359 . S
C3963 H3975 0.930 . S
C3964 C3954 1.391 . S
C3964 C3963 1.359 . S
C3964 H3976 0.929 . S
H3965 C3961 0.930 . S
H3966 C3955 0.930 . S
H3967 C3984 0.930 . S
H3968 C3956 0.930 . S
H3969 C3957 0.930 . S
H3970 C3951 0.929 . S
H3971 C3989 0.930 . S
H3972 C3980 0.930 . S
H3973 C3981 0.930 . S
H3974 C4005 0.929 . S
H3975 C3963 0.930 . S
H3976 C3964 0.929 . S
H3977 C4006 0.930 . S
H3978 C3987 0.930 . S
N3979 Gd3948 2.661 . S
N3979 C3983 1.350 . S
N3979 C3984 1.307 . S
C3980 H3972 0.930 . S
C3980 C3981 1.355 . S
C3980 C3982 1.412 . S
C3981 H3973 0.930 . S
C3981 C3980 1.355 . S
C3981 C3984 1.402 . S
C3982 C3980 1.412 . S
C3982 C3983 1.417 . S
C3982 C4006 1.431 . S
C3983 N3979 1.350 . S
C3983 C3982 1.417 . S
C3983 C3986 1.426 . S
C3984 H3967 0.930 . S
C3984 N3979 1.307 . S
C3984 C3981 1.402 . S
N3985 Gd3948 2.601 . S
N3985 C3986 1.359 . S
N3985 C3989 1.334 . S
C3986 C3983 1.426 . S
C3986 N3985 1.359 . S
C3986 C3990 1.413 . S
C3987 H3978 0.930 . S
C3987 C3988 1.359 . S
C3987 C3989 1.394 . S
C3988 C3987 1.359 . S
C3988 C3990 1.391 . S
C3988 H3991 0.929 . S
C3989 H3971 0.930 . S
C3989 N3985 1.334 . S
C3989 C3987 1.394 . S
C3990 C3986 1.413 . S
C3990 C3988 1.391 . S
C3990 C4005 1.437 . S
H3991 C3988 0.929 . S
O3992 Gd3948 2.545 . S
O3992 C4007 1.258 . S
O3993 Gd3948 2.606 . S
O3993 Gd3949 2.362 . S
O3993 C4004 1.284 . S
O3994 Gd3949 2.324 . S
O3994 C4014 1.254 . S
O3995 Gd3948 2.429 . S
O3995 C4014 1.268 . S
O3996 Gd3948 2.545 . S
O3996 C4004 1.250 . S
O3997 Gd3948 2.412 . S
O3997 C4007 1.252 . S
O3998 Gd3949 2.545 . S
O3998 C4016 1.258 . S
O3999 Gd3948 2.362 . S
O3999 Gd3949 2.606 . S
O3999 C4015 1.284 . S
O4000 Gd3948 2.324 . S
O4000 C4023 1.254 . S
O4001 Gd3949 2.429 . S
O4001 C4023 1.268 . S
O4002 Gd3949 2.545 . S
O4002 C4015 1.250 . S
O4003 Gd3949 2.412 . S
O4003 C4016 1.252 . S
C4004 O3993 1.284 . S
C4004 O3996 1.250 . S
C4005 H3974 0.929 . S
C4005 C3990 1.437 . S
C4005 C4006 1.317 . S
C4006 H3977 0.930 . S
C4006 C3982 1.431 . S
C4006 C4005 1.317 . S
C4007 Gd3948 2.828 . S
C4007 O3992 1.258 . S
C4007 O3997 1.252 . S
C4007 C4008 1.497 . S
C4008 C4007 1.497 . S
C4008 C4009 1.395 . S
C4008 C4010 1.380 . S
C4009 C4008 1.395 . S
C4009 C4012 1.398 . S
C4009 H4024 0.930 . S
C4010 C4008 1.380 . S
C4010 C4011 1.391 . S
C4010 H4025 0.930 . S
C4011 C4010 1.391 . S
C4011 C4013 1.387 . S
C4012 C4009 1.398 . S
C4012 C4013 1.380 . S
C4012 H4026 0.930 . S
C4013 C4011 1.387 . S
C4013 C4012 1.380 . S
C4013 H4027 0.930 . S
C4014 O3994 1.254 . S
C4014 O3995 1.268 . S
C4015 O3999 1.284 . S
C4015 O4002 1.250 . S
C4016 Gd3949 2.828 . S
C4016 O3998 1.258 . S
C4016 O4003 1.252 . S
C4016 C4017 1.497 . S
C4017 C4016 1.497 . S
C4017 C4018 1.395 . S
C4017 C4019 1.380 . S
C4018 C4017 1.395 . S
C4018 C4021 1.398 . S
C4018 H4028 0.930 . S
C4019 C4017 1.380 . S
C4019 C4020 1.391 . S
C4019 H4029 0.930 . S
C4020 C4019 1.391 . S
C4020 C4022 1.387 . S
C4021 C4018 1.398 . S
C4021 C4022 1.380 . S
C4021 H4030 0.930 . S
C4022 C4020 1.387 . S
C4022 C4021 1.380 . S
C4022 H4031 0.930 . S
C4023 O4000 1.254 . S
C4023 O4001 1.268 . S
H4024 C4009 0.930 . S
H4025 C4010 0.930 . S
H4026 C4012 0.930 . S
H4027 C4013 0.930 . S
H4028 C4018 0.930 . S
H4029 C4019 0.930 . S
H4030 C4021 0.930 . S
H4031 C4022 0.930 . S
H4032 C4038 0.930 1_655 S
H4033 C4042 0.930 . S
H4034 C4047 0.929 . S
H4035 C4045 0.908 1_655 S
H4036 C4040 0.929 . S
H4037 C4046 0.929 1_655 S
C4038 H4032 0.930 1_455 S
C4038 C4039 1.367 . S
C4038 C4046 1.378 . S
C4039 C4038 1.367 . S
C4039 C4047 1.433 . S
C4040 H4036 0.929 . S
C4040 C4042 1.378 . S
C4040 C4044 1.350 . S
C4041 C4044 1.463 . S
C4041 C4046 1.350 . S
C4041 N4049 1.427 . S
C4042 H4033 0.930 . S
C4042 C4040 1.378 . S
C4042 C4043 1.367 . S
C4043 C4042 1.367 . S
C4043 C4045 1.455 . S
C4044 C4040 1.350 . S
C4044 C4041 1.463 . S
C4044 N4048 1.469 . S
C4045 H4035 0.908 1_455 S
C4045 C4043 1.455 . S
C4045 N4048 1.383 . S
C4046 H4037 0.929 1_455 S
C4046 C4038 1.378 . S
C4046 C4041 1.350 . S
C4047 H4034 0.929 . S
C4047 C4039 1.433 . S
C4047 N4049 1.384 . S
N4048 C4044 1.469 . S
N4048 C4045 1.383 . S
N4049 C4041 1.427 . S
N4049 C4047 1.384 . S
H4050 C4056 0.930 . S
H4051 C4060 0.930 . S
H4052 C4065 0.929 . S
H4053 C4063 0.929 . S
H4054 C4058 0.929 . S
H4055 C4064 0.929 . S
C4056 H4050 0.930 . S
C4056 C4057 1.367 . S
C4056 C4064 1.378 . S
C4057 C4056 1.367 . S
C4057 C4065 1.433 . S
C4058 H4054 0.929 . S
C4058 C4060 1.378 . S
C4058 C4062 1.350 . S
C4059 C4062 1.463 . S
C4059 C4064 1.350 . S
C4059 N4067 1.427 . S
C4060 H4051 0.930 . S
C4060 C4058 1.378 . S
C4060 C4061 1.367 . S
C4061 C4060 1.367 . S
C4061 C4063 1.433 . S
C4062 C4058 1.350 . S
C4062 C4059 1.463 . S
C4062 N4066 1.427 . S
C4063 H4053 0.929 . S
C4063 C4061 1.433 . S
C4063 N4066 1.384 . S
C4064 H4055 0.929 . S
C4064 C4056 1.378 . S
C4064 C4059 1.350 . S
C4065 H4052 0.929 . S
C4065 C4057 1.433 . S
C4065 N4067 1.384 . S
N4066 C4062 1.427 . S
N4066 C4063 1.384 . S
N4067 C4059 1.427 . S
N4067 C4065 1.384 . S
H4068 C4074 0.930 . S
H4069 C4078 0.930 . S
H4070 C4083 0.929 . S
H4071 C4081 0.929 . S
H4072 C4076 0.929 . S
H4073 C4082 0.929 . S
C4074 H4068 0.930 . S
C4074 C4075 1.367 . S
C4074 C4082 1.378 . S
C4075 C4074 1.367 . S
C4075 C4083 1.433 . S
C4076 H4072 0.929 . S
C4076 C4078 1.378 . S
C4076 C4080 1.350 . S
C4077 C4080 1.463 . S
C4077 C4082 1.350 . S
C4077 N4085 1.427 . S
C4078 H4069 0.930 . S
C4078 C4076 1.378 . S
C4078 C4079 1.367 . S
C4079 C4078 1.367 . S
C4079 C4081 1.433 . S
C4080 C4076 1.350 . S
C4080 C4077 1.463 . S
C4080 N4084 1.427 . S
C4081 H4071 0.929 . S
C4081 C4079 1.433 . S
C4081 N4084 1.384 . S
C4082 H4073 0.929 . S
C4082 C4074 1.378 . S
C4082 C4077 1.350 . S
C4083 H4070 0.929 . S
C4083 C4075 1.433 . S
C4083 N4085 1.384 . S
N4084 C4080 1.427 . S
N4084 C4081 1.384 . S
N4085 C4077 1.427 . S
N4085 C4083 1.384 . S
H4086 C4092 0.930 . S
H4087 C4096 0.930 . S
H4088 C4101 0.929 . S
H4089 C4099 0.929 . S
H4090 C4094 0.928 . S
H4091 C4100 0.928 . S
C4092 H4086 0.930 . S
C4092 C4093 1.367 1_554 S
C4092 C4100 1.378 . S
C4093 C4092 1.367 1_556 S
C4093 C4101 1.433 . S
C4094 H4090 0.928 . S
C4094 C4096 1.378 . S
C4094 C4098 1.350 . S
C4095 C4098 1.462 . S
C4095 C4100 1.350 . S
C4095 N4103 1.427 1_554 S
C4096 H4087 0.930 . S
C4096 C4094 1.378 . S
C4096 C4097 1.367 . S
C4097 C4096 1.367 . S
C4097 C4099 1.433 . S
C4098 C4094 1.350 . S
C4098 C4095 1.462 . S
C4098 N4102 1.427 . S
C4099 H4089 0.929 . S
C4099 C4097 1.433 . S
C4099 N4102 1.384 . S
C4100 H4091 0.928 . S
C4100 C4092 1.378 . S
C4100 C4095 1.350 . S
C4101 H4088 0.929 . S
C4101 C4093 1.433 . S
C4101 N4103 1.384 . S
N4102 C4098 1.427 . S
N4102 C4099 1.384 . S
N4103 C4095 1.427 1_556 S
N4103 C4101 1.384 . S
H4104 C4110 0.930 . S
H4105 C4114 0.952 . S
H4106 C4119 0.919 1_565 S
H4107 C4117 0.929 . S
H4108 C4112 0.936 . S
H4109 C4118 0.929 . S
C4110 H4104 0.930 . S
C4110 C4111 1.367 . S
C4110 C4118 1.378 . S
C4111 C4110 1.367 . S
C4111 C4119 1.444 . S
C4112 H4108 0.936 . S
C4112 C4114 1.378 . S
C4112 C4116 1.342 1_565 S
C4113 C4116 1.463 . S
C4113 C4118 1.350 . S
C4113 N4121 1.435 . S
C4114 H4105 0.952 . S
C4114 C4112 1.378 . S
C4114 C4115 1.346 1_565 S
C4115 C4114 1.346 1_545 S
C4115 C4117 1.433 . S
C4116 C4112 1.342 1_545 S
C4116 C4113 1.463 . S
C4116 N4120 1.427 . S
C4117 H4107 0.929 . S
C4117 C4115 1.433 . S
C4117 N4120 1.384 . S
C4118 H4109 0.929 . S
C4118 C4110 1.378 . S
C4118 C4113 1.350 . S
C4119 H4106 0.919 1_545 S
C4119 C4111 1.444 . S
C4119 N4121 1.384 . S
N4120 C4116 1.427 . S
N4120 C4117 1.384 . S
N4121 C4113 1.435 . S
N4121 C4119 1.384 . S
H4122 C4128 0.930 . S
H4123 C4132 0.930 . S
H4124 C4137 0.929 . S
H4125 C4135 0.929 . S
H4126 C4130 0.929 . S
H4127 C4136 0.929 . S
C4128 H4122 0.930 . S
C4128 C4129 1.367 . S
C4128 C4136 1.378 . S
C4129 C4128 1.367 . S
C4129 C4137 1.433 1_545 S
C4130 H4126 0.929 . S
C4130 C4132 1.378 . S
C4130 C4134 1.351 . S
C4131 C4134 1.462 1_545 S
C4131 C4136 1.350 . S
C4131 N4139 1.427 1_545 S
C4132 H4123 0.930 . S
C4132 C4130 1.378 . S
C4132 C4133 1.385 . S
C4133 C4132 1.385 . S
C4133 C4135 1.414 1_565 S
C4134 C4130 1.351 . S
C4134 C4131 1.462 1_565 S
C4134 N4138 1.426 1_565 S
C4135 H4125 0.929 . S
C4135 C4133 1.414 1_545 S
C4135 N4138 1.384 . S
C4136 H4127 0.929 . S
C4136 C4128 1.378 . S
C4136 C4131 1.350 . S
C4137 H4124 0.929 . S
C4137 C4129 1.433 1_565 S
C4137 N4139 1.384 . S
N4138 C4134 1.426 1_545 S
N4138 C4135 1.384 . S
N4139 C4131 1.427 1_565 S
N4139 C4137 1.384 . S
H4140 C4146 0.930 . S
H4141 C4150 0.948 . S
H4142 C4155 0.929 . S
H4143 C4153 0.929 . S
H4144 C4148 0.961 . S
H4145 C4154 0.929 . S
C4146 H4140 0.930 . S
C4146 C4147 1.367 . S
C4146 C4154 1.378 . S
C4147 C4146 1.367 . S
C4147 C4155 1.433 1_565 S
C4148 H4144 0.961 . S
C4148 C4150 1.378 . S
C4148 C4152 1.319 1_545 S
C4149 C4152 1.463 1_554 S
C4149 C4154 1.350 . S
C4149 N4157 1.427 1_565 S
C4150 H4141 0.948 . S
C4150 C4148 1.378 . S
C4150 C4151 1.349 1_545 S
C4151 C4150 1.349 1_565 S
C4151 C4153 1.433 . S
C4152 C4148 1.319 1_565 S
C4152 C4149 1.463 1_556 S
C4152 N4156 1.427 . S
C4153 H4143 0.929 . S
C4153 C4151 1.433 . S
C4153 N4156 1.384 . S
C4154 H4145 0.929 . S
C4154 C4146 1.378 . S
C4154 C4149 1.350 . S
C4155 H4142 0.929 . S
C4155 C4147 1.433 1_545 S
C4155 N4157 1.384 . S
N4156 C4152 1.427 . S
N4156 C4153 1.384 . S
N4157 C4149 1.427 1_545 S
N4157 C4155 1.384 . S
H4158 C4164 0.930 . S
H4159 C4168 0.930 . S
H4160 C4173 0.929 . S
H4161 C4171 0.929 . S
H4162 C4166 0.929 . S
H4163 C4172 0.929 . S
C4164 H4158 0.930 . S
C4164 C4165 1.384 . S
C4164 C4172 1.378 . S
C4165 C4164 1.384 . S
C4165 C4173 1.417 1_565 S
C4166 H4162 0.929 . S
C4166 C4168 1.378 . S
C4166 C4170 1.352 . S
C4167 C4170 1.462 1_565 S
C4167 C4172 1.358 . S
C4167 N4175 1.420 1_565 S
C4168 H4159 0.930 . S
C4168 C4166 1.378 . S
C4168 C4169 1.378 . S
C4169 C4168 1.378 . S
C4169 C4171 1.422 1_545 S
C4170 C4166 1.352 . S
C4170 C4167 1.462 1_545 S
C4170 N4174 1.426 1_545 S
C4171 H4161 0.929 . S
C4171 C4169 1.422 1_565 S
C4171 N4174 1.384 . S
C4172 H4163 0.929 . S
C4172 C4164 1.378 . S
C4172 C4167 1.358 . S
C4173 H4160 0.929 . S
C4173 C4165 1.417 1_545 S
C4173 N4175 1.384 . S
N4174 C4170 1.426 1_565 S
N4174 C4171 1.384 . S
N4175 C4167 1.420 1_545 S
N4175 C4173 1.384 . S
H4176 C4182 0.930 . S
H4177 C4186 0.930 . S
H4178 C4191 0.929 . S
H4179 C4189 0.929 . S
H4180 C4184 0.929 . S
H4181 C4190 0.929 . S
C4182 H4176 0.930 . S
C4182 C4183 1.367 . S
C4182 C4190 1.378 . S
C4183 C4182 1.367 . S
C4183 C4191 1.433 1_554 S
C4184 H4180 0.929 . S
C4184 C4186 1.378 . S
C4184 C4188 1.350 1_556 S
C4185 C4188 1.463 . S
C4185 C4190 1.350 . S
C4185 N4193 1.427 1_554 S
C4186 H4177 0.930 . S
C4186 C4184 1.378 . S
C4186 C4187 1.367 1_556 S
C4187 C4186 1.367 1_554 S
C4187 C4189 1.433 . S
C4188 C4184 1.350 1_554 S
C4188 C4185 1.463 . S
C4188 N4192 1.427 . S
C4189 H4179 0.929 . S
C4189 C4187 1.433 . S
C4189 N4192 1.384 . S
C4190 H4181 0.929 . S
C4190 C4182 1.378 . S
C4190 C4185 1.350 . S
C4191 H4178 0.929 . S
C4191 C4183 1.433 1_556 S
C4191 N4193 1.384 . S
N4192 C4188 1.427 . S
N4192 C4189 1.384 . S
N4193 C4185 1.427 1_556 S
N4193 C4191 1.384 . S
H4194 C4200 0.930 . S
H4195 C4204 0.930 1_554 S
H4196 C4209 0.929 1_554 S
H4197 C4207 0.929 . S
H4198 C4202 0.929 1_554 S
H4199 C4208 0.929 . S
C4200 H4194 0.930 . S
C4200 C4201 1.367 . S
C4200 C4208 1.378 . S
C4201 C4200 1.367 . S
C4201 C4209 1.433 . S
C4202 H4198 0.929 1_556 S
C4202 C4204 1.378 . S
C4202 C4206 1.350 . S
C4203 C4206 1.463 1_655 S
C4203 C4208 1.350 . S
C4203 N4211 1.427 . S
C4204 H4195 0.930 1_556 S
C4204 C4202 1.378 . S
C4204 C4205 1.367 . S
C4205 C4204 1.367 . S
C4205 C4207 1.433 . S
C4206 C4202 1.350 . S
C4206 C4203 1.463 1_455 S
C4206 N4210 1.427 . S
C4207 H4197 0.929 . S
C4207 C4205 1.433 . S
C4207 N4210 1.384 . S
C4208 H4199 0.929 . S
C4208 C4200 1.378 . S
C4208 C4203 1.350 . S
C4209 H4196 0.929 1_556 S
C4209 C4201 1.433 . S
C4209 N4211 1.384 . S
N4210 C4206 1.427 . S
N4210 C4207 1.384 . S
N4211 C4203 1.427 . S
N4211 C4209 1.384 . S
H4212 C4218 0.930 . S
H4213 C4222 0.930 . S
H4214 C4227 0.929 . S
H4215 C4225 0.929 . S
H4216 C4220 0.929 . S
H4217 C4226 0.929 . S
C4218 H4212 0.930 . S
C4218 C4219 1.345 1_655 S
C4218 C4226 1.378 . S
C4219 C4218 1.345 1_455 S
C4219 C4227 1.455 . S
C4220 H4216 0.929 . S
C4220 C4222 1.378 . S
C4220 C4224 1.350 . S
C4221 C4224 1.463 . S
C4221 C4226 1.344 1_455 S
C4221 N4229 1.433 . S
C4222 H4213 0.930 . S
C4222 C4220 1.378 . S
C4222 C4223 1.411 . S
C4223 C4222 1.411 . S
C4223 C4225 1.389 1_455 S
C4224 C4220 1.350 . S
C4224 C4221 1.463 . S
C4224 N4228 1.427 1_455 S
C4225 H4215 0.929 . S
C4225 C4223 1.389 1_655 S
C4225 N4228 1.384 . S
C4226 H4217 0.929 . S
C4226 C4218 1.378 . S
C4226 C4221 1.344 1_655 S
C4227 H4214 0.929 . S
C4227 C4219 1.455 . S
C4227 N4229 1.384 . S
N4228 C4224 1.427 1_655 S
N4228 C4225 1.384 . S
N4229 C4221 1.433 . S
N4229 C4227 1.384 . S
H4230 C4236 0.930 . S
H4231 C4240 0.930 . S
H4232 C4245 0.929 . S
H4233 C4243 0.929 . S
H4234 C4238 0.929 . S
H4235 C4244 0.929 . S
C4236 H4230 0.930 . S
C4236 C4237 1.367 . S
C4236 C4244 1.378 . S
C4237 C4236 1.367 . S
C4237 C4245 1.433 . S
C4238 H4234 0.929 . S
C4238 C4240 1.378 . S
C4238 C4242 1.350 . S
C4239 C4242 1.463 . S
C4239 C4244 1.350 . S
C4239 N4247 1.427 . S
C4240 H4231 0.930 . S
C4240 C4238 1.378 . S
C4240 C4241 1.367 . S
C4241 C4240 1.367 . S
C4241 C4243 1.433 . S
C4242 C4238 1.350 . S
C4242 C4239 1.463 . S
C4242 N4246 1.427 . S
C4243 H4233 0.929 . S
C4243 C4241 1.433 . S
C4243 N4246 1.384 . S
C4244 H4235 0.929 . S
C4244 C4236 1.378 . S
C4244 C4239 1.350 . S
C4245 H4232 0.929 . S
C4245 C4237 1.433 . S
C4245 N4247 1.384 . S
N4246 C4242 1.427 . S
N4246 C4243 1.384 . S
N4247 C4239 1.427 . S
N4247 C4245 1.384 . S
H4248 C4254 0.930 . S
H4249 C4258 0.930 . S
H4250 C4263 0.929 . S
H4251 C4261 0.929 . S
H4252 C4256 0.929 . S
H4253 C4262 0.929 . S
C4254 H4248 0.930 . S
C4254 C4255 1.367 . S
C4254 C4262 1.378 . S
C4255 C4254 1.367 . S
C4255 C4263 1.433 . S
C4256 H4252 0.929 . S
C4256 C4258 1.378 . S
C4256 C4260 1.350 . S
C4257 C4260 1.463 1_655 S
C4257 C4262 1.350 . S
C4257 N4265 1.427 . S
C4258 H4249 0.930 . S
C4258 C4256 1.378 . S
C4258 C4259 1.367 . S
C4259 C4258 1.367 . S
C4259 C4261 1.433 . S
C4260 C4256 1.350 . S
C4260 C4257 1.463 1_455 S
C4260 N4264 1.427 . S
C4261 H4251 0.929 . S
C4261 C4259 1.433 . S
C4261 N4264 1.384 . S
C4262 H4253 0.929 . S
C4262 C4254 1.378 . S
C4262 C4257 1.350 . S
C4263 H4250 0.929 . S
C4263 C4255 1.433 . S
C4263 N4265 1.384 . S
N4264 C4260 1.427 . S
N4264 C4261 1.384 . S
N4265 C4257 1.427 . S
N4265 C4263 1.384 . S
H4266 C4272 0.930 . S
H4267 C4276 0.930 . S
H4268 C4281 0.929 . S
H4269 C4279 0.929 . S
H4270 C4274 0.929 . S
H4271 C4280 0.929 . S
C4272 H4266 0.930 . S
C4272 C4273 1.364 1_455 S
C4272 C4280 1.378 . S
C4273 C4272 1.364 1_655 S
C4273 C4281 1.436 . S
C4274 H4270 0.929 . S
C4274 C4276 1.378 . S
C4274 C4278 1.343 1_655 S
C4275 C4278 1.462 . S
C4275 C4280 1.360 . S
C4275 N4283 1.417 1_455 S
C4276 H4267 0.930 . S
C4276 C4274 1.378 . S
C4276 C4277 1.367 1_655 S
C4277 C4276 1.367 1_455 S
C4277 C4279 1.433 . S
C4278 C4274 1.343 1_455 S
C4278 C4275 1.462 . S
C4278 N4282 1.435 . S
C4279 H4269 0.929 . S
C4279 C4277 1.433 . S
C4279 N4282 1.384 . S
C4280 H4271 0.929 . S
C4280 C4272 1.378 . S
C4280 C4275 1.360 . S
C4281 H4268 0.929 . S
C4281 C4273 1.436 . S
C4281 N4283 1.384 . S
N4282 C4278 1.435 . S
N4282 C4279 1.384 . S
N4283 C4275 1.417 1_655 S
N4283 C4281 1.384 . S
H4284 C4290 0.930 . S
H4285 C4294 0.930 . S
H4286 C4299 0.929 . S
H4287 C4297 0.929 . S
H4288 C4292 0.929 . S
H4289 C4298 0.929 . S
C4290 H4284 0.930 . S
C4290 C4291 1.367 . S
C4290 C4298 1.378 . S
C4291 C4290 1.367 . S
C4291 C4299 1.433 . S
C4292 H4288 0.929 . S
C4292 C4294 1.378 . S
C4292 C4296 1.350 . S
C4293 C4296 1.463 . S
C4293 C4298 1.350 . S
C4293 N4301 1.427 . S
C4294 H4285 0.930 . S
C4294 C4292 1.378 . S
C4294 C4295 1.367 . S
C4295 C4294 1.367 . S
C4295 C4297 1.433 . S
C4296 C4292 1.350 . S
C4296 C4293 1.463 . S
C4296 N4300 1.427 . S
C4297 H4287 0.929 . S
C4297 C4295 1.433 . S
C4297 N4300 1.384 . S
C4298 H4289 0.929 . S
C4298 C4290 1.378 . S
C4298 C4293 1.350 . S
C4299 H4286 0.929 . S
C4299 C4291 1.433 . S
C4299 N4301 1.384 . S
N4300 C4296 1.427 . S
N4300 C4297 1.384 . S
N4301 C4293 1.427 . S
N4301 C4299 1.384 . S
H4302 C4308 0.930 . S
H4303 C4312 0.930 1_455 S
H4304 C4317 0.929 1_455 S
H4305 C4315 0.929 . S
H4306 C4310 0.929 1_455 S
H4307 C4316 0.929 . S
C4308 H4302 0.930 . S
C4308 C4309 1.367 . S
C4308 C4316 1.378 . S
C4309 C4308 1.367 . S
C4309 C4317 1.433 . S
C4310 H4306 0.929 1_655 S
C4310 C4312 1.378 . S
C4310 C4314 1.350 . S
C4311 C4314 1.463 . S
C4311 C4316 1.350 . S
C4311 N4319 1.427 . S
C4312 H4303 0.930 1_655 S
C4312 C4310 1.378 . S
C4312 C4313 1.367 . S
C4313 C4312 1.367 . S
C4313 C4315 1.433 . S
C4314 C4310 1.350 . S
C4314 C4311 1.463 . S
C4314 N4318 1.427 . S
C4315 H4305 0.929 . S
C4315 C4313 1.433 . S
C4315 N4318 1.384 . S
C4316 H4307 0.929 . S
C4316 C4308 1.378 . S
C4316 C4311 1.350 . S
C4317 H4304 0.929 1_655 S
C4317 C4309 1.433 . S
C4317 N4319 1.384 . S
N4318 C4314 1.427 . S
N4318 C4315 1.384 . S
N4319 C4311 1.427 . S
N4319 C4317 1.384 . S
H4320 C4326 0.930 . S
H4321 C4330 0.930 . S
H4322 C4335 0.929 . S
H4323 C4333 0.929 . S
H4324 C4328 0.929 . S
H4325 C4334 0.929 . S
C4326 H4320 0.930 . S
C4326 C4327 1.367 . S
C4326 C4334 1.378 . S
C4327 C4326 1.367 . S
C4327 C4335 1.433 . S
C4328 H4324 0.929 . S
C4328 C4330 1.378 . S
C4328 C4332 1.350 . S
C4329 C4332 1.463 . S
C4329 C4334 1.350 . S
C4329 N4337 1.427 . S
C4330 H4321 0.930 . S
C4330 C4328 1.378 . S
C4330 C4331 1.367 . S
C4331 C4330 1.367 . S
C4331 C4333 1.433 . S
C4332 C4328 1.350 . S
C4332 C4329 1.463 . S
C4332 N4336 1.427 . S
C4333 H4323 0.929 . S
C4333 C4331 1.433 . S
C4333 N4336 1.384 . S
C4334 H4325 0.929 . S
C4334 C4326 1.378 . S
C4334 C4329 1.350 . S
C4335 H4322 0.929 . S
C4335 C4327 1.433 . S
C4335 N4337 1.384 . S
N4336 C4332 1.427 . S
N4336 C4333 1.384 . S
N4337 C4329 1.427 . S
N4337 C4335 1.384 . S
H4338 C4344 0.930 . S
H4339 C4348 0.930 . S
H4340 C4353 0.929 . S
H4341 C4351 0.929 . S
H4342 C4346 0.929 . S
H4343 C4352 0.929 . S
C4344 H4338 0.930 . S
C4344 C4345 1.367 . S
C4344 C4352 1.378 . S
C4345 C4344 1.367 . S
C4345 C4353 1.433 . S
C4346 H4342 0.929 . S
C4346 C4348 1.378 . S
C4346 C4350 1.350 . S
C4347 C4350 1.463 . S
C4347 C4352 1.350 . S
C4347 N4355 1.427 . S
C4348 H4339 0.930 . S
C4348 C4346 1.378 . S
C4348 C4349 1.367 . S
C4349 C4348 1.367 . S
C4349 C4351 1.433 . S
C4350 C4346 1.350 . S
C4350 C4347 1.463 . S
C4350 N4354 1.427 . S
C4351 H4341 0.929 . S
C4351 C4349 1.433 . S
C4351 N4354 1.384 . S
C4352 H4343 0.929 . S
C4352 C4344 1.378 . S
C4352 C4347 1.350 . S
C4353 H4340 0.929 . S
C4353 C4345 1.433 . S
C4353 N4355 1.384 . S
N4354 C4350 1.427 . S
N4354 C4351 1.384 . S
N4355 C4347 1.427 . S
N4355 C4353 1.384 . S
H4356 C4362 0.930 . S
H4357 C4366 0.930 . S
H4358 C4371 0.929 . S
H4359 C4369 0.932 . S
H4360 C4364 0.931 . S
H4361 C4370 0.928 . S
C4362 H4356 0.930 . S
C4362 C4363 1.366 1_554 S
C4362 C4370 1.378 . S
C4363 C4362 1.366 1_556 S
C4363 C4371 1.435 . S
C4364 H4360 0.931 . S
C4364 C4366 1.378 . S
C4364 C4368 1.349 . S
C4365 C4368 1.462 . S
C4365 C4370 1.349 1_556 S
C4365 N4373 1.428 . S
C4366 H4357 0.930 . S
C4366 C4364 1.378 . S
C4366 C4367 1.366 1_556 S
C4367 C4366 1.366 1_554 S
C4367 C4369 1.433 . S
C4368 C4364 1.349 . S
C4368 C4365 1.462 . S
C4368 N4372 1.426 1_556 S
C4369 H4359 0.932 . S
C4369 C4367 1.433 . S
C4369 N4372 1.384 . S
C4370 H4361 0.928 . S
C4370 C4362 1.378 . S
C4370 C4365 1.349 1_554 S
C4371 H4358 0.929 . S
C4371 C4363 1.435 . S
C4371 N4373 1.384 . S
N4372 C4368 1.426 1_554 S
N4372 C4369 1.384 . S
N4373 C4365 1.428 . S
N4373 C4371 1.384 . S
H4374 C4380 0.930 . S
H4375 C4384 0.930 . S
H4376 C4389 0.929 . S
H4377 C4387 0.934 . S
H4378 C4382 0.929 . S
H4379 C4388 0.962 . S
C4380 H4374 0.930 . S
C4380 C4381 1.367 1_545 S
C4380 C4388 1.379 . S
C4381 C4380 1.367 1_565 S
C4381 C4389 1.433 . S
C4382 H4378 0.929 . S
C4382 C4384 1.378 . S
C4382 C4386 1.350 . S
C4383 C4386 1.463 . S
C4383 C4388 1.316 1_565 S
C4383 N4391 1.427 . S
C4384 H4375 0.930 . S
C4384 C4382 1.378 . S
C4384 C4385 1.367 . S
C4385 C4384 1.367 . S
C4385 C4387 1.428 1_565 S
C4386 C4382 1.350 . S
C4386 C4383 1.463 . S
C4386 N4390 1.420 1_565 S
C4387 H4377 0.934 . S
C4387 C4385 1.428 1_545 S
C4387 N4390 1.384 . S
C4388 H4379 0.962 . S
C4388 C4380 1.379 . S
C4388 C4383 1.316 1_545 S
C4389 H4376 0.929 . S
C4389 C4381 1.433 . S
C4389 N4391 1.384 . S
N4390 C4386 1.420 1_545 S
N4390 C4387 1.384 . S
N4391 C4383 1.427 . S
N4391 C4389 1.384 . S
H4392 C4398 0.930 . S
H4393 C4402 0.930 . S
H4394 C4407 0.929 . S
H4395 C4405 0.929 . S
H4396 C4400 0.929 . S
H4397 C4406 0.929 . S
C4398 H4392 0.930 . S
C4398 C4399 1.367 . S
C4398 C4406 1.378 . S
C4399 C4398 1.367 . S
C4399 C4407 1.433 1_565 S
C4400 H4396 0.929 . S
C4400 C4402 1.378 . S
C4400 C4404 1.347 . S
C4401 C4404 1.463 1_565 S
C4401 C4406 1.350 . S
C4401 N4409 1.427 1_565 S
C4402 H4393 0.930 . S
C4402 C4400 1.378 . S
C4402 C4403 1.380 . S
C4403 C4402 1.380 . S
C4403 C4405 1.420 1_545 S
C4404 C4400 1.347 . S
C4404 C4401 1.463 1_545 S
C4404 N4408 1.430 1_545 S
C4405 H4395 0.929 . S
C4405 C4403 1.420 1_565 S
C4405 N4408 1.384 . S
C4406 H4397 0.929 . S
C4406 C4398 1.378 . S
C4406 C4401 1.350 . S
C4407 H4394 0.929 . S
C4407 C4399 1.433 1_545 S
C4407 N4409 1.384 . S
N4408 C4404 1.430 1_565 S
N4408 C4405 1.384 . S
N4409 C4401 1.427 1_545 S
N4409 C4407 1.384 . S
H4410 C4416 0.930 . S
H4411 C4420 0.930 . S
H4412 C4425 0.929 . S
H4413 C4423 0.929 . S
H4414 C4418 0.929 . S
H4415 C4424 0.929 . S
C4416 H4410 0.930 . S
C4416 C4417 1.367 . S
C4416 C4424 1.378 . S
C4417 C4416 1.367 . S
C4417 C4425 1.433 . S
C4418 H4414 0.929 . S
C4418 C4420 1.378 . S
C4418 C4422 1.350 . S
C4419 C4422 1.463 1_556 S
C4419 C4424 1.350 . S
C4419 N4427 1.427 . S
C4420 H4411 0.930 . S
C4420 C4418 1.378 . S
C4420 C4421 1.367 . S
C4421 C4420 1.367 . S
C4421 C4423 1.433 . S
C4422 C4418 1.350 . S
C4422 C4419 1.463 1_554 S
C4422 N4426 1.427 . S
C4423 H4413 0.929 . S
C4423 C4421 1.433 . S
C4423 N4426 1.384 . S
C4424 H4415 0.929 . S
C4424 C4416 1.378 . S
C4424 C4419 1.350 . S
C4425 H4412 0.929 . S
C4425 C4417 1.433 . S
C4425 N4427 1.384 . S
N4426 C4422 1.427 . S
N4426 C4423 1.384 . S
N4427 C4419 1.427 . S
N4427 C4425 1.384 . S
H4428 C4434 0.930 . S
H4429 C4438 0.930 . S
H4430 C4443 0.929 . S
H4431 C4441 0.929 . S
H4432 C4436 0.929 . S
H4433 C4442 0.929 . S
C4434 H4428 0.930 . S
C4434 C4435 1.377 . S
C4434 C4442 1.378 . S
C4435 C4434 1.377 . S
C4435 C4443 1.423 1_565 S
C4436 H4432 0.929 . S
C4436 C4438 1.378 . S
C4436 C4440 1.357 . S
C4437 C4440 1.462 1_565 S
C4437 C4442 1.351 . S
C4437 N4445 1.426 1_565 S
C4438 H4429 0.930 . S
C4438 C4436 1.378 . S
C4438 C4439 1.383 . S
C4439 C4438 1.383 . S
C4439 C4441 1.418 1_545 S
C4440 C4436 1.357 . S
C4440 C4437 1.462 1_545 S
C4440 N4444 1.421 1_545 S
C4441 H4431 0.929 . S
C4441 C4439 1.418 1_565 S
C4441 N4444 1.384 . S
C4442 H4433 0.929 . S
C4442 C4434 1.378 . S
C4442 C4437 1.351 . S
C4443 H4430 0.929 . S
C4443 C4435 1.423 1_545 S
C4443 N4445 1.384 . S
N4444 C4440 1.421 1_565 S
N4444 C4441 1.384 . S
N4445 C4437 1.426 1_545 S
N4445 C4443 1.384 . S
H4446 C4452 0.930 . S
H4447 C4456 0.930 1_554 S
H4448 C4461 0.929 1_554 S
H4449 C4459 0.929 . S
H4450 C4454 0.929 1_554 S
H4451 C4460 0.929 . S
C4452 H4446 0.930 . S
C4452 C4453 1.367 . S
C4452 C4460 1.378 . S
C4453 C4452 1.367 . S
C4453 C4461 1.433 . S
C4454 H4450 0.929 1_556 S
C4454 C4456 1.378 . S
C4454 C4458 1.350 . S
C4455 C4458 1.463 . S
C4455 C4460 1.350 . S
C4455 N4463 1.427 . S
C4456 H4447 0.930 1_556 S
C4456 C4454 1.378 . S
C4456 C4457 1.367 . S
C4457 C4456 1.367 . S
C4457 C4459 1.433 . S
C4458 C4454 1.350 . S
C4458 C4455 1.463 . S
C4458 N4462 1.427 . S
C4459 H4449 0.929 . S
C4459 C4457 1.433 . S
C4459 N4462 1.384 . S
C4460 H4451 0.929 . S
C4460 C4452 1.378 . S
C4460 C4455 1.350 . S
C4461 H4448 0.929 1_556 S
C4461 C4453 1.433 . S
C4461 N4463 1.384 . S
N4462 C4458 1.427 . S
N4462 C4459 1.384 . S
N4463 C4455 1.427 . S
N4463 C4461 1.384 . S
H4464 C4470 0.964 . S
H4465 C4474 0.930 . S
H4466 C4479 0.929 . S
H4467 C4477 0.928 . S
H4468 C4472 0.929 . S
H4469 C4478 0.949 . S
C4470 H4464 0.964 . S
C4470 C4471 1.334 1_556 S
C4470 C4478 1.378 . S
C4471 C4470 1.334 1_554 S
C4471 C4479 1.433 . S
C4472 H4468 0.929 . S
C4472 C4474 1.378 . S
C4472 C4476 1.350 . S
C4473 C4476 1.463 1_655 S
C4473 C4478 1.329 1_554 S
C4473 N4481 1.427 . S
C4474 H4465 0.930 . S
C4474 C4472 1.378 . S
C4474 C4475 1.367 . S
C4475 C4474 1.367 . S
C4475 C4477 1.434 1_554 S
C4476 C4472 1.350 . S
C4476 C4473 1.463 1_455 S
C4476 N4480 1.428 1_554 S
C4477 H4467 0.928 . S
C4477 C4475 1.434 1_556 S
C4477 N4480 1.384 . S
C4478 H4469 0.949 . S
C4478 C4470 1.378 . S
C4478 C4473 1.329 1_556 S
C4479 H4466 0.929 . S
C4479 C4471 1.433 . S
C4479 N4481 1.384 . S
N4480 C4476 1.428 1_556 S
N4480 C4477 1.384 . S
N4481 C4473 1.427 . S
N4481 C4479 1.384 . S
H4482 C4488 0.930 . S
H4483 C4492 0.930 . S
H4484 C4497 0.929 . S
H4485 C4495 0.929 . S
H4486 C4490 0.929 . S
H4487 C4496 0.929 . S
C4488 H4482 0.930 . S
C4488 C4489 1.411 . S
C4488 C4496 1.378 . S
C4489 C4488 1.411 . S
C4489 C4497 1.389 1_655 S
C4490 H4486 0.929 . S
C4490 C4492 1.378 . S
C4490 C4494 1.344 1_455 S
C4491 C4494 1.463 . S
C4491 C4496 1.350 . S
C4491 N4499 1.427 1_655 S
C4492 H4483 0.930 . S
C4492 C4490 1.378 . S
C4492 C4493 1.345 1_455 S
C4493 C4492 1.345 1_655 S
C4493 C4495 1.455 . S
C4494 C4490 1.344 1_655 S
C4494 C4491 1.463 . S
C4494 N4498 1.433 . S
C4495 H4485 0.929 . S
C4495 C4493 1.455 . S
C4495 N4498 1.384 . S
C4496 H4487 0.929 . S
C4496 C4488 1.378 . S
C4496 C4491 1.350 . S
C4497 H4484 0.929 . S
C4497 C4489 1.389 1_455 S
C4497 N4499 1.384 . S
N4498 C4494 1.433 . S
N4498 C4495 1.384 . S
N4499 C4491 1.427 1_455 S
N4499 C4497 1.384 . S
H4500 C4506 0.930 . S
H4501 C4510 0.930 . S
H4502 C4515 0.929 . S
H4503 C4513 0.929 . S
H4504 C4508 0.929 . S
H4505 C4514 0.929 . S
C4506 H4500 0.930 . S
C4506 C4507 1.367 . S
C4506 C4514 1.378 . S
C4507 C4506 1.367 . S
C4507 C4515 1.433 . S
C4508 H4504 0.929 . S
C4508 C4510 1.378 . S
C4508 C4512 1.350 . S
C4509 C4512 1.463 . S
C4509 C4514 1.350 . S
C4509 N4517 1.427 . S
C4510 H4501 0.930 . S
C4510 C4508 1.378 . S
C4510 C4511 1.367 . S
C4511 C4510 1.367 . S
C4511 C4513 1.433 . S
C4512 C4508 1.350 . S
C4512 C4509 1.463 . S
C4512 N4516 1.427 . S
C4513 H4503 0.929 . S
C4513 C4511 1.433 . S
C4513 N4516 1.384 . S
C4514 H4505 0.929 . S
C4514 C4506 1.378 . S
C4514 C4509 1.350 . S
C4515 H4502 0.929 . S
C4515 C4507 1.433 . S
C4515 N4517 1.384 . S
N4516 C4512 1.427 . S
N4516 C4513 1.384 . S
N4517 C4509 1.427 . S
N4517 C4515 1.384 . S
H4518 C4524 0.930 . S
H4519 C4528 0.930 . S
H4520 C4533 0.929 . S
H4521 C4531 0.929 . S
H4522 C4526 0.929 . S
H4523 C4532 0.929 . S
C4524 H4518 0.930 . S
C4524 C4525 1.367 . S
C4524 C4532 1.378 . S
C4525 C4524 1.367 . S
C4525 C4533 1.433 . S
C4526 H4522 0.929 . S
C4526 C4528 1.378 . S
C4526 C4530 1.350 . S
C4527 C4530 1.463 1_655 S
C4527 C4532 1.350 . S
C4527 N4535 1.427 . S
C4528 H4519 0.930 . S
C4528 C4526 1.378 . S
C4528 C4529 1.367 . S
C4529 C4528 1.367 . S
C4529 C4531 1.433 . S
C4530 C4526 1.350 . S
C4530 C4527 1.463 1_455 S
C4530 N4534 1.427 . S
C4531 H4521 0.929 . S
C4531 C4529 1.433 . S
C4531 N4534 1.384 . S
C4532 H4523 0.929 . S
C4532 C4524 1.378 . S
C4532 C4527 1.350 . S
C4533 H4520 0.929 . S
C4533 C4525 1.433 . S
C4533 N4535 1.384 . S
N4534 C4530 1.427 . S
N4534 C4531 1.384 . S
N4535 C4527 1.427 . S
N4535 C4533 1.384 . S
H4536 C4542 0.930 . S
H4537 C4546 0.930 . S
H4538 C4551 0.929 . S
H4539 C4549 0.929 . S
H4540 C4544 0.929 . S
H4541 C4550 0.929 . S
C4542 H4536 0.930 . S
C4542 C4543 1.321 1_455 S
C4542 C4550 1.378 . S
C4543 C4542 1.321 1_655 S
C4543 C4551 1.480 . S
C4544 H4540 0.929 . S
C4544 C4546 1.378 . S
C4544 C4548 1.395 . S
C4545 C4548 1.461 . S
C4545 C4550 1.353 1_655 S
C4545 N4553 1.424 . S
C4546 H4537 0.930 . S
C4546 C4544 1.378 . S
C4546 C4547 1.363 . S
C4547 C4546 1.363 . S
C4547 C4549 1.437 1_655 S
C4548 C4544 1.395 . S
C4548 C4545 1.461 . S
C4548 N4552 1.382 1_655 S
C4549 H4539 0.929 . S
C4549 C4547 1.437 1_455 S
C4549 N4552 1.384 . S
C4550 H4541 0.929 . S
C4550 C4542 1.378 . S
C4550 C4545 1.353 1_455 S
C4551 H4538 0.929 . S
C4551 C4543 1.480 . S
C4551 N4553 1.384 . S
N4552 C4548 1.382 1_455 S
N4552 C4549 1.384 . S
N4553 C4545 1.424 . S
N4553 C4551 1.384 . S
H4554 C4560 0.930 . S
H4555 C4564 0.930 . S
H4556 C4569 0.929 . S
H4557 C4567 0.929 . S
H4558 C4562 0.929 . S
H4559 C4568 0.929 . S
C4560 H4554 0.930 . S
C4560 C4561 1.367 . S
C4560 C4568 1.378 . S
C4561 C4560 1.367 . S
C4561 C4569 1.433 . S
C4562 H4558 0.929 . S
C4562 C4564 1.378 . S
C4562 C4566 1.350 . S
C4563 C4566 1.463 . S
C4563 C4568 1.350 . S
C4563 N4571 1.427 . S
C4564 H4555 0.930 . S
C4564 C4562 1.378 . S
C4564 C4565 1.367 . S
C4565 C4564 1.367 . S
C4565 C4567 1.433 . S
C4566 C4562 1.350 . S
C4566 C4563 1.463 . S
C4566 N4570 1.427 . S
C4567 H4557 0.929 . S
C4567 C4565 1.433 . S
C4567 N4570 1.384 . S
C4568 H4559 0.929 . S
C4568 C4560 1.378 . S
C4568 C4563 1.350 . S
C4569 H4556 0.929 . S
C4569 C4561 1.433 . S
C4569 N4571 1.384 . S
N4570 C4566 1.427 . S
N4570 C4567 1.384 . S
N4571 C4563 1.427 . S
N4571 C4569 1.384 . S
H4572 C4578 0.930 . S
H4573 C4582 0.930 . S
H4574 C4587 0.929 . S
H4575 C4585 0.929 . S
H4576 C4580 0.929 . S
H4577 C4586 0.929 . S
C4578 H4572 0.930 . S
C4578 C4579 1.367 . S
C4578 C4586 1.378 . S
C4579 C4578 1.367 . S
C4579 C4587 1.433 . S
C4580 H4576 0.929 . S
C4580 C4582 1.378 . S
C4580 C4584 1.350 . S
C4581 C4584 1.463 1_545 S
C4581 C4586 1.350 . S
C4581 N4589 1.427 . S
C4582 H4573 0.930 . S
C4582 C4580 1.378 . S
C4582 C4583 1.367 . S
C4583 C4582 1.367 . S
C4583 C4585 1.433 . S
C4584 C4580 1.350 . S
C4584 C4581 1.463 1_565 S
C4584 N4588 1.427 . S
C4585 H4575 0.929 . S
C4585 C4583 1.433 . S
C4585 N4588 1.384 . S
C4586 H4577 0.929 . S
C4586 C4578 1.378 . S
C4586 C4581 1.350 . S
C4587 H4574 0.929 . S
C4587 C4579 1.433 . S
C4587 N4589 1.384 . S
N4588 C4584 1.427 . S
N4588 C4585 1.384 . S
N4589 C4581 1.427 . S
N4589 C4587 1.384 . S
H4590 C4596 0.930 1_554 S
H4591 C4600 0.932 . S
H4592 C4605 0.929 . S
H4593 C4603 0.929 . S
H4594 C4598 0.933 . S
H4595 C4604 0.927 . S
C4596 H4590 0.930 1_556 S
C4596 C4597 1.367 . S
C4596 C4604 1.378 1_556 S
C4597 C4596 1.367 . S
C4597 C4605 1.433 . S
C4598 H4594 0.933 . S
C4598 C4600 1.378 . S
C4598 C4602 1.349 . S
C4599 C4602 1.462 . S
C4599 C4604 1.349 1_556 S
C4599 N4607 1.429 . S
C4600 H4591 0.932 . S
C4600 C4598 1.378 . S
C4600 C4601 1.365 1_556 S
C4601 C4600 1.365 1_554 S
C4601 C4603 1.435 . S
C4602 C4598 1.349 . S
C4602 C4599 1.462 . S
C4602 N4606 1.425 1_556 S
C4603 H4593 0.929 . S
C4603 C4601 1.435 . S
C4603 N4606 1.386 . S
C4604 H4595 0.927 . S
C4604 C4596 1.378 1_554 S
C4604 C4599 1.349 1_554 S
C4605 H4592 0.929 . S
C4605 C4597 1.433 . S
C4605 N4607 1.384 . S
N4606 C4602 1.425 1_554 S
N4606 C4603 1.386 . S
N4607 C4599 1.429 . S
N4607 C4605 1.384 . S
H4608 C4614 0.930 . S
H4609 C4618 0.930 . S
H4610 C4623 0.929 . S
H4611 C4621 0.929 . S
H4612 C4616 0.929 . S
H4613 C4622 0.929 . S
C4614 H4608 0.930 . S
C4614 C4615 1.367 1_455 S
C4614 C4622 1.378 . S
C4615 C4614 1.367 1_655 S
C4615 C4623 1.433 . S
C4616 H4612 0.929 . S
C4616 C4618 1.378 . S
C4616 C4620 1.350 . S
C4617 C4620 1.463 1_545 S
C4617 C4622 1.350 1_655 S
C4617 N4625 1.427 . S
C4618 H4609 0.930 . S
C4618 C4616 1.378 . S
C4618 C4619 1.367 . S
C4619 C4618 1.367 . S
C4619 C4621 1.433 1_655 S
C4620 C4616 1.350 . S
C4620 C4617 1.463 1_565 S
C4620 N4624 1.427 1_655 S
C4621 H4611 0.929 . S
C4621 C4619 1.433 1_455 S
C4621 N4624 1.384 . S
C4622 H4613 0.929 . S
C4622 C4614 1.378 . S
C4622 C4617 1.350 1_455 S
C4623 H4610 0.929 . S
C4623 C4615 1.433 . S
C4623 N4625 1.384 . S
N4624 C4620 1.427 1_455 S
N4624 C4621 1.384 . S
N4625 C4617 1.427 . S
N4625 C4623 1.384 . S
H4626 C4632 0.930 . S
H4627 C4636 0.930 . S
H4628 C4641 0.929 . S
H4629 C4639 0.929 . S
H4630 C4634 0.929 . S
H4631 C4640 0.929 . S
C4632 H4626 0.930 . S
C4632 C4633 1.367 . S
C4632 C4640 1.378 . S
C4633 C4632 1.367 . S
C4633 C4641 1.433 . S
C4634 H4630 0.929 . S
C4634 C4636 1.378 . S
C4634 C4638 1.350 . S
C4635 C4638 1.463 . S
C4635 C4640 1.350 . S
C4635 N4643 1.427 . S
C4636 H4627 0.930 . S
C4636 C4634 1.378 . S
C4636 C4637 1.367 . S
C4637 C4636 1.367 . S
C4637 C4639 1.433 . S
C4638 C4634 1.350 . S
C4638 C4635 1.463 . S
C4638 N4642 1.427 . S
C4639 H4629 0.929 . S
C4639 C4637 1.433 . S
C4639 N4642 1.384 . S
C4640 H4631 0.929 . S
C4640 C4632 1.378 . S
C4640 C4635 1.350 . S
C4641 H4628 0.929 . S
C4641 C4633 1.433 . S
C4641 N4643 1.384 . S
N4642 C4638 1.427 . S
N4642 C4639 1.384 . S
N4643 C4635 1.427 . S
N4643 C4641 1.384 . S
H4644 C4650 0.930 . S
H4645 C4654 0.930 . S
H4646 C4659 0.929 . S
H4647 C4657 0.929 . S
H4648 C4652 0.929 . S
H4649 C4658 0.929 . S
C4650 H4644 0.930 . S
C4650 C4651 1.367 . S
C4650 C4658 1.378 . S
C4651 C4650 1.367 . S
C4651 C4659 1.433 . S
C4652 H4648 0.929 . S
C4652 C4654 1.378 . S
C4652 C4656 1.350 . S
C4653 C4656 1.463 1_556 S
C4653 C4658 1.350 . S
C4653 N4661 1.427 . S
C4654 H4645 0.930 . S
C4654 C4652 1.378 . S
C4654 C4655 1.367 . S
C4655 C4654 1.367 . S
C4655 C4657 1.433 . S
C4656 C4652 1.350 . S
C4656 C4653 1.463 1_554 S
C4656 N4660 1.427 . S
C4657 H4647 0.929 . S
C4657 C4655 1.433 . S
C4657 N4660 1.384 . S
C4658 H4649 0.929 . S
C4658 C4650 1.378 . S
C4658 C4653 1.350 . S
C4659 H4646 0.929 . S
C4659 C4651 1.433 . S
C4659 N4661 1.384 . S
N4660 C4656 1.427 . S
N4660 C4657 1.384 . S
N4661 C4653 1.427 . S
N4661 C4659 1.384 . S
H4662 C4668 0.930 . S
H4663 C4672 0.930 . S
H4664 C4677 0.929 . S
H4665 C4675 0.929 . S
H4666 C4670 0.929 . S
H4667 C4676 0.929 . S
C4668 H4662 0.930 . S
C4668 C4669 1.367 . S
C4668 C4676 1.378 . S
C4669 C4668 1.367 . S
C4669 C4677 1.433 . S
C4670 H4666 0.929 . S
C4670 C4672 1.378 . S
C4670 C4674 1.350 . S
C4671 C4674 1.463 . S
C4671 C4676 1.350 . S
C4671 N4679 1.427 . S
C4672 H4663 0.930 . S
C4672 C4670 1.378 . S
C4672 C4673 1.367 . S
C4673 C4672 1.367 . S
C4673 C4675 1.433 . S
C4674 C4670 1.350 . S
C4674 C4671 1.463 . S
C4674 N4678 1.427 . S
C4675 H4665 0.929 . S
C4675 C4673 1.433 . S
C4675 N4678 1.384 . S
C4676 H4667 0.929 . S
C4676 C4668 1.378 . S
C4676 C4671 1.350 . S
C4677 H4664 0.929 . S
C4677 C4669 1.433 . S
C4677 N4679 1.384 . S
N4678 C4674 1.427 . S
N4678 C4675 1.384 . S
N4679 C4671 1.427 . S
N4679 C4677 1.384 . S
H4680 C4686 0.930 . S
H4681 C4690 0.930 . S
H4682 C4695 0.929 . S
H4683 C4693 0.929 . S
H4684 C4688 0.929 . S
H4685 C4694 0.929 . S
C4686 H4680 0.930 . S
C4686 C4687 1.367 . S
C4686 C4694 1.378 . S
C4687 C4686 1.367 . S
C4687 C4695 1.433 . S
C4688 H4684 0.929 . S
C4688 C4690 1.378 . S
C4688 C4692 1.350 . S
C4689 C4692 1.463 . S
C4689 C4694 1.350 . S
C4689 N4697 1.427 . S
C4690 H4681 0.930 . S
C4690 C4688 1.378 . S
C4690 C4691 1.367 . S
C4691 C4690 1.367 . S
C4691 C4693 1.433 . S
C4692 C4688 1.350 . S
C4692 C4689 1.463 . S
C4692 N4696 1.427 . S
C4693 H4683 0.929 . S
C4693 C4691 1.433 . S
C4693 N4696 1.384 . S
C4694 H4685 0.929 . S
C4694 C4686 1.378 . S
C4694 C4689 1.350 . S
C4695 H4682 0.929 . S
C4695 C4687 1.433 . S
C4695 N4697 1.384 . S
N4696 C4692 1.427 . S
N4696 C4693 1.384 . S
N4697 C4689 1.427 . S
N4697 C4695 1.384 . S
H4698 C4704 0.930 . S
H4699 C4708 0.930 . S
H4700 C4713 0.929 . S
H4701 C4711 0.929 . S
H4702 C4706 0.929 . S
H4703 C4712 0.929 . S
C4704 H4698 0.930 . S
C4704 C4705 1.367 . S
C4704 C4712 1.378 . S
C4705 C4704 1.367 . S
C4705 C4713 1.433 . S
C4706 H4702 0.929 . S
C4706 C4708 1.378 . S
C4706 C4710 1.350 . S
C4707 C4710 1.463 . S
C4707 C4712 1.350 . S
C4707 N4715 1.427 . S
C4708 H4699 0.930 . S
C4708 C4706 1.378 . S
C4708 C4709 1.367 . S
C4709 C4708 1.367 . S
C4709 C4711 1.433 . S
C4710 C4706 1.350 . S
C4710 C4707 1.463 . S
C4710 N4714 1.427 . S
C4711 H4701 0.929 . S
C4711 C4709 1.433 . S
C4711 N4714 1.384 . S
C4712 H4703 0.929 . S
C4712 C4704 1.378 . S
C4712 C4707 1.350 . S
C4713 H4700 0.929 . S
C4713 C4705 1.433 . S
C4713 N4715 1.384 . S
N4714 C4710 1.427 . S
N4714 C4711 1.384 . S
N4715 C4707 1.427 . S
N4715 C4713 1.384 . S
H4716 C4722 0.930 . S
H4717 C4726 0.930 . S
H4718 C4731 0.929 . S
H4719 C4729 0.929 . S
H4720 C4724 0.929 . S
H4721 C4730 0.929 . S
C4722 H4716 0.930 . S
C4722 C4723 1.367 . S
C4722 C4730 1.378 . S
C4723 C4722 1.367 . S
C4723 C4731 1.433 . S
C4724 H4720 0.929 . S
C4724 C4726 1.378 . S
C4724 C4728 1.350 . S
C4725 C4728 1.463 . S
C4725 C4730 1.350 . S
C4725 N4733 1.427 . S
C4726 H4717 0.930 . S
C4726 C4724 1.378 . S
C4726 C4727 1.367 . S
C4727 C4726 1.367 . S
C4727 C4729 1.433 . S
C4728 C4724 1.350 . S
C4728 C4725 1.463 . S
C4728 N4732 1.427 . S
C4729 H4719 0.929 . S
C4729 C4727 1.433 . S
C4729 N4732 1.384 . S
C4730 H4721 0.929 . S
C4730 C4722 1.378 . S
C4730 C4725 1.350 . S
C4731 H4718 0.929 . S
C4731 C4723 1.433 . S
C4731 N4733 1.384 . S
N4732 C4728 1.427 . S
N4732 C4729 1.384 . S
N4733 C4725 1.427 . S
N4733 C4731 1.384 . S
H4734 C4740 0.930 . S
H4735 C4744 0.930 . S
H4736 C4749 0.929 . S
H4737 C4747 0.929 . S
H4738 C4742 0.929 . S
H4739 C4748 0.929 . S
C4740 H4734 0.930 . S
C4740 C4741 1.367 . S
C4740 C4748 1.378 . S
C4741 C4740 1.367 . S
C4741 C4749 1.433 . S
C4742 H4738 0.929 . S
C4742 C4744 1.378 . S
C4742 C4746 1.350 . S
C4743 C4746 1.463 1_565 S
C4743 C4748 1.350 . S
C4743 N4751 1.427 . S
C4744 H4735 0.930 . S
C4744 C4742 1.378 . S
C4744 C4745 1.367 . S
C4745 C4744 1.367 . S
C4745 C4747 1.433 . S
C4746 C4742 1.350 . S
C4746 C4743 1.463 1_545 S
C4746 N4750 1.427 . S
C4747 H4737 0.929 . S
C4747 C4745 1.433 . S
C4747 N4750 1.384 . S
C4748 H4739 0.929 . S
C4748 C4740 1.378 . S
C4748 C4743 1.350 . S
C4749 H4736 0.929 . S
C4749 C4741 1.433 . S
C4749 N4751 1.384 . S
N4750 C4746 1.427 . S
N4750 C4747 1.384 . S
N4751 C4743 1.427 . S
N4751 C4749 1.384 . S
H4752 C4758 0.930 . S
H4753 C4762 0.930 . S
H4754 C4767 0.929 . S
H4755 C4765 0.929 . S
H4756 C4760 0.929 . S
H4757 C4766 0.929 . S
C4758 H4752 0.930 . S
C4758 C4759 1.333 1_556 S
C4758 C4766 1.378 . S
C4759 C4758 1.333 1_554 S
C4759 C4767 1.468 . S
C4760 H4756 0.929 . S
C4760 C4762 1.378 . S
C4760 C4764 1.370 . S
C4761 C4764 1.462 . S
C4761 C4766 1.351 1_554 S
C4761 N4769 1.427 . S
C4762 H4753 0.930 . S
C4762 C4760 1.378 . S
C4762 C4763 1.360 1_554 S
C4763 C4762 1.360 1_556 S
C4763 C4765 1.440 . S
C4764 C4760 1.370 . S
C4764 C4761 1.462 . S
C4764 N4768 1.407 1_554 S
C4765 H4755 0.929 . S
C4765 C4763 1.440 . S
C4765 N4768 1.384 . S
C4766 H4757 0.929 . S
C4766 C4758 1.378 . S
C4766 C4761 1.351 1_556 S
C4767 H4754 0.929 . S
C4767 C4759 1.468 . S
C4767 N4769 1.384 . S
N4768 C4764 1.407 1_556 S
N4768 C4765 1.384 . S
N4769 C4761 1.427 . S
N4769 C4767 1.384 . S
H4770 C4776 0.903 1_655 S
H4771 C4780 0.930 . S
H4772 C4785 0.929 . S
H4773 C4783 0.939 . S
H4774 C4778 0.929 . S
H4775 C4784 0.909 1_655 S
C4776 H4770 0.903 1_455 S
C4776 C4777 1.395 . S
C4776 C4784 1.378 . S
C4777 C4776 1.395 . S
C4777 C4785 1.433 . S
C4778 H4774 0.929 . S
C4778 C4780 1.378 . S
C4778 C4782 1.350 . S
C4779 C4782 1.463 1_545 S
C4779 C4784 1.369 . S
C4779 N4787 1.427 . S
C4780 H4771 0.930 . S
C4780 C4778 1.378 . S
C4780 C4781 1.367 . S
C4781 C4780 1.367 . S
C4781 C4783 1.424 1_455 S
C4782 C4778 1.350 . S
C4782 C4779 1.463 1_565 S
C4782 N4786 1.426 . S
C4783 H4773 0.939 . S
C4783 C4781 1.424 1_655 S
C4783 N4786 1.383 1_655 S
C4784 H4775 0.909 1_455 S
C4784 C4776 1.378 . S
C4784 C4779 1.369 . S
C4785 H4772 0.929 . S
C4785 C4777 1.433 . S
C4785 N4787 1.384 . S
N4786 C4782 1.426 . S
N4786 C4783 1.383 1_455 S
N4787 C4779 1.427 . S
N4787 C4785 1.384 . S
H4788 C4794 0.930 . S
H4789 C4798 0.930 . S
H4790 C4803 0.929 . S
H4791 C4801 0.929 . S
H4792 C4796 0.929 . S
H4793 C4802 0.929 . S
C4794 H4788 0.930 . S
C4794 C4795 1.367 . S
C4794 C4802 1.378 . S
C4795 C4794 1.367 . S
C4795 C4803 1.433 . S
C4796 H4792 0.929 . S
C4796 C4798 1.378 . S
C4796 C4800 1.350 . S
C4797 C4800 1.463 . S
C4797 C4802 1.350 . S
C4797 N4805 1.427 . S
C4798 H4789 0.930 . S
C4798 C4796 1.378 . S
C4798 C4799 1.367 . S
C4799 C4798 1.367 . S
C4799 C4801 1.433 . S
C4800 C4796 1.350 . S
C4800 C4797 1.463 . S
C4800 N4804 1.427 . S
C4801 H4791 0.929 . S
C4801 C4799 1.433 . S
C4801 N4804 1.384 . S
C4802 H4793 0.929 . S
C4802 C4794 1.378 . S
C4802 C4797 1.350 . S
C4803 H4790 0.929 . S
C4803 C4795 1.433 . S
C4803 N4805 1.384 . S
N4804 C4800 1.427 . S
N4804 C4801 1.384 . S
N4805 C4797 1.427 . S
N4805 C4803 1.384 . S
H4806 C4812 0.930 . S
H4807 C4816 0.930 . S
H4808 C4821 0.929 . S
H4809 C4819 0.929 . S
H4810 C4814 0.929 . S
H4811 C4820 0.929 . S
C4812 H4806 0.930 . S
C4812 C4813 1.367 . S
C4812 C4820 1.378 . S
C4813 C4812 1.367 . S
C4813 C4821 1.433 . S
C4814 H4810 0.929 . S
C4814 C4816 1.378 . S
C4814 C4818 1.350 . S
C4815 C4818 1.463 1_554 S
C4815 C4820 1.350 . S
C4815 N4823 1.427 . S
C4816 H4807 0.930 . S
C4816 C4814 1.378 . S
C4816 C4817 1.367 . S
C4817 C4816 1.367 . S
C4817 C4819 1.433 . S
C4818 C4814 1.350 . S
C4818 C4815 1.463 1_556 S
C4818 N4822 1.427 . S
C4819 H4809 0.929 . S
C4819 C4817 1.433 . S
C4819 N4822 1.384 . S
C4820 H4811 0.929 . S
C4820 C4812 1.378 . S
C4820 C4815 1.350 . S
C4821 H4808 0.929 . S
C4821 C4813 1.433 . S
C4821 N4823 1.384 . S
N4822 C4818 1.427 . S
N4822 C4819 1.384 . S
N4823 C4815 1.427 . S
N4823 C4821 1.384 . S
H4824 C4830 0.930 . S
H4825 C4834 0.930 . S
H4826 C4839 0.929 . S
H4827 C4837 0.929 . S
H4828 C4832 0.929 . S
H4829 C4838 0.929 . S
C4830 H4824 0.930 . S
C4830 C4831 1.367 . S
C4830 C4838 1.378 . S
C4831 C4830 1.367 . S
C4831 C4839 1.433 . S
C4832 H4828 0.929 . S
C4832 C4834 1.378 . S
C4832 C4836 1.350 . S
C4833 C4836 1.463 . S
C4833 C4838 1.350 . S
C4833 N4841 1.427 . S
C4834 H4825 0.930 . S
C4834 C4832 1.378 . S
C4834 C4835 1.367 . S
C4835 C4834 1.367 . S
C4835 C4837 1.433 . S
C4836 C4832 1.350 . S
C4836 C4833 1.463 . S
C4836 N4840 1.427 . S
C4837 H4827 0.929 . S
C4837 C4835 1.433 . S
C4837 N4840 1.384 . S
C4838 H4829 0.929 . S
C4838 C4830 1.378 . S
C4838 C4833 1.350 . S
C4839 H4826 0.929 . S
C4839 C4831 1.433 . S
C4839 N4841 1.384 . S
N4840 C4836 1.427 . S
N4840 C4837 1.384 . S
N4841 C4833 1.427 . S
N4841 C4839 1.384 . S
H4842 C4848 0.930 . S
H4843 C4852 0.930 . S
H4844 C4857 0.929 . S
H4845 C4855 0.929 . S
H4846 C4850 0.929 . S
H4847 C4856 0.929 . S
C4848 H4842 0.930 . S
C4848 C4849 1.367 . S
C4848 C4856 1.378 . S
C4849 C4848 1.367 . S
C4849 C4857 1.433 . S
C4850 H4846 0.929 . S
C4850 C4852 1.378 . S
C4850 C4854 1.350 . S
C4851 C4854 1.463 . S
C4851 C4856 1.350 . S
C4851 N4859 1.427 . S
C4852 H4843 0.930 . S
C4852 C4850 1.378 . S
C4852 C4853 1.367 . S
C4853 C4852 1.367 . S
C4853 C4855 1.433 . S
C4854 C4850 1.350 . S
C4854 C4851 1.463 . S
C4854 N4858 1.427 . S
C4855 H4845 0.929 . S
C4855 C4853 1.433 . S
C4855 N4858 1.384 . S
C4856 H4847 0.929 . S
C4856 C4848 1.378 . S
C4856 C4851 1.350 . S
C4857 H4844 0.929 . S
C4857 C4849 1.433 . S
C4857 N4859 1.384 . S
N4858 C4854 1.427 . S
N4858 C4855 1.384 . S
N4859 C4851 1.427 . S
N4859 C4857 1.384 . S
H4860 C4866 0.930 . S
H4861 C4870 0.930 . S
H4862 C4875 0.929 . S
H4863 C4873 0.929 . S
H4864 C4868 0.929 . S
H4865 C4874 0.929 . S
C4866 H4860 0.930 . S
C4866 C4867 1.367 . S
C4866 C4874 1.378 . S
C4867 C4866 1.367 . S
C4867 C4875 1.433 . S
C4868 H4864 0.929 . S
C4868 C4870 1.378 . S
C4868 C4872 1.350 . S
C4869 C4872 1.463 . S
C4869 C4874 1.350 . S
C4869 N4877 1.427 . S
C4870 H4861 0.930 . S
C4870 C4868 1.378 . S
C4870 C4871 1.367 . S
C4871 C4870 1.367 . S
C4871 C4873 1.433 . S
C4872 C4868 1.350 . S
C4872 C4869 1.463 . S
C4872 N4876 1.427 . S
C4873 H4863 0.929 . S
C4873 C4871 1.433 . S
C4873 N4876 1.384 . S
C4874 H4865 0.929 . S
C4874 C4866 1.378 . S
C4874 C4869 1.350 . S
C4875 H4862 0.929 . S
C4875 C4867 1.433 . S
C4875 N4877 1.384 . S
N4876 C4872 1.427 . S
N4876 C4873 1.384 . S
N4877 C4869 1.427 . S
N4877 C4875 1.384 . S
H4878 C4884 0.930 . S
H4879 C4888 0.930 . S
H4880 C4893 0.929 . S
H4881 C4891 0.929 . S
H4882 C4886 0.929 . S
H4883 C4892 0.929 . S
C4884 H4878 0.930 . S
C4884 C4885 1.367 . S
C4884 C4892 1.378 . S
C4885 C4884 1.367 . S
C4885 C4893 1.433 . S
C4886 H4882 0.929 . S
C4886 C4888 1.378 . S
C4886 C4890 1.350 . S
C4887 C4890 1.463 . S
C4887 C4892 1.350 . S
C4887 N4895 1.427 . S
C4888 H4879 0.930 . S
C4888 C4886 1.378 . S
C4888 C4889 1.367 . S
C4889 C4888 1.367 . S
C4889 C4891 1.433 . S
C4890 C4886 1.350 . S
C4890 C4887 1.463 . S
C4890 N4894 1.427 . S
C4891 H4881 0.929 . S
C4891 C4889 1.433 . S
C4891 N4894 1.384 . S
C4892 H4883 0.929 . S
C4892 C4884 1.378 . S
C4892 C4887 1.350 . S
C4893 H4880 0.929 . S
C4893 C4885 1.433 . S
C4893 N4895 1.384 . S
N4894 C4890 1.427 . S
N4894 C4891 1.384 . S
N4895 C4887 1.427 . S
N4895 C4893 1.384 . S
H4896 C4902 0.930 . S
H4897 C4906 0.930 . S
H4898 C4911 0.929 . S
H4899 C4909 0.929 . S
H4900 C4904 0.929 . S
H4901 C4910 0.929 . S
C4902 H4896 0.930 . S
C4902 C4903 1.367 . S
C4902 C4910 1.378 . S
C4903 C4902 1.367 . S
C4903 C4911 1.433 . S
C4904 H4900 0.929 . S
C4904 C4906 1.378 . S
C4904 C4908 1.350 . S
C4905 C4908 1.463 . S
C4905 C4910 1.350 . S
C4905 N4913 1.427 . S
C4906 H4897 0.930 . S
C4906 C4904 1.378 . S
C4906 C4907 1.367 . S
C4907 C4906 1.367 . S
C4907 C4909 1.433 . S
C4908 C4904 1.350 . S
C4908 C4905 1.463 . S
C4908 N4912 1.427 . S
C4909 H4899 0.929 . S
C4909 C4907 1.433 . S
C4909 N4912 1.384 . S
C4910 H4901 0.929 . S
C4910 C4902 1.378 . S
C4910 C4905 1.350 . S
C4911 H4898 0.929 . S
C4911 C4903 1.433 . S
C4911 N4913 1.384 . S
N4912 C4908 1.427 . S
N4912 C4909 1.384 . S
N4913 C4905 1.427 . S
N4913 C4911 1.384 . S
H4914 C4920 0.930 . S
H4915 C4924 0.930 . S
H4916 C4929 0.929 . S
H4917 C4927 0.929 . S
H4918 C4922 0.929 . S
H4919 C4928 0.929 . S
C4920 H4914 0.930 . S
C4920 C4921 1.367 . S
C4920 C4928 1.378 . S
C4921 C4920 1.367 . S
C4921 C4929 1.433 . S
C4922 H4918 0.929 . S
C4922 C4924 1.378 . S
C4922 C4926 1.350 . S
C4923 C4926 1.463 . S
C4923 C4928 1.350 . S
C4923 N4931 1.427 . S
C4924 H4915 0.930 . S
C4924 C4922 1.378 . S
C4924 C4925 1.367 . S
C4925 C4924 1.367 . S
C4925 C4927 1.433 . S
C4926 C4922 1.350 . S
C4926 C4923 1.463 . S
C4926 N4930 1.427 . S
C4927 H4917 0.929 . S
C4927 C4925 1.433 . S
C4927 N4930 1.384 . S
C4928 H4919 0.929 . S
C4928 C4920 1.378 . S
C4928 C4923 1.350 . S
C4929 H4916 0.929 . S
C4929 C4921 1.433 . S
C4929 N4931 1.384 . S
N4930 C4926 1.427 . S
N4930 C4927 1.384 . S
N4931 C4923 1.427 . S
N4931 C4929 1.384 . S
H4932 C4938 0.930 . S
H4933 C4942 0.930 . S
H4934 C4947 0.929 . S
H4935 C4945 0.929 . S
H4936 C4940 0.929 . S
H4937 C4946 0.929 . S
C4938 H4932 0.930 . S
C4938 C4939 1.367 . S
C4938 C4946 1.378 . S
C4939 C4938 1.367 . S
C4939 C4947 1.433 . S
C4940 H4936 0.929 . S
C4940 C4942 1.378 . S
C4940 C4944 1.350 . S
C4941 C4944 1.463 . S
C4941 C4946 1.350 . S
C4941 N4949 1.427 . S
C4942 H4933 0.930 . S
C4942 C4940 1.378 . S
C4942 C4943 1.367 . S
C4943 C4942 1.367 . S
C4943 C4945 1.433 . S
C4944 C4940 1.350 . S
C4944 C4941 1.463 . S
C4944 N4948 1.427 . S
C4945 H4935 0.929 . S
C4945 C4943 1.433 . S
C4945 N4948 1.384 . S
C4946 H4937 0.929 . S
C4946 C4938 1.378 . S
C4946 C4941 1.350 . S
C4947 H4934 0.929 . S
C4947 C4939 1.433 . S
C4947 N4949 1.384 . S
N4948 C4944 1.427 . S
N4948 C4945 1.384 . S
N4949 C4941 1.427 . S
N4949 C4947 1.384 . S
H4950 C4956 0.930 . S
H4951 C4960 0.930 . S
H4952 C4965 0.929 . S
H4953 C4963 0.929 . S
H4954 C4958 0.929 . S
H4955 C4964 0.929 . S
C4956 H4950 0.930 . S
C4956 C4957 1.367 . S
C4956 C4964 1.378 . S
C4957 C4956 1.367 . S
C4957 C4965 1.433 . S
C4958 H4954 0.929 . S
C4958 C4960 1.378 . S
C4958 C4962 1.350 . S
C4959 C4962 1.463 . S
C4959 C4964 1.350 . S
C4959 N4967 1.427 . S
C4960 H4951 0.930 . S
C4960 C4958 1.378 . S
C4960 C4961 1.367 . S
C4961 C4960 1.367 . S
C4961 C4963 1.433 . S
C4962 C4958 1.350 . S
C4962 C4959 1.463 . S
C4962 N4966 1.427 . S
C4963 H4953 0.929 . S
C4963 C4961 1.433 . S
C4963 N4966 1.384 . S
C4964 H4955 0.929 . S
C4964 C4956 1.378 . S
C4964 C4959 1.350 . S
C4965 H4952 0.929 . S
C4965 C4957 1.433 . S
C4965 N4967 1.384 . S
N4966 C4962 1.427 . S
N4966 C4963 1.384 . S
N4967 C4959 1.427 . S
N4967 C4965 1.384 . S
H4968 C4974 0.930 . S
H4969 C4978 0.930 . S
H4970 C4983 0.929 . S
H4971 C4981 0.929 . S
H4972 C4976 0.929 . S
H4973 C4982 0.929 . S
C4974 H4968 0.930 . S
C4974 C4975 1.367 . S
C4974 C4982 1.378 . S
C4975 C4974 1.367 . S
C4975 C4983 1.433 . S
C4976 H4972 0.929 . S
C4976 C4978 1.378 . S
C4976 C4980 1.350 . S
C4977 C4980 1.463 . S
C4977 C4982 1.350 . S
C4977 N4985 1.427 . S
C4978 H4969 0.930 . S
C4978 C4976 1.378 . S
C4978 C4979 1.367 . S
C4979 C4978 1.367 . S
C4979 C4981 1.433 . S
C4980 C4976 1.350 . S
C4980 C4977 1.463 . S
C4980 N4984 1.427 . S
C4981 H4971 0.929 . S
C4981 C4979 1.433 . S
C4981 N4984 1.384 . S
C4982 H4973 0.929 . S
C4982 C4974 1.378 . S
C4982 C4977 1.350 . S
C4983 H4970 0.929 . S
C4983 C4975 1.433 . S
C4983 N4985 1.384 . S
N4984 C4980 1.427 . S
N4984 C4981 1.384 . S
N4985 C4977 1.427 . S
N4985 C4983 1.384 . S
H4986 C4992 0.930 . S
H4987 C4996 0.930 . S
H4988 C5001 0.929 . S
H4989 C4999 0.929 . S
H4990 C4994 0.929 . S
H4991 C5000 0.929 . S
C4992 H4986 0.930 . S
C4992 C4993 1.367 . S
C4992 C5000 1.378 . S
C4993 C4992 1.367 . S
C4993 C5001 1.433 . S
C4994 H4990 0.929 . S
C4994 C4996 1.378 . S
C4994 C4998 1.350 . S
C4995 C4998 1.463 . S
C4995 C5000 1.350 . S
C4995 N5003 1.427 . S
C4996 H4987 0.930 . S
C4996 C4994 1.378 . S
C4996 C4997 1.367 . S
C4997 C4996 1.367 . S
C4997 C4999 1.433 . S
C4998 C4994 1.350 . S
C4998 C4995 1.463 . S
C4998 N5002 1.427 . S
C4999 H4989 0.929 . S
C4999 C4997 1.433 . S
C4999 N5002 1.384 . S
C5000 H4991 0.929 . S
C5000 C4992 1.378 . S
C5000 C4995 1.350 . S
C5001 H4988 0.929 . S
C5001 C4993 1.433 . S
C5001 N5003 1.384 . S
N5002 C4998 1.427 . S
N5002 C4999 1.384 . S
N5003 C4995 1.427 . S
N5003 C5001 1.384 . S
H5004 C5010 0.930 . S
H5005 C5014 0.930 . S
H5006 C5019 0.929 . S
H5007 C5017 0.929 . S
H5008 C5012 0.929 . S
H5009 C5018 0.929 . S
C5010 H5004 0.930 . S
C5010 C5011 1.367 . S
C5010 C5018 1.378 . S
C5011 C5010 1.367 . S
C5011 C5019 1.433 . S
C5012 H5008 0.929 . S
C5012 C5014 1.378 . S
C5012 C5016 1.350 . S
C5013 C5016 1.463 . S
C5013 C5018 1.350 . S
C5013 N5021 1.427 . S
C5014 H5005 0.930 . S
C5014 C5012 1.378 . S
C5014 C5015 1.367 . S
C5015 C5014 1.367 . S
C5015 C5017 1.433 . S
C5016 C5012 1.350 . S
C5016 C5013 1.463 . S
C5016 N5020 1.427 . S
C5017 H5007 0.929 . S
C5017 C5015 1.433 . S
C5017 N5020 1.384 . S
C5018 H5009 0.929 . S
C5018 C5010 1.378 . S
C5018 C5013 1.350 . S
C5019 H5006 0.929 . S
C5019 C5011 1.433 . S
C5019 N5021 1.384 . S
N5020 C5016 1.427 . S
N5020 C5017 1.384 . S
N5021 C5013 1.427 . S
N5021 C5019 1.384 . S
H5022 C5028 0.930 . S
H5023 C5032 0.930 . S
H5024 C5037 0.929 . S
H5025 C5035 0.929 . S
H5026 C5030 0.929 . S
H5027 C5036 0.929 . S
C5028 H5022 0.930 . S
C5028 C5029 1.367 . S
C5028 C5036 1.378 . S
C5029 C5028 1.367 . S
C5029 C5037 1.433 . S
C5030 H5026 0.929 . S
C5030 C5032 1.378 . S
C5030 C5034 1.350 . S
C5031 C5034 1.463 . S
C5031 C5036 1.350 . S
C5031 N5039 1.427 . S
C5032 H5023 0.930 . S
C5032 C5030 1.378 . S
C5032 C5033 1.367 . S
C5033 C5032 1.367 . S
C5033 C5035 1.433 . S
C5034 C5030 1.350 . S
C5034 C5031 1.463 . S
C5034 N5038 1.427 . S
C5035 H5025 0.929 . S
C5035 C5033 1.433 . S
C5035 N5038 1.384 . S
C5036 H5027 0.929 . S
C5036 C5028 1.378 . S
C5036 C5031 1.350 . S
C5037 H5024 0.929 . S
C5037 C5029 1.433 . S
C5037 N5039 1.384 . S
N5038 C5034 1.427 . S
N5038 C5035 1.384 . S
N5039 C5031 1.427 . S
N5039 C5037 1.384 . S
H5040 C5046 0.930 . S
H5041 C5050 0.930 . S
H5042 C5055 0.929 . S
H5043 C5053 0.929 . S
H5044 C5048 0.929 . S
H5045 C5054 0.929 . S
C5046 H5040 0.930 . S
C5046 C5047 1.367 . S
C5046 C5054 1.378 . S
C5047 C5046 1.367 . S
C5047 C5055 1.433 . S
C5048 H5044 0.929 . S
C5048 C5050 1.378 . S
C5048 C5052 1.350 . S
C5049 C5052 1.463 . S
C5049 C5054 1.350 . S
C5049 N5057 1.427 . S
C5050 H5041 0.930 . S
C5050 C5048 1.378 . S
C5050 C5051 1.367 . S
C5051 C5050 1.367 . S
C5051 C5053 1.433 . S
C5052 C5048 1.350 . S
C5052 C5049 1.463 . S
C5052 N5056 1.427 . S
C5053 H5043 0.929 . S
C5053 C5051 1.433 . S
C5053 N5056 1.384 . S
C5054 H5045 0.929 . S
C5054 C5046 1.378 . S
C5054 C5049 1.350 . S
C5055 H5042 0.929 . S
C5055 C5047 1.433 . S
C5055 N5057 1.384 . S
N5056 C5052 1.427 . S
N5056 C5053 1.384 . S
N5057 C5049 1.427 . S
N5057 C5055 1.384 . S
H5058 C5064 0.930 . S
H5059 C5068 0.930 . S
H5060 C5073 0.929 . S
H5061 C5071 0.929 . S
H5062 C5066 0.929 . S
H5063 C5072 0.929 . S
C5064 H5058 0.930 . S
C5064 C5065 1.367 . S
C5064 C5072 1.378 . S
C5065 C5064 1.367 . S
C5065 C5073 1.433 . S
C5066 H5062 0.929 . S
C5066 C5068 1.378 . S
C5066 C5070 1.350 . S
C5067 C5070 1.463 . S
C5067 C5072 1.350 . S
C5067 N5075 1.427 . S
C5068 H5059 0.930 . S
C5068 C5066 1.378 . S
C5068 C5069 1.367 . S
C5069 C5068 1.367 . S
C5069 C5071 1.433 . S
C5070 C5066 1.350 . S
C5070 C5067 1.463 . S
C5070 N5074 1.427 . S
C5071 H5061 0.929 . S
C5071 C5069 1.433 . S
C5071 N5074 1.384 . S
C5072 H5063 0.929 . S
C5072 C5064 1.378 . S
C5072 C5067 1.350 . S
C5073 H5060 0.929 . S
C5073 C5065 1.433 . S
C5073 N5075 1.384 . S
N5074 C5070 1.427 . S
N5074 C5071 1.384 . S
N5075 C5067 1.427 . S
N5075 C5073 1.384 . S
H5076 C5082 0.930 . S
H5077 C5086 0.930 . S
H5078 C5091 0.929 . S
H5079 C5089 0.929 . S
H5080 C5084 0.929 . S
H5081 C5090 0.929 . S
C5082 H5076 0.930 . S
C5082 C5083 1.367 . S
C5082 C5090 1.378 . S
C5083 C5082 1.367 . S
C5083 C5091 1.433 . S
C5084 H5080 0.929 . S
C5084 C5086 1.378 . S
C5084 C5088 1.350 . S
C5085 C5088 1.463 . S
C5085 C5090 1.350 . S
C5085 N5093 1.427 . S
C5086 H5077 0.930 . S
C5086 C5084 1.378 . S
C5086 C5087 1.367 . S
C5087 C5086 1.367 . S
C5087 C5089 1.433 . S
C5088 C5084 1.350 . S
C5088 C5085 1.463 . S
C5088 N5092 1.427 . S
C5089 H5079 0.929 . S
C5089 C5087 1.433 . S
C5089 N5092 1.384 . S
C5090 H5081 0.929 . S
C5090 C5082 1.378 . S
C5090 C5085 1.350 . S
C5091 H5078 0.929 . S
C5091 C5083 1.433 . S
C5091 N5093 1.384 . S
N5092 C5088 1.427 . S
N5092 C5089 1.384 . S
N5093 C5085 1.427 . S
N5093 C5091 1.384 . S
H5094 C5100 0.930 . S
H5095 C5104 0.930 . S
H5096 C5109 0.929 . S
H5097 C5107 0.929 . S
H5098 C5102 0.929 . S
H5099 C5108 0.929 . S
C5100 H5094 0.930 . S
C5100 C5101 1.367 . S
C5100 C5108 1.378 . S
C5101 C5100 1.367 . S
C5101 C5109 1.433 . S
C5102 H5098 0.929 . S
C5102 C5104 1.378 . S
C5102 C5106 1.350 . S
C5103 C5106 1.463 . S
C5103 C5108 1.350 . S
C5103 N5111 1.427 . S
C5104 H5095 0.930 . S
C5104 C5102 1.378 . S
C5104 C5105 1.367 . S
C5105 C5104 1.367 . S
C5105 C5107 1.433 . S
C5106 C5102 1.350 . S
C5106 C5103 1.463 . S
C5106 N5110 1.427 . S
C5107 H5097 0.929 . S
C5107 C5105 1.433 . S
C5107 N5110 1.384 . S
C5108 H5099 0.929 . S
C5108 C5100 1.378 . S
C5108 C5103 1.350 . S
C5109 H5096 0.929 . S
C5109 C5101 1.433 . S
C5109 N5111 1.384 . S
N5110 C5106 1.427 . S
N5110 C5107 1.384 . S
N5111 C5103 1.427 . S
N5111 C5109 1.384 . S
H5112 C5118 0.930 . S
H5113 C5122 0.930 . S
H5114 C5127 0.929 . S
H5115 C5125 0.929 . S
H5116 C5120 0.929 . S
H5117 C5126 0.929 . S
C5118 H5112 0.930 . S
C5118 C5119 1.367 . S
C5118 C5126 1.378 . S
C5119 C5118 1.367 . S
C5119 C5127 1.433 . S
C5120 H5116 0.929 . S
C5120 C5122 1.378 . S
C5120 C5124 1.350 . S
C5121 C5124 1.463 . S
C5121 C5126 1.350 . S
C5121 N5129 1.427 . S
C5122 H5113 0.930 . S
C5122 C5120 1.378 . S
C5122 C5123 1.367 . S
C5123 C5122 1.367 . S
C5123 C5125 1.433 . S
C5124 C5120 1.350 . S
C5124 C5121 1.463 . S
C5124 N5128 1.427 . S
C5125 H5115 0.929 . S
C5125 C5123 1.433 . S
C5125 N5128 1.384 . S
C5126 H5117 0.929 . S
C5126 C5118 1.378 . S
C5126 C5121 1.350 . S
C5127 H5114 0.929 . S
C5127 C5119 1.433 . S
C5127 N5129 1.384 . S
N5128 C5124 1.427 . S
N5128 C5125 1.384 . S
N5129 C5121 1.427 . S
N5129 C5127 1.384 . S
H5130 C5136 0.930 . S
H5131 C5140 0.930 . S
H5132 C5145 0.929 . S
H5133 C5143 0.929 . S
H5134 C5138 0.929 . S
H5135 C5144 0.929 . S
C5136 H5130 0.930 . S
C5136 C5137 1.367 . S
C5136 C5144 1.378 . S
C5137 C5136 1.367 . S
C5137 C5145 1.433 . S
C5138 H5134 0.929 . S
C5138 C5140 1.378 . S
C5138 C5142 1.350 . S
C5139 C5142 1.463 . S
C5139 C5144 1.350 . S
C5139 N5147 1.427 . S
C5140 H5131 0.930 . S
C5140 C5138 1.378 . S
C5140 C5141 1.367 . S
C5141 C5140 1.367 . S
C5141 C5143 1.433 . S
C5142 C5138 1.350 . S
C5142 C5139 1.463 . S
C5142 N5146 1.427 . S
C5143 H5133 0.929 . S
C5143 C5141 1.433 . S
C5143 N5146 1.384 . S
C5144 H5135 0.929 . S
C5144 C5136 1.378 . S
C5144 C5139 1.350 . S
C5145 H5132 0.929 . S
C5145 C5137 1.433 . S
C5145 N5147 1.384 . S
N5146 C5142 1.427 . S
N5146 C5143 1.384 . S
N5147 C5139 1.427 . S
N5147 C5145 1.384 . S
H5148 C5154 0.930 . S
H5149 C5158 0.930 . S
H5150 C5163 0.929 . S
H5151 C5161 0.929 . S
H5152 C5156 0.929 . S
H5153 C5162 0.929 . S
C5154 H5148 0.930 . S
C5154 C5155 1.367 . S
C5154 C5162 1.378 . S
C5155 C5154 1.367 . S
C5155 C5163 1.433 . S
C5156 H5152 0.929 . S
C5156 C5158 1.378 . S
C5156 C5160 1.350 . S
C5157 C5160 1.463 . S
C5157 C5162 1.350 . S
C5157 N5165 1.427 . S
C5158 H5149 0.930 . S
C5158 C5156 1.378 . S
C5158 C5159 1.367 . S
C5159 C5158 1.367 . S
C5159 C5161 1.433 . S
C5160 C5156 1.350 . S
C5160 C5157 1.463 . S
C5160 N5164 1.427 . S
C5161 H5151 0.929 . S
C5161 C5159 1.433 . S
C5161 N5164 1.384 . S
C5162 H5153 0.929 . S
C5162 C5154 1.378 . S
C5162 C5157 1.350 . S
C5163 H5150 0.929 . S
C5163 C5155 1.433 . S
C5163 N5165 1.384 . S
N5164 C5160 1.427 . S
N5164 C5161 1.384 . S
N5165 C5157 1.427 . S
N5165 C5163 1.384 . S
H5166 C5172 0.930 . S
H5167 C5176 0.930 . S
H5168 C5181 0.929 . S
H5169 C5179 0.929 . S
H5170 C5174 0.929 . S
H5171 C5180 0.929 . S
C5172 H5166 0.930 . S
C5172 C5173 1.367 . S
C5172 C5180 1.378 . S
C5173 C5172 1.367 . S
C5173 C5181 1.433 . S
C5174 H5170 0.929 . S
C5174 C5176 1.378 . S
C5174 C5178 1.350 . S
C5175 C5178 1.463 . S
C5175 C5180 1.350 . S
C5175 N5183 1.427 . S
C5176 H5167 0.930 . S
C5176 C5174 1.378 . S
C5176 C5177 1.367 . S
C5177 C5176 1.367 . S
C5177 C5179 1.433 . S
C5178 C5174 1.350 . S
C5178 C5175 1.463 . S
C5178 N5182 1.427 . S
C5179 H5169 0.929 . S
C5179 C5177 1.433 . S
C5179 N5182 1.384 . S
C5180 H5171 0.929 . S
C5180 C5172 1.378 . S
C5180 C5175 1.350 . S
C5181 H5168 0.929 . S
C5181 C5173 1.433 . S
C5181 N5183 1.384 . S
N5182 C5178 1.427 . S
N5182 C5179 1.384 . S
N5183 C5175 1.427 . S
N5183 C5181 1.384 . S
H5184 C5190 0.930 . S
H5185 C5194 0.930 . S
H5186 C5199 0.929 . S
H5187 C5197 0.929 . S
H5188 C5192 0.929 . S
H5189 C5198 0.929 . S
C5190 H5184 0.930 . S
C5190 C5191 1.367 . S
C5190 C5198 1.378 . S
C5191 C5190 1.367 . S
C5191 C5199 1.433 . S
C5192 H5188 0.929 . S
C5192 C5194 1.378 . S
C5192 C5196 1.350 . S
C5193 C5196 1.463 . S
C5193 C5198 1.350 . S
C5193 N5201 1.427 . S
C5194 H5185 0.930 . S
C5194 C5192 1.378 . S
C5194 C5195 1.367 . S
C5195 C5194 1.367 . S
C5195 C5197 1.433 . S
C5196 C5192 1.350 . S
C5196 C5193 1.463 . S
C5196 N5200 1.427 . S
C5197 H5187 0.929 . S
C5197 C5195 1.433 . S
C5197 N5200 1.384 . S
C5198 H5189 0.929 . S
C5198 C5190 1.378 . S
C5198 C5193 1.350 . S
C5199 H5186 0.929 . S
C5199 C5191 1.433 . S
C5199 N5201 1.384 . S
N5200 C5196 1.427 . S
N5200 C5197 1.384 . S
N5201 C5193 1.427 . S
N5201 C5199 1.384 . S
H5202 C5208 0.930 . S
H5203 C5212 0.930 . S
H5204 C5217 0.929 . S
H5205 C5215 0.929 . S
H5206 C5210 0.929 . S
H5207 C5216 0.929 . S
C5208 H5202 0.930 . S
C5208 C5209 1.367 . S
C5208 C5216 1.378 . S
C5209 C5208 1.367 . S
C5209 C5217 1.433 . S
C5210 H5206 0.929 . S
C5210 C5212 1.378 . S
C5210 C5214 1.350 . S
C5211 C5214 1.463 . S
C5211 C5216 1.350 . S
C5211 N5219 1.427 . S
C5212 H5203 0.930 . S
C5212 C5210 1.378 . S
C5212 C5213 1.367 . S
C5213 C5212 1.367 . S
C5213 C5215 1.433 . S
C5214 C5210 1.350 . S
C5214 C5211 1.463 . S
C5214 N5218 1.427 . S
C5215 H5205 0.929 . S
C5215 C5213 1.433 . S
C5215 N5218 1.384 . S
C5216 H5207 0.929 . S
C5216 C5208 1.378 . S
C5216 C5211 1.350 . S
C5217 H5204 0.929 . S
C5217 C5209 1.433 . S
C5217 N5219 1.384 . S
N5218 C5214 1.427 . S
N5218 C5215 1.384 . S
N5219 C5211 1.427 . S
N5219 C5217 1.384 . S
H5220 C5226 0.930 . S
H5221 C5230 0.930 . S
H5222 C5235 0.929 . S
H5223 C5233 0.929 . S
H5224 C5228 0.929 . S
H5225 C5234 0.929 . S
C5226 H5220 0.930 . S
C5226 C5227 1.367 . S
C5226 C5234 1.378 . S
C5227 C5226 1.367 . S
C5227 C5235 1.433 . S
C5228 H5224 0.929 . S
C5228 C5230 1.378 . S
C5228 C5232 1.350 . S
C5229 C5232 1.463 . S
C5229 C5234 1.350 . S
C5229 N5237 1.427 . S
C5230 H5221 0.930 . S
C5230 C5228 1.378 . S
C5230 C5231 1.367 . S
C5231 C5230 1.367 . S
C5231 C5233 1.433 . S
C5232 C5228 1.350 . S
C5232 C5229 1.463 . S
C5232 N5236 1.427 . S
C5233 H5223 0.929 . S
C5233 C5231 1.433 . S
C5233 N5236 1.384 . S
C5234 H5225 0.929 . S
C5234 C5226 1.378 . S
C5234 C5229 1.350 . S
C5235 H5222 0.929 . S
C5235 C5227 1.433 . S
C5235 N5237 1.384 . S
N5236 C5232 1.427 . S
N5236 C5233 1.384 . S
N5237 C5229 1.427 . S
N5237 C5235 1.384 . S
H5238 C5244 0.930 . S
H5239 C5248 0.930 . S
H5240 C5253 0.929 . S
H5241 C5251 0.929 . S
H5242 C5246 0.929 . S
H5243 C5252 0.929 . S
C5244 H5238 0.930 . S
C5244 C5245 1.367 . S
C5244 C5252 1.378 . S
C5245 C5244 1.367 . S
C5245 C5253 1.433 . S
C5246 H5242 0.929 . S
C5246 C5248 1.378 . S
C5246 C5250 1.350 . S
C5247 C5250 1.463 . S
C5247 C5252 1.350 . S
C5247 N5255 1.427 . S
C5248 H5239 0.930 . S
C5248 C5246 1.378 . S
C5248 C5249 1.367 . S
C5249 C5248 1.367 . S
C5249 C5251 1.433 . S
C5250 C5246 1.350 . S
C5250 C5247 1.463 . S
C5250 N5254 1.427 . S
C5251 H5241 0.929 . S
C5251 C5249 1.433 . S
C5251 N5254 1.384 . S
C5252 H5243 0.929 . S
C5252 C5244 1.378 . S
C5252 C5247 1.350 . S
C5253 H5240 0.929 . S
C5253 C5245 1.433 . S
C5253 N5255 1.384 . S
N5254 C5250 1.427 . S
N5254 C5251 1.384 . S
N5255 C5247 1.427 . S
N5255 C5253 1.384 . S
H5256 C5262 0.930 . S
H5257 C5266 0.930 . S
H5258 C5271 0.929 . S
H5259 C5269 0.929 . S
H5260 C5264 0.929 . S
H5261 C5270 0.929 . S
C5262 H5256 0.930 . S
C5262 C5263 1.367 . S
C5262 C5270 1.378 . S
C5263 C5262 1.367 . S
C5263 C5271 1.433 . S
C5264 H5260 0.929 . S
C5264 C5266 1.378 . S
C5264 C5268 1.350 . S
C5265 C5268 1.463 . S
C5265 C5270 1.350 . S
C5265 N5273 1.427 . S
C5266 H5257 0.930 . S
C5266 C5264 1.378 . S
C5266 C5267 1.367 . S
C5267 C5266 1.367 . S
C5267 C5269 1.433 . S
C5268 C5264 1.350 . S
C5268 C5265 1.463 . S
C5268 N5272 1.427 . S
C5269 H5259 0.929 . S
C5269 C5267 1.433 . S
C5269 N5272 1.384 . S
C5270 H5261 0.929 . S
C5270 C5262 1.378 . S
C5270 C5265 1.350 . S
C5271 H5258 0.929 . S
C5271 C5263 1.433 . S
C5271 N5273 1.384 . S
N5272 C5268 1.427 . S
N5272 C5269 1.384 . S
N5273 C5265 1.427 . S
N5273 C5271 1.384 . S
H5274 C5280 0.930 . S
H5275 C5284 0.930 . S
H5276 C5289 0.929 . S
H5277 C5287 0.929 . S
H5278 C5282 0.929 . S
H5279 C5288 0.929 . S
C5280 H5274 0.930 . S
C5280 C5281 1.367 . S
C5280 C5288 1.378 . S
C5281 C5280 1.367 . S
C5281 C5289 1.433 . S
C5282 H5278 0.929 . S
C5282 C5284 1.378 . S
C5282 C5286 1.350 . S
C5283 C5286 1.463 . S
C5283 C5288 1.350 . S
C5283 N5291 1.427 . S
C5284 H5275 0.930 . S
C5284 C5282 1.378 . S
C5284 C5285 1.367 . S
C5285 C5284 1.367 . S
C5285 C5287 1.433 . S
C5286 C5282 1.350 . S
C5286 C5283 1.463 . S
C5286 N5290 1.427 . S
C5287 H5277 0.929 . S
C5287 C5285 1.433 . S
C5287 N5290 1.384 . S
C5288 H5279 0.929 . S
C5288 C5280 1.378 . S
C5288 C5283 1.350 . S
C5289 H5276 0.929 . S
C5289 C5281 1.433 . S
C5289 N5291 1.384 . S
N5290 C5286 1.427 . S
N5290 C5287 1.384 . S
N5291 C5283 1.427 . S
N5291 C5289 1.384 . S
H5292 C5298 0.930 . S
H5293 C5302 0.930 . S
H5294 C5307 0.929 . S
H5295 C5305 0.929 . S
H5296 C5300 0.929 . S
H5297 C5306 0.929 . S
C5298 H5292 0.930 . S
C5298 C5299 1.367 . S
C5298 C5306 1.378 . S
C5299 C5298 1.367 . S
C5299 C5307 1.433 . S
C5300 H5296 0.929 . S
C5300 C5302 1.378 . S
C5300 C5304 1.350 . S
C5301 C5304 1.463 . S
C5301 C5306 1.350 . S
C5301 N5309 1.427 . S
C5302 H5293 0.930 . S
C5302 C5300 1.378 . S
C5302 C5303 1.367 . S
C5303 C5302 1.367 . S
C5303 C5305 1.433 . S
C5304 C5300 1.350 . S
C5304 C5301 1.463 . S
C5304 N5308 1.427 . S
C5305 H5295 0.929 . S
C5305 C5303 1.433 . S
C5305 N5308 1.384 . S
C5306 H5297 0.929 . S
C5306 C5298 1.378 . S
C5306 C5301 1.350 . S
C5307 H5294 0.929 . S
C5307 C5299 1.433 . S
C5307 N5309 1.384 . S
N5308 C5304 1.427 . S
N5308 C5305 1.384 . S
N5309 C5301 1.427 . S
N5309 C5307 1.384 . S
H5310 C5316 0.930 . S
H5311 C5320 0.930 . S
H5312 C5325 0.929 . S
H5313 C5323 0.929 . S
H5314 C5318 0.929 . S
H5315 C5324 0.929 . S
C5316 H5310 0.930 . S
C5316 C5317 1.367 . S
C5316 C5324 1.378 . S
C5317 C5316 1.367 . S
C5317 C5325 1.433 . S
C5318 H5314 0.929 . S
C5318 C5320 1.378 . S
C5318 C5322 1.350 . S
C5319 C5322 1.463 . S
C5319 C5324 1.350 . S
C5319 N5327 1.427 . S
C5320 H5311 0.930 . S
C5320 C5318 1.378 . S
C5320 C5321 1.367 . S
C5321 C5320 1.367 . S
C5321 C5323 1.433 . S
C5322 C5318 1.350 . S
C5322 C5319 1.463 . S
C5322 N5326 1.427 . S
C5323 H5313 0.929 . S
C5323 C5321 1.433 . S
C5323 N5326 1.384 . S
C5324 H5315 0.929 . S
C5324 C5316 1.378 . S
C5324 C5319 1.350 . S
C5325 H5312 0.929 . S
C5325 C5317 1.433 . S
C5325 N5327 1.384 . S
N5326 C5322 1.427 . S
N5326 C5323 1.384 . S
N5327 C5319 1.427 . S
N5327 C5325 1.384 . S
H5328 C5334 0.930 . S
H5329 C5338 0.930 . S
H5330 C5343 0.929 . S
H5331 C5341 0.929 . S
H5332 C5336 0.929 . S
H5333 C5342 0.929 . S
C5334 H5328 0.930 . S
C5334 C5335 1.367 . S
C5334 C5342 1.378 . S
C5335 C5334 1.367 . S
C5335 C5343 1.433 . S
C5336 H5332 0.929 . S
C5336 C5338 1.378 . S
C5336 C5340 1.350 . S
C5337 C5340 1.463 . S
C5337 C5342 1.350 . S
C5337 N5345 1.427 . S
C5338 H5329 0.930 . S
C5338 C5336 1.378 . S
C5338 C5339 1.367 . S
C5339 C5338 1.367 . S
C5339 C5341 1.433 . S
C5340 C5336 1.350 . S
C5340 C5337 1.463 . S
C5340 N5344 1.427 . S
C5341 H5331 0.929 . S
C5341 C5339 1.433 . S
C5341 N5344 1.384 . S
C5342 H5333 0.929 . S
C5342 C5334 1.378 . S
C5342 C5337 1.350 . S
C5343 H5330 0.929 . S
C5343 C5335 1.433 . S
C5343 N5345 1.384 . S
N5344 C5340 1.427 . S
N5344 C5341 1.384 . S
N5345 C5337 1.427 . S
N5345 C5343 1.384 . S
H5346 C5352 0.930 . S
H5347 C5356 0.930 . S
H5348 C5361 0.929 . S
H5349 C5359 0.929 . S
H5350 C5354 0.929 . S
H5351 C5360 0.929 . S
C5352 H5346 0.930 . S
C5352 C5353 1.367 . S
C5352 C5360 1.378 . S
C5353 C5352 1.367 . S
C5353 C5361 1.433 . S
C5354 H5350 0.929 . S
C5354 C5356 1.378 . S
C5354 C5358 1.350 . S
C5355 C5358 1.463 . S
C5355 C5360 1.350 . S
C5355 N5363 1.427 . S
C5356 H5347 0.930 . S
C5356 C5354 1.378 . S
C5356 C5357 1.367 . S
C5357 C5356 1.367 . S
C5357 C5359 1.433 . S
C5358 C5354 1.350 . S
C5358 C5355 1.463 . S
C5358 N5362 1.427 . S
C5359 H5349 0.929 . S
C5359 C5357 1.433 . S
C5359 N5362 1.384 . S
C5360 H5351 0.929 . S
C5360 C5352 1.378 . S
C5360 C5355 1.350 . S
C5361 H5348 0.929 . S
C5361 C5353 1.433 . S
C5361 N5363 1.384 . S
N5362 C5358 1.427 . S
N5362 C5359 1.384 . S
N5363 C5355 1.427 . S
N5363 C5361 1.384 . S
H5364 C5370 0.930 . S
H5365 C5374 0.930 . S
H5366 C5379 0.929 . S
H5367 C5377 0.929 . S
H5368 C5372 0.929 . S
H5369 C5378 0.929 . S
C5370 H5364 0.930 . S
C5370 C5371 1.367 . S
C5370 C5378 1.378 . S
C5371 C5370 1.367 . S
C5371 C5379 1.433 . S
C5372 H5368 0.929 . S
C5372 C5374 1.378 . S
C5372 C5376 1.350 . S
C5373 C5376 1.463 . S
C5373 C5378 1.350 . S
C5373 N5381 1.427 . S
C5374 H5365 0.930 . S
C5374 C5372 1.378 . S
C5374 C5375 1.367 . S
C5375 C5374 1.367 . S
C5375 C5377 1.433 . S
C5376 C5372 1.350 . S
C5376 C5373 1.463 . S
C5376 N5380 1.427 . S
C5377 H5367 0.929 . S
C5377 C5375 1.433 . S
C5377 N5380 1.384 . S
C5378 H5369 0.929 . S
C5378 C5370 1.378 . S
C5378 C5373 1.350 . S
C5379 H5366 0.929 . S
C5379 C5371 1.433 . S
C5379 N5381 1.384 . S
N5380 C5376 1.427 . S
N5380 C5377 1.384 . S
N5381 C5373 1.427 . S
N5381 C5379 1.384 . S
H5382 C5388 0.930 . S
H5383 C5392 0.930 . S
H5384 C5397 0.929 . S
H5385 C5395 0.929 . S
H5386 C5390 0.929 . S
H5387 C5396 0.929 . S
C5388 H5382 0.930 . S
C5388 C5389 1.367 . S
C5388 C5396 1.378 . S
C5389 C5388 1.367 . S
C5389 C5397 1.433 . S
C5390 H5386 0.929 . S
C5390 C5392 1.378 . S
C5390 C5394 1.350 . S
C5391 C5394 1.463 . S
C5391 C5396 1.350 . S
C5391 N5399 1.427 . S
C5392 H5383 0.930 . S
C5392 C5390 1.378 . S
C5392 C5393 1.367 . S
C5393 C5392 1.367 . S
C5393 C5395 1.433 . S
C5394 C5390 1.350 . S
C5394 C5391 1.463 . S
C5394 N5398 1.427 . S
C5395 H5385 0.929 . S
C5395 C5393 1.433 . S
C5395 N5398 1.384 . S
C5396 H5387 0.929 . S
C5396 C5388 1.378 . S
C5396 C5391 1.350 . S
C5397 H5384 0.929 . S
C5397 C5389 1.433 . S
C5397 N5399 1.384 . S
N5398 C5394 1.427 . S
N5398 C5395 1.384 . S
N5399 C5391 1.427 . S
N5399 C5397 1.384 . S
H5400 C5406 0.930 . S
H5401 C5410 0.930 . S
H5402 C5415 0.929 . S
H5403 C5413 0.929 . S
H5404 C5408 0.929 . S
H5405 C5414 0.929 . S
C5406 H5400 0.930 . S
C5406 C5407 1.367 . S
C5406 C5414 1.378 . S
C5407 C5406 1.367 . S
C5407 C5415 1.433 . S
C5408 H5404 0.929 . S
C5408 C5410 1.378 . S
C5408 C5412 1.350 . S
C5409 C5412 1.463 . S
C5409 C5414 1.350 . S
C5409 N5417 1.427 . S
C5410 H5401 0.930 . S
C5410 C5408 1.378 . S
C5410 C5411 1.367 . S
C5411 C5410 1.367 . S
C5411 C5413 1.433 . S
C5412 C5408 1.350 . S
C5412 C5409 1.463 . S
C5412 N5416 1.427 . S
C5413 H5403 0.929 . S
C5413 C5411 1.433 . S
C5413 N5416 1.384 . S
C5414 H5405 0.929 . S
C5414 C5406 1.378 . S
C5414 C5409 1.350 . S
C5415 H5402 0.929 . S
C5415 C5407 1.433 . S
C5415 N5417 1.384 . S
N5416 C5412 1.427 . S
N5416 C5413 1.384 . S
N5417 C5409 1.427 . S
N5417 C5415 1.384 . S
H5418 C5424 0.930 . S
H5419 C5428 0.930 . S
H5420 C5433 0.929 . S
H5421 C5431 0.929 . S
H5422 C5426 0.929 . S
H5423 C5432 0.929 . S
C5424 H5418 0.930 . S
C5424 C5425 1.367 . S
C5424 C5432 1.378 . S
C5425 C5424 1.367 . S
C5425 C5433 1.433 . S
C5426 H5422 0.929 . S
C5426 C5428 1.378 . S
C5426 C5430 1.350 . S
C5427 C5430 1.463 . S
C5427 C5432 1.350 . S
C5427 N5435 1.427 . S
C5428 H5419 0.930 . S
C5428 C5426 1.378 . S
C5428 C5429 1.367 . S
C5429 C5428 1.367 . S
C5429 C5431 1.433 . S
C5430 C5426 1.350 . S
C5430 C5427 1.463 . S
C5430 N5434 1.427 . S
C5431 H5421 0.929 . S
C5431 C5429 1.433 . S
C5431 N5434 1.384 . S
C5432 H5423 0.929 . S
C5432 C5424 1.378 . S
C5432 C5427 1.350 . S
C5433 H5420 0.929 . S
C5433 C5425 1.433 . S
C5433 N5435 1.384 . S
N5434 C5430 1.427 . S
N5434 C5431 1.384 . S
N5435 C5427 1.427 . S
N5435 C5433 1.384 . S
H5436 C5442 0.930 . S
H5437 C5446 0.930 . S
H5438 C5451 0.929 . S
H5439 C5449 0.929 . S
H5440 C5444 0.929 . S
H5441 C5450 0.929 . S
C5442 H5436 0.930 . S
C5442 C5443 1.367 . S
C5442 C5450 1.378 . S
C5443 C5442 1.367 . S
C5443 C5451 1.433 . S
C5444 H5440 0.929 . S
C5444 C5446 1.378 . S
C5444 C5448 1.350 . S
C5445 C5448 1.463 . S
C5445 C5450 1.350 . S
C5445 N5453 1.427 . S
C5446 H5437 0.930 . S
C5446 C5444 1.378 . S
C5446 C5447 1.367 . S
C5447 C5446 1.367 . S
C5447 C5449 1.433 . S
C5448 C5444 1.350 . S
C5448 C5445 1.463 . S
C5448 N5452 1.427 . S
C5449 H5439 0.929 . S
C5449 C5447 1.433 . S
C5449 N5452 1.384 . S
C5450 H5441 0.929 . S
C5450 C5442 1.378 . S
C5450 C5445 1.350 . S
C5451 H5438 0.929 . S
C5451 C5443 1.433 . S
C5451 N5453 1.384 . S
N5452 C5448 1.427 . S
N5452 C5449 1.384 . S
N5453 C5445 1.427 . S
N5453 C5451 1.384 . S
H5454 C5460 0.930 . S
H5455 C5464 0.930 . S
H5456 C5469 0.929 . S
H5457 C5467 0.929 . S
H5458 C5462 0.929 . S
H5459 C5468 0.929 . S
C5460 H5454 0.930 . S
C5460 C5461 1.367 . S
C5460 C5468 1.378 . S
C5461 C5460 1.367 . S
C5461 C5469 1.433 . S
C5462 H5458 0.929 . S
C5462 C5464 1.378 . S
C5462 C5466 1.350 . S
C5463 C5466 1.463 . S
C5463 C5468 1.350 . S
C5463 N5471 1.427 . S
C5464 H5455 0.930 . S
C5464 C5462 1.378 . S
C5464 C5465 1.367 . S
C5465 C5464 1.367 . S
C5465 C5467 1.433 . S
C5466 C5462 1.350 . S
C5466 C5463 1.463 . S
C5466 N5470 1.427 . S
C5467 H5457 0.929 . S
C5467 C5465 1.433 . S
C5467 N5470 1.384 . S
C5468 H5459 0.929 . S
C5468 C5460 1.378 . S
C5468 C5463 1.350 . S
C5469 H5456 0.929 . S
C5469 C5461 1.433 . S
C5469 N5471 1.384 . S
N5470 C5466 1.427 . S
N5470 C5467 1.384 . S
N5471 C5463 1.427 . S
N5471 C5469 1.384 . S
H5472 C5478 0.930 . S
H5473 C5482 0.930 . S
H5474 C5487 0.929 . S
H5475 C5485 0.929 . S
H5476 C5480 0.929 . S
H5477 C5486 0.929 . S
C5478 H5472 0.930 . S
C5478 C5479 1.367 . S
C5478 C5486 1.378 . S
C5479 C5478 1.367 . S
C5479 C5487 1.433 . S
C5480 H5476 0.929 . S
C5480 C5482 1.378 . S
C5480 C5484 1.350 . S
C5481 C5484 1.463 . S
C5481 C5486 1.350 . S
C5481 N5489 1.427 . S
C5482 H5473 0.930 . S
C5482 C5480 1.378 . S
C5482 C5483 1.367 . S
C5483 C5482 1.367 . S
C5483 C5485 1.433 . S
C5484 C5480 1.350 . S
C5484 C5481 1.463 . S
C5484 N5488 1.427 . S
C5485 H5475 0.929 . S
C5485 C5483 1.433 . S
C5485 N5488 1.384 . S
C5486 H5477 0.929 . S
C5486 C5478 1.378 . S
C5486 C5481 1.350 . S
C5487 H5474 0.929 . S
C5487 C5479 1.433 . S
C5487 N5489 1.384 . S
N5488 C5484 1.427 . S
N5488 C5485 1.384 . S
N5489 C5481 1.427 . S
N5489 C5487 1.384 . S
H5490 C5496 0.930 . S
H5491 C5500 0.930 . S
H5492 C5505 0.929 . S
H5493 C5503 0.929 . S
H5494 C5498 0.929 . S
H5495 C5504 0.929 . S
C5496 H5490 0.930 . S
C5496 C5497 1.367 . S
C5496 C5504 1.378 . S
C5497 C5496 1.367 . S
C5497 C5505 1.433 . S
C5498 H5494 0.929 . S
C5498 C5500 1.378 . S
C5498 C5502 1.350 . S
C5499 C5502 1.463 . S
C5499 C5504 1.350 . S
C5499 N5507 1.427 . S
C5500 H5491 0.930 . S
C5500 C5498 1.378 . S
C5500 C5501 1.367 . S
C5501 C5500 1.367 . S
C5501 C5503 1.433 . S
C5502 C5498 1.350 . S
C5502 C5499 1.463 . S
C5502 N5506 1.427 . S
C5503 H5493 0.929 . S
C5503 C5501 1.433 . S
C5503 N5506 1.384 . S
C5504 H5495 0.929 . S
C5504 C5496 1.378 . S
C5504 C5499 1.350 . S
C5505 H5492 0.929 . S
C5505 C5497 1.433 . S
C5505 N5507 1.384 . S
N5506 C5502 1.427 . S
N5506 C5503 1.384 . S
N5507 C5499 1.427 . S
N5507 C5505 1.384 . S
H5508 C5514 0.930 . S
H5509 C5518 0.930 . S
H5510 C5523 0.929 . S
H5511 C5521 0.929 . S
H5512 C5516 0.929 . S
H5513 C5522 0.929 . S
C5514 H5508 0.930 . S
C5514 C5515 1.367 . S
C5514 C5522 1.378 . S
C5515 C5514 1.367 . S
C5515 C5523 1.433 . S
C5516 H5512 0.929 . S
C5516 C5518 1.378 . S
C5516 C5520 1.350 . S
C5517 C5520 1.463 . S
C5517 C5522 1.350 . S
C5517 N5525 1.427 . S
C5518 H5509 0.930 . S
C5518 C5516 1.378 . S
C5518 C5519 1.367 . S
C5519 C5518 1.367 . S
C5519 C5521 1.433 . S
C5520 C5516 1.350 . S
C5520 C5517 1.463 . S
C5520 N5524 1.427 . S
C5521 H5511 0.929 . S
C5521 C5519 1.433 . S
C5521 N5524 1.384 . S
C5522 H5513 0.929 . S
C5522 C5514 1.378 . S
C5522 C5517 1.350 . S
C5523 H5510 0.929 . S
C5523 C5515 1.433 . S
C5523 N5525 1.384 . S
N5524 C5520 1.427 . S
N5524 C5521 1.384 . S
N5525 C5517 1.427 . S
N5525 C5523 1.384 . S
H5526 C5532 0.930 . S
H5527 C5536 0.930 . S
H5528 C5541 0.929 . S
H5529 C5539 0.929 . S
H5530 C5534 0.929 . S
H5531 C5540 0.929 . S
C5532 H5526 0.930 . S
C5532 C5533 1.367 . S
C5532 C5540 1.378 . S
C5533 C5532 1.367 . S
C5533 C5541 1.433 . S
C5534 H5530 0.929 . S
C5534 C5536 1.378 . S
C5534 C5538 1.350 . S
C5535 C5538 1.463 . S
C5535 C5540 1.350 . S
C5535 N5543 1.427 . S
C5536 H5527 0.930 . S
C5536 C5534 1.378 . S
C5536 C5537 1.367 . S
C5537 C5536 1.367 . S
C5537 C5539 1.433 . S
C5538 C5534 1.350 . S
C5538 C5535 1.463 . S
C5538 N5542 1.427 . S
C5539 H5529 0.929 . S
C5539 C5537 1.433 . S
C5539 N5542 1.384 . S
C5540 H5531 0.929 . S
C5540 C5532 1.378 . S
C5540 C5535 1.350 . S
C5541 H5528 0.929 . S
C5541 C5533 1.433 . S
C5541 N5543 1.384 . S
N5542 C5538 1.427 . S
N5542 C5539 1.384 . S
N5543 C5535 1.427 . S
N5543 C5541 1.384 . S
H5544 C5550 0.930 . S
H5545 C5554 0.930 . S
H5546 C5559 0.929 . S
H5547 C5557 0.929 . S
H5548 C5552 0.929 . S
H5549 C5558 0.929 . S
C5550 H5544 0.930 . S
C5550 C5551 1.367 . S
C5550 C5558 1.378 . S
C5551 C5550 1.367 . S
C5551 C5559 1.433 . S
C5552 H5548 0.929 . S
C5552 C5554 1.378 . S
C5552 C5556 1.350 . S
C5553 C5556 1.463 . S
C5553 C5558 1.350 . S
C5553 N5561 1.427 . S
C5554 H5545 0.930 . S
C5554 C5552 1.378 . S
C5554 C5555 1.367 . S
C5555 C5554 1.367 . S
C5555 C5557 1.433 . S
C5556 C5552 1.350 . S
C5556 C5553 1.463 . S
C5556 N5560 1.427 . S
C5557 H5547 0.929 . S
C5557 C5555 1.433 . S
C5557 N5560 1.384 . S
C5558 H5549 0.929 . S
C5558 C5550 1.378 . S
C5558 C5553 1.350 . S
C5559 H5546 0.929 . S
C5559 C5551 1.433 . S
C5559 N5561 1.384 . S
N5560 C5556 1.427 . S
N5560 C5557 1.384 . S
N5561 C5553 1.427 . S
N5561 C5559 1.384 . S
H5562 C5568 0.930 . S
H5563 C5572 0.930 . S
H5564 C5577 0.929 . S
H5565 C5575 0.929 . S
H5566 C5570 0.929 . S
H5567 C5576 0.929 . S
C5568 H5562 0.930 . S
C5568 C5569 1.367 . S
C5568 C5576 1.378 . S
C5569 C5568 1.367 . S
C5569 C5577 1.433 . S
C5570 H5566 0.929 . S
C5570 C5572 1.378 . S
C5570 C5574 1.350 . S
C5571 C5574 1.463 . S
C5571 C5576 1.350 . S
C5571 N5579 1.427 . S
C5572 H5563 0.930 . S
C5572 C5570 1.378 . S
C5572 C5573 1.367 . S
C5573 C5572 1.367 . S
C5573 C5575 1.433 . S
C5574 C5570 1.350 . S
C5574 C5571 1.463 . S
C5574 N5578 1.427 . S
C5575 H5565 0.929 . S
C5575 C5573 1.433 . S
C5575 N5578 1.384 . S
C5576 H5567 0.929 . S
C5576 C5568 1.378 . S
C5576 C5571 1.350 . S
C5577 H5564 0.929 . S
C5577 C5569 1.433 . S
C5577 N5579 1.384 . S
N5578 C5574 1.427 . S
N5578 C5575 1.384 . S
N5579 C5571 1.427 . S
N5579 C5577 1.384 . S
H5580 C5586 0.930 . S
H5581 C5590 0.930 . S
H5582 C5595 0.929 . S
H5583 C5593 0.929 . S
H5584 C5588 0.929 . S
H5585 C5594 0.929 . S
C5586 H5580 0.930 . S
C5586 C5587 1.367 . S
C5586 C5594 1.378 . S
C5587 C5586 1.367 . S
C5587 C5595 1.433 . S
C5588 H5584 0.929 . S
C5588 C5590 1.378 . S
C5588 C5592 1.350 . S
C5589 C5592 1.463 . S
C5589 C5594 1.350 . S
C5589 N5597 1.427 . S
C5590 H5581 0.930 . S
C5590 C5588 1.378 . S
C5590 C5591 1.367 . S
C5591 C5590 1.367 . S
C5591 C5593 1.433 . S
C5592 C5588 1.350 . S
C5592 C5589 1.463 . S
C5592 N5596 1.427 . S
C5593 H5583 0.929 . S
C5593 C5591 1.433 . S
C5593 N5596 1.384 . S
C5594 H5585 0.929 . S
C5594 C5586 1.378 . S
C5594 C5589 1.350 . S
C5595 H5582 0.929 . S
C5595 C5587 1.433 . S
C5595 N5597 1.384 . S
N5596 C5592 1.427 . S
N5596 C5593 1.384 . S
N5597 C5589 1.427 . S
N5597 C5595 1.384 . S
H5598 C5604 0.930 . S
H5599 C5608 0.930 . S
H5600 C5613 0.929 . S
H5601 C5611 0.929 . S
H5602 C5606 0.929 . S
H5603 C5612 0.929 . S
C5604 H5598 0.930 . S
C5604 C5605 1.367 . S
C5604 C5612 1.378 . S
C5605 C5604 1.367 . S
C5605 C5613 1.433 . S
C5606 H5602 0.929 . S
C5606 C5608 1.378 . S
C5606 C5610 1.350 . S
C5607 C5610 1.463 . S
C5607 C5612 1.350 . S
C5607 N5615 1.427 . S
C5608 H5599 0.930 . S
C5608 C5606 1.378 . S
C5608 C5609 1.367 . S
C5609 C5608 1.367 . S
C5609 C5611 1.433 . S
C5610 C5606 1.350 . S
C5610 C5607 1.463 . S
C5610 N5614 1.427 . S
C5611 H5601 0.929 . S
C5611 C5609 1.433 . S
C5611 N5614 1.384 . S
C5612 H5603 0.929 . S
C5612 C5604 1.378 . S
C5612 C5607 1.350 . S
C5613 H5600 0.929 . S
C5613 C5605 1.433 . S
C5613 N5615 1.384 . S
N5614 C5610 1.427 . S
N5614 C5611 1.384 . S
N5615 C5607 1.427 . S
N5615 C5613 1.384 . S
H5616 C5622 0.930 . S
H5617 C5626 0.930 . S
H5618 C5631 0.929 . S
H5619 C5629 0.929 . S
H5620 C5624 0.929 . S
H5621 C5630 0.929 . S
C5622 H5616 0.930 . S
C5622 C5623 1.367 . S
C5622 C5630 1.378 . S
C5623 C5622 1.367 . S
C5623 C5631 1.433 . S
C5624 H5620 0.929 . S
C5624 C5626 1.378 . S
C5624 C5628 1.350 . S
C5625 C5628 1.463 . S
C5625 C5630 1.350 . S
C5625 N5633 1.427 . S
C5626 H5617 0.930 . S
C5626 C5624 1.378 . S
C5626 C5627 1.367 . S
C5627 C5626 1.367 . S
C5627 C5629 1.433 . S
C5628 C5624 1.350 . S
C5628 C5625 1.463 . S
C5628 N5632 1.427 . S
C5629 H5619 0.929 . S
C5629 C5627 1.433 . S
C5629 N5632 1.384 . S
C5630 H5621 0.929 . S
C5630 C5622 1.378 . S
C5630 C5625 1.350 . S
C5631 H5618 0.929 . S
C5631 C5623 1.433 . S
C5631 N5633 1.384 . S
N5632 C5628 1.427 . S
N5632 C5629 1.384 . S
N5633 C5625 1.427 . S
N5633 C5631 1.384 . S
H5634 C5640 0.930 . S
H5635 C5644 0.930 . S
H5636 C5649 0.929 . S
H5637 C5647 0.929 . S
H5638 C5642 0.929 . S
H5639 C5648 0.929 . S
C5640 H5634 0.930 . S
C5640 C5641 1.367 . S
C5640 C5648 1.378 . S
C5641 C5640 1.367 . S
C5641 C5649 1.433 . S
C5642 H5638 0.929 . S
C5642 C5644 1.378 . S
C5642 C5646 1.350 . S
C5643 C5646 1.463 . S
C5643 C5648 1.350 . S
C5643 N5651 1.427 . S
C5644 H5635 0.930 . S
C5644 C5642 1.378 . S
C5644 C5645 1.367 . S
C5645 C5644 1.367 . S
C5645 C5647 1.433 . S
C5646 C5642 1.350 . S
C5646 C5643 1.463 . S
C5646 N5650 1.427 . S
C5647 H5637 0.929 . S
C5647 C5645 1.433 . S
C5647 N5650 1.384 . S
C5648 H5639 0.929 . S
C5648 C5640 1.378 . S
C5648 C5643 1.350 . S
C5649 H5636 0.929 . S
C5649 C5641 1.433 . S
C5649 N5651 1.384 . S
N5650 C5646 1.427 . S
N5650 C5647 1.384 . S
N5651 C5643 1.427 . S
N5651 C5649 1.384 . S
H5652 C5658 0.930 . S
H5653 C5662 0.930 . S
H5654 C5667 0.929 . S
H5655 C5665 0.929 . S
H5656 C5660 0.929 . S
H5657 C5666 0.929 . S
C5658 H5652 0.930 . S
C5658 C5659 1.367 . S
C5658 C5666 1.378 . S
C5659 C5658 1.367 . S
C5659 C5667 1.433 . S
C5660 H5656 0.929 . S
C5660 C5662 1.378 . S
C5660 C5664 1.350 . S
C5661 C5664 1.463 . S
C5661 C5666 1.350 . S
C5661 N5669 1.427 . S
C5662 H5653 0.930 . S
C5662 C5660 1.378 . S
C5662 C5663 1.367 . S
C5663 C5662 1.367 . S
C5663 C5665 1.433 . S
C5664 C5660 1.350 . S
C5664 C5661 1.463 . S
C5664 N5668 1.427 . S
C5665 H5655 0.929 . S
C5665 C5663 1.433 . S
C5665 N5668 1.384 . S
C5666 H5657 0.929 . S
C5666 C5658 1.378 . S
C5666 C5661 1.350 . S
C5667 H5654 0.929 . S
C5667 C5659 1.433 . S
C5667 N5669 1.384 . S
N5668 C5664 1.427 . S
N5668 C5665 1.384 . S
N5669 C5661 1.427 . S
N5669 C5667 1.384 . S
H5670 C5676 0.930 . S
H5671 C5680 0.930 . S
H5672 C5685 0.929 . S
H5673 C5683 0.929 . S
H5674 C5678 0.929 . S
H5675 C5684 0.929 . S
C5676 H5670 0.930 . S
C5676 C5677 1.367 . S
C5676 C5684 1.378 . S
C5677 C5676 1.367 . S
C5677 C5685 1.433 . S
C5678 H5674 0.929 . S
C5678 C5680 1.378 . S
C5678 C5682 1.350 . S
C5679 C5682 1.463 . S
C5679 C5684 1.350 . S
C5679 N5687 1.427 . S
C5680 H5671 0.930 . S
C5680 C5678 1.378 . S
C5680 C5681 1.367 . S
C5681 C5680 1.367 . S
C5681 C5683 1.433 . S
C5682 C5678 1.350 . S
C5682 C5679 1.463 . S
C5682 N5686 1.427 . S
C5683 H5673 0.929 . S
C5683 C5681 1.433 . S
C5683 N5686 1.384 . S
C5684 H5675 0.929 . S
C5684 C5676 1.378 . S
C5684 C5679 1.350 . S
C5685 H5672 0.929 . S
C5685 C5677 1.433 . S
C5685 N5687 1.384 . S
N5686 C5682 1.427 . S
N5686 C5683 1.384 . S
N5687 C5679 1.427 . S
N5687 C5685 1.384 . S
H5688 C5694 0.930 . S
H5689 C5698 0.930 . S
H5690 C5703 0.929 . S
H5691 C5701 0.929 . S
H5692 C5696 0.929 . S
H5693 C5702 0.929 . S
C5694 H5688 0.930 . S
C5694 C5695 1.367 . S
C5694 C5702 1.378 . S
C5695 C5694 1.367 . S
C5695 C5703 1.433 . S
C5696 H5692 0.929 . S
C5696 C5698 1.378 . S
C5696 C5700 1.350 . S
C5697 C5700 1.463 . S
C5697 C5702 1.350 . S
C5697 N5705 1.427 . S
C5698 H5689 0.930 . S
C5698 C5696 1.378 . S
C5698 C5699 1.367 . S
C5699 C5698 1.367 . S
C5699 C5701 1.433 . S
C5700 C5696 1.350 . S
C5700 C5697 1.463 . S
C5700 N5704 1.427 . S
C5701 H5691 0.929 . S
C5701 C5699 1.433 . S
C5701 N5704 1.384 . S
C5702 H5693 0.929 . S
C5702 C5694 1.378 . S
C5702 C5697 1.350 . S
C5703 H5690 0.929 . S
C5703 C5695 1.433 . S
C5703 N5705 1.384 . S
N5704 C5700 1.427 . S
N5704 C5701 1.384 . S
N5705 C5697 1.427 . S
N5705 C5703 1.384 . S
H5706 C5712 0.930 . S
H5707 C5716 0.930 . S
H5708 C5721 0.929 . S
H5709 C5719 0.929 . S
H5710 C5714 0.929 . S
H5711 C5720 0.929 . S
C5712 H5706 0.930 . S
C5712 C5713 1.367 . S
C5712 C5720 1.378 . S
C5713 C5712 1.367 . S
C5713 C5721 1.433 . S
C5714 H5710 0.929 . S
C5714 C5716 1.378 . S
C5714 C5718 1.350 . S
C5715 C5718 1.463 . S
C5715 C5720 1.350 . S
C5715 N5723 1.427 . S
C5716 H5707 0.930 . S
C5716 C5714 1.378 . S
C5716 C5717 1.367 . S
C5717 C5716 1.367 . S
C5717 C5719 1.433 . S
C5718 C5714 1.350 . S
C5718 C5715 1.463 . S
C5718 N5722 1.427 . S
C5719 H5709 0.929 . S
C5719 C5717 1.433 . S
C5719 N5722 1.384 . S
C5720 H5711 0.929 . S
C5720 C5712 1.378 . S
C5720 C5715 1.350 . S
C5721 H5708 0.929 . S
C5721 C5713 1.433 . S
C5721 N5723 1.384 . S
N5722 C5718 1.427 . S
N5722 C5719 1.384 . S
N5723 C5715 1.427 . S
N5723 C5721 1.384 . S
H5724 C5730 0.930 . S
H5725 C5734 0.930 . S
H5726 C5739 0.929 . S
H5727 C5737 0.929 . S
H5728 C5732 0.929 . S
H5729 C5738 0.929 . S
C5730 H5724 0.930 . S
C5730 C5731 1.367 . S
C5730 C5738 1.378 . S
C5731 C5730 1.367 . S
C5731 C5739 1.433 . S
C5732 H5728 0.929 . S
C5732 C5734 1.378 . S
C5732 C5736 1.350 . S
C5733 C5736 1.463 . S
C5733 C5738 1.350 . S
C5733 N5741 1.427 . S
C5734 H5725 0.930 . S
C5734 C5732 1.378 . S
C5734 C5735 1.367 . S
C5735 C5734 1.367 . S
C5735 C5737 1.433 . S
C5736 C5732 1.350 . S
C5736 C5733 1.463 . S
C5736 N5740 1.427 . S
C5737 H5727 0.929 . S
C5737 C5735 1.433 . S
C5737 N5740 1.384 . S
C5738 H5729 0.929 . S
C5738 C5730 1.378 . S
C5738 C5733 1.350 . S
C5739 H5726 0.929 . S
C5739 C5731 1.433 . S
C5739 N5741 1.384 . S
N5740 C5736 1.427 . S
N5740 C5737 1.384 . S
N5741 C5733 1.427 . S
N5741 C5739 1.384 . S
H5742 C5748 0.930 . S
H5743 C5752 0.930 . S
H5744 C5757 0.929 . S
H5745 C5755 0.929 . S
H5746 C5750 0.929 . S
H5747 C5756 0.929 . S
C5748 H5742 0.930 . S
C5748 C5749 1.367 . S
C5748 C5756 1.378 . S
C5749 C5748 1.367 . S
C5749 C5757 1.433 . S
C5750 H5746 0.929 . S
C5750 C5752 1.378 . S
C5750 C5754 1.350 . S
C5751 C5754 1.463 . S
C5751 C5756 1.350 . S
C5751 N5759 1.427 . S
C5752 H5743 0.930 . S
C5752 C5750 1.378 . S
C5752 C5753 1.367 . S
C5753 C5752 1.367 . S
C5753 C5755 1.433 . S
C5754 C5750 1.350 . S
C5754 C5751 1.463 . S
C5754 N5758 1.427 . S
C5755 H5745 0.929 . S
C5755 C5753 1.433 . S
C5755 N5758 1.384 . S
C5756 H5747 0.929 . S
C5756 C5748 1.378 . S
C5756 C5751 1.350 . S
C5757 H5744 0.929 . S
C5757 C5749 1.433 . S
C5757 N5759 1.384 . S
N5758 C5754 1.427 . S
N5758 C5755 1.384 . S
N5759 C5751 1.427 . S
N5759 C5757 1.384 . S
H5760 C5766 0.930 . S
H5761 C5770 0.930 . S
H5762 C5775 0.929 . S
H5763 C5773 0.929 . S
H5764 C5768 0.929 . S
H5765 C5774 0.929 . S
C5766 H5760 0.930 . S
C5766 C5767 1.367 . S
C5766 C5774 1.378 . S
C5767 C5766 1.367 . S
C5767 C5775 1.433 . S
C5768 H5764 0.929 . S
C5768 C5770 1.378 . S
C5768 C5772 1.350 . S
C5769 C5772 1.463 . S
C5769 C5774 1.350 . S
C5769 N5777 1.427 . S
C5770 H5761 0.930 . S
C5770 C5768 1.378 . S
C5770 C5771 1.367 . S
C5771 C5770 1.367 . S
C5771 C5773 1.433 . S
C5772 C5768 1.350 . S
C5772 C5769 1.463 . S
C5772 N5776 1.427 . S
C5773 H5763 0.929 . S
C5773 C5771 1.433 . S
C5773 N5776 1.384 . S
C5774 H5765 0.929 . S
C5774 C5766 1.378 . S
C5774 C5769 1.350 . S
C5775 H5762 0.929 . S
C5775 C5767 1.433 . S
C5775 N5777 1.384 . S
N5776 C5772 1.427 . S
N5776 C5773 1.384 . S
N5777 C5769 1.427 . S
N5777 C5775 1.384 . S
H5778 C5784 0.930 . S
H5779 C5788 0.930 . S
H5780 C5793 0.929 . S
H5781 C5791 0.929 . S
H5782 C5786 0.929 . S
H5783 C5792 0.929 . S
C5784 H5778 0.930 . S
C5784 C5785 1.367 . S
C5784 C5792 1.378 . S
C5785 C5784 1.367 . S
C5785 C5793 1.433 . S
C5786 H5782 0.929 . S
C5786 C5788 1.378 . S
C5786 C5790 1.350 . S
C5787 C5790 1.463 . S
C5787 C5792 1.350 . S
C5787 N5795 1.427 . S
C5788 H5779 0.930 . S
C5788 C5786 1.378 . S
C5788 C5789 1.367 . S
C5789 C5788 1.367 . S
C5789 C5791 1.433 . S
C5790 C5786 1.350 . S
C5790 C5787 1.463 . S
C5790 N5794 1.427 . S
C5791 H5781 0.929 . S
C5791 C5789 1.433 . S
C5791 N5794 1.384 . S
C5792 H5783 0.929 . S
C5792 C5784 1.378 . S
C5792 C5787 1.350 . S
C5793 H5780 0.929 . S
C5793 C5785 1.433 . S
C5793 N5795 1.384 . S
N5794 C5790 1.427 . S
N5794 C5791 1.384 . S
N5795 C5787 1.427 . S
N5795 C5793 1.384 . S
H5796 C5802 0.930 . S
H5797 C5806 0.930 . S
H5798 C5811 0.929 . S
H5799 C5809 0.929 . S
H5800 C5804 0.929 . S
H5801 C5810 0.929 . S
C5802 H5796 0.930 . S
C5802 C5803 1.367 . S
C5802 C5810 1.378 . S
C5803 C5802 1.367 . S
C5803 C5811 1.433 . S
C5804 H5800 0.929 . S
C5804 C5806 1.378 . S
C5804 C5808 1.350 . S
C5805 C5808 1.463 . S
C5805 C5810 1.350 . S
C5805 N5813 1.427 . S
C5806 H5797 0.930 . S
C5806 C5804 1.378 . S
C5806 C5807 1.367 . S
C5807 C5806 1.367 . S
C5807 C5809 1.433 . S
C5808 C5804 1.350 . S
C5808 C5805 1.463 . S
C5808 N5812 1.427 . S
C5809 H5799 0.929 . S
C5809 C5807 1.433 . S
C5809 N5812 1.384 . S
C5810 H5801 0.929 . S
C5810 C5802 1.378 . S
C5810 C5805 1.350 . S
C5811 H5798 0.929 . S
C5811 C5803 1.433 . S
C5811 N5813 1.384 . S
N5812 C5808 1.427 . S
N5812 C5809 1.384 . S
N5813 C5805 1.427 . S
N5813 C5811 1.384 . S
H5814 C5820 0.930 . S
H5815 C5824 0.930 . S
H5816 C5829 0.929 . S
H5817 C5827 0.929 . S
H5818 C5822 0.929 . S
H5819 C5828 0.929 . S
C5820 H5814 0.930 . S
C5820 C5821 1.367 . S
C5820 C5828 1.378 . S
C5821 C5820 1.367 . S
C5821 C5829 1.433 . S
C5822 H5818 0.929 . S
C5822 C5824 1.378 . S
C5822 C5826 1.350 . S
C5823 C5826 1.463 . S
C5823 C5828 1.350 . S
C5823 N5831 1.427 . S
C5824 H5815 0.930 . S
C5824 C5822 1.378 . S
C5824 C5825 1.367 . S
C5825 C5824 1.367 . S
C5825 C5827 1.433 . S
C5826 C5822 1.350 . S
C5826 C5823 1.463 . S
C5826 N5830 1.427 . S
C5827 H5817 0.929 . S
C5827 C5825 1.433 . S
C5827 N5830 1.384 . S
C5828 H5819 0.929 . S
C5828 C5820 1.378 . S
C5828 C5823 1.350 . S
C5829 H5816 0.929 . S
C5829 C5821 1.433 . S
C5829 N5831 1.384 . S
N5830 C5826 1.427 . S
N5830 C5827 1.384 . S
N5831 C5823 1.427 . S
N5831 C5829 1.384 . S
H5832 C5838 0.930 . S
H5833 C5842 0.930 . S
H5834 C5847 0.929 . S
H5835 C5845 0.929 . S
H5836 C5840 0.929 . S
H5837 C5846 0.929 . S
C5838 H5832 0.930 . S
C5838 C5839 1.367 . S
C5838 C5846 1.378 . S
C5839 C5838 1.367 . S
C5839 C5847 1.433 . S
C5840 H5836 0.929 . S
C5840 C5842 1.378 . S
C5840 C5844 1.350 . S
C5841 C5844 1.463 . S
C5841 C5846 1.350 . S
C5841 N5849 1.427 . S
C5842 H5833 0.930 . S
C5842 C5840 1.378 . S
C5842 C5843 1.367 . S
C5843 C5842 1.367 . S
C5843 C5845 1.433 . S
C5844 C5840 1.350 . S
C5844 C5841 1.463 . S
C5844 N5848 1.427 . S
C5845 H5835 0.929 . S
C5845 C5843 1.433 . S
C5845 N5848 1.384 . S
C5846 H5837 0.929 . S
C5846 C5838 1.378 . S
C5846 C5841 1.350 . S
C5847 H5834 0.929 . S
C5847 C5839 1.433 . S
C5847 N5849 1.384 . S
N5848 C5844 1.427 . S
N5848 C5845 1.384 . S
N5849 C5841 1.427 . S
N5849 C5847 1.384 . S
H5850 C5856 0.930 . S
H5851 C5860 0.930 . S
H5852 C5865 0.929 . S
H5853 C5863 0.929 . S
H5854 C5858 0.929 . S
H5855 C5864 0.929 . S
C5856 H5850 0.930 . S
C5856 C5857 1.367 . S
C5856 C5864 1.378 . S
C5857 C5856 1.367 . S
C5857 C5865 1.433 . S
C5858 H5854 0.929 . S
C5858 C5860 1.378 . S
C5858 C5862 1.350 . S
C5859 C5862 1.463 . S
C5859 C5864 1.350 . S
C5859 N5867 1.427 . S
C5860 H5851 0.930 . S
C5860 C5858 1.378 . S
C5860 C5861 1.367 . S
C5861 C5860 1.367 . S
C5861 C5863 1.433 . S
C5862 C5858 1.350 . S
C5862 C5859 1.463 . S
C5862 N5866 1.427 . S
C5863 H5853 0.929 . S
C5863 C5861 1.433 . S
C5863 N5866 1.384 . S
C5864 H5855 0.929 . S
C5864 C5856 1.378 . S
C5864 C5859 1.350 . S
C5865 H5852 0.929 . S
C5865 C5857 1.433 . S
C5865 N5867 1.384 . S
N5866 C5862 1.427 . S
N5866 C5863 1.384 . S
N5867 C5859 1.427 . S
N5867 C5865 1.384 . S
H5868 C5874 0.930 . S
H5869 C5878 0.930 . S
H5870 C5883 0.929 . S
H5871 C5881 0.929 . S
H5872 C5876 0.929 . S
H5873 C5882 0.929 . S
C5874 H5868 0.930 . S
C5874 C5875 1.367 . S
C5874 C5882 1.378 . S
C5875 C5874 1.367 . S
C5875 C5883 1.433 . S
C5876 H5872 0.929 . S
C5876 C5878 1.378 . S
C5876 C5880 1.350 . S
C5877 C5880 1.463 . S
C5877 C5882 1.350 . S
C5877 N5885 1.427 . S
C5878 H5869 0.930 . S
C5878 C5876 1.378 . S
C5878 C5879 1.367 . S
C5879 C5878 1.367 . S
C5879 C5881 1.433 . S
C5880 C5876 1.350 . S
C5880 C5877 1.463 . S
C5880 N5884 1.427 . S
C5881 H5871 0.929 . S
C5881 C5879 1.433 . S
C5881 N5884 1.384 . S
C5882 H5873 0.929 . S
C5882 C5874 1.378 . S
C5882 C5877 1.350 . S
C5883 H5870 0.929 . S
C5883 C5875 1.433 . S
C5883 N5885 1.384 . S
N5884 C5880 1.427 . S
N5884 C5881 1.384 . S
N5885 C5877 1.427 . S
N5885 C5883 1.384 . S
H5886 C5892 0.930 . S
H5887 C5896 0.930 . S
H5888 C5901 0.929 . S
H5889 C5899 0.929 . S
H5890 C5894 0.929 . S
H5891 C5900 0.929 . S
C5892 H5886 0.930 . S
C5892 C5893 1.367 . S
C5892 C5900 1.378 . S
C5893 C5892 1.367 . S
C5893 C5901 1.433 . S
C5894 H5890 0.929 . S
C5894 C5896 1.378 . S
C5894 C5898 1.350 . S
C5895 C5898 1.463 . S
C5895 C5900 1.350 . S
C5895 N5903 1.427 . S
C5896 H5887 0.930 . S
C5896 C5894 1.378 . S
C5896 C5897 1.367 . S
C5897 C5896 1.367 . S
C5897 C5899 1.433 . S
C5898 C5894 1.350 . S
C5898 C5895 1.463 . S
C5898 N5902 1.427 . S
C5899 H5889 0.929 . S
C5899 C5897 1.433 . S
C5899 N5902 1.384 . S
C5900 H5891 0.929 . S
C5900 C5892 1.378 . S
C5900 C5895 1.350 . S
C5901 H5888 0.929 . S
C5901 C5893 1.433 . S
C5901 N5903 1.384 . S
N5902 C5898 1.427 . S
N5902 C5899 1.384 . S
N5903 C5895 1.427 . S
N5903 C5901 1.384 . S
H5904 C5910 0.930 . S
H5905 C5914 0.930 . S
H5906 C5919 0.929 . S
H5907 C5917 0.929 . S
H5908 C5912 0.929 . S
H5909 C5918 0.929 . S
C5910 H5904 0.930 . S
C5910 C5911 1.367 . S
C5910 C5918 1.378 . S
C5911 C5910 1.367 . S
C5911 C5919 1.433 . S
C5912 H5908 0.929 . S
C5912 C5914 1.378 . S
C5912 C5916 1.350 . S
C5913 C5916 1.463 . S
C5913 C5918 1.350 . S
C5913 N5921 1.427 . S
C5914 H5905 0.930 . S
C5914 C5912 1.378 . S
C5914 C5915 1.367 . S
C5915 C5914 1.367 . S
C5915 C5917 1.433 . S
C5916 C5912 1.350 . S
C5916 C5913 1.463 . S
C5916 N5920 1.427 . S
C5917 H5907 0.929 . S
C5917 C5915 1.433 . S
C5917 N5920 1.384 . S
C5918 H5909 0.929 . S
C5918 C5910 1.378 . S
C5918 C5913 1.350 . S
C5919 H5906 0.929 . S
C5919 C5911 1.433 . S
C5919 N5921 1.384 . S
N5920 C5916 1.427 . S
N5920 C5917 1.384 . S
N5921 C5913 1.427 . S
N5921 C5919 1.384 . S
H5922 C5928 0.930 . S
H5923 C5932 0.930 . S
H5924 C5937 0.929 . S
H5925 C5935 0.929 . S
H5926 C5930 0.929 . S
H5927 C5936 0.929 . S
C5928 H5922 0.930 . S
C5928 C5929 1.367 . S
C5928 C5936 1.378 . S
C5929 C5928 1.367 . S
C5929 C5937 1.433 . S
C5930 H5926 0.929 . S
C5930 C5932 1.378 . S
C5930 C5934 1.350 . S
C5931 C5934 1.463 . S
C5931 C5936 1.350 . S
C5931 N5939 1.427 . S
C5932 H5923 0.930 . S
C5932 C5930 1.378 . S
C5932 C5933 1.367 . S
C5933 C5932 1.367 . S
C5933 C5935 1.433 . S
C5934 C5930 1.350 . S
C5934 C5931 1.463 . S
C5934 N5938 1.427 . S
C5935 H5925 0.929 . S
C5935 C5933 1.433 . S
C5935 N5938 1.384 . S
C5936 H5927 0.929 . S
C5936 C5928 1.378 . S
C5936 C5931 1.350 . S
C5937 H5924 0.929 . S
C5937 C5929 1.433 . S
C5937 N5939 1.384 . S
N5938 C5934 1.427 . S
N5938 C5935 1.384 . S
N5939 C5931 1.427 . S
N5939 C5937 1.384 . S
H5940 C5946 0.930 . S
H5941 C5950 0.930 . S
H5942 C5955 0.929 . S
H5943 C5953 0.929 . S
H5944 C5948 0.929 . S
H5945 C5954 0.929 . S
C5946 H5940 0.930 . S
C5946 C5947 1.367 . S
C5946 C5954 1.378 . S
C5947 C5946 1.367 . S
C5947 C5955 1.433 . S
C5948 H5944 0.929 . S
C5948 C5950 1.378 . S
C5948 C5952 1.350 . S
C5949 C5952 1.463 . S
C5949 C5954 1.350 . S
C5949 N5957 1.427 . S
C5950 H5941 0.930 . S
C5950 C5948 1.378 . S
C5950 C5951 1.367 . S
C5951 C5950 1.367 . S
C5951 C5953 1.433 . S
C5952 C5948 1.350 . S
C5952 C5949 1.463 . S
C5952 N5956 1.427 . S
C5953 H5943 0.929 . S
C5953 C5951 1.433 . S
C5953 N5956 1.384 . S
C5954 H5945 0.929 . S
C5954 C5946 1.378 . S
C5954 C5949 1.350 . S
C5955 H5942 0.929 . S
C5955 C5947 1.433 . S
C5955 N5957 1.384 . S
N5956 C5952 1.427 . S
N5956 C5953 1.384 . S
N5957 C5949 1.427 . S
N5957 C5955 1.384 . S
H5958 C5964 0.930 . S
H5959 C5968 0.930 . S
H5960 C5973 0.929 . S
H5961 C5971 0.929 . S
H5962 C5966 0.929 . S
H5963 C5972 0.929 . S
C5964 H5958 0.930 . S
C5964 C5965 1.367 . S
C5964 C5972 1.378 . S
C5965 C5964 1.367 . S
C5965 C5973 1.433 . S
C5966 H5962 0.929 . S
C5966 C5968 1.378 . S
C5966 C5970 1.350 . S
C5967 C5970 1.463 . S
C5967 C5972 1.350 . S
C5967 N5975 1.427 . S
C5968 H5959 0.930 . S
C5968 C5966 1.378 . S
C5968 C5969 1.367 . S
C5969 C5968 1.367 . S
C5969 C5971 1.433 . S
C5970 C5966 1.350 . S
C5970 C5967 1.463 . S
C5970 N5974 1.427 . S
C5971 H5961 0.929 . S
C5971 C5969 1.433 . S
C5971 N5974 1.384 . S
C5972 H5963 0.929 . S
C5972 C5964 1.378 . S
C5972 C5967 1.350 . S
C5973 H5960 0.929 . S
C5973 C5965 1.433 . S
C5973 N5975 1.384 . S
N5974 C5970 1.427 . S
N5974 C5971 1.384 . S
N5975 C5967 1.427 . S
N5975 C5973 1.384 . S
H5976 C5982 0.930 . S
H5977 C5986 0.930 . S
H5978 C5991 0.929 . S
H5979 C5989 0.929 . S
H5980 C5984 0.929 . S
H5981 C5990 0.929 . S
C5982 H5976 0.930 . S
C5982 C5983 1.367 . S
C5982 C5990 1.378 . S
C5983 C5982 1.367 . S
C5983 C5991 1.433 . S
C5984 H5980 0.929 . S
C5984 C5986 1.378 . S
C5984 C5988 1.350 . S
C5985 C5988 1.463 . S
C5985 C5990 1.350 . S
C5985 N5993 1.427 . S
C5986 H5977 0.930 . S
C5986 C5984 1.378 . S
C5986 C5987 1.367 . S
C5987 C5986 1.367 . S
C5987 C5989 1.433 . S
C5988 C5984 1.350 . S
C5988 C5985 1.463 . S
C5988 N5992 1.427 . S
C5989 H5979 0.929 . S
C5989 C5987 1.433 . S
C5989 N5992 1.384 . S
C5990 H5981 0.929 . S
C5990 C5982 1.378 . S
C5990 C5985 1.350 . S
C5991 H5978 0.929 . S
C5991 C5983 1.433 . S
C5991 N5993 1.384 . S
N5992 C5988 1.427 . S
N5992 C5989 1.384 . S
N5993 C5985 1.427 . S
N5993 C5991 1.384 . S
H5994 C6000 0.930 . S
H5995 C6004 0.930 . S
H5996 C6009 0.929 . S
H5997 C6007 0.929 . S
H5998 C6002 0.929 . S
H5999 C6008 0.929 . S
C6000 H5994 0.930 . S
C6000 C6001 1.367 . S
C6000 C6008 1.378 . S
C6001 C6000 1.367 . S
C6001 C6009 1.433 . S
C6002 H5998 0.929 . S
C6002 C6004 1.378 . S
C6002 C6006 1.350 . S
C6003 C6006 1.463 . S
C6003 C6008 1.350 . S
C6003 N6011 1.427 . S
C6004 H5995 0.930 . S
C6004 C6002 1.378 . S
C6004 C6005 1.367 . S
C6005 C6004 1.367 . S
C6005 C6007 1.433 . S
C6006 C6002 1.350 . S
C6006 C6003 1.463 . S
C6006 N6010 1.427 . S
C6007 H5997 0.929 . S
C6007 C6005 1.433 . S
C6007 N6010 1.384 . S
C6008 H5999 0.929 . S
C6008 C6000 1.378 . S
C6008 C6003 1.350 . S
C6009 H5996 0.929 . S
C6009 C6001 1.433 . S
C6009 N6011 1.384 . S
N6010 C6006 1.427 . S
N6010 C6007 1.384 . S
N6011 C6003 1.427 . S
N6011 C6009 1.384 . S
H6012 C6018 0.930 . S
H6013 C6022 0.930 . S
H6014 C6027 0.929 . S
H6015 C6025 0.929 . S
H6016 C6020 0.929 . S
H6017 C6026 0.929 . S
C6018 H6012 0.930 . S
C6018 C6019 1.367 . S
C6018 C6026 1.378 . S
C6019 C6018 1.367 . S
C6019 C6027 1.433 . S
C6020 H6016 0.929 . S
C6020 C6022 1.378 . S
C6020 C6024 1.350 . S
C6021 C6024 1.463 . S
C6021 C6026 1.350 . S
C6021 N6029 1.427 . S
C6022 H6013 0.930 . S
C6022 C6020 1.378 . S
C6022 C6023 1.367 . S
C6023 C6022 1.367 . S
C6023 C6025 1.433 . S
C6024 C6020 1.350 . S
C6024 C6021 1.463 . S
C6024 N6028 1.427 . S
C6025 H6015 0.929 . S
C6025 C6023 1.433 . S
C6025 N6028 1.384 . S
C6026 H6017 0.929 . S
C6026 C6018 1.378 . S
C6026 C6021 1.350 . S
C6027 H6014 0.929 . S
C6027 C6019 1.433 . S
C6027 N6029 1.384 . S
N6028 C6024 1.427 . S
N6028 C6025 1.384 . S
N6029 C6021 1.427 . S
N6029 C6027 1.384 . S
H6030 C6036 0.930 . S
H6031 C6040 0.930 . S
H6032 C6045 0.929 . S
H6033 C6043 0.929 . S
H6034 C6038 0.929 . S
H6035 C6044 0.929 . S
C6036 H6030 0.930 . S
C6036 C6037 1.367 . S
C6036 C6044 1.378 . S
C6037 C6036 1.367 . S
C6037 C6045 1.433 . S
C6038 H6034 0.929 . S
C6038 C6040 1.378 . S
C6038 C6042 1.350 . S
C6039 C6042 1.463 . S
C6039 C6044 1.350 . S
C6039 N6047 1.427 . S
C6040 H6031 0.930 . S
C6040 C6038 1.378 . S
C6040 C6041 1.367 . S
C6041 C6040 1.367 . S
C6041 C6043 1.433 . S
C6042 C6038 1.350 . S
C6042 C6039 1.463 . S
C6042 N6046 1.427 . S
C6043 H6033 0.929 . S
C6043 C6041 1.433 . S
C6043 N6046 1.384 . S
C6044 H6035 0.929 . S
C6044 C6036 1.378 . S
C6044 C6039 1.350 . S
C6045 H6032 0.929 . S
C6045 C6037 1.433 . S
C6045 N6047 1.384 . S
N6046 C6042 1.427 . S
N6046 C6043 1.384 . S
N6047 C6039 1.427 . S
N6047 C6045 1.384 . S
H6048 C6054 0.930 . S
H6049 C6058 0.930 . S
H6050 C6063 0.929 . S
H6051 C6061 0.929 . S
H6052 C6056 0.929 . S
H6053 C6062 0.929 . S
C6054 H6048 0.930 . S
C6054 C6055 1.367 . S
C6054 C6062 1.378 . S
C6055 C6054 1.367 . S
C6055 C6063 1.433 . S
C6056 H6052 0.929 . S
C6056 C6058 1.378 . S
C6056 C6060 1.350 . S
C6057 C6060 1.463 . S
C6057 C6062 1.350 . S
C6057 N6065 1.427 . S
C6058 H6049 0.930 . S
C6058 C6056 1.378 . S
C6058 C6059 1.367 . S
C6059 C6058 1.367 . S
C6059 C6061 1.433 . S
C6060 C6056 1.350 . S
C6060 C6057 1.463 . S
C6060 N6064 1.427 . S
C6061 H6051 0.929 . S
C6061 C6059 1.433 . S
C6061 N6064 1.384 . S
C6062 H6053 0.929 . S
C6062 C6054 1.378 . S
C6062 C6057 1.350 . S
C6063 H6050 0.929 . S
C6063 C6055 1.433 . S
C6063 N6065 1.384 . S
N6064 C6060 1.427 . S
N6064 C6061 1.384 . S
N6065 C6057 1.427 . S
N6065 C6063 1.384 . S
H6066 C6072 0.930 . S
H6067 C6076 0.930 . S
H6068 C6081 0.929 . S
H6069 C6079 0.929 . S
H6070 C6074 0.929 . S
H6071 C6080 0.929 . S
C6072 H6066 0.930 . S
C6072 C6073 1.367 . S
C6072 C6080 1.378 . S
C6073 C6072 1.367 . S
C6073 C6081 1.433 . S
C6074 H6070 0.929 . S
C6074 C6076 1.378 . S
C6074 C6078 1.350 . S
C6075 C6078 1.463 . S
C6075 C6080 1.350 . S
C6075 N6083 1.427 . S
C6076 H6067 0.930 . S
C6076 C6074 1.378 . S
C6076 C6077 1.367 . S
C6077 C6076 1.367 . S
C6077 C6079 1.433 . S
C6078 C6074 1.350 . S
C6078 C6075 1.463 . S
C6078 N6082 1.427 . S
C6079 H6069 0.929 . S
C6079 C6077 1.433 . S
C6079 N6082 1.384 . S
C6080 H6071 0.929 . S
C6080 C6072 1.378 . S
C6080 C6075 1.350 . S
C6081 H6068 0.929 . S
C6081 C6073 1.433 . S
C6081 N6083 1.384 . S
N6082 C6078 1.427 . S
N6082 C6079 1.384 . S
N6083 C6075 1.427 . S
N6083 C6081 1.384 . S
H6084 C6090 0.930 . S
H6085 C6094 0.930 . S
H6086 C6099 0.929 . S
H6087 C6097 0.929 . S
H6088 C6092 0.929 . S
H6089 C6098 0.929 . S
C6090 H6084 0.930 . S
C6090 C6091 1.367 . S
C6090 C6098 1.378 . S
C6091 C6090 1.367 . S
C6091 C6099 1.433 . S
C6092 H6088 0.929 . S
C6092 C6094 1.378 . S
C6092 C6096 1.350 . S
C6093 C6096 1.463 . S
C6093 C6098 1.350 . S
C6093 N6101 1.427 . S
C6094 H6085 0.930 . S
C6094 C6092 1.378 . S
C6094 C6095 1.367 . S
C6095 C6094 1.367 . S
C6095 C6097 1.433 . S
C6096 C6092 1.350 . S
C6096 C6093 1.463 . S
C6096 N6100 1.427 . S
C6097 H6087 0.929 . S
C6097 C6095 1.433 . S
C6097 N6100 1.384 . S
C6098 H6089 0.929 . S
C6098 C6090 1.378 . S
C6098 C6093 1.350 . S
C6099 H6086 0.929 . S
C6099 C6091 1.433 . S
C6099 N6101 1.384 . S
N6100 C6096 1.427 . S
N6100 C6097 1.384 . S
N6101 C6093 1.427 . S
N6101 C6099 1.384 . S
H6102 C6108 0.930 . S
H6103 C6112 0.930 . S
H6104 C6117 0.929 . S
H6105 C6115 0.929 . S
H6106 C6110 0.929 . S
H6107 C6116 0.929 . S
C6108 H6102 0.930 . S
C6108 C6109 1.367 . S
C6108 C6116 1.378 . S
C6109 C6108 1.367 . S
C6109 C6117 1.433 . S
C6110 H6106 0.929 . S
C6110 C6112 1.378 . S
C6110 C6114 1.350 . S
C6111 C6114 1.463 . S
C6111 C6116 1.350 . S
C6111 N6119 1.427 . S
C6112 H6103 0.930 . S
C6112 C6110 1.378 . S
C6112 C6113 1.367 . S
C6113 C6112 1.367 . S
C6113 C6115 1.433 . S
C6114 C6110 1.350 . S
C6114 C6111 1.463 . S
C6114 N6118 1.427 . S
C6115 H6105 0.929 . S
C6115 C6113 1.433 . S
C6115 N6118 1.384 . S
C6116 H6107 0.929 . S
C6116 C6108 1.378 . S
C6116 C6111 1.350 . S
C6117 H6104 0.929 . S
C6117 C6109 1.433 . S
C6117 N6119 1.384 . S
N6118 C6114 1.427 . S
N6118 C6115 1.384 . S
N6119 C6111 1.427 . S
N6119 C6117 1.384 . S
H6120 C6126 0.930 . S
H6121 C6130 0.930 . S
H6122 C6135 0.929 . S
H6123 C6133 0.929 . S
H6124 C6128 0.929 . S
H6125 C6134 0.929 . S
C6126 H6120 0.930 . S
C6126 C6127 1.367 . S
C6126 C6134 1.378 . S
C6127 C6126 1.367 . S
C6127 C6135 1.433 . S
C6128 H6124 0.929 . S
C6128 C6130 1.378 . S
C6128 C6132 1.350 . S
C6129 C6132 1.463 . S
C6129 C6134 1.350 . S
C6129 N6137 1.427 . S
C6130 H6121 0.930 . S
C6130 C6128 1.378 . S
C6130 C6131 1.367 . S
C6131 C6130 1.367 . S
C6131 C6133 1.433 . S
C6132 C6128 1.350 . S
C6132 C6129 1.463 . S
C6132 N6136 1.427 . S
C6133 H6123 0.929 . S
C6133 C6131 1.433 . S
C6133 N6136 1.384 . S
C6134 H6125 0.929 . S
C6134 C6126 1.378 . S
C6134 C6129 1.350 . S
C6135 H6122 0.929 . S
C6135 C6127 1.433 . S
C6135 N6137 1.384 . S
N6136 C6132 1.427 . S
N6136 C6133 1.384 . S
N6137 C6129 1.427 . S
N6137 C6135 1.384 . S
H6138 C6144 0.930 . S
H6139 C6148 0.930 . S
H6140 C6153 0.929 . S
H6141 C6151 0.929 . S
H6142 C6146 0.929 . S
H6143 C6152 0.929 . S
C6144 H6138 0.930 . S
C6144 C6145 1.367 . S
C6144 C6152 1.378 . S
C6145 C6144 1.367 . S
C6145 C6153 1.433 . S
C6146 H6142 0.929 . S
C6146 C6148 1.378 . S
C6146 C6150 1.350 . S
C6147 C6150 1.463 . S
C6147 C6152 1.350 . S
C6147 N6155 1.427 . S
C6148 H6139 0.930 . S
C6148 C6146 1.378 . S
C6148 C6149 1.367 . S
C6149 C6148 1.367 . S
C6149 C6151 1.433 . S
C6150 C6146 1.350 . S
C6150 C6147 1.463 . S
C6150 N6154 1.427 . S
C6151 H6141 0.929 . S
C6151 C6149 1.433 . S
C6151 N6154 1.384 . S
C6152 H6143 0.929 . S
C6152 C6144 1.378 . S
C6152 C6147 1.350 . S
C6153 H6140 0.929 . S
C6153 C6145 1.433 . S
C6153 N6155 1.384 . S
N6154 C6150 1.427 . S
N6154 C6151 1.384 . S
N6155 C6147 1.427 . S
N6155 C6153 1.384 . S
H6156 C6162 0.930 . S
H6157 C6166 0.930 . S
H6158 C6171 0.929 . S
H6159 C6169 0.929 . S
H6160 C6164 0.929 . S
H6161 C6170 0.929 . S
C6162 H6156 0.930 . S
C6162 C6163 1.367 . S
C6162 C6170 1.378 . S
C6163 C6162 1.367 . S
C6163 C6171 1.433 . S
C6164 H6160 0.929 . S
C6164 C6166 1.378 . S
C6164 C6168 1.350 . S
C6165 C6168 1.463 . S
C6165 C6170 1.350 . S
C6165 N6173 1.427 . S
C6166 H6157 0.930 . S
C6166 C6164 1.378 . S
C6166 C6167 1.367 . S
C6167 C6166 1.367 . S
C6167 C6169 1.433 . S
C6168 C6164 1.350 . S
C6168 C6165 1.463 . S
C6168 N6172 1.427 . S
C6169 H6159 0.929 . S
C6169 C6167 1.433 . S
C6169 N6172 1.384 . S
C6170 H6161 0.929 . S
C6170 C6162 1.378 . S
C6170 C6165 1.350 . S
C6171 H6158 0.929 . S
C6171 C6163 1.433 . S
C6171 N6173 1.384 . S
N6172 C6168 1.427 . S
N6172 C6169 1.384 . S
N6173 C6165 1.427 . S
N6173 C6171 1.384 . S
H6174 C6180 0.930 . S
H6175 C6184 0.930 . S
H6176 C6189 0.929 . S
H6177 C6187 0.929 . S
H6178 C6182 0.929 . S
H6179 C6188 0.929 . S
C6180 H6174 0.930 . S
C6180 C6181 1.367 . S
C6180 C6188 1.378 . S
C6181 C6180 1.367 . S
C6181 C6189 1.433 . S
C6182 H6178 0.929 . S
C6182 C6184 1.378 . S
C6182 C6186 1.350 . S
C6183 C6186 1.463 . S
C6183 C6188 1.350 . S
C6183 N6191 1.427 . S
C6184 H6175 0.930 . S
C6184 C6182 1.378 . S
C6184 C6185 1.367 . S
C6185 C6184 1.367 . S
C6185 C6187 1.433 . S
C6186 C6182 1.350 . S
C6186 C6183 1.463 . S
C6186 N6190 1.427 . S
C6187 H6177 0.929 . S
C6187 C6185 1.433 . S
C6187 N6190 1.384 . S
C6188 H6179 0.929 . S
C6188 C6180 1.378 . S
C6188 C6183 1.350 . S
C6189 H6176 0.929 . S
C6189 C6181 1.433 . S
C6189 N6191 1.384 . S
N6190 C6186 1.427 . S
N6190 C6187 1.384 . S
N6191 C6183 1.427 . S
N6191 C6189 1.384 . S
H6192 C6198 0.930 . S
H6193 C6202 0.930 . S
H6194 C6207 0.929 . S
H6195 C6205 0.929 . S
H6196 C6200 0.929 . S
H6197 C6206 0.929 . S
C6198 H6192 0.930 . S
C6198 C6199 1.367 . S
C6198 C6206 1.378 . S
C6199 C6198 1.367 . S
C6199 C6207 1.433 . S
C6200 H6196 0.929 . S
C6200 C6202 1.378 . S
C6200 C6204 1.350 . S
C6201 C6204 1.463 . S
C6201 C6206 1.350 . S
C6201 N6209 1.427 . S
C6202 H6193 0.930 . S
C6202 C6200 1.378 . S
C6202 C6203 1.367 . S
C6203 C6202 1.367 . S
C6203 C6205 1.433 . S
C6204 C6200 1.350 . S
C6204 C6201 1.463 . S
C6204 N6208 1.427 . S
C6205 H6195 0.929 . S
C6205 C6203 1.433 . S
C6205 N6208 1.384 . S
C6206 H6197 0.929 . S
C6206 C6198 1.378 . S
C6206 C6201 1.350 . S
C6207 H6194 0.929 . S
C6207 C6199 1.433 . S
C6207 N6209 1.384 . S
N6208 C6204 1.427 . S
N6208 C6205 1.384 . S
N6209 C6201 1.427 . S
N6209 C6207 1.384 . S
H6210 C6216 0.930 . S
H6211 C6220 0.930 . S
H6212 C6225 0.929 . S
H6213 C6223 0.929 . S
H6214 C6218 0.929 . S
H6215 C6224 0.929 . S
C6216 H6210 0.930 . S
C6216 C6217 1.367 . S
C6216 C6224 1.378 . S
C6217 C6216 1.367 . S
C6217 C6225 1.433 . S
C6218 H6214 0.929 . S
C6218 C6220 1.378 . S
C6218 C6222 1.350 . S
C6219 C6222 1.463 . S
C6219 C6224 1.350 . S
C6219 N6227 1.427 . S
C6220 H6211 0.930 . S
C6220 C6218 1.378 . S
C6220 C6221 1.367 . S
C6221 C6220 1.367 . S
C6221 C6223 1.433 . S
C6222 C6218 1.350 . S
C6222 C6219 1.463 . S
C6222 N6226 1.427 . S
C6223 H6213 0.929 . S
C6223 C6221 1.433 . S
C6223 N6226 1.384 . S
C6224 H6215 0.929 . S
C6224 C6216 1.378 . S
C6224 C6219 1.350 . S
C6225 H6212 0.929 . S
C6225 C6217 1.433 . S
C6225 N6227 1.384 . S
N6226 C6222 1.427 . S
N6226 C6223 1.384 . S
N6227 C6219 1.427 . S
N6227 C6225 1.384 . S
H6228 C6234 0.930 . S
H6229 C6238 0.930 . S
H6230 C6243 0.929 . S
H6231 C6241 0.929 . S
H6232 C6236 0.929 . S
H6233 C6242 0.929 . S
C6234 H6228 0.930 . S
C6234 C6235 1.367 . S
C6234 C6242 1.378 . S
C6235 C6234 1.367 . S
C6235 C6243 1.433 . S
C6236 H6232 0.929 . S
C6236 C6238 1.378 . S
C6236 C6240 1.350 . S
C6237 C6240 1.463 . S
C6237 C6242 1.350 . S
C6237 N6245 1.427 . S
C6238 H6229 0.930 . S
C6238 C6236 1.378 . S
C6238 C6239 1.367 . S
C6239 C6238 1.367 . S
C6239 C6241 1.433 . S
C6240 C6236 1.350 . S
C6240 C6237 1.463 . S
C6240 N6244 1.427 . S
C6241 H6231 0.929 . S
C6241 C6239 1.433 . S
C6241 N6244 1.384 . S
C6242 H6233 0.929 . S
C6242 C6234 1.378 . S
C6242 C6237 1.350 . S
C6243 H6230 0.929 . S
C6243 C6235 1.433 . S
C6243 N6245 1.384 . S
N6244 C6240 1.427 . S
N6244 C6241 1.384 . S
N6245 C6237 1.427 . S
N6245 C6243 1.384 . S
H6246 C6252 0.930 . S
H6247 C6256 0.930 . S
H6248 C6261 0.929 . S
H6249 C6259 0.929 . S
H6250 C6254 0.929 . S
H6251 C6260 0.929 . S
C6252 H6246 0.930 . S
C6252 C6253 1.367 . S
C6252 C6260 1.378 . S
C6253 C6252 1.367 . S
C6253 C6261 1.433 . S
C6254 H6250 0.929 . S
C6254 C6256 1.378 . S
C6254 C6258 1.350 . S
C6255 C6258 1.463 . S
C6255 C6260 1.350 . S
C6255 N6263 1.427 . S
C6256 H6247 0.930 . S
C6256 C6254 1.378 . S
C6256 C6257 1.367 . S
C6257 C6256 1.367 . S
C6257 C6259 1.433 . S
C6258 C6254 1.350 . S
C6258 C6255 1.463 . S
C6258 N6262 1.427 . S
C6259 H6249 0.929 . S
C6259 C6257 1.433 . S
C6259 N6262 1.384 . S
C6260 H6251 0.929 . S
C6260 C6252 1.378 . S
C6260 C6255 1.350 . S
C6261 H6248 0.929 . S
C6261 C6253 1.433 . S
C6261 N6263 1.384 . S
N6262 C6258 1.427 . S
N6262 C6259 1.384 . S
N6263 C6255 1.427 . S
N6263 C6261 1.384 . S
H6264 C6270 0.930 . S
H6265 C6274 0.930 . S
H6266 C6279 0.929 . S
H6267 C6277 0.929 . S
H6268 C6272 0.929 . S
H6269 C6278 0.929 . S
C6270 H6264 0.930 . S
C6270 C6271 1.367 . S
C6270 C6278 1.378 . S
C6271 C6270 1.367 . S
C6271 C6279 1.433 . S
C6272 H6268 0.929 . S
C6272 C6274 1.378 . S
C6272 C6276 1.350 . S
C6273 C6276 1.463 . S
C6273 C6278 1.350 . S
C6273 N6281 1.427 . S
C6274 H6265 0.930 . S
C6274 C6272 1.378 . S
C6274 C6275 1.367 . S
C6275 C6274 1.367 . S
C6275 C6277 1.433 . S
C6276 C6272 1.350 . S
C6276 C6273 1.463 . S
C6276 N6280 1.427 . S
C6277 H6267 0.929 . S
C6277 C6275 1.433 . S
C6277 N6280 1.384 . S
C6278 H6269 0.929 . S
C6278 C6270 1.378 . S
C6278 C6273 1.350 . S
C6279 H6266 0.929 . S
C6279 C6271 1.433 . S
C6279 N6281 1.384 . S
N6280 C6276 1.427 . S
N6280 C6277 1.384 . S
N6281 C6273 1.427 . S
N6281 C6279 1.384 . S
H6282 C6288 0.930 . S
H6283 C6292 0.930 . S
H6284 C6297 0.929 . S
H6285 C6295 0.929 . S
H6286 C6290 0.929 . S
H6287 C6296 0.929 . S
C6288 H6282 0.930 . S
C6288 C6289 1.367 . S
C6288 C6296 1.378 . S
C6289 C6288 1.367 . S
C6289 C6297 1.433 . S
C6290 H6286 0.929 . S
C6290 C6292 1.378 . S
C6290 C6294 1.350 . S
C6291 C6294 1.463 . S
C6291 C6296 1.350 . S
C6291 N6299 1.427 . S
C6292 H6283 0.930 . S
C6292 C6290 1.378 . S
C6292 C6293 1.367 . S
C6293 C6292 1.367 . S
C6293 C6295 1.433 . S
C6294 C6290 1.350 . S
C6294 C6291 1.463 . S
C6294 N6298 1.427 . S
C6295 H6285 0.929 . S
C6295 C6293 1.433 . S
C6295 N6298 1.384 . S
C6296 H6287 0.929 . S
C6296 C6288 1.378 . S
C6296 C6291 1.350 . S
C6297 H6284 0.929 . S
C6297 C6289 1.433 . S
C6297 N6299 1.384 . S
N6298 C6294 1.427 . S
N6298 C6295 1.384 . S
N6299 C6291 1.427 . S
N6299 C6297 1.384 . S
H6300 C6306 0.930 . S
H6301 C6310 0.930 . S
H6302 C6315 0.929 . S
H6303 C6313 0.929 . S
H6304 C6308 0.929 . S
H6305 C6314 0.929 . S
C6306 H6300 0.930 . S
C6306 C6307 1.367 . S
C6306 C6314 1.378 . S
C6307 C6306 1.367 . S
C6307 C6315 1.433 . S
C6308 H6304 0.929 . S
C6308 C6310 1.378 . S
C6308 C6312 1.350 . S
C6309 C6312 1.463 . S
C6309 C6314 1.350 . S
C6309 N6317 1.427 . S
C6310 H6301 0.930 . S
C6310 C6308 1.378 . S
C6310 C6311 1.367 . S
C6311 C6310 1.367 . S
C6311 C6313 1.433 . S
C6312 C6308 1.350 . S
C6312 C6309 1.463 . S
C6312 N6316 1.427 . S
C6313 H6303 0.929 . S
C6313 C6311 1.433 . S
C6313 N6316 1.384 . S
C6314 H6305 0.929 . S
C6314 C6306 1.378 . S
C6314 C6309 1.350 . S
C6315 H6302 0.929 . S
C6315 C6307 1.433 . S
C6315 N6317 1.384 . S
N6316 C6312 1.427 . S
N6316 C6313 1.384 . S
N6317 C6309 1.427 . S
N6317 C6315 1.384 . S
H6318 C6324 0.930 . S
H6319 C6328 0.930 . S
H6320 C6333 0.929 . S
H6321 C6331 0.929 . S
H6322 C6326 0.929 . S
H6323 C6332 0.929 . S
C6324 H6318 0.930 . S
C6324 C6325 1.367 . S
C6324 C6332 1.378 . S
C6325 C6324 1.367 . S
C6325 C6333 1.433 . S
C6326 H6322 0.929 . S
C6326 C6328 1.378 . S
C6326 C6330 1.350 . S
C6327 C6330 1.463 . S
C6327 C6332 1.350 . S
C6327 N6335 1.427 . S
C6328 H6319 0.930 . S
C6328 C6326 1.378 . S
C6328 C6329 1.367 . S
C6329 C6328 1.367 . S
C6329 C6331 1.433 . S
C6330 C6326 1.350 . S
C6330 C6327 1.463 . S
C6330 N6334 1.427 . S
C6331 H6321 0.929 . S
C6331 C6329 1.433 . S
C6331 N6334 1.384 . S
C6332 H6323 0.929 . S
C6332 C6324 1.378 . S
C6332 C6327 1.350 . S
C6333 H6320 0.929 . S
C6333 C6325 1.433 . S
C6333 N6335 1.384 . S
N6334 C6330 1.427 . S
N6334 C6331 1.384 . S
N6335 C6327 1.427 . S
N6335 C6333 1.384 . S
H6336 C6342 0.930 . S
H6337 C6346 0.930 . S
H6338 C6351 0.929 . S
H6339 C6349 0.929 . S
H6340 C6344 0.929 . S
H6341 C6350 0.929 . S
C6342 H6336 0.930 . S
C6342 C6343 1.367 . S
C6342 C6350 1.378 . S
C6343 C6342 1.367 . S
C6343 C6351 1.433 . S
C6344 H6340 0.929 . S
C6344 C6346 1.378 . S
C6344 C6348 1.350 . S
C6345 C6348 1.463 . S
C6345 C6350 1.350 . S
C6345 N6353 1.427 . S
C6346 H6337 0.930 . S
C6346 C6344 1.378 . S
C6346 C6347 1.367 . S
C6347 C6346 1.367 . S
C6347 C6349 1.433 . S
C6348 C6344 1.350 . S
C6348 C6345 1.463 . S
C6348 N6352 1.427 . S
C6349 H6339 0.929 . S
C6349 C6347 1.433 . S
C6349 N6352 1.384 . S
C6350 H6341 0.929 . S
C6350 C6342 1.378 . S
C6350 C6345 1.350 . S
C6351 H6338 0.929 . S
C6351 C6343 1.433 . S
C6351 N6353 1.384 . S
N6352 C6348 1.427 . S
N6352 C6349 1.384 . S
N6353 C6345 1.427 . S
N6353 C6351 1.384 . S
H6354 C6360 0.930 . S
H6355 C6364 0.930 . S
H6356 C6369 0.929 . S
H6357 C6367 0.929 . S
H6358 C6362 0.929 . S
H6359 C6368 0.929 . S
C6360 H6354 0.930 . S
C6360 C6361 1.367 . S
C6360 C6368 1.378 . S
C6361 C6360 1.367 . S
C6361 C6369 1.433 . S
C6362 H6358 0.929 . S
C6362 C6364 1.378 . S
C6362 C6366 1.350 . S
C6363 C6366 1.463 . S
C6363 C6368 1.350 . S
C6363 N6371 1.427 . S
C6364 H6355 0.930 . S
C6364 C6362 1.378 . S
C6364 C6365 1.367 . S
C6365 C6364 1.367 . S
C6365 C6367 1.433 . S
C6366 C6362 1.350 . S
C6366 C6363 1.463 . S
C6366 N6370 1.427 . S
C6367 H6357 0.929 . S
C6367 C6365 1.433 . S
C6367 N6370 1.384 . S
C6368 H6359 0.929 . S
C6368 C6360 1.378 . S
C6368 C6363 1.350 . S
C6369 H6356 0.929 . S
C6369 C6361 1.433 . S
C6369 N6371 1.384 . S
N6370 C6366 1.427 . S
N6370 C6367 1.384 . S
N6371 C6363 1.427 . S
N6371 C6369 1.384 . S
H6372 C6378 0.930 . S
H6373 C6382 0.930 . S
H6374 C6387 0.929 . S
H6375 C6385 0.929 . S
H6376 C6380 0.929 . S
H6377 C6386 0.929 . S
C6378 H6372 0.930 . S
C6378 C6379 1.367 . S
C6378 C6386 1.378 . S
C6379 C6378 1.367 . S
C6379 C6387 1.433 . S
C6380 H6376 0.929 . S
C6380 C6382 1.378 . S
C6380 C6384 1.350 . S
C6381 C6384 1.463 . S
C6381 C6386 1.350 . S
C6381 N6389 1.427 . S
C6382 H6373 0.930 . S
C6382 C6380 1.378 . S
C6382 C6383 1.367 . S
C6383 C6382 1.367 . S
C6383 C6385 1.433 . S
C6384 C6380 1.350 . S
C6384 C6381 1.463 . S
C6384 N6388 1.427 . S
C6385 H6375 0.929 . S
C6385 C6383 1.433 . S
C6385 N6388 1.384 . S
C6386 H6377 0.929 . S
C6386 C6378 1.378 . S
C6386 C6381 1.350 . S
C6387 H6374 0.929 . S
C6387 C6379 1.433 . S
C6387 N6389 1.384 . S
N6388 C6384 1.427 . S
N6388 C6385 1.384 . S
N6389 C6381 1.427 . S
N6389 C6387 1.384 . S
H6390 C6396 0.930 . S
H6391 C6400 0.930 . S
H6392 C6405 0.929 . S
H6393 C6403 0.929 . S
H6394 C6398 0.929 . S
H6395 C6404 0.929 . S
C6396 H6390 0.930 . S
C6396 C6397 1.367 . S
C6396 C6404 1.378 . S
C6397 C6396 1.367 . S
C6397 C6405 1.433 . S
C6398 H6394 0.929 . S
C6398 C6400 1.378 . S
C6398 C6402 1.350 . S
C6399 C6402 1.463 . S
C6399 C6404 1.350 . S
C6399 N6407 1.427 . S
C6400 H6391 0.930 . S
C6400 C6398 1.378 . S
C6400 C6401 1.367 . S
C6401 C6400 1.367 . S
C6401 C6403 1.433 . S
C6402 C6398 1.350 . S
C6402 C6399 1.463 . S
C6402 N6406 1.427 . S
C6403 H6393 0.929 . S
C6403 C6401 1.433 . S
C6403 N6406 1.384 . S
C6404 H6395 0.929 . S
C6404 C6396 1.378 . S
C6404 C6399 1.350 . S
C6405 H6392 0.929 . S
C6405 C6397 1.433 . S
C6405 N6407 1.384 . S
N6406 C6402 1.427 . S
N6406 C6403 1.384 . S
N6407 C6399 1.427 . S
N6407 C6405 1.384 . S
H6408 C6414 0.930 . S
H6409 C6418 0.930 . S
H6410 C6423 0.929 . S
H6411 C6421 0.929 . S
H6412 C6416 0.929 . S
H6413 C6422 0.929 . S
C6414 H6408 0.930 . S
C6414 C6415 1.367 . S
C6414 C6422 1.378 . S
C6415 C6414 1.367 . S
C6415 C6423 1.433 . S
C6416 H6412 0.929 . S
C6416 C6418 1.378 . S
C6416 C6420 1.350 . S
C6417 C6420 1.463 . S
C6417 C6422 1.350 . S
C6417 N6425 1.427 . S
C6418 H6409 0.930 . S
C6418 C6416 1.378 . S
C6418 C6419 1.367 . S
C6419 C6418 1.367 . S
C6419 C6421 1.433 . S
C6420 C6416 1.350 . S
C6420 C6417 1.463 . S
C6420 N6424 1.427 . S
C6421 H6411 0.929 . S
C6421 C6419 1.433 . S
C6421 N6424 1.384 . S
C6422 H6413 0.929 . S
C6422 C6414 1.378 . S
C6422 C6417 1.350 . S
C6423 H6410 0.929 . S
C6423 C6415 1.433 . S
C6423 N6425 1.384 . S
N6424 C6420 1.427 . S
N6424 C6421 1.384 . S
N6425 C6417 1.427 . S
N6425 C6423 1.384 . S
H6426 C6432 0.930 . S
H6427 C6436 0.930 . S
H6428 C6441 0.929 . S
H6429 C6439 0.929 . S
H6430 C6434 0.929 . S
H6431 C6440 0.929 . S
C6432 H6426 0.930 . S
C6432 C6433 1.367 . S
C6432 C6440 1.378 . S
C6433 C6432 1.367 . S
C6433 C6441 1.433 . S
C6434 H6430 0.929 . S
C6434 C6436 1.378 . S
C6434 C6438 1.350 . S
C6435 C6438 1.463 . S
C6435 C6440 1.350 . S
C6435 N6443 1.427 . S
C6436 H6427 0.930 . S
C6436 C6434 1.378 . S
C6436 C6437 1.367 . S
C6437 C6436 1.367 . S
C6437 C6439 1.433 . S
C6438 C6434 1.350 . S
C6438 C6435 1.463 . S
C6438 N6442 1.427 . S
C6439 H6429 0.929 . S
C6439 C6437 1.433 . S
C6439 N6442 1.384 . S
C6440 H6431 0.929 . S
C6440 C6432 1.378 . S
C6440 C6435 1.350 . S
C6441 H6428 0.929 . S
C6441 C6433 1.433 . S
C6441 N6443 1.384 . S
N6442 C6438 1.427 . S
N6442 C6439 1.384 . S
N6443 C6435 1.427 . S
N6443 C6441 1.384 . S
H6444 C6450 0.930 . S
H6445 C6454 0.930 . S
H6446 C6459 0.929 . S
H6447 C6457 0.929 . S
H6448 C6452 0.929 . S
H6449 C6458 0.929 . S
C6450 H6444 0.930 . S
C6450 C6451 1.367 . S
C6450 C6458 1.378 . S
C6451 C6450 1.367 . S
C6451 C6459 1.433 . S
C6452 H6448 0.929 . S
C6452 C6454 1.378 . S
C6452 C6456 1.350 . S
C6453 C6456 1.463 . S
C6453 C6458 1.350 . S
C6453 N6461 1.427 . S
C6454 H6445 0.930 . S
C6454 C6452 1.378 . S
C6454 C6455 1.367 . S
C6455 C6454 1.367 . S
C6455 C6457 1.433 . S
C6456 C6452 1.350 . S
C6456 C6453 1.463 . S
C6456 N6460 1.427 . S
C6457 H6447 0.929 . S
C6457 C6455 1.433 . S
C6457 N6460 1.384 . S
C6458 H6449 0.929 . S
C6458 C6450 1.378 . S
C6458 C6453 1.350 . S
C6459 H6446 0.929 . S
C6459 C6451 1.433 . S
C6459 N6461 1.384 . S
N6460 C6456 1.427 . S
N6460 C6457 1.384 . S
N6461 C6453 1.427 . S
N6461 C6459 1.384 . S
H6462 C6468 0.930 . S
H6463 C6472 0.930 . S
H6464 C6477 0.929 . S
H6465 C6475 0.929 . S
H6466 C6470 0.929 . S
H6467 C6476 0.929 . S
C6468 H6462 0.930 . S
C6468 C6469 1.367 . S
C6468 C6476 1.378 . S
C6469 C6468 1.367 . S
C6469 C6477 1.433 . S
C6470 H6466 0.929 . S
C6470 C6472 1.378 . S
C6470 C6474 1.350 . S
C6471 C6474 1.463 . S
C6471 C6476 1.350 . S
C6471 N6479 1.427 . S
C6472 H6463 0.930 . S
C6472 C6470 1.378 . S
C6472 C6473 1.367 . S
C6473 C6472 1.367 . S
C6473 C6475 1.433 . S
C6474 C6470 1.350 . S
C6474 C6471 1.463 . S
C6474 N6478 1.427 . S
C6475 H6465 0.929 . S
C6475 C6473 1.433 . S
C6475 N6478 1.384 . S
C6476 H6467 0.929 . S
C6476 C6468 1.378 . S
C6476 C6471 1.350 . S
C6477 H6464 0.929 . S
C6477 C6469 1.433 . S
C6477 N6479 1.384 . S
N6478 C6474 1.427 . S
N6478 C6475 1.384 . S
N6479 C6471 1.427 . S
N6479 C6477 1.384 . S
H6480 C6486 0.930 . S
H6481 C6490 0.930 . S
H6482 C6495 0.929 . S
H6483 C6493 0.929 . S
H6484 C6488 0.929 . S
H6485 C6494 0.929 . S
C6486 H6480 0.930 . S
C6486 C6487 1.367 . S
C6486 C6494 1.378 . S
C6487 C6486 1.367 . S
C6487 C6495 1.433 . S
C6488 H6484 0.929 . S
C6488 C6490 1.378 . S
C6488 C6492 1.350 . S
C6489 C6492 1.463 . S
C6489 C6494 1.350 . S
C6489 N6497 1.427 . S
C6490 H6481 0.930 . S
C6490 C6488 1.378 . S
C6490 C6491 1.367 . S
C6491 C6490 1.367 . S
C6491 C6493 1.433 . S
C6492 C6488 1.350 . S
C6492 C6489 1.463 . S
C6492 N6496 1.427 . S
C6493 H6483 0.929 . S
C6493 C6491 1.433 . S
C6493 N6496 1.384 . S
C6494 H6485 0.929 . S
C6494 C6486 1.378 . S
C6494 C6489 1.350 . S
C6495 H6482 0.929 . S
C6495 C6487 1.433 . S
C6495 N6497 1.384 . S
N6496 C6492 1.427 . S
N6496 C6493 1.384 . S
N6497 C6489 1.427 . S
N6497 C6495 1.384 . S
H6498 C6504 0.930 . S
H6499 C6508 0.930 . S
H6500 C6513 0.929 . S
H6501 C6511 0.929 . S
H6502 C6506 0.929 . S
H6503 C6512 0.929 . S
C6504 H6498 0.930 . S
C6504 C6505 1.367 . S
C6504 C6512 1.378 . S
C6505 C6504 1.367 . S
C6505 C6513 1.433 . S
C6506 H6502 0.929 . S
C6506 C6508 1.378 . S
C6506 C6510 1.350 . S
C6507 C6510 1.463 . S
C6507 C6512 1.350 . S
C6507 N6515 1.427 . S
C6508 H6499 0.930 . S
C6508 C6506 1.378 . S
C6508 C6509 1.367 . S
C6509 C6508 1.367 . S
C6509 C6511 1.433 . S
C6510 C6506 1.350 . S
C6510 C6507 1.463 . S
C6510 N6514 1.427 . S
C6511 H6501 0.929 . S
C6511 C6509 1.433 . S
C6511 N6514 1.384 . S
C6512 H6503 0.929 . S
C6512 C6504 1.378 . S
C6512 C6507 1.350 . S
C6513 H6500 0.929 . S
C6513 C6505 1.433 . S
C6513 N6515 1.384 . S
N6514 C6510 1.427 . S
N6514 C6511 1.384 . S
N6515 C6507 1.427 . S
N6515 C6513 1.384 . S
H6516 C6522 0.930 . S
H6517 C6526 0.930 . S
H6518 C6531 0.929 . S
H6519 C6529 0.929 . S
H6520 C6524 0.929 . S
H6521 C6530 0.929 . S
C6522 H6516 0.930 . S
C6522 C6523 1.367 . S
C6522 C6530 1.378 . S
C6523 C6522 1.367 . S
C6523 C6531 1.433 . S
C6524 H6520 0.929 . S
C6524 C6526 1.378 . S
C6524 C6528 1.350 . S
C6525 C6528 1.463 . S
C6525 C6530 1.350 . S
C6525 N6533 1.427 . S
C6526 H6517 0.930 . S
C6526 C6524 1.378 . S
C6526 C6527 1.367 . S
C6527 C6526 1.367 . S
C6527 C6529 1.433 . S
C6528 C6524 1.350 . S
C6528 C6525 1.463 . S
C6528 N6532 1.427 . S
C6529 H6519 0.929 . S
C6529 C6527 1.433 . S
C6529 N6532 1.384 . S
C6530 H6521 0.929 . S
C6530 C6522 1.378 . S
C6530 C6525 1.350 . S
C6531 H6518 0.929 . S
C6531 C6523 1.433 . S
C6531 N6533 1.384 . S
N6532 C6528 1.427 . S
N6532 C6529 1.384 . S
N6533 C6525 1.427 . S
N6533 C6531 1.384 . S
H6534 C6540 0.930 . S
H6535 C6544 0.930 . S
H6536 C6549 0.929 . S
H6537 C6547 0.929 . S
H6538 C6542 0.929 . S
H6539 C6548 0.929 . S
C6540 H6534 0.930 . S
C6540 C6541 1.367 . S
C6540 C6548 1.378 . S
C6541 C6540 1.367 . S
C6541 C6549 1.433 . S
C6542 H6538 0.929 . S
C6542 C6544 1.378 . S
C6542 C6546 1.350 . S
C6543 C6546 1.463 . S
C6543 C6548 1.350 . S
C6543 N6551 1.427 . S
C6544 H6535 0.930 . S
C6544 C6542 1.378 . S
C6544 C6545 1.367 . S
C6545 C6544 1.367 . S
C6545 C6547 1.433 . S
C6546 C6542 1.350 . S
C6546 C6543 1.463 . S
C6546 N6550 1.427 . S
C6547 H6537 0.929 . S
C6547 C6545 1.433 . S
C6547 N6550 1.384 . S
C6548 H6539 0.929 . S
C6548 C6540 1.378 . S
C6548 C6543 1.350 . S
C6549 H6536 0.929 . S
C6549 C6541 1.433 . S
C6549 N6551 1.384 . S
N6550 C6546 1.427 . S
N6550 C6547 1.384 . S
N6551 C6543 1.427 . S
N6551 C6549 1.384 . S
H6552 C6558 0.930 . S
H6553 C6562 0.930 . S
H6554 C6567 0.929 . S
H6555 C6565 0.929 . S
H6556 C6560 0.929 . S
H6557 C6566 0.929 . S
C6558 H6552 0.930 . S
C6558 C6559 1.367 . S
C6558 C6566 1.378 . S
C6559 C6558 1.367 . S
C6559 C6567 1.433 . S
C6560 H6556 0.929 . S
C6560 C6562 1.378 . S
C6560 C6564 1.350 . S
C6561 C6564 1.463 . S
C6561 C6566 1.350 . S
C6561 N6569 1.427 . S
C6562 H6553 0.930 . S
C6562 C6560 1.378 . S
C6562 C6563 1.367 . S
C6563 C6562 1.367 . S
C6563 C6565 1.433 . S
C6564 C6560 1.350 . S
C6564 C6561 1.463 . S
C6564 N6568 1.427 . S
C6565 H6555 0.929 . S
C6565 C6563 1.433 . S
C6565 N6568 1.384 . S
C6566 H6557 0.929 . S
C6566 C6558 1.378 . S
C6566 C6561 1.350 . S
C6567 H6554 0.929 . S
C6567 C6559 1.433 . S
C6567 N6569 1.384 . S
N6568 C6564 1.427 . S
N6568 C6565 1.384 . S
N6569 C6561 1.427 . S
N6569 C6567 1.384 . S
H6570 C6576 0.930 . S
H6571 C6580 0.930 . S
H6572 C6585 0.929 . S
H6573 C6583 0.929 . S
H6574 C6578 0.929 . S
H6575 C6584 0.929 . S
C6576 H6570 0.930 . S
C6576 C6577 1.367 . S
C6576 C6584 1.378 . S
C6577 C6576 1.367 . S
C6577 C6585 1.433 . S
C6578 H6574 0.929 . S
C6578 C6580 1.378 . S
C6578 C6582 1.350 . S
C6579 C6582 1.463 . S
C6579 C6584 1.350 . S
C6579 N6587 1.427 . S
C6580 H6571 0.930 . S
C6580 C6578 1.378 . S
C6580 C6581 1.367 . S
C6581 C6580 1.367 . S
C6581 C6583 1.433 . S
C6582 C6578 1.350 . S
C6582 C6579 1.463 . S
C6582 N6586 1.427 . S
C6583 H6573 0.929 . S
C6583 C6581 1.433 . S
C6583 N6586 1.384 . S
C6584 H6575 0.929 . S
C6584 C6576 1.378 . S
C6584 C6579 1.350 . S
C6585 H6572 0.929 . S
C6585 C6577 1.433 . S
C6585 N6587 1.384 . S
N6586 C6582 1.427 . S
N6586 C6583 1.384 . S
N6587 C6579 1.427 . S
N6587 C6585 1.384 . S
H6588 C6594 0.930 . S
H6589 C6598 0.930 . S
H6590 C6603 0.929 . S
H6591 C6601 0.929 . S
H6592 C6596 0.929 . S
H6593 C6602 0.929 . S
C6594 H6588 0.930 . S
C6594 C6595 1.367 . S
C6594 C6602 1.378 . S
C6595 C6594 1.367 . S
C6595 C6603 1.433 . S
C6596 H6592 0.929 . S
C6596 C6598 1.378 . S
C6596 C6600 1.350 . S
C6597 C6600 1.463 . S
C6597 C6602 1.350 . S
C6597 N6605 1.427 . S
C6598 H6589 0.930 . S
C6598 C6596 1.378 . S
C6598 C6599 1.367 . S
C6599 C6598 1.367 . S
C6599 C6601 1.433 . S
C6600 C6596 1.350 . S
C6600 C6597 1.463 . S
C6600 N6604 1.427 . S
C6601 H6591 0.929 . S
C6601 C6599 1.433 . S
C6601 N6604 1.384 . S
C6602 H6593 0.929 . S
C6602 C6594 1.378 . S
C6602 C6597 1.350 . S
C6603 H6590 0.929 . S
C6603 C6595 1.433 . S
C6603 N6605 1.384 . S
N6604 C6600 1.427 . S
N6604 C6601 1.384 . S
N6605 C6597 1.427 . S
N6605 C6603 1.384 . S
H6606 C6612 0.930 . S
H6607 C6616 0.930 . S
H6608 C6621 0.929 . S
H6609 C6619 0.929 . S
H6610 C6614 0.929 . S
H6611 C6620 0.929 . S
C6612 H6606 0.930 . S
C6612 C6613 1.367 . S
C6612 C6620 1.378 . S
C6613 C6612 1.367 . S
C6613 C6621 1.433 . S
C6614 H6610 0.929 . S
C6614 C6616 1.378 . S
C6614 C6618 1.350 . S
C6615 C6618 1.463 . S
C6615 C6620 1.350 . S
C6615 N6623 1.427 . S
C6616 H6607 0.930 . S
C6616 C6614 1.378 . S
C6616 C6617 1.367 . S
C6617 C6616 1.367 . S
C6617 C6619 1.433 . S
C6618 C6614 1.350 . S
C6618 C6615 1.463 . S
C6618 N6622 1.427 . S
C6619 H6609 0.929 . S
C6619 C6617 1.433 . S
C6619 N6622 1.384 . S
C6620 H6611 0.929 . S
C6620 C6612 1.378 . S
C6620 C6615 1.350 . S
C6621 H6608 0.929 . S
C6621 C6613 1.433 . S
C6621 N6623 1.384 . S
N6622 C6618 1.427 . S
N6622 C6619 1.384 . S
N6623 C6615 1.427 . S
N6623 C6621 1.384 . S
C4039 C56 3.380 . S
C4043 C392 3.369 . S
C4057 C140 3.389 . S
C4061 C476 3.383 . S
C4075 C560 3.247 . S
C4079 C234 3.290 . S
C4093 C654 3.347 . S
C4097 C308 3.311 . S
C4111 C728 3.363 . S
C4115 C822 3.409 . S
C4129 C812 3.288 . S
C4133 C906 3.328 . S
C4147 C990 3.334 . S
C4151 C896 3.294 . S
C4165 C980 3.366 . S
C4169 C738 3.413 . S
C4183 C1074 3.272 . S
C4187 C318 3.271 . S
C4201 C644 3.206 . S
C4205 C2838 3.251 . S
C4219 C402 3.273 . S
C4223 C1158 3.264 1_455 S
C4237 C486 3.270 . S
C4241 C2912 3.231 . S
C4255 C150 3.295 . S
C4259 C1242 3.294 . S
C4273 C2660 3.225 . S
C4277 C66 3.270 . S
C4291 C2586 3.298 . S
C4295 C224 3.254 . S
C4309 C1663 3.369 . S
C4313 C1327 3.380 . S
C4327 C1411 3.383 . S
C4331 C1747 3.389 . S
C4345 C1503 3.288 . S
C4349 C1831 3.252 . S
C4363 C1579 3.305 . S
C4367 C1923 3.346 . S
C4381 C2091 3.409 . S
C4385 C1999 3.363 . S
C4399 C2083 3.290 . S
C4403 C2175 3.328 . S
C4417 C2259 3.335 . S
C4421 C2167 3.290 . S
C4435 C2007 3.413 . S
C4439 C2251 3.366 . S
C4453 C1587 3.269 . S
C4457 C2343 3.269 . S
C4471 C3603 3.250 . S
C4475 C1915 3.206 . S
C4489 C2427 3.264 1_655 S
C4493 C1671 3.273 . S
C4507 C1755 3.270 . S
C4511 C3679 3.227 . S
C4525 C2511 3.291 . S
C4529 C1419 3.292 . S
C4543 C1335 3.277 . S
C4547 C3427 3.229 1_655 S
C4561 C1495 3.254 . S
C4565 C3351 3.298 . S
C4579 C2744 3.377 . S
C4583 C2576 3.381 . S
C4597 C2828 3.440 . S
C4601 C1064 3.431 . S
C4615 C2670 3.341 . S
C4619 C1148 3.296 . S
C4633 C2922 3.353 . S
C4637 C1232 3.312 . S
C4651 C2996 3.426 . S
C4655 C3080 3.431 . S
C4669 C3090 3.262 . S
C4673 C3174 3.262 . S
C4687 C3258 3.326 . S
C4691 C3164 3.283 . S
C4705 C3006 3.411 . S
C4709 C3248 3.364 . S
C4723 C570 3.286 . S
C4727 C2754 3.286 . S
C4741 C3511 3.378 . S
C4745 C3343 3.378 . S
C4759 C3595 3.437 . S
C4763 C2335 3.437 . S
C4777 C2419 3.301 . S
C4781 C3435 3.339 . S
C4795 C3687 3.353 . S
C4799 C2503 3.318 . S
C4813 C3763 3.431 . S
C4817 C3847 3.426 . S
C4831 C3855 3.263 . S
C4835 C3939 3.263 . S
C4849 C3931 3.283 . S
C4853 C4023 3.326 . S
C4867 C4015 3.364 . S
C4871 C3771 3.411 . S
C4885 C3519 3.286 . S
C4889 C1839 3.286 . S
C4903 C67 0.779 . S
C4907 C1407 0.761 . S
C4921 C3432 0.814 . S
C4925 C151 0.824 . S
C4939 C243 0.764 . S
C4943 C1575 0.756 . S
C4957 C319 0.786 . S
C4961 C3339 0.797 . S
C4975 C403 0.843 . S
C4979 C1920 0.850 . S
C4993 C487 0.770 . S
C4997 C3507 0.784 . S
C5011 C571 0.775 . S
C5015 C1743 0.765 . S
C5029 C2415 0.775 . S
C5033 C663 0.744 . S
C5047 C739 0.788 . S
C5051 C3348 0.809 . S
C5065 C823 0.764 . S
C5069 C1416 0.783 . S
C5083 C907 0.753 . S
C5087 C3423 0.744 . S
C5101 C1584 0.801 . S
C5105 C991 0.808 . S
C5119 C3516 0.780 . S
C5123 C999 0.743 . S
C5137 C1752 0.763 . S
C5141 C747 0.734 . S
C5155 C831 0.773 . S
C5159 C2424 0.776 . S
C5173 C1911 0.749 . S
C5177 C915 0.754 . S
C5191 C3768 0.752 . S
C5195 C1083 0.717 . S
C5209 C2247 0.741 . S
C5213 C655 0.748 . S
C5227 C411 0.732 . S
C5231 C3759 0.721 . S
C5245 C495 0.687 . S
C5249 C2079 0.733 . S
C5263 C1167 0.728 . S
C5267 C2163 0.744 . S
C5281 C3936 0.776 . S
C5285 C1251 0.808 . S
C5299 C75 0.734 . S
C5303 C4020 0.722 . S
C5317 C235 0.760 . S
C5321 C3843 0.773 . S
C5335 C156 0.748 . S
C5339 C1316 0.744 . S
C5353 C1400 0.796 . S
C5357 C2667 0.819 . S
C5371 C1494 0.766 . S
C5375 C324 0.745 . S
C5389 C1568 0.798 . S
C5393 C2592 0.781 . S
C5407 C651 0.838 . S
C5411 C1652 0.802 . S
C5425 C2760 0.784 . S
C5429 C1736 0.770 . S
C5443 C492 0.810 . S
C5447 C1820 0.805 . S
C5461 C1914 0.767 . S
C5465 C1164 0.772 . S
C5479 C1988 0.780 . S
C5483 C2583 0.770 . S
C5497 C147 0.809 . S
C5501 C2072 0.779 . S
C5515 C2156 0.792 . S
C5519 C2676 0.783 . S
C5533 C315 0.829 . S
C5537 C2240 0.827 . S
C5551 C2751 0.740 . S
C5555 C2250 0.775 . S
C5569 C1998 0.738 . S
C5573 C483 0.775 . S
C5587 C2082 0.762 . S
C5591 C1155 0.801 . S
C5605 C660 0.727 . S
C5609 C2166 0.716 . S
C5623 C2334 0.749 . S
C5627 C3003 0.749 . S
C5641 C996 0.785 . S
C5645 C1904 0.773 . S
C5659 C3012 0.708 . S
C5663 C1662 0.690 . S
C5677 C1746 0.700 . S
C5681 C828 0.740 . S
C5695 C2418 0.762 . S
C5699 C912 0.729 . S
C5713 C3171 0.786 . S
C5717 C2502 0.777 . S
C5731 C1326 0.722 . S
C5735 C3255 0.757 . S
C5749 C3096 0.787 . S
C5753 C1484 0.773 . S
C5767 C2331 0.760 . S
C5771 C2587 0.746 . S
C5785 C1075 0.822 . S
C5789 C1500 0.841 . S
C5803 C2499 0.748 . S
C5807 C2679 0.767 . S
C5821 C1243 0.789 . S
C5825 C1323 0.799 . S
C5839 C2755 0.841 . S
C5843 C3684 0.836 . S
C5857 C1659 0.790 . S
C5861 C2839 0.788 . S
C5875 C1159 0.773 . S
C5879 C3591 0.759 . S
C5893 C1827 0.758 . S
C5897 C2931 0.733 . S
C5911 C3007 0.798 . S
C5915 C1332 0.778 . S
C5929 C3099 0.762 . S
C5933 C2340 0.728 . S
C5947 C3175 0.784 . S
C5951 C1491 0.796 . S
C5965 C2508 0.842 . S
C5969 C3259 0.818 . S
C5983 C1668 0.764 . S
C5987 C3267 0.762 . S
C6001 C3015 0.744 . S
C6005 C3600 0.725 . S
C6019 C1836 0.833 . S
C6023 C3091 0.841 . S
C6037 C3183 0.730 . S
C6041 C3675 0.722 . S
C6055 C159 0.729 . S
C6059 C2004 0.763 . S
C6073 C4011 0.784 . S
C6077 C2923 0.782 . S
C6091 C2763 0.707 . S
C6095 C1995 0.748 . S
C6109 C2847 0.726 . S
C6113 C3852 0.710 . S
C6127 C3927 0.773 . S
C6131 C579 0.741 . S
C6145 C2172 0.802 . S
C6149 C327 0.792 . S
C6163 C2595 0.730 . S
C6167 C2256 0.765 . S
C6181 C2088 0.804 . S
C6185 C2671 0.818 . S
C6199 C1080 0.781 . S
C6203 C3332 0.785 . S
C6217 C2324 0.799 . S
C6221 C231 0.805 . S
C6235 C1248 0.759 . S
C6239 C3426 0.764 . S
C6253 C2492 0.764 . S
C6257 C72 0.769 . S
C6271 C3500 0.825 . S
C6275 C2919 0.818 . S
C6289 C408 0.782 . S
C6293 C3584 0.767 . S
C6307 C2844 0.759 . S
C6311 C2408 0.773 . S
C6325 C576 0.743 . S
C6329 C3678 0.774 . S
C6343 C63 0.765 . S
C6347 C3752 0.773 . S
C6361 C3846 0.723 . S
C6365 C1071 0.759 . S
C6379 C240 0.767 . S
C6383 C3920 0.785 . S
C6397 C1239 0.840 . S
C6401 C4004 0.824 . S
C6415 C399 0.772 . S
C6419 C4014 0.735 . S
C6433 C2835 0.745 . S
C6437 C3762 0.712 . S
C6451 C3836 0.832 . S
C6455 C567 0.825 . S
C6469 C2928 0.724 . S
C6473 C3930 0.727 . S
C6487 C735 0.731 . S
C6491 C1410 0.763 . S
C6505 C3668 0.741 . S
C6509 C3264 0.740 . S
C6523 C3510 0.716 . S
C6527 C744 0.698 . S
C6541 C3087 0.710 . S
C6545 C3594 0.726 . S
C6559 C1830 0.740 . S
C6563 C3180 0.738 . S
C6577 C1578 0.788 . S
C6581 C903 0.805 . S
C6595 C987 0.762 . S
C6599 C3342 0.725 . S
C6613 C819 0.796 . S
C6617 C3416 0.810 . S
