# Generated by pormake.
# Topology ume, (4)-cn, num edge types: 1
# Building blocks:
#     Node 0, Type 0, BuildingBlock: MUDLON_clean_sbu_0, # of connection points: 4
#     Node 1, Type 0, BuildingBlock: MUDLON_clean_sbu_0, # of connection points: 4
#     Node 2, Type 0, BuildingBlock: MUDLON_clean_sbu_0, # of connection points: 4
#     Node 3, Type 0, BuildingBlock: MUDLON_clean_sbu_0, # of connection points: 4
#     Node 4, Type 0, BuildingBlock: MUDLON_clean_sbu_0, # of connection points: 4
#     Node 5, Type 0, BuildingBlock: MUDLON_clean_sbu_0, # of connection points: 4
#     Node 6, Type 0, BuildingBlock: MUDLON_clean_sbu_0, # of connection points: 4
#     Node 7, Type 0, BuildingBlock: MUDLON_clean_sbu_0, # of connection points: 4
#     Node 8, Type 0, BuildingBlock: MUDLON_clean_sbu_0, # of connection points: 4
#     Node 9, Type 0, BuildingBlock: MUDLON_clean_sbu_0, # of connection points: 4
#     Node 10, Type 0, BuildingBlock: MUDLON_clean_sbu_0, # of connection points: 4
#     Node 11, Type 0, BuildingBlock: MUDLON_clean_sbu_0, # of connection points: 4
#     Node 12, Type 0, BuildingBlock: MUDLON_clean_sbu_0, # of connection points: 4
#     Node 13, Type 0, BuildingBlock: MUDLON_clean_sbu_0, # of connection points: 4
#     Node 14, Type 0, BuildingBlock: MUDLON_clean_sbu_0, # of connection points: 4
#     Node 15, Type 0, BuildingBlock: MUDLON_clean_sbu_0, # of connection points: 4
#     Edge 16, Type (0, 0), BuildingBlock: MIFKUJ_clean_linker_0, # of connection points: 2
#     Edge 17, Type (0, 0), BuildingBlock: MIFKUJ_clean_linker_0, # of connection points: 2
#     Edge 18, Type (0, 0), BuildingBlock: MIFKUJ_clean_linker_0, # of connection points: 2
#     Edge 19, Type (0, 0), BuildingBlock: MIFKUJ_clean_linker_0, # of connection points: 2
#     Edge 20, Type (0, 0), BuildingBlock: MIFKUJ_clean_linker_0, # of connection points: 2
#     Edge 21, Type (0, 0), BuildingBlock: MIFKUJ_clean_linker_0, # of connection points: 2
#     Edge 22, Type (0, 0), BuildingBlock: MIFKUJ_clean_linker_0, # of connection points: 2
#     Edge 23, Type (0, 0), BuildingBlock: MIFKUJ_clean_linker_0, # of connection points: 2
#     Edge 24, Type (0, 0), BuildingBlock: MIFKUJ_clean_linker_0, # of connection points: 2
#     Edge 25, Type (0, 0), BuildingBlock: MIFKUJ_clean_linker_0, # of connection points: 2
#     Edge 26, Type (0, 0), BuildingBlock: MIFKUJ_clean_linker_0, # of connection points: 2
#     Edge 27, Type (0, 0), BuildingBlock: MIFKUJ_clean_linker_0, # of connection points: 2
#     Edge 28, Type (0, 0), BuildingBlock: MIFKUJ_clean_linker_0, # of connection points: 2
#     Edge 29, Type (0, 0), BuildingBlock: MIFKUJ_clean_linker_0, # of connection points: 2
#     Edge 30, Type (0, 0), BuildingBlock: MIFKUJ_clean_linker_0, # of connection points: 2
#     Edge 31, Type (0, 0), BuildingBlock: MIFKUJ_clean_linker_0, # of connection points: 2
#     Edge 32, Type (0, 0), BuildingBlock: MIFKUJ_clean_linker_0, # of connection points: 2
#     Edge 33, Type (0, 0), BuildingBlock: MIFKUJ_clean_linker_0, # of connection points: 2
#     Edge 34, Type (0, 0), BuildingBlock: MIFKUJ_clean_linker_0, # of connection points: 2
#     Edge 35, Type (0, 0), BuildingBlock: MIFKUJ_clean_linker_0, # of connection points: 2
#     Edge 36, Type (0, 0), BuildingBlock: MIFKUJ_clean_linker_0, # of connection points: 2
#     Edge 37, Type (0, 0), BuildingBlock: MIFKUJ_clean_linker_0, # of connection points: 2
#     Edge 38, Type (0, 0), BuildingBlock: MIFKUJ_clean_linker_0, # of connection points: 2
#     Edge 39, Type (0, 0), BuildingBlock: MIFKUJ_clean_linker_0, # of connection points: 2
#     Edge 40, Type (0, 0), BuildingBlock: MIFKUJ_clean_linker_0, # of connection points: 2
#     Edge 41, Type (0, 0), BuildingBlock: MIFKUJ_clean_linker_0, # of connection points: 2
#     Edge 42, Type (0, 0), BuildingBlock: MIFKUJ_clean_linker_0, # of connection points: 2
#     Edge 43, Type (0, 0), BuildingBlock: MIFKUJ_clean_linker_0, # of connection points: 2
#     Edge 44, Type (0, 0), BuildingBlock: MIFKUJ_clean_linker_0, # of connection points: 2
#     Edge 45, Type (0, 0), BuildingBlock: MIFKUJ_clean_linker_0, # of connection points: 2
#     Edge 46, Type (0, 0), BuildingBlock: MIFKUJ_clean_linker_0, # of connection points: 2
#     Edge 47, Type (0, 0), BuildingBlock: MIFKUJ_clean_linker_0, # of connection points: 2
# Relax obj value: 0.086
# Max RMSD: 0.264
# Mean RMSD: 0.264
data_MOF--net-ume--node1-MUDLON_clean_sbu_0--edge1-MIFKUJ_clean_linker_0
_symmetry_space_group_name_H-M    P1
_symmetry_Int_Tables_number       1
_symmetry_cell_setting            triclinic
loop_
_symmetry_equiv_pos_as_xyz
'x, y, z'
_cell_length_a     37.367522
_cell_length_b     37.66346
_cell_length_c     150.80502
_cell_angle_alpha  90.10948
_cell_angle_beta   89.621957
_cell_angle_gamma 89.932883
loop_
_atom_site_label
_atom_site_type_symbol
_atom_site_fract_x
_atom_site_fract_y
_atom_site_fract_z
_atom_type_partial_charge
Mg0 Mg 0.26058 0.10791 0.33042 0.0
C1 C 0.32227 0.0577 0.33505 0.0
O2 O 0.30949 0.06193 0.34312 0.0
C3 C 0.19731 0.05425 0.32724 0.0
O4 O 0.22166 0.03166 0.32441 0.0
C5 C 0.24732 0.13746 0.31243 0.0
O6 O 0.2256 0.11009 0.31271 0.0
O7 O 0.26535 0.14502 0.31932 0.0
O8 O 0.30574 0.07163 0.32858 0.0
O9 O 0.26454 0.13128 0.3437 0.0
C10 C 0.24821 0.11367 0.34969 0.0
O11 O 0.23106 0.08474 0.34735 0.0
O12 O 0.20686 0.08493 0.32984 0.0
Mg13 Mg 0.91063 0.75132 0.5795 0.0
C14 C 0.90259 0.73278 0.59836 0.0
O15 O 0.93448 0.72071 0.5962 0.0
C16 C 0.85864 0.78312 0.56619 0.0
O17 O 0.85929 0.80963 0.57185 0.0
C18 C 0.92393 0.67421 0.57769 0.0
O19 O 0.88884 0.67638 0.57805 0.0
O20 O 0.94203 0.7028 0.57795 0.0
O21 O 0.88382 0.74745 0.59238 0.0
O22 O 0.94264 0.79974 0.57974 0.0
C23 C 0.93034 0.82565 0.58427 0.0
O24 O 0.90049 0.82117 0.58877 0.0
O25 O 0.87581 0.75489 0.56798 0.0
Mg26 Mg 0.26266 0.41015 0.82827 0.0
C27 C 0.19732 0.45908 0.83159 0.0
O28 O 0.21289 0.46557 0.8392 0.0
C29 C 0.33213 0.44248 0.82096 0.0
O30 O 0.32338 0.42443 0.81384 0.0
C31 C 0.23636 0.35693 0.81489 0.0
O32 O 0.20693 0.36184 0.81955 0.0
O33 O 0.2651 0.37164 0.81747 0.0
O34 O 0.21289 0.43906 0.82596 0.0
O35 O 0.2611 0.38871 0.84178 0.0
C36 C 0.27087 0.41102 0.84764 0.0
O37 O 0.28152 0.44256 0.84503 0.0
O38 O 0.31087 0.44272 0.82758 0.0
Mg39 Mg 0.59589 0.75649 0.08118 0.0
C40 C 0.63615 0.73316 0.09785 0.0
O41 O 0.63135 0.70137 0.09447 0.0
C42 C 0.65884 0.74313 0.06804 0.0
O43 O 0.67566 0.73075 0.07501 0.0
C44 C 0.58198 0.83351 0.08065 0.0
O45 O 0.61707 0.83133 0.08086 0.0
O46 O 0.56392 0.80487 0.08069 0.0
O47 O 0.62614 0.7602 0.09347 0.0
O48 O 0.56406 0.70776 0.08154 0.0
C49 C 0.57866 0.67972 0.07845 0.0
O50 O 0.61114 0.68187 0.07512 0.0
O51 O 0.62744 0.75567 0.06897 0.0
Mg52 Mg 0.25489 0.40122 0.96146 0.0
C53 C 0.33052 0.41615 0.963 0.0
O54 O 0.32724 0.38144 0.96263 0.0
C55 C 0.19276 0.45747 0.96376 0.0
O56 O 0.21769 0.48147 0.96504 0.0
C57 C 0.24857 0.37741 0.97989 0.0
O58 O 0.23557 0.40985 0.9799 0.0
O59 O 0.25876 0.36405 0.97253 0.0
O60 O 0.30215 0.43492 0.96275 0.0
O61 O 0.25863 0.37985 0.948 0.0
C62 C 0.25697 0.40467 0.94229 0.0
O63 O 0.25325 0.43743 0.94518 0.0
O64 O 0.20174 0.42539 0.96231 0.0
Mg65 Mg 0.60565 0.75564 0.20955 0.0
C66 C 0.62756 0.77651 0.19097 0.0
O67 O 0.60359 0.80111 0.1927 0.0
C68 C 0.66877 0.76851 0.22245 0.0
O69 O 0.6853 0.78173 0.21549 0.0
C70 C 0.58924 0.6792 0.20735 0.0
O71 O 0.6224 0.6815 0.20446 0.0
O72 O 0.57353 0.7074 0.20996 0.0
O73 O 0.6355 0.75433 0.19701 0.0
O74 O 0.5742 0.80458 0.21024 0.0
C75 C 0.59207 0.83304 0.21128 0.0
O76 O 0.62706 0.83082 0.21182 0.0
O77 O 0.63772 0.75528 0.22156 0.0
Mg78 Mg 0.25829 0.10755 0.4628 0.0
C79 C 0.18157 0.09326 0.46072 0.0
O80 O 0.18579 0.12604 0.45794 0.0
C81 C 0.3223 0.05666 0.45934 0.0
O82 O 0.3047 0.04798 0.45214 0.0
C83 C 0.27459 0.14414 0.48013 0.0
O84 O 0.30203 0.12243 0.47952 0.0
O85 O 0.25264 0.14563 0.47372 0.0
O86 O 0.20895 0.07636 0.46343 0.0
O87 O 0.26071 0.13056 0.44947 0.0
C88 C 0.24907 0.11049 0.44332 0.0
O89 O 0.23685 0.07893 0.44545 0.0
O90 O 0.30832 0.07847 0.46481 0.0
Mg91 Mg 0.91071 0.75615 0.7108 0.0
C92 C 0.90593 0.7407 0.69163 0.0
O93 O 0.93787 0.72904 0.69377 0.0
C94 C 0.88095 0.76878 0.72903 0.0
O95 O 0.9098 0.78867 0.72919 0.0
C96 C 0.9243 0.83374 0.70933 0.0
O97 O 0.89126 0.83087 0.70649 0.0
O98 O 0.94072 0.80571 0.7117 0.0
O99 O 0.88629 0.75428 0.69768 0.0
O100 O 0.94331 0.7083 0.71191 0.0
C101 C 0.92533 0.67961 0.71203 0.0
O102 O 0.89026 0.68167 0.71166 0.0
O103 O 0.87293 0.75295 0.72185 0.0
Mg104 Mg 0.76196 0.60465 0.83025 0.0
C105 C 0.82644 0.559 0.82357 0.0
O106 O 0.80884 0.55646 0.81608 0.0
C107 C 0.69178 0.56719 0.83436 0.0
O108 O 0.69896 0.57961 0.8423 0.0
C109 C 0.755 0.63179 0.81184 0.0
O110 O 0.73998 0.60035 0.81131 0.0
O111 O 0.76607 0.64246 0.81935 0.0
O112 O 0.81236 0.57542 0.83009 0.0
O113 O 0.75835 0.62816 0.84354 0.0
C114 C 0.77241 0.60912 0.84956 0.0
O115 O 0.78762 0.57903 0.84723 0.0
O116 O 0.71427 0.57217 0.82811 0.0
Mg117 Mg 0.40062 0.25608 0.08153 0.0
C118 C 0.39251 0.26453 0.10092 0.0
O119 O 0.42483 0.27668 0.09929 0.0
C120 C 0.3444 0.27923 0.0678 0.0
O121 O 0.33831 0.30493 0.07351 0.0
C122 C 0.41586 0.1795 0.08069 0.0
O123 O 0.38073 0.18126 0.08091 0.0
O124 O 0.43355 0.20836 0.08081 0.0
O125 O 0.3737 0.25365 0.09444 0.0
O126 O 0.43103 0.30563 0.08094 0.0
C127 C 0.41576 0.33345 0.08395 0.0
O128 O 0.38356 0.33059 0.08743 0.0
O129 O 0.36678 0.25504 0.06975 0.0
Mg130 Mg 0.75995 0.91 0.32797 0.0
C131 C 0.68501 0.92953 0.33193 0.0
O132 O 0.68934 0.89905 0.336 0.0
C133 C 0.8213 0.96681 0.32888 0.0
O134 O 0.79824 0.98706 0.33313 0.0
C135 C 0.76663 0.88517 0.30949 0.0
O136 O 0.78298 0.91603 0.3095 0.0
O137 O 0.75405 0.87345 0.31679 0.0
O138 O 0.71155 0.94286 0.32776 0.0
O139 O 0.7631 0.88666 0.34123 0.0
C140 C 0.75978 0.90993 0.34732 0.0
O141 O 0.75435 0.94307 0.34497 0.0
O142 O 0.81144 0.93655 0.32604 0.0
Mg143 Mg 0.10335 0.25126 0.58178 0.0
C144 C 0.13729 0.22611 0.59894 0.0
O145 O 0.12596 0.19544 0.5959 0.0
C146 C 0.16625 0.23978 0.56836 0.0
O147 O 0.18419 0.22793 0.57521 0.0
C148 C 0.08929 0.32835 0.5813 0.0
O149 O 0.12439 0.32635 0.58154 0.0
O150 O 0.07136 0.29963 0.58138 0.0
O151 O 0.13362 0.25363 0.59414 0.0
O152 O 0.07121 0.2027 0.58189 0.0
C153 C 0.08508 0.17524 0.57831 0.0
O154 O 0.11686 0.17796 0.57461 0.0
O155 O 0.13449 0.25115 0.56949 0.0
Mg156 Mg 0.75975 0.91 0.46052 0.0
C157 C 0.81875 0.96595 0.45705 0.0
O158 O 0.80264 0.96996 0.44941 0.0
C159 C 0.69615 0.96309 0.46415 0.0
O160 O 0.71966 0.98355 0.46809 0.0
C161 C 0.75236 0.88642 0.47891 0.0
O162 O 0.73923 0.91878 0.47882 0.0
O163 O 0.76283 0.87286 0.4716 0.0
O164 O 0.80517 0.94526 0.46282 0.0
O165 O 0.76646 0.88762 0.44719 0.0
C166 C 0.75362 0.90729 0.44113 0.0
O167 O 0.73708 0.93667 0.44349 0.0
O168 O 0.70624 0.93374 0.46077 0.0
Mg169 Mg 0.10548 0.25632 0.71023 0.0
C170 C 0.13925 0.23002 0.69302 0.0
O171 O 0.12742 0.19965 0.69613 0.0
C172 C 0.16593 0.27078 0.72414 0.0
O173 O 0.18417 0.2853 0.71762 0.0
C174 C 0.08778 0.18039 0.71377 0.0
O175 O 0.12026 0.18313 0.71699 0.0
O176 O 0.07326 0.20788 0.71044 0.0
O177 O 0.13605 0.25776 0.6978 0.0
O178 O 0.07349 0.3048 0.71049 0.0
C179 C 0.09134 0.33356 0.71026 0.0
O180 O 0.1264 0.33162 0.70975 0.0
O181 O 0.13555 0.25701 0.72259 0.0
Mg182 Mg 0.75313 0.60116 0.96284 0.0
C183 C 0.69057 0.55303 0.95773 0.0
O184 O 0.70277 0.55936 0.94971 0.0
C185 C 0.81632 0.54606 0.96359 0.0
O186 O 0.79206 0.52172 0.96196 0.0
C187 C 0.76283 0.63074 0.98087 0.0
O188 O 0.7834 0.60244 0.98086 0.0
O189 O 0.74653 0.63888 0.97377 0.0
O190 O 0.70778 0.56491 0.96436 0.0
O191 O 0.7506 0.62405 0.94951 0.0
C192 C 0.76765 0.60651 0.94361 0.0
O193 O 0.78547 0.57817 0.94608 0.0
O194 O 0.80682 0.5784 0.96427 0.0
Mg195 Mg 0.41211 0.25635 0.2114 0.0
C196 C 0.36996 0.23495 0.19459 0.0
O197 O 0.3687 0.20344 0.19828 0.0
C198 C 0.34863 0.24383 0.22461 0.0
O199 O 0.33104 0.23199 0.21769 0.0
C200 C 0.42886 0.33222 0.21452 0.0
O201 O 0.39503 0.33005 0.21689 0.0
O202 O 0.44489 0.3041 0.21199 0.0
O203 O 0.38379 0.26071 0.19882 0.0
O204 O 0.44349 0.20738 0.21124 0.0
C205 C 0.4271 0.17896 0.21334 0.0
O206 O 0.39316 0.18091 0.2156 0.0
O207 O 0.38024 0.25563 0.22357 0.0
H208 H 0.87631 0.92887 0.32143 0.0
H209 H 0.93968 0.94438 0.32089 0.0
H210 H 0.91663 0.04404 0.33385 0.0
H211 H 0.85291 0.02879 0.3344 0.0
H212 H 0.96487 0.05167 0.3201 0.0
H213 H 0.95071 0.97727 0.34562 0.0
H214 H 0.93159 0.92386 0.3538 0.0
H215 H 0.99937 0.85909 0.3373 0.0
H216 H 0.01854 0.9121 0.32894 0.0
H217 H 0.14112 0.09445 0.3332 0.0
H218 H 0.07762 0.07966 0.33311 0.0
H219 H 0.10196 0.97816 0.32122 0.0
H220 H 0.16591 0.99258 0.32141 0.0
H221 H 0.05291 0.97135 0.33427 0.0
H222 H 0.06779 0.04639 0.30887 0.0
H223 H 0.08679 0.1001 0.30079 0.0
H224 H 0.01755 0.164 0.31713 0.0
H225 H 0.99851 0.11071 0.3254 0.0
C226 C 0.88457 0.95422 0.32413 0.0
C227 C 0.85944 0.9775 0.32801 0.0
C228 C 0.92091 0.96297 0.32384 0.0
C229 C 0.93301 0.99516 0.32744 0.0
C230 C 0.90791 0.019 0.33106 0.0
C231 C 0.87149 0.01021 0.33138 0.0
C232 C 0.97192 1.00351 0.32755 0.0
C233 C 0.98408 0.03436 0.3233 0.0
C234 C 0.9971 0.98052 0.33155 0.0
C235 C 0.98579 0.94861 0.3366 0.0
C236 C 0.96133 0.9516 0.34369 0.0
C237 C 0.95052 0.92141 0.34837 0.0
C238 C 0.96418 0.88808 0.34605 0.0
C239 C 0.98877 0.88491 0.33907 0.0
C240 C 0.99964 0.91503 0.33437 0.0
C241 C 0.13309 0.06894 0.33056 0.0
C242 C 0.15871 0.04476 0.32727 0.0
C243 C 0.09666 0.06059 0.33048 0.0
C244 C 0.08487 0.02801 0.32704 0.0
C245 C 0.11038 1.00353 0.32388 0.0
C246 C 0.14694 0.01184 0.32397 0.0
C247 C 0.04596 0.01952 0.3268 0.0
C248 C 0.03376 0.98865 0.33105 0.0
C249 C 0.02075 0.04252 0.3228 0.0
C250 C 0.03197 0.07459 0.3178 0.0
C251 C 0.05681 0.07192 0.31078 0.0
C252 C 0.06756 0.10229 0.30617 0.0
C253 C 0.05345 0.13545 0.30846 0.0
C254 C 0.02849 0.1383 0.31537 0.0
C255 C 0.01768 0.10802 0.32002 0.0
H256 H 0.06181 0.15893 0.30488 0.0
H257 H 0.95578 0.86473 0.34968 0.0
H258 H 0.89178 0.60931 0.57701 0.0
H259 H 0.92002 0.55095 0.57737 0.0
H260 H 0.02406 0.60017 0.57841 0.0
H261 H 0.99591 0.659 0.57795 0.0
H262 H 0.02356 0.5439 0.56707 0.0
H263 H 0.98614 0.5665 0.597 0.0
H264 H 0.94358 0.58271 0.6089 0.0
H265 H 0.87777 0.49326 0.60226 0.0
H266 H 0.91969 0.47681 0.59022 0.0
H267 H 0.12117 0.39345 0.58113 0.0
H268 H 0.0927 0.45157 0.58023 0.0
H269 H 0.98889 0.40175 0.57946 0.0
H270 H 0.01728 0.34316 0.58048 0.0
H271 H 0.98906 0.45825 0.59058 0.0
H272 H 0.02695 0.43545 0.56068 0.0
H273 H 0.06971 0.41939 0.5488 0.0
H274 H 0.13493 0.50928 0.55543 0.0
H275 H 0.09279 0.5256 0.56743 0.0
C276 C 0.92069 0.60785 0.57729 0.0
C277 C 0.94157 0.6389 0.5775 0.0
C278 C 0.9368 0.57438 0.57753 0.0
C279 C 0.97414 0.57114 0.57806 0.0
C280 C 0.99518 0.60204 0.57804 0.0
C281 C 0.97905 0.63564 0.57779 0.0
C282 C 0.99102 0.53547 0.5787 0.0
C283 C 0.01639 0.52535 0.57228 0.0
C284 C 0.98105 0.51092 0.58538 0.0
C285 C 0.95589 0.52062 0.59265 0.0
C286 C 0.96246 0.55044 0.59803 0.0
C287 C 0.93847 0.55965 0.60481 0.0
C288 C 0.90795 0.53908 0.60632 0.0
C289 C 0.9014 0.5092 0.60107 0.0
C290 C 0.92528 0.4999 0.59428 0.0
C291 C 0.09226 0.39472 0.58076 0.0
C292 C 0.07152 0.36356 0.58084 0.0
C293 C 0.07603 0.42806 0.58021 0.0
C294 C 0.03868 0.43107 0.57965 0.0
C295 C 0.01778 0.40007 0.57985 0.0
C296 C 0.03404 0.3666 0.58042 0.0
C297 C 0.02159 0.46664 0.57893 0.0
C298 C 0.9962 0.47676 0.58535 0.0
C299 C 0.03158 0.4912 0.57225 0.0
C300 C 0.05687 0.48156 0.56501 0.0
C301 C 0.05055 0.45164 0.55965 0.0
C302 C 0.07465 0.44252 0.55289 0.0
C303 C 0.10506 0.46325 0.55138 0.0
C304 C 0.11138 0.49322 0.55662 0.0
C305 C 0.08738 0.50244 0.56339 0.0
H306 H 0.1237 0.45614 0.54614 0.0
H307 H 0.88941 0.54625 0.61157 0.0
H308 H 0.66396 0.54644 0.81836 0.0
H309 H 0.60355 0.52427 0.81547 0.0
H310 H 0.57891 0.52975 0.84342 0.0
H311 H 0.6392 0.55142 0.84638 0.0
H312 H 0.55274 0.47011 0.83636 0.0
H313 H 0.5511 0.59437 0.82922 0.0
H314 H 0.57137 0.64879 0.82164 0.0
H315 H 0.54793 0.60177 0.79638 0.0
H316 H 0.52796 0.54684 0.80381 0.0
H317 H 0.3639 0.46943 0.83582 0.0
H318 H 0.42556 0.48996 0.83737 0.0
H319 H 0.44417 0.47211 0.80947 0.0
H320 H 0.38244 0.45131 0.80784 0.0
H321 H 0.47398 0.53615 0.81575 0.0
H322 H 0.47323 0.41243 0.82319 0.0
H323 H 0.45215 0.35889 0.83101 0.0
H324 H 0.47948 0.40603 0.85601 0.0
H325 H 0.50025 0.46012 0.84834 0.0
C326 C 0.6458 0.54259 0.8239 0.0
C327 C 0.65639 0.5509 0.8326 0.0
C328 C 0.61119 0.53012 0.82223 0.0
C329 C 0.58648 0.52583 0.82921 0.0
C330 C 0.59743 0.53294 0.83792 0.0
C331 C 0.63194 0.54542 0.8396 0.0
C332 C 0.54898 0.51467 0.82748 0.0
C333 C 0.53546 0.48478 0.83192 0.0
C334 C 0.52655 0.53335 0.82155 0.0
C335 C 0.53843 0.56636 0.81707 0.0
C336 C 0.55055 0.59553 0.82205 0.0
C337 C 0.56193 0.62648 0.81778 0.0
C338 C 0.56104 0.62869 0.80854 0.0
C339 C 0.54867 0.59998 0.80354 0.0
C340 C 0.53729 0.56894 0.80778 0.0
C341 C 0.38092 0.47022 0.82998 0.0
C342 C 0.36825 0.45852 0.82171 0.0
C343 C 0.41623 0.48183 0.83089 0.0
C344 C 0.43957 0.48214 0.82356 0.0
C345 C 0.42662 0.47196 0.81522 0.0
C346 C 0.39136 0.46002 0.81431 0.0
C347 C 0.47778 0.49187 0.8247 0.0
C348 C 0.49139 0.52143 0.82015 0.0
C349 C 0.50027 0.47301 0.83056 0.0
C350 C 0.48797 0.44046 0.8352 0.0
C351 C 0.47447 0.41151 0.83036 0.0
C352 C 0.46262 0.38104 0.83477 0.0
C353 C 0.46438 0.3791 0.844 0.0
C354 C 0.47809 0.4076 0.84886 0.0
C355 C 0.48993 0.43815 0.84448 0.0
H356 H 0.4552 0.35548 0.8474 0.0
H357 H 0.56986 0.65268 0.80524 0.0
H358 H 0.38432 0.11433 0.08012 0.0
H359 H 0.41309 0.05626 0.08 0.0
H360 H 0.51679 0.10631 0.0807 0.0
H361 H 0.48805 0.16493 0.08071 0.0
H362 H 0.51564 0.05181 0.06892 0.0
H363 H 0.48124 0.06897 0.09927 0.0
H364 H 0.44001 0.08281 0.11164 0.0
H365 H 0.37378 0.99435 0.10447 0.0
H366 H 0.41436 0.98027 0.09197 0.0
H367 H 0.61422 0.89843 0.08066 0.0
H368 H 0.586 0.95678 0.08046 0.0
H369 H 0.48185 0.90762 0.07992 0.0
H370 H 0.51001 0.84878 0.08025 0.0
H371 H 0.48356 0.96187 0.09162 0.0
H372 H 0.5182 0.94474 0.06125 0.0
H373 H 0.55962 0.93098 0.04891 0.0
H374 H 0.62571 0.01942 0.05618 0.0
H375 H 0.58492 0.03343 0.06864 0.0
C376 C 0.41327 0.11313 0.08025 0.0
C377 C 0.43388 0.14436 0.08047 0.0
C378 C 0.42969 0.07981 0.08021 0.0
C379 C 0.4671 0.07685 0.08047 0.0
C380 C 0.48786 0.10795 0.08053 0.0
C381 C 0.47141 0.14142 0.08056 0.0
C382 C 0.48433 0.04123 0.08066 0.0
C383 C 0.50903 0.03232 0.07396 0.0
C384 C 0.47506 0.01546 0.0871 0.0
C385 C 0.45067 0.02377 0.09464 0.0
C386 C 0.45774 0.05263 0.10029 0.0
C387 C 0.43451 0.06049 0.10733 0.0
C388 C 0.40425 0.03953 0.10883 0.0
C389 C 0.39721 0.0106 0.1033 0.0
C390 C 0.42033 1.00264 0.09624 0.0
C391 C 0.58529 0.8999 0.08048 0.0
C392 C 0.56438 0.86885 0.08045 0.0
C393 C 0.56919 0.93338 0.08032 0.0
C394 C 0.53181 0.93665 0.08005 0.0
C395 C 0.51077 0.90574 0.0801 0.0
C396 C 0.52689 0.87213 0.08027 0.0
C397 C 0.51481 0.97239 0.07987 0.0
C398 C 0.49017 0.98134 0.08658 0.0
C399 C 0.52417 0.9982 0.07344 0.0
C400 C 0.54867 0.98993 0.06593 0.0
C401 C 0.54171 0.96109 0.06026 0.0
C402 C 0.56505 0.95327 0.05324 0.0
C403 C 0.59532 0.97426 0.05178 0.0
C404 C 0.60227 1.00317 0.05732 0.0
C405 C 0.57903 0.01108 0.06436 0.0
H406 H 0.61336 0.96816 0.04634 0.0
H407 H 0.3863 0.04566 0.11428 0.0
H408 H 0.16265 0.5231 0.9668 0.0
H409 H 0.09892 0.53849 0.96705 0.0
H410 H 0.07189 0.4294 0.96154 0.0
H411 H 0.13528 0.41391 0.96118 0.0
H412 H 0.03333 0.47295 0.95147 0.0
H413 H 0.06221 0.46491 0.98241 0.0
H414 H 0.09584 0.47894 0.99599 0.0
H415 H 0.06609 0.58869 0.9937 0.0
H416 H 0.03266 0.57538 0.98004 0.0
H417 H 0.84741 0.48047 0.96142 0.0
H418 H 0.91121 0.46576 0.96177 0.0
H419 H 0.93638 0.57535 0.96721 0.0
H420 H 0.87275 0.59019 0.96699 0.0
H421 H 0.976 0.5323 0.97731 0.0
H422 H 0.9471 0.54052 0.94643 0.0
H423 H 0.91343 0.52675 0.93285 0.0
H424 H 0.94342 0.41701 0.93495 0.0
H425 H 0.97686 0.43005 0.94863 0.0
C426 C 0.14315 0.50237 0.96565 0.0
C427 C 0.15418 0.46724 0.96399 0.0
C428 C 0.10668 0.51119 0.96583 0.0
C429 C 0.0805 0.48504 0.96439 0.0
C430 C 0.09151 0.45005 0.96267 0.0
C431 C 0.12786 0.44123 0.96249 0.0
C432 C 0.04163 0.494 0.96459 0.0
C433 C 0.02073 0.48551 0.95717 0.0
C434 C 0.02523 0.51115 0.97193 0.0
C435 C 0.04525 0.5192 0.98015 0.0
C436 C 0.06308 0.49208 0.98476 0.0
C437 C 0.08206 0.4999 0.99248 0.0
C438 C 0.08319 0.5347 0.99569 0.0
C439 C 0.06525 0.56175 0.9912 0.0
C440 C 0.04626 0.55408 0.98347 0.0
C441 C 0.86648 0.50143 0.96273 0.0
C442 C 0.85488 0.53655 0.96413 0.0
C443 C 0.90301 0.493 0.96289 0.0
C444 C 0.92872 0.51953 0.9644 0.0
C445 C 0.91713 0.55443 0.96601 0.0
C446 C 0.88067 0.56287 0.96585 0.0
C447 C 0.9677 0.51108 0.96421 0.0
C448 C 0.98861 0.51971 0.97161 0.0
C449 C 0.98415 0.4941 0.95685 0.0
C450 C 0.96418 0.48621 0.94861 0.0
C451 C 0.94628 0.5134 0.94404 0.0
C452 C 0.92728 0.50574 0.93631 0.0
C453 C 0.92621 0.47101 0.93305 0.0
C454 C 0.94423 0.44389 0.9375 0.0
C455 C 0.96323 0.45141 0.94523 0.0
H456 H 0.91149 0.46513 0.92707 0.0
H457 H 0.09789 0.5407 1.00167 0.0
H458 H 0.40283 0.39533 0.2207 0.0
H459 H 0.43033 0.45385 0.21963 0.0
H460 H 0.52259 0.40777 0.20667 0.0
H461 H 0.49542 0.34874 0.20786 0.0
H462 H 0.54242 0.4568 0.21858 0.0
H463 H 0.45791 0.45154 0.1948 0.0
H464 H 0.39884 0.44198 0.18801 0.0
H465 H 0.35403 0.52525 0.20411 0.0
H466 H 0.41275 0.53499 0.21109 0.0
H467 H 0.61513 0.61567 0.20143 0.0
H468 H 0.58776 0.5572 0.20281 0.0
H469 H 0.49632 0.60394 0.21599 0.0
H470 H 0.5234 0.66292 0.2145 0.0
H471 H 0.47598 0.55471 0.20407 0.0
H472 H 0.56085 0.56019 0.22776 0.0
H473 H 0.62005 0.56974 0.23448 0.0
H474 H 0.66437 0.48602 0.21844 0.0
H475 H 0.60551 0.47629 0.21153 0.0
C476 C 0.42905 0.39752 0.21764 0.0
C477 C 0.44682 0.36733 0.21431 0.0
C478 C 0.44467 0.4311 0.21701 0.0
C479 C 0.47824 0.43537 0.21292 0.0
C480 C 0.49657 0.40516 0.20981 0.0
C481 C 0.481 0.37144 0.21049 0.0
C482 C 0.49397 0.47139 0.21184 0.0
C483 C 0.5281 0.47807 0.21529 0.0
C484 C 0.47496 0.49944 0.20774 0.0
C485 C 0.43966 0.49376 0.20352 0.0
C486 C 0.4354 0.46764 0.19694 0.0
C487 C 0.40199 0.46221 0.19305 0.0
C488 C 0.37268 0.48293 0.19564 0.0
C489 C 0.37675 0.50919 0.20211 0.0
C490 C 0.41009 0.5147 0.20603 0.0
C491 C 0.58915 0.61363 0.20461 0.0
C492 C 0.57156 0.64401 0.20791 0.0
C493 C 0.5736 0.58009 0.20543 0.0
C494 C 0.54026 0.57604 0.20965 0.0
C495 C 0.52216 0.60639 0.21275 0.0
C496 C 0.53769 0.64008 0.2119 0.0
C497 C 0.52443 0.54011 0.2108 0.0
C498 C 0.49029 0.53345 0.20736 0.0
C499 C 0.54345 0.51207 0.21489 0.0
C500 C 0.57883 0.51774 0.21907 0.0
C501 C 0.58328 0.54399 0.22562 0.0
C502 C 0.61676 0.5494 0.22947 0.0
C503 C 0.64597 0.52855 0.22687 0.0
C504 C 0.64173 0.50218 0.22044 0.0
C505 C 0.6083 0.49668 0.21656 0.0
H506 H 0.67188 0.53279 0.22986 0.0
H507 H 0.34684 0.47869 0.19262 0.0
H508 H 0.37128 0.08108 0.4713 0.0
H509 H 0.43433 0.0644 0.47251 0.0
H510 H 0.42134 0.98784 0.4515 0.0
H511 H 0.35821 1.00461 0.45016 0.0
H512 H 0.46181 0.96243 0.46612 0.0
H513 H 0.45812 0.06287 0.44643 0.0
H514 H 0.4418 0.12378 0.44205 0.0
H515 H 0.50036 0.16567 0.46412 0.0
H516 H 0.51662 0.10492 0.46871 0.0
H517 H 0.64266 0.93061 0.45491 0.0
H518 H 0.57931 0.94607 0.45461 0.0
H519 H 0.59868 0.03341 0.47248 0.0
H520 H 0.66252 0.01856 0.47264 0.0
H521 H 0.55439 0.05363 0.45995 0.0
H522 H 0.55967 0.95453 0.47961 0.0
H523 H 0.57555 0.89405 0.48443 0.0
H524 H 0.51377 0.84993 0.46319 0.0
H525 H 0.49791 0.9102 0.45816 0.0
C526 C 0.38167 0.06045 0.46699 0.0
C527 C 0.35967 0.04427 0.46061 0.0
C528 C 0.41779 0.05106 0.46767 0.0
C529 C 0.4326 0.02512 0.46204 0.0
C530 C 0.41045 0.00798 0.45589 0.0
C531 C 0.37439 0.01765 0.45513 0.0
C532 C 0.47143 0.01669 0.46239 0.0
C533 C 0.48209 0.9822 0.46467 0.0
C534 C 0.49786 0.0428 0.46074 0.0
C535 C 0.48826 0.07934 0.45797 0.0
C536 C 0.46726 0.08505 0.4504 0.0
C537 C 0.45807 0.11955 0.44787 0.0
C538 C 0.46995 0.14857 0.45282 0.0
C539 C 0.49113 0.14316 0.4603 0.0
C540 C 0.50037 0.1087 0.46287 0.0
C541 C 0.63353 0.95314 0.45878 0.0
C542 C 0.65773 0.97323 0.46384 0.0
C543 C 0.59717 0.96185 0.45864 0.0
C544 C 0.58396 0.99053 0.46365 0.0
C545 C 0.60814 0.01106 0.46859 0.0
C546 C 0.64466 1.00251 0.46868 0.0
C547 C 0.545 0.99919 0.46366 0.0
C548 C 0.53423 0.03377 0.46144 0.0
C549 C 0.51847 0.97321 0.46545 0.0
C550 C 0.52787 0.93691 0.46846 0.0
C551 C 0.54969 0.93194 0.47592 0.0
C552 C 0.55865 0.8977 0.4787 0.0
C553 C 0.54575 0.86817 0.4741 0.0
C554 C 0.52378 0.87283 0.46673 0.0
C555 C 0.51476 0.90703 0.46392 0.0
H556 H 0.55272 0.84167 0.47626 0.0
H557 H 0.46281 0.17526 0.45085 0.0
H558 H 0.02121 0.16381 0.70728 0.0
H559 H 0.99299 0.10514 0.7067 0.0
H560 H 0.08519 0.0591 0.71935 0.0
H561 H 0.1136 0.11732 0.71989 0.0
H562 H 0.06499 0.01983 0.70541 0.0
H563 H 1.00742 0.07245 0.73082 0.0
H564 H 0.97319 0.11822 0.73895 0.0
H565 H 0.88433 0.10365 0.72141 0.0
H566 H 0.91824 0.0581 0.71309 0.0
H567 H 0.99076 0.85066 0.7158 0.0
H568 H 0.01814 0.9096 0.71671 0.0
H569 H 0.92433 0.95581 0.70482 0.0
H570 H 0.89662 0.89729 0.70404 0.0
H571 H 0.94526 0.99517 0.71837 0.0
H572 H 1.00253 0.94296 0.69291 0.0
H573 H 0.03662 0.89741 0.68465 0.0
H574 H 0.12582 0.91151 0.70211 0.0
H575 H 0.09206 0.95683 0.71055 0.0
C576 C 0.03539 0.14122 0.70998 0.0
C577 C 0.06966 0.14533 0.71364 0.0
C578 C 0.01919 0.1077 0.70966 0.0
C579 C 0.03688 0.07769 0.71304 0.0
C580 C 0.07103 0.0818 0.7167 0.0
C581 C 0.08719 0.11521 0.71703 0.0
C582 C 0.02023 0.04185 0.71263 0.0
C583 C 0.039 0.01434 0.70834 0.0
C584 C 0.98597 0.0348 0.71628 0.0
C585 C 0.96551 0.06213 0.72128 0.0
C586 C 0.98069 0.07922 0.72865 0.0
C587 C 0.96133 0.10508 0.7333 0.0
C588 C 0.92664 0.11391 0.73069 0.0
C589 C 0.91122 0.09682 0.72342 0.0
C590 C 0.93049 0.07096 0.71874 0.0
C591 C 0.976 0.87336 0.71336 0.0
C592 C 0.94153 0.86919 0.70982 0.0
C593 C 0.99173 0.90706 0.71386 0.0
C594 C 0.97346 0.93719 0.71075 0.0
C595 C 0.93898 0.93304 0.70727 0.0
C596 C 0.92321 0.89946 0.7068 0.0
C597 C 0.99003 0.9731 0.71115 0.0
C598 C 0.97125 1.00064 0.71543 0.0
C599 C 0.02425 0.98021 0.70748 0.0
C600 C 0.04463 0.95302 0.70241 0.0
C601 C 0.02931 0.93614 0.69503 0.0
C602 C 0.04859 0.9104 0.69031 0.0
C603 C 0.08332 0.9015 0.69287 0.0
C604 C 0.09889 0.91839 0.70014 0.0
C605 C 0.0797 0.94413 0.70489 0.0
H606 H 0.09821 0.88157 0.6892 0.0
H607 H 0.91169 0.13393 0.7343 0.0
H608 H 0.65682 0.97641 0.31986 0.0
H609 H 0.59505 0.99849 0.31933 0.0
H610 H 0.57107 0.94322 0.34371 0.0
H611 H 0.63194 0.92009 0.34403 0.0
H612 H 0.52045 0.93115 0.33291 0.0
H613 H 0.58181 0.03747 0.34195 0.0
H614 H 0.62656 0.08535 0.3408 0.0
H615 H 0.58304 0.11689 0.31573 0.0
H616 H 0.53829 0.06889 0.31669 0.0
H617 H 0.36085 0.01859 0.34689 0.0
H618 H 0.42214 0.99663 0.3452 0.0
H619 H 0.42659 0.03853 0.31863 0.0
H620 H 0.36509 0.0604 0.32023 0.0
H621 H 0.48603 0.05733 0.32903 0.0
H622 H 0.42128 0.95232 0.32101 0.0
H623 H 0.37597 0.90536 0.32291 0.0
H624 H 0.42595 0.87239 0.3471 0.0
H625 H 0.47129 0.9195 0.34541 0.0
C626 C 0.63841 0.96937 0.32514 0.0
C627 C 0.64919 0.94645 0.33197 0.0
C628 C 0.60309 0.98205 0.32486 0.0
C629 C 0.57821 0.97269 0.33151 0.0
C630 C 0.58948 0.95064 0.33845 0.0
C631 C 0.62441 0.93754 0.33865 0.0
C632 C 0.54009 0.98453 0.33116 0.0
C633 C 0.51307 0.95884 0.33216 0.0
C634 C 0.53011 0.02049 0.32993 0.0
C635 C 0.55698 0.04935 0.32935 0.0
C636 C 0.58197 0.05444 0.33616 0.0
C637 C 0.6073 0.08164 0.33555 0.0
C638 C 0.60772 0.10408 0.32818 0.0
C639 C 0.58273 0.09944 0.32142 0.0
C640 C 0.55737 0.07227 0.322 0.0
C641 C 0.37466 0.02278 0.34064 0.0
C642 C 0.358 0.04121 0.33369 0.0
C643 C 0.40971 0.01019 0.33969 0.0
C644 C 0.42894 0.01592 0.33179 0.0
C645 C 0.41226 0.03386 0.32479 0.0
C646 C 0.37702 0.04613 0.3257 0.0
C647 C 0.46678 1.00405 0.33098 0.0
C648 C 0.49361 0.02967 0.32973 0.0
C649 C 0.47666 0.9681 0.3321 0.0
C650 C 0.44951 0.93965 0.33312 0.0
C651 C 0.42245 0.93524 0.32677 0.0
C652 C 0.39679 0.90856 0.32781 0.0
C653 C 0.39804 0.88596 0.33514 0.0
C654 C 0.425 0.88994 0.34143 0.0
C655 C 0.45071 0.9166 0.34043 0.0
H656 H 0.37815 0.86531 0.33592 0.0
H657 H 0.62734 0.12512 0.32772 0.0
H658 H 0.90734 0.88642 0.59237 0.0
H659 H 0.93342 0.94563 0.59142 0.0
H660 H 0.01813 0.90503 0.57469 0.0
H661 H 0.99217 0.84535 0.57562 0.0
H662 H 0.04291 0.95103 0.58757 0.0
H663 H 0.9506 0.94955 0.56559 0.0
H664 H 0.88946 0.94027 0.56 0.0
H665 H 0.84926 0.01902 0.57814 0.0
H666 H 0.91013 0.02839 0.58393 0.0
H667 H 0.10806 0.11318 0.5709 0.0
H668 H 0.08112 0.05452 0.57214 0.0
H669 H 0.99524 0.09825 0.588 0.0
H670 H 0.02197 0.15753 0.5867 0.0
H671 H 0.97054 0.05087 0.57585 0.0
H672 H 0.06242 0.05305 0.59776 0.0
H673 H 0.12331 0.06237 0.60351 0.0
H674 H 0.16402 0.98241 0.58578 0.0
H675 H 0.10342 0.97299 0.57982 0.0
C676 C 0.93161 0.88993 0.58851 0.0
C677 C 0.94757 0.86111 0.58403 0.0
C678 C 0.9464 0.92389 0.58795 0.0
C679 C 0.97745 0.92986 0.58289 0.0
C680 C 0.99407 0.90102 0.57861 0.0
C681 C 0.97918 0.86696 0.57913 0.0
C682 C 0.99225 0.9663 0.58203 0.0
C683 C 0.02728 0.97277 0.58489 0.0
C684 C 0.97148 0.99486 0.57877 0.0
C685 C 0.93488 0.98942 0.57526 0.0
C686 C 0.92868 0.96468 0.56844 0.0
C687 C 0.89409 0.95944 0.56522 0.0
C688 C 0.86548 0.97898 0.56873 0.0
C689 C 0.87144 1.00387 0.57544 0.0
C690 C 0.90599 0.00918 0.57869 0.0
C691 C 0.08337 0.11048 0.57464 0.0
C692 C 0.06729 0.14009 0.57875 0.0
C693 C 0.06807 0.07681 0.57537 0.0
C694 C 0.03648 0.07184 0.58029 0.0
C695 C 0.01974 0.10145 0.5842 0.0
C696 C 0.03505 0.13529 0.58347 0.0
C697 C 0.02129 0.03562 0.58136 0.0
C698 C 0.98617 0.02917 0.57854 0.0
C699 C 0.04195 0.00709 0.58469 0.0
C700 C 0.07841 0.01255 0.58829 0.0
C701 C 0.08439 0.03765 0.59504 0.0
C702 C 0.11885 0.04292 0.59834 0.0
C703 C 0.14753 0.02306 0.59499 0.0
C704 C 0.14179 0.99781 0.58835 0.0
C705 C 0.10738 0.99247 0.58502 0.0
H706 H 0.17419 0.02717 0.59756 0.0
H707 H 0.83871 0.97489 0.56623 0.0
H708 H 0.1577 0.50537 0.84165 0.0
H709 H 0.095 0.52191 0.83971 0.0
H710 H 0.08997 0.45715 0.81613 0.0
H711 H 0.15294 0.44112 0.81791 0.0
H712 H 0.05383 0.51775 0.81383 0.0
H713 H 0.0577 0.42697 0.83621 0.0
H714 H 0.07821 0.39959 0.85012 0.0
H715 H 0.03761 0.48858 0.86493 0.0
H716 H 0.01729 0.51672 0.85109 0.0
H717 H 0.86335 0.51613 0.81192 0.0
H718 H 0.926 0.49739 0.81283 0.0
H719 H 0.93692 0.55492 0.83744 0.0
H720 H 0.87426 0.57251 0.83675 0.0
H721 H 0.96995 0.49516 0.83882 0.0
H722 H 0.96804 0.58718 0.81659 0.0
H723 H 0.94835 0.6156 0.80272 0.0
H724 H 0.98557 0.5256 0.78775 0.0
H725 H 1.00508 0.49645 0.80155 0.0
C726 C 0.14338 0.49488 0.83601 0.0
C727 C 0.16031 0.4717 0.82998 0.0
C728 C 0.10744 0.50423 0.83493 0.0
C729 C 0.08751 0.4902 0.82787 0.0
C730 C 0.10472 0.46817 0.82165 0.0
C731 C 0.14075 0.45901 0.82268 0.0
C732 C 0.04853 0.49767 0.82714 0.0
C733 C 0.03539 0.5124 0.81926 0.0
C734 C 0.0245 0.49121 0.83425 0.0
C735 C 0.03623 0.47407 0.8426 0.0
C736 C 0.05332 0.44078 0.84243 0.0
C737 C 0.0649 0.42512 0.8503 0.0
C738 C 0.05928 0.44237 0.85841 0.0
C739 C 0.04197 0.47526 0.85865 0.0
C740 C 0.03038 0.49106 0.85079 0.0
C741 C 0.87907 0.52458 0.81755 0.0
C742 C 0.86379 0.54592 0.82424 0.0
C743 C 0.91498 0.51405 0.81804 0.0
C744 C 0.93651 0.52526 0.82513 0.0
C745 C 0.921 0.54593 0.8319 0.0
C746 C 0.88508 0.55603 0.83148 0.0
C747 C 0.97519 0.51577 0.82556 0.0
C748 C 0.9883 0.5005 0.83338 0.0
C749 C 0.99918 0.52188 0.8184 0.0
C750 C 0.98769 0.53949 0.8101 0.0
C751 C 0.97181 0.57336 0.81034 0.0
C752 C 0.96072 0.58961 0.8025 0.0
C753 C 0.96562 0.57238 0.79437 0.0
C754 C 0.98174 0.5389 0.79406 0.0
C755 C 0.99285 0.52251 0.80189 0.0
H756 H 0.957 0.585 0.7883 0.0
H757 H 0.0683 0.43021 0.86449 0.0
H758 H 0.60412 0.61615 0.07247 0.0
H759 H 0.57563 0.55814 0.07339 0.0
H760 H 0.48355 0.60541 0.08616 0.0
H761 H 0.51228 0.66389 0.0854 0.0
H762 H 0.5037 0.54516 0.09444 0.0
H763 H 0.48051 0.57939 0.06445 0.0
H764 H 0.49571 0.60074 0.04944 0.0
H765 H 0.56476 0.51084 0.04543 0.0
H766 H 0.55035 0.48919 0.06047 0.0
H767 H 0.38918 0.39673 0.08986 0.0
H768 H 0.41678 0.45519 0.0889 0.0
H769 H 0.5095 0.40917 0.07613 0.0
H770 H 0.4817 0.35029 0.07694 0.0
H771 H 0.48848 0.46903 0.06784 0.0
H772 H 0.51199 0.43499 0.09784 0.0
H773 H 0.49678 0.41353 0.11284 0.0
H774 H 0.42717 0.50302 0.11681 0.0
H775 H 0.44158 0.52477 0.10179 0.0
C776 C 0.57773 0.61438 0.07546 0.0
C777 C 0.56043 0.64477 0.07884 0.0
C778 C 0.5614 0.58111 0.07593 0.0
C779 C 0.52724 0.57741 0.07974 0.0
C780 C 0.50989 0.60764 0.08317 0.0
C781 C 0.52628 0.64106 0.0827 0.0
C782 C 0.51014 0.54183 0.08026 0.0
C783 C 0.49984 0.52874 0.0886 0.0
C784 C 0.50599 0.51997 0.07268 0.0
C785 C 0.51459 0.53284 0.06362 0.0
C786 C 0.49915 0.56431 0.06039 0.0
C787 C 0.50759 0.57644 0.05188 0.0
C788 C 0.53125 0.55721 0.0465 0.0
C789 C 0.54646 0.52574 0.04961 0.0
C790 C 0.53814 0.51351 0.05813 0.0
C791 C 0.41551 0.39889 0.08686 0.0
C792 C 0.43328 0.36873 0.0835 0.0
C793 C 0.43132 0.43241 0.08636 0.0
C794 C 0.46541 0.43657 0.08255 0.0
C795 C 0.4832 0.40658 0.07912 0.0
C796 C 0.46734 0.37293 0.07962 0.0
C797 C 0.48209 0.47236 0.08201 0.0
C798 C 0.4923 0.48547 0.07367 0.0
C799 C 0.48617 0.49423 0.08959 0.0
C800 C 0.47761 0.48133 0.09866 0.0
C801 C 0.49323 0.44996 0.10189 0.0
C802 C 0.48478 0.43776 0.1104 0.0
C803 C 0.46095 0.45685 0.11577 0.0
C804 C 0.44559 0.48824 0.11264 0.0
C805 C 0.45391 0.50053 0.10413 0.0
H806 H 0.45444 0.44737 0.12235 0.0
H807 H 0.53775 0.56665 0.03991 0.0
H808 H 0.3496 0.48698 0.96276 0.0
H809 H 0.41049 0.51158 0.96274 0.0
H810 H 0.45409 0.40561 0.96395 0.0
H811 H 0.39396 0.3811 0.96412 0.0
H812 H 0.49076 0.44684 0.97442 0.0
H813 H 0.44939 0.45122 0.94459 0.0
H814 H 0.40792 0.46719 0.93262 0.0
H815 H 0.42697 0.5779 0.93754 0.0
H816 H 0.46787 0.56253 0.94974 0.0
H817 H 0.651 0.51741 0.94541 0.0
H818 H 0.59017 0.49447 0.94702 0.0
H819 H 0.58738 0.53033 0.97421 0.0
H820 H 0.64868 0.55215 0.97273 0.0
H821 H 0.52974 0.52503 0.94976 0.0
H822 H 0.53139 0.48014 0.98654 0.0
H823 H 0.57392 0.456 0.99744 0.0
H824 H 0.63829 0.41283 0.97633 0.0
H825 H 0.59593 0.43633 0.96532 0.0
C826 C 0.37219 0.469 0.96308 0.0
C827 C 0.36684 0.43207 0.96339 0.0
C828 C 0.40698 0.48307 0.96305 0.0
C829 C 0.43698 0.46043 0.96328 0.0
C830 C 0.43151 0.42367 0.9638 0.0
C831 C 0.39696 0.40968 0.96385 0.0
C832 C 0.47419 0.47449 0.96265 0.0
C833 C 0.49921 0.46418 0.96907 0.0
C834 C 0.48558 0.49632 0.95554 0.0
C835 C 0.46136 0.50573 0.94815 0.0
C836 C 0.44452 0.47899 0.94317 0.0
C837 C 0.42113 0.48793 0.93634 0.0
C838 C 0.4148 0.52356 0.93431 0.0
C839 C 0.43186 0.55031 0.93912 0.0
C840 C 0.45511 0.5415 0.94601 0.0
C841 C 0.63762 0.51999 0.95177 0.0
C842 C 0.65484 0.53644 0.95895 0.0
C843 C 0.60269 0.50707 0.95267 0.0
C844 C 0.58403 0.51046 0.96075 0.0
C845 C 0.60128 0.52674 0.96795 0.0
C846 C 0.6364 0.53926 0.96709 0.0
C847 C 0.54641 0.49748 0.96156 0.0
C848 C 0.52127 0.50803 0.95518 0.0
C849 C 0.53519 0.47484 0.96854 0.0
C850 C 0.56069 0.46036 0.97511 0.0
C851 C 0.55457 0.46542 0.98423 0.0
C852 C 0.57865 0.45186 0.99043 0.0
C853 C 0.60885 0.43301 0.98758 0.0
C854 C 0.61497 0.42757 0.97853 0.0
C855 C 0.59096 0.44104 0.97231 0.0
H856 H 0.62747 0.42255 0.99238 0.0
H857 H 0.39672 0.53042 0.929 0.0
H858 H 0.62434 0.89761 0.21268 0.0
H859 H 0.59636 0.95601 0.21301 0.0
H860 H 0.49218 0.90752 0.21102 0.0
H861 H 0.5202 0.84861 0.2105 0.0
H862 H 0.49689 0.96358 0.20029 0.0
H863 H 0.52273 0.9413 0.23076 0.0
H864 H 0.55968 0.92521 0.24363 0.0
H865 H 0.62871 0.01399 0.23853 0.0
H866 H 0.59247 0.03035 0.22554 0.0
H867 H 0.39581 0.11379 0.21411 0.0
H868 H 0.42479 0.05572 0.21358 0.0
H869 H 0.52802 0.10613 0.21149 0.0
H870 H 0.49909 0.16474 0.21192 0.0
H871 H 0.52393 0.04976 0.22426 0.0
H872 H 0.4963 0.07184 0.19373 0.0
H873 H 0.45716 0.08817 0.18128 0.0
H874 H 0.38921 0.99911 0.18698 0.0
H875 H 0.42764 0.98258 0.19956 0.0
C876 C 0.59544 0.89922 0.21233 0.0
C877 C 0.57449 0.86835 0.21159 0.0
C878 C 0.57946 0.93273 0.21256 0.0
C879 C 0.54211 0.93621 0.21217 0.0
C880 C 0.52106 0.90548 0.21135 0.0
C881 C 0.53709 0.87183 0.21109 0.0
C882 C 0.52527 0.97201 0.2125 0.0
C883 C 0.50242 0.9822 0.2056 0.0
C884 C 0.53308 0.99669 0.21933 0.0
C885 C 0.55503 0.98688 0.22713 0.0
C886 C 0.54595 0.95724 0.23234 0.0
C887 C 0.56673 0.94811 0.23967 0.0
C888 C 0.59649 0.96859 0.2419 0.0
C889 C 0.6056 0.99819 0.2368 0.0
C890 C 0.58494 0.00742 0.22945 0.0
C891 C 0.4247 0.11265 0.21354 0.0
C892 C 0.44516 0.14393 0.21304 0.0
C893 C 0.44118 0.07939 0.21321 0.0
C894 C 0.47849 0.07665 0.21244 0.0
C895 C 0.49915 0.10774 0.21207 0.0
C896 C 0.4826 0.14115 0.21228 0.0
C897 C 0.49569 0.04115 0.21206 0.0
C898 C 0.51853 0.03107 0.21895 0.0
C899 C 0.48767 0.01649 0.20526 0.0
C900 C 0.46468 0.02617 0.19765 0.0
C901 C 0.47285 0.05591 0.19238 0.0
C902 C 0.45082 0.06517 0.18529 0.0
C903 C 0.42067 0.04474 0.18335 0.0
C904 C 0.41255 0.01494 0.18849 0.0
C905 C 0.43447 0.0056 0.1956 0.0
H906 H 0.40363 0.05195 0.17786 0.0
H907 H 0.61247 0.96154 0.24759 0.0
H908 H 0.85283 0.01657 0.44713 0.0
H909 H 0.91472 0.03663 0.44843 0.0
H910 H 0.92922 0.96842 0.47108 0.0
H911 H 0.86693 0.94924 0.47002 0.0
H912 H 0.96378 0.02711 0.4738 0.0
H913 H 0.95904 0.94479 0.4498 0.0
H914 H 0.9372 0.91906 0.4358 0.0
H915 H 0.96703 0.014 0.42189 0.0
H916 H 0.98859 0.04052 0.43583 0.0
H917 H 0.15677 0.03518 0.46996 0.0
H918 H 0.09555 0.01115 0.46998 0.0
H919 H 0.06417 0.09049 0.45097 0.0
H920 H 0.12466 0.11477 0.45101 0.0
H921 H 0.04027 0.02122 0.44682 0.0
H922 H 0.04284 0.10319 0.47166 0.0
H923 H 0.06602 0.12598 0.48584 0.0
H924 H 0.04233 0.02635 0.49836 0.0
H925 H 0.01946 1.00279 0.4842 0.0
C926 C 0.86905 0.00614 0.45245 0.0
C927 C 0.85496 0.98109 0.45842 0.0
C928 C 0.90457 0.01743 0.45315 0.0
C929 C 0.92706 1.00337 0.45972 0.0
C930 C 0.91258 0.97952 0.46592 0.0
C931 C 0.87689 0.96857 0.4653 0.0
C932 C 0.96578 0.01287 0.45995 0.0
C933 C 0.98057 0.02528 0.46793 0.0
C934 C 0.98791 0.01066 0.4523 0.0
C935 C 0.97514 0.99476 0.44388 0.0
C936 C 0.96072 0.96028 0.44376 0.0
C937 C 0.94842 0.94554 0.43583 0.0
C938 C 0.95065 0.96492 0.42796 0.0
C939 C 0.96528 0.99904 0.42799 0.0
C940 C 0.97757 0.01393 0.43591 0.0
C941 C 0.13682 0.04731 0.46576 0.0
C942 C 0.1455 0.07696 0.46052 0.0
C943 C 0.10188 0.03367 0.4658 0.0
C944 C 0.07529 0.04918 0.4605 0.0
C945 C 0.08424 0.07814 0.4551 0.0
C946 C 0.11884 0.09205 0.45516 0.0
C947 C 0.03788 0.03589 0.4606 0.0
C948 C 0.02342 0.02272 0.45269 0.0
C949 C 0.01628 0.03688 0.46834 0.0
C950 C 0.02985 0.0511 0.47685 0.0
C951 C 0.04288 0.08604 0.47741 0.0
C952 C 0.0559 0.09912 0.48545 0.0
C953 C 0.05576 0.07759 0.49299 0.0
C954 C 0.04249 0.04297 0.49251 0.0
C955 C 0.02948 0.02975 0.48448 0.0
H956 H 0.06585 0.08777 0.4992 0.0
H957 H 0.94111 0.95346 0.42183 0.0
H958 H 0.0193 0.34847 0.71108 0.0
H959 H 0.99089 0.40714 0.71168 0.0
H960 H 0.09478 0.45686 0.71083 0.0
H961 H 0.12327 0.39862 0.71033 0.0
H962 H 0.05289 0.48818 0.72301 0.0
H963 H 0.04205 0.45336 0.69245 0.0
H964 H 0.02478 0.41419 0.68008 0.0
H965 H 0.91456 0.42129 0.68814 0.0
H966 H 0.93125 0.46014 0.70063 0.0
H967 H 0.99737 0.66436 0.71205 0.0
H968 H 0.02551 0.60552 0.71205 0.0
H969 H 0.9213 0.55639 0.71264 0.0
H970 H 0.8931 0.61477 0.71253 0.0
H971 H 0.96314 0.52463 0.70071 0.0
H972 H 0.97372 0.55999 0.73117 0.0
H973 H 0.99086 0.5993 0.74352 0.0
H974 H 0.10128 0.59125 0.73571 0.0
H975 H 0.08474 0.55227 0.72322 0.0
C976 C 0.03607 0.3719 0.71102 0.0
C977 C 0.07356 0.3688 0.71062 0.0
C978 C 0.0198 0.40543 0.71134 0.0
C979 C 0.0407 0.43647 0.71122 0.0
C980 C 0.0781 0.43335 0.71093 0.0
C981 C 0.09433 0.39995 0.71061 0.0
C982 C 0.0238 0.47226 0.71138 0.0
C983 C 0.03357 0.4963 0.71807 0.0
C984 C 0.99805 0.48266 0.70505 0.0
C985 C 0.98795 0.45935 0.69753 0.0
C986 C 0.01417 0.44633 0.69163 0.0
C987 C 1.00447 0.42424 0.68459 0.0
C988 C 0.96861 0.41518 0.68334 0.0
C989 C 0.94234 0.42828 0.68912 0.0
C990 C 0.9519 0.45036 0.69618 0.0
C991 C 0.98048 0.64102 0.71222 0.0
C992 C 0.94298 0.64432 0.7123 0.0
C993 C 0.99659 0.60739 0.71225 0.0
C994 C 0.97552 0.57647 0.71241 0.0
C995 C 0.93813 0.5798 0.7125 0.0
C996 C 0.92205 0.61328 0.71246 0.0
C997 C 0.9922 0.54058 0.71234 0.0
C998 C 0.98242 0.51652 0.70566 0.0
C999 C 0.01791 0.53017 0.71869 0.0
C1000 C 0.02794 0.55351 0.7262 0.0
C1001 C 1.00163 0.56683 0.73204 0.0
C1002 C 0.01124 0.58901 0.73907 0.0
C1003 C 0.04713 0.59784 0.74038 0.0
C1004 C 0.07349 0.58443 0.73467 0.0
C1005 C 0.06401 0.56227 0.72762 0.0
H1006 H 0.05452 0.61501 0.74583 0.0
H1007 H 0.96115 0.39807 0.67788 0.0
H1008 H 0.21039 0.08397 0.36318 0.0
H1009 H 0.21265 0.09789 0.37889 0.0
H1010 H 0.29001 0.18031 0.37372 0.0
H1011 H 0.28818 0.16613 0.35778 0.0
H1012 H 0.30899 0.13846 0.38795 0.0
H1013 H 0.20655 0.20407 0.37953 0.0
H1014 H 0.1492 0.21558 0.37207 0.0
H1015 H 0.09907 0.13312 0.38733 0.0
H1016 H 0.15623 0.12073 0.3948 0.0
H1017 H 0.28617 0.16541 0.4354 0.0
H1018 H 0.28804 0.1801 0.4195 0.0
H1019 H 0.21415 0.09493 0.41417 0.0
H1020 H 0.21223 0.08018 0.42986 0.0
H1021 H 0.19681 0.15607 0.4052 0.0
H1022 H 0.30257 0.08358 0.41101 0.0
H1023 H 0.36001 0.07128 0.41837 0.0
H1024 H 0.40358 0.16822 0.40798 0.0
H1025 H 0.34618 0.1813 0.40065 0.0
C1026 C 0.22782 0.10524 0.36532 0.0
C1027 C 0.24905 0.12399 0.35919 0.0
C1028 C 0.22892 0.1133 0.37434 0.0
C1029 C 0.25109 0.1405 0.37749 0.0
C1030 C 0.27253 0.15935 0.37143 0.0
C1031 C 0.27135 0.15132 0.36233 0.0
C1032 C 0.25219 0.14779 0.38719 0.0
C1033 C 0.28462 0.1433 0.39172 0.0
C1034 C 0.22039 0.15391 0.39213 0.0
C1035 C 0.18578 0.1614 0.38771 0.0
C1036 C 0.18336 0.18824 0.38127 0.0
C1037 C 0.15086 0.19494 0.37704 0.0
C1038 C 0.12052 0.17508 0.37922 0.0
C1039 C 0.12259 0.14851 0.38565 0.0
C1040 C 0.15503 0.14168 0.3899 0.0
C1041 C 0.27014 0.15007 0.43083 0.0
C1042 C 0.24919 0.12152 0.43389 0.0
C1043 C 0.27132 0.15841 0.42176 0.0
C1044 C 0.25132 0.13851 0.41564 0.0
C1045 C 0.22972 0.11071 0.41875 0.0
C1046 C 0.22881 0.1022 0.42774 0.0
C1047 C 0.25326 0.14525 0.40594 0.0
C1048 C 0.22134 0.15235 0.40142 0.0
C1049 C 0.2855 0.14164 0.40103 0.0
C1050 C 0.31999 0.13364 0.40539 0.0
C1051 C 0.32432 0.1024 0.41036 0.0
C1052 C 0.35687 0.09526 0.41451 0.0
C1053 C 0.38539 0.11902 0.41367 0.0
C1054 C 0.38144 0.14989 0.40864 0.0
C1055 C 0.34891 0.15718 0.40449 0.0
H1056 H 0.41057 0.11345 0.4169 0.0
H1057 H 0.09539 0.18029 0.37594 0.0
H1058 H 0.8472 0.76909 0.60646 0.0
H1059 H 0.83246 0.7701 0.62237 0.0
H1060 H 0.91677 0.69444 0.62727 0.0
H1061 H 0.93131 0.69307 0.61152 0.0
H1062 H 0.85817 0.67924 0.63704 0.0
H1063 H 0.92967 0.7837 0.62996 0.0
H1064 H 0.94156 0.83995 0.62213 0.0
H1065 H 0.84449 0.88433 0.63281 0.0
H1066 H 0.8318 0.82811 0.64061 0.0
H1067 H 0.93614 0.70175 0.6784 0.0
H1068 H 0.92001 0.70024 0.6628 0.0
H1069 H 0.83349 0.77355 0.66786 0.0
H1070 H 0.8496 0.77521 0.68366 0.0
H1071 H 0.87577 0.79255 0.65327 0.0
H1072 H 0.81241 0.69063 0.66302 0.0
H1073 H 0.80305 0.63438 0.67104 0.0
H1074 H 0.88589 0.58481 0.65549 0.0
H1075 H 0.89615 0.64091 0.64747 0.0
C1076 C 0.86219 0.75231 0.61093 0.0
C1077 C 0.89061 0.73121 0.60774 0.0
C1078 C 0.85386 0.75303 0.62001 0.0
C1079 C 0.87374 0.73258 0.62603 0.0
C1080 C 0.90103 0.71042 0.62277 0.0
C1081 C 0.90944 0.70982 0.61375 0.0
C1082 C 0.86807 0.7353 0.63578 0.0
C1083 C 0.86191 0.70402 0.6406 0.0
C1084 C 0.87184 0.76781 0.64041 0.0
C1085 C 0.87955 0.8016 0.63577 0.0
C1086 C 0.91073 0.80537 0.63058 0.0
C1087 C 0.91764 0.83725 0.62616 0.0
C1088 C 0.89373 0.86565 0.62694 0.0
C1089 C 0.86293 0.86227 0.63218 0.0
C1090 C 0.85587 0.83042 0.63661 0.0
C1091 C 0.91348 0.71741 0.67624 0.0
C1092 C 0.89415 0.73862 0.68228 0.0
C1093 C 0.90417 0.71635 0.66731 0.0
C1094 C 0.87531 0.73648 0.66417 0.0
C1095 C 0.85574 0.75766 0.67016 0.0
C1096 C 0.86489 0.75848 0.67917 0.0
C1097 C 0.86725 0.73623 0.65453 0.0
C1098 C 0.87091 0.76792 0.64973 0.0
C1099 C 0.86134 0.70405 0.64991 0.0
C1100 C 0.85514 0.67008 0.65467 0.0
C1101 C 0.8288 0.66781 0.66135 0.0
C1102 C 0.82331 0.63593 0.66589 0.0
C1103 C 0.84388 0.60605 0.66378 0.0
C1104 C 0.86995 0.60798 0.65712 0.0
C1105 C 0.87557 0.6398 0.65256 0.0
H1106 H 0.8396 0.5814 0.66731 0.0
H1107 H 0.89912 0.89032 0.62352 0.0
H1108 H 0.26477 0.34593 0.85598 0.0
H1109 H 0.26512 0.33458 0.87205 0.0
H1110 H 0.27275 0.44723 0.87697 0.0
H1111 H 0.27357 0.45846 0.86113 0.0
H1112 H 0.31836 0.41496 0.88678 0.0
H1113 H 0.19309 0.3965 0.87974 0.0
H1114 H 0.1429 0.36729 0.87209 0.0
H1115 H 0.17415 0.26676 0.883 0.0
H1116 H 0.22479 0.29535 0.89063 0.0
H1117 H 0.25579 0.45373 0.92913 0.0
H1118 H 0.26098 0.44435 0.91323 0.0
H1119 H 0.26923 0.33137 0.91732 0.0
H1120 H 0.2638 0.34057 0.93345 0.0
H1121 H 0.22302 0.35062 0.90316 0.0
H1122 H 0.34311 0.37522 0.91237 0.0
H1123 H 0.39109 0.40794 0.92001 0.0
H1124 H 0.36678 0.50137 0.90493 0.0
H1125 H 0.31831 0.46944 0.8973 0.0
C1126 C 0.26643 0.36818 0.86052 0.0
C1127 C 0.2694 0.40307 0.85727 0.0
C1128 C 0.26651 0.36169 0.8697 0.0
C1129 C 0.26894 0.39006 0.87576 0.0
C1130 C 0.27122 0.42482 0.87247 0.0
C1131 C 0.27162 0.43122 0.86337 0.0
C1132 C 0.26995 0.38441 0.88555 0.0
C1133 C 0.29738 0.40097 0.89034 0.0
C1134 C 0.24337 0.36511 0.89023 0.0
C1135 C 0.21296 0.34796 0.88566 0.0
C1136 C 0.18942 0.36812 0.88045 0.0
C1137 C 0.16086 0.35169 0.87613 0.0
C1138 C 0.15541 0.31517 0.87704 0.0
C1139 C 0.17845 0.29503 0.88229 0.0
C1140 C 0.20707 0.31133 0.88661 0.0
C1141 C 0.2587 0.42678 0.92671 0.0
C1142 C 0.2596 0.39789 0.9326 0.0
C1143 C 0.26176 0.4215 0.91758 0.0
C1144 C 0.26601 0.38722 0.91408 0.0
C1145 C 0.26616 0.35808 0.91989 0.0
C1146 C 0.26316 0.36338 0.9291 0.0
C1147 C 0.27046 0.38265 0.90434 0.0
C1148 C 0.2443 0.36403 0.89957 0.0
C1149 C 0.2979 0.40058 0.89964 0.0
C1150 C 0.32698 0.4199 0.90427 0.0
C1151 C 0.34782 0.40281 0.91073 0.0
C1152 C 0.37513 0.42122 0.91505 0.0
C1153 C 0.382 0.45669 0.91294 0.0
C1154 C 0.36147 0.47388 0.90654 0.0
C1155 C 0.33411 0.45562 0.90221 0.0
H1156 H 0.4033 0.47085 0.91623 0.0
H1157 H 0.13329 0.30249 0.87369 0.0
H1158 H 0.63638 0.79358 0.10795 0.0
H1159 H 0.64765 0.79853 0.1238 0.0
H1160 H 0.67416 0.68708 0.12481 0.0
H1161 H 0.6618 0.6817 0.10895 0.0
H1162 H 0.62952 0.70156 0.13743 0.0
H1163 H 0.73848 0.75443 0.12789 0.0
H1164 H 0.77767 0.7947 0.11939 0.0
H1165 H 0.72638 0.88494 0.13143 0.0
H1166 H 0.68652 0.84523 0.13992 0.0
H1167 H 0.66264 0.71926 0.18364 0.0
H1168 H 0.67716 0.70981 0.16792 0.0
H1169 H 0.63727 0.81438 0.16182 0.0
H1170 H 0.62288 0.82406 0.17744 0.0
H1171 H 0.69786 0.79783 0.15206 0.0
H1172 H 0.58374 0.74364 0.1597 0.0
H1173 H 0.5449 0.70304 0.16822 0.0
H1174 H 0.60833 0.61412 0.15962 0.0
H1175 H 0.64784 0.65432 0.15114 0.0
C1176 C 0.6452 0.77021 0.1115 0.0
C1177 C 0.64803 0.73719 0.10717 0.0
C1178 C 0.65185 0.77312 0.12059 0.0
C1179 C 0.66211 0.74325 0.12553 0.0
C1180 C 0.66627 0.71052 0.12115 0.0
C1181 C 0.65929 0.70751 0.11207 0.0
C1182 C 0.66539 0.74564 0.13537 0.0
C1183 C 0.64522 0.72211 0.14061 0.0
C1184 C 0.68535 0.77278 0.13958 0.0
C1185 C 0.70933 0.79681 0.1345 0.0
C1186 C 0.73538 0.78287 0.12868 0.0
C1187 C 0.75775 0.8056 0.12387 0.0
C1188 C 0.75448 0.84235 0.12485 0.0
C1189 C 0.72888 0.85646 0.13067 0.0
C1190 C 0.70642 0.83384 0.13549 0.0
C1191 C 0.6576 0.74048 0.17897 0.0
C1192 C 0.64128 0.77229 0.18178 0.0
C1193 C 0.66579 0.73499 0.16999 0.0
C1194 C 0.65789 0.76124 0.16368 0.0
C1195 C 0.64357 0.79375 0.16656 0.0
C1196 C 0.63519 0.79916 0.1755 0.0
C1197 C 0.66164 0.75414 0.15402 0.0
C1198 C 0.68291 0.77685 0.14884 0.0
C1199 C 0.64288 0.72616 0.14985 0.0
C1200 C 0.61897 0.702 0.15488 0.0
C1201 C 0.58955 0.71546 0.15968 0.0
C1202 C 0.56739 0.69253 0.1645 0.0
C1203 C 0.57421 0.65604 0.16449 0.0
C1204 C 0.60313 0.6424 0.15964 0.0
C1205 C 0.6254 0.66524 0.15482 0.0
H1206 H 0.55704 0.63832 0.16822 0.0
H1207 H 0.77182 0.85991 0.12112 0.0
H1208 H 0.80685 0.57715 0.86314 0.0
H1209 H 0.79872 0.58694 0.87896 0.0
H1210 H 0.72388 0.67139 0.87368 0.0
H1211 H 0.732 0.66175 0.85762 0.0
H1212 H 0.77332 0.68508 0.88828 0.0
H1213 H 0.68835 0.59853 0.87923 0.0
H1214 H 0.66713 0.54542 0.87128 0.0
H1215 H 0.73961 0.48018 0.88607 0.0
H1216 H 0.76172 0.53298 0.89402 0.0
H1217 H 0.72927 0.66005 0.93549 0.0
H1218 H 0.72337 0.67041 0.91945 0.0
H1219 H 0.79501 0.58291 0.9142 0.0
H1220 H 0.80111 0.57253 0.93001 0.0
H1221 H 0.73231 0.5785 0.90475 0.0
H1222 H 0.82299 0.6668 0.91194 0.0
H1223 H 0.84526 0.72009 0.91966 0.0
H1224 H 0.76057 0.78225 0.90842 0.0
H1225 H 0.73752 0.72917 0.90072 0.0
C1226 C 0.78883 0.59805 0.86529 0.0
C1227 C 0.76974 0.61839 0.8591 0.0
C1228 C 0.78424 0.60362 0.87436 0.0
C1229 C 0.7603 0.6295 0.87749 0.0
C1230 C 0.7424 0.65118 0.87138 0.0
C1231 C 0.74702 0.64561 0.86222 0.0
C1232 C 0.75304 0.63177 0.88717 0.0
C1233 C 0.76352 0.66214 0.89189 0.0
C1234 C 0.74035 0.60179 0.89187 0.0
C1235 C 0.72681 0.56979 0.8872 0.0
C1236 C 0.69993 0.57289 0.88075 0.0
C1237 C 0.68772 0.54283 0.87625 0.0
C1238 C 0.70203 0.50945 0.87816 0.0
C1239 C 0.72853 0.50605 0.8846 0.0
C1240 C 0.74088 0.53604 0.88912 0.0
C1241 C 0.74399 0.64329 0.9309 0.0
C1242 C 0.7655 0.61533 0.93404 0.0
C1243 C 0.7406 0.64925 0.92175 0.0
C1244 C 0.75863 0.62729 0.91563 0.0
C1245 C 0.78065 0.60001 0.91879 0.0
C1246 C 0.78415 0.59417 0.92786 0.0
C1247 C 0.75406 0.6312 0.90591 0.0
C1248 C 0.74122 0.60185 0.90116 0.0
C1249 C 0.76439 0.66215 0.90123 0.0
C1250 C 0.77826 0.69396 0.90586 0.0
C1251 C 0.80891 0.69176 0.91119 0.0
C1252 C 0.82172 0.72194 0.91554 0.0
C1253 C 0.80426 0.75451 0.91456 0.0
C1254 C 0.77401 0.75699 0.9092 0.0
C1255 C 0.76108 0.72688 0.90483 0.0
H1256 H 0.81423 0.77784 0.91793 0.0
H1257 H 0.69256 0.48621 0.87466 0.0
H1258 H 0.33392 0.18843 0.18385 0.0
H1259 H 0.32528 0.19275 0.16782 0.0
H1260 H 0.37825 0.29451 0.16774 0.0
H1261 H 0.38558 0.29102 0.18376 0.0
H1262 H 0.32718 0.29679 0.15643 0.0
H1263 H 0.42164 0.21282 0.16246 0.0
H1264 H 0.44811 0.15902 0.16905 0.0
H1265 H 0.3718 0.0941 0.15537 0.0
H1266 H 0.34457 0.1476 0.14879 0.0
H1267 H 0.41469 0.30455 0.1148 0.0
H1268 H 0.39814 0.29864 0.13041 0.0
H1269 H 0.32576 0.21362 0.12385 0.0
H1270 H 0.34185 0.21984 0.10807 0.0
H1271 H 0.37611 0.19865 0.13799 0.0
H1272 H 0.28904 0.28609 0.13011 0.0
H1273 H 0.2678 0.34164 0.12329 0.0
H1274 H 0.33644 0.40209 0.14032 0.0
H1275 H 0.3585 0.34686 0.14715 0.0
C1276 C 0.34323 0.21196 0.18043 0.0
C1277 C 0.3607 0.23924 0.18509 0.0
C1278 C 0.33849 0.21431 0.17125 0.0
C1279 C 0.35183 0.2436 0.1665 0.0
C1280 C 0.36777 0.27157 0.17121 0.0
C1281 C 0.37202 0.2695 0.1804 0.0
C1282 C 0.35098 0.24464 0.15661 0.0
C1283 C 0.338 0.27533 0.15242 0.0
C1284 C 0.36437 0.21639 0.1513 0.0
C1285 C 0.3808 0.18422 0.15522 0.0
C1286 C 0.41035 0.18708 0.16091 0.0
C1287 C 0.4255 0.15665 0.16463 0.0
C1288 C 0.41157 0.12318 0.16265 0.0
C1289 C 0.38251 0.12006 0.15692 0.0
C1290 C 0.36721 0.15042 0.15318 0.0
C1291 C 0.39492 0.28484 0.11665 0.0
C1292 C 0.37957 0.26264 0.11021 0.0
C1293 C 0.38542 0.28157 0.12557 0.0
C1294 C 0.36065 0.25578 0.12829 0.0
C1295 C 0.34486 0.23377 0.12188 0.0
C1296 C 0.35392 0.23746 0.11288 0.0
C1297 C 0.35305 0.25102 0.13789 0.0
C1298 C 0.36459 0.21972 0.14202 0.0
C1299 C 0.33899 0.27895 0.14315 0.0
C1300 C 0.32558 0.31228 0.13911 0.0
C1301 C 0.2998 0.3112 0.13236 0.0
C1302 C 0.28758 0.34264 0.1285 0.0
C1303 C 0.3008 0.37537 0.13136 0.0
C1304 C 0.32622 0.37672 0.13811 0.0
C1305 C 0.33855 0.34535 0.14199 0.0
H1306 H 0.29131 0.39968 0.12837 0.0
H1307 H 0.42337 0.09965 0.16553 0.0
H1308 H 0.74932 0.9545 0.36124 0.0
H1309 H 0.75584 0.94223 0.37694 0.0
H1310 H 0.78292 0.83335 0.37104 0.0
H1311 H 0.77606 0.84545 0.35508 0.0
H1312 H 0.73615 0.84004 0.3856 0.0
H1313 H 0.84862 0.88618 0.37693 0.0
H1314 H 0.89068 0.92646 0.36932 0.0
H1315 H 0.85137 0.0141 0.38483 0.0
H1316 H 0.80865 0.97448 0.39243 0.0
H1317 H 0.77705 0.84507 0.43322 0.0
H1318 H 0.78535 0.83388 0.41723 0.0
H1319 H 0.75064 0.94067 0.41161 0.0
H1320 H 0.74198 0.95184 0.42735 0.0
H1321 H 0.81444 0.92093 0.40276 0.0
H1322 H 0.69431 0.87465 0.40893 0.0
H1323 H 0.65212 0.8338 0.41632 0.0
H1324 H 0.70897 0.74435 0.4055 0.0
H1325 H 0.75178 0.78474 0.39813 0.0
C1326 C 0.75664 0.92785 0.36322 0.0
C1327 C 0.76248 0.90102 0.35687 0.0
C1328 C 0.76046 0.92091 0.37223 0.0
C1329 C 0.77053 0.88706 0.37517 0.0
C1330 C 0.77538 0.85974 0.3689 0.0
C1331 C 0.7715 0.86671 0.35981 0.0
C1332 C 0.77602 0.88121 0.38481 0.0
C1333 C 0.75397 0.85704 0.38935 0.0
C1334 C 0.79933 0.90332 0.38971 0.0
C1335 C 0.82531 0.92731 0.38524 0.0
C1336 C 0.84879 0.91407 0.37869 0.0
C1337 C 0.87277 0.9368 0.37438 0.0
C1338 C 0.87368 0.97282 0.37659 0.0
C1339 C 0.85066 0.98618 0.38313 0.0
C1340 C 0.82659 0.96358 0.38745 0.0
C1341 C 0.77118 0.86607 0.42856 0.0
C1342 C 0.75878 0.89931 0.43157 0.0
C1343 C 0.77589 0.85963 0.41944 0.0
C1344 C 0.76867 0.88651 0.41324 0.0
C1345 C 0.75652 0.91962 0.41627 0.0
C1346 C 0.75143 0.92588 0.4253 0.0
C1347 C 0.7734 0.88101 0.40355 0.0
C1348 C 0.79746 0.90313 0.399 0.0
C1349 C 0.75225 0.85681 0.39867 0.0
C1350 C 0.72649 0.83266 0.40309 0.0
C1351 C 0.698 0.84626 0.4082 0.0
C1352 C 0.67393 0.8232 0.41237 0.0
C1353 C 0.67794 0.7865 0.41141 0.0
C1354 C 0.70595 0.77278 0.40625 0.0
C1355 C 0.73011 0.79574 0.40208 0.0
H1356 H 0.65927 0.76868 0.41464 0.0
H1357 H 0.89224 0.99038 0.37323 0.0
H1358 H 0.14884 0.17577 0.6812 0.0
H1359 H 0.15978 0.18004 0.66529 0.0
H1360 H 0.16671 0.29403 0.66745 0.0
H1361 H 0.15519 0.29001 0.68343 0.0
H1362 H 0.12238 0.27562 0.65453 0.0
H1363 H 0.24113 0.24339 0.66241 0.0
H1364 H 0.2884 0.20871 0.66975 0.0
H1365 H 0.25653 0.11543 0.65544 0.0
H1366 H 0.20871 0.14942 0.6481 0.0
H1367 H 0.15475 0.28655 0.60818 0.0
H1368 H 0.1663 0.29177 0.6241 0.0
H1369 H 0.15698 0.17818 0.62684 0.0
H1370 H 0.14601 0.17267 0.61096 0.0
H1371 H 0.20939 0.20328 0.63727 0.0
H1372 H 0.08603 0.23341 0.63119 0.0
H1373 H 0.03773 0.26721 0.62399 0.0
H1374 H 0.07821 0.36404 0.63514 0.0
H1375 H 0.12705 0.33082 0.64232 0.0
C1376 C 0.15326 0.20176 0.67834 0.0
C1377 C 0.151 0.23256 0.68361 0.0
C1378 C 0.15971 0.20415 0.66922 0.0
C1379 C 0.16434 0.23735 0.66515 0.0
C1380 C 0.16327 0.26811 0.67044 0.0
C1381 C 0.15684 0.26575 0.67958 0.0
C1382 C 0.1673 0.23987 0.65531 0.0
C1383 C 0.14199 0.26044 0.65077 0.0
C1384 C 0.19235 0.2195 0.65037 0.0
C1385 C 0.22115 0.19893 0.65475 0.0
C1386 C 0.24401 0.21542 0.66088 0.0
C1387 C 0.27095 0.19589 0.66503 0.0
C1388 C 0.27542 0.15988 0.66308 0.0
C1389 C 0.25302 0.14333 0.65695 0.0
C1390 C 0.22603 0.16273 0.65278 0.0
C1391 C 0.15573 0.26262 0.61215 0.0
C1392 C 0.14909 0.22921 0.6083 0.0
C1393 C 0.16218 0.26566 0.62126 0.0
C1394 C 0.16191 0.23542 0.62671 0.0
C1395 C 0.15722 0.20192 0.62279 0.0
C1396 C 0.15083 0.19884 0.6137 0.0
C1397 C 0.16416 0.23857 0.63653 0.0
C1398 C 0.19029 0.21898 0.64106 0.0
C1399 C 0.13982 0.25976 0.64148 0.0
C1400 C 0.11042 0.27971 0.6372 0.0
C1401 C 0.08478 0.26194 0.63205 0.0
C1402 C 0.05729 0.28098 0.62798 0.0
C1403 C 0.05498 0.31776 0.62908 0.0
C1404 C 0.08009 0.33556 0.63428 0.0
C1405 C 0.10767 0.31664 0.63835 0.0
H1406 H 0.03367 0.33246 0.62593 0.0
H1407 H 0.29629 0.1448 0.6663 0.0
H1408 H 0.30002 0.18555 0.30809 0.0
H1409 H 0.31352 0.20966 0.29335 0.0
H1410 H 0.22181 0.15518 0.28271 0.0
H1411 H 0.2085 0.13073 0.29731 0.0
H1412 H 0.27937 0.14209 0.27291 0.0
H1413 H 0.22354 0.2463 0.28517 0.0
H1414 H 0.21454 0.29436 0.29609 0.0
H1415 H 0.32153 0.33151 0.29133 0.0
H1416 H 0.33136 0.28336 0.28047 0.0
H1417 H 0.28534 0.21271 0.22965 0.0
H1418 H 0.26435 0.20074 0.24475 0.0
H1419 H 0.35755 0.25303 0.25527 0.0
H1420 H 0.37847 0.26553 0.24022 0.0
H1421 H 0.29865 0.26856 0.26513 0.0
H1422 H 0.35556 0.16388 0.25349 0.0
H1423 H 0.36584 0.11581 0.24264 0.0
H1424 H 0.25807 0.0792 0.24648 0.0
H1425 H 0.24699 0.12742 0.25726 0.0
C1426 C 0.28242 0.17919 0.30263 0.0
C1427 C 0.25331 0.15604 0.30387 0.0
C1428 C 0.29013 0.19304 0.29421 0.0
C1429 C 0.26866 0.18426 0.2869 0.0
C1430 C 0.23888 0.16221 0.28822 0.0
C1431 C 0.23126 0.1483 0.2966 0.0
C1432 C 0.27836 0.19594 0.27777 0.0
C1433 C 0.28298 0.16982 0.2712 0.0
C1434 C 0.28415 0.23201 0.27555 0.0
C1435 C 0.2783 0.261 0.28207 0.0
C1436 C 0.24526 0.26454 0.28651 0.0
C1437 C 0.23998 0.29183 0.29268 0.0
C1438 C 0.26748 0.31591 0.29442 0.0
C1439 C 0.30028 0.31281 0.28999 0.0
C1440 C 0.3057 0.28554 0.28381 0.0
C1441 C 0.30116 0.22207 0.23517 0.0
C1442 C 0.33377 0.23978 0.23371 0.0
C1443 C 0.28918 0.21509 0.24381 0.0
C1444 C 0.30966 0.22551 0.25115 0.0
C1445 C 0.34134 0.24465 0.24972 0.0
C1446 C 0.35333 0.25165 0.24109 0.0
C1447 C 0.2992 0.21471 0.26029 0.0
C1448 C 0.29472 0.24089 0.26686 0.0
C1449 C 0.29367 0.17865 0.26254 0.0
C1450 C 0.30033 0.14948 0.25611 0.0
C1451 C 0.33397 0.14574 0.25197 0.0
C1452 C 0.33995 0.11845 0.24584 0.0
C1453 C 0.31259 0.09452 0.24385 0.0
C1454 C 0.27922 0.09779 0.24801 0.0
C1455 C 0.27307 0.12508 0.25413 0.0
H1456 H 0.31728 0.07341 0.2391 0.0
H1457 H 0.26334 0.33703 0.2992 0.0
H1458 H 0.73028 0.90909 0.49517 0.0
H1459 H 0.74589 0.88492 0.50959 0.0
H1460 H 0.80357 0.79944 0.49689 0.0
H1461 H 0.78803 0.82368 0.48227 0.0
H1462 H 0.76223 0.77886 0.51249 0.0
H1463 H 0.85094 0.86396 0.50372 0.0
H1464 H 0.87244 0.92152 0.49805 0.0
H1465 H 0.82219 0.97517 0.51998 0.0
H1466 H 0.79987 0.91795 0.52571 0.0
H1467 H 0.86281 0.73877 0.55176 0.0
H1468 H 0.84167 0.75042 0.53673 0.0
H1469 H 0.79588 0.8497 0.54555 0.0
H1470 H 0.81766 0.83865 0.56052 0.0
H1471 H 0.83425 0.85988 0.53122 0.0
H1472 H 0.74396 0.77568 0.53986 0.0
H1473 H 0.72102 0.7186 0.5455 0.0
H1474 H 0.77303 0.66353 0.52404 0.0
H1475 H 0.79669 0.72026 0.51833 0.0
C1476 C 0.74596 0.88491 0.49539 0.0
C1477 C 0.75826 0.86855 0.48755 0.0
C1478 C 0.75485 0.87113 0.50366 0.0
C1479 C 0.77628 0.84069 0.50431 0.0
C1480 C 0.78706 0.82304 0.49652 0.0
C1481 C 0.77821 0.83694 0.48819 0.0
C1482 C 0.78921 0.82922 0.51315 0.0
C1483 C 0.77845 0.79624 0.51655 0.0
C1484 C 0.80984 0.85224 0.51849 0.0
C1485 C 0.82347 0.88669 0.5151 0.0
C1486 C 0.84423 0.88806 0.5073 0.0
C1487 C 0.8566 0.92062 0.50407 0.0
C1488 C 0.84862 0.95199 0.50864 0.0
C1489 C 0.82832 0.95085 0.51645 0.0
C1490 C 0.81583 0.91836 0.51969 0.0
C1491 C 0.84779 0.76286 0.55053 0.0
C1492 C 0.84206 0.78786 0.55735 0.0
C1493 C 0.8356 0.76943 0.54192 0.0
C1494 C 0.81703 0.80091 0.53998 0.0
C1495 C 0.81026 0.82529 0.54686 0.0
C1496 C 0.82264 0.81887 0.55543 0.0
C1497 C 0.80665 0.80971 0.53072 0.0
C1498 C 0.8181 0.84228 0.52719 0.0
C1499 C 0.78662 0.7863 0.52531 0.0
C1500 C 0.77241 0.75218 0.52872 0.0
C1501 C 0.75076 0.75137 0.53639 0.0
C1502 C 0.73757 0.71908 0.53959 0.0
C1503 C 0.74565 0.68745 0.53515 0.0
C1504 C 0.76685 0.68805 0.52748 0.0
C1505 C 0.78012 0.72026 0.52425 0.0
H1506 H 0.73541 0.66249 0.53763 0.0
H1507 H 0.85823 0.97717 0.50614 0.0
H1508 H 0.13197 0.24735 0.73912 0.0
H1509 H 0.14907 0.25722 0.7545 0.0
H1510 H 0.24507 0.31055 0.74581 0.0
H1511 H 0.22812 0.30081 0.7303 0.0
H1512 H 0.2555 0.26494 0.76069 0.0
H1513 H 0.17816 0.35987 0.75164 0.0
H1514 H 0.12386 0.38583 0.74507 0.0
H1515 H 0.05879 0.33361 0.76465 0.0
H1516 H 0.1127 0.30687 0.77126 0.0
H1517 H 0.28678 0.35766 0.80158 0.0
H1518 H 0.27937 0.33767 0.78627 0.0
H1519 H 0.17426 0.29778 0.79278 0.0
H1520 H 0.18113 0.31852 0.80802 0.0
H1521 H 0.17066 0.33708 0.77866 0.0
H1522 H 0.24763 0.24222 0.78789 0.0
H1523 H 0.30163 0.21535 0.79438 0.0
H1524 H 0.36714 0.26636 0.77469 0.0
H1525 H 0.31355 0.29393 0.76814 0.0
C1526 C 0.15694 0.26087 0.74043 0.0
C1527 C 0.1785 0.2736 0.73344 0.0
C1528 C 0.16665 0.26651 0.74925 0.0
C1529 C 0.19812 0.28499 0.7513 0.0
C1530 C 0.22064 0.29627 0.74437 0.0
C1531 C 0.21084 0.29077 0.73551 0.0
C1532 C 0.20608 0.2943 0.76066 0.0
C1533 C 0.23725 0.28107 0.76462 0.0
C1534 C 0.1819 0.31482 0.7658 0.0
C1535 C 0.14944 0.33109 0.76189 0.0
C1536 C 0.15225 0.35369 0.7545 0.0
C1537 C 0.12155 0.36858 0.75078 0.0
C1538 C 0.08789 0.36131 0.75443 0.0
C1539 C 0.08488 0.33919 0.76183 0.0
C1540 C 0.1155 0.32418 0.76556 0.0
C1541 C 0.26236 0.34402 0.79979 0.0
C1542 C 0.23447 0.33984 0.80602 0.0
C1543 C 0.25817 0.33251 0.79102 0.0
C1544 C 0.22625 0.31609 0.78833 0.0
C1545 C 0.19906 0.31051 0.79466 0.0
C1546 C 0.20309 0.32228 0.80339 0.0
C1547 C 0.21991 0.30723 0.77883 0.0
C1548 C 0.189 0.32081 0.7748 0.0
C1549 C 0.24434 0.28698 0.77366 0.0
C1550 C 0.2766 0.27043 0.77758 0.0
C1551 C 0.27358 0.24795 0.78499 0.0
C1552 C 0.30411 0.23254 0.78867 0.0
C1553 C 0.3378 0.23922 0.78496 0.0
C1554 C 0.34102 0.26125 0.77756 0.0
C1555 C 0.31058 0.27674 0.77385 0.0
H1556 H 0.36141 0.22726 0.78782 0.0
H1557 H 0.06415 0.37287 0.75154 0.0
H1558 H 0.79942 0.62373 0.9963 0.0
H1559 H 0.78462 0.64901 1.01075 0.0
H1560 H 0.69614 0.70587 0.99925 0.0
H1561 H 0.71113 0.68085 0.98464 0.0
H1562 H 0.73112 0.74583 1.01194 0.0
H1563 H 0.68036 0.62962 1.00968 0.0
H1564 H 0.68021 0.56524 1.00669 0.0
H1565 H 0.75747 0.54914 0.02725 0.0
H1566 H 0.75847 0.61354 0.03028 0.0
H1567 H 0.63183 0.7676 0.05238 0.0
H1568 H 0.65333 0.75466 0.03739 0.0
H1569 H 0.74158 0.69515 0.04815 0.0
H1570 H 0.72008 0.70774 0.0632 0.0
H1571 H 0.70631 0.65789 0.03566 0.0
H1572 H 0.75514 0.7752 0.03816 0.0
H1573 H 0.7536 0.8396 0.0411 0.0
H1574 H 0.67767 0.85377 1.02016 0.0
H1575 H 0.67838 0.78935 1.01717 0.0
C1576 C 0.77702 0.64192 0.99679 0.0
C1577 C 0.75619 0.64994 0.98932 0.0
C1578 C 0.76857 0.65631 1.00508 0.0
C1579 C 0.73886 0.67877 1.00612 0.0
C1580 C 0.71909 0.68844 0.9986 0.0
C1581 C 0.72766 0.6741 0.99026 0.0
C1582 C 0.72748 0.69027 1.01514 0.0
C1583 C 0.72526 0.72665 1.01711 0.0
C1584 C 0.72035 0.66522 0.02192 0.0
C1585 C 0.71975 0.62645 1.02014 0.0
C1586 C 0.69753 0.61239 1.01351 0.0
C1587 C 0.69726 0.57589 1.01182 0.0
C1588 C 0.71889 0.55312 1.01676 0.0
C1589 C 0.74077 0.56681 0.02342 0.0
C1590 C 0.74118 0.60331 0.02513 0.0
C1591 C 0.65609 0.75213 0.05158 0.0
C1592 C 0.67416 0.73858 0.05901 0.0
C1593 C 0.66844 0.74489 0.04299 0.0
C1594 C 0.69917 0.72406 0.04164 0.0
C1595 C 0.7178 0.71129 0.04904 0.0
C1596 C 0.70554 0.71862 0.05764 0.0
C1597 C 0.71038 0.71351 0.03253 0.0
C1598 C 0.71234 0.67716 0.03052 0.0
C1599 C 0.71698 0.73862 0.02573 0.0
C1600 C 0.71656 0.77738 0.0275 0.0
C1601 C 0.73789 0.792 0.03423 0.0
C1602 C 0.73721 0.82852 0.0359 0.0
C1603 C 0.71548 0.85075 0.03084 0.0
C1604 C 0.69445 0.83651 0.02408 0.0
C1605 C 0.69501 0.8 0.02239 0.0
H1606 H 0.71499 0.87902 0.03214 0.0
H1607 H 0.71863 0.52487 1.01544 0.0
H1608 H 0.35883 0.23586 0.05357 0.0
H1609 H 0.3387 0.24318 0.03828 0.0
H1610 H 0.27578 0.33412 0.04614 0.0
H1611 H 0.29558 0.32692 0.06145 0.0
H1612 H 0.24019 0.29233 0.03422 0.0
H1613 H 0.35752 0.34503 0.037 0.0
H1614 H 0.42183 0.34508 0.04056 0.0
H1615 H 0.44039 0.26269 0.02135 0.0
H1616 H 0.37604 0.26182 1.01775 0.0
H1617 H 0.22343 0.39749 0.9961 0.0
H1618 H 0.23585 0.37085 1.01043 0.0
H1619 H 0.29776 0.2885 0.99762 0.0
H1620 H 0.28574 0.31554 0.98312 0.0
H1621 H 0.33329 0.31639 1.01141 0.0
H1622 H 0.21658 0.26952 1.00721 0.0
H1623 H 0.15236 0.27049 1.00358 0.0
H1624 H 0.13221 0.3418 0.0253 0.0
H1625 H 0.19641 0.34167 0.02899 0.0
C1626 C 0.34033 0.25716 0.05208 0.0
C1627 C 0.32904 0.28098 0.05875 0.0
C1628 C 0.32897 0.26138 0.04332 0.0
C1629 C 0.3061 0.28949 0.04104 0.0
C1630 C 0.29348 0.31228 0.04774 0.0
C1631 C 0.30492 0.30816 0.0565 0.0
C1632 C 0.29672 0.29642 0.03162 0.0
C1633 C 0.2605 0.29776 0.02924 0.0
C1634 C 0.32326 0.3025 0.02505 0.0
C1635 C 0.36193 0.30305 0.02719 0.0
C1636 C 0.37527 0.32671 0.03359 0.0
C1637 C 0.41173 0.32693 0.0356 0.0
C1638 C 0.43516 0.30382 0.0312 0.0
C1639 C 0.42219 0.28051 0.02476 0.0
C1640 C 0.38573 0.28016 0.02273 0.0
C1641 C 0.23939 0.37348 0.99628 0.0
C1642 C 0.25361 0.35867 0.98844 0.0
C1643 C 0.24629 0.35812 1.00451 0.0
C1644 C 0.26741 0.3274 1.00513 0.0
C1645 C 0.28125 0.31212 0.99731 0.0
C1646 C 0.27424 0.3275 0.98903 0.0
C1647 C 0.27665 0.31294 1.01401 0.0
C1648 C 0.31289 0.3103 1.01632 0.0
C1649 C 0.2501 0.30567 1.02051 0.0
C1650 C 0.2114 0.30575 1.01834 0.0
C1651 C 0.19851 0.28561 1.01118 0.0
C1652 C 0.1621 0.28598 1.00912 0.0
C1653 C 0.13823 0.30624 1.0142 0.0
C1654 C 0.15073 0.32612 0.02137 0.0
C1655 C 0.18713 0.32586 0.02346 0.0
H1656 H 0.11005 0.30649 1.01259 0.0
H1657 H 0.46339 0.30403 0.03277 0.0
H1658 H 0.72127 0.82935 0.30596 0.0
H1659 H 0.70737 0.80401 0.29138 0.0
H1660 H 0.78463 0.87389 0.27918 0.0
H1661 H 0.79808 0.89958 0.2936 0.0
H1662 H 0.72385 0.8768 0.27054 0.0
H1663 H 0.79947 0.78331 0.28147 0.0
H1664 H 0.81886 0.73735 0.29203 0.0
H1665 H 0.71882 0.68293 0.2889 0.0
H1666 H 0.69863 0.72884 0.2784 0.0
H1667 H 0.72799 0.80657 0.22729 0.0
H1668 H 0.7476 0.82063 0.24234 0.0
H1669 H 0.66259 0.75611 0.2531 0.0
H1670 H 0.64288 0.74175 0.23809 0.0
H1671 H 0.72579 0.74897 0.26255 0.0
H1672 H 0.65018 0.8424 0.25175 0.0
H1673 H 0.63096 0.88762 0.24097 0.0
H1674 H 0.73104 0.94212 0.24394 0.0
H1675 H 0.7511 0.89687 0.25463 0.0
C1676 C 0.73561 0.83893 0.30018 0.0
C1677 C 0.76064 0.86661 0.30094 0.0
C1678 C 0.7277 0.8244 0.29185 0.0
C1679 C 0.74498 0.83701 0.28416 0.0
C1680 C 0.77076 0.86384 0.28498 0.0
C1681 C 0.77849 0.87846 0.29326 0.0
C1682 C 0.73513 0.82387 0.27518 0.0
C1683 C 0.72479 0.84886 0.26878 0.0
C1684 C 0.73531 0.78734 0.27292 0.0
C1685 C 0.7474 0.75972 0.27922 0.0
C1686 C 0.78149 0.7617 0.28309 0.0
C1687 C 0.79265 0.73563 0.28905 0.0
C1688 C 0.77005 0.70729 0.29115 0.0
C1689 C 0.73627 0.70492 0.28728 0.0
C1690 C 0.72497 0.73095 0.28131 0.0
C1691 C 0.71378 0.7949 0.23284 0.0
C1692 C 0.68364 0.77331 0.23147 0.0
C1693 C 0.72496 0.80306 0.24144 0.0
C1694 C 0.70623 0.78981 0.24884 0.0
C1695 C 0.67737 0.7667 0.24749 0.0
C1696 C 0.66607 0.75864 0.2389 0.0
C1697 C 0.71522 0.80198 0.25793 0.0
C1698 C 0.72505 0.77687 0.26434 0.0
C1699 C 0.71455 0.83842 0.26023 0.0
C1700 C 0.70229 0.86603 0.25392 0.0
C1701 C 0.66819 0.86389 0.25006 0.0
C1702 C 0.65713 0.88953 0.24397 0.0
C1703 C 0.67982 0.91764 0.24174 0.0
C1704 C 0.71353 0.92027 0.24565 0.0
C1705 C 0.72475 0.89465 0.25173 0.0
H1706 H 0.67126 0.93743 0.23701 0.0
H1707 H 0.77874 0.68713 0.29577 0.0
H1708 H 0.31628 0.14532 0.49491 0.0
H1709 H 0.30052 0.16767 0.50962 0.0
H1710 H 0.19962 0.20569 0.49966 0.0
H1711 H 0.21527 0.18346 0.48483 0.0
H1712 H 0.23036 0.25246 0.51183 0.0
H1713 H 0.20146 0.12856 0.50997 0.0
H1714 H 0.2132 0.06528 0.50689 0.0
H1715 H 0.29613 0.06457 0.52646 0.0
H1716 H 0.28522 0.12804 0.52957 0.0
H1717 H 0.13453 0.25911 0.5528 0.0
H1718 H 0.15633 0.24888 0.53773 0.0
H1719 H 0.2532 0.20283 0.54805 0.0
H1720 H 0.23124 0.21241 0.5632 0.0
H1721 H 0.22562 0.16156 0.53559 0.0
H1722 H 0.25243 0.28549 0.53795 0.0
H1723 H 0.23982 0.34861 0.54103 0.0
H1724 H 0.1601 0.34946 0.52066 0.0
H1725 H 0.17189 0.28618 0.51753 0.0
C1726 C 0.2909 0.15885 0.49579 0.0
C1727 C 0.26688 0.16226 0.48869 0.0
C1728 C 0.28191 0.17154 0.50422 0.0
C1729 C 0.24865 0.18781 0.50577 0.0
C1730 C 0.22539 0.19309 0.49862 0.0
C1731 C 0.23437 0.18033 0.49015 0.0
C1732 C 0.23744 0.19718 0.51497 0.0
C1733 C 0.22893 0.23257 0.51702 0.0
C1734 C 0.23623 0.17133 0.52177 0.0
C1735 C 0.24278 0.13314 0.51994 0.0
C1736 C 0.22241 0.11499 0.51356 0.0
C1737 C 0.22887 0.07907 0.51182 0.0
C1738 C 0.25547 0.06094 0.51646 0.0
C1739 C 0.27558 0.07867 0.52287 0.0
C1740 C 0.26925 0.1146 0.52463 0.0
C1741 C 0.16067 0.24714 0.55189 0.0
C1742 C 0.1811 0.23651 0.55923 0.0
C1743 C 0.17319 0.24147 0.54324 0.0
C1744 C 0.20658 0.22535 0.54173 0.0
C1745 C 0.22737 0.21535 0.54905 0.0
C1746 C 0.21482 0.22095 0.55771 0.0
C1747 C 0.21875 0.21698 0.53253 0.0
C1748 C 0.22728 0.18162 0.53045 0.0
C1749 C 0.21987 0.24289 0.52573 0.0
C1750 C 0.21283 0.28099 0.52756 0.0
C1751 C 0.23202 0.29906 0.53417 0.0
C1752 C 0.22505 0.33488 0.53592 0.0
C1753 C 0.19912 0.35301 0.53106 0.0
C1754 C 0.18016 0.33537 0.52442 0.0
C1755 C 0.187 0.29954 0.52265 0.0
H1756 H 0.19375 0.38074 0.53243 0.0
H1757 H 0.26043 0.03313 0.5151 0.0
H1758 H 0.88868 0.80182 0.74502 0.0
H1759 H 0.86193 0.78506 0.75922 0.0
H1760 H 0.80264 0.70172 0.7463 0.0
H1761 H 0.82887 0.71877 0.73201 0.0
H1762 H 0.76257 0.73329 0.75907 0.0
H1763 H 0.88089 0.68364 0.75683 0.0
H1764 H 0.94627 0.68495 0.75451 0.0
H1765 H 0.95754 0.75587 0.77665 0.0
H1766 H 0.89213 0.75533 0.77903 0.0
H1767 H 0.7342 0.61544 0.79502 0.0
H1768 H 0.75038 0.64556 0.7813 0.0
H1769 H 0.80781 0.72484 0.79617 0.0
H1770 H 0.79215 0.69435 0.81001 0.0
H1771 H 0.8476 0.69982 0.78278 0.0
H1772 H 0.72824 0.74451 0.78573 0.0
H1773 H 0.66296 0.74073 0.78801 0.0
H1774 H 0.65342 0.67683 0.76454 0.0
H1775 H 0.71872 0.6798 0.76218 0.0
C1776 C 0.86961 0.7802 0.74517 0.0
C1777 C 0.8612 0.7614 0.73739 0.0
C1778 C 0.85442 0.77057 0.75331 0.0
C1779 C 0.83081 0.74167 0.75386 0.0
C1780 C 0.82091 0.72401 0.74604 0.0
C1781 C 0.83596 0.73377 0.73787 0.0
C1782 C 0.81806 0.72869 0.76264 0.0
C1783 C 0.78113 0.7257 0.76424 0.0
C1784 C 0.84226 0.71944 0.76946 0.0
C1785 C 0.88159 0.71975 0.76805 0.0
C1786 C 0.89729 0.69973 0.76116 0.0
C1787 C 0.93435 0.7003 0.75984 0.0
C1788 C 0.95603 0.72057 0.76541 0.0
C1789 C 0.9407 0.74023 0.77233 0.0
C1790 C 0.90364 0.73979 0.77367 0.0
C1791 C 0.74993 0.63952 0.79541 0.0
C1792 C 0.76194 0.65243 0.80363 0.0
C1793 C 0.759 0.65686 0.78754 0.0
C1794 C 0.78004 0.6877 0.78769 0.0
C1795 C 0.79146 0.70113 0.7959 0.0
C1796 C 0.7824 0.68375 0.8038 0.0
C1797 C 0.79205 0.70433 0.77923 0.0
C1798 C 0.82894 0.70785 0.77768 0.0
C1799 C 0.76778 0.71381 0.77245 0.0
C1800 C 0.72844 0.71217 0.77382 0.0
C1801 C 0.71226 0.72944 0.78109 0.0
C1802 C 0.67524 0.72748 0.78239 0.0
C1803 C 0.65406 0.70849 0.77644 0.0
C1804 C 0.66986 0.69151 0.76915 0.0
C1805 C 0.70687 0.69337 0.76782 0.0
H1806 H 0.62541 0.70698 0.77746 0.0
H1807 H 0.98472 0.72097 0.76438 0.0
loop_
_geom_bond_atom_site_label_1
_geom_bond_atom_site_label_2
_geom_bond_distance
_geom_bond_site_symmetry_2
_ccdc_geom_bond_type
Mg0 O7 2.141 . S
Mg0 O8 2.048 . S
Mg0 O9 2.048 . S
Mg0 O12 2.141 . S
C1 O2 1.313 . S
C1 O8 1.195 . S
O2 C1 1.313 . S
C3 O4 1.245 . S
C3 O12 1.289 . S
O4 C3 1.245 . S
C5 O6 1.245 . S
C5 O7 1.289 . S
O6 C5 1.245 . S
O7 Mg0 2.141 . S
O7 C5 1.289 . S
O8 Mg0 2.048 . S
O8 C1 1.195 . S
O9 Mg0 2.048 . S
O9 C10 1.195 . S
C10 O9 1.195 . S
C10 O11 1.313 . S
O11 C10 1.313 . S
O12 Mg0 2.141 . S
O12 C3 1.289 . S
Mg13 O20 2.141 . S
Mg13 O21 2.048 . S
Mg13 O22 2.048 . S
Mg13 O25 2.141 . S
C14 O15 1.313 . S
C14 O21 1.195 . S
O15 C14 1.313 . S
C16 O17 1.245 . S
C16 O25 1.289 . S
O17 C16 1.245 . S
C18 O19 1.245 . S
C18 O20 1.289 . S
O19 C18 1.245 . S
O20 Mg13 2.141 . S
O20 C18 1.289 . S
O21 Mg13 2.048 . S
O21 C14 1.195 . S
O22 Mg13 2.048 . S
O22 C23 1.195 . S
C23 O22 1.195 . S
C23 O24 1.313 . S
O24 C23 1.313 . S
O25 Mg13 2.141 . S
O25 C16 1.289 . S
Mg26 O33 2.141 . S
Mg26 O34 2.048 . S
Mg26 O35 2.048 . S
Mg26 O38 2.141 . S
C27 O28 1.313 . S
C27 O34 1.195 . S
O28 C27 1.313 . S
C29 O30 1.245 . S
C29 O38 1.289 . S
O30 C29 1.245 . S
C31 O32 1.245 . S
C31 O33 1.289 . S
O32 C31 1.245 . S
O33 Mg26 2.141 . S
O33 C31 1.289 . S
O34 Mg26 2.048 . S
O34 C27 1.195 . S
O35 Mg26 2.048 . S
O35 C36 1.195 . S
C36 O35 1.195 . S
C36 O37 1.313 . S
O37 C36 1.313 . S
O38 Mg26 2.141 . S
O38 C29 1.289 . S
Mg39 O46 2.141 . S
Mg39 O47 2.048 . S
Mg39 O48 2.048 . S
Mg39 O51 2.141 . S
C40 O41 1.313 . S
C40 O47 1.195 . S
O41 C40 1.313 . S
C42 O43 1.245 . S
C42 O51 1.289 . S
O43 C42 1.245 . S
C44 O45 1.245 . S
C44 O46 1.289 . S
O45 C44 1.245 . S
O46 Mg39 2.141 . S
O46 C44 1.289 . S
O47 Mg39 2.048 . S
O47 C40 1.195 . S
O48 Mg39 2.048 . S
O48 C49 1.195 . S
C49 O48 1.195 . S
C49 O50 1.313 . S
O50 C49 1.313 . S
O51 Mg39 2.141 . S
O51 C42 1.289 . S
Mg52 O59 2.141 . S
Mg52 O60 2.048 . S
Mg52 O61 2.048 . S
Mg52 O64 2.141 . S
C53 O54 1.313 . S
C53 O60 1.195 . S
O54 C53 1.313 . S
C55 O56 1.245 . S
C55 O64 1.289 . S
O56 C55 1.245 . S
C57 O58 1.245 . S
C57 O59 1.289 . S
O58 C57 1.245 . S
O59 Mg52 2.141 . S
O59 C57 1.289 . S
O60 Mg52 2.048 . S
O60 C53 1.195 . S
O61 Mg52 2.048 . S
O61 C62 1.195 . S
C62 O61 1.195 . S
C62 O63 1.313 . S
O63 C62 1.313 . S
O64 Mg52 2.141 . S
O64 C55 1.289 . S
Mg65 O72 2.141 . S
Mg65 O73 2.048 . S
Mg65 O74 2.048 . S
Mg65 O77 2.141 . S
C66 O67 1.313 . S
C66 O73 1.195 . S
O67 C66 1.313 . S
C68 O69 1.245 . S
C68 O77 1.289 . S
O69 C68 1.245 . S
C70 O71 1.245 . S
C70 O72 1.289 . S
O71 C70 1.245 . S
O72 Mg65 2.141 . S
O72 C70 1.289 . S
O73 Mg65 2.048 . S
O73 C66 1.195 . S
O74 Mg65 2.048 . S
O74 C75 1.195 . S
C75 O74 1.195 . S
C75 O76 1.313 . S
O76 C75 1.313 . S
O77 Mg65 2.141 . S
O77 C68 1.289 . S
Mg78 O85 2.141 . S
Mg78 O86 2.048 . S
Mg78 O87 2.048 . S
Mg78 O90 2.141 . S
C79 O80 1.313 . S
C79 O86 1.195 . S
O80 C79 1.313 . S
C81 O82 1.245 . S
C81 O90 1.289 . S
O82 C81 1.245 . S
C83 O84 1.245 . S
C83 O85 1.289 . S
O84 C83 1.245 . S
O85 Mg78 2.141 . S
O85 C83 1.289 . S
O86 Mg78 2.048 . S
O86 C79 1.195 . S
O87 Mg78 2.048 . S
O87 C88 1.195 . S
C88 O87 1.195 . S
C88 O89 1.313 . S
O89 C88 1.313 . S
O90 Mg78 2.141 . S
O90 C81 1.289 . S
Mg91 O98 2.141 . S
Mg91 O99 2.048 . S
Mg91 O100 2.048 . S
Mg91 O103 2.141 . S
C92 O93 1.313 . S
C92 O99 1.195 . S
O93 C92 1.313 . S
C94 O95 1.245 . S
C94 O103 1.289 . S
O95 C94 1.245 . S
C96 O97 1.245 . S
C96 O98 1.289 . S
O97 C96 1.245 . S
O98 Mg91 2.141 . S
O98 C96 1.289 . S
O99 Mg91 2.048 . S
O99 C92 1.195 . S
O100 Mg91 2.048 . S
O100 C101 1.195 . S
C101 O100 1.195 . S
C101 O102 1.313 . S
O102 C101 1.313 . S
O103 Mg91 2.141 . S
O103 C94 1.289 . S
Mg104 O111 2.141 . S
Mg104 O112 2.048 . S
Mg104 O113 2.048 . S
Mg104 O116 2.141 . S
C105 O106 1.313 . S
C105 O112 1.195 . S
O106 C105 1.313 . S
C107 O108 1.245 . S
C107 O116 1.289 . S
O108 C107 1.245 . S
C109 O110 1.245 . S
C109 O111 1.289 . S
O110 C109 1.245 . S
O111 Mg104 2.141 . S
O111 C109 1.289 . S
O112 Mg104 2.048 . S
O112 C105 1.195 . S
O113 Mg104 2.048 . S
O113 C114 1.195 . S
C114 O113 1.195 . S
C114 O115 1.313 . S
O115 C114 1.313 . S
O116 Mg104 2.141 . S
O116 C107 1.289 . S
Mg117 O124 2.141 . S
Mg117 O125 2.048 . S
Mg117 O126 2.048 . S
Mg117 O129 2.141 . S
C118 O119 1.313 . S
C118 O125 1.195 . S
O119 C118 1.313 . S
C120 O121 1.245 . S
C120 O129 1.289 . S
O121 C120 1.245 . S
C122 O123 1.245 . S
C122 O124 1.289 . S
O123 C122 1.245 . S
O124 Mg117 2.141 . S
O124 C122 1.289 . S
O125 Mg117 2.048 . S
O125 C118 1.195 . S
O126 Mg117 2.048 . S
O126 C127 1.195 . S
C127 O126 1.195 . S
C127 O128 1.313 . S
O128 C127 1.313 . S
O129 Mg117 2.141 . S
O129 C120 1.289 . S
Mg130 O137 2.141 . S
Mg130 O138 2.048 . S
Mg130 O139 2.048 . S
Mg130 O142 2.141 . S
C131 O132 1.313 . S
C131 O138 1.195 . S
O132 C131 1.313 . S
C133 O134 1.245 . S
C133 O142 1.289 . S
O134 C133 1.245 . S
C135 O136 1.245 . S
C135 O137 1.289 . S
O136 C135 1.245 . S
O137 Mg130 2.141 . S
O137 C135 1.289 . S
O138 Mg130 2.048 . S
O138 C131 1.195 . S
O139 Mg130 2.048 . S
O139 C140 1.195 . S
C140 O139 1.195 . S
C140 O141 1.313 . S
O141 C140 1.313 . S
O142 Mg130 2.141 . S
O142 C133 1.289 . S
Mg143 O150 2.141 . S
Mg143 O151 2.048 . S
Mg143 O152 2.048 . S
Mg143 O155 2.141 . S
C144 O145 1.313 . S
C144 O151 1.195 . S
O145 C144 1.313 . S
C146 O147 1.245 . S
C146 O155 1.289 . S
O147 C146 1.245 . S
C148 O149 1.245 . S
C148 O150 1.289 . S
O149 C148 1.245 . S
O150 Mg143 2.141 . S
O150 C148 1.289 . S
O151 Mg143 2.048 . S
O151 C144 1.195 . S
O152 Mg143 2.048 . S
O152 C153 1.195 . S
C153 O152 1.195 . S
C153 O154 1.313 . S
O154 C153 1.313 . S
O155 Mg143 2.141 . S
O155 C146 1.289 . S
Mg156 O163 2.141 . S
Mg156 O164 2.048 . S
Mg156 O165 2.048 . S
Mg156 O168 2.141 . S
C157 O158 1.313 . S
C157 O164 1.195 . S
O158 C157 1.313 . S
C159 O160 1.245 . S
C159 O168 1.289 . S
O160 C159 1.245 . S
C161 O162 1.245 . S
C161 O163 1.289 . S
O162 C161 1.245 . S
O163 Mg156 2.141 . S
O163 C161 1.289 . S
O164 Mg156 2.048 . S
O164 C157 1.195 . S
O165 Mg156 2.048 . S
O165 C166 1.195 . S
C166 O165 1.195 . S
C166 O167 1.313 . S
O167 C166 1.313 . S
O168 Mg156 2.141 . S
O168 C159 1.289 . S
Mg169 O176 2.141 . S
Mg169 O177 2.048 . S
Mg169 O178 2.048 . S
Mg169 O181 2.141 . S
C170 O171 1.313 . S
C170 O177 1.195 . S
O171 C170 1.313 . S
C172 O173 1.245 . S
C172 O181 1.289 . S
O173 C172 1.245 . S
C174 O175 1.245 . S
C174 O176 1.289 . S
O175 C174 1.245 . S
O176 Mg169 2.141 . S
O176 C174 1.289 . S
O177 Mg169 2.048 . S
O177 C170 1.195 . S
O178 Mg169 2.048 . S
O178 C179 1.195 . S
C179 O178 1.195 . S
C179 O180 1.313 . S
O180 C179 1.313 . S
O181 Mg169 2.141 . S
O181 C172 1.289 . S
Mg182 O189 2.141 . S
Mg182 O190 2.048 . S
Mg182 O191 2.048 . S
Mg182 O194 2.141 . S
C183 O184 1.313 . S
C183 O190 1.195 . S
O184 C183 1.313 . S
C185 O186 1.245 . S
C185 O194 1.289 . S
O186 C185 1.245 . S
C187 O188 1.245 . S
C187 O189 1.289 . S
O188 C187 1.245 . S
O189 Mg182 2.141 . S
O189 C187 1.289 . S
O190 Mg182 2.048 . S
O190 C183 1.195 . S
O191 Mg182 2.048 . S
O191 C192 1.195 . S
C192 O191 1.195 . S
C192 O193 1.313 . S
O193 C192 1.313 . S
O194 Mg182 2.141 . S
O194 C185 1.289 . S
Mg195 O202 2.141 . S
Mg195 O203 2.048 . S
Mg195 O204 2.048 . S
Mg195 O207 2.141 . S
C196 O197 1.313 . S
C196 O203 1.195 . S
O197 C196 1.313 . S
C198 O199 1.245 . S
C198 O207 1.289 . S
O199 C198 1.245 . S
C200 O201 1.245 . S
C200 O202 1.289 . S
O201 C200 1.245 . S
O202 Mg195 2.141 . S
O202 C200 1.289 . S
O203 Mg195 2.048 . S
O203 C196 1.195 . S
O204 Mg195 2.048 . S
O204 C205 1.195 . S
C205 O204 1.195 . S
C205 O206 1.313 . S
O206 C205 1.313 . S
O207 Mg195 2.141 . S
O207 C198 1.289 . S
H208 C226 0.951 . S
H209 C228 0.951 . S
H210 C230 0.950 . S
H211 C231 0.950 . S
H212 C233 0.950 . S
H213 C236 0.950 . S
H214 C237 0.950 . S
H215 C239 0.950 . S
H216 C240 0.950 . S
H217 C241 0.951 . S
H218 C243 0.951 . S
H219 C245 0.950 . S
H220 C246 0.950 . S
H221 C248 0.950 . S
H222 C251 0.950 . S
H223 C252 0.950 . S
H224 C254 0.950 . S
H225 C255 0.950 . S
C226 H208 0.951 . S
C226 C227 1.366 . S
C226 C228 1.388 . S
C227 C226 1.366 . S
C227 C231 1.385 . S
C228 H209 0.951 . S
C228 C226 1.388 . S
C228 C229 1.366 . S
C229 C228 1.366 . S
C229 C230 1.414 . S
C229 C232 1.499 . S
C230 H210 0.950 . S
C230 C229 1.414 . S
C230 C231 1.374 . S
C231 H211 0.950 . S
C231 C227 1.385 . S
C231 C230 1.374 . S
C232 C229 1.499 . S
C232 C233 1.373 1_565 S
C232 C234 1.388 1_655 S
C233 H212 0.950 . S
C233 C232 1.373 1_545 S
C233 C249 1.378 . S
C234 C232 1.388 1_455 S
C234 C235 1.525 . S
C234 C248 1.378 . S
C235 C234 1.525 . S
C235 C236 1.397 1_455 S
C235 C240 1.363 . S
C236 H213 0.950 . S
C236 C235 1.397 1_655 S
C236 C237 1.334 . S
C237 H214 0.950 . S
C237 C236 1.334 . S
C237 C238 1.287 1_655 S
C238 C237 1.287 1_455 S
C238 C239 1.524 . S
C238 H257 0.913 . S
C239 H215 0.950 . S
C239 C238 1.524 . S
C239 C240 1.415 . S
C240 H216 0.950 . S
C240 C235 1.363 . S
C240 C239 1.415 . S
C241 H217 0.951 . S
C241 C242 1.366 . S
C241 C243 1.388 . S
C242 C241 1.366 . S
C242 C246 1.385 . S
C243 H218 0.951 . S
C243 C241 1.388 . S
C243 C244 1.366 . S
C244 C243 1.366 . S
C244 C245 1.414 . S
C244 C247 1.499 . S
C245 H219 0.950 . S
C245 C244 1.414 . S
C245 C246 1.374 . S
C246 H220 0.950 . S
C246 C242 1.385 . S
C246 C245 1.374 . S
C247 C244 1.499 . S
C247 C248 1.373 1_545 S
C247 C249 1.388 1_455 S
C248 H221 0.950 . S
C248 C234 1.378 . S
C248 C247 1.373 1_565 S
C249 C233 1.378 . S
C249 C247 1.388 1_655 S
C249 C250 1.525 . S
C250 C249 1.525 . S
C250 C251 1.397 1_655 S
C250 C255 1.363 . S
C251 H222 0.950 . S
C251 C250 1.397 1_455 S
C251 C252 1.334 . S
C252 H223 0.950 . S
C252 C251 1.334 . S
C252 C253 1.287 1_455 S
C253 C252 1.287 1_655 S
C253 C254 1.524 . S
C253 H256 0.999 . S
C254 H224 0.950 . S
C254 C253 1.524 . S
C254 C255 1.415 . S
C255 H225 0.950 . S
C255 C250 1.363 . S
C255 C254 1.415 . S
H256 C253 0.999 . S
H257 C238 0.913 . S
H258 C276 0.951 . S
H259 C278 0.951 . S
H260 C280 0.950 1_455 S
H261 C281 0.950 . S
H262 C283 0.950 . S
H263 C286 0.950 . S
H264 C287 0.950 . S
H265 C289 0.950 . S
H266 C290 0.950 . S
H267 C291 0.951 . S
H268 C293 0.951 . S
H269 C295 0.950 1_655 S
H270 C296 0.950 . S
H271 C298 0.950 . S
H272 C301 0.950 . S
H273 C302 0.950 . S
H274 C304 0.950 . S
H275 C305 0.950 . S
C276 H258 0.951 . S
C276 C277 1.366 . S
C276 C278 1.388 . S
C277 C276 1.366 . S
C277 C281 1.385 . S
C278 H259 0.951 . S
C278 C276 1.388 . S
C278 C279 1.366 . S
C279 C278 1.366 . S
C279 C280 1.414 . S
C279 C282 1.499 . S
C280 H260 0.950 1_655 S
C280 C279 1.414 . S
C280 C281 1.374 . S
C281 H261 0.950 . S
C281 C277 1.385 . S
C281 C280 1.374 . S
C282 C279 1.499 . S
C282 C283 1.373 1_655 S
C282 C284 1.389 . S
C283 H262 0.950 . S
C283 C282 1.373 1_455 S
C283 C299 1.377 . S
C284 C282 1.389 . S
C284 C285 1.524 . S
C284 C298 1.377 . S
C285 C284 1.524 . S
C285 C286 1.397 . S
C285 C290 1.363 . S
C286 H263 0.950 . S
C286 C285 1.397 . S
C286 C287 1.334 . S
C287 H264 0.950 . S
C287 C286 1.334 . S
C287 C288 1.287 . S
C288 C287 1.287 . S
C288 C289 1.524 . S
C288 H307 0.913 . S
C289 H265 0.950 . S
C289 C288 1.524 . S
C289 C290 1.415 . S
C290 H266 0.950 . S
C290 C285 1.363 . S
C290 C289 1.415 . S
C291 H267 0.951 . S
C291 C292 1.366 . S
C291 C293 1.388 . S
C292 C291 1.366 . S
C292 C296 1.385 . S
C293 H268 0.951 . S
C293 C291 1.388 . S
C293 C294 1.366 . S
C294 C293 1.366 . S
C294 C295 1.414 . S
C294 C297 1.499 . S
C295 H269 0.950 1_455 S
C295 C294 1.414 . S
C295 C296 1.374 . S
C296 H270 0.950 . S
C296 C292 1.385 . S
C296 C295 1.374 . S
C297 C294 1.499 . S
C297 C298 1.373 1_455 S
C297 C299 1.389 . S
C298 H271 0.950 . S
C298 C284 1.377 . S
C298 C297 1.373 1_655 S
C299 C283 1.377 . S
C299 C297 1.389 . S
C299 C300 1.524 . S
C300 C299 1.524 . S
C300 C301 1.397 . S
C300 C305 1.363 . S
C301 H272 0.950 . S
C301 C300 1.397 . S
C301 C302 1.334 . S
C302 H273 0.950 . S
C302 C301 1.334 . S
C302 C303 1.287 . S
C303 C302 1.287 . S
C303 C304 1.524 . S
C303 H306 0.999 . S
C304 H274 0.950 . S
C304 C303 1.524 . S
C304 C305 1.415 . S
C305 H275 0.950 . S
C305 C300 1.363 . S
C305 C304 1.415 . S
H306 C303 0.999 . S
H307 C288 0.913 . S
H308 C326 0.951 . S
H309 C328 0.951 . S
H310 C330 0.950 . S
H311 C331 0.950 . S
H312 C333 0.950 . S
H313 C336 0.950 . S
H314 C337 0.950 . S
H315 C339 0.950 . S
H316 C340 0.950 . S
H317 C341 0.951 . S
H318 C343 0.951 . S
H319 C345 0.950 . S
H320 C346 0.950 . S
H321 C348 0.950 . S
H322 C351 0.950 . S
H323 C352 0.950 . S
H324 C354 0.950 . S
H325 C355 0.950 . S
C326 H308 0.951 . S
C326 C327 1.366 . S
C326 C328 1.388 . S
C327 C326 1.366 . S
C327 C331 1.385 . S
C328 H309 0.951 . S
C328 C326 1.388 . S
C328 C329 1.366 . S
C329 C328 1.366 . S
C329 C330 1.414 . S
C329 C332 1.499 . S
C330 H310 0.950 . S
C330 C329 1.414 . S
C330 C331 1.374 . S
C331 H311 0.950 . S
C331 C327 1.385 . S
C331 C330 1.374 . S
C332 C329 1.499 . S
C332 C333 1.373 . S
C332 C334 1.389 . S
C333 H312 0.950 . S
C333 C332 1.373 . S
C333 C349 1.377 . S
C334 C332 1.389 . S
C334 C335 1.524 . S
C334 C348 1.377 . S
C335 C334 1.524 . S
C335 C336 1.397 . S
C335 C340 1.363 . S
C336 H313 0.950 . S
C336 C335 1.397 . S
C336 C337 1.334 . S
C337 H314 0.950 . S
C337 C336 1.334 . S
C337 C338 1.287 . S
C338 C337 1.287 . S
C338 C339 1.524 . S
C338 H357 0.913 . S
C339 H315 0.950 . S
C339 C338 1.524 . S
C339 C340 1.415 . S
C340 H316 0.950 . S
C340 C335 1.363 . S
C340 C339 1.415 . S
C341 H317 0.951 . S
C341 C342 1.366 . S
C341 C343 1.388 . S
C342 C341 1.366 . S
C342 C346 1.385 . S
C343 H318 0.951 . S
C343 C341 1.388 . S
C343 C344 1.366 . S
C344 C343 1.366 . S
C344 C345 1.414 . S
C344 C347 1.499 . S
C345 H319 0.950 . S
C345 C344 1.414 . S
C345 C346 1.374 . S
C346 H320 0.950 . S
C346 C342 1.385 . S
C346 C345 1.374 . S
C347 C344 1.499 . S
C347 C348 1.373 . S
C347 C349 1.389 . S
C348 H321 0.950 . S
C348 C334 1.377 . S
C348 C347 1.373 . S
C349 C333 1.377 . S
C349 C347 1.389 . S
C349 C350 1.524 . S
C350 C349 1.524 . S
C350 C351 1.397 . S
C350 C355 1.363 . S
C351 H322 0.950 . S
C351 C350 1.397 . S
C351 C352 1.334 . S
C352 H323 0.950 . S
C352 C351 1.334 . S
C352 C353 1.287 . S
C353 C352 1.287 . S
C353 C354 1.524 . S
C353 H356 0.999 . S
C354 H324 0.950 . S
C354 C353 1.524 . S
C354 C355 1.415 . S
C355 H325 0.950 . S
C355 C350 1.363 . S
C355 C354 1.415 . S
H356 C353 0.999 . S
H357 C338 0.913 . S
H358 C376 0.951 . S
H359 C378 0.951 . S
H360 C380 0.950 . S
H361 C381 0.950 . S
H362 C383 0.950 . S
H363 C386 0.950 . S
H364 C387 0.950 . S
H365 C389 0.950 . S
H366 C390 0.950 . S
H367 C391 0.951 . S
H368 C393 0.951 . S
H369 C395 0.950 . S
H370 C396 0.950 . S
H371 C398 0.950 . S
H372 C401 0.950 . S
H373 C402 0.950 . S
H374 C404 0.950 . S
H375 C405 0.950 . S
C376 H358 0.951 . S
C376 C377 1.366 . S
C376 C378 1.388 . S
C377 C376 1.366 . S
C377 C381 1.385 . S
C378 H359 0.951 . S
C378 C376 1.388 . S
C378 C379 1.366 . S
C379 C378 1.366 . S
C379 C380 1.414 . S
C379 C382 1.499 . S
C380 H360 0.950 . S
C380 C379 1.414 . S
C380 C381 1.374 . S
C381 H361 0.950 . S
C381 C377 1.385 . S
C381 C380 1.374 . S
C382 C379 1.499 . S
C382 C383 1.373 . S
C382 C384 1.389 . S
C383 H362 0.950 . S
C383 C382 1.373 . S
C383 C399 1.377 1_545 S
C384 C382 1.389 . S
C384 C385 1.524 . S
C384 C398 1.377 1_545 S
C385 C384 1.524 . S
C385 C386 1.397 . S
C385 C390 1.363 1_545 S
C386 H363 0.950 . S
C386 C385 1.397 . S
C386 C387 1.334 . S
C387 H364 0.950 . S
C387 C386 1.334 . S
C387 C388 1.287 . S
C388 C387 1.287 . S
C388 C389 1.524 1_545 S
C388 H407 0.913 . S
C389 H365 0.950 . S
C389 C388 1.524 1_565 S
C389 C390 1.415 . S
C390 H366 0.950 . S
C390 C385 1.363 1_565 S
C390 C389 1.415 . S
C391 H367 0.951 . S
C391 C392 1.366 . S
C391 C393 1.388 . S
C392 C391 1.366 . S
C392 C396 1.385 . S
C393 H368 0.951 . S
C393 C391 1.388 . S
C393 C394 1.366 . S
C394 C393 1.366 . S
C394 C395 1.414 . S
C394 C397 1.499 . S
C395 H369 0.950 . S
C395 C394 1.414 . S
C395 C396 1.374 . S
C396 H370 0.950 . S
C396 C392 1.385 . S
C396 C395 1.374 . S
C397 C394 1.499 . S
C397 C398 1.373 . S
C397 C399 1.389 . S
C398 H371 0.950 . S
C398 C384 1.377 1_565 S
C398 C397 1.373 . S
C399 C383 1.377 1_565 S
C399 C397 1.389 . S
C399 C400 1.524 . S
C400 C399 1.524 . S
C400 C401 1.397 . S
C400 C405 1.363 1_565 S
C401 H372 0.950 . S
C401 C400 1.397 . S
C401 C402 1.334 . S
C402 H373 0.950 . S
C402 C401 1.334 . S
C402 C403 1.287 . S
C403 C402 1.287 . S
C403 C404 1.524 1_565 S
C403 H406 0.999 . S
C404 H374 0.950 . S
C404 C403 1.524 1_545 S
C404 C405 1.415 . S
C405 H375 0.950 . S
C405 C400 1.363 1_545 S
C405 C404 1.415 . S
H406 C403 0.999 . S
H407 C388 0.913 . S
H408 C426 0.951 . S
H409 C428 0.951 . S
H410 C430 0.950 . S
H411 C431 0.950 . S
H412 C433 0.950 . S
H413 C436 0.950 . S
H414 C437 0.950 . S
H415 C439 0.950 . S
H416 C440 0.950 . S
H417 C441 0.951 . S
H418 C443 0.951 . S
H419 C445 0.950 . S
H420 C446 0.950 . S
H421 C448 0.950 . S
H422 C451 0.950 . S
H423 C452 0.950 . S
H424 C454 0.950 . S
H425 C455 0.950 . S
C426 H408 0.951 . S
C426 C427 1.366 . S
C426 C428 1.388 . S
C427 C426 1.366 . S
C427 C431 1.385 . S
C428 H409 0.951 . S
C428 C426 1.388 . S
C428 C429 1.366 . S
C429 C428 1.366 . S
C429 C430 1.414 . S
C429 C432 1.499 . S
C430 H410 0.950 . S
C430 C429 1.414 . S
C430 C431 1.374 . S
C431 H411 0.950 . S
C431 C427 1.385 . S
C431 C430 1.374 . S
C432 C429 1.499 . S
C432 C433 1.373 . S
C432 C434 1.389 . S
C433 H412 0.950 . S
C433 C432 1.373 . S
C433 C449 1.377 1_455 S
C434 C432 1.389 . S
C434 C435 1.524 . S
C434 C448 1.377 1_455 S
C435 C434 1.524 . S
C435 C436 1.397 . S
C435 C440 1.363 . S
C436 H413 0.950 . S
C436 C435 1.397 . S
C436 C437 1.334 . S
C437 H414 0.950 . S
C437 C436 1.334 . S
C437 C438 1.287 . S
C438 C437 1.287 . S
C438 C439 1.524 . S
C438 H457 0.913 . S
C439 H415 0.950 . S
C439 C438 1.524 . S
C439 C440 1.415 . S
C440 H416 0.950 . S
C440 C435 1.363 . S
C440 C439 1.415 . S
C441 H417 0.951 . S
C441 C442 1.366 . S
C441 C443 1.388 . S
C442 C441 1.366 . S
C442 C446 1.385 . S
C443 H418 0.951 . S
C443 C441 1.388 . S
C443 C444 1.366 . S
C444 C443 1.366 . S
C444 C445 1.414 . S
C444 C447 1.499 . S
C445 H419 0.950 . S
C445 C444 1.414 . S
C445 C446 1.374 . S
C446 H420 0.950 . S
C446 C442 1.385 . S
C446 C445 1.374 . S
C447 C444 1.499 . S
C447 C448 1.373 . S
C447 C449 1.389 . S
C448 H421 0.950 . S
C448 C434 1.377 1_655 S
C448 C447 1.373 . S
C449 C433 1.377 1_655 S
C449 C447 1.389 . S
C449 C450 1.524 . S
C450 C449 1.524 . S
C450 C451 1.397 . S
C450 C455 1.363 . S
C451 H422 0.950 . S
C451 C450 1.397 . S
C451 C452 1.334 . S
C452 H423 0.950 . S
C452 C451 1.334 . S
C452 C453 1.287 . S
C453 C452 1.287 . S
C453 C454 1.524 . S
C453 H456 0.999 . S
C454 H424 0.950 . S
C454 C453 1.524 . S
C454 C455 1.415 . S
C455 H425 0.950 . S
C455 C450 1.363 . S
C455 C454 1.415 . S
H456 C453 0.999 . S
H457 C438 0.913 . S
H458 C476 0.951 . S
H459 C478 0.951 . S
H460 C480 0.950 . S
H461 C481 0.950 . S
H462 C483 0.950 . S
H463 C486 0.950 . S
H464 C487 0.950 . S
H465 C489 0.950 . S
H466 C490 0.950 . S
H467 C491 0.951 . S
H468 C493 0.951 . S
H469 C495 0.950 . S
H470 C496 0.950 . S
H471 C498 0.950 . S
H472 C501 0.950 . S
H473 C502 0.950 . S
H474 C504 0.950 . S
H475 C505 0.950 . S
C476 H458 0.951 . S
C476 C477 1.366 . S
C476 C478 1.388 . S
C477 C476 1.366 . S
C477 C481 1.385 . S
C478 H459 0.951 . S
C478 C476 1.388 . S
C478 C479 1.366 . S
C479 C478 1.366 . S
C479 C480 1.414 . S
C479 C482 1.499 . S
C480 H460 0.950 . S
C480 C479 1.414 . S
C480 C481 1.374 . S
C481 H461 0.950 . S
C481 C477 1.385 . S
C481 C480 1.374 . S
C482 C479 1.499 . S
C482 C483 1.373 . S
C482 C484 1.389 . S
C483 H462 0.950 . S
C483 C482 1.373 . S
C483 C499 1.377 . S
C484 C482 1.389 . S
C484 C485 1.524 . S
C484 C498 1.377 . S
C485 C484 1.524 . S
C485 C486 1.397 . S
C485 C490 1.363 . S
C486 H463 0.950 . S
C486 C485 1.397 . S
C486 C487 1.334 . S
C487 H464 0.950 . S
C487 C486 1.334 . S
C487 C488 1.287 . S
C488 C487 1.287 . S
C488 C489 1.524 . S
C488 H507 0.913 . S
C489 H465 0.950 . S
C489 C488 1.524 . S
C489 C490 1.415 . S
C490 H466 0.950 . S
C490 C485 1.363 . S
C490 C489 1.415 . S
C491 H467 0.951 . S
C491 C492 1.366 . S
C491 C493 1.388 . S
C492 C491 1.366 . S
C492 C496 1.385 . S
C493 H468 0.951 . S
C493 C491 1.388 . S
C493 C494 1.366 . S
C494 C493 1.366 . S
C494 C495 1.414 . S
C494 C497 1.499 . S
C495 H469 0.950 . S
C495 C494 1.414 . S
C495 C496 1.374 . S
C496 H470 0.950 . S
C496 C492 1.385 . S
C496 C495 1.374 . S
C497 C494 1.499 . S
C497 C498 1.373 . S
C497 C499 1.389 . S
C498 H471 0.950 . S
C498 C484 1.377 . S
C498 C497 1.373 . S
C499 C483 1.377 . S
C499 C497 1.389 . S
C499 C500 1.524 . S
C500 C499 1.524 . S
C500 C501 1.397 . S
C500 C505 1.363 . S
C501 H472 0.950 . S
C501 C500 1.397 . S
C501 C502 1.334 . S
C502 H473 0.950 . S
C502 C501 1.334 . S
C502 C503 1.287 . S
C503 C502 1.287 . S
C503 C504 1.524 . S
C503 H506 0.999 . S
C504 H474 0.950 . S
C504 C503 1.524 . S
C504 C505 1.415 . S
C505 H475 0.950 . S
C505 C500 1.363 . S
C505 C504 1.415 . S
H506 C503 0.999 . S
H507 C488 0.913 . S
H508 C526 0.951 . S
H509 C528 0.951 . S
H510 C530 0.950 . S
H511 C531 0.950 . S
H512 C533 0.950 . S
H513 C536 0.950 . S
H514 C537 0.950 . S
H515 C539 0.950 . S
H516 C540 0.950 . S
H517 C541 0.951 . S
H518 C543 0.951 . S
H519 C545 0.950 . S
H520 C546 0.950 . S
H521 C548 0.950 . S
H522 C551 0.950 . S
H523 C552 0.950 . S
H524 C554 0.950 . S
H525 C555 0.950 . S
C526 H508 0.951 . S
C526 C527 1.366 . S
C526 C528 1.388 . S
C527 C526 1.366 . S
C527 C531 1.385 . S
C528 H509 0.951 . S
C528 C526 1.388 . S
C528 C529 1.366 . S
C529 C528 1.366 . S
C529 C530 1.414 . S
C529 C532 1.499 . S
C530 H510 0.950 . S
C530 C529 1.414 . S
C530 C531 1.374 . S
C531 H511 0.950 . S
C531 C527 1.385 . S
C531 C530 1.374 . S
C532 C529 1.499 . S
C532 C533 1.373 1_545 S
C532 C534 1.389 . S
C533 H512 0.950 . S
C533 C532 1.373 1_565 S
C533 C549 1.377 . S
C534 C532 1.389 . S
C534 C535 1.524 . S
C534 C548 1.377 . S
C535 C534 1.524 . S
C535 C536 1.397 . S
C535 C540 1.363 . S
C536 H513 0.950 . S
C536 C535 1.397 . S
C536 C537 1.334 . S
C537 H514 0.950 . S
C537 C536 1.334 . S
C537 C538 1.287 . S
C538 C537 1.287 . S
C538 C539 1.524 . S
C538 H557 0.913 . S
C539 H515 0.950 . S
C539 C538 1.524 . S
C539 C540 1.415 . S
C540 H516 0.950 . S
C540 C535 1.363 . S
C540 C539 1.415 . S
C541 H517 0.951 . S
C541 C542 1.366 . S
C541 C543 1.388 . S
C542 C541 1.366 . S
C542 C546 1.385 . S
C543 H518 0.951 . S
C543 C541 1.388 . S
C543 C544 1.366 . S
C544 C543 1.366 . S
C544 C545 1.414 . S
C544 C547 1.499 . S
C545 H519 0.950 . S
C545 C544 1.414 . S
C545 C546 1.374 . S
C546 H520 0.950 . S
C546 C542 1.385 . S
C546 C545 1.374 . S
C547 C544 1.499 . S
C547 C548 1.373 1_565 S
C547 C549 1.389 . S
C548 H521 0.950 . S
C548 C534 1.377 . S
C548 C547 1.373 1_545 S
C549 C533 1.377 . S
C549 C547 1.389 . S
C549 C550 1.524 . S
C550 C549 1.524 . S
C550 C551 1.397 . S
C550 C555 1.363 . S
C551 H522 0.950 . S
C551 C550 1.397 . S
C551 C552 1.334 . S
C552 H523 0.950 . S
C552 C551 1.334 . S
C552 C553 1.287 . S
C553 C552 1.287 . S
C553 C554 1.524 . S
C553 H556 0.999 . S
C554 H524 0.950 . S
C554 C553 1.524 . S
C554 C555 1.415 . S
C555 H525 0.950 . S
C555 C550 1.363 . S
C555 C554 1.415 . S
H556 C553 0.999 . S
H557 C538 0.913 . S
H558 C576 0.951 . S
H559 C578 0.951 . S
H560 C580 0.950 . S
H561 C581 0.950 . S
H562 C583 0.950 . S
H563 C586 0.950 1_455 S
H564 C587 0.950 . S
H565 C589 0.950 . S
H566 C590 0.950 . S
H567 C591 0.951 . S
H568 C593 0.951 . S
H569 C595 0.950 . S
H570 C596 0.950 . S
H571 C598 0.950 . S
H572 C601 0.950 1_655 S
H573 C602 0.950 . S
H574 C604 0.950 . S
H575 C605 0.950 . S
C576 H558 0.951 . S
C576 C577 1.366 . S
C576 C578 1.388 . S
C577 C576 1.366 . S
C577 C581 1.385 . S
C578 H559 0.951 . S
C578 C576 1.388 . S
C578 C579 1.366 . S
C579 C578 1.366 . S
C579 C580 1.414 . S
C579 C582 1.499 . S
C580 H560 0.950 . S
C580 C579 1.414 . S
C580 C581 1.374 . S
C581 H561 0.950 . S
C581 C577 1.385 . S
C581 C580 1.374 . S
C582 C579 1.499 . S
C582 C583 1.373 . S
C582 C584 1.389 1_455 S
C583 H562 0.950 . S
C583 C582 1.373 . S
C583 C599 1.377 1_545 S
C584 C582 1.389 1_655 S
C584 C585 1.524 . S
C584 C598 1.377 1_545 S
C585 C584 1.524 . S
C585 C586 1.397 . S
C585 C590 1.363 . S
C586 H563 0.950 1_655 S
C586 C585 1.397 . S
C586 C587 1.334 . S
C587 H564 0.950 . S
C587 C586 1.334 . S
C587 C588 1.287 . S
C588 C587 1.287 . S
C588 C589 1.524 . S
C588 H607 0.913 . S
C589 H565 0.950 . S
C589 C588 1.524 . S
C589 C590 1.415 . S
C590 H566 0.950 . S
C590 C585 1.363 . S
C590 C589 1.415 . S
C591 H567 0.951 . S
C591 C592 1.366 . S
C591 C593 1.388 . S
C592 C591 1.366 . S
C592 C596 1.385 . S
C593 H568 0.951 . S
C593 C591 1.388 . S
C593 C594 1.366 . S
C594 C593 1.366 . S
C594 C595 1.414 . S
C594 C597 1.499 . S
C595 H569 0.950 . S
C595 C594 1.414 . S
C595 C596 1.374 . S
C596 H570 0.950 . S
C596 C592 1.385 . S
C596 C595 1.374 . S
C597 C594 1.499 . S
C597 C598 1.373 . S
C597 C599 1.389 1_655 S
C598 H571 0.950 . S
C598 C584 1.377 1_565 S
C598 C597 1.373 . S
C599 C583 1.377 1_565 S
C599 C597 1.389 1_455 S
C599 C600 1.524 . S
C600 C599 1.524 . S
C600 C601 1.397 . S
C600 C605 1.363 . S
C601 H572 0.950 1_455 S
C601 C600 1.397 . S
C601 C602 1.334 . S
C602 H573 0.950 . S
C602 C601 1.334 . S
C602 C603 1.287 . S
C603 C602 1.287 . S
C603 C604 1.524 . S
C603 H606 0.999 . S
C604 H574 0.950 . S
C604 C603 1.524 . S
C604 C605 1.415 . S
C605 H575 0.950 . S
C605 C600 1.363 . S
C605 C604 1.415 . S
H606 C603 0.999 . S
H607 C588 0.913 . S
H608 C626 0.951 . S
H609 C628 0.951 . S
H610 C630 0.950 . S
H611 C631 0.950 . S
H612 C633 0.950 . S
H613 C636 0.950 . S
H614 C637 0.950 . S
H615 C639 0.950 . S
H616 C640 0.950 . S
H617 C641 0.951 . S
H618 C643 0.951 . S
H619 C645 0.950 . S
H620 C646 0.950 . S
H621 C648 0.950 . S
H622 C651 0.950 . S
H623 C652 0.950 . S
H624 C654 0.950 . S
H625 C655 0.950 . S
C626 H608 0.951 . S
C626 C627 1.366 . S
C626 C628 1.388 . S
C627 C626 1.366 . S
C627 C631 1.385 . S
C628 H609 0.951 . S
C628 C626 1.388 . S
C628 C629 1.366 . S
C629 C628 1.366 . S
C629 C630 1.414 . S
C629 C632 1.499 . S
C630 H610 0.950 . S
C630 C629 1.414 . S
C630 C631 1.374 . S
C631 H611 0.950 . S
C631 C627 1.385 . S
C631 C630 1.374 . S
C632 C629 1.499 . S
C632 C633 1.373 . S
C632 C634 1.389 1_565 S
C633 H612 0.950 . S
C633 C632 1.373 . S
C633 C649 1.377 . S
C634 C632 1.389 1_545 S
C634 C635 1.524 . S
C634 C648 1.377 . S
C635 C634 1.524 . S
C635 C636 1.397 . S
C635 C640 1.363 . S
C636 H613 0.950 . S
C636 C635 1.397 . S
C636 C637 1.334 . S
C637 H614 0.950 . S
C637 C636 1.334 . S
C637 C638 1.287 . S
C638 C637 1.287 . S
C638 C639 1.524 . S
C638 H657 0.913 . S
C639 H615 0.950 . S
C639 C638 1.524 . S
C639 C640 1.415 . S
C640 H616 0.950 . S
C640 C635 1.363 . S
C640 C639 1.415 . S
C641 H617 0.951 . S
C641 C642 1.366 . S
C641 C643 1.388 . S
C642 C641 1.366 . S
C642 C646 1.385 . S
C643 H618 0.951 . S
C643 C641 1.388 . S
C643 C644 1.366 . S
C644 C643 1.366 . S
C644 C645 1.414 . S
C644 C647 1.499 . S
C645 H619 0.950 . S
C645 C644 1.414 . S
C645 C646 1.374 . S
C646 H620 0.950 . S
C646 C642 1.385 . S
C646 C645 1.374 . S
C647 C644 1.499 . S
C647 C648 1.373 . S
C647 C649 1.389 1_545 S
C648 H621 0.950 . S
C648 C634 1.377 . S
C648 C647 1.373 . S
C649 C633 1.377 . S
C649 C647 1.389 1_565 S
C649 C650 1.524 . S
C650 C649 1.524 . S
C650 C651 1.397 . S
C650 C655 1.363 . S
C651 H622 0.950 . S
C651 C650 1.397 . S
C651 C652 1.334 . S
C652 H623 0.950 . S
C652 C651 1.334 . S
C652 C653 1.287 . S
C653 C652 1.287 . S
C653 C654 1.524 . S
C653 H656 0.999 . S
C654 H624 0.950 . S
C654 C653 1.524 . S
C654 C655 1.415 . S
C655 H625 0.950 . S
C655 C650 1.363 . S
C655 C654 1.415 . S
H656 C653 0.999 . S
H657 C638 0.913 . S
H658 C676 0.951 . S
H659 C678 0.951 . S
H660 C680 0.950 . S
H661 C681 0.950 . S
H662 C683 0.950 . S
H663 C686 0.950 . S
H664 C687 0.950 . S
H665 C689 0.950 . S
H666 C690 0.950 . S
H667 C691 0.951 . S
H668 C693 0.951 . S
H669 C695 0.950 . S
H670 C696 0.950 . S
H671 C698 0.950 . S
H672 C701 0.950 . S
H673 C702 0.950 . S
H674 C704 0.950 . S
H675 C705 0.950 . S
C676 H658 0.951 . S
C676 C677 1.366 . S
C676 C678 1.388 . S
C677 C676 1.366 . S
C677 C681 1.385 . S
C678 H659 0.951 . S
C678 C676 1.388 . S
C678 C679 1.366 . S
C679 C678 1.366 . S
C679 C680 1.414 . S
C679 C682 1.499 . S
C680 H660 0.950 . S
C680 C679 1.414 . S
C680 C681 1.374 . S
C681 H661 0.950 . S
C681 C677 1.385 . S
C681 C680 1.374 . S
C682 C679 1.499 . S
C682 C683 1.373 1_655 S
C682 C684 1.389 1_565 S
C683 H662 0.950 . S
C683 C682 1.373 1_455 S
C683 C699 1.377 . S
C684 C682 1.389 1_545 S
C684 C685 1.524 . S
C684 C698 1.377 . S
C685 C684 1.524 . S
C685 C686 1.397 1_545 S
C685 C690 1.363 . S
C686 H663 0.950 . S
C686 C685 1.397 1_565 S
C686 C687 1.334 . S
C687 H664 0.950 . S
C687 C686 1.334 . S
C687 C688 1.287 1_565 S
C688 C687 1.287 1_545 S
C688 C689 1.524 . S
C688 H707 0.913 . S
C689 H665 0.950 . S
C689 C688 1.524 . S
C689 C690 1.415 . S
C690 H666 0.950 . S
C690 C685 1.363 . S
C690 C689 1.415 . S
C691 H667 0.951 . S
C691 C692 1.366 . S
C691 C693 1.388 . S
C692 C691 1.366 . S
C692 C696 1.385 . S
C693 H668 0.951 . S
C693 C691 1.388 . S
C693 C694 1.366 . S
C694 C693 1.366 . S
C694 C695 1.414 . S
C694 C697 1.499 . S
C695 H669 0.950 . S
C695 C694 1.414 . S
C695 C696 1.374 . S
C696 H670 0.950 . S
C696 C692 1.385 . S
C696 C695 1.374 . S
C697 C694 1.499 . S
C697 C698 1.373 1_455 S
C697 C699 1.389 1_545 S
C698 H671 0.950 . S
C698 C684 1.377 . S
C698 C697 1.373 1_655 S
C699 C683 1.377 . S
C699 C697 1.389 1_565 S
C699 C700 1.524 . S
C700 C699 1.524 . S
C700 C701 1.397 1_565 S
C700 C705 1.363 . S
C701 H672 0.950 . S
C701 C700 1.397 1_545 S
C701 C702 1.334 . S
C702 H673 0.950 . S
C702 C701 1.334 . S
C702 C703 1.287 1_545 S
C703 C702 1.287 1_565 S
C703 C704 1.524 . S
C703 H706 0.999 . S
C704 H674 0.950 . S
C704 C703 1.524 . S
C704 C705 1.415 . S
C705 H675 0.950 . S
C705 C700 1.363 . S
C705 C704 1.415 . S
H706 C703 0.999 . S
H707 C688 0.913 . S
H708 C726 0.951 . S
H709 C728 0.951 . S
H710 C730 0.950 . S
H711 C731 0.950 . S
H712 C733 0.950 . S
H713 C736 0.950 . S
H714 C737 0.950 . S
H715 C739 0.950 . S
H716 C740 0.950 . S
H717 C741 0.951 . S
H718 C743 0.951 . S
H719 C745 0.950 . S
H720 C746 0.950 . S
H721 C748 0.950 . S
H722 C751 0.950 . S
H723 C752 0.950 . S
H724 C754 0.950 . S
H725 C755 0.950 . S
C726 H708 0.951 . S
C726 C727 1.366 . S
C726 C728 1.388 . S
C727 C726 1.366 . S
C727 C731 1.385 . S
C728 H709 0.951 . S
C728 C726 1.388 . S
C728 C729 1.366 . S
C729 C728 1.366 . S
C729 C730 1.414 . S
C729 C732 1.499 . S
C730 H710 0.950 . S
C730 C729 1.414 . S
C730 C731 1.374 . S
C731 H711 0.950 . S
C731 C727 1.385 . S
C731 C730 1.374 . S
C732 C729 1.499 . S
C732 C733 1.373 . S
C732 C734 1.389 . S
C733 H712 0.950 . S
C733 C732 1.373 . S
C733 C749 1.377 1_455 S
C734 C732 1.389 . S
C734 C735 1.524 . S
C734 C748 1.377 1_455 S
C735 C734 1.524 . S
C735 C736 1.397 . S
C735 C740 1.363 . S
C736 H713 0.950 . S
C736 C735 1.397 . S
C736 C737 1.334 . S
C737 H714 0.950 . S
C737 C736 1.334 . S
C737 C738 1.287 . S
C738 C737 1.287 . S
C738 C739 1.524 . S
C738 H757 0.913 . S
C739 H715 0.950 . S
C739 C738 1.524 . S
C739 C740 1.415 . S
C740 H716 0.950 . S
C740 C735 1.363 . S
C740 C739 1.415 . S
C741 H717 0.951 . S
C741 C742 1.366 . S
C741 C743 1.388 . S
C742 C741 1.366 . S
C742 C746 1.385 . S
C743 H718 0.951 . S
C743 C741 1.388 . S
C743 C744 1.366 . S
C744 C743 1.366 . S
C744 C745 1.414 . S
C744 C747 1.499 . S
C745 H719 0.950 . S
C745 C744 1.414 . S
C745 C746 1.374 . S
C746 H720 0.950 . S
C746 C742 1.385 . S
C746 C745 1.374 . S
C747 C744 1.499 . S
C747 C748 1.373 . S
C747 C749 1.389 . S
C748 H721 0.950 . S
C748 C734 1.377 1_655 S
C748 C747 1.373 . S
C749 C733 1.377 1_655 S
C749 C747 1.389 . S
C749 C750 1.524 . S
C750 C749 1.524 . S
C750 C751 1.397 . S
C750 C755 1.363 . S
C751 H722 0.950 . S
C751 C750 1.397 . S
C751 C752 1.334 . S
C752 H723 0.950 . S
C752 C751 1.334 . S
C752 C753 1.287 . S
C753 C752 1.287 . S
C753 C754 1.524 . S
C753 H756 0.999 . S
C754 H724 0.950 . S
C754 C753 1.524 . S
C754 C755 1.415 . S
C755 H725 0.950 . S
C755 C750 1.363 . S
C755 C754 1.415 . S
H756 C753 0.999 . S
H757 C738 0.913 . S
H758 C776 0.951 . S
H759 C778 0.951 . S
H760 C780 0.950 . S
H761 C781 0.950 . S
H762 C783 0.950 . S
H763 C786 0.950 . S
H764 C787 0.950 . S
H765 C789 0.950 . S
H766 C790 0.950 . S
H767 C791 0.951 . S
H768 C793 0.951 . S
H769 C795 0.950 . S
H770 C796 0.950 . S
H771 C798 0.950 . S
H772 C801 0.950 . S
H773 C802 0.950 . S
H774 C804 0.950 . S
H775 C805 0.950 . S
C776 H758 0.951 . S
C776 C777 1.366 . S
C776 C778 1.388 . S
C777 C776 1.366 . S
C777 C781 1.385 . S
C778 H759 0.951 . S
C778 C776 1.388 . S
C778 C779 1.366 . S
C779 C778 1.366 . S
C779 C780 1.414 . S
C779 C782 1.499 . S
C780 H760 0.950 . S
C780 C779 1.414 . S
C780 C781 1.374 . S
C781 H761 0.950 . S
C781 C777 1.385 . S
C781 C780 1.374 . S
C782 C779 1.499 . S
C782 C783 1.373 . S
C782 C784 1.389 . S
C783 H762 0.950 . S
C783 C782 1.373 . S
C783 C799 1.377 . S
C784 C782 1.389 . S
C784 C785 1.524 . S
C784 C798 1.377 . S
C785 C784 1.524 . S
C785 C786 1.397 . S
C785 C790 1.363 . S
C786 H763 0.950 . S
C786 C785 1.397 . S
C786 C787 1.334 . S
C787 H764 0.950 . S
C787 C786 1.334 . S
C787 C788 1.287 . S
C788 C787 1.287 . S
C788 C789 1.524 . S
C788 H807 0.913 . S
C789 H765 0.950 . S
C789 C788 1.524 . S
C789 C790 1.415 . S
C790 H766 0.950 . S
C790 C785 1.363 . S
C790 C789 1.415 . S
C791 H767 0.951 . S
C791 C792 1.366 . S
C791 C793 1.388 . S
C792 C791 1.366 . S
C792 C796 1.385 . S
C793 H768 0.951 . S
C793 C791 1.388 . S
C793 C794 1.366 . S
C794 C793 1.366 . S
C794 C795 1.414 . S
C794 C797 1.499 . S
C795 H769 0.950 . S
C795 C794 1.414 . S
C795 C796 1.374 . S
C796 H770 0.950 . S
C796 C792 1.385 . S
C796 C795 1.374 . S
C797 C794 1.499 . S
C797 C798 1.373 . S
C797 C799 1.389 . S
C798 H771 0.950 . S
C798 C784 1.377 . S
C798 C797 1.373 . S
C799 C783 1.377 . S
C799 C797 1.389 . S
C799 C800 1.524 . S
C800 C799 1.524 . S
C800 C801 1.397 . S
C800 C805 1.363 . S
C801 H772 0.950 . S
C801 C800 1.397 . S
C801 C802 1.334 . S
C802 H773 0.950 . S
C802 C801 1.334 . S
C802 C803 1.287 . S
C803 C802 1.287 . S
C803 C804 1.524 . S
C803 H806 0.999 . S
C804 H774 0.950 . S
C804 C803 1.524 . S
C804 C805 1.415 . S
C805 H775 0.950 . S
C805 C800 1.363 . S
C805 C804 1.415 . S
H806 C803 0.999 . S
H807 C788 0.913 . S
H808 C826 0.951 . S
H809 C828 0.951 . S
H810 C830 0.950 . S
H811 C831 0.950 . S
H812 C833 0.950 . S
H813 C836 0.950 . S
H814 C837 0.950 . S
H815 C839 0.950 . S
H816 C840 0.950 . S
H817 C841 0.951 . S
H818 C843 0.951 . S
H819 C845 0.950 . S
H820 C846 0.950 . S
H821 C848 0.950 . S
H822 C851 0.950 . S
H823 C852 0.950 . S
H824 C854 0.950 . S
H825 C855 0.950 . S
C826 H808 0.951 . S
C826 C827 1.366 . S
C826 C828 1.388 . S
C827 C826 1.366 . S
C827 C831 1.385 . S
C828 H809 0.951 . S
C828 C826 1.388 . S
C828 C829 1.366 . S
C829 C828 1.366 . S
C829 C830 1.414 . S
C829 C832 1.499 . S
C830 H810 0.950 . S
C830 C829 1.414 . S
C830 C831 1.374 . S
C831 H811 0.950 . S
C831 C827 1.385 . S
C831 C830 1.374 . S
C832 C829 1.499 . S
C832 C833 1.373 . S
C832 C834 1.389 . S
C833 H812 0.950 . S
C833 C832 1.373 . S
C833 C849 1.377 . S
C834 C832 1.389 . S
C834 C835 1.524 . S
C834 C848 1.377 . S
C835 C834 1.524 . S
C835 C836 1.397 . S
C835 C840 1.363 . S
C836 H813 0.950 . S
C836 C835 1.397 . S
C836 C837 1.334 . S
C837 H814 0.950 . S
C837 C836 1.334 . S
C837 C838 1.287 . S
C838 C837 1.287 . S
C838 C839 1.524 . S
C838 H857 0.913 . S
C839 H815 0.950 . S
C839 C838 1.524 . S
C839 C840 1.415 . S
C840 H816 0.950 . S
C840 C835 1.363 . S
C840 C839 1.415 . S
C841 H817 0.951 . S
C841 C842 1.366 . S
C841 C843 1.388 . S
C842 C841 1.366 . S
C842 C846 1.385 . S
C843 H818 0.951 . S
C843 C841 1.388 . S
C843 C844 1.366 . S
C844 C843 1.366 . S
C844 C845 1.414 . S
C844 C847 1.499 . S
C845 H819 0.950 . S
C845 C844 1.414 . S
C845 C846 1.374 . S
C846 H820 0.950 . S
C846 C842 1.385 . S
C846 C845 1.374 . S
C847 C844 1.499 . S
C847 C848 1.373 . S
C847 C849 1.389 . S
C848 H821 0.950 . S
C848 C834 1.377 . S
C848 C847 1.373 . S
C849 C833 1.377 . S
C849 C847 1.389 . S
C849 C850 1.524 . S
C850 C849 1.524 . S
C850 C851 1.397 . S
C850 C855 1.363 . S
C851 H822 0.950 . S
C851 C850 1.397 . S
C851 C852 1.334 . S
C852 H823 0.950 . S
C852 C851 1.334 . S
C852 C853 1.287 . S
C853 C852 1.287 . S
C853 C854 1.524 . S
C853 H856 0.999 . S
C854 H824 0.950 . S
C854 C853 1.524 . S
C854 C855 1.415 . S
C855 H825 0.950 . S
C855 C850 1.363 . S
C855 C854 1.415 . S
H856 C853 0.999 . S
H857 C838 0.913 . S
H858 C876 0.951 . S
H859 C878 0.951 . S
H860 C880 0.950 . S
H861 C881 0.950 . S
H862 C883 0.950 . S
H863 C886 0.950 . S
H864 C887 0.950 . S
H865 C889 0.950 . S
H866 C890 0.950 . S
H867 C891 0.951 . S
H868 C893 0.951 . S
H869 C895 0.950 . S
H870 C896 0.950 . S
H871 C898 0.950 . S
H872 C901 0.950 . S
H873 C902 0.950 . S
H874 C904 0.950 . S
H875 C905 0.950 . S
C876 H858 0.951 . S
C876 C877 1.366 . S
C876 C878 1.388 . S
C877 C876 1.366 . S
C877 C881 1.385 . S
C878 H859 0.951 . S
C878 C876 1.388 . S
C878 C879 1.366 . S
C879 C878 1.366 . S
C879 C880 1.414 . S
C879 C882 1.499 . S
C880 H860 0.950 . S
C880 C879 1.414 . S
C880 C881 1.374 . S
C881 H861 0.950 . S
C881 C877 1.385 . S
C881 C880 1.374 . S
C882 C879 1.499 . S
C882 C883 1.373 . S
C882 C884 1.389 . S
C883 H862 0.950 . S
C883 C882 1.373 . S
C883 C899 1.377 1_565 S
C884 C882 1.389 . S
C884 C885 1.524 . S
C884 C898 1.377 1_565 S
C885 C884 1.524 . S
C885 C886 1.397 . S
C885 C890 1.363 1_565 S
C886 H863 0.950 . S
C886 C885 1.397 . S
C886 C887 1.334 . S
C887 H864 0.950 . S
C887 C886 1.334 . S
C887 C888 1.287 . S
C888 C887 1.287 . S
C888 C889 1.524 1_565 S
C888 H907 0.913 . S
C889 H865 0.950 . S
C889 C888 1.524 1_545 S
C889 C890 1.415 . S
C890 H866 0.950 . S
C890 C885 1.363 1_545 S
C890 C889 1.415 . S
C891 H867 0.951 . S
C891 C892 1.366 . S
C891 C893 1.388 . S
C892 C891 1.366 . S
C892 C896 1.385 . S
C893 H868 0.951 . S
C893 C891 1.388 . S
C893 C894 1.366 . S
C894 C893 1.366 . S
C894 C895 1.414 . S
C894 C897 1.499 . S
C895 H869 0.950 . S
C895 C894 1.414 . S
C895 C896 1.374 . S
C896 H870 0.950 . S
C896 C892 1.385 . S
C896 C895 1.374 . S
C897 C894 1.499 . S
C897 C898 1.373 . S
C897 C899 1.389 . S
C898 H871 0.950 . S
C898 C884 1.377 1_545 S
C898 C897 1.373 . S
C899 C883 1.377 1_545 S
C899 C897 1.389 . S
C899 C900 1.524 . S
C900 C899 1.524 . S
C900 C901 1.397 . S
C900 C905 1.363 1_545 S
C901 H872 0.950 . S
C901 C900 1.397 . S
C901 C902 1.334 . S
C902 H873 0.950 . S
C902 C901 1.334 . S
C902 C903 1.287 . S
C903 C902 1.287 . S
C903 C904 1.524 1_545 S
C903 H906 0.999 . S
C904 H874 0.950 . S
C904 C903 1.524 1_565 S
C904 C905 1.415 . S
C905 H875 0.950 . S
C905 C900 1.363 1_565 S
C905 C904 1.415 . S
H906 C903 0.999 . S
H907 C888 0.913 . S
H908 C926 0.951 . S
H909 C928 0.951 . S
H910 C930 0.950 . S
H911 C931 0.950 . S
H912 C933 0.950 . S
H913 C936 0.950 . S
H914 C937 0.950 . S
H915 C939 0.950 . S
H916 C940 0.950 . S
H917 C941 0.951 . S
H918 C943 0.951 . S
H919 C945 0.950 . S
H920 C946 0.950 . S
H921 C948 0.950 . S
H922 C951 0.950 . S
H923 C952 0.950 . S
H924 C954 0.950 . S
H925 C955 0.950 . S
C926 H908 0.951 . S
C926 C927 1.366 . S
C926 C928 1.388 . S
C927 C926 1.366 . S
C927 C931 1.385 . S
C928 H909 0.951 . S
C928 C926 1.388 . S
C928 C929 1.366 . S
C929 C928 1.366 . S
C929 C930 1.414 . S
C929 C932 1.499 . S
C930 H910 0.950 . S
C930 C929 1.414 . S
C930 C931 1.374 . S
C931 H911 0.950 . S
C931 C927 1.385 . S
C931 C930 1.374 . S
C932 C929 1.499 . S
C932 C933 1.373 . S
C932 C934 1.389 . S
C933 H912 0.950 . S
C933 C932 1.373 . S
C933 C949 1.377 1_665 S
C934 C932 1.389 . S
C934 C935 1.524 . S
C934 C948 1.377 1_665 S
C935 C934 1.524 . S
C935 C936 1.397 . S
C935 C940 1.363 1_565 S
C936 H913 0.950 . S
C936 C935 1.397 . S
C936 C937 1.334 . S
C937 H914 0.950 . S
C937 C936 1.334 . S
C937 C938 1.287 . S
C938 C937 1.287 . S
C938 C939 1.524 1_565 S
C938 H957 0.913 . S
C939 H915 0.950 . S
C939 C938 1.524 1_545 S
C939 C940 1.415 . S
C940 H916 0.950 . S
C940 C935 1.363 1_545 S
C940 C939 1.415 . S
C941 H917 0.951 . S
C941 C942 1.366 . S
C941 C943 1.388 . S
C942 C941 1.366 . S
C942 C946 1.385 . S
C943 H918 0.951 . S
C943 C941 1.388 . S
C943 C944 1.366 . S
C944 C943 1.366 . S
C944 C945 1.414 . S
C944 C947 1.499 . S
C945 H919 0.950 . S
C945 C944 1.414 . S
C945 C946 1.374 . S
C946 H920 0.950 . S
C946 C942 1.385 . S
C946 C945 1.374 . S
C947 C944 1.499 . S
C947 C948 1.373 . S
C947 C949 1.389 . S
C948 H921 0.950 . S
C948 C934 1.377 1_445 S
C948 C947 1.373 . S
C949 C933 1.377 1_445 S
C949 C947 1.389 . S
C949 C950 1.524 . S
C950 C949 1.524 . S
C950 C951 1.397 . S
C950 C955 1.363 1_545 S
C951 H922 0.950 . S
C951 C950 1.397 . S
C951 C952 1.334 . S
C952 H923 0.950 . S
C952 C951 1.334 . S
C952 C953 1.287 . S
C953 C952 1.287 . S
C953 C954 1.524 1_545 S
C953 H956 0.999 . S
C954 H924 0.950 . S
C954 C953 1.524 1_565 S
C954 C955 1.415 . S
C955 H925 0.950 . S
C955 C950 1.363 1_565 S
C955 C954 1.415 . S
H956 C953 0.999 . S
H957 C938 0.913 . S
H958 C976 0.951 . S
H959 C978 0.952 . S
H960 C980 0.950 . S
H961 C981 0.950 . S
H962 C983 0.950 . S
H963 C986 0.924 1_455 S
H964 C987 0.950 1_455 S
H965 C989 0.950 . S
H966 C990 0.950 . S
H967 C991 0.951 . S
H968 C993 0.952 . S
H969 C995 0.950 . S
H970 C996 0.950 . S
H971 C998 0.950 . S
H972 C1001 0.924 1_655 S
H973 C1002 0.950 1_655 S
H974 C1004 0.950 . S
H975 C1005 0.950 . S
C976 H958 0.951 . S
C976 C977 1.366 . S
C976 C978 1.388 . S
C977 C976 1.366 . S
C977 C981 1.385 . S
C978 H959 0.952 . S
C978 C976 1.388 . S
C978 C979 1.366 . S
C979 C978 1.366 . S
C979 C980 1.414 . S
C979 C982 1.499 . S
C980 H960 0.950 . S
C980 C979 1.414 . S
C980 C981 1.374 . S
C981 H961 0.950 . S
C981 C977 1.385 . S
C981 C980 1.374 . S
C982 C979 1.499 . S
C982 C983 1.373 . S
C982 C984 1.389 1_455 S
C983 H962 0.950 . S
C983 C982 1.373 . S
C983 C999 1.377 . S
C984 C982 1.389 1_655 S
C984 C985 1.524 . S
C984 C998 1.377 . S
C985 C984 1.524 . S
C985 C986 1.415 . S
C985 C990 1.363 . S
C986 H963 0.924 1_655 S
C986 C985 1.415 . S
C986 C987 1.342 . S
C987 H964 0.950 1_655 S
C987 C986 1.342 . S
C987 C988 1.287 . S
C988 C987 1.287 . S
C988 C989 1.524 . S
C988 H1007 0.913 . S
C989 H965 0.950 . S
C989 C988 1.524 . S
C989 C990 1.415 . S
C990 H966 0.950 . S
C990 C985 1.363 . S
C990 C989 1.415 . S
C991 H967 0.951 . S
C991 C992 1.366 . S
C991 C993 1.388 . S
C992 C991 1.366 . S
C992 C996 1.385 . S
C993 H968 0.952 . S
C993 C991 1.388 . S
C993 C994 1.366 . S
C994 C993 1.366 . S
C994 C995 1.414 . S
C994 C997 1.499 . S
C995 H969 0.950 . S
C995 C994 1.414 . S
C995 C996 1.374 . S
C996 H970 0.950 . S
C996 C992 1.385 . S
C996 C995 1.374 . S
C997 C994 1.499 . S
C997 C998 1.373 . S
C997 C999 1.389 1_655 S
C998 H971 0.950 . S
C998 C984 1.377 . S
C998 C997 1.373 . S
C999 C983 1.377 . S
C999 C997 1.389 1_455 S
C999 C1000 1.524 . S
C1000 C999 1.524 . S
C1000 C1001 1.415 . S
C1000 C1005 1.363 . S
C1001 H972 0.924 1_455 S
C1001 C1000 1.415 . S
C1001 C1002 1.342 . S
C1002 H973 0.950 1_455 S
C1002 C1001 1.342 . S
C1002 C1003 1.287 . S
C1003 C1002 1.287 . S
C1003 C1004 1.524 . S
C1003 H1006 0.999 . S
C1004 H974 0.950 . S
C1004 C1003 1.524 . S
C1004 C1005 1.415 . S
C1005 H975 0.950 . S
C1005 C1000 1.363 . S
C1005 C1004 1.415 . S
H1006 C1003 0.999 . S
H1007 C988 0.913 . S
H1008 C1026 0.951 . S
H1009 C1028 0.951 . S
H1010 C1030 0.950 . S
H1011 C1031 0.950 . S
H1012 C1033 0.950 . S
H1013 C1036 0.950 . S
H1014 C1037 0.950 . S
H1015 C1039 0.950 . S
H1016 C1040 0.950 . S
H1017 C1041 0.951 . S
H1018 C1043 0.951 . S
H1019 C1045 0.950 . S
H1020 C1046 0.950 . S
H1021 C1048 0.950 . S
H1022 C1051 0.950 . S
H1023 C1052 0.950 . S
H1024 C1054 0.950 . S
H1025 C1055 0.950 . S
C1026 H1008 0.951 . S
C1026 C1027 1.366 . S
C1026 C1028 1.388 . S
C1027 C1026 1.366 . S
C1027 C1031 1.385 . S
C1028 H1009 0.951 . S
C1028 C1026 1.388 . S
C1028 C1029 1.366 . S
C1029 C1028 1.366 . S
C1029 C1030 1.414 . S
C1029 C1032 1.499 . S
C1030 H1010 0.950 . S
C1030 C1029 1.414 . S
C1030 C1031 1.374 . S
C1031 H1011 0.950 . S
C1031 C1027 1.385 . S
C1031 C1030 1.374 . S
C1032 C1029 1.499 . S
C1032 C1033 1.373 . S
C1032 C1034 1.389 . S
C1033 H1012 0.950 . S
C1033 C1032 1.373 . S
C1033 C1049 1.377 . S
C1034 C1032 1.389 . S
C1034 C1035 1.524 . S
C1034 C1048 1.377 . S
C1035 C1034 1.524 . S
C1035 C1036 1.397 . S
C1035 C1040 1.363 . S
C1036 H1013 0.950 . S
C1036 C1035 1.397 . S
C1036 C1037 1.334 . S
C1037 H1014 0.950 . S
C1037 C1036 1.334 . S
C1037 C1038 1.287 . S
C1038 C1037 1.287 . S
C1038 C1039 1.524 . S
C1038 H1057 0.913 . S
C1039 H1015 0.950 . S
C1039 C1038 1.524 . S
C1039 C1040 1.415 . S
C1040 H1016 0.950 . S
C1040 C1035 1.363 . S
C1040 C1039 1.415 . S
C1041 H1017 0.951 . S
C1041 C1042 1.366 . S
C1041 C1043 1.388 . S
C1042 C1041 1.366 . S
C1042 C1046 1.385 . S
C1043 H1018 0.951 . S
C1043 C1041 1.388 . S
C1043 C1044 1.366 . S
C1044 C1043 1.366 . S
C1044 C1045 1.414 . S
C1044 C1047 1.499 . S
C1045 H1019 0.950 . S
C1045 C1044 1.414 . S
C1045 C1046 1.374 . S
C1046 H1020 0.950 . S
C1046 C1042 1.385 . S
C1046 C1045 1.374 . S
C1047 C1044 1.499 . S
C1047 C1048 1.373 . S
C1047 C1049 1.389 . S
C1048 H1021 0.950 . S
C1048 C1034 1.377 . S
C1048 C1047 1.373 . S
C1049 C1033 1.377 . S
C1049 C1047 1.389 . S
C1049 C1050 1.524 . S
C1050 C1049 1.524 . S
C1050 C1051 1.397 . S
C1050 C1055 1.363 . S
C1051 H1022 0.950 . S
C1051 C1050 1.397 . S
C1051 C1052 1.334 . S
C1052 H1023 0.950 . S
C1052 C1051 1.334 . S
C1052 C1053 1.287 . S
C1053 C1052 1.287 . S
C1053 C1054 1.524 . S
C1053 H1056 0.999 . S
C1054 H1024 0.950 . S
C1054 C1053 1.524 . S
C1054 C1055 1.415 . S
C1055 H1025 0.950 . S
C1055 C1050 1.363 . S
C1055 C1054 1.415 . S
H1056 C1053 0.999 . S
H1057 C1038 0.913 . S
H1058 C1076 0.951 . S
H1059 C1078 0.951 . S
H1060 C1080 0.950 . S
H1061 C1081 0.950 . S
H1062 C1083 0.950 . S
H1063 C1086 0.950 . S
H1064 C1087 0.950 . S
H1065 C1089 0.950 . S
H1066 C1090 0.950 . S
H1067 C1091 0.951 . S
H1068 C1093 0.951 . S
H1069 C1095 0.950 . S
H1070 C1096 0.950 . S
H1071 C1098 0.950 . S
H1072 C1101 0.950 . S
H1073 C1102 0.950 . S
H1074 C1104 0.950 . S
H1075 C1105 0.950 . S
C1076 H1058 0.951 . S
C1076 C1077 1.366 . S
C1076 C1078 1.388 . S
C1077 C1076 1.366 . S
C1077 C1081 1.385 . S
C1078 H1059 0.951 . S
C1078 C1076 1.388 . S
C1078 C1079 1.366 . S
C1079 C1078 1.366 . S
C1079 C1080 1.414 . S
C1079 C1082 1.499 . S
C1080 H1060 0.950 . S
C1080 C1079 1.414 . S
C1080 C1081 1.374 . S
C1081 H1061 0.950 . S
C1081 C1077 1.385 . S
C1081 C1080 1.374 . S
C1082 C1079 1.499 . S
C1082 C1083 1.373 . S
C1082 C1084 1.389 . S
C1083 H1062 0.950 . S
C1083 C1082 1.373 . S
C1083 C1099 1.377 . S
C1084 C1082 1.389 . S
C1084 C1085 1.524 . S
C1084 C1098 1.377 . S
C1085 C1084 1.524 . S
C1085 C1086 1.397 . S
C1085 C1090 1.363 . S
C1086 H1063 0.950 . S
C1086 C1085 1.397 . S
C1086 C1087 1.334 1_655 S
C1087 H1064 0.950 . S
C1087 C1086 1.334 1_455 S
C1087 C1088 1.287 1_455 S
C1088 C1087 1.287 1_655 S
C1088 C1089 1.524 . S
C1088 H1107 0.913 1_655 S
C1089 H1065 0.950 . S
C1089 C1088 1.524 . S
C1089 C1090 1.415 . S
C1090 H1066 0.950 . S
C1090 C1085 1.363 . S
C1090 C1089 1.415 . S
C1091 H1067 0.951 . S
C1091 C1092 1.366 . S
C1091 C1093 1.388 . S
C1092 C1091 1.366 . S
C1092 C1096 1.385 . S
C1093 H1068 0.951 . S
C1093 C1091 1.388 . S
C1093 C1094 1.366 . S
C1094 C1093 1.366 . S
C1094 C1095 1.414 . S
C1094 C1097 1.499 . S
C1095 H1069 0.950 . S
C1095 C1094 1.414 . S
C1095 C1096 1.374 . S
C1096 H1070 0.950 . S
C1096 C1092 1.385 . S
C1096 C1095 1.374 . S
C1097 C1094 1.499 . S
C1097 C1098 1.373 . S
C1097 C1099 1.389 . S
C1098 H1071 0.950 . S
C1098 C1084 1.377 . S
C1098 C1097 1.373 . S
C1099 C1083 1.377 . S
C1099 C1097 1.389 . S
C1099 C1100 1.524 . S
C1100 C1099 1.524 . S
C1100 C1101 1.397 . S
C1100 C1105 1.363 . S
C1101 H1072 0.950 . S
C1101 C1100 1.397 . S
C1101 C1102 1.334 . S
C1102 H1073 0.950 . S
C1102 C1101 1.334 . S
C1102 C1103 1.287 . S
C1103 C1102 1.287 . S
C1103 C1104 1.524 . S
C1103 H1106 0.999 . S
C1104 H1074 0.950 . S
C1104 C1103 1.524 . S
C1104 C1105 1.415 . S
C1105 H1075 0.950 . S
C1105 C1100 1.363 . S
C1105 C1104 1.415 . S
H1106 C1103 0.999 . S
H1107 C1088 0.913 1_455 S
H1108 C1126 0.951 . S
H1109 C1128 0.951 . S
H1110 C1130 0.950 . S
H1111 C1131 0.950 . S
H1112 C1133 0.950 . S
H1113 C1136 0.950 . S
H1114 C1137 0.950 . S
H1115 C1139 0.950 . S
H1116 C1140 0.950 . S
H1117 C1141 0.951 . S
H1118 C1143 0.951 . S
H1119 C1145 0.950 . S
H1120 C1146 0.950 . S
H1121 C1148 0.950 . S
H1122 C1151 0.950 . S
H1123 C1152 0.950 . S
H1124 C1154 0.950 . S
H1125 C1155 0.950 . S
C1126 H1108 0.951 . S
C1126 C1127 1.366 . S
C1126 C1128 1.388 . S
C1127 C1126 1.366 . S
C1127 C1131 1.385 . S
C1128 H1109 0.951 . S
C1128 C1126 1.388 . S
C1128 C1129 1.366 . S
C1129 C1128 1.366 . S
C1129 C1130 1.414 . S
C1129 C1132 1.499 . S
C1130 H1110 0.950 . S
C1130 C1129 1.414 . S
C1130 C1131 1.374 . S
C1131 H1111 0.950 . S
C1131 C1127 1.385 . S
C1131 C1130 1.374 . S
C1132 C1129 1.499 . S
C1132 C1133 1.373 . S
C1132 C1134 1.389 . S
C1133 H1112 0.950 . S
C1133 C1132 1.373 . S
C1133 C1149 1.377 . S
C1134 C1132 1.389 . S
C1134 C1135 1.524 . S
C1134 C1148 1.377 . S
C1135 C1134 1.524 . S
C1135 C1136 1.397 . S
C1135 C1140 1.363 . S
C1136 H1113 0.950 . S
C1136 C1135 1.397 . S
C1136 C1137 1.334 . S
C1137 H1114 0.950 . S
C1137 C1136 1.334 . S
C1137 C1138 1.287 . S
C1138 C1137 1.287 . S
C1138 C1139 1.524 . S
C1138 H1157 0.913 . S
C1139 H1115 0.950 . S
C1139 C1138 1.524 . S
C1139 C1140 1.415 . S
C1140 H1116 0.950 . S
C1140 C1135 1.363 . S
C1140 C1139 1.415 . S
C1141 H1117 0.951 . S
C1141 C1142 1.366 . S
C1141 C1143 1.388 . S
C1142 C1141 1.366 . S
C1142 C1146 1.385 . S
C1143 H1118 0.951 . S
C1143 C1141 1.388 . S
C1143 C1144 1.366 . S
C1144 C1143 1.366 . S
C1144 C1145 1.414 . S
C1144 C1147 1.499 . S
C1145 H1119 0.950 . S
C1145 C1144 1.414 . S
C1145 C1146 1.374 . S
C1146 H1120 0.950 . S
C1146 C1142 1.385 . S
C1146 C1145 1.374 . S
C1147 C1144 1.499 . S
C1147 C1148 1.373 . S
C1147 C1149 1.389 . S
C1148 H1121 0.950 . S
C1148 C1134 1.377 . S
C1148 C1147 1.373 . S
C1149 C1133 1.377 . S
C1149 C1147 1.389 . S
C1149 C1150 1.524 . S
C1150 C1149 1.524 . S
C1150 C1151 1.397 . S
C1150 C1155 1.363 . S
C1151 H1122 0.950 . S
C1151 C1150 1.397 . S
C1151 C1152 1.334 . S
C1152 H1123 0.950 . S
C1152 C1151 1.334 . S
C1152 C1153 1.287 . S
C1153 C1152 1.287 . S
C1153 C1154 1.524 . S
C1153 H1156 0.999 . S
C1154 H1124 0.950 . S
C1154 C1153 1.524 . S
C1154 C1155 1.415 . S
C1155 H1125 0.950 . S
C1155 C1150 1.363 . S
C1155 C1154 1.415 . S
H1156 C1153 0.999 . S
H1157 C1138 0.913 . S
H1158 C1176 0.951 . S
H1159 C1178 0.951 . S
H1160 C1180 0.950 . S
H1161 C1181 0.950 . S
H1162 C1183 0.950 . S
H1163 C1186 0.950 . S
H1164 C1187 0.950 . S
H1165 C1189 0.950 . S
H1166 C1190 0.950 . S
H1167 C1191 0.951 . S
H1168 C1193 0.951 . S
H1169 C1195 0.950 . S
H1170 C1196 0.950 . S
H1171 C1198 0.950 . S
H1172 C1201 0.950 . S
H1173 C1202 0.950 . S
H1174 C1204 0.950 . S
H1175 C1205 0.950 . S
C1176 H1158 0.951 . S
C1176 C1177 1.366 . S
C1176 C1178 1.388 . S
C1177 C1176 1.366 . S
C1177 C1181 1.385 . S
C1178 H1159 0.951 . S
C1178 C1176 1.388 . S
C1178 C1179 1.366 . S
C1179 C1178 1.366 . S
C1179 C1180 1.414 . S
C1179 C1182 1.499 . S
C1180 H1160 0.950 . S
C1180 C1179 1.414 . S
C1180 C1181 1.374 . S
C1181 H1161 0.950 . S
C1181 C1177 1.385 . S
C1181 C1180 1.374 . S
C1182 C1179 1.499 . S
C1182 C1183 1.373 . S
C1182 C1184 1.389 . S
C1183 H1162 0.950 . S
C1183 C1182 1.373 . S
C1183 C1199 1.377 . S
C1184 C1182 1.389 . S
C1184 C1185 1.524 . S
C1184 C1198 1.377 . S
C1185 C1184 1.524 . S
C1185 C1186 1.397 . S
C1185 C1190 1.363 . S
C1186 H1163 0.950 . S
C1186 C1185 1.397 . S
C1186 C1187 1.334 . S
C1187 H1164 0.950 . S
C1187 C1186 1.334 . S
C1187 C1188 1.287 . S
C1188 C1187 1.287 . S
C1188 C1189 1.524 . S
C1188 H1207 0.913 . S
C1189 H1165 0.950 . S
C1189 C1188 1.524 . S
C1189 C1190 1.415 . S
C1190 H1166 0.950 . S
C1190 C1185 1.363 . S
C1190 C1189 1.415 . S
C1191 H1167 0.951 . S
C1191 C1192 1.366 . S
C1191 C1193 1.388 . S
C1192 C1191 1.366 . S
C1192 C1196 1.385 . S
C1193 H1168 0.951 . S
C1193 C1191 1.388 . S
C1193 C1194 1.366 . S
C1194 C1193 1.366 . S
C1194 C1195 1.414 . S
C1194 C1197 1.499 . S
C1195 H1169 0.950 . S
C1195 C1194 1.414 . S
C1195 C1196 1.374 . S
C1196 H1170 0.950 . S
C1196 C1192 1.385 . S
C1196 C1195 1.374 . S
C1197 C1194 1.499 . S
C1197 C1198 1.373 . S
C1197 C1199 1.389 . S
C1198 H1171 0.950 . S
C1198 C1184 1.377 . S
C1198 C1197 1.373 . S
C1199 C1183 1.377 . S
C1199 C1197 1.389 . S
C1199 C1200 1.524 . S
C1200 C1199 1.524 . S
C1200 C1201 1.397 . S
C1200 C1205 1.363 . S
C1201 H1172 0.950 . S
C1201 C1200 1.397 . S
C1201 C1202 1.334 . S
C1202 H1173 0.950 . S
C1202 C1201 1.334 . S
C1202 C1203 1.287 . S
C1203 C1202 1.287 . S
C1203 C1204 1.524 . S
C1203 H1206 0.999 . S
C1204 H1174 0.950 . S
C1204 C1203 1.524 . S
C1204 C1205 1.415 . S
C1205 H1175 0.950 . S
C1205 C1200 1.363 . S
C1205 C1204 1.415 . S
H1206 C1203 0.999 . S
H1207 C1188 0.913 . S
H1208 C1226 0.951 . S
H1209 C1228 0.951 . S
H1210 C1230 0.950 . S
H1211 C1231 0.950 . S
H1212 C1233 0.950 . S
H1213 C1236 0.950 . S
H1214 C1237 0.950 . S
H1215 C1239 0.950 . S
H1216 C1240 0.950 . S
H1217 C1241 0.951 . S
H1218 C1243 0.951 . S
H1219 C1245 0.950 . S
H1220 C1246 0.950 . S
H1221 C1248 0.950 . S
H1222 C1251 0.950 . S
H1223 C1252 0.950 . S
H1224 C1254 0.950 . S
H1225 C1255 0.950 . S
C1226 H1208 0.951 . S
C1226 C1227 1.366 . S
C1226 C1228 1.388 . S
C1227 C1226 1.366 . S
C1227 C1231 1.385 . S
C1228 H1209 0.951 . S
C1228 C1226 1.388 . S
C1228 C1229 1.366 . S
C1229 C1228 1.366 . S
C1229 C1230 1.414 . S
C1229 C1232 1.499 . S
C1230 H1210 0.950 . S
C1230 C1229 1.414 . S
C1230 C1231 1.374 . S
C1231 H1211 0.950 . S
C1231 C1227 1.385 . S
C1231 C1230 1.374 . S
C1232 C1229 1.499 . S
C1232 C1233 1.373 . S
C1232 C1234 1.389 . S
C1233 H1212 0.950 . S
C1233 C1232 1.373 . S
C1233 C1249 1.377 . S
C1234 C1232 1.389 . S
C1234 C1235 1.524 . S
C1234 C1248 1.377 . S
C1235 C1234 1.524 . S
C1235 C1236 1.397 . S
C1235 C1240 1.363 . S
C1236 H1213 0.950 . S
C1236 C1235 1.397 . S
C1236 C1237 1.334 . S
C1237 H1214 0.950 . S
C1237 C1236 1.334 . S
C1237 C1238 1.287 . S
C1238 C1237 1.287 . S
C1238 C1239 1.524 . S
C1238 H1257 0.913 . S
C1239 H1215 0.950 . S
C1239 C1238 1.524 . S
C1239 C1240 1.415 . S
C1240 H1216 0.950 . S
C1240 C1235 1.363 . S
C1240 C1239 1.415 . S
C1241 H1217 0.951 . S
C1241 C1242 1.366 . S
C1241 C1243 1.388 . S
C1242 C1241 1.366 . S
C1242 C1246 1.385 . S
C1243 H1218 0.951 . S
C1243 C1241 1.388 . S
C1243 C1244 1.366 . S
C1244 C1243 1.366 . S
C1244 C1245 1.414 . S
C1244 C1247 1.499 . S
C1245 H1219 0.950 . S
C1245 C1244 1.414 . S
C1245 C1246 1.374 . S
C1246 H1220 0.950 . S
C1246 C1242 1.385 . S
C1246 C1245 1.374 . S
C1247 C1244 1.499 . S
C1247 C1248 1.373 . S
C1247 C1249 1.389 . S
C1248 H1221 0.950 . S
C1248 C1234 1.377 . S
C1248 C1247 1.373 . S
C1249 C1233 1.377 . S
C1249 C1247 1.389 . S
C1249 C1250 1.524 . S
C1250 C1249 1.524 . S
C1250 C1251 1.397 . S
C1250 C1255 1.363 . S
C1251 H1222 0.950 . S
C1251 C1250 1.397 . S
C1251 C1252 1.334 . S
C1252 H1223 0.950 . S
C1252 C1251 1.334 . S
C1252 C1253 1.287 . S
C1253 C1252 1.287 . S
C1253 C1254 1.524 . S
C1253 H1256 0.999 . S
C1254 H1224 0.950 . S
C1254 C1253 1.524 . S
C1254 C1255 1.415 . S
C1255 H1225 0.950 . S
C1255 C1250 1.363 . S
C1255 C1254 1.415 . S
H1256 C1253 0.999 . S
H1257 C1238 0.913 . S
H1258 C1276 0.951 . S
H1259 C1278 0.951 . S
H1260 C1280 0.950 . S
H1261 C1281 0.950 . S
H1262 C1283 0.950 . S
H1263 C1286 0.950 . S
H1264 C1287 0.950 . S
H1265 C1289 0.950 . S
H1266 C1290 0.950 . S
H1267 C1291 0.951 . S
H1268 C1293 0.951 . S
H1269 C1295 0.950 . S
H1270 C1296 0.950 . S
H1271 C1298 0.950 . S
H1272 C1301 0.950 . S
H1273 C1302 0.950 . S
H1274 C1304 0.950 . S
H1275 C1305 0.950 . S
C1276 H1258 0.951 . S
C1276 C1277 1.366 . S
C1276 C1278 1.388 . S
C1277 C1276 1.366 . S
C1277 C1281 1.385 . S
C1278 H1259 0.951 . S
C1278 C1276 1.388 . S
C1278 C1279 1.366 . S
C1279 C1278 1.366 . S
C1279 C1280 1.414 . S
C1279 C1282 1.499 . S
C1280 H1260 0.950 . S
C1280 C1279 1.414 . S
C1280 C1281 1.374 . S
C1281 H1261 0.950 . S
C1281 C1277 1.385 . S
C1281 C1280 1.374 . S
C1282 C1279 1.499 . S
C1282 C1283 1.373 . S
C1282 C1284 1.389 . S
C1283 H1262 0.950 . S
C1283 C1282 1.373 . S
C1283 C1299 1.377 . S
C1284 C1282 1.389 . S
C1284 C1285 1.524 . S
C1284 C1298 1.377 . S
C1285 C1284 1.524 . S
C1285 C1286 1.397 . S
C1285 C1290 1.363 . S
C1286 H1263 0.950 . S
C1286 C1285 1.397 . S
C1286 C1287 1.334 . S
C1287 H1264 0.950 . S
C1287 C1286 1.334 . S
C1287 C1288 1.287 . S
C1288 C1287 1.287 . S
C1288 C1289 1.524 . S
C1288 H1307 0.913 . S
C1289 H1265 0.950 . S
C1289 C1288 1.524 . S
C1289 C1290 1.415 . S
C1290 H1266 0.950 . S
C1290 C1285 1.363 . S
C1290 C1289 1.415 . S
C1291 H1267 0.951 . S
C1291 C1292 1.366 . S
C1291 C1293 1.388 . S
C1292 C1291 1.366 . S
C1292 C1296 1.385 . S
C1293 H1268 0.951 . S
C1293 C1291 1.388 . S
C1293 C1294 1.366 . S
C1294 C1293 1.366 . S
C1294 C1295 1.414 . S
C1294 C1297 1.499 . S
C1295 H1269 0.950 . S
C1295 C1294 1.414 . S
C1295 C1296 1.374 . S
C1296 H1270 0.950 . S
C1296 C1292 1.385 . S
C1296 C1295 1.374 . S
C1297 C1294 1.499 . S
C1297 C1298 1.373 . S
C1297 C1299 1.389 . S
C1298 H1271 0.950 . S
C1298 C1284 1.377 . S
C1298 C1297 1.373 . S
C1299 C1283 1.377 . S
C1299 C1297 1.389 . S
C1299 C1300 1.524 . S
C1300 C1299 1.524 . S
C1300 C1301 1.397 . S
C1300 C1305 1.363 . S
C1301 H1272 0.950 . S
C1301 C1300 1.397 . S
C1301 C1302 1.334 . S
C1302 H1273 0.950 . S
C1302 C1301 1.334 . S
C1302 C1303 1.287 . S
C1303 C1302 1.287 . S
C1303 C1304 1.524 . S
C1303 H1306 0.999 . S
C1304 H1274 0.950 . S
C1304 C1303 1.524 . S
C1304 C1305 1.415 . S
C1305 H1275 0.950 . S
C1305 C1300 1.363 . S
C1305 C1304 1.415 . S
H1306 C1303 0.999 . S
H1307 C1288 0.913 . S
H1308 C1326 0.951 . S
H1309 C1328 0.951 . S
H1310 C1330 0.950 . S
H1311 C1331 0.950 . S
H1312 C1333 0.950 . S
H1313 C1336 0.950 . S
H1314 C1337 0.950 . S
H1315 C1339 0.950 . S
H1316 C1340 0.950 . S
H1317 C1341 0.951 . S
H1318 C1343 0.951 . S
H1319 C1345 0.950 . S
H1320 C1346 0.950 . S
H1321 C1348 0.950 . S
H1322 C1351 0.950 . S
H1323 C1352 0.950 . S
H1324 C1354 0.950 . S
H1325 C1355 0.950 . S
C1326 H1308 0.951 . S
C1326 C1327 1.366 . S
C1326 C1328 1.388 . S
C1327 C1326 1.366 . S
C1327 C1331 1.385 . S
C1328 H1309 0.951 . S
C1328 C1326 1.388 . S
C1328 C1329 1.366 . S
C1329 C1328 1.366 . S
C1329 C1330 1.414 . S
C1329 C1332 1.499 . S
C1330 H1310 0.950 . S
C1330 C1329 1.414 . S
C1330 C1331 1.374 . S
C1331 H1311 0.950 . S
C1331 C1327 1.385 . S
C1331 C1330 1.374 . S
C1332 C1329 1.499 . S
C1332 C1333 1.373 . S
C1332 C1334 1.389 . S
C1333 H1312 0.950 . S
C1333 C1332 1.373 . S
C1333 C1349 1.377 . S
C1334 C1332 1.389 . S
C1334 C1335 1.524 . S
C1334 C1348 1.377 . S
C1335 C1334 1.524 . S
C1335 C1336 1.397 . S
C1335 C1340 1.363 1_565 S
C1336 H1313 0.950 . S
C1336 C1335 1.397 . S
C1336 C1337 1.334 1_565 S
C1337 H1314 0.950 . S
C1337 C1336 1.334 1_545 S
C1337 C1338 1.287 . S
C1338 C1337 1.287 . S
C1338 C1339 1.524 . S
C1338 H1357 0.913 . S
C1339 H1315 0.950 . S
C1339 C1338 1.524 . S
C1339 C1340 1.415 . S
C1340 H1316 0.950 . S
C1340 C1335 1.363 1_545 S
C1340 C1339 1.415 . S
C1341 H1317 0.951 . S
C1341 C1342 1.366 . S
C1341 C1343 1.388 . S
C1342 C1341 1.366 . S
C1342 C1346 1.385 . S
C1343 H1318 0.951 . S
C1343 C1341 1.388 . S
C1343 C1344 1.366 . S
C1344 C1343 1.366 . S
C1344 C1345 1.414 . S
C1344 C1347 1.499 . S
C1345 H1319 0.950 . S
C1345 C1344 1.414 . S
C1345 C1346 1.374 . S
C1346 H1320 0.950 . S
C1346 C1342 1.385 . S
C1346 C1345 1.374 . S
C1347 C1344 1.499 . S
C1347 C1348 1.373 . S
C1347 C1349 1.389 . S
C1348 H1321 0.950 . S
C1348 C1334 1.377 . S
C1348 C1347 1.373 . S
C1349 C1333 1.377 . S
C1349 C1347 1.389 . S
C1349 C1350 1.524 . S
C1350 C1349 1.524 . S
C1350 C1351 1.397 . S
C1350 C1355 1.363 . S
C1351 H1322 0.950 . S
C1351 C1350 1.397 . S
C1351 C1352 1.334 . S
C1352 H1323 0.950 . S
C1352 C1351 1.334 . S
C1352 C1353 1.287 . S
C1353 C1352 1.287 . S
C1353 C1354 1.524 . S
C1353 H1356 0.999 . S
C1354 H1324 0.950 . S
C1354 C1353 1.524 . S
C1354 C1355 1.415 . S
C1355 H1325 0.950 . S
C1355 C1350 1.363 . S
C1355 C1354 1.415 . S
H1356 C1353 0.999 . S
H1357 C1338 0.913 . S
H1358 C1376 0.951 . S
H1359 C1378 0.951 . S
H1360 C1380 0.950 . S
H1361 C1381 0.950 . S
H1362 C1383 0.950 . S
H1363 C1386 0.950 . S
H1364 C1387 0.950 . S
H1365 C1389 0.950 . S
H1366 C1390 0.950 . S
H1367 C1391 0.951 . S
H1368 C1393 0.951 . S
H1369 C1395 0.950 . S
H1370 C1396 0.950 . S
H1371 C1398 0.950 . S
H1372 C1401 0.950 . S
H1373 C1402 0.950 . S
H1374 C1404 0.950 . S
H1375 C1405 0.950 . S
C1376 H1358 0.951 . S
C1376 C1377 1.366 . S
C1376 C1378 1.388 . S
C1377 C1376 1.366 . S
C1377 C1381 1.385 . S
C1378 H1359 0.951 . S
C1378 C1376 1.388 . S
C1378 C1379 1.366 . S
C1379 C1378 1.366 . S
C1379 C1380 1.414 . S
C1379 C1382 1.499 . S
C1380 H1360 0.950 . S
C1380 C1379 1.414 . S
C1380 C1381 1.374 . S
C1381 H1361 0.950 . S
C1381 C1377 1.385 . S
C1381 C1380 1.374 . S
C1382 C1379 1.499 . S
C1382 C1383 1.373 . S
C1382 C1384 1.389 . S
C1383 H1362 0.950 . S
C1383 C1382 1.373 . S
C1383 C1399 1.377 . S
C1384 C1382 1.389 . S
C1384 C1385 1.524 . S
C1384 C1398 1.377 . S
C1385 C1384 1.524 . S
C1385 C1386 1.397 . S
C1385 C1390 1.363 . S
C1386 H1363 0.950 . S
C1386 C1385 1.397 . S
C1386 C1387 1.334 . S
C1387 H1364 0.950 . S
C1387 C1386 1.334 . S
C1387 C1388 1.287 . S
C1388 C1387 1.287 . S
C1388 C1389 1.524 . S
C1388 H1407 0.913 . S
C1389 H1365 0.950 . S
C1389 C1388 1.524 . S
C1389 C1390 1.415 . S
C1390 H1366 0.950 . S
C1390 C1385 1.363 . S
C1390 C1389 1.415 . S
C1391 H1367 0.951 . S
C1391 C1392 1.366 . S
C1391 C1393 1.388 . S
C1392 C1391 1.366 . S
C1392 C1396 1.385 . S
C1393 H1368 0.951 . S
C1393 C1391 1.388 . S
C1393 C1394 1.366 . S
C1394 C1393 1.366 . S
C1394 C1395 1.414 . S
C1394 C1397 1.499 . S
C1395 H1369 0.950 . S
C1395 C1394 1.414 . S
C1395 C1396 1.374 . S
C1396 H1370 0.950 . S
C1396 C1392 1.385 . S
C1396 C1395 1.374 . S
C1397 C1394 1.499 . S
C1397 C1398 1.373 . S
C1397 C1399 1.389 . S
C1398 H1371 0.950 . S
C1398 C1384 1.377 . S
C1398 C1397 1.373 . S
C1399 C1383 1.377 . S
C1399 C1397 1.389 . S
C1399 C1400 1.524 . S
C1400 C1399 1.524 . S
C1400 C1401 1.397 . S
C1400 C1405 1.363 1_455 S
C1401 H1372 0.950 . S
C1401 C1400 1.397 . S
C1401 C1402 1.334 1_455 S
C1402 H1373 0.950 . S
C1402 C1401 1.334 1_655 S
C1402 C1403 1.287 . S
C1403 C1402 1.287 . S
C1403 C1404 1.524 . S
C1403 H1406 0.999 . S
C1404 H1374 0.950 . S
C1404 C1403 1.524 . S
C1404 C1405 1.415 . S
C1405 H1375 0.950 . S
C1405 C1400 1.363 1_655 S
C1405 C1404 1.415 . S
H1406 C1403 0.999 . S
H1407 C1388 0.913 . S
H1408 C1426 0.951 . S
H1409 C1428 0.951 . S
H1410 C1430 0.950 . S
H1411 C1431 0.950 . S
H1412 C1433 0.950 . S
H1413 C1436 0.950 . S
H1414 C1437 0.950 . S
H1415 C1439 0.950 . S
H1416 C1440 0.950 . S
H1417 C1441 0.951 . S
H1418 C1443 0.951 . S
H1419 C1445 0.950 . S
H1420 C1446 0.950 . S
H1421 C1448 0.950 . S
H1422 C1451 0.950 . S
H1423 C1452 0.950 . S
H1424 C1454 0.950 . S
H1425 C1455 0.950 . S
C1426 H1408 0.951 . S
C1426 C1427 1.366 . S
C1426 C1428 1.388 . S
C1427 C1426 1.366 . S
C1427 C1431 1.385 . S
C1428 H1409 0.951 . S
C1428 C1426 1.388 . S
C1428 C1429 1.366 . S
C1429 C1428 1.366 . S
C1429 C1430 1.414 . S
C1429 C1432 1.499 . S
C1430 H1410 0.950 . S
C1430 C1429 1.414 . S
C1430 C1431 1.374 . S
C1431 H1411 0.950 . S
C1431 C1427 1.385 . S
C1431 C1430 1.374 . S
C1432 C1429 1.499 . S
C1432 C1433 1.373 . S
C1432 C1434 1.389 . S
C1433 H1412 0.950 . S
C1433 C1432 1.373 . S
C1433 C1449 1.377 . S
C1434 C1432 1.389 . S
C1434 C1435 1.524 . S
C1434 C1448 1.377 . S
C1435 C1434 1.524 . S
C1435 C1436 1.397 . S
C1435 C1440 1.363 . S
C1436 H1413 0.950 . S
C1436 C1435 1.397 . S
C1436 C1437 1.334 . S
C1437 H1414 0.950 . S
C1437 C1436 1.334 . S
C1437 C1438 1.287 . S
C1438 C1437 1.287 . S
C1438 C1439 1.524 . S
C1438 H1457 0.913 . S
C1439 H1415 0.950 . S
C1439 C1438 1.524 . S
C1439 C1440 1.415 . S
C1440 H1416 0.950 . S
C1440 C1435 1.363 . S
C1440 C1439 1.415 . S
C1441 H1417 0.951 . S
C1441 C1442 1.366 . S
C1441 C1443 1.388 . S
C1442 C1441 1.366 . S
C1442 C1446 1.385 . S
C1443 H1418 0.951 . S
C1443 C1441 1.388 . S
C1443 C1444 1.366 . S
C1444 C1443 1.366 . S
C1444 C1445 1.414 . S
C1444 C1447 1.499 . S
C1445 H1419 0.950 . S
C1445 C1444 1.414 . S
C1445 C1446 1.374 . S
C1446 H1420 0.950 . S
C1446 C1442 1.385 . S
C1446 C1445 1.374 . S
C1447 C1444 1.499 . S
C1447 C1448 1.373 . S
C1447 C1449 1.389 . S
C1448 H1421 0.950 . S
C1448 C1434 1.377 . S
C1448 C1447 1.373 . S
C1449 C1433 1.377 . S
C1449 C1447 1.389 . S
C1449 C1450 1.524 . S
C1450 C1449 1.524 . S
C1450 C1451 1.397 . S
C1450 C1455 1.363 . S
C1451 H1422 0.950 . S
C1451 C1450 1.397 . S
C1451 C1452 1.334 . S
C1452 H1423 0.950 . S
C1452 C1451 1.334 . S
C1452 C1453 1.287 . S
C1453 C1452 1.287 . S
C1453 C1454 1.524 . S
C1453 H1456 0.999 . S
C1454 H1424 0.950 . S
C1454 C1453 1.524 . S
C1454 C1455 1.415 . S
C1455 H1425 0.950 . S
C1455 C1450 1.363 . S
C1455 C1454 1.415 . S
H1456 C1453 0.999 . S
H1457 C1438 0.913 . S
H1458 C1476 0.951 . S
H1459 C1478 0.951 . S
H1460 C1480 0.950 . S
H1461 C1481 0.950 . S
H1462 C1483 0.950 . S
H1463 C1486 0.950 . S
H1464 C1487 0.950 . S
H1465 C1489 0.950 . S
H1466 C1490 0.950 . S
H1467 C1491 0.951 . S
H1468 C1493 0.951 . S
H1469 C1495 0.950 . S
H1470 C1496 0.950 . S
H1471 C1498 0.950 . S
H1472 C1501 0.950 . S
H1473 C1502 0.950 . S
H1474 C1504 0.950 . S
H1475 C1505 0.950 . S
C1476 H1458 0.951 . S
C1476 C1477 1.366 . S
C1476 C1478 1.388 . S
C1477 C1476 1.366 . S
C1477 C1481 1.385 . S
C1478 H1459 0.951 . S
C1478 C1476 1.388 . S
C1478 C1479 1.366 . S
C1479 C1478 1.366 . S
C1479 C1480 1.414 . S
C1479 C1482 1.499 . S
C1480 H1460 0.950 . S
C1480 C1479 1.414 . S
C1480 C1481 1.374 . S
C1481 H1461 0.950 . S
C1481 C1477 1.385 . S
C1481 C1480 1.374 . S
C1482 C1479 1.499 . S
C1482 C1483 1.373 . S
C1482 C1484 1.389 . S
C1483 H1462 0.950 . S
C1483 C1482 1.373 . S
C1483 C1499 1.377 . S
C1484 C1482 1.389 . S
C1484 C1485 1.524 . S
C1484 C1498 1.377 . S
C1485 C1484 1.524 . S
C1485 C1486 1.397 . S
C1485 C1490 1.363 . S
C1486 H1463 0.950 . S
C1486 C1485 1.397 . S
C1486 C1487 1.334 . S
C1487 H1464 0.950 . S
C1487 C1486 1.334 . S
C1487 C1488 1.287 . S
C1488 C1487 1.287 . S
C1488 C1489 1.524 . S
C1488 H1507 0.913 . S
C1489 H1465 0.950 . S
C1489 C1488 1.524 . S
C1489 C1490 1.415 . S
C1490 H1466 0.950 . S
C1490 C1485 1.363 . S
C1490 C1489 1.415 . S
C1491 H1467 0.951 . S
C1491 C1492 1.366 . S
C1491 C1493 1.388 . S
C1492 C1491 1.366 . S
C1492 C1496 1.385 . S
C1493 H1468 0.951 . S
C1493 C1491 1.388 . S
C1493 C1494 1.366 . S
C1494 C1493 1.366 . S
C1494 C1495 1.414 . S
C1494 C1497 1.499 . S
C1495 H1469 0.950 . S
C1495 C1494 1.414 . S
C1495 C1496 1.374 . S
C1496 H1470 0.950 . S
C1496 C1492 1.385 . S
C1496 C1495 1.374 . S
C1497 C1494 1.499 . S
C1497 C1498 1.373 . S
C1497 C1499 1.389 . S
C1498 H1471 0.950 . S
C1498 C1484 1.377 . S
C1498 C1497 1.373 . S
C1499 C1483 1.377 . S
C1499 C1497 1.389 . S
C1499 C1500 1.524 . S
C1500 C1499 1.524 . S
C1500 C1501 1.397 . S
C1500 C1505 1.363 . S
C1501 H1472 0.950 . S
C1501 C1500 1.397 . S
C1501 C1502 1.334 . S
C1502 H1473 0.950 . S
C1502 C1501 1.334 . S
C1502 C1503 1.287 . S
C1503 C1502 1.287 . S
C1503 C1504 1.524 . S
C1503 H1506 0.999 . S
C1504 H1474 0.950 . S
C1504 C1503 1.524 . S
C1504 C1505 1.415 . S
C1505 H1475 0.950 . S
C1505 C1500 1.363 . S
C1505 C1504 1.415 . S
H1506 C1503 0.999 . S
H1507 C1488 0.913 . S
H1508 C1526 0.951 . S
H1509 C1528 0.951 . S
H1510 C1530 0.950 . S
H1511 C1531 0.950 . S
H1512 C1533 0.950 . S
H1513 C1536 0.950 . S
H1514 C1537 0.950 . S
H1515 C1539 0.950 . S
H1516 C1540 0.950 . S
H1517 C1541 0.951 . S
H1518 C1543 0.951 . S
H1519 C1545 0.950 . S
H1520 C1546 0.950 . S
H1521 C1548 0.950 . S
H1522 C1551 0.950 . S
H1523 C1552 0.950 . S
H1524 C1554 0.950 . S
H1525 C1555 0.950 . S
C1526 H1508 0.951 . S
C1526 C1527 1.366 . S
C1526 C1528 1.388 . S
C1527 C1526 1.366 . S
C1527 C1531 1.385 . S
C1528 H1509 0.951 . S
C1528 C1526 1.388 . S
C1528 C1529 1.366 . S
C1529 C1528 1.366 . S
C1529 C1530 1.414 . S
C1529 C1532 1.499 . S
C1530 H1510 0.950 . S
C1530 C1529 1.414 . S
C1530 C1531 1.374 . S
C1531 H1511 0.950 . S
C1531 C1527 1.385 . S
C1531 C1530 1.374 . S
C1532 C1529 1.499 . S
C1532 C1533 1.373 . S
C1532 C1534 1.389 . S
C1533 H1512 0.950 . S
C1533 C1532 1.373 . S
C1533 C1549 1.377 . S
C1534 C1532 1.389 . S
C1534 C1535 1.524 . S
C1534 C1548 1.377 . S
C1535 C1534 1.524 . S
C1535 C1536 1.397 . S
C1535 C1540 1.363 . S
C1536 H1513 0.950 . S
C1536 C1535 1.397 . S
C1536 C1537 1.334 . S
C1537 H1514 0.950 . S
C1537 C1536 1.334 . S
C1537 C1538 1.287 . S
C1538 C1537 1.287 . S
C1538 C1539 1.524 . S
C1538 H1557 0.913 . S
C1539 H1515 0.950 . S
C1539 C1538 1.524 . S
C1539 C1540 1.415 . S
C1540 H1516 0.950 . S
C1540 C1535 1.363 . S
C1540 C1539 1.415 . S
C1541 H1517 0.951 . S
C1541 C1542 1.366 . S
C1541 C1543 1.388 . S
C1542 C1541 1.366 . S
C1542 C1546 1.385 . S
C1543 H1518 0.951 . S
C1543 C1541 1.388 . S
C1543 C1544 1.366 . S
C1544 C1543 1.366 . S
C1544 C1545 1.414 . S
C1544 C1547 1.499 . S
C1545 H1519 0.950 . S
C1545 C1544 1.414 . S
C1545 C1546 1.374 . S
C1546 H1520 0.950 . S
C1546 C1542 1.385 . S
C1546 C1545 1.374 . S
C1547 C1544 1.499 . S
C1547 C1548 1.373 . S
C1547 C1549 1.389 . S
C1548 H1521 0.950 . S
C1548 C1534 1.377 . S
C1548 C1547 1.373 . S
C1549 C1533 1.377 . S
C1549 C1547 1.389 . S
C1549 C1550 1.524 . S
C1550 C1549 1.524 . S
C1550 C1551 1.397 . S
C1550 C1555 1.363 . S
C1551 H1522 0.950 . S
C1551 C1550 1.397 . S
C1551 C1552 1.334 . S
C1552 H1523 0.950 . S
C1552 C1551 1.334 . S
C1552 C1553 1.287 . S
C1553 C1552 1.287 . S
C1553 C1554 1.524 . S
C1553 H1556 0.999 . S
C1554 H1524 0.950 . S
C1554 C1553 1.524 . S
C1554 C1555 1.415 . S
C1555 H1525 0.950 . S
C1555 C1550 1.363 . S
C1555 C1554 1.415 . S
H1556 C1553 0.999 . S
H1557 C1538 0.913 . S
H1558 C1576 0.951 . S
H1559 C1578 0.951 . S
H1560 C1580 0.950 . S
H1561 C1581 0.950 . S
H1562 C1583 0.950 . S
H1563 C1586 0.950 . S
H1564 C1587 0.950 . S
H1565 C1589 0.950 . S
H1566 C1590 0.950 . S
H1567 C1591 0.951 . S
H1568 C1593 0.951 . S
H1569 C1595 0.950 . S
H1570 C1596 0.950 . S
H1571 C1598 0.950 . S
H1572 C1601 0.950 . S
H1573 C1602 0.950 . S
H1574 C1604 0.950 . S
H1575 C1605 0.950 . S
C1576 H1558 0.951 . S
C1576 C1577 1.366 . S
C1576 C1578 1.388 . S
C1577 C1576 1.366 . S
C1577 C1581 1.385 . S
C1578 H1559 0.951 . S
C1578 C1576 1.388 . S
C1578 C1579 1.366 . S
C1579 C1578 1.366 . S
C1579 C1580 1.414 . S
C1579 C1582 1.499 . S
C1580 H1560 0.950 . S
C1580 C1579 1.414 . S
C1580 C1581 1.374 . S
C1581 H1561 0.950 . S
C1581 C1577 1.385 . S
C1581 C1580 1.374 . S
C1582 C1579 1.499 . S
C1582 C1583 1.373 . S
C1582 C1584 1.389 . S
C1583 H1562 0.950 . S
C1583 C1582 1.373 . S
C1583 C1599 1.377 1_556 S
C1584 C1582 1.389 . S
C1584 C1585 1.524 . S
C1584 C1598 1.377 1_556 S
C1585 C1584 1.524 . S
C1585 C1586 1.397 . S
C1585 C1590 1.363 1_556 S
C1586 H1563 0.950 . S
C1586 C1585 1.397 . S
C1586 C1587 1.334 . S
C1587 H1564 0.950 . S
C1587 C1586 1.334 . S
C1587 C1588 1.287 . S
C1588 C1587 1.287 . S
C1588 C1589 1.524 1_556 S
C1588 H1607 0.913 . S
C1589 H1565 0.950 . S
C1589 C1588 1.524 1_554 S
C1589 C1590 1.415 . S
C1590 H1566 0.950 . S
C1590 C1585 1.363 1_554 S
C1590 C1589 1.415 . S
C1591 H1567 0.951 . S
C1591 C1592 1.366 . S
C1591 C1593 1.388 . S
C1592 C1591 1.366 . S
C1592 C1596 1.385 . S
C1593 H1568 0.951 . S
C1593 C1591 1.388 . S
C1593 C1594 1.366 . S
C1594 C1593 1.366 . S
C1594 C1595 1.414 . S
C1594 C1597 1.499 . S
C1595 H1569 0.950 . S
C1595 C1594 1.414 . S
C1595 C1596 1.374 . S
C1596 H1570 0.950 . S
C1596 C1592 1.385 . S
C1596 C1595 1.374 . S
C1597 C1594 1.499 . S
C1597 C1598 1.373 . S
C1597 C1599 1.389 . S
C1598 H1571 0.950 . S
C1598 C1584 1.377 1_554 S
C1598 C1597 1.373 . S
C1599 C1583 1.377 1_554 S
C1599 C1597 1.389 . S
C1599 C1600 1.524 . S
C1600 C1599 1.524 . S
C1600 C1601 1.397 . S
C1600 C1605 1.363 1_554 S
C1601 H1572 0.950 . S
C1601 C1600 1.397 . S
C1601 C1602 1.334 . S
C1602 H1573 0.950 . S
C1602 C1601 1.334 . S
C1602 C1603 1.287 . S
C1603 C1602 1.287 . S
C1603 C1604 1.524 1_554 S
C1603 H1606 0.999 . S
C1604 H1574 0.950 . S
C1604 C1603 1.524 1_556 S
C1604 C1605 1.415 . S
C1605 H1575 0.950 . S
C1605 C1600 1.363 1_556 S
C1605 C1604 1.415 . S
H1606 C1603 0.999 . S
H1607 C1588 0.913 . S
H1608 C1626 0.951 . S
H1609 C1628 0.951 . S
H1610 C1630 0.950 . S
H1611 C1631 0.950 . S
H1612 C1633 0.950 . S
H1613 C1636 0.950 . S
H1614 C1637 0.950 . S
H1615 C1639 0.950 . S
H1616 C1640 0.950 1_556 S
H1617 C1641 0.951 . S
H1618 C1643 0.951 . S
H1619 C1645 0.950 . S
H1620 C1646 0.950 . S
H1621 C1648 0.950 . S
H1622 C1651 0.950 . S
H1623 C1652 0.950 . S
H1624 C1654 0.950 . S
H1625 C1655 0.950 1_554 S
C1626 H1608 0.951 . S
C1626 C1627 1.366 . S
C1626 C1628 1.388 . S
C1627 C1626 1.366 . S
C1627 C1631 1.385 . S
C1628 H1609 0.951 . S
C1628 C1626 1.388 . S
C1628 C1629 1.366 . S
C1629 C1628 1.366 . S
C1629 C1630 1.414 . S
C1629 C1632 1.499 . S
C1630 H1610 0.950 . S
C1630 C1629 1.414 . S
C1630 C1631 1.374 . S
C1631 H1611 0.950 . S
C1631 C1627 1.385 . S
C1631 C1630 1.374 . S
C1632 C1629 1.499 . S
C1632 C1633 1.373 . S
C1632 C1634 1.389 . S
C1633 H1612 0.950 . S
C1633 C1632 1.373 . S
C1633 C1649 1.377 1_554 S
C1634 C1632 1.389 . S
C1634 C1635 1.524 . S
C1634 C1648 1.377 1_554 S
C1635 C1634 1.524 . S
C1635 C1636 1.397 . S
C1635 C1640 1.363 . S
C1636 H1613 0.950 . S
C1636 C1635 1.397 . S
C1636 C1637 1.334 . S
C1637 H1614 0.950 . S
C1637 C1636 1.334 . S
C1637 C1638 1.287 . S
C1638 C1637 1.287 . S
C1638 C1639 1.524 . S
C1638 H1657 0.913 . S
C1639 H1615 0.950 . S
C1639 C1638 1.524 . S
C1639 C1640 1.415 . S
C1640 H1616 0.950 1_554 S
C1640 C1635 1.363 . S
C1640 C1639 1.415 . S
C1641 H1617 0.951 . S
C1641 C1642 1.366 . S
C1641 C1643 1.388 . S
C1642 C1641 1.366 . S
C1642 C1646 1.385 . S
C1643 H1618 0.951 . S
C1643 C1641 1.388 . S
C1643 C1644 1.366 . S
C1644 C1643 1.366 . S
C1644 C1645 1.414 . S
C1644 C1647 1.499 . S
C1645 H1619 0.950 . S
C1645 C1644 1.414 . S
C1645 C1646 1.374 . S
C1646 H1620 0.950 . S
C1646 C1642 1.385 . S
C1646 C1645 1.374 . S
C1647 C1644 1.499 . S
C1647 C1648 1.373 . S
C1647 C1649 1.389 . S
C1648 H1621 0.950 . S
C1648 C1634 1.377 1_556 S
C1648 C1647 1.373 . S
C1649 C1633 1.377 1_556 S
C1649 C1647 1.389 . S
C1649 C1650 1.524 . S
C1650 C1649 1.524 . S
C1650 C1651 1.397 . S
C1650 C1655 1.363 . S
C1651 H1622 0.950 . S
C1651 C1650 1.397 . S
C1651 C1652 1.334 . S
C1652 H1623 0.950 . S
C1652 C1651 1.334 . S
C1652 C1653 1.287 . S
C1653 C1652 1.287 . S
C1653 C1654 1.524 . S
C1653 H1656 0.999 . S
C1654 H1624 0.950 . S
C1654 C1653 1.524 . S
C1654 C1655 1.415 . S
C1655 H1625 0.950 1_556 S
C1655 C1650 1.363 . S
C1655 C1654 1.415 . S
H1656 C1653 0.999 . S
H1657 C1638 0.913 . S
H1658 C1676 0.951 . S
H1659 C1678 0.951 . S
H1660 C1680 0.950 . S
H1661 C1681 0.950 . S
H1662 C1683 0.950 . S
H1663 C1686 0.950 . S
H1664 C1687 0.950 . S
H1665 C1689 0.950 . S
H1666 C1690 0.950 . S
H1667 C1691 0.951 . S
H1668 C1693 0.951 . S
H1669 C1695 0.950 . S
H1670 C1696 0.950 . S
H1671 C1698 0.950 . S
H1672 C1701 0.950 . S
H1673 C1702 0.950 . S
H1674 C1704 0.950 . S
H1675 C1705 0.950 . S
C1676 H1658 0.951 . S
C1676 C1677 1.366 . S
C1676 C1678 1.388 . S
C1677 C1676 1.366 . S
C1677 C1681 1.385 . S
C1678 H1659 0.951 . S
C1678 C1676 1.388 . S
C1678 C1679 1.366 . S
C1679 C1678 1.366 . S
C1679 C1680 1.414 . S
C1679 C1682 1.499 . S
C1680 H1660 0.950 . S
C1680 C1679 1.414 . S
C1680 C1681 1.374 . S
C1681 H1661 0.950 . S
C1681 C1677 1.385 . S
C1681 C1680 1.374 . S
C1682 C1679 1.499 . S
C1682 C1683 1.373 . S
C1682 C1684 1.389 . S
C1683 H1662 0.950 . S
C1683 C1682 1.373 . S
C1683 C1699 1.377 . S
C1684 C1682 1.389 . S
C1684 C1685 1.524 . S
C1684 C1698 1.377 . S
C1685 C1684 1.524 . S
C1685 C1686 1.397 . S
C1685 C1690 1.363 . S
C1686 H1663 0.950 . S
C1686 C1685 1.397 . S
C1686 C1687 1.334 . S
C1687 H1664 0.950 . S
C1687 C1686 1.334 . S
C1687 C1688 1.287 . S
C1688 C1687 1.287 . S
C1688 C1689 1.524 . S
C1688 H1707 0.913 . S
C1689 H1665 0.950 . S
C1689 C1688 1.524 . S
C1689 C1690 1.415 . S
C1690 H1666 0.950 . S
C1690 C1685 1.363 . S
C1690 C1689 1.415 . S
C1691 H1667 0.951 . S
C1691 C1692 1.366 . S
C1691 C1693 1.388 . S
C1692 C1691 1.366 . S
C1692 C1696 1.385 . S
C1693 H1668 0.951 . S
C1693 C1691 1.388 . S
C1693 C1694 1.366 . S
C1694 C1693 1.366 . S
C1694 C1695 1.414 . S
C1694 C1697 1.499 . S
C1695 H1669 0.950 . S
C1695 C1694 1.414 . S
C1695 C1696 1.374 . S
C1696 H1670 0.950 . S
C1696 C1692 1.385 . S
C1696 C1695 1.374 . S
C1697 C1694 1.499 . S
C1697 C1698 1.373 . S
C1697 C1699 1.389 . S
C1698 H1671 0.950 . S
C1698 C1684 1.377 . S
C1698 C1697 1.373 . S
C1699 C1683 1.377 . S
C1699 C1697 1.389 . S
C1699 C1700 1.524 . S
C1700 C1699 1.524 . S
C1700 C1701 1.397 . S
C1700 C1705 1.363 . S
C1701 H1672 0.950 . S
C1701 C1700 1.397 . S
C1701 C1702 1.334 . S
C1702 H1673 0.950 . S
C1702 C1701 1.334 . S
C1702 C1703 1.287 . S
C1703 C1702 1.287 . S
C1703 C1704 1.524 . S
C1703 H1706 0.999 . S
C1704 H1674 0.950 . S
C1704 C1703 1.524 . S
C1704 C1705 1.415 . S
C1705 H1675 0.950 . S
C1705 C1700 1.363 . S
C1705 C1704 1.415 . S
H1706 C1703 0.999 . S
H1707 C1688 0.913 . S
H1708 C1726 0.951 . S
H1709 C1728 0.951 . S
H1710 C1730 0.950 . S
H1711 C1731 0.950 . S
H1712 C1733 0.950 . S
H1713 C1736 0.950 . S
H1714 C1737 0.950 . S
H1715 C1739 0.950 . S
H1716 C1740 0.950 . S
H1717 C1741 0.951 . S
H1718 C1743 0.951 . S
H1719 C1745 0.950 . S
H1720 C1746 0.950 . S
H1721 C1748 0.950 . S
H1722 C1751 0.950 . S
H1723 C1752 0.950 . S
H1724 C1754 0.950 . S
H1725 C1755 0.950 . S
C1726 H1708 0.951 . S
C1726 C1727 1.366 . S
C1726 C1728 1.388 . S
C1727 C1726 1.366 . S
C1727 C1731 1.385 . S
C1728 H1709 0.951 . S
C1728 C1726 1.388 . S
C1728 C1729 1.366 . S
C1729 C1728 1.366 . S
C1729 C1730 1.414 . S
C1729 C1732 1.499 . S
C1730 H1710 0.950 . S
C1730 C1729 1.414 . S
C1730 C1731 1.374 . S
C1731 H1711 0.950 . S
C1731 C1727 1.385 . S
C1731 C1730 1.374 . S
C1732 C1729 1.499 . S
C1732 C1733 1.373 . S
C1732 C1734 1.389 . S
C1733 H1712 0.950 . S
C1733 C1732 1.373 . S
C1733 C1749 1.377 . S
C1734 C1732 1.389 . S
C1734 C1735 1.524 . S
C1734 C1748 1.377 . S
C1735 C1734 1.524 . S
C1735 C1736 1.397 . S
C1735 C1740 1.363 . S
C1736 H1713 0.950 . S
C1736 C1735 1.397 . S
C1736 C1737 1.334 . S
C1737 H1714 0.950 . S
C1737 C1736 1.334 . S
C1737 C1738 1.287 . S
C1738 C1737 1.287 . S
C1738 C1739 1.524 . S
C1738 H1757 0.913 . S
C1739 H1715 0.950 . S
C1739 C1738 1.524 . S
C1739 C1740 1.415 . S
C1740 H1716 0.950 . S
C1740 C1735 1.363 . S
C1740 C1739 1.415 . S
C1741 H1717 0.951 . S
C1741 C1742 1.366 . S
C1741 C1743 1.388 . S
C1742 C1741 1.366 . S
C1742 C1746 1.385 . S
C1743 H1718 0.951 . S
C1743 C1741 1.388 . S
C1743 C1744 1.366 . S
C1744 C1743 1.366 . S
C1744 C1745 1.414 . S
C1744 C1747 1.499 . S
C1745 H1719 0.950 . S
C1745 C1744 1.414 . S
C1745 C1746 1.374 . S
C1746 H1720 0.950 . S
C1746 C1742 1.385 . S
C1746 C1745 1.374 . S
C1747 C1744 1.499 . S
C1747 C1748 1.373 . S
C1747 C1749 1.389 . S
C1748 H1721 0.950 . S
C1748 C1734 1.377 . S
C1748 C1747 1.373 . S
C1749 C1733 1.377 . S
C1749 C1747 1.389 . S
C1749 C1750 1.524 . S
C1750 C1749 1.524 . S
C1750 C1751 1.397 . S
C1750 C1755 1.363 . S
C1751 H1722 0.950 . S
C1751 C1750 1.397 . S
C1751 C1752 1.334 . S
C1752 H1723 0.950 . S
C1752 C1751 1.334 . S
C1752 C1753 1.287 . S
C1753 C1752 1.287 . S
C1753 C1754 1.524 . S
C1753 H1756 0.999 . S
C1754 H1724 0.950 . S
C1754 C1753 1.524 . S
C1754 C1755 1.415 . S
C1755 H1725 0.950 . S
C1755 C1750 1.363 . S
C1755 C1754 1.415 . S
H1756 C1753 0.999 . S
H1757 C1738 0.913 . S
H1758 C1776 0.951 . S
H1759 C1778 0.951 . S
H1760 C1780 0.950 . S
H1761 C1781 0.950 . S
H1762 C1783 0.950 . S
H1763 C1786 0.950 . S
H1764 C1787 0.950 . S
H1765 C1789 0.950 . S
H1766 C1790 0.950 . S
H1767 C1791 0.951 . S
H1768 C1793 0.951 . S
H1769 C1795 0.950 . S
H1770 C1796 0.950 . S
H1771 C1798 0.950 . S
H1772 C1801 0.950 . S
H1773 C1802 0.950 . S
H1774 C1804 0.950 . S
H1775 C1805 0.950 . S
C1776 H1758 0.951 . S
C1776 C1777 1.366 . S
C1776 C1778 1.388 . S
C1777 C1776 1.366 . S
C1777 C1781 1.385 . S
C1778 H1759 0.951 . S
C1778 C1776 1.388 . S
C1778 C1779 1.366 . S
C1779 C1778 1.366 . S
C1779 C1780 1.414 . S
C1779 C1782 1.499 . S
C1780 H1760 0.950 . S
C1780 C1779 1.414 . S
C1780 C1781 1.374 . S
C1781 H1761 0.950 . S
C1781 C1777 1.385 . S
C1781 C1780 1.374 . S
C1782 C1779 1.499 . S
C1782 C1783 1.373 . S
C1782 C1784 1.389 . S
C1783 H1762 0.950 . S
C1783 C1782 1.373 . S
C1783 C1799 1.377 . S
C1784 C1782 1.389 . S
C1784 C1785 1.524 . S
C1784 C1798 1.377 . S
C1785 C1784 1.524 . S
C1785 C1786 1.397 . S
C1785 C1790 1.363 . S
C1786 H1763 0.950 . S
C1786 C1785 1.397 . S
C1786 C1787 1.334 . S
C1787 H1764 0.950 . S
C1787 C1786 1.334 . S
C1787 C1788 1.287 . S
C1788 C1787 1.287 . S
C1788 C1789 1.524 . S
C1788 H1807 0.913 . S
C1789 H1765 0.950 . S
C1789 C1788 1.524 . S
C1789 C1790 1.415 . S
C1790 H1766 0.950 . S
C1790 C1785 1.363 . S
C1790 C1789 1.415 . S
C1791 H1767 0.951 . S
C1791 C1792 1.366 . S
C1791 C1793 1.388 . S
C1792 C1791 1.366 . S
C1792 C1796 1.385 . S
C1793 H1768 0.951 . S
C1793 C1791 1.388 . S
C1793 C1794 1.366 . S
C1794 C1793 1.366 . S
C1794 C1795 1.414 . S
C1794 C1797 1.499 . S
C1795 H1769 0.950 . S
C1795 C1794 1.414 . S
C1795 C1796 1.374 . S
C1796 H1770 0.950 . S
C1796 C1792 1.385 . S
C1796 C1795 1.374 . S
C1797 C1794 1.499 . S
C1797 C1798 1.373 . S
C1797 C1799 1.389 . S
C1798 H1771 0.950 . S
C1798 C1784 1.377 . S
C1798 C1797 1.373 . S
C1799 C1783 1.377 . S
C1799 C1797 1.389 . S
C1799 C1800 1.524 . S
C1800 C1799 1.524 . S
C1800 C1801 1.397 . S
C1800 C1805 1.363 . S
C1801 H1772 0.950 . S
C1801 C1800 1.397 . S
C1801 C1802 1.334 . S
C1802 H1773 0.950 . S
C1802 C1801 1.334 . S
C1802 C1803 1.287 . S
C1803 C1802 1.287 . S
C1803 C1804 1.524 . S
C1803 H1806 0.999 . S
C1804 H1774 0.950 . S
C1804 C1803 1.524 . S
C1804 C1805 1.415 . S
C1805 H1775 0.950 . S
C1805 C1800 1.363 . S
C1805 C1804 1.415 . S
H1806 C1803 0.999 . S
H1807 C1788 0.913 . S
C227 C133 2.053 . S
C242 C3 2.053 . S
C277 C18 2.184 . S
C292 C148 2.184 . S
C327 C107 2.053 . S
C342 C29 2.053 . S
C377 C122 2.184 . S
C392 C44 2.184 . S
C427 C55 2.054 . S
C442 C185 2.054 . S
C477 C200 2.183 . S
C492 C70 2.183 . S
C527 C81 2.054 . S
C542 C159 2.054 . S
C577 C174 2.183 . S
C592 C96 2.183 . S
C627 C131 1.625 . S
C642 C1 1.625 . S
C677 C23 1.705 . S
C692 C153 1.705 . S
C727 C27 1.624 . S
C742 C105 1.624 . S
C777 C49 1.705 . S
C792 C127 1.705 . S
C827 C53 1.624 . S
C842 C183 1.624 . S
C877 C75 1.705 . S
C892 C205 1.705 . S
C927 C157 1.624 . S
C942 C79 1.624 . S
C977 C179 1.705 . S
C992 C101 1.705 . S
C1027 C10 1.645 . S
C1042 C88 1.645 . S
C1077 C14 1.624 . S
C1092 C92 1.625 . S
C1127 C36 1.645 . S
C1142 C62 1.645 . S
C1177 C40 1.624 . S
C1192 C66 1.624 . S
C1227 C114 1.645 . S
C1242 C192 1.644 . S
C1277 C196 1.624 . S
C1292 C118 1.624 . S
C1327 C140 1.645 . S
C1342 C166 1.645 . S
C1377 C170 1.625 . S
C1392 C144 1.624 . S
C1427 C5 1.753 . S
C1442 C198 1.706 . S
C1477 C161 1.754 . S
C1492 C16 1.706 . S
C1527 C172 1.706 . S
C1542 C31 1.753 . S
C1577 C187 1.753 . S
C1592 C42 1.706 . S
C1627 C120 1.706 . S
C1642 C57 1.753 . S
C1677 C135 1.753 . S
C1692 C68 1.706 . S
C1727 C83 1.753 . S
C1742 C146 1.706 . S
C1777 C94 1.705 . S
C1792 C109 1.753 . S
