# Generated by pormake.
# Topology fcr, (5)-cn, num edge types: 1
# Building blocks:
#     Node 0, Type 0, BuildingBlock: XOMCOT_clean_sbu_1, # of connection points: 5
#     Node 1, Type 0, BuildingBlock: XOMCOT_clean_sbu_1, # of connection points: 5
#     Node 2, Type 0, BuildingBlock: XOMCOT_clean_sbu_1, # of connection points: 5
#     Node 3, Type 0, BuildingBlock: XOMCOT_clean_sbu_1, # of connection points: 5
#     Node 4, Type 0, BuildingBlock: XOMCOT_clean_sbu_1, # of connection points: 5
#     Node 5, Type 0, BuildingBlock: XOMCOT_clean_sbu_1, # of connection points: 5
#     Node 6, Type 0, BuildingBlock: XOMCOT_clean_sbu_1, # of connection points: 5
#     Node 7, Type 0, BuildingBlock: XOMCOT_clean_sbu_1, # of connection points: 5
#     Node 8, Type 0, BuildingBlock: XOMCOT_clean_sbu_1, # of connection points: 5
#     Node 9, Type 0, BuildingBlock: XOMCOT_clean_sbu_1, # of connection points: 5
#     Node 10, Type 0, BuildingBlock: XOMCOT_clean_sbu_1, # of connection points: 5
#     Node 11, Type 0, BuildingBlock: XOMCOT_clean_sbu_1, # of connection points: 5
#     Node 12, Type 0, BuildingBlock: XOMCOT_clean_sbu_1, # of connection points: 5
#     Node 13, Type 0, BuildingBlock: XOMCOT_clean_sbu_1, # of connection points: 5
#     Node 14, Type 0, BuildingBlock: XOMCOT_clean_sbu_1, # of connection points: 5
#     Node 15, Type 0, BuildingBlock: XOMCOT_clean_sbu_1, # of connection points: 5
#     Node 16, Type 0, BuildingBlock: XOMCOT_clean_sbu_1, # of connection points: 5
#     Node 17, Type 0, BuildingBlock: XOMCOT_clean_sbu_1, # of connection points: 5
#     Node 18, Type 0, BuildingBlock: XOMCOT_clean_sbu_1, # of connection points: 5
#     Node 19, Type 0, BuildingBlock: XOMCOT_clean_sbu_1, # of connection points: 5
#     Node 20, Type 0, BuildingBlock: XOMCOT_clean_sbu_1, # of connection points: 5
#     Node 21, Type 0, BuildingBlock: XOMCOT_clean_sbu_1, # of connection points: 5
#     Node 22, Type 0, BuildingBlock: XOMCOT_clean_sbu_1, # of connection points: 5
#     Node 23, Type 0, BuildingBlock: XOMCOT_clean_sbu_1, # of connection points: 5
#     Node 24, Type 0, BuildingBlock: XOMCOT_clean_sbu_1, # of connection points: 5
#     Node 25, Type 0, BuildingBlock: XOMCOT_clean_sbu_1, # of connection points: 5
#     Node 26, Type 0, BuildingBlock: XOMCOT_clean_sbu_1, # of connection points: 5
#     Node 27, Type 0, BuildingBlock: XOMCOT_clean_sbu_1, # of connection points: 5
#     Node 28, Type 0, BuildingBlock: XOMCOT_clean_sbu_1, # of connection points: 5
#     Node 29, Type 0, BuildingBlock: XOMCOT_clean_sbu_1, # of connection points: 5
#     Node 30, Type 0, BuildingBlock: XOMCOT_clean_sbu_1, # of connection points: 5
#     Node 31, Type 0, BuildingBlock: XOMCOT_clean_sbu_1, # of connection points: 5
#     Node 32, Type 0, BuildingBlock: XOMCOT_clean_sbu_1, # of connection points: 5
#     Node 33, Type 0, BuildingBlock: XOMCOT_clean_sbu_1, # of connection points: 5
#     Node 34, Type 0, BuildingBlock: XOMCOT_clean_sbu_1, # of connection points: 5
#     Node 35, Type 0, BuildingBlock: XOMCOT_clean_sbu_1, # of connection points: 5
#     Node 36, Type 0, BuildingBlock: XOMCOT_clean_sbu_1, # of connection points: 5
#     Node 37, Type 0, BuildingBlock: XOMCOT_clean_sbu_1, # of connection points: 5
#     Node 38, Type 0, BuildingBlock: XOMCOT_clean_sbu_1, # of connection points: 5
#     Node 39, Type 0, BuildingBlock: XOMCOT_clean_sbu_1, # of connection points: 5
#     Node 40, Type 0, BuildingBlock: XOMCOT_clean_sbu_1, # of connection points: 5
#     Node 41, Type 0, BuildingBlock: XOMCOT_clean_sbu_1, # of connection points: 5
#     Node 42, Type 0, BuildingBlock: XOMCOT_clean_sbu_1, # of connection points: 5
#     Node 43, Type 0, BuildingBlock: XOMCOT_clean_sbu_1, # of connection points: 5
#     Node 44, Type 0, BuildingBlock: XOMCOT_clean_sbu_1, # of connection points: 5
#     Node 45, Type 0, BuildingBlock: XOMCOT_clean_sbu_1, # of connection points: 5
#     Node 46, Type 0, BuildingBlock: XOMCOT_clean_sbu_1, # of connection points: 5
#     Node 47, Type 0, BuildingBlock: XOMCOT_clean_sbu_1, # of connection points: 5
#     Edge 48, Type (0, 0), None
#     Edge 49, Type (0, 0), None
#     Edge 50, Type (0, 0), None
#     Edge 51, Type (0, 0), None
#     Edge 52, Type (0, 0), None
#     Edge 53, Type (0, 0), None
#     Edge 54, Type (0, 0), None
#     Edge 55, Type (0, 0), None
#     Edge 56, Type (0, 0), None
#     Edge 57, Type (0, 0), None
#     Edge 58, Type (0, 0), None
#     Edge 59, Type (0, 0), None
#     Edge 60, Type (0, 0), None
#     Edge 61, Type (0, 0), None
#     Edge 62, Type (0, 0), None
#     Edge 63, Type (0, 0), None
#     Edge 64, Type (0, 0), None
#     Edge 65, Type (0, 0), None
#     Edge 66, Type (0, 0), None
#     Edge 67, Type (0, 0), None
#     Edge 68, Type (0, 0), None
#     Edge 69, Type (0, 0), None
#     Edge 70, Type (0, 0), None
#     Edge 71, Type (0, 0), None
#     Edge 72, Type (0, 0), None
#     Edge 73, Type (0, 0), None
#     Edge 74, Type (0, 0), None
#     Edge 75, Type (0, 0), None
#     Edge 76, Type (0, 0), None
#     Edge 77, Type (0, 0), None
#     Edge 78, Type (0, 0), None
#     Edge 79, Type (0, 0), None
#     Edge 80, Type (0, 0), None
#     Edge 81, Type (0, 0), None
#     Edge 82, Type (0, 0), None
#     Edge 83, Type (0, 0), None
#     Edge 84, Type (0, 0), None
#     Edge 85, Type (0, 0), None
#     Edge 86, Type (0, 0), None
#     Edge 87, Type (0, 0), None
#     Edge 88, Type (0, 0), None
#     Edge 89, Type (0, 0), None
#     Edge 90, Type (0, 0), None
#     Edge 91, Type (0, 0), None
#     Edge 92, Type (0, 0), None
#     Edge 93, Type (0, 0), None
#     Edge 94, Type (0, 0), None
#     Edge 95, Type (0, 0), None
#     Edge 96, Type (0, 0), None
#     Edge 97, Type (0, 0), None
#     Edge 98, Type (0, 0), None
#     Edge 99, Type (0, 0), None
#     Edge 100, Type (0, 0), None
#     Edge 101, Type (0, 0), None
#     Edge 102, Type (0, 0), None
#     Edge 103, Type (0, 0), None
#     Edge 104, Type (0, 0), None
#     Edge 105, Type (0, 0), None
#     Edge 106, Type (0, 0), None
#     Edge 107, Type (0, 0), None
#     Edge 108, Type (0, 0), None
#     Edge 109, Type (0, 0), None
#     Edge 110, Type (0, 0), None
#     Edge 111, Type (0, 0), None
#     Edge 112, Type (0, 0), None
#     Edge 113, Type (0, 0), None
#     Edge 114, Type (0, 0), None
#     Edge 115, Type (0, 0), None
#     Edge 116, Type (0, 0), None
#     Edge 117, Type (0, 0), None
#     Edge 118, Type (0, 0), None
#     Edge 119, Type (0, 0), None
#     Edge 120, Type (0, 0), None
#     Edge 121, Type (0, 0), None
#     Edge 122, Type (0, 0), None
#     Edge 123, Type (0, 0), None
#     Edge 124, Type (0, 0), None
#     Edge 125, Type (0, 0), None
#     Edge 126, Type (0, 0), None
#     Edge 127, Type (0, 0), None
#     Edge 128, Type (0, 0), None
#     Edge 129, Type (0, 0), None
#     Edge 130, Type (0, 0), None
#     Edge 131, Type (0, 0), None
#     Edge 132, Type (0, 0), None
#     Edge 133, Type (0, 0), None
#     Edge 134, Type (0, 0), None
#     Edge 135, Type (0, 0), None
#     Edge 136, Type (0, 0), None
#     Edge 137, Type (0, 0), None
#     Edge 138, Type (0, 0), None
#     Edge 139, Type (0, 0), None
#     Edge 140, Type (0, 0), None
#     Edge 141, Type (0, 0), None
#     Edge 142, Type (0, 0), None
#     Edge 143, Type (0, 0), None
#     Edge 144, Type (0, 0), None
#     Edge 145, Type (0, 0), None
#     Edge 146, Type (0, 0), None
#     Edge 147, Type (0, 0), None
#     Edge 148, Type (0, 0), None
#     Edge 149, Type (0, 0), None
#     Edge 150, Type (0, 0), None
#     Edge 151, Type (0, 0), None
#     Edge 152, Type (0, 0), None
#     Edge 153, Type (0, 0), None
#     Edge 154, Type (0, 0), None
#     Edge 155, Type (0, 0), None
#     Edge 156, Type (0, 0), None
#     Edge 157, Type (0, 0), None
#     Edge 158, Type (0, 0), None
#     Edge 159, Type (0, 0), None
#     Edge 160, Type (0, 0), None
#     Edge 161, Type (0, 0), None
#     Edge 162, Type (0, 0), None
#     Edge 163, Type (0, 0), None
#     Edge 164, Type (0, 0), None
#     Edge 165, Type (0, 0), None
#     Edge 166, Type (0, 0), None
#     Edge 167, Type (0, 0), None
# Relax obj value: 0.102
# Max RMSD: 0.138
# Mean RMSD: 0.138
data_MOF--net-fcr--node1-XOMCOT_clean_sbu_1--edge1-none
_symmetry_space_group_name_H-M    P1
_symmetry_Int_Tables_number       1
_symmetry_cell_setting            triclinic
loop_
_symmetry_equiv_pos_as_xyz
'x, y, z'
_cell_length_a     33.240691
_cell_length_b     33.240843
_cell_length_c     33.24099
_cell_angle_alpha  90.000027
_cell_angle_beta   90.000757
_cell_angle_gamma 89.999836
loop_
_atom_site_label
_atom_site_type_symbol
_atom_site_fract_x
_atom_site_fract_y
_atom_site_fract_z
_atom_type_partial_charge
C0 C 0.10576 0.37792 0.22483 0.0
C1 C 0.10502 0.40675 0.19503 0.0
N2 N 0.13754 0.43049 0.19942 0.0
N3 N 0.1385 0.38351 0.24827 0.0
C4 C 0.15677 0.41635 0.23227 0.0
H5 H 0.08457 0.35349 0.22763 0.0
Co6 Co 0.16202 0.34877 0.2868 0.0
C7 C 0.14455 0.42448 0.33369 0.0
O8 O 0.11213 0.43308 0.31276 0.0
N9 N 0.18679 0.31464 0.32349 0.0
C10 C 0.22889 0.28978 0.36933 0.0
C11 C 0.20767 0.32331 0.35732 0.0
C12 C 0.19518 0.27577 0.31591 0.0
N13 N 0.22107 0.26017 0.34292 0.0
O14 O 0.21368 0.36365 0.26761 0.0
H15 H 0.20967 0.35261 0.37106 0.0
H16 H 0.18497 0.26015 0.28922 0.0
O17 O 0.16411 0.39223 0.32633 0.0
C18 C 0.22343 0.3407 0.23849 0.0
O19 O 0.19773 0.31308 0.22663 0.0
N20 N 0.11145 0.32876 0.30318 0.0
C21 C 0.04199 0.28259 0.31547 0.0
C22 C 0.0508 0.31547 0.34074 0.0
C23 C 0.08629 0.33809 0.33438 0.0
C24 C 0.10362 0.29617 0.27956 0.0
C25 C 0.06921 0.27297 0.28497 0.0
H26 H 0.09331 0.36269 0.35438 0.0
H27 H 0.1242 0.28854 0.25556 0.0
H28 H 0.1849 0.42851 0.24328 0.0
H29 H 0.08282 0.40922 0.17139 0.0
H30 H 0.24971 0.28786 0.39432 0.0
H31 H 0.03018 0.32398 0.36449 0.0
H32 H 0.06329 0.24822 0.26458 0.0
C33 C 0.62793 0.68863 0.06954 0.0
C34 C 0.65676 0.68937 0.09934 0.0
N35 N 0.6805 0.65685 0.09495 0.0
N36 N 0.63352 0.65588 0.04611 0.0
C37 C 0.66636 0.63762 0.06211 0.0
H38 H 0.60349 0.70981 0.06674 0.0
Co39 Co 0.59878 0.63236 1.00757 0.0
C40 C 0.67449 0.64983 0.96068 0.0
O41 O 0.68308 0.68226 0.9816 0.0
N42 N 0.56465 0.60759 0.97088 0.0
C43 C 0.53979 0.56549 0.92505 0.0
C44 C 0.57332 0.58671 0.93706 0.0
C45 C 0.52577 0.59921 0.97846 0.0
N46 N 0.51018 0.57331 0.95145 0.0
O47 O 0.61365 0.5807 0.02677 0.0
H48 H 0.60263 0.58471 0.92332 0.0
H49 H 0.51015 0.60941 1.00515 0.0
O50 O 0.64224 0.63028 0.96804 0.0
C51 C 0.59071 0.57096 0.05588 0.0
O52 O 0.56308 0.59665 0.06774 0.0
N53 N 0.57877 0.68293 0.99119 0.0
C54 C 0.5326 0.75239 0.9789 0.0
C55 C 0.56547 0.74358 0.95363 0.0
C56 C 0.5881 0.70809 0.95999 0.0
C57 C 0.54617 0.69076 1.01481 0.0
C58 C 0.52297 0.72517 1.0094 0.0
H59 H 0.61269 0.70107 0.93999 0.0
H60 H 0.53855 0.67018 0.03881 0.0
H61 H 0.67852 0.60948 0.05109 0.0
H62 H 0.65923 0.71157 0.12298 0.0
H63 H 0.53787 0.54467 0.90006 0.0
H64 H 0.57398 0.7642 0.92988 0.0
H65 H 0.49823 0.73109 0.02979 0.0
C66 C 0.93863 0.16646 0.22483 0.0
C67 C 0.93937 0.13762 0.19503 0.0
N68 N 0.90685 0.11388 0.19942 0.0
N69 N 0.90588 0.16086 0.24826 0.0
C70 C 0.88762 0.12802 0.23226 0.0
H71 H 0.95981 0.19089 0.22764 0.0
Co72 Co 0.88236 0.19561 0.2868 0.0
C73 C 0.89983 0.11989 0.33369 0.0
O74 O 0.93226 0.1113 0.31277 0.0
N75 N 0.85759 0.22974 0.32349 0.0
C76 C 0.81549 0.2546 0.36933 0.0
C77 C 0.83671 0.22106 0.35731 0.0
C78 C 0.8492 0.26861 0.31591 0.0
N79 N 0.82331 0.2842 0.34292 0.0
O80 O 0.8307 0.18073 0.2676 0.0
H81 H 0.83472 0.19176 0.37105 0.0
H82 H 0.85941 0.28423 0.28921 0.0
O83 O 0.88028 0.15214 0.32633 0.0
C84 C 0.82096 0.20367 0.23849 0.0
O85 O 0.84665 0.2313 0.22662 0.0
N86 N 0.93293 0.21561 0.30318 0.0
C87 C 1.00239 0.26177 0.31547 0.0
C88 C 0.99359 0.2289 0.34074 0.0
C89 C 0.95809 0.20628 0.33438 0.0
C90 C 0.94076 0.24821 0.27956 0.0
C91 C 0.97518 0.27141 0.28497 0.0
H92 H 0.95107 0.18168 0.35439 0.0
H93 H 0.92018 0.25584 0.25556 0.0
H94 H 0.85948 0.11587 0.24328 0.0
H95 H 0.96157 0.13515 0.17139 0.0
H96 H 0.79467 0.25651 0.39432 0.0
H97 H 1.0142 0.22039 0.36449 0.0
H98 H 0.98109 0.29615 0.26458 0.0
C99 C 0.41646 0.85575 0.06955 0.0
C100 C 0.38763 0.85501 0.09935 0.0
N101 N 0.36389 0.88753 0.09495 0.0
N102 N 0.41087 0.88849 0.04611 0.0
C103 C 0.37803 0.90676 0.06211 0.0
H104 H 0.4409 0.83457 0.06674 0.0
Co105 Co 0.44561 0.91202 1.00758 0.0
C106 C 0.36989 0.89455 0.96068 0.0
O107 O 0.3613 0.86212 0.98161 0.0
N108 N 0.47974 0.93679 0.97089 0.0
C109 C 0.5046 0.97889 0.92505 0.0
C110 C 0.47106 0.95767 0.93706 0.0
C111 C 0.51861 0.94517 0.97846 0.0
N112 N 0.53421 0.97107 0.95145 0.0
O113 O 0.43073 0.96368 0.02677 0.0
H114 H 0.44176 0.95967 0.92332 0.0
H115 H 0.53423 0.93497 1.00516 0.0
O116 O 0.40214 0.9141 0.96805 0.0
C117 C 0.45367 0.97342 0.05589 0.0
O118 O 0.4813 0.94773 0.06775 0.0
N119 N 0.46562 0.86145 0.99119 0.0
C120 C 0.51178 0.79199 0.9789 0.0
C121 C 0.47891 0.8008 0.95363 0.0
C122 C 0.45628 0.83629 0.95999 0.0
C123 C 0.49821 0.85362 1.01481 0.0
C124 C 0.52141 0.8192 1.0094 0.0
H125 H 0.43169 0.84331 0.93999 0.0
H126 H 0.50584 0.87419 0.03881 0.0
H127 H 0.36587 0.9349 0.05109 0.0
H128 H 0.38516 0.83281 0.12298 0.0
H129 H 0.50652 0.99971 0.90005 0.0
H130 H 0.4704 0.78018 0.92988 0.0
H131 H 0.54615 0.81328 0.02979 0.0
C132 C 0.10576 0.66646 0.31955 0.0
C133 C 0.10502 0.63762 0.34935 0.0
N134 N 0.13754 0.61387 0.34495 0.0
N135 N 0.1385 0.66086 0.29611 0.0
C136 C 0.15676 0.62802 0.31211 0.0
H137 H 0.08457 0.69089 0.31675 0.0
Co138 Co 0.16202 0.6956 0.25758 0.0
C139 C 0.14455 0.61989 0.21069 0.0
O140 O 0.11211 0.6113 0.23161 0.0
N141 N 0.18679 0.72973 0.22089 0.0
C142 C 0.22889 0.75459 0.17505 0.0
C143 C 0.20767 0.72105 0.18707 0.0
C144 C 0.19518 0.7686 0.22847 0.0
N145 N 0.22108 0.78419 0.20146 0.0
O146 O 0.21368 0.68072 0.27678 0.0
H147 H 0.20967 0.69175 0.17333 0.0
H148 H 0.18498 0.78422 0.25516 0.0
O149 O 0.1641 0.65214 0.21805 0.0
C150 C 0.22343 0.70367 0.30589 0.0
O151 O 0.19773 0.73129 0.31776 0.0
N152 N 0.11145 0.71561 0.2412 0.0
C153 C 0.042 0.76178 0.22891 0.0
C154 C 0.0508 0.72891 0.20364 0.0
C155 C 0.08629 0.70628 0.21 0.0
C156 C 0.10362 0.7482 0.26482 0.0
C157 C 0.06921 0.77141 0.25941 0.0
H158 H 0.09331 0.68169 0.18999 0.0
H159 H 0.1242 0.75583 0.28882 0.0
H160 H 0.1849 0.61586 0.30109 0.0
H161 H 0.08282 0.63515 0.37299 0.0
H162 H 0.24971 0.7565 0.15006 0.0
H163 H 0.03018 0.7204 0.17989 0.0
H164 H 0.0633 0.79615 0.2798 0.0
C165 C 0.91646 0.68862 0.97482 0.0
C166 C 0.88763 0.68936 0.94502 0.0
N167 N 0.86388 0.65684 0.94942 0.0
N168 N 0.91087 0.65588 0.99826 0.0
C169 C 0.87802 0.63761 0.98226 0.0
H170 H 0.94089 0.70981 0.97763 0.0
Co171 Co 0.94561 0.63236 0.0368 0.0
C172 C 0.86989 0.64983 0.08369 0.0
O173 O 0.8613 0.68226 0.06277 0.0
N174 N 0.97974 0.60759 0.07349 0.0
C175 C 1.0046 0.56549 0.11933 0.0
C176 C 0.97106 0.58671 0.10731 0.0
C177 C 1.01861 0.5992 0.06591 0.0
N178 N 0.0342 0.5733 0.09292 0.0
O179 O 0.93073 0.5807 1.0176 0.0
H180 H 0.94176 0.58471 0.12105 0.0
H181 H 0.03423 0.60941 0.03922 0.0
O182 O 0.90214 0.63028 0.07633 0.0
C183 C 0.95367 0.57096 0.98849 0.0
O184 O 0.9813 0.59665 0.97663 0.0
N185 N 0.96562 0.68293 0.05318 0.0
C186 C 1.01179 0.75239 0.06547 0.0
C187 C 0.97891 0.74358 0.09073 0.0
C188 C 0.95629 0.70809 0.08438 0.0
C189 C 0.99821 0.69076 0.02956 0.0
C190 C 1.02141 0.72517 0.03497 0.0
H191 H 0.93169 0.70107 0.10439 0.0
H192 H 1.00584 0.67018 1.00556 0.0
H193 H 0.86587 0.60948 0.99328 0.0
H194 H 0.88515 0.71156 0.92138 0.0
H195 H 1.00651 0.54467 0.14432 0.0
H196 H 0.97041 0.7642 0.11449 0.0
H197 H 0.04615 0.73108 1.01457 0.0
C198 C 0.93863 0.87792 0.31955 0.0
C199 C 0.93936 0.90676 0.34935 0.0
N200 N 0.90685 0.9305 0.34495 0.0
N201 N 0.90589 0.88352 0.29611 0.0
C202 C 0.88762 0.91636 0.31211 0.0
H203 H 0.95981 0.85349 0.31675 0.0
Co204 Co 0.88236 0.84877 0.25758 0.0
C205 C 0.89984 0.92449 0.21068 0.0
O206 O 0.93227 0.93307 0.23161 0.0
N207 N 0.8576 0.81464 0.22089 0.0
C208 C 0.8155 0.78978 0.17505 0.0
C209 C 0.83672 0.82332 0.18706 0.0
C210 C 0.84921 0.77577 0.22847 0.0
N211 N 0.82331 0.76018 0.20145 0.0
O212 O 0.8307 0.86365 0.27677 0.0
H213 H 0.83472 0.85262 0.17332 0.0
H214 H 0.85941 0.76015 0.25516 0.0
O215 O 0.88028 0.89224 0.21805 0.0
C216 C 0.82096 0.84071 0.30588 0.0
O217 O 0.84665 0.81308 0.31775 0.0
N218 N 0.93294 0.82877 0.2412 0.0
C219 C 1.0024 0.7826 0.22891 0.0
C220 C 0.99359 0.81547 0.20364 0.0
C221 C 0.9581 0.83809 0.21 0.0
C222 C 0.94077 0.79617 0.26482 0.0
C223 C 0.97518 0.77298 0.25941 0.0
H224 H 0.95107 0.86269 0.18998 0.0
H225 H 0.92019 0.78855 0.28882 0.0
H226 H 0.85949 0.92852 0.30108 0.0
H227 H 0.96156 0.90923 0.373 0.0
H228 H 0.79468 0.78787 0.15006 0.0
H229 H 1.0142 0.82397 0.17988 0.0
H230 H 0.9811 0.74824 0.27981 0.0
C231 C 0.12793 0.85575 0.97482 0.0
C232 C 0.15676 0.85501 0.94502 0.0
N233 N 0.1805 0.88753 0.94942 0.0
N234 N 0.13352 0.88849 0.99826 0.0
C235 C 0.16636 0.90676 0.98226 0.0
H236 H 0.10349 0.83457 0.97762 0.0
Co237 Co 0.09878 0.91202 0.03679 0.0
C238 C 0.17449 0.89454 0.08369 0.0
O239 O 0.18308 0.86211 0.06277 0.0
N240 N 0.06465 0.93679 0.07348 0.0
C241 C 0.03979 0.97889 0.11932 0.0
C242 C 0.07333 0.95766 0.10731 0.0
C243 C 0.02578 0.94517 0.06591 0.0
N244 N 1.01018 0.97107 0.09292 0.0
O245 O 0.11366 0.96368 1.0176 0.0
H246 H 0.10263 0.95966 0.12105 0.0
H247 H 1.01015 0.93497 0.03921 0.0
O248 O 0.14225 0.9141 0.07632 0.0
C249 C 0.09071 0.97342 0.98848 0.0
O250 O 0.06308 0.94773 0.97662 0.0
N251 N 0.07877 0.86144 0.05318 0.0
C252 C 0.03261 0.79198 0.06546 0.0
C253 C 0.06548 0.80079 0.09074 0.0
C254 C 0.0881 0.83629 0.08438 0.0
C255 C 0.04618 0.85361 0.02956 0.0
C256 C 0.02298 0.8192 0.03497 0.0
H257 H 0.11269 0.84331 0.10439 0.0
H258 H 0.03855 0.87419 1.00555 0.0
H259 H 0.17852 0.93489 0.99329 0.0
H260 H 0.15923 0.83281 0.92138 0.0
H261 H 0.03788 0.99971 0.14431 0.0
H262 H 0.07398 0.78018 0.1145 0.0
H263 H 0.99824 0.81328 1.01457 0.0
C264 C 0.22483 0.10575 0.37792 0.0
C265 C 0.19503 0.10501 0.40675 0.0
N266 N 0.19942 0.13753 0.43049 0.0
N267 N 0.24827 0.13849 0.38351 0.0
C268 C 0.23227 0.15676 0.41635 0.0
H269 H 0.22764 0.08456 0.35348 0.0
Co270 Co 0.2868 0.16201 0.34877 0.0
C271 C 0.3337 0.14454 0.42448 0.0
O272 O 0.31278 0.11211 0.43307 0.0
N273 N 0.32349 0.18679 0.31464 0.0
C274 C 0.36933 0.22889 0.28978 0.0
C275 C 0.35731 0.20767 0.32332 0.0
C276 C 0.31592 0.19516 0.27576 0.0
N277 N 0.34293 0.22106 0.26017 0.0
O278 O 0.26761 0.21367 0.36365 0.0
H279 H 0.37104 0.20968 0.35262 0.0
H280 H 0.28923 0.18495 0.26014 0.0
O281 O 0.32633 0.16409 0.39223 0.0
C282 C 0.23847 0.22341 0.34073 0.0
O283 O 0.22659 0.19771 0.31311 0.0
N284 N 0.30318 0.11144 0.32876 0.0
C285 C 0.31547 0.04199 0.28259 0.0
C286 C 0.34074 0.05079 0.31546 0.0
C287 C 0.33438 0.08628 0.33808 0.0
C288 C 0.27956 0.10361 0.29617 0.0
C289 C 0.28497 0.0692 0.27297 0.0
H290 H 0.3544 0.09331 0.36268 0.0
H291 H 0.25556 0.12419 0.28854 0.0
H292 H 0.24329 0.18489 0.42851 0.0
H293 H 0.17139 0.08281 0.40922 0.0
H294 H 0.39432 0.24971 0.28786 0.0
H295 H 0.3645 0.03018 0.32396 0.0
H296 H 0.26457 0.06328 0.24823 0.0
C297 C 0.35575 0.56955 0.91645 0.0
C298 C 0.35501 0.59935 0.88761 0.0
N299 N 0.38753 0.59496 0.86387 0.0
N300 N 0.38849 0.54611 0.91086 0.0
C301 C 0.40676 0.56211 0.87801 0.0
H302 H 0.33457 0.56674 0.94088 0.0
Co303 Co 0.41202 0.50758 0.9456 0.0
C304 C 0.39454 0.46068 0.86989 0.0
O305 O 0.36211 0.4816 0.86131 0.0
N306 N 0.43679 0.4709 0.97973 0.0
C307 C 0.4789 0.42506 1.0046 0.0
C308 C 0.45768 0.43708 0.97106 0.0
C309 C 0.44517 0.47847 1.01861 0.0
N310 N 0.47106 0.45146 0.0342 0.0
O311 O 0.46368 0.52677 0.93072 0.0
H312 H 0.45969 0.42335 0.94175 0.0
H313 H 0.43495 0.50516 0.03423 0.0
O314 O 0.4141 0.46805 0.90214 0.0
C315 C 0.47341 0.55591 0.95364 0.0
O316 O 0.44772 0.5678 0.98125 0.0
N317 N 0.36145 0.4912 0.96561 0.0
C318 C 0.29199 0.47891 1.01179 0.0
C319 C 0.3008 0.45364 0.97892 0.0
C320 C 0.33629 0.46 0.95629 0.0
C321 C 0.35362 0.51483 0.9982 0.0
C322 C 0.31921 0.50942 1.0214 0.0
H323 H 0.34332 0.43998 0.9317 0.0
H324 H 0.37419 0.53883 1.00582 0.0
H325 H 0.4349 0.55109 0.86586 0.0
H326 H 0.33281 0.62299 0.88514 0.0
H327 H 0.49972 0.40008 1.00651 0.0
H328 H 0.28019 0.42988 0.97042 0.0
H329 H 0.31329 0.52982 0.04614 0.0
C330 C 0.81955 0.43863 0.37792 0.0
C331 C 0.84935 0.43937 0.40675 0.0
N332 N 0.84496 0.40684 0.4305 0.0
N333 N 0.79611 0.40589 0.38351 0.0
C334 C 0.81211 0.38762 0.41636 0.0
H335 H 0.81674 0.45981 0.35349 0.0
Co336 Co 0.75758 0.38236 0.34877 0.0
C337 C 0.71068 0.39983 0.42448 0.0
O338 O 0.73161 0.43227 0.43307 0.0
N339 N 0.72089 0.35759 0.31464 0.0
C340 C 0.67505 0.31549 0.28978 0.0
C341 C 0.68707 0.3367 0.32332 0.0
C342 C 0.72846 0.34922 0.27576 0.0
N343 N 0.70145 0.32332 0.26017 0.0
O344 O 0.77677 0.3307 0.36365 0.0
H345 H 0.67334 0.33469 0.35262 0.0
H346 H 0.75515 0.35943 0.26014 0.0
O347 O 0.71805 0.38028 0.39223 0.0
C348 C 0.80591 0.32097 0.34073 0.0
O349 O 0.81779 0.34667 0.31311 0.0
N350 N 0.7412 0.43293 0.32876 0.0
C351 C 0.72891 0.50239 0.28259 0.0
C352 C 0.70364 0.49358 0.31546 0.0
C353 C 0.71 0.45809 0.33808 0.0
C354 C 0.76482 0.44076 0.29617 0.0
C355 C 0.75941 0.47517 0.27297 0.0
H356 H 0.68999 0.45107 0.36268 0.0
H357 H 0.78882 0.42019 0.28855 0.0
H358 H 0.80109 0.35948 0.42851 0.0
H359 H 0.87299 0.46156 0.40923 0.0
H360 H 0.65007 0.29466 0.28786 0.0
H361 H 0.67988 0.5142 0.32396 0.0
H362 H 0.77981 0.48109 0.24823 0.0
C363 C 0.68863 0.97483 0.91645 0.0
C364 C 0.68937 0.94503 0.88762 0.0
N365 N 0.65685 0.94943 0.86388 0.0
N366 N 0.65589 0.99827 0.91086 0.0
C367 C 0.63762 0.98227 0.87802 0.0
H368 H 0.70982 0.97764 0.94089 0.0
Co369 Co 0.63236 0.0368 0.9456 0.0
C370 C 0.64984 0.0837 0.86989 0.0
O371 O 0.68227 0.06278 0.8613 0.0
N372 N 0.60759 0.07349 0.97974 0.0
C373 C 0.56549 0.11932 1.00459 0.0
C374 C 0.5867 0.10731 0.97106 0.0
C375 C 0.59922 0.06591 1.01861 0.0
N376 N 0.57332 0.09292 0.0342 0.0
O377 O 0.5807 1.01761 0.93072 0.0
H378 H 0.58469 0.12104 0.94175 0.0
H379 H 0.60943 0.03922 0.03423 0.0
O380 O 0.63028 0.07633 0.90214 0.0
C381 C 0.57097 0.98847 0.95364 0.0
O382 O 0.59667 0.97659 0.98126 0.0
N383 N 0.68293 0.05318 0.96561 0.0
C384 C 0.75239 0.06547 1.01179 0.0
C385 C 0.74358 0.09074 0.97892 0.0
C386 C 0.70809 0.08438 0.95629 0.0
C387 C 0.69077 0.02956 0.9982 0.0
C388 C 0.72518 0.03497 1.0214 0.0
H389 H 0.70107 0.1044 0.9317 0.0
H390 H 0.67019 1.00556 1.00583 0.0
H391 H 0.60949 0.99329 0.86586 0.0
H392 H 0.71157 0.92139 0.88515 0.0
H393 H 0.54466 0.14431 1.00651 0.0
H394 H 0.7642 0.1145 0.97041 0.0
H395 H 0.7311 1.01457 0.04614 0.0
C396 C 0.22484 0.93862 0.16644 0.0
C397 C 0.19504 0.93936 0.13761 0.0
N398 N 0.19942 0.90683 0.11389 0.0
N399 N 0.24827 0.90588 0.16086 0.0
C400 C 0.23227 0.8876 0.12802 0.0
H401 H 0.22766 0.95982 0.19086 0.0
Co402 Co 0.28681 0.88235 0.1956 0.0
C403 C 0.3337 0.89982 0.11989 0.0
O404 O 0.31278 0.93226 0.1113 0.0
N405 N 0.3235 0.85759 0.22973 0.0
C406 C 0.36933 0.81548 0.2546 0.0
C407 C 0.35732 0.8367 0.22106 0.0
C408 C 0.31592 0.84921 0.26861 0.0
N409 N 0.34294 0.82332 0.2842 0.0
O410 O 0.26761 0.83069 0.18073 0.0
H411 H 0.37105 0.83468 0.19175 0.0
H412 H 0.28923 0.85942 0.28423 0.0
O413 O 0.32634 0.88027 0.15213 0.0
C414 C 0.23848 0.82096 0.20365 0.0
O415 O 0.22659 0.84666 0.23126 0.0
N416 N 0.30319 0.93292 0.21561 0.0
C417 C 0.31547 1.00239 0.26177 0.0
C418 C 0.34075 0.99358 0.2289 0.0
C419 C 0.33439 0.95808 0.20628 0.0
C420 C 0.27956 0.94076 0.24819 0.0
C421 C 0.28497 0.97517 0.27139 0.0
H422 H 0.35441 0.95106 0.18169 0.0
H423 H 0.25556 0.92018 0.25582 0.0
H424 H 0.24328 0.85946 0.11587 0.0
H425 H 0.17141 0.96157 0.13513 0.0
H426 H 0.39432 0.79466 0.25651 0.0
H427 H 0.36451 1.01419 0.2204 0.0
H428 H 0.26457 0.9811 0.29613 0.0
C429 C 0.18863 0.56954 0.12793 0.0
C430 C 0.18937 0.59934 0.15676 0.0
N431 N 0.15683 0.59496 0.18049 0.0
N432 N 0.15589 0.54611 0.13352 0.0
C433 C 0.13761 0.56211 0.16635 0.0
H434 H 0.20983 0.56672 0.10351 0.0
Co435 Co 0.13236 0.50758 0.09878 0.0
C436 C 0.14983 0.46068 0.17449 0.0
O437 O 0.18227 0.4816 0.18308 0.0
N438 N 0.10759 0.47089 0.06464 0.0
C439 C 0.06549 0.42505 0.03978 0.0
C440 C 0.08671 0.43707 0.07332 0.0
C441 C 0.09922 0.47846 0.02577 0.0
N442 N 0.07332 0.45145 1.01017 0.0
O443 O 0.0807 0.52677 0.11365 0.0
H444 H 0.0847 0.42333 0.10262 0.0
H445 H 0.10943 0.50515 1.01015 0.0
O446 O 0.13028 0.46804 0.14224 0.0
C447 C 0.07097 0.5559 0.09073 0.0
O448 O 0.09667 0.56779 0.06312 0.0
N449 N 0.18293 0.49119 0.07877 0.0
C450 C 0.2524 0.47892 0.03261 0.0
C451 C 0.24358 0.45363 0.06547 0.0
C452 C 0.20809 0.45999 0.08809 0.0
C453 C 0.19077 0.51482 0.04618 0.0
C454 C 0.22518 0.50942 0.02298 0.0
H455 H 0.20107 0.43997 0.11268 0.0
H456 H 0.17019 0.53882 0.03856 0.0
H457 H 0.10947 0.5511 0.17851 0.0
H458 H 0.21158 0.62298 0.15925 0.0
H459 H 0.04467 0.40006 0.03786 0.0
H460 H 0.2642 0.42987 0.07397 0.0
H461 H 0.2311 0.52982 0.99825 0.0
C462 C 0.81955 0.60575 0.16645 0.0
C463 C 0.84935 0.60502 0.13762 0.0
N464 N 0.84497 0.63755 0.11389 0.0
N465 N 0.79611 0.6385 0.16086 0.0
C466 C 0.81212 0.65677 0.12802 0.0
H467 H 0.81673 0.58456 0.19087 0.0
Co468 Co 0.75758 0.66202 0.1956 0.0
C469 C 0.71069 0.64455 0.11988 0.0
O470 O 0.73161 0.61212 0.1113 0.0
N471 N 0.72089 0.68679 0.22973 0.0
C472 C 0.67505 0.72889 0.25459 0.0
C473 C 0.68707 0.70767 0.22105 0.0
C474 C 0.72847 0.69517 0.26861 0.0
N475 N 0.70145 0.72106 0.2842 0.0
O476 O 0.77678 0.71368 0.18073 0.0
H477 H 0.67334 0.70968 0.19175 0.0
H478 H 0.75516 0.68496 0.28423 0.0
O479 O 0.71805 0.66411 0.15213 0.0
C480 C 0.80591 0.72342 0.20365 0.0
O481 O 0.8178 0.69772 0.23126 0.0
N482 N 0.7412 0.61145 0.21561 0.0
C483 C 0.72891 0.54199 0.26177 0.0
C484 C 0.70364 0.5508 0.2289 0.0
C485 C 0.71 0.58629 0.20628 0.0
C486 C 0.76482 0.60361 0.2482 0.0
C487 C 0.75941 0.5692 0.27139 0.0
H488 H 0.68998 0.59332 0.18169 0.0
H489 H 0.78882 0.62419 0.25582 0.0
H490 H 0.8011 0.68491 0.11587 0.0
H491 H 0.87299 0.58281 0.13514 0.0
H492 H 0.65007 0.74971 0.25651 0.0
H493 H 0.67988 0.53019 0.2204 0.0
H494 H 0.77981 0.56328 0.29613 0.0
C495 C 0.85576 0.97483 0.12793 0.0
C496 C 0.85502 0.94503 0.15676 0.0
N497 N 0.88755 0.94941 0.18049 0.0
N498 N 0.8885 0.99827 0.13352 0.0
C499 C 0.90678 0.98226 0.16635 0.0
H500 H 0.83456 0.97765 0.10351 0.0
Co501 Co 0.91203 0.0368 0.09877 0.0
C502 C 0.89455 0.0837 0.17449 0.0
O503 O 0.86212 0.06277 0.18307 0.0
N504 N 0.9368 0.07349 0.06464 0.0
C505 C 0.9789 0.11932 0.03978 0.0
C506 C 0.95768 0.10731 0.07332 0.0
C507 C 0.94517 0.06591 0.02577 0.0
N508 N 0.97107 0.09293 1.01017 0.0
O509 O 0.96369 1.01761 0.11365 0.0
H510 H 0.9597 0.12104 0.10262 0.0
H511 H 0.93496 0.03922 1.01015 0.0
O512 O 0.91411 0.07633 0.14224 0.0
C513 C 0.97342 0.98847 0.09073 0.0
O514 O 0.94772 0.97658 0.06312 0.0
N515 N 0.86145 0.05318 0.07877 0.0
C516 C 0.79199 0.06547 0.03261 0.0
C517 C 0.8008 0.09075 0.06547 0.0
C518 C 0.8363 0.08439 0.08809 0.0
C519 C 0.85362 0.02956 0.04618 0.0
C520 C 0.8192 0.03497 0.02298 0.0
H521 H 0.84332 0.1044 0.11268 0.0
H522 H 0.87419 1.00555 0.03856 0.0
H523 H 0.93491 0.99328 0.17851 0.0
H524 H 0.83281 0.9214 0.15924 0.0
H525 H 0.99972 0.14431 0.03786 0.0
H526 H 0.78019 0.11451 0.07397 0.0
H527 H 0.81328 1.01456 0.99825 0.0
C528 C 0.37792 0.22482 0.10575 0.0
C529 C 0.40676 0.19502 0.10501 0.0
N530 N 0.43051 0.19942 0.13752 0.0
N531 N 0.38352 0.24826 0.13848 0.0
C532 C 0.41637 0.23227 0.15675 0.0
H533 H 0.35348 0.22762 0.08457 0.0
Co534 Co 0.34878 0.28679 0.16201 0.0
C535 C 0.42449 0.33369 0.14455 0.0
O536 O 0.43309 0.31277 0.11212 0.0
N537 N 0.31464 0.32347 0.18678 0.0
C538 C 0.28977 0.36934 0.22884 0.0
C539 C 0.3233 0.35734 0.2076 0.0
C540 C 0.27579 0.31586 0.19522 0.0
N541 N 0.2602 0.34288 0.22111 0.0
O542 O 0.36366 0.26759 0.21367 0.0
H543 H 0.35258 0.37114 0.20953 0.0
H544 H 0.26019 0.28914 0.18506 0.0
O545 O 0.39224 0.32632 0.1641 0.0
C546 C 0.34074 0.23845 0.2234 0.0
O547 O 0.31315 0.22655 0.19769 0.0
N548 N 0.32877 0.30318 0.11144 0.0
C549 C 0.28259 0.31547 0.04199 0.0
C550 C 0.31548 0.34073 0.05078 0.0
C551 C 0.33811 0.33436 0.08627 0.0
C552 C 0.29617 0.27957 0.10362 0.0
C553 C 0.27296 0.28498 0.06921 0.0
H554 H 0.36271 0.35436 0.09328 0.0
H555 H 0.28853 0.25557 0.1242 0.0
H556 H 0.42853 0.24329 0.18488 0.0
H557 H 0.40923 0.17137 0.08281 0.0
H558 H 0.28783 0.39437 0.24961 0.0
H559 H 0.324 0.36447 0.03016 0.0
H560 H 0.24821 0.26459 0.0633 0.0
C561 C 0.37792 0.81956 0.43863 0.0
C562 C 0.40676 0.84936 0.43937 0.0
N563 N 0.43051 0.84496 0.40685 0.0
N564 N 0.38352 0.79612 0.40589 0.0
C565 C 0.41637 0.81211 0.38763 0.0
H566 H 0.35349 0.81676 0.45981 0.0
Co567 Co 0.34878 0.75759 0.38237 0.0
C568 C 0.42449 0.71069 0.39984 0.0
O569 O 0.43308 0.73161 0.43227 0.0
N570 N 0.31464 0.7209 0.3576 0.0
C571 C 0.28977 0.67503 0.31554 0.0
C572 C 0.3233 0.68703 0.33678 0.0
C573 C 0.27579 0.72852 0.34916 0.0
N574 N 0.2602 0.70149 0.32328 0.0
O575 O 0.36366 0.77678 0.33071 0.0
H576 H 0.35258 0.67324 0.33485 0.0
H577 H 0.26019 0.75524 0.35932 0.0
O578 O 0.39224 0.71806 0.38028 0.0
C579 C 0.34075 0.80593 0.32097 0.0
O580 O 0.31315 0.81783 0.34668 0.0
N581 N 0.32877 0.7412 0.43294 0.0
C582 C 0.2826 0.72891 0.50239 0.0
C583 C 0.31548 0.70365 0.49359 0.0
C584 C 0.3381 0.71001 0.4581 0.0
C585 C 0.29617 0.76482 0.44076 0.0
C586 C 0.27297 0.75941 0.47517 0.0
H587 H 0.3627 0.69001 0.45109 0.0
H588 H 0.28854 0.78881 0.42018 0.0
H589 H 0.42853 0.80108 0.3595 0.0
H590 H 0.40923 0.87301 0.46156 0.0
H591 H 0.28784 0.65 0.29477 0.0
H592 H 0.32399 0.6799 0.51421 0.0
H593 H 0.24822 0.7798 0.48108 0.0
C594 C 0.06956 0.41646 0.85575 0.0
C595 C 0.09936 0.38762 0.85501 0.0
N596 N 0.09496 0.36387 0.88752 0.0
N597 N 0.04612 0.41086 0.88848 0.0
C598 C 0.06211 0.37801 0.90675 0.0
H599 H 0.06676 0.4409 0.83457 0.0
Co600 Co 1.00759 0.44561 0.91201 0.0
C601 C 0.96069 0.36989 0.89455 0.0
O602 O 0.98162 0.3613 0.86212 0.0
N603 N 0.97091 0.47974 0.93678 0.0
C604 C 0.92504 0.50461 0.97884 0.0
C605 C 0.93703 0.47109 0.95759 0.0
C606 C 0.97852 0.51859 0.94522 0.0
N607 N 0.9515 0.53419 0.9711 0.0
O608 O 0.02679 0.43073 0.96367 0.0
H609 H 0.92324 0.4418 0.95952 0.0
H610 H 1.00524 0.53419 0.93506 0.0
O611 O 0.96806 0.40214 0.9141 0.0
C612 C 0.05593 0.45364 0.9734 0.0
O613 O 0.06784 0.48124 0.9477 0.0
N614 N 0.99121 0.46561 0.86144 0.0
C615 C 0.97891 0.51179 0.79198 0.0
C616 C 0.95365 0.4789 0.80078 0.0
C617 C 0.96002 0.45627 0.83627 0.0
C618 C 1.01482 0.49821 0.85361 0.0
C619 C 1.0094 0.52142 0.81921 0.0
H620 H 0.94001 0.43167 0.84328 0.0
H621 H 0.03881 0.50585 0.8742 0.0
H622 H 0.05109 0.36586 0.93488 0.0
H623 H 0.123 0.38515 0.83281 0.0
H624 H 0.9 0.50655 0.9996 0.0
H625 H 0.92991 0.47039 0.78016 0.0
H626 H 0.02979 0.54616 0.81329 0.0
C627 C 0.66646 0.72483 0.43862 0.0
C628 C 0.63763 0.69503 0.43936 0.0
N629 N 0.61388 0.69943 0.40685 0.0
N630 N 0.66086 0.74827 0.40588 0.0
C631 C 0.62802 0.73227 0.38762 0.0
H632 H 0.6909 0.72763 0.4598 0.0
Co633 Co 0.69561 0.78679 0.38236 0.0
C634 C 0.61989 0.83369 0.39982 0.0
O635 O 0.6113 0.81277 0.43225 0.0
N636 N 0.72974 0.82348 0.35759 0.0
C637 C 0.75461 0.86935 0.31553 0.0
C638 C 0.72109 0.85735 0.33677 0.0
C639 C 0.76859 0.81586 0.34915 0.0
N640 N 0.78419 0.84289 0.32327 0.0
O641 O 0.68073 0.7676 0.3307 0.0
H642 H 0.6918 0.87114 0.33484 0.0
H643 H 0.7842 0.78914 0.35932 0.0
O644 O 0.65214 0.82633 0.38027 0.0
C645 C 0.70364 0.73845 0.32097 0.0
O646 O 0.73124 0.72655 0.34667 0.0
N647 N 0.71561 0.80318 0.43293 0.0
C648 C 0.76179 0.81547 0.50238 0.0
C649 C 0.7289 0.84073 0.49359 0.0
C650 C 0.70628 0.83437 0.45809 0.0
C651 C 0.74822 0.77957 0.44075 0.0
C652 C 0.77142 0.78499 0.47516 0.0
H653 H 0.68167 0.85437 0.45108 0.0
H654 H 0.75585 0.75558 0.42017 0.0
H655 H 0.61586 0.74329 0.35949 0.0
H656 H 0.63516 0.67139 0.46156 0.0
H657 H 0.75655 0.89438 0.29476 0.0
H658 H 0.72039 0.86448 0.51421 0.0
H659 H 0.79617 0.7646 0.48107 0.0
C660 C 0.47483 0.62793 0.35575 0.0
C661 C 0.44503 0.65676 0.35502 0.0
N662 N 0.44941 0.68049 0.38755 0.0
N663 N 0.49827 0.63352 0.3885 0.0
C664 C 0.48226 0.66635 0.40677 0.0
H665 H 0.47764 0.60351 0.33456 0.0
Co666 Co 0.5368 0.59878 0.41202 0.0
C667 C 0.58369 0.67449 0.39455 0.0
O668 O 0.56276 0.68308 0.36212 0.0
N669 N 0.57349 0.56464 0.43679 0.0
C670 C 0.61933 0.53978 0.47889 0.0
C671 C 0.60732 0.57332 0.45766 0.0
C672 C 0.56591 0.52577 0.44517 0.0
N673 N 0.59293 0.51018 0.47107 0.0
O674 O 0.51761 0.61365 0.46368 0.0
H675 H 0.62106 0.60262 0.45966 0.0
H676 H 0.53922 0.51015 0.43497 0.0
O677 O 0.57633 0.64224 0.4141 0.0
C678 C 0.48849 0.59071 0.47343 0.0
O679 O 0.47663 0.56308 0.44773 0.0
N680 N 0.55318 0.57877 0.36145 0.0
C681 C 0.56547 0.5326 0.29199 0.0
C682 C 0.59074 0.56547 0.3008 0.0
C683 C 0.58438 0.5881 0.33629 0.0
C684 C 0.52956 0.54618 0.35362 0.0
C685 C 0.53497 0.52297 0.31921 0.0
H686 H 0.60439 0.6127 0.34331 0.0
H687 H 0.50556 0.53855 0.3742 0.0
H688 H 0.49328 0.67851 0.43491 0.0
H689 H 0.42139 0.65924 0.33282 0.0
H690 H 0.64433 0.53787 0.4997 0.0
H691 H 0.61449 0.57398 0.28018 0.0
H692 H 0.51458 0.49823 0.31329 0.0
C693 C 0.16645 0.81955 0.60575 0.0
C694 C 0.13761 0.84935 0.60501 0.0
N695 N 0.11387 0.84495 0.63753 0.0
N696 N 0.16086 0.79611 0.63849 0.0
C697 C 0.12802 0.81211 0.65676 0.0
H698 H 0.19088 0.81674 0.58456 0.0
Co699 Co 0.1956 0.75758 0.66202 0.0
C700 C 0.11989 0.71068 0.64454 0.0
O701 O 0.1113 0.73161 0.61211 0.0
N702 N 0.22974 0.72089 0.68679 0.0
C703 C 0.2546 0.67505 0.72889 0.0
C704 C 0.22106 0.68707 0.70767 0.0
C705 C 0.26861 0.72847 0.69517 0.0
N706 N 0.2842 0.70145 0.72106 0.0
O707 O 0.18072 0.77677 0.71368 0.0
H708 H 0.19176 0.67333 0.70967 0.0
H709 H 0.28423 0.75516 0.68496 0.0
O710 O 0.15214 0.71805 0.6641 0.0
C711 C 0.20367 0.80589 0.72342 0.0
O712 O 0.23129 0.81775 0.69773 0.0
N713 N 0.21561 0.7412 0.61145 0.0
C714 C 0.26178 0.72892 0.54199 0.0
C715 C 0.22891 0.70364 0.5508 0.0
C716 C 0.20629 0.71 0.58629 0.0
C717 C 0.2482 0.76482 0.60361 0.0
C718 C 0.2714 0.75942 0.5692 0.0
H719 H 0.1817 0.68998 0.59331 0.0
H720 H 0.25583 0.78882 0.62419 0.0
H721 H 0.11586 0.80109 0.6849 0.0
H722 H 0.13514 0.87298 0.58281 0.0
H723 H 0.25652 0.65006 0.74971 0.0
H724 H 0.22041 0.67988 0.53018 0.0
H725 H 0.29614 0.77982 0.56328 0.0
C726 C 0.06955 0.62793 0.68862 0.0
C727 C 0.09935 0.65675 0.68936 0.0
N728 N 0.09497 0.68048 0.65682 0.0
N729 N 0.04611 0.63351 0.65587 0.0
C730 C 0.06212 0.66635 0.6376 0.0
H731 H 0.06673 0.6035 0.70981 0.0
Co732 Co 1.00758 0.59877 0.63235 0.0
C733 C 0.96068 0.67449 0.64982 0.0
O734 O 0.98161 0.68308 0.68225 0.0
N735 N 0.97089 0.56464 0.60758 0.0
C736 C 0.92505 0.53978 0.56548 0.0
C737 C 0.93706 0.57331 0.58671 0.0
C738 C 0.97847 0.52577 0.5992 0.0
N739 N 0.95145 0.51017 0.5733 0.0
O740 O 0.02677 0.61365 0.58069 0.0
H741 H 0.92332 0.60261 0.5847 0.0
H742 H 1.00516 0.51015 0.60941 0.0
O743 O 0.96805 0.64224 0.63027 0.0
C744 C 0.05589 0.59071 0.57095 0.0
O745 O 0.06775 0.56308 0.59664 0.0
N746 N 0.9912 0.57877 0.68292 0.0
C747 C 0.97892 0.5326 0.75239 0.0
C748 C 0.95364 0.56547 0.74358 0.0
C749 C 0.96 0.5881 0.70808 0.0
C750 C 1.01482 0.54617 0.69076 0.0
C751 C 1.00941 0.52297 0.72517 0.0
H752 H 0.93999 0.61269 0.70106 0.0
H753 H 0.03882 0.53854 0.67018 0.0
H754 H 0.0511 0.67851 0.60946 0.0
H755 H 0.12298 0.65924 0.71156 0.0
H756 H 0.90006 0.53786 0.54467 0.0
H757 H 0.92989 0.57398 0.76419 0.0
H758 H 0.02981 0.49823 0.73109 0.0
C759 C 0.97482 0.91646 0.68862 0.0
C760 C 0.94502 0.88762 0.68936 0.0
N761 N 0.94942 0.86388 0.65684 0.0
N762 N 0.99826 0.91086 0.65588 0.0
C763 C 0.98227 0.87802 0.63762 0.0
H764 H 0.97762 0.9409 0.7098 0.0
Co765 Co 0.0368 0.9456 0.63236 0.0
C766 C 0.08369 0.86989 0.64983 0.0
O767 O 0.06277 0.8613 0.68227 0.0
N768 N 0.07349 0.97973 0.60759 0.0
C769 C 0.11933 1.00459 0.56549 0.0
C770 C 0.10731 0.97106 0.58671 0.0
C771 C 0.06591 1.01861 0.5992 0.0
N772 N 0.09292 0.0342 0.5733 0.0
O773 O 1.0176 0.93072 0.5807 0.0
H774 H 0.12105 0.94176 0.58471 0.0
H775 H 0.03922 0.03423 0.6094 0.0
O776 O 0.07632 0.90214 0.63028 0.0
C777 C 0.98848 0.95367 0.57095 0.0
O778 O 0.97662 0.9813 0.59665 0.0
N779 N 0.05318 0.96561 0.68293 0.0
C780 C 0.06547 1.01179 0.75238 0.0
C781 C 0.09074 0.97891 0.74358 0.0
C782 C 0.08438 0.95628 0.70809 0.0
C783 C 0.02956 0.99821 0.69076 0.0
C784 C 0.03497 1.02141 0.72516 0.0
H785 H 0.10439 0.93169 0.70107 0.0
H786 H 1.00556 1.00583 0.67018 0.0
H787 H 0.99329 0.86586 0.60949 0.0
H788 H 0.92138 0.88515 0.71156 0.0
H789 H 0.14432 1.00651 0.54467 0.0
H790 H 0.11449 0.9704 0.7642 0.0
H791 H 1.01458 0.04615 0.73108 0.0
C792 C 0.60576 0.87792 0.72483 0.0
C793 C 0.60501 0.90676 0.69503 0.0
N794 N 0.63754 0.9305 0.69942 0.0
N795 N 0.6385 0.88352 0.74827 0.0
C796 C 0.65677 0.91636 0.73227 0.0
H797 H 0.58457 0.85349 0.72764 0.0
Co798 Co 0.66202 0.84878 0.7868 0.0
C799 C 0.64455 0.92449 0.83369 0.0
O800 O 0.61212 0.93308 0.81277 0.0
N801 N 0.68679 0.81464 0.82349 0.0
C802 C 0.72889 0.78978 0.86933 0.0
C803 C 0.70767 0.82332 0.85732 0.0
C804 C 0.69518 0.77577 0.81591 0.0
N805 N 0.72108 0.76018 0.84292 0.0
O806 O 0.71368 0.86365 0.76761 0.0
H807 H 0.70967 0.85262 0.87106 0.0
H808 H 0.68497 0.76015 0.78922 0.0
O809 O 0.66411 0.89224 0.82633 0.0
C810 C 0.72342 0.84071 0.73849 0.0
O811 O 0.69773 0.81308 0.72662 0.0
N812 N 0.61145 0.82877 0.80318 0.0
C813 C 0.54199 0.7826 0.81547 0.0
C814 C 0.5508 0.81547 0.84074 0.0
C815 C 0.58629 0.8381 0.83438 0.0
C816 C 0.60362 0.79617 0.77956 0.0
C817 C 0.56921 0.77297 0.78498 0.0
H818 H 0.59331 0.86269 0.85439 0.0
H819 H 0.6242 0.78855 0.75557 0.0
H820 H 0.6849 0.92852 0.74329 0.0
H821 H 0.58281 0.90923 0.67139 0.0
H822 H 0.74971 0.78787 0.89432 0.0
H823 H 0.53018 0.82398 0.86449 0.0
H824 H 0.56329 0.74823 0.76458 0.0
C825 C 0.12792 0.18862 0.56954 0.0
C826 C 0.15675 0.18936 0.59934 0.0
N827 N 0.1805 0.15684 0.59495 0.0
N828 N 0.13352 0.15588 0.5461 0.0
C829 C 0.16636 0.13761 0.5621 0.0
H830 H 0.10349 0.2098 0.56674 0.0
Co831 Co 0.09878 0.13235 0.50757 0.0
C832 C 0.17449 0.14982 0.46068 0.0
O833 O 0.18308 0.18226 0.4816 0.0
N834 N 0.06464 0.10758 0.47089 0.0
C835 C 0.03978 0.06548 0.42505 0.0
C836 C 0.07332 0.08669 0.43707 0.0
C837 C 0.02577 0.09921 0.47846 0.0
N838 N 1.01017 0.07331 0.45145 0.0
O839 O 0.11365 0.08069 0.52677 0.0
H840 H 0.10262 0.08468 0.42333 0.0
H841 H 1.01015 0.10941 0.50515 0.0
O842 O 0.14224 0.13027 0.46804 0.0
C843 C 0.09073 0.07096 0.5559 0.0
O844 O 0.06312 0.09666 0.56779 0.0
N845 N 0.07877 0.18292 0.49119 0.0
C846 C 0.03259 0.25238 0.4789 0.0
C847 C 0.06547 0.24358 0.45363 0.0
C848 C 0.0881 0.20809 0.45999 0.0
C849 C 0.04617 0.19076 0.51481 0.0
C850 C 0.02297 0.22517 0.5094 0.0
H851 H 0.11269 0.20107 0.43998 0.0
H852 H 0.03855 0.17018 0.53881 0.0
H853 H 0.17852 0.10948 0.55109 0.0
H854 H 0.15923 0.21156 0.62298 0.0
H855 H 0.03786 0.04465 0.40007 0.0
H856 H 0.07398 0.26419 0.42988 0.0
H857 H 0.99823 0.23108 0.52979 0.0
C858 C 0.43863 0.66646 0.72482 0.0
C859 C 0.43937 0.63762 0.69502 0.0
N860 N 0.40685 0.61388 0.69942 0.0
N861 N 0.40589 0.66086 0.74826 0.0
C862 C 0.38762 0.62802 0.73227 0.0
H863 H 0.45981 0.6909 0.72762 0.0
Co864 Co 0.38236 0.69561 0.78679 0.0
C865 C 0.39983 0.61989 0.83369 0.0
O866 O 0.43227 0.6113 0.81277 0.0
N867 N 0.35759 0.72974 0.82348 0.0
C868 C 0.31549 0.7546 0.86932 0.0
C869 C 0.33671 0.72106 0.8573 0.0
C870 C 0.34921 0.76861 0.8159 0.0
N871 N 0.32331 0.7842 0.84292 0.0
O872 O 0.3307 0.68073 0.7676 0.0
H873 H 0.33471 0.69176 0.87104 0.0
H874 H 0.35942 0.78423 0.78921 0.0
O875 O 0.38028 0.65214 0.82632 0.0
C876 C 0.32097 0.70365 0.73846 0.0
O877 O 0.34667 0.73126 0.72657 0.0
N878 N 0.43293 0.71561 0.80318 0.0
C879 C 0.50239 0.76178 0.81547 0.0
C880 C 0.49358 0.72891 0.84074 0.0
C881 C 0.45809 0.70629 0.83438 0.0
C882 C 0.44077 0.74821 0.77956 0.0
C883 C 0.47518 0.77141 0.78497 0.0
H884 H 0.45107 0.68169 0.85439 0.0
H885 H 0.42019 0.75583 0.75556 0.0
H886 H 0.35949 0.61586 0.74329 0.0
H887 H 0.46157 0.63515 0.67138 0.0
H888 H 0.29467 0.75651 0.89431 0.0
H889 H 0.5142 0.7204 0.8645 0.0
H890 H 0.4811 0.79615 0.76457 0.0
C891 C 0.91646 0.35575 0.56955 0.0
C892 C 0.88763 0.35501 0.59935 0.0
N893 N 0.86388 0.38753 0.59495 0.0
N894 N 0.91087 0.38849 0.5461 0.0
C895 C 0.87802 0.40676 0.5621 0.0
H896 H 0.94089 0.33457 0.56674 0.0
Co897 Co 0.94561 0.41202 0.50757 0.0
C898 C 0.86989 0.39455 0.46068 0.0
O899 O 0.8613 0.36211 0.4816 0.0
N900 N 0.97974 0.43679 0.47089 0.0
C901 C 1.0046 0.47889 0.42505 0.0
C902 C 0.97106 0.45767 0.43706 0.0
C903 C 1.01861 0.44517 0.47846 0.0
N904 N 0.03421 0.47106 0.45145 0.0
O905 O 0.93073 0.46367 0.52677 0.0
H906 H 0.94176 0.45967 0.42333 0.0
H907 H 0.03423 0.43496 0.50515 0.0
O908 O 0.90214 0.4141 0.46804 0.0
C909 C 0.95365 0.47341 0.55591 0.0
O910 O 0.98126 0.44771 0.56779 0.0
N911 N 0.96561 0.36144 0.49119 0.0
C912 C 1.01178 0.29198 0.4789 0.0
C913 C 0.97891 0.30079 0.45363 0.0
C914 C 0.95628 0.33628 0.45999 0.0
C915 C 0.99821 0.35361 0.51481 0.0
C916 C 1.02141 0.3192 0.5094 0.0
H917 H 0.93169 0.34331 0.43998 0.0
H918 H 1.00584 0.37419 0.53881 0.0
H919 H 0.86586 0.43489 0.55108 0.0
H920 H 0.88516 0.33281 0.62299 0.0
H921 H 1.00652 0.49971 0.40006 0.0
H922 H 0.9704 0.28018 0.42987 0.0
H923 H 0.04615 0.31328 0.52979 0.0
C924 C 0.60576 0.16646 0.81955 0.0
C925 C 0.60502 0.13763 0.84935 0.0
N926 N 0.63755 0.1139 0.84497 0.0
N927 N 0.6385 0.16087 0.79611 0.0
C928 C 0.65678 0.12803 0.81212 0.0
H929 H 0.58456 0.19088 0.81673 0.0
Co930 Co 0.66202 0.19561 0.75758 0.0
C931 C 0.64455 0.11989 0.71069 0.0
O932 O 0.61212 0.1113 0.73161 0.0
N933 N 0.68679 0.22974 0.72089 0.0
C934 C 0.72889 0.2546 0.67505 0.0
C935 C 0.70767 0.22106 0.68706 0.0
C936 C 0.69518 0.26861 0.72846 0.0
N937 N 0.72107 0.2842 0.70145 0.0
O938 O 0.71368 0.18073 0.77677 0.0
H939 H 0.70966 0.19176 0.67332 0.0
H940 H 0.68497 0.28423 0.75516 0.0
O941 O 0.6641 0.15214 0.71805 0.0
C942 C 0.72343 0.20367 0.80588 0.0
O943 O 0.69773 0.2313 0.81775 0.0
N944 N 0.61145 0.21561 0.7412 0.0
C945 C 0.54199 0.26179 0.72891 0.0
C946 C 0.5508 0.22891 0.70364 0.0
C947 C 0.58629 0.20629 0.71 0.0
C948 C 0.60362 0.24821 0.76482 0.0
C949 C 0.56921 0.27141 0.75941 0.0
H950 H 0.59331 0.18169 0.68999 0.0
H951 H 0.6242 0.25583 0.78882 0.0
H952 H 0.68491 0.11587 0.8011 0.0
H953 H 0.58282 0.13515 0.87298 0.0
H954 H 0.74971 0.25651 0.65006 0.0
H955 H 0.53018 0.2204 0.67989 0.0
H956 H 0.56329 0.29615 0.7798 0.0
C957 C 0.41645 0.18863 0.47483 0.0
C958 C 0.38763 0.18936 0.44502 0.0
N959 N 0.3639 0.15683 0.4494 0.0
N960 N 0.41086 0.15588 0.49826 0.0
C961 C 0.37803 0.1376 0.48226 0.0
H962 H 0.44087 0.20982 0.47765 0.0
Co963 Co 0.44561 0.13236 0.5368 0.0
C964 C 0.36989 0.14983 0.58369 0.0
O965 O 0.3613 0.18226 0.56276 0.0
N966 N 0.47974 0.10759 0.57349 0.0
C967 C 0.5046 0.06549 0.61933 0.0
C968 C 0.47106 0.08672 0.60732 0.0
C969 C 0.51861 0.09921 0.56591 0.0
N970 N 0.5342 0.07331 0.59293 0.0
O971 O 0.43073 0.0807 0.51761 0.0
H972 H 0.44176 0.08472 0.62106 0.0
H973 H 0.53423 0.10941 0.53922 0.0
O974 O 0.40214 0.13028 0.57633 0.0
C975 C 0.45368 0.07095 0.4885 0.0
O976 O 0.4813 0.09665 0.47663 0.0
N977 N 0.46561 0.18293 0.55318 0.0
C978 C 0.51178 0.25239 0.56546 0.0
C979 C 0.47891 0.24359 0.59073 0.0
C980 C 0.45628 0.2081 0.58438 0.0
C981 C 0.49821 0.19076 0.52956 0.0
C982 C 0.52141 0.22517 0.53497 0.0
H983 H 0.43169 0.20108 0.60439 0.0
H984 H 0.50583 0.17019 0.50556 0.0
H985 H 0.36587 0.10947 0.49328 0.0
H986 H 0.38514 0.21156 0.42139 0.0
H987 H 0.50651 0.04467 0.64432 0.0
H988 H 0.4704 0.2642 0.61449 0.0
H989 H 0.54615 0.23109 0.51457 0.0
C990 C 0.43863 0.37793 0.81955 0.0
C991 C 0.43936 0.40675 0.84935 0.0
N992 N 0.40683 0.43048 0.84497 0.0
N993 N 0.40588 0.38351 0.79611 0.0
C994 C 0.3876 0.41635 0.81212 0.0
H995 H 0.45982 0.3535 0.81673 0.0
Co996 Co 0.38236 0.34877 0.75758 0.0
C997 C 0.39983 0.42449 0.71069 0.0
O998 O 0.43226 0.43308 0.73161 0.0
N999 N 0.35759 0.31464 0.72088 0.0
C1000 C 0.31549 0.28978 0.67504 0.0
C1001 C 0.33671 0.32332 0.68706 0.0
C1002 C 0.34921 0.27577 0.72846 0.0
N1003 N 0.32331 0.26018 0.70145 0.0
O1004 O 0.3307 0.36365 0.77677 0.0
H1005 H 0.33471 0.35262 0.67332 0.0
H1006 H 0.35941 0.26015 0.75516 0.0
O1007 O 0.38028 0.39224 0.71805 0.0
C1008 C 0.32095 0.3407 0.80588 0.0
O1009 O 0.34665 0.31307 0.81775 0.0
N1010 N 0.43293 0.32877 0.7412 0.0
C1011 C 0.50239 0.28261 0.72891 0.0
C1012 C 0.49358 0.31547 0.70364 0.0
C1013 C 0.45809 0.3381 0.71 0.0
C1014 C 0.44076 0.29617 0.76482 0.0
C1015 C 0.47518 0.27298 0.75941 0.0
H1016 H 0.45107 0.36269 0.68999 0.0
H1017 H 0.42019 0.28855 0.78882 0.0
H1018 H 0.35947 0.4285 0.8011 0.0
H1019 H 0.46157 0.40923 0.87298 0.0
H1020 H 0.29467 0.28786 0.65005 0.0
H1021 H 0.5142 0.32398 0.67988 0.0
H1022 H 0.4811 0.24824 0.7798 0.0
C1023 C 0.62793 0.35575 0.47483 0.0
C1024 C 0.65675 0.35502 0.44502 0.0
N1025 N 0.68048 0.38755 0.4494 0.0
N1026 N 0.63352 0.3885 0.49826 0.0
C1027 C 0.66635 0.40677 0.48226 0.0
H1028 H 0.6035 0.33456 0.47764 0.0
Co1029 Co 0.59878 0.41202 0.5368 0.0
C1030 C 0.67449 0.39455 0.58369 0.0
O1031 O 0.68308 0.36212 0.56277 0.0
N1032 N 0.56464 0.43679 0.57349 0.0
C1033 C 0.53979 0.47889 0.61932 0.0
C1034 C 0.57332 0.45768 0.60731 0.0
C1035 C 0.52577 0.44517 0.56591 0.0
N1036 N 0.51018 0.47106 0.59293 0.0
O1037 O 0.61365 0.46368 0.51761 0.0
H1038 H 0.60263 0.45969 0.62104 0.0
H1039 H 0.51015 0.43496 0.53922 0.0
O1040 O 0.64224 0.4141 0.57633 0.0
C1041 C 0.59073 0.47342 0.48847 0.0
O1042 O 0.56312 0.44772 0.47659 0.0
N1043 N 0.57877 0.36145 0.55318 0.0
C1044 C 0.5326 0.29199 0.56546 0.0
C1045 C 0.56547 0.3008 0.59074 0.0
C1046 C 0.58809 0.33629 0.58438 0.0
C1047 C 0.54618 0.35362 0.52955 0.0
C1048 C 0.52298 0.3192 0.53496 0.0
H1049 H 0.61268 0.34332 0.60439 0.0
H1050 H 0.53855 0.37419 0.50555 0.0
H1051 H 0.67851 0.43491 0.49328 0.0
H1052 H 0.65923 0.33281 0.42139 0.0
H1053 H 0.53787 0.49972 0.64431 0.0
H1054 H 0.57397 0.28019 0.6145 0.0
H1055 H 0.49824 0.31328 0.51456 0.0
C1056 C 0.72484 0.60575 0.87792 0.0
C1057 C 0.69503 0.60501 0.90675 0.0
N1058 N 0.69941 0.63754 0.93048 0.0
N1059 N 0.74827 0.63849 0.88351 0.0
C1060 C 0.73227 0.65677 0.91635 0.0
H1061 H 0.72765 0.58456 0.8535 0.0
Co1062 Co 0.7868 0.66202 0.84877 0.0
C1063 C 0.8337 0.64455 0.92448 0.0
O1064 O 0.81278 0.61211 0.93307 0.0
N1065 N 0.82349 0.68679 0.81464 0.0
C1066 C 0.86933 0.72889 0.78978 0.0
C1067 C 0.85731 0.70767 0.82332 0.0
C1068 C 0.81592 0.69517 0.77576 0.0
N1069 N 0.84293 0.72106 0.76017 0.0
O1070 O 0.76761 0.71368 0.86365 0.0
H1071 H 0.87105 0.70968 0.85262 0.0
H1072 H 0.78922 0.68496 0.76014 0.0
O1073 O 0.82633 0.6641 0.89224 0.0
C1074 C 0.73848 0.72341 0.84073 0.0
O1075 O 0.72659 0.69772 0.81311 0.0
N1076 N 0.80319 0.61145 0.82876 0.0
C1077 C 0.81547 0.54199 0.78259 0.0
C1078 C 0.84075 0.5508 0.81546 0.0
C1079 C 0.83439 0.58629 0.83809 0.0
C1080 C 0.77956 0.60361 0.79617 0.0
C1081 C 0.78497 0.56921 0.77297 0.0
H1082 H 0.8544 0.59331 0.86268 0.0
H1083 H 0.75556 0.62419 0.78855 0.0
H1084 H 0.74329 0.6849 0.92851 0.0
H1085 H 0.6714 0.58281 0.90923 0.0
H1086 H 0.89432 0.74971 0.78786 0.0
H1087 H 0.8645 0.53018 0.82396 0.0
H1088 H 0.76457 0.56329 0.74823 0.0
C1089 C 0.85574 0.06955 0.41645 0.0
C1090 C 0.85501 0.09935 0.38762 0.0
N1091 N 0.88754 0.09497 0.36389 0.0
N1092 N 0.88849 0.04611 0.41086 0.0
C1093 C 0.90676 0.06211 0.37802 0.0
H1094 H 0.83456 0.06674 0.44088 0.0
Co1095 Co 0.91201 1.00758 0.4456 0.0
C1096 C 0.89455 0.96069 0.36988 0.0
O1097 O 0.86212 0.98161 0.36129 0.0
N1098 N 0.93678 0.97089 0.47974 0.0
C1099 C 0.97884 0.92502 0.50461 0.0
C1100 C 0.95759 0.93702 0.47108 0.0
C1101 C 0.94521 0.97851 0.51859 0.0
N1102 N 0.9711 0.95149 0.53418 0.0
O1103 O 0.96367 0.02677 0.43073 0.0
H1104 H 0.95952 0.92323 0.4418 0.0
H1105 H 0.93505 1.00523 0.53419 0.0
O1106 O 0.9141 0.96805 0.40214 0.0
C1107 C 0.9734 0.05592 0.45364 0.0
O1108 O 0.9477 0.06782 0.48124 0.0
N1109 N 0.86144 0.9912 0.4656 0.0
C1110 C 0.79198 0.97891 0.51178 0.0
C1111 C 0.80078 0.95365 0.4789 0.0
C1112 C 0.83627 0.96001 0.45627 0.0
C1113 C 0.85361 1.01481 0.49821 0.0
C1114 C 0.81921 1.0094 0.52141 0.0
H1115 H 0.84328 0.94 0.43167 0.0
H1116 H 0.8742 0.0388 0.50584 0.0
H1117 H 0.93489 0.05109 0.36586 0.0
H1118 H 0.83281 0.12299 0.38514 0.0
H1119 H 0.9996 0.89999 0.50655 0.0
H1120 H 0.78016 0.9299 0.47039 0.0
H1121 H 0.81329 0.02979 0.54615 0.0
C1122 C 0.31955 0.93863 0.87792 0.0
C1123 C 0.34936 0.93937 0.90675 0.0
N1124 N 0.34497 0.90684 0.93048 0.0
N1125 N 0.29611 0.90589 0.88351 0.0
C1126 C 0.31212 0.88762 0.91635 0.0
H1127 H 0.31674 0.95982 0.85349 0.0
Co1128 Co 0.25758 0.88237 0.84877 0.0
C1129 C 0.21069 0.89983 0.92449 0.0
O1130 O 0.23161 0.93226 0.93308 0.0
N1131 N 0.2209 0.8576 0.81464 0.0
C1132 C 0.17503 0.81554 0.78976 0.0
C1133 C 0.18702 0.83678 0.82329 0.0
C1134 C 0.22851 0.84916 0.77579 0.0
N1135 N 0.20149 0.82327 0.76019 0.0
O1136 O 0.27678 0.8307 0.86364 0.0
H1137 H 0.17323 0.83485 0.85257 0.0
H1138 H 0.25523 0.85932 0.76018 0.0
O1139 O 0.21805 0.88028 0.89224 0.0
C1140 C 0.30592 0.82097 0.84073 0.0
O1141 O 0.31782 0.84668 0.81313 0.0
N1142 N 0.2412 0.93294 0.82877 0.0
C1143 C 0.22891 1.00239 0.78259 0.0
C1144 C 0.20365 0.99359 0.81548 0.0
C1145 C 0.21001 0.9581 0.8381 0.0
C1146 C 0.26481 0.94076 0.79616 0.0
C1147 C 0.2594 0.97517 0.77296 0.0
H1148 H 0.19 0.95109 0.8627 0.0
H1149 H 0.2888 0.92018 0.78853 0.0
H1150 H 0.3011 0.85948 0.92851 0.0
H1151 H 0.37299 0.96157 0.90923 0.0
H1152 H 0.14999 0.79477 0.78783 0.0
H1153 H 0.1799 1.01422 0.82399 0.0
H1154 H 0.27979 0.98108 0.74821 0.0
C1155 C 0.18863 0.47482 0.41646 0.0
C1156 C 0.18937 0.44502 0.38763 0.0
N1157 N 0.15684 0.44941 0.36389 0.0
N1158 N 0.15589 0.49826 0.41086 0.0
C1159 C 0.13762 0.48226 0.37802 0.0
H1160 H 0.20982 0.47764 0.44089 0.0
Co1161 Co 0.13237 0.53679 0.4456 0.0
C1162 C 0.14983 0.58369 0.36988 0.0
O1163 O 0.18226 0.56276 0.36129 0.0
N1164 N 0.1076 0.57348 0.47973 0.0
C1165 C 0.06553 0.61935 0.5046 0.0
C1166 C 0.08678 0.60735 0.47108 0.0
C1167 C 0.09916 0.56586 0.51858 0.0
N1168 N 0.07327 0.59288 0.53418 0.0
O1169 O 0.0807 0.5176 0.43073 0.0
H1170 H 0.08485 0.62114 0.4418 0.0
H1171 H 0.10932 0.53915 0.53419 0.0
O1172 O 0.13028 0.57632 0.40213 0.0
C1173 C 0.07097 0.48845 0.45364 0.0
O1174 O 0.09668 0.47655 0.48124 0.0
N1175 N 0.18294 0.55318 0.46561 0.0
C1176 C 0.25239 0.56547 0.51178 0.0
C1177 C 0.24359 0.59073 0.4789 0.0
C1178 C 0.2081 0.58437 0.45627 0.0
C1179 C 0.19076 0.52957 0.49821 0.0
C1180 C 0.22517 0.53498 0.52141 0.0
H1181 H 0.20109 0.60437 0.43167 0.0
H1182 H 0.17018 0.50558 0.50584 0.0
H1183 H 0.10949 0.49328 0.36586 0.0
H1184 H 0.21157 0.42138 0.38515 0.0
H1185 H 0.04476 0.64438 0.50654 0.0
H1186 H 0.26422 0.61448 0.47038 0.0
H1187 H 0.23108 0.51459 0.54616 0.0
C1188 C 0.72484 0.43863 0.66645 0.0
C1189 C 0.69503 0.43936 0.63762 0.0
N1190 N 0.69941 0.40683 0.61389 0.0
N1191 N 0.74827 0.40588 0.66086 0.0
C1192 C 0.73227 0.38761 0.62802 0.0
H1193 H 0.72765 0.45982 0.69087 0.0
Co1194 Co 0.78681 0.38236 0.6956 0.0
C1195 C 0.8337 0.39983 0.61988 0.0
O1196 O 0.81277 0.43226 0.61129 0.0
N1197 N 0.8235 0.35759 0.72973 0.0
C1198 C 0.86933 0.31549 0.75459 0.0
C1199 C 0.85732 0.3367 0.72105 0.0
C1200 C 0.81592 0.34921 0.76861 0.0
N1201 N 0.84294 0.32332 0.7842 0.0
O1202 O 0.76761 0.3307 0.68072 0.0
H1203 H 0.87105 0.33469 0.69175 0.0
H1204 H 0.78923 0.35942 0.78423 0.0
O1205 O 0.82633 0.38027 0.65213 0.0
C1206 C 0.73848 0.32097 0.70365 0.0
O1207 O 0.72659 0.34667 0.73126 0.0
N1208 N 0.80319 0.43293 0.71561 0.0
C1209 C 0.81547 0.50239 0.76177 0.0
C1210 C 0.84075 0.49358 0.7289 0.0
C1211 C 0.83439 0.45809 0.70628 0.0
C1212 C 0.77957 0.44076 0.7482 0.0
C1213 C 0.78498 0.47518 0.77139 0.0
H1214 H 0.8544 0.45107 0.68169 0.0
H1215 H 0.75557 0.42019 0.75582 0.0
H1216 H 0.74329 0.35947 0.61586 0.0
H1217 H 0.6714 0.46157 0.63514 0.0
H1218 H 0.89432 0.29466 0.75651 0.0
H1219 H 0.86451 0.5142 0.7204 0.0
H1220 H 0.76458 0.4811 0.79613 0.0
C1221 C 0.68863 0.06955 0.62793 0.0
C1222 C 0.68936 0.09935 0.65676 0.0
N1223 N 0.65683 0.09497 0.68049 0.0
N1224 N 0.65588 0.04611 0.63352 0.0
C1225 C 0.63761 0.06212 0.66636 0.0
H1226 H 0.70982 0.06673 0.6035 0.0
Co1227 Co 0.63236 1.00758 0.59878 0.0
C1228 C 0.64983 0.96068 0.67449 0.0
O1229 O 0.68226 0.98161 0.68308 0.0
N1230 N 0.60759 0.97089 0.56464 0.0
C1231 C 0.56549 0.92506 0.53978 0.0
C1232 C 0.5867 0.93707 0.57332 0.0
C1233 C 0.59921 0.97847 0.52577 0.0
N1234 N 0.57332 0.95145 0.51017 0.0
O1235 O 0.5807 0.02677 0.61365 0.0
H1236 H 0.58469 0.92334 0.60263 0.0
H1237 H 0.60942 1.00515 0.51015 0.0
O1238 O 0.63028 0.96805 0.64224 0.0
C1239 C 0.57097 0.05591 0.59073 0.0
O1240 O 0.59667 0.06779 0.56312 0.0
N1241 N 0.68293 0.9912 0.57877 0.0
C1242 C 0.75239 0.97891 0.5326 0.0
C1243 C 0.74358 0.95363 0.56547 0.0
C1244 C 0.70809 0.95999 0.58809 0.0
C1245 C 0.69076 1.01482 0.54618 0.0
C1246 C 0.72517 1.00941 0.52298 0.0
H1247 H 0.70106 0.93998 0.61268 0.0
H1248 H 0.67019 0.03882 0.53855 0.0
H1249 H 0.60948 0.0511 0.67851 0.0
H1250 H 0.71157 0.12299 0.65924 0.0
H1251 H 0.54466 0.90007 0.53786 0.0
H1252 H 0.76419 0.92988 0.57397 0.0
H1253 H 0.73109 0.02981 0.49824 0.0
C1254 C 0.31955 0.10575 0.66645 0.0
C1255 C 0.34935 0.10502 0.63762 0.0
N1256 N 0.34497 0.13755 0.61389 0.0
N1257 N 0.29611 0.1385 0.66086 0.0
C1258 C 0.31211 0.15677 0.62802 0.0
H1259 H 0.31673 0.08456 0.69087 0.0
Co1260 Co 0.25758 0.16202 0.6956 0.0
C1261 C 0.21068 0.14455 0.61988 0.0
O1262 O 0.23161 0.11212 0.6113 0.0
N1263 N 0.22089 0.18679 0.72973 0.0
C1264 C 0.17505 0.22889 0.75459 0.0
C1265 C 0.18707 0.20768 0.72105 0.0
C1266 C 0.22846 0.19516 0.76861 0.0
N1267 N 0.20145 0.22106 0.7842 0.0
O1268 O 0.27677 0.21368 0.68072 0.0
H1269 H 0.17334 0.20969 0.69175 0.0
H1270 H 0.25515 0.18495 0.78423 0.0
O1271 O 0.21805 0.1641 0.65213 0.0
C1272 C 0.30591 0.22341 0.70364 0.0
O1273 O 0.31779 0.19771 0.73126 0.0
N1274 N 0.24119 0.11145 0.71561 0.0
C1275 C 0.22891 0.04199 0.76177 0.0
C1276 C 0.20363 0.0508 0.7289 0.0
C1277 C 0.20999 0.08629 0.70628 0.0
C1278 C 0.26482 0.10361 0.7482 0.0
C1279 C 0.25941 0.0692 0.7714 0.0
H1280 H 0.18998 0.09331 0.68169 0.0
H1281 H 0.28882 0.12419 0.75582 0.0
H1282 H 0.30109 0.1849 0.61586 0.0
H1283 H 0.37299 0.08281 0.63514 0.0
H1284 H 0.15007 0.24971 0.75651 0.0
H1285 H 0.17987 0.03019 0.7204 0.0
H1286 H 0.27981 0.06328 0.79614 0.0
C1287 C 0.35575 0.47483 0.62792 0.0
C1288 C 0.35501 0.44502 0.65675 0.0
N1289 N 0.38754 0.44941 0.68049 0.0
N1290 N 0.38849 0.49827 0.63352 0.0
C1291 C 0.40676 0.48226 0.66636 0.0
H1292 H 0.33456 0.47764 0.60349 0.0
Co1293 Co 0.41202 0.5368 0.59878 0.0
C1294 C 0.39456 0.58369 0.67449 0.0
O1295 O 0.36212 0.56277 0.68309 0.0
N1296 N 0.43679 0.57348 0.56464 0.0
C1297 C 0.47885 0.61935 0.53977 0.0
C1298 C 0.4576 0.60735 0.5733 0.0
C1299 C 0.44522 0.56586 0.52579 0.0
N1300 N 0.47111 0.59289 0.5102 0.0
O1301 O 0.46368 0.5176 0.61365 0.0
H1302 H 0.45953 0.62115 0.60258 0.0
H1303 H 0.43506 0.53915 0.51019 0.0
O1304 O 0.41411 0.57633 0.64224 0.0
C1305 C 0.47341 0.48846 0.59074 0.0
O1306 O 0.4477 0.47655 0.56314 0.0
N1307 N 0.36145 0.55318 0.57877 0.0
C1308 C 0.29199 0.56547 0.53261 0.0
C1309 C 0.30079 0.59073 0.56549 0.0
C1310 C 0.33628 0.58437 0.58811 0.0
C1311 C 0.35362 0.52957 0.54617 0.0
C1312 C 0.31921 0.53498 0.52297 0.0
H1313 H 0.34329 0.60438 0.61271 0.0
H1314 H 0.3742 0.50558 0.53854 0.0
H1315 H 0.4349 0.49329 0.67852 0.0
H1316 H 0.33281 0.42139 0.65923 0.0
H1317 H 0.49961 0.64438 0.53783 0.0
H1318 H 0.28017 0.61448 0.574 0.0
H1319 H 0.3133 0.5146 0.49822 0.0
C1320 C 0.87792 0.72483 0.60575 0.0
C1321 C 0.90675 0.69502 0.60501 0.0
N1322 N 0.93048 0.69941 0.63754 0.0
N1323 N 0.88352 0.74827 0.63849 0.0
C1324 C 0.91636 0.73226 0.65676 0.0
H1325 H 0.85349 0.72764 0.58456 0.0
Co1326 Co 0.84878 0.7868 0.66201 0.0
C1327 C 0.92449 0.83369 0.64455 0.0
O1328 O 0.93309 0.81276 0.61212 0.0
N1329 N 0.81464 0.82348 0.68678 0.0
C1330 C 0.78977 0.86935 0.72884 0.0
C1331 C 0.8233 0.85735 0.7076 0.0
C1332 C 0.77579 0.81587 0.69522 0.0
N1333 N 0.76019 0.84289 0.7211 0.0
O1334 O 0.86365 0.7676 0.71367 0.0
H1335 H 0.85258 0.87115 0.70953 0.0
H1336 H 0.76019 0.78915 0.68505 0.0
O1337 O 0.89224 0.82633 0.6641 0.0
C1338 C 0.84074 0.73846 0.7234 0.0
O1339 O 0.81314 0.72655 0.6977 0.0
N1340 N 0.82877 0.80318 0.61144 0.0
C1341 C 0.78261 0.81547 0.54198 0.0
C1342 C 0.81549 0.84073 0.55078 0.0
C1343 C 0.83811 0.83437 0.58627 0.0
C1344 C 0.79617 0.77957 0.60361 0.0
C1345 C 0.77297 0.78499 0.5692 0.0
H1346 H 0.86271 0.85437 0.59329 0.0
H1347 H 0.78853 0.75558 0.6242 0.0
H1348 H 0.92852 0.74329 0.68489 0.0
H1349 H 0.90922 0.67138 0.58281 0.0
H1350 H 0.78783 0.89438 0.74961 0.0
H1351 H 0.82401 0.86448 0.53016 0.0
H1352 H 0.74822 0.7646 0.56329 0.0
C1353 C 0.87793 0.31956 0.93863 0.0
C1354 C 0.90676 0.34936 0.93936 0.0
N1355 N 0.93049 0.34497 0.90683 0.0
N1356 N 0.88352 0.29612 0.90589 0.0
C1357 C 0.91636 0.31212 0.88761 0.0
H1358 H 0.8535 0.31675 0.95981 0.0
Co1359 Co 0.84878 0.25759 0.88236 0.0
C1360 C 0.92449 0.21069 0.89983 0.0
O1361 O 0.93309 0.23162 0.93225 0.0
N1362 N 0.81464 0.2209 0.85759 0.0
C1363 C 0.78977 0.17503 0.81553 0.0
C1364 C 0.8233 0.18703 0.83678 0.0
C1365 C 0.77579 0.22852 0.84916 0.0
N1366 N 0.7602 0.2015 0.82327 0.0
O1367 O 0.86366 0.27678 0.8307 0.0
H1368 H 0.85258 0.17324 0.83485 0.0
H1369 H 0.76019 0.25524 0.85932 0.0
O1370 O 0.89224 0.21806 0.88028 0.0
C1371 C 0.84075 0.30593 0.82097 0.0
O1372 O 0.81315 0.31783 0.84667 0.0
N1373 N 0.82877 0.2412 0.93293 0.0
C1374 C 0.7826 0.22892 1.00239 0.0
C1375 C 0.81548 0.20366 0.99359 0.0
C1376 C 0.83811 0.21002 0.9581 0.0
C1377 C 0.79617 0.26482 0.94075 0.0
C1378 C 0.77297 0.25941 0.97516 0.0
H1379 H 0.86271 0.19001 0.95109 0.0
H1380 H 0.78854 0.28881 0.92017 0.0
H1381 H 0.92852 0.30109 0.85948 0.0
H1382 H 0.90924 0.373 0.96156 0.0
H1383 H 0.78784 0.15 0.79477 0.0
H1384 H 0.824 0.17991 1.01421 0.0
H1385 H 0.74822 0.2798 0.98107 0.0
C1386 C 0.56956 0.91646 0.35575 0.0
C1387 C 0.59936 0.88763 0.35501 0.0
N1388 N 0.59497 0.86389 0.38754 0.0
N1389 N 0.54612 0.91086 0.38849 0.0
C1390 C 0.56212 0.87802 0.40676 0.0
H1391 H 0.56675 0.94089 0.33456 0.0
Co1392 Co 0.50759 0.94561 0.41201 0.0
C1393 C 0.4607 0.86989 0.39455 0.0
O1394 O 0.48162 0.86129 0.36212 0.0
N1395 N 0.4709 0.97974 0.43678 0.0
C1396 C 0.42503 1.00461 0.47884 0.0
C1397 C 0.43703 0.97109 0.45759 0.0
C1398 C 0.47852 1.01859 0.44522 0.0
N1399 N 0.4515 0.03418 0.47111 0.0
O1400 O 0.52678 0.93073 0.46367 0.0
H1401 H 0.42323 0.94181 0.45952 0.0
H1402 H 0.50524 0.03419 0.43506 0.0
O1403 O 0.46806 0.90214 0.4141 0.0
C1404 C 0.55593 0.95364 0.4734 0.0
O1405 O 0.56783 0.98124 0.4477 0.0
N1406 N 0.4912 0.96561 0.36144 0.0
C1407 C 0.47891 1.01179 0.29199 0.0
C1408 C 0.45365 0.9789 0.30078 0.0
C1409 C 0.46002 0.95627 0.33627 0.0
C1410 C 0.51481 0.99822 0.35362 0.0
C1411 C 0.50939 1.02142 0.31921 0.0
H1412 H 0.44002 0.93166 0.34328 0.0
H1413 H 0.5388 1.00585 0.37421 0.0
H1414 H 0.5511 0.86586 0.43489 0.0
H1415 H 0.623 0.88516 0.33281 0.0
H1416 H 0.4 1.00655 0.4996 0.0
H1417 H 0.42991 0.97038 0.28016 0.0
H1418 H 0.52978 0.04617 0.31331 0.0
C1419 C 0.16646 0.22482 0.93862 0.0
C1420 C 0.13762 0.19502 0.93936 0.0
N1421 N 0.11388 0.19942 0.90685 0.0
N1422 N 0.16086 0.24826 0.90589 0.0
C1423 C 0.12801 0.23227 0.88762 0.0
H1424 H 0.1909 0.22762 0.9598 0.0
Co1425 Co 0.1956 0.28679 0.88236 0.0
C1426 C 0.11989 0.33369 0.89982 0.0
O1427 O 0.11129 0.31276 0.93225 0.0
N1428 N 0.22974 0.32347 0.85759 0.0
C1429 C 0.25461 0.36934 0.81553 0.0
C1430 C 0.22108 0.35735 0.83678 0.0
C1431 C 0.26859 0.31585 0.84915 0.0
N1432 N 0.28418 0.34288 0.82327 0.0
O1433 O 0.18073 0.26759 0.8307 0.0
H1434 H 0.1918 0.37114 0.83485 0.0
H1435 H 0.28419 0.28913 0.85931 0.0
O1436 O 0.15214 0.32632 0.88027 0.0
C1437 C 0.20364 0.23845 0.82097 0.0
O1438 O 0.23124 0.22654 0.84668 0.0
N1439 N 0.21561 0.30318 0.93293 0.0
C1440 C 0.26177 0.31547 1.00239 0.0
C1441 C 0.22889 0.34073 0.99359 0.0
C1442 C 0.20627 0.33436 0.9581 0.0
C1443 C 0.24821 0.27957 0.94076 0.0
C1444 C 0.27141 0.28498 0.97517 0.0
H1445 H 0.18166 0.35437 0.95109 0.0
H1446 H 0.25585 0.25558 0.92017 0.0
H1447 H 0.11585 0.24329 0.85949 0.0
H1448 H 0.13515 0.17137 0.96156 0.0
H1449 H 0.25655 0.39438 0.79477 0.0
H1450 H 0.22038 0.36447 1.01421 0.0
H1451 H 0.29616 0.26459 0.98108 0.0
C1452 C 0.97482 0.12792 0.85575 0.0
C1453 C 0.94502 0.15675 0.85501 0.0
N1454 N 0.94941 0.18049 0.88754 0.0
N1455 N 0.99827 0.13351 0.88849 0.0
C1456 C 0.98227 0.16636 0.90676 0.0
H1457 H 0.97763 0.10349 0.83456 0.0
Co1458 Co 0.0368 0.09877 0.91201 0.0
C1459 C 0.08369 0.17449 0.89455 0.0
O1460 O 0.06276 0.18308 0.86212 0.0
N1461 N 0.07348 0.06464 0.93678 0.0
C1462 C 0.11935 0.03976 0.97883 0.0
C1463 C 0.10736 0.07329 0.95759 0.0
C1464 C 0.06586 0.02578 0.94521 0.0
N1465 N 0.09289 1.01019 0.9711 0.0
O1466 O 1.0176 0.11364 0.96367 0.0
H1467 H 0.12115 0.10257 0.95952 0.0
H1468 H 0.03914 1.01018 0.93505 0.0
O1469 O 0.07633 0.14224 0.9141 0.0
C1470 C 0.98846 0.09073 0.9734 0.0
O1471 O 0.97655 0.06314 0.9477 0.0
N1472 N 0.05318 0.07877 0.86144 0.0
C1473 C 0.06547 0.03261 0.79198 0.0
C1474 C 0.09073 0.06548 0.80078 0.0
C1475 C 0.08437 0.08811 0.83627 0.0
C1476 C 0.02957 0.04617 0.85361 0.0
C1477 C 0.03498 0.02297 0.8192 0.0
H1478 H 0.10438 0.11271 0.84329 0.0
H1479 H 1.00558 0.03853 0.87419 0.0
H1480 H 0.99329 0.17851 0.93489 0.0
H1481 H 0.92138 0.15923 0.83281 0.0
H1482 H 0.14439 0.03782 0.9996 0.0
H1483 H 0.11448 0.074 0.78016 0.0
H1484 H 1.01459 0.99822 0.81329 0.0
C1485 C 0.66646 0.31956 0.10575 0.0
C1486 C 0.63762 0.34936 0.10501 0.0
N1487 N 0.61387 0.34496 0.13752 0.0
N1488 N 0.66086 0.29612 0.13848 0.0
C1489 C 0.62801 0.31211 0.15675 0.0
H1490 H 0.69089 0.31676 0.08457 0.0
Co1491 Co 0.6956 0.25759 0.16201 0.0
C1492 C 0.61989 0.21069 0.14455 0.0
O1493 O 0.61129 0.23161 0.11212 0.0
N1494 N 0.72974 0.22091 0.18678 0.0
C1495 C 0.75461 0.17503 0.22883 0.0
C1496 C 0.72109 0.18703 0.20759 0.0
C1497 C 0.76859 0.22852 0.19521 0.0
N1498 N 0.78419 0.2015 0.2211 0.0
O1499 O 0.68073 0.27678 0.21367 0.0
H1500 H 0.69181 0.17324 0.20952 0.0
H1501 H 0.78419 0.25524 0.18505 0.0
O1502 O 0.65214 0.21806 0.16409 0.0
C1503 C 0.70364 0.30593 0.2234 0.0
O1504 O 0.73124 0.31783 0.19769 0.0
N1505 N 0.71561 0.24121 0.11144 0.0
C1506 C 0.76178 0.22892 0.04198 0.0
C1507 C 0.7289 0.20365 0.05078 0.0
C1508 C 0.70627 0.21001 0.08627 0.0
C1509 C 0.74821 0.26482 0.10361 0.0
C1510 C 0.77141 0.25941 0.0692 0.0
H1511 H 0.68167 0.19001 0.09329 0.0
H1512 H 0.75584 0.28881 0.1242 0.0
H1513 H 0.61585 0.30109 0.18488 0.0
H1514 H 0.63515 0.37301 0.08281 0.0
H1515 H 0.75655 0.15 0.2496 0.0
H1516 H 0.72038 0.1799 0.03016 0.0
H1517 H 0.79616 0.2798 0.06329 0.0
C1518 C 0.56956 0.12792 0.18863 0.0
C1519 C 0.59936 0.15676 0.18936 0.0
N1520 N 0.59497 0.18049 0.15683 0.0
N1521 N 0.54612 0.13352 0.15589 0.0
C1522 C 0.56212 0.16636 0.13761 0.0
H1523 H 0.56675 0.1035 0.20981 0.0
Co1524 Co 0.50759 0.09877 0.13236 0.0
C1525 C 0.4607 0.17449 0.14982 0.0
O1526 O 0.48162 0.18309 0.18225 0.0
N1527 N 0.4709 0.06464 0.1076 0.0
C1528 C 0.42503 0.03976 0.06554 0.0
C1529 C 0.43703 0.07329 0.08678 0.0
C1530 C 0.47852 0.02579 0.09916 0.0
N1531 N 0.4515 1.01019 0.07327 0.0
O1532 O 0.52678 0.11364 0.0807 0.0
H1533 H 0.42323 0.10257 0.08485 0.0
H1534 H 0.50524 1.01019 0.10932 0.0
O1535 O 0.46806 0.14224 0.13027 0.0
C1536 C 0.55593 0.09073 0.07097 0.0
O1537 O 0.56783 0.06314 0.09668 0.0
N1538 N 0.4912 0.07877 0.18293 0.0
C1539 C 0.47891 0.03261 0.25239 0.0
C1540 C 0.45365 0.06549 0.24359 0.0
C1541 C 0.46001 0.08811 0.2081 0.0
C1542 C 0.51481 0.04617 0.19076 0.0
C1543 C 0.5094 0.02297 0.22517 0.0
H1544 H 0.44001 0.11271 0.20108 0.0
H1545 H 0.53881 0.03854 0.17018 0.0
H1546 H 0.55109 0.17852 0.10948 0.0
H1547 H 0.623 0.15923 0.21156 0.0
H1548 H 0.4 0.03783 0.04477 0.0
H1549 H 0.4299 0.074 0.26421 0.0
H1550 H 0.52979 0.99822 0.23108 0.0
C1551 C 0.47482 0.41646 0.18863 0.0
C1552 C 0.44502 0.38763 0.18936 0.0
N1553 N 0.44941 0.36389 0.15684 0.0
N1554 N 0.49826 0.41087 0.15589 0.0
C1555 C 0.48226 0.37803 0.13762 0.0
H1556 H 0.47763 0.44089 0.20982 0.0
Co1557 Co 0.53679 0.44561 0.13237 0.0
C1558 C 0.58369 0.36989 0.14982 0.0
O1559 O 0.56276 0.36129 0.18225 0.0
N1560 N 0.57348 0.47974 0.1076 0.0
C1561 C 0.61935 0.50462 0.06554 0.0
C1562 C 0.60736 0.47109 0.08679 0.0
C1563 C 0.56586 0.51859 0.09916 0.0
N1564 N 0.59289 0.53419 0.07327 0.0
O1565 O 0.5176 0.43074 0.08071 0.0
H1566 H 0.62115 0.44181 0.08487 0.0
H1567 H 0.53914 0.53419 0.10931 0.0
O1568 O 0.57632 0.40214 0.13028 0.0
C1569 C 0.48845 0.45365 0.07097 0.0
O1570 O 0.47655 0.48124 0.09668 0.0
N1571 N 0.55318 0.46561 0.18294 0.0
C1572 C 0.56547 0.51178 0.2524 0.0
C1573 C 0.59073 0.4789 0.2436 0.0
C1574 C 0.58437 0.45627 0.2081 0.0
C1575 C 0.52957 0.49821 0.19076 0.0
C1576 C 0.53498 0.52141 0.22517 0.0
H1577 H 0.60437 0.43167 0.20109 0.0
H1578 H 0.50558 0.50585 0.17018 0.0
H1579 H 0.49329 0.36587 0.10949 0.0
H1580 H 0.42138 0.38515 0.21156 0.0
H1581 H 0.64439 0.50655 0.04478 0.0
H1582 H 0.61448 0.47038 0.26422 0.0
H1583 H 0.51459 0.54616 0.23109 0.0
loop_
_geom_bond_atom_site_label_1
_geom_bond_atom_site_label_2
_geom_bond_distance
_geom_bond_site_symmetry_2
_ccdc_geom_bond_type
C0 C1 1.351 . S
C0 N3 1.368 . S
C0 H5 0.931 . S
C1 C0 1.351 . S
C1 N2 1.373 . S
C1 H29 0.930 . S
N2 C1 1.373 . S
N2 C4 1.340 . S
N3 C0 1.368 . S
N3 C4 1.321 . S
N3 Co6 2.135 . S
C4 N2 1.340 . S
C4 N3 1.321 . S
C4 H28 0.930 . S
H5 C0 0.931 . S
Co6 N3 2.135 . S
Co6 N9 2.121 . S
Co6 O14 2.055 . S
Co6 O17 2.039 . S
Co6 N20 2.140 . S
C7 O8 1.227 . S
C7 O17 1.265 . S
O8 C7 1.227 . S
N9 Co6 2.121 . S
N9 C11 1.375 . S
N9 C12 1.313 . S
C10 C11 1.338 . S
C10 N13 1.377 . S
C10 H30 0.930 . S
C11 N9 1.375 . S
C11 C10 1.338 . S
C11 H15 0.931 . S
C12 N9 1.313 . S
C12 N13 1.344 . S
C12 H16 0.930 . S
N13 C10 1.377 . S
N13 C12 1.344 . S
O14 Co6 2.055 . S
O14 C18 1.253 . S
H15 C11 0.931 . S
H16 C12 0.930 . S
O17 Co6 2.039 . S
O17 C7 1.265 . S
C18 O14 1.253 . S
C18 O19 1.227 . S
O19 C18 1.227 . S
N20 Co6 2.140 . S
N20 C23 1.346 . S
N20 C24 1.345 . S
C21 C22 1.387 . S
C21 C25 1.391 . S
C22 C21 1.387 . S
C22 C23 1.369 . S
C22 H31 0.929 . S
C23 N20 1.346 . S
C23 C22 1.369 . S
C23 H26 0.928 . S
C24 N20 1.345 . S
C24 C25 1.371 . S
C24 H27 0.931 . S
C25 C21 1.391 . S
C25 C24 1.371 . S
C25 H32 0.930 . S
H26 C23 0.928 . S
H27 C24 0.931 . S
H28 C4 0.930 . S
H29 C1 0.930 . S
H30 C10 0.930 . S
H31 C22 0.929 . S
H32 C25 0.930 . S
C33 C34 1.351 . S
C33 N36 1.368 . S
C33 H38 0.931 . S
C34 C33 1.351 . S
C34 N35 1.373 . S
C34 H62 0.930 . S
N35 C34 1.373 . S
N35 C37 1.340 . S
N36 C33 1.368 . S
N36 C37 1.321 . S
N36 Co39 2.135 . S
C37 N35 1.340 . S
C37 N36 1.321 . S
C37 H61 0.930 . S
H38 C33 0.931 . S
Co39 N36 2.135 . S
Co39 N42 2.121 1_554 S
Co39 O47 2.055 . S
Co39 O50 2.039 1_554 S
Co39 N53 2.140 . S
C40 O41 1.227 . S
C40 O50 1.265 . S
O41 C40 1.227 . S
N42 Co39 2.121 1_556 S
N42 C44 1.375 . S
N42 C45 1.313 . S
C43 C44 1.338 . S
C43 N46 1.377 . S
C43 H63 0.930 . S
C44 N42 1.375 . S
C44 C43 1.338 . S
C44 H48 0.931 . S
C45 N42 1.313 . S
C45 N46 1.344 . S
C45 H49 0.930 . S
N46 C43 1.377 . S
N46 C45 1.344 . S
O47 Co39 2.055 . S
O47 C51 1.253 . S
H48 C44 0.931 . S
H49 C45 0.930 . S
O50 Co39 2.039 1_556 S
O50 C40 1.265 . S
C51 O47 1.253 . S
C51 O52 1.227 . S
O52 C51 1.227 . S
N53 Co39 2.140 . S
N53 C56 1.346 . S
N53 C57 1.345 . S
C54 C55 1.387 . S
C54 C58 1.391 . S
C55 C54 1.387 . S
C55 C56 1.369 . S
C55 H64 0.929 . S
C56 N53 1.346 . S
C56 C55 1.369 . S
C56 H59 0.928 . S
C57 N53 1.345 . S
C57 C58 1.371 . S
C57 H60 0.931 . S
C58 C54 1.391 . S
C58 C57 1.371 . S
C58 H65 0.930 . S
H59 C56 0.928 . S
H60 C57 0.931 . S
H61 C37 0.930 . S
H62 C34 0.930 . S
H63 C43 0.930 . S
H64 C55 0.929 . S
H65 C58 0.930 . S
C66 C67 1.351 . S
C66 N69 1.368 . S
C66 H71 0.931 . S
C67 C66 1.351 . S
C67 N68 1.373 . S
C67 H95 0.930 . S
N68 C67 1.373 . S
N68 C70 1.340 . S
N69 C66 1.368 . S
N69 C70 1.321 . S
N69 Co72 2.135 . S
C70 N68 1.340 . S
C70 N69 1.321 . S
C70 H94 0.930 . S
H71 C66 0.931 . S
Co72 N69 2.135 . S
Co72 N75 2.121 . S
Co72 O80 2.055 . S
Co72 O83 2.039 . S
Co72 N86 2.140 . S
C73 O74 1.227 . S
C73 O83 1.265 . S
O74 C73 1.227 . S
N75 Co72 2.121 . S
N75 C77 1.375 . S
N75 C78 1.313 . S
C76 C77 1.338 . S
C76 N79 1.377 . S
C76 H96 0.930 . S
C77 N75 1.375 . S
C77 C76 1.338 . S
C77 H81 0.931 . S
C78 N75 1.313 . S
C78 N79 1.344 . S
C78 H82 0.930 . S
N79 C76 1.377 . S
N79 C78 1.344 . S
O80 Co72 2.055 . S
O80 C84 1.253 . S
H81 C77 0.931 . S
H82 C78 0.930 . S
O83 Co72 2.039 . S
O83 C73 1.265 . S
C84 O80 1.253 . S
C84 O85 1.227 . S
O85 C84 1.227 . S
N86 Co72 2.140 . S
N86 C89 1.346 . S
N86 C90 1.345 . S
C87 C88 1.387 . S
C87 C91 1.391 . S
C88 C87 1.387 . S
C88 C89 1.369 . S
C88 H97 0.929 . S
C89 N86 1.346 . S
C89 C88 1.369 . S
C89 H92 0.928 . S
C90 N86 1.345 . S
C90 C91 1.371 . S
C90 H93 0.931 . S
C91 C87 1.391 . S
C91 C90 1.371 . S
C91 H98 0.930 . S
H92 C89 0.928 . S
H93 C90 0.931 . S
H94 C70 0.930 . S
H95 C67 0.930 . S
H96 C76 0.930 . S
H97 C88 0.929 . S
H98 C91 0.930 . S
C99 C100 1.351 . S
C99 N102 1.368 . S
C99 H104 0.931 . S
C100 C99 1.351 . S
C100 N101 1.373 . S
C100 H128 0.930 . S
N101 C100 1.373 . S
N101 C103 1.340 . S
N102 C99 1.368 . S
N102 C103 1.321 . S
N102 Co105 2.135 . S
C103 N101 1.340 . S
C103 N102 1.321 . S
C103 H127 0.930 . S
H104 C99 0.931 . S
Co105 N102 2.135 . S
Co105 N108 2.121 1_554 S
Co105 O113 2.055 . S
Co105 O116 2.039 1_554 S
Co105 N119 2.140 . S
C106 O107 1.227 . S
C106 O116 1.265 . S
O107 C106 1.227 . S
N108 Co105 2.121 1_556 S
N108 C110 1.375 . S
N108 C111 1.313 . S
C109 C110 1.338 . S
C109 N112 1.377 . S
C109 H129 0.930 . S
C110 N108 1.375 . S
C110 C109 1.338 . S
C110 H114 0.931 . S
C111 N108 1.313 . S
C111 N112 1.344 . S
C111 H115 0.930 . S
N112 C109 1.377 . S
N112 C111 1.344 . S
O113 Co105 2.055 . S
O113 C117 1.253 . S
H114 C110 0.931 . S
H115 C111 0.930 . S
O116 Co105 2.039 1_556 S
O116 C106 1.265 . S
C117 O113 1.253 . S
C117 O118 1.227 . S
O118 C117 1.227 . S
N119 Co105 2.140 . S
N119 C122 1.346 . S
N119 C123 1.345 . S
C120 C121 1.387 . S
C120 C124 1.391 . S
C121 C120 1.387 . S
C121 C122 1.369 . S
C121 H130 0.929 . S
C122 N119 1.346 . S
C122 C121 1.369 . S
C122 H125 0.928 . S
C123 N119 1.345 . S
C123 C124 1.371 . S
C123 H126 0.931 . S
C124 C120 1.391 . S
C124 C123 1.371 . S
C124 H131 0.930 . S
H125 C122 0.928 . S
H126 C123 0.931 . S
H127 C103 0.930 . S
H128 C100 0.930 . S
H129 C109 0.930 . S
H130 C121 0.929 . S
H131 C124 0.930 . S
C132 C133 1.351 . S
C132 N135 1.368 . S
C132 H137 0.931 . S
C133 C132 1.351 . S
C133 N134 1.373 . S
C133 H161 0.930 . S
N134 C133 1.373 . S
N134 C136 1.340 . S
N135 C132 1.368 . S
N135 C136 1.321 . S
N135 Co138 2.135 . S
C136 N134 1.340 . S
C136 N135 1.321 . S
C136 H160 0.930 . S
H137 C132 0.931 . S
Co138 N135 2.135 . S
Co138 N141 2.121 . S
Co138 O146 2.055 . S
Co138 O149 2.039 . S
Co138 N152 2.140 . S
C139 O140 1.227 . S
C139 O149 1.265 . S
O140 C139 1.227 . S
N141 Co138 2.121 . S
N141 C143 1.375 . S
N141 C144 1.313 . S
C142 C143 1.338 . S
C142 N145 1.377 . S
C142 H162 0.930 . S
C143 N141 1.375 . S
C143 C142 1.338 . S
C143 H147 0.931 . S
C144 N141 1.313 . S
C144 N145 1.344 . S
C144 H148 0.930 . S
N145 C142 1.377 . S
N145 C144 1.344 . S
O146 Co138 2.055 . S
O146 C150 1.253 . S
H147 C143 0.931 . S
H148 C144 0.930 . S
O149 Co138 2.039 . S
O149 C139 1.265 . S
C150 O146 1.253 . S
C150 O151 1.227 . S
O151 C150 1.227 . S
N152 Co138 2.140 . S
N152 C155 1.346 . S
N152 C156 1.345 . S
C153 C154 1.387 . S
C153 C157 1.391 . S
C154 C153 1.387 . S
C154 C155 1.369 . S
C154 H163 0.929 . S
C155 N152 1.346 . S
C155 C154 1.369 . S
C155 H158 0.928 . S
C156 N152 1.345 . S
C156 C157 1.371 . S
C156 H159 0.931 . S
C157 C153 1.391 . S
C157 C156 1.371 . S
C157 H164 0.930 . S
H158 C155 0.928 . S
H159 C156 0.931 . S
H160 C136 0.930 . S
H161 C133 0.930 . S
H162 C142 0.930 . S
H163 C154 0.929 . S
H164 C157 0.930 . S
C165 C166 1.351 . S
C165 N168 1.368 . S
C165 H170 0.931 . S
C166 C165 1.351 . S
C166 N167 1.373 . S
C166 H194 0.930 . S
N167 C166 1.373 . S
N167 C169 1.340 . S
N168 C165 1.368 . S
N168 C169 1.321 . S
N168 Co171 2.135 . S
C169 N167 1.340 . S
C169 N168 1.321 . S
C169 H193 0.930 . S
H170 C165 0.931 . S
Co171 N168 2.135 . S
Co171 N174 2.121 1_556 S
Co171 O179 2.055 . S
Co171 O182 2.039 1_556 S
Co171 N185 2.140 . S
C172 O173 1.227 . S
C172 O182 1.265 . S
O173 C172 1.227 . S
N174 Co171 2.121 1_554 S
N174 C176 1.375 . S
N174 C177 1.313 . S
C175 C176 1.338 . S
C175 N178 1.377 1_655 S
C175 H195 0.930 1_655 S
C176 N174 1.375 . S
C176 C175 1.338 . S
C176 H180 0.931 . S
C177 N174 1.313 . S
C177 N178 1.344 1_655 S
C177 H181 0.930 1_655 S
N178 C175 1.377 1_455 S
N178 C177 1.344 1_455 S
O179 Co171 2.055 . S
O179 C183 1.253 . S
H180 C176 0.931 . S
H181 C177 0.930 1_455 S
O182 Co171 2.039 1_554 S
O182 C172 1.265 . S
C183 O179 1.253 . S
C183 O184 1.227 . S
O184 C183 1.227 . S
N185 Co171 2.140 . S
N185 C188 1.346 . S
N185 C189 1.345 . S
C186 C187 1.387 . S
C186 C190 1.403 . S
C187 C186 1.387 . S
C187 C188 1.369 . S
C187 H196 0.929 . S
C188 N185 1.346 . S
C188 C187 1.369 . S
C188 H191 0.928 . S
C189 N185 1.345 . S
C189 C190 1.380 . S
C189 H192 0.934 . S
C190 C186 1.403 . S
C190 C189 1.380 . S
C190 H197 0.910 1_655 S
H191 C188 0.928 . S
H192 C189 0.934 . S
H193 C169 0.930 . S
H194 C166 0.930 . S
H195 C175 0.930 1_455 S
H196 C187 0.929 . S
H197 C190 0.910 1_455 S
C198 C199 1.351 . S
C198 N201 1.368 . S
C198 H203 0.931 . S
C199 C198 1.351 . S
C199 N200 1.373 . S
C199 H227 0.930 . S
N200 C199 1.373 . S
N200 C202 1.340 . S
N201 C198 1.368 . S
N201 C202 1.321 . S
N201 Co204 2.135 . S
C202 N200 1.340 . S
C202 N201 1.321 . S
C202 H226 0.930 . S
H203 C198 0.931 . S
Co204 N201 2.135 . S
Co204 N207 2.121 . S
Co204 O212 2.055 . S
Co204 O215 2.039 . S
Co204 N218 2.140 . S
C205 O206 1.227 . S
C205 O215 1.265 . S
O206 C205 1.227 . S
N207 Co204 2.121 . S
N207 C209 1.375 . S
N207 C210 1.313 . S
C208 C209 1.338 . S
C208 N211 1.377 . S
C208 H228 0.930 . S
C209 N207 1.375 . S
C209 C208 1.338 . S
C209 H213 0.931 . S
C210 N207 1.313 . S
C210 N211 1.344 . S
C210 H214 0.930 . S
N211 C208 1.377 . S
N211 C210 1.344 . S
O212 Co204 2.055 . S
O212 C216 1.253 . S
H213 C209 0.931 . S
H214 C210 0.930 . S
O215 Co204 2.039 . S
O215 C205 1.265 . S
C216 O212 1.253 . S
C216 O217 1.227 . S
O217 C216 1.227 . S
N218 Co204 2.140 . S
N218 C221 1.346 . S
N218 C222 1.345 . S
C219 C220 1.387 . S
C219 C223 1.391 . S
C220 C219 1.387 . S
C220 C221 1.369 . S
C220 H229 0.929 . S
C221 N218 1.346 . S
C221 C220 1.369 . S
C221 H224 0.928 . S
C222 N218 1.345 . S
C222 C223 1.371 . S
C222 H225 0.931 . S
C223 C219 1.391 . S
C223 C222 1.371 . S
C223 H230 0.930 . S
H224 C221 0.928 . S
H225 C222 0.931 . S
H226 C202 0.930 . S
H227 C199 0.930 . S
H228 C208 0.930 . S
H229 C220 0.929 . S
H230 C223 0.930 . S
C231 C232 1.351 . S
C231 N234 1.368 . S
C231 H236 0.931 . S
C232 C231 1.351 . S
C232 N233 1.373 . S
C232 H260 0.930 . S
N233 C232 1.373 . S
N233 C235 1.340 . S
N234 C231 1.368 . S
N234 C235 1.321 . S
N234 Co237 2.135 . S
C235 N233 1.340 . S
C235 N234 1.321 . S
C235 H259 0.930 . S
H236 C231 0.931 . S
Co237 N234 2.135 . S
Co237 N240 2.121 1_556 S
Co237 O245 2.055 . S
Co237 O248 2.039 1_556 S
Co237 N251 2.140 . S
C238 O239 1.227 . S
C238 O248 1.265 . S
O239 C238 1.227 . S
N240 Co237 2.121 1_554 S
N240 C242 1.375 . S
N240 C243 1.313 . S
C241 C242 1.338 . S
C241 N244 1.377 1_455 S
C241 H261 0.930 1_455 S
C242 N240 1.375 . S
C242 C241 1.338 . S
C242 H246 0.931 . S
C243 N240 1.313 . S
C243 N244 1.344 1_455 S
C243 H247 0.930 1_455 S
N244 C241 1.377 1_655 S
N244 C243 1.344 1_655 S
O245 Co237 2.055 . S
O245 C249 1.253 . S
H246 C242 0.931 . S
H247 C243 0.930 1_655 S
O248 Co237 2.039 1_554 S
O248 C238 1.265 . S
C249 O245 1.253 . S
C249 O250 1.227 . S
O250 C249 1.227 . S
N251 Co237 2.140 . S
N251 C254 1.346 . S
N251 C255 1.345 . S
C252 C253 1.387 . S
C252 C256 1.403 . S
C253 C252 1.387 . S
C253 C254 1.369 . S
C253 H262 0.929 . S
C254 N251 1.346 . S
C254 C253 1.369 . S
C254 H257 0.928 . S
C255 N251 1.345 . S
C255 C256 1.380 . S
C255 H258 0.934 . S
C256 C252 1.403 . S
C256 C255 1.380 . S
C256 H263 0.910 1_455 S
H257 C254 0.928 . S
H258 C255 0.934 . S
H259 C235 0.930 . S
H260 C232 0.930 . S
H261 C241 0.930 1_655 S
H262 C253 0.929 . S
H263 C256 0.910 1_655 S
C264 C265 1.351 . S
C264 N267 1.368 . S
C264 H269 0.931 . S
C265 C264 1.351 . S
C265 N266 1.373 . S
C265 H293 0.930 . S
N266 C265 1.373 . S
N266 C268 1.340 . S
N267 C264 1.368 . S
N267 C268 1.321 . S
N267 Co270 2.135 . S
C268 N266 1.340 . S
C268 N267 1.321 . S
C268 H292 0.930 . S
H269 C264 0.931 . S
Co270 N267 2.135 . S
Co270 N273 2.121 . S
Co270 O278 2.055 . S
Co270 O281 2.039 . S
Co270 N284 2.140 . S
C271 O272 1.227 . S
C271 O281 1.265 . S
O272 C271 1.227 . S
N273 Co270 2.121 . S
N273 C275 1.375 . S
N273 C276 1.313 . S
C274 C275 1.338 . S
C274 N277 1.377 . S
C274 H294 0.930 . S
C275 N273 1.375 . S
C275 C274 1.338 . S
C275 H279 0.931 . S
C276 N273 1.313 . S
C276 N277 1.344 . S
C276 H280 0.930 . S
N277 C274 1.377 . S
N277 C276 1.344 . S
O278 Co270 2.055 . S
O278 C282 1.253 . S
H279 C275 0.931 . S
H280 C276 0.930 . S
O281 Co270 2.039 . S
O281 C271 1.265 . S
C282 O278 1.253 . S
C282 O283 1.227 . S
O283 C282 1.227 . S
N284 Co270 2.140 . S
N284 C287 1.346 . S
N284 C288 1.345 . S
C285 C286 1.387 . S
C285 C289 1.391 . S
C286 C285 1.387 . S
C286 C287 1.369 . S
C286 H295 0.929 . S
C287 N284 1.346 . S
C287 C286 1.369 . S
C287 H290 0.928 . S
C288 N284 1.345 . S
C288 C289 1.371 . S
C288 H291 0.931 . S
C289 C285 1.391 . S
C289 C288 1.371 . S
C289 H296 0.930 . S
H290 C287 0.928 . S
H291 C288 0.931 . S
H292 C268 0.930 . S
H293 C265 0.930 . S
H294 C274 0.930 . S
H295 C286 0.929 . S
H296 C289 0.930 . S
C297 C298 1.351 . S
C297 N300 1.368 . S
C297 H302 0.931 . S
C298 C297 1.351 . S
C298 N299 1.373 . S
C298 H326 0.930 . S
N299 C298 1.373 . S
N299 C301 1.340 . S
N300 C297 1.368 . S
N300 C301 1.321 . S
N300 Co303 2.135 . S
C301 N299 1.340 . S
C301 N300 1.321 . S
C301 H325 0.930 . S
H302 C297 0.931 . S
Co303 N300 2.135 . S
Co303 N306 2.121 . S
Co303 O311 2.055 . S
Co303 O314 2.039 . S
Co303 N317 2.140 . S
C304 O305 1.227 . S
C304 O314 1.265 . S
O305 C304 1.227 . S
N306 Co303 2.121 . S
N306 C308 1.375 . S
N306 C309 1.313 . S
C307 C308 1.338 . S
C307 N310 1.377 1_556 S
C307 H327 0.930 1_556 S
C308 N306 1.375 . S
C308 C307 1.338 . S
C308 H312 0.931 . S
C309 N306 1.313 . S
C309 N310 1.344 1_556 S
C309 H313 0.930 1_556 S
N310 C307 1.377 1_554 S
N310 C309 1.344 1_554 S
O311 Co303 2.055 . S
O311 C315 1.253 . S
H312 C308 0.931 . S
H313 C309 0.930 1_554 S
O314 Co303 2.039 . S
O314 C304 1.265 . S
C315 O311 1.253 . S
C315 O316 1.227 . S
O316 C315 1.227 . S
N317 Co303 2.140 . S
N317 C320 1.346 . S
N317 C321 1.345 . S
C318 C319 1.387 . S
C318 C322 1.403 . S
C319 C318 1.387 . S
C319 C320 1.369 . S
C319 H328 0.929 . S
C320 N317 1.346 . S
C320 C319 1.369 . S
C320 H323 0.928 . S
C321 N317 1.345 . S
C321 C322 1.380 . S
C321 H324 0.934 . S
C322 C318 1.403 . S
C322 C321 1.380 . S
C322 H329 0.910 1_556 S
H323 C320 0.928 . S
H324 C321 0.934 . S
H325 C301 0.930 . S
H326 C298 0.930 . S
H327 C307 0.930 1_554 S
H328 C319 0.929 . S
H329 C322 0.910 1_554 S
C330 C331 1.351 . S
C330 N333 1.368 . S
C330 H335 0.931 . S
C331 C330 1.351 . S
C331 N332 1.373 . S
C331 H359 0.930 . S
N332 C331 1.373 . S
N332 C334 1.340 . S
N333 C330 1.368 . S
N333 C334 1.321 . S
N333 Co336 2.135 . S
C334 N332 1.340 . S
C334 N333 1.321 . S
C334 H358 0.930 . S
H335 C330 0.931 . S
Co336 N333 2.135 . S
Co336 N339 2.121 . S
Co336 O344 2.055 . S
Co336 O347 2.039 . S
Co336 N350 2.140 . S
C337 O338 1.227 . S
C337 O347 1.265 . S
O338 C337 1.227 . S
N339 Co336 2.121 . S
N339 C341 1.375 . S
N339 C342 1.313 . S
C340 C341 1.338 . S
C340 N343 1.377 . S
C340 H360 0.930 . S
C341 N339 1.375 . S
C341 C340 1.338 . S
C341 H345 0.931 . S
C342 N339 1.313 . S
C342 N343 1.344 . S
C342 H346 0.930 . S
N343 C340 1.377 . S
N343 C342 1.344 . S
O344 Co336 2.055 . S
O344 C348 1.253 . S
H345 C341 0.931 . S
H346 C342 0.930 . S
O347 Co336 2.039 . S
O347 C337 1.265 . S
C348 O344 1.253 . S
C348 O349 1.227 . S
O349 C348 1.227 . S
N350 Co336 2.140 . S
N350 C353 1.346 . S
N350 C354 1.345 . S
C351 C352 1.387 . S
C351 C355 1.391 . S
C352 C351 1.387 . S
C352 C353 1.369 . S
C352 H361 0.929 . S
C353 N350 1.346 . S
C353 C352 1.369 . S
C353 H356 0.928 . S
C354 N350 1.345 . S
C354 C355 1.371 . S
C354 H357 0.931 . S
C355 C351 1.391 . S
C355 C354 1.371 . S
C355 H362 0.930 . S
H356 C353 0.928 . S
H357 C354 0.931 . S
H358 C334 0.930 . S
H359 C331 0.930 . S
H360 C340 0.930 . S
H361 C352 0.929 . S
H362 C355 0.930 . S
C363 C364 1.351 . S
C363 N366 1.368 . S
C363 H368 0.931 . S
C364 C363 1.351 . S
C364 N365 1.373 . S
C364 H392 0.930 . S
N365 C364 1.373 . S
N365 C367 1.340 . S
N366 C363 1.368 . S
N366 C367 1.321 . S
N366 Co369 2.135 . S
C367 N365 1.340 . S
C367 N366 1.321 . S
C367 H391 0.930 . S
H368 C363 0.931 . S
Co369 N366 2.135 . S
Co369 N372 2.121 1_565 S
Co369 O377 2.055 . S
Co369 O380 2.039 1_565 S
Co369 N383 2.140 . S
C370 O371 1.227 . S
C370 O380 1.265 . S
O371 C370 1.227 . S
N372 Co369 2.121 1_545 S
N372 C374 1.375 . S
N372 C375 1.313 . S
C373 C374 1.338 . S
C373 N376 1.377 1_556 S
C373 H393 0.930 1_556 S
C374 N372 1.375 . S
C374 C373 1.338 . S
C374 H378 0.931 . S
C375 N372 1.313 . S
C375 N376 1.344 1_556 S
C375 H379 0.930 1_556 S
N376 C373 1.377 1_554 S
N376 C375 1.344 1_554 S
O377 Co369 2.055 . S
O377 C381 1.253 . S
H378 C374 0.931 . S
H379 C375 0.930 1_554 S
O380 Co369 2.039 1_545 S
O380 C370 1.265 . S
C381 O377 1.253 . S
C381 O382 1.227 . S
O382 C381 1.227 . S
N383 Co369 2.140 . S
N383 C386 1.346 . S
N383 C387 1.345 . S
C384 C385 1.387 . S
C384 C388 1.403 . S
C385 C384 1.387 . S
C385 C386 1.369 . S
C385 H394 0.929 . S
C386 N383 1.346 . S
C386 C385 1.369 . S
C386 H389 0.928 . S
C387 N383 1.345 . S
C387 C388 1.380 . S
C387 H390 0.934 . S
C388 C384 1.403 . S
C388 C387 1.380 . S
C388 H395 0.910 1_556 S
H389 C386 0.928 . S
H390 C387 0.934 . S
H391 C367 0.930 . S
H392 C364 0.930 . S
H393 C373 0.930 1_554 S
H394 C385 0.929 . S
H395 C388 0.910 1_554 S
C396 C397 1.351 . S
C396 N399 1.368 . S
C396 H401 0.931 . S
C397 C396 1.351 . S
C397 N398 1.373 . S
C397 H425 0.930 . S
N398 C397 1.373 . S
N398 C400 1.340 . S
N399 C396 1.368 . S
N399 C400 1.321 . S
N399 Co402 2.135 . S
C400 N398 1.340 . S
C400 N399 1.321 . S
C400 H424 0.930 . S
H401 C396 0.931 . S
Co402 N399 2.135 . S
Co402 N405 2.121 . S
Co402 O410 2.055 . S
Co402 O413 2.039 . S
Co402 N416 2.140 . S
C403 O404 1.227 . S
C403 O413 1.265 . S
O404 C403 1.227 . S
N405 Co402 2.121 . S
N405 C407 1.375 . S
N405 C408 1.313 . S
C406 C407 1.338 . S
C406 N409 1.377 . S
C406 H426 0.930 . S
C407 N405 1.375 . S
C407 C406 1.338 . S
C407 H411 0.931 . S
C408 N405 1.313 . S
C408 N409 1.344 . S
C408 H412 0.930 . S
N409 C406 1.377 . S
N409 C408 1.344 . S
O410 Co402 2.055 . S
O410 C414 1.253 . S
H411 C407 0.931 . S
H412 C408 0.930 . S
O413 Co402 2.039 . S
O413 C403 1.265 . S
C414 O410 1.253 . S
C414 O415 1.227 . S
O415 C414 1.227 . S
N416 Co402 2.140 . S
N416 C419 1.346 . S
N416 C420 1.345 . S
C417 C418 1.387 . S
C417 C421 1.391 . S
C418 C417 1.387 . S
C418 C419 1.369 . S
C418 H427 0.929 . S
C419 N416 1.346 . S
C419 C418 1.369 . S
C419 H422 0.928 . S
C420 N416 1.345 . S
C420 C421 1.371 . S
C420 H423 0.931 . S
C421 C417 1.391 . S
C421 C420 1.371 . S
C421 H428 0.930 . S
H422 C419 0.928 . S
H423 C420 0.931 . S
H424 C400 0.930 . S
H425 C397 0.930 . S
H426 C406 0.930 . S
H427 C418 0.929 . S
H428 C421 0.930 . S
C429 C430 1.351 . S
C429 N432 1.368 . S
C429 H434 0.931 . S
C430 C429 1.351 . S
C430 N431 1.373 . S
C430 H458 0.930 . S
N431 C430 1.373 . S
N431 C433 1.340 . S
N432 C429 1.368 . S
N432 C433 1.321 . S
N432 Co435 2.135 . S
C433 N431 1.340 . S
C433 N432 1.321 . S
C433 H457 0.930 . S
H434 C429 0.931 . S
Co435 N432 2.135 . S
Co435 N438 2.121 . S
Co435 O443 2.055 . S
Co435 O446 2.039 . S
Co435 N449 2.140 . S
C436 O437 1.227 . S
C436 O446 1.265 . S
O437 C436 1.227 . S
N438 Co435 2.121 . S
N438 C440 1.375 . S
N438 C441 1.313 . S
C439 C440 1.338 . S
C439 N442 1.377 1_554 S
C439 H459 0.930 1_554 S
C440 N438 1.375 . S
C440 C439 1.338 . S
C440 H444 0.931 . S
C441 N438 1.313 . S
C441 N442 1.344 1_554 S
C441 H445 0.930 1_554 S
N442 C439 1.377 1_556 S
N442 C441 1.344 1_556 S
O443 Co435 2.055 . S
O443 C447 1.253 . S
H444 C440 0.931 . S
H445 C441 0.930 1_556 S
O446 Co435 2.039 . S
O446 C436 1.265 . S
C447 O443 1.253 . S
C447 O448 1.227 . S
O448 C447 1.227 . S
N449 Co435 2.140 . S
N449 C452 1.346 . S
N449 C453 1.345 . S
C450 C451 1.387 . S
C450 C454 1.403 . S
C451 C450 1.387 . S
C451 C452 1.369 . S
C451 H460 0.929 . S
C452 N449 1.346 . S
C452 C451 1.369 . S
C452 H455 0.928 . S
C453 N449 1.345 . S
C453 C454 1.380 . S
C453 H456 0.934 . S
C454 C450 1.403 . S
C454 C453 1.380 . S
C454 H461 0.910 1_554 S
H455 C452 0.928 . S
H456 C453 0.934 . S
H457 C433 0.930 . S
H458 C430 0.930 . S
H459 C439 0.930 1_556 S
H460 C451 0.929 . S
H461 C454 0.910 1_556 S
C462 C463 1.351 . S
C462 N465 1.368 . S
C462 H467 0.931 . S
C463 C462 1.351 . S
C463 N464 1.373 . S
C463 H491 0.930 . S
N464 C463 1.373 . S
N464 C466 1.340 . S
N465 C462 1.368 . S
N465 C466 1.321 . S
N465 Co468 2.135 . S
C466 N464 1.340 . S
C466 N465 1.321 . S
C466 H490 0.930 . S
H467 C462 0.931 . S
Co468 N465 2.135 . S
Co468 N471 2.121 . S
Co468 O476 2.055 . S
Co468 O479 2.039 . S
Co468 N482 2.140 . S
C469 O470 1.227 . S
C469 O479 1.265 . S
O470 C469 1.227 . S
N471 Co468 2.121 . S
N471 C473 1.375 . S
N471 C474 1.313 . S
C472 C473 1.338 . S
C472 N475 1.377 . S
C472 H492 0.930 . S
C473 N471 1.375 . S
C473 C472 1.338 . S
C473 H477 0.931 . S
C474 N471 1.313 . S
C474 N475 1.344 . S
C474 H478 0.930 . S
N475 C472 1.377 . S
N475 C474 1.344 . S
O476 Co468 2.055 . S
O476 C480 1.253 . S
H477 C473 0.931 . S
H478 C474 0.930 . S
O479 Co468 2.039 . S
O479 C469 1.265 . S
C480 O476 1.253 . S
C480 O481 1.227 . S
O481 C480 1.227 . S
N482 Co468 2.140 . S
N482 C485 1.346 . S
N482 C486 1.345 . S
C483 C484 1.387 . S
C483 C487 1.391 . S
C484 C483 1.387 . S
C484 C485 1.369 . S
C484 H493 0.929 . S
C485 N482 1.346 . S
C485 C484 1.369 . S
C485 H488 0.928 . S
C486 N482 1.345 . S
C486 C487 1.371 . S
C486 H489 0.931 . S
C487 C483 1.391 . S
C487 C486 1.371 . S
C487 H494 0.930 . S
H488 C485 0.928 . S
H489 C486 0.931 . S
H490 C466 0.930 . S
H491 C463 0.930 . S
H492 C472 0.930 . S
H493 C484 0.929 . S
H494 C487 0.930 . S
C495 C496 1.351 . S
C495 N498 1.368 . S
C495 H500 0.931 . S
C496 C495 1.351 . S
C496 N497 1.373 . S
C496 H524 0.930 . S
N497 C496 1.373 . S
N497 C499 1.340 . S
N498 C495 1.368 . S
N498 C499 1.321 . S
N498 Co501 2.135 . S
C499 N497 1.340 . S
C499 N498 1.321 . S
C499 H523 0.930 . S
H500 C495 0.931 . S
Co501 N498 2.135 . S
Co501 N504 2.121 1_565 S
Co501 O509 2.055 . S
Co501 O512 2.039 1_565 S
Co501 N515 2.140 . S
C502 O503 1.227 . S
C502 O512 1.265 . S
O503 C502 1.227 . S
N504 Co501 2.121 1_545 S
N504 C506 1.375 . S
N504 C507 1.313 . S
C505 C506 1.338 . S
C505 N508 1.377 1_554 S
C505 H525 0.930 1_554 S
C506 N504 1.375 . S
C506 C505 1.338 . S
C506 H510 0.931 . S
C507 N504 1.313 . S
C507 N508 1.344 1_554 S
C507 H511 0.930 1_554 S
N508 C505 1.377 1_556 S
N508 C507 1.344 1_556 S
O509 Co501 2.055 . S
O509 C513 1.253 . S
H510 C506 0.931 . S
H511 C507 0.930 1_556 S
O512 Co501 2.039 1_545 S
O512 C502 1.265 . S
C513 O509 1.253 . S
C513 O514 1.227 . S
O514 C513 1.227 . S
N515 Co501 2.140 . S
N515 C518 1.346 . S
N515 C519 1.345 . S
C516 C517 1.387 . S
C516 C520 1.403 . S
C517 C516 1.387 . S
C517 C518 1.369 . S
C517 H526 0.929 . S
C518 N515 1.346 . S
C518 C517 1.369 . S
C518 H521 0.928 . S
C519 N515 1.345 . S
C519 C520 1.380 . S
C519 H522 0.934 . S
C520 C516 1.403 . S
C520 C519 1.380 . S
C520 H527 0.910 1_554 S
H521 C518 0.928 . S
H522 C519 0.934 . S
H523 C499 0.930 . S
H524 C496 0.930 . S
H525 C505 0.930 1_556 S
H526 C517 0.929 . S
H527 C520 0.910 1_556 S
C528 C529 1.351 . S
C528 N531 1.368 . S
C528 H533 0.931 . S
C529 C528 1.351 . S
C529 N530 1.373 . S
C529 H557 0.930 . S
N530 C529 1.373 . S
N530 C532 1.340 . S
N531 C528 1.368 . S
N531 C532 1.321 . S
N531 Co534 2.135 . S
C532 N530 1.340 . S
C532 N531 1.321 . S
C532 H556 0.930 . S
H533 C528 0.931 . S
Co534 N531 2.135 . S
Co534 N537 2.121 . S
Co534 O542 2.055 . S
Co534 O545 2.039 . S
Co534 N548 2.140 . S
C535 O536 1.227 . S
C535 O545 1.265 . S
O536 C535 1.227 . S
N537 Co534 2.121 . S
N537 C539 1.375 . S
N537 C540 1.313 . S
C538 C539 1.338 . S
C538 N541 1.377 . S
C538 H558 0.930 . S
C539 N537 1.375 . S
C539 C538 1.338 . S
C539 H543 0.931 . S
C540 N537 1.313 . S
C540 N541 1.344 . S
C540 H544 0.930 . S
N541 C538 1.377 . S
N541 C540 1.344 . S
O542 Co534 2.055 . S
O542 C546 1.253 . S
H543 C539 0.931 . S
H544 C540 0.930 . S
O545 Co534 2.039 . S
O545 C535 1.265 . S
C546 O542 1.253 . S
C546 O547 1.227 . S
O547 C546 1.227 . S
N548 Co534 2.140 . S
N548 C551 1.346 . S
N548 C552 1.345 . S
C549 C550 1.387 . S
C549 C553 1.391 . S
C550 C549 1.387 . S
C550 C551 1.369 . S
C550 H559 0.929 . S
C551 N548 1.346 . S
C551 C550 1.369 . S
C551 H554 0.928 . S
C552 N548 1.345 . S
C552 C553 1.371 . S
C552 H555 0.931 . S
C553 C549 1.391 . S
C553 C552 1.371 . S
C553 H560 0.930 . S
H554 C551 0.928 . S
H555 C552 0.931 . S
H556 C532 0.930 . S
H557 C529 0.930 . S
H558 C538 0.930 . S
H559 C550 0.929 . S
H560 C553 0.930 . S
C561 C562 1.351 . S
C561 N564 1.368 . S
C561 H566 0.931 . S
C562 C561 1.351 . S
C562 N563 1.373 . S
C562 H590 0.930 . S
N563 C562 1.373 . S
N563 C565 1.340 . S
N564 C561 1.368 . S
N564 C565 1.321 . S
N564 Co567 2.135 . S
C565 N563 1.340 . S
C565 N564 1.321 . S
C565 H589 0.930 . S
H566 C561 0.931 . S
Co567 N564 2.135 . S
Co567 N570 2.121 . S
Co567 O575 2.055 . S
Co567 O578 2.039 . S
Co567 N581 2.140 . S
C568 O569 1.227 . S
C568 O578 1.265 . S
O569 C568 1.227 . S
N570 Co567 2.121 . S
N570 C572 1.375 . S
N570 C573 1.313 . S
C571 C572 1.338 . S
C571 N574 1.377 . S
C571 H591 0.930 . S
C572 N570 1.375 . S
C572 C571 1.338 . S
C572 H576 0.931 . S
C573 N570 1.313 . S
C573 N574 1.344 . S
C573 H577 0.930 . S
N574 C571 1.377 . S
N574 C573 1.344 . S
O575 Co567 2.055 . S
O575 C579 1.253 . S
H576 C572 0.931 . S
H577 C573 0.930 . S
O578 Co567 2.039 . S
O578 C568 1.265 . S
C579 O575 1.253 . S
C579 O580 1.227 . S
O580 C579 1.227 . S
N581 Co567 2.140 . S
N581 C584 1.346 . S
N581 C585 1.345 . S
C582 C583 1.387 . S
C582 C586 1.391 . S
C583 C582 1.387 . S
C583 C584 1.369 . S
C583 H592 0.929 . S
C584 N581 1.346 . S
C584 C583 1.369 . S
C584 H587 0.928 . S
C585 N581 1.345 . S
C585 C586 1.371 . S
C585 H588 0.931 . S
C586 C582 1.391 . S
C586 C585 1.371 . S
C586 H593 0.930 . S
H587 C584 0.928 . S
H588 C585 0.931 . S
H589 C565 0.930 . S
H590 C562 0.930 . S
H591 C571 0.930 . S
H592 C583 0.929 . S
H593 C586 0.930 . S
C594 C595 1.351 . S
C594 N597 1.368 . S
C594 H599 0.931 . S
C595 C594 1.351 . S
C595 N596 1.373 . S
C595 H623 0.930 . S
N596 C595 1.373 . S
N596 C598 1.340 . S
N597 C594 1.368 . S
N597 C598 1.321 . S
N597 Co600 2.135 . S
C598 N596 1.340 . S
C598 N597 1.321 . S
C598 H622 0.930 . S
H599 C594 0.931 . S
Co600 N597 2.135 . S
Co600 N603 2.121 1_455 S
Co600 O608 2.055 . S
Co600 O611 2.039 1_455 S
Co600 N614 2.140 . S
C601 O602 1.227 . S
C601 O611 1.265 . S
O602 C601 1.227 . S
N603 Co600 2.121 1_655 S
N603 C605 1.375 . S
N603 C606 1.313 . S
C604 C605 1.338 . S
C604 N607 1.377 . S
C604 H624 0.930 . S
C605 N603 1.375 . S
C605 C604 1.338 . S
C605 H609 0.931 . S
C606 N603 1.313 . S
C606 N607 1.344 . S
C606 H610 0.930 . S
N607 C604 1.377 . S
N607 C606 1.344 . S
O608 Co600 2.055 . S
O608 C612 1.253 . S
H609 C605 0.931 . S
H610 C606 0.930 . S
O611 Co600 2.039 1_655 S
O611 C601 1.265 . S
C612 O608 1.253 . S
C612 O613 1.227 . S
O613 C612 1.227 . S
N614 Co600 2.140 . S
N614 C617 1.346 . S
N614 C618 1.345 . S
C615 C616 1.387 . S
C615 C619 1.391 . S
C616 C615 1.387 . S
C616 C617 1.369 . S
C616 H625 0.929 . S
C617 N614 1.346 . S
C617 C616 1.369 . S
C617 H620 0.928 . S
C618 N614 1.345 . S
C618 C619 1.371 . S
C618 H621 0.931 . S
C619 C615 1.391 . S
C619 C618 1.371 . S
C619 H626 0.930 . S
H620 C617 0.928 . S
H621 C618 0.931 . S
H622 C598 0.930 . S
H623 C595 0.930 . S
H624 C604 0.930 . S
H625 C616 0.929 . S
H626 C619 0.930 . S
C627 C628 1.351 . S
C627 N630 1.368 . S
C627 H632 0.931 . S
C628 C627 1.351 . S
C628 N629 1.373 . S
C628 H656 0.930 . S
N629 C628 1.373 . S
N629 C631 1.340 . S
N630 C627 1.368 . S
N630 C631 1.321 . S
N630 Co633 2.135 . S
C631 N629 1.340 . S
C631 N630 1.321 . S
C631 H655 0.930 . S
H632 C627 0.931 . S
Co633 N630 2.135 . S
Co633 N636 2.121 . S
Co633 O641 2.055 . S
Co633 O644 2.039 . S
Co633 N647 2.140 . S
C634 O635 1.227 . S
C634 O644 1.265 . S
O635 C634 1.227 . S
N636 Co633 2.121 . S
N636 C638 1.375 . S
N636 C639 1.313 . S
C637 C638 1.338 . S
C637 N640 1.377 . S
C637 H657 0.930 . S
C638 N636 1.375 . S
C638 C637 1.338 . S
C638 H642 0.931 . S
C639 N636 1.313 . S
C639 N640 1.344 . S
C639 H643 0.930 . S
N640 C637 1.377 . S
N640 C639 1.344 . S
O641 Co633 2.055 . S
O641 C645 1.253 . S
H642 C638 0.931 . S
H643 C639 0.930 . S
O644 Co633 2.039 . S
O644 C634 1.265 . S
C645 O641 1.253 . S
C645 O646 1.227 . S
O646 C645 1.227 . S
N647 Co633 2.140 . S
N647 C650 1.346 . S
N647 C651 1.345 . S
C648 C649 1.387 . S
C648 C652 1.391 . S
C649 C648 1.387 . S
C649 C650 1.369 . S
C649 H658 0.929 . S
C650 N647 1.346 . S
C650 C649 1.369 . S
C650 H653 0.928 . S
C651 N647 1.345 . S
C651 C652 1.371 . S
C651 H654 0.931 . S
C652 C648 1.391 . S
C652 C651 1.371 . S
C652 H659 0.930 . S
H653 C650 0.928 . S
H654 C651 0.931 . S
H655 C631 0.930 . S
H656 C628 0.930 . S
H657 C637 0.930 . S
H658 C649 0.929 . S
H659 C652 0.930 . S
C660 C661 1.351 . S
C660 N663 1.368 . S
C660 H665 0.931 . S
C661 C660 1.351 . S
C661 N662 1.373 . S
C661 H689 0.930 . S
N662 C661 1.373 . S
N662 C664 1.340 . S
N663 C660 1.368 . S
N663 C664 1.321 . S
N663 Co666 2.135 . S
C664 N662 1.340 . S
C664 N663 1.321 . S
C664 H688 0.930 . S
H665 C660 0.931 . S
Co666 N663 2.135 . S
Co666 N669 2.121 . S
Co666 O674 2.055 . S
Co666 O677 2.039 . S
Co666 N680 2.140 . S
C667 O668 1.227 . S
C667 O677 1.265 . S
O668 C667 1.227 . S
N669 Co666 2.121 . S
N669 C671 1.375 . S
N669 C672 1.313 . S
C670 C671 1.338 . S
C670 N673 1.377 . S
C670 H690 0.930 . S
C671 N669 1.375 . S
C671 C670 1.338 . S
C671 H675 0.931 . S
C672 N669 1.313 . S
C672 N673 1.344 . S
C672 H676 0.930 . S
N673 C670 1.377 . S
N673 C672 1.344 . S
O674 Co666 2.055 . S
O674 C678 1.253 . S
H675 C671 0.931 . S
H676 C672 0.930 . S
O677 Co666 2.039 . S
O677 C667 1.265 . S
C678 O674 1.253 . S
C678 O679 1.227 . S
O679 C678 1.227 . S
N680 Co666 2.140 . S
N680 C683 1.346 . S
N680 C684 1.345 . S
C681 C682 1.387 . S
C681 C685 1.391 . S
C682 C681 1.387 . S
C682 C683 1.369 . S
C682 H691 0.929 . S
C683 N680 1.346 . S
C683 C682 1.369 . S
C683 H686 0.928 . S
C684 N680 1.345 . S
C684 C685 1.371 . S
C684 H687 0.931 . S
C685 C681 1.391 . S
C685 C684 1.371 . S
C685 H692 0.930 . S
H686 C683 0.928 . S
H687 C684 0.931 . S
H688 C664 0.930 . S
H689 C661 0.930 . S
H690 C670 0.930 . S
H691 C682 0.929 . S
H692 C685 0.930 . S
C693 C694 1.351 . S
C693 N696 1.368 . S
C693 H698 0.931 . S
C694 C693 1.351 . S
C694 N695 1.373 . S
C694 H722 0.930 . S
N695 C694 1.373 . S
N695 C697 1.340 . S
N696 C693 1.368 . S
N696 C697 1.321 . S
N696 Co699 2.135 . S
C697 N695 1.340 . S
C697 N696 1.321 . S
C697 H721 0.930 . S
H698 C693 0.931 . S
Co699 N696 2.135 . S
Co699 N702 2.121 . S
Co699 O707 2.055 . S
Co699 O710 2.039 . S
Co699 N713 2.140 . S
C700 O701 1.227 . S
C700 O710 1.265 . S
O701 C700 1.227 . S
N702 Co699 2.121 . S
N702 C704 1.375 . S
N702 C705 1.313 . S
C703 C704 1.338 . S
C703 N706 1.377 . S
C703 H723 0.930 . S
C704 N702 1.375 . S
C704 C703 1.338 . S
C704 H708 0.931 . S
C705 N702 1.313 . S
C705 N706 1.344 . S
C705 H709 0.930 . S
N706 C703 1.377 . S
N706 C705 1.344 . S
O707 Co699 2.055 . S
O707 C711 1.253 . S
H708 C704 0.931 . S
H709 C705 0.930 . S
O710 Co699 2.039 . S
O710 C700 1.265 . S
C711 O707 1.253 . S
C711 O712 1.227 . S
O712 C711 1.227 . S
N713 Co699 2.140 . S
N713 C716 1.346 . S
N713 C717 1.345 . S
C714 C715 1.387 . S
C714 C718 1.391 . S
C715 C714 1.387 . S
C715 C716 1.369 . S
C715 H724 0.929 . S
C716 N713 1.346 . S
C716 C715 1.369 . S
C716 H719 0.928 . S
C717 N713 1.345 . S
C717 C718 1.371 . S
C717 H720 0.931 . S
C718 C714 1.391 . S
C718 C717 1.371 . S
C718 H725 0.930 . S
H719 C716 0.928 . S
H720 C717 0.931 . S
H721 C697 0.930 . S
H722 C694 0.930 . S
H723 C703 0.930 . S
H724 C715 0.929 . S
H725 C718 0.930 . S
C726 C727 1.351 . S
C726 N729 1.368 . S
C726 H731 0.931 . S
C727 C726 1.351 . S
C727 N728 1.373 . S
C727 H755 0.930 . S
N728 C727 1.373 . S
N728 C730 1.340 . S
N729 C726 1.368 . S
N729 C730 1.321 . S
N729 Co732 2.135 . S
C730 N728 1.340 . S
C730 N729 1.321 . S
C730 H754 0.930 . S
H731 C726 0.931 . S
Co732 N729 2.135 . S
Co732 N735 2.121 1_455 S
Co732 O740 2.055 . S
Co732 O743 2.039 1_455 S
Co732 N746 2.140 . S
C733 O734 1.227 . S
C733 O743 1.265 . S
O734 C733 1.227 . S
N735 Co732 2.121 1_655 S
N735 C737 1.375 . S
N735 C738 1.313 . S
C736 C737 1.338 . S
C736 N739 1.377 . S
C736 H756 0.930 . S
C737 N735 1.375 . S
C737 C736 1.338 . S
C737 H741 0.931 . S
C738 N735 1.313 . S
C738 N739 1.344 . S
C738 H742 0.930 . S
N739 C736 1.377 . S
N739 C738 1.344 . S
O740 Co732 2.055 . S
O740 C744 1.253 . S
H741 C737 0.931 . S
H742 C738 0.930 . S
O743 Co732 2.039 1_655 S
O743 C733 1.265 . S
C744 O740 1.253 . S
C744 O745 1.227 . S
O745 C744 1.227 . S
N746 Co732 2.140 . S
N746 C749 1.346 . S
N746 C750 1.345 . S
C747 C748 1.387 . S
C747 C751 1.391 . S
C748 C747 1.387 . S
C748 C749 1.369 . S
C748 H757 0.929 . S
C749 N746 1.346 . S
C749 C748 1.369 . S
C749 H752 0.928 . S
C750 N746 1.345 . S
C750 C751 1.371 . S
C750 H753 0.931 . S
C751 C747 1.391 . S
C751 C750 1.371 . S
C751 H758 0.930 . S
H752 C749 0.928 . S
H753 C750 0.931 . S
H754 C730 0.930 . S
H755 C727 0.930 . S
H756 C736 0.930 . S
H757 C748 0.929 . S
H758 C751 0.930 . S
C759 C760 1.351 . S
C759 N762 1.368 . S
C759 H764 0.931 . S
C760 C759 1.351 . S
C760 N761 1.373 . S
C760 H788 0.930 . S
N761 C760 1.373 . S
N761 C763 1.340 . S
N762 C759 1.368 . S
N762 C763 1.321 . S
N762 Co765 2.135 . S
C763 N761 1.340 . S
C763 N762 1.321 . S
C763 H787 0.930 . S
H764 C759 0.931 . S
Co765 N762 2.135 . S
Co765 N768 2.121 1_655 S
Co765 O773 2.055 . S
Co765 O776 2.039 1_655 S
Co765 N779 2.140 . S
C766 O767 1.227 . S
C766 O776 1.265 . S
O767 C766 1.227 . S
N768 Co765 2.121 1_455 S
N768 C770 1.375 . S
N768 C771 1.313 . S
C769 C770 1.338 . S
C769 N772 1.377 1_565 S
C769 H789 0.930 1_565 S
C770 N768 1.375 . S
C770 C769 1.338 . S
C770 H774 0.931 . S
C771 N768 1.313 . S
C771 N772 1.344 1_565 S
C771 H775 0.930 1_565 S
N772 C769 1.377 1_545 S
N772 C771 1.344 1_545 S
O773 Co765 2.055 . S
O773 C777 1.253 . S
H774 C770 0.931 . S
H775 C771 0.930 1_545 S
O776 Co765 2.039 1_455 S
O776 C766 1.265 . S
C777 O773 1.253 . S
C777 O778 1.227 . S
O778 C777 1.227 . S
N779 Co765 2.140 . S
N779 C782 1.346 . S
N779 C783 1.345 . S
C780 C781 1.387 . S
C780 C784 1.403 . S
C781 C780 1.387 . S
C781 C782 1.369 . S
C781 H790 0.929 . S
C782 N779 1.346 . S
C782 C781 1.369 . S
C782 H785 0.928 . S
C783 N779 1.345 . S
C783 C784 1.380 . S
C783 H786 0.934 . S
C784 C780 1.403 . S
C784 C783 1.380 . S
C784 H791 0.910 1_565 S
H785 C782 0.928 . S
H786 C783 0.934 . S
H787 C763 0.930 . S
H788 C760 0.930 . S
H789 C769 0.930 1_545 S
H790 C781 0.929 . S
H791 C784 0.910 1_545 S
C792 C793 1.351 . S
C792 N795 1.368 . S
C792 H797 0.931 . S
C793 C792 1.351 . S
C793 N794 1.373 . S
C793 H821 0.930 . S
N794 C793 1.373 . S
N794 C796 1.340 . S
N795 C792 1.368 . S
N795 C796 1.321 . S
N795 Co798 2.135 . S
C796 N794 1.340 . S
C796 N795 1.321 . S
C796 H820 0.930 . S
H797 C792 0.931 . S
Co798 N795 2.135 . S
Co798 N801 2.121 . S
Co798 O806 2.055 . S
Co798 O809 2.039 . S
Co798 N812 2.140 . S
C799 O800 1.227 . S
C799 O809 1.265 . S
O800 C799 1.227 . S
N801 Co798 2.121 . S
N801 C803 1.375 . S
N801 C804 1.313 . S
C802 C803 1.338 . S
C802 N805 1.377 . S
C802 H822 0.930 . S
C803 N801 1.375 . S
C803 C802 1.338 . S
C803 H807 0.931 . S
C804 N801 1.313 . S
C804 N805 1.344 . S
C804 H808 0.930 . S
N805 C802 1.377 . S
N805 C804 1.344 . S
O806 Co798 2.055 . S
O806 C810 1.253 . S
H807 C803 0.931 . S
H808 C804 0.930 . S
O809 Co798 2.039 . S
O809 C799 1.265 . S
C810 O806 1.253 . S
C810 O811 1.227 . S
O811 C810 1.227 . S
N812 Co798 2.140 . S
N812 C815 1.346 . S
N812 C816 1.345 . S
C813 C814 1.387 . S
C813 C817 1.391 . S
C814 C813 1.387 . S
C814 C815 1.369 . S
C814 H823 0.929 . S
C815 N812 1.346 . S
C815 C814 1.369 . S
C815 H818 0.928 . S
C816 N812 1.345 . S
C816 C817 1.371 . S
C816 H819 0.931 . S
C817 C813 1.391 . S
C817 C816 1.371 . S
C817 H824 0.930 . S
H818 C815 0.928 . S
H819 C816 0.931 . S
H820 C796 0.930 . S
H821 C793 0.930 . S
H822 C802 0.930 . S
H823 C814 0.929 . S
H824 C817 0.930 . S
C825 C826 1.351 . S
C825 N828 1.368 . S
C825 H830 0.931 . S
C826 C825 1.351 . S
C826 N827 1.373 . S
C826 H854 0.930 . S
N827 C826 1.373 . S
N827 C829 1.340 . S
N828 C825 1.368 . S
N828 C829 1.321 . S
N828 Co831 2.135 . S
C829 N827 1.340 . S
C829 N828 1.321 . S
C829 H853 0.930 . S
H830 C825 0.931 . S
Co831 N828 2.135 . S
Co831 N834 2.121 . S
Co831 O839 2.055 . S
Co831 O842 2.039 . S
Co831 N845 2.140 . S
C832 O833 1.227 . S
C832 O842 1.265 . S
O833 C832 1.227 . S
N834 Co831 2.121 . S
N834 C836 1.375 . S
N834 C837 1.313 . S
C835 C836 1.338 . S
C835 N838 1.377 1_455 S
C835 H855 0.930 1_455 S
C836 N834 1.375 . S
C836 C835 1.338 . S
C836 H840 0.931 . S
C837 N834 1.313 . S
C837 N838 1.344 1_455 S
C837 H841 0.930 1_455 S
N838 C835 1.377 1_655 S
N838 C837 1.344 1_655 S
O839 Co831 2.055 . S
O839 C843 1.253 . S
H840 C836 0.931 . S
H841 C837 0.930 1_655 S
O842 Co831 2.039 . S
O842 C832 1.265 . S
C843 O839 1.253 . S
C843 O844 1.227 . S
O844 C843 1.227 . S
N845 Co831 2.140 . S
N845 C848 1.346 . S
N845 C849 1.345 . S
C846 C847 1.387 . S
C846 C850 1.403 . S
C847 C846 1.387 . S
C847 C848 1.369 . S
C847 H856 0.929 . S
C848 N845 1.346 . S
C848 C847 1.369 . S
C848 H851 0.928 . S
C849 N845 1.345 . S
C849 C850 1.380 . S
C849 H852 0.934 . S
C850 C846 1.403 . S
C850 C849 1.380 . S
C850 H857 0.910 1_455 S
H851 C848 0.928 . S
H852 C849 0.934 . S
H853 C829 0.930 . S
H854 C826 0.930 . S
H855 C835 0.930 1_655 S
H856 C847 0.929 . S
H857 C850 0.910 1_655 S
C858 C859 1.351 . S
C858 N861 1.368 . S
C858 H863 0.931 . S
C859 C858 1.351 . S
C859 N860 1.373 . S
C859 H887 0.930 . S
N860 C859 1.373 . S
N860 C862 1.340 . S
N861 C858 1.368 . S
N861 C862 1.321 . S
N861 Co864 2.135 . S
C862 N860 1.340 . S
C862 N861 1.321 . S
C862 H886 0.930 . S
H863 C858 0.931 . S
Co864 N861 2.135 . S
Co864 N867 2.121 . S
Co864 O872 2.055 . S
Co864 O875 2.039 . S
Co864 N878 2.140 . S
C865 O866 1.227 . S
C865 O875 1.265 . S
O866 C865 1.227 . S
N867 Co864 2.121 . S
N867 C869 1.375 . S
N867 C870 1.313 . S
C868 C869 1.338 . S
C868 N871 1.377 . S
C868 H888 0.930 . S
C869 N867 1.375 . S
C869 C868 1.338 . S
C869 H873 0.931 . S
C870 N867 1.313 . S
C870 N871 1.344 . S
C870 H874 0.930 . S
N871 C868 1.377 . S
N871 C870 1.344 . S
O872 Co864 2.055 . S
O872 C876 1.253 . S
H873 C869 0.931 . S
H874 C870 0.930 . S
O875 Co864 2.039 . S
O875 C865 1.265 . S
C876 O872 1.253 . S
C876 O877 1.227 . S
O877 C876 1.227 . S
N878 Co864 2.140 . S
N878 C881 1.346 . S
N878 C882 1.345 . S
C879 C880 1.387 . S
C879 C883 1.391 . S
C880 C879 1.387 . S
C880 C881 1.369 . S
C880 H889 0.929 . S
C881 N878 1.346 . S
C881 C880 1.369 . S
C881 H884 0.928 . S
C882 N878 1.345 . S
C882 C883 1.371 . S
C882 H885 0.931 . S
C883 C879 1.391 . S
C883 C882 1.371 . S
C883 H890 0.930 . S
H884 C881 0.928 . S
H885 C882 0.931 . S
H886 C862 0.930 . S
H887 C859 0.930 . S
H888 C868 0.930 . S
H889 C880 0.929 . S
H890 C883 0.930 . S
C891 C892 1.351 . S
C891 N894 1.368 . S
C891 H896 0.931 . S
C892 C891 1.351 . S
C892 N893 1.373 . S
C892 H920 0.930 . S
N893 C892 1.373 . S
N893 C895 1.340 . S
N894 C891 1.368 . S
N894 C895 1.321 . S
N894 Co897 2.135 . S
C895 N893 1.340 . S
C895 N894 1.321 . S
C895 H919 0.930 . S
H896 C891 0.931 . S
Co897 N894 2.135 . S
Co897 N900 2.121 . S
Co897 O905 2.055 . S
Co897 O908 2.039 . S
Co897 N911 2.140 . S
C898 O899 1.227 . S
C898 O908 1.265 . S
O899 C898 1.227 . S
N900 Co897 2.121 . S
N900 C902 1.375 . S
N900 C903 1.313 . S
C901 C902 1.338 . S
C901 N904 1.377 1_655 S
C901 H921 0.930 1_655 S
C902 N900 1.375 . S
C902 C901 1.338 . S
C902 H906 0.931 . S
C903 N900 1.313 . S
C903 N904 1.344 1_655 S
C903 H907 0.930 1_655 S
N904 C901 1.377 1_455 S
N904 C903 1.344 1_455 S
O905 Co897 2.055 . S
O905 C909 1.253 . S
H906 C902 0.931 . S
H907 C903 0.930 1_455 S
O908 Co897 2.039 . S
O908 C898 1.265 . S
C909 O905 1.253 . S
C909 O910 1.227 . S
O910 C909 1.227 . S
N911 Co897 2.140 . S
N911 C914 1.346 . S
N911 C915 1.345 . S
C912 C913 1.387 . S
C912 C916 1.403 . S
C913 C912 1.387 . S
C913 C914 1.369 . S
C913 H922 0.929 . S
C914 N911 1.346 . S
C914 C913 1.369 . S
C914 H917 0.928 . S
C915 N911 1.345 . S
C915 C916 1.380 . S
C915 H918 0.934 . S
C916 C912 1.403 . S
C916 C915 1.380 . S
C916 H923 0.910 1_655 S
H917 C914 0.928 . S
H918 C915 0.934 . S
H919 C895 0.930 . S
H920 C892 0.930 . S
H921 C901 0.930 1_455 S
H922 C913 0.929 . S
H923 C916 0.910 1_455 S
C924 C925 1.351 . S
C924 N927 1.368 . S
C924 H929 0.931 . S
C925 C924 1.351 . S
C925 N926 1.373 . S
C925 H953 0.930 . S
N926 C925 1.373 . S
N926 C928 1.340 . S
N927 C924 1.368 . S
N927 C928 1.321 . S
N927 Co930 2.135 . S
C928 N926 1.340 . S
C928 N927 1.321 . S
C928 H952 0.930 . S
H929 C924 0.931 . S
Co930 N927 2.135 . S
Co930 N933 2.121 . S
Co930 O938 2.055 . S
Co930 O941 2.039 . S
Co930 N944 2.140 . S
C931 O932 1.227 . S
C931 O941 1.265 . S
O932 C931 1.227 . S
N933 Co930 2.121 . S
N933 C935 1.375 . S
N933 C936 1.313 . S
C934 C935 1.338 . S
C934 N937 1.377 . S
C934 H954 0.930 . S
C935 N933 1.375 . S
C935 C934 1.338 . S
C935 H939 0.931 . S
C936 N933 1.313 . S
C936 N937 1.344 . S
C936 H940 0.930 . S
N937 C934 1.377 . S
N937 C936 1.344 . S
O938 Co930 2.055 . S
O938 C942 1.253 . S
H939 C935 0.931 . S
H940 C936 0.930 . S
O941 Co930 2.039 . S
O941 C931 1.265 . S
C942 O938 1.253 . S
C942 O943 1.227 . S
O943 C942 1.227 . S
N944 Co930 2.140 . S
N944 C947 1.346 . S
N944 C948 1.345 . S
C945 C946 1.387 . S
C945 C949 1.391 . S
C946 C945 1.387 . S
C946 C947 1.369 . S
C946 H955 0.929 . S
C947 N944 1.346 . S
C947 C946 1.369 . S
C947 H950 0.928 . S
C948 N944 1.345 . S
C948 C949 1.371 . S
C948 H951 0.931 . S
C949 C945 1.391 . S
C949 C948 1.371 . S
C949 H956 0.930 . S
H950 C947 0.928 . S
H951 C948 0.931 . S
H952 C928 0.930 . S
H953 C925 0.930 . S
H954 C934 0.930 . S
H955 C946 0.929 . S
H956 C949 0.930 . S
C957 C958 1.351 . S
C957 N960 1.368 . S
C957 H962 0.931 . S
C958 C957 1.351 . S
C958 N959 1.373 . S
C958 H986 0.930 . S
N959 C958 1.373 . S
N959 C961 1.340 . S
N960 C957 1.368 . S
N960 C961 1.321 . S
N960 Co963 2.135 . S
C961 N959 1.340 . S
C961 N960 1.321 . S
C961 H985 0.930 . S
H962 C957 0.931 . S
Co963 N960 2.135 . S
Co963 N966 2.121 . S
Co963 O971 2.055 . S
Co963 O974 2.039 . S
Co963 N977 2.140 . S
C964 O965 1.227 . S
C964 O974 1.265 . S
O965 C964 1.227 . S
N966 Co963 2.121 . S
N966 C968 1.375 . S
N966 C969 1.313 . S
C967 C968 1.338 . S
C967 N970 1.377 . S
C967 H987 0.930 . S
C968 N966 1.375 . S
C968 C967 1.338 . S
C968 H972 0.931 . S
C969 N966 1.313 . S
C969 N970 1.344 . S
C969 H973 0.930 . S
N970 C967 1.377 . S
N970 C969 1.344 . S
O971 Co963 2.055 . S
O971 C975 1.253 . S
H972 C968 0.931 . S
H973 C969 0.930 . S
O974 Co963 2.039 . S
O974 C964 1.265 . S
C975 O971 1.253 . S
C975 O976 1.227 . S
O976 C975 1.227 . S
N977 Co963 2.140 . S
N977 C980 1.346 . S
N977 C981 1.345 . S
C978 C979 1.387 . S
C978 C982 1.391 . S
C979 C978 1.387 . S
C979 C980 1.369 . S
C979 H988 0.929 . S
C980 N977 1.346 . S
C980 C979 1.369 . S
C980 H983 0.928 . S
C981 N977 1.345 . S
C981 C982 1.371 . S
C981 H984 0.931 . S
C982 C978 1.391 . S
C982 C981 1.371 . S
C982 H989 0.930 . S
H983 C980 0.928 . S
H984 C981 0.931 . S
H985 C961 0.930 . S
H986 C958 0.930 . S
H987 C967 0.930 . S
H988 C979 0.929 . S
H989 C982 0.930 . S
C990 C991 1.351 . S
C990 N993 1.368 . S
C990 H995 0.931 . S
C991 C990 1.351 . S
C991 N992 1.373 . S
C991 H1019 0.930 . S
N992 C991 1.373 . S
N992 C994 1.340 . S
N993 C990 1.368 . S
N993 C994 1.321 . S
N993 Co996 2.135 . S
C994 N992 1.340 . S
C994 N993 1.321 . S
C994 H1018 0.930 . S
H995 C990 0.931 . S
Co996 N993 2.135 . S
Co996 N999 2.121 . S
Co996 O1004 2.055 . S
Co996 O1007 2.039 . S
Co996 N1010 2.140 . S
C997 O998 1.227 . S
C997 O1007 1.265 . S
O998 C997 1.227 . S
N999 Co996 2.121 . S
N999 C1001 1.375 . S
N999 C1002 1.313 . S
C1000 C1001 1.338 . S
C1000 N1003 1.377 . S
C1000 H1020 0.930 . S
C1001 N999 1.375 . S
C1001 C1000 1.338 . S
C1001 H1005 0.931 . S
C1002 N999 1.313 . S
C1002 N1003 1.344 . S
C1002 H1006 0.930 . S
N1003 C1000 1.377 . S
N1003 C1002 1.344 . S
O1004 Co996 2.055 . S
O1004 C1008 1.253 . S
H1005 C1001 0.931 . S
H1006 C1002 0.930 . S
O1007 Co996 2.039 . S
O1007 C997 1.265 . S
C1008 O1004 1.253 . S
C1008 O1009 1.227 . S
O1009 C1008 1.227 . S
N1010 Co996 2.140 . S
N1010 C1013 1.346 . S
N1010 C1014 1.345 . S
C1011 C1012 1.387 . S
C1011 C1015 1.391 . S
C1012 C1011 1.387 . S
C1012 C1013 1.369 . S
C1012 H1021 0.929 . S
C1013 N1010 1.346 . S
C1013 C1012 1.369 . S
C1013 H1016 0.928 . S
C1014 N1010 1.345 . S
C1014 C1015 1.371 . S
C1014 H1017 0.931 . S
C1015 C1011 1.391 . S
C1015 C1014 1.371 . S
C1015 H1022 0.930 . S
H1016 C1013 0.928 . S
H1017 C1014 0.931 . S
H1018 C994 0.930 . S
H1019 C991 0.930 . S
H1020 C1000 0.930 . S
H1021 C1012 0.929 . S
H1022 C1015 0.930 . S
C1023 C1024 1.351 . S
C1023 N1026 1.368 . S
C1023 H1028 0.931 . S
C1024 C1023 1.351 . S
C1024 N1025 1.373 . S
C1024 H1052 0.930 . S
N1025 C1024 1.373 . S
N1025 C1027 1.340 . S
N1026 C1023 1.368 . S
N1026 C1027 1.321 . S
N1026 Co1029 2.135 . S
C1027 N1025 1.340 . S
C1027 N1026 1.321 . S
C1027 H1051 0.930 . S
H1028 C1023 0.931 . S
Co1029 N1026 2.135 . S
Co1029 N1032 2.121 . S
Co1029 O1037 2.055 . S
Co1029 O1040 2.039 . S
Co1029 N1043 2.140 . S
C1030 O1031 1.227 . S
C1030 O1040 1.265 . S
O1031 C1030 1.227 . S
N1032 Co1029 2.121 . S
N1032 C1034 1.375 . S
N1032 C1035 1.313 . S
C1033 C1034 1.338 . S
C1033 N1036 1.377 . S
C1033 H1053 0.930 . S
C1034 N1032 1.375 . S
C1034 C1033 1.338 . S
C1034 H1038 0.931 . S
C1035 N1032 1.313 . S
C1035 N1036 1.344 . S
C1035 H1039 0.930 . S
N1036 C1033 1.377 . S
N1036 C1035 1.344 . S
O1037 Co1029 2.055 . S
O1037 C1041 1.253 . S
H1038 C1034 0.931 . S
H1039 C1035 0.930 . S
O1040 Co1029 2.039 . S
O1040 C1030 1.265 . S
C1041 O1037 1.253 . S
C1041 O1042 1.227 . S
O1042 C1041 1.227 . S
N1043 Co1029 2.140 . S
N1043 C1046 1.346 . S
N1043 C1047 1.345 . S
C1044 C1045 1.387 . S
C1044 C1048 1.391 . S
C1045 C1044 1.387 . S
C1045 C1046 1.369 . S
C1045 H1054 0.929 . S
C1046 N1043 1.346 . S
C1046 C1045 1.369 . S
C1046 H1049 0.928 . S
C1047 N1043 1.345 . S
C1047 C1048 1.371 . S
C1047 H1050 0.931 . S
C1048 C1044 1.391 . S
C1048 C1047 1.371 . S
C1048 H1055 0.930 . S
H1049 C1046 0.928 . S
H1050 C1047 0.931 . S
H1051 C1027 0.930 . S
H1052 C1024 0.930 . S
H1053 C1033 0.930 . S
H1054 C1045 0.929 . S
H1055 C1048 0.930 . S
C1056 C1057 1.351 . S
C1056 N1059 1.368 . S
C1056 H1061 0.931 . S
C1057 C1056 1.351 . S
C1057 N1058 1.373 . S
C1057 H1085 0.930 . S
N1058 C1057 1.373 . S
N1058 C1060 1.340 . S
N1059 C1056 1.368 . S
N1059 C1060 1.321 . S
N1059 Co1062 2.135 . S
C1060 N1058 1.340 . S
C1060 N1059 1.321 . S
C1060 H1084 0.930 . S
H1061 C1056 0.931 . S
Co1062 N1059 2.135 . S
Co1062 N1065 2.121 . S
Co1062 O1070 2.055 . S
Co1062 O1073 2.039 . S
Co1062 N1076 2.140 . S
C1063 O1064 1.227 . S
C1063 O1073 1.265 . S
O1064 C1063 1.227 . S
N1065 Co1062 2.121 . S
N1065 C1067 1.375 . S
N1065 C1068 1.313 . S
C1066 C1067 1.338 . S
C1066 N1069 1.377 . S
C1066 H1086 0.930 . S
C1067 N1065 1.375 . S
C1067 C1066 1.338 . S
C1067 H1071 0.931 . S
C1068 N1065 1.313 . S
C1068 N1069 1.344 . S
C1068 H1072 0.930 . S
N1069 C1066 1.377 . S
N1069 C1068 1.344 . S
O1070 Co1062 2.055 . S
O1070 C1074 1.253 . S
H1071 C1067 0.931 . S
H1072 C1068 0.930 . S
O1073 Co1062 2.039 . S
O1073 C1063 1.265 . S
C1074 O1070 1.253 . S
C1074 O1075 1.227 . S
O1075 C1074 1.227 . S
N1076 Co1062 2.140 . S
N1076 C1079 1.346 . S
N1076 C1080 1.345 . S
C1077 C1078 1.387 . S
C1077 C1081 1.391 . S
C1078 C1077 1.387 . S
C1078 C1079 1.369 . S
C1078 H1087 0.929 . S
C1079 N1076 1.346 . S
C1079 C1078 1.369 . S
C1079 H1082 0.928 . S
C1080 N1076 1.345 . S
C1080 C1081 1.371 . S
C1080 H1083 0.931 . S
C1081 C1077 1.391 . S
C1081 C1080 1.371 . S
C1081 H1088 0.930 . S
H1082 C1079 0.928 . S
H1083 C1080 0.931 . S
H1084 C1060 0.930 . S
H1085 C1057 0.930 . S
H1086 C1066 0.930 . S
H1087 C1078 0.929 . S
H1088 C1081 0.930 . S
C1089 C1090 1.351 . S
C1089 N1092 1.368 . S
C1089 H1094 0.931 . S
C1090 C1089 1.351 . S
C1090 N1091 1.373 . S
C1090 H1118 0.930 . S
N1091 C1090 1.373 . S
N1091 C1093 1.340 . S
N1092 C1089 1.368 . S
N1092 C1093 1.321 . S
N1092 Co1095 2.135 . S
C1093 N1091 1.340 . S
C1093 N1092 1.321 . S
C1093 H1117 0.930 . S
H1094 C1089 0.931 . S
Co1095 N1092 2.135 . S
Co1095 N1098 2.121 1_545 S
Co1095 O1103 2.055 . S
Co1095 O1106 2.039 1_545 S
Co1095 N1109 2.140 . S
C1096 O1097 1.227 . S
C1096 O1106 1.265 . S
O1097 C1096 1.227 . S
N1098 Co1095 2.121 1_565 S
N1098 C1100 1.375 . S
N1098 C1101 1.313 . S
C1099 C1100 1.338 . S
C1099 N1102 1.377 . S
C1099 H1119 0.930 . S
C1100 N1098 1.375 . S
C1100 C1099 1.338 . S
C1100 H1104 0.931 . S
C1101 N1098 1.313 . S
C1101 N1102 1.344 . S
C1101 H1105 0.930 . S
N1102 C1099 1.377 . S
N1102 C1101 1.344 . S
O1103 Co1095 2.055 . S
O1103 C1107 1.253 . S
H1104 C1100 0.931 . S
H1105 C1101 0.930 . S
O1106 Co1095 2.039 1_565 S
O1106 C1096 1.265 . S
C1107 O1103 1.253 . S
C1107 O1108 1.227 . S
O1108 C1107 1.227 . S
N1109 Co1095 2.140 . S
N1109 C1112 1.346 . S
N1109 C1113 1.345 . S
C1110 C1111 1.387 . S
C1110 C1114 1.391 . S
C1111 C1110 1.387 . S
C1111 C1112 1.369 . S
C1111 H1120 0.929 . S
C1112 N1109 1.346 . S
C1112 C1111 1.369 . S
C1112 H1115 0.928 . S
C1113 N1109 1.345 . S
C1113 C1114 1.371 . S
C1113 H1116 0.931 . S
C1114 C1110 1.391 . S
C1114 C1113 1.371 . S
C1114 H1121 0.930 . S
H1115 C1112 0.928 . S
H1116 C1113 0.931 . S
H1117 C1093 0.930 . S
H1118 C1090 0.930 . S
H1119 C1099 0.930 . S
H1120 C1111 0.929 . S
H1121 C1114 0.930 . S
C1122 C1123 1.351 . S
C1122 N1125 1.368 . S
C1122 H1127 0.931 . S
C1123 C1122 1.351 . S
C1123 N1124 1.373 . S
C1123 H1151 0.930 . S
N1124 C1123 1.373 . S
N1124 C1126 1.340 . S
N1125 C1122 1.368 . S
N1125 C1126 1.321 . S
N1125 Co1128 2.135 . S
C1126 N1124 1.340 . S
C1126 N1125 1.321 . S
C1126 H1150 0.930 . S
H1127 C1122 0.931 . S
Co1128 N1125 2.135 . S
Co1128 N1131 2.121 . S
Co1128 O1136 2.055 . S
Co1128 O1139 2.039 . S
Co1128 N1142 2.140 . S
C1129 O1130 1.227 . S
C1129 O1139 1.265 . S
O1130 C1129 1.227 . S
N1131 Co1128 2.121 . S
N1131 C1133 1.375 . S
N1131 C1134 1.313 . S
C1132 C1133 1.338 . S
C1132 N1135 1.377 . S
C1132 H1152 0.930 . S
C1133 N1131 1.375 . S
C1133 C1132 1.338 . S
C1133 H1137 0.931 . S
C1134 N1131 1.313 . S
C1134 N1135 1.344 . S
C1134 H1138 0.930 . S
N1135 C1132 1.377 . S
N1135 C1134 1.344 . S
O1136 Co1128 2.055 . S
O1136 C1140 1.253 . S
H1137 C1133 0.931 . S
H1138 C1134 0.930 . S
O1139 Co1128 2.039 . S
O1139 C1129 1.265 . S
C1140 O1136 1.253 . S
C1140 O1141 1.227 . S
O1141 C1140 1.227 . S
N1142 Co1128 2.140 . S
N1142 C1145 1.346 . S
N1142 C1146 1.345 . S
C1143 C1144 1.387 . S
C1143 C1147 1.391 . S
C1144 C1143 1.387 . S
C1144 C1145 1.369 . S
C1144 H1153 0.929 . S
C1145 N1142 1.346 . S
C1145 C1144 1.369 . S
C1145 H1148 0.928 . S
C1146 N1142 1.345 . S
C1146 C1147 1.371 . S
C1146 H1149 0.931 . S
C1147 C1143 1.391 . S
C1147 C1146 1.371 . S
C1147 H1154 0.930 . S
H1148 C1145 0.928 . S
H1149 C1146 0.931 . S
H1150 C1126 0.930 . S
H1151 C1123 0.930 . S
H1152 C1132 0.930 . S
H1153 C1144 0.929 . S
H1154 C1147 0.930 . S
C1155 C1156 1.351 . S
C1155 N1158 1.368 . S
C1155 H1160 0.931 . S
C1156 C1155 1.351 . S
C1156 N1157 1.373 . S
C1156 H1184 0.930 . S
N1157 C1156 1.373 . S
N1157 C1159 1.340 . S
N1158 C1155 1.368 . S
N1158 C1159 1.321 . S
N1158 Co1161 2.135 . S
C1159 N1157 1.340 . S
C1159 N1158 1.321 . S
C1159 H1183 0.930 . S
H1160 C1155 0.931 . S
Co1161 N1158 2.135 . S
Co1161 N1164 2.121 . S
Co1161 O1169 2.055 . S
Co1161 O1172 2.039 . S
Co1161 N1175 2.140 . S
C1162 O1163 1.227 . S
C1162 O1172 1.265 . S
O1163 C1162 1.227 . S
N1164 Co1161 2.121 . S
N1164 C1166 1.375 . S
N1164 C1167 1.313 . S
C1165 C1166 1.338 . S
C1165 N1168 1.377 . S
C1165 H1185 0.930 . S
C1166 N1164 1.375 . S
C1166 C1165 1.338 . S
C1166 H1170 0.931 . S
C1167 N1164 1.313 . S
C1167 N1168 1.344 . S
C1167 H1171 0.930 . S
N1168 C1165 1.377 . S
N1168 C1167 1.344 . S
O1169 Co1161 2.055 . S
O1169 C1173 1.253 . S
H1170 C1166 0.931 . S
H1171 C1167 0.930 . S
O1172 Co1161 2.039 . S
O1172 C1162 1.265 . S
C1173 O1169 1.253 . S
C1173 O1174 1.227 . S
O1174 C1173 1.227 . S
N1175 Co1161 2.140 . S
N1175 C1178 1.346 . S
N1175 C1179 1.345 . S
C1176 C1177 1.387 . S
C1176 C1180 1.391 . S
C1177 C1176 1.387 . S
C1177 C1178 1.369 . S
C1177 H1186 0.929 . S
C1178 N1175 1.346 . S
C1178 C1177 1.369 . S
C1178 H1181 0.928 . S
C1179 N1175 1.345 . S
C1179 C1180 1.371 . S
C1179 H1182 0.931 . S
C1180 C1176 1.391 . S
C1180 C1179 1.371 . S
C1180 H1187 0.930 . S
H1181 C1178 0.928 . S
H1182 C1179 0.931 . S
H1183 C1159 0.930 . S
H1184 C1156 0.930 . S
H1185 C1165 0.930 . S
H1186 C1177 0.929 . S
H1187 C1180 0.930 . S
C1188 C1189 1.351 . S
C1188 N1191 1.368 . S
C1188 H1193 0.931 . S
C1189 C1188 1.351 . S
C1189 N1190 1.373 . S
C1189 H1217 0.930 . S
N1190 C1189 1.373 . S
N1190 C1192 1.340 . S
N1191 C1188 1.368 . S
N1191 C1192 1.321 . S
N1191 Co1194 2.135 . S
C1192 N1190 1.340 . S
C1192 N1191 1.321 . S
C1192 H1216 0.930 . S
H1193 C1188 0.931 . S
Co1194 N1191 2.135 . S
Co1194 N1197 2.121 . S
Co1194 O1202 2.055 . S
Co1194 O1205 2.039 . S
Co1194 N1208 2.140 . S
C1195 O1196 1.227 . S
C1195 O1205 1.265 . S
O1196 C1195 1.227 . S
N1197 Co1194 2.121 . S
N1197 C1199 1.375 . S
N1197 C1200 1.313 . S
C1198 C1199 1.338 . S
C1198 N1201 1.377 . S
C1198 H1218 0.930 . S
C1199 N1197 1.375 . S
C1199 C1198 1.338 . S
C1199 H1203 0.931 . S
C1200 N1197 1.313 . S
C1200 N1201 1.344 . S
C1200 H1204 0.930 . S
N1201 C1198 1.377 . S
N1201 C1200 1.344 . S
O1202 Co1194 2.055 . S
O1202 C1206 1.253 . S
H1203 C1199 0.931 . S
H1204 C1200 0.930 . S
O1205 Co1194 2.039 . S
O1205 C1195 1.265 . S
C1206 O1202 1.253 . S
C1206 O1207 1.227 . S
O1207 C1206 1.227 . S
N1208 Co1194 2.140 . S
N1208 C1211 1.346 . S
N1208 C1212 1.345 . S
C1209 C1210 1.387 . S
C1209 C1213 1.391 . S
C1210 C1209 1.387 . S
C1210 C1211 1.369 . S
C1210 H1219 0.929 . S
C1211 N1208 1.346 . S
C1211 C1210 1.369 . S
C1211 H1214 0.928 . S
C1212 N1208 1.345 . S
C1212 C1213 1.371 . S
C1212 H1215 0.931 . S
C1213 C1209 1.391 . S
C1213 C1212 1.371 . S
C1213 H1220 0.930 . S
H1214 C1211 0.928 . S
H1215 C1212 0.931 . S
H1216 C1192 0.930 . S
H1217 C1189 0.930 . S
H1218 C1198 0.930 . S
H1219 C1210 0.929 . S
H1220 C1213 0.930 . S
C1221 C1222 1.351 . S
C1221 N1224 1.368 . S
C1221 H1226 0.931 . S
C1222 C1221 1.351 . S
C1222 N1223 1.373 . S
C1222 H1250 0.930 . S
N1223 C1222 1.373 . S
N1223 C1225 1.340 . S
N1224 C1221 1.368 . S
N1224 C1225 1.321 . S
N1224 Co1227 2.135 . S
C1225 N1223 1.340 . S
C1225 N1224 1.321 . S
C1225 H1249 0.930 . S
H1226 C1221 0.931 . S
Co1227 N1224 2.135 . S
Co1227 N1230 2.121 1_545 S
Co1227 O1235 2.055 . S
Co1227 O1238 2.039 1_545 S
Co1227 N1241 2.140 . S
C1228 O1229 1.227 . S
C1228 O1238 1.265 . S
O1229 C1228 1.227 . S
N1230 Co1227 2.121 1_565 S
N1230 C1232 1.375 . S
N1230 C1233 1.313 . S
C1231 C1232 1.338 . S
C1231 N1234 1.377 . S
C1231 H1251 0.930 . S
C1232 N1230 1.375 . S
C1232 C1231 1.338 . S
C1232 H1236 0.931 . S
C1233 N1230 1.313 . S
C1233 N1234 1.344 . S
C1233 H1237 0.930 . S
N1234 C1231 1.377 . S
N1234 C1233 1.344 . S
O1235 Co1227 2.055 . S
O1235 C1239 1.253 . S
H1236 C1232 0.931 . S
H1237 C1233 0.930 . S
O1238 Co1227 2.039 1_565 S
O1238 C1228 1.265 . S
C1239 O1235 1.253 . S
C1239 O1240 1.227 . S
O1240 C1239 1.227 . S
N1241 Co1227 2.140 . S
N1241 C1244 1.346 . S
N1241 C1245 1.345 . S
C1242 C1243 1.387 . S
C1242 C1246 1.391 . S
C1243 C1242 1.387 . S
C1243 C1244 1.369 . S
C1243 H1252 0.929 . S
C1244 N1241 1.346 . S
C1244 C1243 1.369 . S
C1244 H1247 0.928 . S
C1245 N1241 1.345 . S
C1245 C1246 1.371 . S
C1245 H1248 0.931 . S
C1246 C1242 1.391 . S
C1246 C1245 1.371 . S
C1246 H1253 0.930 . S
H1247 C1244 0.928 . S
H1248 C1245 0.931 . S
H1249 C1225 0.930 . S
H1250 C1222 0.930 . S
H1251 C1231 0.930 . S
H1252 C1243 0.929 . S
H1253 C1246 0.930 . S
C1254 C1255 1.351 . S
C1254 N1257 1.368 . S
C1254 H1259 0.931 . S
C1255 C1254 1.351 . S
C1255 N1256 1.373 . S
C1255 H1283 0.930 . S
N1256 C1255 1.373 . S
N1256 C1258 1.340 . S
N1257 C1254 1.368 . S
N1257 C1258 1.321 . S
N1257 Co1260 2.135 . S
C1258 N1256 1.340 . S
C1258 N1257 1.321 . S
C1258 H1282 0.930 . S
H1259 C1254 0.931 . S
Co1260 N1257 2.135 . S
Co1260 N1263 2.121 . S
Co1260 O1268 2.055 . S
Co1260 O1271 2.039 . S
Co1260 N1274 2.140 . S
C1261 O1262 1.227 . S
C1261 O1271 1.265 . S
O1262 C1261 1.227 . S
N1263 Co1260 2.121 . S
N1263 C1265 1.375 . S
N1263 C1266 1.313 . S
C1264 C1265 1.338 . S
C1264 N1267 1.377 . S
C1264 H1284 0.930 . S
C1265 N1263 1.375 . S
C1265 C1264 1.338 . S
C1265 H1269 0.931 . S
C1266 N1263 1.313 . S
C1266 N1267 1.344 . S
C1266 H1270 0.930 . S
N1267 C1264 1.377 . S
N1267 C1266 1.344 . S
O1268 Co1260 2.055 . S
O1268 C1272 1.253 . S
H1269 C1265 0.931 . S
H1270 C1266 0.930 . S
O1271 Co1260 2.039 . S
O1271 C1261 1.265 . S
C1272 O1268 1.253 . S
C1272 O1273 1.227 . S
O1273 C1272 1.227 . S
N1274 Co1260 2.140 . S
N1274 C1277 1.346 . S
N1274 C1278 1.345 . S
C1275 C1276 1.387 . S
C1275 C1279 1.391 . S
C1276 C1275 1.387 . S
C1276 C1277 1.369 . S
C1276 H1285 0.929 . S
C1277 N1274 1.346 . S
C1277 C1276 1.369 . S
C1277 H1280 0.928 . S
C1278 N1274 1.345 . S
C1278 C1279 1.371 . S
C1278 H1281 0.931 . S
C1279 C1275 1.391 . S
C1279 C1278 1.371 . S
C1279 H1286 0.930 . S
H1280 C1277 0.928 . S
H1281 C1278 0.931 . S
H1282 C1258 0.930 . S
H1283 C1255 0.930 . S
H1284 C1264 0.930 . S
H1285 C1276 0.929 . S
H1286 C1279 0.930 . S
C1287 C1288 1.351 . S
C1287 N1290 1.368 . S
C1287 H1292 0.931 . S
C1288 C1287 1.351 . S
C1288 N1289 1.373 . S
C1288 H1316 0.930 . S
N1289 C1288 1.373 . S
N1289 C1291 1.340 . S
N1290 C1287 1.368 . S
N1290 C1291 1.321 . S
N1290 Co1293 2.135 . S
C1291 N1289 1.340 . S
C1291 N1290 1.321 . S
C1291 H1315 0.930 . S
H1292 C1287 0.931 . S
Co1293 N1290 2.135 . S
Co1293 N1296 2.121 . S
Co1293 O1301 2.055 . S
Co1293 O1304 2.039 . S
Co1293 N1307 2.140 . S
C1294 O1295 1.227 . S
C1294 O1304 1.265 . S
O1295 C1294 1.227 . S
N1296 Co1293 2.121 . S
N1296 C1298 1.375 . S
N1296 C1299 1.313 . S
C1297 C1298 1.338 . S
C1297 N1300 1.377 . S
C1297 H1317 0.930 . S
C1298 N1296 1.375 . S
C1298 C1297 1.338 . S
C1298 H1302 0.931 . S
C1299 N1296 1.313 . S
C1299 N1300 1.344 . S
C1299 H1303 0.930 . S
N1300 C1297 1.377 . S
N1300 C1299 1.344 . S
O1301 Co1293 2.055 . S
O1301 C1305 1.253 . S
H1302 C1298 0.931 . S
H1303 C1299 0.930 . S
O1304 Co1293 2.039 . S
O1304 C1294 1.265 . S
C1305 O1301 1.253 . S
C1305 O1306 1.227 . S
O1306 C1305 1.227 . S
N1307 Co1293 2.140 . S
N1307 C1310 1.346 . S
N1307 C1311 1.345 . S
C1308 C1309 1.387 . S
C1308 C1312 1.391 . S
C1309 C1308 1.387 . S
C1309 C1310 1.369 . S
C1309 H1318 0.929 . S
C1310 N1307 1.346 . S
C1310 C1309 1.369 . S
C1310 H1313 0.928 . S
C1311 N1307 1.345 . S
C1311 C1312 1.371 . S
C1311 H1314 0.931 . S
C1312 C1308 1.391 . S
C1312 C1311 1.371 . S
C1312 H1319 0.930 . S
H1313 C1310 0.928 . S
H1314 C1311 0.931 . S
H1315 C1291 0.930 . S
H1316 C1288 0.930 . S
H1317 C1297 0.930 . S
H1318 C1309 0.929 . S
H1319 C1312 0.930 . S
C1320 C1321 1.351 . S
C1320 N1323 1.368 . S
C1320 H1325 0.931 . S
C1321 C1320 1.351 . S
C1321 N1322 1.373 . S
C1321 H1349 0.930 . S
N1322 C1321 1.373 . S
N1322 C1324 1.340 . S
N1323 C1320 1.368 . S
N1323 C1324 1.321 . S
N1323 Co1326 2.135 . S
C1324 N1322 1.340 . S
C1324 N1323 1.321 . S
C1324 H1348 0.930 . S
H1325 C1320 0.931 . S
Co1326 N1323 2.135 . S
Co1326 N1329 2.121 . S
Co1326 O1334 2.055 . S
Co1326 O1337 2.039 . S
Co1326 N1340 2.140 . S
C1327 O1328 1.227 . S
C1327 O1337 1.265 . S
O1328 C1327 1.227 . S
N1329 Co1326 2.121 . S
N1329 C1331 1.375 . S
N1329 C1332 1.313 . S
C1330 C1331 1.338 . S
C1330 N1333 1.377 . S
C1330 H1350 0.930 . S
C1331 N1329 1.375 . S
C1331 C1330 1.338 . S
C1331 H1335 0.931 . S
C1332 N1329 1.313 . S
C1332 N1333 1.344 . S
C1332 H1336 0.930 . S
N1333 C1330 1.377 . S
N1333 C1332 1.344 . S
O1334 Co1326 2.055 . S
O1334 C1338 1.253 . S
H1335 C1331 0.931 . S
H1336 C1332 0.930 . S
O1337 Co1326 2.039 . S
O1337 C1327 1.265 . S
C1338 O1334 1.253 . S
C1338 O1339 1.227 . S
O1339 C1338 1.227 . S
N1340 Co1326 2.140 . S
N1340 C1343 1.346 . S
N1340 C1344 1.345 . S
C1341 C1342 1.387 . S
C1341 C1345 1.391 . S
C1342 C1341 1.387 . S
C1342 C1343 1.369 . S
C1342 H1351 0.929 . S
C1343 N1340 1.346 . S
C1343 C1342 1.369 . S
C1343 H1346 0.928 . S
C1344 N1340 1.345 . S
C1344 C1345 1.371 . S
C1344 H1347 0.931 . S
C1345 C1341 1.391 . S
C1345 C1344 1.371 . S
C1345 H1352 0.930 . S
H1346 C1343 0.928 . S
H1347 C1344 0.931 . S
H1348 C1324 0.930 . S
H1349 C1321 0.930 . S
H1350 C1330 0.930 . S
H1351 C1342 0.929 . S
H1352 C1345 0.930 . S
C1353 C1354 1.351 . S
C1353 N1356 1.368 . S
C1353 H1358 0.931 . S
C1354 C1353 1.351 . S
C1354 N1355 1.373 . S
C1354 H1382 0.930 . S
N1355 C1354 1.373 . S
N1355 C1357 1.340 . S
N1356 C1353 1.368 . S
N1356 C1357 1.321 . S
N1356 Co1359 2.135 . S
C1357 N1355 1.340 . S
C1357 N1356 1.321 . S
C1357 H1381 0.930 . S
H1358 C1353 0.931 . S
Co1359 N1356 2.135 . S
Co1359 N1362 2.121 . S
Co1359 O1367 2.055 . S
Co1359 O1370 2.039 . S
Co1359 N1373 2.140 . S
C1360 O1361 1.227 . S
C1360 O1370 1.265 . S
O1361 C1360 1.227 . S
N1362 Co1359 2.121 . S
N1362 C1364 1.375 . S
N1362 C1365 1.313 . S
C1363 C1364 1.338 . S
C1363 N1366 1.377 . S
C1363 H1383 0.930 . S
C1364 N1362 1.375 . S
C1364 C1363 1.338 . S
C1364 H1368 0.931 . S
C1365 N1362 1.313 . S
C1365 N1366 1.344 . S
C1365 H1369 0.930 . S
N1366 C1363 1.377 . S
N1366 C1365 1.344 . S
O1367 Co1359 2.055 . S
O1367 C1371 1.253 . S
H1368 C1364 0.931 . S
H1369 C1365 0.930 . S
O1370 Co1359 2.039 . S
O1370 C1360 1.265 . S
C1371 O1367 1.253 . S
C1371 O1372 1.227 . S
O1372 C1371 1.227 . S
N1373 Co1359 2.140 . S
N1373 C1376 1.346 . S
N1373 C1377 1.345 . S
C1374 C1375 1.387 . S
C1374 C1378 1.391 . S
C1375 C1374 1.387 . S
C1375 C1376 1.369 . S
C1375 H1384 0.929 . S
C1376 N1373 1.346 . S
C1376 C1375 1.369 . S
C1376 H1379 0.928 . S
C1377 N1373 1.345 . S
C1377 C1378 1.371 . S
C1377 H1380 0.931 . S
C1378 C1374 1.391 . S
C1378 C1377 1.371 . S
C1378 H1385 0.930 . S
H1379 C1376 0.928 . S
H1380 C1377 0.931 . S
H1381 C1357 0.930 . S
H1382 C1354 0.930 . S
H1383 C1363 0.930 . S
H1384 C1375 0.929 . S
H1385 C1378 0.930 . S
C1386 C1387 1.351 . S
C1386 N1389 1.368 . S
C1386 H1391 0.931 . S
C1387 C1386 1.351 . S
C1387 N1388 1.373 . S
C1387 H1415 0.930 . S
N1388 C1387 1.373 . S
N1388 C1390 1.340 . S
N1389 C1386 1.368 . S
N1389 C1390 1.321 . S
N1389 Co1392 2.135 . S
C1390 N1388 1.340 . S
C1390 N1389 1.321 . S
C1390 H1414 0.930 . S
H1391 C1386 0.931 . S
Co1392 N1389 2.135 . S
Co1392 N1395 2.121 . S
Co1392 O1400 2.055 . S
Co1392 O1403 2.039 . S
Co1392 N1406 2.140 . S
C1393 O1394 1.227 . S
C1393 O1403 1.265 . S
O1394 C1393 1.227 . S
N1395 Co1392 2.121 . S
N1395 C1397 1.375 . S
N1395 C1398 1.313 . S
C1396 C1397 1.338 . S
C1396 N1399 1.377 1_565 S
C1396 H1416 0.930 1_565 S
C1397 N1395 1.375 . S
C1397 C1396 1.338 . S
C1397 H1401 0.931 . S
C1398 N1395 1.313 . S
C1398 N1399 1.344 1_565 S
C1398 H1402 0.930 1_565 S
N1399 C1396 1.377 1_545 S
N1399 C1398 1.344 1_545 S
O1400 Co1392 2.055 . S
O1400 C1404 1.253 . S
H1401 C1397 0.931 . S
H1402 C1398 0.930 1_545 S
O1403 Co1392 2.039 . S
O1403 C1393 1.265 . S
C1404 O1400 1.253 . S
C1404 O1405 1.227 . S
O1405 C1404 1.227 . S
N1406 Co1392 2.140 . S
N1406 C1409 1.346 . S
N1406 C1410 1.345 . S
C1407 C1408 1.387 . S
C1407 C1411 1.403 . S
C1408 C1407 1.387 . S
C1408 C1409 1.369 . S
C1408 H1417 0.929 . S
C1409 N1406 1.346 . S
C1409 C1408 1.369 . S
C1409 H1412 0.928 . S
C1410 N1406 1.345 . S
C1410 C1411 1.380 . S
C1410 H1413 0.934 . S
C1411 C1407 1.403 . S
C1411 C1410 1.380 . S
C1411 H1418 0.910 1_565 S
H1412 C1409 0.928 . S
H1413 C1410 0.934 . S
H1414 C1390 0.930 . S
H1415 C1387 0.930 . S
H1416 C1396 0.930 1_545 S
H1417 C1408 0.929 . S
H1418 C1411 0.910 1_545 S
C1419 C1420 1.351 . S
C1419 N1422 1.368 . S
C1419 H1424 0.931 . S
C1420 C1419 1.351 . S
C1420 N1421 1.373 . S
C1420 H1448 0.930 . S
N1421 C1420 1.373 . S
N1421 C1423 1.340 . S
N1422 C1419 1.368 . S
N1422 C1423 1.321 . S
N1422 Co1425 2.135 . S
C1423 N1421 1.340 . S
C1423 N1422 1.321 . S
C1423 H1447 0.930 . S
H1424 C1419 0.931 . S
Co1425 N1422 2.135 . S
Co1425 N1428 2.121 . S
Co1425 O1433 2.055 . S
Co1425 O1436 2.039 . S
Co1425 N1439 2.140 . S
C1426 O1427 1.227 . S
C1426 O1436 1.265 . S
O1427 C1426 1.227 . S
N1428 Co1425 2.121 . S
N1428 C1430 1.375 . S
N1428 C1431 1.313 . S
C1429 C1430 1.338 . S
C1429 N1432 1.377 . S
C1429 H1449 0.930 . S
C1430 N1428 1.375 . S
C1430 C1429 1.338 . S
C1430 H1434 0.931 . S
C1431 N1428 1.313 . S
C1431 N1432 1.344 . S
C1431 H1435 0.930 . S
N1432 C1429 1.377 . S
N1432 C1431 1.344 . S
O1433 Co1425 2.055 . S
O1433 C1437 1.253 . S
H1434 C1430 0.931 . S
H1435 C1431 0.930 . S
O1436 Co1425 2.039 . S
O1436 C1426 1.265 . S
C1437 O1433 1.253 . S
C1437 O1438 1.227 . S
O1438 C1437 1.227 . S
N1439 Co1425 2.140 . S
N1439 C1442 1.346 . S
N1439 C1443 1.345 . S
C1440 C1441 1.387 . S
C1440 C1444 1.391 . S
C1441 C1440 1.387 . S
C1441 C1442 1.369 . S
C1441 H1450 0.929 . S
C1442 N1439 1.346 . S
C1442 C1441 1.369 . S
C1442 H1445 0.928 . S
C1443 N1439 1.345 . S
C1443 C1444 1.371 . S
C1443 H1446 0.931 . S
C1444 C1440 1.391 . S
C1444 C1443 1.371 . S
C1444 H1451 0.930 . S
H1445 C1442 0.928 . S
H1446 C1443 0.931 . S
H1447 C1423 0.930 . S
H1448 C1420 0.930 . S
H1449 C1429 0.930 . S
H1450 C1441 0.929 . S
H1451 C1444 0.930 . S
C1452 C1453 1.351 . S
C1452 N1455 1.368 . S
C1452 H1457 0.931 . S
C1453 C1452 1.351 . S
C1453 N1454 1.373 . S
C1453 H1481 0.930 . S
N1454 C1453 1.373 . S
N1454 C1456 1.340 . S
N1455 C1452 1.368 . S
N1455 C1456 1.321 . S
N1455 Co1458 2.135 . S
C1456 N1454 1.340 . S
C1456 N1455 1.321 . S
C1456 H1480 0.930 . S
H1457 C1452 0.931 . S
Co1458 N1455 2.135 . S
Co1458 N1461 2.121 1_655 S
Co1458 O1466 2.055 . S
Co1458 O1469 2.039 1_655 S
Co1458 N1472 2.140 . S
C1459 O1460 1.227 . S
C1459 O1469 1.265 . S
O1460 C1459 1.227 . S
N1461 Co1458 2.121 1_455 S
N1461 C1463 1.375 . S
N1461 C1464 1.313 . S
C1462 C1463 1.338 . S
C1462 N1465 1.377 1_545 S
C1462 H1482 0.930 1_545 S
C1463 N1461 1.375 . S
C1463 C1462 1.338 . S
C1463 H1467 0.931 . S
C1464 N1461 1.313 . S
C1464 N1465 1.344 1_545 S
C1464 H1468 0.930 1_545 S
N1465 C1462 1.377 1_565 S
N1465 C1464 1.344 1_565 S
O1466 Co1458 2.055 . S
O1466 C1470 1.253 . S
H1467 C1463 0.931 . S
H1468 C1464 0.930 1_565 S
O1469 Co1458 2.039 1_455 S
O1469 C1459 1.265 . S
C1470 O1466 1.253 . S
C1470 O1471 1.227 . S
O1471 C1470 1.227 . S
N1472 Co1458 2.140 . S
N1472 C1475 1.346 . S
N1472 C1476 1.345 . S
C1473 C1474 1.387 . S
C1473 C1477 1.403 . S
C1474 C1473 1.387 . S
C1474 C1475 1.369 . S
C1474 H1483 0.929 . S
C1475 N1472 1.346 . S
C1475 C1474 1.369 . S
C1475 H1478 0.928 . S
C1476 N1472 1.345 . S
C1476 C1477 1.380 . S
C1476 H1479 0.934 . S
C1477 C1473 1.403 . S
C1477 C1476 1.380 . S
C1477 H1484 0.910 1_545 S
H1478 C1475 0.928 . S
H1479 C1476 0.934 . S
H1480 C1456 0.930 . S
H1481 C1453 0.930 . S
H1482 C1462 0.930 1_565 S
H1483 C1474 0.929 . S
H1484 C1477 0.910 1_565 S
C1485 C1486 1.351 . S
C1485 N1488 1.368 . S
C1485 H1490 0.931 . S
C1486 C1485 1.351 . S
C1486 N1487 1.373 . S
C1486 H1514 0.930 . S
N1487 C1486 1.373 . S
N1487 C1489 1.340 . S
N1488 C1485 1.368 . S
N1488 C1489 1.321 . S
N1488 Co1491 2.135 . S
C1489 N1487 1.340 . S
C1489 N1488 1.321 . S
C1489 H1513 0.930 . S
H1490 C1485 0.931 . S
Co1491 N1488 2.135 . S
Co1491 N1494 2.121 . S
Co1491 O1499 2.055 . S
Co1491 O1502 2.039 . S
Co1491 N1505 2.140 . S
C1492 O1493 1.227 . S
C1492 O1502 1.265 . S
O1493 C1492 1.227 . S
N1494 Co1491 2.121 . S
N1494 C1496 1.375 . S
N1494 C1497 1.313 . S
C1495 C1496 1.338 . S
C1495 N1498 1.377 . S
C1495 H1515 0.930 . S
C1496 N1494 1.375 . S
C1496 C1495 1.338 . S
C1496 H1500 0.931 . S
C1497 N1494 1.313 . S
C1497 N1498 1.344 . S
C1497 H1501 0.930 . S
N1498 C1495 1.377 . S
N1498 C1497 1.344 . S
O1499 Co1491 2.055 . S
O1499 C1503 1.253 . S
H1500 C1496 0.931 . S
H1501 C1497 0.930 . S
O1502 Co1491 2.039 . S
O1502 C1492 1.265 . S
C1503 O1499 1.253 . S
C1503 O1504 1.227 . S
O1504 C1503 1.227 . S
N1505 Co1491 2.140 . S
N1505 C1508 1.346 . S
N1505 C1509 1.345 . S
C1506 C1507 1.387 . S
C1506 C1510 1.391 . S
C1507 C1506 1.387 . S
C1507 C1508 1.369 . S
C1507 H1516 0.929 . S
C1508 N1505 1.346 . S
C1508 C1507 1.369 . S
C1508 H1511 0.928 . S
C1509 N1505 1.345 . S
C1509 C1510 1.371 . S
C1509 H1512 0.931 . S
C1510 C1506 1.391 . S
C1510 C1509 1.371 . S
C1510 H1517 0.930 . S
H1511 C1508 0.928 . S
H1512 C1509 0.931 . S
H1513 C1489 0.930 . S
H1514 C1486 0.930 . S
H1515 C1495 0.930 . S
H1516 C1507 0.929 . S
H1517 C1510 0.930 . S
C1518 C1519 1.351 . S
C1518 N1521 1.368 . S
C1518 H1523 0.931 . S
C1519 C1518 1.351 . S
C1519 N1520 1.373 . S
C1519 H1547 0.930 . S
N1520 C1519 1.373 . S
N1520 C1522 1.340 . S
N1521 C1518 1.368 . S
N1521 C1522 1.321 . S
N1521 Co1524 2.135 . S
C1522 N1520 1.340 . S
C1522 N1521 1.321 . S
C1522 H1546 0.930 . S
H1523 C1518 0.931 . S
Co1524 N1521 2.135 . S
Co1524 N1527 2.121 . S
Co1524 O1532 2.055 . S
Co1524 O1535 2.039 . S
Co1524 N1538 2.140 . S
C1525 O1526 1.227 . S
C1525 O1535 1.265 . S
O1526 C1525 1.227 . S
N1527 Co1524 2.121 . S
N1527 C1529 1.375 . S
N1527 C1530 1.313 . S
C1528 C1529 1.338 . S
C1528 N1531 1.377 1_545 S
C1528 H1548 0.930 1_545 S
C1529 N1527 1.375 . S
C1529 C1528 1.338 . S
C1529 H1533 0.931 . S
C1530 N1527 1.313 . S
C1530 N1531 1.344 1_545 S
C1530 H1534 0.930 1_545 S
N1531 C1528 1.377 1_565 S
N1531 C1530 1.344 1_565 S
O1532 Co1524 2.055 . S
O1532 C1536 1.253 . S
H1533 C1529 0.931 . S
H1534 C1530 0.930 1_565 S
O1535 Co1524 2.039 . S
O1535 C1525 1.265 . S
C1536 O1532 1.253 . S
C1536 O1537 1.227 . S
O1537 C1536 1.227 . S
N1538 Co1524 2.140 . S
N1538 C1541 1.346 . S
N1538 C1542 1.345 . S
C1539 C1540 1.387 . S
C1539 C1543 1.403 . S
C1540 C1539 1.387 . S
C1540 C1541 1.369 . S
C1540 H1549 0.929 . S
C1541 N1538 1.346 . S
C1541 C1540 1.369 . S
C1541 H1544 0.928 . S
C1542 N1538 1.345 . S
C1542 C1543 1.380 . S
C1542 H1545 0.934 . S
C1543 C1539 1.403 . S
C1543 C1542 1.380 . S
C1543 H1550 0.910 1_545 S
H1544 C1541 0.928 . S
H1545 C1542 0.934 . S
H1546 C1522 0.930 . S
H1547 C1519 0.930 . S
H1548 C1528 0.930 1_565 S
H1549 C1540 0.929 . S
H1550 C1543 0.910 1_565 S
C1551 C1552 1.351 . S
C1551 N1554 1.368 . S
C1551 H1556 0.931 . S
C1552 C1551 1.351 . S
C1552 N1553 1.373 . S
C1552 H1580 0.930 . S
N1553 C1552 1.373 . S
N1553 C1555 1.340 . S
N1554 C1551 1.368 . S
N1554 C1555 1.321 . S
N1554 Co1557 2.135 . S
C1555 N1553 1.340 . S
C1555 N1554 1.321 . S
C1555 H1579 0.930 . S
H1556 C1551 0.931 . S
Co1557 N1554 2.135 . S
Co1557 N1560 2.121 . S
Co1557 O1565 2.055 . S
Co1557 O1568 2.039 . S
Co1557 N1571 2.140 . S
C1558 O1559 1.227 . S
C1558 O1568 1.265 . S
O1559 C1558 1.227 . S
N1560 Co1557 2.121 . S
N1560 C1562 1.375 . S
N1560 C1563 1.313 . S
C1561 C1562 1.338 . S
C1561 N1564 1.377 . S
C1561 H1581 0.930 . S
C1562 N1560 1.375 . S
C1562 C1561 1.338 . S
C1562 H1566 0.931 . S
C1563 N1560 1.313 . S
C1563 N1564 1.344 . S
C1563 H1567 0.930 . S
N1564 C1561 1.377 . S
N1564 C1563 1.344 . S
O1565 Co1557 2.055 . S
O1565 C1569 1.253 . S
H1566 C1562 0.931 . S
H1567 C1563 0.930 . S
O1568 Co1557 2.039 . S
O1568 C1558 1.265 . S
C1569 O1565 1.253 . S
C1569 O1570 1.227 . S
O1570 C1569 1.227 . S
N1571 Co1557 2.140 . S
N1571 C1574 1.346 . S
N1571 C1575 1.345 . S
C1572 C1573 1.387 . S
C1572 C1576 1.391 . S
C1573 C1572 1.387 . S
C1573 C1574 1.369 . S
C1573 H1582 0.929 . S
C1574 N1571 1.346 . S
C1574 C1573 1.369 . S
C1574 H1577 0.928 . S
C1575 N1571 1.345 . S
C1575 C1576 1.371 . S
C1575 H1578 0.931 . S
C1576 C1572 1.391 . S
C1576 C1575 1.371 . S
C1576 H1583 0.930 . S
H1577 C1574 0.928 . S
H1578 C1575 0.931 . S
H1579 C1555 0.930 . S
H1580 C1552 0.930 . S
H1581 C1561 0.930 . S
H1582 C1573 0.929 . S
H1583 C1576 0.930 . S
C282 N13 1.371 . S
C315 N46 1.371 . S
N79 C348 1.371 . S
N112 C381 1.371 . S
N145 C414 1.371 . S
C447 N178 1.371 . S
C480 N211 1.371 . S
N244 C513 1.371 . S
N277 C546 1.371 . S
N310 C1569 1.371 . S
N343 C1503 1.371 . S
N376 C1536 1.371 . S
C579 N409 1.371 . S
C612 N442 1.371 . S
N475 C645 1.371 . S
N508 C1470 1.371 . S
N541 C18 1.371 . S
C150 N574 1.371 . S
N607 C183 1.371 . S
C216 N640 1.371 . S
N673 C1041 1.371 . S
N706 C876 1.371 . S
N739 C909 1.371 . S
N772 C843 1.371 . S
C1074 N805 1.371 . S
C1107 N838 1.371 . S
C1140 N871 1.371 . S
N904 C1173 1.371 . S
C1206 N937 1.371 . S
C1239 N970 1.371 . S
N1003 C1272 1.371 . S
N1036 C1305 1.371 . S
N1069 C1338 1.371 . S
C777 N1102 1.371 . S
C711 N1135 1.371 . S
N1168 C744 1.371 . S
N1201 C1371 1.371 . S
N1234 C1404 1.371 . S
C1437 N1267 1.371 . S
N1300 C678 1.371 . S
C810 N1333 1.371 . S
N1366 C942 1.371 . S
N1399 C975 1.371 . S
C1008 N1432 1.371 . S
N1465 C249 1.371 . S
N1498 C84 1.371 . S
C117 N1531 1.371 . S
C51 N1564 1.371 . S
C21 C87 2.021 1_455 S
C54 C120 2.021 . S
C219 C153 2.021 1_655 S
C186 C252 2.021 1_655 S
C417 C285 2.021 1_565 S
C318 C450 2.021 1_556 S
C483 C351 2.021 . S
C516 C384 2.021 1_554 S
C1440 C549 2.021 1_556 S
C582 C714 2.021 . S
C615 C747 2.021 . S
C648 C1341 2.021 . S
C1572 C681 2.021 . S
C1473 C780 2.021 1_545 S
C879 C813 2.021 . S
C912 C846 2.021 1_655 S
C1011 C945 2.021 . S
C1044 C978 2.021 . S
C1077 C1209 2.021 . S
C1242 C1110 2.021 . S
C1143 C1275 2.021 1_565 S
C1308 C1176 2.021 . S
C1506 C1374 2.021 1_554 S
C1407 C1539 2.021 1_565 S
C436 N2 1.624 . S
C469 N35 1.624 . S
N68 C502 1.624 . S
N101 C403 1.624 . S
N134 C1162 1.624 . S
C1063 N167 1.624 . S
C1096 N200 1.624 . S
N233 C1129 1.624 . S
N266 C832 1.624 . S
C865 N299 1.624 . S
C898 N332 1.624 . S
N365 C799 1.624 . S
N398 C238 1.624 . S
N431 C139 1.624 . S
C172 N464 1.624 . S
N497 C205 1.624 . S
C1525 N530 1.624 . S
N563 C1393 1.624 . S
C1426 N596 1.624 . S
N629 C667 1.624 . S
C568 N662 1.624 . S
N695 C766 1.624 . S
N728 C700 1.624 . S
C1327 N761 1.624 . S
C1228 N794 1.624 . S
C1261 N827 1.624 . S
N860 C1294 1.624 . S
N893 C1195 1.624 . S
C370 N926 1.624 . S
N959 C271 1.624 . S
N992 C304 1.624 . S
N1025 C337 1.624 . S
N1058 C40 1.624 . S
N1091 C73 1.624 . S
N1124 C106 1.624 . S
N1157 C7 1.624 . S
C1030 N1190 1.624 . S
C931 N1223 1.624 . S
N1256 C964 1.624 . S
N1289 C997 1.624 . S
C733 N1322 1.624 . S
N1355 C601 1.624 . S
C634 N1388 1.624 . S
N1421 C1459 1.624 . S
C1360 N1454 1.624 . S
C1558 N1487 1.624 . S
C1492 N1520 1.624 . S
N1553 C535 1.624 . S
