# Generated by pormake.
# Topology ofo, (3)-cn, num edge types: 1
# Building blocks:
#     Node 0, Type 0, BuildingBlock: OLANEW_clean_sbu_2, # of connection points: 3
#     Node 1, Type 0, BuildingBlock: OLANEW_clean_sbu_2, # of connection points: 3
#     Node 2, Type 0, BuildingBlock: OLANEW_clean_sbu_2, # of connection points: 3
#     Node 3, Type 0, BuildingBlock: OLANEW_clean_sbu_2, # of connection points: 3
#     Node 4, Type 0, BuildingBlock: OLANEW_clean_sbu_2, # of connection points: 3
#     Node 5, Type 0, BuildingBlock: OLANEW_clean_sbu_2, # of connection points: 3
#     Node 6, Type 0, BuildingBlock: OLANEW_clean_sbu_2, # of connection points: 3
#     Node 7, Type 0, BuildingBlock: OLANEW_clean_sbu_2, # of connection points: 3
#     Node 8, Type 0, BuildingBlock: OLANEW_clean_sbu_2, # of connection points: 3
#     Node 9, Type 0, BuildingBlock: OLANEW_clean_sbu_2, # of connection points: 3
#     Node 10, Type 0, BuildingBlock: OLANEW_clean_sbu_2, # of connection points: 3
#     Node 11, Type 0, BuildingBlock: OLANEW_clean_sbu_2, # of connection points: 3
#     Edge 12, Type (0, 0), BuildingBlock: EZIPEK_clean_linker_0, # of connection points: 2
#     Edge 13, Type (0, 0), BuildingBlock: EZIPEK_clean_linker_0, # of connection points: 2
#     Edge 14, Type (0, 0), BuildingBlock: EZIPEK_clean_linker_0, # of connection points: 2
#     Edge 15, Type (0, 0), BuildingBlock: EZIPEK_clean_linker_0, # of connection points: 2
#     Edge 16, Type (0, 0), BuildingBlock: EZIPEK_clean_linker_0, # of connection points: 2
#     Edge 17, Type (0, 0), BuildingBlock: EZIPEK_clean_linker_0, # of connection points: 2
#     Edge 18, Type (0, 0), BuildingBlock: EZIPEK_clean_linker_0, # of connection points: 2
#     Edge 19, Type (0, 0), BuildingBlock: EZIPEK_clean_linker_0, # of connection points: 2
#     Edge 20, Type (0, 0), BuildingBlock: EZIPEK_clean_linker_0, # of connection points: 2
#     Edge 21, Type (0, 0), BuildingBlock: EZIPEK_clean_linker_0, # of connection points: 2
#     Edge 22, Type (0, 0), BuildingBlock: EZIPEK_clean_linker_0, # of connection points: 2
#     Edge 23, Type (0, 0), BuildingBlock: EZIPEK_clean_linker_0, # of connection points: 2
#     Edge 24, Type (0, 0), BuildingBlock: EZIPEK_clean_linker_0, # of connection points: 2
#     Edge 25, Type (0, 0), BuildingBlock: EZIPEK_clean_linker_0, # of connection points: 2
#     Edge 26, Type (0, 0), BuildingBlock: EZIPEK_clean_linker_0, # of connection points: 2
#     Edge 27, Type (0, 0), BuildingBlock: EZIPEK_clean_linker_0, # of connection points: 2
#     Edge 28, Type (0, 0), BuildingBlock: EZIPEK_clean_linker_0, # of connection points: 2
#     Edge 29, Type (0, 0), BuildingBlock: EZIPEK_clean_linker_0, # of connection points: 2
# Relax obj value: 0.000
# Max RMSD: 0.030
# Mean RMSD: 0.030
data_MOF--net-ofo--node1-OLANEW_clean_sbu_2--edge1-EZIPEK_clean_linker_0
_symmetry_space_group_name_H-M    P1
_symmetry_Int_Tables_number       1
_symmetry_cell_setting            triclinic
loop_
_symmetry_equiv_pos_as_xyz
'x, y, z'
_cell_length_a     16.938116
_cell_length_b     16.94165
_cell_length_c     60.034229
_cell_angle_alpha  90.454651
_cell_angle_beta   89.896977
_cell_angle_gamma 120.07112
loop_
_atom_site_label
_atom_site_type_symbol
_atom_site_fract_x
_atom_site_fract_y
_atom_site_fract_z
_atom_type_partial_charge
O0 O 0.39562 0.33736 0.99974 0.0
Cd1 Cd 0.34763 0.44874 0.99248 0.0
O2 O 0.40575 0.37534 0.03496 0.0
Cd3 Cd 0.44458 0.38606 0.07025 0.0
O4 O 0.51296 0.4591 0.10106 0.0
C5 C 0.55141 0.43066 0.11434 0.0
O6 O 0.54778 0.35263 0.11028 0.0
C7 C 0.41422 0.32763 0.01967 0.0
C8 C 0.16824 0.37279 0.97786 0.0
O9 O 0.23366 0.39614 0.96396 0.0
O10 O 0.18704 0.38378 0.99871 0.0
O11 O 0.3263 0.35013 0.70908 0.0
Cd12 Cd 0.18024 0.3192 0.72517 0.0
O13 O 0.40766 0.42773 0.73843 0.0
Cd14 Cd 0.29722 0.4244 0.75842 0.0
O15 O 0.22772 0.44123 0.78753 0.0
C16 C 0.275 0.50881 0.8004 0.0
O17 O 0.36032 0.56642 0.79527 0.0
C18 C 0.40258 0.39367 0.71916 0.0
C19 C 0.02943 0.17956 0.70259 0.0
O20 O 0.05655 0.26359 0.69864 0.0
O21 O 0.07336 0.16162 0.71714 0.0
O22 O 0.87625 0.30236 0.39964 0.0
Cd23 Cd 0.77712 0.1369 0.40477 0.0
O24 O 0.00263 0.2984 0.4045 0.0
Cd25 Cd 0.92168 0.1701 0.42207 0.0
O26 O 0.83531 0.11638 0.45163 0.0
C27 C 0.815 0.17155 0.46097 0.0
O28 O 0.84304 0.25172 0.45199 0.0
C29 C 0.96307 0.34292 0.39957 0.0
C30 C 0.77665 0.02746 0.36942 0.0
O31 O 0.8386 0.05665 0.3845 0.0
O32 O 0.71595 0.05137 0.3707 0.0
O33 O 0.44655 0.98112 0.04633 0.0
Cd34 Cd 0.43852 0.83718 0.05674 0.0
O35 O 0.59227 0.07664 0.0522 0.0
Cd36 Cd 0.58963 0.9718 0.07324 0.0
O37 O 0.5145 0.86987 0.09867 0.0
C38 C 0.51743 0.89768 0.11851 0.0
O39 O 0.57022 0.98473 0.1232 0.0
C40 C 0.51511 0.06138 0.04521 0.0
C41 C 0.55858 0.79313 0.03539 0.0
O42 O 0.4857 0.77997 0.02561 0.0
O43 O 0.57614 0.82913 0.05486 0.0
O44 O 0.76735 0.41481 0.67275 0.0
Cd45 Cd 0.90473 0.40205 0.67519 0.0
O46 O 0.79797 0.43839 0.70825 0.0
Cd47 Cd 0.7648 0.44508 0.74292 0.0
O48 O 0.74834 0.41178 0.77813 0.0
C49 C 0.7854 0.3675 0.7852 0.0
O50 O 0.83331 0.3475 0.77143 0.0
C51 C 0.74487 0.4268 0.6921 0.0
C52 C 0.07289 0.56006 0.66867 0.0
O53 O 0.04232 0.49384 0.65463 0.0
O54 O 0.02229 0.55248 0.68533 0.0
O55 O 0.14445 0.78355 0.3768 0.0
Cd56 Cd 0.19582 0.93689 0.39182 0.0
O57 O 0.15668 0.77596 0.41267 0.0
Cd58 Cd 0.15775 0.71953 0.44519 0.0
O59 O 0.20962 0.71972 0.47851 0.0
C60 C 0.28807 0.72762 0.48012 0.0
O61 O 0.3339 0.73372 0.46192 0.0
C62 C 0.13474 0.73553 0.39385 0.0
C63 C 0.23222 0.08408 0.36506 0.0
O64 O 0.29595 0.06803 0.37054 0.0
O65 O 0.15022 0.02699 0.3709 0.0
O66 O 0.88276 0.63482 0.27002 0.0
Cd67 Cd 0.7551 0.66297 0.26559 0.0
O68 O 0.97099 0.75835 0.25106 0.0
Cd69 Cd 0.8509 0.73643 0.23226 0.0
O70 O 0.75176 0.6521 0.2065 0.0
C71 C 0.77236 0.67102 0.1861 0.0
O72 O 0.84978 0.74416 0.18096 0.0
C73 C 0.96219 0.69455 0.26369 0.0
C74 C 0.76149 0.78297 0.29886 0.0
O75 O 0.71307 0.69637 0.30126 0.0
O76 O 0.8063 0.81315 0.2807 0.0
O77 O 0.07364 0.71242 0.99074 0.0
Cd78 Cd 0.91712 0.59647 0.99955 0.0
O79 O 0.04845 0.65349 0.95704 0.0
Cd80 Cd 0.0882 0.64683 0.92259 0.0
O81 O 0.11436 0.61629 0.88871 0.0
C82 C 0.16805 0.58508 0.88584 0.0
O83 O 0.20692 0.57196 0.90323 0.0
C84 C 0.10174 0.71263 0.97112 0.0
C85 C 0.80343 0.66867 0.00699 0.0
O86 O 0.84665 0.658 0.0231 0.0
O87 O 0.81471 0.64675 0.98725 0.0
O88 O 0.60347 0.17276 0.65996 0.0
Cd89 Cd 0.60836 0.03192 0.65509 0.0
O90 O 0.59895 0.15918 0.62377 0.0
Cd91 Cd 0.60361 0.19733 0.58892 0.0
O92 O 0.64713 0.20103 0.55442 0.0
C93 C 0.63297 0.12711 0.54527 0.0
O94 O 0.58878 0.05019 0.55621 0.0
C95 C 0.59915 0.20327 0.64102 0.0
C96 C 0.43522 0.87823 0.65925 0.0
O97 O 0.45637 0.93006 0.64225 0.0
O98 O 0.49636 0.89907 0.67427 0.0
O99 O 0.29524 0.6522 0.30759 0.0
Cd100 Cd 0.41678 0.61605 0.31234 0.0
O101 O 0.29746 0.61116 0.27319 0.0
Cd102 Cd 0.27084 0.59793 0.23733 0.0
O103 O 0.33118 0.65612 0.20511 0.0
C104 C 0.28832 0.66822 0.18942 0.0
O105 O 0.20093 0.63974 0.19153 0.0
C106 C 0.26333 0.63956 0.28794 0.0
C107 C 0.34919 0.43794 0.3268 0.0
O108 O 0.3504 0.4549 0.306 0.0
O109 O 0.37933 0.50481 0.34066 0.0
O110 O 0.49587 0.06771 0.94534 0.0
Cd111 Cd 0.63154 0.1846 0.92633 0.0
O112 O 0.49202 0.95645 0.92513 0.0
Cd113 Cd 0.6078 0.04835 0.90452 0.0
O114 O 0.66325 0.12525 0.87391 0.0
C115 C 0.71856 0.21062 0.87304 0.0
O116 O 0.75016 0.25847 0.89148 0.0
C117 C 0.45847 0.98342 0.94033 0.0
C118 C 0.80034 0.23885 0.94582 0.0
O119 O 0.7582 0.28266 0.94974 0.0
O120 O 0.76174 0.16763 0.93334 0.0
O121 O 0.58487 0.58723 0.64278 0.0
Cd122 Cd 0.58572 0.72843 0.63353 0.0
O123 O 0.57212 0.5438 0.60756 0.0
Cd124 Cd 0.54548 0.64602 0.59313 0.0
O125 O 0.47864 0.67151 0.5653 0.0
C126 C 0.46772 0.73985 0.56289 0.0
O127 O 0.49861 0.80489 0.57805 0.0
C128 C 0.58167 0.53151 0.628 0.0
C129 C 0.72505 0.87854 0.65621 0.0
O130 O 0.74049 0.85008 0.63777 0.0
O131 O 0.64355 0.83675 0.66389 0.0
C132 C 0.70226 0.5231 0.13368 0.0
C133 C 0.60687 0.48931 0.1332 0.0
C134 C 0.62021 0.5789 0.16676 0.0
C135 C 0.7143 0.60669 0.16827 0.0
N136 N 0.83883 0.58556 0.15628 0.0
N137 N 0.4719 0.46881 0.15188 0.0
C138 C 0.75372 0.57326 0.1526 0.0
C139 C 0.56484 0.51253 0.1505 0.0
N140 N 0.7446 0.51038 0.11574 0.0
N141 N 0.5844 0.61866 0.18016 0.0
H142 H 0.42912 0.42002 0.14025 0.0
H143 H 0.43764 0.47463 0.16566 0.0
H144 H 0.51848 0.60752 0.17827 0.0
H145 H 0.62299 0.66918 0.19189 0.0
H146 H 0.81528 0.54223 0.11424 0.0
H147 H 0.70982 0.47505 0.10139 0.0
H148 H 0.86691 0.55458 0.14658 0.0
H149 H 0.8775 0.61836 0.17041 0.0
C150 C 0.20503 0.45682 0.83842 0.0
C151 C 0.23615 0.52291 0.82126 0.0
C152 C 0.22214 0.63021 0.84637 0.0
C153 C 0.18635 0.56247 0.86314 0.0
N154 N 0.12344 0.40474 0.87334 0.0
N155 N 0.25277 0.66311 0.80707 0.0
C156 C 0.17158 0.47368 0.85861 0.0
C157 C 0.23792 0.60673 0.82469 0.0
N158 N 0.21182 0.38014 0.836 0.0
N159 N 0.24616 0.71832 0.85141 0.0
H160 H 0.26306 0.6473 0.79088 0.0
H161 H 0.24568 0.72066 0.80808 0.0
H162 H 0.23813 0.73937 0.86719 0.0
H163 H 0.28194 0.7723 0.8405 0.0
H164 H 0.20021 0.33504 0.84894 0.0
H165 H 0.23658 0.36522 0.82162 0.0
H166 H 0.10276 0.33671 0.86994 0.0
H167 H 0.09562 0.4138 0.88799 0.0
C168 C 0.79902 0.13307 0.50168 0.0
C169 C 0.76238 0.1483 0.48203 0.0
C170 C 0.63698 0.14416 0.50371 0.0
C171 C 0.67407 0.12917 0.52334 0.0
N172 N 0.78974 0.10467 0.54065 0.0
N173 N 0.63712 0.14878 0.46325 0.0
C174 C 0.75332 0.12077 0.52219 0.0
C175 C 0.67862 0.14847 0.48275 0.0
N176 N 0.87974 0.1331 0.50116 0.0
N177 N 0.56279 0.15569 0.50521 0.0
H178 H 0.66482 0.14976 0.44765 0.0
H179 H 0.57184 0.13996 0.46231 0.0
H180 H 0.52769 0.14799 0.52006 0.0
H181 H 0.53862 0.17751 0.49208 0.0
H182 H 0.90862 0.1224 0.51535 0.0
H183 H 0.9187 0.1453 0.4868 0.0
H184 H 0.76259 0.09607 0.55662 0.0
H185 H 0.76259 0.09607 0.55662 0.0
C186 C 0.38648 0.69143 0.15606 0.0
C187 C 0.33978 0.7227 0.16991 0.0
C188 C 0.39556 0.85924 0.14701 0.0
C189 C 0.45385 0.83509 0.13553 0.0
N190 N 0.5133 0.73262 0.13107 0.0
N191 N 0.31089 0.84366 0.1807 0.0
C192 C 0.45124 0.75197 0.14043 0.0
C193 C 0.34689 0.80844 0.16593 0.0
N194 N 0.36688 0.60301 0.15733 0.0
N195 N 0.38357 0.92831 0.13934 0.0
H196 H 0.2759 0.80961 0.195 0.0
H197 H 0.32313 0.91027 0.17983 0.0
H198 H 0.41469 0.9647 0.12493 0.0
H199 H 0.33494 0.94259 0.14583 0.0
H200 H 0.39021 0.57366 0.14566 0.0
H201 H 0.31984 0.55668 0.16861 0.0
H202 H 0.56333 0.77601 0.11993 0.0
H203 H 0.52034 0.6775 0.13589 0.0
C204 C 0.67833 0.27602 0.81581 0.0
C205 C 0.76907 0.33234 0.80823 0.0
C206 C 0.82796 0.30737 0.84317 0.0
C207 C 0.73742 0.25703 0.8513 0.0
N208 N 0.57884 0.21398 0.84765 0.0
N209 N 0.93049 0.4171 0.81631 0.0
C210 C 0.66327 0.24756 0.83831 0.0
C211 C 0.84413 0.35258 0.82238 0.0
N212 N 0.60652 0.24538 0.80131 0.0
N213 N 0.89805 0.3089 0.85477 0.0
H214 H 0.94478 0.45287 0.8014 0.0
H215 H 0.98664 0.44133 0.82692 0.0
H216 H 0.88921 0.27708 0.87011 0.0
H217 H 0.96338 0.33499 0.84826 0.0
H218 H 0.54011 0.1963 0.80553 0.0
H219 H 0.61414 0.26148 0.78443 0.0
H220 H 0.52469 0.21441 0.83955 0.0
H221 H 0.56541 0.19474 0.86431 0.0
C222 C 0.46404 0.81281 0.52685 0.0
C223 C 0.41824 0.74379 0.54299 0.0
C224 C 0.28589 0.6648 0.51825 0.0
C225 C 0.33019 0.73495 0.50226 0.0
N226 N 0.45136 0.8872 0.49385 0.0
N227 N 0.28069 0.60993 0.55533 0.0
C228 C 0.41645 0.8124 0.50729 0.0
C229 C 0.3276 0.6724 0.53912 0.0
N230 N 0.55443 0.87575 0.52953 0.0
N231 N 0.20456 0.588 0.51399 0.0
H232 H 0.30674 0.61428 0.57132 0.0
H233 H 0.21411 0.55619 0.55299 0.0
H234 H 0.16948 0.57355 0.49886 0.0
H235 H 0.16948 0.57355 0.49886 0.0
H236 H 0.59426 0.92026 0.51703 0.0
H237 H 0.59186 0.87889 0.54361 0.0
H238 H 0.50931 0.94891 0.49787 0.0
H239 H 0.41743 0.89085 0.47976 0.0
C240 C 0.40298 0.17418 0.01513 0.0
C241 C 0.44718 0.26321 0.02468 0.0
C242 C 0.54099 0.2227 0.04751 0.0
C243 C 0.50182 0.13614 0.0366 0.0
N244 N 0.41947 0.04542 0.00447 0.0
N245 N 0.58014 0.38028 0.04396 0.0
C246 C 0.44056 0.11703 0.01858 0.0
C247 C 0.52327 0.29024 0.03897 0.0
N248 N 0.32243 0.14155 0.00383 0.0
N249 N 0.58998 0.23954 0.06676 0.0
H250 H 0.57164 0.4322 0.03729 0.0
H251 H 0.64105 0.40371 0.05273 0.0
H252 H 0.59919 0.19092 0.07497 0.0
H253 H 0.61328 0.2996 0.07596 0.0
H254 H 0.2843 0.07404 0.99837 0.0
H255 H 0.2883 0.17801 0.00213 0.0
H256 H 0.38061 0.03341 0.99008 0.0
H257 H 0.44994 0.0052 0.00568 0.0
C258 C 0.49743 0.32215 0.71032 0.0
C259 C 0.48575 0.39938 0.70932 0.0
C260 C 0.63904 0.49038 0.69323 0.0
C261 C 0.65371 0.41581 0.69637 0.0
N262 N 0.60073 0.26205 0.70852 0.0
N263 N 0.5424 0.55663 0.69994 0.0
C264 C 0.58364 0.3318 0.70493 0.0
C265 C 0.55571 0.48344 0.70068 0.0
N266 N 0.42567 0.23931 0.71631 0.0
N267 N 0.70496 0.56742 0.68307 0.0
H268 H 0.48053 0.55216 0.70418 0.0
H269 H 0.59265 0.62248 0.69587 0.0
H270 H 0.7665 0.57419 0.67756 0.0
H271 H 0.69775 0.6229 0.6789 0.0
H272 H 0.42582 0.17815 0.71486 0.0
H273 H 0.36261 0.23003 0.72128 0.0
H274 H 0.55743 0.20321 0.71728 0.0
H275 H 0.66116 0.26462 0.7037 0.0
C276 C 0.01835 0.5774 0.37992 0.0
C277 C 0.09911 0.63548 0.39216 0.0
C278 C 0.09304 0.50174 0.4091 0.0
C279 C 0.01669 0.44315 0.39548 0.0
N280 N 0.92702 0.42864 0.36284 0.0
N281 N 0.22934 0.64963 0.41205 0.0
C282 C 0.986 0.48212 0.3792 0.0
C283 C 0.14185 0.59652 0.40461 0.0
N284 N 0.96874 0.61125 0.3702 0.0
N285 N 0.11533 0.46958 0.42744 0.0
H286 H 0.26836 0.71893 0.40841 0.0
H287 H 0.26577 0.62249 0.41962 0.0
H288 H 0.07747 0.40275 0.43299 0.0
H289 H 0.16534 0.51255 0.43878 0.0
H290 H 0.90467 0.56948 0.36311 0.0
H291 H 0.98656 0.67961 0.37107 0.0
H292 H 0.90786 0.45517 0.34965 0.0
H293 H 0.90591 0.35955 0.36103 0.0
C294 C 0.11455 0.70669 0.25507 0.0
C295 C 0.04318 0.68751 0.27044 0.0
C296 C 0.11293 0.63043 0.29675 0.0
C297 C 0.1893 0.65938 0.28241 0.0
N298 N 0.27429 0.75454 0.25143 0.0
N299 N 0.99336 0.65899 0.3088 0.0
C300 C 0.19386 0.7067 0.26263 0.0
C301 C 0.04802 0.65788 0.2922 0.0
N302 N 0.10539 0.71946 0.233 0.0
N303 N 0.09924 0.57329 0.31411 0.0
H304 H 0.94942 0.68475 0.30665 0.0
H305 H 1.00046 0.64527 0.32533 0.0
H306 H 0.14116 0.54604 0.31736 0.0
H307 H 0.04014 0.5447 0.32372 0.0
H308 H 0.15361 0.72672 0.2212 0.0
H309 H 0.04557 0.71137 0.226 0.0
H310 H 0.28204 0.79631 0.23796 0.0
H311 H 0.33521 0.76044 0.25709 0.0
C312 C 0.35972 0.84638 0.96364 0.0
C313 C 0.36859 0.91787 0.94982 0.0
C314 C 0.20427 0.86072 0.95259 0.0
C315 C 0.19406 0.78416 0.96442 0.0
N316 N 0.25882 0.69864 0.98008 0.0
N317 N 0.29863 0.9867 0.92833 0.0
C318 C 0.27101 0.77556 0.96973 0.0
C319 C 0.29078 0.92379 0.94365 0.0
N320 N 0.4363 0.84778 0.97136 0.0
N321 N 0.13151 0.87415 0.95029 0.0
H322 H 0.36052 0.0343 0.92125 0.0
H323 H 0.24285 0.98708 0.92119 0.0
H324 H 0.06652 0.82853 0.95628 0.0
H325 H 0.13707 0.93404 0.94415 0.0
H326 H 0.43531 0.80252 0.98312 0.0
H327 H 0.50206 0.89912 0.96728 0.0
H328 H 0.31051 0.68317 0.98227 0.0
H329 H 0.19505 0.64677 0.98528 0.0
C330 C 0.51602 0.37502 0.64434 0.0
C331 C 0.59024 0.45166 0.63417 0.0
C332 C 0.67045 0.36612 0.62873 0.0
C333 C 0.59686 0.28941 0.63913 0.0
N334 N 0.45335 0.22149 0.65877 0.0
N335 N 0.74532 0.52841 0.6212 0.0
C336 C 0.52108 0.29442 0.64771 0.0
C337 C 0.66949 0.44944 0.62761 0.0
N338 N 0.43929 0.3783 0.64988 0.0
N339 N 0.74164 0.35951 0.62003 0.0
H340 H 0.74718 0.59086 0.62058 0.0
H341 H 0.80874 0.53435 0.61846 0.0
H342 H 0.74936 0.30276 0.6222 0.0
H343 H 0.79118 0.40848 0.60973 0.0
H344 H 0.3787 0.3226 0.65525 0.0
H345 H 0.43436 0.43689 0.64818 0.0
H346 H 0.40101 0.22312 0.66744 0.0
H347 H 0.45099 0.15907 0.6602 0.0
C348 C 0.91155 0.22053 0.96975 0.0
C349 C 0.89399 0.27303 0.95435 0.0
C350 C 0.05432 0.39403 0.95613 0.0
C351 C 0.07366 0.33809 0.9699 0.0
N352 N 0.02434 0.19248 0.98709 0.0
N353 N 0.95107 0.40179 0.9296 0.0
C354 C 0.0032 0.24977 0.97604 0.0
C355 C 0.96602 0.3577 0.94664 0.0
N356 N 0.84041 0.14429 0.97888 0.0
N357 N 0.11922 0.48322 0.95282 0.0
H358 H 0.88749 0.37754 0.92209 0.0
H359 H 0.00328 0.45798 0.92154 0.0
H360 H 0.18457 0.5132 0.95967 0.0
H361 H 0.10579 0.52989 0.94503 0.0
H362 H 0.84795 0.1086 0.99197 0.0
H363 H 0.77246 0.12088 0.97465 0.0
H364 H 0.97753 0.12401 0.98994 0.0
H365 H 0.09075 0.21111 0.99177 0.0
C366 C 0.81449 0.95111 0.69141 0.0
C367 C 0.80004 0.9574 0.66835 0.0
C368 C 0.94017 0.10664 0.66728 0.0
C369 C 0.94902 0.10468 0.69079 0.0
N370 N 0.87855 0.03439 0.72572 0.0
N371 N 0.83654 0.05272 0.63587 0.0
C372 C 0.88144 0.02965 0.70303 0.0
C373 C 0.85912 0.03866 0.65672 0.0
N374 N 0.76787 0.86941 0.7021 0.0
N375 N 0.01061 0.17017 0.65478 0.0
H376 H 0.77584 0.00652 0.6279 0.0
H377 H 0.87306 0.11464 0.62759 0.0
H378 H 0.07327 0.2183 0.66155 0.0
H379 H 0.01032 0.16852 0.63742 0.0
H380 H 0.78287 0.85989 0.71834 0.0
H381 H 0.72133 0.80891 0.6941 0.0
H382 H 0.82539 0.98479 0.73518 0.0
H383 H 0.92312 0.0924 0.73487 0.0
C384 C 0.7654 0.98495 0.32869 0.0
C385 C 0.77399 0.96573 0.35126 0.0
C386 C 0.78727 0.83435 0.33898 0.0
C387 C 0.76656 0.84653 0.31681 0.0
N388 N 0.71716 0.92353 0.2915 0.0
N389 N 0.77216 0.85902 0.37808 0.0
C390 C 0.75049 0.91919 0.31188 0.0
C391 C 0.77922 0.88681 0.35649 0.0
N392 N 0.77519 0.06743 0.3231 0.0
N393 N 0.81834 0.7755 0.34331 0.0
H394 H 0.76191 0.89267 0.3914 0.0
H395 H 0.76641 0.79696 0.38246 0.0
H396 H 0.82892 0.73839 0.33091 0.0
H397 H 0.84306 0.77114 0.35887 0.0
H398 H 0.77864 0.08824 0.30667 0.0
H399 H 0.78966 0.11894 0.33475 0.0
H400 H 0.69554 0.96979 0.28787 0.0
H401 H 0.70204 0.87509 0.27895 0.0
C402 C 0.714 0.82777 0.02292 0.0
C403 C 0.61955 0.76387 0.02509 0.0
C404 C 0.6448 0.64282 0.01032 0.0
C405 C 0.7403 0.70361 0.01133 0.0
N406 N 0.86776 0.85335 0.01916 0.0
N407 N 0.49575 0.60792 0.02345 0.0
C408 C 0.77551 0.79608 0.01777 0.0
C409 C 0.58475 0.67091 0.01914 0.0
N410 N 0.74424 0.91899 0.02501 0.0
N411 N 0.61129 0.55775 0.00118 0.0
H412 H 0.44935 0.62402 0.03053 0.0
H413 H 0.46957 0.5381 0.02186 0.0
H414 H 0.65269 0.53217 0.99576 0.0
H415 H 0.54263 0.51515 0.99733 0.0
H416 H 0.81076 0.96974 0.02152 0.0
H417 H 0.70052 0.94443 0.02819 0.0
H418 H 0.89773 0.91825 0.02629 0.0
H419 H 0.91485 0.83414 0.0142 0.0
C420 C 0.29454 0.74348 0.6426 0.0
C421 C 0.34233 0.79688 0.66157 0.0
C422 C 0.22005 0.68569 0.68524 0.0
C423 C 0.16542 0.64191 0.66614 0.0
N424 N 0.14557 0.64925 0.62636 0.0
N425 N 0.33346 0.8304 0.70055 0.0
C426 C 0.20096 0.67656 0.64469 0.0
C427 C 0.30021 0.77163 0.68281 0.0
N428 N 0.33851 0.75285 0.62286 0.0
N429 N 0.19906 0.64412 0.70552 0.0
H430 H 0.38699 0.89737 0.69925 0.0
H431 H 0.29984 0.81617 0.71583 0.0
H432 H 0.14654 0.57731 0.70786 0.0
H433 H 0.24174 0.67183 0.71935 0.0
H434 H 0.307 0.70985 0.60923 0.0
H435 H 0.40868 0.79492 0.62097 0.0
H436 H 0.16829 0.67861 0.61075 0.0
H437 H 0.07512 0.60645 0.62724 0.0
C438 C 0.30848 0.19656 0.3342 0.0
C439 C 0.25436 0.17034 0.35376 0.0
C440 C 0.24651 0.31072 0.35211 0.0
C441 C 0.31249 0.34335 0.33488 0.0
N442 N 0.41714 0.32184 0.31162 0.0
N443 N 0.18637 0.21175 0.38388 0.0
C444 C 0.34606 0.28731 0.32632 0.0
C445 C 0.22664 0.22955 0.36337 0.0
N446 N 0.32224 0.13425 0.32285 0.0
N447 N 0.20091 0.35588 0.35739 0.0
H448 H 0.17402 0.15555 0.39339 0.0
H449 H 0.17391 0.25801 0.39252 0.0
H450 H 0.2112 0.41396 0.349 0.0
H451 H 0.14592 0.33001 0.36836 0.0
H452 H 0.35358 0.14711 0.30731 0.0
H453 H 0.29393 0.0666 0.32787 0.0
H454 H 0.4503 0.28677 0.30674 0.0
H455 H 0.449 0.38874 0.30592 0.0
loop_
_geom_bond_atom_site_label_1
_geom_bond_atom_site_label_2
_geom_bond_distance
_geom_bond_site_symmetry_2
_ccdc_geom_bond_type
O0 Cd1 2.300 . S
O0 C7 1.275 . S
Cd1 O0 2.300 . S
Cd1 O9 2.381 . S
Cd1 O10 2.378 . S
O2 Cd3 2.385 . S
O2 C7 1.255 . S
Cd3 O2 2.385 . S
Cd3 O4 2.317 . S
O4 Cd3 2.317 . S
O4 C5 1.232 . S
C5 O4 1.232 . S
C5 O6 1.218 . S
O6 C5 1.218 . S
C7 O0 1.275 . S
C7 O2 1.255 . S
C8 O9 1.258 . S
C8 O10 1.256 . S
O9 Cd1 2.381 . S
O9 C8 1.258 . S
O10 Cd1 2.378 . S
O10 C8 1.256 . S
O11 Cd12 2.300 . S
O11 C18 1.275 . S
Cd12 O11 2.300 . S
Cd12 O20 2.381 . S
Cd12 O21 2.378 1_455 S
O13 Cd14 2.385 . S
O13 C18 1.255 . S
Cd14 O13 2.385 . S
Cd14 O15 2.317 . S
O15 Cd14 2.317 . S
O15 C16 1.232 . S
C16 O15 1.232 . S
C16 O17 1.218 . S
O17 C16 1.218 . S
C18 O11 1.275 . S
C18 O13 1.255 . S
C19 O20 1.258 . S
C19 O21 1.256 1_455 S
O20 Cd12 2.381 . S
O20 C19 1.258 . S
O21 Cd12 2.378 1_655 S
O21 C19 1.256 1_655 S
O22 Cd23 2.300 . S
O22 C29 1.275 . S
Cd23 O22 2.300 . S
Cd23 O31 2.381 . S
Cd23 O32 2.378 1_545 S
O24 Cd25 2.385 . S
O24 C29 1.255 . S
Cd25 O24 2.385 . S
Cd25 O26 2.317 . S
O26 Cd25 2.317 . S
O26 C27 1.232 . S
C27 O26 1.232 . S
C27 O28 1.218 . S
O28 C27 1.218 . S
C29 O22 1.275 . S
C29 O24 1.255 . S
C30 O31 1.258 . S
C30 O32 1.256 1_545 S
O31 Cd23 2.381 . S
O31 C30 1.258 . S
O32 Cd23 2.378 1_565 S
O32 C30 1.256 1_565 S
O33 Cd34 2.300 . S
O33 C40 1.275 . S
Cd34 O33 2.300 . S
Cd34 O42 2.381 . S
Cd34 O43 2.378 . S
O35 Cd36 2.385 . S
O35 C40 1.255 . S
Cd36 O35 2.385 . S
Cd36 O37 2.317 . S
O37 Cd36 2.317 . S
O37 C38 1.232 . S
C38 O37 1.232 . S
C38 O39 1.218 . S
O39 C38 1.218 . S
C40 O33 1.275 . S
C40 O35 1.255 . S
C41 O42 1.258 . S
C41 O43 1.256 . S
O42 Cd34 2.381 . S
O42 C41 1.258 . S
O43 Cd34 2.378 . S
O43 C41 1.256 . S
O44 Cd45 2.300 . S
O44 C51 1.275 . S
Cd45 O44 2.300 . S
Cd45 O53 2.381 . S
Cd45 O54 2.378 1_655 S
O46 Cd47 2.385 . S
O46 C51 1.255 . S
Cd47 O46 2.385 . S
Cd47 O48 2.317 . S
O48 Cd47 2.317 . S
O48 C49 1.232 . S
C49 O48 1.232 . S
C49 O50 1.218 . S
O50 C49 1.218 . S
C51 O44 1.275 . S
C51 O46 1.255 . S
C52 O53 1.258 . S
C52 O54 1.256 1_655 S
O53 Cd45 2.381 . S
O53 C52 1.258 . S
O54 Cd45 2.378 1_455 S
O54 C52 1.256 1_455 S
O55 Cd56 2.300 . S
O55 C62 1.275 . S
Cd56 O55 2.300 . S
Cd56 O64 2.381 . S
Cd56 O65 2.378 1_565 S
O57 Cd58 2.385 . S
O57 C62 1.255 . S
Cd58 O57 2.385 . S
Cd58 O59 2.317 . S
O59 Cd58 2.317 . S
O59 C60 1.232 . S
C60 O59 1.232 . S
C60 O61 1.218 . S
O61 C60 1.218 . S
C62 O55 1.275 . S
C62 O57 1.255 . S
C63 O64 1.258 . S
C63 O65 1.256 1_565 S
O64 Cd56 2.381 . S
O64 C63 1.258 . S
O65 Cd56 2.378 1_545 S
O65 C63 1.256 1_545 S
O66 Cd67 2.300 . S
O66 C73 1.275 . S
Cd67 O66 2.300 . S
Cd67 O75 2.381 . S
Cd67 O76 2.378 . S
O68 Cd69 2.385 . S
O68 C73 1.255 . S
Cd69 O68 2.385 . S
Cd69 O70 2.317 . S
O70 Cd69 2.317 . S
O70 C71 1.232 . S
C71 O70 1.232 . S
C71 O72 1.218 . S
O72 C71 1.218 . S
C73 O66 1.275 . S
C73 O68 1.255 . S
C74 O75 1.258 . S
C74 O76 1.256 . S
O75 Cd67 2.381 . S
O75 C74 1.258 . S
O76 Cd67 2.378 . S
O76 C74 1.256 . S
O77 Cd78 2.300 . S
O77 C84 1.275 . S
Cd78 O77 2.300 . S
Cd78 O86 2.381 . S
Cd78 O87 2.378 1_455 S
O79 Cd80 2.385 . S
O79 C84 1.255 . S
Cd80 O79 2.385 . S
Cd80 O81 2.317 . S
O81 Cd80 2.317 . S
O81 C82 1.232 . S
C82 O81 1.232 . S
C82 O83 1.218 . S
O83 C82 1.218 . S
C84 O77 1.275 . S
C84 O79 1.255 . S
C85 O86 1.258 . S
C85 O87 1.256 1_455 S
O86 Cd78 2.381 . S
O86 C85 1.258 . S
O87 Cd78 2.378 1_655 S
O87 C85 1.256 1_655 S
O88 Cd89 2.300 . S
O88 C95 1.275 . S
Cd89 O88 2.300 . S
Cd89 O97 2.381 . S
Cd89 O98 2.378 1_545 S
O90 Cd91 2.385 . S
O90 C95 1.255 . S
Cd91 O90 2.385 . S
Cd91 O92 2.317 . S
O92 Cd91 2.317 . S
O92 C93 1.232 . S
C93 O92 1.232 . S
C93 O94 1.218 . S
O94 C93 1.218 . S
C95 O88 1.275 . S
C95 O90 1.255 . S
C96 O97 1.258 . S
C96 O98 1.256 1_545 S
O97 Cd89 2.381 . S
O97 C96 1.258 . S
O98 Cd89 2.378 1_565 S
O98 C96 1.256 1_565 S
O99 Cd100 2.300 . S
O99 C106 1.275 . S
Cd100 O99 2.300 . S
Cd100 O108 2.381 . S
Cd100 O109 2.378 . S
O101 Cd102 2.385 . S
O101 C106 1.255 . S
Cd102 O101 2.385 . S
Cd102 O103 2.317 . S
O103 Cd102 2.317 . S
O103 C104 1.232 . S
C104 O103 1.232 . S
C104 O105 1.218 . S
O105 C104 1.218 . S
C106 O99 1.275 . S
C106 O101 1.255 . S
C107 O108 1.258 . S
C107 O109 1.256 . S
O108 Cd100 2.381 . S
O108 C107 1.258 . S
O109 Cd100 2.378 . S
O109 C107 1.256 . S
O110 Cd111 2.300 . S
O110 C117 1.275 . S
Cd111 O110 2.300 . S
Cd111 O119 2.381 . S
Cd111 O120 2.378 1_655 S
O112 Cd113 2.385 . S
O112 C117 1.255 . S
Cd113 O112 2.385 . S
Cd113 O114 2.317 . S
O114 Cd113 2.317 . S
O114 C115 1.232 . S
C115 O114 1.232 . S
C115 O116 1.218 . S
O116 C115 1.218 . S
C117 O110 1.275 . S
C117 O112 1.255 . S
C118 O119 1.258 . S
C118 O120 1.256 1_655 S
O119 Cd111 2.381 . S
O119 C118 1.258 . S
O120 Cd111 2.378 1_455 S
O120 C118 1.256 1_455 S
O121 Cd122 2.300 . S
O121 C128 1.275 . S
Cd122 O121 2.300 . S
Cd122 O130 2.381 . S
Cd122 O131 2.378 1_565 S
O123 Cd124 2.385 . S
O123 C128 1.255 . S
Cd124 O123 2.385 . S
Cd124 O125 2.317 . S
O125 Cd124 2.317 . S
O125 C126 1.232 . S
C126 O125 1.232 . S
C126 O127 1.218 . S
O127 C126 1.218 . S
C128 O121 1.275 . S
C128 O123 1.255 . S
C129 O130 1.258 . S
C129 O131 1.256 1_565 S
O130 Cd122 2.381 . S
O130 C129 1.258 . S
O131 Cd122 2.378 1_545 S
O131 C129 1.256 1_545 S
C132 C133 1.363 . S
C132 C138 1.379 . S
C132 N140 1.356 . S
C133 C132 1.363 . S
C133 C139 1.363 . S
C134 C135 1.363 . S
C134 C139 1.379 . S
C134 N141 1.356 . S
C135 C134 1.363 . S
C135 C138 1.363 . S
N136 C138 1.356 . S
N136 H148 0.984 . S
N136 H149 0.985 . S
N137 C139 1.356 . S
N137 H142 0.984 . S
N137 H143 0.985 . S
C138 C132 1.379 . S
C138 C135 1.363 . S
C138 N136 1.356 . S
C139 C133 1.363 . S
C139 C134 1.379 . S
C139 N137 1.356 . S
N140 C132 1.356 . S
N140 H146 0.984 . S
N140 H147 0.984 . S
N141 C134 1.356 . S
N141 H144 0.984 . S
N141 H145 0.985 . S
H142 N137 0.984 . S
H143 N137 0.985 . S
H144 N141 0.984 . S
H145 N141 0.985 . S
H146 N140 0.984 . S
H147 N140 0.984 . S
H148 N136 0.984 . S
H149 N136 0.985 . S
C150 C151 1.363 . S
C150 C156 1.379 . S
C150 N158 1.356 . S
C151 C150 1.363 . S
C151 C157 1.363 . S
C152 C153 1.363 . S
C152 C157 1.379 . S
C152 N159 1.356 . S
C153 C152 1.363 . S
C153 C156 1.363 . S
N154 C156 1.356 . S
N154 H166 0.984 . S
N154 H167 0.985 . S
N155 C157 1.356 . S
N155 H160 0.984 . S
N155 H161 0.985 . S
C156 C150 1.379 . S
C156 C153 1.363 . S
C156 N154 1.356 . S
C157 C151 1.363 . S
C157 C152 1.379 . S
C157 N155 1.356 . S
N158 C150 1.356 . S
N158 H164 0.984 . S
N158 H165 0.984 . S
N159 C152 1.356 . S
N159 H162 0.984 . S
N159 H163 0.985 . S
H160 N155 0.984 . S
H161 N155 0.985 . S
H162 N159 0.984 . S
H163 N159 0.985 . S
H164 N158 0.984 . S
H165 N158 0.984 . S
H166 N154 0.984 . S
H167 N154 0.985 . S
C168 C169 1.363 . S
C168 C174 1.379 . S
C168 N176 1.356 . S
C169 C168 1.363 . S
C169 C175 1.363 . S
C170 C171 1.363 . S
C170 C175 1.379 . S
C170 N177 1.356 . S
C171 C170 1.363 . S
C171 C174 1.363 . S
N172 C174 1.356 . S
N172 H184 0.989 . S
N172 H185 0.985 . S
N173 C175 1.356 . S
N173 H178 0.984 . S
N173 H179 0.985 . S
C174 C168 1.379 . S
C174 C171 1.363 . S
C174 N172 1.356 . S
C175 C169 1.363 . S
C175 C170 1.379 . S
C175 N173 1.356 . S
N176 C168 1.356 . S
N176 H182 0.989 . S
N176 H183 0.984 . S
N177 C170 1.356 . S
N177 H180 0.984 . S
N177 H181 0.985 . S
H178 N173 0.984 . S
H179 N173 0.985 . S
H180 N177 0.984 . S
H181 N177 0.985 . S
H182 N176 0.989 . S
H183 N176 0.984 . S
H184 N172 0.989 . S
H185 N172 0.985 . S
C186 C187 1.363 . S
C186 C192 1.379 . S
C186 N194 1.356 . S
C187 C186 1.363 . S
C187 C193 1.363 . S
C188 C189 1.363 . S
C188 C193 1.379 . S
C188 N195 1.356 . S
C189 C188 1.363 . S
C189 C192 1.363 . S
N190 C192 1.356 . S
N190 H202 0.984 . S
N190 H203 0.985 . S
N191 C193 1.356 . S
N191 H196 0.984 . S
N191 H197 0.985 . S
C192 C186 1.379 . S
C192 C189 1.363 . S
C192 N190 1.356 . S
C193 C187 1.363 . S
C193 C188 1.379 . S
C193 N191 1.356 . S
N194 C186 1.356 . S
N194 H200 0.984 . S
N194 H201 0.984 . S
N195 C188 1.356 . S
N195 H198 0.984 . S
N195 H199 0.985 . S
H196 N191 0.984 . S
H197 N191 0.985 . S
H198 N195 0.984 . S
H199 N195 0.985 . S
H200 N194 0.984 . S
H201 N194 0.984 . S
H202 N190 0.984 . S
H203 N190 0.985 . S
C204 C205 1.363 . S
C204 C210 1.379 . S
C204 N212 1.356 . S
C205 C204 1.363 . S
C205 C211 1.363 . S
C206 C207 1.363 . S
C206 C211 1.379 . S
C206 N213 1.356 . S
C207 C206 1.363 . S
C207 C210 1.363 . S
N208 C210 1.356 . S
N208 H220 0.984 . S
N208 H221 0.985 . S
N209 C211 1.356 . S
N209 H214 0.984 . S
N209 H215 0.985 . S
C210 C204 1.379 . S
C210 C207 1.363 . S
C210 N208 1.356 . S
C211 C205 1.363 . S
C211 C206 1.379 . S
C211 N209 1.356 . S
N212 C204 1.356 . S
N212 H218 0.984 . S
N212 H219 0.984 . S
N213 C206 1.356 . S
N213 H216 0.984 . S
N213 H217 0.985 . S
H214 N209 0.984 . S
H215 N209 0.985 . S
H216 N213 0.984 . S
H217 N213 0.985 . S
H218 N212 0.984 . S
H219 N212 0.984 . S
H220 N208 0.984 . S
H221 N208 0.985 . S
C222 C223 1.363 . S
C222 C228 1.379 . S
C222 N230 1.356 . S
C223 C222 1.363 . S
C223 C229 1.363 . S
C224 C225 1.363 . S
C224 C229 1.379 . S
C224 N231 1.356 . S
C225 C224 1.363 . S
C225 C228 1.363 . S
N226 C228 1.356 . S
N226 H238 0.984 . S
N226 H239 0.985 . S
N227 C229 1.356 . S
N227 H232 0.984 . S
N227 H233 0.996 . S
C228 C222 1.379 . S
C228 C225 1.363 . S
C228 N226 1.356 . S
C229 C223 1.363 . S
C229 C224 1.379 . S
C229 N227 1.356 . S
N230 C222 1.356 . S
N230 H236 0.984 . S
N230 H237 0.984 . S
N231 C224 1.356 . S
N231 H234 0.984 . S
N231 H235 0.995 . S
H232 N227 0.984 . S
H233 N227 0.996 . S
H234 N231 0.984 . S
H235 N231 0.995 . S
H236 N230 0.984 . S
H237 N230 0.984 . S
H238 N226 0.984 . S
H239 N226 0.985 . S
C240 C241 1.363 . S
C240 C246 1.379 1_545 S
C240 N248 1.356 . S
C241 C240 1.363 . S
C241 C247 1.363 . S
C242 C243 1.363 . S
C242 C247 1.379 1_565 S
C242 N249 1.356 . S
C243 C242 1.363 . S
C243 C246 1.363 . S
N244 C246 1.356 . S
N244 H256 0.984 . S
N244 H257 0.985 . S
N245 C247 1.356 . S
N245 H250 0.984 . S
N245 H251 0.985 . S
C246 C240 1.379 1_565 S
C246 C243 1.363 . S
C246 N244 1.356 . S
C247 C241 1.363 . S
C247 C242 1.379 1_545 S
C247 N245 1.356 . S
N248 C240 1.356 . S
N248 H254 0.984 1_545 S
N248 H255 0.984 . S
N249 C242 1.356 . S
N249 H252 0.984 . S
N249 H253 0.985 1_565 S
H250 N245 0.984 . S
H251 N245 0.985 . S
H252 N249 0.984 . S
H253 N249 0.985 1_545 S
H254 N248 0.984 1_565 S
H255 N248 0.984 . S
H256 N244 0.984 . S
H257 N244 0.985 . S
C258 C259 1.363 . S
C258 C264 1.379 . S
C258 N266 1.356 . S
C259 C258 1.363 . S
C259 C265 1.363 . S
C260 C261 1.363 . S
C260 C265 1.379 . S
C260 N267 1.356 . S
C261 C260 1.363 . S
C261 C264 1.363 . S
N262 C264 1.356 . S
N262 H274 0.984 . S
N262 H275 0.985 . S
N263 C265 1.356 . S
N263 H268 0.984 . S
N263 H269 0.985 . S
C264 C258 1.379 . S
C264 C261 1.363 . S
C264 N262 1.356 . S
C265 C259 1.363 . S
C265 C260 1.379 . S
C265 N263 1.356 . S
N266 C258 1.356 . S
N266 H272 0.984 . S
N266 H273 0.984 . S
N267 C260 1.356 . S
N267 H270 0.984 . S
N267 H271 0.985 . S
H268 N263 0.984 . S
H269 N263 0.985 . S
H270 N267 0.984 . S
H271 N267 0.985 . S
H272 N266 0.984 . S
H273 N266 0.984 . S
H274 N262 0.984 . S
H275 N262 0.985 . S
C276 C277 1.363 . S
C276 C282 1.379 1_455 S
C276 N284 1.356 . S
C277 C276 1.363 . S
C277 C283 1.363 . S
C278 C279 1.363 . S
C278 C283 1.379 1_655 S
C278 N285 1.356 . S
C279 C278 1.363 . S
C279 C282 1.363 . S
N280 C282 1.356 . S
N280 H292 0.984 . S
N280 H293 0.985 . S
N281 C283 1.356 . S
N281 H286 0.984 . S
N281 H287 0.985 . S
C282 C276 1.379 1_655 S
C282 C279 1.363 . S
C282 N280 1.356 . S
C283 C277 1.363 . S
C283 C278 1.379 1_455 S
C283 N281 1.356 . S
N284 C276 1.356 . S
N284 H290 0.984 1_455 S
N284 H291 0.984 . S
N285 C278 1.356 . S
N285 H288 0.984 . S
N285 H289 0.985 1_655 S
H286 N281 0.984 . S
H287 N281 0.985 . S
H288 N285 0.984 . S
H289 N285 0.985 1_455 S
H290 N284 0.984 1_655 S
H291 N284 0.984 . S
H292 N280 0.984 . S
H293 N280 0.985 . S
C294 C295 1.363 . S
C294 C300 1.379 1_655 S
C294 N302 1.356 . S
C295 C294 1.363 . S
C295 C301 1.363 . S
C296 C297 1.363 . S
C296 C301 1.379 1_455 S
C296 N303 1.356 . S
C297 C296 1.363 . S
C297 C300 1.363 . S
N298 C300 1.356 . S
N298 H310 0.984 1_455 S
N298 H311 0.985 . S
N299 C301 1.356 . S
N299 H304 0.984 . S
N299 H305 0.985 1_655 S
C300 C294 1.379 1_455 S
C300 C297 1.363 . S
C300 N298 1.356 . S
C301 C295 1.363 . S
C301 C296 1.379 1_655 S
C301 N299 1.356 . S
N302 C294 1.356 . S
N302 H308 0.984 . S
N302 H309 0.984 . S
N303 C296 1.356 . S
N303 H306 0.984 . S
N303 H307 0.985 . S
H304 N299 0.984 . S
H305 N299 0.985 1_455 S
H306 N303 0.984 . S
H307 N303 0.985 . S
H308 N302 0.984 . S
H309 N302 0.984 . S
H310 N298 0.984 1_655 S
H311 N298 0.985 . S
C312 C313 1.363 . S
C312 C318 1.379 1_545 S
C312 N320 1.356 . S
C313 C312 1.363 . S
C313 C319 1.363 . S
C314 C315 1.363 . S
C314 C319 1.379 1_565 S
C314 N321 1.356 . S
C315 C314 1.363 . S
C315 C318 1.363 . S
N316 C318 1.356 . S
N316 H328 0.984 . S
N316 H329 0.985 . S
N317 C319 1.356 . S
N317 H322 0.984 . S
N317 H323 0.985 . S
C318 C312 1.379 1_565 S
C318 C315 1.363 . S
C318 N316 1.356 . S
C319 C313 1.363 . S
C319 C314 1.379 1_545 S
C319 N317 1.356 . S
N320 C312 1.356 . S
N320 H326 0.984 1_545 S
N320 H327 0.984 . S
N321 C314 1.356 . S
N321 H324 0.984 . S
N321 H325 0.985 1_565 S
H322 N317 0.984 . S
H323 N317 0.985 . S
H324 N321 0.984 . S
H325 N321 0.985 1_545 S
H326 N320 0.984 1_565 S
H327 N320 0.984 . S
H328 N316 0.984 . S
H329 N316 0.985 . S
C330 C331 1.363 . S
C330 C336 1.379 . S
C330 N338 1.356 . S
C331 C330 1.363 . S
C331 C337 1.363 . S
C332 C333 1.363 . S
C332 C337 1.379 . S
C332 N339 1.356 . S
C333 C332 1.363 . S
C333 C336 1.363 . S
N334 C336 1.356 . S
N334 H346 0.984 . S
N334 H347 0.985 . S
N335 C337 1.356 . S
N335 H340 0.984 . S
N335 H341 0.985 . S
C336 C330 1.379 . S
C336 C333 1.363 . S
C336 N334 1.356 . S
C337 C331 1.363 . S
C337 C332 1.379 . S
C337 N335 1.356 . S
N338 C330 1.356 . S
N338 H344 0.984 . S
N338 H345 0.984 . S
N339 C332 1.356 . S
N339 H342 0.984 . S
N339 H343 0.985 . S
H340 N335 0.984 . S
H341 N335 0.985 . S
H342 N339 0.984 . S
H343 N339 0.985 . S
H344 N338 0.984 . S
H345 N338 0.984 . S
H346 N334 0.984 . S
H347 N334 0.985 . S
C348 C349 1.363 1_554 S
C348 C354 1.379 . S
C348 N356 1.356 1_454 S
C349 C348 1.363 1_556 S
C349 C355 1.363 . S
C350 C351 1.363 1_556 S
C350 C355 1.379 . S
C350 N357 1.356 1_556 S
C351 C350 1.363 1_554 S
C351 C354 1.363 . S
N352 C354 1.356 . S
N352 H364 0.984 . S
N352 H365 0.985 . S
N353 C355 1.356 . S
N353 H358 0.984 . S
N353 H359 0.985 . S
C354 C348 1.379 . S
C354 C351 1.363 . S
C354 N352 1.356 . S
C355 C349 1.363 . S
C355 C350 1.379 . S
C355 N353 1.356 . S
N356 C348 1.356 1_656 S
N356 H362 0.984 1_556 S
N356 H363 0.984 . S
N357 C350 1.356 1_554 S
N357 H360 0.984 . S
N357 H361 0.985 1_554 S
H358 N353 0.984 . S
H359 N353 0.985 . S
H360 N357 0.984 . S
H361 N357 0.985 1_556 S
H362 N356 0.984 1_554 S
H363 N356 0.984 . S
H364 N352 0.984 . S
H365 N352 0.985 . S
C366 C367 1.363 . S
C366 C372 1.379 . S
C366 N374 1.356 . S
C367 C366 1.363 . S
C367 C373 1.363 . S
C368 C369 1.363 . S
C368 C373 1.379 . S
C368 N375 1.356 1_655 S
C369 C368 1.363 . S
C369 C372 1.363 . S
N370 C372 1.356 . S
N370 H382 0.984 . S
N370 H383 0.985 . S
N371 C373 1.356 . S
N371 H376 0.984 . S
N371 H377 0.985 . S
C372 C366 1.379 . S
C372 C369 1.363 . S
C372 N370 1.356 . S
C373 C367 1.363 . S
C373 C368 1.379 . S
C373 N371 1.356 . S
N374 C366 1.356 . S
N374 H380 0.984 . S
N374 H381 0.984 1_545 S
N375 C368 1.356 1_455 S
N375 H378 0.984 . S
N375 H379 0.985 . S
H376 N371 0.984 . S
H377 N371 0.985 . S
H378 N375 0.984 . S
H379 N375 0.985 . S
H380 N374 0.984 . S
H381 N374 0.984 1_565 S
H382 N370 0.984 . S
H383 N370 0.985 . S
C384 C385 1.363 . S
C384 C390 1.379 . S
C384 N392 1.356 1_565 S
C385 C384 1.363 . S
C385 C391 1.363 . S
C386 C387 1.363 . S
C386 C391 1.379 . S
C386 N393 1.356 . S
C387 C386 1.363 . S
C387 C390 1.363 . S
N388 C390 1.356 . S
N388 H400 0.984 . S
N388 H401 0.985 . S
N389 C391 1.356 . S
N389 H394 0.984 . S
N389 H395 0.985 . S
C390 C384 1.379 . S
C390 C387 1.363 . S
C390 N388 1.356 . S
C391 C385 1.363 . S
C391 C386 1.379 . S
C391 N389 1.356 . S
N392 C384 1.356 1_545 S
N392 H398 0.984 . S
N392 H399 0.984 . S
N393 C386 1.356 . S
N393 H396 0.984 . S
N393 H397 0.985 . S
H394 N389 0.984 . S
H395 N389 0.985 . S
H396 N393 0.984 . S
H397 N393 0.985 . S
H398 N392 0.984 . S
H399 N392 0.984 . S
H400 N388 0.984 . S
H401 N388 0.985 . S
C402 C403 1.363 1_556 S
C402 C408 1.379 . S
C402 N410 1.356 1_556 S
C403 C402 1.363 1_554 S
C403 C409 1.363 . S
C404 C405 1.363 1_554 S
C404 C409 1.379 . S
C404 N411 1.356 1_554 S
C405 C404 1.363 1_556 S
C405 C408 1.363 . S
N406 C408 1.356 . S
N406 H418 0.984 . S
N406 H419 0.985 1_655 S
N407 C409 1.356 . S
N407 H412 0.984 . S
N407 H413 0.985 . S
C408 C402 1.379 . S
C408 C405 1.363 . S
C408 N406 1.356 . S
C409 C403 1.363 . S
C409 C404 1.379 . S
C409 N407 1.356 . S
N410 C402 1.356 1_554 S
N410 H416 0.984 1_554 S
N410 H417 0.984 . S
N411 C404 1.356 1_556 S
N411 H414 0.984 . S
N411 H415 0.985 1_556 S
H412 N407 0.984 . S
H413 N407 0.985 . S
H414 N411 0.984 . S
H415 N411 0.985 1_554 S
H416 N410 0.984 1_556 S
H417 N410 0.984 . S
H418 N406 0.984 . S
H419 N406 0.985 1_455 S
C420 C421 1.363 . S
C420 C426 1.379 . S
C420 N428 1.356 . S
C421 C420 1.363 . S
C421 C427 1.363 . S
C422 C423 1.363 . S
C422 C427 1.379 . S
C422 N429 1.356 . S
C423 C422 1.363 . S
C423 C426 1.363 . S
N424 C426 1.356 1_655 S
N424 H436 0.984 . S
N424 H437 0.985 . S
N425 C427 1.356 1_545 S
N425 H430 0.984 . S
N425 H431 0.985 . S
C426 C420 1.379 . S
C426 C423 1.363 . S
C426 N424 1.356 1_455 S
C427 C421 1.363 . S
C427 C422 1.379 . S
C427 N425 1.356 1_565 S
N428 C420 1.356 . S
N428 H434 0.984 . S
N428 H435 0.984 . S
N429 C422 1.356 . S
N429 H432 0.984 . S
N429 H433 0.985 . S
H430 N425 0.984 . S
H431 N425 0.985 . S
H432 N429 0.984 . S
H433 N429 0.985 . S
H434 N428 0.984 . S
H435 N428 0.984 . S
H436 N424 0.984 . S
H437 N424 0.985 . S
C438 C439 1.363 . S
C438 C444 1.379 . S
C438 N446 1.356 1_545 S
C439 C438 1.363 . S
C439 C445 1.363 . S
C440 C441 1.363 . S
C440 C445 1.379 . S
C440 N447 1.356 . S
C441 C440 1.363 . S
C441 C444 1.363 . S
N442 C444 1.356 . S
N442 H454 0.984 . S
N442 H455 0.985 . S
N443 C445 1.356 . S
N443 H448 0.984 . S
N443 H449 0.985 . S
C444 C438 1.379 . S
C444 C441 1.363 . S
C444 N442 1.356 . S
C445 C439 1.363 . S
C445 C440 1.379 . S
C445 N443 1.356 . S
N446 C438 1.356 1_565 S
N446 H452 0.984 . S
N446 H453 0.984 . S
N447 C440 1.356 . S
N447 H450 0.984 . S
N447 H451 0.985 . S
H448 N443 0.984 . S
H449 N443 0.985 . S
H450 N447 0.984 . S
H451 N447 0.985 . S
H452 N446 0.984 . S
H453 N446 0.984 . S
H454 N442 0.984 . S
H455 N442 0.985 . S
C133 C5 1.259 . S
C135 C71 1.259 . S
C151 C16 1.259 . S
C153 C82 1.259 . S
C169 C27 1.259 . S
C171 C93 1.259 . S
C187 C104 1.259 . S
C189 C38 1.259 . S
C205 C49 1.259 . S
C207 C115 1.259 . S
C223 C126 1.259 . S
C225 C60 1.259 . S
C241 C7 1.451 . S
C243 C40 1.451 . S
C259 C18 1.451 . S
C261 C51 1.451 . S
C277 C62 1.451 . S
C279 C29 1.451 . S
C295 C73 1.451 . S
C297 C106 1.451 . S
C313 C117 1.451 . S
C315 C84 1.451 . S
C331 C128 1.451 . S
C333 C95 1.451 . S
C349 C118 1.495 1_455 S
C351 C8 1.495 . S
C367 C129 1.495 1_545 S
C369 C19 1.495 1_655 S
C385 C30 1.495 1_565 S
C387 C74 1.495 . S
C403 C41 1.495 . S
C405 C85 1.495 1_655 S
C421 C96 1.494 1_565 S
C423 C52 1.494 1_455 S
C439 C63 1.495 1_545 S
C441 C107 1.495 . S
