# Generated by pormake.
# Topology uoy, (4)-cn, num edge types: 1
# Building blocks:
#     Node 0, Type 0, BuildingBlock: KUFVIS_clean_sbu_0, # of connection points: 4
#     Node 1, Type 0, BuildingBlock: KUFVIS_clean_sbu_0, # of connection points: 4
#     Node 2, Type 0, BuildingBlock: KUFVIS_clean_sbu_0, # of connection points: 4
#     Node 3, Type 0, BuildingBlock: KUFVIS_clean_sbu_0, # of connection points: 4
#     Node 4, Type 0, BuildingBlock: KUFVIS_clean_sbu_0, # of connection points: 4
#     Node 5, Type 0, BuildingBlock: KUFVIS_clean_sbu_0, # of connection points: 4
#     Node 6, Type 0, BuildingBlock: KUFVIS_clean_sbu_0, # of connection points: 4
#     Node 7, Type 0, BuildingBlock: KUFVIS_clean_sbu_0, # of connection points: 4
#     Node 8, Type 0, BuildingBlock: KUFVIS_clean_sbu_0, # of connection points: 4
#     Node 9, Type 0, BuildingBlock: KUFVIS_clean_sbu_0, # of connection points: 4
#     Node 10, Type 0, BuildingBlock: KUFVIS_clean_sbu_0, # of connection points: 4
#     Node 11, Type 0, BuildingBlock: KUFVIS_clean_sbu_0, # of connection points: 4
#     Node 12, Type 0, BuildingBlock: KUFVIS_clean_sbu_0, # of connection points: 4
#     Node 13, Type 0, BuildingBlock: KUFVIS_clean_sbu_0, # of connection points: 4
#     Node 14, Type 0, BuildingBlock: KUFVIS_clean_sbu_0, # of connection points: 4
#     Node 15, Type 0, BuildingBlock: KUFVIS_clean_sbu_0, # of connection points: 4
#     Edge 16, Type (0, 0), BuildingBlock: XIVTED_clean_linker_0, # of connection points: 2
#     Edge 17, Type (0, 0), BuildingBlock: XIVTED_clean_linker_0, # of connection points: 2
#     Edge 18, Type (0, 0), BuildingBlock: XIVTED_clean_linker_0, # of connection points: 2
#     Edge 19, Type (0, 0), BuildingBlock: XIVTED_clean_linker_0, # of connection points: 2
#     Edge 20, Type (0, 0), BuildingBlock: XIVTED_clean_linker_0, # of connection points: 2
#     Edge 21, Type (0, 0), BuildingBlock: XIVTED_clean_linker_0, # of connection points: 2
#     Edge 22, Type (0, 0), BuildingBlock: XIVTED_clean_linker_0, # of connection points: 2
#     Edge 23, Type (0, 0), BuildingBlock: XIVTED_clean_linker_0, # of connection points: 2
#     Edge 24, Type (0, 0), BuildingBlock: XIVTED_clean_linker_0, # of connection points: 2
#     Edge 25, Type (0, 0), BuildingBlock: XIVTED_clean_linker_0, # of connection points: 2
#     Edge 26, Type (0, 0), BuildingBlock: XIVTED_clean_linker_0, # of connection points: 2
#     Edge 27, Type (0, 0), BuildingBlock: XIVTED_clean_linker_0, # of connection points: 2
#     Edge 28, Type (0, 0), BuildingBlock: XIVTED_clean_linker_0, # of connection points: 2
#     Edge 29, Type (0, 0), BuildingBlock: XIVTED_clean_linker_0, # of connection points: 2
#     Edge 30, Type (0, 0), BuildingBlock: XIVTED_clean_linker_0, # of connection points: 2
#     Edge 31, Type (0, 0), BuildingBlock: XIVTED_clean_linker_0, # of connection points: 2
#     Edge 32, Type (0, 0), BuildingBlock: XIVTED_clean_linker_0, # of connection points: 2
#     Edge 33, Type (0, 0), BuildingBlock: XIVTED_clean_linker_0, # of connection points: 2
#     Edge 34, Type (0, 0), BuildingBlock: XIVTED_clean_linker_0, # of connection points: 2
#     Edge 35, Type (0, 0), BuildingBlock: XIVTED_clean_linker_0, # of connection points: 2
#     Edge 36, Type (0, 0), BuildingBlock: XIVTED_clean_linker_0, # of connection points: 2
#     Edge 37, Type (0, 0), BuildingBlock: XIVTED_clean_linker_0, # of connection points: 2
#     Edge 38, Type (0, 0), BuildingBlock: XIVTED_clean_linker_0, # of connection points: 2
#     Edge 39, Type (0, 0), BuildingBlock: XIVTED_clean_linker_0, # of connection points: 2
#     Edge 40, Type (0, 0), BuildingBlock: XIVTED_clean_linker_0, # of connection points: 2
#     Edge 41, Type (0, 0), BuildingBlock: XIVTED_clean_linker_0, # of connection points: 2
#     Edge 42, Type (0, 0), BuildingBlock: XIVTED_clean_linker_0, # of connection points: 2
#     Edge 43, Type (0, 0), BuildingBlock: XIVTED_clean_linker_0, # of connection points: 2
#     Edge 44, Type (0, 0), BuildingBlock: XIVTED_clean_linker_0, # of connection points: 2
#     Edge 45, Type (0, 0), BuildingBlock: XIVTED_clean_linker_0, # of connection points: 2
#     Edge 46, Type (0, 0), BuildingBlock: XIVTED_clean_linker_0, # of connection points: 2
#     Edge 47, Type (0, 0), BuildingBlock: XIVTED_clean_linker_0, # of connection points: 2
# Relax obj value: 0.051
# Max RMSD: 0.080
# Mean RMSD: 0.080
data_MOF--net-uoy--node1-KUFVIS_clean_sbu_0--edge1-XIVTED_clean_linker_0
_symmetry_space_group_name_H-M    P1
_symmetry_Int_Tables_number       1
_symmetry_cell_setting            triclinic
loop_
_symmetry_equiv_pos_as_xyz
'x, y, z'
_cell_length_a     27.90066
_cell_length_b     27.869395
_cell_length_c     105.47642
_cell_angle_alpha  89.99496
_cell_angle_beta   90.00508
_cell_angle_gamma 90.041511
loop_
_atom_site_label
_atom_site_type_symbol
_atom_site_fract_x
_atom_site_fract_y
_atom_site_fract_z
_atom_type_partial_charge
Mn0 Mn 0.26792 0.10015 0.18432 0.0
Mn1 Mn 0.20019 0.19415 0.19339 0.0
C2 C 0.26718 0.12355 0.20536 0.0
C3 C 0.34126 0.07173 0.17664 0.0
C4 C 0.15885 0.09601 0.18685 0.0
O5 O 0.25262 0.1342 0.16772 0.0
O6 O 0.21573 0.20064 0.1751 0.0
C7 C 0.27114 0.27227 0.19027 0.0
N8 N 0.24031 0.24719 0.19778 0.0
C9 C 0.26205 0.29419 0.21603 0.0
C10 C 0.29364 0.32086 0.20846 0.0
C11 C 0.29816 0.30986 0.19552 0.0
C12 C 0.23534 0.25773 0.21022 0.0
H13 H 0.27536 0.26343 0.18037 0.0
C14 C 0.23393 0.17563 0.16611 0.0
O15 O 0.30213 0.04683 0.17536 0.0
O16 O 0.33735 0.11331 0.18201 0.0
N17 N 0.18366 0.19214 0.21098 0.0
C18 C 0.154 0.16103 0.21714 0.0
C19 C 0.14667 0.16621 0.23024 0.0
C20 C 0.17012 0.20309 0.23687 0.0
C21 C 0.20021 0.2348 0.23029 0.0
C22 C 0.20519 0.22868 0.21719 0.0
H23 H 0.13637 0.13223 0.21213 0.0
O24 O 0.28059 0.08052 0.2023 0.0
O25 O 0.25458 0.15112 0.19601 0.0
O26 O 0.19884 0.07441 0.18528 0.0
O27 O 0.15576 0.14082 0.18935 0.0
C28 C 0.22711 0.27087 0.23631 0.0
C29 C 0.25762 0.3009 0.22921 0.0
H30 H 0.31516 0.34933 0.21253 0.0
H31 H 0.32279 0.32999 0.18964 0.0
H32 H 0.12351 0.14146 0.23524 0.0
H33 H 0.16528 0.20634 0.24702 0.0
H34 H 0.22624 0.27416 0.24648 0.0
H35 H 0.27869 0.32798 0.23403 0.0
Mn36 Mn 0.89432 0.75533 0.43488 0.0
Mn37 Mn 0.79992 0.68453 0.44167 0.0
C38 C 0.86812 0.74762 0.45566 0.0
C39 C 0.92528 0.8301 0.42895 0.0
C40 C 0.89885 0.64595 0.43509 0.0
O41 O 0.86196 0.74605 0.41772 0.0
O42 O 0.79532 0.70631 0.42381 0.0
C43 C 0.72003 0.75395 0.4395 0.0
N44 N 0.74505 0.72123 0.44643 0.0
C45 C 0.68702 0.724 0.46326 0.0
C46 C 0.6605 0.75766 0.45631 0.0
C47 C 0.67734 0.77304 0.44442 0.0
C48 C 0.72988 0.7072 0.45801 0.0
H49 H 0.73244 0.76515 0.43026 0.0
C50 C 0.82069 0.728 0.41546 0.0
O51 O 0.94921 0.79076 0.42711 0.0
O52 O 0.88306 0.82587 0.43397 0.0
N53 N 0.79976 0.66184 0.45877 0.0
C54 C 0.83133 0.63188 0.46464 0.0
C55 C 0.82101 0.61487 0.47687 0.0
C56 C 0.77785 0.6279 0.4828 0.0
C57 C 0.74591 0.65869 0.47654 0.0
C58 C 0.75879 0.67561 0.46453 0.0
H59 H 0.86396 0.62079 0.45999 0.0
O60 O 0.91159 0.76146 0.45321 0.0
O61 O 0.84146 0.73872 0.44587 0.0
O62 O 0.92012 0.6864 0.43448 0.0
O63 O 0.85396 0.64194 0.43715 0.0
C64 C 0.70161 0.67293 0.4817 0.0
C65 C 0.67244 0.70607 0.47514 0.0
H66 H 0.62721 0.77195 0.46 0.0
H67 H 0.65712 0.79905 0.439 0.0
H68 H 0.84586 0.59114 0.48163 0.0
H69 H 0.76962 0.61407 0.49214 0.0
H70 H 0.69012 0.65952 0.49085 0.0
H71 H 0.63906 0.71776 0.47937 0.0
Mn72 Mn 0.24282 0.40566 0.68432 0.0
Mn73 Mn 0.31001 0.31031 0.69275 0.0
C74 C 0.24392 0.37996 0.7052 0.0
C75 C 0.16968 0.43608 0.67701 0.0
C76 C 0.35211 0.40887 0.68713 0.0
O77 O 0.25697 0.37309 0.6674 0.0
O78 O 0.29581 0.30718 0.67436 0.0
C79 C 0.23833 0.23385 0.68822 0.0
N80 N 0.26898 0.25698 0.69621 0.0
C81 C 0.24573 0.20641 0.71363 0.0
C82 C 0.21437 0.18168 0.70556 0.0
C83 C 0.21065 0.19549 0.69279 0.0
C84 C 0.27295 0.24392 0.70849 0.0
H85 H 0.23473 0.2448 0.67845 0.0
C86 C 0.27672 0.33232 0.66554 0.0
O87 O 0.20919 0.46042 0.67583 0.0
O88 O 0.17305 0.3939 0.68208 0.0
N89 N 0.32522 0.30872 0.71042 0.0
C90 C 0.35503 0.33799 0.71713 0.0
C91 C 0.36161 0.32989 0.73016 0.0
C92 C 0.33739 0.29192 0.73614 0.0
C93 C 0.30729 0.26204 0.72899 0.0
C94 C 0.30291 0.27119 0.71601 0.0
H95 H 0.37334 0.36752 0.71261 0.0
O96 O 0.23104 0.42348 0.70249 0.0
O97 O 0.25586 0.3533 0.69563 0.0
O98 O 0.31224 0.43039 0.68529 0.0
O99 O 0.35509 0.36403 0.68962 0.0
C100 C 0.28016 0.22459 0.73433 0.0
C101 C 0.24968 0.19653 0.72667 0.0
H102 H 0.19246 0.15251 0.7091 0.0
H103 H 0.18619 0.17689 0.68652 0.0
H104 H 0.38486 0.35316 0.73561 0.0
H105 H 0.34178 0.28633 0.74624 0.0
H106 H 0.28117 0.21824 0.74438 0.0
H107 H 0.22848 0.16832 0.73098 0.0
Mn108 Mn 0.61194 0.74945 0.93469 0.0
Mn109 Mn 0.70626 0.82075 0.94155 0.0
C110 C 0.6398 0.75532 0.95533 0.0
C111 C 0.58055 0.67479 0.92871 0.0
C112 C 0.60632 0.85948 0.93682 0.0
O113 O 0.6426 0.7596 0.91737 0.0
O114 O 0.70484 0.8065 0.92314 0.0
C115 C 0.78395 0.7519 0.93569 0.0
N116 N 0.76207 0.78222 0.94399 0.0
C117 C 0.82332 0.76905 0.95966 0.0
C118 C 0.84664 0.73782 0.95126 0.0
C119 C 0.8267 0.72899 0.93925 0.0
C120 C 0.78051 0.79033 0.95564 0.0
H121 H 0.76895 0.74535 0.92641 0.0
C122 C 0.6804 0.7836 0.91484 0.0
O123 O 0.55636 0.71417 0.92714 0.0
O124 O 0.62322 0.67901 0.93344 0.0
N125 N 0.71268 0.83712 0.95906 0.0
C126 C 0.68441 0.86626 0.96624 0.0
C127 C 0.699 0.87845 0.97856 0.0
C128 C 0.74276 0.86113 0.98329 0.0
C129 C 0.77106 0.83082 0.97576 0.0
C130 C 0.75456 0.81978 0.96358 0.0
H131 H 0.65126 0.88049 0.96253 0.0
O132 O 0.59606 0.74202 0.95304 0.0
O133 O 0.66583 0.76521 0.94546 0.0
O134 O 0.58626 0.81893 0.9348 0.0
O135 O 0.6508 0.86384 0.93942 0.0
C136 C 0.81514 0.81139 0.97981 0.0
C137 C 0.84087 0.77997 0.97184 0.0
H138 H 0.87979 0.72034 0.95394 0.0
H139 H 0.84441 0.70485 0.93272 0.0
H140 H 0.67693 0.90171 0.98433 0.0
H141 H 0.75422 0.87144 0.99271 0.0
H142 H 0.82957 0.82012 0.98905 0.0
H143 H 0.87422 0.76455 0.97516 0.0
Mn144 Mn 0.25169 0.3921 0.05951 0.0
Mn145 Mn 0.18349 0.29558 0.05272 0.0
C146 C 0.24582 0.36457 0.03882 0.0
C147 C 0.32576 0.42426 0.06559 0.0
C148 C 0.14205 0.39455 0.05792 0.0
O149 O 0.24147 0.3615 0.07685 0.0
O150 O 0.20082 0.29531 0.07093 0.0
C151 C 0.25593 0.21985 0.0572 0.0
N152 N 0.22354 0.24147 0.04941 0.0
C153 C 0.23596 0.18211 0.03321 0.0
C154 C 0.26919 0.15896 0.04108 0.0
C155 C 0.27949 0.17815 0.0531 0.0
C156 C 0.21423 0.224 0.03773 0.0
H157 H 0.26366 0.23427 0.06648 0.0
C158 C 0.22168 0.32122 0.0793 0.0
O159 O 0.2862 0.44815 0.06712 0.0
O160 O 0.32203 0.38157 0.06082 0.0
N161 N 0.16474 0.29058 0.03534 0.0
C162 C 0.13363 0.31859 0.02868 0.0
C163 C 0.12012 0.30488 0.01638 0.0
C164 C 0.13801 0.26214 0.01116 0.0
C165 C 0.17016 0.23398 0.01817 0.0
C166 C 0.18275 0.24976 0.03031 0.0
H167 H 0.11891 0.35088 0.03278 0.0
O168 O 0.259 0.40835 0.04115 0.0
O169 O 0.23689 0.33819 0.04868 0.0
O170 O 0.18207 0.41622 0.05933 0.0
O171 O 0.13882 0.34955 0.05572 0.0
C172 C 0.18987 0.19064 0.01366 0.0
C173 C 0.22331 0.16515 0.02109 0.0
H174 H 0.2871 0.12653 0.03799 0.0
H175 H 0.30524 0.16062 0.05921 0.0
H176 H 0.0954 0.32683 0.01101 0.0
H177 H 0.12676 0.25133 0.00176 0.0
H178 H 0.17976 0.17659 0.00448 0.0
H179 H 0.2389 0.13241 0.0174 0.0
Mn180 Mn 0.60588 0.76998 0.30861 0.0
Mn181 Mn 0.70175 0.69986 0.30259 0.0
C182 C 0.63459 0.76171 0.28804 0.0
C183 C 0.57382 0.84507 0.31399 0.0
C184 C 0.60212 0.65997 0.30775 0.0
O185 O 0.63559 0.76127 0.32618 0.0
O186 O 0.7011 0.71892 0.32063 0.0
C187 C 0.77776 0.7723 0.30689 0.0
N188 N 0.75658 0.73895 0.29928 0.0
C189 C 0.81812 0.74775 0.28351 0.0
C190 C 0.84092 0.78182 0.29121 0.0
C191 C 0.82039 0.79448 0.30291 0.0
C192 C 0.77523 0.72759 0.28787 0.0
H193 H 0.76226 0.78184 0.31592 0.0
C194 C 0.67546 0.74103 0.32881 0.0
O195 O 0.54971 0.80572 0.31573 0.0
O196 O 0.61674 0.84061 0.30945 0.0
N197 N 0.70782 0.67923 0.28538 0.0
C198 C 0.67997 0.64769 0.27881 0.0
C199 C 0.6949 0.63197 0.2668 0.0
C200 C 0.73874 0.64804 0.2618 0.0
C201 C 0.76673 0.68067 0.26872 0.0
C202 C 0.74965 0.69557 0.28055 0.0
H203 H 0.6469 0.63423 0.28278 0.0
O204 O 0.59087 0.77554 0.29009 0.0
O205 O 0.66016 0.75347 0.29807 0.0
O206 O 0.58101 0.70043 0.30888 0.0
O207 O 0.64707 0.65604 0.30563 0.0
C208 C 0.81118 0.69855 0.26445 0.0
C209 C 0.83641 0.73271 0.27172 0.0
H210 H 0.87409 0.7986 0.28823 0.0
H211 H 0.8376 0.82094 0.30888 0.0
H212 H 0.6731 0.60686 0.26151 0.0
H213 H 0.75052 0.63497 0.25265 0.0
H214 H 0.82637 0.68644 0.25557 0.0
H215 H 0.87001 0.74693 0.26819 0.0
Mn216 Mn 0.25126 0.11442 0.55942 0.0
Mn217 Mn 0.32167 0.20849 0.5519 0.0
C218 C 0.25787 0.13932 0.53848 0.0
C219 C 0.17708 0.08298 0.56567 0.0
C220 C 0.36062 0.10984 0.5586 0.0
O221 O 0.26135 0.14773 0.57644 0.0
O222 O 0.30194 0.21327 0.5699 0.0
C223 C 0.25223 0.2882 0.55449 0.0
N224 N 0.2845 0.26336 0.54738 0.0
C225 C 0.28097 0.32207 0.5307 0.0
C226 C 0.24774 0.34841 0.53784 0.0
C227 C 0.23294 0.33113 0.54973 0.0
C228 C 0.29784 0.27888 0.53577 0.0
H229 H 0.24157 0.27549 0.56374 0.0
C230 C 0.28062 0.18865 0.57846 0.0
O231 O 0.21676 0.05973 0.56755 0.0
O232 O 0.18065 0.12502 0.56047 0.0
N233 N 0.34275 0.20874 0.53466 0.0
C234 C 0.37242 0.17735 0.52863 0.0
C235 C 0.38914 0.18829 0.51641 0.0
C236 C 0.37622 0.23191 0.51067 0.0
C237 C 0.34569 0.26363 0.51709 0.0
C238 C 0.32895 0.25009 0.52906 0.0
H239 H 0.38362 0.14448 0.53316 0.0
O240 O 0.2444 0.09591 0.5412 0.0
O241 O 0.26713 0.16676 0.54811 0.0
O242 O 0.32019 0.08893 0.55972 0.0
O243 O 0.36468 0.15447 0.55613 0.0
C244 C 0.33159 0.3084 0.51214 0.0
C245 C 0.29853 0.3372 0.51883 0.0
H246 H 0.23339 0.38193 0.53429 0.0
H247 H 0.20729 0.35123 0.5553 0.0
H248 H 0.41268 0.1636 0.51152 0.0
H249 H 0.38995 0.24067 0.50135 0.0
H250 H 0.34485 0.32039 0.50302 0.0
H251 H 0.2868 0.37085 0.51473 0.0
Mn252 Mn 0.89798 0.74203 0.80873 0.0
Mn253 Mn 0.80294 0.81355 0.80288 0.0
C254 C 0.86822 0.74965 0.78832 0.0
C255 C 0.93047 0.66717 0.8141 0.0
C256 C 0.90319 0.85234 0.8069 0.0
O257 O 0.86923 0.75084 0.82634 0.0
O258 O 0.80731 0.79904 0.82122 0.0
C259 C 0.72683 0.74377 0.80946 0.0
N260 N 0.74708 0.77457 0.80098 0.0
C261 C 0.68314 0.76175 0.78608 0.0
C262 C 0.66147 0.73002 0.79466 0.0
C263 C 0.6836 0.72074 0.80637 0.0
C264 C 0.72664 0.78295 0.78959 0.0
H265 H 0.74347 0.73696 0.81853 0.0
C266 C 0.83237 0.77557 0.82925 0.0
O267 O 0.95452 0.70664 0.8157 0.0
O268 O 0.88729 0.67137 0.8097 0.0
N269 N 0.79346 0.83053 0.7855 0.0
C270 C 0.81995 0.86071 0.77815 0.0
C271 C 0.80287 0.87377 0.76611 0.0
C272 C 0.7584 0.85637 0.76188 0.0
C273 C 0.7319 0.82504 0.76959 0.0
C274 C 0.75092 0.81307 0.78145 0.0
H275 H 0.85357 0.87515 0.7815 0.0
O276 O 0.91211 0.73611 0.79025 0.0
O277 O 0.84296 0.75841 0.7984 0.0
O278 O 0.92324 0.81172 0.80881 0.0
O279 O 0.85858 0.85682 0.80447 0.0
C280 C 0.6871 0.80569 0.76608 0.0
C281 C 0.66315 0.77346 0.77421 0.0
H282 H 0.62787 0.71256 0.79236 0.0
H283 H 0.66716 0.69624 0.81304 0.0
H284 H 0.82352 0.89786 0.7602 0.0
H285 H 0.74493 0.86753 0.75272 0.0
H286 H 0.67065 0.81524 0.75713 0.0
H287 H 0.62918 0.7582 0.7713 0.0
Mn288 Mn 0.76758 0.60483 0.68259 0.0
Mn289 Mn 0.7004 0.70049 0.69076 0.0
C290 C 0.76577 0.63076 0.70346 0.0
C291 C 0.84096 0.57404 0.67557 0.0
C292 C 0.65821 0.60187 0.68528 0.0
O293 O 0.75423 0.63723 0.66559 0.0
O294 O 0.71516 0.70319 0.67239 0.0
C295 C 0.77245 0.77663 0.68625 0.0
N296 N 0.74149 0.75378 0.69421 0.0
C297 C 0.76446 0.80461 0.71161 0.0
C298 C 0.79613 0.82907 0.70356 0.0
C299 C 0.80014 0.81498 0.69082 0.0
C300 C 0.73724 0.76711 0.70647 0.0
H301 H 0.77629 0.76546 0.67651 0.0
C302 C 0.73463 0.67803 0.66364 0.0
O303 O 0.80143 0.54979 0.67429 0.0
O304 O 0.83744 0.61638 0.68054 0.0
N305 N 0.68467 0.70255 0.7084 0.0
C306 C 0.65455 0.67354 0.71509 0.0
C307 C 0.64766 0.68193 0.7281 0.0
C308 C 0.67187 0.71992 0.73407 0.0
C309 C 0.70227 0.74954 0.72693 0.0
C310 C 0.70697 0.74011 0.71397 0.0
H311 H 0.63625 0.64398 0.71058 0.0
O312 O 0.77861 0.58719 0.70081 0.0
O313 O 0.75434 0.65742 0.69384 0.0
O314 O 0.69805 0.58026 0.68347 0.0
O315 O 0.6553 0.6468 0.68767 0.0
C316 C 0.72936 0.78703 0.73226 0.0
C317 C 0.76017 0.8148 0.72462 0.0
H318 H 0.81804 0.85824 0.7071 0.0
H319 H 0.82484 0.83336 0.68457 0.0
H320 H 0.62418 0.65885 0.73353 0.0
H321 H 0.66723 0.72572 0.74415 0.0
H322 H 0.72798 0.79366 0.74229 0.0
H323 H 0.7813 0.84306 0.72893 0.0
Mn324 Mn 0.40494 0.27246 0.93414 0.0
Mn325 Mn 0.3094 0.20345 0.94158 0.0
C326 C 0.37746 0.26897 0.9548 0.0
C327 C 0.43725 0.34625 0.92778 0.0
C328 C 0.40846 0.16235 0.93711 0.0
O329 O 0.37378 0.2611 0.9169 0.0
O330 O 0.31153 0.21493 0.92306 0.0
C331 C 0.23433 0.27401 0.93485 0.0
N332 N 0.25523 0.24467 0.94358 0.0
C333 C 0.20042 0.27064 0.95977 0.0
C334 C 0.17807 0.30083 0.95094 0.0
C335 C 0.19508 0.30247 0.93842 0.0
C336 C 0.23896 0.24256 0.95562 0.0
H337 H 0.24763 0.27592 0.92526 0.0
C338 C 0.33598 0.23677 0.91458 0.0
O339 O 0.46096 0.30649 0.92636 0.0
O340 O 0.3945 0.34281 0.93249 0.0
N341 N 0.30241 0.19007 0.95926 0.0
C342 C 0.32885 0.16015 0.96671 0.0
C343 C 0.31675 0.15477 0.97955 0.0
C344 C 0.27772 0.18025 0.98459 0.0
C345 C 0.25064 0.21025 0.97668 0.0
C346 C 0.26367 0.21328 0.9639 0.0
H347 H 0.35919 0.14091 0.9629 0.0
O348 O 0.42132 0.28162 0.95246 0.0
O349 O 0.3513 0.25836 0.945 0.0
O350 O 0.42899 0.20241 0.93467 0.0
O351 O 0.364 0.1588 0.93991 0.0
C352 C 0.21223 0.23849 0.98105 0.0
C353 C 0.18695 0.26843 0.97262 0.0
H354 H 0.14817 0.32329 0.9537 0.0
H355 H 0.17824 0.32592 0.93156 0.0
H356 H 0.33782 0.13156 0.9856 0.0
H357 H 0.26924 0.1769 0.99456 0.0
H358 H 0.20279 0.23863 0.99094 0.0
H359 H 0.15781 0.29029 0.97617 0.0
Mn360 Mn 0.74214 0.90122 0.18246 0.0
Mn361 Mn 0.80968 0.80595 0.19081 0.0
C362 C 0.74412 0.87604 0.20332 0.0
C363 C 0.66873 0.93193 0.17545 0.0
C364 C 0.85188 0.90446 0.1858 0.0
O365 O 0.75443 0.86836 0.16555 0.0
O366 O 0.79908 0.8058 0.17222 0.0
C367 C 0.73884 0.73056 0.18448 0.0
N368 N 0.76782 0.75238 0.19314 0.0
C369 C 0.73956 0.70057 0.20976 0.0
C370 C 0.70973 0.67728 0.20101 0.0
C371 C 0.70945 0.69231 0.1883 0.0
C372 C 0.76871 0.73795 0.20535 0.0
H373 H 0.73789 0.74242 0.17474 0.0
C374 C 0.77799 0.82989 0.16352 0.0
O375 O 0.70824 0.95617 0.17408 0.0
O376 O 0.67227 0.88985 0.18056 0.0
N377 N 0.82201 0.80113 0.20859 0.0
C378 C 0.8516 0.82841 0.21593 0.0
C379 C 0.85558 0.81836 0.22893 0.0
C380 C 0.82896 0.78058 0.23425 0.0
C381 C 0.79927 0.75263 0.22645 0.0
C382 C 0.79772 0.76351 0.21352 0.0
H383 H 0.87161 0.8579 0.21191 0.0
O384 O 0.73179 0.91967 0.20057 0.0
O385 O 0.75522 0.84874 0.19377 0.0
O386 O 0.8122 0.9253 0.18315 0.0
O387 O 0.85478 0.86011 0.18882 0.0
C388 C 0.76985 0.7155 0.23108 0.0
C389 C 0.74029 0.68925 0.22276 0.0
H390 H 0.68649 0.64821 0.20397 0.0
H391 H 0.68627 0.67476 0.1815 0.0
H392 H 0.87853 0.84012 0.23488 0.0
H393 H 0.83119 0.77373 0.24433 0.0
H394 H 0.76845 0.70786 0.24106 0.0
H395 H 0.71752 0.66113 0.22651 0.0
Mn396 Mn 0.09736 0.23246 0.43391 0.0
Mn397 Mn 0.19077 0.30147 0.44272 0.0
C398 C 0.12024 0.23572 0.45502 0.0
C399 C 0.06763 0.15846 0.42698 0.0
C400 C 0.09349 0.34176 0.43519 0.0
O401 O 0.13286 0.24531 0.41726 0.0
O402 O 0.19919 0.2824 0.42475 0.0
C403 C 0.26932 0.23034 0.44124 0.0
N404 N 0.24323 0.26242 0.44811 0.0
C405 C 0.28772 0.24426 0.46705 0.0
C406 C 0.3154 0.2114 0.46015 0.0
C407 C 0.30619 0.20446 0.44719 0.0
C408 C 0.25208 0.26973 0.46056 0.0
H409 H 0.2618 0.22425 0.43133 0.0
C410 C 0.17484 0.26312 0.41578 0.0
O411 O 0.04385 0.19794 0.42518 0.0
O412 O 0.10932 0.16233 0.43231 0.0
N413 N 0.1864 0.32117 0.46005 0.0
C414 C 0.15433 0.35165 0.46554 0.0
C415 C 0.15768 0.36137 0.47857 0.0
C416 C 0.19367 0.33938 0.48582 0.0
C417 C 0.22632 0.30832 0.47993 0.0
C418 C 0.22206 0.30096 0.46687 0.0
H419 H 0.12619 0.36821 0.46006 0.0
O420 O 0.07718 0.22229 0.45201 0.0
O421 O 0.14782 0.2472 0.44561 0.0
O422 O 0.07192 0.30155 0.43413 0.0
O423 O 0.13819 0.34525 0.43768 0.0
C424 C 0.26143 0.28263 0.48664 0.0
C425 C 0.29251 0.25103 0.48022 0.0
H426 H 0.34328 0.19073 0.46476 0.0
H427 H 0.32709 0.17883 0.44182 0.0
H428 H 0.1322 0.38525 0.48303 0.0
H429 H 0.19552 0.34606 0.49593 0.0
H430 H 0.26297 0.28521 0.49681 0.0
H431 H 0.31878 0.23083 0.48557 0.0
Mn432 Mn 0.77504 0.91093 0.55974 0.0
Mn433 Mn 0.70314 0.81931 0.55127 0.0
C434 C 0.77064 0.88735 0.53868 0.0
C435 C 0.85011 0.93817 0.56655 0.0
C436 C 0.66615 0.918 0.55877 0.0
O437 O 0.76127 0.87634 0.57647 0.0
O438 O 0.723 0.81032 0.56916 0.0
C439 C 0.77165 0.73835 0.55243 0.0
N440 N 0.74009 0.76558 0.54571 0.0
C441 C 0.75521 0.72029 0.5267 0.0
C442 C 0.78752 0.69146 0.53345 0.0
C443 C 0.79573 0.70052 0.54637 0.0
C444 C 0.7316 0.75694 0.5333 0.0
H445 H 0.77865 0.74568 0.56231 0.0
C446 C 0.74281 0.83464 0.57806 0.0
O447 O 0.81163 0.96354 0.56832 0.0
O448 O 0.84459 0.8965 0.56129 0.0
N449 N 0.68259 0.82445 0.53403 0.0
C450 C 0.653 0.85766 0.52866 0.0
C451 C 0.64231 0.85465 0.51569 0.0
C452 C 0.66236 0.81776 0.50835 0.0
C453 C 0.69255 0.78397 0.51411 0.0
C454 C 0.70104 0.78806 0.52713 0.0
H455 H 0.63786 0.88643 0.53421 0.0
O456 O 0.78559 0.93009 0.54155 0.0
O457 O 0.75843 0.86057 0.54819 0.0
O458 O 0.7069 0.93867 0.55953 0.0
O459 O 0.6614 0.8732 0.5565 0.0
C460 C 0.71617 0.74769 0.50731 0.0
C461 C 0.74714 0.71553 0.51358 0.0
H462 H 0.80678 0.66277 0.52876 0.0
H463 H 0.82095 0.6787 0.55162 0.0
H464 H 0.61911 0.88101 0.51132 0.0
H465 H 0.65486 0.81608 0.49828 0.0
H466 H 0.71221 0.74582 0.49716 0.0
H467 H 0.76573 0.68831 0.50815 0.0
Mn468 Mn 0.10892 0.26393 0.80975 0.0
Mn469 Mn 0.20418 0.1926 0.80403 0.0
C470 C 0.13922 0.25649 0.7894 0.0
C471 C 0.07604 0.33876 0.81497 0.0
C472 C 0.1039 0.15362 0.80774 0.0
O473 O 0.13736 0.25539 0.82739 0.0
O474 O 0.19892 0.20656 0.82238 0.0
C475 C 0.27989 0.26219 0.81106 0.0
N476 N 0.2601 0.2317 0.80243 0.0
C477 C 0.32488 0.24497 0.78781 0.0
C478 C 0.34609 0.27639 0.79656 0.0
C479 C 0.32331 0.28529 0.8082 0.0
C480 C 0.28117 0.22368 0.79111 0.0
H481 H 0.26278 0.26872 0.82008 0.0
C482 C 0.17391 0.2303 0.83036 0.0
O483 O 0.05206 0.29925 0.81658 0.0
O484 O 0.11938 0.3346 0.81069 0.0
N485 N 0.21459 0.17622 0.78665 0.0
C486 C 0.18848 0.14636 0.77911 0.0
C487 C 0.20616 0.13385 0.7671 0.0
C488 C 0.25085 0.15142 0.76308 0.0
C489 C 0.277 0.18232 0.77099 0.0
C490 C 0.25734 0.19384 0.7828 0.0
H491 H 0.15468 0.13181 0.7823 0.0
O492 O 0.0952 0.26972 0.79125 0.0
O493 O 0.16428 0.24779 0.79952 0.0
O494 O 0.08385 0.19415 0.80979 0.0
O495 O 0.14852 0.14924 0.80532 0.0
C496 C 0.32201 0.20173 0.7677 0.0
C497 C 0.34554 0.23364 0.77601 0.0
H498 H 0.37983 0.29389 0.79443 0.0
H499 H 0.33939 0.30955 0.81499 0.0
H500 H 0.18578 0.11008 0.76103 0.0
H501 H 0.26476 0.14078 0.75392 0.0
H502 H 0.33891 0.19253 0.75879 0.0
H503 H 0.37968 0.24898 0.77326 0.0
Mn504 Mn 0.72874 0.59612 0.06027 0.0
Mn505 Mn 0.79919 0.69042 0.0526 0.0
C506 C 0.73254 0.62275 0.03955 0.0
C507 C 0.6546 0.56531 0.06676 0.0
C508 C 0.83856 0.59075 0.05735 0.0
O509 O 0.74089 0.62758 0.07741 0.0
O510 O 0.78755 0.68936 0.07113 0.0
C511 C 0.73005 0.76724 0.05896 0.0
N512 N 0.75915 0.74535 0.05036 0.0
C513 C 0.73516 0.80031 0.03397 0.0
C514 C 0.70524 0.8237 0.04268 0.0
C515 C 0.70272 0.80709 0.05523 0.0
C516 C 0.76209 0.76119 0.03828 0.0
H517 H 0.72751 0.75426 0.06858 0.0
C518 C 0.76564 0.66516 0.07967 0.0
O519 O 0.69392 0.54095 0.06822 0.0
O520 O 0.65869 0.60789 0.06194 0.0
N521 N 0.81303 0.69627 0.03492 0.0
C522 C 0.84236 0.66872 0.02759 0.0
C523 C 0.84836 0.68018 0.01472 0.0
C524 C 0.82415 0.71976 0.00954 0.0
C525 C 0.79474 0.74794 0.01733 0.0
C526 C 0.79098 0.73546 0.03013 0.0
H527 H 0.86067 0.63798 0.03151 0.0
O528 O 0.71912 0.57919 0.04203 0.0
O529 O 0.74363 0.64925 0.04926 0.0
O530 O 0.79827 0.57072 0.05976 0.0
O531 O 0.8427 0.63514 0.05451 0.0
C532 C 0.76774 0.78697 0.0128 0.0
C533 C 0.73819 0.81334 0.0211 0.0
H534 H 0.68366 0.8541 0.03979 0.0
H535 H 0.67947 0.82474 0.06199 0.0
H536 H 0.87112 0.65823 0.00878 0.0
H537 H 0.82801 0.72787 -0.00045 0.0
H538 H 0.76832 0.79604 0.00289 0.0
H539 H 0.71726 0.84297 0.01743 0.0
Mn540 Mn 0.39572 0.24833 0.30974 0.0
Mn541 Mn 0.3023 0.32089 0.30313 0.0
C542 C 0.36821 0.25591 0.28902 0.0
C543 C 0.42596 0.17262 0.31526 0.0
C544 C 0.40262 0.35795 0.30885 0.0
O545 O 0.36464 0.25801 0.32711 0.0
O546 O 0.30015 0.30128 0.32117 0.0
C547 C 0.22195 0.2527 0.30674 0.0
N548 N 0.24595 0.28474 0.29934 0.0
C549 C 0.18489 0.28116 0.28327 0.0
C550 C 0.15935 0.2483 0.29074 0.0
C551 C 0.1782 0.23367 0.30248 0.0
C552 C 0.22878 0.29805 0.28789 0.0
H553 H 0.23603 0.24191 0.31584 0.0
C554 C 0.32465 0.27856 0.32949 0.0
O555 O 0.45064 0.21152 0.31713 0.0
O556 O 0.38329 0.17791 0.31061 0.0
N557 N 0.29942 0.34179 0.28588 0.0
C558 C 0.33034 0.37067 0.27942 0.0
C559 C 0.31784 0.38698 0.26726 0.0
C560 C 0.27326 0.37438 0.26203 0.0
C561 C 0.24205 0.34465 0.26888 0.0
C562 C 0.25699 0.32849 0.2808 0.0
H563 H 0.36406 0.38149 0.28356 0.0
O564 O 0.4117 0.24189 0.29133 0.0
O565 O 0.34232 0.26556 0.29891 0.0
O566 O 0.42279 0.31708 0.30999 0.0
O567 O 0.3579 0.36275 0.30666 0.0
C568 C 0.19658 0.3306 0.2644 0.0
C569 C 0.16843 0.29809 0.27146 0.0
H570 H 0.12531 0.23399 0.28755 0.0
H571 H 0.15878 0.20822 0.30828 0.0
H572 H 0.34214 0.40989 0.26203 0.0
H573 H 0.26341 0.38766 0.25273 0.0
H574 H 0.18345 0.34356 0.25537 0.0
H575 H 0.13423 0.28634 0.26772 0.0
H576 H 0.24221 0.36869 0.10157 0.0
H577 H 0.24569 0.12971 0.14332 0.0
H578 H 0.20827 0.2284 0.08663 0.0
H579 H 0.22263 0.26998 0.15963 0.0
H580 H 0.2445 0.166 0.12219 0.0
H581 H 0.24712 0.33348 0.12288 0.0
C582 C 0.23584 0.33061 0.10275 0.0
C583 C 0.22455 0.30155 0.0923 0.0
C584 C 0.2397 0.18874 0.13042 0.0
C585 C 0.23073 0.26116 0.11651 0.0
C586 C 0.24052 0.1681 0.14247 0.0
C587 C 0.23392 0.19677 0.15326 0.0
C588 C 0.23297 0.23847 0.12916 0.0
C589 C 0.2274 0.2464 0.15158 0.0
C590 C 0.23854 0.31061 0.11489 0.0
C591 C 0.21669 0.25235 0.09439 0.0
N592 N 0.22725 0.26571 0.13975 0.0
N593 N 0.22014 0.23372 0.10623 0.0
H594 H 0.86649 0.75087 0.39321 0.0
H595 H 0.62751 0.75723 0.35129 0.0
H596 H 0.72663 0.71873 0.40862 0.0
H597 H 0.76867 0.73183 0.33588 0.0
H598 H 0.66269 0.75815 0.37269 0.0
H599 H 0.83013 0.75905 0.37219 0.0
C600 C 0.8282 0.74565 0.39219 0.0
C601 C 0.7997 0.73361 0.40267 0.0
C602 C 0.68576 0.75256 0.36456 0.0
C603 C 0.75789 0.7435 0.37873 0.0
C604 C 0.66578 0.75219 0.35239 0.0
C605 C 0.69508 0.74403 0.3418 0.0
C606 C 0.73536 0.74561 0.36607 0.0
C607 C 0.74453 0.73775 0.34376 0.0
C608 C 0.8075 0.75027 0.38021 0.0
C609 C 0.75014 0.72748 0.40079 0.0
N610 N 0.76306 0.73875 0.35563 0.0
N611 N 0.7308 0.73256 0.38905 0.0
H612 H 0.29025 0.28305 0.58483 0.0
H613 H 0.29118 0.23865 0.65902 0.0
H614 H 0.26391 0.14349 0.60123 0.0
H615 H 0.26025 0.37746 0.64273 0.0
H616 H 0.28922 0.20351 0.63789 0.0
H617 H 0.28693 0.31843 0.60594 0.0
C618 C 0.2838 0.25976 0.59287 0.0
C619 C 0.27757 0.21008 0.59126 0.0
C620 C 0.28271 0.24161 0.63895 0.0
C621 C 0.27403 0.2506 0.61547 0.0
C622 C 0.2841 0.26188 0.651 0.0
C623 C 0.27602 0.31126 0.65267 0.0
C624 C 0.27393 0.27092 0.62842 0.0
C625 C 0.26668 0.33929 0.6419 0.0
C626 C 0.28166 0.28012 0.60491 0.0
C627 C 0.26889 0.18189 0.60203 0.0
N628 N 0.26625 0.31877 0.6302 0.0
N629 N 0.26781 0.20252 0.61372 0.0
H630 H 0.82809 0.70108 0.84618 0.0
H631 H 0.72294 0.8576 0.90252 0.0
H632 H 0.79639 0.8517 0.84202 0.0
H633 H 0.68293 0.70909 0.89793 0.0
H634 H 0.7628 0.85524 0.88187 0.0
H635 H 0.78894 0.70228 0.86713 0.0
C636 C 0.8137 0.73448 0.84979 0.0
C637 C 0.81546 0.7764 0.84246 0.0
C638 C 0.74502 0.82327 0.88535 0.0
C639 C 0.77099 0.77798 0.86614 0.0
C640 C 0.72224 0.82462 0.89708 0.0
C641 C 0.69935 0.78359 0.90182 0.0
C642 C 0.74599 0.78026 0.87846 0.0
C643 C 0.69966 0.74163 0.89447 0.0
C644 C 0.79095 0.73501 0.86161 0.0
C645 C 0.79566 0.81865 0.84742 0.0
N646 N 0.72318 0.74083 0.88317 0.0
N647 N 0.77444 0.81843 0.85898 0.0
H648 H 0.75565 0.87824 0.6012 0.0
H649 H 0.75509 0.63389 0.64088 0.0
H650 H 0.73416 0.73952 0.58384 0.0
H651 H 0.71937 0.77159 0.65714 0.0
H652 H 0.75974 0.67207 0.61994 0.0
H653 H 0.75541 0.83944 0.62206 0.0
C654 C 0.75115 0.83969 0.60176 0.0
C655 C 0.74458 0.81218 0.59076 0.0
C656 C 0.75084 0.69373 0.62813 0.0
C657 C 0.74467 0.76765 0.61453 0.0
C658 C 0.74821 0.67201 0.64007 0.0
C659 C 0.73657 0.69944 0.65079 0.0
C660 C 0.74259 0.74329 0.62698 0.0
C661 C 0.72812 0.74881 0.64916 0.0
C662 C 0.75082 0.81762 0.61365 0.0
C663 C 0.73889 0.76227 0.59207 0.0
N664 N 0.73154 0.76914 0.6375 0.0
N665 N 0.73919 0.74161 0.60372 0.0
H666 H 0.33467 0.30886 0.8969 0.0
H667 H 0.20577 0.15394 0.84377 0.0
H668 H 0.29138 0.16208 0.90308 0.0
H669 H 0.18437 0.30682 0.84636 0.0
H670 H 0.24705 0.15548 0.86422 0.0
H671 H 0.29136 0.30812 0.87655 0.0
C672 C 0.31682 0.2763 0.89385 0.0
C673 C 0.31663 0.2354 0.9016 0.0
C674 C 0.23286 0.18861 0.86039 0.0
C675 C 0.26718 0.23445 0.87859 0.0
C676 C 0.20918 0.18772 0.84878 0.0
C677 C 0.19132 0.23024 0.84351 0.0
C678 C 0.23986 0.23255 0.86661 0.0
C679 C 0.19706 0.27321 0.85026 0.0
C680 C 0.29168 0.27611 0.88237 0.0
C681 C 0.29233 0.19435 0.89736 0.0
N682 N 0.22149 0.27343 0.86144 0.0
N683 N 0.26875 0.19483 0.88612 0.0
H684 H 0.69308 0.67172 0.097 0.0
H685 H 0.85144 0.7834 0.1519 0.0
H686 H 0.84297 0.70343 0.09152 0.0
H687 H 0.7047 0.82728 0.14637 0.0
H688 H 0.84865 0.74055 0.13162 0.0
H689 H 0.69607 0.71404 0.11749 0.0
C690 C 0.72672 0.68679 0.10024 0.0
C691 C 0.76789 0.68414 0.09266 0.0
C692 C 0.81723 0.75988 0.13482 0.0
C693 C 0.7715 0.73211 0.11584 0.0
C694 C 0.81882 0.78436 0.14633 0.0
C695 C 0.77838 0.8092 0.15069 0.0
C696 C 0.77448 0.75913 0.12783 0.0
C697 C 0.73682 0.80908 0.14321 0.0
C698 C 0.72826 0.71131 0.1118 0.0
C699 C 0.81049 0.70484 0.09713 0.0
N700 N 0.73569 0.78384 0.13217 0.0
N701 N 0.8113 0.72777 0.10847 0.0
H702 H 0.2702 0.26993 0.41017 0.0
H703 H 0.2314 0.29338 0.3361 0.0
H704 H 0.13163 0.2523 0.39252 0.0
H705 H 0.36832 0.25337 0.35203 0.0
H706 H 0.19515 0.28558 0.35695 0.0
H707 H 0.30745 0.27033 0.38924 0.0
C708 C 0.24753 0.26606 0.4019 0.0
C709 C 0.19756 0.26134 0.40311 0.0
C710 C 0.23307 0.27832 0.35589 0.0
C711 C 0.24022 0.26216 0.37912 0.0
C712 C 0.25402 0.28307 0.34399 0.0
C713 C 0.30321 0.27421 0.34229 0.0
C714 C 0.26147 0.26537 0.36629 0.0
C715 C 0.33035 0.26058 0.3529 0.0
C716 C 0.26896 0.26606 0.38996 0.0
C717 C 0.17021 0.25604 0.39204 0.0
N718 N 0.30916 0.25697 0.3645 0.0
N719 N 0.19187 0.25711 0.38049 0.0
H720 H 0.23856 0.09014 0.22847 0.0
H721 H 0.28289 0.21207 0.28454 0.0
H722 H 0.32664 0.19758 0.21064 0.0
H723 H 0.40701 0.26941 0.26555 0.0
H724 H 0.25397 0.18042 0.26442 0.0
H725 H 0.25959 0.12346 0.24925 0.0
C726 C 0.26188 0.12117 0.22899 0.0
C727 C 0.27917 0.14273 0.21793 0.0
C728 C 0.28767 0.19961 0.26459 0.0
C729 C 0.30347 0.18124 0.24151 0.0
C730 C 0.3034 0.21912 0.27604 0.0
C731 C 0.34671 0.24452 0.27662 0.0
C732 C 0.31632 0.20429 0.25371 0.0
C733 C 0.37312 0.25047 0.26543 0.0
C734 C 0.27359 0.14054 0.24082 0.0
C735 C 0.31101 0.1814 0.21901 0.0
N736 N 0.35753 0.23043 0.25442 0.0
N737 N 0.32203 0.1996 0.2306 0.0
H738 H 0.905 0.72471 0.47877 0.0
H739 H 0.74127 0.91581 0.51504 0.0
H740 H 0.78743 0.79834 0.46084 0.0
H741 H 0.83022 0.81304 0.53441 0.0
H742 H 0.76185 0.8773 0.49473 0.0
H743 H 0.88001 0.75802 0.49926 0.0
C744 C 0.87323 0.74697 0.47924 0.0
C745 C 0.84765 0.75814 0.46822 0.0
C746 C 0.77674 0.86312 0.50344 0.0
C747 C 0.82017 0.79815 0.49139 0.0
C748 C 0.76509 0.88514 0.51496 0.0
C749 C 0.78288 0.86634 0.52632 0.0
C750 C 0.80736 0.82299 0.50335 0.0
C751 C 0.81468 0.8275 0.52581 0.0
C752 C 0.85918 0.76628 0.49088 0.0
C753 C 0.80733 0.78793 0.46921 0.0
N754 N 0.82583 0.80699 0.51452 0.0
N755 N 0.79509 0.80738 0.48058 0.0
H756 H 0.18254 0.30684 0.70943 0.0
H757 H 0.22183 0.30491 0.78457 0.0
H758 H 0.27348 0.40789 0.72883 0.0
H759 H 0.10442 0.23266 0.76614 0.0
H760 H 0.25046 0.3326 0.76386 0.0
H761 H 0.16008 0.2717 0.72986 0.0
C762 C 0.19804 0.32127 0.71805 0.0
C763 C 0.23099 0.35914 0.71753 0.0
C764 C 0.21877 0.31022 0.76433 0.0
C765 C 0.20533 0.31962 0.74088 0.0
C766 C 0.20295 0.29372 0.7761 0.0
C767 C 0.1614 0.2656 0.77697 0.0
C768 C 0.19237 0.29903 0.75338 0.0
C769 C 0.13697 0.25381 0.7658 0.0
C770 C 0.18508 0.30143 0.72968 0.0
C771 C 0.24879 0.37791 0.7289 0.0
N772 N 0.15277 0.27064 0.75445 0.0
N773 N 0.23619 0.35753 0.74015 0.0
H774 H 0.76353 0.58968 0.01667 0.0
H775 H 0.72324 0.70836 0.9599 0.0
H776 H 0.6766 0.69927 0.03391 0.0
H777 H 0.60218 0.77222 0.97876 0.0
H778 H 0.75196 0.67813 0.9802 0.0
H779 H 0.74607 0.62384 0.9958 0.0
C780 C 0.74133 0.62145 0.016 0.0
C781 C 0.72322 0.64317 0.02695 0.0
C782 C 0.71896 0.69843 0.97997 0.0
C783 C 0.70299 0.68279 0.00322 0.0
C784 C 0.70334 0.71696 0.96841 0.0
C785 C 0.66103 0.74388 0.96775 0.0
C786 C 0.691 0.70543 0.9909 0.0
C787 C 0.63532 0.75206 0.97894 0.0
C788 C 0.7317 0.64135 0.00412 0.0
C789 C 0.69286 0.68289 0.02566 0.0
N790 N 0.65066 0.7328 0.99008 0.0
N791 N 0.68377 0.70156 0.014 0.0
H792 H 0.21807 0.39944 0.01587 0.0
H793 H 0.40619 0.23726 0.9781 0.0
H794 H 0.29904 0.28583 0.03338 0.0
H795 H 0.30296 0.32824 0.95959 0.0
H796 H 0.36925 0.25657 -0.00137 0.0
H797 H 0.248 0.37382 0.99508 0.0
C798 C 0.24133 0.36842 0.01526 0.0
C799 C 0.25546 0.34405 0.02624 0.0
C800 C 0.35446 0.27207 0.99008 0.0
C801 C 0.29149 0.31582 0.00269 0.0
C802 C 0.37559 0.26113 0.97841 0.0
C803 C 0.35624 0.27983 0.96722 0.0
C804 C 0.31464 0.303 0.9905 0.0
C805 C 0.31767 0.31182 0.96805 0.0
C806 C 0.25864 0.35396 0.00344 0.0
C807 C 0.28642 0.30472 0.02506 0.0
N808 N 0.29799 0.32233 0.97949 0.0
N809 N 0.30379 0.29204 0.0135 0.0
H810 H 0.60087 0.7319 0.2651 0.0
H811 H 0.77429 0.90735 0.2265 0.0
H812 H 0.71492 0.81243 0.28258 0.0
H813 H 0.68339 0.80279 0.20843 0.0
H814 H 0.75132 0.87462 0.24727 0.0
H815 H 0.63033 0.75686 0.24418 0.0
C816 C 0.63268 0.75407 0.26447 0.0
C817 C 0.65617 0.76941 0.27548 0.0
C818 C 0.7367 0.85853 0.23876 0.0
C819 C 0.68894 0.79964 0.25176 0.0
C820 C 0.74976 0.87724 0.22696 0.0
C821 C 0.73203 0.85638 0.21585 0.0
C822 C 0.70454 0.81968 0.23939 0.0
C823 C 0.6991 0.81858 0.21685 0.0
C824 C 0.64939 0.76848 0.25258 0.0
C825 C 0.69664 0.79888 0.27426 0.0
N826 N 0.68643 0.80135 0.22842 0.0
N827 N 0.71156 0.81338 0.26261 0.0
H828 H 0.09128 0.26571 0.47856 0.0
H829 H 0.27898 0.09992 0.51555 0.0
H830 H 0.19237 0.17376 0.45958 0.0
H831 H 0.20789 0.22026 0.53294 0.0
H832 H 0.24517 0.12356 0.49501 0.0
H833 H 0.12829 0.24431 0.49901 0.0
C834 C 0.12124 0.24103 0.47875 0.0
C835 C 0.14015 0.22274 0.46746 0.0
C836 C 0.23753 0.14524 0.50328 0.0
C837 C 0.18172 0.19729 0.49058 0.0
C838 C 0.25715 0.13198 0.51494 0.0
C839 C 0.24691 0.15876 0.52584 0.0
C840 C 0.2063 0.18473 0.50261 0.0
C841 C 0.21763 0.19943 0.52467 0.0
C842 C 0.14237 0.22888 0.49036 0.0
C843 C 0.17795 0.18977 0.46812 0.0
N844 N 0.1979 0.21094 0.51328 0.0
N845 N 0.19766 0.17821 0.47948 0.0
H846 H 0.82671 0.70404 0.70806 0.0
H847 H 0.78579 0.70141 0.78316 0.0
H848 H 0.73497 0.60224 0.72691 0.0
H849 H 0.90352 0.77482 0.76521 0.0
H850 H 0.75736 0.67529 0.76229 0.0
H851 H 0.84839 0.7383 0.72866 0.0
C852 C 0.81082 0.6893 0.71659 0.0
C853 C 0.77792 0.65144 0.71587 0.0
C854 C 0.78908 0.69759 0.76289 0.0
C855 C 0.80276 0.68989 0.73941 0.0
C856 C 0.80481 0.71316 0.77477 0.0
C857 C 0.84637 0.74118 0.77582 0.0
C858 C 0.81559 0.70959 0.75203 0.0
C859 C 0.87097 0.75373 0.76473 0.0
C860 C 0.82335 0.70863 0.72832 0.0
C861 C 0.75963 0.63224 0.72714 0.0
N862 N 0.85525 0.73779 0.75328 0.0
N863 N 0.77187 0.65207 0.73848 0.0
H864 H 0.06666 0.13033 0.18665 0.0
H865 H 0.94394 0.871 0.18799 0.0
H866 H 0.14681 0.99795 0.1852 0.0
H867 H 0.86403 1.0022 0.1828 0.0
H868 H 0.01817 0.9171 0.18771 0.0
H869 H 0.99228 0.08433 0.18591 0.0
C870 C 0.06877 0.09158 0.18615 0.0
C871 C 0.11339 0.0681 0.186 0.0
C872 C 0.98445 0.93584 0.18659 0.0
C873 C 0.02773 0.01502 0.18522 0.0
C874 C 0.94184 0.90953 0.18678 0.0
C875 C 0.8973 0.93262 0.18543 0.0
C876 C 0.9829 0.98587 0.18514 0.0
C877 C 0.89733 0.98271 0.18387 0.0
C878 C 0.02611 0.06532 0.18571 0.0
C879 C 0.11344 0.01774 0.18532 0.0
N880 N 0.93939 0.00762 0.18382 0.0
N881 N 0.07135 0.99295 0.18502 0.0
H882 H 0.12685 0.4345 0.43535 0.0
H883 H 0.86591 0.55324 0.43413 0.0
H884 H 0.9959 0.35257 0.43233 0.0
H885 H 0.99696 0.63575 0.43334 0.0
H886 H 0.91298 0.47967 0.4332 0.0
H887 H 0.0801 0.50834 0.43436 0.0
C888 C 0.08828 0.43189 0.43442 0.0
C889 C 0.0654 0.38693 0.43395 0.0
C890 C 0.93148 0.51384 0.43316 0.0
C891 C 0.01145 0.47193 0.43287 0.0
C892 C 0.9046 0.55603 0.4337 0.0
C893 C 0.92738 0.60107 0.43384 0.0
C894 C 0.98172 0.51633 0.43284 0.0
C895 C 0.9777 0.60202 0.43325 0.0
C896 C 0.06158 0.47424 0.43385 0.0
C897 C 0.01524 0.38622 0.43273 0.0
N898 N 0.00313 0.56035 0.43284 0.0
N899 N 0.99001 0.42799 0.43229 0.0
H900 H 0.44459 0.37532 0.68817 0.0
H901 H 0.56582 0.63557 0.68622 0.0
H902 H 0.36371 0.50668 0.68456 0.0
H903 H 0.64652 0.50377 0.68365 0.0
H904 H 0.49172 0.58905 0.6863 0.0
H905 H 0.5187 0.42174 0.68726 0.0
C906 C 0.44226 0.41392 0.68717 0.0
C907 C 0.39751 0.43698 0.68644 0.0
C908 C 0.52561 0.57027 0.68567 0.0
C909 C 0.48284 0.49056 0.68543 0.0
C910 C 0.5681 0.59684 0.68564 0.0
C911 C 0.61281 0.57369 0.68493 0.0
C912 C 0.52748 0.51998 0.68508 0.0
C913 C 0.61308 0.52332 0.68418 0.0
C914 C 0.48476 0.44042 0.68663 0.0
C915 C 0.39718 0.48719 0.68514 0.0
N916 N 0.57117 0.49822 0.68434 0.0
N917 N 0.4391 0.51223 0.68473 0.0
H918 H 0.37642 0.06944 0.93906 0.0
H919 H 0.638 0.95256 0.93733 0.0
H920 H 0.50619 0.15204 0.93427 0.0
H921 H 0.50793 0.86886 0.93524 0.0
H922 H 0.59025 0.0257 0.93706 0.0
H923 H 0.42382 0.99591 0.93855 0.0
C924 C 0.41489 0.07227 0.9379 0.0
C925 C 0.43722 0.11734 0.93671 0.0
C926 C 0.57209 0.99139 0.93662 0.0
C927 C 0.49188 0.03268 0.93617 0.0
C928 C 0.59936 0.94941 0.9368 0.0
C929 C 0.57708 0.90414 0.93632 0.0
C930 C 0.52192 0.98848 0.93606 0.0
C931 C 0.52679 0.90278 0.9356 0.0
C932 C 0.44193 0.03009 0.93758 0.0
C933 C 0.48726 0.11832 0.93521 0.0
N934 N 0.50095 0.94427 0.93555 0.0
N935 N 0.51284 0.07671 0.93503 0.0
H936 H 0.04936 0.36115 0.05758 0.0
H937 H 0.93133 0.62244 0.05567 0.0
H938 H 0.13114 0.49258 0.05949 0.0
H939 H 0.84834 0.49267 0.06017 0.0
H940 H 0.00451 0.57498 0.0563 0.0
H941 H 0.97553 0.40815 0.05785 0.0
C942 C 0.05193 0.39988 0.05809 0.0
C943 C 0.09684 0.42282 0.05851 0.0
C944 C 0.97035 0.55682 0.05718 0.0
C945 C 0.01194 0.47697 0.05875 0.0
C946 C 0.92833 0.58392 0.05679 0.0
C947 C 0.88326 0.56165 0.05786 0.0
C948 C 0.96767 0.50681 0.05856 0.0
C949 C 0.88212 0.51152 0.05933 0.0
C950 C 0.00961 0.42669 0.05826 0.0
C951 C 0.09754 0.47318 0.05918 0.0
N952 N 0.92365 0.48582 0.05959 0.0
N953 N 0.05583 0.49848 0.05922 0.0
H954 H 0.63407 0.56672 0.3071 0.0
H955 H 0.37147 0.45123 0.30923 0.0
H956 H 0.5043 0.65015 0.31043 0.0
H957 H 0.50113 0.36679 0.31022 0.0
H958 H 0.41971 0.5241 0.30959 0.0
H959 H 0.58633 0.49339 0.30809 0.0
C960 C 0.59555 0.56978 0.30807 0.0
C961 C 0.57332 0.61503 0.30867 0.0
C962 C 0.43769 0.48969 0.30978 0.0
C963 C 0.51824 0.53059 0.30977 0.0
C964 C 0.41011 0.44785 0.30957 0.0
C965 C 0.43212 0.40245 0.30968 0.0
C966 C 0.48788 0.48651 0.31002 0.0
C967 C 0.48245 0.40082 0.31014 0.0
C968 C 0.56829 0.52771 0.30865 0.0
C969 C 0.52318 0.61629 0.30994 0.0
N970 N 0.50858 0.44217 0.31023 0.0
N971 N 0.49742 0.5748 0.3104 0.0
H972 H 0.6575 0.01624 0.56079 0.0
H973 H 0.36986 0.01213 0.56168 0.0
H974 H 0.57305 0.88638 0.55955 0.0
H975 H 0.45374 0.14179 0.55821 0.0
H976 H 0.44411 0.96574 0.56272 0.0
H977 H 0.58338 0.06302 0.5617 0.0
C978 C 0.6235 0.99748 0.56079 0.0
C979 C 0.62175 0.94717 0.56005 0.0
C980 C 0.44624 0.00437 0.56177 0.0
C981 C 0.53657 1.00068 0.56106 0.0
C982 C 0.40379 0.03095 0.5612 0.0
C983 C 0.40531 0.08106 0.55981 0.0
C984 C 0.49071 0.02796 0.561 0.0
C985 C 0.45057 0.10327 0.55924 0.0
C986 C 0.58113 0.02426 0.56127 0.0
C987 C 0.57641 0.92503 0.56006 0.0
N988 N 0.49133 0.07662 0.55982 0.0
N989 N 0.53578 0.95187 0.56053 0.0
H990 H 0.13495 0.06037 0.80651 0.0
H991 H 0.87215 0.94565 0.8059 0.0
H992 H 0.0056 0.14455 0.80965 0.0
H993 H 1.00141 0.86132 0.80905 0.0
H994 H 0.92038 0.01858 0.80648 0.0
H995 H 0.08669 0.98744 0.80665 0.0
C996 C 0.09638 0.06367 0.80724 0.0
C997 C 0.07444 0.10902 0.80806 0.0
C998 C 0.93823 0.98416 0.80708 0.0
C999 C 0.01873 0.02495 0.80819 0.0
C1000 C 0.9107 0.94231 0.80672 0.0
C1001 C 0.93262 0.89692 0.80742 0.0
C1002 C 0.98829 0.98098 0.80805 0.0
C1003 C 0.9828 0.89532 0.8085 0.0
C1004 C 0.06883 0.02182 0.80735 0.0
C1005 C 0.02422 0.11058 0.80902 0.0
N1006 N 0.00888 0.93667 0.80873 0.0
N1007 N 0.99812 0.06923 0.809 0.0
H1008 H 0.58402 0.88375 0.17338 0.0
H1009 H 0.4259 0.12066 0.17519 0.0
H1010 H 0.64464 0.02581 0.17062 0.0
H1011 H 0.36564 0.9792 0.17042 0.0
H1012 H 0.50598 0.08717 0.17222 0.0
H1013 H 0.50404 0.91798 0.17098 0.0
C1014 C 0.58053 0.92217 0.17213 0.0
C1015 C 0.62108 0.95203 0.17231 0.0
C1016 C 0.47527 0.06348 0.17166 0.0
C1017 C 0.52931 0.99162 0.1697 0.0
C1018 C 0.42947 0.08258 0.17336 0.0
C1019 C 0.389 0.0526 0.17315 0.0
C1020 C 0.48084 0.01387 0.16988 0.0
C1021 C 0.39582 0.00361 0.17069 0.0
C1022 C 0.53479 0.9417 0.17074 0.0
C1023 C 0.61438 1.00149 0.17056 0.0
N1024 N 0.4409 0.98568 0.16931 0.0
N1025 N 0.56931 0.01981 0.1695 0.0
H1026 H 0.01819 0.852 0.42277 0.0
H1027 H 0.97405 0.13626 0.42155 0.0
H1028 H 0.87986 0.91716 0.42888 0.0
H1029 H 0.11323 0.07167 0.42663 0.0
H1030 H 0.93873 0.0559 0.42001 0.0
H1031 H 0.05305 0.93205 0.42006 0.0
C1032 C 0.99504 0.88309 0.4234 0.0
C1033 C 0.94609 0.87789 0.42614 0.0
C1034 C 0.97706 0.05938 0.42134 0.0
C1035 C 0.98574 0.96957 0.42302 0.0
C1036 C 0.99729 0.10523 0.42214 0.0
C1037 C 0.04663 0.11068 0.4243 0.0
C1038 C 0.00645 0.01871 0.42258 0.0
C1039 C 0.07498 0.06915 0.42504 0.0
C1040 C 0.015 0.92877 0.4219 0.0
C1041 C 0.91784 0.9195 0.42687 0.0
N1042 N 0.05448 0.02496 0.42424 0.0
N1043 N 0.93807 0.96356 0.42535 0.0
H1044 H 0.14722 0.52923 0.67093 0.0
H1045 H 0.86374 0.4803 0.67026 0.0
H1046 H 0.08384 0.38912 0.67571 0.0
H1047 H 0.92683 0.62086 0.67431 0.0
H1048 H 0.94432 0.44617 0.66811 0.0
H1049 H 0.06685 0.56302 0.66804 0.0
C1050 C 0.11649 0.50548 0.6712 0.0
C1051 C 0.12223 0.45636 0.67368 0.0
C1052 C 0.94045 0.48455 0.66934 0.0
C1053 C 0.03022 0.49474 0.67041 0.0
C1054 C 0.89446 0.50406 0.6705 0.0
C1055 C 0.88856 0.55344 0.67257 0.0
C1056 C 0.9808 0.51468 0.67017 0.0
C1057 C 0.9297 0.58252 0.67283 0.0
C1058 C 0.07061 0.52481 0.6696 0.0
C1059 C 0.08108 0.42728 0.67393 0.0
N1060 N 0.97401 0.56271 0.67172 0.0
N1061 N 0.03687 0.44692 0.67239 0.0
H1062 H 0.53164 0.36801 0.9231 0.0
H1063 H 0.48732 0.65252 0.92286 0.0
H1064 H 0.39211 0.43315 0.92679 0.0
H1065 H 0.62605 0.58782 0.92864 0.0
H1066 H 0.45245 0.57229 0.92053 0.0
H1067 H 0.56722 0.44823 0.92133 0.0
C1068 C 0.50842 0.39912 0.92336 0.0
C1069 C 0.45886 0.39386 0.92518 0.0
C1070 C 0.49059 0.57569 0.92221 0.0
C1071 C 0.4993 0.48571 0.92319 0.0
C1072 C 0.51055 0.6215 0.9235 0.0
C1073 C 0.55963 0.62691 0.92604 0.0
C1074 C 0.51996 0.53495 0.92338 0.0
C1075 C 0.58798 0.58535 0.92678 0.0
C1076 C 0.52877 0.4449 0.92242 0.0
C1077 C 0.43053 0.43549 0.92549 0.0
N1078 N 0.56773 0.54118 0.9255 0.0
N1079 N 0.45114 0.47959 0.92456 0.0
H1080 H 0.63177 0.47158 0.07202 0.0
H1081 H 0.34794 0.51804 0.07104 0.0
H1082 H 0.56824 0.61156 0.06732 0.0
H1083 H 0.41228 0.37845 0.06631 0.0
H1084 H 0.42818 0.55278 0.07351 0.0
H1085 H 0.55128 0.43695 0.07384 0.0
C1086 C 0.60095 0.49512 0.07155 0.0
C1087 C 0.60674 0.54449 0.06942 0.0
C1088 C 0.42466 0.51449 0.07204 0.0
C1089 C 0.51456 0.50511 0.07145 0.0
C1090 C 0.37887 0.49462 0.07067 0.0
C1091 C 0.37341 0.44532 0.06838 0.0
C1092 C 0.46526 0.48478 0.0712 0.0
C1093 C 0.41481 0.4167 0.06798 0.0
C1094 C 0.55501 0.4753 0.07252 0.0
C1095 C 0.56546 0.57325 0.06886 0.0
N1096 N 0.45892 0.43684 0.06932 0.0
N1097 N 0.52118 0.55314 0.06981 0.0
H1098 H 0.37941 0.08612 0.31488 0.0
H1099 H 0.61984 0.93173 0.31445 0.0
H1100 H 0.51953 0.14854 0.32017 0.0
H1101 H 0.47971 0.86815 0.31864 0.0
H1102 H 0.58386 0.01131 0.31652 0.0
H1103 H 0.4151 0.00612 0.31627 0.0
C1104 C 0.41765 0.08302 0.31645 0.0
C1105 C 0.44654 0.12417 0.31737 0.0
C1106 C 0.56098 0.97999 0.3171 0.0
C1107 C 0.48778 0.0325 0.31882 0.0
C1108 C 0.58151 0.93448 0.3159 0.0
C1109 C 0.55273 0.89315 0.31633 0.0
C1110 C 0.51114 0.98442 0.31858 0.0
C1111 C 0.50328 0.89899 0.31826 0.0
C1112 C 0.43801 0.03729 0.31725 0.0
C1113 C 0.49587 0.11788 0.31942 0.0
N1114 N 0.484 0.94376 0.31918 0.0
N1115 N 0.51498 0.07296 0.31994 0.0
H1116 H 0.9346 0.88892 0.56664 0.0
H1117 H 0.15813 0.99341 0.57516 0.0
H1118 H 0.87648 0.03076 0.5722 0.0
H1119 H 0.08804 0.12292 0.56259 0.0
H1120 H 0.07978 0.95574 0.57791 0.0
H1121 H 0.01516 0.92181 0.56838 0.0
C1122 C 0.9388 0.92693 0.56848 0.0
C1123 C 0.89867 0.9571 0.56929 0.0
C1124 C 0.0814 0.99222 0.57443 0.0
C1125 C 0.99133 0.99528 0.57145 0.0
C1126 C 0.12623 0.01397 0.57299 0.0
C1127 C 0.12974 0.06121 0.56847 0.0
C1128 C 0.03964 0.01781 0.57126 0.0
C1129 C 0.08709 0.08626 0.56597 0.0
C1130 C 0.985 0.94573 0.56958 0.0
C1131 C 0.90638 0.00614 0.57158 0.0
N1132 N 0.04387 0.0642 0.56735 0.0
N1133 N 0.95182 0.0238 0.57241 0.0
H1134 H 0.02443 0.64538 0.81919 0.0
H1135 H 0.98162 0.36058 0.81947 0.0
H1136 H 0.88566 0.57973 0.81409 0.0
H1137 H 0.12074 0.42619 0.81508 0.0
H1138 H 0.94577 0.44066 0.82093 0.0
H1139 H 0.06004 0.56536 0.82111 0.0
C1140 C 1.00137 0.61419 0.8186 0.0
C1141 C 0.95201 0.6193 0.81641 0.0
C1142 C 0.98418 0.4375 0.81973 0.0
C1143 C 0.99255 0.52756 0.8186 0.0
C1144 C 0.0047 0.39178 0.81895 0.0
C1145 C 0.05424 0.38664 0.81708 0.0
C1146 C 0.01344 0.47842 0.81874 0.0
C1147 C 0.08236 0.42842 0.81645 0.0
C1148 C 0.02175 0.5685 0.81965 0.0
C1149 C 0.92391 0.57752 0.81571 0.0
N1150 N 0.06159 0.47247 0.81725 0.0
N1151 N 0.94456 0.53348 0.81677 0.0
loop_
_geom_bond_atom_site_label_1
_geom_bond_atom_site_label_2
_geom_bond_distance
_geom_bond_site_symmetry_2
_ccdc_geom_bond_type
Mn0 O5 2.095 . S
Mn0 O15 2.162 . S
Mn0 O16 2.297 . S
Mn0 O24 2.385 . S
Mn0 O25 2.209 . S
Mn0 O26 2.094 . S
Mn1 O6 2.121 . S
Mn1 N8 2.257 . S
Mn1 N17 2.282 . S
Mn1 O25 2.215 . S
Mn1 O27 2.117 . S
C2 O24 1.234 . S
C2 O25 1.283 . S
C3 O15 1.281 . S
C3 O16 1.236 . S
C4 O26 1.240 . S
C4 O27 1.264 . S
O5 Mn0 2.095 . S
O5 C14 1.250 . S
O6 Mn1 2.121 . S
O6 C14 1.258 . S
C7 N8 1.326 . S
C7 C11 1.460 . S
C7 H13 0.929 . S
N8 Mn1 2.257 . S
N8 C7 1.326 . S
N8 C12 1.362 . S
C9 C10 1.258 . S
C9 C12 1.431 . S
C9 C29 1.449 . S
C10 C9 1.258 . S
C10 C11 1.477 . S
C10 H30 0.931 . S
C11 C7 1.460 . S
C11 C10 1.477 . S
C11 H31 0.930 . S
C12 N8 1.362 . S
C12 C9 1.431 . S
C12 C22 1.476 . S
H13 C7 0.929 . S
C14 O5 1.250 . S
C14 O6 1.258 . S
O15 Mn0 2.162 . S
O15 C3 1.281 . S
O16 Mn0 2.297 . S
O16 C3 1.236 . S
N17 Mn1 2.282 . S
N17 C18 1.328 . S
N17 C22 1.318 . S
C18 N17 1.328 . S
C18 C19 1.457 . S
C18 H23 0.929 . S
C19 C18 1.457 . S
C19 C20 1.291 . S
C19 H32 0.931 . S
C20 C19 1.291 . S
C20 C21 1.373 . S
C20 H33 0.929 . S
C21 C20 1.373 . S
C21 C22 1.396 . S
C21 C28 1.403 . S
C22 C12 1.476 . S
C22 N17 1.318 . S
C22 C21 1.396 . S
H23 C18 0.929 . S
O24 Mn0 2.385 . S
O24 C2 1.234 . S
O25 Mn0 2.209 . S
O25 Mn1 2.215 . S
O25 C2 1.283 . S
O26 Mn0 2.094 . S
O26 C4 1.240 . S
O27 Mn1 2.117 . S
O27 C4 1.264 . S
C28 C21 1.403 . S
C28 C29 1.399 . S
C28 H34 0.929 . S
C29 C9 1.449 . S
C29 C28 1.399 . S
C29 H35 0.930 . S
H30 C10 0.931 . S
H31 C11 0.930 . S
H32 C19 0.931 . S
H33 C20 0.929 . S
H34 C28 0.929 . S
H35 C29 0.930 . S
Mn36 O41 2.095 . S
Mn36 O51 2.162 . S
Mn36 O52 2.297 . S
Mn36 O60 2.385 . S
Mn36 O61 2.209 . S
Mn36 O62 2.094 . S
Mn37 O42 2.121 . S
Mn37 N44 2.257 . S
Mn37 N53 2.282 . S
Mn37 O61 2.215 . S
Mn37 O63 2.117 . S
C38 O60 1.234 . S
C38 O61 1.283 . S
C39 O51 1.281 . S
C39 O52 1.236 . S
C40 O62 1.240 . S
C40 O63 1.264 . S
O41 Mn36 2.095 . S
O41 C50 1.250 . S
O42 Mn37 2.121 . S
O42 C50 1.258 . S
C43 N44 1.326 . S
C43 C47 1.460 . S
C43 H49 0.929 . S
N44 Mn37 2.257 . S
N44 C43 1.326 . S
N44 C48 1.362 . S
C45 C46 1.258 . S
C45 C48 1.431 . S
C45 C65 1.449 . S
C46 C45 1.258 . S
C46 C47 1.477 . S
C46 H66 0.931 . S
C47 C43 1.460 . S
C47 C46 1.477 . S
C47 H67 0.930 . S
C48 N44 1.362 . S
C48 C45 1.431 . S
C48 C58 1.476 . S
H49 C43 0.929 . S
C50 O41 1.250 . S
C50 O42 1.258 . S
O51 Mn36 2.162 . S
O51 C39 1.281 . S
O52 Mn36 2.297 . S
O52 C39 1.236 . S
N53 Mn37 2.282 . S
N53 C54 1.328 . S
N53 C58 1.318 . S
C54 N53 1.328 . S
C54 C55 1.457 . S
C54 H59 0.929 . S
C55 C54 1.457 . S
C55 C56 1.291 . S
C55 H68 0.931 . S
C56 C55 1.291 . S
C56 C57 1.373 . S
C56 H69 0.929 . S
C57 C56 1.373 . S
C57 C58 1.396 . S
C57 C64 1.403 . S
C58 C48 1.476 . S
C58 N53 1.318 . S
C58 C57 1.396 . S
H59 C54 0.929 . S
O60 Mn36 2.385 . S
O60 C38 1.234 . S
O61 Mn36 2.209 . S
O61 Mn37 2.215 . S
O61 C38 1.283 . S
O62 Mn36 2.094 . S
O62 C40 1.240 . S
O63 Mn37 2.117 . S
O63 C40 1.264 . S
C64 C57 1.403 . S
C64 C65 1.399 . S
C64 H70 0.929 . S
C65 C45 1.449 . S
C65 C64 1.399 . S
C65 H71 0.930 . S
H66 C46 0.931 . S
H67 C47 0.930 . S
H68 C55 0.931 . S
H69 C56 0.929 . S
H70 C64 0.929 . S
H71 C65 0.930 . S
Mn72 O77 2.095 . S
Mn72 O87 2.162 . S
Mn72 O88 2.297 . S
Mn72 O96 2.385 . S
Mn72 O97 2.209 . S
Mn72 O98 2.094 . S
Mn73 O78 2.121 . S
Mn73 N80 2.257 . S
Mn73 N89 2.282 . S
Mn73 O97 2.215 . S
Mn73 O99 2.117 . S
C74 O96 1.234 . S
C74 O97 1.283 . S
C75 O87 1.281 . S
C75 O88 1.236 . S
C76 O98 1.240 . S
C76 O99 1.264 . S
O77 Mn72 2.095 . S
O77 C86 1.250 . S
O78 Mn73 2.121 . S
O78 C86 1.258 . S
C79 N80 1.326 . S
C79 C83 1.460 . S
C79 H85 0.929 . S
N80 Mn73 2.257 . S
N80 C79 1.326 . S
N80 C84 1.362 . S
C81 C82 1.258 . S
C81 C84 1.431 . S
C81 C101 1.449 . S
C82 C81 1.258 . S
C82 C83 1.477 . S
C82 H102 0.931 . S
C83 C79 1.460 . S
C83 C82 1.477 . S
C83 H103 0.930 . S
C84 N80 1.362 . S
C84 C81 1.431 . S
C84 C94 1.476 . S
H85 C79 0.929 . S
C86 O77 1.250 . S
C86 O78 1.258 . S
O87 Mn72 2.162 . S
O87 C75 1.281 . S
O88 Mn72 2.297 . S
O88 C75 1.236 . S
N89 Mn73 2.282 . S
N89 C90 1.328 . S
N89 C94 1.318 . S
C90 N89 1.328 . S
C90 C91 1.457 . S
C90 H95 0.929 . S
C91 C90 1.457 . S
C91 C92 1.291 . S
C91 H104 0.931 . S
C92 C91 1.291 . S
C92 C93 1.373 . S
C92 H105 0.929 . S
C93 C92 1.373 . S
C93 C94 1.396 . S
C93 C100 1.403 . S
C94 C84 1.476 . S
C94 N89 1.318 . S
C94 C93 1.396 . S
H95 C90 0.929 . S
O96 Mn72 2.385 . S
O96 C74 1.234 . S
O97 Mn72 2.209 . S
O97 Mn73 2.215 . S
O97 C74 1.283 . S
O98 Mn72 2.094 . S
O98 C76 1.240 . S
O99 Mn73 2.117 . S
O99 C76 1.264 . S
C100 C93 1.403 . S
C100 C101 1.399 . S
C100 H106 0.929 . S
C101 C81 1.449 . S
C101 C100 1.399 . S
C101 H107 0.930 . S
H102 C82 0.931 . S
H103 C83 0.930 . S
H104 C91 0.931 . S
H105 C92 0.929 . S
H106 C100 0.929 . S
H107 C101 0.930 . S
Mn108 O113 2.095 . S
Mn108 O123 2.162 . S
Mn108 O124 2.297 . S
Mn108 O132 2.385 . S
Mn108 O133 2.209 . S
Mn108 O134 2.094 . S
Mn109 O114 2.121 . S
Mn109 N116 2.257 . S
Mn109 N125 2.282 . S
Mn109 O133 2.215 . S
Mn109 O135 2.117 . S
C110 O132 1.234 . S
C110 O133 1.283 . S
C111 O123 1.281 . S
C111 O124 1.236 . S
C112 O134 1.240 . S
C112 O135 1.264 . S
O113 Mn108 2.095 . S
O113 C122 1.250 . S
O114 Mn109 2.121 . S
O114 C122 1.258 . S
C115 N116 1.326 . S
C115 C119 1.460 . S
C115 H121 0.929 . S
N116 Mn109 2.257 . S
N116 C115 1.326 . S
N116 C120 1.362 . S
C117 C118 1.258 . S
C117 C120 1.431 . S
C117 C137 1.449 . S
C118 C117 1.258 . S
C118 C119 1.477 . S
C118 H138 0.931 . S
C119 C115 1.460 . S
C119 C118 1.477 . S
C119 H139 0.930 . S
C120 N116 1.362 . S
C120 C117 1.431 . S
C120 C130 1.476 . S
H121 C115 0.929 . S
C122 O113 1.250 . S
C122 O114 1.258 . S
O123 Mn108 2.162 . S
O123 C111 1.281 . S
O124 Mn108 2.297 . S
O124 C111 1.236 . S
N125 Mn109 2.282 . S
N125 C126 1.328 . S
N125 C130 1.318 . S
C126 N125 1.328 . S
C126 C127 1.457 . S
C126 H131 0.929 . S
C127 C126 1.457 . S
C127 C128 1.291 . S
C127 H140 0.931 . S
C128 C127 1.291 . S
C128 C129 1.373 . S
C128 H141 0.929 . S
C129 C128 1.373 . S
C129 C130 1.396 . S
C129 C136 1.403 . S
C130 C120 1.476 . S
C130 N125 1.318 . S
C130 C129 1.396 . S
H131 C126 0.929 . S
O132 Mn108 2.385 . S
O132 C110 1.234 . S
O133 Mn108 2.209 . S
O133 Mn109 2.215 . S
O133 C110 1.283 . S
O134 Mn108 2.094 . S
O134 C112 1.240 . S
O135 Mn109 2.117 . S
O135 C112 1.264 . S
C136 C129 1.403 . S
C136 C137 1.399 . S
C136 H142 0.929 . S
C137 C117 1.449 . S
C137 C136 1.399 . S
C137 H143 0.930 . S
H138 C118 0.931 . S
H139 C119 0.930 . S
H140 C127 0.931 . S
H141 C128 0.929 . S
H142 C136 0.929 . S
H143 C137 0.930 . S
Mn144 O149 2.095 . S
Mn144 O159 2.162 . S
Mn144 O160 2.297 . S
Mn144 O168 2.385 . S
Mn144 O169 2.209 . S
Mn144 O170 2.094 . S
Mn145 O150 2.121 . S
Mn145 N152 2.257 . S
Mn145 N161 2.282 . S
Mn145 O169 2.215 . S
Mn145 O171 2.117 . S
C146 O168 1.234 . S
C146 O169 1.283 . S
C147 O159 1.281 . S
C147 O160 1.236 . S
C148 O170 1.240 . S
C148 O171 1.264 . S
O149 Mn144 2.095 . S
O149 C158 1.250 . S
O150 Mn145 2.121 . S
O150 C158 1.258 . S
C151 N152 1.326 . S
C151 C155 1.460 . S
C151 H157 0.929 . S
N152 Mn145 2.257 . S
N152 C151 1.326 . S
N152 C156 1.362 . S
C153 C154 1.258 . S
C153 C156 1.431 . S
C153 C173 1.449 . S
C154 C153 1.258 . S
C154 C155 1.477 . S
C154 H174 0.931 . S
C155 C151 1.460 . S
C155 C154 1.477 . S
C155 H175 0.930 . S
C156 N152 1.362 . S
C156 C153 1.431 . S
C156 C166 1.476 . S
H157 C151 0.929 . S
C158 O149 1.250 . S
C158 O150 1.258 . S
O159 Mn144 2.162 . S
O159 C147 1.281 . S
O160 Mn144 2.297 . S
O160 C147 1.236 . S
N161 Mn145 2.282 . S
N161 C162 1.328 . S
N161 C166 1.318 . S
C162 N161 1.328 . S
C162 C163 1.457 . S
C162 H167 0.929 . S
C163 C162 1.457 . S
C163 C164 1.291 . S
C163 H176 0.931 . S
C164 C163 1.291 . S
C164 C165 1.373 . S
C164 H177 0.929 . S
C165 C164 1.373 . S
C165 C166 1.396 . S
C165 C172 1.403 . S
C166 C156 1.476 . S
C166 N161 1.318 . S
C166 C165 1.396 . S
H167 C162 0.929 . S
O168 Mn144 2.385 . S
O168 C146 1.234 . S
O169 Mn144 2.209 . S
O169 Mn145 2.215 . S
O169 C146 1.283 . S
O170 Mn144 2.094 . S
O170 C148 1.240 . S
O171 Mn145 2.117 . S
O171 C148 1.264 . S
C172 C165 1.403 . S
C172 C173 1.399 . S
C172 H178 0.929 . S
C173 C153 1.449 . S
C173 C172 1.399 . S
C173 H179 0.930 . S
H174 C154 0.931 . S
H175 C155 0.930 . S
H176 C163 0.931 . S
H177 C164 0.929 . S
H178 C172 0.929 . S
H179 C173 0.930 . S
Mn180 O185 2.095 . S
Mn180 O195 2.162 . S
Mn180 O196 2.297 . S
Mn180 O204 2.385 . S
Mn180 O205 2.209 . S
Mn180 O206 2.094 . S
Mn181 O186 2.121 . S
Mn181 N188 2.257 . S
Mn181 N197 2.282 . S
Mn181 O205 2.215 . S
Mn181 O207 2.117 . S
C182 O204 1.234 . S
C182 O205 1.283 . S
C183 O195 1.281 . S
C183 O196 1.236 . S
C184 O206 1.240 . S
C184 O207 1.264 . S
O185 Mn180 2.095 . S
O185 C194 1.250 . S
O186 Mn181 2.121 . S
O186 C194 1.258 . S
C187 N188 1.326 . S
C187 C191 1.460 . S
C187 H193 0.929 . S
N188 Mn181 2.257 . S
N188 C187 1.326 . S
N188 C192 1.362 . S
C189 C190 1.258 . S
C189 C192 1.431 . S
C189 C209 1.449 . S
C190 C189 1.258 . S
C190 C191 1.477 . S
C190 H210 0.931 . S
C191 C187 1.460 . S
C191 C190 1.477 . S
C191 H211 0.930 . S
C192 N188 1.362 . S
C192 C189 1.431 . S
C192 C202 1.476 . S
H193 C187 0.929 . S
C194 O185 1.250 . S
C194 O186 1.258 . S
O195 Mn180 2.162 . S
O195 C183 1.281 . S
O196 Mn180 2.297 . S
O196 C183 1.236 . S
N197 Mn181 2.282 . S
N197 C198 1.328 . S
N197 C202 1.318 . S
C198 N197 1.328 . S
C198 C199 1.457 . S
C198 H203 0.929 . S
C199 C198 1.457 . S
C199 C200 1.291 . S
C199 H212 0.931 . S
C200 C199 1.291 . S
C200 C201 1.373 . S
C200 H213 0.929 . S
C201 C200 1.373 . S
C201 C202 1.396 . S
C201 C208 1.403 . S
C202 C192 1.476 . S
C202 N197 1.318 . S
C202 C201 1.396 . S
H203 C198 0.929 . S
O204 Mn180 2.385 . S
O204 C182 1.234 . S
O205 Mn180 2.209 . S
O205 Mn181 2.215 . S
O205 C182 1.283 . S
O206 Mn180 2.094 . S
O206 C184 1.240 . S
O207 Mn181 2.117 . S
O207 C184 1.264 . S
C208 C201 1.403 . S
C208 C209 1.399 . S
C208 H214 0.929 . S
C209 C189 1.449 . S
C209 C208 1.399 . S
C209 H215 0.930 . S
H210 C190 0.931 . S
H211 C191 0.930 . S
H212 C199 0.931 . S
H213 C200 0.929 . S
H214 C208 0.929 . S
H215 C209 0.930 . S
Mn216 O221 2.095 . S
Mn216 O231 2.162 . S
Mn216 O232 2.297 . S
Mn216 O240 2.385 . S
Mn216 O241 2.209 . S
Mn216 O242 2.094 . S
Mn217 O222 2.121 . S
Mn217 N224 2.257 . S
Mn217 N233 2.282 . S
Mn217 O241 2.215 . S
Mn217 O243 2.117 . S
C218 O240 1.234 . S
C218 O241 1.283 . S
C219 O231 1.281 . S
C219 O232 1.236 . S
C220 O242 1.240 . S
C220 O243 1.264 . S
O221 Mn216 2.095 . S
O221 C230 1.250 . S
O222 Mn217 2.121 . S
O222 C230 1.258 . S
C223 N224 1.326 . S
C223 C227 1.460 . S
C223 H229 0.929 . S
N224 Mn217 2.257 . S
N224 C223 1.326 . S
N224 C228 1.362 . S
C225 C226 1.258 . S
C225 C228 1.431 . S
C225 C245 1.449 . S
C226 C225 1.258 . S
C226 C227 1.477 . S
C226 H246 0.931 . S
C227 C223 1.460 . S
C227 C226 1.477 . S
C227 H247 0.930 . S
C228 N224 1.362 . S
C228 C225 1.431 . S
C228 C238 1.476 . S
H229 C223 0.929 . S
C230 O221 1.250 . S
C230 O222 1.258 . S
O231 Mn216 2.162 . S
O231 C219 1.281 . S
O232 Mn216 2.297 . S
O232 C219 1.236 . S
N233 Mn217 2.282 . S
N233 C234 1.328 . S
N233 C238 1.318 . S
C234 N233 1.328 . S
C234 C235 1.457 . S
C234 H239 0.929 . S
C235 C234 1.457 . S
C235 C236 1.291 . S
C235 H248 0.931 . S
C236 C235 1.291 . S
C236 C237 1.373 . S
C236 H249 0.929 . S
C237 C236 1.373 . S
C237 C238 1.396 . S
C237 C244 1.403 . S
C238 C228 1.476 . S
C238 N233 1.318 . S
C238 C237 1.396 . S
H239 C234 0.929 . S
O240 Mn216 2.385 . S
O240 C218 1.234 . S
O241 Mn216 2.209 . S
O241 Mn217 2.215 . S
O241 C218 1.283 . S
O242 Mn216 2.094 . S
O242 C220 1.240 . S
O243 Mn217 2.117 . S
O243 C220 1.264 . S
C244 C237 1.403 . S
C244 C245 1.399 . S
C244 H250 0.929 . S
C245 C225 1.449 . S
C245 C244 1.399 . S
C245 H251 0.930 . S
H246 C226 0.931 . S
H247 C227 0.930 . S
H248 C235 0.931 . S
H249 C236 0.929 . S
H250 C244 0.929 . S
H251 C245 0.930 . S
Mn252 O257 2.095 . S
Mn252 O267 2.162 . S
Mn252 O268 2.297 . S
Mn252 O276 2.385 . S
Mn252 O277 2.209 . S
Mn252 O278 2.094 . S
Mn253 O258 2.121 . S
Mn253 N260 2.257 . S
Mn253 N269 2.282 . S
Mn253 O277 2.215 . S
Mn253 O279 2.117 . S
C254 O276 1.234 . S
C254 O277 1.283 . S
C255 O267 1.281 . S
C255 O268 1.236 . S
C256 O278 1.240 . S
C256 O279 1.264 . S
O257 Mn252 2.095 . S
O257 C266 1.250 . S
O258 Mn253 2.121 . S
O258 C266 1.258 . S
C259 N260 1.326 . S
C259 C263 1.460 . S
C259 H265 0.929 . S
N260 Mn253 2.257 . S
N260 C259 1.326 . S
N260 C264 1.362 . S
C261 C262 1.258 . S
C261 C264 1.431 . S
C261 C281 1.449 . S
C262 C261 1.258 . S
C262 C263 1.477 . S
C262 H282 0.931 . S
C263 C259 1.460 . S
C263 C262 1.477 . S
C263 H283 0.930 . S
C264 N260 1.362 . S
C264 C261 1.431 . S
C264 C274 1.476 . S
H265 C259 0.929 . S
C266 O257 1.250 . S
C266 O258 1.258 . S
O267 Mn252 2.162 . S
O267 C255 1.281 . S
O268 Mn252 2.297 . S
O268 C255 1.236 . S
N269 Mn253 2.282 . S
N269 C270 1.328 . S
N269 C274 1.318 . S
C270 N269 1.328 . S
C270 C271 1.457 . S
C270 H275 0.929 . S
C271 C270 1.457 . S
C271 C272 1.291 . S
C271 H284 0.931 . S
C272 C271 1.291 . S
C272 C273 1.373 . S
C272 H285 0.929 . S
C273 C272 1.373 . S
C273 C274 1.396 . S
C273 C280 1.403 . S
C274 C264 1.476 . S
C274 N269 1.318 . S
C274 C273 1.396 . S
H275 C270 0.929 . S
O276 Mn252 2.385 . S
O276 C254 1.234 . S
O277 Mn252 2.209 . S
O277 Mn253 2.215 . S
O277 C254 1.283 . S
O278 Mn252 2.094 . S
O278 C256 1.240 . S
O279 Mn253 2.117 . S
O279 C256 1.264 . S
C280 C273 1.403 . S
C280 C281 1.399 . S
C280 H286 0.929 . S
C281 C261 1.449 . S
C281 C280 1.399 . S
C281 H287 0.930 . S
H282 C262 0.931 . S
H283 C263 0.930 . S
H284 C271 0.931 . S
H285 C272 0.929 . S
H286 C280 0.929 . S
H287 C281 0.930 . S
Mn288 O293 2.095 . S
Mn288 O303 2.162 . S
Mn288 O304 2.297 . S
Mn288 O312 2.385 . S
Mn288 O313 2.209 . S
Mn288 O314 2.094 . S
Mn289 O294 2.121 . S
Mn289 N296 2.257 . S
Mn289 N305 2.282 . S
Mn289 O313 2.215 . S
Mn289 O315 2.117 . S
C290 O312 1.234 . S
C290 O313 1.283 . S
C291 O303 1.281 . S
C291 O304 1.236 . S
C292 O314 1.240 . S
C292 O315 1.264 . S
O293 Mn288 2.095 . S
O293 C302 1.250 . S
O294 Mn289 2.121 . S
O294 C302 1.258 . S
C295 N296 1.326 . S
C295 C299 1.460 . S
C295 H301 0.929 . S
N296 Mn289 2.257 . S
N296 C295 1.326 . S
N296 C300 1.362 . S
C297 C298 1.258 . S
C297 C300 1.431 . S
C297 C317 1.449 . S
C298 C297 1.258 . S
C298 C299 1.477 . S
C298 H318 0.931 . S
C299 C295 1.460 . S
C299 C298 1.477 . S
C299 H319 0.930 . S
C300 N296 1.362 . S
C300 C297 1.431 . S
C300 C310 1.476 . S
H301 C295 0.929 . S
C302 O293 1.250 . S
C302 O294 1.258 . S
O303 Mn288 2.162 . S
O303 C291 1.281 . S
O304 Mn288 2.297 . S
O304 C291 1.236 . S
N305 Mn289 2.282 . S
N305 C306 1.328 . S
N305 C310 1.318 . S
C306 N305 1.328 . S
C306 C307 1.457 . S
C306 H311 0.929 . S
C307 C306 1.457 . S
C307 C308 1.291 . S
C307 H320 0.931 . S
C308 C307 1.291 . S
C308 C309 1.373 . S
C308 H321 0.929 . S
C309 C308 1.373 . S
C309 C310 1.396 . S
C309 C316 1.403 . S
C310 C300 1.476 . S
C310 N305 1.318 . S
C310 C309 1.396 . S
H311 C306 0.929 . S
O312 Mn288 2.385 . S
O312 C290 1.234 . S
O313 Mn288 2.209 . S
O313 Mn289 2.215 . S
O313 C290 1.283 . S
O314 Mn288 2.094 . S
O314 C292 1.240 . S
O315 Mn289 2.117 . S
O315 C292 1.264 . S
C316 C309 1.403 . S
C316 C317 1.399 . S
C316 H322 0.929 . S
C317 C297 1.449 . S
C317 C316 1.399 . S
C317 H323 0.930 . S
H318 C298 0.931 . S
H319 C299 0.930 . S
H320 C307 0.931 . S
H321 C308 0.929 . S
H322 C316 0.929 . S
H323 C317 0.930 . S
Mn324 O329 2.095 . S
Mn324 O339 2.162 . S
Mn324 O340 2.297 . S
Mn324 O348 2.385 . S
Mn324 O349 2.209 . S
Mn324 O350 2.094 . S
Mn325 O330 2.121 . S
Mn325 N332 2.257 . S
Mn325 N341 2.282 . S
Mn325 O349 2.215 . S
Mn325 O351 2.117 . S
C326 O348 1.234 . S
C326 O349 1.283 . S
C327 O339 1.281 . S
C327 O340 1.236 . S
C328 O350 1.240 . S
C328 O351 1.264 . S
O329 Mn324 2.095 . S
O329 C338 1.250 . S
O330 Mn325 2.121 . S
O330 C338 1.258 . S
C331 N332 1.326 . S
C331 C335 1.460 . S
C331 H337 0.929 . S
N332 Mn325 2.257 . S
N332 C331 1.326 . S
N332 C336 1.362 . S
C333 C334 1.258 . S
C333 C336 1.431 . S
C333 C353 1.449 . S
C334 C333 1.258 . S
C334 C335 1.477 . S
C334 H354 0.931 . S
C335 C331 1.460 . S
C335 C334 1.477 . S
C335 H355 0.930 . S
C336 N332 1.362 . S
C336 C333 1.431 . S
C336 C346 1.476 . S
H337 C331 0.929 . S
C338 O329 1.250 . S
C338 O330 1.258 . S
O339 Mn324 2.162 . S
O339 C327 1.281 . S
O340 Mn324 2.297 . S
O340 C327 1.236 . S
N341 Mn325 2.282 . S
N341 C342 1.328 . S
N341 C346 1.318 . S
C342 N341 1.328 . S
C342 C343 1.457 . S
C342 H347 0.929 . S
C343 C342 1.457 . S
C343 C344 1.291 . S
C343 H356 0.931 . S
C344 C343 1.291 . S
C344 C345 1.373 . S
C344 H357 0.929 . S
C345 C344 1.373 . S
C345 C346 1.396 . S
C345 C352 1.403 . S
C346 C336 1.476 . S
C346 N341 1.318 . S
C346 C345 1.396 . S
H347 C342 0.929 . S
O348 Mn324 2.385 . S
O348 C326 1.234 . S
O349 Mn324 2.209 . S
O349 Mn325 2.215 . S
O349 C326 1.283 . S
O350 Mn324 2.094 . S
O350 C328 1.240 . S
O351 Mn325 2.117 . S
O351 C328 1.264 . S
C352 C345 1.403 . S
C352 C353 1.399 . S
C352 H358 0.929 . S
C353 C333 1.449 . S
C353 C352 1.399 . S
C353 H359 0.930 . S
H354 C334 0.931 . S
H355 C335 0.930 . S
H356 C343 0.931 . S
H357 C344 0.929 . S
H358 C352 0.929 . S
H359 C353 0.930 . S
Mn360 O365 2.095 . S
Mn360 O375 2.162 . S
Mn360 O376 2.297 . S
Mn360 O384 2.385 . S
Mn360 O385 2.209 . S
Mn360 O386 2.094 . S
Mn361 O366 2.121 . S
Mn361 N368 2.257 . S
Mn361 N377 2.282 . S
Mn361 O385 2.215 . S
Mn361 O387 2.117 . S
C362 O384 1.234 . S
C362 O385 1.283 . S
C363 O375 1.281 . S
C363 O376 1.236 . S
C364 O386 1.240 . S
C364 O387 1.264 . S
O365 Mn360 2.095 . S
O365 C374 1.250 . S
O366 Mn361 2.121 . S
O366 C374 1.258 . S
C367 N368 1.326 . S
C367 C371 1.460 . S
C367 H373 0.929 . S
N368 Mn361 2.257 . S
N368 C367 1.326 . S
N368 C372 1.362 . S
C369 C370 1.258 . S
C369 C372 1.431 . S
C369 C389 1.449 . S
C370 C369 1.258 . S
C370 C371 1.477 . S
C370 H390 0.931 . S
C371 C367 1.460 . S
C371 C370 1.477 . S
C371 H391 0.930 . S
C372 N368 1.362 . S
C372 C369 1.431 . S
C372 C382 1.476 . S
H373 C367 0.929 . S
C374 O365 1.250 . S
C374 O366 1.258 . S
O375 Mn360 2.162 . S
O375 C363 1.281 . S
O376 Mn360 2.297 . S
O376 C363 1.236 . S
N377 Mn361 2.282 . S
N377 C378 1.328 . S
N377 C382 1.318 . S
C378 N377 1.328 . S
C378 C379 1.457 . S
C378 H383 0.929 . S
C379 C378 1.457 . S
C379 C380 1.291 . S
C379 H392 0.931 . S
C380 C379 1.291 . S
C380 C381 1.373 . S
C380 H393 0.929 . S
C381 C380 1.373 . S
C381 C382 1.396 . S
C381 C388 1.403 . S
C382 C372 1.476 . S
C382 N377 1.318 . S
C382 C381 1.396 . S
H383 C378 0.929 . S
O384 Mn360 2.385 . S
O384 C362 1.234 . S
O385 Mn360 2.209 . S
O385 Mn361 2.215 . S
O385 C362 1.283 . S
O386 Mn360 2.094 . S
O386 C364 1.240 . S
O387 Mn361 2.117 . S
O387 C364 1.264 . S
C388 C381 1.403 . S
C388 C389 1.399 . S
C388 H394 0.929 . S
C389 C369 1.449 . S
C389 C388 1.399 . S
C389 H395 0.930 . S
H390 C370 0.931 . S
H391 C371 0.930 . S
H392 C379 0.931 . S
H393 C380 0.929 . S
H394 C388 0.929 . S
H395 C389 0.930 . S
Mn396 O401 2.095 . S
Mn396 O411 2.162 . S
Mn396 O412 2.297 . S
Mn396 O420 2.385 . S
Mn396 O421 2.209 . S
Mn396 O422 2.094 . S
Mn397 O402 2.121 . S
Mn397 N404 2.257 . S
Mn397 N413 2.282 . S
Mn397 O421 2.215 . S
Mn397 O423 2.117 . S
C398 O420 1.234 . S
C398 O421 1.283 . S
C399 O411 1.281 . S
C399 O412 1.236 . S
C400 O422 1.240 . S
C400 O423 1.264 . S
O401 Mn396 2.095 . S
O401 C410 1.250 . S
O402 Mn397 2.121 . S
O402 C410 1.258 . S
C403 N404 1.326 . S
C403 C407 1.460 . S
C403 H409 0.929 . S
N404 Mn397 2.257 . S
N404 C403 1.326 . S
N404 C408 1.362 . S
C405 C406 1.258 . S
C405 C408 1.431 . S
C405 C425 1.449 . S
C406 C405 1.258 . S
C406 C407 1.477 . S
C406 H426 0.931 . S
C407 C403 1.460 . S
C407 C406 1.477 . S
C407 H427 0.930 . S
C408 N404 1.362 . S
C408 C405 1.431 . S
C408 C418 1.476 . S
H409 C403 0.929 . S
C410 O401 1.250 . S
C410 O402 1.258 . S
O411 Mn396 2.162 . S
O411 C399 1.281 . S
O412 Mn396 2.297 . S
O412 C399 1.236 . S
N413 Mn397 2.282 . S
N413 C414 1.328 . S
N413 C418 1.318 . S
C414 N413 1.328 . S
C414 C415 1.457 . S
C414 H419 0.929 . S
C415 C414 1.457 . S
C415 C416 1.291 . S
C415 H428 0.931 . S
C416 C415 1.291 . S
C416 C417 1.373 . S
C416 H429 0.929 . S
C417 C416 1.373 . S
C417 C418 1.396 . S
C417 C424 1.403 . S
C418 C408 1.476 . S
C418 N413 1.318 . S
C418 C417 1.396 . S
H419 C414 0.929 . S
O420 Mn396 2.385 . S
O420 C398 1.234 . S
O421 Mn396 2.209 . S
O421 Mn397 2.215 . S
O421 C398 1.283 . S
O422 Mn396 2.094 . S
O422 C400 1.240 . S
O423 Mn397 2.117 . S
O423 C400 1.264 . S
C424 C417 1.403 . S
C424 C425 1.399 . S
C424 H430 0.929 . S
C425 C405 1.449 . S
C425 C424 1.399 . S
C425 H431 0.930 . S
H426 C406 0.931 . S
H427 C407 0.930 . S
H428 C415 0.931 . S
H429 C416 0.929 . S
H430 C424 0.929 . S
H431 C425 0.930 . S
Mn432 O437 2.095 . S
Mn432 O447 2.162 . S
Mn432 O448 2.297 . S
Mn432 O456 2.385 . S
Mn432 O457 2.209 . S
Mn432 O458 2.094 . S
Mn433 O438 2.121 . S
Mn433 N440 2.257 . S
Mn433 N449 2.282 . S
Mn433 O457 2.215 . S
Mn433 O459 2.117 . S
C434 O456 1.234 . S
C434 O457 1.283 . S
C435 O447 1.281 . S
C435 O448 1.236 . S
C436 O458 1.240 . S
C436 O459 1.264 . S
O437 Mn432 2.095 . S
O437 C446 1.250 . S
O438 Mn433 2.121 . S
O438 C446 1.258 . S
C439 N440 1.326 . S
C439 C443 1.460 . S
C439 H445 0.929 . S
N440 Mn433 2.257 . S
N440 C439 1.326 . S
N440 C444 1.362 . S
C441 C442 1.258 . S
C441 C444 1.431 . S
C441 C461 1.449 . S
C442 C441 1.258 . S
C442 C443 1.477 . S
C442 H462 0.931 . S
C443 C439 1.460 . S
C443 C442 1.477 . S
C443 H463 0.930 . S
C444 N440 1.362 . S
C444 C441 1.431 . S
C444 C454 1.476 . S
H445 C439 0.929 . S
C446 O437 1.250 . S
C446 O438 1.258 . S
O447 Mn432 2.162 . S
O447 C435 1.281 . S
O448 Mn432 2.297 . S
O448 C435 1.236 . S
N449 Mn433 2.282 . S
N449 C450 1.328 . S
N449 C454 1.318 . S
C450 N449 1.328 . S
C450 C451 1.457 . S
C450 H455 0.929 . S
C451 C450 1.457 . S
C451 C452 1.291 . S
C451 H464 0.931 . S
C452 C451 1.291 . S
C452 C453 1.373 . S
C452 H465 0.929 . S
C453 C452 1.373 . S
C453 C454 1.396 . S
C453 C460 1.403 . S
C454 C444 1.476 . S
C454 N449 1.318 . S
C454 C453 1.396 . S
H455 C450 0.929 . S
O456 Mn432 2.385 . S
O456 C434 1.234 . S
O457 Mn432 2.209 . S
O457 Mn433 2.215 . S
O457 C434 1.283 . S
O458 Mn432 2.094 . S
O458 C436 1.240 . S
O459 Mn433 2.117 . S
O459 C436 1.264 . S
C460 C453 1.403 . S
C460 C461 1.399 . S
C460 H466 0.929 . S
C461 C441 1.449 . S
C461 C460 1.399 . S
C461 H467 0.930 . S
H462 C442 0.931 . S
H463 C443 0.930 . S
H464 C451 0.931 . S
H465 C452 0.929 . S
H466 C460 0.929 . S
H467 C461 0.930 . S
Mn468 O473 2.095 . S
Mn468 O483 2.162 . S
Mn468 O484 2.297 . S
Mn468 O492 2.385 . S
Mn468 O493 2.209 . S
Mn468 O494 2.094 . S
Mn469 O474 2.121 . S
Mn469 N476 2.257 . S
Mn469 N485 2.282 . S
Mn469 O493 2.215 . S
Mn469 O495 2.117 . S
C470 O492 1.234 . S
C470 O493 1.283 . S
C471 O483 1.281 . S
C471 O484 1.236 . S
C472 O494 1.240 . S
C472 O495 1.264 . S
O473 Mn468 2.095 . S
O473 C482 1.250 . S
O474 Mn469 2.121 . S
O474 C482 1.258 . S
C475 N476 1.326 . S
C475 C479 1.460 . S
C475 H481 0.929 . S
N476 Mn469 2.257 . S
N476 C475 1.326 . S
N476 C480 1.362 . S
C477 C478 1.258 . S
C477 C480 1.431 . S
C477 C497 1.449 . S
C478 C477 1.258 . S
C478 C479 1.477 . S
C478 H498 0.931 . S
C479 C475 1.460 . S
C479 C478 1.477 . S
C479 H499 0.930 . S
C480 N476 1.362 . S
C480 C477 1.431 . S
C480 C490 1.476 . S
H481 C475 0.929 . S
C482 O473 1.250 . S
C482 O474 1.258 . S
O483 Mn468 2.162 . S
O483 C471 1.281 . S
O484 Mn468 2.297 . S
O484 C471 1.236 . S
N485 Mn469 2.282 . S
N485 C486 1.328 . S
N485 C490 1.318 . S
C486 N485 1.328 . S
C486 C487 1.457 . S
C486 H491 0.929 . S
C487 C486 1.457 . S
C487 C488 1.291 . S
C487 H500 0.931 . S
C488 C487 1.291 . S
C488 C489 1.373 . S
C488 H501 0.929 . S
C489 C488 1.373 . S
C489 C490 1.396 . S
C489 C496 1.403 . S
C490 C480 1.476 . S
C490 N485 1.318 . S
C490 C489 1.396 . S
H491 C486 0.929 . S
O492 Mn468 2.385 . S
O492 C470 1.234 . S
O493 Mn468 2.209 . S
O493 Mn469 2.215 . S
O493 C470 1.283 . S
O494 Mn468 2.094 . S
O494 C472 1.240 . S
O495 Mn469 2.117 . S
O495 C472 1.264 . S
C496 C489 1.403 . S
C496 C497 1.399 . S
C496 H502 0.929 . S
C497 C477 1.449 . S
C497 C496 1.399 . S
C497 H503 0.930 . S
H498 C478 0.931 . S
H499 C479 0.930 . S
H500 C487 0.931 . S
H501 C488 0.929 . S
H502 C496 0.929 . S
H503 C497 0.930 . S
Mn504 O509 2.095 . S
Mn504 O519 2.162 . S
Mn504 O520 2.297 . S
Mn504 O528 2.385 . S
Mn504 O529 2.209 . S
Mn504 O530 2.094 . S
Mn505 O510 2.121 . S
Mn505 N512 2.257 . S
Mn505 N521 2.282 . S
Mn505 O529 2.215 . S
Mn505 O531 2.117 . S
C506 O528 1.234 . S
C506 O529 1.283 . S
C507 O519 1.281 . S
C507 O520 1.236 . S
C508 O530 1.240 . S
C508 O531 1.264 . S
O509 Mn504 2.095 . S
O509 C518 1.250 . S
O510 Mn505 2.121 . S
O510 C518 1.258 . S
C511 N512 1.326 . S
C511 C515 1.460 . S
C511 H517 0.929 . S
N512 Mn505 2.257 . S
N512 C511 1.326 . S
N512 C516 1.362 . S
C513 C514 1.258 . S
C513 C516 1.431 . S
C513 C533 1.449 . S
C514 C513 1.258 . S
C514 C515 1.477 . S
C514 H534 0.931 . S
C515 C511 1.460 . S
C515 C514 1.477 . S
C515 H535 0.930 . S
C516 N512 1.362 . S
C516 C513 1.431 . S
C516 C526 1.476 . S
H517 C511 0.929 . S
C518 O509 1.250 . S
C518 O510 1.258 . S
O519 Mn504 2.162 . S
O519 C507 1.281 . S
O520 Mn504 2.297 . S
O520 C507 1.236 . S
N521 Mn505 2.282 . S
N521 C522 1.328 . S
N521 C526 1.318 . S
C522 N521 1.328 . S
C522 C523 1.457 . S
C522 H527 0.929 . S
C523 C522 1.457 . S
C523 C524 1.291 . S
C523 H536 0.931 . S
C524 C523 1.291 . S
C524 C525 1.373 . S
C524 H537 0.929 . S
C525 C524 1.373 . S
C525 C526 1.396 . S
C525 C532 1.403 . S
C526 C516 1.476 . S
C526 N521 1.318 . S
C526 C525 1.396 . S
H527 C522 0.929 . S
O528 Mn504 2.385 . S
O528 C506 1.234 . S
O529 Mn504 2.209 . S
O529 Mn505 2.215 . S
O529 C506 1.283 . S
O530 Mn504 2.094 . S
O530 C508 1.240 . S
O531 Mn505 2.117 . S
O531 C508 1.264 . S
C532 C525 1.403 . S
C532 C533 1.399 . S
C532 H538 0.929 . S
C533 C513 1.449 . S
C533 C532 1.399 . S
C533 H539 0.930 . S
H534 C514 0.931 . S
H535 C515 0.930 . S
H536 C523 0.931 . S
H537 C524 0.929 . S
H538 C532 0.929 . S
H539 C533 0.930 . S
Mn540 O545 2.095 . S
Mn540 O555 2.162 . S
Mn540 O556 2.297 . S
Mn540 O564 2.385 . S
Mn540 O565 2.209 . S
Mn540 O566 2.094 . S
Mn541 O546 2.121 . S
Mn541 N548 2.257 . S
Mn541 N557 2.282 . S
Mn541 O565 2.215 . S
Mn541 O567 2.117 . S
C542 O564 1.234 . S
C542 O565 1.283 . S
C543 O555 1.281 . S
C543 O556 1.236 . S
C544 O566 1.240 . S
C544 O567 1.264 . S
O545 Mn540 2.095 . S
O545 C554 1.250 . S
O546 Mn541 2.121 . S
O546 C554 1.258 . S
C547 N548 1.326 . S
C547 C551 1.460 . S
C547 H553 0.929 . S
N548 Mn541 2.257 . S
N548 C547 1.326 . S
N548 C552 1.362 . S
C549 C550 1.258 . S
C549 C552 1.431 . S
C549 C569 1.449 . S
C550 C549 1.258 . S
C550 C551 1.477 . S
C550 H570 0.931 . S
C551 C547 1.460 . S
C551 C550 1.477 . S
C551 H571 0.930 . S
C552 N548 1.362 . S
C552 C549 1.431 . S
C552 C562 1.476 . S
H553 C547 0.929 . S
C554 O545 1.250 . S
C554 O546 1.258 . S
O555 Mn540 2.162 . S
O555 C543 1.281 . S
O556 Mn540 2.297 . S
O556 C543 1.236 . S
N557 Mn541 2.282 . S
N557 C558 1.328 . S
N557 C562 1.318 . S
C558 N557 1.328 . S
C558 C559 1.457 . S
C558 H563 0.929 . S
C559 C558 1.457 . S
C559 C560 1.291 . S
C559 H572 0.931 . S
C560 C559 1.291 . S
C560 C561 1.373 . S
C560 H573 0.929 . S
C561 C560 1.373 . S
C561 C562 1.396 . S
C561 C568 1.403 . S
C562 C552 1.476 . S
C562 N557 1.318 . S
C562 C561 1.396 . S
H563 C558 0.929 . S
O564 Mn540 2.385 . S
O564 C542 1.234 . S
O565 Mn540 2.209 . S
O565 Mn541 2.215 . S
O565 C542 1.283 . S
O566 Mn540 2.094 . S
O566 C544 1.240 . S
O567 Mn541 2.117 . S
O567 C544 1.264 . S
C568 C561 1.403 . S
C568 C569 1.399 . S
C568 H574 0.929 . S
C569 C549 1.449 . S
C569 C568 1.399 . S
C569 H575 0.930 . S
H570 C550 0.931 . S
H571 C551 0.930 . S
H572 C559 0.931 . S
H573 C560 0.929 . S
H574 C568 0.929 . S
H575 C569 0.930 . S
H576 C582 0.930 . S
H577 C586 0.930 . S
H578 C591 0.929 . S
H579 C589 0.929 . S
H580 C584 0.929 . S
H581 C590 0.929 . S
C582 H576 0.930 . S
C582 C583 1.367 . S
C582 C590 1.378 . S
C583 C582 1.367 . S
C583 C591 1.433 . S
C584 H580 0.929 . S
C584 C586 1.378 . S
C584 C588 1.350 . S
C585 C588 1.463 . S
C585 C590 1.350 . S
C585 N593 1.427 . S
C586 H577 0.930 . S
C586 C584 1.378 . S
C586 C587 1.367 . S
C587 C586 1.367 . S
C587 C589 1.433 . S
C588 C584 1.350 . S
C588 C585 1.463 . S
C588 N592 1.427 . S
C589 H579 0.929 . S
C589 C587 1.433 . S
C589 N592 1.384 . S
C590 H581 0.929 . S
C590 C582 1.378 . S
C590 C585 1.350 . S
C591 H578 0.929 . S
C591 C583 1.433 . S
C591 N593 1.384 . S
N592 C588 1.427 . S
N592 C589 1.384 . S
N593 C585 1.427 . S
N593 C591 1.384 . S
H594 C600 0.930 . S
H595 C604 0.930 . S
H596 C609 0.929 . S
H597 C607 0.929 . S
H598 C602 0.929 . S
H599 C608 0.929 . S
C600 H594 0.930 . S
C600 C601 1.367 . S
C600 C608 1.378 . S
C601 C600 1.367 . S
C601 C609 1.433 . S
C602 H598 0.929 . S
C602 C604 1.378 . S
C602 C606 1.350 . S
C603 C606 1.463 . S
C603 C608 1.350 . S
C603 N611 1.427 . S
C604 H595 0.930 . S
C604 C602 1.378 . S
C604 C605 1.367 . S
C605 C604 1.367 . S
C605 C607 1.433 . S
C606 C602 1.350 . S
C606 C603 1.463 . S
C606 N610 1.427 . S
C607 H597 0.929 . S
C607 C605 1.433 . S
C607 N610 1.384 . S
C608 H599 0.929 . S
C608 C600 1.378 . S
C608 C603 1.350 . S
C609 H596 0.929 . S
C609 C601 1.433 . S
C609 N611 1.384 . S
N610 C606 1.427 . S
N610 C607 1.384 . S
N611 C603 1.427 . S
N611 C609 1.384 . S
H612 C618 0.930 . S
H613 C622 0.930 . S
H614 C627 0.929 . S
H615 C625 0.929 . S
H616 C620 0.929 . S
H617 C626 0.929 . S
C618 H612 0.930 . S
C618 C619 1.367 . S
C618 C626 1.378 . S
C619 C618 1.367 . S
C619 C627 1.433 . S
C620 H616 0.929 . S
C620 C622 1.378 . S
C620 C624 1.350 . S
C621 C624 1.463 . S
C621 C626 1.350 . S
C621 N629 1.427 . S
C622 H613 0.930 . S
C622 C620 1.378 . S
C622 C623 1.367 . S
C623 C622 1.367 . S
C623 C625 1.433 . S
C624 C620 1.350 . S
C624 C621 1.463 . S
C624 N628 1.427 . S
C625 H615 0.929 . S
C625 C623 1.433 . S
C625 N628 1.384 . S
C626 H617 0.929 . S
C626 C618 1.378 . S
C626 C621 1.350 . S
C627 H614 0.929 . S
C627 C619 1.433 . S
C627 N629 1.384 . S
N628 C624 1.427 . S
N628 C625 1.384 . S
N629 C621 1.427 . S
N629 C627 1.384 . S
H630 C636 0.930 . S
H631 C640 0.930 . S
H632 C645 0.929 . S
H633 C643 0.929 . S
H634 C638 0.929 . S
H635 C644 0.929 . S
C636 H630 0.930 . S
C636 C637 1.367 . S
C636 C644 1.378 . S
C637 C636 1.367 . S
C637 C645 1.433 . S
C638 H634 0.929 . S
C638 C640 1.378 . S
C638 C642 1.350 . S
C639 C642 1.463 . S
C639 C644 1.350 . S
C639 N647 1.427 . S
C640 H631 0.930 . S
C640 C638 1.378 . S
C640 C641 1.367 . S
C641 C640 1.367 . S
C641 C643 1.433 . S
C642 C638 1.350 . S
C642 C639 1.463 . S
C642 N646 1.427 . S
C643 H633 0.929 . S
C643 C641 1.433 . S
C643 N646 1.384 . S
C644 H635 0.929 . S
C644 C636 1.378 . S
C644 C639 1.350 . S
C645 H632 0.929 . S
C645 C637 1.433 . S
C645 N647 1.384 . S
N646 C642 1.427 . S
N646 C643 1.384 . S
N647 C639 1.427 . S
N647 C645 1.384 . S
H648 C654 0.930 . S
H649 C658 0.930 . S
H650 C663 0.929 . S
H651 C661 0.929 . S
H652 C656 0.929 . S
H653 C662 0.929 . S
C654 H648 0.930 . S
C654 C655 1.367 . S
C654 C662 1.378 . S
C655 C654 1.367 . S
C655 C663 1.433 . S
C656 H652 0.929 . S
C656 C658 1.378 . S
C656 C660 1.350 . S
C657 C660 1.463 . S
C657 C662 1.350 . S
C657 N665 1.427 . S
C658 H649 0.930 . S
C658 C656 1.378 . S
C658 C659 1.367 . S
C659 C658 1.367 . S
C659 C661 1.433 . S
C660 C656 1.350 . S
C660 C657 1.463 . S
C660 N664 1.427 . S
C661 H651 0.929 . S
C661 C659 1.433 . S
C661 N664 1.384 . S
C662 H653 0.929 . S
C662 C654 1.378 . S
C662 C657 1.350 . S
C663 H650 0.929 . S
C663 C655 1.433 . S
C663 N665 1.384 . S
N664 C660 1.427 . S
N664 C661 1.384 . S
N665 C657 1.427 . S
N665 C663 1.384 . S
H666 C672 0.930 . S
H667 C676 0.930 . S
H668 C681 0.929 . S
H669 C679 0.929 . S
H670 C674 0.929 . S
H671 C680 0.929 . S
C672 H666 0.930 . S
C672 C673 1.367 . S
C672 C680 1.378 . S
C673 C672 1.367 . S
C673 C681 1.433 . S
C674 H670 0.929 . S
C674 C676 1.378 . S
C674 C678 1.350 . S
C675 C678 1.463 . S
C675 C680 1.350 . S
C675 N683 1.427 . S
C676 H667 0.930 . S
C676 C674 1.378 . S
C676 C677 1.367 . S
C677 C676 1.367 . S
C677 C679 1.433 . S
C678 C674 1.350 . S
C678 C675 1.463 . S
C678 N682 1.427 . S
C679 H669 0.929 . S
C679 C677 1.433 . S
C679 N682 1.384 . S
C680 H671 0.929 . S
C680 C672 1.378 . S
C680 C675 1.350 . S
C681 H668 0.929 . S
C681 C673 1.433 . S
C681 N683 1.384 . S
N682 C678 1.427 . S
N682 C679 1.384 . S
N683 C675 1.427 . S
N683 C681 1.384 . S
H684 C690 0.930 . S
H685 C694 0.930 . S
H686 C699 0.929 . S
H687 C697 0.929 . S
H688 C692 0.929 . S
H689 C698 0.929 . S
C690 H684 0.930 . S
C690 C691 1.367 . S
C690 C698 1.378 . S
C691 C690 1.367 . S
C691 C699 1.433 . S
C692 H688 0.929 . S
C692 C694 1.378 . S
C692 C696 1.350 . S
C693 C696 1.463 . S
C693 C698 1.350 . S
C693 N701 1.427 . S
C694 H685 0.930 . S
C694 C692 1.378 . S
C694 C695 1.367 . S
C695 C694 1.367 . S
C695 C697 1.433 . S
C696 C692 1.350 . S
C696 C693 1.463 . S
C696 N700 1.427 . S
C697 H687 0.929 . S
C697 C695 1.433 . S
C697 N700 1.384 . S
C698 H689 0.929 . S
C698 C690 1.378 . S
C698 C693 1.350 . S
C699 H686 0.929 . S
C699 C691 1.433 . S
C699 N701 1.384 . S
N700 C696 1.427 . S
N700 C697 1.384 . S
N701 C693 1.427 . S
N701 C699 1.384 . S
H702 C708 0.930 . S
H703 C712 0.930 . S
H704 C717 0.929 . S
H705 C715 0.929 . S
H706 C710 0.929 . S
H707 C716 0.929 . S
C708 H702 0.930 . S
C708 C709 1.367 . S
C708 C716 1.378 . S
C709 C708 1.367 . S
C709 C717 1.433 . S
C710 H706 0.929 . S
C710 C712 1.378 . S
C710 C714 1.350 . S
C711 C714 1.463 . S
C711 C716 1.350 . S
C711 N719 1.427 . S
C712 H703 0.930 . S
C712 C710 1.378 . S
C712 C713 1.367 . S
C713 C712 1.367 . S
C713 C715 1.433 . S
C714 C710 1.350 . S
C714 C711 1.463 . S
C714 N718 1.427 . S
C715 H705 0.929 . S
C715 C713 1.433 . S
C715 N718 1.384 . S
C716 H707 0.929 . S
C716 C708 1.378 . S
C716 C711 1.350 . S
C717 H704 0.929 . S
C717 C709 1.433 . S
C717 N719 1.384 . S
N718 C714 1.427 . S
N718 C715 1.384 . S
N719 C711 1.427 . S
N719 C717 1.384 . S
H720 C726 0.930 . S
H721 C730 0.930 . S
H722 C735 0.929 . S
H723 C733 0.929 . S
H724 C728 0.929 . S
H725 C734 0.929 . S
C726 H720 0.930 . S
C726 C727 1.367 . S
C726 C734 1.378 . S
C727 C726 1.367 . S
C727 C735 1.433 . S
C728 H724 0.929 . S
C728 C730 1.378 . S
C728 C732 1.350 . S
C729 C732 1.463 . S
C729 C734 1.350 . S
C729 N737 1.427 . S
C730 H721 0.930 . S
C730 C728 1.378 . S
C730 C731 1.367 . S
C731 C730 1.367 . S
C731 C733 1.433 . S
C732 C728 1.350 . S
C732 C729 1.463 . S
C732 N736 1.427 . S
C733 H723 0.929 . S
C733 C731 1.433 . S
C733 N736 1.384 . S
C734 H725 0.929 . S
C734 C726 1.378 . S
C734 C729 1.350 . S
C735 H722 0.929 . S
C735 C727 1.433 . S
C735 N737 1.384 . S
N736 C732 1.427 . S
N736 C733 1.384 . S
N737 C729 1.427 . S
N737 C735 1.384 . S
H738 C744 0.930 . S
H739 C748 0.930 . S
H740 C753 0.929 . S
H741 C751 0.929 . S
H742 C746 0.929 . S
H743 C752 0.929 . S
C744 H738 0.930 . S
C744 C745 1.367 . S
C744 C752 1.378 . S
C745 C744 1.367 . S
C745 C753 1.433 . S
C746 H742 0.929 . S
C746 C748 1.378 . S
C746 C750 1.350 . S
C747 C750 1.463 . S
C747 C752 1.350 . S
C747 N755 1.427 . S
C748 H739 0.930 . S
C748 C746 1.378 . S
C748 C749 1.367 . S
C749 C748 1.367 . S
C749 C751 1.433 . S
C750 C746 1.350 . S
C750 C747 1.463 . S
C750 N754 1.427 . S
C751 H741 0.929 . S
C751 C749 1.433 . S
C751 N754 1.384 . S
C752 H743 0.929 . S
C752 C744 1.378 . S
C752 C747 1.350 . S
C753 H740 0.929 . S
C753 C745 1.433 . S
C753 N755 1.384 . S
N754 C750 1.427 . S
N754 C751 1.384 . S
N755 C747 1.427 . S
N755 C753 1.384 . S
H756 C762 0.930 . S
H757 C766 0.930 . S
H758 C771 0.929 . S
H759 C769 0.929 . S
H760 C764 0.929 . S
H761 C770 0.929 . S
C762 H756 0.930 . S
C762 C763 1.367 . S
C762 C770 1.378 . S
C763 C762 1.367 . S
C763 C771 1.433 . S
C764 H760 0.929 . S
C764 C766 1.378 . S
C764 C768 1.350 . S
C765 C768 1.463 . S
C765 C770 1.350 . S
C765 N773 1.427 . S
C766 H757 0.930 . S
C766 C764 1.378 . S
C766 C767 1.367 . S
C767 C766 1.367 . S
C767 C769 1.433 . S
C768 C764 1.350 . S
C768 C765 1.463 . S
C768 N772 1.427 . S
C769 H759 0.929 . S
C769 C767 1.433 . S
C769 N772 1.384 . S
C770 H761 0.929 . S
C770 C762 1.378 . S
C770 C765 1.350 . S
C771 H758 0.929 . S
C771 C763 1.433 . S
C771 N773 1.384 . S
N772 C768 1.427 . S
N772 C769 1.384 . S
N773 C765 1.427 . S
N773 C771 1.384 . S
H774 C780 0.930 . S
H775 C784 0.930 . S
H776 C789 0.929 . S
H777 C787 0.929 . S
H778 C782 0.929 . S
H779 C788 0.929 . S
C780 H774 0.930 . S
C780 C781 1.367 . S
C780 C788 1.378 . S
C781 C780 1.367 . S
C781 C789 1.433 . S
C782 H778 0.929 . S
C782 C784 1.378 . S
C782 C786 1.350 . S
C783 C786 1.463 1_554 S
C783 C788 1.350 . S
C783 N791 1.427 . S
C784 H775 0.930 . S
C784 C782 1.378 . S
C784 C785 1.367 . S
C785 C784 1.367 . S
C785 C787 1.433 . S
C786 C782 1.350 . S
C786 C783 1.463 1_556 S
C786 N790 1.427 . S
C787 H777 0.929 . S
C787 C785 1.433 . S
C787 N790 1.384 . S
C788 H779 0.929 . S
C788 C780 1.378 . S
C788 C783 1.350 . S
C789 H776 0.929 . S
C789 C781 1.433 . S
C789 N791 1.384 . S
N790 C786 1.427 . S
N790 C787 1.384 . S
N791 C783 1.427 . S
N791 C789 1.384 . S
H792 C798 0.930 . S
H793 C802 0.930 . S
H794 C807 0.929 . S
H795 C805 0.929 . S
H796 C800 0.929 . S
H797 C806 0.929 . S
C798 H792 0.930 . S
C798 C799 1.367 . S
C798 C806 1.378 . S
C799 C798 1.367 . S
C799 C807 1.433 . S
C800 H796 0.929 . S
C800 C802 1.378 . S
C800 C804 1.350 . S
C801 C804 1.463 1_554 S
C801 C806 1.350 . S
C801 N809 1.427 . S
C802 H793 0.930 . S
C802 C800 1.378 . S
C802 C803 1.367 . S
C803 C802 1.367 . S
C803 C805 1.433 . S
C804 C800 1.350 . S
C804 C801 1.463 1_556 S
C804 N808 1.427 . S
C805 H795 0.929 . S
C805 C803 1.433 . S
C805 N808 1.384 . S
C806 H797 0.929 . S
C806 C798 1.378 . S
C806 C801 1.350 . S
C807 H794 0.929 . S
C807 C799 1.433 . S
C807 N809 1.384 . S
N808 C804 1.427 . S
N808 C805 1.384 . S
N809 C801 1.427 . S
N809 C807 1.384 . S
H810 C816 0.930 . S
H811 C820 0.930 . S
H812 C825 0.929 . S
H813 C823 0.929 . S
H814 C818 0.929 . S
H815 C824 0.929 . S
C816 H810 0.930 . S
C816 C817 1.367 . S
C816 C824 1.378 . S
C817 C816 1.367 . S
C817 C825 1.433 . S
C818 H814 0.929 . S
C818 C820 1.378 . S
C818 C822 1.350 . S
C819 C822 1.463 . S
C819 C824 1.350 . S
C819 N827 1.427 . S
C820 H811 0.930 . S
C820 C818 1.378 . S
C820 C821 1.367 . S
C821 C820 1.367 . S
C821 C823 1.433 . S
C822 C818 1.350 . S
C822 C819 1.463 . S
C822 N826 1.427 . S
C823 H813 0.929 . S
C823 C821 1.433 . S
C823 N826 1.384 . S
C824 H815 0.929 . S
C824 C816 1.378 . S
C824 C819 1.350 . S
C825 H812 0.929 . S
C825 C817 1.433 . S
C825 N827 1.384 . S
N826 C822 1.427 . S
N826 C823 1.384 . S
N827 C819 1.427 . S
N827 C825 1.384 . S
H828 C834 0.930 . S
H829 C838 0.930 . S
H830 C843 0.929 . S
H831 C841 0.929 . S
H832 C836 0.929 . S
H833 C842 0.929 . S
C834 H828 0.930 . S
C834 C835 1.367 . S
C834 C842 1.378 . S
C835 C834 1.367 . S
C835 C843 1.433 . S
C836 H832 0.929 . S
C836 C838 1.378 . S
C836 C840 1.350 . S
C837 C840 1.463 . S
C837 C842 1.350 . S
C837 N845 1.427 . S
C838 H829 0.930 . S
C838 C836 1.378 . S
C838 C839 1.367 . S
C839 C838 1.367 . S
C839 C841 1.433 . S
C840 C836 1.350 . S
C840 C837 1.463 . S
C840 N844 1.427 . S
C841 H831 0.929 . S
C841 C839 1.433 . S
C841 N844 1.384 . S
C842 H833 0.929 . S
C842 C834 1.378 . S
C842 C837 1.350 . S
C843 H830 0.929 . S
C843 C835 1.433 . S
C843 N845 1.384 . S
N844 C840 1.427 . S
N844 C841 1.384 . S
N845 C837 1.427 . S
N845 C843 1.384 . S
H846 C852 0.930 . S
H847 C856 0.930 . S
H848 C861 0.929 . S
H849 C859 0.929 . S
H850 C854 0.929 . S
H851 C860 0.929 . S
C852 H846 0.930 . S
C852 C853 1.367 . S
C852 C860 1.378 . S
C853 C852 1.367 . S
C853 C861 1.433 . S
C854 H850 0.929 . S
C854 C856 1.378 . S
C854 C858 1.350 . S
C855 C858 1.463 . S
C855 C860 1.350 . S
C855 N863 1.427 . S
C856 H847 0.930 . S
C856 C854 1.378 . S
C856 C857 1.367 . S
C857 C856 1.367 . S
C857 C859 1.433 . S
C858 C854 1.350 . S
C858 C855 1.463 . S
C858 N862 1.427 . S
C859 H849 0.929 . S
C859 C857 1.433 . S
C859 N862 1.384 . S
C860 H851 0.929 . S
C860 C852 1.378 . S
C860 C855 1.350 . S
C861 H848 0.929 . S
C861 C853 1.433 . S
C861 N863 1.384 . S
N862 C858 1.427 . S
N862 C859 1.384 . S
N863 C855 1.427 . S
N863 C861 1.384 . S
H864 C870 0.930 . S
H865 C874 0.930 . S
H866 C879 0.929 . S
H867 C877 0.929 . S
H868 C872 0.929 . S
H869 C878 0.929 . S
C870 H864 0.930 . S
C870 C871 1.367 . S
C870 C878 1.378 . S
C871 C870 1.367 . S
C871 C879 1.433 . S
C872 H868 0.929 . S
C872 C874 1.378 . S
C872 C876 1.350 . S
C873 C876 1.463 1_445 S
C873 C878 1.350 . S
C873 N881 1.422 1_545 S
C874 H865 0.930 . S
C874 C872 1.378 . S
C874 C875 1.367 . S
C875 C874 1.367 . S
C875 C877 1.433 . S
C876 C872 1.350 . S
C876 C873 1.463 1_665 S
C876 N880 1.422 1_565 S
C877 H867 0.929 . S
C877 C875 1.433 . S
C877 N880 1.375 1_565 S
C878 H869 0.929 . S
C878 C870 1.378 . S
C878 C873 1.350 . S
C879 H866 0.929 . S
C879 C871 1.433 . S
C879 N881 1.375 1_545 S
N880 C876 1.422 1_545 S
N880 C877 1.375 1_545 S
N881 C873 1.422 1_565 S
N881 C879 1.375 1_565 S
H882 C888 0.930 . S
H883 C892 0.930 . S
H884 C897 0.929 . S
H885 C895 0.929 . S
H886 C890 0.929 . S
H887 C896 0.929 . S
C888 H882 0.930 . S
C888 C889 1.367 . S
C888 C896 1.378 . S
C889 C888 1.367 . S
C889 C897 1.433 . S
C890 H886 0.929 . S
C890 C892 1.378 . S
C890 C894 1.350 . S
C891 C894 1.463 1_455 S
C891 C896 1.350 . S
C891 N899 1.427 . S
C892 H883 0.930 . S
C892 C890 1.378 . S
C892 C893 1.367 . S
C893 C892 1.367 . S
C893 C895 1.433 . S
C894 C890 1.350 . S
C894 C891 1.463 1_655 S
C894 N898 1.427 . S
C895 H885 0.929 . S
C895 C893 1.433 . S
C895 N898 1.384 . S
C896 H887 0.929 . S
C896 C888 1.378 . S
C896 C891 1.350 . S
C897 H884 0.929 . S
C897 C889 1.433 . S
C897 N899 1.384 . S
N898 C894 1.427 . S
N898 C895 1.384 . S
N899 C891 1.427 . S
N899 C897 1.384 . S
H900 C906 0.930 . S
H901 C910 0.930 . S
H902 C915 0.929 . S
H903 C913 0.929 . S
H904 C908 0.929 . S
H905 C914 0.929 . S
C906 H900 0.930 . S
C906 C907 1.367 . S
C906 C914 1.378 . S
C907 C906 1.367 . S
C907 C915 1.433 . S
C908 H904 0.929 . S
C908 C910 1.378 . S
C908 C912 1.350 . S
C909 C912 1.463 . S
C909 C914 1.350 . S
C909 N917 1.427 . S
C910 H901 0.930 . S
C910 C908 1.378 . S
C910 C911 1.367 . S
C911 C910 1.367 . S
C911 C913 1.433 . S
C912 C908 1.350 . S
C912 C909 1.463 . S
C912 N916 1.427 . S
C913 H903 0.929 . S
C913 C911 1.433 . S
C913 N916 1.384 . S
C914 H905 0.929 . S
C914 C906 1.378 . S
C914 C909 1.350 . S
C915 H902 0.929 . S
C915 C907 1.433 . S
C915 N917 1.384 . S
N916 C912 1.427 . S
N916 C913 1.384 . S
N917 C909 1.427 . S
N917 C915 1.384 . S
H918 C924 0.930 . S
H919 C928 0.930 . S
H920 C933 0.929 . S
H921 C931 0.929 . S
H922 C926 0.929 . S
H923 C932 0.929 . S
C924 H918 0.930 . S
C924 C925 1.367 . S
C924 C932 1.378 . S
C925 C924 1.367 . S
C925 C933 1.433 . S
C926 H922 0.929 . S
C926 C928 1.378 . S
C926 C930 1.350 . S
C927 C930 1.463 1_545 S
C927 C932 1.350 . S
C927 N935 1.427 . S
C928 H919 0.930 . S
C928 C926 1.378 . S
C928 C929 1.367 . S
C929 C928 1.367 . S
C929 C931 1.433 . S
C930 C926 1.350 . S
C930 C927 1.463 1_565 S
C930 N934 1.427 . S
C931 H921 0.929 . S
C931 C929 1.433 . S
C931 N934 1.384 . S
C932 H923 0.929 . S
C932 C924 1.378 . S
C932 C927 1.350 . S
C933 H920 0.929 . S
C933 C925 1.433 . S
C933 N935 1.384 . S
N934 C930 1.427 . S
N934 C931 1.384 . S
N935 C927 1.427 . S
N935 C933 1.384 . S
H936 C942 0.930 . S
H937 C946 0.930 . S
H938 C951 0.929 . S
H939 C949 0.929 . S
H940 C944 0.929 . S
H941 C950 0.929 . S
C942 H936 0.930 . S
C942 C943 1.367 . S
C942 C950 1.378 . S
C943 C942 1.367 . S
C943 C951 1.433 . S
C944 H940 0.929 . S
C944 C946 1.378 . S
C944 C948 1.350 . S
C945 C948 1.463 1_455 S
C945 C950 1.350 . S
C945 N953 1.427 . S
C946 H937 0.930 . S
C946 C944 1.378 . S
C946 C947 1.367 . S
C947 C946 1.367 . S
C947 C949 1.433 . S
C948 C944 1.350 . S
C948 C945 1.463 1_655 S
C948 N952 1.427 . S
C949 H939 0.929 . S
C949 C947 1.433 . S
C949 N952 1.384 . S
C950 H941 0.929 . S
C950 C942 1.378 . S
C950 C945 1.350 . S
C951 H938 0.929 . S
C951 C943 1.433 . S
C951 N953 1.384 . S
N952 C948 1.427 . S
N952 C949 1.384 . S
N953 C945 1.427 . S
N953 C951 1.384 . S
H954 C960 0.930 . S
H955 C964 0.930 . S
H956 C969 0.929 . S
H957 C967 0.929 . S
H958 C962 0.929 . S
H959 C968 0.929 . S
C960 H954 0.930 . S
C960 C961 1.367 . S
C960 C968 1.378 . S
C961 C960 1.367 . S
C961 C969 1.433 . S
C962 H958 0.929 . S
C962 C964 1.378 . S
C962 C966 1.350 . S
C963 C966 1.463 . S
C963 C968 1.350 . S
C963 N971 1.427 . S
C964 H955 0.930 . S
C964 C962 1.378 . S
C964 C965 1.367 . S
C965 C964 1.367 . S
C965 C967 1.433 . S
C966 C962 1.350 . S
C966 C963 1.463 . S
C966 N970 1.427 . S
C967 H957 0.929 . S
C967 C965 1.433 . S
C967 N970 1.384 . S
C968 H959 0.929 . S
C968 C960 1.378 . S
C968 C963 1.350 . S
C969 H956 0.929 . S
C969 C961 1.433 . S
C969 N971 1.384 . S
N970 C966 1.427 . S
N970 C967 1.384 . S
N971 C963 1.427 . S
N971 C969 1.384 . S
H972 C978 0.930 . S
H973 C982 0.930 . S
H974 C987 0.929 . S
H975 C985 0.929 . S
H976 C980 0.929 1_565 S
H977 C986 0.929 1_545 S
C978 H972 0.930 . S
C978 C979 1.367 . S
C978 C986 1.378 . S
C979 C978 1.367 . S
C979 C987 1.433 . S
C980 H976 0.929 1_545 S
C980 C982 1.378 . S
C980 C984 1.350 . S
C981 C984 1.463 1_565 S
C981 C986 1.350 . S
C981 N989 1.427 . S
C982 H973 0.930 . S
C982 C980 1.378 . S
C982 C983 1.367 . S
C983 C982 1.367 . S
C983 C985 1.433 . S
C984 C980 1.350 . S
C984 C981 1.463 1_545 S
C984 N988 1.427 . S
C985 H975 0.929 . S
C985 C983 1.433 . S
C985 N988 1.384 . S
C986 H977 0.929 1_565 S
C986 C978 1.378 . S
C986 C981 1.350 . S
C987 H974 0.929 . S
C987 C979 1.433 . S
C987 N989 1.384 . S
N988 C984 1.427 . S
N988 C985 1.384 . S
N989 C981 1.427 . S
N989 C987 1.384 . S
H990 C996 0.930 . S
H991 C1000 0.930 . S
H992 C1005 0.929 . S
H993 C1003 0.929 . S
H994 C998 0.929 . S
H995 C1004 0.929 . S
C996 H990 0.930 . S
C996 C997 1.367 . S
C996 C1004 1.378 . S
C997 C996 1.367 . S
C997 C1005 1.433 . S
C998 H994 0.929 . S
C998 C1000 1.378 . S
C998 C1002 1.350 . S
C999 C1002 1.463 1_445 S
C999 C1004 1.350 . S
C999 N1007 1.427 . S
C1000 H991 0.930 . S
C1000 C998 1.378 . S
C1000 C1001 1.367 . S
C1001 C1000 1.367 . S
C1001 C1003 1.433 . S
C1002 C998 1.350 . S
C1002 C999 1.463 1_665 S
C1002 N1006 1.427 . S
C1003 H993 0.929 . S
C1003 C1001 1.433 . S
C1003 N1006 1.384 . S
C1004 H995 0.929 . S
C1004 C996 1.378 . S
C1004 C999 1.350 . S
C1005 H992 0.929 . S
C1005 C997 1.433 . S
C1005 N1007 1.384 . S
N1006 C1002 1.427 . S
N1006 C1003 1.384 . S
N1007 C999 1.427 . S
N1007 C1005 1.384 . S
H1008 C1014 0.930 . S
H1009 C1018 0.930 . S
H1010 C1023 0.929 . S
H1011 C1021 0.929 . S
H1012 C1016 0.929 . S
H1013 C1022 0.929 . S
C1014 H1008 0.930 . S
C1014 C1015 1.367 . S
C1014 C1022 1.378 . S
C1015 C1014 1.367 . S
C1015 C1023 1.433 . S
C1016 H1012 0.929 . S
C1016 C1018 1.378 . S
C1016 C1020 1.350 . S
C1017 C1020 1.463 1_565 S
C1017 C1022 1.350 . S
C1017 N1025 1.427 . S
C1018 H1009 0.930 . S
C1018 C1016 1.378 . S
C1018 C1019 1.367 . S
C1019 C1018 1.367 . S
C1019 C1021 1.433 . S
C1020 C1016 1.350 . S
C1020 C1017 1.463 1_545 S
C1020 N1024 1.427 . S
C1021 H1011 0.929 . S
C1021 C1019 1.433 . S
C1021 N1024 1.384 . S
C1022 H1013 0.929 . S
C1022 C1014 1.378 . S
C1022 C1017 1.350 . S
C1023 H1010 0.929 . S
C1023 C1015 1.433 . S
C1023 N1025 1.384 . S
N1024 C1020 1.427 . S
N1024 C1021 1.384 . S
N1025 C1017 1.427 . S
N1025 C1023 1.384 . S
H1026 C1032 0.930 . S
H1027 C1036 0.930 . S
H1028 C1041 0.929 . S
H1029 C1039 0.929 . S
H1030 C1034 0.941 . S
H1031 C1040 0.941 . S
C1032 H1026 0.930 . S
C1032 C1033 1.367 . S
C1032 C1040 1.370 1_655 S
C1033 C1032 1.367 . S
C1033 C1041 1.433 . S
C1034 H1030 0.941 . S
C1034 C1036 1.370 1_655 S
C1034 C1038 1.346 1_655 S
C1035 C1038 1.463 1_665 S
C1035 C1040 1.346 1_655 S
C1035 N1043 1.427 . S
C1036 H1027 0.930 . S
C1036 C1034 1.370 1_455 S
C1036 C1037 1.367 . S
C1037 C1036 1.367 . S
C1037 C1039 1.433 . S
C1038 C1034 1.346 1_455 S
C1038 C1035 1.463 1_445 S
C1038 N1042 1.427 . S
C1039 H1029 0.929 . S
C1039 C1037 1.433 . S
C1039 N1042 1.384 . S
C1040 H1031 0.941 . S
C1040 C1032 1.370 1_455 S
C1040 C1035 1.346 1_455 S
C1041 H1028 0.929 . S
C1041 C1033 1.433 . S
C1041 N1043 1.384 . S
N1042 C1038 1.427 . S
N1042 C1039 1.384 . S
N1043 C1035 1.427 . S
N1043 C1041 1.384 . S
H1044 C1050 0.930 . S
H1045 C1054 0.930 . S
H1046 C1059 0.929 . S
H1047 C1057 0.929 . S
H1048 C1052 0.929 . S
H1049 C1058 0.929 . S
C1050 H1044 0.930 . S
C1050 C1051 1.367 . S
C1050 C1058 1.378 . S
C1051 C1050 1.367 . S
C1051 C1059 1.433 . S
C1052 H1048 0.929 . S
C1052 C1054 1.378 . S
C1052 C1056 1.350 . S
C1053 C1056 1.463 1_455 S
C1053 C1058 1.350 . S
C1053 N1061 1.427 . S
C1054 H1045 0.930 . S
C1054 C1052 1.378 . S
C1054 C1055 1.367 . S
C1055 C1054 1.367 . S
C1055 C1057 1.433 . S
C1056 C1052 1.350 . S
C1056 C1053 1.463 1_655 S
C1056 N1060 1.427 . S
C1057 H1047 0.929 . S
C1057 C1055 1.433 . S
C1057 N1060 1.384 . S
C1058 H1049 0.929 . S
C1058 C1050 1.378 . S
C1058 C1053 1.350 . S
C1059 H1046 0.929 . S
C1059 C1051 1.433 . S
C1059 N1061 1.384 . S
N1060 C1056 1.427 . S
N1060 C1057 1.384 . S
N1061 C1053 1.427 . S
N1061 C1059 1.384 . S
H1062 C1068 0.930 . S
H1063 C1072 0.930 . S
H1064 C1077 0.929 . S
H1065 C1075 0.929 . S
H1066 C1070 0.929 . S
H1067 C1076 0.929 . S
C1068 H1062 0.930 . S
C1068 C1069 1.367 . S
C1068 C1076 1.378 . S
C1069 C1068 1.367 . S
C1069 C1077 1.433 . S
C1070 H1066 0.929 . S
C1070 C1072 1.378 . S
C1070 C1074 1.350 . S
C1071 C1074 1.463 . S
C1071 C1076 1.350 . S
C1071 N1079 1.427 . S
C1072 H1063 0.930 . S
C1072 C1070 1.378 . S
C1072 C1073 1.367 . S
C1073 C1072 1.367 . S
C1073 C1075 1.433 . S
C1074 C1070 1.350 . S
C1074 C1071 1.463 . S
C1074 N1078 1.427 . S
C1075 H1065 0.929 . S
C1075 C1073 1.433 . S
C1075 N1078 1.384 . S
C1076 H1067 0.929 . S
C1076 C1068 1.378 . S
C1076 C1071 1.350 . S
C1077 H1064 0.929 . S
C1077 C1069 1.433 . S
C1077 N1079 1.384 . S
N1078 C1074 1.427 . S
N1078 C1075 1.384 . S
N1079 C1071 1.427 . S
N1079 C1077 1.384 . S
H1080 C1086 0.930 . S
H1081 C1090 0.930 . S
H1082 C1095 0.929 . S
H1083 C1093 0.929 . S
H1084 C1088 0.929 . S
H1085 C1094 0.929 . S
C1086 H1080 0.930 . S
C1086 C1087 1.367 . S
C1086 C1094 1.378 . S
C1087 C1086 1.367 . S
C1087 C1095 1.433 . S
C1088 H1084 0.929 . S
C1088 C1090 1.378 . S
C1088 C1092 1.350 . S
C1089 C1092 1.463 . S
C1089 C1094 1.350 . S
C1089 N1097 1.427 . S
C1090 H1081 0.930 . S
C1090 C1088 1.378 . S
C1090 C1091 1.367 . S
C1091 C1090 1.367 . S
C1091 C1093 1.433 . S
C1092 C1088 1.350 . S
C1092 C1089 1.463 . S
C1092 N1096 1.427 . S
C1093 H1083 0.929 . S
C1093 C1091 1.433 . S
C1093 N1096 1.384 . S
C1094 H1085 0.929 . S
C1094 C1086 1.378 . S
C1094 C1089 1.350 . S
C1095 H1082 0.929 . S
C1095 C1087 1.433 . S
C1095 N1097 1.384 . S
N1096 C1092 1.427 . S
N1096 C1093 1.384 . S
N1097 C1089 1.427 . S
N1097 C1095 1.384 . S
H1098 C1104 0.930 . S
H1099 C1108 0.930 . S
H1100 C1113 0.929 . S
H1101 C1111 0.929 . S
H1102 C1106 0.929 . S
H1103 C1112 0.929 . S
C1104 H1098 0.930 . S
C1104 C1105 1.367 . S
C1104 C1112 1.378 . S
C1105 C1104 1.367 . S
C1105 C1113 1.433 . S
C1106 H1102 0.929 . S
C1106 C1108 1.378 . S
C1106 C1110 1.350 . S
C1107 C1110 1.463 1_545 S
C1107 C1112 1.350 . S
C1107 N1115 1.427 . S
C1108 H1099 0.930 . S
C1108 C1106 1.378 . S
C1108 C1109 1.367 . S
C1109 C1108 1.367 . S
C1109 C1111 1.433 . S
C1110 C1106 1.350 . S
C1110 C1107 1.463 1_565 S
C1110 N1114 1.427 . S
C1111 H1101 0.929 . S
C1111 C1109 1.433 . S
C1111 N1114 1.384 . S
C1112 H1103 0.929 . S
C1112 C1104 1.378 . S
C1112 C1107 1.350 . S
C1113 H1100 0.929 . S
C1113 C1105 1.433 . S
C1113 N1115 1.384 . S
N1114 C1110 1.427 . S
N1114 C1111 1.384 . S
N1115 C1107 1.427 . S
N1115 C1113 1.384 . S
H1116 C1122 0.930 . S
H1117 C1126 0.930 . S
H1118 C1131 0.929 . S
H1119 C1129 0.929 . S
H1120 C1124 0.929 . S
H1121 C1130 0.929 . S
C1122 H1116 0.930 . S
C1122 C1123 1.367 . S
C1122 C1130 1.378 . S
C1123 C1122 1.367 . S
C1123 C1131 1.433 . S
C1124 H1120 0.929 . S
C1124 C1126 1.378 . S
C1124 C1128 1.350 . S
C1125 C1128 1.463 1_665 S
C1125 C1130 1.350 . S
C1125 N1133 1.427 . S
C1126 H1117 0.930 . S
C1126 C1124 1.378 . S
C1126 C1127 1.367 . S
C1127 C1126 1.367 . S
C1127 C1129 1.433 . S
C1128 C1124 1.350 . S
C1128 C1125 1.463 1_445 S
C1128 N1132 1.427 . S
C1129 H1119 0.929 . S
C1129 C1127 1.433 . S
C1129 N1132 1.384 . S
C1130 H1121 0.929 . S
C1130 C1122 1.378 . S
C1130 C1125 1.350 . S
C1131 H1118 0.929 . S
C1131 C1123 1.433 . S
C1131 N1133 1.384 . S
N1132 C1128 1.427 . S
N1132 C1129 1.384 . S
N1133 C1125 1.427 . S
N1133 C1131 1.384 . S
H1134 C1140 0.930 . S
H1135 C1144 0.930 . S
H1136 C1149 0.929 . S
H1137 C1147 0.929 . S
H1138 C1142 0.929 . S
H1139 C1148 0.929 . S
C1140 H1134 0.930 . S
C1140 C1141 1.367 . S
C1140 C1148 1.378 1_655 S
C1141 C1140 1.367 . S
C1141 C1149 1.433 . S
C1142 H1138 0.929 . S
C1142 C1144 1.378 1_655 S
C1142 C1146 1.350 1_655 S
C1143 C1146 1.463 1_655 S
C1143 C1148 1.350 1_655 S
C1143 N1151 1.427 . S
C1144 H1135 0.930 . S
C1144 C1142 1.378 1_455 S
C1144 C1145 1.367 . S
C1145 C1144 1.367 . S
C1145 C1147 1.433 . S
C1146 C1142 1.350 1_455 S
C1146 C1143 1.463 1_455 S
C1146 N1150 1.427 . S
C1147 H1137 0.929 . S
C1147 C1145 1.433 . S
C1147 N1150 1.384 . S
C1148 H1139 0.929 . S
C1148 C1140 1.378 1_455 S
C1148 C1143 1.350 1_455 S
C1149 H1136 0.929 . S
C1149 C1141 1.433 . S
C1149 N1151 1.384 . S
N1150 C1146 1.427 . S
N1150 C1147 1.384 . S
N1151 C1143 1.427 . S
N1151 C1149 1.384 . S
C583 C158 1.272 . S
C587 C14 1.278 . S
C601 C50 1.280 . S
C605 C194 1.268 . S
C619 C230 1.278 . S
C623 C86 1.268 . S
C637 C266 1.280 . S
C641 C122 1.268 . S
C655 C446 1.273 . S
C659 C302 1.277 . S
C673 C338 1.280 . S
C677 C482 1.268 . S
C691 C518 1.278 . S
C695 C374 1.268 . S
C709 C410 1.278 . S
C713 C554 1.268 . S
C727 C2 1.318 . S
C731 C542 1.329 . S
C745 C38 1.319 . S
C749 C434 1.324 . S
C763 C74 1.320 . S
C767 C470 1.330 . S
C781 C506 1.319 . S
C785 C110 1.329 . S
C799 C146 1.327 . S
C803 C326 1.318 . S
C817 C182 1.328 . S
C821 C362 1.318 . S
C835 C398 1.318 . S
C839 C218 1.327 . S
C853 C290 1.330 . S
C857 C254 1.320 . S
C871 C4 1.623 . S
C875 C364 1.622 . S
C889 C400 1.622 . S
C893 C40 1.624 . S
C907 C76 1.622 . S
C911 C292 1.623 . S
C925 C328 1.622 . S
C929 C112 1.623 . S
C943 C148 1.624 . S
C947 C508 1.622 . S
C961 C184 1.623 . S
C965 C544 1.622 . S
C979 C436 1.624 . S
C983 C220 1.623 . S
C997 C472 1.622 . S
C1001 C256 1.624 . S
C1015 C363 1.392 . S
C1019 C3 1.393 . S
C1033 C39 1.392 . S
C1037 C399 1.393 . S
C1051 C75 1.392 . S
C1055 C291 1.393 . S
C1069 C327 1.392 . S
C1073 C111 1.393 . S
C1087 C507 1.392 . S
C1091 C147 1.393 . S
C1105 C543 1.393 . S
C1109 C183 1.393 . S
C1123 C435 1.392 . S
C1127 C219 1.393 . S
C1141 C255 1.392 . S
C1145 C471 1.393 . S
