# Generated by pormake.
# Topology ukn, (4)-cn, num edge types: 1
# Building blocks:
#     Node 0, Type 0, BuildingBlock: QUQFOY_clean_sbu_3, # of connection points: 4
#     Node 1, Type 0, BuildingBlock: QUQFOY_clean_sbu_3, # of connection points: 4
#     Node 2, Type 0, BuildingBlock: QUQFOY_clean_sbu_3, # of connection points: 4
#     Node 3, Type 0, BuildingBlock: QUQFOY_clean_sbu_3, # of connection points: 4
#     Node 4, Type 0, BuildingBlock: QUQFOY_clean_sbu_3, # of connection points: 4
#     Node 5, Type 0, BuildingBlock: QUQFOY_clean_sbu_3, # of connection points: 4
#     Node 6, Type 0, BuildingBlock: QUQFOY_clean_sbu_3, # of connection points: 4
#     Node 7, Type 0, BuildingBlock: QUQFOY_clean_sbu_3, # of connection points: 4
#     Node 8, Type 0, BuildingBlock: QUQFOY_clean_sbu_3, # of connection points: 4
#     Node 9, Type 0, BuildingBlock: QUQFOY_clean_sbu_3, # of connection points: 4
#     Node 10, Type 0, BuildingBlock: QUQFOY_clean_sbu_3, # of connection points: 4
#     Node 11, Type 0, BuildingBlock: QUQFOY_clean_sbu_3, # of connection points: 4
#     Node 12, Type 0, BuildingBlock: QUQFOY_clean_sbu_3, # of connection points: 4
#     Node 13, Type 0, BuildingBlock: QUQFOY_clean_sbu_3, # of connection points: 4
#     Node 14, Type 0, BuildingBlock: QUQFOY_clean_sbu_3, # of connection points: 4
#     Node 15, Type 0, BuildingBlock: QUQFOY_clean_sbu_3, # of connection points: 4
#     Node 16, Type 0, BuildingBlock: QUQFOY_clean_sbu_3, # of connection points: 4
#     Node 17, Type 0, BuildingBlock: QUQFOY_clean_sbu_3, # of connection points: 4
#     Node 18, Type 0, BuildingBlock: QUQFOY_clean_sbu_3, # of connection points: 4
#     Node 19, Type 0, BuildingBlock: QUQFOY_clean_sbu_3, # of connection points: 4
#     Node 20, Type 0, BuildingBlock: QUQFOY_clean_sbu_3, # of connection points: 4
#     Node 21, Type 0, BuildingBlock: QUQFOY_clean_sbu_3, # of connection points: 4
#     Node 22, Type 0, BuildingBlock: QUQFOY_clean_sbu_3, # of connection points: 4
#     Node 23, Type 0, BuildingBlock: QUQFOY_clean_sbu_3, # of connection points: 4
#     Node 24, Type 0, BuildingBlock: QUQFOY_clean_sbu_3, # of connection points: 4
#     Node 25, Type 0, BuildingBlock: QUQFOY_clean_sbu_3, # of connection points: 4
#     Node 26, Type 0, BuildingBlock: QUQFOY_clean_sbu_3, # of connection points: 4
#     Node 27, Type 0, BuildingBlock: QUQFOY_clean_sbu_3, # of connection points: 4
#     Node 28, Type 0, BuildingBlock: QUQFOY_clean_sbu_3, # of connection points: 4
#     Node 29, Type 0, BuildingBlock: QUQFOY_clean_sbu_3, # of connection points: 4
#     Node 30, Type 0, BuildingBlock: QUQFOY_clean_sbu_3, # of connection points: 4
#     Node 31, Type 0, BuildingBlock: QUQFOY_clean_sbu_3, # of connection points: 4
#     Node 32, Type 0, BuildingBlock: QUQFOY_clean_sbu_3, # of connection points: 4
#     Node 33, Type 0, BuildingBlock: QUQFOY_clean_sbu_3, # of connection points: 4
#     Node 34, Type 0, BuildingBlock: QUQFOY_clean_sbu_3, # of connection points: 4
#     Node 35, Type 0, BuildingBlock: QUQFOY_clean_sbu_3, # of connection points: 4
#     Edge 36, Type (0, 0), BuildingBlock: OJICUG_clean_linker_0, # of connection points: 2
#     Edge 37, Type (0, 0), BuildingBlock: OJICUG_clean_linker_0, # of connection points: 2
#     Edge 38, Type (0, 0), BuildingBlock: OJICUG_clean_linker_0, # of connection points: 2
#     Edge 39, Type (0, 0), BuildingBlock: OJICUG_clean_linker_0, # of connection points: 2
#     Edge 40, Type (0, 0), BuildingBlock: OJICUG_clean_linker_0, # of connection points: 2
#     Edge 41, Type (0, 0), BuildingBlock: OJICUG_clean_linker_0, # of connection points: 2
#     Edge 42, Type (0, 0), BuildingBlock: OJICUG_clean_linker_0, # of connection points: 2
#     Edge 43, Type (0, 0), BuildingBlock: OJICUG_clean_linker_0, # of connection points: 2
#     Edge 44, Type (0, 0), BuildingBlock: OJICUG_clean_linker_0, # of connection points: 2
#     Edge 45, Type (0, 0), BuildingBlock: OJICUG_clean_linker_0, # of connection points: 2
#     Edge 46, Type (0, 0), BuildingBlock: OJICUG_clean_linker_0, # of connection points: 2
#     Edge 47, Type (0, 0), BuildingBlock: OJICUG_clean_linker_0, # of connection points: 2
#     Edge 48, Type (0, 0), BuildingBlock: OJICUG_clean_linker_0, # of connection points: 2
#     Edge 49, Type (0, 0), BuildingBlock: OJICUG_clean_linker_0, # of connection points: 2
#     Edge 50, Type (0, 0), BuildingBlock: OJICUG_clean_linker_0, # of connection points: 2
#     Edge 51, Type (0, 0), BuildingBlock: OJICUG_clean_linker_0, # of connection points: 2
#     Edge 52, Type (0, 0), BuildingBlock: OJICUG_clean_linker_0, # of connection points: 2
#     Edge 53, Type (0, 0), BuildingBlock: OJICUG_clean_linker_0, # of connection points: 2
#     Edge 54, Type (0, 0), BuildingBlock: OJICUG_clean_linker_0, # of connection points: 2
#     Edge 55, Type (0, 0), BuildingBlock: OJICUG_clean_linker_0, # of connection points: 2
#     Edge 56, Type (0, 0), BuildingBlock: OJICUG_clean_linker_0, # of connection points: 2
#     Edge 57, Type (0, 0), BuildingBlock: OJICUG_clean_linker_0, # of connection points: 2
#     Edge 58, Type (0, 0), BuildingBlock: OJICUG_clean_linker_0, # of connection points: 2
#     Edge 59, Type (0, 0), BuildingBlock: OJICUG_clean_linker_0, # of connection points: 2
#     Edge 60, Type (0, 0), BuildingBlock: OJICUG_clean_linker_0, # of connection points: 2
#     Edge 61, Type (0, 0), BuildingBlock: OJICUG_clean_linker_0, # of connection points: 2
#     Edge 62, Type (0, 0), BuildingBlock: OJICUG_clean_linker_0, # of connection points: 2
#     Edge 63, Type (0, 0), BuildingBlock: OJICUG_clean_linker_0, # of connection points: 2
#     Edge 64, Type (0, 0), BuildingBlock: OJICUG_clean_linker_0, # of connection points: 2
#     Edge 65, Type (0, 0), BuildingBlock: OJICUG_clean_linker_0, # of connection points: 2
#     Edge 66, Type (0, 0), BuildingBlock: OJICUG_clean_linker_0, # of connection points: 2
#     Edge 67, Type (0, 0), BuildingBlock: OJICUG_clean_linker_0, # of connection points: 2
#     Edge 68, Type (0, 0), BuildingBlock: OJICUG_clean_linker_0, # of connection points: 2
#     Edge 69, Type (0, 0), BuildingBlock: OJICUG_clean_linker_0, # of connection points: 2
#     Edge 70, Type (0, 0), BuildingBlock: OJICUG_clean_linker_0, # of connection points: 2
#     Edge 71, Type (0, 0), BuildingBlock: OJICUG_clean_linker_0, # of connection points: 2
#     Edge 72, Type (0, 0), BuildingBlock: OJICUG_clean_linker_0, # of connection points: 2
#     Edge 73, Type (0, 0), BuildingBlock: OJICUG_clean_linker_0, # of connection points: 2
#     Edge 74, Type (0, 0), BuildingBlock: OJICUG_clean_linker_0, # of connection points: 2
#     Edge 75, Type (0, 0), BuildingBlock: OJICUG_clean_linker_0, # of connection points: 2
#     Edge 76, Type (0, 0), BuildingBlock: OJICUG_clean_linker_0, # of connection points: 2
#     Edge 77, Type (0, 0), BuildingBlock: OJICUG_clean_linker_0, # of connection points: 2
#     Edge 78, Type (0, 0), BuildingBlock: OJICUG_clean_linker_0, # of connection points: 2
#     Edge 79, Type (0, 0), BuildingBlock: OJICUG_clean_linker_0, # of connection points: 2
#     Edge 80, Type (0, 0), BuildingBlock: OJICUG_clean_linker_0, # of connection points: 2
#     Edge 81, Type (0, 0), BuildingBlock: OJICUG_clean_linker_0, # of connection points: 2
#     Edge 82, Type (0, 0), BuildingBlock: OJICUG_clean_linker_0, # of connection points: 2
#     Edge 83, Type (0, 0), BuildingBlock: OJICUG_clean_linker_0, # of connection points: 2
#     Edge 84, Type (0, 0), BuildingBlock: OJICUG_clean_linker_0, # of connection points: 2
#     Edge 85, Type (0, 0), BuildingBlock: OJICUG_clean_linker_0, # of connection points: 2
#     Edge 86, Type (0, 0), BuildingBlock: OJICUG_clean_linker_0, # of connection points: 2
#     Edge 87, Type (0, 0), BuildingBlock: OJICUG_clean_linker_0, # of connection points: 2
#     Edge 88, Type (0, 0), BuildingBlock: OJICUG_clean_linker_0, # of connection points: 2
#     Edge 89, Type (0, 0), BuildingBlock: OJICUG_clean_linker_0, # of connection points: 2
#     Edge 90, Type (0, 0), BuildingBlock: OJICUG_clean_linker_0, # of connection points: 2
#     Edge 91, Type (0, 0), BuildingBlock: OJICUG_clean_linker_0, # of connection points: 2
#     Edge 92, Type (0, 0), BuildingBlock: OJICUG_clean_linker_0, # of connection points: 2
#     Edge 93, Type (0, 0), BuildingBlock: OJICUG_clean_linker_0, # of connection points: 2
#     Edge 94, Type (0, 0), BuildingBlock: OJICUG_clean_linker_0, # of connection points: 2
#     Edge 95, Type (0, 0), BuildingBlock: OJICUG_clean_linker_0, # of connection points: 2
#     Edge 96, Type (0, 0), BuildingBlock: OJICUG_clean_linker_0, # of connection points: 2
#     Edge 97, Type (0, 0), BuildingBlock: OJICUG_clean_linker_0, # of connection points: 2
#     Edge 98, Type (0, 0), BuildingBlock: OJICUG_clean_linker_0, # of connection points: 2
#     Edge 99, Type (0, 0), BuildingBlock: OJICUG_clean_linker_0, # of connection points: 2
#     Edge 100, Type (0, 0), BuildingBlock: OJICUG_clean_linker_0, # of connection points: 2
#     Edge 101, Type (0, 0), BuildingBlock: OJICUG_clean_linker_0, # of connection points: 2
#     Edge 102, Type (0, 0), BuildingBlock: OJICUG_clean_linker_0, # of connection points: 2
#     Edge 103, Type (0, 0), BuildingBlock: OJICUG_clean_linker_0, # of connection points: 2
#     Edge 104, Type (0, 0), BuildingBlock: OJICUG_clean_linker_0, # of connection points: 2
#     Edge 105, Type (0, 0), BuildingBlock: OJICUG_clean_linker_0, # of connection points: 2
#     Edge 106, Type (0, 0), BuildingBlock: OJICUG_clean_linker_0, # of connection points: 2
#     Edge 107, Type (0, 0), BuildingBlock: OJICUG_clean_linker_0, # of connection points: 2
# Relax obj value: 0.070
# Max RMSD: 0.095
# Mean RMSD: 0.095
data_MOF--net-ukn--node1-QUQFOY_clean_sbu_3--edge1-OJICUG_clean_linker_0
_symmetry_space_group_name_H-M    P1
_symmetry_Int_Tables_number       1
_symmetry_cell_setting            triclinic
loop_
_symmetry_equiv_pos_as_xyz
'x, y, z'
_cell_length_a     81.912839
_cell_length_b     81.441107
_cell_length_c     20.16133
_cell_angle_alpha  89.790804
_cell_angle_beta   89.949604
_cell_angle_gamma 120.16398
loop_
_atom_site_label
_atom_site_type_symbol
_atom_site_fract_x
_atom_site_fract_y
_atom_site_fract_z
_atom_type_partial_charge
C0 C 0.06272 0.31494 0.17499 0.0
O1 O 0.07209 0.32865 0.13532 0.0
Cd2 Cd 0.08069 0.32534 0.02738 0.0
O3 O 0.05584 0.29773 0.1559 0.0
Cd4 Cd 0.05367 0.28049 0.04901 0.0
C5 C 0.09943 0.29564 0.0618 0.0
O6 O 0.05231 0.30341 0.97588 0.0
O7 O 0.064 0.28731 0.93417 0.0
O8 O 0.01985 0.25907 0.06731 0.0
C9 C 0.0581 0.29882 0.92507 0.0
O10 O 0.10068 0.31131 0.04446 0.0
C11 C 0.0188 0.2457 0.03204 0.0
O12 O 0.08334 0.28088 0.07195 0.0
O13 O 0.03423 0.24761 0.01067 0.0
C14 C 0.65791 0.75233 0.17789 0.0
O15 O 0.64426 0.7478 0.13827 0.0
Cd16 Cd 0.64562 0.75249 0.02213 0.0
O17 O 0.67497 0.7602 0.15666 0.0
Cd18 Cd 0.69145 0.77016 0.04539 0.0
C19 C 0.67624 0.80143 0.02077 0.0
O20 O 0.66679 0.74256 -0.01024 0.0
O21 O 0.6871 0.76429 0.92582 0.0
O22 O 0.71374 0.75968 0.07631 0.0
C23 C 0.67284 0.74785 0.93151 0.0
O24 O 0.66028 0.78673 0.00943 0.0
C25 C 0.72699 0.77176 0.03952 0.0
O26 O 0.69028 0.7999 0.03984 0.0
O27 O 0.72456 0.78454 0.01316 0.0
C28 C 0.21994 0.9032 0.16917 0.0
O29 O 0.224 0.89364 0.12977 0.0
Cd30 Cd 0.21878 0.89008 0.01414 0.0
O31 O 0.21225 0.91257 0.14794 0.0
Cd32 Cd 0.20191 0.91879 0.03702 0.0
C33 C 0.17022 0.87217 0.01624 0.0
O34 O 0.22935 0.92155 -0.01861 0.0
O35 O 0.20789 0.92019 0.91724 0.0
O36 O 0.21221 0.9516 0.06895 0.0
C37 C 0.22427 0.92247 0.92314 0.0
O38 O 0.18465 0.87062 0.00403 0.0
C39 C 0.20068 0.95313 0.03089 0.0
O40 O 0.17207 0.888 0.03451 0.0
O41 O 0.18826 0.93808 0.00286 0.0
C42 C 0.30722 0.07791 0.7912 0.0
O43 O 0.32084 0.08746 0.83054 0.0
Cd44 Cd 0.31918 0.09101 0.9462 0.0
O45 O 0.29017 0.06855 0.81252 0.0
Cd46 Cd 0.27362 0.06232 0.92355 0.0
C47 C 0.28853 0.10894 0.94432 0.0
O48 O 0.29828 0.05955 0.97901 0.0
O49 O 0.2782 0.06093 0.04329 0.0
O50 O 0.25114 0.02951 0.89167 0.0
C51 C 0.29229 0.05864 0.0373 0.0
O52 O 0.30451 0.11049 0.95643 0.0
C53 C 0.23807 0.02798 0.9298 0.0
O54 O 0.27455 0.09311 0.92612 0.0
O55 O 0.24069 0.04303 0.95786 0.0
C56 C 0.89616 0.22899 0.78306 0.0
O57 O 0.88705 0.23353 0.82276 0.0
Cd58 Cd 0.88371 0.22884 0.93889 0.0
O59 O 0.90533 0.2211 0.80419 0.0
Cd60 Cd 0.91184 0.21111 0.9154 0.0
C61 C 0.86537 0.17989 0.94005 0.0
O62 O 0.91478 0.23872 0.97114 0.0
O63 O 0.91331 0.21695 0.03498 0.0
O64 O 0.94461 0.22158 0.88442 0.0
C65 C 0.91552 0.23341 0.02936 0.0
O66 O 0.86411 0.19459 0.95148 0.0
C67 C 0.94577 0.20948 0.92115 0.0
O68 O 0.88093 0.1814 0.92094 0.0
O69 O 0.93055 0.1967 0.94749 0.0
C70 C 0.73848 0.66617 0.78591 0.0
O71 O 0.7342 0.65247 0.82557 0.0
Cd72 Cd 0.74613 0.6558 0.93342 0.0
O73 O 0.74879 0.68338 0.80494 0.0
Cd74 Cd 0.76387 0.70061 0.91163 0.0
C75 C 0.79452 0.6855 0.89897 0.0
O76 O 0.73961 0.67777 -0.01498 0.0
O77 O 0.76735 0.69383 0.02679 0.0
O78 O 0.75151 0.72209 0.89342 0.0
C79 C 0.74994 0.68232 0.03588 0.0
O80 O 0.78012 0.66982 0.91633 0.0
C81 C 0.76381 0.73545 0.9287 0.0
O82 O 0.79318 0.70025 0.88877 0.0
O83 O 0.77731 0.73352 0.95005 0.0
C84 C 0.90186 0.66623 0.78588 0.0
O85 O 0.89249 0.65252 0.82557 0.0
Cd86 Cd 0.88386 0.65583 0.93348 0.0
O87 O 0.90874 0.68344 0.80496 0.0
Cd88 Cd 0.9109 0.70066 0.91174 0.0
C89 C 0.86514 0.68553 0.89908 0.0
O90 O 0.91229 0.67781 -0.01497 0.0
O91 O 0.90059 0.69387 0.02679 0.0
O92 O 0.94472 0.72211 0.89351 0.0
C93 C 0.90649 0.68234 0.03588 0.0
O94 O 0.86389 0.66986 0.9164 0.0
C95 C 0.94578 0.73548 0.9288 0.0
O96 O 0.88123 0.70029 0.88893 0.0
O97 O 0.93035 0.73357 0.95017 0.0
C98 C 0.30667 0.2289 0.78279 0.0
O99 O 0.32031 0.23343 0.8224 0.0
Cd100 Cd 0.31896 0.22874 0.93854 0.0
O101 O 0.28961 0.22102 0.80402 0.0
Cd102 Cd 0.27313 0.21105 0.9153 0.0
C103 C 0.28836 0.1798 0.93988 0.0
O104 O 0.29778 0.23865 0.97092 0.0
O105 O 0.27749 0.21692 0.03487 0.0
O106 O 0.25082 0.22151 0.88442 0.0
C107 C 0.29174 0.23337 0.02917 0.0
O108 O 0.30432 0.1945 0.95122 0.0
C109 C 0.23757 0.20943 0.92121 0.0
O110 O 0.27432 0.18132 0.92083 0.0
O111 O 0.24001 0.19665 0.94755 0.0
C112 C 0.74464 0.07806 0.79143 0.0
O113 O 0.74058 0.08762 0.83083 0.0
Cd114 Cd 0.7458 0.09117 0.94647 0.0
O115 O 0.75233 0.06869 0.81265 0.0
Cd116 Cd 0.76266 0.06246 0.92357 0.0
C117 C 0.79436 0.10907 0.94437 0.0
O118 O 0.73523 0.0597 0.9792 0.0
O119 O 0.75668 0.06105 0.04335 0.0
O120 O 0.75236 0.02965 0.89164 0.0
C121 C 0.74031 0.05878 0.03745 0.0
O122 O 0.77993 0.11063 0.95658 0.0
C123 C 0.7639 0.02812 0.92968 0.0
O124 O 0.79251 0.09324 0.92609 0.0
O125 O 0.77631 0.04316 0.9577 0.0
C126 C 0.65739 0.90332 0.16936 0.0
O127 O 0.64377 0.89377 0.13002 0.0
Cd128 Cd 0.64543 0.89021 0.01436 0.0
O129 O 0.67444 0.91268 0.14803 0.0
Cd130 Cd 0.69099 0.91891 0.037 0.0
C131 C 0.67609 0.87229 0.01626 0.0
O132 O 0.66632 0.92168 -0.01847 0.0
O133 O 0.68641 0.92029 0.91726 0.0
O134 O 0.71346 0.95172 0.06888 0.0
C135 C 0.67232 0.92258 0.92324 0.0
O136 O 0.66011 0.87074 0.00414 0.0
C137 C 0.72653 0.95326 0.03074 0.0
O138 O 0.69007 0.88812 0.03446 0.0
O139 O 0.72392 0.93821 0.00268 0.0
C140 C 0.06847 0.75225 0.17764 0.0
O141 O 0.07757 0.7477 0.13793 0.0
Cd142 Cd 0.08091 0.75239 0.0218 0.0
O143 O 0.05928 0.76013 0.15651 0.0
Cd144 Cd 0.05277 0.7701 0.0453 0.0
C145 C 0.09923 0.80134 0.02062 0.0
O146 O 0.04984 0.7425 -0.01045 0.0
O147 O 0.05129 0.76426 0.92572 0.0
O148 O 0.02 0.75962 0.0763 0.0
C149 C 0.0491 0.74781 0.93133 0.0
O150 O 0.10049 0.78664 0.00919 0.0
C151 C 0.01883 0.77171 0.03958 0.0
O152 O 0.08366 0.79983 0.03974 0.0
O153 O 0.03404 0.7845 0.01323 0.0
C154 C 0.22608 0.31497 0.17508 0.0
O155 O 0.23037 0.32868 0.13543 0.0
Cd156 Cd 0.21847 0.32537 0.02753 0.0
O157 O 0.21577 0.29776 0.15601 0.0
Cd158 Cd 0.20069 0.28052 0.04918 0.0
C159 C 0.17005 0.29566 0.06197 0.0
O160 O 0.22498 0.30345 0.97603 0.0
O161 O 0.19723 0.28734 0.93429 0.0
O162 O 0.21305 0.25906 0.06748 0.0
C163 C 0.21464 0.29885 0.92519 0.0
O164 O 0.18446 0.31134 0.0446 0.0
C165 C 0.20075 0.2457 0.03219 0.0
O166 O 0.17139 0.28091 0.07216 0.0
O167 O 0.18725 0.24763 0.01082 0.0
C168 C 0.72935 0.64809 0.50883 0.0
O169 O 0.73872 0.66181 0.46916 0.0
Cd170 Cd 0.74735 0.65852 0.36122 0.0
O171 O 0.72247 0.63088 0.48973 0.0
Cd172 Cd 0.72032 0.61367 0.38278 0.0
C173 C 0.76608 0.62881 0.39561 0.0
O174 O 0.71897 0.6366 0.30967 0.0
O175 O 0.73068 0.62051 0.26794 0.0
O176 O 0.6865 0.59223 0.40098 0.0
C177 C 0.72476 0.63202 0.25884 0.0
O178 O 0.76733 0.64449 0.37829 0.0
C179 C 0.68546 0.57887 0.36567 0.0
O180 O 0.74999 0.61404 0.40573 0.0
O181 O 0.7009 0.58079 0.34436 0.0
C182 C 0.32441 0.08559 0.51087 0.0
O183 O 0.31077 0.08105 0.47126 0.0
Cd184 Cd 0.31211 0.08573 0.35512 0.0
O185 O 0.34147 0.09347 0.48964 0.0
Cd186 Cd 0.35795 0.10344 0.37836 0.0
C187 C 0.3427 0.13468 0.35378 0.0
O188 O 0.3333 0.07583 0.32273 0.0
O189 O 0.3536 0.09757 0.25879 0.0
O190 O 0.38028 0.093 0.40923 0.0
C191 C 0.33935 0.08112 0.26449 0.0
O192 O 0.32674 0.11997 0.34244 0.0
C193 C 0.39352 0.1051 0.37245 0.0
O194 O 0.35674 0.13316 0.37283 0.0
O195 O 0.39107 0.11787 0.34613 0.0
C196 C 0.88657 0.23661 0.50284 0.0
O197 O 0.89063 0.22705 0.46344 0.0
Cd198 Cd 0.88542 0.22349 0.3478 0.0
O199 O 0.87888 0.24598 0.48161 0.0
Cd200 Cd 0.86855 0.25221 0.37068 0.0
C201 C 0.83686 0.2056 0.34989 0.0
O202 O 0.89599 0.25497 0.31505 0.0
O203 O 0.87453 0.25361 0.25091 0.0
O204 O 0.87887 0.28502 0.4026 0.0
C205 C 0.89091 0.25588 0.2568 0.0
O206 O 0.85128 0.20404 0.33769 0.0
C207 C 0.86734 0.28656 0.36454 0.0
O208 O 0.8387 0.22143 0.36816 0.0
O209 O 0.85492 0.27152 0.33652 0.0
C210 C 0.97399 0.41127 0.12472 0.0
O211 O -0.01238 0.42081 0.16405 0.0
Cd212 Cd -0.01403 0.42437 0.27972 0.0
O213 O 0.95694 0.40192 0.14604 0.0
Cd214 Cd 0.9404 0.39571 0.25707 0.0
C215 C 0.95535 0.44234 0.27783 0.0
O216 O 0.96505 0.39291 0.31254 0.0
O217 O 0.94497 0.39431 0.37681 0.0
O218 O 0.91788 0.3629 0.22523 0.0
C219 C 0.95905 0.392 0.37083 0.0
O220 O 0.97133 0.44388 0.28994 0.0
C221 C 0.90483 0.3614 0.26334 0.0
O222 O 0.94136 0.42651 0.25964 0.0
O223 O 0.90746 0.37646 0.29137 0.0
C224 C 0.56289 0.56221 0.11622 0.0
O225 O 0.55378 0.56676 0.15592 0.0
Cd226 Cd 0.55043 0.56206 0.27205 0.0
O227 O 0.57206 0.55432 0.13736 0.0
Cd228 Cd 0.57855 0.54433 0.24859 0.0
C229 C 0.53207 0.51311 0.27321 0.0
O230 O 0.5815 0.57194 0.30434 0.0
O231 O 0.57999 0.55016 0.36818 0.0
O232 O 0.61132 0.55478 0.21772 0.0
C233 C 0.58222 0.56662 0.36255 0.0
O234 O 0.53082 0.52782 0.28464 0.0
C235 C 0.61246 0.54268 0.25446 0.0
O236 O 0.54763 0.51461 0.2541 0.0
O237 O 0.59724 0.5299 0.28073 0.0
C238 C 0.40518 -0.00033 0.11858 0.0
O239 O 0.40089 0.98596 0.15823 0.0
Cd240 Cd 0.41281 0.98929 0.26611 0.0
O241 O 0.41548 0.01689 0.13765 0.0
Cd242 Cd 0.43056 0.03413 0.24446 0.0
C243 C 0.46122 0.01902 0.23162 0.0
O244 O 0.40628 0.01119 0.31763 0.0
O245 O 0.43404 0.02732 0.35934 0.0
O246 O 0.41815 0.05555 0.22618 0.0
C247 C 0.41663 0.0158 0.36845 0.0
O248 O 0.44682 0.00334 0.24899 0.0
C249 C 0.43044 0.06892 0.26147 0.0
O250 O 0.45987 0.03377 0.22145 0.0
O251 O 0.44395 0.06701 0.28283 0.0
C252 C 0.56861 -0.00018 0.1185 0.0
O253 O 0.55923 0.98611 0.15815 0.0
Cd254 Cd 0.55058 0.98939 0.26605 0.0
O255 O 0.57548 0.01704 0.1376 0.0
Cd256 Cd 0.57761 0.03422 0.24442 0.0
C257 C 0.53186 0.01908 0.23171 0.0
O258 O 0.57901 0.01136 0.31769 0.0
O259 O 0.56727 0.02738 0.35949 0.0
O260 O 0.61144 0.0557 0.22635 0.0
C261 C 0.57319 0.01588 0.36857 0.0
O262 O 0.5306 0.00341 0.249 0.0
C263 C 0.61247 0.06905 0.26171 0.0
O264 O 0.54794 0.03385 0.22161 0.0
O265 O 0.59703 0.06712 0.28301 0.0
C266 C 0.97347 0.56229 0.11625 0.0
O267 O -0.01288 0.56683 0.15586 0.0
Cd268 Cd -0.01422 0.56215 0.272 0.0
O269 O 0.95641 0.55441 0.13748 0.0
Cd270 Cd 0.93994 0.54443 0.24877 0.0
C271 C 0.9552 0.51321 0.27336 0.0
O272 O 0.96458 0.57205 0.30438 0.0
O273 O 0.94429 0.55031 0.36833 0.0
O274 O 0.9176 0.55486 0.21793 0.0
C275 C 0.95854 0.56676 0.36263 0.0
O276 O 0.97116 0.52791 0.2847 0.0
C277 C 0.90436 0.54276 0.2547 0.0
O278 O 0.94116 0.51472 0.25431 0.0
O279 O 0.90682 0.52999 0.28101 0.0
C280 C 0.41133 0.41133 0.12455 0.0
O281 O 0.40728 0.4209 0.16396 0.0
Cd282 Cd 0.41249 0.42445 0.2796 0.0
O283 O 0.41901 0.40195 0.14578 0.0
Cd284 Cd 0.42933 0.39571 0.2567 0.0
C285 C 0.46105 0.44231 0.27751 0.0
O286 O 0.40191 0.39297 0.31234 0.0
O287 O 0.42335 0.39431 0.37647 0.0
O288 O 0.41898 0.36289 0.22475 0.0
C289 C 0.40698 0.39205 0.37059 0.0
O290 O 0.44663 0.44388 0.28971 0.0
C291 C 0.43051 0.36134 0.26281 0.0
O292 O 0.45919 0.42648 0.25923 0.0
O293 O 0.44294 0.37638 0.29084 0.0
C294 C 0.32386 0.23658 0.50246 0.0
O295 O 0.31024 0.22704 0.46312 0.0
Cd296 Cd 0.3119 0.22348 0.34746 0.0
O297 O 0.34091 0.24594 0.48114 0.0
Cd298 Cd 0.35746 0.25216 0.37011 0.0
C299 C 0.34253 0.20554 0.34935 0.0
O300 O 0.3328 0.25495 0.31464 0.0
O301 O 0.35289 0.25356 0.25037 0.0
O302 O 0.37996 0.28496 0.40199 0.0
C303 C 0.3388 0.25585 0.25636 0.0
O304 O 0.32655 0.20399 0.33723 0.0
C305 C 0.39302 0.28648 0.36387 0.0
O306 O 0.35651 0.22136 0.36754 0.0
O307 O 0.39039 0.27143 0.33582 0.0
C308 C 0.73505 0.08569 0.51121 0.0
O309 O 0.74415 0.08114 0.47152 0.0
Cd310 Cd 0.7475 0.08583 0.35538 0.0
O311 O 0.72587 0.09358 0.49008 0.0
Cd312 Cd 0.71938 0.10356 0.37884 0.0
C313 C 0.76585 0.13478 0.35421 0.0
O314 O 0.71644 0.07595 0.3231 0.0
O315 O 0.71792 0.09773 0.25926 0.0
O316 O 0.6866 0.09311 0.4097 0.0
C317 C 0.7157 0.08126 0.26488 0.0
O318 O 0.7671 0.12008 0.34278 0.0
C319 C 0.68546 0.10521 0.37297 0.0
O320 O 0.75029 0.13327 0.37332 0.0
O321 O 0.70069 0.11799 0.34671 0.0
C322 C 0.89274 0.64817 0.50882 0.0
O323 O 0.89703 0.66187 0.46917 0.0
Cd324 Cd 0.88509 0.65851 0.36131 0.0
O325 O 0.88243 0.63095 0.48974 0.0
Cd326 Cd 0.86736 0.61372 0.38285 0.0
C327 C 0.8367 0.62884 0.39574 0.0
O328 O 0.89164 0.63664 0.30968 0.0
O329 O 0.86388 0.62055 0.26801 0.0
O330 O 0.87974 0.59228 0.40117 0.0
C331 C 0.88129 0.63205 0.25886 0.0
O332 O 0.8511 0.64452 0.37837 0.0
C333 C 0.86744 0.57892 0.36583 0.0
O334 O 0.83805 0.61409 0.40589 0.0
O335 O 0.85394 0.58085 0.34449 0.0
C336 C 0.39609 0.9816 0.84148 0.0
O337 O 0.40546 -0.00469 0.80181 0.0
Cd338 Cd 0.41408 -0.00799 0.69388 0.0
O339 O 0.38921 0.96438 0.82238 0.0
Cd340 Cd 0.38707 0.94716 0.7155 0.0
C341 C 0.43283 0.96232 0.72829 0.0
O342 O 0.3857 0.97008 0.64238 0.0
O343 O 0.3974 0.95399 0.60064 0.0
O344 O 0.35325 0.92571 0.73378 0.0
C345 C 0.39149 0.9655 0.59155 0.0
O346 O 0.43408 0.978 0.71096 0.0
C347 C 0.35221 0.91235 0.69847 0.0
O348 O 0.41675 0.94756 0.73844 0.0
O349 O 0.36764 0.91428 0.6771 0.0
C350 C -0.00882 0.41895 0.84438 0.0
O351 O 0.97753 0.41442 0.80477 0.0
Cd352 Cd 0.97888 0.4191 0.68862 0.0
O353 O 0.00824 0.42683 0.82315 0.0
Cd354 Cd 0.02472 0.43681 0.71187 0.0
C355 C 0.00946 0.46804 0.68727 0.0
O356 O 7e-05 0.4092 0.65626 0.0
O357 O 0.02037 0.43093 0.59231 0.0
O358 O 0.04704 0.42637 0.74275 0.0
C359 C 0.00611 0.41448 0.59801 0.0
O360 O -0.0065 0.45334 0.67593 0.0
C361 C 0.06029 0.43847 0.70598 0.0
O362 O 0.02351 0.46653 0.70632 0.0
O363 O 0.05783 0.45124 0.67965 0.0
C364 C 0.55331 0.56986 0.83601 0.0
O365 O 0.55736 0.56029 0.7966 0.0
Cd366 Cd 0.55214 0.55674 0.68097 0.0
O367 O 0.54563 0.57924 0.81479 0.0
Cd368 Cd 0.53531 0.58548 0.70388 0.0
C369 C 0.50359 0.53888 0.68306 0.0
O370 O 0.56273 0.58822 0.64824 0.0
O371 O 0.54129 0.58689 0.5841 0.0
O372 O 0.54565 0.6183 0.73583 0.0
C373 C 0.55766 0.58915 0.58999 0.0
O374 O 0.51801 0.53731 0.67085 0.0
C375 C 0.53412 0.61985 0.69778 0.0
O376 O 0.50545 0.55472 0.70134 0.0
O377 O 0.5217 0.60481 0.66974 0.0
C378 C 0.64071 0.74465 0.45821 0.0
O379 O 0.65433 0.7542 0.49755 0.0
Cd380 Cd 0.65267 0.75775 0.61321 0.0
O381 O 0.62366 0.73529 0.47954 0.0
Cd382 Cd 0.60711 0.72906 0.59056 0.0
C383 C 0.62202 0.77568 0.61131 0.0
O384 O 0.63177 0.72629 0.64603 0.0
O385 O 0.61169 0.72768 0.7103 0.0
O386 O 0.58463 0.69625 0.55867 0.0
C387 C 0.62578 0.72538 0.70432 0.0
O388 O 0.638 0.77723 0.62343 0.0
C389 C 0.57156 0.69472 0.5968 0.0
O390 O 0.60804 0.75985 0.59311 0.0
O391 O 0.57418 0.70977 0.62487 0.0
C392 C 0.22955 0.89559 0.44939 0.0
O393 O 0.22044 0.90013 0.48909 0.0
Cd394 Cd 0.2171 0.89544 0.60523 0.0
O395 O 0.23873 0.88771 0.47052 0.0
Cd396 Cd 0.24525 0.87774 0.58174 0.0
C397 C 0.19878 0.84649 0.60641 0.0
O398 O 0.24817 0.90533 0.63749 0.0
O399 O 0.24671 0.88357 0.70132 0.0
O400 O 0.27802 0.88822 0.55079 0.0
C401 C 0.24891 0.90003 0.6957 0.0
O402 O 0.19752 0.86119 0.61784 0.0
C403 C 0.27918 0.87612 0.58751 0.0
O404 O 0.21435 0.84801 0.58729 0.0
O405 O 0.26397 0.86334 0.61383 0.0
C406 C 0.07186 0.333 0.45208 0.0
O407 O 0.06757 0.3193 0.49172 0.0
Cd408 Cd 0.07951 0.32267 0.59959 0.0
O409 O 0.08217 0.35022 0.47115 0.0
Cd410 Cd 0.09725 0.36745 0.578 0.0
C411 C 0.1279 0.35232 0.56517 0.0
O412 O 0.07296 0.34455 0.65116 0.0
O413 O 0.10072 0.36064 0.69284 0.0
O414 O 0.08488 0.38891 0.55964 0.0
C415 C 0.08331 0.34914 0.70199 0.0
O416 O 0.1135 0.33664 0.58255 0.0
C417 C 0.09718 0.40226 0.59497 0.0
O418 O 0.12656 0.36707 0.55499 0.0
O419 O 0.11068 0.40033 0.61633 0.0
C420 C 0.23523 0.33304 0.45216 0.0
O421 O 0.22586 0.31934 0.49184 0.0
Cd422 Cd 0.21723 0.32265 0.59974 0.0
O423 O 0.24211 0.35026 0.47123 0.0
Cd424 Cd 0.24426 0.36746 0.57803 0.0
C425 C 0.19851 0.35234 0.56536 0.0
O426 O 0.24566 0.34461 0.65137 0.0
O427 O 0.23394 0.36066 0.69315 0.0
O428 O 0.2781 0.38892 0.55988 0.0
C429 C 0.23984 0.34915 0.70223 0.0
O430 O 0.19726 0.33667 0.58267 0.0
C431 C 0.27914 0.40228 0.59519 0.0
O432 O 0.2146 0.36711 0.55523 0.0
O433 O 0.26371 0.40037 0.6165 0.0
C434 C 0.64019 0.89564 0.44968 0.0
O435 O 0.65384 0.90017 0.4893 0.0
Cd436 Cd 0.65248 0.89549 0.60544 0.0
O437 O 0.62313 0.88777 0.47091 0.0
Cd438 Cd 0.60665 0.87781 0.58218 0.0
C439 C 0.62187 0.84655 0.60679 0.0
O440 O 0.63131 0.90541 0.6378 0.0
O441 O 0.611 0.88368 0.70174 0.0
O442 O 0.58435 0.88828 0.55122 0.0
C443 C 0.62526 0.90012 0.69605 0.0
O444 O 0.63783 0.86125 0.61813 0.0
C445 C 0.5711 0.8762 0.588 0.0
O446 O 0.60783 0.84807 0.58773 0.0
O447 O 0.57353 0.86343 0.61438 0.0
C448 C 0.07807 0.74464 0.45785 0.0
O449 O 0.07401 0.7542 0.49725 0.0
Cd450 Cd 0.07923 0.75776 0.61288 0.0
O451 O 0.08576 0.73527 0.47909 0.0
Cd452 Cd 0.0961 0.72905 0.59001 0.0
C453 C 0.12779 0.77566 0.61079 0.0
O454 O 0.06866 0.72629 0.64564 0.0
O455 O 0.09012 0.72765 0.70979 0.0
O456 O 0.08578 0.69624 0.55809 0.0
C457 C 0.07374 0.72537 0.70389 0.0
O458 O 0.11336 0.77722 0.62299 0.0
C459 C 0.09731 0.6947 0.59616 0.0
O460 O 0.12595 0.75983 0.59252 0.0
O461 O 0.10973 0.70974 0.62419 0.0
C462 C -0.00934 0.56997 0.83591 0.0
O463 O 0.97704 0.56043 0.79657 0.0
Cd464 Cd 0.97869 0.55687 0.68091 0.0
O465 O 0.00771 0.57932 0.81459 0.0
Cd466 Cd 0.02426 0.58554 0.70356 0.0
C467 C 0.00931 0.53891 0.6828 0.0
O468 O -0.00039 0.58834 0.6481 0.0
O469 O 0.01969 0.58694 0.58382 0.0
O470 O 0.04677 0.61834 0.73543 0.0
C471 C 0.0056 0.58924 0.58981 0.0
O472 O -0.00667 0.53737 0.67068 0.0
C473 C 0.05983 0.61985 0.69731 0.0
O474 O 0.0233 0.55474 0.70099 0.0
O475 O 0.05719 0.6048 0.66927 0.0
C476 C 0.40176 0.41898 0.84434 0.0
O477 O 0.41086 0.41443 0.80464 0.0
Cd478 Cd 0.41421 0.41913 0.68851 0.0
O479 O 0.39259 0.42687 0.8232 0.0
Cd480 Cd 0.38609 0.43686 0.71199 0.0
C481 C 0.43256 0.46809 0.68736 0.0
O482 O 0.38314 0.40925 0.65624 0.0
O483 O 0.38463 0.43103 0.5924 0.0
O484 O 0.35332 0.42641 0.74293 0.0
C485 C 0.38241 0.41456 0.59802 0.0
O486 O 0.43382 0.45338 0.67593 0.0
C487 C 0.35217 0.4385 0.70618 0.0
O488 O 0.417 0.46658 0.70647 0.0
O489 O 0.36739 0.45128 0.67986 0.0
C490 C 0.55951 0.98176 0.84141 0.0
O491 O 0.5638 -0.00454 0.80174 0.0
Cd492 Cd 0.55188 -0.00789 0.69385 0.0
O493 O 0.54921 0.96453 0.82236 0.0
Cd494 Cd 0.53413 0.94727 0.71556 0.0
C495 C 0.50347 0.96239 0.72837 0.0
O496 O 0.55841 0.9702 0.64235 0.0
O497 O 0.53065 0.95406 0.60066 0.0
O498 O 0.54653 0.92585 0.73394 0.0
C499 C 0.54805 0.96559 0.59154 0.0
O500 O 0.51787 0.97807 0.71097 0.0
C501 C 0.53423 0.91247 0.69869 0.0
O502 O 0.50482 0.94764 0.73857 0.0
O503 O 0.52073 0.91438 0.67729 0.0
C504 C 0.11725 0.27782 0.07251 0.0
C505 C 0.11716 0.29503 0.06844 0.0
H506 H 0.13413 0.26439 0.07371 0.0
C507 C 0.1345 0.31217 0.06728 0.0
H508 H 0.10411 0.26438 0.07363 0.0
C509 C 0.15147 0.31217 0.06733 0.0
C510 C 0.15171 0.29505 0.06854 0.0
H511 H 0.13505 0.32573 0.06506 0.0
H512 H 0.16447 0.32574 0.06514 0.0
C513 C 0.13442 0.27782 0.07256 0.0
C514 C 0.66308 0.82158 -0.01677 0.0
C515 C 0.67777 0.82029 0.01409 0.0
H516 H 0.65121 0.83885 0.95905 0.0
C517 C 0.69297 0.83682 0.04112 0.0
H518 H 0.65127 0.80924 0.96097 0.0
C519 C 0.69293 0.85405 0.03999 0.0
C520 C 0.6777 0.85499 0.01181 0.0
H521 H 0.70453 0.8363 0.06508 0.0
H522 H 0.70447 0.86643 0.06312 0.0
C523 C 0.66304 0.83864 -0.0179 0.0
C524 C 0.13255 0.82148 -0.01691 0.0
C525 C 0.11657 0.8202 0.01398 0.0
H526 H 0.16169 0.83873 0.95893 0.0
C527 C 0.11789 0.83673 0.04109 0.0
H528 H 0.13203 0.80914 0.96079 0.0
C529 C 0.13515 0.85395 0.04 0.0
C530 C 0.15132 0.85488 0.01179 0.0
H531 H 0.1058 0.83622 0.06507 0.0
H532 H 0.13598 0.86632 0.06318 0.0
C533 C 0.14964 0.83853 -0.01799 0.0
C534 C 0.30158 0.1426 0.97846 0.0
C535 C 0.28692 0.12625 0.94878 0.0
H536 H 0.31335 0.17199 -0.00041 0.0
C537 C 0.27168 0.12717 0.92064 0.0
H538 H 0.31342 0.14239 0.00148 0.0
C539 C 0.27164 0.14441 0.91953 0.0
C540 C 0.28684 0.16094 0.94654 0.0
H541 H 0.26014 0.1148 0.89754 0.0
H542 H 0.26007 0.14492 0.89561 0.0
C543 C 0.30154 0.15966 0.97736 0.0
C544 C 0.81495 0.14271 0.9786 0.0
C545 C 0.81326 0.12636 0.94884 0.0
H546 H 0.83256 0.1721 -0.00017 0.0
C547 C 0.82943 0.12728 0.92064 0.0
H548 H 0.8029 0.14251 0.00167 0.0
C549 C 0.8467 0.1445 0.91957 0.0
C550 C 0.84802 0.16103 0.94667 0.0
H551 H 0.8286 0.11491 0.89748 0.0
H552 H 0.85878 0.14501 0.89561 0.0
C553 C 0.83204 0.15976 0.97754 0.0
C554 C 0.8131 0.66899 0.8936 0.0
C555 C 0.81286 0.68612 0.89239 0.0
H556 H 0.82953 0.65544 0.89584 0.0
C557 C 0.83015 0.70334 0.88836 0.0
H558 H 0.8001 0.65542 0.89579 0.0
C559 C 0.84732 0.70335 0.88839 0.0
C560 C 0.84742 0.68613 0.89246 0.0
H561 H 0.83043 0.71678 0.8872 0.0
H562 H 0.86046 0.71679 0.88726 0.0
C563 C 0.83007 0.669 0.89363 0.0
C564 C 0.81812 0.64535 0.40117 0.0
C565 C 0.81836 0.62822 0.40232 0.0
H566 H 0.80169 0.6589 0.39898 0.0
C567 C 0.80107 0.611 0.40628 0.0
H568 H 0.83112 0.65892 0.39903 0.0
C569 C 0.7839 0.61099 0.40625 0.0
C570 C 0.7838 0.6282 0.40225 0.0
H571 H 0.80078 0.59756 0.40738 0.0
H572 H 0.77076 0.59755 0.40733 0.0
C573 C 0.80114 0.64534 0.40114 0.0
C574 C 0.3295 0.15481 0.31639 0.0
C575 C 0.34421 0.15353 0.34714 0.0
H576 H 0.31761 0.17207 0.29231 0.0
C577 C 0.35942 0.17007 0.37409 0.0
H578 H 0.31768 0.14247 0.29421 0.0
C579 C 0.35938 0.1873 0.37298 0.0
C580 C 0.34413 0.18823 0.3449 0.0
H581 H 0.37099 0.16956 0.39796 0.0
H582 H 0.37093 0.19968 0.39603 0.0
C583 C 0.32946 0.17187 0.31528 0.0
C584 C 0.80178 0.18739 0.37362 0.0
C585 C 0.81795 0.18831 0.34543 0.0
H586 H 0.77243 0.16966 0.39866 0.0
C587 C 0.81627 0.17196 0.31566 0.0
H588 H 0.80261 0.19976 0.39679 0.0
C589 C 0.79917 0.15491 0.31673 0.0
C590 C 0.78319 0.15364 0.3476 0.0
H591 H 0.82832 0.17216 0.2926 0.0
H592 H 0.79865 0.14257 0.29443 0.0
C593 C 0.78451 0.17017 0.37469 0.0
C594 C 0.96841 0.49307 0.31072 0.0
C595 C 0.95369 0.49435 0.28 0.0
H596 H 0.98029 0.47581 0.33477 0.0
C597 C 0.93847 0.47781 0.25309 0.0
H598 H 0.98023 0.50541 0.33286 0.0
C599 C 0.93851 0.46058 0.25422 0.0
C600 C 0.95376 0.45965 0.28226 0.0
H601 H 0.92689 0.47832 0.22926 0.0
H602 H 0.92695 0.4482 0.2312 0.0
C603 C 0.96844 0.47601 0.31183 0.0
C604 C 0.51339 0.47773 0.25269 0.0
C605 C 0.51473 0.49426 0.27982 0.0
H606 H 0.49528 0.44813 0.23057 0.0
C607 C 0.49875 0.49299 0.31071 0.0
H608 H 0.52547 0.47823 0.22871 0.0
C609 C 0.48165 0.47595 0.31178 0.0
C610 C 0.47996 0.4596 0.28198 0.0
H611 H 0.49928 0.50533 0.33304 0.0
H612 H 0.46961 0.47575 0.33486 0.0
C613 C 0.49612 0.46051 0.25377 0.0
C614 C 0.51403 0.03689 0.2211 0.0
C615 C 0.51413 0.01968 0.22508 0.0
H616 H 0.49713 0.05031 0.21997 0.0
C617 C 0.49679 0.00254 0.22617 0.0
H618 H 0.52716 0.05034 0.22003 0.0
C619 C 0.47981 0.00253 0.22613 0.0
C620 C 0.47957 0.01965 0.22501 0.0
H621 H 0.49625 0.98899 0.22833 0.0
H622 H 0.46682 0.98896 0.22826 0.0
C623 C 0.49685 0.03688 0.22106 0.0
C624 C 0.4679 0.97887 0.73377 0.0
C625 C 0.45056 0.96173 0.73492 0.0
H626 H 0.49788 -0.00755 0.73162 0.0
C627 C 0.45067 0.94452 0.73895 0.0
H628 H 0.46844 -0.00758 0.73157 0.0
C629 C 0.46784 0.94453 0.73898 0.0
C630 C 0.48513 0.96176 0.73498 0.0
H631 H 0.43753 0.93107 0.74006 0.0
H632 H 0.46756 0.9311 0.74011 0.0
C633 C 0.48488 0.97888 0.7338 0.0
C634 C -0.00377 0.50524 0.64877 0.0
C635 C 0.01091 0.5216 0.67836 0.0
H636 H -0.01556 0.47584 0.62772 0.0
C637 C 0.02616 0.52067 0.70643 0.0
H638 H -0.01562 0.50545 0.62581 0.0
C639 C 0.02619 0.50344 0.70755 0.0
C640 C 0.01097 0.4869 0.68063 0.0
H641 H 0.03771 0.53305 0.72946 0.0
H642 H 0.03777 0.50293 0.73141 0.0
C643 C -0.00374 0.48818 0.64988 0.0
C644 C 0.45124 0.50347 0.70788 0.0
C645 C 0.44991 0.48694 0.68074 0.0
H646 H 0.46935 0.53306 0.73001 0.0
C647 C 0.46589 0.4882 0.64984 0.0
H648 H 0.43916 0.50296 0.73186 0.0
C649 C 0.48298 0.50525 0.64878 0.0
C650 C 0.48468 0.5216 0.67858 0.0
H651 H 0.46536 0.47587 0.62751 0.0
H652 H 0.49503 0.50544 0.62569 0.0
C653 C 0.46852 0.52069 0.70681 0.0
C654 C 0.60514 0.81115 0.58646 0.0
C655 C 0.62034 0.82768 0.61347 0.0
H656 H 0.59364 0.78155 0.56448 0.0
C657 C 0.63504 0.8264 0.64431 0.0
H658 H 0.59358 0.81167 0.56252 0.0
C659 C 0.63507 0.80934 0.64544 0.0
C660 C 0.62041 0.79299 0.61576 0.0
H661 H 0.64685 0.83874 0.66655 0.0
H662 H 0.64691 0.80913 0.66848 0.0
C663 C 0.60518 0.79392 0.58759 0.0
C664 C 0.16286 0.79388 0.58701 0.0
C665 C 0.14669 0.79295 0.61525 0.0
H666 H 0.19221 0.81162 0.56193 0.0
C667 C 0.14838 0.8093 0.64504 0.0
H668 H 0.16203 0.78151 0.56382 0.0
C669 C 0.16547 0.82635 0.64396 0.0
C670 C 0.18145 0.82763 0.61305 0.0
H671 H 0.13633 0.80909 0.66814 0.0
H672 H 0.16598 0.83868 0.66628 0.0
C673 C 0.18013 0.8111 0.58593 0.0
C674 C 0.1807 0.37017 0.55468 0.0
C675 C 0.18079 0.35295 0.55873 0.0
H676 H 0.16382 0.3836 0.55349 0.0
C677 C 0.16345 0.33582 0.55987 0.0
H678 H 0.19384 0.38361 0.55357 0.0
C679 C 0.14648 0.33581 0.55981 0.0
C680 C 0.14624 0.35294 0.55861 0.0
H681 H 0.1629 0.32226 0.56207 0.0
H682 H 0.13348 0.32224 0.56198 0.0
C683 C 0.16353 0.37016 0.55462 0.0
C684 C -0.00161 0.2305 0.93443 0.0
C685 C 0.00054 0.23147 0.00377 0.0
H686 H 0.97901 0.22286 0.85307 0.0
C687 C -0.01551 0.22203 0.04418 0.0
H688 H 0.0106 0.23799 0.90231 0.0
C689 C 0.96648 0.2127 0.01583 0.0
C690 C 0.96426 0.21345 0.94684 0.0
H691 H -0.01418 0.22283 0.0977 0.0
H692 H 0.95429 0.20656 0.04844 0.0
C693 C 0.98036 0.22189 0.90619 0.0
C694 C 0.75859 0.75071 0.02627 0.0
C695 C 0.75978 0.74971 0.95694 0.0
H696 H 0.74684 0.75838 0.10762 0.0
C697 C 0.75318 0.75914 0.91651 0.0
H698 H 0.7633 0.74322 0.05842 0.0
C699 C 0.7445 0.76849 0.94484 0.0
C700 C 0.74152 0.76777 0.01383 0.0
H701 H 0.75371 0.75832 0.86299 0.0
H702 H 0.73845 0.77462 0.91221 0.0
C703 C 0.74916 0.75933 0.0545 0.0
C704 C 0.21219 0.98758 0.04914 0.0
C705 C 0.20492 0.97195 0.0064 0.0
H706 H 0.22763 0.01788 0.05735 0.0
C707 C 0.20557 0.97506 0.93747 0.0
H708 H 0.21205 0.98554 0.10232 0.0
C709 C 0.21517 -0.00647 0.91159 0.0
C710 C 0.2235 0.00916 0.95433 0.0
H711 H 0.20033 0.96323 0.90339 0.0
H712 H 0.21706 -0.00443 0.85841 0.0
C713 C 0.22105 0.00605 0.02326 0.0
C714 C 0.98009 0.75915 0.91661 0.0
C715 C 0.96404 0.74971 0.95706 0.0
H716 H 0.01028 0.77462 0.91229 0.0
C717 C 0.9662 0.75069 0.02639 0.0
H718 H 0.97875 0.75835 0.8631 0.0
C719 C -0.01576 0.7593 0.05459 0.0
C720 C 0.00033 0.76774 0.01391 0.0
H721 H 0.954 0.7432 0.05854 0.0
H722 H -0.01441 0.75833 0.10771 0.0
C723 C -0.0019 0.76848 0.94494 0.0
C724 C 0.21539 0.22184 0.90632 0.0
C725 C 0.22305 0.21341 0.94695 0.0
H726 H 0.20125 0.23795 0.90244 0.0
C727 C 0.22007 0.21268 0.01594 0.0
H728 H 0.21771 0.2228 0.85319 0.0
C729 C 0.21139 0.22202 0.04432 0.0
C730 C 0.20478 0.23146 0.00391 0.0
H731 H 0.22611 0.20654 0.04854 0.0
H732 H 0.21085 0.22283 0.09783 0.0
C733 C 0.20596 0.23046 0.93457 0.0
C734 C 0.75901 0.00618 0.02307 0.0
C735 C 0.75966 0.00929 0.95415 0.0
H736 H 0.74754 0.98567 0.10214 0.0
C737 C 0.75238 -0.00633 0.91141 0.0
H738 H 0.76426 0.01801 0.05715 0.0
C739 C 0.74353 0.97519 0.93729 0.0
C740 C 0.74109 0.97209 0.00622 0.0
H741 H 0.75252 -0.0043 0.85823 0.0
H742 H 0.73695 0.96337 0.9032 0.0
C743 C 0.74943 0.98771 0.04895 0.0
C744 C 0.63315 0.54588 0.34922 0.0
C745 C 0.63095 0.54664 0.28023 0.0
H746 H 0.65245 0.55599 0.43118 0.0
C747 C 0.64706 0.55509 0.23965 0.0
H748 H 0.62094 0.53974 0.38177 0.0
C749 C 0.66508 0.56368 0.26797 0.0
C750 C 0.66721 0.56464 0.33732 0.0
H751 H 0.64573 0.55607 0.18653 0.0
H752 H 0.6773 0.57118 0.23589 0.0
C753 C 0.65114 0.5552 0.37766 0.0
C754 C 0.42518 0.08412 0.35909 0.0
C755 C 0.42638 0.08315 0.28976 0.0
H756 H 0.4134 0.09175 0.44049 0.0
C757 C 0.41976 0.09257 0.24936 0.0
H758 H 0.42991 0.07664 0.3912 0.0
C759 C 0.41106 0.10189 0.27774 0.0
C760 C 0.40807 0.10115 0.34673 0.0
H761 H 0.42031 0.09177 0.19585 0.0
H762 H 0.405 0.10802 0.24514 0.0
C763 C 0.41573 0.09272 0.38736 0.0
C764 C 0.87227 0.30849 0.27109 0.0
C765 C 0.8716 0.30539 0.34002 0.0
H766 H 0.88378 0.32898 0.19199 0.0
C767 C 0.87889 0.32102 0.38273 0.0
H768 H 0.86701 0.29665 0.23703 0.0
C769 C 0.88778 0.33949 0.35681 0.0
C770 C 0.89023 0.34259 0.28788 0.0
H771 H 0.87875 0.31899 0.43591 0.0
H772 H 0.89436 0.35132 0.39088 0.0
C773 C 0.88188 0.32696 0.24517 0.0
C774 C 0.66479 0.10203 0.27821 0.0
C775 C 0.66698 0.10126 0.3472 0.0
H776 H 0.64549 0.09193 0.19623 0.0
C777 C 0.65087 0.09281 0.38776 0.0
H778 H 0.67699 0.10817 0.24566 0.0
C779 C 0.63285 0.08422 0.35944 0.0
C780 C 0.63072 0.08327 0.29009 0.0
H781 H 0.65219 0.09182 0.44089 0.0
H782 H 0.62063 0.07672 0.3915 0.0
C783 C 0.6468 0.09272 0.24976 0.0
C784 C 0.87811 0.55526 0.37785 0.0
C785 C 0.87149 0.56469 0.33748 0.0
H786 H 0.89287 0.53981 0.38203 0.0
C787 C 0.87269 0.56372 0.26814 0.0
H788 H 0.87757 0.55605 0.43137 0.0
C789 C 0.88214 0.55513 0.23985 0.0
C790 C 0.88981 0.5467 0.28046 0.0
H791 H 0.86796 0.5712 0.23605 0.0
H792 H 0.88447 0.55611 0.18672 0.0
C793 C 0.88681 0.54594 0.34944 0.0
C794 C 0.42557 0.3394 0.35621 0.0
C795 C 0.42624 0.34251 0.28729 0.0
H796 H 0.41406 0.31889 0.43528 0.0
C797 C 0.41895 0.32688 0.24455 0.0
H798 H 0.43083 0.35123 0.3903 0.0
C799 C 0.41006 0.30841 0.27043 0.0
C800 C 0.40761 0.3053 0.33936 0.0
H801 H 0.4191 0.32892 0.19137 0.0
H802 H 0.40348 0.29658 0.23634 0.0
C803 C 0.41596 0.32093 0.3821 0.0
C804 C 0.2999 0.87935 0.6822 0.0
C805 C 0.29768 0.8801 0.61322 0.0
H806 H 0.31922 0.88947 0.76409 0.0
C807 C 0.31378 0.88855 0.57258 0.0
H808 H 0.2877 0.8732 0.71479 0.0
C809 C 0.33181 0.89716 0.60084 0.0
C810 C 0.33396 0.89812 0.67017 0.0
H811 H 0.31244 0.88952 0.51946 0.0
H812 H 0.34402 0.90465 0.56872 0.0
C813 C 0.3179 0.88868 0.71057 0.0
C814 C 0.07782 0.43526 0.61127 0.0
C815 C 0.07484 0.43452 0.68025 0.0
H816 H 0.08706 0.42513 0.52936 0.0
C817 C 0.0825 0.42608 0.72088 0.0
H818 H 0.07177 0.44139 0.57867 0.0
C819 C 0.09195 0.41748 0.69261 0.0
C820 C 0.09314 0.4165 0.62327 0.0
H821 H 0.08017 0.42512 0.77401 0.0
H822 H 0.09666 0.41 0.72473 0.0
C823 C 0.08652 0.42594 0.58288 0.0
C824 C 0.54567 0.6543 0.71609 0.0
C825 C 0.53838 0.63868 0.67332 0.0
H826 H 0.56112 0.6846 0.72434 0.0
C827 C 0.53904 0.6418 0.6044 0.0
H828 H 0.54552 0.65226 0.76926 0.0
C829 C 0.54865 0.66028 0.57855 0.0
C830 C 0.55699 0.67589 0.62131 0.0
H831 H 0.53379 0.62998 0.5703 0.0
H832 H 0.55054 0.66232 0.52537 0.0
C833 C 0.55454 0.67278 0.69023 0.0
C834 C 0.31758 0.42609 0.72109 0.0
C835 C 0.33368 0.43453 0.68045 0.0
H836 H 0.28734 0.41 0.72496 0.0
C837 C 0.33146 0.43528 0.61147 0.0
H838 H 0.31892 0.42512 0.77421 0.0
C839 C 0.31346 0.42595 0.58309 0.0
C840 C 0.2974 0.41651 0.6235 0.0
H841 H 0.34366 0.44142 0.57887 0.0
H842 H 0.31213 0.42515 0.52957 0.0
C843 C 0.29955 0.41749 0.69283 0.0
C844 C 0.55358 0.87946 0.68265 0.0
C845 C 0.55657 0.88018 0.61367 0.0
H846 H 0.54435 0.88963 0.76447 0.0
C847 C 0.54891 0.88861 0.57297 0.0
H848 H 0.55963 0.87333 0.71529 0.0
C849 C 0.53948 0.89723 0.60116 0.0
C850 C 0.53828 0.89823 0.67049 0.0
H851 H 0.55124 0.88956 0.51985 0.0
H852 H 0.53477 0.90471 0.569 0.0
C853 C 0.54489 0.8888 0.71096 0.0
C854 C 0.08277 0.65429 0.7155 0.0
C855 C 0.07442 0.63867 0.67277 0.0
H856 H 0.09763 0.68459 0.72368 0.0
C857 C 0.07687 0.64177 0.60384 0.0
H858 H 0.08087 0.65226 0.76868 0.0
C859 C 0.08576 0.66024 0.57794 0.0
C860 C 0.09305 0.67587 0.62067 0.0
H861 H 0.07029 0.62994 0.56977 0.0
H862 H 0.08591 0.66227 0.52476 0.0
C863 C 0.09238 0.67276 0.6896 0.0
C864 C 0.05881 0.33023 0.78653 0.0
C865 C 0.07693 0.33682 0.76041 0.0
H866 H 0.03868 0.31301 0.86112 0.0
C867 C 0.08856 0.33047 0.78747 0.0
H868 H 0.04963 0.33491 0.76569 0.0
C869 C 0.08207 0.31751 0.8397 0.0
C870 C 0.06408 0.31115 0.86667 0.0
H871 H 0.10249 0.33518 0.76722 0.0
H872 H 0.09131 0.31281 0.86003 0.0
C873 C 0.05253 0.3177 0.84042 0.0
C874 C 0.64115 0.7281 0.88118 0.0
C875 C 0.66086 0.73859 0.87387 0.0
H876 H 0.61442 0.71581 0.83206 0.0
C877 C 0.66887 0.74221 0.81022 0.0
H878 H 0.63464 0.72508 0.92986 0.0
C879 C 0.65731 0.73652 0.75444 0.0
C880 C 0.63762 0.72759 0.76182 0.0
H881 H 0.68406 0.75016 0.8036 0.0
H882 H 0.66383 0.74027 0.7058 0.0
C883 C 0.62959 0.72285 0.82542 0.0
C884 C 0.24467 0.91133 0.87285 0.0
C885 C 0.23391 0.92027 0.86557 0.0
H886 H 0.25778 0.89768 0.82356 0.0
C887 C 0.23064 0.92503 0.80202 0.0
H888 H 0.24743 0.90757 0.92146 0.0
C889 C 0.23696 0.91978 0.74619 0.0
C890 C 0.24617 0.90928 0.75341 0.0
H891 H 0.2225 0.93207 0.79546 0.0
H892 H 0.23347 0.92281 0.69755 0.0
C893 C 0.25055 0.90565 0.81701 0.0
C894 C 0.32382 0.06979 0.08742 0.0
C895 C 0.30414 0.06085 0.0948 0.0
H896 H 0.35057 0.08344 0.13657 0.0
C897 C 0.2961 0.0561 0.15839 0.0
H898 H 0.33034 0.07354 0.03877 0.0
C899 C 0.30766 0.06136 0.21416 0.0
C900 C 0.32737 0.07186 0.20685 0.0
H901 H 0.28093 0.04906 0.16504 0.0
H902 H 0.30115 0.05834 0.26283 0.0
C903 C 0.33538 0.07548 0.14319 0.0
C904 C 0.89727 0.25844 0.13568 0.0
C905 C 0.90055 0.25367 0.19923 0.0
H906 H 0.9001 0.25621 0.03122 0.0
C907 C 0.91129 0.24472 0.20651 0.0
H908 H 0.88915 0.26549 0.12913 0.0
C909 C 0.91717 0.23904 0.15067 0.0
C910 C 0.91279 0.24267 0.08706 0.0
H911 H 0.91405 0.24096 0.25512 0.0
H912 H 0.92439 0.23106 0.15721 0.0
C913 C 0.90358 0.25318 0.07985 0.0
C914 C 0.74874 0.65072 0.17353 0.0
C915 C 0.73074 0.64435 0.20048 0.0
H916 H 0.76915 0.66838 0.10105 0.0
C917 C 0.71919 0.6509 0.17424 0.0
H918 H 0.75797 0.64604 0.19385 0.0
C919 C 0.72545 0.66341 0.12034 0.0
C920 C 0.74356 0.66998 0.0942 0.0
H921 H 0.70531 0.6462 0.195 0.0
H922 H 0.71626 0.66809 0.0995 0.0
C923 C 0.75521 0.66367 0.12127 0.0
C924 C 0.88252 0.66367 0.12118 0.0
C925 C 0.9005 0.67002 0.09419 0.0
H926 H 0.8621 0.64602 0.19369 0.0
C927 C 0.91206 0.66347 0.12043 0.0
H928 H 0.87331 0.66837 0.10089 0.0
C929 C 0.90579 0.65096 0.17432 0.0
C930 C 0.88766 0.64437 0.20046 0.0
H931 H 0.92593 0.66817 0.09965 0.0
H932 H 0.91497 0.64629 0.19515 0.0
C933 C 0.87604 0.65073 0.17342 0.0
C934 C 0.2957 0.23902 0.15046 0.0
C935 C 0.30371 0.24263 0.08681 0.0
H936 H 0.30074 0.24096 0.25488 0.0
C937 C 0.32343 0.25313 0.0795 0.0
H938 H 0.28052 0.23106 0.15708 0.0
C939 C 0.33498 0.25839 0.13526 0.0
C940 C 0.32695 0.25364 0.19886 0.0
H941 H 0.32994 0.25615 0.03082 0.0
H942 H 0.35016 0.26543 0.12862 0.0
C943 C 0.30727 0.24471 0.20623 0.0
C944 C 0.73394 0.05623 0.15857 0.0
C945 C 0.73067 0.06099 0.09502 0.0
H946 H 0.73111 0.05846 0.26304 0.0
C947 C 0.71992 0.06994 0.08774 0.0
H948 H 0.74207 0.04918 0.16513 0.0
C949 C 0.71405 0.07564 0.14357 0.0
C950 C 0.71843 0.072 0.20718 0.0
H951 H 0.71717 0.07371 0.03913 0.0
H952 H 0.70683 0.08361 0.13703 0.0
C953 C 0.72763 0.06148 0.2144 0.0
C954 C 0.62923 0.90576 0.81734 0.0
C955 C 0.63723 0.90938 0.75369 0.0
H956 H 0.63426 0.90769 0.92177 0.0
C957 C 0.65695 0.91987 0.74638 0.0
H958 H 0.61404 0.89781 0.82396 0.0
C959 C 0.66851 0.92512 0.80215 0.0
C960 C 0.66047 0.92038 0.86574 0.0
H961 H 0.66346 0.92289 0.69771 0.0
H962 H 0.68368 0.93216 0.79551 0.0
C963 C 0.64079 0.91145 0.87312 0.0
C964 C 0.05334 0.73651 0.75419 0.0
C965 C 0.06409 0.72757 0.76146 0.0
H966 H 0.04022 0.75015 0.80348 0.0
C967 C 0.06737 0.72281 0.82501 0.0
H968 H 0.05058 0.74027 0.70557 0.0
C969 C 0.06105 0.72805 0.88084 0.0
C970 C 0.05183 0.73856 0.87363 0.0
H971 H 0.0755 0.71577 0.83157 0.0
H972 H 0.06453 0.72502 0.92948 0.0
C973 C 0.04745 0.74219 0.81002 0.0
C974 C 0.20938 0.31751 0.83972 0.0
C975 C 0.22101 0.31117 0.86679 0.0
H976 H 0.20664 0.33514 0.76716 0.0
C977 C 0.23913 0.31774 0.84065 0.0
H978 H 0.19543 0.3128 0.85996 0.0
C979 C 0.2454 0.33025 0.78675 0.0
C980 C 0.23385 0.3368 0.76051 0.0
H981 H 0.24831 0.31306 0.86149 0.0
H982 H 0.25928 0.33495 0.766 0.0
C983 C 0.21586 0.33045 0.78746 0.0
C984 C 0.00215 0.40883 0.47672 0.0
C985 C -0.00586 0.40522 0.54037 0.0
H986 H -0.00289 0.40689 0.3723 0.0
C987 C 0.97442 0.39472 0.54768 0.0
H988 H 0.01734 0.41679 0.4701 0.0
C989 C 0.96287 0.38946 0.49192 0.0
C990 C 0.9709 0.39421 0.42832 0.0
H991 H 0.96791 0.3917 0.59636 0.0
H992 H 0.94769 0.38243 0.49856 0.0
C993 C -0.00941 0.40314 0.42095 0.0
C994 C 0.57031 0.58642 0.41304 0.0
C995 C 0.57951 0.57589 0.42025 0.0
H996 H 0.5559 0.59875 0.4623 0.0
C997 C 0.58388 0.57225 0.48386 0.0
H998 H 0.56684 0.58945 0.3644 0.0
C999 C 0.57802 0.57796 0.5397 0.0
C1000 C 0.56729 0.58692 0.53242 0.0
H1001 H 0.59109 0.56427 0.4904 0.0
H1002 H 0.58077 0.57419 0.58831 0.0
C1003 C 0.56402 0.59168 0.46886 0.0
C1004 C 0.41544 0.9842 0.50615 0.0
C1005 C 0.39745 0.97783 0.53316 0.0
H1006 H 0.43585 0.00187 0.43365 0.0
C1007 C 0.3859 0.98437 0.50694 0.0
H1008 H 0.42466 0.97951 0.52641 0.0
C1009 C 0.39215 -0.00311 0.45305 0.0
C1010 C 0.41027 0.00348 0.42686 0.0
H1011 H 0.37202 0.97966 0.52772 0.0
H1012 H 0.38298 0.00156 0.43225 0.0
C1013 C 0.42191 -0.00285 0.45391 0.0
C1014 C 0.57253 0.98449 0.50695 0.0
C1015 C 0.5544 0.9779 0.53312 0.0
H1016 H 0.59265 0.00172 0.4323 0.0
C1017 C 0.54276 0.98422 0.50607 0.0
H1018 H 0.58171 0.97983 0.52776 0.0
C1019 C 0.54922 -0.00283 0.45383 0.0
C1020 C 0.56721 0.00353 0.42684 0.0
H1021 H 0.5288 0.9795 0.52635 0.0
H1022 H 0.53998 0.00186 0.43352 0.0
C1023 C 0.57878 -0.00299 0.45305 0.0
C1024 C -0.00977 0.58653 0.41295 0.0
C1025 C 0.97052 0.57602 0.42027 0.0
H1026 H 0.01696 0.59882 0.46208 0.0
C1027 C 0.96251 0.57241 0.48392 0.0
H1028 H -0.00326 0.58954 0.36428 0.0
C1029 C 0.97407 0.57811 0.53969 0.0
C1030 C -0.00625 0.58704 0.53231 0.0
H1031 H 0.94732 0.56445 0.49054 0.0
H1032 H 0.96755 0.57435 0.58834 0.0
C1033 C 0.00179 0.59178 0.46872 0.0
C1034 C 0.38662 0.40324 0.42088 0.0
C1035 C 0.39735 0.39427 0.42816 0.0
H1036 H 0.37354 0.41692 0.47017 0.0
C1037 C 0.40062 0.38951 0.49171 0.0
H1038 H 0.38386 0.407 0.37227 0.0
C1039 C 0.39432 0.39477 0.54754 0.0
C1040 C 0.38513 0.4053 0.54032 0.0
H1041 H 0.40874 0.38245 0.49827 0.0
H1042 H 0.3978 0.39174 0.59618 0.0
C1043 C 0.38075 0.40894 0.47672 0.0
C1044 C 0.07068 0.33848 0.26632 0.0
C1045 C 0.06182 0.31941 0.24552 0.0
H1046 H 0.08075 0.3578 0.34795 0.0
C1047 C 0.054 0.30494 0.29348 0.0
H1048 H 0.07669 0.35002 0.23063 0.0
C1049 C 0.05625 0.30946 0.36083 0.0
C1050 C 0.06645 0.32853 0.38162 0.0
H1051 H 0.04694 0.29014 0.27919 0.0
H1052 H 0.05077 0.29792 0.39652 0.0
C1053 C 0.07301 0.34299 0.33368 0.0
C1054 C 0.6639 0.75446 0.36446 0.0
C1055 C 0.645 0.74519 0.3866 0.0
H1056 H 0.68284 0.76391 0.28146 0.0
C1057 C 0.63047 0.73728 0.33957 0.0
H1058 H 0.67548 0.76063 0.39939 0.0
C1059 C 0.63475 0.7392 0.27189 0.0
C1060 C 0.65364 0.74902 0.2497 0.0
H1061 H 0.6158 0.73 0.35487 0.0
H1062 H 0.62316 0.73325 0.23695 0.0
C1063 C 0.66817 0.75633 0.29679 0.0
C1064 C 0.23333 0.89338 0.26278 0.0
C1065 C 0.22371 0.90267 0.24074 0.0
H1066 H 0.24285 0.88395 0.34566 0.0
C1067 C 0.21713 0.91062 0.28786 0.0
H1068 H 0.23873 0.8872 0.22778 0.0
C1069 C 0.21951 0.90872 0.3555 0.0
C1070 C 0.22857 0.89889 0.37759 0.0
H1071 H 0.20974 0.91791 0.27264 0.0
H1072 H 0.21389 0.9147 0.39052 0.0
C1073 C 0.23576 0.89154 0.33042 0.0
C1074 C 0.30125 0.07245 0.60488 0.0
C1075 C 0.32015 0.08228 0.58269 0.0
H1076 H 0.28231 0.06325 0.68786 0.0
C1077 C 0.33468 0.0896 0.62977 0.0
H1078 H 0.28967 0.06649 0.56994 0.0
C1079 C 0.33041 0.08773 0.69744 0.0
C1080 C 0.31151 0.07845 0.71959 0.0
H1081 H 0.34935 0.09718 0.61444 0.0
H1082 H 0.34199 0.0939 0.73237 0.0
C1083 C 0.29698 0.07053 0.67256 0.0
C1084 C 0.88613 0.24213 0.68917 0.0
C1085 C 0.89519 0.23229 0.71126 0.0
H1086 H 0.87637 0.25132 0.6063 0.0
C1087 C 0.90238 0.22494 0.6641 0.0
H1088 H 0.88052 0.24811 0.72418 0.0
C1089 C 0.89995 0.22679 0.59645 0.0
C1090 C 0.89033 0.23608 0.57441 0.0
H1091 H 0.90946 0.21734 0.67934 0.0
H1092 H 0.90534 0.2206 0.56146 0.0
C1093 C 0.88375 0.24403 0.62152 0.0
C1094 C 0.72289 0.64262 0.69468 0.0
C1095 C 0.73307 0.66169 0.71546 0.0
H1096 H 0.7136 0.62329 0.61306 0.0
C1097 C 0.73962 0.67615 0.6675 0.0
H1098 H 0.71742 0.63108 0.73037 0.0
C1099 C 0.73729 0.67163 0.60015 0.0
C1100 C 0.72845 0.65256 0.57935 0.0
H1101 H 0.74734 0.69096 0.68177 0.0
H1102 H 0.74328 0.68317 0.56445 0.0
C1103 C 0.72064 0.6381 0.62733 0.0
C1104 C 0.90835 0.67171 0.60006 0.0
C1105 C 0.89815 0.65264 0.57927 0.0
H1106 H 0.91765 0.69103 0.6817 0.0
C1107 C 0.89158 0.63818 0.62722 0.0
H1108 H 0.91383 0.68325 0.56437 0.0
C1109 C 0.8939 0.64269 0.69457 0.0
C1110 C 0.90276 0.66176 0.71537 0.0
H1111 H 0.88384 0.62337 0.61294 0.0
H1112 H 0.88789 0.63115 0.73026 0.0
C1113 C 0.91059 0.67623 0.66742 0.0
C1114 C 0.32983 0.24203 0.68878 0.0
C1115 C 0.31093 0.23221 0.71097 0.0
H1116 H 0.34877 0.25123 0.6058 0.0
C1117 C 0.2964 0.2249 0.66389 0.0
H1118 H 0.34141 0.24798 0.72373 0.0
C1119 C 0.30067 0.22676 0.59622 0.0
C1120 C 0.31957 0.23604 0.57407 0.0
H1121 H 0.28173 0.21732 0.67922 0.0
H1122 H 0.28909 0.2206 0.56129 0.0
C1123 C 0.3341 0.24395 0.6211 0.0
C1124 C 0.73126 0.08789 0.69783 0.0
C1125 C 0.74087 0.07859 0.71986 0.0
H1126 H 0.72175 0.09733 0.61494 0.0
C1127 C 0.74745 0.07064 0.67274 0.0
H1128 H 0.72587 0.09408 0.73282 0.0
C1129 C 0.74507 0.07254 0.6051 0.0
C1130 C 0.73601 0.08238 0.58301 0.0
H1131 H 0.75483 0.06334 0.68795 0.0
H1132 H 0.75068 0.06656 0.57008 0.0
C1133 C 0.72883 0.08973 0.63018 0.0
C1134 C 0.6342 0.8935 0.26311 0.0
C1135 C 0.6531 0.90278 0.24097 0.0
H1136 H 0.61526 0.88406 0.34611 0.0
C1137 C 0.66763 0.91069 0.288 0.0
H1138 H 0.62262 0.88734 0.22818 0.0
C1139 C 0.66336 0.90878 0.35567 0.0
C1140 C 0.64446 0.89895 0.37787 0.0
H1141 H 0.6823 0.91797 0.2727 0.0
H1142 H 0.67494 0.91473 0.39062 0.0
C1143 C 0.62993 0.89164 0.33078 0.0
C1144 C 0.06468 0.75445 0.36425 0.0
C1145 C 0.0743 0.74517 0.38628 0.0
H1146 H 0.05516 0.76389 0.28136 0.0
C1147 C 0.08088 0.73722 0.33917 0.0
H1148 H 0.05929 0.76064 0.39924 0.0
C1149 C 0.07851 0.73911 0.27153 0.0
C1150 C 0.06944 0.74895 0.24944 0.0
H1151 H 0.08828 0.72993 0.35439 0.0
H1152 H 0.08412 0.73314 0.23651 0.0
C1153 C 0.06225 0.75629 0.2966 0.0
C1154 C 0.24169 0.33852 0.26632 0.0
C1155 C 0.23149 0.31945 0.24554 0.0
H1156 H 0.251 0.35785 0.34795 0.0
C1157 C 0.22494 0.30499 0.29349 0.0
H1158 H 0.24716 0.35006 0.23062 0.0
C1159 C 0.22727 0.30951 0.36084 0.0
C1160 C 0.23613 0.32858 0.38164 0.0
H1161 H 0.2172 0.29018 0.27922 0.0
H1162 H 0.22127 0.29797 0.39654 0.0
C1163 C 0.24394 0.34304 0.33367 0.0
C1164 C 0.00144 0.42295 0.96327 0.0
C1165 C -0.01309 0.41564 0.9162 0.0
H1166 H 0.00876 0.42724 0.06587 0.0
C1167 C 0.96802 0.40582 0.9384 0.0
H1168 H 0.01612 0.43053 0.94794 0.0
C1169 C 0.96375 0.4039 0.00608 0.0
C1170 C 0.97828 0.41181 0.0531 0.0
H1171 H 0.95643 0.39987 0.90346 0.0
H1172 H 0.94908 0.39663 0.02138 0.0
C1173 C -0.00282 0.42109 0.03095 0.0
C1174 C 0.55288 0.57537 0.02234 0.0
C1175 C 0.56192 0.56552 0.04442 0.0
H1176 H 0.54313 0.58458 0.93949 0.0
C1177 C 0.5691 0.55816 -0.00274 0.0
H1178 H 0.54727 0.58136 0.05736 0.0
C1179 C 0.56668 0.56001 0.92961 0.0
C1180 C 0.55707 0.56932 0.90758 0.0
H1181 H 0.57617 0.55056 0.01249 0.0
H1182 H 0.57207 0.55382 0.89462 0.0
C1183 C 0.55051 0.57728 0.9547 0.0
C1184 C 0.40634 0.00965 0.00016 0.0
C1185 C 0.39978 -0.00481 0.04811 0.0
H1186 H 0.41002 0.01668 0.8971 0.0
C1187 C 0.38959 0.97612 0.02732 0.0
H1188 H 0.41406 0.02446 0.01443 0.0
C1189 C 0.38735 0.9716 0.95997 0.0
C1190 C 0.39517 0.98606 0.912 0.0
H1191 H 0.38412 0.96458 0.06302 0.0
H1192 H 0.38031 0.9568 0.94569 0.0
C1193 C 0.40402 0.00513 0.9328 0.0
C1194 C 0.55838 0.97178 0.95983 0.0
C1195 C 0.56492 0.98624 0.91187 0.0
H1196 H 0.55471 0.96476 0.06288 0.0
C1197 C 0.57509 0.00531 0.93266 0.0
H1198 H 0.55066 0.95697 0.94556 0.0
C1199 C 0.57733 0.00983 2e-05 0.0
C1200 C 0.56953 -0.00463 0.04798 0.0
H1201 H 0.58055 0.01685 0.89697 0.0
H1202 H 0.58436 0.02464 0.01429 0.0
C1203 C 0.5607 0.9763 0.02718 0.0
C1204 C 0.96747 0.56015 0.92968 0.0
C1205 C -0.01363 0.56943 0.90753 0.0
H1206 H 0.94853 0.55071 0.01268 0.0
C1207 C 0.0009 0.57735 0.95455 0.0
H1208 H 0.95589 0.55399 0.89475 0.0
C1209 C -0.00337 0.57543 0.02223 0.0
C1210 C 0.97774 0.5656 0.04443 0.0
H1211 H 0.01557 0.58463 0.93925 0.0
H1212 H 0.00821 0.58138 0.05717 0.0
C1213 C 0.96321 0.55829 -0.00265 0.0
C1214 C 0.41414 0.40392 0.00587 0.0
C1215 C 0.40757 0.41187 0.05298 0.0
H1216 H 0.41738 0.39984 0.90321 0.0
C1217 C 0.39796 0.42117 0.03095 0.0
H1218 H 0.42152 0.39661 0.02108 0.0
C1219 C 0.39554 0.42303 0.9633 0.0
C1220 C 0.40272 0.41567 0.91614 0.0
H1221 H 0.39257 0.42737 0.06594 0.0
H1222 H 0.38846 0.43063 0.94806 0.0
C1223 C 0.41177 0.40582 0.93822 0.0
loop_
_geom_bond_atom_site_label_1
_geom_bond_atom_site_label_2
_geom_bond_distance
_geom_bond_site_symmetry_2
_ccdc_geom_bond_type
C0 O1 1.306 . S
C0 O3 1.160 . S
O1 C0 1.306 . S
O1 Cd2 2.228 . S
Cd2 O1 2.228 . S
Cd2 O6 2.273 . S
Cd2 O10 2.277 . S
O3 C0 1.160 . S
O3 Cd4 2.203 . S
Cd4 O3 2.203 . S
Cd4 O6 2.411 . S
Cd4 O7 2.333 1_554 S
Cd4 O8 2.352 . S
Cd4 O12 2.277 . S
Cd4 O13 2.356 . S
C5 O10 1.209 . S
C5 O12 1.226 . S
O6 Cd2 2.273 . S
O6 Cd4 2.411 . S
O6 C9 1.320 1_554 S
O7 Cd4 2.333 1_556 S
O7 C9 1.214 . S
O8 Cd4 2.352 . S
O8 C11 1.258 . S
C9 O6 1.320 1_556 S
C9 O7 1.214 . S
O10 Cd2 2.277 . S
O10 C5 1.209 . S
C11 O8 1.258 . S
C11 O13 1.282 . S
O12 Cd4 2.277 . S
O12 C5 1.226 . S
O13 Cd4 2.356 . S
O13 C11 1.282 . S
C14 O15 1.306 . S
C14 O17 1.160 . S
O15 C14 1.306 . S
O15 Cd16 2.228 . S
Cd16 O15 2.228 . S
Cd16 O20 2.273 . S
Cd16 O24 2.277 . S
O17 C14 1.160 . S
O17 Cd18 2.203 . S
Cd18 O17 2.203 . S
Cd18 O20 2.411 . S
Cd18 O21 2.333 1_554 S
Cd18 O22 2.352 . S
Cd18 O26 2.277 . S
Cd18 O27 2.356 . S
C19 O24 1.209 . S
C19 O26 1.226 . S
O20 Cd16 2.273 . S
O20 Cd18 2.411 . S
O20 C23 1.320 1_554 S
O21 Cd18 2.333 1_556 S
O21 C23 1.214 . S
O22 Cd18 2.352 . S
O22 C25 1.258 . S
C23 O20 1.320 1_556 S
C23 O21 1.214 . S
O24 Cd16 2.277 . S
O24 C19 1.209 . S
C25 O22 1.258 . S
C25 O27 1.282 . S
O26 Cd18 2.277 . S
O26 C19 1.226 . S
O27 Cd18 2.356 . S
O27 C25 1.282 . S
C28 O29 1.306 . S
C28 O31 1.160 . S
O29 C28 1.306 . S
O29 Cd30 2.228 . S
Cd30 O29 2.228 . S
Cd30 O34 2.273 . S
Cd30 O38 2.277 . S
O31 C28 1.160 . S
O31 Cd32 2.203 . S
Cd32 O31 2.203 . S
Cd32 O34 2.411 . S
Cd32 O35 2.333 1_554 S
Cd32 O36 2.352 . S
Cd32 O40 2.277 . S
Cd32 O41 2.356 . S
C33 O38 1.209 . S
C33 O40 1.226 . S
O34 Cd30 2.273 . S
O34 Cd32 2.411 . S
O34 C37 1.320 1_554 S
O35 Cd32 2.333 1_556 S
O35 C37 1.214 . S
O36 Cd32 2.352 . S
O36 C39 1.258 . S
C37 O34 1.320 1_556 S
C37 O35 1.214 . S
O38 Cd30 2.277 . S
O38 C33 1.209 . S
C39 O36 1.258 . S
C39 O41 1.282 . S
O40 Cd32 2.277 . S
O40 C33 1.226 . S
O41 Cd32 2.356 . S
O41 C39 1.282 . S
C42 O43 1.306 . S
C42 O45 1.160 . S
O43 C42 1.306 . S
O43 Cd44 2.228 . S
Cd44 O43 2.228 . S
Cd44 O48 2.273 . S
Cd44 O52 2.277 . S
O45 C42 1.160 . S
O45 Cd46 2.203 . S
Cd46 O45 2.203 . S
Cd46 O48 2.411 . S
Cd46 O49 2.333 1_556 S
Cd46 O50 2.352 . S
Cd46 O54 2.277 . S
Cd46 O55 2.356 . S
C47 O52 1.209 . S
C47 O54 1.226 . S
O48 Cd44 2.273 . S
O48 Cd46 2.411 . S
O48 C51 1.320 1_556 S
O49 Cd46 2.333 1_554 S
O49 C51 1.214 . S
O50 Cd46 2.352 . S
O50 C53 1.258 . S
C51 O48 1.320 1_554 S
C51 O49 1.214 . S
O52 Cd44 2.277 . S
O52 C47 1.209 . S
C53 O50 1.258 . S
C53 O55 1.282 . S
O54 Cd46 2.277 . S
O54 C47 1.226 . S
O55 Cd46 2.356 . S
O55 C53 1.282 . S
C56 O57 1.306 . S
C56 O59 1.160 . S
O57 C56 1.306 . S
O57 Cd58 2.228 . S
Cd58 O57 2.228 . S
Cd58 O62 2.273 . S
Cd58 O66 2.277 . S
O59 C56 1.160 . S
O59 Cd60 2.203 . S
Cd60 O59 2.203 . S
Cd60 O62 2.411 . S
Cd60 O63 2.333 1_556 S
Cd60 O64 2.352 . S
Cd60 O68 2.277 . S
Cd60 O69 2.356 . S
C61 O66 1.209 . S
C61 O68 1.226 . S
O62 Cd58 2.273 . S
O62 Cd60 2.411 . S
O62 C65 1.320 1_556 S
O63 Cd60 2.333 1_554 S
O63 C65 1.214 . S
O64 Cd60 2.352 . S
O64 C67 1.258 . S
C65 O62 1.320 1_554 S
C65 O63 1.214 . S
O66 Cd58 2.277 . S
O66 C61 1.209 . S
C67 O64 1.258 . S
C67 O69 1.282 . S
O68 Cd60 2.277 . S
O68 C61 1.226 . S
O69 Cd60 2.356 . S
O69 C67 1.282 . S
C70 O71 1.306 . S
C70 O73 1.160 . S
O71 C70 1.306 . S
O71 Cd72 2.228 . S
Cd72 O71 2.228 . S
Cd72 O76 2.273 . S
Cd72 O80 2.277 . S
O73 C70 1.160 . S
O73 Cd74 2.203 . S
Cd74 O73 2.203 . S
Cd74 O76 2.411 . S
Cd74 O77 2.333 1_556 S
Cd74 O78 2.352 . S
Cd74 O82 2.277 . S
Cd74 O83 2.356 . S
C75 O80 1.209 . S
C75 O82 1.226 . S
O76 Cd72 2.273 . S
O76 Cd74 2.411 . S
O76 C79 1.320 1_556 S
O77 Cd74 2.333 1_554 S
O77 C79 1.214 . S
O78 Cd74 2.352 . S
O78 C81 1.258 . S
C79 O76 1.320 1_554 S
C79 O77 1.214 . S
O80 Cd72 2.277 . S
O80 C75 1.209 . S
C81 O78 1.258 . S
C81 O83 1.282 . S
O82 Cd74 2.277 . S
O82 C75 1.226 . S
O83 Cd74 2.356 . S
O83 C81 1.282 . S
C84 O85 1.306 . S
C84 O87 1.160 . S
O85 C84 1.306 . S
O85 Cd86 2.228 . S
Cd86 O85 2.228 . S
Cd86 O90 2.273 . S
Cd86 O94 2.277 . S
O87 C84 1.160 . S
O87 Cd88 2.203 . S
Cd88 O87 2.203 . S
Cd88 O90 2.411 . S
Cd88 O91 2.333 1_556 S
Cd88 O92 2.352 . S
Cd88 O96 2.277 . S
Cd88 O97 2.356 . S
C89 O94 1.209 . S
C89 O96 1.226 . S
O90 Cd86 2.273 . S
O90 Cd88 2.411 . S
O90 C93 1.320 1_556 S
O91 Cd88 2.333 1_554 S
O91 C93 1.214 . S
O92 Cd88 2.352 . S
O92 C95 1.258 . S
C93 O90 1.320 1_554 S
C93 O91 1.214 . S
O94 Cd86 2.277 . S
O94 C89 1.209 . S
C95 O92 1.258 . S
C95 O97 1.282 . S
O96 Cd88 2.277 . S
O96 C89 1.226 . S
O97 Cd88 2.356 . S
O97 C95 1.282 . S
C98 O99 1.306 . S
C98 O101 1.160 . S
O99 C98 1.306 . S
O99 Cd100 2.228 . S
Cd100 O99 2.228 . S
Cd100 O104 2.273 . S
Cd100 O108 2.277 . S
O101 C98 1.160 . S
O101 Cd102 2.203 . S
Cd102 O101 2.203 . S
Cd102 O104 2.411 . S
Cd102 O105 2.333 1_556 S
Cd102 O106 2.352 . S
Cd102 O110 2.277 . S
Cd102 O111 2.356 . S
C103 O108 1.209 . S
C103 O110 1.226 . S
O104 Cd100 2.273 . S
O104 Cd102 2.411 . S
O104 C107 1.320 1_556 S
O105 Cd102 2.333 1_554 S
O105 C107 1.214 . S
O106 Cd102 2.352 . S
O106 C109 1.258 . S
C107 O104 1.320 1_554 S
C107 O105 1.214 . S
O108 Cd100 2.277 . S
O108 C103 1.209 . S
C109 O106 1.258 . S
C109 O111 1.282 . S
O110 Cd102 2.277 . S
O110 C103 1.226 . S
O111 Cd102 2.356 . S
O111 C109 1.282 . S
C112 O113 1.306 . S
C112 O115 1.160 . S
O113 C112 1.306 . S
O113 Cd114 2.228 . S
Cd114 O113 2.228 . S
Cd114 O118 2.273 . S
Cd114 O122 2.277 . S
O115 C112 1.160 . S
O115 Cd116 2.203 . S
Cd116 O115 2.203 . S
Cd116 O118 2.411 . S
Cd116 O119 2.333 1_556 S
Cd116 O120 2.352 . S
Cd116 O124 2.277 . S
Cd116 O125 2.356 . S
C117 O122 1.209 . S
C117 O124 1.226 . S
O118 Cd114 2.273 . S
O118 Cd116 2.411 . S
O118 C121 1.320 1_556 S
O119 Cd116 2.333 1_554 S
O119 C121 1.214 . S
O120 Cd116 2.352 . S
O120 C123 1.258 . S
C121 O118 1.320 1_554 S
C121 O119 1.214 . S
O122 Cd114 2.277 . S
O122 C117 1.209 . S
C123 O120 1.258 . S
C123 O125 1.282 . S
O124 Cd116 2.277 . S
O124 C117 1.226 . S
O125 Cd116 2.356 . S
O125 C123 1.282 . S
C126 O127 1.306 . S
C126 O129 1.160 . S
O127 C126 1.306 . S
O127 Cd128 2.228 . S
Cd128 O127 2.228 . S
Cd128 O132 2.273 . S
Cd128 O136 2.277 . S
O129 C126 1.160 . S
O129 Cd130 2.203 . S
Cd130 O129 2.203 . S
Cd130 O132 2.411 . S
Cd130 O133 2.333 1_554 S
Cd130 O134 2.352 . S
Cd130 O138 2.277 . S
Cd130 O139 2.356 . S
C131 O136 1.209 . S
C131 O138 1.226 . S
O132 Cd128 2.273 . S
O132 Cd130 2.411 . S
O132 C135 1.320 1_554 S
O133 Cd130 2.333 1_556 S
O133 C135 1.214 . S
O134 Cd130 2.352 . S
O134 C137 1.258 . S
C135 O132 1.320 1_556 S
C135 O133 1.214 . S
O136 Cd128 2.277 . S
O136 C131 1.209 . S
C137 O134 1.258 . S
C137 O139 1.282 . S
O138 Cd130 2.277 . S
O138 C131 1.226 . S
O139 Cd130 2.356 . S
O139 C137 1.282 . S
C140 O141 1.306 . S
C140 O143 1.160 . S
O141 C140 1.306 . S
O141 Cd142 2.228 . S
Cd142 O141 2.228 . S
Cd142 O146 2.273 . S
Cd142 O150 2.277 . S
O143 C140 1.160 . S
O143 Cd144 2.203 . S
Cd144 O143 2.203 . S
Cd144 O146 2.411 . S
Cd144 O147 2.333 1_554 S
Cd144 O148 2.352 . S
Cd144 O152 2.277 . S
Cd144 O153 2.356 . S
C145 O150 1.209 . S
C145 O152 1.226 . S
O146 Cd142 2.273 . S
O146 Cd144 2.411 . S
O146 C149 1.320 1_554 S
O147 Cd144 2.333 1_556 S
O147 C149 1.214 . S
O148 Cd144 2.352 . S
O148 C151 1.258 . S
C149 O146 1.320 1_556 S
C149 O147 1.214 . S
O150 Cd142 2.277 . S
O150 C145 1.209 . S
C151 O148 1.258 . S
C151 O153 1.282 . S
O152 Cd144 2.277 . S
O152 C145 1.226 . S
O153 Cd144 2.356 . S
O153 C151 1.282 . S
C154 O155 1.306 . S
C154 O157 1.160 . S
O155 C154 1.306 . S
O155 Cd156 2.228 . S
Cd156 O155 2.228 . S
Cd156 O160 2.273 . S
Cd156 O164 2.277 . S
O157 C154 1.160 . S
O157 Cd158 2.203 . S
Cd158 O157 2.203 . S
Cd158 O160 2.411 . S
Cd158 O161 2.333 1_554 S
Cd158 O162 2.352 . S
Cd158 O166 2.277 . S
Cd158 O167 2.356 . S
C159 O164 1.209 . S
C159 O166 1.226 . S
O160 Cd156 2.273 . S
O160 Cd158 2.411 . S
O160 C163 1.320 1_554 S
O161 Cd158 2.333 1_556 S
O161 C163 1.214 . S
O162 Cd158 2.352 . S
O162 C165 1.258 . S
C163 O160 1.320 1_556 S
C163 O161 1.214 . S
O164 Cd156 2.277 . S
O164 C159 1.209 . S
C165 O162 1.258 . S
C165 O167 1.282 . S
O166 Cd158 2.277 . S
O166 C159 1.226 . S
O167 Cd158 2.356 . S
O167 C165 1.282 . S
C168 O169 1.306 . S
C168 O171 1.160 . S
O169 C168 1.306 . S
O169 Cd170 2.228 . S
Cd170 O169 2.228 . S
Cd170 O174 2.273 . S
Cd170 O178 2.277 . S
O171 C168 1.160 . S
O171 Cd172 2.203 . S
Cd172 O171 2.203 . S
Cd172 O174 2.411 . S
Cd172 O175 2.333 . S
Cd172 O176 2.352 . S
Cd172 O180 2.277 . S
Cd172 O181 2.356 . S
C173 O178 1.209 . S
C173 O180 1.226 . S
O174 Cd170 2.273 . S
O174 Cd172 2.411 . S
O174 C177 1.320 . S
O175 Cd172 2.333 . S
O175 C177 1.214 . S
O176 Cd172 2.352 . S
O176 C179 1.258 . S
C177 O174 1.320 . S
C177 O175 1.214 . S
O178 Cd170 2.277 . S
O178 C173 1.209 . S
C179 O176 1.258 . S
C179 O181 1.282 . S
O180 Cd172 2.277 . S
O180 C173 1.226 . S
O181 Cd172 2.356 . S
O181 C179 1.282 . S
C182 O183 1.306 . S
C182 O185 1.160 . S
O183 C182 1.306 . S
O183 Cd184 2.228 . S
Cd184 O183 2.228 . S
Cd184 O188 2.273 . S
Cd184 O192 2.277 . S
O185 C182 1.160 . S
O185 Cd186 2.203 . S
Cd186 O185 2.203 . S
Cd186 O188 2.411 . S
Cd186 O189 2.333 . S
Cd186 O190 2.352 . S
Cd186 O194 2.277 . S
Cd186 O195 2.356 . S
C187 O192 1.209 . S
C187 O194 1.226 . S
O188 Cd184 2.273 . S
O188 Cd186 2.411 . S
O188 C191 1.320 . S
O189 Cd186 2.333 . S
O189 C191 1.214 . S
O190 Cd186 2.352 . S
O190 C193 1.258 . S
C191 O188 1.320 . S
C191 O189 1.214 . S
O192 Cd184 2.277 . S
O192 C187 1.209 . S
C193 O190 1.258 . S
C193 O195 1.282 . S
O194 Cd186 2.277 . S
O194 C187 1.226 . S
O195 Cd186 2.356 . S
O195 C193 1.282 . S
C196 O197 1.306 . S
C196 O199 1.160 . S
O197 C196 1.306 . S
O197 Cd198 2.228 . S
Cd198 O197 2.228 . S
Cd198 O202 2.273 . S
Cd198 O206 2.277 . S
O199 C196 1.160 . S
O199 Cd200 2.203 . S
Cd200 O199 2.203 . S
Cd200 O202 2.411 . S
Cd200 O203 2.333 . S
Cd200 O204 2.352 . S
Cd200 O208 2.277 . S
Cd200 O209 2.356 . S
C201 O206 1.209 . S
C201 O208 1.226 . S
O202 Cd198 2.273 . S
O202 Cd200 2.411 . S
O202 C205 1.320 . S
O203 Cd200 2.333 . S
O203 C205 1.214 . S
O204 Cd200 2.352 . S
O204 C207 1.258 . S
C205 O202 1.320 . S
C205 O203 1.214 . S
O206 Cd198 2.277 . S
O206 C201 1.209 . S
C207 O204 1.258 . S
C207 O209 1.282 . S
O208 Cd200 2.277 . S
O208 C201 1.226 . S
O209 Cd200 2.356 . S
O209 C207 1.282 . S
C210 O211 1.306 . S
C210 O213 1.160 . S
O211 C210 1.306 . S
O211 Cd212 2.228 1_655 S
Cd212 O211 2.228 1_455 S
Cd212 O216 2.273 1_455 S
Cd212 O220 2.277 1_455 S
O213 C210 1.160 . S
O213 Cd214 2.203 . S
Cd214 O213 2.203 . S
Cd214 O216 2.411 . S
Cd214 O217 2.333 . S
Cd214 O218 2.352 . S
Cd214 O222 2.277 . S
Cd214 O223 2.356 . S
C215 O220 1.209 . S
C215 O222 1.226 . S
O216 Cd212 2.273 1_655 S
O216 Cd214 2.411 . S
O216 C219 1.320 . S
O217 Cd214 2.333 . S
O217 C219 1.214 . S
O218 Cd214 2.352 . S
O218 C221 1.258 . S
C219 O216 1.320 . S
C219 O217 1.214 . S
O220 Cd212 2.277 1_655 S
O220 C215 1.209 . S
C221 O218 1.258 . S
C221 O223 1.282 . S
O222 Cd214 2.277 . S
O222 C215 1.226 . S
O223 Cd214 2.356 . S
O223 C221 1.282 . S
C224 O225 1.306 . S
C224 O227 1.160 . S
O225 C224 1.306 . S
O225 Cd226 2.228 . S
Cd226 O225 2.228 . S
Cd226 O230 2.273 . S
Cd226 O234 2.277 . S
O227 C224 1.160 . S
O227 Cd228 2.203 . S
Cd228 O227 2.203 . S
Cd228 O230 2.411 . S
Cd228 O231 2.333 . S
Cd228 O232 2.352 . S
Cd228 O236 2.277 . S
Cd228 O237 2.356 . S
C229 O234 1.209 . S
C229 O236 1.226 . S
O230 Cd226 2.273 . S
O230 Cd228 2.411 . S
O230 C233 1.320 . S
O231 Cd228 2.333 . S
O231 C233 1.214 . S
O232 Cd228 2.352 . S
O232 C235 1.258 . S
C233 O230 1.320 . S
C233 O231 1.214 . S
O234 Cd226 2.277 . S
O234 C229 1.209 . S
C235 O232 1.258 . S
C235 O237 1.282 . S
O236 Cd228 2.277 . S
O236 C229 1.226 . S
O237 Cd228 2.356 . S
O237 C235 1.282 . S
C238 O239 1.306 . S
C238 O241 1.160 . S
O239 C238 1.306 . S
O239 Cd240 2.228 1_545 S
Cd240 O239 2.228 1_565 S
Cd240 O244 2.273 1_565 S
Cd240 O248 2.277 1_565 S
O241 C238 1.160 . S
O241 Cd242 2.203 . S
Cd242 O241 2.203 . S
Cd242 O244 2.411 . S
Cd242 O245 2.333 . S
Cd242 O246 2.352 . S
Cd242 O250 2.277 . S
Cd242 O251 2.356 . S
C243 O248 1.209 . S
C243 O250 1.226 . S
O244 Cd240 2.273 1_545 S
O244 Cd242 2.411 . S
O244 C247 1.320 . S
O245 Cd242 2.333 . S
O245 C247 1.214 . S
O246 Cd242 2.352 . S
O246 C249 1.258 . S
C247 O244 1.320 . S
C247 O245 1.214 . S
O248 Cd240 2.277 1_545 S
O248 C243 1.209 . S
C249 O246 1.258 . S
C249 O251 1.282 . S
O250 Cd242 2.277 . S
O250 C243 1.226 . S
O251 Cd242 2.356 . S
O251 C249 1.282 . S
C252 O253 1.306 . S
C252 O255 1.160 . S
O253 C252 1.306 . S
O253 Cd254 2.228 1_545 S
Cd254 O253 2.228 1_565 S
Cd254 O258 2.273 1_565 S
Cd254 O262 2.277 1_565 S
O255 C252 1.160 . S
O255 Cd256 2.203 . S
Cd256 O255 2.203 . S
Cd256 O258 2.411 . S
Cd256 O259 2.333 . S
Cd256 O260 2.352 . S
Cd256 O264 2.277 . S
Cd256 O265 2.356 . S
C257 O262 1.209 . S
C257 O264 1.226 . S
O258 Cd254 2.273 1_545 S
O258 Cd256 2.411 . S
O258 C261 1.320 . S
O259 Cd256 2.333 . S
O259 C261 1.214 . S
O260 Cd256 2.352 . S
O260 C263 1.258 . S
C261 O258 1.320 . S
C261 O259 1.214 . S
O262 Cd254 2.277 1_545 S
O262 C257 1.209 . S
C263 O260 1.258 . S
C263 O265 1.282 . S
O264 Cd256 2.277 . S
O264 C257 1.226 . S
O265 Cd256 2.356 . S
O265 C263 1.282 . S
C266 O267 1.306 . S
C266 O269 1.160 . S
O267 C266 1.306 . S
O267 Cd268 2.228 1_655 S
Cd268 O267 2.228 1_455 S
Cd268 O272 2.273 1_455 S
Cd268 O276 2.277 1_455 S
O269 C266 1.160 . S
O269 Cd270 2.203 . S
Cd270 O269 2.203 . S
Cd270 O272 2.411 . S
Cd270 O273 2.333 . S
Cd270 O274 2.352 . S
Cd270 O278 2.277 . S
Cd270 O279 2.356 . S
C271 O276 1.209 . S
C271 O278 1.226 . S
O272 Cd268 2.273 1_655 S
O272 Cd270 2.411 . S
O272 C275 1.320 . S
O273 Cd270 2.333 . S
O273 C275 1.214 . S
O274 Cd270 2.352 . S
O274 C277 1.258 . S
C275 O272 1.320 . S
C275 O273 1.214 . S
O276 Cd268 2.277 1_655 S
O276 C271 1.209 . S
C277 O274 1.258 . S
C277 O279 1.282 . S
O278 Cd270 2.277 . S
O278 C271 1.226 . S
O279 Cd270 2.356 . S
O279 C277 1.282 . S
C280 O281 1.306 . S
C280 O283 1.160 . S
O281 C280 1.306 . S
O281 Cd282 2.228 . S
Cd282 O281 2.228 . S
Cd282 O286 2.273 . S
Cd282 O290 2.277 . S
O283 C280 1.160 . S
O283 Cd284 2.203 . S
Cd284 O283 2.203 . S
Cd284 O286 2.411 . S
Cd284 O287 2.333 . S
Cd284 O288 2.352 . S
Cd284 O292 2.277 . S
Cd284 O293 2.356 . S
C285 O290 1.209 . S
C285 O292 1.226 . S
O286 Cd282 2.273 . S
O286 Cd284 2.411 . S
O286 C289 1.320 . S
O287 Cd284 2.333 . S
O287 C289 1.214 . S
O288 Cd284 2.352 . S
O288 C291 1.258 . S
C289 O286 1.320 . S
C289 O287 1.214 . S
O290 Cd282 2.277 . S
O290 C285 1.209 . S
C291 O288 1.258 . S
C291 O293 1.282 . S
O292 Cd284 2.277 . S
O292 C285 1.226 . S
O293 Cd284 2.356 . S
O293 C291 1.282 . S
C294 O295 1.306 . S
C294 O297 1.160 . S
O295 C294 1.306 . S
O295 Cd296 2.228 . S
Cd296 O295 2.228 . S
Cd296 O300 2.273 . S
Cd296 O304 2.277 . S
O297 C294 1.160 . S
O297 Cd298 2.203 . S
Cd298 O297 2.203 . S
Cd298 O300 2.411 . S
Cd298 O301 2.333 . S
Cd298 O302 2.352 . S
Cd298 O306 2.277 . S
Cd298 O307 2.356 . S
C299 O304 1.209 . S
C299 O306 1.226 . S
O300 Cd296 2.273 . S
O300 Cd298 2.411 . S
O300 C303 1.320 . S
O301 Cd298 2.333 . S
O301 C303 1.214 . S
O302 Cd298 2.352 . S
O302 C305 1.258 . S
C303 O300 1.320 . S
C303 O301 1.214 . S
O304 Cd296 2.277 . S
O304 C299 1.209 . S
C305 O302 1.258 . S
C305 O307 1.282 . S
O306 Cd298 2.277 . S
O306 C299 1.226 . S
O307 Cd298 2.356 . S
O307 C305 1.282 . S
C308 O309 1.306 . S
C308 O311 1.160 . S
O309 C308 1.306 . S
O309 Cd310 2.228 . S
Cd310 O309 2.228 . S
Cd310 O314 2.273 . S
Cd310 O318 2.277 . S
O311 C308 1.160 . S
O311 Cd312 2.203 . S
Cd312 O311 2.203 . S
Cd312 O314 2.411 . S
Cd312 O315 2.333 . S
Cd312 O316 2.352 . S
Cd312 O320 2.277 . S
Cd312 O321 2.356 . S
C313 O318 1.209 . S
C313 O320 1.226 . S
O314 Cd310 2.273 . S
O314 Cd312 2.411 . S
O314 C317 1.320 . S
O315 Cd312 2.333 . S
O315 C317 1.214 . S
O316 Cd312 2.352 . S
O316 C319 1.258 . S
C317 O314 1.320 . S
C317 O315 1.214 . S
O318 Cd310 2.277 . S
O318 C313 1.209 . S
C319 O316 1.258 . S
C319 O321 1.282 . S
O320 Cd312 2.277 . S
O320 C313 1.226 . S
O321 Cd312 2.356 . S
O321 C319 1.282 . S
C322 O323 1.306 . S
C322 O325 1.160 . S
O323 C322 1.306 . S
O323 Cd324 2.228 . S
Cd324 O323 2.228 . S
Cd324 O328 2.273 . S
Cd324 O332 2.277 . S
O325 C322 1.160 . S
O325 Cd326 2.203 . S
Cd326 O325 2.203 . S
Cd326 O328 2.411 . S
Cd326 O329 2.333 . S
Cd326 O330 2.352 . S
Cd326 O334 2.277 . S
Cd326 O335 2.356 . S
C327 O332 1.209 . S
C327 O334 1.226 . S
O328 Cd324 2.273 . S
O328 Cd326 2.411 . S
O328 C331 1.320 . S
O329 Cd326 2.333 . S
O329 C331 1.214 . S
O330 Cd326 2.352 . S
O330 C333 1.258 . S
C331 O328 1.320 . S
C331 O329 1.214 . S
O332 Cd324 2.277 . S
O332 C327 1.209 . S
C333 O330 1.258 . S
C333 O335 1.282 . S
O334 Cd326 2.277 . S
O334 C327 1.226 . S
O335 Cd326 2.356 . S
O335 C333 1.282 . S
C336 O337 1.306 . S
C336 O339 1.160 . S
O337 C336 1.306 . S
O337 Cd338 2.228 1_565 S
Cd338 O337 2.228 1_545 S
Cd338 O342 2.273 1_545 S
Cd338 O346 2.277 1_545 S
O339 C336 1.160 . S
O339 Cd340 2.203 . S
Cd340 O339 2.203 . S
Cd340 O342 2.411 . S
Cd340 O343 2.333 . S
Cd340 O344 2.352 . S
Cd340 O348 2.277 . S
Cd340 O349 2.356 . S
C341 O346 1.209 . S
C341 O348 1.226 . S
O342 Cd338 2.273 1_565 S
O342 Cd340 2.411 . S
O342 C345 1.320 . S
O343 Cd340 2.333 . S
O343 C345 1.214 . S
O344 Cd340 2.352 . S
O344 C347 1.258 . S
C345 O342 1.320 . S
C345 O343 1.214 . S
O346 Cd338 2.277 1_565 S
O346 C341 1.209 . S
C347 O344 1.258 . S
C347 O349 1.282 . S
O348 Cd340 2.277 . S
O348 C341 1.226 . S
O349 Cd340 2.356 . S
O349 C347 1.282 . S
C350 O351 1.306 . S
C350 O353 1.160 . S
O351 C350 1.306 . S
O351 Cd352 2.228 1_455 S
Cd352 O351 2.228 1_655 S
Cd352 O356 2.273 1_655 S
Cd352 O360 2.277 1_655 S
O353 C350 1.160 . S
O353 Cd354 2.203 . S
Cd354 O353 2.203 . S
Cd354 O356 2.411 . S
Cd354 O357 2.333 . S
Cd354 O358 2.352 . S
Cd354 O362 2.277 . S
Cd354 O363 2.356 . S
C355 O360 1.209 . S
C355 O362 1.226 . S
O356 Cd352 2.273 1_455 S
O356 Cd354 2.411 . S
O356 C359 1.320 . S
O357 Cd354 2.333 . S
O357 C359 1.214 . S
O358 Cd354 2.352 . S
O358 C361 1.258 . S
C359 O356 1.320 . S
C359 O357 1.214 . S
O360 Cd352 2.277 1_455 S
O360 C355 1.209 . S
C361 O358 1.258 . S
C361 O363 1.282 . S
O362 Cd354 2.277 . S
O362 C355 1.226 . S
O363 Cd354 2.356 . S
O363 C361 1.282 . S
C364 O365 1.306 . S
C364 O367 1.160 . S
O365 C364 1.306 . S
O365 Cd366 2.228 . S
Cd366 O365 2.228 . S
Cd366 O370 2.273 . S
Cd366 O374 2.277 . S
O367 C364 1.160 . S
O367 Cd368 2.203 . S
Cd368 O367 2.203 . S
Cd368 O370 2.411 . S
Cd368 O371 2.333 . S
Cd368 O372 2.352 . S
Cd368 O376 2.277 . S
Cd368 O377 2.356 . S
C369 O374 1.209 . S
C369 O376 1.226 . S
O370 Cd366 2.273 . S
O370 Cd368 2.411 . S
O370 C373 1.320 . S
O371 Cd368 2.333 . S
O371 C373 1.214 . S
O372 Cd368 2.352 . S
O372 C375 1.258 . S
C373 O370 1.320 . S
C373 O371 1.214 . S
O374 Cd366 2.277 . S
O374 C369 1.209 . S
C375 O372 1.258 . S
C375 O377 1.282 . S
O376 Cd368 2.277 . S
O376 C369 1.226 . S
O377 Cd368 2.356 . S
O377 C375 1.282 . S
C378 O379 1.306 . S
C378 O381 1.160 . S
O379 C378 1.306 . S
O379 Cd380 2.228 . S
Cd380 O379 2.228 . S
Cd380 O384 2.273 . S
Cd380 O388 2.277 . S
O381 C378 1.160 . S
O381 Cd382 2.203 . S
Cd382 O381 2.203 . S
Cd382 O384 2.411 . S
Cd382 O385 2.333 . S
Cd382 O386 2.352 . S
Cd382 O390 2.277 . S
Cd382 O391 2.356 . S
C383 O388 1.209 . S
C383 O390 1.226 . S
O384 Cd380 2.273 . S
O384 Cd382 2.411 . S
O384 C387 1.320 . S
O385 Cd382 2.333 . S
O385 C387 1.214 . S
O386 Cd382 2.352 . S
O386 C389 1.258 . S
C387 O384 1.320 . S
C387 O385 1.214 . S
O388 Cd380 2.277 . S
O388 C383 1.209 . S
C389 O386 1.258 . S
C389 O391 1.282 . S
O390 Cd382 2.277 . S
O390 C383 1.226 . S
O391 Cd382 2.356 . S
O391 C389 1.282 . S
C392 O393 1.306 . S
C392 O395 1.160 . S
O393 C392 1.306 . S
O393 Cd394 2.228 . S
Cd394 O393 2.228 . S
Cd394 O398 2.273 . S
Cd394 O402 2.277 . S
O395 C392 1.160 . S
O395 Cd396 2.203 . S
Cd396 O395 2.203 . S
Cd396 O398 2.411 . S
Cd396 O399 2.333 . S
Cd396 O400 2.352 . S
Cd396 O404 2.277 . S
Cd396 O405 2.356 . S
C397 O402 1.209 . S
C397 O404 1.226 . S
O398 Cd394 2.273 . S
O398 Cd396 2.411 . S
O398 C401 1.320 . S
O399 Cd396 2.333 . S
O399 C401 1.214 . S
O400 Cd396 2.352 . S
O400 C403 1.258 . S
C401 O398 1.320 . S
C401 O399 1.214 . S
O402 Cd394 2.277 . S
O402 C397 1.209 . S
C403 O400 1.258 . S
C403 O405 1.282 . S
O404 Cd396 2.277 . S
O404 C397 1.226 . S
O405 Cd396 2.356 . S
O405 C403 1.282 . S
C406 O407 1.306 . S
C406 O409 1.160 . S
O407 C406 1.306 . S
O407 Cd408 2.228 . S
Cd408 O407 2.228 . S
Cd408 O412 2.273 . S
Cd408 O416 2.277 . S
O409 C406 1.160 . S
O409 Cd410 2.203 . S
Cd410 O409 2.203 . S
Cd410 O412 2.411 . S
Cd410 O413 2.333 . S
Cd410 O414 2.352 . S
Cd410 O418 2.277 . S
Cd410 O419 2.356 . S
C411 O416 1.209 . S
C411 O418 1.226 . S
O412 Cd408 2.273 . S
O412 Cd410 2.411 . S
O412 C415 1.320 . S
O413 Cd410 2.333 . S
O413 C415 1.214 . S
O414 Cd410 2.352 . S
O414 C417 1.258 . S
C415 O412 1.320 . S
C415 O413 1.214 . S
O416 Cd408 2.277 . S
O416 C411 1.209 . S
C417 O414 1.258 . S
C417 O419 1.282 . S
O418 Cd410 2.277 . S
O418 C411 1.226 . S
O419 Cd410 2.356 . S
O419 C417 1.282 . S
C420 O421 1.306 . S
C420 O423 1.160 . S
O421 C420 1.306 . S
O421 Cd422 2.228 . S
Cd422 O421 2.228 . S
Cd422 O426 2.273 . S
Cd422 O430 2.277 . S
O423 C420 1.160 . S
O423 Cd424 2.203 . S
Cd424 O423 2.203 . S
Cd424 O426 2.411 . S
Cd424 O427 2.333 . S
Cd424 O428 2.352 . S
Cd424 O432 2.277 . S
Cd424 O433 2.356 . S
C425 O430 1.209 . S
C425 O432 1.226 . S
O426 Cd422 2.273 . S
O426 Cd424 2.411 . S
O426 C429 1.320 . S
O427 Cd424 2.333 . S
O427 C429 1.214 . S
O428 Cd424 2.352 . S
O428 C431 1.258 . S
C429 O426 1.320 . S
C429 O427 1.214 . S
O430 Cd422 2.277 . S
O430 C425 1.209 . S
C431 O428 1.258 . S
C431 O433 1.282 . S
O432 Cd424 2.277 . S
O432 C425 1.226 . S
O433 Cd424 2.356 . S
O433 C431 1.282 . S
C434 O435 1.306 . S
C434 O437 1.160 . S
O435 C434 1.306 . S
O435 Cd436 2.228 . S
Cd436 O435 2.228 . S
Cd436 O440 2.273 . S
Cd436 O444 2.277 . S
O437 C434 1.160 . S
O437 Cd438 2.203 . S
Cd438 O437 2.203 . S
Cd438 O440 2.411 . S
Cd438 O441 2.333 . S
Cd438 O442 2.352 . S
Cd438 O446 2.277 . S
Cd438 O447 2.356 . S
C439 O444 1.209 . S
C439 O446 1.226 . S
O440 Cd436 2.273 . S
O440 Cd438 2.411 . S
O440 C443 1.320 . S
O441 Cd438 2.333 . S
O441 C443 1.214 . S
O442 Cd438 2.352 . S
O442 C445 1.258 . S
C443 O440 1.320 . S
C443 O441 1.214 . S
O444 Cd436 2.277 . S
O444 C439 1.209 . S
C445 O442 1.258 . S
C445 O447 1.282 . S
O446 Cd438 2.277 . S
O446 C439 1.226 . S
O447 Cd438 2.356 . S
O447 C445 1.282 . S
C448 O449 1.306 . S
C448 O451 1.160 . S
O449 C448 1.306 . S
O449 Cd450 2.228 . S
Cd450 O449 2.228 . S
Cd450 O454 2.273 . S
Cd450 O458 2.277 . S
O451 C448 1.160 . S
O451 Cd452 2.203 . S
Cd452 O451 2.203 . S
Cd452 O454 2.411 . S
Cd452 O455 2.333 . S
Cd452 O456 2.352 . S
Cd452 O460 2.277 . S
Cd452 O461 2.356 . S
C453 O458 1.209 . S
C453 O460 1.226 . S
O454 Cd450 2.273 . S
O454 Cd452 2.411 . S
O454 C457 1.320 . S
O455 Cd452 2.333 . S
O455 C457 1.214 . S
O456 Cd452 2.352 . S
O456 C459 1.258 . S
C457 O454 1.320 . S
C457 O455 1.214 . S
O458 Cd450 2.277 . S
O458 C453 1.209 . S
C459 O456 1.258 . S
C459 O461 1.282 . S
O460 Cd452 2.277 . S
O460 C453 1.226 . S
O461 Cd452 2.356 . S
O461 C459 1.282 . S
C462 O463 1.306 . S
C462 O465 1.160 . S
O463 C462 1.306 . S
O463 Cd464 2.228 1_455 S
Cd464 O463 2.228 1_655 S
Cd464 O468 2.273 1_655 S
Cd464 O472 2.277 1_655 S
O465 C462 1.160 . S
O465 Cd466 2.203 . S
Cd466 O465 2.203 . S
Cd466 O468 2.411 . S
Cd466 O469 2.333 . S
Cd466 O470 2.352 . S
Cd466 O474 2.277 . S
Cd466 O475 2.356 . S
C467 O472 1.209 . S
C467 O474 1.226 . S
O468 Cd464 2.273 1_455 S
O468 Cd466 2.411 . S
O468 C471 1.320 . S
O469 Cd466 2.333 . S
O469 C471 1.214 . S
O470 Cd466 2.352 . S
O470 C473 1.258 . S
C471 O468 1.320 . S
C471 O469 1.214 . S
O472 Cd464 2.277 1_455 S
O472 C467 1.209 . S
C473 O470 1.258 . S
C473 O475 1.282 . S
O474 Cd466 2.277 . S
O474 C467 1.226 . S
O475 Cd466 2.356 . S
O475 C473 1.282 . S
C476 O477 1.306 . S
C476 O479 1.160 . S
O477 C476 1.306 . S
O477 Cd478 2.228 . S
Cd478 O477 2.228 . S
Cd478 O482 2.273 . S
Cd478 O486 2.277 . S
O479 C476 1.160 . S
O479 Cd480 2.203 . S
Cd480 O479 2.203 . S
Cd480 O482 2.411 . S
Cd480 O483 2.333 . S
Cd480 O484 2.352 . S
Cd480 O488 2.277 . S
Cd480 O489 2.356 . S
C481 O486 1.209 . S
C481 O488 1.226 . S
O482 Cd478 2.273 . S
O482 Cd480 2.411 . S
O482 C485 1.320 . S
O483 Cd480 2.333 . S
O483 C485 1.214 . S
O484 Cd480 2.352 . S
O484 C487 1.258 . S
C485 O482 1.320 . S
C485 O483 1.214 . S
O486 Cd478 2.277 . S
O486 C481 1.209 . S
C487 O484 1.258 . S
C487 O489 1.282 . S
O488 Cd480 2.277 . S
O488 C481 1.226 . S
O489 Cd480 2.356 . S
O489 C487 1.282 . S
C490 O491 1.306 . S
C490 O493 1.160 . S
O491 C490 1.306 . S
O491 Cd492 2.228 1_565 S
Cd492 O491 2.228 1_545 S
Cd492 O496 2.273 1_545 S
Cd492 O500 2.277 1_545 S
O493 C490 1.160 . S
O493 Cd494 2.203 . S
Cd494 O493 2.203 . S
Cd494 O496 2.411 . S
Cd494 O497 2.333 . S
Cd494 O498 2.352 . S
Cd494 O502 2.277 . S
Cd494 O503 2.356 . S
C495 O500 1.209 . S
C495 O502 1.226 . S
O496 Cd492 2.273 1_565 S
O496 Cd494 2.411 . S
O496 C499 1.320 . S
O497 Cd494 2.333 . S
O497 C499 1.214 . S
O498 Cd494 2.352 . S
O498 C501 1.258 . S
C499 O496 1.320 . S
C499 O497 1.214 . S
O500 Cd492 2.277 1_565 S
O500 C495 1.209 . S
C501 O498 1.258 . S
C501 O503 1.282 . S
O502 Cd494 2.277 . S
O502 C495 1.226 . S
O503 Cd494 2.356 . S
O503 C501 1.282 . S
C504 C505 1.387 . S
C504 H508 0.950 . S
C504 C513 1.390 . S
C505 C504 1.387 . S
C505 C507 1.387 . S
H506 C513 0.950 . S
C507 C505 1.387 . S
C507 C509 1.390 . S
C507 H511 0.950 . S
H508 C504 0.950 . S
C509 C507 1.390 . S
C509 C510 1.387 . S
C509 H512 0.950 . S
C510 C509 1.387 . S
C510 C513 1.387 . S
H511 C507 0.950 . S
H512 C509 0.950 . S
C513 C504 1.390 . S
C513 H506 0.950 . S
C513 C510 1.387 . S
C514 C515 1.387 . S
C514 H518 0.950 1_554 S
C514 C523 1.390 . S
C515 C514 1.387 . S
C515 C517 1.387 . S
H516 C523 0.950 1_556 S
C517 C515 1.387 . S
C517 C519 1.390 . S
C517 H521 0.950 . S
H518 C514 0.950 1_556 S
C519 C517 1.390 . S
C519 C520 1.387 . S
C519 H522 0.950 . S
C520 C519 1.387 . S
C520 C523 1.387 . S
H521 C517 0.950 . S
H522 C519 0.950 . S
C523 C514 1.390 . S
C523 H516 0.950 1_554 S
C523 C520 1.387 . S
C524 C525 1.387 . S
C524 H528 0.950 1_554 S
C524 C533 1.390 . S
C525 C524 1.387 . S
C525 C527 1.387 . S
H526 C533 0.950 1_556 S
C527 C525 1.387 . S
C527 C529 1.390 . S
C527 H531 0.950 . S
H528 C524 0.950 1_556 S
C529 C527 1.390 . S
C529 C530 1.387 . S
C529 H532 0.950 . S
C530 C529 1.387 . S
C530 C533 1.387 . S
H531 C527 0.950 . S
H532 C529 0.950 . S
C533 C524 1.390 . S
C533 H526 0.950 1_554 S
C533 C530 1.387 . S
C534 C535 1.387 . S
C534 H538 0.950 1_556 S
C534 C543 1.390 . S
C535 C534 1.387 . S
C535 C537 1.387 . S
H536 C543 0.950 1_554 S
C537 C535 1.387 . S
C537 C539 1.390 . S
C537 H541 0.950 . S
H538 C534 0.950 1_554 S
C539 C537 1.390 . S
C539 C540 1.387 . S
C539 H542 0.950 . S
C540 C539 1.387 . S
C540 C543 1.387 . S
H541 C537 0.950 . S
H542 C539 0.950 . S
C543 C534 1.390 . S
C543 H536 0.950 1_556 S
C543 C540 1.387 . S
C544 C545 1.387 . S
C544 H548 0.950 1_556 S
C544 C553 1.390 . S
C545 C544 1.387 . S
C545 C547 1.387 . S
H546 C553 0.950 1_554 S
C547 C545 1.387 . S
C547 C549 1.390 . S
C547 H551 0.950 . S
H548 C544 0.950 1_554 S
C549 C547 1.390 . S
C549 C550 1.387 . S
C549 H552 0.950 . S
C550 C549 1.387 . S
C550 C553 1.387 . S
H551 C547 0.950 . S
H552 C549 0.950 . S
C553 C544 1.390 . S
C553 H546 0.950 1_556 S
C553 C550 1.387 . S
C554 C555 1.387 . S
C554 H558 0.950 . S
C554 C563 1.390 . S
C555 C554 1.387 . S
C555 C557 1.387 . S
H556 C563 0.950 . S
C557 C555 1.387 . S
C557 C559 1.390 . S
C557 H561 0.950 . S
H558 C554 0.950 . S
C559 C557 1.390 . S
C559 C560 1.387 . S
C559 H562 0.950 . S
C560 C559 1.387 . S
C560 C563 1.387 . S
H561 C557 0.950 . S
H562 C559 0.950 . S
C563 C554 1.390 . S
C563 H556 0.950 . S
C563 C560 1.387 . S
C564 C565 1.387 . S
C564 H568 0.950 . S
C564 C573 1.390 . S
C565 C564 1.387 . S
C565 C567 1.387 . S
H566 C573 0.950 . S
C567 C565 1.387 . S
C567 C569 1.390 . S
C567 H571 0.950 . S
H568 C564 0.950 . S
C569 C567 1.390 . S
C569 C570 1.387 . S
C569 H572 0.950 . S
C570 C569 1.387 . S
C570 C573 1.387 . S
H571 C567 0.950 . S
H572 C569 0.950 . S
C573 C564 1.390 . S
C573 H566 0.950 . S
C573 C570 1.387 . S
C574 C575 1.387 . S
C574 H578 0.950 . S
C574 C583 1.390 . S
C575 C574 1.387 . S
C575 C577 1.387 . S
H576 C583 0.950 . S
C577 C575 1.387 . S
C577 C579 1.390 . S
C577 H581 0.950 . S
H578 C574 0.950 . S
C579 C577 1.390 . S
C579 C580 1.387 . S
C579 H582 0.950 . S
C580 C579 1.387 . S
C580 C583 1.387 . S
H581 C577 0.950 . S
H582 C579 0.950 . S
C583 C574 1.390 . S
C583 H576 0.950 . S
C583 C580 1.387 . S
C584 C585 1.387 . S
C584 H588 0.950 . S
C584 C593 1.390 . S
C585 C584 1.387 . S
C585 C587 1.387 . S
H586 C593 0.950 . S
C587 C585 1.387 . S
C587 C589 1.390 . S
C587 H591 0.950 . S
H588 C584 0.950 . S
C589 C587 1.390 . S
C589 C590 1.387 . S
C589 H592 0.950 . S
C590 C589 1.387 . S
C590 C593 1.387 . S
H591 C587 0.950 . S
H592 C589 0.950 . S
C593 C584 1.390 . S
C593 H586 0.950 . S
C593 C590 1.387 . S
C594 C595 1.387 . S
C594 H598 0.950 . S
C594 C603 1.390 . S
C595 C594 1.387 . S
C595 C597 1.387 . S
H596 C603 0.950 . S
C597 C595 1.387 . S
C597 C599 1.390 . S
C597 H601 0.950 . S
H598 C594 0.950 . S
C599 C597 1.390 . S
C599 C600 1.387 . S
C599 H602 0.950 . S
C600 C599 1.387 . S
C600 C603 1.387 . S
H601 C597 0.950 . S
H602 C599 0.950 . S
C603 C594 1.390 . S
C603 H596 0.950 . S
C603 C600 1.387 . S
C604 C605 1.387 . S
C604 H608 0.950 . S
C604 C613 1.390 . S
C605 C604 1.387 . S
C605 C607 1.387 . S
H606 C613 0.950 . S
C607 C605 1.387 . S
C607 C609 1.390 . S
C607 H611 0.950 . S
H608 C604 0.950 . S
C609 C607 1.390 . S
C609 C610 1.387 . S
C609 H612 0.950 . S
C610 C609 1.387 . S
C610 C613 1.387 . S
H611 C607 0.950 . S
H612 C609 0.950 . S
C613 C604 1.390 . S
C613 H606 0.950 . S
C613 C610 1.387 . S
C614 C615 1.387 . S
C614 H618 0.950 . S
C614 C623 1.390 . S
C615 C614 1.387 . S
C615 C617 1.387 . S
H616 C623 0.950 . S
C617 C615 1.387 . S
C617 C619 1.390 . S
C617 H621 0.950 . S
H618 C614 0.950 . S
C619 C617 1.390 . S
C619 C620 1.387 . S
C619 H622 0.950 . S
C620 C619 1.387 . S
C620 C623 1.387 . S
H621 C617 0.950 . S
H622 C619 0.950 . S
C623 C614 1.390 . S
C623 H616 0.950 . S
C623 C620 1.387 . S
C624 C625 1.387 . S
C624 H628 0.950 . S
C624 C633 1.390 . S
C625 C624 1.387 . S
C625 C627 1.387 . S
H626 C633 0.950 . S
C627 C625 1.387 . S
C627 C629 1.390 . S
C627 H631 0.950 . S
H628 C624 0.950 . S
C629 C627 1.390 . S
C629 C630 1.387 . S
C629 H632 0.950 . S
C630 C629 1.387 . S
C630 C633 1.387 . S
H631 C627 0.950 . S
H632 C629 0.950 . S
C633 C624 1.390 . S
C633 H626 0.950 . S
C633 C630 1.387 . S
C634 C635 1.387 . S
C634 H638 0.950 . S
C634 C643 1.390 . S
C635 C634 1.387 . S
C635 C637 1.387 . S
H636 C643 0.950 . S
C637 C635 1.387 . S
C637 C639 1.390 . S
C637 H641 0.950 . S
H638 C634 0.950 . S
C639 C637 1.390 . S
C639 C640 1.387 . S
C639 H642 0.950 . S
C640 C639 1.387 . S
C640 C643 1.387 . S
H641 C637 0.950 . S
H642 C639 0.950 . S
C643 C634 1.390 . S
C643 H636 0.950 . S
C643 C640 1.387 . S
C644 C645 1.387 . S
C644 H648 0.950 . S
C644 C653 1.390 . S
C645 C644 1.387 . S
C645 C647 1.387 . S
H646 C653 0.950 . S
C647 C645 1.387 . S
C647 C649 1.390 . S
C647 H651 0.950 . S
H648 C644 0.950 . S
C649 C647 1.390 . S
C649 C650 1.387 . S
C649 H652 0.950 . S
C650 C649 1.387 . S
C650 C653 1.387 . S
H651 C647 0.950 . S
H652 C649 0.950 . S
C653 C644 1.390 . S
C653 H646 0.950 . S
C653 C650 1.387 . S
C654 C655 1.387 . S
C654 H658 0.950 . S
C654 C663 1.390 . S
C655 C654 1.387 . S
C655 C657 1.387 . S
H656 C663 0.950 . S
C657 C655 1.387 . S
C657 C659 1.390 . S
C657 H661 0.950 . S
H658 C654 0.950 . S
C659 C657 1.390 . S
C659 C660 1.387 . S
C659 H662 0.950 . S
C660 C659 1.387 . S
C660 C663 1.387 . S
H661 C657 0.950 . S
H662 C659 0.950 . S
C663 C654 1.390 . S
C663 H656 0.950 . S
C663 C660 1.387 . S
C664 C665 1.387 . S
C664 H668 0.950 . S
C664 C673 1.390 . S
C665 C664 1.387 . S
C665 C667 1.387 . S
H666 C673 0.950 . S
C667 C665 1.387 . S
C667 C669 1.390 . S
C667 H671 0.950 . S
H668 C664 0.950 . S
C669 C667 1.390 . S
C669 C670 1.387 . S
C669 H672 0.950 . S
C670 C669 1.387 . S
C670 C673 1.387 . S
H671 C667 0.950 . S
H672 C669 0.950 . S
C673 C664 1.390 . S
C673 H666 0.950 . S
C673 C670 1.387 . S
C674 C675 1.387 . S
C674 H678 0.950 . S
C674 C683 1.390 . S
C675 C674 1.387 . S
C675 C677 1.387 . S
H676 C683 0.950 . S
C677 C675 1.387 . S
C677 C679 1.390 . S
C677 H681 0.950 . S
H678 C674 0.950 . S
C679 C677 1.390 . S
C679 C680 1.387 . S
C679 H682 0.950 . S
C680 C679 1.387 . S
C680 C683 1.387 . S
H681 C677 0.950 . S
H682 C679 0.950 . S
C683 C674 1.390 . S
C683 H676 0.950 . S
C683 C680 1.387 . S
C684 C685 1.387 1_556 S
C684 H688 0.950 . S
C684 C693 1.390 1_455 S
C685 C684 1.387 1_554 S
C685 C687 1.387 . S
H686 C693 0.950 . S
C687 C685 1.387 . S
C687 C689 1.390 1_455 S
C687 H691 0.950 . S
H688 C684 0.950 . S
C689 C687 1.390 1_655 S
C689 C690 1.387 1_554 S
C689 H692 0.950 . S
C690 C689 1.387 1_556 S
C690 C693 1.387 . S
H691 C687 0.950 . S
H692 C689 0.950 . S
C693 C684 1.390 1_655 S
C693 H686 0.950 . S
C693 C690 1.387 . S
C694 C695 1.387 1_554 S
C694 H698 0.950 . S
C694 C703 1.390 . S
C695 C694 1.387 1_556 S
C695 C697 1.387 . S
H696 C703 0.950 . S
C697 C695 1.387 . S
C697 C699 1.390 . S
C697 H701 0.950 . S
H698 C694 0.950 . S
C699 C697 1.390 . S
C699 C700 1.387 1_556 S
C699 H702 0.950 . S
C700 C699 1.387 1_554 S
C700 C703 1.387 . S
H701 C697 0.950 . S
H702 C699 0.950 . S
C703 C694 1.390 . S
C703 H696 0.950 . S
C703 C700 1.387 . S
C704 C705 1.387 . S
C704 H708 0.950 . S
C704 C713 1.390 1_564 S
C705 C704 1.387 . S
C705 C707 1.387 . S
H706 C713 0.950 . S
C707 C705 1.387 . S
C707 C709 1.390 1_564 S
C707 H711 0.950 . S
H708 C704 0.950 . S
C709 C707 1.390 1_546 S
C709 C710 1.387 . S
C709 H712 0.950 . S
C710 C709 1.387 . S
C710 C713 1.387 . S
H711 C707 0.950 . S
H712 C709 0.950 . S
C713 C704 1.390 1_546 S
C713 H706 0.950 . S
C713 C710 1.387 . S
C714 C715 1.387 . S
C714 H718 0.950 . S
C714 C723 1.390 1_656 S
C715 C714 1.387 . S
C715 C717 1.387 . S
H716 C723 0.950 . S
C717 C715 1.387 . S
C717 C719 1.390 1_656 S
C717 H721 0.950 . S
H718 C714 0.950 . S
C719 C717 1.390 1_454 S
C719 C720 1.387 . S
C719 H722 0.950 . S
C720 C719 1.387 . S
C720 C723 1.387 . S
H721 C717 0.950 . S
H722 C719 0.950 . S
C723 C714 1.390 1_454 S
C723 H716 0.950 . S
C723 C720 1.387 . S
C724 C725 1.387 . S
C724 H728 0.950 . S
C724 C733 1.390 . S
C725 C724 1.387 . S
C725 C727 1.387 1_556 S
H726 C733 0.950 . S
C727 C725 1.387 1_554 S
C727 C729 1.390 . S
C727 H731 0.950 . S
H728 C724 0.950 . S
C729 C727 1.390 . S
C729 C730 1.387 . S
C729 H732 0.950 . S
C730 C729 1.387 . S
C730 C733 1.387 1_554 S
H731 C727 0.950 . S
H732 C729 0.950 . S
C733 C724 1.390 . S
C733 H726 0.950 . S
C733 C730 1.387 1_556 S
C734 C735 1.387 . S
C734 H738 0.950 . S
C734 C743 1.390 1_546 S
C735 C734 1.387 . S
C735 C737 1.387 . S
H736 C743 0.950 . S
C737 C735 1.387 . S
C737 C739 1.390 1_546 S
C737 H741 0.950 . S
H738 C734 0.950 . S
C739 C737 1.390 1_564 S
C739 C740 1.387 . S
C739 H742 0.950 . S
C740 C739 1.387 . S
C740 C743 1.387 . S
H741 C737 0.950 . S
H742 C739 0.950 . S
C743 C734 1.390 1_564 S
C743 H736 0.950 . S
C743 C740 1.387 . S
C744 C745 1.387 . S
C744 H748 0.950 . S
C744 C753 1.390 . S
C745 C744 1.387 . S
C745 C747 1.387 . S
H746 C753 0.950 . S
C747 C745 1.387 . S
C747 C749 1.390 . S
C747 H751 0.950 . S
H748 C744 0.950 . S
C749 C747 1.390 . S
C749 C750 1.387 . S
C749 H752 0.950 . S
C750 C749 1.387 . S
C750 C753 1.387 . S
H751 C747 0.950 . S
H752 C749 0.950 . S
C753 C744 1.390 . S
C753 H746 0.950 . S
C753 C750 1.387 . S
C754 C755 1.387 . S
C754 H758 0.950 . S
C754 C763 1.390 . S
C755 C754 1.387 . S
C755 C757 1.387 . S
H756 C763 0.950 . S
C757 C755 1.387 . S
C757 C759 1.390 . S
C757 H761 0.950 . S
H758 C754 0.950 . S
C759 C757 1.390 . S
C759 C760 1.387 . S
C759 H762 0.950 . S
C760 C759 1.387 . S
C760 C763 1.387 . S
H761 C757 0.950 . S
H762 C759 0.950 . S
C763 C754 1.390 . S
C763 H756 0.950 . S
C763 C760 1.387 . S
C764 C765 1.387 . S
C764 H768 0.950 . S
C764 C773 1.390 . S
C765 C764 1.387 . S
C765 C767 1.387 . S
H766 C773 0.950 . S
C767 C765 1.387 . S
C767 C769 1.390 . S
C767 H771 0.950 . S
H768 C764 0.950 . S
C769 C767 1.390 . S
C769 C770 1.387 . S
C769 H772 0.950 . S
C770 C769 1.387 . S
C770 C773 1.387 . S
H771 C767 0.950 . S
H772 C769 0.950 . S
C773 C764 1.390 . S
C773 H766 0.950 . S
C773 C770 1.387 . S
C774 C775 1.387 . S
C774 H778 0.950 . S
C774 C783 1.390 . S
C775 C774 1.387 . S
C775 C777 1.387 . S
H776 C783 0.950 . S
C777 C775 1.387 . S
C777 C779 1.390 . S
C777 H781 0.950 . S
H778 C774 0.950 . S
C779 C777 1.390 . S
C779 C780 1.387 . S
C779 H782 0.950 . S
C780 C779 1.387 . S
C780 C783 1.387 . S
H781 C777 0.950 . S
H782 C779 0.950 . S
C783 C774 1.390 . S
C783 H776 0.950 . S
C783 C780 1.387 . S
C784 C785 1.387 . S
C784 H788 0.950 . S
C784 C793 1.390 . S
C785 C784 1.387 . S
C785 C787 1.387 . S
H786 C793 0.950 . S
C787 C785 1.387 . S
C787 C789 1.390 . S
C787 H791 0.950 . S
H788 C784 0.950 . S
C789 C787 1.390 . S
C789 C790 1.387 . S
C789 H792 0.950 . S
C790 C789 1.387 . S
C790 C793 1.387 . S
H791 C787 0.950 . S
H792 C789 0.950 . S
C793 C784 1.390 . S
C793 H786 0.950 . S
C793 C790 1.387 . S
C794 C795 1.387 . S
C794 H798 0.950 . S
C794 C803 1.390 . S
C795 C794 1.387 . S
C795 C797 1.387 . S
H796 C803 0.950 . S
C797 C795 1.387 . S
C797 C799 1.390 . S
C797 H801 0.950 . S
H798 C794 0.950 . S
C799 C797 1.390 . S
C799 C800 1.387 . S
C799 H802 0.950 . S
C800 C799 1.387 . S
C800 C803 1.387 . S
H801 C797 0.950 . S
H802 C799 0.950 . S
C803 C794 1.390 . S
C803 H796 0.950 . S
C803 C800 1.387 . S
C804 C805 1.387 . S
C804 H808 0.950 . S
C804 C813 1.390 . S
C805 C804 1.387 . S
C805 C807 1.387 . S
H806 C813 0.950 . S
C807 C805 1.387 . S
C807 C809 1.390 . S
C807 H811 0.950 . S
H808 C804 0.950 . S
C809 C807 1.390 . S
C809 C810 1.387 . S
C809 H812 0.950 . S
C810 C809 1.387 . S
C810 C813 1.387 . S
H811 C807 0.950 . S
H812 C809 0.950 . S
C813 C804 1.390 . S
C813 H806 0.950 . S
C813 C810 1.387 . S
C814 C815 1.387 . S
C814 H818 0.950 . S
C814 C823 1.390 . S
C815 C814 1.387 . S
C815 C817 1.387 . S
H816 C823 0.950 . S
C817 C815 1.387 . S
C817 C819 1.390 . S
C817 H821 0.950 . S
H818 C814 0.950 . S
C819 C817 1.390 . S
C819 C820 1.387 . S
C819 H822 0.950 . S
C820 C819 1.387 . S
C820 C823 1.387 . S
H821 C817 0.950 . S
H822 C819 0.950 . S
C823 C814 1.390 . S
C823 H816 0.950 . S
C823 C820 1.387 . S
C824 C825 1.387 . S
C824 H828 0.950 . S
C824 C833 1.390 . S
C825 C824 1.387 . S
C825 C827 1.387 . S
H826 C833 0.950 . S
C827 C825 1.387 . S
C827 C829 1.390 . S
C827 H831 0.950 . S
H828 C824 0.950 . S
C829 C827 1.390 . S
C829 C830 1.387 . S
C829 H832 0.950 . S
C830 C829 1.387 . S
C830 C833 1.387 . S
H831 C827 0.950 . S
H832 C829 0.950 . S
C833 C824 1.390 . S
C833 H826 0.950 . S
C833 C830 1.387 . S
C834 C835 1.387 . S
C834 H838 0.950 . S
C834 C843 1.390 . S
C835 C834 1.387 . S
C835 C837 1.387 . S
H836 C843 0.950 . S
C837 C835 1.387 . S
C837 C839 1.390 . S
C837 H841 0.950 . S
H838 C834 0.950 . S
C839 C837 1.390 . S
C839 C840 1.387 . S
C839 H842 0.950 . S
C840 C839 1.387 . S
C840 C843 1.387 . S
H841 C837 0.950 . S
H842 C839 0.950 . S
C843 C834 1.390 . S
C843 H836 0.950 . S
C843 C840 1.387 . S
C844 C845 1.387 . S
C844 H848 0.950 . S
C844 C853 1.390 . S
C845 C844 1.387 . S
C845 C847 1.387 . S
H846 C853 0.950 . S
C847 C845 1.387 . S
C847 C849 1.390 . S
C847 H851 0.950 . S
H848 C844 0.950 . S
C849 C847 1.390 . S
C849 C850 1.387 . S
C849 H852 0.950 . S
C850 C849 1.387 . S
C850 C853 1.387 . S
H851 C847 0.950 . S
H852 C849 0.950 . S
C853 C844 1.390 . S
C853 H846 0.950 . S
C853 C850 1.387 . S
C854 C855 1.387 . S
C854 H858 0.950 . S
C854 C863 1.390 . S
C855 C854 1.387 . S
C855 C857 1.387 . S
H856 C863 0.950 . S
C857 C855 1.387 . S
C857 C859 1.390 . S
C857 H861 0.950 . S
H858 C854 0.950 . S
C859 C857 1.390 . S
C859 C860 1.387 . S
C859 H862 0.950 . S
C860 C859 1.387 . S
C860 C863 1.387 . S
H861 C857 0.950 . S
H862 C859 0.950 . S
C863 C854 1.390 . S
C863 H856 0.950 . S
C863 C860 1.387 . S
C864 C865 1.387 . S
C864 H868 0.950 . S
C864 C873 1.390 . S
C865 C864 1.387 . S
C865 C867 1.387 . S
H866 C873 0.950 . S
C867 C865 1.387 . S
C867 C869 1.390 . S
C867 H871 0.950 . S
H868 C864 0.950 . S
C869 C867 1.390 . S
C869 C870 1.387 . S
C869 H872 0.950 . S
C870 C869 1.387 . S
C870 C873 1.387 . S
H871 C867 0.950 . S
H872 C869 0.950 . S
C873 C864 1.390 . S
C873 H866 0.950 . S
C873 C870 1.387 . S
C874 C875 1.387 . S
C874 H878 0.950 . S
C874 C883 1.390 . S
C875 C874 1.387 . S
C875 C877 1.387 . S
H876 C883 0.950 . S
C877 C875 1.387 . S
C877 C879 1.390 . S
C877 H881 0.950 . S
H878 C874 0.950 . S
C879 C877 1.390 . S
C879 C880 1.387 . S
C879 H882 0.950 . S
C880 C879 1.387 . S
C880 C883 1.387 . S
H881 C877 0.950 . S
H882 C879 0.950 . S
C883 C874 1.390 . S
C883 H876 0.950 . S
C883 C880 1.387 . S
C884 C885 1.387 . S
C884 H888 0.950 . S
C884 C893 1.390 . S
C885 C884 1.387 . S
C885 C887 1.387 . S
H886 C893 0.950 . S
C887 C885 1.387 . S
C887 C889 1.390 . S
C887 H891 0.950 . S
H888 C884 0.950 . S
C889 C887 1.390 . S
C889 C890 1.387 . S
C889 H892 0.950 . S
C890 C889 1.387 . S
C890 C893 1.387 . S
H891 C887 0.950 . S
H892 C889 0.950 . S
C893 C884 1.390 . S
C893 H886 0.950 . S
C893 C890 1.387 . S
C894 C895 1.387 . S
C894 H898 0.950 . S
C894 C903 1.390 . S
C895 C894 1.387 . S
C895 C897 1.387 . S
H896 C903 0.950 . S
C897 C895 1.387 . S
C897 C899 1.390 . S
C897 H901 0.950 . S
H898 C894 0.950 . S
C899 C897 1.390 . S
C899 C900 1.387 . S
C899 H902 0.950 . S
C900 C899 1.387 . S
C900 C903 1.387 . S
H901 C897 0.950 . S
H902 C899 0.950 . S
C903 C894 1.390 . S
C903 H896 0.950 . S
C903 C900 1.387 . S
C904 C905 1.387 . S
C904 H908 0.950 . S
C904 C913 1.390 . S
C905 C904 1.387 . S
C905 C907 1.387 . S
H906 C913 0.950 . S
C907 C905 1.387 . S
C907 C909 1.390 . S
C907 H911 0.950 . S
H908 C904 0.950 . S
C909 C907 1.390 . S
C909 C910 1.387 . S
C909 H912 0.950 . S
C910 C909 1.387 . S
C910 C913 1.387 . S
H911 C907 0.950 . S
H912 C909 0.950 . S
C913 C904 1.390 . S
C913 H906 0.950 . S
C913 C910 1.387 . S
C914 C915 1.387 . S
C914 H918 0.950 . S
C914 C923 1.390 . S
C915 C914 1.387 . S
C915 C917 1.387 . S
H916 C923 0.950 . S
C917 C915 1.387 . S
C917 C919 1.390 . S
C917 H921 0.950 . S
H918 C914 0.950 . S
C919 C917 1.390 . S
C919 C920 1.387 . S
C919 H922 0.950 . S
C920 C919 1.387 . S
C920 C923 1.387 . S
H921 C917 0.950 . S
H922 C919 0.950 . S
C923 C914 1.390 . S
C923 H916 0.950 . S
C923 C920 1.387 . S
C924 C925 1.387 . S
C924 H928 0.950 . S
C924 C933 1.390 . S
C925 C924 1.387 . S
C925 C927 1.387 . S
H926 C933 0.950 . S
C927 C925 1.387 . S
C927 C929 1.390 . S
C927 H931 0.950 . S
H928 C924 0.950 . S
C929 C927 1.390 . S
C929 C930 1.387 . S
C929 H932 0.950 . S
C930 C929 1.387 . S
C930 C933 1.387 . S
H931 C927 0.950 . S
H932 C929 0.950 . S
C933 C924 1.390 . S
C933 H926 0.950 . S
C933 C930 1.387 . S
C934 C935 1.387 . S
C934 H938 0.950 . S
C934 C943 1.390 . S
C935 C934 1.387 . S
C935 C937 1.387 . S
H936 C943 0.950 . S
C937 C935 1.387 . S
C937 C939 1.390 . S
C937 H941 0.950 . S
H938 C934 0.950 . S
C939 C937 1.390 . S
C939 C940 1.387 . S
C939 H942 0.950 . S
C940 C939 1.387 . S
C940 C943 1.387 . S
H941 C937 0.950 . S
H942 C939 0.950 . S
C943 C934 1.390 . S
C943 H936 0.950 . S
C943 C940 1.387 . S
C944 C945 1.387 . S
C944 H948 0.950 . S
C944 C953 1.390 . S
C945 C944 1.387 . S
C945 C947 1.387 . S
H946 C953 0.950 . S
C947 C945 1.387 . S
C947 C949 1.390 . S
C947 H951 0.950 . S
H948 C944 0.950 . S
C949 C947 1.390 . S
C949 C950 1.387 . S
C949 H952 0.950 . S
C950 C949 1.387 . S
C950 C953 1.387 . S
H951 C947 0.950 . S
H952 C949 0.950 . S
C953 C944 1.390 . S
C953 H946 0.950 . S
C953 C950 1.387 . S
C954 C955 1.387 . S
C954 H958 0.950 . S
C954 C963 1.390 . S
C955 C954 1.387 . S
C955 C957 1.387 . S
H956 C963 0.950 . S
C957 C955 1.387 . S
C957 C959 1.390 . S
C957 H961 0.950 . S
H958 C954 0.950 . S
C959 C957 1.390 . S
C959 C960 1.387 . S
C959 H962 0.950 . S
C960 C959 1.387 . S
C960 C963 1.387 . S
H961 C957 0.950 . S
H962 C959 0.950 . S
C963 C954 1.390 . S
C963 H956 0.950 . S
C963 C960 1.387 . S
C964 C965 1.387 . S
C964 H968 0.950 . S
C964 C973 1.390 . S
C965 C964 1.387 . S
C965 C967 1.387 . S
H966 C973 0.950 . S
C967 C965 1.387 . S
C967 C969 1.390 . S
C967 H971 0.950 . S
H968 C964 0.950 . S
C969 C967 1.390 . S
C969 C970 1.387 . S
C969 H972 0.950 . S
C970 C969 1.387 . S
C970 C973 1.387 . S
H971 C967 0.950 . S
H972 C969 0.950 . S
C973 C964 1.390 . S
C973 H966 0.950 . S
C973 C970 1.387 . S
C974 C975 1.387 . S
C974 H978 0.950 . S
C974 C983 1.390 . S
C975 C974 1.387 . S
C975 C977 1.387 . S
H976 C983 0.950 . S
C977 C975 1.387 . S
C977 C979 1.390 . S
C977 H981 0.950 . S
H978 C974 0.950 . S
C979 C977 1.390 . S
C979 C980 1.387 . S
C979 H982 0.950 . S
C980 C979 1.387 . S
C980 C983 1.387 . S
H981 C977 0.950 . S
H982 C979 0.950 . S
C983 C974 1.390 . S
C983 H976 0.950 . S
C983 C980 1.387 . S
C984 C985 1.387 . S
C984 H988 0.950 . S
C984 C993 1.390 . S
C985 C984 1.387 . S
C985 C987 1.387 1_455 S
H986 C993 0.950 . S
C987 C985 1.387 1_655 S
C987 C989 1.390 . S
C987 H991 0.950 . S
H988 C984 0.950 . S
C989 C987 1.390 . S
C989 C990 1.387 . S
C989 H992 0.950 . S
C990 C989 1.387 . S
C990 C993 1.387 1_655 S
H991 C987 0.950 . S
H992 C989 0.950 . S
C993 C984 1.390 . S
C993 H986 0.950 . S
C993 C990 1.387 1_455 S
C994 C995 1.387 . S
C994 H998 0.950 . S
C994 C1003 1.390 . S
C995 C994 1.387 . S
C995 C997 1.387 . S
H996 C1003 0.950 . S
C997 C995 1.387 . S
C997 C999 1.390 . S
C997 H1001 0.950 . S
H998 C994 0.950 . S
C999 C997 1.390 . S
C999 C1000 1.387 . S
C999 H1002 0.950 . S
C1000 C999 1.387 . S
C1000 C1003 1.387 . S
H1001 C997 0.950 . S
H1002 C999 0.950 . S
C1003 C994 1.390 . S
C1003 H996 0.950 . S
C1003 C1000 1.387 . S
C1004 C1005 1.387 . S
C1004 H1008 0.950 . S
C1004 C1013 1.390 1_565 S
C1005 C1004 1.387 . S
C1005 C1007 1.387 . S
H1006 C1013 0.950 . S
C1007 C1005 1.387 . S
C1007 C1009 1.390 1_565 S
C1007 H1011 0.950 . S
H1008 C1004 0.950 . S
C1009 C1007 1.390 1_545 S
C1009 C1010 1.387 . S
C1009 H1012 0.950 . S
C1010 C1009 1.387 . S
C1010 C1013 1.387 . S
H1011 C1007 0.950 . S
H1012 C1009 0.950 . S
C1013 C1004 1.390 1_545 S
C1013 H1006 0.950 . S
C1013 C1010 1.387 . S
C1014 C1015 1.387 . S
C1014 H1018 0.950 . S
C1014 C1023 1.390 1_565 S
C1015 C1014 1.387 . S
C1015 C1017 1.387 . S
H1016 C1023 0.950 . S
C1017 C1015 1.387 . S
C1017 C1019 1.390 1_565 S
C1017 H1021 0.950 . S
H1018 C1014 0.950 . S
C1019 C1017 1.390 1_545 S
C1019 C1020 1.387 . S
C1019 H1022 0.950 . S
C1020 C1019 1.387 . S
C1020 C1023 1.387 . S
H1021 C1017 0.950 . S
H1022 C1019 0.950 . S
C1023 C1014 1.390 1_545 S
C1023 H1016 0.950 . S
C1023 C1020 1.387 . S
C1024 C1025 1.387 1_455 S
C1024 H1028 0.950 . S
C1024 C1033 1.390 . S
C1025 C1024 1.387 1_655 S
C1025 C1027 1.387 . S
H1026 C1033 0.950 . S
C1027 C1025 1.387 . S
C1027 C1029 1.390 . S
C1027 H1031 0.950 . S
H1028 C1024 0.950 . S
C1029 C1027 1.390 . S
C1029 C1030 1.387 1_655 S
C1029 H1032 0.950 . S
C1030 C1029 1.387 1_455 S
C1030 C1033 1.387 . S
H1031 C1027 0.950 . S
H1032 C1029 0.950 . S
C1033 C1024 1.390 . S
C1033 H1026 0.950 . S
C1033 C1030 1.387 . S
C1034 C1035 1.387 . S
C1034 H1038 0.950 . S
C1034 C1043 1.390 . S
C1035 C1034 1.387 . S
C1035 C1037 1.387 . S
H1036 C1043 0.950 . S
C1037 C1035 1.387 . S
C1037 C1039 1.390 . S
C1037 H1041 0.950 . S
H1038 C1034 0.950 . S
C1039 C1037 1.390 . S
C1039 C1040 1.387 . S
C1039 H1042 0.950 . S
C1040 C1039 1.387 . S
C1040 C1043 1.387 . S
H1041 C1037 0.950 . S
H1042 C1039 0.950 . S
C1043 C1034 1.390 . S
C1043 H1036 0.950 . S
C1043 C1040 1.387 . S
C1044 C1045 1.387 . S
C1044 H1048 0.950 . S
C1044 C1053 1.390 . S
C1045 C1044 1.387 . S
C1045 C1047 1.387 . S
H1046 C1053 0.950 . S
C1047 C1045 1.387 . S
C1047 C1049 1.390 . S
C1047 H1051 0.950 . S
H1048 C1044 0.950 . S
C1049 C1047 1.390 . S
C1049 C1050 1.387 . S
C1049 H1052 0.950 . S
C1050 C1049 1.387 . S
C1050 C1053 1.387 . S
H1051 C1047 0.950 . S
H1052 C1049 0.950 . S
C1053 C1044 1.390 . S
C1053 H1046 0.950 . S
C1053 C1050 1.387 . S
C1054 C1055 1.387 . S
C1054 H1058 0.950 . S
C1054 C1063 1.390 . S
C1055 C1054 1.387 . S
C1055 C1057 1.387 . S
H1056 C1063 0.950 . S
C1057 C1055 1.387 . S
C1057 C1059 1.390 . S
C1057 H1061 0.950 . S
H1058 C1054 0.950 . S
C1059 C1057 1.390 . S
C1059 C1060 1.387 . S
C1059 H1062 0.950 . S
C1060 C1059 1.387 . S
C1060 C1063 1.387 . S
H1061 C1057 0.950 . S
H1062 C1059 0.950 . S
C1063 C1054 1.390 . S
C1063 H1056 0.950 . S
C1063 C1060 1.387 . S
C1064 C1065 1.387 . S
C1064 H1068 0.950 . S
C1064 C1073 1.390 . S
C1065 C1064 1.387 . S
C1065 C1067 1.387 . S
H1066 C1073 0.950 . S
C1067 C1065 1.387 . S
C1067 C1069 1.390 . S
C1067 H1071 0.950 . S
H1068 C1064 0.950 . S
C1069 C1067 1.390 . S
C1069 C1070 1.387 . S
C1069 H1072 0.950 . S
C1070 C1069 1.387 . S
C1070 C1073 1.387 . S
H1071 C1067 0.950 . S
H1072 C1069 0.950 . S
C1073 C1064 1.390 . S
C1073 H1066 0.950 . S
C1073 C1070 1.387 . S
C1074 C1075 1.387 . S
C1074 H1078 0.950 . S
C1074 C1083 1.390 . S
C1075 C1074 1.387 . S
C1075 C1077 1.387 . S
H1076 C1083 0.950 . S
C1077 C1075 1.387 . S
C1077 C1079 1.390 . S
C1077 H1081 0.950 . S
H1078 C1074 0.950 . S
C1079 C1077 1.390 . S
C1079 C1080 1.387 . S
C1079 H1082 0.950 . S
C1080 C1079 1.387 . S
C1080 C1083 1.387 . S
H1081 C1077 0.950 . S
H1082 C1079 0.950 . S
C1083 C1074 1.390 . S
C1083 H1076 0.950 . S
C1083 C1080 1.387 . S
C1084 C1085 1.387 . S
C1084 H1088 0.950 . S
C1084 C1093 1.390 . S
C1085 C1084 1.387 . S
C1085 C1087 1.387 . S
H1086 C1093 0.950 . S
C1087 C1085 1.387 . S
C1087 C1089 1.390 . S
C1087 H1091 0.950 . S
H1088 C1084 0.950 . S
C1089 C1087 1.390 . S
C1089 C1090 1.387 . S
C1089 H1092 0.950 . S
C1090 C1089 1.387 . S
C1090 C1093 1.387 . S
H1091 C1087 0.950 . S
H1092 C1089 0.950 . S
C1093 C1084 1.390 . S
C1093 H1086 0.950 . S
C1093 C1090 1.387 . S
C1094 C1095 1.387 . S
C1094 H1098 0.950 . S
C1094 C1103 1.390 . S
C1095 C1094 1.387 . S
C1095 C1097 1.387 . S
H1096 C1103 0.950 . S
C1097 C1095 1.387 . S
C1097 C1099 1.390 . S
C1097 H1101 0.950 . S
H1098 C1094 0.950 . S
C1099 C1097 1.390 . S
C1099 C1100 1.387 . S
C1099 H1102 0.950 . S
C1100 C1099 1.387 . S
C1100 C1103 1.387 . S
H1101 C1097 0.950 . S
H1102 C1099 0.950 . S
C1103 C1094 1.390 . S
C1103 H1096 0.950 . S
C1103 C1100 1.387 . S
C1104 C1105 1.387 . S
C1104 H1108 0.950 . S
C1104 C1113 1.390 . S
C1105 C1104 1.387 . S
C1105 C1107 1.387 . S
H1106 C1113 0.950 . S
C1107 C1105 1.387 . S
C1107 C1109 1.390 . S
C1107 H1111 0.950 . S
H1108 C1104 0.950 . S
C1109 C1107 1.390 . S
C1109 C1110 1.387 . S
C1109 H1112 0.950 . S
C1110 C1109 1.387 . S
C1110 C1113 1.387 . S
H1111 C1107 0.950 . S
H1112 C1109 0.950 . S
C1113 C1104 1.390 . S
C1113 H1106 0.950 . S
C1113 C1110 1.387 . S
C1114 C1115 1.387 . S
C1114 H1118 0.950 . S
C1114 C1123 1.390 . S
C1115 C1114 1.387 . S
C1115 C1117 1.387 . S
H1116 C1123 0.950 . S
C1117 C1115 1.387 . S
C1117 C1119 1.390 . S
C1117 H1121 0.950 . S
H1118 C1114 0.950 . S
C1119 C1117 1.390 . S
C1119 C1120 1.387 . S
C1119 H1122 0.950 . S
C1120 C1119 1.387 . S
C1120 C1123 1.387 . S
H1121 C1117 0.950 . S
H1122 C1119 0.950 . S
C1123 C1114 1.390 . S
C1123 H1116 0.950 . S
C1123 C1120 1.387 . S
C1124 C1125 1.387 . S
C1124 H1128 0.950 . S
C1124 C1133 1.390 . S
C1125 C1124 1.387 . S
C1125 C1127 1.387 . S
H1126 C1133 0.950 . S
C1127 C1125 1.387 . S
C1127 C1129 1.390 . S
C1127 H1131 0.950 . S
H1128 C1124 0.950 . S
C1129 C1127 1.390 . S
C1129 C1130 1.387 . S
C1129 H1132 0.950 . S
C1130 C1129 1.387 . S
C1130 C1133 1.387 . S
H1131 C1127 0.950 . S
H1132 C1129 0.950 . S
C1133 C1124 1.390 . S
C1133 H1126 0.950 . S
C1133 C1130 1.387 . S
C1134 C1135 1.387 . S
C1134 H1138 0.950 . S
C1134 C1143 1.390 . S
C1135 C1134 1.387 . S
C1135 C1137 1.387 . S
H1136 C1143 0.950 . S
C1137 C1135 1.387 . S
C1137 C1139 1.390 . S
C1137 H1141 0.950 . S
H1138 C1134 0.950 . S
C1139 C1137 1.390 . S
C1139 C1140 1.387 . S
C1139 H1142 0.950 . S
C1140 C1139 1.387 . S
C1140 C1143 1.387 . S
H1141 C1137 0.950 . S
H1142 C1139 0.950 . S
C1143 C1134 1.390 . S
C1143 H1136 0.950 . S
C1143 C1140 1.387 . S
C1144 C1145 1.387 . S
C1144 H1148 0.950 . S
C1144 C1153 1.390 . S
C1145 C1144 1.387 . S
C1145 C1147 1.387 . S
H1146 C1153 0.950 . S
C1147 C1145 1.387 . S
C1147 C1149 1.390 . S
C1147 H1151 0.950 . S
H1148 C1144 0.950 . S
C1149 C1147 1.390 . S
C1149 C1150 1.387 . S
C1149 H1152 0.950 . S
C1150 C1149 1.387 . S
C1150 C1153 1.387 . S
H1151 C1147 0.950 . S
H1152 C1149 0.950 . S
C1153 C1144 1.390 . S
C1153 H1146 0.950 . S
C1153 C1150 1.387 . S
C1154 C1155 1.387 . S
C1154 H1158 0.950 . S
C1154 C1163 1.390 . S
C1155 C1154 1.387 . S
C1155 C1157 1.387 . S
H1156 C1163 0.950 . S
C1157 C1155 1.387 . S
C1157 C1159 1.390 . S
C1157 H1161 0.950 . S
H1158 C1154 0.950 . S
C1159 C1157 1.390 . S
C1159 C1160 1.387 . S
C1159 H1162 0.950 . S
C1160 C1159 1.387 . S
C1160 C1163 1.387 . S
H1161 C1157 0.950 . S
H1162 C1159 0.950 . S
C1163 C1154 1.390 . S
C1163 H1156 0.950 . S
C1163 C1160 1.387 . S
C1164 C1165 1.387 . S
C1164 H1168 0.950 . S
C1164 C1173 1.390 1_556 S
C1165 C1164 1.387 . S
C1165 C1167 1.387 1_455 S
H1166 C1173 0.950 . S
C1167 C1165 1.387 1_655 S
C1167 C1169 1.390 1_556 S
C1167 H1171 0.950 . S
H1168 C1164 0.950 . S
C1169 C1167 1.390 1_554 S
C1169 C1170 1.387 . S
C1169 H1172 0.950 . S
C1170 C1169 1.387 . S
C1170 C1173 1.387 1_655 S
H1171 C1167 0.950 . S
H1172 C1169 0.950 . S
C1173 C1164 1.390 1_554 S
C1173 H1166 0.950 . S
C1173 C1170 1.387 1_455 S
C1174 C1175 1.387 . S
C1174 H1178 0.950 . S
C1174 C1183 1.390 1_554 S
C1175 C1174 1.387 . S
C1175 C1177 1.387 . S
H1176 C1183 0.950 . S
C1177 C1175 1.387 . S
C1177 C1179 1.390 1_554 S
C1177 H1181 0.950 . S
H1178 C1174 0.950 . S
C1179 C1177 1.390 1_556 S
C1179 C1180 1.387 . S
C1179 H1182 0.950 . S
C1180 C1179 1.387 . S
C1180 C1183 1.387 . S
H1181 C1177 0.950 . S
H1182 C1179 0.950 . S
C1183 C1174 1.390 1_556 S
C1183 H1176 0.950 . S
C1183 C1180 1.387 . S
C1184 C1185 1.387 . S
C1184 H1188 0.950 . S
C1184 C1193 1.390 1_544 S
C1185 C1184 1.387 . S
C1185 C1187 1.387 . S
H1186 C1193 0.950 . S
C1187 C1185 1.387 . S
C1187 C1189 1.390 1_544 S
C1187 H1191 0.950 . S
H1188 C1184 0.950 . S
C1189 C1187 1.390 1_566 S
C1189 C1190 1.387 . S
C1189 H1192 0.950 . S
C1190 C1189 1.387 . S
C1190 C1193 1.387 . S
H1191 C1187 0.950 . S
H1192 C1189 0.950 . S
C1193 C1184 1.390 1_566 S
C1193 H1186 0.950 . S
C1193 C1190 1.387 . S
C1194 C1195 1.387 . S
C1194 H1198 0.950 . S
C1194 C1203 1.390 1_566 S
C1195 C1194 1.387 . S
C1195 C1197 1.387 . S
H1196 C1203 0.950 . S
C1197 C1195 1.387 . S
C1197 C1199 1.390 1_566 S
C1197 H1201 0.950 . S
H1198 C1194 0.950 . S
C1199 C1197 1.390 1_544 S
C1199 C1200 1.387 . S
C1199 H1202 0.950 . S
C1200 C1199 1.387 . S
C1200 C1203 1.387 . S
H1201 C1197 0.950 . S
H1202 C1199 0.950 . S
C1203 C1194 1.390 1_544 S
C1203 H1196 0.950 . S
C1203 C1200 1.387 . S
C1204 C1205 1.387 1_655 S
C1204 H1208 0.950 . S
C1204 C1213 1.390 1_556 S
C1205 C1204 1.387 1_455 S
C1205 C1207 1.387 . S
H1206 C1213 0.950 . S
C1207 C1205 1.387 . S
C1207 C1209 1.390 1_556 S
C1207 H1211 0.950 . S
H1208 C1204 0.950 . S
C1209 C1207 1.390 1_554 S
C1209 C1210 1.387 1_455 S
C1209 H1212 0.950 . S
C1210 C1209 1.387 1_655 S
C1210 C1213 1.387 . S
H1211 C1207 0.950 . S
H1212 C1209 0.950 . S
C1213 C1204 1.390 1_554 S
C1213 H1206 0.950 . S
C1213 C1210 1.387 . S
C1214 C1215 1.390 . S
C1214 H1218 0.950 . S
C1214 C1223 1.388 1_554 S
C1215 C1214 1.390 . S
C1215 C1217 1.387 . S
H1216 C1223 0.950 . S
C1217 C1215 1.387 . S
C1217 C1219 1.388 1_554 S
C1217 H1221 0.950 . S
H1218 C1214 0.950 . S
C1219 C1217 1.388 1_556 S
C1219 C1220 1.390 . S
C1219 H1222 0.950 . S
C1220 C1219 1.390 . S
C1220 C1223 1.387 . S
H1221 C1217 0.950 . S
H1222 C1219 0.950 . S
C1223 C1214 1.388 1_556 S
C1223 H1216 0.950 . S
C1223 C1220 1.387 . S
C505 C5 1.386 . S
C510 C159 1.386 . S
C515 C19 1.387 . S
C520 C131 1.385 . S
C525 C145 1.385 . S
C530 C33 1.386 . S
C535 C47 1.387 . S
C540 C103 1.385 . S
C545 C117 1.385 . S
C550 C61 1.386 . S
C555 C75 1.386 . S
C560 C89 1.386 . S
C565 C327 1.386 . S
C570 C173 1.386 . S
C575 C187 1.387 . S
C580 C299 1.385 . S
C585 C201 1.385 . S
C590 C313 1.386 . S
C595 C271 1.385 . S
C600 C215 1.387 . S
C605 C229 1.385 . S
C610 C285 1.387 . S
C615 C257 1.386 . S
C620 C243 1.386 . S
C625 C341 1.385 . S
C630 C495 1.386 . S
C635 C467 1.385 . S
C640 C355 1.387 . S
C645 C481 1.387 . S
C650 C369 1.385 . S
C655 C439 1.387 . S
C660 C383 1.385 . S
C665 C453 1.386 . S
C670 C397 1.385 . S
C675 C425 1.386 . S
C680 C411 1.386 . S
C685 C11 1.426 . S
C690 C67 1.426 . S
C695 C81 1.429 . S
C700 C25 1.429 . S
C705 C39 1.429 . S
C710 C53 1.429 . S
C715 C95 1.426 . S
C720 C151 1.426 . S
C725 C109 1.426 . S
C730 C165 1.426 . S
C735 C123 1.426 . S
C740 C137 1.426 . S
C745 C235 1.427 . S
C750 C179 1.427 . S
C755 C249 1.428 . S
C760 C193 1.428 . S
C765 C207 1.429 . S
C770 C221 1.429 . S
C775 C319 1.428 . S
C780 C263 1.428 . S
C785 C333 1.429 . S
C790 C277 1.429 . S
C795 C291 1.426 . S
C800 C305 1.426 . S
C805 C403 1.427 . S
C810 C347 1.427 . S
C815 C361 1.427 . S
C820 C417 1.427 . S
C825 C375 1.426 . S
C830 C389 1.426 . S
C835 C487 1.427 . S
C840 C431 1.427 . S
C845 C445 1.429 . S
C850 C501 1.429 . S
C855 C473 1.429 . S
C860 C459 1.429 . S
C865 C415 1.173 . S
C870 C9 1.173 . S
C875 C23 1.174 . S
C880 C387 1.174 . S
C885 C37 1.174 . S
C890 C401 1.174 . S
C895 C51 1.175 . S
C900 C191 1.175 . S
C905 C205 1.173 . S
C910 C65 1.173 . S
C915 C177 1.175 . S
C920 C79 1.175 . S
C925 C93 1.173 . S
C930 C331 1.173 . S
C935 C107 1.174 . S
C940 C303 1.174 . S
C945 C121 1.175 . S
C950 C317 1.175 . S
C955 C443 1.173 . S
C960 C135 1.174 . S
C965 C457 1.173 . S
C970 C149 1.173 . S
C975 C163 1.174 . S
C980 C429 1.174 . S
C985 C359 1.175 . S
C990 C219 1.174 . S
C995 C233 1.173 . S
C1000 C373 1.174 . S
C1005 C345 1.175 . S
C1010 C247 1.175 . S
C1015 C499 1.175 . S
C1020 C261 1.175 . S
C1025 C275 1.175 . S
C1030 C471 1.175 . S
C1035 C289 1.174 . S
C1040 C485 1.173 . S
C1045 C0 1.636 . S
C1050 C406 1.636 . S
C1055 C378 1.637 . S
C1060 C14 1.638 . S
C1065 C28 1.637 . S
C1070 C392 1.638 . S
C1075 C182 1.636 . S
C1080 C42 1.637 . S
C1085 C56 1.636 . S
C1090 C196 1.637 . S
C1095 C70 1.637 . S
C1100 C168 1.637 . S
C1105 C322 1.637 . S
C1110 C84 1.637 . S
C1115 C98 1.638 . S
C1120 C294 1.637 . S
C1125 C112 1.636 . S
C1130 C308 1.636 . S
C1135 C126 1.637 . S
C1140 C434 1.636 . S
C1145 C448 1.636 . S
C1150 C140 1.636 . S
C1155 C154 1.637 . S
C1160 C420 1.637 . S
C1165 C350 1.638 . S
C1170 C210 1.637 . S
C1175 C224 1.636 . S
C1180 C364 1.637 . S
C1185 C238 1.637 . S
C1190 C336 1.637 . S
C1195 C490 1.637 . S
C1200 C252 1.637 . S
C1205 C462 1.636 . S
C1210 C266 1.636 . S
C1215 C280 1.636 . S
C1220 C476 1.638 . S
