# Generated by pormake.
# Topology upa, (4)-cn, num edge types: 1
# Building blocks:
#     Node 0, Type 0, BuildingBlock: GALJAG_clean_sbu_0, # of connection points: 4
#     Node 1, Type 0, BuildingBlock: GALJAG_clean_sbu_0, # of connection points: 4
#     Node 2, Type 0, BuildingBlock: GALJAG_clean_sbu_0, # of connection points: 4
#     Node 3, Type 0, BuildingBlock: GALJAG_clean_sbu_0, # of connection points: 4
#     Node 4, Type 0, BuildingBlock: GALJAG_clean_sbu_0, # of connection points: 4
#     Node 5, Type 0, BuildingBlock: GALJAG_clean_sbu_0, # of connection points: 4
#     Node 6, Type 0, BuildingBlock: GALJAG_clean_sbu_0, # of connection points: 4
#     Node 7, Type 0, BuildingBlock: GALJAG_clean_sbu_0, # of connection points: 4
#     Edge 8, Type (0, 0), BuildingBlock: XUDNAN_clean_linker_2, # of connection points: 2
#     Edge 9, Type (0, 0), BuildingBlock: XUDNAN_clean_linker_2, # of connection points: 2
#     Edge 10, Type (0, 0), BuildingBlock: XUDNAN_clean_linker_2, # of connection points: 2
#     Edge 11, Type (0, 0), BuildingBlock: XUDNAN_clean_linker_2, # of connection points: 2
#     Edge 12, Type (0, 0), BuildingBlock: XUDNAN_clean_linker_2, # of connection points: 2
#     Edge 13, Type (0, 0), BuildingBlock: XUDNAN_clean_linker_2, # of connection points: 2
#     Edge 14, Type (0, 0), BuildingBlock: XUDNAN_clean_linker_2, # of connection points: 2
#     Edge 15, Type (0, 0), BuildingBlock: XUDNAN_clean_linker_2, # of connection points: 2
#     Edge 16, Type (0, 0), BuildingBlock: XUDNAN_clean_linker_2, # of connection points: 2
#     Edge 17, Type (0, 0), BuildingBlock: XUDNAN_clean_linker_2, # of connection points: 2
#     Edge 18, Type (0, 0), BuildingBlock: XUDNAN_clean_linker_2, # of connection points: 2
#     Edge 19, Type (0, 0), BuildingBlock: XUDNAN_clean_linker_2, # of connection points: 2
#     Edge 20, Type (0, 0), BuildingBlock: XUDNAN_clean_linker_2, # of connection points: 2
#     Edge 21, Type (0, 0), BuildingBlock: XUDNAN_clean_linker_2, # of connection points: 2
#     Edge 22, Type (0, 0), BuildingBlock: XUDNAN_clean_linker_2, # of connection points: 2
#     Edge 23, Type (0, 0), BuildingBlock: XUDNAN_clean_linker_2, # of connection points: 2
# Relax obj value: 0.230
# Max RMSD: 0.125
# Mean RMSD: 0.125
data_MOF--net-upa--node1-GALJAG_clean_sbu_0--edge1-XUDNAN_clean_linker_2
_symmetry_space_group_name_H-M    P1
_symmetry_Int_Tables_number       1
_symmetry_cell_setting            triclinic
loop_
_symmetry_equiv_pos_as_xyz
'x, y, z'
_cell_length_a     26.664349
_cell_length_b     26.604343
_cell_length_c     42.275433
_cell_angle_alpha  89.969827
_cell_angle_beta   90.084547
_cell_angle_gamma 90.13971
loop_
_atom_site_label
_atom_site_type_symbol
_atom_site_fract_x
_atom_site_fract_y
_atom_site_fract_z
_atom_type_partial_charge
In0 In 0.19444 0.21442 0.33113 0.0
O1 O 0.19061 0.26444 0.37471 0.0
O2 O 0.21702 0.18972 0.38102 0.0
C3 C 0.11587 0.26702 0.30777 0.0
C4 C 0.28931 0.22795 0.30926 0.0
C5 C 0.14884 0.12703 0.31723 0.0
O6 O 0.11362 0.24072 0.33249 0.0
O7 O 0.15912 0.2702 0.29569 0.0
O8 O 0.16235 0.15797 0.29622 0.0
O9 O 0.16329 0.13771 0.34491 0.0
C10 C 0.20711 0.23159 0.3936 0.0
O11 O 0.26632 0.18673 0.30612 0.0
O12 O 0.26393 0.26223 0.32207 0.0
In13 In 0.29772 0.69519 0.83822 0.0
O14 O 0.324 0.76707 0.8132 0.0
O15 O 0.24577 0.75748 0.82211 0.0
C16 C 0.38321 0.64662 0.85256 0.0
C17 C 0.27285 0.72474 0.89681 0.0
C18 C 0.26221 0.6239 0.79838 0.0
O19 O 0.3804 0.67568 0.82897 0.0
O20 O 0.34415 0.64394 0.8691 0.0
O21 O 0.24416 0.62927 0.82585 0.0
O22 O 0.29446 0.65642 0.7909 0.0
C23 C 0.28034 0.78545 0.81159 0.0
O24 O 0.24898 0.68992 0.88276 0.0
O25 O 0.30836 0.74416 0.8812 0.0
In26 In 0.81591 0.8081 0.33476 0.0
O27 O 0.73301 0.82535 0.32385 0.0
O28 O 0.77023 0.77287 0.29454 0.0
C29 C 0.86294 0.898 0.33332 0.0
C30 C 0.79323 0.78226 0.39495 0.0
C31 C 0.8966 0.76099 0.3099 0.0
O32 O 0.82753 0.88707 0.31467 0.0
O33 O 0.87157 0.86527 0.3542 0.0
O34 O 0.87364 0.74366 0.3337 0.0
O35 O 0.87698 0.79955 0.29791 0.0
C36 C 0.73037 0.79642 0.30033 0.0
O37 O 0.80678 0.75043 0.3745 0.0
O38 O 0.79042 0.82686 0.38488 0.0
In39 In 0.69763 0.30827 0.83537 0.0
O40 O 0.65644 0.24637 0.80816 0.0
O41 O 0.73599 0.24303 0.80949 0.0
C42 C 0.61902 0.36688 0.85072 0.0
C43 C 0.71879 0.27044 0.89312 0.0
C44 C 0.74707 0.38278 0.80448 0.0
O45 O 0.6211 0.34356 0.82474 0.0
O46 O 0.65492 0.3584 0.86932 0.0
O47 O 0.76745 0.35831 0.8267 0.0
O48 O 0.70431 0.36695 0.79665 0.0
C49 C 0.69552 0.22263 0.80055 0.0
O50 O 0.74565 0.30412 0.88036 0.0
O51 O 0.68224 0.25555 0.87653 0.0
In52 In 0.69419 0.29558 0.18011 0.0
O53 O 0.76453 0.34005 0.19281 0.0
O54 O 0.7618 0.26318 0.20674 0.0
C55 C 0.6301 0.3699 0.16517 0.0
C56 C 0.71866 0.26061 0.12233 0.0
C57 C 0.62909 0.25934 0.22357 0.0
O58 O 0.66492 0.37619 0.18511 0.0
O59 O 0.62949 0.32744 0.15205 0.0
O60 O 0.63546 0.23766 0.19724 0.0
O61 O 0.65832 0.29583 0.22853 0.0
C62 C 0.78656 0.3038 0.20618 0.0
O63 O 0.69903 0.23241 0.14312 0.0
O64 O 0.7271 0.30507 0.13128 0.0
In65 In 0.2035 0.19446 0.68374 0.0
O66 O 0.17845 0.26619 0.70923 0.0
O67 O 0.25609 0.25746 0.69826 0.0
C68 C 0.11873 0.14413 0.67001 0.0
C69 C 0.22391 0.22273 0.62424 0.0
C70 C 0.24001 0.1244 0.72387 0.0
O71 O 0.12058 0.1749 0.69279 0.0
O72 O 0.15843 0.1404 0.65419 0.0
O73 O 0.25874 0.13054 0.69662 0.0
O74 O 0.20645 0.15562 0.73099 0.0
C75 C 0.22207 0.28506 0.70968 0.0
O76 O 0.24916 0.18865 0.63796 0.0
O77 O 0.18966 0.24239 0.64074 0.0
In78 In 0.31557 0.70769 0.18378 0.0
O79 O 0.25864 0.67096 0.21702 0.0
O80 O 0.24941 0.74845 0.20727 0.0
C81 C 0.36064 0.61746 0.17942 0.0
C82 C 0.28329 0.7349 0.12568 0.0
C83 C 0.40093 0.75743 0.19958 0.0
O84 O 0.36556 0.64553 0.20324 0.0
O85 O 0.3306 0.63351 0.15872 0.0
O86 O 0.38977 0.745 0.17169 0.0
O87 O 0.36707 0.74822 0.21967 0.0
C88 C 0.2328 0.70993 0.22119 0.0
O89 O 0.30242 0.7661 0.14481 0.0
O90 O 0.27918 0.69077 0.13632 0.0
In91 In 0.79919 0.80914 0.68436 0.0
O92 O 0.84009 0.74572 0.71015 0.0
O93 O 0.76053 0.74293 0.7096 0.0
C94 C 0.88107 0.86498 0.67081 0.0
C95 C 0.77591 0.77803 0.62531 0.0
C96 C 0.74968 0.88324 0.71534 0.0
O97 O 0.87486 0.84475 0.69752 0.0
O98 O 0.84778 0.8546 0.65073 0.0
O99 O 0.72873 0.85765 0.69381 0.0
O100 O 0.7931 0.86872 0.72246 0.0
C101 C 0.80097 0.72201 0.71792 0.0
O102 O 0.75397 0.81471 0.63833 0.0
O103 O 0.80823 0.75643 0.64239 0.0
H104 H 0.11625 0.05265 0.35713 0.0
H105 H 0.08933 0.11933 0.26496 0.0
H106 H 0.01107 0.07033 0.25997 0.0
H107 H 0.06575 0.92672 0.33682 0.0
H108 H 0.03977 0.91809 0.37579 0.0
H109 H 0.09545 0.95566 0.37058 0.0
H110 H 0.05128 0.02981 0.39889 0.0
H111 H 0.995 0.99297 0.40333 0.0
H112 H 0.99257 0.05297 0.38358 0.0
H113 H 0.93189 0.02001 0.26722 0.0
H114 H 0.8639 0.96156 0.28245 0.0
H115 H 0.94338 0.92651 0.36935 0.0
C116 C 0.09461 0.05582 0.33552 0.0
C117 C 0.10905 0.08949 0.31135 0.0
C118 C 0.0794 0.09319 0.28359 0.0
C119 C 0.03459 0.06589 0.28067 0.0
C120 C 0.02039 0.03455 0.3055 0.0
C121 C 0.05009 0.02841 0.33205 0.0
C122 C 0.02609 0.99255 0.35541 0.0
C123 C 0.0587 0.94546 0.3599 0.0
C124 C 0.01562 0.01866 0.38717 0.0
C125 C 0.97784 0.98027 0.33813 0.0
C126 C 0.97511 1.0051 0.30947 0.0
C127 C 0.9338 1.00001 0.28948 0.0
C128 C 0.89514 0.96713 0.29848 0.0
C129 C 0.89828 0.93966 0.32712 0.0
C130 C 0.93975 0.94725 0.34741 0.0
H131 H 0.4376 0.59533 0.8087 0.0
H132 H 0.41994 0.61811 0.90956 0.0
H133 H 0.47943 0.54892 0.92011 0.0
H134 H 0.43602 0.46394 0.81258 0.0
H135 H 0.48116 0.45384 0.78154 0.0
H136 H 0.44313 0.50967 0.78142 0.0
H137 H 0.52281 0.56577 0.77999 0.0
H138 H 0.56086 0.50994 0.77921 0.0
H139 H 0.57104 0.55679 0.80937 0.0
H140 H 0.53701 0.47508 0.91973 0.0
H141 H 0.59095 0.40185 0.90845 0.0
H142 H 0.5659 0.42253 0.80786 0.0
C143 C 0.44781 0.5868 0.83292 0.0
C144 C 0.42544 0.61256 0.85839 0.0
C145 C 0.43763 0.59917 0.88984 0.0
C146 C 0.4711 0.55988 0.89602 0.0
C147 C 0.49128 0.53395 0.87043 0.0
C148 C 0.48029 0.54686 0.8395 0.0
C149 C 0.50389 0.51035 0.81644 0.0
C150 C 0.46364 0.48283 0.79685 0.0
C151 C 0.54192 0.53733 0.79499 0.0
C152 C 0.52972 0.47489 0.83925 0.0
C153 C 0.52225 0.48946 0.87026 0.0
C154 C 0.5431 0.46322 0.89556 0.0
C155 C 0.5734 0.4216 0.88896 0.0
C156 C 0.58186 0.40628 0.85737 0.0
C157 C 0.55914 0.43287 0.83226 0.0
H158 H 0.60557 0.45065 0.20223 0.0
H159 H 0.56117 0.36935 0.11769 0.0
H160 H 0.48574 0.42241 0.11303 0.0
H161 H 0.48363 0.46209 0.23434 0.0
H162 H 0.49297 0.52443 0.24999 0.0
H163 H 0.54556 0.48264 0.24571 0.0
H164 H 0.59192 0.54869 0.2113 0.0
H165 H 0.53987 0.59105 0.21599 0.0
H166 H 0.56107 0.57431 0.17693 0.0
H167 H 0.41395 0.48201 0.11848 0.0
H168 H 0.35295 0.54843 0.13189 0.0
H169 H 0.44268 0.58908 0.21377 0.0
C170 C 0.5805 0.44479 0.18238 0.0
C171 C 0.58927 0.40623 0.16017 0.0
C172 C 0.55517 0.39892 0.13487 0.0
C173 C 0.51216 0.42869 0.13209 0.0
C174 C 0.50378 0.46542 0.15489 0.0
C175 C 0.53714 0.47392 0.17939 0.0
C176 C 0.51856 0.51502 0.20115 0.0
C177 C 0.50965 0.49481 0.23478 0.0
C178 C 0.55502 0.55993 0.20134 0.0
C179 C 0.46959 0.52819 0.18503 0.0
C180 C 0.46177 0.49912 0.15841 0.0
C181 C 0.41958 0.50502 0.13929 0.0
C182 C 0.38506 0.5426 0.14717 0.0
C183 C 0.39294 0.5735 0.17397 0.0
C184 C 0.43533 0.56552 0.19339 0.0
H185 H 0.0613 0.09499 0.71363 0.0
H186 H 0.08484 0.11359 0.61288 0.0
H187 H 0.0259 0.04384 0.60214 0.0
H188 H 0.06233 0.96357 0.7122 0.0
H189 H 0.01514 0.95468 0.74218 0.0
H190 H 0.05332 0.0106 0.74233 0.0
H191 H 0.97384 0.06659 0.74065 0.0
H192 H 0.93561 0.01071 0.74148 0.0
H193 H 0.92751 0.05616 0.71024 0.0
H194 H 0.9691 0.96955 0.60235 0.0
H195 H 0.91421 0.89675 0.6134 0.0
H196 H 0.93171 0.92228 0.7142 0.0
C197 C 0.05245 0.08544 0.68935 0.0
C198 C 0.07643 0.11009 0.66398 0.0
C199 C 0.06596 0.09545 0.6325 0.0
C200 C 0.03282 0.05582 0.62622 0.0
C201 C 0.01113 0.0309 0.65174 0.0
C202 C 0.02017 0.0452 0.68269 0.0
C203 C 0.99493 0.00963 0.70575 0.0
C204 C 0.03376 0.98306 0.72685 0.0
C205 C 0.95562 0.03744 0.7257 0.0
C206 C 0.97049 0.97313 0.68292 0.0
C207 C 0.98016 0.98631 0.6519 0.0
C208 C 0.9612 0.95881 0.62652 0.0
C209 C 0.93036 0.91741 0.63302 0.0
C210 C 0.91935 0.90367 0.6646 0.0
C211 C 0.94035 0.93143 0.68984 0.0
H212 H 0.23858 0.16584 0.43974 0.0
H213 H 0.18988 0.3196 0.42471 0.0
H214 H 0.19758 0.33607 0.48192 0.0
H215 H 0.17234 0.14616 0.51078 0.0
H216 H 0.22024 0.10857 0.52932 0.0
H217 H 0.215 0.10997 0.48689 0.0
H218 H 0.30794 0.13786 0.48273 0.0
H219 H 0.31338 0.13677 0.52523 0.0
H220 H 0.32879 0.19316 0.50364 0.0
H221 H 0.20289 0.33402 0.54063 0.0
H222 H 0.2052 0.31334 0.59755 0.0
H223 H 0.25329 0.16189 0.57527 0.0
C224 C 0.23017 0.20315 0.44847 0.0
C225 C 0.21373 0.24152 0.42778 0.0
C226 C 0.2026 0.28968 0.44011 0.0
C227 C 0.20704 0.29945 0.47256 0.0
C228 C 0.22299 0.26078 0.49237 0.0
C229 C 0.23452 0.2136 0.48086 0.0
C230 C 0.24816 0.17798 0.50755 0.0
C231 C 0.21176 0.13303 0.5087 0.0
C232 C 0.30283 0.16042 0.5046 0.0
C233 C 0.24139 0.21223 0.53588 0.0
C234 C 0.22712 0.25991 0.52649 0.0
C235 C 0.21488 0.29712 0.54828 0.0
C236 C 0.21627 0.28506 0.58052 0.0
C237 C 0.23018 0.23636 0.59068 0.0
C238 C 0.2439 0.19981 0.5681 0.0
H239 H 0.23783 0.66606 0.94528 0.0
H240 H 0.28976 0.8164 0.92291 0.0
H241 H 0.28623 0.83913 0.97949 0.0
H242 H 0.15625 0.70012 0.01447 0.0
H243 H 0.17501 0.64494 0.03618 0.0
H244 H 0.17224 0.64333 0.99357 0.0
H245 H 0.26487 0.61424 0.99176 0.0
H246 H 0.268 0.61599 0.03422 0.0
H247 H 0.31236 0.6516 0.0111 0.0
H248 H 0.28737 0.84253 0.03852 0.0
H249 H 0.29598 0.8253 0.09572 0.0
H250 H 0.24617 0.6719 0.08015 0.0
C251 C 0.24665 0.70424 0.95228 0.0
C252 C 0.26327 0.7398 0.92982 0.0
C253 C 0.27647 0.78883 0.93983 0.0
C254 C 0.27441 0.80212 0.97187 0.0
C255 C 0.25933 0.76582 0.99365 0.0
C256 C 0.24562 0.71785 0.98432 0.0
C257 C 0.23686 0.68419 0.01273 0.0
C258 C 0.18181 0.66715 0.01433 0.0
C259 C 0.27266 0.63886 0.01242 0.0
C260 C 0.24939 0.72022 0.03937 0.0
C261 C 0.26131 0.76738 0.0279 0.0
C262 C 0.27733 0.80598 0.04784 0.0
C263 C 0.28216 0.79587 0.08029 0.0
C264 C 0.2715 0.7474 0.09239 0.0
C265 C 0.25398 0.70952 0.07166 0.0
H266 H 0.74618 0.84033 0.57739 0.0
H267 H 0.79481 0.68808 0.59695 0.0
H268 H 0.79585 0.66988 0.5396 0.0
H269 H 0.66948 0.81272 0.50575 0.0
H270 H 0.6901 0.86923 0.48609 0.0
H271 H 0.68532 0.86771 0.52861 0.0
H272 H 0.77825 0.89552 0.53315 0.0
H273 H 0.78344 0.89677 0.49075 0.0
H274 H 0.82608 0.85903 0.51377 0.0
H275 H 0.79911 0.6706 0.4802 0.0
H276 H 0.80712 0.69092 0.42337 0.0
H277 H 0.76028 0.84399 0.44248 0.0
C278 C 0.75543 0.80271 0.56959 0.0
C279 C 0.76955 0.76527 0.59153 0.0
C280 C 0.78331 0.71704 0.58046 0.0
C281 C 0.78393 0.70638 0.54796 0.0
C282 C 0.77109 0.7445 0.52683 0.0
C283 C 0.75711 0.79174 0.53718 0.0
C284 C 0.75021 0.82754 0.50961 0.0
C285 C 0.69552 0.84534 0.50739 0.0
C286 C 0.78667 0.87234 0.51197 0.0
C287 C 0.7635 0.79339 0.48221 0.0
C288 C 0.77467 0.74544 0.4926 0.0
C289 C 0.78995 0.70788 0.47176 0.0
C290 C 0.79444 0.71978 0.43953 0.0
C291 C 0.78423 0.76897 0.42849 0.0
C292 C 0.76804 0.80596 0.45016 0.0
H293 H 0.7662 0.32021 0.94127 0.0
H294 H 0.68448 0.18344 0.91961 0.0
H295 H 0.68611 0.15976 0.97616 0.0
H296 H 0.84298 0.26997 0.00825 0.0
H297 H 0.83677 0.32748 0.03041 0.0
H298 H 0.83708 0.32914 0.98778 0.0
H299 H 0.75188 0.37583 0.98815 0.0
H300 H 0.75125 0.3742 0.03065 0.0
H301 H 0.69934 0.34824 0.00866 0.0
H302 H 0.68824 0.15569 0.03573 0.0
H303 H 0.68714 0.17382 0.09317 0.0
H304 H 0.76484 0.31457 0.07584 0.0
C305 C 0.75015 0.2845 0.94833 0.0
C306 C 0.72589 0.25324 0.92608 0.0
C307 C 0.70368 0.20766 0.93631 0.0
C308 C 0.70457 0.19383 0.96835 0.0
C309 C 0.72763 0.22612 0.98991 0.0
C310 C 0.75004 0.27055 0.98031 0.0
C311 C 0.76702 0.30143 0.00846 0.0
C312 C 0.82438 0.30733 0.00873 0.0
C313 C 0.74079 0.35294 0.009 0.0
C314 C 0.74941 0.26819 0.03535 0.0
C315 C 0.72762 0.22446 0.02424 0.0
C316 C 0.70587 0.18947 0.04472 0.0
C317 C 0.70546 0.20001 0.07731 0.0
C318 C 0.72608 0.24543 0.08898 0.0
C319 C 0.74922 0.27926 0.06768 0.0
H320 H 0.54679 0.19783 0.21304 0.0
H321 H 0.6117 0.30196 0.28081 0.0
H322 H 0.53298 0.30153 0.31101 0.0
H323 H 0.42777 0.25009 0.21077 0.0
H324 H 0.39306 0.19195 0.20868 0.0
H325 H 0.45627 0.1949 0.19389 0.0
H326 H 0.48219 0.12146 0.23059 0.0
H327 H 0.41877 0.11766 0.24515 0.0
H328 H 0.47015 0.12573 0.27246 0.0
H329 H 0.44488 0.30078 0.32918 0.0
H330 H 0.35447 0.28977 0.33921 0.0
H331 H 0.34544 0.18155 0.26267 0.0
C332 C 0.54491 0.21917 0.2348 0.0
C333 C 0.58559 0.24982 0.24459 0.0
C334 C 0.58126 0.27804 0.27287 0.0
C335 C 0.53657 0.27819 0.29018 0.0
C336 C 0.49656 0.24933 0.27926 0.0
C337 C 0.50045 0.21937 0.25268 0.0
C338 C 0.45073 0.19352 0.24563 0.0
C339 C 0.4308 0.20853 0.21279 0.0
C340 C 0.45577 0.13618 0.24865 0.0
C341 C 0.41816 0.21488 0.27183 0.0
C342 C 0.44551 0.24722 0.29078 0.0
C343 C 0.42326 0.27472 0.31498 0.0
C344 C 0.37181 0.26853 0.32032 0.0
C345 C 0.34314 0.23458 0.30189 0.0
C346 C 0.36671 0.2072 0.2774 0.0
H347 H 0.32378 0.84147 0.76373 0.0
H348 H 0.21575 0.84837 0.84021 0.0
H349 H 0.20148 0.93818 0.82902 0.0
H350 H 0.37528 0.96785 0.77148 0.0
H351 H 0.37874 0.97901 0.72948 0.0
H352 H 0.38413 0.91593 0.74469 0.0
H353 H 0.31045 0.8871 0.70899 0.0
H354 H 0.30529 0.94988 0.69342 0.0
H355 H 0.25144 0.91987 0.71102 0.0
H356 H 0.1994 0.02611 0.81081 0.0
H357 H 0.19796 0.10516 0.78089 0.0
H358 H 0.30139 0.04217 0.7123 0.0
C359 C 0.29733 0.86218 0.77808 0.0
C360 C 0.27099 0.83833 0.80296 0.0
C361 C 0.23606 0.86606 0.82099 0.0
C362 C 0.22807 0.91713 0.81501 0.0
C363 C 0.25465 0.93976 0.79049 0.0
C364 C 0.28773 0.91316 0.77179 0.0
C365 C 0.30775 0.946 0.74517 0.0
C366 C 0.36487 0.95258 0.74788 0.0
C367 C 0.29283 0.92443 0.71273 0.0
C368 C 0.28063 0.99503 0.75191 0.0
C369 C 0.25114 0.99056 0.77863 0.0
C370 C 0.22216 0.03011 0.78978 0.0
C371 C 0.22179 0.07501 0.77261 0.0
C372 C 0.2495 0.07998 0.74418 0.0
C373 C 0.28018 0.03969 0.73407 0.0
H374 H 0.63142 0.80793 0.31729 0.0
H375 H 0.72821 0.77567 0.23752 0.0
H376 H 0.65419 0.77097 0.20242 0.0
H377 H 0.53568 0.72017 0.29466 0.0
H378 H 0.48447 0.75837 0.30849 0.0
H379 H 0.54524 0.76369 0.3268 0.0
H380 H 0.54558 0.85938 0.31533 0.0
H381 H 0.48496 0.85421 0.29667 0.0
H382 H 0.53692 0.88125 0.27532 0.0
H383 H 0.57072 0.77004 0.17601 0.0
H384 H 0.48212 0.76016 0.16086 0.0
H385 H 0.43742 0.78601 0.25821 0.0
C386 C 0.63686 0.80032 0.29237 0.0
C387 C 0.68546 0.79265 0.27995 0.0
C388 C 0.69126 0.78169 0.24742 0.0
C389 C 0.6495 0.77932 0.22729 0.0
C390 C 0.60209 0.78719 0.24017 0.0
C391 C 0.59534 0.79654 0.27203 0.0
C392 C 0.53993 0.79923 0.28013 0.0
C393 C 0.52549 0.7579 0.30392 0.0
C394 C 0.52605 0.85164 0.2926 0.0
C395 C 0.51669 0.78966 0.24788 0.0
C396 C 0.55339 0.7839 0.22512 0.0
C397 C 0.54162 0.7744 0.19361 0.0
C398 C 0.49106 0.7691 0.18522 0.0
C399 C 0.45273 0.77239 0.20831 0.0
C400 C 0.46581 0.78369 0.23998 0.0
H401 H 0.77154 0.15411 0.79451 0.0
H402 H 0.61485 0.17828 0.77158 0.0
H403 H 0.61022 0.09319 0.74808 0.0
H404 H 0.80359 0.08247 0.72482 0.0
H405 H 0.84461 0.04038 0.74586 0.0
H406 H 0.83615 0.10374 0.75976 0.0
H407 H 0.80927 0.06997 0.81464 0.0
H408 H 0.81779 0.00646 0.801 0.0
H409 H 0.75836 0.02545 0.81731 0.0
H410 H 0.62355 1.00456 0.72644 0.0
H411 H 0.65389 0.92089 0.70905 0.0
H412 H 0.80006 0.95433 0.74912 0.0
C413 C 0.7364 0.14174 0.78423 0.0
C414 C 0.69364 0.17298 0.78464 0.0
C415 C 0.64815 0.15505 0.77138 0.0
C416 C 0.64514 0.10674 0.75804 0.0
C417 C 0.68783 0.07657 0.75839 0.0
C418 C 0.73259 0.09345 0.77119 0.0
C419 C 0.77272 0.05342 0.76934 0.0
C420 C 0.81686 0.07109 0.74871 0.0
C421 C 0.79056 0.03792 0.80255 0.0
C422 C 0.74368 0.01141 0.75348 0.0
C423 C 0.69485 0.0254 0.74714 0.0
C424 C 0.66163 0.99312 0.73153 0.0
C425 C 0.67906 0.94563 0.72183 0.0
C426 C 0.72904 0.93078 0.72811 0.0
C427 C 0.76133 0.96411 0.74445 0.0
H428 H 0.0236 0.22422 0.31029 0.0
H429 H 0.1054 0.34795 0.26782 0.0
H430 H 0.02854 0.37316 0.23864 0.0
H431 H 0.95742 0.19094 0.24053 0.0
H432 H 0.90088 0.17274 0.26091 0.0
H433 H 0.96061 0.16774 0.28055 0.0
H434 H 0.9281 0.2233 0.32639 0.0
H435 H 0.86811 0.22835 0.30701 0.0
H436 H 0.90225 0.28436 0.31778 0.0
H437 H 0.94202 0.38427 0.21432 0.0
H438 H 0.85559 0.37701 0.19351 0.0
H439 H 0.83324 0.24136 0.24874 0.0
C440 C 0.02506 0.25728 0.29535 0.0
C441 C 0.07 0.28497 0.29177 0.0
C442 C 0.07106 0.32679 0.27113 0.0
C443 C 0.02765 0.34127 0.25453 0.0
C444 C 0.98395 0.31283 0.25841 0.0
C445 C 0.9826 0.27137 0.27808 0.0
C446 C 0.9323 0.24484 0.27643 0.0
C447 C 0.93818 0.19089 0.26385 0.0
C448 C 0.90615 0.24527 0.30883 0.0
C449 C 0.90522 0.27801 0.25287 0.0
C450 C 0.93541 0.31738 0.24305 0.0
C451 C 0.9182 0.35348 0.22176 0.0
C452 C 0.86903 0.34909 0.21012 0.0
C453 C 0.83783 0.30851 0.21939 0.0
C454 C 0.85634 0.27258 0.24105 0.0
H455 H 0.17875 0.34064 0.75764 0.0
H456 H 0.28747 0.34828 0.68155 0.0
H457 H 0.30238 0.43788 0.69325 0.0
H458 H 0.12815 0.46696 0.75015 0.0
H459 H 0.12426 0.4777 0.79217 0.0
H460 H 0.11876 0.41478 0.77674 0.0
H461 H 0.19191 0.38565 0.81268 0.0
H462 H 0.19719 0.44829 0.82847 0.0
H463 H 0.25109 0.41846 0.81102 0.0
H464 H 0.30473 0.52572 0.71183 0.0
H465 H 0.30562 0.60471 0.74178 0.0
H466 H 0.20119 0.54095 0.80971 0.0
C467 C 0.2055 0.36145 0.74348 0.0
C468 C 0.23182 0.33785 0.71856 0.0
C469 C 0.26714 0.36574 0.70079 0.0
C470 C 0.27552 0.4167 0.70708 0.0
C471 C 0.24894 0.43907 0.73163 0.0
C472 C 0.21547 0.41231 0.75007 0.0
C473 C 0.19528 0.44488 0.7767 0.0
C474 C 0.13822 0.45146 0.77375 0.0
C475 C 0.20975 0.42302 0.80914 0.0
C476 C 0.2227 0.49399 0.77024 0.0
C477 C 0.25256 0.48977 0.74369 0.0
C478 C 0.28169 0.52951 0.73274 0.0
C479 C 0.28173 0.57439 0.74992 0.0
C480 C 0.25352 0.57916 0.77816 0.0
C481 C 0.22283 0.53861 0.78811 0.0
H482 H 0.1602 0.78264 0.22244 0.0
H483 H 0.19713 0.63524 0.25956 0.0
H484 H 0.11494 0.63152 0.28652 0.0
H485 H 0.09132 0.82761 0.29111 0.0
H486 H 0.04546 0.86028 0.26751 0.0
H487 H 0.10831 0.85222 0.25285 0.0
H488 H 0.07285 0.80993 0.20226 0.0
H489 H 0.00996 0.81741 0.21692 0.0
H490 H 0.03227 0.75595 0.20596 0.0
H491 H 0.02765 0.64402 0.30924 0.0
H492 H 0.94263 0.67177 0.32526 0.0
H493 H 0.96227 0.80866 0.27081 0.0
C494 C 0.15127 0.74988 0.23658 0.0
C495 C 0.18515 0.70937 0.23911 0.0
C496 C 0.17176 0.6668 0.25743 0.0
C497 C 0.12517 0.66433 0.2728 0.0
C498 C 0.09224 0.7046 0.26944 0.0
C499 C 0.10474 0.74658 0.25179 0.0
C500 C 0.0621 0.78403 0.25102 0.0
C501 C 0.07774 0.83398 0.26655 0.0
C502 C 0.04319 0.79229 0.21702 0.0
C503 C 0.02359 0.75647 0.27082 0.0
C504 C 0.04169 0.7109 0.28149 0.0
C505 C 0.01302 0.67953 0.30087 0.0
C506 C 0.96479 0.69546 0.30978 0.0
C507 C 0.94566 0.74197 0.29895 0.0
C508 C 0.9755 0.77248 0.27906 0.0
H509 H 0.69638 0.45335 0.77056 0.0
H510 H 0.84271 0.42119 0.81055 0.0
H511 H 0.87299 0.50475 0.7926 0.0
H512 H 0.73775 0.52354 0.70194 0.0
H513 H 0.68681 0.56778 0.70437 0.0
H514 H 0.67845 0.50449 0.71859 0.0
H515 H 0.65201 0.53882 0.77342 0.0
H516 H 0.66009 0.60218 0.75928 0.0
H517 H 0.69299 0.58147 0.79421 0.0
H518 H 0.88637 0.59294 0.77031 0.0
H519 H 0.88173 0.67781 0.74654 0.0
H520 H 0.72481 0.65306 0.72414 0.0
C521 C 0.73512 0.46341 0.77508 0.0
C522 C 0.7675 0.43043 0.79155 0.0
C523 C 0.81748 0.44565 0.79768 0.0
C524 C 0.83489 0.49306 0.78765 0.0
C525 C 0.80163 0.52496 0.77187 0.0
C526 C 0.75274 0.51069 0.76572 0.0
C527 C 0.72368 0.55247 0.74969 0.0
C528 C 0.70563 0.53608 0.71669 0.0
C529 C 0.67959 0.56978 0.77039 0.0
C530 C 0.76386 0.59262 0.74753 0.0
C531 C 0.80866 0.576 0.76029 0.0
C532 C 0.85142 0.60628 0.76039 0.0
C533 C 0.8484 0.65447 0.74686 0.0
C534 C 0.80283 0.67221 0.7337 0.0
C535 C 0.76002 0.64083 0.73433 0.0
loop_
_geom_bond_atom_site_label_1
_geom_bond_atom_site_label_2
_geom_bond_distance
_geom_bond_site_symmetry_2
_ccdc_geom_bond_type
In0 O1 2.294 . S
In0 O2 2.326 . S
In0 O6 2.266 . S
In0 O7 2.326 . S
In0 O8 2.266 . S
In0 O9 2.326 . S
In0 O11 2.294 . S
In0 O12 2.326 . S
O1 In0 2.294 . S
O1 C10 1.240 . S
O2 In0 2.326 . S
O2 C10 1.252 . S
C3 O6 1.252 . S
C3 O7 1.260 . S
C4 O11 1.240 . S
C4 O12 1.252 . S
C5 O8 1.252 . S
C5 O9 1.260 . S
O6 In0 2.266 . S
O6 C3 1.252 . S
O7 In0 2.326 . S
O7 C3 1.260 . S
O8 In0 2.266 . S
O8 C5 1.252 . S
O9 In0 2.326 . S
O9 C5 1.260 . S
C10 O1 1.240 . S
C10 O2 1.252 . S
O11 In0 2.294 . S
O11 C4 1.240 . S
O12 In0 2.326 . S
O12 C4 1.252 . S
In13 O14 2.294 . S
In13 O15 2.326 . S
In13 O19 2.266 . S
In13 O20 2.326 . S
In13 O21 2.266 . S
In13 O22 2.326 . S
In13 O24 2.294 . S
In13 O25 2.326 . S
O14 In13 2.294 . S
O14 C23 1.240 . S
O15 In13 2.326 . S
O15 C23 1.252 . S
C16 O19 1.252 . S
C16 O20 1.260 . S
C17 O24 1.240 . S
C17 O25 1.252 . S
C18 O21 1.252 . S
C18 O22 1.260 . S
O19 In13 2.266 . S
O19 C16 1.252 . S
O20 In13 2.326 . S
O20 C16 1.260 . S
O21 In13 2.266 . S
O21 C18 1.252 . S
O22 In13 2.326 . S
O22 C18 1.260 . S
C23 O14 1.240 . S
C23 O15 1.252 . S
O24 In13 2.294 . S
O24 C17 1.240 . S
O25 In13 2.326 . S
O25 C17 1.252 . S
In26 O27 2.294 . S
In26 O28 2.326 . S
In26 O32 2.266 . S
In26 O33 2.326 . S
In26 O34 2.266 . S
In26 O35 2.326 . S
In26 O37 2.294 . S
In26 O38 2.326 . S
O27 In26 2.294 . S
O27 C36 1.240 . S
O28 In26 2.326 . S
O28 C36 1.252 . S
C29 O32 1.252 . S
C29 O33 1.260 . S
C30 O37 1.240 . S
C30 O38 1.252 . S
C31 O34 1.252 . S
C31 O35 1.260 . S
O32 In26 2.266 . S
O32 C29 1.252 . S
O33 In26 2.326 . S
O33 C29 1.260 . S
O34 In26 2.266 . S
O34 C31 1.252 . S
O35 In26 2.326 . S
O35 C31 1.260 . S
C36 O27 1.240 . S
C36 O28 1.252 . S
O37 In26 2.294 . S
O37 C30 1.240 . S
O38 In26 2.326 . S
O38 C30 1.252 . S
In39 O40 2.294 . S
In39 O41 2.326 . S
In39 O45 2.266 . S
In39 O46 2.326 . S
In39 O47 2.266 . S
In39 O48 2.326 . S
In39 O50 2.294 . S
In39 O51 2.326 . S
O40 In39 2.294 . S
O40 C49 1.240 . S
O41 In39 2.326 . S
O41 C49 1.252 . S
C42 O45 1.252 . S
C42 O46 1.260 . S
C43 O50 1.240 . S
C43 O51 1.252 . S
C44 O47 1.252 . S
C44 O48 1.260 . S
O45 In39 2.266 . S
O45 C42 1.252 . S
O46 In39 2.326 . S
O46 C42 1.260 . S
O47 In39 2.266 . S
O47 C44 1.252 . S
O48 In39 2.326 . S
O48 C44 1.260 . S
C49 O40 1.240 . S
C49 O41 1.252 . S
O50 In39 2.294 . S
O50 C43 1.240 . S
O51 In39 2.326 . S
O51 C43 1.252 . S
In52 O53 2.294 . S
In52 O54 2.326 . S
In52 O58 2.266 . S
In52 O59 2.326 . S
In52 O60 2.266 . S
In52 O61 2.326 . S
In52 O63 2.294 . S
In52 O64 2.326 . S
O53 In52 2.294 . S
O53 C62 1.240 . S
O54 In52 2.326 . S
O54 C62 1.252 . S
C55 O58 1.252 . S
C55 O59 1.260 . S
C56 O63 1.240 . S
C56 O64 1.252 . S
C57 O60 1.252 . S
C57 O61 1.260 . S
O58 In52 2.266 . S
O58 C55 1.252 . S
O59 In52 2.326 . S
O59 C55 1.260 . S
O60 In52 2.266 . S
O60 C57 1.252 . S
O61 In52 2.326 . S
O61 C57 1.260 . S
C62 O53 1.240 . S
C62 O54 1.252 . S
O63 In52 2.294 . S
O63 C56 1.240 . S
O64 In52 2.326 . S
O64 C56 1.252 . S
In65 O66 2.294 . S
In65 O67 2.326 . S
In65 O71 2.266 . S
In65 O72 2.326 . S
In65 O73 2.266 . S
In65 O74 2.326 . S
In65 O76 2.294 . S
In65 O77 2.326 . S
O66 In65 2.294 . S
O66 C75 1.240 . S
O67 In65 2.326 . S
O67 C75 1.252 . S
C68 O71 1.252 . S
C68 O72 1.260 . S
C69 O76 1.240 . S
C69 O77 1.252 . S
C70 O73 1.252 . S
C70 O74 1.260 . S
O71 In65 2.266 . S
O71 C68 1.252 . S
O72 In65 2.326 . S
O72 C68 1.260 . S
O73 In65 2.266 . S
O73 C70 1.252 . S
O74 In65 2.326 . S
O74 C70 1.260 . S
C75 O66 1.240 . S
C75 O67 1.252 . S
O76 In65 2.294 . S
O76 C69 1.240 . S
O77 In65 2.326 . S
O77 C69 1.252 . S
In78 O79 2.294 . S
In78 O80 2.326 . S
In78 O84 2.266 . S
In78 O85 2.326 . S
In78 O86 2.266 . S
In78 O87 2.326 . S
In78 O89 2.294 . S
In78 O90 2.326 . S
O79 In78 2.294 . S
O79 C88 1.240 . S
O80 In78 2.326 . S
O80 C88 1.252 . S
C81 O84 1.252 . S
C81 O85 1.260 . S
C82 O89 1.240 . S
C82 O90 1.252 . S
C83 O86 1.252 . S
C83 O87 1.260 . S
O84 In78 2.266 . S
O84 C81 1.252 . S
O85 In78 2.326 . S
O85 C81 1.260 . S
O86 In78 2.266 . S
O86 C83 1.252 . S
O87 In78 2.326 . S
O87 C83 1.260 . S
C88 O79 1.240 . S
C88 O80 1.252 . S
O89 In78 2.294 . S
O89 C82 1.240 . S
O90 In78 2.326 . S
O90 C82 1.252 . S
In91 O92 2.294 . S
In91 O93 2.326 . S
In91 O97 2.266 . S
In91 O98 2.326 . S
In91 O99 2.266 . S
In91 O100 2.326 . S
In91 O102 2.294 . S
In91 O103 2.326 . S
O92 In91 2.294 . S
O92 C101 1.240 . S
O93 In91 2.326 . S
O93 C101 1.252 . S
C94 O97 1.252 . S
C94 O98 1.260 . S
C95 O102 1.240 . S
C95 O103 1.252 . S
C96 O99 1.252 . S
C96 O100 1.260 . S
O97 In91 2.266 . S
O97 C94 1.252 . S
O98 In91 2.326 . S
O98 C94 1.260 . S
O99 In91 2.266 . S
O99 C96 1.252 . S
O100 In91 2.326 . S
O100 C96 1.260 . S
C101 O92 1.240 . S
C101 O93 1.252 . S
O102 In91 2.294 . S
O102 C95 1.240 . S
O103 In91 2.326 . S
O103 C95 1.252 . S
H104 C116 0.930 . S
H105 C118 0.930 . S
H106 C119 0.930 1_655 S
H107 C123 0.959 . S
H108 C123 0.959 . S
H109 C123 0.961 . S
H110 C124 0.960 . S
H111 C124 0.961 1_565 S
H112 C124 0.959 . S
H113 C127 0.929 . S
H114 C128 0.931 . S
H115 C130 0.930 . S
C116 H104 0.930 . S
C116 C117 1.399 . S
C116 C121 1.399 . S
C117 C116 1.399 . S
C117 C118 1.376 . S
C118 H105 0.930 . S
C118 C117 1.376 . S
C118 C119 1.388 . S
C119 H106 0.930 1_455 S
C119 C118 1.388 . S
C119 C120 1.390 . S
C120 C119 1.390 . S
C120 C121 1.394 . S
C120 C126 1.465 1_445 S
C121 C116 1.399 . S
C121 C120 1.394 . S
C121 C122 1.516 1_545 S
C122 C121 1.516 1_565 S
C122 C123 1.502 . S
C122 C124 1.561 1_465 S
C122 C125 1.526 1_455 S
C123 H107 0.959 . S
C123 H108 0.959 . S
C123 H109 0.961 . S
C123 C122 1.502 . S
C124 H110 0.960 . S
C124 H111 0.961 1_545 S
C124 H112 0.959 . S
C124 C122 1.561 1_645 S
C125 C122 1.526 1_655 S
C125 C126 1.396 . S
C125 C130 1.390 . S
C126 C120 1.465 1_665 S
C126 C125 1.396 . S
C126 C127 1.399 . S
C127 H113 0.929 . S
C127 C126 1.399 . S
C127 C128 1.385 . S
C128 H114 0.931 . S
C128 C127 1.385 . S
C128 C129 1.389 . S
C129 C128 1.389 . S
C129 C130 1.387 . S
C130 H115 0.930 . S
C130 C125 1.390 . S
C130 C129 1.387 . S
H131 C143 0.930 . S
H132 C145 0.930 . S
H133 C146 0.930 . S
H134 C150 0.959 . S
H135 C150 0.959 . S
H136 C150 0.961 . S
H137 C151 0.960 . S
H138 C151 0.961 . S
H139 C151 0.959 . S
H140 C154 0.929 . S
H141 C155 0.931 . S
H142 C157 0.930 . S
C143 H131 0.930 . S
C143 C144 1.399 . S
C143 C148 1.399 . S
C144 C143 1.399 . S
C144 C145 1.376 . S
C145 H132 0.930 . S
C145 C144 1.376 . S
C145 C146 1.388 . S
C146 H133 0.930 . S
C146 C145 1.388 . S
C146 C147 1.390 . S
C147 C146 1.390 . S
C147 C148 1.394 . S
C147 C153 1.465 . S
C148 C143 1.399 . S
C148 C147 1.394 . S
C148 C149 1.516 . S
C149 C148 1.516 . S
C149 C150 1.502 . S
C149 C151 1.561 . S
C149 C152 1.526 . S
C150 H134 0.959 . S
C150 H135 0.959 . S
C150 H136 0.961 . S
C150 C149 1.502 . S
C151 H137 0.960 . S
C151 H138 0.961 . S
C151 H139 0.959 . S
C151 C149 1.561 . S
C152 C149 1.526 . S
C152 C153 1.396 . S
C152 C157 1.390 . S
C153 C147 1.465 . S
C153 C152 1.396 . S
C153 C154 1.399 . S
C154 H140 0.929 . S
C154 C153 1.399 . S
C154 C155 1.385 . S
C155 H141 0.931 . S
C155 C154 1.385 . S
C155 C156 1.389 . S
C156 C155 1.389 . S
C156 C157 1.387 . S
C157 H142 0.930 . S
C157 C152 1.390 . S
C157 C156 1.387 . S
H158 C170 0.930 . S
H159 C172 0.930 . S
H160 C173 0.930 . S
H161 C177 0.959 . S
H162 C177 0.959 . S
H163 C177 0.961 . S
H164 C178 0.960 . S
H165 C178 0.961 . S
H166 C178 0.959 . S
H167 C181 0.929 . S
H168 C182 0.931 . S
H169 C184 0.930 . S
C170 H158 0.930 . S
C170 C171 1.399 . S
C170 C175 1.399 . S
C171 C170 1.399 . S
C171 C172 1.376 . S
C172 H159 0.930 . S
C172 C171 1.376 . S
C172 C173 1.388 . S
C173 H160 0.930 . S
C173 C172 1.388 . S
C173 C174 1.390 . S
C174 C173 1.390 . S
C174 C175 1.394 . S
C174 C180 1.465 . S
C175 C170 1.399 . S
C175 C174 1.394 . S
C175 C176 1.516 . S
C176 C175 1.516 . S
C176 C177 1.502 . S
C176 C178 1.561 . S
C176 C179 1.526 . S
C177 H161 0.959 . S
C177 H162 0.959 . S
C177 H163 0.961 . S
C177 C176 1.502 . S
C178 H164 0.960 . S
C178 H165 0.961 . S
C178 H166 0.959 . S
C178 C176 1.561 . S
C179 C176 1.526 . S
C179 C180 1.396 . S
C179 C184 1.390 . S
C180 C174 1.465 . S
C180 C179 1.396 . S
C180 C181 1.399 . S
C181 H167 0.929 . S
C181 C180 1.399 . S
C181 C182 1.385 . S
C182 H168 0.931 . S
C182 C181 1.385 . S
C182 C183 1.389 . S
C183 C182 1.389 . S
C183 C184 1.387 . S
C184 H169 0.930 . S
C184 C179 1.390 . S
C184 C183 1.387 . S
H185 C197 0.930 . S
H186 C199 0.930 . S
H187 C200 0.930 . S
H188 C204 0.959 . S
H189 C204 0.959 1_655 S
H190 C204 0.961 . S
H191 C205 0.960 . S
H192 C205 0.961 . S
H193 C205 0.959 . S
H194 C208 0.929 . S
H195 C209 0.931 . S
H196 C211 0.930 . S
C197 H185 0.930 . S
C197 C198 1.399 . S
C197 C202 1.399 . S
C198 C197 1.399 . S
C198 C199 1.376 . S
C199 H186 0.930 . S
C199 C198 1.376 . S
C199 C200 1.388 . S
C200 H187 0.930 . S
C200 C199 1.388 . S
C200 C201 1.390 . S
C201 C200 1.390 . S
C201 C202 1.394 . S
C201 C207 1.465 1_445 S
C202 C197 1.399 . S
C202 C201 1.394 . S
C202 C203 1.516 1_455 S
C203 C202 1.516 1_655 S
C203 C204 1.502 1_645 S
C203 C205 1.561 . S
C203 C206 1.526 1_545 S
C204 H188 0.959 . S
C204 H189 0.959 1_455 S
C204 H190 0.961 . S
C204 C203 1.502 1_465 S
C205 H191 0.960 . S
C205 H192 0.961 . S
C205 H193 0.959 . S
C205 C203 1.561 . S
C206 C203 1.526 1_565 S
C206 C207 1.396 . S
C206 C211 1.390 . S
C207 C201 1.465 1_665 S
C207 C206 1.396 . S
C207 C208 1.399 . S
C208 H194 0.929 . S
C208 C207 1.399 . S
C208 C209 1.385 . S
C209 H195 0.931 . S
C209 C208 1.385 . S
C209 C210 1.389 . S
C210 C209 1.389 . S
C210 C211 1.387 . S
C211 H196 0.930 . S
C211 C206 1.390 . S
C211 C210 1.387 . S
H212 C224 0.930 . S
H213 C226 0.930 . S
H214 C227 0.930 . S
H215 C231 0.959 . S
H216 C231 0.959 . S
H217 C231 0.961 . S
H218 C232 0.960 . S
H219 C232 0.961 . S
H220 C232 0.959 . S
H221 C235 0.929 . S
H222 C236 0.931 . S
H223 C238 0.930 . S
C224 H212 0.930 . S
C224 C225 1.399 . S
C224 C229 1.399 . S
C225 C224 1.399 . S
C225 C226 1.376 . S
C226 H213 0.930 . S
C226 C225 1.376 . S
C226 C227 1.388 . S
C227 H214 0.930 . S
C227 C226 1.388 . S
C227 C228 1.390 . S
C228 C227 1.390 . S
C228 C229 1.394 . S
C228 C234 1.465 . S
C229 C224 1.399 . S
C229 C228 1.394 . S
C229 C230 1.516 . S
C230 C229 1.516 . S
C230 C231 1.502 . S
C230 C232 1.561 . S
C230 C233 1.526 . S
C231 H215 0.959 . S
C231 H216 0.959 . S
C231 H217 0.961 . S
C231 C230 1.502 . S
C232 H218 0.960 . S
C232 H219 0.961 . S
C232 H220 0.959 . S
C232 C230 1.561 . S
C233 C230 1.526 . S
C233 C234 1.396 . S
C233 C238 1.390 . S
C234 C228 1.465 . S
C234 C233 1.396 . S
C234 C235 1.399 . S
C235 H221 0.929 . S
C235 C234 1.399 . S
C235 C236 1.385 . S
C236 H222 0.931 . S
C236 C235 1.385 . S
C236 C237 1.389 . S
C237 C236 1.389 . S
C237 C238 1.387 . S
C238 H223 0.930 . S
C238 C233 1.390 . S
C238 C237 1.387 . S
H239 C251 0.930 . S
H240 C253 0.930 . S
H241 C254 0.930 . S
H242 C258 0.959 . S
H243 C258 0.959 . S
H244 C258 0.961 . S
H245 C259 0.960 1_556 S
H246 C259 0.961 . S
H247 C259 0.959 . S
H248 C262 0.929 . S
H249 C263 0.931 . S
H250 C265 0.930 . S
C251 H239 0.930 . S
C251 C252 1.399 . S
C251 C256 1.399 . S
C252 C251 1.399 . S
C252 C253 1.376 . S
C253 H240 0.930 . S
C253 C252 1.376 . S
C253 C254 1.388 . S
C254 H241 0.930 . S
C254 C253 1.388 . S
C254 C255 1.390 . S
C255 C254 1.390 . S
C255 C256 1.394 . S
C255 C261 1.465 1_556 S
C256 C251 1.399 . S
C256 C255 1.394 . S
C256 C257 1.516 1_556 S
C257 C256 1.516 1_554 S
C257 C258 1.502 . S
C257 C259 1.561 . S
C257 C260 1.526 . S
C258 H242 0.959 . S
C258 H243 0.959 . S
C258 H244 0.961 . S
C258 C257 1.502 . S
C259 H245 0.960 1_554 S
C259 H246 0.961 . S
C259 H247 0.959 . S
C259 C257 1.561 . S
C260 C257 1.526 . S
C260 C261 1.396 . S
C260 C265 1.390 . S
C261 C255 1.465 1_554 S
C261 C260 1.396 . S
C261 C262 1.399 . S
C262 H248 0.929 . S
C262 C261 1.399 . S
C262 C263 1.385 . S
C263 H249 0.931 . S
C263 C262 1.385 . S
C263 C264 1.389 . S
C264 C263 1.389 . S
C264 C265 1.387 . S
C265 H250 0.930 . S
C265 C260 1.390 . S
C265 C264 1.387 . S
H266 C278 0.930 . S
H267 C280 0.930 . S
H268 C281 0.930 . S
H269 C285 0.959 . S
H270 C285 0.959 . S
H271 C285 0.961 . S
H272 C286 0.960 . S
H273 C286 0.961 . S
H274 C286 0.959 . S
H275 C289 0.929 . S
H276 C290 0.931 . S
H277 C292 0.930 . S
C278 H266 0.930 . S
C278 C279 1.399 . S
C278 C283 1.399 . S
C279 C278 1.399 . S
C279 C280 1.376 . S
C280 H267 0.930 . S
C280 C279 1.376 . S
C280 C281 1.388 . S
C281 H268 0.930 . S
C281 C280 1.388 . S
C281 C282 1.390 . S
C282 C281 1.390 . S
C282 C283 1.394 . S
C282 C288 1.465 . S
C283 C278 1.399 . S
C283 C282 1.394 . S
C283 C284 1.516 . S
C284 C283 1.516 . S
C284 C285 1.502 . S
C284 C286 1.561 . S
C284 C287 1.526 . S
C285 H269 0.959 . S
C285 H270 0.959 . S
C285 H271 0.961 . S
C285 C284 1.502 . S
C286 H272 0.960 . S
C286 H273 0.961 . S
C286 H274 0.959 . S
C286 C284 1.561 . S
C287 C284 1.526 . S
C287 C288 1.396 . S
C287 C292 1.390 . S
C288 C282 1.465 . S
C288 C287 1.396 . S
C288 C289 1.399 . S
C289 H275 0.929 . S
C289 C288 1.399 . S
C289 C290 1.385 . S
C290 H276 0.931 . S
C290 C289 1.385 . S
C290 C291 1.389 . S
C291 C290 1.389 . S
C291 C292 1.387 . S
C292 H277 0.930 . S
C292 C287 1.390 . S
C292 C291 1.387 . S
H293 C305 0.930 . S
H294 C307 0.930 . S
H295 C308 0.930 . S
H296 C312 0.959 . S
H297 C312 0.959 . S
H298 C312 0.961 . S
H299 C313 0.960 1_556 S
H300 C313 0.961 . S
H301 C313 0.959 . S
H302 C316 0.929 . S
H303 C317 0.931 . S
H304 C319 0.930 . S
C305 H293 0.930 . S
C305 C306 1.399 . S
C305 C310 1.399 . S
C306 C305 1.399 . S
C306 C307 1.376 . S
C307 H294 0.930 . S
C307 C306 1.376 . S
C307 C308 1.388 . S
C308 H295 0.930 . S
C308 C307 1.388 . S
C308 C309 1.390 . S
C309 C308 1.390 . S
C309 C310 1.394 . S
C309 C315 1.465 1_556 S
C310 C305 1.399 . S
C310 C309 1.394 . S
C310 C311 1.516 1_556 S
C311 C310 1.516 1_554 S
C311 C312 1.502 . S
C311 C313 1.561 . S
C311 C314 1.526 . S
C312 H296 0.959 . S
C312 H297 0.959 . S
C312 H298 0.961 . S
C312 C311 1.502 . S
C313 H299 0.960 1_554 S
C313 H300 0.961 . S
C313 H301 0.959 . S
C313 C311 1.561 . S
C314 C311 1.526 . S
C314 C315 1.396 . S
C314 C319 1.390 . S
C315 C309 1.465 1_554 S
C315 C314 1.396 . S
C315 C316 1.399 . S
C316 H302 0.929 . S
C316 C315 1.399 . S
C316 C317 1.385 . S
C317 H303 0.931 . S
C317 C316 1.385 . S
C317 C318 1.389 . S
C318 C317 1.389 . S
C318 C319 1.387 . S
C319 H304 0.930 . S
C319 C314 1.390 . S
C319 C318 1.387 . S
H320 C332 0.930 . S
H321 C334 0.930 . S
H322 C335 0.930 . S
H323 C339 0.959 . S
H324 C339 0.959 . S
H325 C339 0.961 . S
H326 C340 0.960 . S
H327 C340 0.961 . S
H328 C340 0.959 . S
H329 C343 0.929 . S
H330 C344 0.931 . S
H331 C346 0.930 . S
C332 H320 0.930 . S
C332 C333 1.399 . S
C332 C337 1.399 . S
C333 C332 1.399 . S
C333 C334 1.376 . S
C334 H321 0.930 . S
C334 C333 1.376 . S
C334 C335 1.388 . S
C335 H322 0.930 . S
C335 C334 1.388 . S
C335 C336 1.390 . S
C336 C335 1.390 . S
C336 C337 1.394 . S
C336 C342 1.465 . S
C337 C332 1.399 . S
C337 C336 1.394 . S
C337 C338 1.516 . S
C338 C337 1.516 . S
C338 C339 1.502 . S
C338 C340 1.561 . S
C338 C341 1.526 . S
C339 H323 0.959 . S
C339 H324 0.959 . S
C339 H325 0.961 . S
C339 C338 1.502 . S
C340 H326 0.960 . S
C340 H327 0.961 . S
C340 H328 0.959 . S
C340 C338 1.561 . S
C341 C338 1.526 . S
C341 C342 1.396 . S
C341 C346 1.390 . S
C342 C336 1.465 . S
C342 C341 1.396 . S
C342 C343 1.399 . S
C343 H329 0.929 . S
C343 C342 1.399 . S
C343 C344 1.385 . S
C344 H330 0.931 . S
C344 C343 1.385 . S
C344 C345 1.389 . S
C345 C344 1.389 . S
C345 C346 1.387 . S
C346 H331 0.930 . S
C346 C341 1.390 . S
C346 C345 1.387 . S
H347 C359 0.930 . S
H348 C361 0.930 . S
H349 C362 0.930 . S
H350 C366 0.959 . S
H351 C366 0.959 . S
H352 C366 0.961 . S
H353 C367 0.960 . S
H354 C367 0.961 . S
H355 C367 0.959 . S
H356 C370 0.929 . S
H357 C371 0.931 . S
H358 C373 0.930 . S
C359 H347 0.930 . S
C359 C360 1.399 . S
C359 C364 1.399 . S
C360 C359 1.399 . S
C360 C361 1.376 . S
C361 H348 0.930 . S
C361 C360 1.376 . S
C361 C362 1.388 . S
C362 H349 0.930 . S
C362 C361 1.388 . S
C362 C363 1.390 . S
C363 C362 1.390 . S
C363 C364 1.394 . S
C363 C369 1.465 . S
C364 C359 1.399 . S
C364 C363 1.394 . S
C364 C365 1.516 . S
C365 C364 1.516 . S
C365 C366 1.502 . S
C365 C367 1.561 . S
C365 C368 1.526 . S
C366 H350 0.959 . S
C366 H351 0.959 . S
C366 H352 0.961 . S
C366 C365 1.502 . S
C367 H353 0.960 . S
C367 H354 0.961 . S
C367 H355 0.959 . S
C367 C365 1.561 . S
C368 C365 1.526 . S
C368 C369 1.396 . S
C368 C373 1.390 . S
C369 C363 1.465 . S
C369 C368 1.396 . S
C369 C370 1.399 . S
C370 H356 0.929 . S
C370 C369 1.399 . S
C370 C371 1.385 1_565 S
C371 H357 0.931 . S
C371 C370 1.385 1_545 S
C371 C372 1.389 . S
C372 C371 1.389 . S
C372 C373 1.387 1_545 S
C373 H358 0.930 . S
C373 C368 1.390 . S
C373 C372 1.387 1_565 S
H374 C386 0.930 . S
H375 C388 0.930 . S
H376 C389 0.930 . S
H377 C393 0.959 . S
H378 C393 0.959 . S
H379 C393 0.961 . S
H380 C394 0.960 . S
H381 C394 0.961 . S
H382 C394 0.959 . S
H383 C397 0.929 . S
H384 C398 0.931 . S
H385 C400 0.930 . S
C386 H374 0.930 . S
C386 C387 1.399 . S
C386 C391 1.399 . S
C387 C386 1.399 . S
C387 C388 1.376 . S
C388 H375 0.930 . S
C388 C387 1.376 . S
C388 C389 1.388 . S
C389 H376 0.930 . S
C389 C388 1.388 . S
C389 C390 1.390 . S
C390 C389 1.390 . S
C390 C391 1.394 . S
C390 C396 1.465 . S
C391 C386 1.399 . S
C391 C390 1.394 . S
C391 C392 1.516 . S
C392 C391 1.516 . S
C392 C393 1.502 . S
C392 C394 1.561 . S
C392 C395 1.526 . S
C393 H377 0.959 . S
C393 H378 0.959 . S
C393 H379 0.961 . S
C393 C392 1.502 . S
C394 H380 0.960 . S
C394 H381 0.961 . S
C394 H382 0.959 . S
C394 C392 1.561 . S
C395 C392 1.526 . S
C395 C396 1.396 . S
C395 C400 1.390 . S
C396 C390 1.465 . S
C396 C395 1.396 . S
C396 C397 1.399 . S
C397 H383 0.929 . S
C397 C396 1.399 . S
C397 C398 1.385 . S
C398 H384 0.931 . S
C398 C397 1.385 . S
C398 C399 1.389 . S
C399 C398 1.389 . S
C399 C400 1.387 . S
C400 H385 0.930 . S
C400 C395 1.390 . S
C400 C399 1.387 . S
H401 C413 0.930 . S
H402 C415 0.930 . S
H403 C416 0.930 . S
H404 C420 0.959 . S
H405 C420 0.959 . S
H406 C420 0.961 . S
H407 C421 0.960 . S
H408 C421 0.961 . S
H409 C421 0.959 . S
H410 C424 0.929 . S
H411 C425 0.931 . S
H412 C427 0.930 1_565 S
C413 H401 0.930 . S
C413 C414 1.399 . S
C413 C418 1.399 . S
C414 C413 1.399 . S
C414 C415 1.376 . S
C415 H402 0.930 . S
C415 C414 1.376 . S
C415 C416 1.388 . S
C416 H403 0.930 . S
C416 C415 1.388 . S
C416 C417 1.390 . S
C417 C416 1.390 . S
C417 C418 1.394 . S
C417 C423 1.465 . S
C418 C413 1.399 . S
C418 C417 1.394 . S
C418 C419 1.516 . S
C419 C418 1.516 . S
C419 C420 1.502 . S
C419 C421 1.561 . S
C419 C422 1.526 . S
C420 H404 0.959 . S
C420 H405 0.959 . S
C420 H406 0.961 . S
C420 C419 1.502 . S
C421 H407 0.960 . S
C421 H408 0.961 . S
C421 H409 0.959 . S
C421 C419 1.561 . S
C422 C419 1.526 . S
C422 C423 1.396 . S
C422 C427 1.390 . S
C423 C417 1.465 . S
C423 C422 1.396 . S
C423 C424 1.399 . S
C424 H410 0.929 . S
C424 C423 1.399 . S
C424 C425 1.385 . S
C425 H411 0.931 . S
C425 C424 1.385 . S
C425 C426 1.389 1_545 S
C426 C425 1.389 1_565 S
C426 C427 1.387 1_565 S
C427 H412 0.930 1_545 S
C427 C422 1.390 . S
C427 C426 1.387 1_545 S
H428 C440 0.930 . S
H429 C442 0.930 . S
H430 C443 0.930 . S
H431 C447 0.959 . S
H432 C447 0.959 . S
H433 C447 0.961 . S
H434 C448 0.960 . S
H435 C448 0.961 . S
H436 C448 0.959 . S
H437 C451 0.929 . S
H438 C452 0.931 . S
H439 C454 0.930 . S
C440 H428 0.930 . S
C440 C441 1.399 1_655 S
C440 C445 1.399 . S
C441 C440 1.399 1_455 S
C441 C442 1.376 . S
C442 H429 0.930 . S
C442 C441 1.376 . S
C442 C443 1.388 1_455 S
C443 H430 0.930 . S
C443 C442 1.388 1_655 S
C443 C444 1.390 . S
C444 C443 1.390 . S
C444 C445 1.394 . S
C444 C450 1.465 . S
C445 C440 1.399 . S
C445 C444 1.394 . S
C445 C446 1.516 . S
C446 C445 1.516 . S
C446 C447 1.502 . S
C446 C448 1.561 . S
C446 C449 1.526 . S
C447 H431 0.959 . S
C447 H432 0.959 . S
C447 H433 0.961 . S
C447 C446 1.502 . S
C448 H434 0.960 . S
C448 H435 0.961 . S
C448 H436 0.959 . S
C448 C446 1.561 . S
C449 C446 1.526 . S
C449 C450 1.396 . S
C449 C454 1.390 . S
C450 C444 1.465 . S
C450 C449 1.396 . S
C450 C451 1.399 . S
C451 H437 0.929 . S
C451 C450 1.399 . S
C451 C452 1.385 . S
C452 H438 0.931 . S
C452 C451 1.385 . S
C452 C453 1.389 . S
C453 C452 1.389 . S
C453 C454 1.387 . S
C454 H439 0.930 . S
C454 C449 1.390 . S
C454 C453 1.387 . S
H455 C467 0.930 . S
H456 C469 0.930 . S
H457 C470 0.930 . S
H458 C474 0.959 . S
H459 C474 0.959 . S
H460 C474 0.961 . S
H461 C475 0.960 . S
H462 C475 0.961 . S
H463 C475 0.959 . S
H464 C478 0.929 . S
H465 C479 0.931 . S
H466 C481 0.930 . S
C467 H455 0.930 . S
C467 C468 1.399 . S
C467 C472 1.399 . S
C468 C467 1.399 . S
C468 C469 1.376 . S
C469 H456 0.930 . S
C469 C468 1.376 . S
C469 C470 1.388 . S
C470 H457 0.930 . S
C470 C469 1.388 . S
C470 C471 1.390 . S
C471 C470 1.390 . S
C471 C472 1.394 . S
C471 C477 1.465 . S
C472 C467 1.399 . S
C472 C471 1.394 . S
C472 C473 1.516 . S
C473 C472 1.516 . S
C473 C474 1.502 . S
C473 C475 1.561 . S
C473 C476 1.526 . S
C474 H458 0.959 . S
C474 H459 0.959 . S
C474 H460 0.961 . S
C474 C473 1.502 . S
C475 H461 0.960 . S
C475 H462 0.961 . S
C475 H463 0.959 . S
C475 C473 1.561 . S
C476 C473 1.526 . S
C476 C477 1.396 . S
C476 C481 1.390 . S
C477 C471 1.465 . S
C477 C476 1.396 . S
C477 C478 1.399 . S
C478 H464 0.929 . S
C478 C477 1.399 . S
C478 C479 1.385 . S
C479 H465 0.931 . S
C479 C478 1.385 . S
C479 C480 1.389 . S
C480 C479 1.389 . S
C480 C481 1.387 . S
C481 H466 0.930 . S
C481 C476 1.390 . S
C481 C480 1.387 . S
H482 C494 0.930 . S
H483 C496 0.930 . S
H484 C497 0.930 . S
H485 C501 0.959 . S
H486 C501 0.959 . S
H487 C501 0.961 . S
H488 C502 0.960 . S
H489 C502 0.961 . S
H490 C502 0.959 . S
H491 C505 0.929 . S
H492 C506 0.931 . S
H493 C508 0.930 1_655 S
C494 H482 0.930 . S
C494 C495 1.399 . S
C494 C499 1.399 . S
C495 C494 1.399 . S
C495 C496 1.376 . S
C496 H483 0.930 . S
C496 C495 1.376 . S
C496 C497 1.388 . S
C497 H484 0.930 . S
C497 C496 1.388 . S
C497 C498 1.390 . S
C498 C497 1.390 . S
C498 C499 1.394 . S
C498 C504 1.465 . S
C499 C494 1.399 . S
C499 C498 1.394 . S
C499 C500 1.516 . S
C500 C499 1.516 . S
C500 C501 1.502 . S
C500 C502 1.561 . S
C500 C503 1.526 . S
C501 H485 0.959 . S
C501 H486 0.959 . S
C501 H487 0.961 . S
C501 C500 1.502 . S
C502 H488 0.960 . S
C502 H489 0.961 . S
C502 H490 0.959 . S
C502 C500 1.561 . S
C503 C500 1.526 . S
C503 C504 1.396 . S
C503 C508 1.390 . S
C504 C498 1.465 . S
C504 C503 1.396 . S
C504 C505 1.399 . S
C505 H491 0.929 . S
C505 C504 1.399 . S
C505 C506 1.385 . S
C506 H492 0.931 . S
C506 C505 1.385 . S
C506 C507 1.389 1_455 S
C507 C506 1.389 1_655 S
C507 C508 1.387 1_655 S
C508 H493 0.930 1_455 S
C508 C503 1.390 . S
C508 C507 1.387 1_455 S
H509 C521 0.930 . S
H510 C523 0.930 . S
H511 C524 0.930 . S
H512 C528 0.959 . S
H513 C528 0.959 . S
H514 C528 0.961 . S
H515 C529 0.960 . S
H516 C529 0.961 . S
H517 C529 0.959 . S
H518 C532 0.929 . S
H519 C533 0.931 . S
H520 C535 0.930 . S
C521 H509 0.930 . S
C521 C522 1.399 . S
C521 C526 1.399 . S
C522 C521 1.399 . S
C522 C523 1.376 . S
C523 H510 0.930 . S
C523 C522 1.376 . S
C523 C524 1.388 . S
C524 H511 0.930 . S
C524 C523 1.388 . S
C524 C525 1.390 . S
C525 C524 1.390 . S
C525 C526 1.394 . S
C525 C531 1.465 . S
C526 C521 1.399 . S
C526 C525 1.394 . S
C526 C527 1.516 . S
C527 C526 1.516 . S
C527 C528 1.502 . S
C527 C529 1.561 . S
C527 C530 1.526 . S
C528 H512 0.959 . S
C528 H513 0.959 . S
C528 H514 0.961 . S
C528 C527 1.502 . S
C529 H515 0.960 . S
C529 H516 0.961 . S
C529 H517 0.959 . S
C529 C527 1.561 . S
C530 C527 1.526 . S
C530 C531 1.396 . S
C530 C535 1.390 . S
C531 C525 1.465 . S
C531 C530 1.396 . S
C531 C532 1.399 . S
C532 H518 0.929 . S
C532 C531 1.399 . S
C532 C533 1.385 . S
C533 H519 0.931 . S
C533 C532 1.385 . S
C533 C534 1.389 . S
C534 C533 1.389 . S
C534 C535 1.387 . S
C535 H520 0.930 . S
C535 C530 1.390 . S
C535 C534 1.387 . S
C117 C5 0.830 . S
C129 C29 0.838 . S
C144 C16 0.832 . S
C156 C42 0.826 . S
C171 C55 0.832 . S
C183 C81 0.827 . S
C198 C68 0.831 . S
C210 C94 0.827 . S
C225 C10 1.509 . S
C237 C69 1.511 . S
C252 C17 1.481 . S
C264 C82 1.500 . S
C279 C95 1.475 . S
C291 C30 1.493 . S
C306 C43 1.480 . S
C318 C56 1.499 . S
C333 C57 1.678 . S
C345 C4 1.757 . S
C360 C23 1.745 . S
C372 C70 1.703 . S
C387 C36 1.733 . S
C399 C83 1.681 . S
C414 C49 1.714 . S
C426 C96 1.707 . S
C441 C3 1.733 . S
C453 C62 1.716 . S
C468 C75 1.749 . S
C480 C18 1.695 . S
C495 C88 1.717 . S
C507 C31 1.703 . S
C522 C44 1.736 . S
C534 C101 1.709 . S
