# Generated by pormake.
# Topology lcy-e, (6)-cn, num edge types: 1
# Building blocks:
#     Node 0, Type 0, BuildingBlock: OJICUG_clean_sbu_0, # of connection points: 6
#     Node 1, Type 0, BuildingBlock: OJICUG_clean_sbu_0, # of connection points: 6
#     Node 2, Type 0, BuildingBlock: OJICUG_clean_sbu_0, # of connection points: 6
#     Node 3, Type 0, BuildingBlock: OJICUG_clean_sbu_0, # of connection points: 6
#     Node 4, Type 0, BuildingBlock: OJICUG_clean_sbu_0, # of connection points: 6
#     Node 5, Type 0, BuildingBlock: OJICUG_clean_sbu_0, # of connection points: 6
#     Node 6, Type 0, BuildingBlock: OJICUG_clean_sbu_0, # of connection points: 6
#     Node 7, Type 0, BuildingBlock: OJICUG_clean_sbu_0, # of connection points: 6
#     Node 8, Type 0, BuildingBlock: OJICUG_clean_sbu_0, # of connection points: 6
#     Node 9, Type 0, BuildingBlock: OJICUG_clean_sbu_0, # of connection points: 6
#     Node 10, Type 0, BuildingBlock: OJICUG_clean_sbu_0, # of connection points: 6
#     Node 11, Type 0, BuildingBlock: OJICUG_clean_sbu_0, # of connection points: 6
#     Edge 12, Type (0, 0), BuildingBlock: KIFKEQ_clean_linker_1, # of connection points: 2
#     Edge 13, Type (0, 0), BuildingBlock: KIFKEQ_clean_linker_1, # of connection points: 2
#     Edge 14, Type (0, 0), BuildingBlock: KIFKEQ_clean_linker_1, # of connection points: 2
#     Edge 15, Type (0, 0), BuildingBlock: KIFKEQ_clean_linker_1, # of connection points: 2
#     Edge 16, Type (0, 0), BuildingBlock: KIFKEQ_clean_linker_1, # of connection points: 2
#     Edge 17, Type (0, 0), BuildingBlock: KIFKEQ_clean_linker_1, # of connection points: 2
#     Edge 18, Type (0, 0), BuildingBlock: KIFKEQ_clean_linker_1, # of connection points: 2
#     Edge 19, Type (0, 0), BuildingBlock: KIFKEQ_clean_linker_1, # of connection points: 2
#     Edge 20, Type (0, 0), BuildingBlock: KIFKEQ_clean_linker_1, # of connection points: 2
#     Edge 21, Type (0, 0), BuildingBlock: KIFKEQ_clean_linker_1, # of connection points: 2
#     Edge 22, Type (0, 0), BuildingBlock: KIFKEQ_clean_linker_1, # of connection points: 2
#     Edge 23, Type (0, 0), BuildingBlock: KIFKEQ_clean_linker_1, # of connection points: 2
#     Edge 24, Type (0, 0), BuildingBlock: KIFKEQ_clean_linker_1, # of connection points: 2
#     Edge 25, Type (0, 0), BuildingBlock: KIFKEQ_clean_linker_1, # of connection points: 2
#     Edge 26, Type (0, 0), BuildingBlock: KIFKEQ_clean_linker_1, # of connection points: 2
#     Edge 27, Type (0, 0), BuildingBlock: KIFKEQ_clean_linker_1, # of connection points: 2
#     Edge 28, Type (0, 0), BuildingBlock: KIFKEQ_clean_linker_1, # of connection points: 2
#     Edge 29, Type (0, 0), BuildingBlock: KIFKEQ_clean_linker_1, # of connection points: 2
#     Edge 30, Type (0, 0), BuildingBlock: KIFKEQ_clean_linker_1, # of connection points: 2
#     Edge 31, Type (0, 0), BuildingBlock: KIFKEQ_clean_linker_1, # of connection points: 2
#     Edge 32, Type (0, 0), BuildingBlock: KIFKEQ_clean_linker_1, # of connection points: 2
#     Edge 33, Type (0, 0), BuildingBlock: KIFKEQ_clean_linker_1, # of connection points: 2
#     Edge 34, Type (0, 0), BuildingBlock: KIFKEQ_clean_linker_1, # of connection points: 2
#     Edge 35, Type (0, 0), BuildingBlock: KIFKEQ_clean_linker_1, # of connection points: 2
#     Edge 36, Type (0, 0), BuildingBlock: KIFKEQ_clean_linker_1, # of connection points: 2
#     Edge 37, Type (0, 0), BuildingBlock: KIFKEQ_clean_linker_1, # of connection points: 2
#     Edge 38, Type (0, 0), BuildingBlock: KIFKEQ_clean_linker_1, # of connection points: 2
#     Edge 39, Type (0, 0), BuildingBlock: KIFKEQ_clean_linker_1, # of connection points: 2
#     Edge 40, Type (0, 0), BuildingBlock: KIFKEQ_clean_linker_1, # of connection points: 2
#     Edge 41, Type (0, 0), BuildingBlock: KIFKEQ_clean_linker_1, # of connection points: 2
#     Edge 42, Type (0, 0), BuildingBlock: KIFKEQ_clean_linker_1, # of connection points: 2
#     Edge 43, Type (0, 0), BuildingBlock: KIFKEQ_clean_linker_1, # of connection points: 2
#     Edge 44, Type (0, 0), BuildingBlock: KIFKEQ_clean_linker_1, # of connection points: 2
#     Edge 45, Type (0, 0), BuildingBlock: KIFKEQ_clean_linker_1, # of connection points: 2
#     Edge 46, Type (0, 0), BuildingBlock: KIFKEQ_clean_linker_1, # of connection points: 2
#     Edge 47, Type (0, 0), BuildingBlock: KIFKEQ_clean_linker_1, # of connection points: 2
# Relax obj value: 0.285
# Max RMSD: 0.291
# Mean RMSD: 0.291
data_MOF--net-lcy-e--node1-OJICUG_clean_sbu_0--edge1-KIFKEQ_clean_linker_1
_symmetry_space_group_name_H-M    P1
_symmetry_Int_Tables_number       1
_symmetry_cell_setting            triclinic
loop_
_symmetry_equiv_pos_as_xyz
'x, y, z'
_cell_length_a     37.702617
_cell_length_b     37.63201
_cell_length_c     37.634986
_cell_angle_alpha  89.953809
_cell_angle_beta   89.913117
_cell_angle_gamma 90.077469
loop_
_atom_site_label
_atom_site_type_symbol
_atom_site_fract_x
_atom_site_fract_y
_atom_site_fract_z
_atom_type_partial_charge
Sc0 Sc 0.10817 0.15827 0.41461 0.0
Sc1 Sc 0.16007 0.17739 0.48709 0.0
Sc2 Sc 0.08606 0.22937 0.46574 0.0
O3 O 0.11944 0.18962 0.45588 0.0
C4 C 0.10673 0.23258 0.38218 0.0
C5 C 0.18955 0.15027 0.41537 0.0
C6 C 0.16242 0.26188 0.4832 0.0
C7 C 0.11401 0.10835 0.47989 0.0
C8 C 0.03491 0.17385 0.43602 0.0
C9 C 0.10199 0.20196 0.54385 0.0
O10 O 0.12148 0.20191 0.3802 0.0
O11 O 0.19409 0.17183 0.44087 0.0
O12 O 0.13011 0.26628 0.47361 0.0
O13 O 0.09428 0.11917 0.45452 0.0
O14 O 0.04083 0.19211 0.46355 0.0
O15 O 0.12987 0.18436 0.53611 0.0
O16 O 0.05563 0.17835 0.41045 0.0
O17 O 0.14451 0.1218 0.48628 0.0
O18 O 0.08436 0.21972 0.52136 0.0
O19 O 0.16001 0.13509 0.41053 0.0
O20 O 0.08778 0.24243 0.40891 0.0
O21 O 0.17624 0.23165 0.48926 0.0
Sc22 Sc 0.08021 0.88907 0.66024 0.0
Sc23 Sc 0.00547 0.83692 0.66688 0.0
Sc24 Sc 0.02539 0.89979 0.73161 0.0
O25 O 0.03723 0.87404 0.68738 0.0
C26 C 0.10872 0.88212 0.73627 0.0
C27 C 0.07851 0.80713 0.64692 0.0
C28 C 0.00171 0.82172 0.7504 0.0
C29 C 0.02061 0.88776 0.60449 0.0
C30 C 0.05707 0.96175 0.68821 0.0
C31 C 0.95016 0.89279 0.69399 0.0
O32 O 0.11261 0.87194 0.70404 0.0
O33 O 0.05009 0.8014 0.66426 0.0
O34 O 0.01758 0.85022 0.7598 0.0
O35 O 0.0435 0.90756 0.61973 0.0
O36 O 0.02939 0.95034 0.70359 0.0
O37 O 0.95933 0.87128 0.66951 0.0
O38 O 0.083 0.94131 0.68294 0.0
O39 O 0.0164 0.85548 0.61358 0.0
O40 O 0.97023 0.90203 0.71942 0.0
O41 O 0.0861 0.83783 0.63496 0.0
O42 O 0.08091 0.89825 0.74737 0.0
O43 O 0.99299 0.81525 0.71835 0.0
Sc44 Sc 0.40327 0.76244 0.96603 0.0
Sc45 Sc 0.33526 0.82158 0.9879 0.0
Sc46 Sc 0.38513 0.83307 0.91208 0.0
O47 O 0.37352 0.80464 0.95543 0.0
C48 C 0.45996 0.81081 0.93217 0.0
C49 C 0.39453 0.79739 0.04248 0.0
C50 C 0.38301 0.88835 0.97246 0.0
C51 C 0.32636 0.73709 0.99004 0.0
C52 C 0.38283 0.75727 0.88299 0.0
C53 C 0.30334 0.84333 0.91566 0.0
O54 O 0.45125 0.79432 0.96017 0.0
O55 O 0.36882 0.81801 0.03485 0.0
O56 O 0.40202 0.8747 0.94788 0.0
O57 O 0.35673 0.72982 0.97668 0.0
O58 O 0.3694 0.78838 0.88025 0.0
O59 O 0.29894 0.8249 0.94361 0.0
O60 O 0.40059 0.74694 0.91016 0.0
O61 O 0.31609 0.76859 0.99677 0.0
O62 O 0.33331 0.85645 0.90785 0.0
O63 O 0.40747 0.77496 0.02093 0.0
O64 O 0.4382 0.81373 0.90702 0.0
O65 O 0.35243 0.87618 0.98069 0.0
Sc66 Sc 0.41389 0.10975 0.15621 0.0
Sc67 Sc 0.48709 0.15992 0.17748 0.0
Sc68 Sc 0.45834 0.09257 0.23378 0.0
O69 O 0.45285 0.12179 0.1903 0.0
C70 C 0.37537 0.11116 0.22799 0.0
C71 C 0.41797 0.19203 0.14864 0.0
C72 C 0.47899 0.16914 0.26133 0.0
C73 C 0.48185 0.11259 0.11099 0.0
C74 C 0.43304 0.03539 0.18108 0.0
C75 C 0.53802 0.10083 0.208 0.0
O76 O 0.37616 0.12485 0.1968 0.0
O77 O 0.44305 0.19596 0.17082 0.0
O78 O 0.46295 0.13969 0.26712 0.0
O79 O 0.45541 0.09305 0.11943 0.0
O80 O 0.45825 0.04493 0.20109 0.0
O81 O 0.53263 0.12537 0.18528 0.0
O82 O 0.40767 0.05622 0.17487 0.0
O83 O 0.48434 0.14434 0.12238 0.0
O84 O 0.51443 0.0895 0.22923 0.0
O85 O 0.41238 0.16249 0.13334 0.0
O86 O 0.40121 0.09356 0.2413 0.0
O87 O 0.49113 0.1779 0.23103 0.0
Sc88 Sc 0.65611 0.32968 0.50196 0.0
Sc89 Sc 0.59954 0.26724 0.53935 0.0
Sc90 Sc 0.61369 0.34635 0.58116 0.0
O91 O 0.62434 0.31353 0.54104 0.0
C92 C 0.6941 0.36061 0.56733 0.0
C93 C 0.67436 0.24712 0.50956 0.0
C94 C 0.62375 0.27647 0.62059 0.0
C95 C 0.59461 0.29309 0.45949 0.0
C96 C 0.60657 0.39446 0.51548 0.0
C97 C 0.5402 0.31441 0.56949 0.0
O98 O 0.69708 0.33955 0.54101 0.0
O99 O 0.64954 0.23974 0.53156 0.0
O100 O 0.63564 0.30818 0.61782 0.0
O101 O 0.61553 0.31964 0.46214 0.0
O102 O 0.59014 0.3817 0.54226 0.0
O103 O 0.54904 0.29478 0.54361 0.0
O104 O 0.63734 0.38382 0.5065 0.0
O105 O 0.59127 0.26957 0.48345 0.0
O106 O 0.56282 0.3232 0.59255 0.0
O107 O 0.67734 0.27715 0.4942 0.0
O108 O 0.66417 0.37307 0.57661 0.0
O109 O 0.60562 0.26118 0.59631 0.0
Sc110 Sc 0.96931 0.41538 0.76039 0.0
Sc111 Sc 0.98309 0.3474 0.8222 0.0
Sc112 Sc 0.90926 0.40125 0.82678 0.0
O113 O 0.95378 0.38652 0.80182 0.0
C114 C 0.93483 0.47397 0.80593 0.0
C115 C 0.04224 0.40349 0.80085 0.0
C116 C 0.96627 0.39803 0.88567 0.0
C117 C 0.99188 0.33706 0.7382 0.0
C118 C 0.88618 0.39743 0.7489 0.0
C119 C 0.9084 0.31912 0.84045 0.0
O120 O 0.96355 0.46394 0.79176 0.0
O121 O 0.03183 0.37839 0.82111 0.0
O122 O 0.94363 0.41779 0.86994 0.0
O123 O 0.98079 0.36799 0.72946 0.0
O124 O 0.87996 0.38599 0.78039 0.0
O125 O 0.93714 0.3132 0.82384 0.0
O126 O 0.91489 0.41376 0.74025 0.0
O127 O 0.9949 0.32667 0.77029 0.0
O128 O 0.90029 0.35006 0.85113 0.0
O129 O 0.02308 0.41747 0.77701 0.0
O130 O 0.90846 0.45363 0.8046 0.0
O131 O 0.97266 0.36629 0.87565 0.0
Sc132 Sc 0.90638 0.7364 0.03182 0.0
Sc133 Sc 0.8401 0.67624 0.00789 0.0
Sc134 Sc 0.88676 0.66584 0.08559 0.0
O135 O 0.87639 0.69416 0.04183 0.0
C136 C 0.96123 0.68756 0.06773 0.0
C137 C 0.90184 0.6996 0.95579 0.0
C138 C 0.88779 0.61107 0.02485 0.0
C139 C 0.83105 0.7606 0.00343 0.0
C140 C 0.88124 0.74211 0.11398 0.0
C141 C 0.80514 0.6545 0.07818 0.0
O142 O 0.95391 0.70435 0.03958 0.0
O143 O 0.87604 0.67879 0.96277 0.0
O144 O 0.90609 0.62503 0.04976 0.0
O145 O 0.86041 0.76845 0.01853 0.0
O146 O 0.86919 0.71033 0.1168 0.0
O147 O 0.80214 0.67385 0.05071 0.0
O148 O 0.89994 0.75268 0.08738 0.0
O149 O 0.82147 0.72887 0.99668 0.0
O150 O 0.83477 0.64154 0.0875 0.0
O151 O 0.91335 0.72291 0.97727 0.0
O152 O 0.9389 0.68725 0.09252 0.0
O153 O 0.85664 0.62186 0.01735 0.0
Sc154 Sc 0.50145 0.6467 0.32306 0.0
Sc155 Sc 0.52391 0.58801 0.25513 0.0
Sc156 Sc 0.57903 0.59875 0.32603 0.0
O157 O 0.53485 0.61259 0.30043 0.0
C158 C 0.57317 0.6792 0.3451 0.0
C159 C 0.49689 0.66589 0.24021 0.0
C160 C 0.60646 0.60991 0.25059 0.0
C161 C 0.44877 0.58891 0.2934 0.0
C162 C 0.52094 0.59328 0.38349 0.0
C163 C 0.55809 0.52718 0.29713 0.0
O164 O 0.54439 0.68441 0.3283 0.0
O165 O 0.51347 0.6384 0.22908 0.0
O166 O 0.60948 0.6204 0.28278 0.0
O167 O 0.45678 0.61045 0.31826 0.0
O168 O 0.54472 0.57608 0.36653 0.0
O169 O 0.52983 0.53703 0.28198 0.0
O170 O 0.51219 0.62494 0.37526 0.0
O171 O 0.46909 0.58196 0.26742 0.0
O172 O 0.58356 0.54871 0.29917 0.0
O173 O 0.48866 0.6706 0.27273 0.0
O174 O 0.58256 0.64825 0.35473 0.0
O175 O 0.57946 0.5926 0.23918 0.0
Sc176 Sc 0.22836 0.46258 0.08972 0.0
Sc177 Sc 0.16498 0.48334 0.15398 0.0
Sc178 Sc 0.15696 0.40826 0.10211 0.0
O179 O 0.18434 0.45135 0.11657 0.0
C180 C 0.18159 0.43307 0.02992 0.0
C181 C 0.19505 0.5396 0.09962 0.0
C182 C 0.10109 0.46856 0.10293 0.0
C183 C 0.24872 0.48332 0.16842 0.0
C184 C 0.23221 0.37892 0.10661 0.0
C185 C 0.14194 0.41011 0.18385 0.0
O186 O 0.198 0.46055 0.04034 0.0
O187 O 0.17068 0.53088 0.12147 0.0
O188 O 0.11604 0.44458 0.08415 0.0
O189 O 0.25782 0.46888 0.13897 0.0
O190 O 0.2008 0.37589 0.11918 0.0
O191 O 0.15934 0.43852 0.18938 0.0
O192 O 0.24272 0.40639 0.08938 0.0
O193 O 0.21684 0.49183 0.17577 0.0
O194 O 0.13131 0.40168 0.15299 0.0
O195 O 0.21868 0.51832 0.08867 0.0
O196 O 0.18011 0.40639 0.05006 0.0
O197 O 0.1115 0.4765 0.13416 0.0
Sc198 Sc 0.68072 0.01399 0.82858 0.0
Sc199 Sc 0.73761 0.03374 0.89859 0.0
Sc200 Sc 0.66239 0.08291 0.88539 0.0
O201 O 0.69478 0.04366 0.86994 0.0
C202 C 0.6554 0.08746 0.80409 0.0
C203 C 0.76473 0.01829 0.82039 0.0
C204 C 0.73583 0.11838 0.88477 0.0
C205 C 0.70889 0.95593 0.88212 0.0
C206 C 0.61541 0.01688 0.87765 0.0
C207 C 0.68684 0.05813 0.95801 0.0
O208 O 0.67619 0.06185 0.79731 0.0
O209 O 0.77104 0.03017 0.85158 0.0
O210 O 0.70408 0.11998 0.87269 0.0
O211 O 0.68693 0.9646 0.85789 0.0
O212 O 0.6247 0.04133 0.89927 0.0
O213 O 0.70533 0.03244 0.94677 0.0
O214 O 0.62603 0.01717 0.84549 0.0
O215 O 0.72989 0.97765 0.89705 0.0
O216 O 0.68157 0.08488 0.93867 0.0
O217 O 0.73394 0.00974 0.80965 0.0
O218 O 0.63908 0.08915 0.8335 0.0
O219 O 0.74831 0.09078 0.90048 0.0
Sc220 Sc 0.82472 0.90521 0.39802 0.0
Sc221 Sc 0.753 0.95893 0.41317 0.0
Sc222 Sc 0.81761 0.98428 0.3521 0.0
O223 O 0.79757 0.9494 0.38658 0.0
C224 C 0.8827 0.96328 0.39992 0.0
C225 C 0.79914 0.92487 0.47177 0.0
C226 C 0.78931 0.03514 0.41255 0.0
C227 C 0.74862 0.87675 0.3903 0.0
C228 C 0.83929 0.91351 0.3162 0.0
C229 C 0.73419 0.98785 0.33694 0.0
O230 O 0.86725 0.93891 0.41788 0.0
O231 O 0.78208 0.95242 0.46278 0.0
O232 O 0.81351 0.02823 0.38981 0.0
O233 O 0.78062 0.87402 0.37929 0.0
O234 O 0.82223 0.94249 0.31273 0.0
O235 O 0.72437 0.97018 0.36432 0.0
O236 O 0.84952 0.90251 0.34642 0.0
O237 O 0.73754 0.90345 0.40821 0.0
O238 O 0.7663 0.99657 0.33119 0.0
O239 O 0.80228 0.89959 0.4501 0.0
O240 O 0.87082 0.97451 0.37031 0.0
O241 O 0.76424 0.01381 0.41974 0.0
Sc242 Sc 0.33304 0.58195 0.60695 0.0
Sc243 Sc 0.26127 0.52858 0.59133 0.0
Sc244 Sc 0.32185 0.50637 0.65755 0.0
O245 O 0.30436 0.53901 0.61983 0.0
C246 C 0.38767 0.52094 0.60856 0.0
C247 C 0.31033 0.5594 0.53363 0.0
C248 C 0.2943 0.45157 0.60038 0.0
C249 C 0.2577 0.61184 0.61072 0.0
C250 C 0.34549 0.57814 0.68897 0.0
C251 C 0.23782 0.50649 0.66907 0.0
O252 O 0.3738 0.54537 0.58957 0.0
O253 O 0.29301 0.53209 0.54293 0.0
O254 O 0.31688 0.45933 0.62433 0.0
O255 O 0.2892 0.61469 0.6231 0.0
O256 O 0.32645 0.55067 0.69341 0.0
O257 O 0.22973 0.52016 0.63901 0.0
O258 O 0.35751 0.58681 0.65865 0.0
O259 O 0.24711 0.58467 0.59311 0.0
O260 O 0.26937 0.49848 0.67798 0.0
O261 O 0.3117 0.58557 0.55436 0.0
O262 O 0.37604 0.51277 0.63936 0.0
O263 O 0.27155 0.47323 0.58847 0.0
H264 H 0.23274 0.27015 0.47045 0.0
H265 H 0.14251 0.32122 0.51922 0.0
H266 H 0.27261 0.31205 0.50007 0.0
H267 H 0.18244 0.36291 0.54914 0.0
H268 H 0.26009 0.39741 0.63182 0.0
H269 H 0.22927 0.35065 0.59894 0.0
H270 H 0.28589 0.38037 0.50364 0.0
H271 H 0.31636 0.42744 0.53662 0.0
C272 C 0.22144 0.29102 0.48675 0.0
C273 C 0.1846 0.29266 0.49251 0.0
C274 C 0.24424 0.31471 0.50385 0.0
C275 C 0.23058 0.33998 0.5275 0.0
C276 C 0.1936 0.34308 0.53154 0.0
C277 C 0.17073 0.31974 0.51395 0.0
C278 C 0.26737 0.39255 0.60437 0.0
C279 C 0.29093 0.41542 0.58678 0.0
C280 C 0.24918 0.36643 0.58538 0.0
C281 C 0.25462 0.36268 0.54863 0.0
C282 C 0.28114 0.38291 0.53192 0.0
C283 C 0.29899 0.40938 0.55086 0.0
H284 H 0.76614 0.02293 0.74833 0.0
H285 H 0.82849 0.99018 0.83877 0.0
H286 H 0.80726 0.99198 0.70847 0.0
H287 H 0.86911 0.95879 0.79893 0.0
H288 H 0.89496 0.86526 0.72938 0.0
H289 H 0.84883 0.90144 0.7571 0.0
H290 H 0.88116 0.99146 0.69375 0.0
H291 H 0.92791 0.95523 0.66644 0.0
C292 C 0.78921 0.00996 0.75953 0.0
C293 C 0.79424 0.00886 0.79659 0.0
C294 C 0.81247 0.99216 0.73677 0.0
C295 C 0.84063 0.97251 0.75088 0.0
C296 C 0.84711 0.97344 0.78764 0.0
C297 C 0.82425 0.99178 0.81035 0.0
C298 C 0.89082 0.89215 0.71992 0.0
C299 C 0.9144 0.90742 0.69547 0.0
C300 C 0.86499 0.913 0.73623 0.0
C301 C 0.86223 0.94927 0.72799 0.0
C302 C 0.88303 0.96354 0.70051 0.0
C303 C 0.90928 0.94272 0.6845 0.0
H304 H 0.34489 0.67214 0.01628 0.0
H305 H 0.25412 0.73727 0.9909 0.0
H306 H 0.30561 0.62885 0.04501 0.0
H307 H 0.21486 0.69347 0.01897 0.0
H308 H 0.17143 0.57029 0.03891 0.0
H309 H 0.20047 0.62097 0.00959 0.0
H310 H 0.26312 0.63903 0.10371 0.0
H311 H 0.23356 0.5891 0.1331 0.0
C312 C 0.31653 0.67676 0.01608 0.0
C313 C 0.30255 0.70803 0.00143 0.0
C314 C 0.29414 0.65227 0.03284 0.0
C315 C 0.25738 0.65828 0.03456 0.0
C316 C 0.24314 0.68846 0.01812 0.0
C317 C 0.26559 0.71335 0.00205 0.0
C318 C 0.18992 0.58647 0.05389 0.0
C319 C 0.19979 0.57653 0.08844 0.0
C320 C 0.20685 0.61503 0.03701 0.0
C321 C 0.23438 0.63328 0.0543 0.0
C322 C 0.24217 0.62506 0.08982 0.0
C323 C 0.22485 0.597 0.10683 0.0
H324 H 0.60233 0.13163 0.22073 0.0
H325 H 0.55026 0.03078 0.20486 0.0
H326 H 0.65343 0.10085 0.24667 0.0
H327 H 0.60107 -1e-05 0.23042 0.0
H328 H 0.66237 0.97468 0.33535 0.0
H329 H 0.61891 0.00036 0.29468 0.0
H330 H 0.70253 0.0561 0.2393 0.0
H331 H 0.7459 0.03078 0.2796 0.0
C332 C 0.60262 0.10285 0.22129 0.0
C333 C 0.57262 0.08346 0.21101 0.0
C334 C 0.63162 0.08521 0.23636 0.0
C335 C 0.63072 0.04809 0.24128 0.0
C336 C 0.60209 0.02863 0.22765 0.0
C337 C 0.57329 0.04619 0.21266 0.0
C338 C 0.67153 0.99209 0.31431 0.0
C339 C 0.7076 0.00074 0.311 0.0
C340 C 0.6467 0.00663 0.29087 0.0
C341 C 0.65746 0.03024 0.26384 0.0
C342 C 0.69352 0.03821 0.26001 0.0
C343 C 0.71832 0.02352 0.28316 0.0
H344 H 0.69948 0.23461 0.44357 0.0
H345 H 0.70711 0.19793 0.55187 0.0
H346 H 0.73851 0.18738 0.42421 0.0
H347 H 0.74893 0.15207 0.53329 0.0
H348 H 0.76693 0.04442 0.47965 0.0
H349 H 0.74716 0.09879 0.50637 0.0
H350 H 0.79141 0.15821 0.41817 0.0
H351 H 0.80893 0.10227 0.38989 0.0
C352 C 0.71023 0.21669 0.46336 0.0
C353 C 0.69982 0.21937 0.49908 0.0
C354 C 0.73316 0.18981 0.45236 0.0
C355 C 0.74705 0.16537 0.47698 0.0
C356 C 0.7381 0.16954 0.51322 0.0
C357 C 0.71419 0.19585 0.52404 0.0
C358 C 0.773 0.06916 0.46615 0.0
C359 C 0.78845 0.06908 0.43215 0.0
C360 C 0.76194 0.10069 0.48179 0.0
C361 C 0.76664 0.1333 0.46419 0.0
C362 C 0.78607 0.13354 0.432 0.0
C363 C 0.79671 0.1016 0.41595 0.0
H364 H 0.06833 0.4671 0.82136 0.0
H365 H 0.09724 0.36668 0.77454 0.0
H366 H 0.12013 0.49516 0.79346 0.0
H367 H 0.14839 0.39488 0.74592 0.0
H368 H 0.17184 0.48096 0.65404 0.0
H369 H 0.13005 0.454 0.6962 0.0
H370 H 0.19894 0.48173 0.78327 0.0
H371 H 0.24126 0.50801 0.74118 0.0
C372 C 0.08699 0.45068 0.80685 0.0
C373 C 0.07932 0.41472 0.80041 0.0
C374 C 0.11621 0.46678 0.79055 0.0
C375 C 0.13756 0.44712 0.76725 0.0
C376 C 0.13203 0.41041 0.76377 0.0
C377 C 0.10322 0.3942 0.7806 0.0
C378 C 0.17769 0.48194 0.68219 0.0
C379 C 0.20968 0.49651 0.69439 0.0
C380 C 0.1541 0.4662 0.70618 0.0
C381 C 0.16185 0.46548 0.74269 0.0
C382 C 0.19276 0.48181 0.75517 0.0
C383 C 0.21672 0.49689 0.73114 0.0
H384 H 0.75462 0.91006 0.85304 0.0
H385 H 0.67729 0.92123 0.93676 0.0
H386 H 0.78163 0.86021 0.88464 0.0
H387 H 0.70399 0.8708 0.96835 0.0
H388 H 0.75938 0.75877 0.99448 0.0
H389 H 0.72289 0.80156 0.9619 0.0
H390 H 0.81467 0.86855 0.94688 0.0
H391 H 0.85114 0.82616 0.97986 0.0
C392 C 0.74226 0.90048 0.87726 0.0
C393 C 0.71361 0.91881 0.89229 0.0
C394 C 0.75806 0.87249 0.89562 0.0
C395 C 0.74522 0.86232 0.92915 0.0
C396 C 0.71432 0.8783 0.94253 0.0
C397 C 0.69878 0.90672 0.92431 0.0
C398 C 0.7716 0.78297 0.98474 0.0
C399 C 0.80812 0.78917 0.98962 0.0
C400 C 0.75074 0.80728 0.96608 0.0
C401 C 0.76622 0.83781 0.95139 0.0
C402 C 0.80234 0.84479 0.95752 0.0
C403 C 0.82308 0.82082 0.97675 0.0
H404 H 0.43969 0.51827 0.29284 0.0
H405 H 0.38246 0.61736 0.29031 0.0
H406 H 0.38791 0.48719 0.26943 0.0
H407 H 0.33043 0.58639 0.26663 0.0
H408 H 0.2388 0.51744 0.23172 0.0
H409 H 0.28365 0.53894 0.27271 0.0
H410 H 0.3655 0.49297 0.20694 0.0
H411 H 0.32062 0.47124 0.16561 0.0
C412 C 0.41539 0.53306 0.28867 0.0
C413 C 0.41478 0.57007 0.29329 0.0
C414 C 0.38599 0.51539 0.27489 0.0
C415 C 0.35551 0.53451 0.26548 0.0
C416 C 0.35361 0.57098 0.27371 0.0
C417 C 0.38319 0.58872 0.28752 0.0
C418 C 0.26631 0.51145 0.22603 0.0
C419 C 0.27611 0.49283 0.19502 0.0
C420 C 0.29196 0.52389 0.24962 0.0
C421 C 0.32797 0.51771 0.24302 0.0
C422 C 0.33781 0.49778 0.21293 0.0
C423 C 0.31214 0.48552 0.1891 0.0
H424 H 0.49953 0.23827 0.25587 0.0
H425 H 0.47653 0.15637 0.33327 0.0
H426 H 0.52261 0.27634 0.30254 0.0
H427 H 0.49965 0.19488 0.38014 0.0
H428 H 0.52535 0.27699 0.46053 0.0
H429 H 0.49052 0.25248 0.41189 0.0
H430 H 0.57773 0.27196 0.33984 0.0
H431 H 0.61269 0.29676 0.38892 0.0
C432 C 0.49894 0.2285 0.28295 0.0
C433 C 0.48666 0.19396 0.29081 0.0
C434 C 0.51228 0.25039 0.3096 0.0
C435 C 0.51332 0.23845 0.3448 0.0
C436 C 0.49898 0.20485 0.35314 0.0
C437 C 0.48573 0.18277 0.32636 0.0
C438 C 0.53669 0.27689 0.43404 0.0
C439 C 0.57174 0.28834 0.42832 0.0
C440 C 0.51685 0.26265 0.40635 0.0
C441 C 0.53168 0.25963 0.37235 0.0
C442 C 0.56565 0.27401 0.36588 0.0
C443 C 0.58562 0.28835 0.39379 0.0
H444 H 0.04075 0.18106 0.57508 0.0
H445 H 0.13772 0.239 0.59344 0.0
H446 H 0.01319 0.21088 0.62598 0.0
H447 H 0.10994 0.26956 0.64372 0.0
H448 H 0.02427 0.35481 0.67583 0.0
H449 H 0.05449 0.31471 0.63454 0.0
H450 H 0.02079 0.22451 0.69691 0.0
H451 H 0.99117 0.2646 0.73878 0.0
C452 C 0.05665 0.19884 0.59118 0.0
C453 C 0.09147 0.20734 0.58094 0.0
C454 C 0.0408 0.21617 0.61996 0.0
C455 C 0.05934 0.24286 0.63821 0.0
C456 C 0.0951 0.24923 0.62978 0.0
C457 C 0.11117 0.23133 0.60149 0.0
C458 C 0.02286 0.32642 0.68044 0.0
C459 C 0.00529 0.31281 0.71042 0.0
C460 C 0.04055 0.30356 0.65715 0.0
C461 C 0.04038 0.26666 0.66303 0.0
C462 C 0.02151 0.25288 0.69207 0.0
C463 C 0.00448 0.2758 0.71582 0.0
H464 H 0.01818 0.82183 0.82131 0.0
H465 H 0.96172 0.76163 0.74145 0.0
H466 H -0.00298 0.78089 0.86673 0.0
H467 H 0.9409 0.72056 0.78698 0.0
H468 H 0.97189 0.69744 0.94216 0.0
H469 H 0.00051 0.71902 0.88812 0.0
H470 H 0.89818 0.72619 0.83709 0.0
H471 H 0.86972 0.70389 0.89119 0.0
C472 C 0.00166 0.79967 0.81335 0.0
C473 C 0.99145 0.7953 0.77776 0.0
C474 C 0.98977 0.77597 0.83933 0.0
C475 C 0.96736 0.74741 0.83035 0.0
C476 C 0.95798 0.7424 0.79468 0.0
C477 C 0.97002 0.76597 0.76864 0.0
C478 C 0.95577 0.70224 0.91882 0.0
C479 C 0.91869 0.69936 0.92066 0.0
C480 C 0.97207 0.71492 0.88808 0.0
C481 C 0.95149 0.7252 0.85879 0.0
C482 C 0.91472 0.71849 0.8593 0.0
C483 C 0.89839 0.70555 0.89013 0.0
H484 H 0.51398 0.67182 0.16951 0.0
H485 H 0.45277 0.72216 0.2527 0.0
H486 H 0.49102 0.71483 0.12692 0.0
H487 H 0.43006 0.76509 0.21003 0.0
H488 H 0.36043 0.78567 0.10519 0.0
H489 H 0.3886 0.7603 0.15799 0.0
H490 H 0.49178 0.77942 0.11166 0.0
H491 H 0.46352 0.80433 0.05897 0.0
C492 C 0.49597 0.6922 0.17881 0.0
C493 C 0.48513 0.6933 0.21449 0.0
C494 C 0.48304 0.71707 0.15448 0.0
C495 C 0.45883 0.74343 0.16525 0.0
C496 C 0.44857 0.74503 0.20101 0.0
C497 C 0.46172 0.72039 0.2254 0.0
C498 C 0.3891 0.7861 0.10723 0.0
C499 C 0.4099 0.79677 0.07823 0.0
C500 C 0.40527 0.77131 0.13725 0.0
C501 C 0.44237 0.76709 0.13844 0.0
C502 C 0.46314 0.78164 0.11108 0.0
C503 C 0.44702 0.79631 0.0812 0.0
H504 H 0.08823 0.30266 0.38153 0.0
H505 H 0.13597 0.22118 0.31614 0.0
H506 H 0.09631 0.34566 0.334 0.0
H507 H 0.14416 0.26466 0.26849 0.0
H508 H 0.11408 0.34326 0.17961 0.0
H509 H 0.10586 0.30038 0.2273 0.0
H510 H 0.14633 0.37652 0.30287 0.0
H511 H 0.15457 0.41979 0.25508 0.0
C512 C 0.10037 0.29381 0.35699 0.0
C513 C 0.1113 0.2583 0.35264 0.0
C514 C 0.10523 0.31863 0.32986 0.0
C515 C 0.12091 0.30856 0.2976 0.0
C516 C 0.13172 0.27308 0.29303 0.0
C517 C 0.12713 0.24822 0.32035 0.0
C518 C 0.12103 0.3511 0.2064 0.0
C519 C 0.13489 0.38512 0.21351 0.0
C520 C 0.1166 0.32632 0.23366 0.0
C521 C 0.12563 0.33501 0.26874 0.0
C522 C 0.13894 0.36917 0.27606 0.0
C523 C 0.14369 0.39393 0.2487 0.0
H524 H 0.99556 0.86108 0.54271 0.0
H525 H 0.98047 0.94595 0.61781 0.0
H526 H 0.93831 0.8746 0.51585 0.0
H527 H 0.92285 0.95971 0.59119 0.0
H528 H 0.83296 0.98199 0.50218 0.0
H529 H 0.88891 0.97865 0.53527 0.0
H530 H 0.87811 0.8646 0.5413 0.0
H531 H 0.82276 0.86788 0.50846 0.0
C532 C 0.98053 0.88353 0.55259 0.0
C533 C 0.99275 0.90306 0.5818 0.0
C534 C 0.9475 0.89092 0.53769 0.0
C535 C 0.92571 0.91766 0.55204 0.0
C536 C 0.93905 0.93899 0.57956 0.0
C537 C 0.97231 0.9316 0.5944 0.0
C538 C 0.84185 0.9564 0.51189 0.0
C539 C 0.8239 0.9251 0.50217 0.0
C540 C 0.87406 0.95446 0.53049 0.0
C541 C 0.88858 0.92123 0.53937 0.0
C542 C 0.86827 0.89049 0.53349 0.0
C543 C 0.8363 0.89241 0.51513 0.0
H544 H 0.40284 0.62109 0.69837 0.0
H545 H 0.30386 0.58954 0.74716 0.0
H546 H 0.41218 0.66471 0.74562 0.0
H547 H 0.31294 0.63391 0.79396 0.0
H548 H 0.32732 0.75217 0.83662 0.0
H549 H 0.31853 0.70686 0.79055 0.0
H550 H 0.41937 0.65987 0.81725 0.0
H551 H 0.42789 0.7044 0.86369 0.0
C552 C 0.38324 0.62334 0.71932 0.0
C553 C 0.35271 0.60189 0.71924 0.0
C554 C 0.38858 0.64825 0.74624 0.0
C555 C 0.36311 0.65268 0.77306 0.0
C556 C 0.33276 0.63103 0.7733 0.0
C557 C 0.32778 0.60552 0.74679 0.0
C558 C 0.34764 0.73227 0.83245 0.0
C559 C 0.37826 0.73173 0.85366 0.0
C560 C 0.34249 0.7063 0.80639 0.0
C561 C 0.36825 0.67998 0.80067 0.0
C562 C 0.39919 0.67996 0.82127 0.0
C563 C 0.40398 0.70536 0.84779 0.0
H564 H 0.48625 0.05878 0.06054 0.0
H565 H 0.54957 0.13193 0.12198 0.0
H566 H 0.54034 0.0384 0.03015 0.0
H567 H 0.60273 0.10827 0.0967 0.0
H568 H 0.67958 0.11036 0.00543 0.0
H569 H 0.63072 0.11813 0.04555 0.0
H570 H 0.5961 0.01025 0.02512 0.0
H571 H 0.64495 0.00366 0.9824 0.0
C572 C 0.51166 0.0699 0.06809 0.0
C573 C 0.51348 0.09745 0.09319 0.0
C574 C 0.54276 0.05788 0.05115 0.0
C575 C 0.57621 0.07231 0.06018 0.0
C576 C 0.5777 0.09756 0.08756 0.0
C577 C 0.54691 0.11082 0.10271 0.0
C578 C 0.66237 0.08782 0.01055 0.0
C579 C 0.66626 0.05638 0.99117 0.0
C580 C 0.63405 0.09214 0.03377 0.0
C581 C 0.60895 0.0648 0.03895 0.0
C582 C 0.61449 0.03208 0.02156 0.0
C583 C 0.64296 0.02793 0.99774 0.0
H584 H 0.57384 0.24061 0.65671 0.0
H585 H 0.68569 0.26509 0.6567 0.0
H586 H 0.58283 0.19698 0.70355 0.0
H587 H 0.69497 0.22079 0.70398 0.0
H588 H 0.69478 0.10146 0.74434 0.0
H589 H 0.68906 0.15242 0.7043 0.0
H590 H 0.60137 0.19151 0.76691 0.0
H591 H 0.6067 0.1408 0.8066 0.0
C592 C 0.60028 0.2371 0.66744 0.0
C593 C 0.62909 0.2561 0.65338 0.0
C594 C 0.60542 0.21218 0.69423 0.0
C595 C 0.63962 0.20537 0.70718 0.0
C596 C 0.66838 0.22542 0.69416 0.0
C597 C 0.66308 0.25095 0.66756 0.0
C598 C 0.67414 0.12081 0.74938 0.0
C599 C 0.65093 0.11684 0.77839 0.0
C600 C 0.67123 0.15021 0.7268 0.0
C601 C 0.64491 0.17595 0.7327 0.0
C602 C 0.62182 0.17199 0.7617 0.0
C603 C 0.62483 0.14284 0.78433 0.0
H604 H 0.14843 0.49112 -4e-05 0.0
H605 H 0.15624 0.37693 0.99316 0.0
H606 H 0.09208 0.48893 0.96714 0.0
H607 H 0.10137 0.37483 0.95966 0.0
H608 H 0.98561 0.37073 0.94937 0.0
H609 H 0.04001 0.38467 0.98156 0.0
H610 H 0.06116 0.47112 0.90897 0.0
H611 H 0.00641 0.45701 0.87708 0.0
C612 C 0.13863 0.46574 0.99065 0.0
C613 C 0.15603 0.43411 0.00015 0.0
C614 C 0.10639 0.46446 0.97199 0.0
C615 C 0.09159 0.43153 0.96224 0.0
C616 C 0.11131 0.40047 0.96815 0.0
C617 C 0.14308 0.40173 0.98688 0.0
C618 C 0.00113 0.39362 0.94129 0.0
C619 C 0.99144 0.41338 0.91129 0.0
C620 C 0.03254 0.40131 0.9593 0.0
C621 C 0.05526 0.42851 0.94726 0.0
C622 C 0.04417 0.45012 0.91896 0.0
C623 C 0.01251 0.44248 0.90104 0.0
H624 H 0.87225 0.84914 0.31602 0.0
H625 H 0.82294 0.92537 0.24568 0.0
H626 H 0.881 0.80889 0.2666 0.0
H627 H 0.83188 0.88445 0.19578 0.0
H628 H 0.89252 0.81397 0.11301 0.0
H629 H 0.88192 0.85659 0.16058 0.0
H630 H 0.84234 0.77211 0.22749 0.0
H631 H 0.85305 0.72927 0.18004 0.0
C632 C 0.86339 0.85751 0.28997 0.0
C633 C 0.84678 0.89063 0.28494 0.0
C634 C 0.8682 0.83417 0.26166 0.0
C635 C 0.85676 0.84329 0.22742 0.0
C636 C 0.84101 0.87674 0.22195 0.0
C637 C 0.83589 0.90015 0.2505 0.0
C638 C 0.88155 0.80438 0.13785 0.0
C639 C 0.87395 0.76804 0.14278 0.0
C640 C 0.87522 0.82893 0.16498 0.0
C641 C 0.86145 0.81769 0.19778 0.0
C642 C 0.85337 0.78149 0.20259 0.0
C643 C 0.8594 0.75696 0.17536 0.0
H644 H 0.34006 0.501 0.50075 0.0
H645 H 0.34089 0.61578 0.5012 0.0
H646 H 0.39567 0.50114 0.46642 0.0
H647 H 0.39546 0.61584 0.467 0.0
H648 H 0.51011 0.61179 0.45204 0.0
H649 H 0.4573 0.59738 0.4869 0.0
H650 H 0.4238 0.52353 0.40587 0.0
H651 H 0.4767 0.53823 0.37112 0.0
C652 C 0.35154 0.52616 0.49275 0.0
C653 C 0.3366 0.55838 0.50439 0.0
C654 C 0.38343 0.52622 0.47337 0.0
C655 C 0.40051 0.55851 0.46534 0.0
C656 C 0.38359 0.59054 0.47401 0.0
C657 C 0.35204 0.59049 0.49321 0.0
C658 C 0.49234 0.59122 0.4426 0.0
C659 C 0.4979 0.57536 0.40941 0.0
C660 C 0.4619 0.5833 0.46222 0.0
C661 C 0.43618 0.55981 0.44871 0.0
C662 C 0.44328 0.54152 0.41701 0.0
C663 C 0.47388 0.54945 0.39738 0.0
H664 H 0.19635 0.09281 0.37239 0.0
H665 H 0.246 0.19309 0.39814 0.0
H666 H 0.23862 0.08406 0.32431 0.0
H667 H 0.28867 0.18412 0.34963 0.0
H668 H 0.3326 0.16972 0.23441 0.0
H669 H 0.28735 0.17981 0.28047 0.0
H670 H 0.30415 0.07349 0.32025 0.0
H671 H 0.34894 0.06355 0.27476 0.0
C672 C 0.21654 0.11286 0.36797 0.0
C673 C 0.218 0.14356 0.38918 0.0
C674 C 0.24069 0.10784 0.34039 0.0
C675 C 0.2667 0.13354 0.3331 0.0
C676 C 0.26854 0.16413 0.35446 0.0
C677 C 0.24451 0.16899 0.38248 0.0
C678 C 0.32595 0.14838 0.25258 0.0
C679 C 0.34409 0.11585 0.25104 0.0
C680 C 0.30052 0.15428 0.27916 0.0
C681 C 0.29253 0.1275 0.30404 0.0
C682 C 0.30967 0.09455 0.30138 0.0
C683 C 0.33528 0.08887 0.27532 0.0
H684 H 0.04692 0.10729 0.50694 0.0
H685 H 0.14911 0.05658 0.51536 0.0
H686 H 0.02822 0.07917 0.56257 0.0
H687 H 0.1302 0.02718 0.56968 0.0
H688 H 0.11211 0.00716 0.68032 0.0
H689 H 0.12156 0.04515 0.62896 0.0
H690 H 0.01342 0.02657 0.59563 0.0
H691 H 0.00332 0.99122 0.64939 0.0
C692 C 0.06486 0.08904 0.52001 0.0
C693 C 0.09946 0.08402 0.50693 0.0
C694 C 0.05429 0.07321 0.55208 0.0
C695 C 0.0781 0.05185 0.57135 0.0
C696 C 0.11164 0.04467 0.55645 0.0
C697 C 0.12233 0.0609 0.52491 0.0
C698 C 0.08991 0.01258 0.66288 0.0
C699 C 0.05733 0.99529 0.66799 0.0
C700 C 0.0955 0.03366 0.63295 0.0
C701 C 0.0689 0.03715 0.60699 0.0
C702 C 0.03481 0.02378 0.61459 0.0
C703 C 0.02895 0.00346 0.64532 0.0
H704 H 0.17632 0.85759 0.72406 0.0
H705 H 0.10525 0.89045 0.80817 0.0
H706 H 0.22264 0.84667 0.76813 0.0
H707 H 0.15148 0.87981 0.85176 0.0
H708 H 0.2336 0.82252 0.9223 0.0
H709 H 0.18622 0.82994 0.8785 0.0
H710 H 0.25908 0.88439 0.80848 0.0
H711 H 0.30618 0.87701 0.85166 0.0
C712 C 0.17055 0.8625 0.75183 0.0
C713 C 0.13717 0.8752 0.76247 0.0
C714 C 0.19708 0.85633 0.77704 0.0
C715 C 0.19061 0.86243 0.81336 0.0
C716 C 0.15711 0.87453 0.82402 0.0
C717 C 0.13074 0.88095 0.7989 0.0
C718 C 0.23941 0.83624 0.89766 0.0
C719 C 0.27366 0.84926 0.89063 0.0
C720 C 0.21232 0.84047 0.8726 0.0
C721 C 0.2191 0.8575 0.83998 0.0
C722 C 0.25322 0.87066 0.83312 0.0
C723 C 0.28012 0.86669 0.85813 0.0
H724 H 0.38446 0.98389 0.17135 0.0
H725 H 0.4869 0.02033 0.13537 0.0
H726 H 0.37808 0.94842 0.11763 0.0
H727 H 0.48011 0.9856 0.08061 0.0
H728 H 0.4513 0.89375 0.99618 0.0
H729 H 0.47031 0.92514 0.05006 0.0
H730 H 0.36685 0.97369 0.05772 0.0
H731 H 0.3479 0.94201 0.00476 0.0
C732 C 0.40623 0.98308 0.15252 0.0
C733 C 0.43617 0.00455 0.15746 0.0
C734 C 0.40236 0.96337 0.12147 0.0
C735 C 0.42806 0.9653 0.09441 0.0
C736 C 0.45978 0.98385 0.10092 0.0
C737 C 0.46385 0.00335 0.1324 0.0
C738 C 0.43316 0.91213 0.00876 0.0
C739 C 0.39805 0.91529 0.99654 0.0
C740 C 0.4439 0.92977 0.03976 0.0
C741 C 0.41962 0.9508 0.05875 0.0
C742 C 0.38574 0.95663 0.04434 0.0
C743 C 0.37503 0.93894 0.01372 0.0
H744 H 0.89529 0.40191 0.677 0.0
H745 H 0.81598 0.38059 0.75739 0.0
H746 H 0.85066 0.39405 0.63071 0.0
H747 H 0.77147 0.37288 0.71095 0.0
H748 H 0.6959 0.40632 0.62331 0.0
H749 H 0.74335 0.41491 0.66585 0.0
H750 H 0.81034 0.34392 0.60586 0.0
H751 H 0.76238 0.33478 0.56284 0.0
C752 C 0.86834 0.39562 0.68483 0.0
C753 C 0.85911 0.39215 0.72094 0.0
C754 C 0.84293 0.39087 0.65826 0.0
C755 C 0.80768 0.38304 0.66729 0.0
C756 C 0.79846 0.37928 0.70332 0.0
C757 C 0.82395 0.38355 0.72988 0.0
C758 C 0.72077 0.39269 0.61877 0.0
C759 C 0.72517 0.36956 0.5897 0.0
C760 C 0.74788 0.39751 0.64338 0.0
C761 C 0.78021 0.37964 0.63944 0.0
C762 C 0.78553 0.35795 0.60948 0.0
C763 C 0.75814 0.3528 0.58486 0.0
H764 H 0.99025 0.5055 0.84219 0.0
H765 H 0.87642 0.50771 0.83041 0.0
H766 H 0.98468 0.5367 0.8993 0.0
H767 H 0.87099 0.53988 0.88593 0.0
H768 H 0.86192 0.54811 0.00178 0.0
H769 H 0.87842 0.51798 0.94684 0.0
H770 H 0.96468 0.59218 0.9318 0.0
H771 H 0.9482 0.62183 0.98731 0.0
C772 C 0.96419 0.51339 0.85133 0.0
C773 C 0.93368 0.50292 0.83257 0.0
C774 C 0.96099 0.5312 0.88401 0.0
C775 C 0.92725 0.53929 0.89785 0.0
C776 C 0.89726 0.53258 0.8768 0.0
C777 C 0.90042 0.5146 0.84465 0.0
C778 C 0.88526 0.55699 0.98746 0.0
C779 C 0.9043 0.58674 -0.00088 0.0
C780 C 0.89441 0.54019 0.95571 0.0
C781 C 0.92234 0.55328 0.9345 0.0
C782 C 0.94312 0.58141 0.94754 0.0
C783 C 0.93406 0.59806 0.9796 0.0
H784 H 0.79261 0.59545 0.11781 0.0
H785 H 0.74806 0.69747 0.09006 0.0
H786 H 0.74375 0.58522 0.15937 0.0
H787 H 0.69953 0.68745 0.13253 0.0
H788 H 0.65359 0.66535 0.25008 0.0
H789 H 0.70047 0.67681 0.20608 0.0
H790 H 0.67199 0.58063 0.15064 0.0
H791 H 0.62485 0.56951 0.19379 0.0
C792 C 0.77224 0.61556 0.12047 0.0
C793 C 0.77393 0.64716 0.10064 0.0
C794 C 0.7444 0.60971 0.14421 0.0
C795 C 0.71823 0.63568 0.14914 0.0
C796 C 0.71966 0.6672 0.12921 0.0
C797 C 0.74712 0.67273 0.10477 0.0
C798 C 0.65746 0.64669 0.22852 0.0
C799 C 0.63565 0.61656 0.22531 0.0
C800 C 0.68398 0.65338 0.20331 0.0
C801 C 0.68952 0.6296 0.1751 0.0
C802 C 0.6681 0.59929 0.17221 0.0
C803 C 0.64117 0.59302 0.19685 0.0
H804 H 0.54461 0.38277 0.48086 0.0
H805 H 0.63077 0.45737 0.49092 0.0
H806 H 0.52702 0.41053 0.42467 0.0
H807 H 0.61312 0.48557 0.43537 0.0
H808 H 0.61533 0.49034 0.31927 0.0
H809 H 0.62033 0.45874 0.3753 0.0
H810 H 0.50706 0.46651 0.39052 0.0
H811 H 0.50192 0.49708 0.33297 0.0
C812 C 0.55851 0.40631 0.47203 0.0
C813 C 0.5887 0.41829 0.49032 0.0
C814 C 0.54879 0.42187 0.43962 0.0
C815 C 0.56934 0.44951 0.42519 0.0
C816 C 0.59738 0.46363 0.4454 0.0
C817 C 0.60717 0.44794 0.47746 0.0
C818 C 0.59131 0.48425 0.33393 0.0
C819 C 0.55838 0.49719 0.32244 0.0
C820 C 0.59422 0.46669 0.36632 0.0
C821 C 0.5643 0.46179 0.38806 0.0
C822 C 0.53067 0.47069 0.37462 0.0
C823 C 0.52771 0.48805 0.34172 0.0
H824 H 0.28739 0.36184 0.06347 0.0
H825 H 0.23594 0.33119 0.1615 0.0
H826 H 0.33333 0.31743 0.07362 0.0
H827 H 0.28257 0.28688 0.17188 0.0
H828 H 0.399 0.24634 0.19291 0.0
H829 H 0.35258 0.29085 0.18281 0.0
H830 H 0.33458 0.24816 0.07797 0.0
H831 H 0.38034 0.20345 0.08813 0.0
C832 C 0.28583 0.34548 0.08713 0.0
C833 C 0.25805 0.34991 0.11169 0.0
C834 C 0.3121 0.32009 0.09287 0.0
C835 C 0.31154 0.29901 0.12361 0.0
C836 C 0.28367 0.30311 0.14812 0.0
C837 C 0.25689 0.32814 0.14202 0.0
C838 C 0.38544 0.24683 0.16755 0.0
C839 C 0.39336 0.22159 0.14122 0.0
C840 C 0.35867 0.27196 0.16197 0.0
C841 C 0.33996 0.27266 0.12972 0.0
C842 C 0.34867 0.24815 0.10304 0.0
C843 C 0.37486 0.22266 0.10885 0.0
H844 H 0.91819 0.24767 0.8294 0.0
H845 H 0.84131 0.32394 0.86742 0.0
H846 H 0.87566 0.19979 0.84011 0.0
H847 H 0.79916 0.27612 0.87823 0.0
H848 H 0.72145 0.18351 0.85469 0.0
H849 H 0.76322 0.23211 0.84378 0.0
H850 H 0.84697 0.17091 0.8923 0.0
H851 H 0.80576 0.1225 0.90308 0.0
C852 C 0.89236 0.25424 0.84015 0.0
C853 C 0.8833 0.28964 0.8477 0.0
C854 C 0.86804 0.22681 0.84637 0.0
C855 C 0.83407 0.23426 0.85999 0.0
C856 C 0.82497 0.26962 0.86738 0.0
C857 C 0.84932 0.29697 0.86144 0.0
C858 C 0.7487 0.18051 0.86324 0.0
C859 C 0.76013 0.14904 0.8798 0.0
C860 C 0.7726 0.20835 0.85702 0.0
C861 C 0.80841 0.20516 0.86698 0.0
C862 C 0.81969 0.17392 0.88385 0.0
C863 C 0.79587 0.14628 0.89027 0.0
H864 H 0.03511 0.48468 0.1264 0.0
H865 H 0.11256 0.51119 0.04647 0.0
H866 H 0.00279 0.53923 0.113 0.0
H867 H 0.08083 0.56618 0.03319 0.0
H868 H 0.99565 0.65596 0.01131 0.0
H869 H 0.0265 0.59857 0.01319 0.0
H870 H 0.02062 0.59969 0.12782 0.0
H871 H 0.98897 0.6557 0.12585 0.0
C872 C 0.04433 0.5015 0.10489 0.0
C873 C 0.07575 0.49337 0.08678 0.0
C874 C 0.02627 0.53303 0.0976 0.0
C875 C 0.03978 0.55747 0.07262 0.0
C876 C 0.06965 0.5479 0.05244 0.0
C877 C 0.08754 0.51611 0.05959 0.0
C878 C 0.00152 0.64411 0.03685 0.0
C879 C 0.989 0.6598 0.06838 0.0
C880 C 0.01904 0.61122 0.03793 0.0
C881 C 0.02468 0.5939 0.07061 0.0
C882 C 0.01531 0.61154 0.10213 0.0
C883 C -0.00233 0.64398 0.10103 0.0
H884 H 0.67703 0.87803 0.40093 0.0
H885 H 0.76142 0.81066 0.36198 0.0
H886 H 0.63424 0.83108 0.38961 0.0
H887 H 0.71816 0.76366 0.35034 0.0
H888 H 0.63778 0.67608 0.3774 0.0
H889 H 0.67985 0.724 0.38682 0.0
H890 H 0.60668 0.79826 0.33929 0.0
H891 H 0.56406 0.75012 0.32989 0.0
C892 C 0.68653 0.85321 0.3899 0.0
C893 C 0.72281 0.84804 0.38263 0.0
C894 C 0.66185 0.82643 0.38315 0.0
C895 C 0.67283 0.79372 0.36915 0.0
C896 C 0.70901 0.78853 0.36152 0.0
C897 C 0.73375 0.81548 0.36805 0.0
C898 C 0.63039 0.70261 0.36908 0.0
C899 C 0.59739 0.70922 0.35292 0.0
C900 C 0.65475 0.73002 0.37421 0.0
C901 C 0.64672 0.76478 0.36351 0.0
C902 C 0.61352 0.77168 0.34794 0.0
C903 C 0.58912 0.74413 0.34258 0.0
H904 H 0.50723 0.34477 0.51246 0.0
H905 H 0.50026 0.33251 0.62616 0.0
H906 H 0.47103 0.39885 0.51611 0.0
H907 H 0.46277 0.38488 0.62978 0.0
H908 H 0.44982 0.50049 0.6377 0.0
H909 H 0.48236 0.44649 0.6232 0.0
H910 H 0.41391 0.42908 0.53286 0.0
H911 H 0.38194 0.48382 0.54725 0.0
C912 C 0.49669 0.35284 0.53797 0.0
C913 C 0.50719 0.3352 0.56913 0.0
C914 C 0.47617 0.38384 0.54011 0.0
C915 C 0.46546 0.39694 0.57344 0.0
C916 C 0.47195 0.3763 0.60388 0.0
C917 C 0.4928 0.34589 0.60178 0.0
C918 C 0.44274 0.48586 0.61394 0.0
C919 C 0.41384 0.49651 0.59321 0.0
C920 C 0.46085 0.45461 0.60597 0.0
C921 C 0.44991 0.43294 0.57753 0.0
C922 C 0.42286 0.44513 0.55499 0.0
C923 C 0.40491 0.47674 0.56285 0.0
H924 H 0.18686 0.61055 0.59658 0.0
H925 H 0.26955 0.6785 0.63828 0.0
H926 H 0.14367 0.6574 0.60577 0.0
H927 H 0.22578 0.72551 0.64773 0.0
H928 H 0.14443 0.81189 0.61733 0.0
H929 H 0.18793 0.76485 0.6098 0.0
H930 H 0.11475 0.68937 0.65591 0.0
H931 H 0.07082 0.73646 0.66334 0.0
C932 C 0.19592 0.6355 0.6077 0.0
C933 C 0.23182 0.64081 0.61651 0.0
C934 C 0.171 0.66223 0.61323 0.0
C935 C 0.18134 0.69502 0.62751 0.0
C936 C 0.21717 0.70051 0.63639 0.0
C937 C 0.24217 0.67358 0.63109 0.0
C938 C 0.1374 0.78524 0.6257 0.0
C939 C 0.10399 0.77791 0.64078 0.0
C940 C 0.16253 0.7584 0.62169 0.0
C941 C 0.15479 0.72355 0.63243 0.0
C942 C 0.12132 0.71602 0.64718 0.0
C943 C 0.09619 0.74297 0.65145 0.0
H944 H 0.4958 0.82625 0.87238 0.0
H945 H 0.49647 0.84515 0.98545 0.0
H946 H 0.53647 0.87469 0.86344 0.0
H947 H 0.53927 0.89373 0.9768 0.0
H948 H 0.57106 0.00842 0.93598 0.0
H949 H 0.54013 0.95369 0.95395 0.0
H950 H 0.59231 0.89711 0.86869 0.0
H951 H 0.61943 0.95144 0.84892 0.0
C952 C 0.50581 0.84006 0.89557 0.0
C953 C 0.4928 0.83204 0.92955 0.0
C954 C 0.5294 0.86799 0.89051 0.0
C955 C 0.54128 0.88853 0.91938 0.0
C956 C 0.53029 0.87886 0.95389 0.0
C957 C 0.5063 0.85066 0.95895 0.0
C958 C 0.57537 0.98425 0.92098 0.0
C959 C 0.59684 0.98457 0.89041 0.0
C960 C 0.55816 0.95276 0.93156 0.0
C961 C 0.56307 0.92094 0.91232 0.0
C962 C 0.58663 0.92116 0.8834 0.0
C963 C 0.60247 0.95253 0.87213 0.0
H964 H 0.93957 0.98379 0.36244 0.0
H965 H 0.89362 0.9891 0.46704 0.0
H966 H 0.97802 0.03255 0.37621 0.0
H967 H 0.93488 0.03689 0.48292 0.0
H968 H 0.97551 0.15492 0.47578 0.0
H969 H 0.94376 0.09781 0.47356 0.0
H970 H 0.02425 0.057 0.4024 0.0
H971 H 0.05154 0.11417 0.40016 0.0
C972 C 0.93911 0.99432 0.38924 0.0
C973 C 0.9138 0.98246 0.41376 0.0
C974 C 0.96143 0.02252 0.39744 0.0
C975 C 0.95992 0.03926 0.43093 0.0
C976 C 0.93656 0.02524 0.45668 0.0
C977 C 0.91353 0.99716 0.44804 0.0
C978 C 0.98583 0.13367 0.45938 0.0
C979 C 0.0157 0.13942 0.43778 0.0
C980 C 0.96804 0.1007 0.45847 0.0
C981 C 0.98075 0.07261 0.43698 0.0
C982 C 0.01225 0.07805 0.41783 0.0
C983 C 0.02838 0.11113 0.41697 0.0
loop_
_geom_bond_atom_site_label_1
_geom_bond_atom_site_label_2
_geom_bond_distance
_geom_bond_site_symmetry_2
_ccdc_geom_bond_type
Sc0 O3 2.025 . S
Sc0 O10 2.105 . S
Sc0 O13 2.105 . S
Sc0 O16 2.105 . S
Sc0 O19 2.105 . S
Sc1 O3 2.025 . S
Sc1 O11 2.105 . S
Sc1 O15 2.105 . S
Sc1 O17 2.105 . S
Sc1 O21 2.105 . S
Sc2 O3 2.025 . S
Sc2 O12 2.105 . S
Sc2 O14 2.105 . S
Sc2 O18 2.105 . S
Sc2 O20 2.105 . S
O3 Sc0 2.025 . S
O3 Sc1 2.025 . S
O3 Sc2 2.025 . S
C4 O10 1.268 . S
C4 O20 1.268 . S
C5 O11 1.268 . S
C5 O19 1.268 . S
C6 O12 1.268 . S
C6 O21 1.268 . S
C7 O13 1.268 . S
C7 O17 1.268 . S
C8 O14 1.268 . S
C8 O16 1.268 . S
C9 O15 1.268 . S
C9 O18 1.268 . S
O10 Sc0 2.105 . S
O10 C4 1.268 . S
O11 Sc1 2.105 . S
O11 C5 1.268 . S
O12 Sc2 2.105 . S
O12 C6 1.268 . S
O13 Sc0 2.105 . S
O13 C7 1.268 . S
O14 Sc2 2.105 . S
O14 C8 1.268 . S
O15 Sc1 2.105 . S
O15 C9 1.268 . S
O16 Sc0 2.105 . S
O16 C8 1.268 . S
O17 Sc1 2.105 . S
O17 C7 1.268 . S
O18 Sc2 2.105 . S
O18 C9 1.268 . S
O19 Sc0 2.105 . S
O19 C5 1.268 . S
O20 Sc2 2.105 . S
O20 C4 1.268 . S
O21 Sc1 2.105 . S
O21 C6 1.268 . S
Sc22 O25 2.025 . S
Sc22 O32 2.105 . S
Sc22 O35 2.105 . S
Sc22 O38 2.105 . S
Sc22 O41 2.105 . S
Sc23 O25 2.025 . S
Sc23 O33 2.105 . S
Sc23 O37 2.105 1_455 S
Sc23 O39 2.105 1_455 S
Sc23 O43 2.105 . S
Sc24 O25 2.025 . S
Sc24 O34 2.105 . S
Sc24 O36 2.105 . S
Sc24 O40 2.105 1_455 S
Sc24 O42 2.105 . S
O25 Sc22 2.025 . S
O25 Sc23 2.025 . S
O25 Sc24 2.025 . S
C26 O32 1.268 . S
C26 O42 1.268 . S
C27 O33 1.268 . S
C27 O41 1.268 . S
C28 O34 1.268 . S
C28 O43 1.268 . S
C29 O35 1.268 . S
C29 O39 1.268 1_455 S
C30 O36 1.268 . S
C30 O38 1.268 . S
C31 O37 1.268 . S
C31 O40 1.268 . S
O32 Sc22 2.105 . S
O32 C26 1.268 . S
O33 Sc23 2.105 . S
O33 C27 1.268 . S
O34 Sc24 2.105 . S
O34 C28 1.268 . S
O35 Sc22 2.105 . S
O35 C29 1.268 . S
O36 Sc24 2.105 . S
O36 C30 1.268 . S
O37 Sc23 2.105 1_655 S
O37 C31 1.268 . S
O38 Sc22 2.105 . S
O38 C30 1.268 . S
O39 Sc23 2.105 1_655 S
O39 C29 1.268 1_655 S
O40 Sc24 2.105 1_655 S
O40 C31 1.268 . S
O41 Sc22 2.105 . S
O41 C27 1.268 . S
O42 Sc24 2.105 . S
O42 C26 1.268 . S
O43 Sc23 2.105 . S
O43 C28 1.268 . S
Sc44 O47 2.025 . S
Sc44 O54 2.105 . S
Sc44 O57 2.105 . S
Sc44 O60 2.105 . S
Sc44 O63 2.105 1_556 S
Sc45 O47 2.025 . S
Sc45 O55 2.105 1_556 S
Sc45 O59 2.105 . S
Sc45 O61 2.105 . S
Sc45 O65 2.105 1_556 S
Sc46 O47 2.025 . S
Sc46 O56 2.105 . S
Sc46 O58 2.105 . S
Sc46 O62 2.105 . S
Sc46 O64 2.105 . S
O47 Sc44 2.025 . S
O47 Sc45 2.025 . S
O47 Sc46 2.025 . S
C48 O54 1.268 . S
C48 O64 1.268 . S
C49 O55 1.268 . S
C49 O63 1.268 . S
C50 O56 1.268 . S
C50 O65 1.268 1_556 S
C51 O57 1.268 . S
C51 O61 1.268 . S
C52 O58 1.268 . S
C52 O60 1.268 . S
C53 O59 1.268 . S
C53 O62 1.268 . S
O54 Sc44 2.105 . S
O54 C48 1.268 . S
O55 Sc45 2.105 1_554 S
O55 C49 1.268 . S
O56 Sc46 2.105 . S
O56 C50 1.268 . S
O57 Sc44 2.105 . S
O57 C51 1.268 . S
O58 Sc46 2.105 . S
O58 C52 1.268 . S
O59 Sc45 2.105 . S
O59 C53 1.268 . S
O60 Sc44 2.105 . S
O60 C52 1.268 . S
O61 Sc45 2.105 . S
O61 C51 1.268 . S
O62 Sc46 2.105 . S
O62 C53 1.268 . S
O63 Sc44 2.105 1_554 S
O63 C49 1.268 . S
O64 Sc46 2.105 . S
O64 C48 1.268 . S
O65 Sc45 2.105 1_554 S
O65 C50 1.268 1_554 S
Sc66 O69 2.025 . S
Sc66 O76 2.105 . S
Sc66 O79 2.105 . S
Sc66 O82 2.105 . S
Sc66 O85 2.105 . S
Sc67 O69 2.025 . S
Sc67 O77 2.105 . S
Sc67 O81 2.105 . S
Sc67 O83 2.105 . S
Sc67 O87 2.105 . S
Sc68 O69 2.025 . S
Sc68 O78 2.105 . S
Sc68 O80 2.105 . S
Sc68 O84 2.105 . S
Sc68 O86 2.105 . S
O69 Sc66 2.025 . S
O69 Sc67 2.025 . S
O69 Sc68 2.025 . S
C70 O76 1.268 . S
C70 O86 1.268 . S
C71 O77 1.268 . S
C71 O85 1.268 . S
C72 O78 1.268 . S
C72 O87 1.268 . S
C73 O79 1.268 . S
C73 O83 1.268 . S
C74 O80 1.268 . S
C74 O82 1.268 . S
C75 O81 1.268 . S
C75 O84 1.268 . S
O76 Sc66 2.105 . S
O76 C70 1.268 . S
O77 Sc67 2.105 . S
O77 C71 1.268 . S
O78 Sc68 2.105 . S
O78 C72 1.268 . S
O79 Sc66 2.105 . S
O79 C73 1.268 . S
O80 Sc68 2.105 . S
O80 C74 1.268 . S
O81 Sc67 2.105 . S
O81 C75 1.268 . S
O82 Sc66 2.105 . S
O82 C74 1.268 . S
O83 Sc67 2.105 . S
O83 C73 1.268 . S
O84 Sc68 2.105 . S
O84 C75 1.268 . S
O85 Sc66 2.105 . S
O85 C71 1.268 . S
O86 Sc68 2.105 . S
O86 C70 1.268 . S
O87 Sc67 2.105 . S
O87 C72 1.268 . S
Sc88 O91 2.025 . S
Sc88 O98 2.105 . S
Sc88 O101 2.105 . S
Sc88 O104 2.105 . S
Sc88 O107 2.105 . S
Sc89 O91 2.025 . S
Sc89 O99 2.105 . S
Sc89 O103 2.105 . S
Sc89 O105 2.105 . S
Sc89 O109 2.105 . S
Sc90 O91 2.025 . S
Sc90 O100 2.105 . S
Sc90 O102 2.105 . S
Sc90 O106 2.105 . S
Sc90 O108 2.105 . S
O91 Sc88 2.025 . S
O91 Sc89 2.025 . S
O91 Sc90 2.025 . S
C92 O98 1.268 . S
C92 O108 1.268 . S
C93 O99 1.268 . S
C93 O107 1.268 . S
C94 O100 1.268 . S
C94 O109 1.268 . S
C95 O101 1.268 . S
C95 O105 1.268 . S
C96 O102 1.268 . S
C96 O104 1.268 . S
C97 O103 1.268 . S
C97 O106 1.268 . S
O98 Sc88 2.105 . S
O98 C92 1.268 . S
O99 Sc89 2.105 . S
O99 C93 1.268 . S
O100 Sc90 2.105 . S
O100 C94 1.268 . S
O101 Sc88 2.105 . S
O101 C95 1.268 . S
O102 Sc90 2.105 . S
O102 C96 1.268 . S
O103 Sc89 2.105 . S
O103 C97 1.268 . S
O104 Sc88 2.105 . S
O104 C96 1.268 . S
O105 Sc89 2.105 . S
O105 C95 1.268 . S
O106 Sc90 2.105 . S
O106 C97 1.268 . S
O107 Sc88 2.105 . S
O107 C93 1.268 . S
O108 Sc90 2.105 . S
O108 C92 1.268 . S
O109 Sc89 2.105 . S
O109 C94 1.268 . S
Sc110 O113 2.025 . S
Sc110 O120 2.105 . S
Sc110 O123 2.105 . S
Sc110 O126 2.105 . S
Sc110 O129 2.105 1_655 S
Sc111 O113 2.025 . S
Sc111 O121 2.105 1_655 S
Sc111 O125 2.105 . S
Sc111 O127 2.105 . S
Sc111 O131 2.105 1_655 S
Sc112 O113 2.025 . S
Sc112 O122 2.105 . S
Sc112 O124 2.105 . S
Sc112 O128 2.105 . S
Sc112 O130 2.105 . S
O113 Sc110 2.025 . S
O113 Sc111 2.025 . S
O113 Sc112 2.025 . S
C114 O120 1.268 . S
C114 O130 1.268 . S
C115 O121 1.268 . S
C115 O129 1.268 . S
C116 O122 1.268 . S
C116 O131 1.268 1_655 S
C117 O123 1.268 . S
C117 O127 1.268 . S
C118 O124 1.268 . S
C118 O126 1.268 . S
C119 O125 1.268 . S
C119 O128 1.268 . S
O120 Sc110 2.105 . S
O120 C114 1.268 . S
O121 Sc111 2.105 1_455 S
O121 C115 1.268 . S
O122 Sc112 2.105 . S
O122 C116 1.268 . S
O123 Sc110 2.105 . S
O123 C117 1.268 . S
O124 Sc112 2.105 . S
O124 C118 1.268 . S
O125 Sc111 2.105 . S
O125 C119 1.268 . S
O126 Sc110 2.105 . S
O126 C118 1.268 . S
O127 Sc111 2.105 . S
O127 C117 1.268 . S
O128 Sc112 2.105 . S
O128 C119 1.268 . S
O129 Sc110 2.105 1_455 S
O129 C115 1.268 . S
O130 Sc112 2.105 . S
O130 C114 1.268 . S
O131 Sc111 2.105 1_455 S
O131 C116 1.268 1_455 S
Sc132 O135 2.025 . S
Sc132 O142 2.105 . S
Sc132 O145 2.105 . S
Sc132 O148 2.105 . S
Sc132 O151 2.105 1_554 S
Sc133 O135 2.025 . S
Sc133 O143 2.105 1_554 S
Sc133 O147 2.105 . S
Sc133 O149 2.105 . S
Sc133 O153 2.105 1_554 S
Sc134 O135 2.025 . S
Sc134 O144 2.105 . S
Sc134 O146 2.105 . S
Sc134 O150 2.105 . S
Sc134 O152 2.105 . S
O135 Sc132 2.025 . S
O135 Sc133 2.025 . S
O135 Sc134 2.025 . S
C136 O142 1.268 . S
C136 O152 1.268 . S
C137 O143 1.268 . S
C137 O151 1.268 . S
C138 O144 1.268 . S
C138 O153 1.268 1_554 S
C139 O145 1.268 . S
C139 O149 1.268 . S
C140 O146 1.268 . S
C140 O148 1.268 . S
C141 O147 1.268 . S
C141 O150 1.268 . S
O142 Sc132 2.105 . S
O142 C136 1.268 . S
O143 Sc133 2.105 1_556 S
O143 C137 1.268 . S
O144 Sc134 2.105 . S
O144 C138 1.268 . S
O145 Sc132 2.105 . S
O145 C139 1.268 . S
O146 Sc134 2.105 . S
O146 C140 1.268 . S
O147 Sc133 2.105 . S
O147 C141 1.268 . S
O148 Sc132 2.105 . S
O148 C140 1.268 . S
O149 Sc133 2.105 . S
O149 C139 1.268 . S
O150 Sc134 2.105 . S
O150 C141 1.268 . S
O151 Sc132 2.105 1_556 S
O151 C137 1.268 . S
O152 Sc134 2.105 . S
O152 C136 1.268 . S
O153 Sc133 2.105 1_556 S
O153 C138 1.268 1_556 S
Sc154 O157 2.025 . S
Sc154 O164 2.105 . S
Sc154 O167 2.105 . S
Sc154 O170 2.105 . S
Sc154 O173 2.105 . S
Sc155 O157 2.025 . S
Sc155 O165 2.105 . S
Sc155 O169 2.105 . S
Sc155 O171 2.105 . S
Sc155 O175 2.105 . S
Sc156 O157 2.025 . S
Sc156 O166 2.105 . S
Sc156 O168 2.105 . S
Sc156 O172 2.105 . S
Sc156 O174 2.105 . S
O157 Sc154 2.025 . S
O157 Sc155 2.025 . S
O157 Sc156 2.025 . S
C158 O164 1.268 . S
C158 O174 1.268 . S
C159 O165 1.268 . S
C159 O173 1.268 . S
C160 O166 1.268 . S
C160 O175 1.268 . S
C161 O167 1.268 . S
C161 O171 1.268 . S
C162 O168 1.268 . S
C162 O170 1.268 . S
C163 O169 1.268 . S
C163 O172 1.268 . S
O164 Sc154 2.105 . S
O164 C158 1.268 . S
O165 Sc155 2.105 . S
O165 C159 1.268 . S
O166 Sc156 2.105 . S
O166 C160 1.268 . S
O167 Sc154 2.105 . S
O167 C161 1.268 . S
O168 Sc156 2.105 . S
O168 C162 1.268 . S
O169 Sc155 2.105 . S
O169 C163 1.268 . S
O170 Sc154 2.105 . S
O170 C162 1.268 . S
O171 Sc155 2.105 . S
O171 C161 1.268 . S
O172 Sc156 2.105 . S
O172 C163 1.268 . S
O173 Sc154 2.105 . S
O173 C159 1.268 . S
O174 Sc156 2.105 . S
O174 C158 1.268 . S
O175 Sc155 2.105 . S
O175 C160 1.268 . S
Sc176 O179 2.025 . S
Sc176 O186 2.105 . S
Sc176 O189 2.105 . S
Sc176 O192 2.105 . S
Sc176 O195 2.105 . S
Sc177 O179 2.025 . S
Sc177 O187 2.105 . S
Sc177 O191 2.105 . S
Sc177 O193 2.105 . S
Sc177 O197 2.105 . S
Sc178 O179 2.025 . S
Sc178 O188 2.105 . S
Sc178 O190 2.105 . S
Sc178 O194 2.105 . S
Sc178 O196 2.105 . S
O179 Sc176 2.025 . S
O179 Sc177 2.025 . S
O179 Sc178 2.025 . S
C180 O186 1.268 . S
C180 O196 1.268 . S
C181 O187 1.268 . S
C181 O195 1.268 . S
C182 O188 1.268 . S
C182 O197 1.268 . S
C183 O189 1.268 . S
C183 O193 1.268 . S
C184 O190 1.268 . S
C184 O192 1.268 . S
C185 O191 1.268 . S
C185 O194 1.268 . S
O186 Sc176 2.105 . S
O186 C180 1.268 . S
O187 Sc177 2.105 . S
O187 C181 1.268 . S
O188 Sc178 2.105 . S
O188 C182 1.268 . S
O189 Sc176 2.105 . S
O189 C183 1.268 . S
O190 Sc178 2.105 . S
O190 C184 1.268 . S
O191 Sc177 2.105 . S
O191 C185 1.268 . S
O192 Sc176 2.105 . S
O192 C184 1.268 . S
O193 Sc177 2.105 . S
O193 C183 1.268 . S
O194 Sc178 2.105 . S
O194 C185 1.268 . S
O195 Sc176 2.105 . S
O195 C181 1.268 . S
O196 Sc178 2.105 . S
O196 C180 1.268 . S
O197 Sc177 2.105 . S
O197 C182 1.268 . S
Sc198 O201 2.025 . S
Sc198 O208 2.105 . S
Sc198 O211 2.105 1_545 S
Sc198 O214 2.105 1_545 S
Sc198 O217 2.105 . S
Sc199 O201 2.025 . S
Sc199 O209 2.105 . S
Sc199 O213 2.105 . S
Sc199 O215 2.105 1_545 S
Sc199 O219 2.105 . S
Sc200 O201 2.025 . S
Sc200 O210 2.105 . S
Sc200 O212 2.105 . S
Sc200 O216 2.105 . S
Sc200 O218 2.105 . S
O201 Sc198 2.025 . S
O201 Sc199 2.025 . S
O201 Sc200 2.025 . S
C202 O208 1.268 . S
C202 O218 1.268 . S
C203 O209 1.268 . S
C203 O217 1.268 . S
C204 O210 1.268 . S
C204 O219 1.268 . S
C205 O211 1.268 . S
C205 O215 1.268 . S
C206 O212 1.268 . S
C206 O214 1.268 1_545 S
C207 O213 1.268 . S
C207 O216 1.268 . S
O208 Sc198 2.105 . S
O208 C202 1.268 . S
O209 Sc199 2.105 . S
O209 C203 1.268 . S
O210 Sc200 2.105 . S
O210 C204 1.268 . S
O211 Sc198 2.105 1_565 S
O211 C205 1.268 . S
O212 Sc200 2.105 . S
O212 C206 1.268 . S
O213 Sc199 2.105 . S
O213 C207 1.268 . S
O214 Sc198 2.105 1_565 S
O214 C206 1.268 1_565 S
O215 Sc199 2.105 1_565 S
O215 C205 1.268 . S
O216 Sc200 2.105 . S
O216 C207 1.268 . S
O217 Sc198 2.105 . S
O217 C203 1.268 . S
O218 Sc200 2.105 . S
O218 C202 1.268 . S
O219 Sc199 2.105 . S
O219 C204 1.268 . S
Sc220 O223 2.025 . S
Sc220 O230 2.105 . S
Sc220 O233 2.105 . S
Sc220 O236 2.105 . S
Sc220 O239 2.105 . S
Sc221 O223 2.025 . S
Sc221 O231 2.105 . S
Sc221 O235 2.105 . S
Sc221 O237 2.105 . S
Sc221 O241 2.105 1_565 S
Sc222 O223 2.025 . S
Sc222 O232 2.105 1_565 S
Sc222 O234 2.105 . S
Sc222 O238 2.105 . S
Sc222 O240 2.105 1_565 S
O223 Sc220 2.025 . S
O223 Sc221 2.025 . S
O223 Sc222 2.025 . S
C224 O230 1.268 . S
C224 O240 1.268 1_565 S
C225 O231 1.268 . S
C225 O239 1.268 . S
C226 O232 1.268 . S
C226 O241 1.268 . S
C227 O233 1.268 . S
C227 O237 1.268 . S
C228 O234 1.268 . S
C228 O236 1.268 . S
C229 O235 1.268 . S
C229 O238 1.268 . S
O230 Sc220 2.105 . S
O230 C224 1.268 . S
O231 Sc221 2.105 . S
O231 C225 1.268 . S
O232 Sc222 2.105 1_545 S
O232 C226 1.268 . S
O233 Sc220 2.105 . S
O233 C227 1.268 . S
O234 Sc222 2.105 . S
O234 C228 1.268 . S
O235 Sc221 2.105 . S
O235 C229 1.268 . S
O236 Sc220 2.105 . S
O236 C228 1.268 . S
O237 Sc221 2.105 . S
O237 C227 1.268 . S
O238 Sc222 2.105 . S
O238 C229 1.268 . S
O239 Sc220 2.105 . S
O239 C225 1.268 . S
O240 Sc222 2.105 1_545 S
O240 C224 1.268 1_545 S
O241 Sc221 2.105 1_545 S
O241 C226 1.268 . S
Sc242 O245 2.025 . S
Sc242 O252 2.105 . S
Sc242 O255 2.105 . S
Sc242 O258 2.105 . S
Sc242 O261 2.105 . S
Sc243 O245 2.025 . S
Sc243 O253 2.105 . S
Sc243 O257 2.105 . S
Sc243 O259 2.105 . S
Sc243 O263 2.105 . S
Sc244 O245 2.025 . S
Sc244 O254 2.105 . S
Sc244 O256 2.105 . S
Sc244 O260 2.105 . S
Sc244 O262 2.105 . S
O245 Sc242 2.025 . S
O245 Sc243 2.025 . S
O245 Sc244 2.025 . S
C246 O252 1.268 . S
C246 O262 1.268 . S
C247 O253 1.268 . S
C247 O261 1.268 . S
C248 O254 1.268 . S
C248 O263 1.268 . S
C249 O255 1.268 . S
C249 O259 1.268 . S
C250 O256 1.268 . S
C250 O258 1.268 . S
C251 O257 1.268 . S
C251 O260 1.268 . S
O252 Sc242 2.105 . S
O252 C246 1.268 . S
O253 Sc243 2.105 . S
O253 C247 1.268 . S
O254 Sc244 2.105 . S
O254 C248 1.268 . S
O255 Sc242 2.105 . S
O255 C249 1.268 . S
O256 Sc244 2.105 . S
O256 C250 1.268 . S
O257 Sc243 2.105 . S
O257 C251 1.268 . S
O258 Sc242 2.105 . S
O258 C250 1.268 . S
O259 Sc243 2.105 . S
O259 C249 1.268 . S
O260 Sc244 2.105 . S
O260 C251 1.268 . S
O261 Sc242 2.105 . S
O261 C247 1.268 . S
O262 Sc244 2.105 . S
O262 C246 1.268 . S
O263 Sc243 2.105 . S
O263 C248 1.268 . S
H264 C272 0.950 . S
H265 C277 0.950 . S
H266 C274 0.950 . S
H267 C276 0.950 . S
H268 C278 0.950 . S
H269 C280 0.950 . S
H270 C282 0.950 . S
H271 C283 0.950 . S
C272 H264 0.950 . S
C272 C273 1.386 . S
C272 C274 1.391 . S
C273 C272 1.386 . S
C273 C277 1.393 . S
C274 H266 0.950 . S
C274 C272 1.391 . S
C274 C275 1.400 . S
C275 C274 1.400 . S
C275 C276 1.398 . S
C275 C281 1.491 . S
C276 H267 0.950 . S
C276 C275 1.398 . S
C276 C277 1.391 . S
C277 H265 0.950 . S
C277 C273 1.393 . S
C277 C276 1.391 . S
C278 H268 0.950 . S
C278 C279 1.386 . S
C278 C280 1.391 . S
C279 C278 1.386 . S
C279 C283 1.393 . S
C280 H269 0.950 . S
C280 C278 1.391 . S
C280 C281 1.400 . S
C281 C275 1.491 . S
C281 C280 1.400 . S
C281 C282 1.398 . S
C282 H270 0.950 . S
C282 C281 1.398 . S
C282 C283 1.391 . S
C283 H271 0.950 . S
C283 C279 1.393 . S
C283 C282 1.391 . S
H284 C292 0.950 . S
H285 C297 0.950 . S
H286 C294 0.950 . S
H287 C296 0.950 . S
H288 C298 0.950 . S
H289 C300 0.950 . S
H290 C302 0.950 . S
H291 C303 0.950 . S
C292 H284 0.950 . S
C292 C293 1.386 . S
C292 C294 1.391 1_545 S
C293 C292 1.386 . S
C293 C297 1.393 . S
C294 H286 0.950 . S
C294 C292 1.391 1_565 S
C294 C295 1.400 . S
C295 C294 1.400 . S
C295 C296 1.398 . S
C295 C301 1.491 . S
C296 H287 0.950 . S
C296 C295 1.398 . S
C296 C297 1.391 1_565 S
C297 H285 0.950 . S
C297 C293 1.393 . S
C297 C296 1.391 1_545 S
C298 H288 0.950 . S
C298 C299 1.386 . S
C298 C300 1.391 . S
C299 C298 1.386 . S
C299 C303 1.393 . S
C300 H289 0.950 . S
C300 C298 1.391 . S
C300 C301 1.400 . S
C301 C295 1.491 . S
C301 C300 1.400 . S
C301 C302 1.398 . S
C302 H290 0.950 . S
C302 C301 1.398 . S
C302 C303 1.391 . S
C303 H291 0.950 . S
C303 C299 1.393 . S
C303 C302 1.391 . S
H304 C312 0.950 . S
H305 C317 0.950 . S
H306 C314 0.950 . S
H307 C316 0.950 . S
H308 C318 0.950 . S
H309 C320 0.950 . S
H310 C322 0.950 . S
H311 C323 0.950 . S
C312 H304 0.950 . S
C312 C313 1.386 . S
C312 C314 1.391 1_556 S
C313 C312 1.386 . S
C313 C317 1.393 . S
C314 H306 0.950 . S
C314 C312 1.391 1_554 S
C314 C315 1.400 . S
C315 C314 1.400 . S
C315 C316 1.398 . S
C315 C321 1.491 . S
C316 H307 0.950 . S
C316 C315 1.398 . S
C316 C317 1.391 1_554 S
C317 H305 0.950 . S
C317 C313 1.393 . S
C317 C316 1.391 1_556 S
C318 H308 0.950 . S
C318 C319 1.386 . S
C318 C320 1.391 . S
C319 C318 1.386 . S
C319 C323 1.393 . S
C320 H309 0.950 . S
C320 C318 1.391 . S
C320 C321 1.400 . S
C321 C315 1.491 . S
C321 C320 1.400 . S
C321 C322 1.398 . S
C322 H310 0.950 . S
C322 C321 1.398 . S
C322 C323 1.391 . S
C323 H311 0.950 . S
C323 C319 1.393 . S
C323 C322 1.391 . S
H324 C332 0.950 . S
H325 C337 0.950 . S
H326 C334 0.950 . S
H327 C336 0.950 . S
H328 C338 0.950 . S
H329 C340 0.950 . S
H330 C342 0.950 . S
H331 C343 0.950 . S
C332 H324 0.950 . S
C332 C333 1.386 . S
C332 C334 1.391 . S
C333 C332 1.386 . S
C333 C337 1.393 . S
C334 H326 0.950 . S
C334 C332 1.391 . S
C334 C335 1.400 . S
C335 C334 1.400 . S
C335 C336 1.398 . S
C335 C341 1.491 . S
C336 H327 0.950 . S
C336 C335 1.398 . S
C336 C337 1.391 . S
C337 H325 0.950 . S
C337 C333 1.393 . S
C337 C336 1.391 . S
C338 H328 0.950 . S
C338 C339 1.386 . S
C338 C340 1.391 . S
C339 C338 1.386 . S
C339 C343 1.393 1_565 S
C340 H329 0.950 . S
C340 C338 1.391 . S
C340 C341 1.400 1_565 S
C341 C335 1.491 . S
C341 C340 1.400 1_545 S
C341 C342 1.398 . S
C342 H330 0.950 . S
C342 C341 1.398 . S
C342 C343 1.391 . S
C343 H331 0.950 . S
C343 C339 1.393 1_545 S
C343 C342 1.391 . S
H344 C352 0.950 . S
H345 C357 0.950 . S
H346 C354 0.950 . S
H347 C356 0.950 . S
H348 C358 0.950 . S
H349 C360 0.950 . S
H350 C362 0.950 . S
H351 C363 0.950 . S
C352 H344 0.950 . S
C352 C353 1.386 . S
C352 C354 1.391 . S
C353 C352 1.386 . S
C353 C357 1.393 . S
C354 H346 0.950 . S
C354 C352 1.391 . S
C354 C355 1.400 . S
C355 C354 1.400 . S
C355 C356 1.398 . S
C355 C361 1.491 . S
C356 H347 0.950 . S
C356 C355 1.398 . S
C356 C357 1.391 . S
C357 H345 0.950 . S
C357 C353 1.393 . S
C357 C356 1.391 . S
C358 H348 0.950 . S
C358 C359 1.386 . S
C358 C360 1.391 . S
C359 C358 1.386 . S
C359 C363 1.393 . S
C360 H349 0.950 . S
C360 C358 1.391 . S
C360 C361 1.400 . S
C361 C355 1.491 . S
C361 C360 1.400 . S
C361 C362 1.398 . S
C362 H350 0.950 . S
C362 C361 1.398 . S
C362 C363 1.391 . S
C363 H351 0.950 . S
C363 C359 1.393 . S
C363 C362 1.391 . S
H364 C372 0.950 . S
H365 C377 0.950 . S
H366 C374 0.950 . S
H367 C376 0.950 . S
H368 C378 0.950 . S
H369 C380 0.950 . S
H370 C382 0.950 . S
H371 C383 0.950 . S
C372 H364 0.950 . S
C372 C373 1.386 . S
C372 C374 1.391 . S
C373 C372 1.386 . S
C373 C377 1.393 . S
C374 H366 0.950 . S
C374 C372 1.391 . S
C374 C375 1.400 . S
C375 C374 1.400 . S
C375 C376 1.398 . S
C375 C381 1.491 . S
C376 H367 0.950 . S
C376 C375 1.398 . S
C376 C377 1.391 . S
C377 H365 0.950 . S
C377 C373 1.393 . S
C377 C376 1.391 . S
C378 H368 0.950 . S
C378 C379 1.386 . S
C378 C380 1.391 . S
C379 C378 1.386 . S
C379 C383 1.393 . S
C380 H369 0.950 . S
C380 C378 1.391 . S
C380 C381 1.400 . S
C381 C375 1.491 . S
C381 C380 1.400 . S
C381 C382 1.398 . S
C382 H370 0.950 . S
C382 C381 1.398 . S
C382 C383 1.391 . S
C383 H371 0.950 . S
C383 C379 1.393 . S
C383 C382 1.391 . S
H384 C392 0.950 . S
H385 C397 0.950 . S
H386 C394 0.950 . S
H387 C396 0.950 1_554 S
H388 C398 0.950 . S
H389 C400 0.950 . S
H390 C402 0.950 . S
H391 C403 0.950 . S
C392 H384 0.950 . S
C392 C393 1.386 . S
C392 C394 1.391 . S
C393 C392 1.386 . S
C393 C397 1.393 . S
C394 H386 0.950 . S
C394 C392 1.391 . S
C394 C395 1.400 . S
C395 C394 1.400 . S
C395 C396 1.398 . S
C395 C401 1.491 . S
C396 H387 0.950 1_556 S
C396 C395 1.398 . S
C396 C397 1.391 . S
C397 H385 0.950 . S
C397 C393 1.393 . S
C397 C396 1.391 . S
C398 H388 0.950 . S
C398 C399 1.386 . S
C398 C400 1.391 . S
C399 C398 1.386 . S
C399 C403 1.393 1_554 S
C400 H389 0.950 . S
C400 C398 1.391 . S
C400 C401 1.400 1_554 S
C401 C395 1.491 . S
C401 C400 1.400 1_556 S
C401 C402 1.398 . S
C402 H390 0.950 . S
C402 C401 1.398 . S
C402 C403 1.391 . S
C403 H391 0.950 . S
C403 C399 1.393 1_556 S
C403 C402 1.391 . S
H404 C412 0.950 . S
H405 C417 0.950 . S
H406 C414 0.950 . S
H407 C416 0.950 . S
H408 C418 0.950 . S
H409 C420 0.950 . S
H410 C422 0.950 . S
H411 C423 0.950 . S
C412 H404 0.950 . S
C412 C413 1.386 . S
C412 C414 1.391 . S
C413 C412 1.386 . S
C413 C417 1.393 . S
C414 H406 0.950 . S
C414 C412 1.391 . S
C414 C415 1.400 . S
C415 C414 1.400 . S
C415 C416 1.398 . S
C415 C421 1.491 . S
C416 H407 0.950 . S
C416 C415 1.398 . S
C416 C417 1.391 . S
C417 H405 0.950 . S
C417 C413 1.393 . S
C417 C416 1.391 . S
C418 H408 0.950 . S
C418 C419 1.386 . S
C418 C420 1.391 . S
C419 C418 1.386 . S
C419 C423 1.393 . S
C420 H409 0.950 . S
C420 C418 1.391 . S
C420 C421 1.400 . S
C421 C415 1.491 . S
C421 C420 1.400 . S
C421 C422 1.398 . S
C422 H410 0.950 . S
C422 C421 1.398 . S
C422 C423 1.391 . S
C423 H411 0.950 . S
C423 C419 1.393 . S
C423 C422 1.391 . S
H424 C432 0.950 . S
H425 C437 0.950 . S
H426 C434 0.950 . S
H427 C436 0.950 . S
H428 C438 0.950 . S
H429 C440 0.950 . S
H430 C442 0.950 . S
H431 C443 0.950 . S
C432 H424 0.950 . S
C432 C433 1.386 . S
C432 C434 1.391 . S
C433 C432 1.386 . S
C433 C437 1.393 . S
C434 H426 0.950 . S
C434 C432 1.391 . S
C434 C435 1.400 . S
C435 C434 1.400 . S
C435 C436 1.398 . S
C435 C441 1.491 . S
C436 H427 0.950 . S
C436 C435 1.398 . S
C436 C437 1.391 . S
C437 H425 0.950 . S
C437 C433 1.393 . S
C437 C436 1.391 . S
C438 H428 0.950 . S
C438 C439 1.386 . S
C438 C440 1.391 . S
C439 C438 1.386 . S
C439 C443 1.393 . S
C440 H429 0.950 . S
C440 C438 1.391 . S
C440 C441 1.400 . S
C441 C435 1.491 . S
C441 C440 1.400 . S
C441 C442 1.398 . S
C442 H430 0.950 . S
C442 C441 1.398 . S
C442 C443 1.391 . S
C443 H431 0.950 . S
C443 C439 1.393 . S
C443 C442 1.391 . S
H444 C452 0.950 . S
H445 C457 0.950 . S
H446 C454 0.950 . S
H447 C456 0.950 1_655 S
H448 C458 0.950 . S
H449 C460 0.950 . S
H450 C462 0.950 . S
H451 C463 0.950 . S
C452 H444 0.950 . S
C452 C453 1.386 . S
C452 C454 1.391 . S
C453 C452 1.386 . S
C453 C457 1.393 . S
C454 H446 0.950 . S
C454 C452 1.391 . S
C454 C455 1.400 . S
C455 C454 1.400 . S
C455 C456 1.398 . S
C455 C461 1.491 . S
C456 H447 0.950 1_455 S
C456 C455 1.398 . S
C456 C457 1.391 . S
C457 H445 0.950 . S
C457 C453 1.393 . S
C457 C456 1.391 . S
C458 H448 0.950 . S
C458 C459 1.386 . S
C458 C460 1.391 . S
C459 C458 1.386 . S
C459 C463 1.393 1_655 S
C460 H449 0.950 . S
C460 C458 1.391 . S
C460 C461 1.400 1_655 S
C461 C455 1.491 . S
C461 C460 1.400 1_455 S
C461 C462 1.398 . S
C462 H450 0.950 . S
C462 C461 1.398 . S
C462 C463 1.391 . S
C463 H451 0.950 . S
C463 C459 1.393 1_455 S
C463 C462 1.391 . S
H464 C472 0.950 . S
H465 C477 0.950 . S
H466 C474 0.950 . S
H467 C476 0.950 . S
H468 C478 0.950 . S
H469 C480 0.950 . S
H470 C482 0.950 . S
H471 C483 0.950 . S
C472 H464 0.950 . S
C472 C473 1.386 1_655 S
C472 C474 1.391 . S
C473 C472 1.386 1_455 S
C473 C477 1.393 . S
C474 H466 0.950 . S
C474 C472 1.391 . S
C474 C475 1.400 . S
C475 C474 1.400 . S
C475 C476 1.398 1_655 S
C475 C481 1.491 . S
C476 H467 0.950 . S
C476 C475 1.398 1_455 S
C476 C477 1.391 . S
C477 H465 0.950 . S
C477 C473 1.393 . S
C477 C476 1.391 . S
C478 H468 0.950 . S
C478 C479 1.386 . S
C478 C480 1.391 . S
C479 C478 1.386 . S
C479 C483 1.393 . S
C480 H469 0.950 . S
C480 C478 1.391 . S
C480 C481 1.400 . S
C481 C475 1.491 . S
C481 C480 1.400 . S
C481 C482 1.398 . S
C482 H470 0.950 . S
C482 C481 1.398 . S
C482 C483 1.391 . S
C483 H471 0.950 . S
C483 C479 1.393 . S
C483 C482 1.391 . S
H484 C492 0.950 . S
H485 C497 0.950 . S
H486 C494 0.950 . S
H487 C496 0.950 . S
H488 C498 0.950 . S
H489 C500 0.950 . S
H490 C502 0.950 . S
H491 C503 0.950 . S
C492 H484 0.950 . S
C492 C493 1.386 . S
C492 C494 1.391 . S
C493 C492 1.386 . S
C493 C497 1.393 . S
C494 H486 0.950 . S
C494 C492 1.391 . S
C494 C495 1.400 . S
C495 C494 1.400 . S
C495 C496 1.398 . S
C495 C501 1.491 . S
C496 H487 0.950 . S
C496 C495 1.398 . S
C496 C497 1.391 . S
C497 H485 0.950 . S
C497 C493 1.393 . S
C497 C496 1.391 . S
C498 H488 0.950 . S
C498 C499 1.386 . S
C498 C500 1.391 . S
C499 C498 1.386 . S
C499 C503 1.393 . S
C500 H489 0.950 . S
C500 C498 1.391 . S
C500 C501 1.400 . S
C501 C495 1.491 . S
C501 C500 1.400 . S
C501 C502 1.398 . S
C502 H490 0.950 . S
C502 C501 1.398 . S
C502 C503 1.391 . S
C503 H491 0.950 . S
C503 C499 1.393 . S
C503 C502 1.391 . S
H504 C512 0.950 . S
H505 C517 0.950 . S
H506 C514 0.950 . S
H507 C516 0.950 . S
H508 C518 0.950 . S
H509 C520 0.950 . S
H510 C522 0.950 . S
H511 C523 0.950 . S
C512 H504 0.950 . S
C512 C513 1.386 . S
C512 C514 1.391 . S
C513 C512 1.386 . S
C513 C517 1.393 . S
C514 H506 0.950 . S
C514 C512 1.391 . S
C514 C515 1.400 . S
C515 C514 1.400 . S
C515 C516 1.398 . S
C515 C521 1.491 . S
C516 H507 0.950 . S
C516 C515 1.398 . S
C516 C517 1.391 . S
C517 H505 0.950 . S
C517 C513 1.393 . S
C517 C516 1.391 . S
C518 H508 0.950 . S
C518 C519 1.386 . S
C518 C520 1.391 . S
C519 C518 1.386 . S
C519 C523 1.393 . S
C520 H509 0.950 . S
C520 C518 1.391 . S
C520 C521 1.400 . S
C521 C515 1.491 . S
C521 C520 1.400 . S
C521 C522 1.398 . S
C522 H510 0.950 . S
C522 C521 1.398 . S
C522 C523 1.391 . S
C523 H511 0.950 . S
C523 C519 1.393 . S
C523 C522 1.391 . S
H524 C532 0.950 . S
H525 C537 0.950 . S
H526 C534 0.950 . S
H527 C536 0.950 . S
H528 C538 0.950 . S
H529 C540 0.950 . S
H530 C542 0.950 . S
H531 C543 0.950 . S
C532 H524 0.950 . S
C532 C533 1.386 . S
C532 C534 1.391 . S
C533 C532 1.386 . S
C533 C537 1.393 . S
C534 H526 0.950 . S
C534 C532 1.391 . S
C534 C535 1.400 . S
C535 C534 1.400 . S
C535 C536 1.398 . S
C535 C541 1.491 . S
C536 H527 0.950 . S
C536 C535 1.398 . S
C536 C537 1.391 . S
C537 H525 0.950 . S
C537 C533 1.393 . S
C537 C536 1.391 . S
C538 H528 0.950 . S
C538 C539 1.386 . S
C538 C540 1.391 . S
C539 C538 1.386 . S
C539 C543 1.393 . S
C540 H529 0.950 . S
C540 C538 1.391 . S
C540 C541 1.400 . S
C541 C535 1.491 . S
C541 C540 1.400 . S
C541 C542 1.398 . S
C542 H530 0.950 . S
C542 C541 1.398 . S
C542 C543 1.391 . S
C543 H531 0.950 . S
C543 C539 1.393 . S
C543 C542 1.391 . S
H544 C552 0.950 . S
H545 C557 0.950 . S
H546 C554 0.950 . S
H547 C556 0.950 . S
H548 C558 0.950 . S
H549 C560 0.950 . S
H550 C562 0.950 . S
H551 C563 0.950 . S
C552 H544 0.950 . S
C552 C553 1.386 . S
C552 C554 1.391 . S
C553 C552 1.386 . S
C553 C557 1.393 . S
C554 H546 0.950 . S
C554 C552 1.391 . S
C554 C555 1.400 . S
C555 C554 1.400 . S
C555 C556 1.398 . S
C555 C561 1.491 . S
C556 H547 0.950 . S
C556 C555 1.398 . S
C556 C557 1.391 . S
C557 H545 0.950 . S
C557 C553 1.393 . S
C557 C556 1.391 . S
C558 H548 0.950 . S
C558 C559 1.386 . S
C558 C560 1.391 . S
C559 C558 1.386 . S
C559 C563 1.393 . S
C560 H549 0.950 . S
C560 C558 1.391 . S
C560 C561 1.400 . S
C561 C555 1.491 . S
C561 C560 1.400 . S
C561 C562 1.398 . S
C562 H550 0.950 . S
C562 C561 1.398 . S
C562 C563 1.391 . S
C563 H551 0.950 . S
C563 C559 1.393 . S
C563 C562 1.391 . S
H564 C572 0.950 . S
H565 C577 0.950 . S
H566 C574 0.950 . S
H567 C576 0.950 . S
H568 C578 0.950 . S
H569 C580 0.950 . S
H570 C582 0.950 . S
H571 C583 0.950 . S
C572 H564 0.950 . S
C572 C573 1.386 . S
C572 C574 1.391 . S
C573 C572 1.386 . S
C573 C577 1.393 . S
C574 H566 0.950 . S
C574 C572 1.391 . S
C574 C575 1.400 . S
C575 C574 1.400 . S
C575 C576 1.398 . S
C575 C581 1.491 . S
C576 H567 0.950 . S
C576 C575 1.398 . S
C576 C577 1.391 . S
C577 H565 0.950 . S
C577 C573 1.393 . S
C577 C576 1.391 . S
C578 H568 0.950 . S
C578 C579 1.386 1_554 S
C578 C580 1.391 . S
C579 C578 1.386 1_556 S
C579 C583 1.393 . S
C580 H569 0.950 . S
C580 C578 1.391 . S
C580 C581 1.400 . S
C581 C575 1.491 . S
C581 C580 1.400 . S
C581 C582 1.398 1_554 S
C582 H570 0.950 . S
C582 C581 1.398 1_556 S
C582 C583 1.391 . S
C583 H571 0.950 . S
C583 C579 1.393 . S
C583 C582 1.391 . S
H584 C592 0.950 . S
H585 C597 0.950 . S
H586 C594 0.950 . S
H587 C596 0.950 . S
H588 C598 0.950 . S
H589 C600 0.950 . S
H590 C602 0.950 . S
H591 C603 0.950 . S
C592 H584 0.950 . S
C592 C593 1.386 . S
C592 C594 1.391 . S
C593 C592 1.386 . S
C593 C597 1.393 . S
C594 H586 0.950 . S
C594 C592 1.391 . S
C594 C595 1.400 . S
C595 C594 1.400 . S
C595 C596 1.398 . S
C595 C601 1.491 . S
C596 H587 0.950 . S
C596 C595 1.398 . S
C596 C597 1.391 . S
C597 H585 0.950 . S
C597 C593 1.393 . S
C597 C596 1.391 . S
C598 H588 0.950 . S
C598 C599 1.386 . S
C598 C600 1.391 . S
C599 C598 1.386 . S
C599 C603 1.393 . S
C600 H589 0.950 . S
C600 C598 1.391 . S
C600 C601 1.400 . S
C601 C595 1.491 . S
C601 C600 1.400 . S
C601 C602 1.398 . S
C602 H590 0.950 . S
C602 C601 1.398 . S
C602 C603 1.391 . S
C603 H591 0.950 . S
C603 C599 1.393 . S
C603 C602 1.391 . S
H604 C612 0.950 . S
H605 C617 0.950 . S
H606 C614 0.950 . S
H607 C616 0.950 . S
H608 C618 0.950 . S
H609 C620 0.950 . S
H610 C622 0.950 . S
H611 C623 0.950 1_655 S
C612 H604 0.950 . S
C612 C613 1.386 . S
C612 C614 1.391 1_554 S
C613 C612 1.386 . S
C613 C617 1.393 1_554 S
C614 H606 0.950 . S
C614 C612 1.391 1_556 S
C614 C615 1.400 . S
C615 C614 1.400 . S
C615 C616 1.398 . S
C615 C621 1.491 . S
C616 H607 0.950 . S
C616 C615 1.398 . S
C616 C617 1.391 . S
C617 H605 0.950 . S
C617 C613 1.393 1_556 S
C617 C616 1.391 . S
C618 H608 0.950 . S
C618 C619 1.386 . S
C618 C620 1.391 . S
C619 C618 1.386 . S
C619 C623 1.393 . S
C620 H609 0.950 . S
C620 C618 1.391 . S
C620 C621 1.400 . S
C621 C615 1.491 . S
C621 C620 1.400 . S
C621 C622 1.398 . S
C622 H610 0.950 . S
C622 C621 1.398 . S
C622 C623 1.391 . S
C623 H611 0.950 1_455 S
C623 C619 1.393 . S
C623 C622 1.391 . S
H624 C632 0.950 . S
H625 C637 0.950 . S
H626 C634 0.950 . S
H627 C636 0.950 . S
H628 C638 0.950 . S
H629 C640 0.950 . S
H630 C642 0.950 . S
H631 C643 0.950 . S
C632 H624 0.950 . S
C632 C633 1.386 . S
C632 C634 1.391 . S
C633 C632 1.386 . S
C633 C637 1.393 . S
C634 H626 0.950 . S
C634 C632 1.391 . S
C634 C635 1.400 . S
C635 C634 1.400 . S
C635 C636 1.398 . S
C635 C641 1.491 . S
C636 H627 0.950 . S
C636 C635 1.398 . S
C636 C637 1.391 . S
C637 H625 0.950 . S
C637 C633 1.393 . S
C637 C636 1.391 . S
C638 H628 0.950 . S
C638 C639 1.386 . S
C638 C640 1.391 . S
C639 C638 1.386 . S
C639 C643 1.393 . S
C640 H629 0.950 . S
C640 C638 1.391 . S
C640 C641 1.400 . S
C641 C635 1.491 . S
C641 C640 1.400 . S
C641 C642 1.398 . S
C642 H630 0.950 . S
C642 C641 1.398 . S
C642 C643 1.391 . S
C643 H631 0.950 . S
C643 C639 1.393 . S
C643 C642 1.391 . S
H644 C652 0.950 . S
H645 C657 0.950 . S
H646 C654 0.950 . S
H647 C656 0.950 . S
H648 C658 0.950 . S
H649 C660 0.950 . S
H650 C662 0.950 . S
H651 C663 0.950 . S
C652 H644 0.950 . S
C652 C653 1.386 . S
C652 C654 1.391 . S
C653 C652 1.386 . S
C653 C657 1.393 . S
C654 H646 0.950 . S
C654 C652 1.391 . S
C654 C655 1.400 . S
C655 C654 1.400 . S
C655 C656 1.398 . S
C655 C661 1.491 . S
C656 H647 0.950 . S
C656 C655 1.398 . S
C656 C657 1.391 . S
C657 H645 0.950 . S
C657 C653 1.393 . S
C657 C656 1.391 . S
C658 H648 0.950 . S
C658 C659 1.386 . S
C658 C660 1.391 . S
C659 C658 1.386 . S
C659 C663 1.393 . S
C660 H649 0.950 . S
C660 C658 1.391 . S
C660 C661 1.400 . S
C661 C655 1.491 . S
C661 C660 1.400 . S
C661 C662 1.398 . S
C662 H650 0.950 . S
C662 C661 1.398 . S
C662 C663 1.391 . S
C663 H651 0.950 . S
C663 C659 1.393 . S
C663 C662 1.391 . S
H664 C672 0.950 . S
H665 C677 0.950 . S
H666 C674 0.950 . S
H667 C676 0.950 . S
H668 C678 0.950 . S
H669 C680 0.950 . S
H670 C682 0.950 . S
H671 C683 0.950 . S
C672 H664 0.950 . S
C672 C673 1.386 . S
C672 C674 1.391 . S
C673 C672 1.386 . S
C673 C677 1.393 . S
C674 H666 0.950 . S
C674 C672 1.391 . S
C674 C675 1.400 . S
C675 C674 1.400 . S
C675 C676 1.398 . S
C675 C681 1.491 . S
C676 H667 0.950 . S
C676 C675 1.398 . S
C676 C677 1.391 . S
C677 H665 0.950 . S
C677 C673 1.393 . S
C677 C676 1.391 . S
C678 H668 0.950 . S
C678 C679 1.386 . S
C678 C680 1.391 . S
C679 C678 1.386 . S
C679 C683 1.393 . S
C680 H669 0.950 . S
C680 C678 1.391 . S
C680 C681 1.400 . S
C681 C675 1.491 . S
C681 C680 1.400 . S
C681 C682 1.398 . S
C682 H670 0.950 . S
C682 C681 1.398 . S
C682 C683 1.391 . S
C683 H671 0.950 . S
C683 C679 1.393 . S
C683 C682 1.391 . S
H684 C692 0.950 . S
H685 C697 0.950 . S
H686 C694 0.950 . S
H687 C696 0.950 . S
H688 C698 0.950 . S
H689 C700 0.950 . S
H690 C702 0.950 . S
H691 C703 0.950 . S
C692 H684 0.950 . S
C692 C693 1.386 . S
C692 C694 1.391 . S
C693 C692 1.386 . S
C693 C697 1.393 . S
C694 H686 0.950 . S
C694 C692 1.391 . S
C694 C695 1.400 . S
C695 C694 1.400 . S
C695 C696 1.398 . S
C695 C701 1.491 . S
C696 H687 0.950 . S
C696 C695 1.398 . S
C696 C697 1.391 . S
C697 H685 0.950 . S
C697 C693 1.393 . S
C697 C696 1.391 . S
C698 H688 0.950 . S
C698 C699 1.386 . S
C698 C700 1.391 1_565 S
C699 C698 1.386 . S
C699 C703 1.393 1_565 S
C700 H689 0.950 . S
C700 C698 1.391 1_545 S
C700 C701 1.400 . S
C701 C695 1.491 . S
C701 C700 1.400 . S
C701 C702 1.398 . S
C702 H690 0.950 . S
C702 C701 1.398 . S
C702 C703 1.391 . S
C703 H691 0.950 . S
C703 C699 1.393 1_545 S
C703 C702 1.391 . S
H704 C712 0.950 . S
H705 C717 0.950 . S
H706 C714 0.950 . S
H707 C716 0.950 . S
H708 C718 0.950 . S
H709 C720 0.950 . S
H710 C722 0.950 . S
H711 C723 0.950 . S
C712 H704 0.950 . S
C712 C713 1.386 . S
C712 C714 1.391 . S
C713 C712 1.386 . S
C713 C717 1.393 . S
C714 H706 0.950 . S
C714 C712 1.391 . S
C714 C715 1.400 . S
C715 C714 1.400 . S
C715 C716 1.398 . S
C715 C721 1.491 . S
C716 H707 0.950 . S
C716 C715 1.398 . S
C716 C717 1.391 . S
C717 H705 0.950 . S
C717 C713 1.393 . S
C717 C716 1.391 . S
C718 H708 0.950 . S
C718 C719 1.386 . S
C718 C720 1.391 . S
C719 C718 1.386 . S
C719 C723 1.393 . S
C720 H709 0.950 . S
C720 C718 1.391 . S
C720 C721 1.400 . S
C721 C715 1.491 . S
C721 C720 1.400 . S
C721 C722 1.398 . S
C722 H710 0.950 . S
C722 C721 1.398 . S
C722 C723 1.391 . S
C723 H711 0.950 . S
C723 C719 1.393 . S
C723 C722 1.391 . S
H724 C732 0.950 . S
H725 C737 0.950 . S
H726 C734 0.950 . S
H727 C736 0.950 . S
H728 C738 0.950 . S
H729 C740 0.950 . S
H730 C742 0.950 . S
H731 C743 0.950 . S
C732 H724 0.950 . S
C732 C733 1.386 . S
C732 C734 1.391 . S
C733 C732 1.386 . S
C733 C737 1.393 1_545 S
C734 H726 0.950 . S
C734 C732 1.391 . S
C734 C735 1.400 1_545 S
C735 C734 1.400 1_565 S
C735 C736 1.398 . S
C735 C741 1.491 . S
C736 H727 0.950 . S
C736 C735 1.398 . S
C736 C737 1.391 . S
C737 H725 0.950 . S
C737 C733 1.393 1_565 S
C737 C736 1.391 . S
C738 H728 0.950 . S
C738 C739 1.386 . S
C738 C740 1.391 . S
C739 C738 1.386 . S
C739 C743 1.393 . S
C740 H729 0.950 . S
C740 C738 1.391 . S
C740 C741 1.400 . S
C741 C735 1.491 . S
C741 C740 1.400 . S
C741 C742 1.398 . S
C742 H730 0.950 . S
C742 C741 1.398 . S
C742 C743 1.391 . S
C743 H731 0.950 . S
C743 C739 1.393 . S
C743 C742 1.391 . S
H744 C752 0.950 . S
H745 C757 0.950 . S
H746 C754 0.950 . S
H747 C756 0.950 . S
H748 C758 0.950 . S
H749 C760 0.950 . S
H750 C762 0.950 . S
H751 C763 0.950 . S
C752 H744 0.950 . S
C752 C753 1.386 . S
C752 C754 1.391 . S
C753 C752 1.386 . S
C753 C757 1.393 . S
C754 H746 0.950 . S
C754 C752 1.391 . S
C754 C755 1.400 . S
C755 C754 1.400 . S
C755 C756 1.398 . S
C755 C761 1.491 . S
C756 H747 0.950 . S
C756 C755 1.398 . S
C756 C757 1.391 . S
C757 H745 0.950 . S
C757 C753 1.393 . S
C757 C756 1.391 . S
C758 H748 0.950 . S
C758 C759 1.386 . S
C758 C760 1.391 . S
C759 C758 1.386 . S
C759 C763 1.393 . S
C760 H749 0.950 . S
C760 C758 1.391 . S
C760 C761 1.400 . S
C761 C755 1.491 . S
C761 C760 1.400 . S
C761 C762 1.398 . S
C762 H750 0.950 . S
C762 C761 1.398 . S
C762 C763 1.391 . S
C763 H751 0.950 . S
C763 C759 1.393 . S
C763 C762 1.391 . S
H764 C772 0.950 . S
H765 C777 0.950 . S
H766 C774 0.950 . S
H767 C776 0.950 . S
H768 C778 0.950 . S
H769 C780 0.950 . S
H770 C782 0.950 . S
H771 C783 0.950 1_554 S
C772 H764 0.950 . S
C772 C773 1.386 . S
C772 C774 1.391 . S
C773 C772 1.386 . S
C773 C777 1.393 . S
C774 H766 0.950 . S
C774 C772 1.391 . S
C774 C775 1.400 . S
C775 C774 1.400 . S
C775 C776 1.398 . S
C775 C781 1.491 . S
C776 H767 0.950 . S
C776 C775 1.398 . S
C776 C777 1.391 . S
C777 H765 0.950 . S
C777 C773 1.393 . S
C777 C776 1.391 . S
C778 H768 0.950 . S
C778 C779 1.386 . S
C778 C780 1.391 . S
C779 C778 1.386 . S
C779 C783 1.393 . S
C780 H769 0.950 . S
C780 C778 1.391 . S
C780 C781 1.400 . S
C781 C775 1.491 . S
C781 C780 1.400 . S
C781 C782 1.398 . S
C782 H770 0.950 . S
C782 C781 1.398 . S
C782 C783 1.391 . S
C783 H771 0.950 1_556 S
C783 C779 1.393 . S
C783 C782 1.391 . S
H784 C792 0.950 . S
H785 C797 0.950 . S
H786 C794 0.950 . S
H787 C796 0.950 . S
H788 C798 0.950 . S
H789 C800 0.950 . S
H790 C802 0.950 . S
H791 C803 0.950 . S
C792 H784 0.950 . S
C792 C793 1.386 . S
C792 C794 1.391 . S
C793 C792 1.386 . S
C793 C797 1.393 . S
C794 H786 0.950 . S
C794 C792 1.391 . S
C794 C795 1.400 . S
C795 C794 1.400 . S
C795 C796 1.398 . S
C795 C801 1.491 . S
C796 H787 0.950 . S
C796 C795 1.398 . S
C796 C797 1.391 . S
C797 H785 0.950 . S
C797 C793 1.393 . S
C797 C796 1.391 . S
C798 H788 0.950 . S
C798 C799 1.386 . S
C798 C800 1.391 . S
C799 C798 1.386 . S
C799 C803 1.393 . S
C800 H789 0.950 . S
C800 C798 1.391 . S
C800 C801 1.400 . S
C801 C795 1.491 . S
C801 C800 1.400 . S
C801 C802 1.398 . S
C802 H790 0.950 . S
C802 C801 1.398 . S
C802 C803 1.391 . S
C803 H791 0.950 . S
C803 C799 1.393 . S
C803 C802 1.391 . S
H804 C812 0.950 . S
H805 C817 0.950 . S
H806 C814 0.950 . S
H807 C816 0.950 . S
H808 C818 0.950 . S
H809 C820 0.950 . S
H810 C822 0.950 . S
H811 C823 0.950 . S
C812 H804 0.950 . S
C812 C813 1.386 . S
C812 C814 1.391 . S
C813 C812 1.386 . S
C813 C817 1.393 . S
C814 H806 0.950 . S
C814 C812 1.391 . S
C814 C815 1.400 . S
C815 C814 1.400 . S
C815 C816 1.398 . S
C815 C821 1.491 . S
C816 H807 0.950 . S
C816 C815 1.398 . S
C816 C817 1.391 . S
C817 H805 0.950 . S
C817 C813 1.393 . S
C817 C816 1.391 . S
C818 H808 0.950 . S
C818 C819 1.386 . S
C818 C820 1.391 . S
C819 C818 1.386 . S
C819 C823 1.393 . S
C820 H809 0.950 . S
C820 C818 1.391 . S
C820 C821 1.400 . S
C821 C815 1.491 . S
C821 C820 1.400 . S
C821 C822 1.398 . S
C822 H810 0.950 . S
C822 C821 1.398 . S
C822 C823 1.391 . S
C823 H811 0.950 . S
C823 C819 1.393 . S
C823 C822 1.391 . S
H824 C832 0.950 . S
H825 C837 0.950 . S
H826 C834 0.950 . S
H827 C836 0.950 . S
H828 C838 0.950 . S
H829 C840 0.950 . S
H830 C842 0.950 . S
H831 C843 0.950 . S
C832 H824 0.950 . S
C832 C833 1.386 . S
C832 C834 1.391 . S
C833 C832 1.386 . S
C833 C837 1.393 . S
C834 H826 0.950 . S
C834 C832 1.391 . S
C834 C835 1.400 . S
C835 C834 1.400 . S
C835 C836 1.398 . S
C835 C841 1.491 . S
C836 H827 0.950 . S
C836 C835 1.398 . S
C836 C837 1.391 . S
C837 H825 0.950 . S
C837 C833 1.393 . S
C837 C836 1.391 . S
C838 H828 0.950 . S
C838 C839 1.386 . S
C838 C840 1.391 . S
C839 C838 1.386 . S
C839 C843 1.393 . S
C840 H829 0.950 . S
C840 C838 1.391 . S
C840 C841 1.400 . S
C841 C835 1.491 . S
C841 C840 1.400 . S
C841 C842 1.398 . S
C842 H830 0.950 . S
C842 C841 1.398 . S
C842 C843 1.391 . S
C843 H831 0.950 . S
C843 C839 1.393 . S
C843 C842 1.391 . S
H844 C852 0.950 . S
H845 C857 0.950 . S
H846 C854 0.950 . S
H847 C856 0.950 . S
H848 C858 0.950 . S
H849 C860 0.950 . S
H850 C862 0.950 . S
H851 C863 0.950 . S
C852 H844 0.950 . S
C852 C853 1.386 . S
C852 C854 1.391 . S
C853 C852 1.386 . S
C853 C857 1.393 . S
C854 H846 0.950 . S
C854 C852 1.391 . S
C854 C855 1.400 . S
C855 C854 1.400 . S
C855 C856 1.398 . S
C855 C861 1.491 . S
C856 H847 0.950 . S
C856 C855 1.398 . S
C856 C857 1.391 . S
C857 H845 0.950 . S
C857 C853 1.393 . S
C857 C856 1.391 . S
C858 H848 0.950 . S
C858 C859 1.386 . S
C858 C860 1.391 . S
C859 C858 1.386 . S
C859 C863 1.393 . S
C860 H849 0.950 . S
C860 C858 1.391 . S
C860 C861 1.400 . S
C861 C855 1.491 . S
C861 C860 1.400 . S
C861 C862 1.398 . S
C862 H850 0.950 . S
C862 C861 1.398 . S
C862 C863 1.391 . S
C863 H851 0.950 . S
C863 C859 1.393 . S
C863 C862 1.391 . S
H864 C872 0.950 . S
H865 C877 0.950 . S
H866 C874 0.950 . S
H867 C876 0.950 . S
H868 C878 0.950 . S
H869 C880 0.950 . S
H870 C882 0.947 1_655 S
H871 C883 0.950 . S
C872 H864 0.950 . S
C872 C873 1.386 . S
C872 C874 1.391 . S
C873 C872 1.386 . S
C873 C877 1.393 . S
C874 H866 0.950 . S
C874 C872 1.391 . S
C874 C875 1.400 . S
C875 C874 1.400 . S
C875 C876 1.398 . S
C875 C881 1.491 . S
C876 H867 0.950 . S
C876 C875 1.398 . S
C876 C877 1.391 . S
C877 H865 0.950 . S
C877 C873 1.393 . S
C877 C876 1.391 . S
C878 H868 0.950 . S
C878 C879 1.386 1_455 S
C878 C880 1.391 . S
C879 C878 1.386 1_655 S
C879 C883 1.393 . S
C880 H869 0.950 . S
C880 C878 1.391 . S
C880 C881 1.400 . S
C881 C875 1.491 . S
C881 C880 1.400 . S
C881 C882 1.398 . S
C882 H870 0.947 1_455 S
C882 C881 1.398 . S
C882 C883 1.391 1_455 S
C883 H871 0.950 . S
C883 C879 1.393 . S
C883 C882 1.391 1_655 S
H884 C892 0.950 . S
H885 C897 0.950 . S
H886 C894 0.950 . S
H887 C896 0.950 . S
H888 C898 0.950 . S
H889 C900 0.950 . S
H890 C902 0.950 . S
H891 C903 0.950 . S
C892 H884 0.950 . S
C892 C893 1.386 . S
C892 C894 1.391 . S
C893 C892 1.386 . S
C893 C897 1.393 . S
C894 H886 0.950 . S
C894 C892 1.391 . S
C894 C895 1.400 . S
C895 C894 1.400 . S
C895 C896 1.398 . S
C895 C901 1.491 . S
C896 H887 0.950 . S
C896 C895 1.398 . S
C896 C897 1.391 . S
C897 H885 0.950 . S
C897 C893 1.393 . S
C897 C896 1.391 . S
C898 H888 0.950 . S
C898 C899 1.386 . S
C898 C900 1.391 . S
C899 C898 1.386 . S
C899 C903 1.393 . S
C900 H889 0.950 . S
C900 C898 1.391 . S
C900 C901 1.400 . S
C901 C895 1.491 . S
C901 C900 1.400 . S
C901 C902 1.398 . S
C902 H890 0.950 . S
C902 C901 1.398 . S
C902 C903 1.391 . S
C903 H891 0.950 . S
C903 C899 1.393 . S
C903 C902 1.391 . S
H904 C912 0.950 . S
H905 C917 0.950 . S
H906 C914 0.950 . S
H907 C916 0.950 . S
H908 C918 0.950 . S
H909 C920 0.950 . S
H910 C922 0.950 . S
H911 C923 0.950 . S
C912 H904 0.950 . S
C912 C913 1.386 . S
C912 C914 1.391 . S
C913 C912 1.386 . S
C913 C917 1.393 . S
C914 H906 0.950 . S
C914 C912 1.391 . S
C914 C915 1.400 . S
C915 C914 1.400 . S
C915 C916 1.398 . S
C915 C921 1.491 . S
C916 H907 0.950 . S
C916 C915 1.398 . S
C916 C917 1.391 . S
C917 H905 0.950 . S
C917 C913 1.393 . S
C917 C916 1.391 . S
C918 H908 0.950 . S
C918 C919 1.386 . S
C918 C920 1.391 . S
C919 C918 1.386 . S
C919 C923 1.393 . S
C920 H909 0.950 . S
C920 C918 1.391 . S
C920 C921 1.400 . S
C921 C915 1.491 . S
C921 C920 1.400 . S
C921 C922 1.398 . S
C922 H910 0.950 . S
C922 C921 1.398 . S
C922 C923 1.391 . S
C923 H911 0.950 . S
C923 C919 1.393 . S
C923 C922 1.391 . S
H924 C932 0.950 . S
H925 C937 0.950 . S
H926 C934 0.950 . S
H927 C936 0.950 . S
H928 C938 0.950 . S
H929 C940 0.950 . S
H930 C942 0.950 . S
H931 C943 0.950 . S
C932 H924 0.950 . S
C932 C933 1.386 . S
C932 C934 1.391 . S
C933 C932 1.386 . S
C933 C937 1.393 . S
C934 H926 0.950 . S
C934 C932 1.391 . S
C934 C935 1.400 . S
C935 C934 1.400 . S
C935 C936 1.398 . S
C935 C941 1.491 . S
C936 H927 0.950 . S
C936 C935 1.398 . S
C936 C937 1.391 . S
C937 H925 0.950 . S
C937 C933 1.393 . S
C937 C936 1.391 . S
C938 H928 0.950 . S
C938 C939 1.386 . S
C938 C940 1.391 . S
C939 C938 1.386 . S
C939 C943 1.393 . S
C940 H929 0.950 . S
C940 C938 1.391 . S
C940 C941 1.400 . S
C941 C935 1.491 . S
C941 C940 1.400 . S
C941 C942 1.398 . S
C942 H930 0.950 . S
C942 C941 1.398 . S
C942 C943 1.391 . S
C943 H931 0.950 . S
C943 C939 1.393 . S
C943 C942 1.391 . S
H944 C952 0.950 . S
H945 C957 0.950 . S
H946 C954 0.950 . S
H947 C956 0.950 . S
H948 C958 0.950 1_545 S
H949 C960 0.950 . S
H950 C962 0.950 . S
H951 C963 0.950 . S
C952 H944 0.950 . S
C952 C953 1.386 . S
C952 C954 1.391 . S
C953 C952 1.386 . S
C953 C957 1.393 . S
C954 H946 0.950 . S
C954 C952 1.391 . S
C954 C955 1.400 . S
C955 C954 1.400 . S
C955 C956 1.398 . S
C955 C961 1.491 . S
C956 H947 0.950 . S
C956 C955 1.398 . S
C956 C957 1.391 . S
C957 H945 0.950 . S
C957 C953 1.393 . S
C957 C956 1.391 . S
C958 H948 0.950 1_565 S
C958 C959 1.386 . S
C958 C960 1.391 . S
C959 C958 1.386 . S
C959 C963 1.393 . S
C960 H949 0.950 . S
C960 C958 1.391 . S
C960 C961 1.400 . S
C961 C955 1.491 . S
C961 C960 1.400 . S
C961 C962 1.398 . S
C962 H950 0.950 . S
C962 C961 1.398 . S
C962 C963 1.391 . S
C963 H951 0.950 . S
C963 C959 1.393 . S
C963 C962 1.391 . S
H964 C972 0.950 1_565 S
H965 C977 0.950 . S
H966 C974 0.950 . S
H967 C976 0.950 . S
H968 C978 0.950 . S
H969 C980 0.950 . S
H970 C982 0.950 . S
H971 C983 0.950 . S
C972 H964 0.950 1_545 S
C972 C973 1.386 . S
C972 C974 1.391 . S
C973 C972 1.386 . S
C973 C977 1.393 . S
C974 H966 0.950 . S
C974 C972 1.391 . S
C974 C975 1.400 . S
C975 C974 1.400 . S
C975 C976 1.398 . S
C975 C981 1.491 . S
C976 H967 0.950 . S
C976 C975 1.398 . S
C976 C977 1.391 . S
C977 H965 0.950 . S
C977 C973 1.393 . S
C977 C976 1.391 . S
C978 H968 0.950 . S
C978 C979 1.386 1_655 S
C978 C980 1.391 . S
C979 C978 1.386 1_455 S
C979 C983 1.393 . S
C980 H969 0.950 . S
C980 C978 1.391 . S
C980 C981 1.400 . S
C981 C975 1.491 . S
C981 C980 1.400 . S
C981 C982 1.398 1_655 S
C982 H970 0.950 . S
C982 C981 1.398 1_455 S
C982 C983 1.391 . S
C983 H971 0.950 . S
C983 C979 1.393 . S
C983 C982 1.391 . S
C273 C6 1.106 . S
C279 C248 1.097 . S
C293 C203 1.111 . S
C299 C31 1.088 . S
C313 C51 1.077 . S
C319 C181 1.094 . S
C333 C75 1.075 . S
C339 C229 1.107 . S
C353 C93 1.099 . S
C359 C226 1.075 . S
C373 C115 1.104 . S
C379 C251 1.100 . S
C393 C205 1.083 . S
C399 C139 1.086 . S
C413 C161 1.110 . S
C419 C183 1.077 . S
C433 C72 1.109 . S
C439 C95 1.076 . S
C453 C9 1.077 . S
C459 C117 1.094 . S
C473 C28 1.084 . S
C479 C137 1.084 . S
C493 C159 1.075 . S
C499 C49 1.107 . S
C513 C4 1.423 . S
C519 C185 1.388 . S
C533 C29 1.403 1_655 S
C539 C225 1.371 . S
C553 C250 1.368 . S
C559 C52 1.411 . S
C573 C73 1.410 . S
C579 C207 1.386 . S
C593 C94 1.408 . S
C599 C202 1.382 . S
C613 C180 1.394 . S
C619 C116 1.420 1_455 S
C633 C228 1.381 . S
C639 C140 1.407 . S
C653 C247 1.386 . S
C659 C162 1.422 . S
C673 C5 1.367 . S
C679 C70 1.409 . S
C693 C7 1.423 . S
C699 C30 1.392 . S
C713 C26 1.403 . S
C719 C53 1.370 . S
C733 C74 1.377 . S
C739 C50 1.405 1_554 S
C753 C118 1.418 . S
C759 C92 1.394 . S
C773 C114 1.394 . S
C779 C138 1.421 1_556 S
C793 C141 1.367 . S
C799 C160 1.409 . S
C813 C96 1.423 . S
C819 C163 1.390 . S
C833 C184 1.417 . S
C839 C71 1.376 . S
C853 C119 1.378 . S
C859 C204 1.418 . S
C873 C182 1.403 . S
C879 C136 1.369 . S
C893 C227 1.423 . S
C899 C158 1.388 . S
C913 C97 1.383 . S
C919 C246 1.421 . S
C933 C249 1.423 . S
C939 C27 1.391 . S
C953 C48 1.368 . S
C959 C206 1.411 1_565 S
C973 C224 1.407 1_545 S
C979 C8 1.381 . S
