# Generated by pormake.
# Topology cha, (4)-cn, num edge types: 1
# Building blocks:
#     Node 0, Type 0, BuildingBlock: QUQFOY_clean_sbu_1, # of connection points: 4
#     Node 1, Type 0, BuildingBlock: QUQFOY_clean_sbu_1, # of connection points: 4
#     Node 2, Type 0, BuildingBlock: QUQFOY_clean_sbu_1, # of connection points: 4
#     Node 3, Type 0, BuildingBlock: QUQFOY_clean_sbu_1, # of connection points: 4
#     Node 4, Type 0, BuildingBlock: QUQFOY_clean_sbu_1, # of connection points: 4
#     Node 5, Type 0, BuildingBlock: QUQFOY_clean_sbu_1, # of connection points: 4
#     Node 6, Type 0, BuildingBlock: QUQFOY_clean_sbu_1, # of connection points: 4
#     Node 7, Type 0, BuildingBlock: QUQFOY_clean_sbu_1, # of connection points: 4
#     Node 8, Type 0, BuildingBlock: QUQFOY_clean_sbu_1, # of connection points: 4
#     Node 9, Type 0, BuildingBlock: QUQFOY_clean_sbu_1, # of connection points: 4
#     Node 10, Type 0, BuildingBlock: QUQFOY_clean_sbu_1, # of connection points: 4
#     Node 11, Type 0, BuildingBlock: QUQFOY_clean_sbu_1, # of connection points: 4
#     Node 12, Type 0, BuildingBlock: QUQFOY_clean_sbu_1, # of connection points: 4
#     Node 13, Type 0, BuildingBlock: QUQFOY_clean_sbu_1, # of connection points: 4
#     Node 14, Type 0, BuildingBlock: QUQFOY_clean_sbu_1, # of connection points: 4
#     Node 15, Type 0, BuildingBlock: QUQFOY_clean_sbu_1, # of connection points: 4
#     Node 16, Type 0, BuildingBlock: QUQFOY_clean_sbu_1, # of connection points: 4
#     Node 17, Type 0, BuildingBlock: QUQFOY_clean_sbu_1, # of connection points: 4
#     Node 18, Type 0, BuildingBlock: QUQFOY_clean_sbu_1, # of connection points: 4
#     Node 19, Type 0, BuildingBlock: QUQFOY_clean_sbu_1, # of connection points: 4
#     Node 20, Type 0, BuildingBlock: QUQFOY_clean_sbu_1, # of connection points: 4
#     Node 21, Type 0, BuildingBlock: QUQFOY_clean_sbu_1, # of connection points: 4
#     Node 22, Type 0, BuildingBlock: QUQFOY_clean_sbu_1, # of connection points: 4
#     Node 23, Type 0, BuildingBlock: QUQFOY_clean_sbu_1, # of connection points: 4
#     Node 24, Type 0, BuildingBlock: QUQFOY_clean_sbu_1, # of connection points: 4
#     Node 25, Type 0, BuildingBlock: QUQFOY_clean_sbu_1, # of connection points: 4
#     Node 26, Type 0, BuildingBlock: QUQFOY_clean_sbu_1, # of connection points: 4
#     Node 27, Type 0, BuildingBlock: QUQFOY_clean_sbu_1, # of connection points: 4
#     Node 28, Type 0, BuildingBlock: QUQFOY_clean_sbu_1, # of connection points: 4
#     Node 29, Type 0, BuildingBlock: QUQFOY_clean_sbu_1, # of connection points: 4
#     Node 30, Type 0, BuildingBlock: QUQFOY_clean_sbu_1, # of connection points: 4
#     Node 31, Type 0, BuildingBlock: QUQFOY_clean_sbu_1, # of connection points: 4
#     Node 32, Type 0, BuildingBlock: QUQFOY_clean_sbu_1, # of connection points: 4
#     Node 33, Type 0, BuildingBlock: QUQFOY_clean_sbu_1, # of connection points: 4
#     Node 34, Type 0, BuildingBlock: QUQFOY_clean_sbu_1, # of connection points: 4
#     Node 35, Type 0, BuildingBlock: QUQFOY_clean_sbu_1, # of connection points: 4
#     Edge 36, Type (0, 0), BuildingBlock: ZUJKAS_clean_linker_0, # of connection points: 2
#     Edge 37, Type (0, 0), BuildingBlock: ZUJKAS_clean_linker_0, # of connection points: 2
#     Edge 38, Type (0, 0), BuildingBlock: ZUJKAS_clean_linker_0, # of connection points: 2
#     Edge 39, Type (0, 0), BuildingBlock: ZUJKAS_clean_linker_0, # of connection points: 2
#     Edge 40, Type (0, 0), BuildingBlock: ZUJKAS_clean_linker_0, # of connection points: 2
#     Edge 41, Type (0, 0), BuildingBlock: ZUJKAS_clean_linker_0, # of connection points: 2
#     Edge 42, Type (0, 0), BuildingBlock: ZUJKAS_clean_linker_0, # of connection points: 2
#     Edge 43, Type (0, 0), BuildingBlock: ZUJKAS_clean_linker_0, # of connection points: 2
#     Edge 44, Type (0, 0), BuildingBlock: ZUJKAS_clean_linker_0, # of connection points: 2
#     Edge 45, Type (0, 0), BuildingBlock: ZUJKAS_clean_linker_0, # of connection points: 2
#     Edge 46, Type (0, 0), BuildingBlock: ZUJKAS_clean_linker_0, # of connection points: 2
#     Edge 47, Type (0, 0), BuildingBlock: ZUJKAS_clean_linker_0, # of connection points: 2
#     Edge 48, Type (0, 0), BuildingBlock: ZUJKAS_clean_linker_0, # of connection points: 2
#     Edge 49, Type (0, 0), BuildingBlock: ZUJKAS_clean_linker_0, # of connection points: 2
#     Edge 50, Type (0, 0), BuildingBlock: ZUJKAS_clean_linker_0, # of connection points: 2
#     Edge 51, Type (0, 0), BuildingBlock: ZUJKAS_clean_linker_0, # of connection points: 2
#     Edge 52, Type (0, 0), BuildingBlock: ZUJKAS_clean_linker_0, # of connection points: 2
#     Edge 53, Type (0, 0), BuildingBlock: ZUJKAS_clean_linker_0, # of connection points: 2
#     Edge 54, Type (0, 0), BuildingBlock: ZUJKAS_clean_linker_0, # of connection points: 2
#     Edge 55, Type (0, 0), BuildingBlock: ZUJKAS_clean_linker_0, # of connection points: 2
#     Edge 56, Type (0, 0), BuildingBlock: ZUJKAS_clean_linker_0, # of connection points: 2
#     Edge 57, Type (0, 0), BuildingBlock: ZUJKAS_clean_linker_0, # of connection points: 2
#     Edge 58, Type (0, 0), BuildingBlock: ZUJKAS_clean_linker_0, # of connection points: 2
#     Edge 59, Type (0, 0), BuildingBlock: ZUJKAS_clean_linker_0, # of connection points: 2
#     Edge 60, Type (0, 0), BuildingBlock: ZUJKAS_clean_linker_0, # of connection points: 2
#     Edge 61, Type (0, 0), BuildingBlock: ZUJKAS_clean_linker_0, # of connection points: 2
#     Edge 62, Type (0, 0), BuildingBlock: ZUJKAS_clean_linker_0, # of connection points: 2
#     Edge 63, Type (0, 0), BuildingBlock: ZUJKAS_clean_linker_0, # of connection points: 2
#     Edge 64, Type (0, 0), BuildingBlock: ZUJKAS_clean_linker_0, # of connection points: 2
#     Edge 65, Type (0, 0), BuildingBlock: ZUJKAS_clean_linker_0, # of connection points: 2
#     Edge 66, Type (0, 0), BuildingBlock: ZUJKAS_clean_linker_0, # of connection points: 2
#     Edge 67, Type (0, 0), BuildingBlock: ZUJKAS_clean_linker_0, # of connection points: 2
#     Edge 68, Type (0, 0), BuildingBlock: ZUJKAS_clean_linker_0, # of connection points: 2
#     Edge 69, Type (0, 0), BuildingBlock: ZUJKAS_clean_linker_0, # of connection points: 2
#     Edge 70, Type (0, 0), BuildingBlock: ZUJKAS_clean_linker_0, # of connection points: 2
#     Edge 71, Type (0, 0), BuildingBlock: ZUJKAS_clean_linker_0, # of connection points: 2
#     Edge 72, Type (0, 0), BuildingBlock: ZUJKAS_clean_linker_0, # of connection points: 2
#     Edge 73, Type (0, 0), BuildingBlock: ZUJKAS_clean_linker_0, # of connection points: 2
#     Edge 74, Type (0, 0), BuildingBlock: ZUJKAS_clean_linker_0, # of connection points: 2
#     Edge 75, Type (0, 0), BuildingBlock: ZUJKAS_clean_linker_0, # of connection points: 2
#     Edge 76, Type (0, 0), BuildingBlock: ZUJKAS_clean_linker_0, # of connection points: 2
#     Edge 77, Type (0, 0), BuildingBlock: ZUJKAS_clean_linker_0, # of connection points: 2
#     Edge 78, Type (0, 0), BuildingBlock: ZUJKAS_clean_linker_0, # of connection points: 2
#     Edge 79, Type (0, 0), BuildingBlock: ZUJKAS_clean_linker_0, # of connection points: 2
#     Edge 80, Type (0, 0), BuildingBlock: ZUJKAS_clean_linker_0, # of connection points: 2
#     Edge 81, Type (0, 0), BuildingBlock: ZUJKAS_clean_linker_0, # of connection points: 2
#     Edge 82, Type (0, 0), BuildingBlock: ZUJKAS_clean_linker_0, # of connection points: 2
#     Edge 83, Type (0, 0), BuildingBlock: ZUJKAS_clean_linker_0, # of connection points: 2
#     Edge 84, Type (0, 0), BuildingBlock: ZUJKAS_clean_linker_0, # of connection points: 2
#     Edge 85, Type (0, 0), BuildingBlock: ZUJKAS_clean_linker_0, # of connection points: 2
#     Edge 86, Type (0, 0), BuildingBlock: ZUJKAS_clean_linker_0, # of connection points: 2
#     Edge 87, Type (0, 0), BuildingBlock: ZUJKAS_clean_linker_0, # of connection points: 2
#     Edge 88, Type (0, 0), BuildingBlock: ZUJKAS_clean_linker_0, # of connection points: 2
#     Edge 89, Type (0, 0), BuildingBlock: ZUJKAS_clean_linker_0, # of connection points: 2
#     Edge 90, Type (0, 0), BuildingBlock: ZUJKAS_clean_linker_0, # of connection points: 2
#     Edge 91, Type (0, 0), BuildingBlock: ZUJKAS_clean_linker_0, # of connection points: 2
#     Edge 92, Type (0, 0), BuildingBlock: ZUJKAS_clean_linker_0, # of connection points: 2
#     Edge 93, Type (0, 0), BuildingBlock: ZUJKAS_clean_linker_0, # of connection points: 2
#     Edge 94, Type (0, 0), BuildingBlock: ZUJKAS_clean_linker_0, # of connection points: 2
#     Edge 95, Type (0, 0), BuildingBlock: ZUJKAS_clean_linker_0, # of connection points: 2
#     Edge 96, Type (0, 0), BuildingBlock: ZUJKAS_clean_linker_0, # of connection points: 2
#     Edge 97, Type (0, 0), BuildingBlock: ZUJKAS_clean_linker_0, # of connection points: 2
#     Edge 98, Type (0, 0), BuildingBlock: ZUJKAS_clean_linker_0, # of connection points: 2
#     Edge 99, Type (0, 0), BuildingBlock: ZUJKAS_clean_linker_0, # of connection points: 2
#     Edge 100, Type (0, 0), BuildingBlock: ZUJKAS_clean_linker_0, # of connection points: 2
#     Edge 101, Type (0, 0), BuildingBlock: ZUJKAS_clean_linker_0, # of connection points: 2
#     Edge 102, Type (0, 0), BuildingBlock: ZUJKAS_clean_linker_0, # of connection points: 2
#     Edge 103, Type (0, 0), BuildingBlock: ZUJKAS_clean_linker_0, # of connection points: 2
#     Edge 104, Type (0, 0), BuildingBlock: ZUJKAS_clean_linker_0, # of connection points: 2
#     Edge 105, Type (0, 0), BuildingBlock: ZUJKAS_clean_linker_0, # of connection points: 2
#     Edge 106, Type (0, 0), BuildingBlock: ZUJKAS_clean_linker_0, # of connection points: 2
#     Edge 107, Type (0, 0), BuildingBlock: ZUJKAS_clean_linker_0, # of connection points: 2
# Relax obj value: 0.043
# Max RMSD: 0.076
# Mean RMSD: 0.076
data_MOF--net-cha--node1-QUQFOY_clean_sbu_1--edge1-ZUJKAS_clean_linker_0
_symmetry_space_group_name_H-M    P1
_symmetry_Int_Tables_number       1
_symmetry_cell_setting            triclinic
loop_
_symmetry_equiv_pos_as_xyz
'x, y, z'
_cell_length_a     80.699419
_cell_length_b     80.693421
_cell_length_c     108.52059
_cell_angle_alpha  90.025643
_cell_angle_beta   90.02318
_cell_angle_gamma 119.99896
loop_
_atom_site_label
_atom_site_type_symbol
_atom_site_fract_x
_atom_site_fract_y
_atom_site_fract_z
_atom_type_partial_charge
O0 O 0.03794 0.28464 0.07453 0.0
Cd1 Cd 0.03593 0.27198 0.09144 0.0
Cd2 Cd 0.01476 0.28957 0.09614 0.0
O3 O 0.02229 0.29999 0.07841 0.0
O4 O 0.05344 0.26147 0.0893 0.0
O5 O 0.05871 0.28375 0.10302 0.0
C6 C 0.06418 0.27289 0.09782 0.0
C7 C 0.01955 0.30935 0.11302 0.0
C8 C 0.03165 0.29551 0.07103 0.0
C9 C 0.99408 0.24679 0.09787 0.0
O10 O 0.99272 0.26181 0.09792 0.0
O11 O 0.01016 0.2479 0.09599 0.0
O12 O 0.00643 0.30581 0.10496 0.0
O13 O 0.0306 0.30226 0.11121 0.0
O14 O 0.77683 0.78322 0.07392 0.0
Cd15 Cd 0.79023 0.79434 0.09061 0.0
Cd16 Cd 0.77281 0.75541 0.09561 0.0
O17 O 0.76205 0.75225 0.07794 0.0
O18 O 0.80067 0.82234 0.08834 0.0
O19 O 0.77893 0.80557 0.10239 0.0
C20 C 0.78964 0.82182 0.09707 0.0
C21 C 0.75346 0.73975 0.11257 0.0
C22 C 0.76607 0.76596 0.07054 0.0
C23 C 0.81571 0.77793 0.09688 0.0
O24 O 0.80072 0.76155 0.09722 0.0
O25 O 0.81452 0.79282 0.09483 0.0
O26 O 0.75742 0.73064 0.1044 0.0
O27 O 0.7598 0.75779 0.11079 0.0
O28 O 0.27773 0.02629 0.0749 0.0
Cd29 Cd 0.26682 0.02703 0.09197 0.0
Cd30 Cd 0.30546 0.04743 0.09704 0.0
O31 O 0.30846 0.03977 0.0793 0.0
O32 O 0.23887 0.00958 0.08947 0.0
O33 O 0.25566 0.00349 0.10288 0.0
C34 C 0.23945 0.99827 0.09759 0.0
C35 C 0.32063 0.04308 0.11405 0.0
C36 C 0.29482 0.03176 0.07159 0.0
C37 C 0.28355 0.06845 0.09892 0.0
O38 O 0.29985 0.06961 0.09872 0.0
O39 O 0.26842 0.05246 0.09717 0.0
O40 O 0.33011 0.05601 0.10588 0.0
O41 O 0.3025 0.03191 0.11227 0.0
O42 O 0.28332 0.03457 0.93697 0.0
Cd43 Cd 0.27311 0.03376 0.91929 0.0
Cd44 Cd 0.29212 0.01423 0.91603 0.0
O45 O 0.30324 0.02393 0.93336 0.0
O46 O 0.2616 0.05048 0.92098 0.0
O47 O 0.2861 0.05769 0.90874 0.0
C48 C 0.27419 0.06228 0.91337 0.0
C49 C 0.31093 0.01864 0.89867 0.0
C50 C 0.29602 0.03082 0.94075 0.0
C51 C 0.24974 0.99206 0.91322 0.0
O52 O 0.26472 0.99112 0.91539 0.0
O53 O 0.25041 0.00813 0.91302 0.0
O54 O 0.30881 0.00651 0.90714 0.0
O55 O 0.303 0.02899 0.90034 0.0
O56 O 0.02661 0.27866 0.93661 0.0
Cd57 Cd 0.02837 0.26733 0.91988 0.0
Cd58 Cd 0.04999 0.30624 0.91492 0.0
O59 O 0.04278 0.30963 0.93263 0.0
O60 O 0.01084 0.23944 0.92256 0.0
O61 O 0.00533 0.2558 0.90849 0.0
C62 C 0.99991 0.23974 0.91404 0.0
C63 C 0.04568 0.32141 0.89795 0.0
C64 C 0.03317 0.2959 0.94003 0.0
C65 C 0.07008 0.28348 0.91325 0.0
O66 O 0.07159 0.29992 0.9131 0.0
O67 O 0.05397 0.26863 0.91529 0.0
O68 O 0.05905 0.33076 0.90591 0.0
O69 O 0.03404 0.30343 0.89997 0.0
O70 O 0.78313 0.7763 0.93635 0.0
Cd71 Cd 0.79446 0.78933 0.91962 0.0
Cd72 Cd 0.75574 0.77133 0.91435 0.0
O73 O 0.75226 0.76058 0.93203 0.0
O74 O 0.82239 0.80009 0.92245 0.0
O75 O 0.8064 0.77813 0.90833 0.0
C76 C 0.82236 0.78894 0.91396 0.0
C77 C 0.74158 0.75211 0.8971 0.0
C78 C 0.7659 0.76519 0.93961 0.0
C79 C 0.7776 0.81423 0.91301 0.0
O80 O 0.76135 0.79906 0.91273 0.0
O81 O 0.79267 0.81335 0.91506 0.0
O82 O 0.7316 0.75536 0.90501 0.0
O83 O 0.7596 0.75907 0.89932 0.0
O84 O 0.02727 0.77928 0.93749 0.0
Cd85 Cd 0.02856 0.79254 0.92105 0.0
Cd86 Cd 0.04831 0.77397 0.9144 0.0
O87 O 0.0418 0.76332 0.93228 0.0
O88 O 0.01081 0.80261 0.92384 0.0
O89 O 0.00566 0.78103 0.90959 0.0
C90 C 1.00002 0.79143 0.91523 0.0
C91 C 0.04286 0.75417 0.89737 0.0
C92 C 0.03333 0.76795 0.94029 0.0
C93 C 0.06961 0.81712 0.91336 0.0
O94 O 0.07023 0.8018 0.91197 0.0
O95 O 0.05429 0.81659 0.91677 0.0
O96 O 0.05642 0.75789 0.90511 0.0
O97 O 0.03168 0.76098 0.89964 0.0
O98 O 0.28387 0.27684 0.93612 0.0
Cd99 Cd 0.27208 0.26586 0.91906 0.0
Cd100 Cd 0.29011 0.30459 0.91405 0.0
O101 O 0.30109 0.30756 0.93169 0.0
O102 O 0.26159 0.23789 0.92153 0.0
O103 O 0.2844 0.25468 0.90808 0.0
C104 C 0.2734 0.23846 0.91335 0.0
C105 C 0.30946 0.32005 0.89705 0.0
C106 C 0.29556 0.29393 0.9394 0.0
C107 C 0.24718 0.28247 0.9123 0.0
O108 O 0.26223 0.29883 0.91257 0.0
O109 O 0.2482 0.2674 0.91393 0.0
O110 O 0.30598 0.32936 0.90533 0.0
O111 O 0.3026 0.3019 0.8987 0.0
O112 O 0.78559 0.03541 0.9369 0.0
Cd113 Cd 0.79647 0.03442 0.91986 0.0
Cd114 Cd 0.75808 0.01477 0.91471 0.0
O115 O 0.75498 0.02263 0.93235 0.0
O116 O 0.82447 0.05175 0.92225 0.0
O117 O 0.80765 0.05782 0.90883 0.0
C118 C 0.82389 0.063 0.91407 0.0
C119 C 0.74429 0.02017 0.89739 0.0
C120 C 0.76857 0.03037 0.94012 0.0
C121 C 0.77916 0.99294 0.91296 0.0
O122 O 0.76301 0.99212 0.91315 0.0
O123 O 0.79446 0.00879 0.9147 0.0
O124 O 0.73405 0.00718 0.90536 0.0
O125 O 0.76239 0.03082 0.89958 0.0
O126 O 0.78061 0.02519 0.07372 0.0
Cd127 Cd 0.79261 0.02654 0.09079 0.0
Cd128 Cd 0.7743 0.04679 0.09573 0.0
O129 O 0.76328 0.03858 0.07813 0.0
O130 O 0.80299 0.00889 0.08879 0.0
O131 O 0.78031 0.0036 0.10219 0.0
C132 C 0.79125 0.99809 0.09715 0.0
C133 C 0.75498 0.0425 0.11283 0.0
C134 C 0.76881 0.03045 0.07044 0.0
C135 C 0.81721 0.06818 0.09735 0.0
O136 O 0.80202 0.06924 0.09716 0.0
O137 O 0.81641 0.05219 0.0957 0.0
O138 O 0.75814 0.05524 0.10457 0.0
O139 O 0.76216 0.0315 0.1111 0.0
O140 O 0.03625 0.78307 0.07323 0.0
Cd141 Cd 0.03502 0.79425 0.09012 0.0
Cd142 Cd 0.01413 0.75561 0.09521 0.0
O143 O 0.02242 0.75235 0.07773 0.0
O144 O 0.05272 0.82215 0.08763 0.0
O145 O 0.05811 0.80535 0.10144 0.0
C146 C 0.06362 0.82156 0.09607 0.0
C147 C 0.01754 0.74025 0.11246 0.0
C148 C 0.03084 0.76594 0.07004 0.0
C149 C 0.99345 0.77796 0.09648 0.0
O150 O 0.99211 0.76158 0.09639 0.0
O151 O 0.00958 0.79297 0.09484 0.0
O152 O 0.0047 0.73097 0.10418 0.0
O153 O 0.02917 0.75828 0.11064 0.0
O154 O 0.27736 0.28285 0.07284 0.0
Cd155 Cd 0.26603 0.27054 0.08973 0.0
Cd156 Cd 0.30459 0.28884 0.09517 0.0
O157 O 0.30808 0.29963 0.07746 0.0
O158 O 0.2381 0.26062 0.08758 0.0
O159 O 0.25556 0.28289 0.10122 0.0
C160 C 0.23912 0.27218 0.09611 0.0
C161 C 0.32059 0.30796 0.11217 0.0
C162 C 0.29456 0.29436 0.06968 0.0
C163 C 0.28238 0.24568 0.0967 0.0
O164 O 0.29856 0.26093 0.0969 0.0
O165 O 0.26727 0.24639 0.09456 0.0
O166 O 0.32937 0.30344 0.10409 0.0
O167 O 0.30279 0.30253 0.11023 0.0
O168 O 0.70446 0.61866 0.40761 0.0
Cd169 Cd 0.703 0.60518 0.42413 0.0
Cd170 Cd 0.68047 0.62165 0.42938 0.0
O171 O 0.68724 0.63236 0.41166 0.0
O172 O 0.72098 0.59546 0.42108 0.0
O173 O 0.726 0.61665 0.43557 0.0
C174 C 0.73171 0.60643 0.42978 0.0
C175 C 0.68339 0.64075 0.44632 0.0
C176 C 0.69731 0.62887 0.40425 0.0
C177 C 0.66154 0.57866 0.43066 0.0
O178 O 0.65969 0.59337 0.43115 0.0
O179 O 0.67777 0.58033 0.42841 0.0
O180 O 0.66969 0.63555 0.43845 0.0
O181 O 0.69617 0.63589 0.44423 0.0
O182 O 0.4455 0.11688 0.40726 0.0
Cd183 Cd 0.45917 0.12973 0.42344 0.0
Cd184 Cd 0.4425 0.09122 0.43048 0.0
O185 O 0.43216 0.0864 0.41245 0.0
O186 O 0.46807 0.15729 0.42055 0.0
O187 O 0.44757 0.14057 0.43524 0.0
C188 C 0.45736 0.15666 0.42953 0.0
C189 C 0.42289 0.07421 0.44711 0.0
C190 C 0.43545 0.09927 0.40447 0.0
C191 C 0.48573 0.11575 0.43125 0.0
O192 O 0.47098 0.09958 0.43322 0.0
O193 O 0.48421 0.12971 0.42725 0.0
O194 O 0.42899 0.06632 0.4394 0.0
O195 O 0.42709 0.09165 0.44502 0.0
O196 O 0.94644 0.35755 0.40764 0.0
Cd197 Cd 0.93571 0.35992 0.42443 0.0
Cd198 Cd 0.97448 0.38069 0.42925 0.0
O199 O 0.97741 0.37277 0.41164 0.0
O200 O 0.90769 0.34268 0.42205 0.0
O201 O 0.92423 0.33708 0.43596 0.0
C202 C 0.90808 0.33176 0.43055 0.0
C203 C 0.9892 0.37606 0.44634 0.0
C204 C 0.96358 0.36349 0.40423 0.0
C205 C 0.95286 0.40191 0.43059 0.0
O206 O 0.96911 0.40298 0.43071 0.0
O207 O 0.93772 0.38592 0.42879 0.0
O208 O 0.99894 0.3889 0.43818 0.0
O209 O 0.97103 0.36515 0.44452 0.0
O210 O 0.95202 0.36997 0.26994 0.0
Cd211 Cd 0.93945 0.3687 0.25308 0.0
Cd212 Cd 0.95671 0.34743 0.24799 0.0
O213 O 0.96734 0.35439 0.26571 0.0
O214 O 0.92916 0.38629 0.25581 0.0
O215 O 0.95134 0.39199 0.24193 0.0
C216 C 0.94064 0.39738 0.24744 0.0
C217 C 0.97604 0.35292 0.23078 0.0
C218 C 0.96286 0.36354 0.27327 0.0
C219 C 0.91396 0.3271 0.24624 0.0
O220 O 0.92889 0.32559 0.24618 0.0
O221 O 0.91521 0.34323 0.24823 0.0
O222 O 0.97267 0.33944 0.2385 0.0
O223 O 0.9691 0.36397 0.23316 0.0
O224 O 0.6913 0.61095 0.27002 0.0
Cd225 Cd 0.6927 0.59941 0.25329 0.0
Cd226 Cd 0.71462 0.63819 0.24818 0.0
O227 O 0.70745 0.64186 0.26586 0.0
O228 O 0.67489 0.5716 0.25607 0.0
O229 O 0.66963 0.58805 0.24193 0.0
C230 C 0.66404 0.57199 0.24753 0.0
C231 C 0.71082 0.65351 0.23107 0.0
C232 C 0.69794 0.62825 0.27336 0.0
C233 C 0.73429 0.61497 0.24676 0.0
O234 O 0.736 0.6315 0.24654 0.0
O235 O 0.71807 0.60024 0.24877 0.0
O236 O 0.72415 0.66273 0.23908 0.0
O237 O 0.69893 0.6356 0.23312 0.0
O238 O 0.45104 0.11064 0.27137 0.0
Cd239 Cd 0.46207 0.12268 0.25438 0.0
Cd240 Cd 0.42351 0.10497 0.24941 0.0
O241 O 0.42033 0.09344 0.26691 0.0
O242 O 0.48999 0.13299 0.25686 0.0
O243 O 0.47315 0.11047 0.24323 0.0
C244 C 0.48938 0.12132 0.24856 0.0
C245 C 0.40935 0.08636 0.2319 0.0
C246 C 0.43397 0.09885 0.27461 0.0
C247 C 0.44572 0.14789 0.24789 0.0
O248 O 0.4293 0.13291 0.24819 0.0
O249 O 0.46072 0.14671 0.24941 0.0
O250 O 0.39936 0.08928 0.23999 0.0
O251 O 0.42738 0.09329 0.23408 0.0
O252 O 0.69444 0.1125 0.2698 0.0
Cd253 Cd 0.69518 0.12435 0.25279 0.0
Cd254 Cd 0.716 0.10662 0.24771 0.0
O255 O 0.70846 0.09576 0.26538 0.0
O256 O 0.67752 0.13459 0.25531 0.0
O257 O 0.67172 0.1119 0.24179 0.0
C258 C 0.66634 0.12275 0.24711 0.0
C259 C 0.71108 0.08742 0.23045 0.0
C260 C 0.70014 0.10105 0.27308 0.0
C261 C 0.73658 0.14948 0.24582 0.0
O262 O 0.73801 0.13449 0.24603 0.0
O263 O 0.72048 0.14835 0.24762 0.0
O264 O 0.72429 0.09071 0.23839 0.0
O265 O 0.69996 0.09432 0.23264 0.0
O266 O 0.95041 0.61203 0.27075 0.0
Cd267 Cd 0.93799 0.60032 0.25395 0.0
Cd268 Cd 0.95508 0.63895 0.24849 0.0
O269 O 0.9663 0.64275 0.2661 0.0
O270 O 0.92831 0.57257 0.25669 0.0
O271 O 0.95028 0.58937 0.24276 0.0
C272 C 0.93985 0.57322 0.24826 0.0
C273 C 0.97399 0.65438 0.23131 0.0
C274 C 0.96159 0.62933 0.27387 0.0
C275 C 0.91209 0.61571 0.24703 0.0
O276 O 0.92693 0.63223 0.24691 0.0
O277 O 0.91353 0.60097 0.24906 0.0
O278 O 0.96992 0.66353 0.23938 0.0
O279 O 0.96807 0.63648 0.23331 0.0
O280 O 0.44878 0.36819 0.26988 0.0
Cd281 Cd 0.46063 0.36675 0.25329 0.0
Cd282 Cd 0.42165 0.34452 0.24811 0.0
O283 O 0.41782 0.35129 0.26588 0.0
O284 O 0.48836 0.38473 0.25625 0.0
O285 O 0.47202 0.3898 0.24192 0.0
C286 C 0.488 0.39552 0.24765 0.0
C287 C 0.40576 0.34783 0.23115 0.0
C288 C 0.43147 0.36121 0.27328 0.0
C289 C 0.44541 0.32529 0.24662 0.0
O290 O 0.4289 0.32358 0.24624 0.0
O291 O 0.46007 0.34147 0.24885 0.0
O292 O 0.39705 0.33408 0.23896 0.0
O293 O 0.42342 0.36044 0.23333 0.0
O294 O 0.44461 0.35788 0.40775 0.0
Cd295 Cd 0.45759 0.35987 0.42454 0.0
Cd296 Cd 0.44078 0.38189 0.42934 0.0
O297 O 0.42999 0.37424 0.41165 0.0
O298 O 0.46773 0.34209 0.42218 0.0
O299 O 0.44597 0.3372 0.4362 0.0
C300 C 0.45655 0.33153 0.43083 0.0
C301 C 0.42143 0.37776 0.44638 0.0
C302 C 0.434 0.36449 0.40428 0.0
C303 C 0.48359 0.40169 0.43081 0.0
O304 O 0.4688 0.40347 0.43098 0.0
O305 O 0.48204 0.38543 0.42888 0.0
O306 O 0.42512 0.39085 0.43827 0.0
O307 O 0.4281 0.36635 0.44452 0.0
O308 O 0.70347 0.11778 0.4067 0.0
Cd309 Cd 0.70283 0.12857 0.42397 0.0
Cd310 Cd 0.68172 0.08998 0.42804 0.0
O311 O 0.69051 0.08699 0.41078 0.0
O312 O 0.72051 0.15652 0.42167 0.0
O313 O 0.72638 0.13933 0.43489 0.0
C314 C 0.73172 0.15568 0.42977 0.0
C315 C 0.68483 0.07495 0.44553 0.0
C316 C 0.6985 0.10084 0.40323 0.0
C317 C 0.66136 0.11233 0.42998 0.0
O318 O 0.65974 0.09597 0.42857 0.0
O319 O 0.67771 0.12737 0.42965 0.0
O320 O 0.67184 0.06559 0.43735 0.0
O321 O 0.69679 0.09285 0.44349 0.0
O322 O 0.94549 0.61608 0.4067 0.0
Cd323 Cd 0.93448 0.60372 0.42362 0.0
Cd324 Cd 0.97299 0.62226 0.42883 0.0
O325 O 0.97612 0.63364 0.41132 0.0
O326 O 0.90653 0.59332 0.42127 0.0
O327 O 0.92347 0.61583 0.4349 0.0
C328 C 0.9072 0.60499 0.42961 0.0
C329 C 0.98784 0.6411 0.44616 0.0
C330 C 0.96254 0.6281 0.40356 0.0
C331 C 0.95152 0.57923 0.43019 0.0
O332 O 0.96768 0.59452 0.43009 0.0
O333 O 0.93626 0.57987 0.42849 0.0
O334 O 0.99744 0.63787 0.43795 0.0
O335 O 0.96978 0.63438 0.4442 0.0
O336 O 0.37037 0.95 0.74072 0.0
Cd337 Cd 0.36887 0.93802 0.7578 0.0
Cd338 Cd 0.34979 0.95741 0.76262 0.0
O339 O 0.3584 0.96861 0.74509 0.0
O340 O 0.38578 0.92682 0.7556 0.0
O341 O 0.39218 0.94989 0.76895 0.0
C342 C 0.39711 0.93857 0.7638 0.0
C343 C 0.35498 0.97619 0.78014 0.0
C344 C 0.36592 0.96239 0.73741 0.0
C345 C 0.32716 0.91452 0.76421 0.0
O346 O 0.3267 0.93002 0.76381 0.0
O347 O 0.34291 0.91472 0.76282 0.0
O348 O 0.34235 0.97394 0.772 0.0
O349 O 0.36545 0.96853 0.77798 0.0
O350 O 0.11187 0.45107 0.74097 0.0
Cd351 Cd 0.12473 0.46251 0.75774 0.0
Cd352 Cd 0.10746 0.42366 0.76288 0.0
O353 O 0.09686 0.42017 0.74517 0.0
O354 O 0.13499 0.49037 0.75496 0.0
O355 O 0.11306 0.47402 0.769 0.0
C356 C 0.12369 0.49007 0.76343 0.0
C357 C 0.08792 0.40785 0.77973 0.0
C358 C 0.10113 0.43378 0.73764 0.0
C359 C 0.15036 0.44653 0.76444 0.0
O360 O 0.13543 0.43009 0.76466 0.0
O361 O 0.14907 0.46136 0.76238 0.0
O362 O 0.0922 0.39886 0.77165 0.0
O363 O 0.09407 0.42584 0.77793 0.0
O364 O 0.61093 0.69241 0.74006 0.0
Cd365 Cd 0.6003 0.69425 0.75702 0.0
Cd366 Cd 0.63866 0.71366 0.76229 0.0
O367 O 0.6415 0.70527 0.74476 0.0
O368 O 0.57223 0.67673 0.75517 0.0
O369 O 0.58967 0.67158 0.76862 0.0
C370 C 0.57319 0.66606 0.76363 0.0
C371 C 0.65333 0.70897 0.77943 0.0
C372 C 0.62797 0.6973 0.73697 0.0
C373 C 0.61799 0.73595 0.76353 0.0
O374 O 0.63403 0.73654 0.76361 0.0
O375 O 0.60262 0.72018 0.76172 0.0
O376 O 0.66312 0.72166 0.77119 0.0
O377 O 0.63512 0.69828 0.77767 0.0
O378 O 0.61755 0.70399 0.60444 0.0
Cd379 Cd 0.60475 0.70289 0.58772 0.0
Cd380 Cd 0.6228 0.68248 0.58193 0.0
O381 O 0.63389 0.68968 0.59958 0.0
O382 O 0.59506 0.72104 0.59008 0.0
O383 O 0.6169 0.72563 0.57617 0.0
C384 C 0.60645 0.73152 0.58146 0.0
C385 C 0.64174 0.6855 0.56487 0.0
C386 C 0.62899 0.69813 0.60744 0.0
C387 C 0.5796 0.66167 0.58081 0.0
O388 O 0.59483 0.66072 0.58033 0.0
O389 O 0.5804 0.6775 0.58311 0.0
O390 O 0.63715 0.67214 0.57291 0.0
O391 O 0.63642 0.69795 0.56686 0.0
O392 O 0.35968 0.94334 0.60405 0.0
Cd393 Cd 0.36 0.93125 0.58732 0.0
Cd394 Cd 0.382 0.9699 0.58157 0.0
O395 O 0.37531 0.97407 0.59933 0.0
O396 O 0.34159 0.90355 0.59003 0.0
O397 O 0.33689 0.92059 0.57603 0.0
C398 C 0.33098 0.90436 0.58147 0.0
C399 C 0.37915 0.98618 0.56461 0.0
C400 C 0.36637 0.96075 0.60714 0.0
C401 C 0.40099 0.94582 0.58017 0.0
O402 O 0.40284 0.9624 0.57974 0.0
O403 O 0.38482 0.93129 0.58254 0.0
O404 O 0.39282 0.99464 0.57251 0.0
O405 O 0.36638 0.96854 0.56667 0.0
O406 O 0.11708 0.44305 0.60334 0.0
Cd407 Cd 0.12821 0.45616 0.5866 0.0
Cd408 Cd 0.08958 0.43902 0.58171 0.0
O409 O 0.08612 0.42814 0.59934 0.0
O410 O 0.15612 0.46657 0.58923 0.0
O411 O 0.1397 0.44469 0.57515 0.0
C412 C 0.15578 0.45534 0.58069 0.0
C413 C 0.07592 0.41983 0.56441 0.0
C414 C 0.09985 0.43227 0.60674 0.0
C415 C 0.11194 0.48176 0.58029 0.0
O416 O 0.09549 0.46684 0.58013 0.0
O417 O 0.1268 0.48045 0.58218 0.0
O418 O 0.06568 0.42295 0.57218 0.0
O419 O 0.09394 0.42698 0.56678 0.0
O420 O 0.36024 0.44592 0.60378 0.0
Cd421 Cd 0.3612 0.45788 0.58678 0.0
Cd422 Cd 0.38168 0.43994 0.58173 0.0
O423 O 0.37385 0.42881 0.59934 0.0
O424 O 0.34351 0.46811 0.58918 0.0
O425 O 0.33796 0.44557 0.57559 0.0
C426 C 0.33249 0.45638 0.58087 0.0
C427 C 0.3768 0.42104 0.56432 0.0
C428 C 0.36569 0.43427 0.60705 0.0
C429 C 0.40267 0.48286 0.58014 0.0
O430 O 0.40391 0.46776 0.5803 0.0
O431 O 0.38662 0.48188 0.58183 0.0
O432 O 0.38985 0.42403 0.57231 0.0
O433 O 0.36578 0.42806 0.56655 0.0
O434 O 0.62066 0.94784 0.60309 0.0
Cd435 Cd 0.60715 0.9353 0.58667 0.0
Cd436 Cd 0.62245 0.97422 0.58109 0.0
O437 O 0.6329 0.97858 0.59893 0.0
O438 O 0.59811 0.90774 0.5898 0.0
O439 O 0.61885 0.92411 0.57517 0.0
C440 C 0.60894 0.90814 0.58098 0.0
C441 C 0.64161 0.9908 0.56426 0.0
C442 C 0.63013 0.96529 0.60639 0.0
C443 C 0.57959 0.9489 0.57978 0.0
O444 O 0.59395 0.96566 0.579 0.0
O445 O 0.58185 0.9348 0.58242 0.0
O446 O 0.63581 0.99894 0.572 0.0
O447 O 0.63732 0.97334 0.56642 0.0
O448 O 0.11656 0.70184 0.60432 0.0
Cd449 Cd 0.1279 0.70076 0.58747 0.0
Cd450 Cd 0.08923 0.67965 0.58209 0.0
O451 O 0.08581 0.68725 0.59974 0.0
O452 O 0.15578 0.7187 0.58988 0.0
O453 O 0.13869 0.72375 0.5761 0.0
C454 C 0.15499 0.72942 0.58139 0.0
C455 C 0.0735 0.68314 0.56506 0.0
C456 C 0.09932 0.6959 0.60748 0.0
C457 C 0.11193 0.65935 0.58061 0.0
O458 O 0.09552 0.65792 0.58047 0.0
O459 O 0.12682 0.67543 0.58264 0.0
O460 O 0.06446 0.67005 0.57322 0.0
O461 O 0.09149 0.69498 0.56688 0.0
O462 O 0.11296 0.69331 0.74044 0.0
Cd463 Cd 0.12517 0.69499 0.75748 0.0
Cd464 Cd 0.10601 0.71432 0.76249 0.0
O465 O 0.09476 0.70567 0.74498 0.0
O466 O 0.13609 0.67783 0.75535 0.0
O467 O 0.11324 0.6719 0.76877 0.0
C468 C 0.12438 0.66672 0.76362 0.0
C469 C 0.08685 0.70974 0.7797 0.0
C470 C 0.10064 0.69792 0.73725 0.0
C471 C 0.14891 0.7367 0.76399 0.0
O472 O 0.13346 0.73728 0.76374 0.0
O473 O 0.14858 0.72091 0.76244 0.0
O474 O 0.08945 0.72221 0.77137 0.0
O475 O 0.09449 0.69915 0.77798 0.0
O476 O 0.37087 0.45248 0.74059 0.0
Cd477 Cd 0.36963 0.46336 0.75759 0.0
Cd478 Cd 0.34913 0.42485 0.76267 0.0
O479 O 0.35709 0.42175 0.74505 0.0
O480 O 0.38723 0.49139 0.75552 0.0
O481 O 0.39261 0.47414 0.76899 0.0
C482 C 0.39803 0.49056 0.76394 0.0
C483 C 0.35392 0.41054 0.77995 0.0
C484 C 0.36538 0.43535 0.73735 0.0
C485 C 0.32806 0.44667 0.76428 0.0
O486 O 0.32683 0.43034 0.76418 0.0
O487 O 0.34409 0.46173 0.76249 0.0
O488 O 0.34091 0.40061 0.7719 0.0
O489 O 0.36493 0.42861 0.77786 0.0
O490 O 0.61254 0.95227 0.74071 0.0
Cd491 Cd 0.60187 0.93923 0.75753 0.0
Cd492 Cd 0.6408 0.95772 0.76236 0.0
O493 O 0.64346 0.96872 0.74479 0.0
O494 O 0.5738 0.92814 0.75515 0.0
O495 O 0.59015 0.95036 0.76906 0.0
C496 C 0.57402 0.93935 0.76367 0.0
C497 C 0.65584 0.97687 0.77952 0.0
C498 C 0.62961 0.9638 0.73733 0.0
C499 C 0.61949 0.9148 0.76356 0.0
O500 O 0.63565 0.93009 0.76362 0.0
O501 O 0.60422 0.91546 0.76189 0.0
O502 O 0.66543 0.97391 0.77117 0.0
O503 O 0.63764 0.96963 0.77784 0.0
H504 H 0.09244 0.29791 0.11355 0.0
H505 H 0.12342 0.30006 0.11766 0.0
H506 H 0.10811 0.25223 0.09337 0.0
H507 H 0.0773 0.24985 0.08933 0.0
H508 H 0.12475 0.25034 0.11608 0.0
H509 H 0.16782 0.32045 0.09236 0.0
H510 H 0.15181 0.3191 0.10436 0.0
H511 H 0.14226 0.30598 0.09031 0.0
C512 C 0.09566 0.28778 0.10917 0.0
C513 C 0.08245 0.27377 0.10106 0.0
C514 C 0.11339 0.2891 0.11147 0.0
C515 C 0.11814 0.27644 0.1057 0.0
C516 C 0.10475 0.26216 0.0979 0.0
H517 H 0.20256 0.24879 0.08838 0.0
H518 H 0.17422 0.25097 0.09313 0.0
C519 C 0.08714 0.26086 0.09558 0.0
C520 C 0.13711 0.27801 0.10743 0.0
H521 H 0.18406 0.30476 0.09903 0.0
C522 C 0.13779 0.26238 0.11253 0.0
C523 C 0.15411 0.29377 0.10286 0.0
C524 C 0.15411 0.31078 0.09709 0.0
C525 C 0.15483 0.26172 0.11271 0.0
C526 C 0.17157 0.27695 0.10747 0.0
C527 C 0.17118 0.29309 0.10302 0.0
C528 C 0.18889 0.27541 0.10523 0.0
C529 C 0.15466 0.24448 0.11823 0.0
C530 C 0.20669 0.28867 0.1103 0.0
C531 C 0.22306 0.28748 0.10758 0.0
C532 C 0.22188 0.27317 0.09961 0.0
C533 C 0.204 0.25996 0.09459 0.0
C534 C 0.18772 0.26109 0.09735 0.0
H535 H 0.14309 0.23736 0.12517 0.0
H536 H 0.15203 0.23395 0.11082 0.0
H537 H 0.16858 0.24847 0.12266 0.0
H538 H 0.20792 0.29995 0.11632 0.0
H539 H 0.23665 0.29793 0.11155 0.0
H540 H 0.81405 0.98458 0.08881 0.0
H541 H 0.81144 0.95371 0.09304 0.0
H542 H 0.76362 0.939 0.11717 0.0
H543 H 0.76601 0.97002 0.11287 0.0
H544 H 0.81328 0.93738 0.11578 0.0
H545 H 0.74295 0.89412 0.09229 0.0
H546 H 0.75748 0.91965 0.09012 0.0
H547 H 0.74439 0.91033 0.10418 0.0
C548 C 0.80298 0.97485 0.09506 0.0
C549 C 0.79015 0.97974 0.10045 0.0
C550 C 0.80155 0.95721 0.09748 0.0
C551 C 0.78721 0.94397 0.1053 0.0
C552 C 0.77461 0.94891 0.11096 0.0
H553 H 0.76449 0.82521 0.11256 0.0
H554 H 0.76303 0.85434 0.11701 0.0
C555 C 0.77607 0.96666 0.10855 0.0
C556 C 0.78554 0.92498 0.10721 0.0
H557 H 0.75837 0.8778 0.09934 0.0
C558 C 0.80114 0.9243 0.11236 0.0
C559 C 0.76965 0.90791 0.10279 0.0
C560 C 0.75267 0.9079 0.09696 0.0
C561 C 0.80163 0.90716 0.11276 0.0
C562 C 0.78624 0.89033 0.10771 0.0
C563 C 0.77016 0.89075 0.10319 0.0
C564 C 0.78754 0.87281 0.10575 0.0
C565 C 0.81884 0.90733 0.11834 0.0
C566 C 0.80169 0.87354 0.09791 0.0
C567 C 0.8025 0.85703 0.09532 0.0
C568 C 0.78914 0.83935 0.10051 0.0
C569 C 0.77505 0.83863 0.10848 0.0
C570 C 0.77418 0.85523 0.11102 0.0
H571 H 0.82613 0.91912 0.12514 0.0
H572 H 0.81477 0.89354 0.12296 0.0
H573 H 0.82925 0.90961 0.11093 0.0
H574 H 0.81189 0.88686 0.09354 0.0
H575 H 0.81351 0.85811 0.08911 0.0
H576 H 0.09174 0.82515 0.11207 0.0
H577 H 0.12338 0.85361 0.11531 0.0
H578 H 0.10891 0.88529 0.08974 0.0
H579 H 0.07757 0.85718 0.08643 0.0
H580 H 0.14447 0.88543 0.08501 0.0
H581 H 0.13835 0.90569 0.13322 0.0
H582 H 0.13124 0.88111 0.13002 0.0
H583 H 0.11752 0.89107 0.12385 0.0
C584 C 0.09525 0.83826 0.10727 0.0
C585 C 0.08215 0.83888 0.09897 0.0
C586 C 0.11328 0.8545 0.10915 0.0
C587 C 0.11841 0.87155 0.1028 0.0
C588 C 0.10521 0.87227 0.09474 0.0
H589 H 0.20383 0.98478 0.08802 0.0
H590 H 0.17586 0.95312 0.09058 0.0
C591 C 0.08728 0.85615 0.09287 0.0
C592 C 0.13786 0.88848 0.1038 0.0
H593 H 0.16662 0.92629 0.12241 0.0
C594 C 0.14943 0.89423 0.09325 0.0
C595 C 0.14432 0.89983 0.11458 0.0
C596 C 0.13226 0.89428 0.12609 0.0
C597 C 0.16697 0.91141 0.09302 0.0
C598 C 0.17298 0.92329 0.10356 0.0
C599 C 0.16191 0.91713 0.11434 0.0
C600 C 0.18971 0.9429 0.10302 0.0
C601 C 0.17874 0.91699 0.08137 0.0
C602 C 0.20662 0.94783 0.1095 0.0
C603 C 0.22278 0.96606 0.10805 0.0
C604 C 0.22215 0.97957 0.10016 0.0
C605 C 0.20489 0.97472 0.0941 0.0
C606 C 0.18887 0.9566 0.09553 0.0
H607 H 0.17481 0.9044 0.07536 0.0
H608 H 0.17617 0.9273 0.07612 0.0
H609 H 0.19425 0.92402 0.08352 0.0
H610 H 0.20748 0.93744 0.11537 0.0
H611 H 0.23584 0.96938 0.11286 0.0
H612 H 0.30075 0.09214 0.89924 0.0
H613 H 0.30381 0.12385 0.89667 0.0
H614 H 0.25343 0.10596 0.9189 0.0
H615 H 0.25025 0.07451 0.92153 0.0
H616 H 0.27454 0.1346 0.88793 0.0
H617 H 0.2984 0.15434 0.93638 0.0
H618 H 0.29964 0.13534 0.92838 0.0
H619 H 0.27726 0.13133 0.93454 0.0
C620 C 0.29022 0.09492 0.90347 0.0
C621 C 0.27535 0.08084 0.91068 0.0
C622 C 0.29199 0.11302 0.90198 0.0
C623 C 0.27898 0.11727 0.90773 0.0
C624 C 0.26375 0.10301 0.91452 0.0
H625 H 0.25077 0.20265 0.92248 0.0
H626 H 0.25405 0.17449 0.91962 0.0
C627 C 0.26195 0.08502 0.91599 0.0
C628 C 0.28149 0.13675 0.90722 0.0
H629 H 0.28815 0.1736 0.92591 0.0
C630 C 0.27784 0.14335 0.89615 0.0
C631 C 0.28588 0.14809 0.91797 0.0
C632 C 0.2907 0.14204 0.92998 0.0
C633 C 0.27739 0.16056 0.89575 0.0
C634 C 0.28086 0.17141 0.90666 0.0
C635 C 0.28538 0.1652 0.91757 0.0
C636 C 0.27832 0.18836 0.90734 0.0
C637 C 0.27227 0.16656 0.88385 0.0
C638 C 0.29079 0.20552 0.90126 0.0
C639 C 0.28895 0.22178 0.90288 0.0
C640 C 0.27466 0.2211 0.91065 0.0
C641 C 0.26197 0.20373 0.91646 0.0
C642 C 0.26382 0.18758 0.91485 0.0
H643 H 0.26744 0.15527 0.87666 0.0
H644 H 0.26077 0.17007 0.88544 0.0
H645 H 0.28498 0.17964 0.88031 0.0
H646 H 0.30225 0.20648 0.89556 0.0
H647 H 0.29899 0.23497 0.89832 0.0
H648 H 0.98625 0.20434 0.92396 0.0
H649 H 0.95493 0.17608 0.92093 0.0
H650 H 0.93998 0.20703 0.89508 0.0
H651 H 0.97159 0.23564 0.89803 0.0
H652 H 0.91945 0.1759 0.92573 0.0
H653 H 0.92477 0.15461 0.87767 0.0
H654 H 0.94574 0.16953 0.88684 0.0
H655 H 0.93182 0.17924 0.88062 0.0
C656 C 0.97644 0.20517 0.91752 0.0
C657 C 0.98142 0.22229 0.91126 0.0
C658 C 0.95852 0.18897 0.9158 0.0
C659 C 0.94518 0.18944 0.90775 0.0
C660 C 0.95018 0.20633 0.90123 0.0
H661 H 0.82755 0.09168 0.89857 0.0
H662 H 0.856 0.12349 0.89582 0.0
C663 C 0.9682 0.22265 0.90295 0.0
C664 C 0.92574 0.17247 0.90694 0.0
H665 H 0.89661 0.13431 0.88868 0.0
C666 C 0.91435 0.16693 0.91758 0.0
C667 C 0.91908 0.16089 0.89626 0.0
C668 C 0.93094 0.1662 0.88467 0.0
C669 C 0.89679 0.14978 0.91798 0.0
C670 C 0.89059 0.13769 0.90753 0.0
C671 C 0.90148 0.14362 0.89668 0.0
C672 C 0.87378 0.11814 0.90824 0.0
C673 C 0.88521 0.14446 0.92971 0.0
C674 C 0.87459 0.10454 0.91585 0.0
C675 C 0.85851 0.08649 0.91742 0.0
C676 C 0.84124 0.08161 0.91138 0.0
C677 C 0.84063 0.09502 0.90337 0.0
C678 C 0.85684 0.11317 0.90179 0.0
H679 H 0.88926 0.15718 0.93562 0.0
H680 H 0.86966 0.13742 0.92765 0.0
H681 H 0.88783 0.13424 0.93502 0.0
H682 H 0.88762 0.10804 0.92079 0.0
H683 H 0.85955 0.0765 0.92359 0.0
H684 H 0.85743 0.81061 0.92437 0.0
H685 H 0.88595 0.80795 0.92153 0.0
H686 H 0.85607 0.76282 0.89498 0.0
H687 H 0.82718 0.76539 0.89776 0.0
H688 H 0.88607 0.77213 0.92583 0.0
H689 H 0.90918 0.80158 0.87851 0.0
H690 H 0.89405 0.80726 0.88775 0.0
H691 H 0.88443 0.78394 0.88104 0.0
C692 C 0.85689 0.80023 0.91782 0.0
C693 C 0.83998 0.78817 0.91131 0.0
C694 C 0.87324 0.79874 0.91621 0.0
C695 C 0.87314 0.78526 0.90802 0.0
C696 C 0.85648 0.77346 0.90126 0.0
H697 H 0.97227 0.76765 0.89876 0.0
H698 H 0.94041 0.76408 0.89581 0.0
C699 C 0.84 0.77491 0.90288 0.0
C700 C 0.89025 0.78301 0.90731 0.0
H701 H 0.92933 0.79358 0.88959 0.0
C702 C 0.8954 0.77658 0.91785 0.0
C703 C 0.9023 0.7887 0.89685 0.0
C704 C 0.89738 0.79585 0.88537 0.0
C705 C 0.91263 0.77633 0.91839 0.0
C706 C 0.9252 0.78299 0.90819 0.0
C707 C 0.91966 0.78855 0.8974 0.0
C708 C 0.94479 0.78588 0.90911 0.0
C709 C 0.91747 0.76935 0.92999 0.0
C710 C 0.95788 0.79963 0.9173 0.0
C711 C 0.97596 0.80172 0.91899 0.0
C712 C 0.98139 0.79011 0.91249 0.0
C713 C 0.9685 0.77677 0.90393 0.0
C714 C 0.95032 0.77472 0.90222 0.0
H715 H 0.90448 0.76007 0.93552 0.0
H716 H 0.92488 0.76123 0.92781 0.0
H717 H 0.9272 0.78184 0.93576 0.0
H718 H 0.95397 0.80857 0.92257 0.0
H719 H 0.98554 0.81222 0.92559 0.0
H720 H 0.74574 0.58523 0.41951 0.0
H721 H 0.77705 0.58832 0.42262 0.0
H722 H 0.79137 0.63337 0.44909 0.0
H723 H 0.75974 0.63031 0.44607 0.0
H724 H 0.81252 0.62358 0.41831 0.0
H725 H 0.80635 0.59585 0.46612 0.0
H726 H 0.78554 0.59014 0.45687 0.0
H727 H 0.7995 0.61361 0.46333 0.0
C728 C 0.75542 0.59569 0.4261 0.0
C729 C 0.75024 0.60757 0.43252 0.0
C730 C 0.77333 0.59743 0.42786 0.0
C731 C 0.78649 0.611 0.43611 0.0
C732 C 0.78131 0.62264 0.44278 0.0
H733 H 0.90387 0.63005 0.44526 0.0
H734 H 0.87559 0.63368 0.44815 0.0
C735 C 0.76328 0.62092 0.44102 0.0
C736 C 0.80592 0.61346 0.437 0.0
H737 H 0.83462 0.60379 0.45522 0.0
C738 C 0.81747 0.61951 0.42644 0.0
C739 C 0.81237 0.60825 0.44765 0.0
C740 C 0.80034 0.6015 0.45917 0.0
C741 C 0.83496 0.61978 0.42606 0.0
C742 C 0.84095 0.6136 0.43646 0.0
C743 C 0.82992 0.60847 0.44726 0.0
C744 C 0.85761 0.61064 0.43573 0.0
C745 C 0.84669 0.62619 0.4144 0.0
C746 C 0.85663 0.5962 0.42806 0.0
C747 C 0.87261 0.59408 0.42642 0.0
C748 C 0.88995 0.60636 0.43242 0.0
C749 C 0.89073 0.6204 0.44049 0.0
C750 C 0.87462 0.62249 0.44215 0.0
H751 H 0.84278 0.635 0.40854 0.0
H752 H 0.86222 0.63461 0.41654 0.0
H753 H 0.84409 0.61342 0.40901 0.0
H754 H 0.84355 0.58677 0.42314 0.0
H755 H 0.87144 0.58303 0.4202 0.0
H756 H 0.47885 0.31788 0.42181 0.0
H757 H 0.47656 0.28716 0.42596 0.0
H758 H 0.43022 0.27289 0.45133 0.0
H759 H 0.43228 0.3038 0.44711 0.0
H760 H 0.47985 0.27145 0.44859 0.0
H761 H 0.40821 0.22744 0.42681 0.0
H762 H 0.42252 0.25291 0.42432 0.0
H763 H 0.41036 0.24392 0.43872 0.0
C764 C 0.46818 0.30829 0.42831 0.0
C765 C 0.45566 0.31326 0.43408 0.0
C766 C 0.46692 0.29072 0.43069 0.0
C767 C 0.4531 0.27766 0.43885 0.0
C768 C 0.44082 0.28267 0.44487 0.0
H769 H 0.43285 0.15963 0.44584 0.0
H770 H 0.43087 0.18842 0.45055 0.0
C771 C 0.44209 0.30036 0.4425 0.0
C772 C 0.45162 0.25875 0.4407 0.0
H773 H 0.42437 0.21147 0.4331 0.0
C774 C 0.46759 0.25828 0.44539 0.0
C775 C 0.43557 0.24157 0.43658 0.0
C776 C 0.41819 0.24134 0.43125 0.0
C777 C 0.46828 0.24125 0.44557 0.0
C778 C 0.45272 0.22431 0.44077 0.0
C779 C 0.43628 0.22451 0.43676 0.0
C780 C 0.45418 0.20697 0.43849 0.0
C781 C 0.48591 0.24164 0.45059 0.0
C782 C 0.46778 0.20786 0.43008 0.0
C783 C 0.46887 0.19155 0.42733 0.0
C784 C 0.45635 0.17392 0.43293 0.0
C785 C 0.44275 0.17303 0.44142 0.0
C786 C 0.44159 0.18942 0.44411 0.0
H787 H 0.49361 0.25357 0.45724 0.0
H788 H 0.48223 0.22795 0.45522 0.0
H789 H 0.49582 0.24382 0.44287 0.0
H790 H 0.47738 0.22116 0.42545 0.0
H791 H 0.47948 0.19277 0.42073 0.0
H792 H 0.90427 0.30314 0.44616 0.0
H793 H 0.87579 0.27134 0.44885 0.0
H794 H 0.84429 0.28695 0.42391 0.0
H795 H 0.87239 0.31847 0.42115 0.0
H796 H 0.83505 0.26023 0.45587 0.0
H797 H 0.84303 0.23815 0.40883 0.0
H798 H 0.86249 0.25785 0.41693 0.0
H799 H 0.84434 0.26103 0.40953 0.0
C800 C 0.8912 0.29984 0.44137 0.0
C801 C 0.89065 0.31328 0.43335 0.0
C802 C 0.87497 0.2817 0.44292 0.0
C803 C 0.85807 0.27676 0.43644 0.0
C804 C 0.85729 0.29042 0.42886 0.0
H805 H 0.74561 0.19144 0.42037 0.0
H806 H 0.77704 0.21946 0.42361 0.0
C807 C 0.87339 0.30846 0.42732 0.0
C808 C 0.84131 0.25718 0.43701 0.0
H809 H 0.81268 0.21928 0.41852 0.0
C810 C 0.83029 0.25105 0.44781 0.0
C811 C 0.83524 0.24526 0.42648 0.0
C812 C 0.84696 0.25078 0.41481 0.0
C813 C 0.81271 0.23375 0.44809 0.0
C814 C 0.80618 0.22238 0.43732 0.0
C815 C 0.81769 0.22809 0.42674 0.0
C816 C 0.78671 0.20549 0.43635 0.0
C817 C 0.80071 0.2282 0.45962 0.0
C818 C 0.78167 0.18833 0.44255 0.0
C819 C 0.76359 0.17214 0.4407 0.0
C820 C 0.75036 0.17291 0.43259 0.0
C821 C 0.75542 0.19029 0.42665 0.0
C822 C 0.7734 0.20635 0.42849 0.0
H823 H 0.80696 0.23951 0.46681 0.0
H824 H 0.78604 0.22525 0.45743 0.0
H825 H 0.79947 0.21487 0.46345 0.0
H826 H 0.79185 0.18734 0.44856 0.0
H827 H 0.76014 0.15895 0.44538 0.0
H828 H 0.9651 0.42582 0.23161 0.0
H829 H 0.96853 0.45768 0.22897 0.0
H830 H 0.92264 0.44277 0.25481 0.0
H831 H 0.9191 0.41119 0.2575 0.0
H832 H 0.93851 0.46854 0.22249 0.0
H833 H 0.97086 0.49203 0.26888 0.0
H834 H 0.97031 0.47215 0.26083 0.0
H835 H 0.94933 0.46909 0.26864 0.0
C836 C 0.95564 0.4293 0.23663 0.0
C837 C 0.94193 0.41602 0.24484 0.0
C838 C 0.95761 0.44747 0.23511 0.0
C839 C 0.946 0.45261 0.24183 0.0
C840 C 0.9319 0.43914 0.24966 0.0
H841 H 0.91905 0.53783 0.25839 0.0
H842 H 0.9227 0.50995 0.25519 0.0
C843 C 0.92989 0.42107 0.25116 0.0
C844 C 0.94877 0.47216 0.24115 0.0
H845 H 0.95872 0.5105 0.25939 0.0
C846 C 0.94329 0.47794 0.23044 0.0
C847 C 0.95509 0.48437 0.25154 0.0
C848 C 0.96191 0.47922 0.2631 0.0
C849 C 0.94284 0.49516 0.23015 0.0
C850 C 0.94816 0.50682 0.24079 0.0
C851 C 0.95457 0.50147 0.25126 0.0
C852 C 0.94543 0.52362 0.2418 0.0
C853 C 0.93572 0.50029 0.21874 0.0
C854 C 0.95695 0.54057 0.23523 0.0
C855 C 0.95492 0.55668 0.23705 0.0
C856 C 0.94137 0.55604 0.2455 0.0
C857 C 0.92965 0.53887 0.25183 0.0
C858 C 0.9317 0.52289 0.25002 0.0
H859 H 0.93026 0.48873 0.21171 0.0
H860 H 0.92413 0.50332 0.22116 0.0
H861 H 0.94758 0.51348 0.2146 0.0
H862 H 0.96778 0.54147 0.22893 0.0
H863 H 0.9642 0.56971 0.23206 0.0
H864 H 0.64988 0.53669 0.25771 0.0
H865 H 0.61846 0.50859 0.25462 0.0
H866 H 0.60432 0.53955 0.22825 0.0
H867 H 0.63603 0.56801 0.23127 0.0
H868 H 0.58288 0.50911 0.25886 0.0
H869 H 0.58923 0.48651 0.21136 0.0
H870 H 0.61003 0.50125 0.22073 0.0
H871 H 0.59667 0.5113 0.2141 0.0
C872 C 0.64022 0.53756 0.25114 0.0
C873 C 0.64546 0.55464 0.24476 0.0
C874 C 0.62225 0.52145 0.2494 0.0
C875 C 0.60912 0.52197 0.24118 0.0
C876 C 0.61436 0.53881 0.23454 0.0
H877 H 0.49197 0.42349 0.23138 0.0
H878 H 0.52031 0.45537 0.22857 0.0
C879 C 0.63244 0.55505 0.2363 0.0
C880 C 0.58963 0.50509 0.24031 0.0
H881 H 0.56096 0.4664 0.22232 0.0
C882 C 0.57797 0.49991 0.25081 0.0
C883 C 0.58323 0.49321 0.22976 0.0
C884 C 0.59538 0.49818 0.21832 0.0
C885 C 0.56039 0.48278 0.25123 0.0
C886 C 0.55446 0.47035 0.24094 0.0
C887 C 0.56561 0.47596 0.23019 0.0
C888 C 0.53771 0.45078 0.24176 0.0
C889 C 0.54851 0.47785 0.26281 0.0
C890 C 0.53835 0.43757 0.24985 0.0
C891 C 0.52234 0.4195 0.25146 0.0
C892 C 0.50529 0.41418 0.24498 0.0
C893 C 0.50487 0.42718 0.23653 0.0
C894 C 0.52101 0.44537 0.2349 0.0
H895 H 0.55228 0.4908 0.26841 0.0
H896 H 0.533 0.47055 0.26059 0.0
H897 H 0.55118 0.468 0.26851 0.0
H898 H 0.5512 0.4414 0.25509 0.0
H899 H 0.52325 0.40982 0.25797 0.0
H900 H 0.49295 0.09645 0.23284 0.0
H901 H 0.52141 0.09316 0.22987 0.0
H902 H 0.55313 0.13992 0.25503 0.0
H903 H 0.52506 0.14331 0.25807 0.0
H904 H 0.56163 0.1227 0.22258 0.0
H905 H 0.5555 0.09285 0.26947 0.0
H906 H 0.53572 0.09301 0.26178 0.0
H907 H 0.55407 0.11436 0.26907 0.0
C908 C 0.50605 0.10612 0.23765 0.0
C909 C 0.50669 0.12003 0.24578 0.0
C910 C 0.52226 0.10422 0.23593 0.0
C911 C 0.53924 0.11613 0.24237 0.0
C912 C 0.54007 0.13043 0.25011 0.0
H913 H 0.65251 0.14454 0.25675 0.0
H914 H 0.62088 0.14082 0.25394 0.0
C915 C 0.52399 0.13235 0.25182 0.0
C916 C 0.5561 0.11349 0.24148 0.0
H917 H 0.58567 0.10477 0.25939 0.0
C918 C 0.56675 0.11842 0.23052 0.0
C919 C 0.56263 0.1078 0.25186 0.0
C920 C 0.55131 0.10152 0.26369 0.0
C921 C 0.58444 0.11895 0.22994 0.0
C922 C 0.59144 0.1143 0.24055 0.0
C923 C 0.58029 0.10843 0.25129 0.0
C924 C 0.61103 0.11714 0.2412 0.0
C925 C 0.59603 0.12545 0.21824 0.0
C926 C 0.61607 0.10514 0.23484 0.0
C927 C 0.63427 0.10721 0.23644 0.0
C928 C 0.64763 0.12128 0.24445 0.0
C929 C 0.6426 0.13352 0.25053 0.0
C930 C 0.6245 0.13143 0.24895 0.0
H931 H 0.58942 0.13034 0.2112 0.0
H932 H 0.61071 0.13731 0.22025 0.0
H933 H 0.59731 0.11344 0.21431 0.0
H934 H 0.60577 0.09388 0.22891 0.0
H935 H 0.63769 0.09752 0.23165 0.0
H936 H 0.42625 0.96386 0.77893 0.0
H937 H 0.45789 0.9668 0.78164 0.0
H938 H 0.44115 0.91845 0.75759 0.0
H939 H 0.40978 0.91541 0.75482 0.0
H940 H 0.46867 0.93738 0.78935 0.0
H941 H 0.48994 0.96459 0.74167 0.0
H942 H 0.47049 0.96499 0.74964 0.0
H943 H 0.46701 0.94318 0.7428 0.0
C944 C 0.42927 0.95374 0.77433 0.0
C945 C 0.41555 0.93951 0.76657 0.0
C946 C 0.44732 0.95545 0.7759 0.0
C947 C 0.45189 0.943 0.76967 0.0
C948 C 0.43797 0.92834 0.76234 0.0
H949 H 0.53838 0.91656 0.75431 0.0
H950 H 0.50987 0.91918 0.75737 0.0
C951 C 0.42001 0.92662 0.76079 0.0
C952 C 0.47139 0.94557 0.77026 0.0
H953 H 0.50896 0.95372 0.75182 0.0
C954 C 0.47768 0.94127 0.78123 0.0
C955 C 0.4831 0.95074 0.75966 0.0
C956 C 0.47742 0.95632 0.74779 0.0
C957 C 0.49497 0.94095 0.78164 0.0
C958 C 0.50618 0.9452 0.77084 0.0
C959 C 0.50026 0.95035 0.76006 0.0
C960 C 0.52327 0.9429 0.77012 0.0
C961 C 0.50068 0.93517 0.7934 0.0
C962 C 0.54027 0.95527 0.77641 0.0
C963 C 0.55673 0.95382 0.77467 0.0
C964 C 0.55641 0.94003 0.76657 0.0
C965 C 0.53918 0.92738 0.76058 0.0
C966 C 0.52284 0.92884 0.76231 0.0
H967 H 0.48922 0.92995 0.80048 0.0
H968 H 0.50421 0.92375 0.79151 0.0
H969 H 0.51369 0.94766 0.79722 0.0
H970 H 0.54096 0.96638 0.78236 0.0
H971 H 0.5698 0.96381 0.77938 0.0
H972 H 0.09942 0.49419 0.77938 0.0
H973 H 0.09627 0.52276 0.78217 0.0
H974 H 0.14219 0.55364 0.75634 0.0
H975 H 0.14542 0.52545 0.75347 0.0
H976 H 0.12586 0.56306 0.78893 0.0
H977 H 0.09488 0.55576 0.74226 0.0
H978 H 0.09531 0.5362 0.75005 0.0
H979 H 0.11644 0.55442 0.74252 0.0
C980 C 0.10894 0.50713 0.77439 0.0
C981 C 0.12255 0.50748 0.76612 0.0
C982 C 0.10712 0.52341 0.776 0.0
C983 C 0.11882 0.54018 0.76932 0.0
C984 C 0.13284 0.54074 0.76144 0.0
H985 H 0.14661 0.6532 0.75427 0.0
H986 H 0.14331 0.62178 0.75734 0.0
C987 C 0.13468 0.52459 0.75984 0.0
C988 C 0.11622 0.55707 0.77011 0.0
H989 H 0.10703 0.58618 0.75207 0.0
C990 C 0.12139 0.56798 0.78098 0.0
C991 C 0.11029 0.56335 0.75972 0.0
C992 C 0.10373 0.55175 0.748 0.0
C993 C 0.12188 0.58566 0.78145 0.0
C994 C 0.11696 0.59239 0.77083 0.0
C995 C 0.11089 0.58101 0.76018 0.0
C996 C 0.11964 0.61192 0.77007 0.0
C997 C 0.12859 0.59752 0.79305 0.0
C998 C 0.10751 0.61686 0.77634 0.0
C999 C 0.10933 0.63493 0.77459 0.0
C1000 C 0.12328 0.64824 0.76651 0.0
C1001 C 0.13569 0.64332 0.76054 0.0
C1002 C 0.13384 0.62535 0.76228 0.0
H1003 H 0.13356 0.59104 0.80013 0.0
H1004 H 0.14045 0.61213 0.79089 0.0
H1005 H 0.11668 0.59896 0.79698 0.0
H1006 H 0.09633 0.60659 0.7823 0.0
H1007 H 0.09952 0.63827 0.77929 0.0
H1008 H 0.42691 0.4934 0.77888 0.0
H1009 H 0.45767 0.52233 0.78332 0.0
H1010 H 0.44097 0.55562 0.76087 0.0
H1011 H 0.41043 0.52707 0.75647 0.0
H1012 H 0.48542 0.54611 0.76569 0.0
H1013 H 0.45989 0.58713 0.79268 0.0
H1014 H 0.44547 0.56161 0.79025 0.0
H1015 H 0.44694 0.57806 0.77852 0.0
C1016 C 0.42973 0.50694 0.77503 0.0
C1017 C 0.4162 0.50794 0.76734 0.0
C1018 C 0.4473 0.52343 0.77755 0.0
C1019 C 0.45147 0.54117 0.77258 0.0
C1020 C 0.4379 0.54217 0.76502 0.0
H1021 H 0.53672 0.65281 0.75567 0.0
H1022 H 0.50845 0.62201 0.76003 0.0
C1023 C 0.42047 0.52577 0.76245 0.0
C1024 C 0.47037 0.55858 0.77453 0.0
H1025 H 0.49077 0.6055 0.78302 0.0
C1026 C 0.48673 0.55901 0.76974 0.0
C1027 C 0.47202 0.57536 0.77984 0.0
C1028 C 0.45517 0.5755 0.78573 0.0
C1029 C 0.50444 0.57613 0.76932 0.0
C1030 C 0.5058 0.59315 0.77398 0.0
C1031 C 0.48967 0.59246 0.7794 0.0
C1032 C 0.5231 0.61213 0.77205 0.0
C1033 C 0.52123 0.57614 0.76321 0.0
C1034 C 0.54072 0.61696 0.77754 0.0
C1035 C 0.55703 0.63468 0.77506 0.0
C1036 C 0.55593 0.64781 0.76705 0.0
C1037 C 0.53812 0.64304 0.76184 0.0
C1038 C 0.52191 0.62543 0.76434 0.0
H1039 H 0.51704 0.56239 0.75846 0.0
H1040 H 0.52796 0.58793 0.75637 0.0
H1041 H 0.53216 0.57855 0.77027 0.0
H1042 H 0.54188 0.60699 0.78366 0.0
H1043 H 0.57052 0.63795 0.77924 0.0
H1044 H 0.58381 0.74521 0.58979 0.0
H1045 H 0.58631 0.77594 0.58531 0.0
H1046 H 0.63414 0.79044 0.56123 0.0
H1047 H 0.6318 0.75948 0.56575 0.0
H1048 H 0.64024 0.81938 0.5785 0.0
H1049 H 0.57165 0.7937 0.55389 0.0
H1050 H 0.56869 0.78145 0.56822 0.0
H1051 H 0.58245 0.77897 0.55605 0.0
C1052 C 0.59478 0.75481 0.58344 0.0
C1053 C 0.60758 0.74985 0.5781 0.0
C1054 C 0.5961 0.77235 0.58083 0.0
C1055 C 0.6102 0.78535 0.57278 0.0
C1056 C 0.62304 0.78052 0.56738 0.0
H1057 H 0.6328 0.90441 0.56447 0.0
H1058 H 0.63474 0.87547 0.56026 0.0
C1059 C 0.62167 0.76283 0.56996 0.0
C1060 C 0.61194 0.80433 0.57069 0.0
H1061 H 0.58542 0.82508 0.56308 0.0
C1062 C 0.62846 0.82076 0.57486 0.0
C1063 C 0.59658 0.80606 0.56589 0.0
C1064 C 0.57892 0.78912 0.56064 0.0
C1065 C 0.62945 0.83865 0.57519 0.0
C1066 C 0.61358 0.84011 0.5711 0.0
C1067 C 0.59753 0.8239 0.56626 0.0
C1068 C 0.61237 0.85765 0.57312 0.0
C1069 C 0.64692 0.85561 0.58061 0.0
C1070 C 0.59895 0.85709 0.58155 0.0
C1071 C 0.5978 0.87346 0.58395 0.0
C1072 C 0.60999 0.89079 0.57792 0.0
C1073 C 0.62324 0.89129 0.56928 0.0
C1074 C 0.62443 0.87482 0.56691 0.0
H1075 H 0.65696 0.85152 0.58476 0.0
H1076 H 0.65462 0.8663 0.57326 0.0
H1077 H 0.64267 0.86257 0.58779 0.0
H1078 H 0.5895 0.84398 0.58643 0.0
H1079 H 0.58738 0.87252 0.59062 0.0
H1080 H 0.19109 0.74308 0.59016 0.0
H1081 H 0.21943 0.77388 0.58598 0.0
H1082 H 0.18679 0.78842 0.56126 0.0
H1083 H 0.15807 0.75742 0.5655 0.0
H1084 H 0.23772 0.78972 0.56301 0.0
H1085 H 0.21111 0.83369 0.58607 0.0
H1086 H 0.20006 0.80821 0.58851 0.0
H1087 H 0.19627 0.8172 0.5743 0.0
C1088 C 0.18987 0.75275 0.5838 0.0
C1089 C 0.17227 0.74782 0.57821 0.0
C1090 C 0.20612 0.77036 0.5814 0.0
C1091 C 0.20518 0.78351 0.57342 0.0
C1092 C 0.18776 0.77856 0.56759 0.0
H1093 H 0.30264 0.90159 0.56601 0.0
H1094 H 0.27166 0.87286 0.56164 0.0
C1095 C 0.1714 0.76083 0.56997 0.0
C1096 C 0.22258 0.80241 0.57148 0.0
H1097 H 0.243 0.84963 0.57931 0.0
C1098 C 0.2388 0.80288 0.5664 0.0
C1099 C 0.22392 0.81957 0.57583 0.0
C1100 C 0.207 0.81979 0.58156 0.0
C1101 C 0.25653 0.81989 0.56603 0.0
C1102 C 0.25814 0.83681 0.57106 0.0
C1103 C 0.2417 0.83661 0.57549 0.0
C1104 C 0.27706 0.85414 0.57312 0.0
C1105 C 0.27351 0.8195 0.56055 0.0
C1106 C 0.29021 0.85315 0.58109 0.0
C1107 C 0.30775 0.86942 0.58362 0.0
C1108 C 0.31255 0.88713 0.57827 0.0
C1109 C 0.2994 0.88814 0.57022 0.0
C1110 C 0.28171 0.87177 0.56774 0.0
H1111 H 0.26894 0.80767 0.55378 0.0
H1112 H 0.28337 0.83325 0.55593 0.0
H1113 H 0.2815 0.81713 0.56802 0.0
H1114 H 0.28676 0.83978 0.58554 0.0
H1115 H 0.31748 0.86812 0.58989 0.0
H1116 H 0.30432 0.43161 0.56498 0.0
H1117 H 0.27253 0.42814 0.56187 0.0
H1118 H 0.28689 0.47436 0.58738 0.0
H1119 H 0.31839 0.47791 0.59055 0.0
H1120 H 0.25136 0.43808 0.59215 0.0
H1121 H 0.2571 0.46548 0.54426 0.0
H1122 H 0.26487 0.44846 0.54734 0.0
H1123 H 0.27802 0.47212 0.55364 0.0
C1124 C 0.30076 0.44117 0.5698 0.0
C1125 C 0.31387 0.455 0.57804 0.0
C1126 C 0.28264 0.4392 0.56799 0.0
C1127 C 0.27744 0.45106 0.57437 0.0
C1128 C 0.29065 0.46509 0.58236 0.0
H1129 H 0.19125 0.47715 0.59055 0.0
H1130 H 0.21937 0.47381 0.58769 0.0
C1131 C 0.30867 0.46709 0.58415 0.0
C1132 C 0.2579 0.44832 0.57348 0.0
H1133 H 0.22893 0.45761 0.55527 0.0
C1134 C 0.24633 0.44209 0.58402 0.0
C1135 C 0.25137 0.45343 0.56284 0.0
C1136 C 0.26342 0.46033 0.55134 0.0
C1137 C 0.22871 0.44153 0.58439 0.0
C1138 C 0.22263 0.44767 0.574 0.0
C1139 C 0.2337 0.45298 0.56322 0.0
C1140 C 0.2058 0.45038 0.57474 0.0
C1141 C 0.21692 0.43486 0.59602 0.0
C1142 C 0.18901 0.43868 0.56807 0.0
C1143 C 0.17276 0.44055 0.56969 0.0
C1144 C 0.17319 0.45423 0.57794 0.0
C1145 C 0.19034 0.46637 0.58419 0.0
C1146 C 0.20645 0.46448 0.58259 0.0
H1147 H 0.22086 0.42597 0.60178 0.0
H1148 H 0.21949 0.44752 0.60154 0.0
H1149 H 0.20141 0.42645 0.59385 0.0
H1150 H 0.1883 0.42777 0.56192 0.0
H1151 H 0.15978 0.43101 0.56472 0.0
H1152 H 0.00347 0.33153 0.11737 0.0
H1153 H 1.0013 0.34509 0.13702 0.0
H1154 H 0.03474 0.32343 0.15441 0.0
H1155 H 0.03751 0.3104 0.13466 0.0
H1156 H 0.98358 0.32466 0.15655 0.0
H1157 H 0.05848 0.37545 0.16983 0.0
H1158 H 0.05194 0.36586 0.15443 0.0
H1159 H 0.05479 0.35209 0.16644 0.0
C1160 C 0.01074 0.33004 0.12531 0.0
C1161 C 0.02065 0.31988 0.12446 0.0
C1162 C 0.00947 0.33779 0.13655 0.0
C1163 C 0.01798 0.33546 0.14721 0.0
C1164 C 0.02845 0.32587 0.14629 0.0
H1165 H 0.99544 0.33451 0.22445 0.0
H1166 H 0.00754 0.33298 0.20406 0.0
C1167 C 0.02994 0.31831 0.13499 0.0
C1168 C 0.01406 0.34116 0.15943 0.0
H1169 H 0.03502 0.36551 0.186 0.0
C1170 C 0.99487 0.33384 0.16289 0.0
C1171 C 0.02876 0.35307 0.16776 0.0
C1172 C 0.04964 0.36223 0.16438 0.0
C1173 C 0.98998 0.33766 0.17452 0.0
C1174 C 0.00464 0.34916 0.18293 0.0
C1175 C 0.02384 0.35671 0.17949 0.0
C1176 C 1.00001 0.35253 0.19556 0.0
C1177 C 0.96912 0.32892 0.17792 0.0
C1178 C 0.9923 0.3645 0.19757 0.0
C1179 C 0.98543 0.3655 0.20924 0.0
C1180 C 0.98604 0.3544 0.21903 0.0
C1181 C 0.99467 0.34318 0.21709 0.0
C1182 C 1.00165 0.34231 0.20546 0.0
H1183 H 0.95952 0.31849 0.17091 0.0
H1184 H 0.96634 0.32156 0.18696 0.0
H1185 H 0.96545 0.34041 0.1788 0.0
H1186 H 0.99095 0.37251 0.19001 0.0
H1187 H 0.97885 0.37426 0.21042 0.0
H1188 H 0.73796 0.70198 0.11833 0.0
H1189 H 0.72567 0.68676 0.13826 0.0
H1190 H 0.73448 0.7402 0.15301 0.0
H1191 H 0.74671 0.75559 0.133 0.0
H1192 H 0.74831 0.69892 0.15942 0.0
H1193 H 0.68099 0.70069 0.16623 0.0
H1194 H 0.69186 0.70337 0.15126 0.0
H1195 H 0.70141 0.72311 0.16186 0.0
C1196 C 0.73694 0.71045 0.12572 0.0
C1197 C 0.7434 0.73004 0.12408 0.0
C1198 C 0.7299 0.7017 0.13712 0.0
C1199 C 0.72905 0.7123 0.1471 0.0
C1200 C 0.73471 0.73166 0.14537 0.0
H1201 H 0.73447 0.69065 0.22432 0.0
H1202 H 0.73712 0.70493 0.20405 0.0
C1203 C 0.74178 0.74046 0.13394 0.0
C1204 C 0.72425 0.70356 0.15956 0.0
H1205 H 0.69296 0.69185 0.1836 0.0
C1206 C 0.73614 0.69729 0.16467 0.0
C1207 C 0.70835 0.7014 0.16638 0.0
C1208 C 0.69478 0.70733 0.16115 0.0
C1209 C 0.73275 0.68919 0.17647 0.0
C1210 C 0.71712 0.68741 0.1834 0.0
C1211 C 0.70499 0.69336 0.17826 0.0
C1212 C 0.71353 0.67954 0.19606 0.0
C1213 C 0.74591 0.68256 0.1815 0.0
C1214 C 0.69899 0.66069 0.19835 0.0
C1215 C 0.69744 0.6524 0.20995 0.0
C1216 C 0.71041 0.66289 0.21942 0.0
C1217 C 0.72429 0.68212 0.21723 0.0
C1218 C 0.72584 0.69034 0.20566 0.0
H1219 H 0.75538 0.68206 0.17426 0.0
H1220 H 0.75504 0.69257 0.18883 0.0
H1221 H 0.73749 0.66813 0.18568 0.0
H1222 H 0.68939 0.65214 0.19102 0.0
H1223 H 0.68659 0.63758 0.21133 0.0
H1224 H 0.35894 0.05971 0.11847 0.0
H1225 H 0.37474 0.06226 0.13815 0.0
H1226 H 0.31973 0.02847 0.15554 0.0
H1227 H 0.30385 0.02533 0.13576 0.0
H1228 H 0.372 0.07987 0.15777 0.0
H1229 H 0.34829 0.00499 0.17086 0.0
H1230 H 0.34515 0.01153 0.15549 0.0
H1231 H 0.32856 0.00861 0.16754 0.0
C1232 C 0.35021 0.05246 0.12643 0.0
C1233 C 0.33013 0.04231 0.12555 0.0
C1234 C 0.35927 0.05395 0.13769 0.0
C1235 C 0.34848 0.04542 0.14836 0.0
C1236 C 0.32843 0.03478 0.14742 0.0
H1237 H 0.3714 0.06712 0.22583 0.0
H1238 H 0.35732 0.0555 0.20546 0.0
C1239 C 0.31934 0.03308 0.1361 0.0
C1240 C 0.35815 0.04938 0.16057 0.0
H1241 H 0.36201 0.02844 0.18701 0.0
C1242 C 0.37 0.06858 0.16407 0.0
C1243 C 0.35552 0.03469 0.16886 0.0
C1244 C 0.34384 0.01381 0.16546 0.0
C1245 C 0.37888 0.07348 0.17566 0.0
C1246 C 0.37592 0.05882 0.18401 0.0
C1247 C 0.36425 0.03962 0.18055 0.0
C1248 C 0.38424 0.06343 0.19657 0.0
C1249 C 0.391 0.09433 0.17907 0.0
C1250 C 0.40399 0.07123 0.19837 0.0
C1251 C 0.4121 0.07781 0.21003 0.0
C1252 C 0.40059 0.07682 0.22005 0.0
C1253 C 0.38069 0.06817 0.2183 0.0
C1254 C 0.37259 0.06147 0.20668 0.0
H1255 H 0.38989 0.10391 0.17218 0.0
H1256 H 0.38666 0.09706 0.18822 0.0
H1257 H 0.40621 0.09809 0.17973 0.0
H1258 H 0.41319 0.07281 0.19066 0.0
H1259 H 0.42747 0.08441 0.21105 0.0
H1260 H 0.33359 0.00316 0.89403 0.0
H1261 H 0.34652 1.00073 0.87419 0.0
H1262 H 0.32268 0.0323 0.85692 0.0
H1263 H 0.3102 0.03529 0.87683 0.0
H1264 H 0.32573 0.98217 0.85478 0.0
H1265 H 0.37452 0.05735 0.84109 0.0
H1266 H 0.3654 0.05077 0.85658 0.0
H1267 H 0.35096 0.05289 0.84472 0.0
C1268 C 0.33144 0.00995 0.88606 0.0
C1269 C 0.32087 0.01943 0.88701 0.0
C1270 C 0.33884 0.00853 0.87471 0.0
C1271 C 0.33577 0.01648 0.86404 0.0
C1272 C 0.32568 0.02645 0.86504 0.0
H1273 H 0.33713 0.9962 0.78638 0.0
H1274 H 0.33487 0.00762 0.80685 0.0
C1275 C 0.31845 0.02806 0.87643 0.0
C1276 C 0.34142 0.01264 0.85178 0.0
H1277 H 0.36519 0.03376 0.8251 0.0
C1278 C 0.33459 0.9935 0.84837 0.0
C1279 C 0.35291 0.02739 0.84336 0.0
C1280 C 0.36153 0.04825 0.84666 0.0
C1281 C 0.33849 0.98867 0.83674 0.0
C1282 C 0.34965 0.00337 0.82826 0.0
C1283 C 0.35667 0.02253 0.83164 0.0
C1284 C 0.3533 0.99886 0.81565 0.0
C1285 C 0.33017 0.96783 0.83342 0.0
C1286 C 0.36491 0.9907 0.81376 0.0
C1287 C 0.36632 0.98423 0.80204 0.0
C1288 C 0.35603 0.98571 0.79204 0.0
C1289 C 0.34518 0.99477 0.79388 0.0
C1290 C 0.34389 1.00134 0.80557 0.0
H1291 H 0.31938 0.9582 0.84025 0.0
H1292 H 0.32335 0.96488 0.82418 0.0
H1293 H 0.34183 0.96433 0.83306 0.0
H1294 H 0.37238 0.98879 0.82143 0.0
H1295 H 0.37479 0.97732 0.80094 0.0
H1296 H 0.07265 0.3701 0.78546 0.0
H1297 H 0.06021 0.35478 0.80534 0.0
H1298 H 0.0682 0.40795 0.82001 0.0
H1299 H 0.08059 0.42345 0.80005 0.0
H1300 H 0.08281 0.36738 0.82658 0.0
H1301 H 0.01472 0.36778 0.83307 0.0
H1302 H 0.0257 0.37051 0.81813 0.0
H1303 H 0.03494 0.39032 0.82866 0.0
C1304 C 0.07142 0.37848 0.79282 0.0
C1305 C 0.07772 0.39804 0.79118 0.0
C1306 C 0.06429 0.36968 0.80418 0.0
C1307 C 0.06317 0.38018 0.81413 0.0
C1308 C 0.06863 0.3995 0.81239 0.0
H1309 H 0.06849 0.35877 0.89136 0.0
H1310 H 0.07085 0.37307 0.87114 0.0
C1311 C 0.0758 0.40835 0.80099 0.0
C1312 C 0.0584 0.37145 0.82659 0.0
H1313 H 0.0268 0.35917 0.85049 0.0
C1314 C 0.07051 0.3655 0.83177 0.0
C1315 C 0.04231 0.36898 0.83332 0.0
C1316 C 0.02854 0.37457 0.82801 0.0
C1317 C 0.06714 0.35741 0.84357 0.0
C1318 C 0.05131 0.3553 0.85041 0.0
C1319 C 0.03898 0.36094 0.84521 0.0
C1320 C 0.04774 0.34741 0.86306 0.0
C1321 C 0.08054 0.35114 0.84867 0.0
C1322 C 0.03354 0.3284 0.86528 0.0
C1323 C 0.03215 0.3201 0.87686 0.0
C1324 C 0.04496 0.33075 0.88636 0.0
C1325 C 0.05845 0.35012 0.88425 0.0
C1326 C 0.05983 0.35835 0.8727 0.0
H1327 H 0.09022 0.3509 0.84149 0.0
H1328 H 0.08945 0.36121 0.85605 0.0
H1329 H 0.07231 0.33666 0.85282 0.0
H1330 H 0.02411 0.31973 0.85792 0.0
H1331 H 0.02161 0.30516 0.87818 0.0
H1332 H 0.69152 0.72432 0.78377 0.0
H1333 H 0.70718 0.72651 0.80344 0.0
H1334 H 0.65204 0.69466 0.821 0.0
H1335 H 0.63627 0.69187 0.80122 0.0
H1336 H 0.70522 0.74495 0.82288 0.0
H1337 H 0.67921 0.66984 0.83656 0.0
H1338 H 0.67633 0.67635 0.82113 0.0
H1339 H 0.65999 0.67421 0.83314 0.0
C1340 C 0.68271 0.71741 0.79176 0.0
C1341 C 0.66264 0.70793 0.79094 0.0
C1342 C 0.6917 0.71869 0.80301 0.0
C1343 C 0.68084 0.71061 0.81372 0.0
C1344 C 0.66077 0.7006 0.81284 0.0
H1345 H 0.70366 0.73285 0.89101 0.0
H1346 H 0.68964 0.72092 0.87067 0.0
C1347 C 0.65175 0.6991 0.80153 0.0
C1348 C 0.69052 0.71448 0.82592 0.0
H1349 H 0.69355 0.69349 0.85256 0.0
C1350 C 0.70286 0.73365 0.82928 0.0
C1351 C 0.68741 0.69977 0.83432 0.0
C1352 C 0.67516 0.67889 0.83106 0.0
C1353 C 0.71175 0.73852 0.84086 0.0
C1354 C 0.70831 0.72385 0.84934 0.0
C1355 C 0.69616 0.70468 0.846 0.0
C1356 C 0.71655 0.72846 0.86191 0.0
C1357 C 0.72434 0.75937 0.84414 0.0
C1358 C 0.73626 0.73611 0.86378 0.0
C1359 C 0.74434 0.74288 0.87541 0.0
C1360 C 0.73283 0.74222 0.88534 0.0
C1361 C 0.71294 0.73365 0.88355 0.0
C1362 C 0.70488 0.72677 0.87195 0.0
H1363 H 0.72346 0.76901 0.83719 0.0
H1364 H 0.72028 0.76242 0.85328 0.0
H1365 H 0.73944 0.76273 0.84472 0.0
H1366 H 0.74548 0.73746 0.85612 0.0
H1367 H 0.75969 0.7494 0.87648 0.0
H1368 H 0.02275 0.75212 0.87654 0.0
H1369 H 0.02486 0.73971 0.85632 0.0
H1370 H 0.06227 0.72121 0.87155 0.0
H1371 H 0.0604 0.73369 0.89173 0.0
H1372 H 0.063 0.75428 0.84478 0.0
H1373 H 0.02245 0.67509 0.84963 0.0
H1374 H 0.01788 0.69072 0.85921 0.0
H1375 H 0.03852 0.68837 0.862 0.0
C1376 C 0.03106 0.74501 0.87565 0.0
C1377 C 0.04146 0.74394 0.88573 0.0
C1378 C 0.03227 0.73796 0.8641 0.0
C1379 C 0.0436 0.72942 0.86248 0.0
C1380 C 0.05324 0.72751 0.87265 0.0
H1381 H 0.08861 0.69442 0.80184 0.0
H1382 H 0.07633 0.69806 0.8217 0.0
C1383 C 0.05221 0.73473 0.88416 0.0
C1384 C 0.04723 0.72461 0.84996 0.0
H1385 H 0.04153 0.68764 0.83167 0.0
C1386 C 0.05813 0.7397 0.84183 0.0
C1387 C 0.04112 0.70561 0.84627 0.0
C1388 C 0.02923 0.68894 0.85467 0.0
C1389 C 0.06351 0.73639 0.83021 0.0
C1390 C 0.05726 0.71734 0.82641 0.0
C1391 C 0.0462 0.7022 0.83453 0.0
C1392 C 0.06262 0.71304 0.8142 0.0
C1393 C 0.07654 0.75343 0.82234 0.0
C1394 C 0.05832 0.71952 0.80331 0.0
C1395 C 0.06554 0.7177 0.792 0.0
C1396 C 0.07684 0.70896 0.79131 0.0
C1397 C 0.07996 0.70123 0.80208 0.0
C1398 C 0.07297 0.70332 0.81344 0.0
H1399 H 0.0843 0.76671 0.82792 0.0
H1400 H 0.08724 0.75105 0.81742 0.0
H1401 H 0.06785 0.75581 0.81539 0.0
H1402 H 0.04988 0.72654 0.80361 0.0
H1403 H 0.06269 0.7236 0.78384 0.0
H1404 H 0.33548 0.37252 0.78575 0.0
H1405 H 0.33332 0.35819 0.80598 0.0
H1406 H 0.37188 0.41392 0.82103 0.0
H1407 H 0.37425 0.42844 0.80078 0.0
H1408 H 0.36518 0.36267 0.82419 0.0
H1409 H 0.3177 0.39032 0.83972 0.0
H1410 H 0.32123 0.38737 0.82362 0.0
H1411 H 0.33979 0.40677 0.8322 0.0
C1412 C 0.34378 0.38172 0.7933 0.0
C1413 C 0.35494 0.40165 0.79167 0.0
C1414 C 0.34256 0.37349 0.80484 0.0
C1415 C 0.35233 0.38502 0.81498 0.0
C1416 C 0.36419 0.4048 0.81329 0.0
H1417 H 0.33114 0.35843 0.89294 0.0
H1418 H 0.34436 0.37458 0.87336 0.0
C1419 C 0.36555 0.41306 0.80172 0.0
C1420 C 0.34873 0.37654 0.82748 0.0
H1421 H 0.32395 0.37221 0.85387 0.0
C1422 C 0.35628 0.36481 0.83075 0.0
C1423 C 0.33711 0.37938 0.83596 0.0
C1424 C 0.32834 0.39154 0.83276 0.0
C1425 C 0.35256 0.3559 0.84236 0.0
C1426 C 0.34055 0.3584 0.85077 0.0
C1427 C 0.3332 0.37031 0.84748 0.0
C1428 C 0.33489 0.34851 0.86291 0.0
C1429 C 0.36177 0.34415 0.84556 0.0
C1430 C 0.32546 0.32843 0.86367 0.0
C1431 C 0.31811 0.31915 0.87492 0.0
C1432 C 0.3197 0.32975 0.88559 0.0
C1433 C 0.32964 0.34984 0.88489 0.0
C1434 C 0.33719 0.3591 0.87369 0.0
H1435 H 0.37502 0.34871 0.84011 0.0
H1436 H 0.36539 0.34528 0.85551 0.0
H1437 H 0.35168 0.32891 0.84336 0.0
H1438 H 0.32304 0.31988 0.85546 0.0
H1439 H 0.31035 0.30365 0.87513 0.0
H1440 H 0.76277 0.03919 0.87637 0.0
H1441 H 0.74845 0.03712 0.85608 0.0
H1442 H 0.6922 0.00178 0.87143 0.0
H1443 H 0.70634 0.00363 0.89168 0.0
H1444 H 0.72385 0.9992 0.84472 0.0
H1445 H 0.68766 0.04216 0.84917 0.0
H1446 H 0.70753 0.04604 0.85885 0.0
H1447 H 0.68414 0.02598 0.86161 0.0
C1448 C 0.74733 0.03134 0.87549 0.0
C1449 C 0.73569 0.02153 0.88563 0.0
C1450 C 0.73919 0.03014 0.86389 0.0
C1451 C 0.71927 0.01942 0.86229 0.0
C1452 C 0.70758 0.01035 0.87251 0.0
H1453 H 0.63906 0.97591 0.80164 0.0
H1454 H 0.65515 0.98799 0.82149 0.0
C1455 C 0.7157 0.01136 0.88406 0.0
C1456 C 0.71083 0.01586 0.84976 0.0
H1457 H 0.68041 0.02266 0.83134 0.0
C1458 C 0.71452 0.0045 0.84171 0.0
C1459 C 0.69844 0.02255 0.84599 0.0
C1460 C 0.69424 0.03498 0.85429 0.0
C1461 C 0.70579 0.99921 0.83009 0.0
C1462 C 0.69349 0.00603 0.82621 0.0
C1463 C 0.68991 0.01754 0.83426 0.0
C1464 C 0.6838 1.00078 0.814 0.0
C1465 C 0.70923 0.98571 0.8223 0.0
C1466 C 0.69451 0.00464 0.80312 0.0
C1467 C 0.68536 0.99754 0.79181 0.0
C1468 C 0.66529 0.9868 0.79112 0.0
C1469 C 0.65454 0.98413 0.80188 0.0
C1470 C 0.66373 0.99101 0.81324 0.0
H1471 H 0.71436 0.97766 0.82794 0.0
H1472 H 0.69601 0.97525 0.8174 0.0
H1473 H 0.7204 0.99406 0.81534 0.0
H1474 H 0.71 0.01265 0.80341 0.0
H1475 H 0.69405 1.00004 0.78366 0.0
H1476 H 0.75457 0.02524 0.13464 0.0
H1477 H 0.74195 0.02849 0.15443 0.0
H1478 H 0.71978 0.06136 0.13688 0.0
H1479 H 0.73291 0.05871 0.11719 0.0
H1480 H 0.74038 0.07953 0.15631 0.0
H1481 H 0.6901 0.00474 0.17005 0.0
H1482 H 0.71349 0.00858 0.16662 0.0
H1483 H 0.6995 0.01107 0.15461 0.0
C1484 C 0.74665 0.0328 0.13495 0.0
C1485 C 0.74479 0.04176 0.12435 0.0
C1486 C 0.73933 0.03457 0.14628 0.0
C1487 C 0.72969 0.045 0.14716 0.0
C1488 C 0.72712 0.05322 0.13645 0.0
H1489 H 0.69031 0.08466 0.20978 0.0
H1490 H 0.69257 0.07259 0.18947 0.0
C1491 C 0.73463 0.05167 0.12518 0.0
C1492 C 0.72408 0.04908 0.15937 0.0
H1493 H 0.69986 0.02847 0.18602 0.0
C1494 C 0.73129 0.06832 0.16271 0.0
C1495 C 0.71228 0.03449 0.16778 0.0
C1496 C 0.70324 0.01357 0.16454 0.0
C1497 C 0.72743 0.07336 0.17429 0.0
C1498 C 0.71601 0.05881 0.18277 0.0
C1499 C 0.70861 0.03958 0.17946 0.0
C1500 C 0.71247 0.06359 0.19532 0.0
C1501 C 0.73604 0.09426 0.17754 0.0
C1502 C 0.72248 0.06199 0.20538 0.0
C1503 C 0.72132 0.06895 0.21696 0.0
C1504 C 0.70999 0.07752 0.21871 0.0
C1505 C 0.69914 0.07813 0.20875 0.0
C1506 C 0.70043 0.07129 0.19714 0.0
H1507 H 0.74654 0.10378 0.17055 0.0
H1508 H 0.72448 0.09787 0.17822 0.0
H1509 H 0.74328 0.09723 0.18664 0.0
H1510 H 0.73185 0.05611 0.20414 0.0
H1511 H 0.72981 0.0682 0.22443 0.0
H1512 H 0.04 0.75633 0.13293 0.0
H1513 H 0.03674 0.7412 0.15305 0.0
H1514 H 0.99196 0.68766 0.13853 0.0
H1515 H 0.99501 0.70261 0.11847 0.0
H1516 H 0.98169 0.7003 0.15969 0.0
H1517 H 0.05054 0.70148 0.16639 0.0
H1518 H 0.0526 0.72387 0.16186 0.0
H1519 H 0.0422 0.70394 0.15142 0.0
C1520 C 0.02974 0.74123 0.13395 0.0
C1521 C 0.01771 0.7307 0.1241 0.0
C1522 C 0.02795 0.73259 0.14545 0.0
C1523 C 0.01418 0.71326 0.14727 0.0
C1524 C 0.00271 0.70257 0.13732 0.0
H1525 H 0.98237 0.63866 0.2115 0.0
H1526 H 0.99399 0.65332 0.19119 0.0
C1527 C 0.00449 0.71116 0.12585 0.0
C1528 C 0.01028 0.70465 0.15977 0.0
H1529 H 0.02977 0.69268 0.18375 0.0
C1530 C 0.99219 0.69857 0.16492 0.0
C1531 C 0.02397 0.70235 0.16655 0.0
C1532 C 0.04339 0.70809 0.16127 0.0
C1533 C 0.98749 0.69049 0.17673 0.0
C1534 C 1.00128 0.68853 0.18362 0.0
C1535 C 0.01929 0.69432 0.17844 0.0
C1536 C 0.99699 0.6806 0.19627 0.0
C1537 C 0.96776 0.68403 0.18179 0.0
C1538 C 0.99539 0.6913 0.2059 0.0
C1539 C 0.98881 0.68302 0.21747 0.0
C1540 C 0.98365 0.66384 0.21963 0.0
C1541 C 0.98621 0.65345 0.21013 0.0
C1542 C 0.99286 0.66179 0.19854 0.0
H1543 H 0.95777 0.68354 0.17456 0.0
H1544 H 0.96168 0.66963 0.18603 0.0
H1545 H 0.96875 0.69414 0.18908 0.0
H1546 H 0.99859 0.70586 0.20432 0.0
H1547 H 0.98709 0.69147 0.22457 0.0
H1548 H 0.35158 0.3086 0.12238 0.0
H1549 H 0.36547 0.32046 0.14261 0.0
H1550 H 0.32626 0.34145 0.14841 0.0
H1551 H 0.31137 0.32832 0.12836 0.0
H1552 H 0.38364 0.35281 0.15319 0.0
H1553 H 0.31543 0.31088 0.1787 0.0
H1554 H 0.31728 0.30785 0.16242 0.0
H1555 H 0.31509 0.32768 0.16806 0.0
C1556 C 0.34594 0.31582 0.12792 0.0
C1557 C 0.33026 0.31738 0.12382 0.0
C1558 C 0.35393 0.32264 0.13952 0.0
C1559 C 0.34669 0.33151 0.14725 0.0
C1560 C 0.3317 0.33407 0.14286 0.0
H1561 H 0.41448 0.37819 0.21579 0.0
H1562 H 0.3996 0.37728 0.19589 0.0
C1563 C 0.32332 0.32676 0.13134 0.0
C1564 C 0.35469 0.33742 0.15992 0.0
H1565 H 0.34275 0.33067 0.19045 0.0
C1566 C 0.37468 0.34799 0.16134 0.0
C1567 C 0.34304 0.33108 0.17061 0.0
C1568 C 0.32155 0.3186 0.16991 0.0
C1569 C 0.38336 0.35157 0.17301 0.0
C1570 C 0.37171 0.34528 0.1837 0.0
C1571 C 0.35171 0.33555 0.18229 0.0
C1572 C 0.37976 0.34672 0.19629 0.0
C1573 C 0.40489 0.36098 0.17365 0.0
C1574 C 0.37286 0.33015 0.20354 0.0
C1575 C 0.38084 0.3308 0.21507 0.0
C1576 C 0.39618 0.34797 0.21955 0.0
C1577 C 0.4028 0.36471 0.2125 0.0
C1578 C 0.39443 0.36415 0.20106 0.0
H1579 H 0.41112 0.36014 0.1647 0.0
H1580 H 0.41102 0.37634 0.17596 0.0
H1581 H 0.40939 0.35422 0.18082 0.0
H1582 H 0.36157 0.3165 0.20015 0.0
H1583 H 0.37545 0.31763 0.22025 0.0
H1584 H 0.66223 0.71519 0.5488 0.0
H1585 H 0.67561 0.71356 0.52882 0.0
H1586 H 0.65448 0.6533 0.53444 0.0
H1587 H 0.64235 0.65518 0.5546 0.0
H1588 H 0.68713 0.66767 0.52419 0.0
H1589 H 0.64555 0.69401 0.49826 0.0
H1590 H 0.66213 0.71106 0.50906 0.0
H1591 H 0.64222 0.68899 0.51452 0.0
C1592 C 0.66068 0.70168 0.54579 0.0
C1593 C 0.65119 0.68531 0.55324 0.0
C1594 C 0.66814 0.7007 0.53431 0.0
C1595 C 0.66564 0.68318 0.52991 0.0
C1596 C 0.65663 0.667 0.53755 0.0
H1597 H 0.65298 0.64071 0.45697 0.0
H1598 H 0.65154 0.65347 0.477 0.0
C1599 C 0.64965 0.66809 0.54911 0.0
C1600 C 0.6718 0.68121 0.51729 0.0
H1601 H 0.66552 0.68652 0.4867 0.0
C1602 C 0.68244 0.67185 0.51599 0.0
C1603 C 0.66562 0.68656 0.50655 0.0
C1604 C 0.65311 0.69554 0.50712 0.0
C1605 C 0.68623 0.66682 0.50436 0.0
C1606 C 0.68008 0.6722 0.49361 0.0
C1607 C 0.6703 0.68243 0.49491 0.0
C1608 C 0.68172 0.66563 0.48105 0.0
C1609 C 0.6957 0.65475 0.50382 0.0
C1610 C 0.69924 0.66848 0.47642 0.0
C1611 C 0.69999 0.66067 0.46502 0.0
C1612 C 0.68334 0.65047 0.45787 0.0
C1613 C 0.66608 0.64856 0.46222 0.0
C1614 C 0.66525 0.65589 0.47371 0.0
H1615 H 0.69478 0.64768 0.51278 0.0
H1616 H 0.68906 0.6435 0.49664 0.0
H1617 H 0.71108 0.66402 0.5016 0.0
H1618 H 0.7123 0.67649 0.48166 0.0
H1619 H 0.71353 0.66253 0.46183 0.0
H1620 H 0.42212 0.04304 0.4572 0.0
H1621 H 0.40875 0.02802 0.47691 0.0
H1622 H 0.3871 0.06671 0.48254 0.0
H1623 H 0.40155 0.08262 0.46297 0.0
H1624 H 0.40241 0.06484 0.50248 0.0
H1625 H 0.35705 0.99019 0.48774 0.0
H1626 H 0.38088 0.9984 0.48241 0.0
H1627 H 0.36772 0.00953 0.47677 0.0
C1628 C 0.41425 0.04819 0.46252 0.0
C1629 C 0.4128 0.06396 0.45848 0.0
C1630 C 0.40642 0.03943 0.47379 0.0
C1631 C 0.3964 0.04581 0.48116 0.0
C1632 C 0.39461 0.06138 0.47702 0.0
H1633 H 0.34949 0.97653 0.54842 0.0
H1634 H 0.35065 0.99205 0.52874 0.0
C1635 C 0.40283 0.07044 0.46582 0.0
C1636 C 0.38938 0.03725 0.49358 0.0
H1637 H 0.36846 0.99464 0.50896 0.0
C1638 C 0.39464 0.04947 0.50385 0.0
C1639 C 0.37873 0.0172 0.49551 0.0
C1640 C 0.37059 0.00314 0.48498 0.0
C1641 C 0.39066 0.04224 0.51593 0.0
C1642 C 0.38195 0.02224 0.51786 0.0
C1643 C 0.37555 0.00999 0.50759 0.0
C1644 C 0.38055 0.01381 0.53032 0.0
C1645 C 0.39591 0.05624 0.52645 0.0
C1646 C 0.39688 0.02078 0.53783 0.0
C1647 C 0.3961 0.01223 0.54916 0.0
C1648 C 0.37912 0.99609 0.55312 0.0
C1649 C 0.36276 0.989 0.54563 0.0
C1650 C 0.36344 0.99784 0.53437 0.0
H1651 H 0.39478 0.06887 0.52362 0.0
H1652 H 0.3866 0.04958 0.5346 0.0
H1653 H 0.41101 0.06153 0.52914 0.0
H1654 H 0.41047 0.03252 0.53478 0.0
H1655 H 0.40907 0.01786 0.5546 0.0
H1656 H 0.97209 0.35992 0.46831 0.0
H1657 H 0.98794 0.36343 0.48819 0.0
H1658 H 0.04299 0.39333 0.47034 0.0
H1659 H 0.02729 0.39051 0.45056 0.0
H1660 H 0.01289 0.35362 0.49807 0.0
H1661 H 0.04738 0.43265 0.49493 0.0
H1662 H 0.02907 0.41688 0.48431 0.0
H1663 H 0.05342 0.42228 0.48233 0.0
C1664 C 0.98756 0.367 0.4686 0.0
C1665 C 0.99846 0.37518 0.45791 0.0
C1666 C 0.99661 0.36902 0.47997 0.0
C1667 C 0.01667 0.37911 0.48081 0.0
C1668 C 0.02751 0.38601 0.46998 0.0
H1669 H 0.09465 0.41874 0.54367 0.0
H1670 H 0.08063 0.40644 0.52332 0.0
C1671 C 0.01851 0.38427 0.45867 0.0
C1672 C 0.02622 0.38339 0.49305 0.0
H1673 H 0.05646 0.42036 0.51175 0.0
C1674 C 0.02243 0.36821 0.50106 0.0
C1675 C 0.03856 0.40246 0.497 0.0
C1676 C 0.04222 0.41951 0.48926 0.0
C1677 C 0.03078 0.3716 0.51285 0.0
C1678 C 0.04319 0.39063 0.51669 0.0
C1679 C 0.04712 0.40577 0.50868 0.0
C1680 C 0.05139 0.39539 0.52927 0.0
C1681 C 0.02633 0.35489 0.52113 0.0
C1682 C 0.03955 0.39301 0.53936 0.0
C1683 C 0.04751 0.40018 0.55095 0.0
C1684 C 0.06746 0.40979 0.55266 0.0
C1685 C 0.07923 0.41133 0.54266 0.0
C1686 C 0.07126 0.40433 0.53103 0.0
H1687 H 0.01964 0.34114 0.51598 0.0
H1688 H 0.03954 0.35696 0.52571 0.0
H1689 H 0.01625 0.3539 0.52843 0.0
H1690 H 0.02421 0.38639 0.53815 0.0
H1691 H 0.03805 0.39876 0.55846 0.0
H1692 H 0.39529 0.40163 0.55818 0.0
H1693 H 0.39749 0.38993 0.53778 0.0
H1694 H 0.35883 0.40728 0.52319 0.0
H1695 H 0.35642 0.41897 0.5436 0.0
H1696 H 0.3653 0.36291 0.51927 0.0
H1697 H 0.41349 0.43844 0.50475 0.0
H1698 H 0.40995 0.43141 0.52077 0.0
H1699 H 0.39147 0.43272 0.51241 0.0
C1700 C 0.38696 0.40266 0.55069 0.0
C1701 C 0.37577 0.41136 0.5525 0.0
C1702 C 0.38821 0.39591 0.53906 0.0
C1703 C 0.37842 0.39786 0.529 0.0
C1704 C 0.36652 0.40569 0.53086 0.0
H1705 H 0.40015 0.39478 0.45089 0.0
H1706 H 0.38691 0.39727 0.47058 0.0
C1707 C 0.36513 0.41232 0.54253 0.0
C1708 C 0.38208 0.39331 0.51642 0.0
H1709 H 0.40723 0.41447 0.49027 0.0
C1710 C 0.37436 0.37413 0.51286 0.0
C1711 C 0.3939 0.40801 0.50813 0.0
C1712 C 0.40283 0.42884 0.51164 0.0
C1713 C 0.3781 0.36925 0.50115 0.0
C1714 C 0.3903 0.38398 0.49293 0.0
C1715 C 0.39784 0.40316 0.49651 0.0
C1716 C 0.39598 0.38007 0.48069 0.0
C1717 C 0.3687 0.34839 0.49764 0.0
C1718 C 0.4052 0.36924 0.47971 0.0
C1719 C 0.41256 0.36757 0.46838 0.0
C1720 C 0.4112 0.37702 0.45788 0.0
C1721 C 0.40148 0.38736 0.45881 0.0
C1722 C 0.39391 0.38882 0.47007 0.0
H1723 H 0.35538 0.33963 0.503 0.0
H1724 H 0.36517 0.34627 0.48767 0.0
H1725 H 0.37864 0.343 0.49971 0.0
H1726 H 0.40744 0.36276 0.4878 0.0
H1727 H 0.42015 0.35967 0.468 0.0
H1728 H 0.66364 0.98271 0.54883 0.0
H1729 H 0.67802 0.99826 0.52917 0.0
H1730 H 0.65457 0.03564 0.53373 0.0
H1731 H 0.64132 0.02105 0.55356 0.0
H1732 H 0.66289 0.99901 0.509 0.0
H1733 H 0.70584 0.07435 0.52293 0.0
H1734 H 0.6955 0.05533 0.53412 0.0
H1735 H 0.68178 0.06556 0.52799 0.0
C1736 C 0.66194 0.99453 0.54573 0.0
C1737 C 0.65154 1.00079 0.5528 0.0
C1738 C 0.67012 0.00339 0.53448 0.0
C1739 C 0.66782 0.0185 0.53001 0.0
C1740 C 0.65731 0.02462 0.53711 0.0
H1741 H 0.65543 0.04297 0.45562 0.0
H1742 H 0.65409 0.02921 0.47577 0.0
C1743 C 0.64956 0.0161 0.54844 0.0
C1744 C 0.67485 0.0268 0.51753 0.0
H1745 H 0.69472 0.06891 0.50161 0.0
C1746 C 0.67021 0.01433 0.50744 0.0
C1747 C 0.68493 0.04681 0.51536 0.0
C1748 C 0.69248 0.06122 0.52572 0.0
C1749 C 0.67423 0.02121 0.49529 0.0
C1750 C 0.68231 0.04108 0.49307 0.0
C1751 C 0.68811 0.05363 0.50319 0.0
C1752 C 0.68368 0.04902 0.48046 0.0
C1753 C 0.66974 0.00699 0.485 0.0
C1754 C 0.70054 0.06529 0.47643 0.0
C1755 C 0.70114 0.07363 0.46498 0.0
C1756 C 0.68496 0.06568 0.45727 0.0
C1757 C 0.66825 0.04924 0.46123 0.0
C1758 C 0.66753 0.04122 0.47275 0.0
H1759 H 0.67141 0.9948 0.48814 0.0
H1760 H 0.65461 1.00104 0.48212 0.0
H1761 H 0.67914 0.01366 0.47689 0.0
H1762 H 0.71318 0.07172 0.48221 0.0
H1763 H 0.71419 0.08634 0.46219 0.0
H1764 H 0.02524 0.65587 0.45277 0.0
H1765 H 0.03939 0.66708 0.47313 0.0
H1766 H 0.98564 0.6589 0.4867 0.0
H1767 H 0.97121 0.64756 0.46629 0.0
H1768 H 0.02423 0.69569 0.49456 0.0
H1769 H 0.0186 0.6248 0.50214 0.0
H1770 H 0.0288 0.63662 0.48776 0.0
H1771 H 0.00406 0.62831 0.49096 0.0
C1772 C 0.01646 0.65675 0.46 0.0
C1773 C 0.99703 0.65065 0.45792 0.0
C1774 C 0.0246 0.66317 0.47163 0.0
C1775 C 0.01351 0.66368 0.4814 0.0
C1776 C 0.99441 0.65862 0.47924 0.0
H1777 H 0.036 0.65987 0.55894 0.0
H1778 H 0.02088 0.657 0.53897 0.0
C1779 C 0.9862 0.65213 0.46758 0.0
C1780 C 0.02142 0.66774 0.49407 0.0
H1781 H 0.03447 0.64829 0.51741 0.0
C1782 C 0.02645 0.68536 0.4996 0.0
C1783 C 0.02413 0.65414 0.50061 0.0
C1784 C 0.01853 0.63482 0.49515 0.0
C1785 C 0.03444 0.68983 0.51152 0.0
C1786 C 0.03749 0.67634 0.51796 0.0
C1787 C 0.03217 0.65863 0.51245 0.0
C1788 C 0.0461 0.68007 0.53045 0.0
C1789 C 0.03936 0.70881 0.51719 0.0
C1790 C 0.06526 0.69424 0.53237 0.0
C1791 C 0.07402 0.69591 0.54382 0.0
C1792 C 0.06376 0.68338 0.55352 0.0
C1793 C 0.04435 0.66974 0.55168 0.0
C1794 C 0.03566 0.66807 0.54026 0.0
H1795 H 0.03236 0.71573 0.51225 0.0
H1796 H 0.03503 0.70701 0.52703 0.0
H1797 H 0.05507 0.71854 0.51676 0.0
H1798 H 0.07368 0.70345 0.52487 0.0
H1799 H 0.089 0.7065 0.54492 0.0
H1800 H 0.00937 0.30574 0.05765 0.0
H1801 H 0.00952 0.30954 0.03524 0.0
H1802 H 0.05905 0.30265 0.03245 0.0
H1803 H 0.05855 0.29812 0.05474 0.0
H1804 H 0.03426 0.33283 0.01748 0.0
H1805 H 0.0205 0.25879 0.01169 0.0
H1806 H 0.01949 0.26835 0.0265 0.0
H1807 H 0.04217 0.27367 0.02002 0.0
C1808 C 0.02047 0.30533 0.05228 0.0
C1809 C 0.03376 0.30131 0.05792 0.0
C1810 C 0.02053 0.30749 0.03947 0.0
C1811 C 0.03397 0.30584 0.03214 0.0
C1812 C 0.04819 0.30339 0.03789 0.0
H1813 H 0.05649 0.32766 0.95372 0.0
H1814 H 0.05547 0.33136 0.97604 0.0
C1815 C 0.04795 0.30091 0.05063 0.0
C1816 C 0.03235 0.30527 0.01849 0.0
H1817 H 0.02796 0.27757 0.99358 0.0
C1818 C 0.03279 0.32073 0.01223 0.0
C1819 C 0.02995 0.28927 0.01166 0.0
C1820 C 0.02779 0.2715 0.01781 0.0
C1821 C 0.03136 0.32078 0.9993 0.0
C1822 C 0.02993 0.30517 0.99245 0.0
C1823 C 0.02916 0.28962 0.99877 0.0
C1824 C 0.02926 0.30439 0.97875 0.0
C1825 C 0.03104 0.33739 0.99317 0.0
C1826 C 0.01492 0.28802 0.97277 0.0
C1827 C 0.01576 0.28568 0.96008 0.0
C1828 C 0.03081 0.29977 0.95305 0.0
C1829 C 0.0446 0.31665 0.95889 0.0
C1830 C 0.04396 0.31883 0.97166 0.0
H1831 H 0.02593 0.34461 0.99959 0.0
H1832 H 0.04578 0.34809 0.99029 0.0
H1833 H 0.02172 0.3327 0.98488 0.0
H1834 H 0.00341 0.27669 0.97801 0.0
H1835 H 0.00488 0.27256 0.95583 0.0
H1836 H 0.7331 0.75498 0.95264 0.0
H1837 H 0.72905 0.75142 0.97505 0.0
H1838 H 0.78538 0.75826 0.9785 0.0
H1839 H 0.7898 0.76255 0.95622 0.0
H1840 H 0.73023 0.72837 0.99316 0.0
H1841 H 0.79041 0.8025 0.99874 0.0
H1842 H 0.78002 0.7927 0.98393 0.0
H1843 H 0.79733 0.78752 0.99066 0.0
C1844 C 0.74449 0.7554 0.95816 0.0
C1845 C 0.76189 0.75935 0.9527 0.0
C1846 C 0.74216 0.75338 0.97097 0.0
C1847 C 0.75713 0.75512 0.97848 0.0
C1848 C 0.77387 0.75746 0.97292 0.0
H1849 H 0.75734 0.73405 0.05696 0.0
H1850 H 0.75256 0.7302 0.03465 0.0
C1851 C 0.77633 0.75979 0.96018 0.0
C1852 C 0.75589 0.75591 0.99211 0.0
H1853 H 0.77901 0.78394 0.01695 0.0
C1854 C 0.74081 0.74055 0.99839 0.0
C1855 C 0.76943 0.77201 0.9989 0.0
C1856 C 0.78508 0.7897 0.99271 0.0
C1857 C 0.73924 0.74066 0.01131 0.0
C1858 C 0.75338 0.75635 0.01813 0.0
C1859 C 0.7682 0.77183 0.01178 0.0
C1860 C 0.75348 0.75723 0.03184 0.0
C1861 C 0.72226 0.72413 0.01745 0.0
C1862 C 0.75562 0.77368 0.03776 0.0
C1863 C 0.75884 0.77611 0.05045 0.0
C1864 C 0.75973 0.76202 0.05754 0.0
C1865 C 0.75652 0.74506 0.05175 0.0
C1866 C 0.75367 0.7428 0.03899 0.0
H1867 H 0.70994 0.71694 0.01102 0.0
H1868 H 0.72622 0.71339 0.02037 0.0
H1869 H 0.71764 0.7289 0.02571 0.0
H1870 H 0.75551 0.78501 0.03247 0.0
H1871 H 0.76119 0.78929 0.05465 0.0
H1872 H 0.31992 0.0211 0.95284 0.0
H1873 H 0.32554 0.02202 0.97509 0.0
H1874 H 0.28916 0.04625 0.98094 0.0
H1875 H 0.28368 0.04567 0.95881 0.0
H1876 H 0.3224 0.06339 0.99533 0.0
H1877 H 0.28439 0.98395 0.99879 0.0
H1878 H 0.30416 0.99462 0.98822 0.0
H1879 H 0.28308 0.99615 0.98521 0.0
C1880 C 0.31328 0.02683 0.95884 0.0
C1881 C 0.3012 0.03315 0.95402 0.0
C1882 C 0.31643 0.02723 0.97157 0.0
C1883 C 0.3075 0.0339 0.97969 0.0
C1884 C 0.29613 0.04097 0.97485 0.0
H1885 H 0.26875 0.01348 0.05327 0.0
H1886 H 0.27473 0.01383 0.03124 0.0
C1887 C 0.29298 0.04059 0.96217 0.0
C1888 C 0.30919 0.03287 0.99326 0.0
H1889 H 0.29545 1.00131 0.01724 0.0
C1890 C 0.31676 0.04985 1.00014 0.0
C1891 C 0.30165 0.01514 0.99949 0.0
C1892 C 0.29272 0.99638 0.9926 0.0
C1893 C 0.31646 0.04958 0.01308 0.0
C1894 C 0.30861 0.03183 0.01932 0.0
C1895 C 0.3016 0.01489 0.01244 0.0
C1896 C 0.30555 0.03037 0.03286 0.0
C1897 C 0.32361 0.06818 0.01997 0.0
C1898 C 0.32094 0.03911 0.04115 0.0
C1899 C 0.31757 0.03897 0.05384 0.0
C1900 C 0.29874 0.03005 0.05842 0.0
C1901 C 0.28344 0.02059 0.05009 0.0
C1902 C 0.28682 0.02074 0.03747 0.0
H1903 H 0.326 0.08012 0.01376 0.0
H1904 H 0.31328 0.06672 0.02724 0.0
H1905 H 0.3374 0.07205 0.02451 0.0
H1906 H 0.33553 0.04634 0.0378 0.0
H1907 H 0.32969 0.04632 0.05999 0.0
H1908 H 0.01466 0.77416 0.95906 0.0
H1909 H 0.01477 0.76707 0.98082 0.0
H1910 H 0.04774 0.73963 0.97297 0.0
H1911 H 0.04808 0.74709 0.95101 0.0
H1912 H 1.00222 0.73376 0.99391 0.0
H1913 H 0.08119 0.78061 0.99802 0.0
H1914 H 0.06817 0.78069 0.98453 0.0
H1915 H 0.07286 0.76141 0.98703 0.0
C1916 C 0.02185 0.76649 0.96188 0.0
C1917 C 0.03157 0.76141 0.95326 0.0
C1918 C 0.02184 0.76238 0.97436 0.0
C1919 C 0.03152 0.7531 0.97857 0.0
C1920 C 0.04049 0.74715 0.96996 0.0
H1921 H 0.01948 0.73108 0.05905 0.0
H1922 H 0.02077 0.72477 0.03705 0.0
C1923 C 0.04055 0.75131 0.9574 0.0
C1924 C 0.0328 0.7507 0.99205 0.0
H1925 H 0.06402 0.76772 0.01626 0.0
C1926 C 0.01574 0.7409 0.99881 0.0
C1927 C 0.05047 0.76016 0.99841 0.0
C1928 C 0.06925 0.77144 0.99169 0.0
C1929 C 0.01578 0.74111 0.01176 0.0
C1930 C 0.03342 0.75107 0.01813 0.0
C1931 C 0.05054 0.76003 0.01136 0.0
C1932 C 0.03429 0.75453 0.03163 0.0
C1933 C 0.99686 0.73173 0.01847 0.0
C1934 C 0.04221 0.77337 0.03595 0.0
C1935 C 0.04169 0.77703 0.04847 0.0
C1936 C 0.0332 0.76191 0.057 0.0
C1937 C 0.026 0.74305 0.05273 0.0
C1938 C 0.02661 0.7394 0.04015 0.0
H1939 H 0.98461 0.72776 0.01214 0.0
H1940 H 0.99471 0.71848 0.02302 0.0
H1941 H 0.9967 0.74138 0.02571 0.0
H1942 H 0.04826 0.78528 0.02956 0.0
H1943 H 0.04748 0.79174 0.05139 0.0
H1944 H 0.26891 0.28608 0.05102 0.0
H1945 H 0.27549 0.29224 0.02909 0.0
H1946 H 0.33612 0.32231 0.03646 0.0
H1947 H 0.32968 0.31587 0.05855 0.0
H1948 H 0.2951 0.32524 0.0153 0.0
H1949 H 0.3297 0.28052 0.01237 0.0
H1950 H 0.31646 0.2805 0.02576 0.0
H1951 H 0.34016 0.30016 0.02306 0.0
C1952 C 0.28368 0.29415 0.04804 0.0
C1953 C 0.29877 0.30029 0.05657 0.0
C1954 C 0.28741 0.2977 0.03547 0.0
C1955 C 0.30629 0.30744 0.03111 0.0
C1956 C 0.32144 0.31443 0.03961 0.0
H1957 H 0.31796 0.32882 0.95064 0.0
H1958 H 0.32442 0.33503 0.97275 0.0
C1959 C 0.31772 0.31084 0.05224 0.0
C1960 C 0.30974 0.30932 0.0176 0.0
H1961 H 0.32535 0.29284 0.99385 0.0
C1962 C 0.30197 0.31842 0.01059 0.0
C1963 C 0.31858 0.30025 0.0115 0.0
C1964 C 0.3266 0.28967 0.0185 0.0
C1965 C 0.30208 0.31803 0.99765 0.0
C1966 C 0.31052 0.30857 0.99154 0.0
C1967 C 0.31901 0.30017 0.99856 0.0
C1968 C 0.30859 0.30518 0.97803 0.0
C1969 C 0.29215 0.32675 0.99064 0.0
C1970 C 0.29828 0.28635 0.9736 0.0
C1971 C 0.29473 0.28275 0.96102 0.0
C1972 C 0.30142 0.29792 0.95253 0.0
C1973 C 0.3125 0.3168 0.95692 0.0
C1974 C 0.3161 0.32039 0.96956 0.0
H1975 H 0.28332 0.33029 0.99677 0.0
H1976 H 0.30304 0.34016 0.98615 0.0
H1977 H 0.28279 0.31686 0.98333 0.0
H1978 H 0.29241 0.27438 0.97995 0.0
H1979 H 0.28624 0.26803 0.958 0.0
H1980 H 0.79453 0.04725 0.95868 0.0
H1981 H 0.78827 0.04714 0.98063 0.0
H1982 H 0.72758 0.01795 0.97352 0.0
H1983 H 0.7337 0.01766 0.9514 0.0
H1984 H 0.76935 0.06147 0.99446 0.0
H1985 H 0.73327 0.98207 0.99765 0.0
H1986 H 0.74662 0.995 0.98421 0.0
H1987 H 0.72316 0.99156 0.98693 0.0
C1988 C 0.77982 0.04092 0.96172 0.0
C1989 C 0.76461 0.03227 0.95325 0.0
C1990 C 0.77628 0.04092 0.9743 0.0
C1991 C 0.75746 0.03226 0.97875 0.0
C1992 C 0.74221 0.02439 0.97031 0.0
H1993 H 0.74655 0.04303 0.05916 0.0
H1994 H 0.73999 0.04258 0.03705 0.0
C1995 C 0.74574 0.02435 0.95766 0.0
C1996 C 0.75415 0.03087 0.99226 0.0
H1997 H 0.73822 0.999 0.01613 0.0
C1998 C 0.76228 0.04782 0.99921 0.0
C1999 C 0.74506 0.01303 0.99843 0.0
C2000 C 0.73663 0.99434 0.99148 0.0
C2001 C 0.76227 0.04745 0.01216 0.0
C2002 C 0.75358 0.0296 0.01832 0.0
C2003 C 0.74476 0.01265 0.01137 0.0
C2004 C 0.75553 0.02823 0.03184 0.0
C2005 C 0.77255 0.06614 0.0191 0.0
C2006 C 0.76571 0.01959 0.0363 0.0
C2007 C 0.76933 0.01967 0.04888 0.0
C2008 C 0.76284 0.0284 0.05733 0.0
C2009 C 0.75186 0.03628 0.05291 0.0
C2010 C 0.7482 0.03615 0.04027 0.0
H2011 H 0.78147 0.0784 0.01293 0.0
H2012 H 0.76187 0.06894 0.02363 0.0
H2013 H 0.78188 0.06549 0.02637 0.0
H2014 H 0.77144 0.01332 0.02997 0.0
H2015 H 0.77773 0.01336 0.05192 0.0
H2016 H 0.72038 0.66112 0.28643 0.0
H2017 H 0.72047 0.66533 0.30881 0.0
H2018 H 0.67104 0.60894 0.31214 0.0
H2019 H 0.67125 0.60439 0.2899 0.0
H2020 H 0.6953 0.66389 0.32667 0.0
H2021 H 0.71049 0.6046 0.3328 0.0
H2022 H 0.71133 0.61498 0.31794 0.0
H2023 H 0.68876 0.59743 0.32444 0.0
C2024 C 0.70934 0.64975 0.29191 0.0
C2025 C 0.696 0.6323 0.28643 0.0
C2026 C 0.70942 0.65217 0.3047 0.0
C2027 C 0.69607 0.63725 0.31218 0.0
C2028 C 0.68181 0.62044 0.30659 0.0
H2029 H 0.67338 0.63646 0.39055 0.0
H2030 H 0.67432 0.64116 0.36822 0.0
C2031 C 0.68189 0.61789 0.29387 0.0
C2032 C 0.69784 0.63859 0.32581 0.0
H2033 H 0.70293 0.61598 0.35085 0.0
C2034 C 0.69707 0.65349 0.33199 0.0
C2035 C 0.7006 0.62528 0.33272 0.0
C2036 C 0.70305 0.6098 0.32664 0.0
C2037 C 0.69848 0.65513 0.34492 0.0
C2038 C 0.7003 0.64124 0.35184 0.0
C2039 C 0.70143 0.62659 0.3456 0.0
C2040 C 0.701 0.6413 0.36555 0.0
C2041 C 0.69834 0.67188 0.35098 0.0
C2042 C 0.71566 0.63986 0.37154 0.0
C2043 C 0.71489 0.63672 0.38423 0.0
C2044 C 0.69957 0.63521 0.39125 0.0
C2045 C 0.68546 0.63776 0.3854 0.0
C2046 C 0.68605 0.64056 0.37262 0.0
H2047 H 0.7031 0.68409 0.3445 0.0
H2048 H 0.68354 0.66749 0.35391 0.0
H2049 H 0.70774 0.67683 0.35923 0.0
H2050 H 0.72736 0.64042 0.36632 0.0
H2051 H 0.72603 0.63491 0.3885 0.0
H2052 H 0.41692 0.06345 0.39374 0.0
H2053 H 0.40972 0.05597 0.37178 0.0
H2054 H 0.43269 0.11592 0.36396 0.0
H2055 H 0.43943 0.12343 0.38571 0.0
H2056 H 0.40032 0.09356 0.35073 0.0
H2057 H 0.45141 0.06643 0.34682 0.0
H2058 H 0.43223 0.0543 0.35767 0.0
H2059 H 0.45025 0.07878 0.36035 0.0
C2060 C 0.42019 0.07499 0.38736 0.0
C2061 C 0.42895 0.09407 0.39151 0.0
C2062 C 0.4162 0.07071 0.37479 0.0
C2063 C 0.42101 0.08543 0.36618 0.0
C2064 C 0.42891 0.10432 0.3704 0.0
H2065 H 0.45981 0.10937 0.29337 0.0
H2066 H 0.45348 0.10219 0.3152 0.0
C2067 C 0.43281 0.10859 0.38289 0.0
C2068 C 0.41888 0.08173 0.35268 0.0
H2069 H 0.43764 0.06932 0.32854 0.0
C2070 C 0.40823 0.08797 0.34586 0.0
C2071 C 0.42932 0.07455 0.34636 0.0
C2072 C 0.44158 0.06824 0.35312 0.0
C2073 C 0.40851 0.08817 0.33291 0.0
C2074 C 0.4194 0.08151 0.32659 0.0
C2075 C 0.42924 0.07434 0.3334 0.0
C2076 C 0.42284 0.08421 0.31308 0.0
C2077 C 0.39814 0.09667 0.32616 0.0
C2078 C 0.40776 0.07612 0.30451 0.0
C2079 C 0.41133 0.08036 0.29192 0.0
C2080 C 0.43007 0.09262 0.28768 0.0
C2081 C 0.44518 0.09995 0.29626 0.0
C2082 C 0.44159 0.09581 0.30878 0.0
H2083 H 0.39355 0.10447 0.33246 0.0
H2084 H 0.40738 0.10671 0.31888 0.0
H2085 H 0.38518 0.08503 0.32167 0.0
H2086 H 0.39321 0.06679 0.30758 0.0
H2087 H 0.39937 0.07436 0.28557 0.0
H2088 H 0.93974 0.33538 0.38846 0.0
H2089 H 0.94363 0.33377 0.36626 0.0
H2090 H 0.99889 0.38516 0.36819 0.0
H2091 H 0.99542 0.38625 0.39052 0.0
H2092 H 0.94485 0.35841 0.35077 0.0
H2093 H 0.01121 0.35528 0.34443 0.0
H2094 H 0.99953 0.35128 0.35919 0.0
H2095 H 0.01519 0.37527 0.35377 0.0
C2096 C 0.95293 0.34605 0.38419 0.0
C2097 C 0.96727 0.36094 0.39122 0.0
C2098 C 0.95514 0.34515 0.37149 0.0
C2099 C 0.97161 0.35927 0.36549 0.0
C2100 C 0.98627 0.37379 0.37258 0.0
H2101 H 0.96567 0.39012 0.28991 0.0
H2102 H 0.97006 0.39 0.31218 0.0
C2103 C 0.98422 0.37448 0.38536 0.0
C2104 C 0.97228 0.35998 0.35178 0.0
H2105 H 0.99973 0.3643 0.32666 0.0
C2106 C 0.9568 0.35951 0.34553 0.0
C2107 C 0.98777 0.36127 0.34487 0.0
C2108 C 0.00426 0.3606 0.35091 0.0
C2109 C 0.95643 0.36048 0.33266 0.0
C2110 C 0.97235 0.36279 0.32577 0.0
C2111 C 0.9877 0.3629 0.33196 0.0
C2112 C 0.97295 0.36473 0.31214 0.0
C2113 C 0.93874 0.35863 0.32657 0.0
C2114 C 0.97449 0.35139 0.30462 0.0
C2115 C 0.97242 0.3517 0.29182 0.0
C2116 C 0.9686 0.36526 0.28637 0.0
C2117 C 0.96831 0.37933 0.29386 0.0
C2118 C 0.97071 0.3792 0.3066 0.0
H2119 H 0.92602 0.3513 0.33267 0.0
H2120 H 0.94105 0.37312 0.32454 0.0
H2121 H 0.93553 0.35052 0.31779 0.0
H2122 H 0.97638 0.34019 0.30869 0.0
H2123 H 0.97272 0.34068 0.28629 0.0
H2124 H 0.68621 0.0663 0.39166 0.0
H2125 H 0.68759 0.06066 0.36958 0.0
H2126 H 0.71687 0.1215 0.36303 0.0
H2127 H 0.71583 0.12729 0.38497 0.0
H2128 H 0.67101 0.07034 0.35115 0.0
H2129 H 0.7489 0.10549 0.34301 0.0
H2130 H 0.73865 0.09943 0.35826 0.0
H2131 H 0.74257 0.12109 0.35088 0.0
C2132 C 0.69325 0.0785 0.38555 0.0
C2133 C 0.70092 0.09726 0.39011 0.0
C2134 C 0.69399 0.07524 0.37293 0.0
C2135 C 0.70257 0.09066 0.36466 0.0
C2136 C 0.71058 0.10938 0.36924 0.0
H2137 H 0.68085 0.10769 0.29127 0.0
H2138 H 0.68054 0.10135 0.31322 0.0
C2139 C 0.70984 0.11266 0.38181 0.0
C2140 C 0.70178 0.08736 0.35115 0.0
H2141 H 0.72934 0.10184 0.32519 0.0
C2142 C 0.68379 0.07693 0.34549 0.0
C2143 C 0.71845 0.09564 0.34375 0.0
C2144 C 0.73823 0.10586 0.34931 0.0
C2145 C 0.68196 0.07564 0.3326 0.0
C2146 C 0.69854 0.08529 0.32519 0.0
C2147 C 0.7166 0.09464 0.33086 0.0
C2148 C 0.6974 0.08738 0.31166 0.0
C2149 C 0.66224 0.06423 0.32705 0.0
C2150 C 0.70714 0.0818 0.30343 0.0
C2151 C 0.70744 0.08551 0.29079 0.0
C2152 C 0.69819 0.09509 0.28619 0.0
C2153 C 0.6881 0.10025 0.29446 0.0
C2154 C 0.68778 0.0965 0.30704 0.0
H2155 H 0.65231 0.05276 0.33341 0.0
H2156 H 0.65638 0.07387 0.32535 0.0
H2157 H 0.66263 0.05762 0.31816 0.0
H2158 H 0.71479 0.07487 0.30682 0.0
H2159 H 0.71542 0.08142 0.2847 0.0
H2160 H 0.99745 0.6503 0.39237 0.0
H2161 H 0.00361 0.65792 0.37038 0.0
H2162 H 0.94289 0.62736 0.36329 0.0
H2163 H 0.93661 0.62 0.3851 0.0
H2164 H 0.99413 0.63234 0.35168 0.0
H2165 H 0.95964 0.67566 0.34365 0.0
H2166 H 0.96527 0.67103 0.35892 0.0
H2167 H 0.94363 0.65368 0.35129 0.0
C2168 C 0.98541 0.64552 0.38616 0.0
C2169 C 0.96653 0.63453 0.39053 0.0
C2170 C 0.98896 0.64986 0.37359 0.0
C2171 C 0.97371 0.64346 0.3652 0.0
C2172 C 0.95489 0.63287 0.3696 0.0
H2173 H 0.95581 0.60392 0.29225 0.0
H2174 H 0.96285 0.61051 0.31408 0.0
C2175 C 0.95133 0.62854 0.38211 0.0
C2176 C 0.97722 0.64622 0.35171 0.0
H2177 H 0.96262 0.65926 0.32578 0.0
C2178 C 0.98757 0.63859 0.34603 0.0
C2179 C 0.969 0.65469 0.34432 0.0
C2180 C 0.95895 0.66442 0.34988 0.0
C2181 C 0.98874 0.63796 0.33314 0.0
C2182 C 0.97901 0.64484 0.32575 0.0
C2183 C 0.96985 0.65373 0.33143 0.0
C2184 C 0.97655 0.64129 0.31225 0.0
C2185 C 1.00005 0.62957 0.32758 0.0
C2186 C 0.98172 0.65639 0.3039 0.0
C2187 C 0.97757 0.65264 0.29132 0.0
C2188 C 0.96798 0.6337 0.2869 0.0
C2189 C 0.96324 0.61868 0.29528 0.0
C2190 C 0.96741 0.62244 0.3078 0.0
H2191 H 0.01173 0.63136 0.33385 0.0
H2192 H 0.99043 0.614 0.32609 0.0
H2193 H 0.00638 0.63631 0.31858 0.0
H2194 H 0.98864 0.67104 0.30715 0.0
H2195 H 0.98134 0.66454 0.28513 0.0
H2196 H 0.431 0.33733 0.38805 0.0
H2197 H 0.42601 0.33648 0.36581 0.0
H2198 H 0.41918 0.38606 0.36851 0.0
H2199 H 0.42352 0.38661 0.3909 0.0
H2200 H 0.39525 0.36047 0.35093 0.0
H2201 H 0.46953 0.37512 0.3447 0.0
H2202 H 0.45499 0.35364 0.35327 0.0
H2203 H 0.46021 0.37643 0.35953 0.0
C2204 C 0.42813 0.34788 0.38395 0.0
C2205 C 0.42792 0.3622 0.39121 0.0
C2206 C 0.42537 0.34743 0.37122 0.0
C2207 C 0.42278 0.36154 0.36545 0.0
C2208 C 0.42132 0.37512 0.37276 0.0
H2209 H 0.45439 0.38996 0.28896 0.0
H2210 H 0.45043 0.39153 0.31114 0.0
C2211 C 0.42379 0.37541 0.38555 0.0
C2212 C 0.42304 0.3629 0.35179 0.0
H2213 H 0.4504 0.36723 0.32671 0.0
C2214 C 0.40733 0.36204 0.34561 0.0
C2215 C 0.43899 0.36538 0.34487 0.0
C2216 C 0.45696 0.36791 0.35093 0.0
C2217 C 0.40697 0.36315 0.33267 0.0
C2218 C 0.42257 0.36474 0.32574 0.0
C2219 C 0.43837 0.36591 0.33198 0.0
C2220 C 0.42313 0.36525 0.31202 0.0
C2221 C 0.39006 0.36297 0.3266 0.0
C2222 C 0.40883 0.35026 0.305 0.0
C2223 C 0.41091 0.34955 0.29222 0.0
C2224 C 0.42754 0.36356 0.2863 0.0
C2225 C 0.44146 0.3789 0.29327 0.0
C2226 C 0.43921 0.3798 0.30596 0.0
H2227 H 0.38267 0.36785 0.33304 0.0
H2228 H 0.39448 0.37224 0.31829 0.0
H2229 H 0.37961 0.34813 0.32375 0.0
H2230 H 0.3965 0.33862 0.30945 0.0
H2231 H 0.40004 0.33745 0.28711 0.0
H2232 H 0.3551 0.98601 0.72598 0.0
H2233 H 0.35606 0.99263 0.70385 0.0
H2234 H 0.38238 0.95834 0.69702 0.0
H2235 H 0.38188 0.95201 0.71898 0.0
H2236 H 0.39844 0.99128 0.68315 0.0
H2237 H 0.31899 0.95248 0.6796 0.0
H2238 H 0.32944 0.9722 0.69022 0.0
H2239 H 0.33124 0.95125 0.69317 0.0
C2240 C 0.36131 0.98008 0.71978 0.0
C2241 C 0.36824 0.96831 0.72427 0.0
C2242 C 0.36172 0.98377 0.70712 0.0
C2243 C 0.36897 0.97568 0.69875 0.0
C2244 C 0.37665 0.96468 0.70329 0.0
H2245 H 0.34782 0.93561 0.62584 0.0
H2246 H 0.34834 0.94256 0.64771 0.0
C2247 C 0.3763 0.96103 0.71588 0.0
C2248 C 0.3679 0.97773 0.68521 0.0
H2249 H 0.3363 0.96353 0.66119 0.0
C2250 C 0.38489 0.98549 0.67833 0.0
C2251 C 0.35016 0.97002 0.67895 0.0
C2252 C 0.33137 0.96087 0.68581 0.0
C2253 C 0.3846 0.98501 0.66538 0.0
C2254 C 0.36684 0.97687 0.65913 0.0
C2255 C 0.3499 0.96987 0.666 0.0
C2256 C 0.36534 0.97329 0.64563 0.0
C2257 C 0.40324 0.99217 0.65854 0.0
C2258 C 0.3743 0.9883 0.63709 0.0
C2259 C 0.37412 0.98436 0.62449 0.0
C2260 C 0.36488 0.96533 0.62021 0.0
C2261 C 0.35518 0.95043 0.62877 0.0
C2262 C 0.35541 0.95438 0.64131 0.0
H2263 H 0.41519 0.9947 0.6648 0.0
H2264 H 0.40187 0.98178 0.65134 0.0
H2265 H 0.40706 0.0059 0.65394 0.0
H2266 H 0.38173 0.00303 0.64019 0.0
H2267 H 0.38164 0.99618 0.61815 0.0
H2268 H 0.09097 0.40095 0.72465 0.0
H2269 H 0.08701 0.39666 0.70227 0.0
H2270 H 0.09357 0.45288 0.69877 0.0
H2271 H 0.09824 0.45753 0.72102 0.0
H2272 H 0.06345 0.39758 0.68437 0.0
H2273 H 0.13743 0.45775 0.67818 0.0
H2274 H 0.12797 0.44752 0.69307 0.0
H2275 H 0.12259 0.4647 0.68638 0.0
C2276 C 0.09126 0.41227 0.71912 0.0
C2277 C 0.09523 0.4297 0.72456 0.0
C2278 C 0.08901 0.4098 0.70634 0.0
C2279 C 0.09053 0.42466 0.69882 0.0
C2280 C 0.09293 0.44145 0.70436 0.0
H2281 H 0.06813 0.42384 0.62042 0.0
H2282 H 0.06457 0.41936 0.64276 0.0
C2283 C 0.09549 0.44404 0.71708 0.0
C2284 C 0.09101 0.42325 0.68519 0.0
H2285 H 0.11852 0.44599 0.66012 0.0
C2286 C 0.07552 0.40808 0.67905 0.0
C2287 C 0.10697 0.4367 0.67827 0.0
C2288 C 0.12476 0.45246 0.68431 0.0
C2289 C 0.07536 0.4063 0.66613 0.0
C2290 C 0.09092 0.42033 0.65919 0.0
C2291 C 0.10652 0.43526 0.66539 0.0
C2292 C 0.09156 0.42017 0.64548 0.0
C2293 C 0.05871 0.38924 0.66013 0.0
C2294 C 0.10788 0.42211 0.6395 0.0
C2295 C 0.11015 0.42516 0.6268 0.0
C2296 C 0.09601 0.42605 0.61976 0.0
C2297 C 0.07917 0.42301 0.6256 0.0
C2298 C 0.07707 0.42033 0.63838 0.0
H2299 H 0.05157 0.37705 0.66664 0.0
H2300 H 0.04797 0.39321 0.6572 0.0
H2301 H 0.06332 0.38445 0.65188 0.0
H2302 H 0.11926 0.42201 0.64475 0.0
H2303 H 0.12324 0.42737 0.62255 0.0
H2304 H 0.60225 0.67984 0.71833 0.0
H2305 H 0.60887 0.67915 0.69652 0.0
H2306 H 0.66946 0.70878 0.70405 0.0
H2307 H 0.66297 0.70983 0.72602 0.0
H2308 H 0.6604 0.72559 0.68558 0.0
H2309 H 0.62581 0.64801 0.6765 0.0
H2310 H 0.60975 0.65386 0.68421 0.0
H2311 H 0.63122 0.6578 0.69191 0.0
C2312 C 0.617 0.68596 0.71543 0.0
C2313 C 0.63208 0.69492 0.72396 0.0
C2314 C 0.62076 0.68541 0.70292 0.0
C2315 C 0.63965 0.69365 0.69865 0.0
C2316 C 0.65476 0.7022 0.70716 0.0
H2317 H 0.64883 0.68263 0.61849 0.0
H2318 H 0.65584 0.68287 0.6405 0.0
C2319 C 0.65102 0.70275 0.71971 0.0
C2320 C 0.64342 0.69481 0.68519 0.0
H2321 H 0.62931 0.66799 0.65889 0.0
C2322 C 0.65393 0.71296 0.67976 0.0
C2323 C 0.63532 0.67836 0.67758 0.0
C2324 C 0.62508 0.65841 0.68287 0.0
C2325 C 0.65539 0.71516 0.6669 0.0
C2326 C 0.64578 0.6988 0.65928 0.0
C2327 C 0.63645 0.68057 0.66472 0.0
C2328 C 0.6436 0.70032 0.64581 0.0
C2329 C 0.66685 0.73503 0.66161 0.0
C2330 C 0.6345 0.71013 0.64147 0.0
C2331 C 0.6305 0.71003 0.62895 0.0
C2332 C 0.63536 0.69998 0.62046 0.0
C2333 C 0.64496 0.69058 0.62476 0.0
C2334 C 0.64894 0.69066 0.63734 0.0
H2335 H 0.67838 0.74471 0.66803 0.0
H2336 H 0.67338 0.73489 0.65263 0.0
H2337 H 0.65728 0.74105 0.66015 0.0
H2338 H 0.62983 0.71731 0.64784 0.0
H2339 H 0.62305 0.71739 0.62599 0.0
H2340 H 0.38228 0.46118 0.71873 0.0
H2341 H 0.38236 0.45472 0.69682 0.0
H2342 H 0.35343 0.3941 0.70413 0.0
H2343 H 0.35291 0.40041 0.7262 0.0
H2344 H 0.39693 0.43608 0.68317 0.0
H2345 H 0.31751 0.39892 0.67974 0.0
H2346 H 0.33025 0.41238 0.69321 0.0
H2347 H 0.32712 0.38902 0.69052 0.0
C2348 C 0.37604 0.44644 0.71574 0.0
C2349 C 0.36739 0.4313 0.72425 0.0
C2350 C 0.37614 0.44278 0.70318 0.0
C2351 C 0.36761 0.42392 0.6988 0.0
C2352 C 0.35976 0.40876 0.70729 0.0
H2353 H 0.37902 0.41269 0.61844 0.0
H2354 H 0.37871 0.40636 0.64057 0.0
C2355 C 0.35959 0.4124 0.71991 0.0
C2356 C 0.36633 0.42047 0.68529 0.0
H2357 H 0.33457 0.40375 0.66135 0.0
C2358 C 0.38331 0.42876 0.67838 0.0
C2359 C 0.34852 0.41104 0.67908 0.0
C2360 C 0.32977 0.40243 0.68596 0.0
C2361 C 0.38298 0.42859 0.66544 0.0
C2362 C 0.36516 0.41955 0.65922 0.0
C2363 C 0.3482 0.41056 0.66614 0.0
C2364 C 0.36378 0.42136 0.64569 0.0
C2365 C 0.40168 0.43906 0.65854 0.0
C2366 C 0.35477 0.43114 0.64117 0.0
C2367 C 0.35477 0.43463 0.62858 0.0
C2368 C 0.36378 0.42839 0.62017 0.0
C2369 C 0.37205 0.41779 0.62465 0.0
C2370 C 0.372 0.41427 0.63731 0.0
H2371 H 0.41386 0.4482 0.66472 0.0
H2372 H 0.40475 0.4285 0.65409 0.0
H2373 H 0.40086 0.44822 0.6512 0.0
H2374 H 0.34826 0.43668 0.64745 0.0
H2375 H 0.34815 0.44273 0.62549 0.0
H2376 H 0.60451 0.96454 0.72083 0.0
H2377 H 0.60876 0.96953 0.69859 0.0
H2378 H 0.66679 0.98091 0.70184 0.0
H2379 H 0.66284 0.97655 0.72422 0.0
H2380 H 0.66329 0.00349 0.68405 0.0
H2381 H 0.6078 0.92741 0.67779 0.0
H2382 H 0.59919 0.94074 0.68618 0.0
H2383 H 0.61781 0.93733 0.69266 0.0
C2384 C 0.61829 0.96841 0.71685 0.0
C2385 C 0.63326 0.96989 0.72427 0.0
C2386 C 0.62066 0.97117 0.70412 0.0
C2387 C 0.6379 0.97503 0.69851 0.0
C2388 C 0.6533 0.97777 0.70597 0.0
H2389 H 0.63813 0.94403 0.62218 0.0
H2390 H 0.64343 0.94845 0.64437 0.0
C2391 C 0.65103 0.97529 0.71876 0.0
C2392 C 0.6393 0.97479 0.68487 0.0
H2393 H 0.6181 0.94651 0.65977 0.0
C2394 C 0.65349 0.99102 0.67872 0.0
C2395 C 0.62679 0.95835 0.67793 0.0
C2396 C 0.61218 0.93991 0.68397 0.0
C2397 C 0.65519 0.9914 0.66579 0.0
C2398 C 0.64206 0.97525 0.65884 0.0
C2399 C 0.62812 0.95895 0.66505 0.0
C2400 C 0.64223 0.97465 0.64512 0.0
C2401 C 0.67121 0.00894 0.65977 0.0
C2402 C 0.64039 0.98822 0.63802 0.0
C2403 C 0.63772 0.98589 0.62524 0.0
C2404 C 0.63639 0.96972 0.61939 0.0
C2405 C 0.639 0.95659 0.62643 0.0
C2406 C 0.64201 0.9591 0.63913 0.0
H2407 H 0.68327 0.01705 0.66626 0.0
H2408 H 0.67673 0.00511 0.65152 0.0
H2409 H 0.66581 0.01855 0.65684 0.0
H2410 H 0.64003 1.00008 0.64241 0.0
H2411 H 0.63556 0.99614 0.62007 0.0
H2412 H 0.07811 0.71015 0.72599 0.0
H2413 H 0.07064 0.70868 0.70397 0.0
H2414 H 0.10195 0.67926 0.69698 0.0
H2415 H 0.10921 0.68038 0.71884 0.0
H2416 H 0.09657 0.7252 0.68539 0.0
H2417 H 0.05372 0.64736 0.67716 0.0
H2418 H 0.0581 0.65757 0.69244 0.0
H2419 H 0.07568 0.65353 0.68493 0.0
C2420 C 0.08309 0.70304 0.71979 0.0
C2421 C 0.09427 0.69538 0.7242 0.0
C2422 C 0.07884 0.70226 0.70721 0.0
C2423 C 0.0855 0.69362 0.69884 0.0
C2424 C 0.09625 0.68559 0.70328 0.0
H2425 H 0.12489 0.71548 0.62581 0.0
H2426 H 0.11844 0.71589 0.64768 0.0
C2427 C 0.10052 0.68638 0.7158 0.0
C2428 C 0.08282 0.69442 0.68535 0.0
H2429 H 0.06991 0.6669 0.65935 0.0
C2430 C 0.09039 0.71242 0.67971 0.0
C2431 C 0.07445 0.67777 0.67792 0.0
C2432 C 0.06484 0.65797 0.68345 0.0
C2433 C 0.09101 0.71427 0.66682 0.0
C2434 C 0.08419 0.69771 0.65939 0.0
C2435 C 0.0754 0.67963 0.66504 0.0
C2436 C 0.08765 0.69886 0.6459 0.0
C2437 C 0.09935 0.73399 0.6613 0.0
C2438 C 0.07249 0.68899 0.63756 0.0
C2439 C 0.07615 0.68863 0.62497 0.0
C2440 C 0.09506 0.69795 0.62052 0.0
C2441 C 0.11014 0.70818 0.62888 0.0
C2442 C 0.10648 0.70856 0.64141 0.0
H2443 H 0.09762 0.74387 0.66762 0.0
H2444 H 0.1149 0.73994 0.65975 0.0
H2445 H 0.09252 0.7336 0.65234 0.0
H2446 H 0.05786 0.68128 0.64084 0.0
H2447 H 0.0642 0.68055 0.6188 0.0
H2448 H 0.82432 0.10478 0.10077 0.0
H2449 H 0.85541 0.13405 0.10226 0.0
H2450 H 0.88378 0.10095 0.09934 0.0
H2451 H 0.85276 0.07157 0.09769 0.0
H2452 H 0.88571 0.1447 0.1193 0.0
H2453 H 0.90773 0.14043 0.0714 0.0
H2454 H 0.88334 0.12621 0.07664 0.0
H2455 H 0.90082 0.11958 0.08071 0.0
C2456 C 0.83715 0.10367 0.10048 0.0
C2457 C 0.83602 0.08581 0.09901 0.0
C2458 C 0.8549 0.12043 0.10135 0.0
C2459 C 0.87188 0.11968 0.10072 0.0
C2460 C 0.87084 0.10186 0.09961 0.0
H2461 H 0.99111 0.21142 0.09745 0.0
H2462 H 0.96199 0.18018 0.09923 0.0
C2463 C 0.85308 0.08508 0.09873 0.0
C2464 C 0.89063 0.13763 0.10105 0.0
H2465 H 0.93031 0.16571 0.08377 0.0
C2466 C 0.89549 0.1493 0.11155 0.0
C2467 C 0.90336 0.14354 0.09092 0.0
C2468 C 0.89856 0.13191 0.07923 0.0
C2469 C 0.9128 0.16675 0.11222 0.0
C2470 C 0.92538 0.17282 0.10201 0.0
C2471 C 0.92065 0.161 0.09159 0.0
C2472 C 0.94314 0.19175 0.10171 0.0
C2473 C 0.91753 0.17846 0.12387 0.0
C2474 C 0.94218 0.2086 0.10247 0.0
C2475 C 0.95876 0.22646 0.10147 0.0
C2476 C 0.97666 0.22784 0.09959 0.0
C2477 C 0.97759 0.2109 0.09893 0.0
C2478 C 0.96097 0.19303 0.09993 0.0
H2479 H 0.90944 0.16952 0.13189 0.0
H2480 H 0.93307 0.18558 0.12596 0.0
H2481 H 0.91358 0.18971 0.12268 0.0
H2482 H 0.92852 0.20794 0.10357 0.0
H2483 H 0.95748 0.23918 0.10197 0.0
H2484 H 0.95669 0.74892 0.10004 0.0
H2485 H 0.92772 0.7513 0.10145 0.0
H2486 H 0.96155 0.81265 0.09798 0.0
H2487 H 0.99064 0.81045 0.09643 0.0
H2488 H 0.91782 0.77181 0.11835 0.0
H2489 H 0.92171 0.79694 0.07016 0.0
H2490 H 0.93566 0.78651 0.07549 0.0
H2491 H 0.94276 0.81082 0.07934 0.0
C2492 C 0.95802 0.76295 0.09961 0.0
C2493 C 0.97601 0.77949 0.09803 0.0
C2494 C 0.94144 0.76427 0.10043 0.0
C2495 C 0.94248 0.78211 0.09963 0.0
C2496 C 0.96042 0.7987 0.09839 0.0
H2497 H 0.85111 0.81031 0.09591 0.0
H2498 H 0.88238 0.81244 0.09764 0.0
C2499 C 0.97703 0.79741 0.09757 0.0
C2500 C 0.92471 0.78324 0.09996 0.0
H2501 H 0.89665 0.79471 0.08251 0.0
C2502 C 0.9132 0.77686 0.11054 0.0
C2503 C 0.91877 0.78989 0.08975 0.0
C2504 C 0.93025 0.7963 0.07799 0.0
C2505 C 0.89586 0.77694 0.11119 0.0
C2506 C 0.88972 0.78322 0.10089 0.0
C2507 C 0.90141 0.78994 0.0904 0.0
C2508 C 0.87082 0.7821 0.10056 0.0
C2509 C 0.88433 0.77041 0.12292 0.0
C2510 C 0.85397 0.76433 0.10156 0.0
C2511 C 0.8361 0.76305 0.10059 0.0
C2512 C 0.83471 0.77952 0.09849 0.0
C2513 C 0.85164 0.79734 0.09756 0.0
C2514 C 0.86953 0.7986 0.09853 0.0
H2515 H 0.89339 0.77154 0.13095 0.0
H2516 H 0.87726 0.77893 0.12486 0.0
H2517 H 0.87305 0.75517 0.12195 0.0
H2518 H 0.85462 0.75136 0.10285 0.0
H2519 H 0.82339 0.74908 0.1013 0.0
H2520 H 0.31284 0.10485 0.10318 0.0
H2521 H 0.31109 0.13416 0.10435 0.0
H2522 H 0.24995 0.10146 0.09925 0.0
H2523 H 0.25148 0.07198 0.09822 0.0
H2524 H 0.29769 0.1479 0.0856 0.0
H2525 H 0.25563 0.13611 0.12848 0.0
H2526 H 0.26703 0.12236 0.12475 0.0
H2527 H 0.24492 0.117 0.11743 0.0
C2528 C 0.29897 0.10382 0.10246 0.0
C2529 C 0.2823 0.08603 0.10059 0.0
C2530 C 0.29801 0.1206 0.10313 0.0
C2531 C 0.28038 0.11997 0.10202 0.0
C2532 C 0.26366 0.10224 0.10037 0.0
H2533 H 0.25073 0.20976 0.09543 0.0
H2534 H 0.24977 0.17899 0.09695 0.0
C2535 C 0.26459 0.08541 0.09972 0.0
C2536 C 0.27976 0.13801 0.10171 0.0
H2537 H 0.2617 0.16305 0.11635 0.0
C2538 C 0.28989 0.15125 0.09236 0.0
C2539 C 0.26942 0.14225 0.11047 0.0
C2540 C 0.25875 0.12878 0.12092 0.0
C2541 C 0.28991 0.1686 0.09148 0.0
C2542 C 0.27981 0.17297 0.10033 0.0
C2543 C 0.26946 0.15965 0.10961 0.0
C2544 C 0.28016 0.19149 0.10017 0.0
C2545 C 0.30054 0.18199 0.08097 0.0
C2546 C 0.29747 0.20865 0.10179 0.0
C2547 C 0.2981 0.22621 0.10091 0.0
C2548 C 0.28136 0.22697 0.09846 0.0
C2549 C 0.26389 0.2097 0.09727 0.0
C2550 C 0.2633 0.19211 0.09815 0.0
H2551 H 0.30326 0.17449 0.07332 0.0
H2552 H 0.29242 0.18867 0.07728 0.0
H2553 H 0.31457 0.19357 0.08434 0.0
H2554 H 0.31058 0.20846 0.10359 0.0
H2555 H 0.31177 0.2392 0.10198 0.0
H2556 H 0.23777 0.95784 0.92439 0.0
H2557 H 0.20673 0.92874 0.92242 0.0
H2558 H 0.18935 0.9567 0.89568 0.0
H2559 H 0.21999 0.98635 0.89838 0.0
H2560 H 0.16138 0.93763 0.90954 0.0
H2561 H 0.18786 0.8888 0.89724 0.0
H2562 H 0.19776 0.89964 0.9118 0.0
H2563 H 0.20362 0.9143 0.89815 0.0
C2564 C 0.22736 0.9577 0.91802 0.0
C2565 C 0.23129 0.97426 0.91146 0.0
C2566 C 0.20966 0.94099 0.9168 0.0
C2567 C 0.19579 0.94022 0.9086 0.0
C2568 C 0.19979 0.95682 0.902 0.0
H2569 H 0.09665 0.82654 0.89557 0.0
H2570 H 0.12619 0.85719 0.89282 0.0
C2571 C 0.2173 0.97374 0.90352 0.0
C2572 C 0.17685 0.92242 0.90742 0.0
H2573 H 0.15571 0.87384 0.90529 0.0
C2574 C 0.16016 0.92371 0.90841 0.0
C2575 C 0.17506 0.9042 0.9056 0.0
C2576 C 0.19206 0.9017 0.90299 0.0
C2577 C 0.14189 0.90735 0.90809 0.0
C2578 C 0.14019 0.88901 0.90746 0.0
C2579 C 0.15685 0.88778 0.90602 0.0
C2580 C 0.12146 0.87092 0.90853 0.0
C2581 C 0.12469 0.91006 0.90821 0.0
C2582 C 0.10879 0.8683 0.91822 0.0
C2583 C 0.0916 0.85103 0.9195 0.0
C2584 C 0.0871 0.83574 0.91145 0.0
C2585 C 0.09982 0.83815 0.90189 0.0
C2586 C 0.11672 0.85565 0.90035 0.0
H2587 H 0.12809 0.92389 0.90388 0.0
H2588 H 0.11235 0.89836 0.90324 0.0
H2589 H 0.12046 0.91045 0.91788 0.0
H2590 H 0.11236 0.87943 0.92499 0.0
H2591 H 0.08215 0.84938 0.92708 0.0
H2592 H 0.23959 0.31163 0.90886 0.0
H2593 H 0.20829 0.30938 0.90752 0.0
H2594 H 0.18062 0.24796 0.9105 0.0
H2595 H 0.21185 0.25003 0.912 0.0
H2596 H 0.17769 0.28922 0.89063 0.0
H2597 H 0.15689 0.26335 0.93874 0.0
H2598 H 0.1812 0.2738 0.93329 0.0
H2599 H 0.1639 0.24957 0.92933 0.0
C2600 C 0.22687 0.29762 0.90918 0.0
C2601 C 0.22825 0.28102 0.91064 0.0
C2602 C 0.20899 0.29637 0.9084 0.0
C2603 C 0.19216 0.27854 0.9091 0.0
C2604 C 0.19345 0.26189 0.91017 0.0
H2605 H 0.07284 0.25094 0.91378 0.0
H2606 H 0.10182 0.2486 0.91167 0.0
C2607 C 0.21133 0.26311 0.91096 0.0
C2608 C 0.17329 0.27749 0.90894 0.0
H2609 H 0.13401 0.26591 0.92664 0.0
C2610 C 0.16809 0.28407 0.89848 0.0
C2611 C 0.16081 0.27072 0.91919 0.0
C2612 C 0.16597 0.26409 0.93083 0.0
C2613 C 0.15072 0.2841 0.898 0.0
C2614 C 0.13842 0.27771 0.90835 0.0
C2615 C 0.14345 0.27077 0.91871 0.0
C2616 C 0.12071 0.27895 0.90889 0.0
C2617 C 0.14564 0.29087 0.8864 0.0
C2618 C 0.12175 0.2968 0.90809 0.0
C2619 C 0.10526 0.29819 0.90928 0.0
C2620 C 0.08737 0.28177 0.9114 0.0
C2621 C 0.08636 0.26387 0.91212 0.0
C2622 C 0.1029 0.2625 0.91093 0.0
H2623 H 0.15344 0.2898 0.87828 0.0
H2624 H 0.13003 0.28247 0.88453 0.0
H2625 H 0.14971 0.30612 0.8875 0.0
H2626 H 0.1354 0.30973 0.9068 0.0
H2627 H 0.10661 0.31222 0.90873 0.0
H2628 H 0.80948 0.84996 0.91441 0.0
H2629 H 0.81078 0.88092 0.91333 0.0
H2630 H 0.74992 0.85212 0.90695 0.0
H2631 H 0.74839 0.82118 0.90813 0.0
H2632 H 0.79901 0.8975 0.89431 0.0
H2633 H 0.75782 0.88559 0.93757 0.0
H2634 H 0.76835 0.87125 0.93331 0.0
H2635 H 0.74626 0.8668 0.92638 0.0
C2636 C 0.79638 0.8502 0.91272 0.0
C2637 C 0.7788 0.83306 0.91147 0.0
C2638 C 0.79716 0.8679 0.91209 0.0
C2639 C 0.7804 0.86876 0.91027 0.0
C2640 C 0.76296 0.85174 0.9086 0.0
H2641 H 0.74941 0.95677 0.90872 0.0
H2642 H 0.75059 0.92717 0.90726 0.0
C2643 C 0.76215 0.83406 0.90923 0.0
C2644 C 0.78098 0.88741 0.91036 0.0
H2645 H 0.76373 0.9126 0.92564 0.0
C2646 C 0.7914 0.90089 0.90118 0.0
C2647 C 0.77107 0.89176 0.91937 0.0
C2648 C 0.76038 0.87818 0.92979 0.0
C2649 C 0.79172 0.91845 0.90058 0.0
C2650 C 0.7816 0.92268 0.90951 0.0
C2651 C 0.77138 0.90926 0.91876 0.0
C2652 C 0.7813 0.9409 0.90948 0.0
C2653 C 0.80247 0.9321 0.89022 0.0
C2654 C 0.7982 0.95846 0.91118 0.0
C2655 C 0.79759 0.97545 0.912 0.0
C2656 C 0.78004 0.97516 0.91123 0.0
C2657 C 0.76318 0.95755 0.90935 0.0
C2658 C 0.76381 0.94059 0.90852 0.0
H2659 H 0.80537 0.92484 0.88252 0.0
H2660 H 0.79435 0.93882 0.88659 0.0
H2661 H 0.81641 0.94365 0.89374 0.0
H2662 H 0.8118 0.95898 0.91219 0.0
H2663 H 0.81084 0.98874 0.91351 0.0
H2664 H 0.51857 0.40385 0.42966 0.0
H2665 H 0.55019 0.43249 0.43149 0.0
H2666 H 0.52374 0.46691 0.43724 0.0
H2667 H 0.49213 0.43844 0.43555 0.0
H2668 H 0.56493 0.46503 0.41652 0.0
H2669 H 0.56271 0.48384 0.46538 0.0
H2670 H 0.5463 0.46054 0.45909 0.0
H2671 H 0.54235 0.48034 0.45659 0.0
C2672 C 0.51946 0.41747 0.43145 0.0
C2673 C 0.50278 0.41882 0.43248 0.0
C2674 C 0.53754 0.43382 0.43248 0.0
C2675 C 0.5393 0.45177 0.43468 0.0
C2676 C 0.52271 0.45314 0.4358 0.0
H2677 H 0.62482 0.57012 0.43529 0.0
H2678 H 0.59629 0.53855 0.43672 0.0
C2679 C 0.50463 0.43684 0.43475 0.0
C2680 C 0.55842 0.46926 0.43509 0.0
H2681 H 0.58722 0.50809 0.45288 0.0
C2682 C 0.56995 0.47434 0.42451 0.0
C2683 C 0.56489 0.48135 0.44554 0.0
C2684 C 0.55351 0.47618 0.45734 0.0
C2685 C 0.58744 0.49162 0.42392 0.0
C2686 C 0.59368 0.50395 0.43427 0.0
C2687 C 0.58238 0.49862 0.44496 0.0
C2688 C 0.61133 0.52296 0.43394 0.0
C2689 C 0.59866 0.49692 0.41205 0.0
C2690 C 0.62935 0.52466 0.43213 0.0
C2691 C 0.64576 0.54275 0.43127 0.0
C2692 C 0.64444 0.55944 0.43226 0.0
C2693 C 0.6264 0.55761 0.43443 0.0
C2694 C 0.61004 0.53956 0.43527 0.0
H2695 H 0.58995 0.48792 0.4042 0.0
H2696 H 0.60407 0.51218 0.40973 0.0
H2697 H 0.61117 0.49483 0.41314 0.0
H2698 H 0.6307 0.51201 0.43131 0.0
H2699 H 0.65943 0.54363 0.42967 0.0
H2700 H 0.65711 0.13837 0.44373 0.0
H2701 H 0.62782 0.14002 0.44661 0.0
H2702 H 0.59784 0.09231 0.42171 0.0
H2703 H 0.62658 0.08979 0.41958 0.0
H2704 H 0.60737 0.14749 0.43274 0.0
H2705 H 0.56026 0.07351 0.44842 0.0
H2706 H 0.58569 0.08336 0.44676 0.0
H2707 H 0.56994 0.07304 0.43368 0.0
C2708 C 0.64415 0.12813 0.43901 0.0
C2709 C 0.64398 0.11378 0.43159 0.0
C2710 C 0.62744 0.12908 0.44063 0.0
C2711 C 0.61037 0.11594 0.43466 0.0
C2712 C 0.61049 0.10208 0.42687 0.0
H2713 H 0.51705 0.13506 0.41669 0.0
H2714 H 0.54772 0.13612 0.41857 0.0
C2715 C 0.62699 0.10076 0.42555 0.0
C2716 C 0.59263 0.1171 0.43615 0.0
H2717 H 0.54436 0.08958 0.44004 0.0
C2718 C 0.59363 0.13486 0.43454 0.0
C2719 C 0.57469 0.1008 0.43885 0.0
C2720 C 0.57264 0.08169 0.44217 0.0
C2721 C 0.57718 0.13662 0.43506 0.0
C2722 C 0.55903 0.11997 0.43657 0.0
C2723 C 0.55814 0.10236 0.43866 0.0
C2724 C 0.54073 0.12025 0.43573 0.0
C2725 C 0.57963 0.15639 0.43419 0.0
C2726 C 0.52613 0.11036 0.44445 0.0
C2727 C 0.50828 0.10903 0.44306 0.0
C2728 C 0.50484 0.118 0.43311 0.0
C2729 C 0.5195 0.1283 0.42457 0.0
C2730 C 0.53713 0.12907 0.42572 0.0
H2731 H 0.59372 0.16734 0.43795 0.0
H2732 H 0.57921 0.15996 0.42436 0.0
H2733 H 0.56823 0.15739 0.43927 0.0
H2734 H 0.52843 0.10338 0.45225 0.0
H2735 H 0.49716 0.10099 0.44976 0.0
H2736 H 0.92093 0.40571 0.42954 0.0
H2737 H 0.91964 0.43538 0.43047 0.0
H2738 H 0.98072 0.46767 0.43588 0.0
H2739 H 0.98224 0.43824 0.43486 0.0
H2740 H 0.93201 0.46423 0.44915 0.0
H2741 H 0.97172 0.49239 0.40529 0.0
H2742 H 0.9614 0.46764 0.4098 0.0
H2743 H 0.9837 0.48552 0.41637 0.0
C2744 C 0.93409 0.41911 0.43099 0.0
C2745 C 0.95171 0.41959 0.43201 0.0
C2746 C 0.93331 0.43604 0.43153 0.0
C2747 C 0.95013 0.45372 0.43303 0.0
C2748 C 0.96763 0.4542 0.43447 0.0
H2749 H 0.98125 0.57269 0.43409 0.0
H2750 H 0.97999 0.54188 0.43553 0.0
C2751 C 0.96844 0.43732 0.43393 0.0
C2752 C 0.94951 0.47176 0.43286 0.0
H2753 H 0.96622 0.51381 0.4172 0.0
C2754 C 0.93938 0.47506 0.44214 0.0
C2755 C 0.9591 0.48579 0.42367 0.0
C2756 C 0.96946 0.48265 0.41314 0.0
C2757 C 0.93905 0.4923 0.44267 0.0
C2758 C 0.94888 0.50642 0.43356 0.0
C2759 C 0.9588 0.503 0.42421 0.0
C2760 C 0.94924 0.52497 0.43355 0.0
C2761 C 0.92865 0.49547 0.45313 0.0
C2762 C 0.93234 0.52567 0.43198 0.0
C2763 C 0.93299 0.54329 0.43116 0.0
C2764 C 0.95059 0.56053 0.43181 0.0
C2765 C 0.96745 0.55973 0.43355 0.0
C2766 C 0.96677 0.54212 0.43437 0.0
H2767 H 0.92586 0.4854 0.46087 0.0
H2768 H 0.93696 0.51035 0.45666 0.0
H2769 H 0.91466 0.49315 0.44975 0.0
H2770 H 0.91869 0.5126 0.43109 0.0
H2771 H 0.91974 0.54338 0.42977 0.0
H2772 H 0.73935 0.18475 0.24595 0.0
H2773 H 0.76836 0.21603 0.24399 0.0
H2774 H 0.80205 0.18847 0.2398 0.0
H2775 H 0.77319 0.15717 0.24161 0.0
H2776 H 0.80015 0.23063 0.25948 0.0
H2777 H 0.82081 0.22677 0.21131 0.0
H2778 H 0.79719 0.21075 0.21729 0.0
H2779 H 0.81667 0.20659 0.22053 0.0
C2780 C 0.7529 0.18532 0.24447 0.0
C2781 C 0.75392 0.16842 0.24393 0.0
C2782 C 0.76945 0.20321 0.24336 0.0
C2783 C 0.78731 0.20456 0.24158 0.0
C2784 C 0.78836 0.18775 0.2409 0.0
H2785 H 0.90605 0.29036 0.24236 0.0
H2786 H 0.87468 0.26155 0.24072 0.0
C2787 C 0.77184 0.16986 0.24202 0.0
C2788 C 0.80501 0.22352 0.24123 0.0
H2789 H 0.84462 0.25158 0.22388 0.0
C2790 C 0.80978 0.23535 0.25165 0.0
C2791 C 0.81753 0.22958 0.23099 0.0
C2792 C 0.81274 0.21785 0.21935 0.0
C2793 C 0.8271 0.25277 0.25231 0.0
C2794 C 0.83981 0.25866 0.24217 0.0
C2795 C 0.83485 0.24701 0.23164 0.0
C2796 C 0.85872 0.27641 0.24256 0.0
C2797 C 0.83199 0.26436 0.26403 0.0
C2798 C 0.86016 0.29438 0.24388 0.0
C2799 C 0.8781 0.31093 0.24487 0.0
C2800 C 0.89494 0.30979 0.24446 0.0
C2801 C 0.89341 0.29179 0.24276 0.0
C2802 C 0.87548 0.27528 0.24179 0.0
H2803 H 0.82278 0.25584 0.27185 0.0
H2804 H 0.84718 0.26992 0.26661 0.0
H2805 H 0.82985 0.27678 0.26258 0.0
H2806 H 0.8474 0.29559 0.24426 0.0
H2807 H 0.87875 0.32456 0.24609 0.0
H2808 H 0.87701 0.58299 0.24802 0.0
H2809 H 0.8455 0.58021 0.24602 0.0
H2810 H 0.87233 0.6411 0.24021 0.0
H2811 H 0.90383 0.64403 0.24207 0.0
H2812 H 0.83088 0.5981 0.2609 0.0
H2813 H 0.83343 0.61935 0.21207 0.0
H2814 H 0.84975 0.61237 0.21838 0.0
H2815 H 0.85378 0.63614 0.2209 0.0
C2816 C 0.87623 0.59577 0.24618 0.0
C2817 C 0.89298 0.61374 0.24519 0.0
C2818 C 0.8582 0.59414 0.24505 0.0
C2819 C 0.85658 0.6104 0.24279 0.0
C2820 C 0.87325 0.62831 0.24169 0.0
H2821 H 0.77102 0.64341 0.24241 0.0
H2822 H 0.79968 0.64054 0.24095 0.0
C2823 C 0.89126 0.62997 0.24284 0.0
C2824 C 0.83752 0.60891 0.24236 0.0
H2825 H 0.80896 0.61924 0.22455 0.0
C2826 C 0.82594 0.60247 0.2529 0.0
C2827 C 0.83116 0.61464 0.23191 0.0
C2828 C 0.84259 0.62084 0.22013 0.0
C2829 C 0.80851 0.60236 0.25348 0.0
C2830 C 0.80237 0.60854 0.24313 0.0
C2831 C 0.81373 0.61454 0.23247 0.0
C2832 C 0.78469 0.60984 0.24343 0.0
C2833 C 0.7972 0.59638 0.26532 0.0
C2834 C 0.76669 0.59345 0.24507 0.0
C2835 C 0.75023 0.59502 0.24594 0.0
C2836 C 0.75149 0.61303 0.24513 0.0
C2837 C 0.76951 0.62933 0.24313 0.0
C2838 C 0.78592 0.62773 0.24227 0.0
H2839 H 0.80584 0.59602 0.27317 0.0
H2840 H 0.79184 0.60627 0.26765 0.0
H2841 H 0.78466 0.58182 0.26417 0.0
H2842 H 0.7654 0.57946 0.24577 0.0
H2843 H 0.73658 0.58216 0.24741 0.0
H2844 H 0.47809 0.32277 0.24776 0.0
H2845 H 0.48065 0.29386 0.246 0.0
H2846 H 0.41973 0.26004 0.24022 0.0
H2847 H 0.41703 0.28873 0.24177 0.0
H2848 H 0.46311 0.26188 0.26096 0.0
H2849 H 0.44048 0.24166 0.21248 0.0
H2850 H 0.44748 0.26512 0.21853 0.0
H2851 H 0.42378 0.24538 0.22127 0.0
C2852 C 0.46526 0.30921 0.24596 0.0
C2853 C 0.44735 0.3081 0.24489 0.0
C2854 C 0.46676 0.29271 0.24497 0.0
C2855 C 0.45043 0.27485 0.24279 0.0
C2856 C 0.43259 0.27373 0.24161 0.0
H2857 H 0.4168 0.15582 0.24428 0.0
H2858 H 0.41943 0.18726 0.24258 0.0
C2859 C 0.43107 0.29017 0.2426 0.0
C2860 C 0.45172 0.25715 0.24254 0.0
H2861 H 0.44026 0.2174 0.2253 0.0
C2862 C 0.45838 0.25227 0.2531 0.0
C2863 C 0.44549 0.24462 0.23228 0.0
C2864 C 0.43908 0.24953 0.22045 0.0
C2865 C 0.45826 0.23484 0.25389 0.0
C2866 C 0.45156 0.22211 0.24375 0.0
C2867 C 0.44531 0.22717 0.23307 0.0
C2868 C 0.45027 0.20314 0.24424 0.0
C2869 C 0.46459 0.22987 0.26572 0.0
C2870 C 0.46679 0.20167 0.2455 0.0
C2871 C 0.46535 0.18372 0.24649 0.0
C2872 C 0.44735 0.16689 0.24619 0.0
C2873 C 0.43088 0.16845 0.2446 0.0
C2874 C 0.43235 0.18641 0.24361 0.0
H2875 H 0.46542 0.23926 0.27347 0.0
H2876 H 0.45465 0.21475 0.26833 0.0
H2877 H 0.47902 0.23162 0.2644 0.0
H2878 H 0.48078 0.21442 0.2458 0.0
H2879 H 0.47834 0.18306 0.24763 0.0
H2880 H 0.32227 0.87834 0.76422 0.0
H2881 H 0.29211 0.84792 0.76532 0.0
H2882 H 0.26112 0.87837 0.76888 0.0
H2883 H 0.2911 0.90883 0.76766 0.0
H2884 H 0.26306 0.83289 0.78361 0.0
H2885 H 0.23615 0.84345 0.73889 0.0
H2886 H 0.26085 0.85771 0.74355 0.0
H2887 H 0.24311 0.86273 0.74966 0.0
C2888 C 0.30906 0.87859 0.76529 0.0
C2889 C 0.30911 0.89606 0.76574 0.0
C2890 C 0.29184 0.86119 0.76593 0.0
C2891 C 0.27438 0.86092 0.76697 0.0
C2892 C 0.27442 0.87828 0.76783 0.0
H2893 H 0.15495 0.77295 0.76722 0.0
H2894 H 0.18557 0.80272 0.76877 0.0
C2895 C 0.2916 0.89568 0.76719 0.0
C2896 C 0.25608 0.84249 0.76693 0.0
H2897 H 0.21437 0.81694 0.75091 0.0
C2898 C 0.25242 0.82934 0.77645 0.0
C2899 C 0.24228 0.83791 0.75754 0.0
C2900 C 0.2458 0.85109 0.74676 0.0
C2901 C 0.23509 0.81186 0.77699 0.0
C2902 C 0.22125 0.80737 0.76765 0.0
C2903 C 0.22497 0.82049 0.7581 0.0
C2904 C 0.20277 0.78911 0.76752 0.0
C2905 C 0.23157 0.79856 0.78768 0.0
C2906 C 0.2023 0.77156 0.7663 0.0
C2907 C 0.18481 0.75447 0.76541 0.0
C2908 C 0.16745 0.75464 0.76565 0.0
C2909 C 0.16801 0.77226 0.76702 0.0
C2910 C 0.1855 0.78931 0.7679 0.0
H2911 H 0.24132 0.80607 0.79553 0.0
H2912 H 0.21655 0.792 0.79094 0.0
H2913 H 0.23411 0.78687 0.78466 0.0
H2914 H 0.21547 0.77111 0.76575 0.0
H2915 H 0.18491 0.74119 0.76432 0.0
H2916 H 0.32494 0.47896 0.76382 0.0
H2917 H 0.2958 0.481 0.76573 0.0
H2918 H 0.26254 0.41981 0.77037 0.0
H2919 H 0.29154 0.4176 0.76859 0.0
H2920 H 0.26372 0.46317 0.75037 0.0
H2921 H 0.2441 0.43989 0.79884 0.0
H2922 H 0.26766 0.44757 0.79273 0.0
H2923 H 0.24829 0.42379 0.78971 0.0
C2924 C 0.31146 0.46594 0.76538 0.0
C2925 C 0.3106 0.44811 0.76607 0.0
C2926 C 0.29483 0.46715 0.76646 0.0
C2927 C 0.27706 0.4506 0.76836 0.0
C2928 C 0.27616 0.43281 0.76916 0.0
H2929 H 0.15826 0.41776 0.76859 0.0
H2930 H 0.18962 0.42025 0.77 0.0
C2931 C 0.29276 0.43157 0.76806 0.0
C2932 C 0.2593 0.45174 0.76875 0.0
H2933 H 0.22011 0.44073 0.78642 0.0
C2934 C 0.25427 0.45848 0.75829 0.0
C2935 C 0.24702 0.44557 0.77911 0.0
C2936 C 0.25208 0.43896 0.79078 0.0
C2937 C 0.23695 0.45858 0.75773 0.0
C2938 C 0.22449 0.45209 0.76801 0.0
C2939 C 0.22969 0.44569 0.77856 0.0
C2940 C 0.2056 0.45099 0.76775 0.0
C2941 C 0.23178 0.46493 0.74597 0.0
C2942 C 0.2042 0.46752 0.76627 0.0
C2943 C 0.18626 0.46617 0.76542 0.0
C2944 C 0.1694 0.44824 0.76611 0.0
C2945 C 0.17092 0.43179 0.76797 0.0
C2946 C 0.18884 0.43317 0.7688 0.0
H2947 H 0.24076 0.46533 0.73809 0.0
H2948 H 0.21651 0.45526 0.74358 0.0
H2949 H 0.23401 0.47955 0.74726 0.0
H2950 H 0.21698 0.48146 0.76568 0.0
H2951 H 0.18562 0.47914 0.76407 0.0
H2952 H 0.64802 0.77212 0.76736 0.0
H2953 H 0.64713 0.80188 0.76871 0.0
H2954 H 0.58583 0.7704 0.76426 0.0
H2955 H 0.5865 0.74047 0.76302 0.0
H2956 H 0.63363 0.81647 0.7504 0.0
H2957 H 0.59328 0.80484 0.79403 0.0
H2958 H 0.60416 0.79079 0.78981 0.0
H2959 H 0.5819 0.78588 0.78293 0.0
C2960 C 0.6343 0.77145 0.76679 0.0
C2961 C 0.61732 0.75387 0.76508 0.0
C2962 C 0.63383 0.7885 0.76756 0.0
C2963 C 0.6164 0.78833 0.76672 0.0
C2964 C 0.5994 0.77082 0.76517 0.0
H2965 H 0.58777 0.87891 0.76263 0.0
H2966 H 0.58681 0.84811 0.76358 0.0
C2967 C 0.59983 0.75373 0.76439 0.0
C2968 C 0.61622 0.80661 0.76674 0.0
H2969 H 0.59933 0.83203 0.7822 0.0
C2970 C 0.6262 0.81992 0.75738 0.0
C2971 C 0.6064 0.81099 0.77581 0.0
C2972 C 0.59595 0.79747 0.78629 0.0
C2973 C 0.62652 0.83743 0.75678 0.0
C2974 C 0.61687 0.84192 0.76592 0.0
C2975 C 0.60674 0.82855 0.77522 0.0
C2976 C 0.61735 0.86052 0.76599 0.0
C2977 C 0.63688 0.85085 0.74623 0.0
C2978 C 0.63479 0.87765 0.76733 0.0
C2979 C 0.63542 0.89525 0.76677 0.0
C2980 C 0.61857 0.89607 0.76494 0.0
C2981 C 0.60102 0.87882 0.764 0.0
C2982 C 0.60043 0.8612 0.76456 0.0
H2983 H 0.63916 0.84332 0.73842 0.0
H2984 H 0.62882 0.85777 0.74284 0.0
H2985 H 0.65112 0.86225 0.74946 0.0
H2986 H 0.64797 0.87742 0.76869 0.0
H2987 H 0.64916 0.90822 0.76763 0.0
H2988 H 0.54372 0.65743 0.58258 0.0
H2989 H 0.51291 0.62759 0.58142 0.0
H2990 H 0.54216 0.59619 0.57423 0.0
H2991 H 0.57294 0.62576 0.57545 0.0
H2992 H 0.49638 0.59931 0.56208 0.0
H2993 H 0.50925 0.57011 0.60505 0.0
H2994 H 0.52316 0.59508 0.60093 0.0
H2995 H 0.52802 0.57782 0.59382 0.0
C2996 C 0.5436 0.64419 0.58068 0.0
C2997 C 0.56083 0.64398 0.57923 0.0
C2998 C 0.52599 0.62718 0.58002 0.0
C2999 C 0.52531 0.60968 0.57795 0.0
C3000 C 0.54241 0.60951 0.57606 0.0
H3001 H 0.43914 0.49019 0.5759 0.0
H3002 H 0.46831 0.52135 0.57458 0.0
C3003 C 0.55999 0.62646 0.57672 0.0
C3004 C 0.50681 0.59149 0.57803 0.0
H3005 H 0.48233 0.5488 0.5931 0.0
C3006 C 0.49321 0.58828 0.56889 0.0
C3007 C 0.50275 0.5772 0.58696 0.0
C3008 C 0.51647 0.58022 0.59732 0.0
C3009 C 0.47585 0.57086 0.56822 0.0
C3010 C 0.47192 0.55646 0.57706 0.0
C3011 C 0.48543 0.55982 0.58629 0.0
C3012 C 0.45396 0.53771 0.57693 0.0
C3013 C 0.46209 0.56779 0.55789 0.0
C3014 C 0.43619 0.53658 0.57865 0.0
C3015 C 0.41944 0.51877 0.57939 0.0
C3016 C 0.42019 0.50175 0.57852 0.0
C3017 C 0.43802 0.50298 0.57661 0.0
C3018 C 0.45472 0.52078 0.57586 0.0
H3019 H 0.46919 0.57811 0.55024 0.0
H3020 H 0.45565 0.55303 0.55416 0.0
H3021 H 0.45035 0.56984 0.56146 0.0
H3022 H 0.43532 0.54947 0.57975 0.0
H3023 H 0.40598 0.51836 0.58092 0.0
H3024 H 0.40307 0.91295 0.58168 0.0
H3025 H 0.43167 0.90989 0.57993 0.0
H3026 H 0.46597 0.97047 0.5731 0.0
H3027 H 0.43753 0.9737 0.57469 0.0
H3028 H 0.47397 0.94727 0.55721 0.0
H3029 H 0.47366 0.9288 0.60665 0.0
H3030 H 0.45194 0.91408 0.59825 0.0
H3031 H 0.45962 0.93886 0.60087 0.0
C3032 C 0.41667 0.92562 0.57974 0.0
C3033 C 0.41801 0.9436 0.57842 0.0
C3034 C 0.43301 0.92384 0.57881 0.0
C3035 C 0.45095 0.94 0.57657 0.0
C3036 C 0.45225 0.95784 0.57488 0.0
H3037 H 0.56985 0.97567 0.57339 0.0
H3038 H 0.53786 0.97148 0.57164 0.0
C3039 C 0.43597 0.95965 0.57582 0.0
C3040 C 0.46854 0.93855 0.57621 0.0
H3041 H 0.49826 0.9302 0.59427 0.0
C3042 C 0.47924 0.94343 0.56528 0.0
C3043 C 0.47531 0.93345 0.58675 0.0
C3044 C 0.46467 0.92863 0.59884 0.0
C3045 C 0.49669 0.94358 0.56465 0.0
C3046 C 0.50376 0.93908 0.5753 0.0
C3047 C 0.49278 0.93363 0.58612 0.0
C3048 C 0.52308 0.94116 0.57567 0.0
C3049 C 0.5074 0.94859 0.55259 0.0
C3050 C 0.52543 0.92556 0.57873 0.0
C3051 C 0.54377 0.92792 0.57981 0.0
C3052 C 0.5601 0.94599 0.57797 0.0
C3053 C 0.55763 0.96153 0.57482 0.0
C3054 C 0.53932 0.95915 0.57373 0.0
H3055 H 0.49767 0.94587 0.54464 0.0
H3056 H 0.5183 0.96404 0.55258 0.0
H3057 H 0.51485 0.94029 0.55125 0.0
H3058 H 0.51306 0.91159 0.58036 0.0
H3059 H 0.54514 0.91566 0.58229 0.0
H3060 H 0.14439 0.65651 0.58139 0.0
H3061 H 0.1467 0.62751 0.57943 0.0
H3062 H 0.08565 0.59399 0.57413 0.0
H3063 H 0.08318 0.62283 0.57593 0.0
H3064 H 0.12892 0.59531 0.59448 0.0
H3065 H 0.10626 0.57594 0.54589 0.0
H3066 H 0.1136 0.59939 0.55209 0.0
H3067 H 0.08984 0.57982 0.55488 0.0
C3068 C 0.13147 0.64301 0.57967 0.0
C3069 C 0.1136 0.64202 0.5788 0.0
C3070 C 0.13283 0.62645 0.57856 0.0
C3071 C 0.11639 0.60865 0.57646 0.0
C3072 C 0.09857 0.60764 0.57548 0.0
H3073 H 0.08321 0.4898 0.57634 0.0
H3074 H 0.08584 0.52124 0.57495 0.0
C3075 C 0.09719 0.62415 0.5766 0.0
C3076 C 0.11763 0.59094 0.57604 0.0
H3077 H 0.10661 0.55172 0.55837 0.0
C3078 C 0.12428 0.58588 0.58654 0.0
C3079 C 0.11153 0.57867 0.56567 0.0
C3080 C 0.10507 0.58379 0.55394 0.0
C3081 C 0.12431 0.56851 0.58711 0.0
C3082 C 0.11781 0.55605 0.57683 0.0
C3083 C 0.11155 0.5613 0.56624 0.0
C3084 C 0.1166 0.53711 0.57711 0.0
C3085 C 0.13057 0.56331 0.59889 0.0
C3086 C 0.13309 0.53563 0.57855 0.0
C3087 C 0.13166 0.51765 0.57937 0.0
C3088 C 0.11369 0.50083 0.57872 0.0
C3089 C 0.09727 0.50243 0.57693 0.0
C3090 C 0.09873 0.52039 0.57611 0.0
H3091 H 0.13109 0.57238 0.60676 0.0
H3092 H 0.12077 0.54807 0.6013 0.0
H3093 H 0.14512 0.56536 0.59762 0.0
H3094 H 0.14706 0.54837 0.57911 0.0
H3095 H 0.14461 0.51696 0.58067 0.0
loop_
_geom_bond_atom_site_label_1
_geom_bond_atom_site_label_2
_geom_bond_distance
_geom_bond_site_symmetry_2
_ccdc_geom_bond_type
O0 Cd1 2.223 . S
O0 C8 1.315 . S
Cd1 O0 2.223 . S
Cd1 O4 2.297 . S
Cd1 O5 2.439 . S
Cd1 O11 2.240 . S
Cd2 O3 2.240 . S
Cd2 O10 2.223 1_455 S
Cd2 O12 2.290 1_455 S
Cd2 O13 2.439 . S
O3 Cd2 2.240 . S
O3 C8 1.279 . S
O4 Cd1 2.297 . S
O4 C6 1.247 . S
O5 Cd1 2.439 . S
O5 C6 1.208 . S
C6 O4 1.247 . S
C6 O5 1.208 . S
C7 O12 1.235 1_455 S
C7 O13 1.208 . S
C8 O0 1.315 . S
C8 O3 1.279 . S
C9 O10 1.315 . S
C9 O11 1.279 1_655 S
O10 Cd2 2.223 1_655 S
O10 C9 1.315 . S
O11 Cd1 2.240 . S
O11 C9 1.279 1_455 S
O12 Cd2 2.290 1_655 S
O12 C7 1.235 1_655 S
O13 Cd2 2.439 . S
O13 C7 1.208 . S
O14 Cd15 2.223 . S
O14 C22 1.315 . S
Cd15 O14 2.223 . S
Cd15 O18 2.297 . S
Cd15 O19 2.439 . S
Cd15 O25 2.240 . S
Cd16 O17 2.240 . S
Cd16 O24 2.223 . S
Cd16 O26 2.297 . S
Cd16 O27 2.439 . S
O17 Cd16 2.240 . S
O17 C22 1.279 . S
O18 Cd15 2.297 . S
O18 C20 1.247 . S
O19 Cd15 2.439 . S
O19 C20 1.208 . S
C20 O18 1.247 . S
C20 O19 1.208 . S
C21 O26 1.247 . S
C21 O27 1.208 . S
C22 O14 1.315 . S
C22 O17 1.279 . S
C23 O24 1.315 . S
C23 O25 1.279 . S
O24 Cd16 2.223 . S
O24 C23 1.315 . S
O25 Cd15 2.240 . S
O25 C23 1.279 . S
O26 Cd16 2.297 . S
O26 C21 1.247 . S
O27 Cd16 2.439 . S
O27 C21 1.208 . S
O28 Cd29 2.223 . S
O28 C36 1.315 . S
Cd29 O28 2.223 . S
Cd29 O32 2.297 1_545 S
Cd29 O33 2.439 1_545 S
Cd29 O39 2.240 . S
Cd30 O31 2.240 . S
Cd30 O38 2.223 . S
Cd30 O40 2.297 . S
Cd30 O41 2.439 . S
O31 Cd30 2.240 . S
O31 C36 1.279 . S
O32 Cd29 2.297 1_565 S
O32 C34 1.247 . S
O33 Cd29 2.439 1_565 S
O33 C34 1.208 . S
C34 O32 1.247 . S
C34 O33 1.208 . S
C35 O40 1.247 . S
C35 O41 1.208 . S
C36 O28 1.315 . S
C36 O31 1.279 . S
C37 O38 1.315 . S
C37 O39 1.279 . S
O38 Cd30 2.223 . S
O38 C37 1.315 . S
O39 Cd29 2.240 . S
O39 C37 1.279 . S
O40 Cd30 2.297 . S
O40 C35 1.247 . S
O41 Cd30 2.439 . S
O41 C35 1.208 . S
O42 Cd43 2.223 . S
O42 C50 1.315 . S
Cd43 O42 2.223 . S
Cd43 O46 2.297 . S
Cd43 O47 2.439 . S
Cd43 O53 2.240 . S
Cd44 O45 2.240 . S
Cd44 O52 2.223 1_545 S
Cd44 O54 2.290 1_545 S
Cd44 O55 2.439 . S
O45 Cd44 2.240 . S
O45 C50 1.279 . S
O46 Cd43 2.297 . S
O46 C48 1.247 . S
O47 Cd43 2.439 . S
O47 C48 1.208 . S
C48 O46 1.247 . S
C48 O47 1.208 . S
C49 O54 1.235 1_545 S
C49 O55 1.208 . S
C50 O42 1.315 . S
C50 O45 1.279 . S
C51 O52 1.315 . S
C51 O53 1.279 1_565 S
O52 Cd44 2.223 1_565 S
O52 C51 1.315 . S
O53 Cd43 2.240 . S
O53 C51 1.279 1_545 S
O54 Cd44 2.290 1_565 S
O54 C49 1.235 1_565 S
O55 Cd44 2.439 . S
O55 C49 1.208 . S
O56 Cd57 2.223 . S
O56 C64 1.315 . S
Cd57 O56 2.223 . S
Cd57 O60 2.297 1_455 S
Cd57 O61 2.439 1_455 S
Cd57 O67 2.240 . S
Cd58 O59 2.240 . S
Cd58 O66 2.223 . S
Cd58 O68 2.297 . S
Cd58 O69 2.439 . S
O59 Cd58 2.240 . S
O59 C64 1.279 . S
O60 Cd57 2.297 1_655 S
O60 C62 1.247 . S
O61 Cd57 2.439 1_655 S
O61 C62 1.208 . S
C62 O60 1.247 . S
C62 O61 1.208 . S
C63 O68 1.247 . S
C63 O69 1.208 . S
C64 O56 1.315 . S
C64 O59 1.279 . S
C65 O66 1.315 . S
C65 O67 1.279 . S
O66 Cd58 2.223 . S
O66 C65 1.315 . S
O67 Cd57 2.240 . S
O67 C65 1.279 . S
O68 Cd58 2.297 . S
O68 C63 1.247 . S
O69 Cd58 2.439 . S
O69 C63 1.208 . S
O70 Cd71 2.223 . S
O70 C78 1.315 . S
Cd71 O70 2.223 . S
Cd71 O74 2.297 . S
Cd71 O75 2.439 . S
Cd71 O81 2.240 . S
Cd72 O73 2.240 . S
Cd72 O80 2.223 . S
Cd72 O82 2.297 . S
Cd72 O83 2.439 . S
O73 Cd72 2.240 . S
O73 C78 1.279 . S
O74 Cd71 2.297 . S
O74 C76 1.247 . S
O75 Cd71 2.439 . S
O75 C76 1.208 . S
C76 O74 1.247 . S
C76 O75 1.208 . S
C77 O82 1.247 . S
C77 O83 1.208 . S
C78 O70 1.315 . S
C78 O73 1.279 . S
C79 O80 1.315 . S
C79 O81 1.279 . S
O80 Cd72 2.223 . S
O80 C79 1.315 . S
O81 Cd71 2.240 . S
O81 C79 1.279 . S
O82 Cd72 2.297 . S
O82 C77 1.247 . S
O83 Cd72 2.439 . S
O83 C77 1.208 . S
O84 Cd85 2.223 . S
O84 C92 1.315 . S
Cd85 O84 2.223 . S
Cd85 O88 2.297 1_455 S
Cd85 O89 2.439 1_455 S
Cd85 O95 2.240 . S
Cd86 O87 2.240 . S
Cd86 O94 2.223 . S
Cd86 O96 2.297 . S
Cd86 O97 2.439 . S
O87 Cd86 2.240 . S
O87 C92 1.279 . S
O88 Cd85 2.297 1_655 S
O88 C90 1.247 . S
O89 Cd85 2.439 1_655 S
O89 C90 1.208 . S
C90 O88 1.247 . S
C90 O89 1.208 . S
C91 O96 1.247 . S
C91 O97 1.208 . S
C92 O84 1.315 . S
C92 O87 1.279 . S
C93 O94 1.315 . S
C93 O95 1.279 . S
O94 Cd86 2.223 . S
O94 C93 1.315 . S
O95 Cd85 2.240 . S
O95 C93 1.279 . S
O96 Cd86 2.297 . S
O96 C91 1.247 . S
O97 Cd86 2.439 . S
O97 C91 1.208 . S
O98 Cd99 2.223 . S
O98 C106 1.315 . S
Cd99 O98 2.223 . S
Cd99 O102 2.297 . S
Cd99 O103 2.439 . S
Cd99 O109 2.240 . S
Cd100 O101 2.240 . S
Cd100 O108 2.223 . S
Cd100 O110 2.297 . S
Cd100 O111 2.439 . S
O101 Cd100 2.240 . S
O101 C106 1.279 . S
O102 Cd99 2.297 . S
O102 C104 1.247 . S
O103 Cd99 2.439 . S
O103 C104 1.208 . S
C104 O102 1.247 . S
C104 O103 1.208 . S
C105 O110 1.247 . S
C105 O111 1.208 . S
C106 O98 1.315 . S
C106 O101 1.279 . S
C107 O108 1.315 . S
C107 O109 1.279 . S
O108 Cd100 2.223 . S
O108 C107 1.315 . S
O109 Cd99 2.240 . S
O109 C107 1.279 . S
O110 Cd100 2.297 . S
O110 C105 1.247 . S
O111 Cd100 2.439 . S
O111 C105 1.208 . S
O112 Cd113 2.223 . S
O112 C120 1.315 . S
Cd113 O112 2.223 . S
Cd113 O116 2.297 . S
Cd113 O117 2.439 . S
Cd113 O123 2.240 . S
Cd114 O115 2.240 . S
Cd114 O122 2.223 1_545 S
Cd114 O124 2.294 1_545 S
Cd114 O125 2.439 . S
O115 Cd114 2.240 . S
O115 C120 1.279 . S
O116 Cd113 2.297 . S
O116 C118 1.247 . S
O117 Cd113 2.439 . S
O117 C118 1.208 . S
C118 O116 1.247 . S
C118 O117 1.208 . S
C119 O124 1.239 1_545 S
C119 O125 1.208 . S
C120 O112 1.315 . S
C120 O115 1.279 . S
C121 O122 1.315 . S
C121 O123 1.279 1_565 S
O122 Cd114 2.223 1_565 S
O122 C121 1.315 . S
O123 Cd113 2.240 . S
O123 C121 1.279 1_545 S
O124 Cd114 2.294 1_565 S
O124 C119 1.239 1_565 S
O125 Cd114 2.439 . S
O125 C119 1.208 . S
O126 Cd127 2.223 . S
O126 C134 1.315 . S
Cd127 O126 2.223 . S
Cd127 O130 2.297 1_545 S
Cd127 O131 2.439 1_545 S
Cd127 O137 2.240 . S
Cd128 O129 2.240 . S
Cd128 O136 2.223 . S
Cd128 O138 2.297 . S
Cd128 O139 2.439 . S
O129 Cd128 2.240 . S
O129 C134 1.279 . S
O130 Cd127 2.297 1_565 S
O130 C132 1.247 . S
O131 Cd127 2.439 1_565 S
O131 C132 1.208 . S
C132 O130 1.247 . S
C132 O131 1.208 . S
C133 O138 1.247 . S
C133 O139 1.208 . S
C134 O126 1.315 . S
C134 O129 1.279 . S
C135 O136 1.315 . S
C135 O137 1.279 . S
O136 Cd128 2.223 . S
O136 C135 1.315 . S
O137 Cd127 2.240 . S
O137 C135 1.279 . S
O138 Cd128 2.297 . S
O138 C133 1.247 . S
O139 Cd128 2.439 . S
O139 C133 1.208 . S
O140 Cd141 2.223 . S
O140 C148 1.315 . S
Cd141 O140 2.223 . S
Cd141 O144 2.297 . S
Cd141 O145 2.439 . S
Cd141 O151 2.240 . S
Cd142 O143 2.240 . S
Cd142 O150 2.223 1_455 S
Cd142 O152 2.294 1_455 S
Cd142 O153 2.439 . S
O143 Cd142 2.240 . S
O143 C148 1.279 . S
O144 Cd141 2.297 . S
O144 C146 1.247 . S
O145 Cd141 2.439 . S
O145 C146 1.208 . S
C146 O144 1.247 . S
C146 O145 1.208 . S
C147 O152 1.239 1_455 S
C147 O153 1.208 . S
C148 O140 1.315 . S
C148 O143 1.279 . S
C149 O150 1.315 . S
C149 O151 1.279 1_655 S
O150 Cd142 2.223 1_655 S
O150 C149 1.315 . S
O151 Cd141 2.240 . S
O151 C149 1.279 1_455 S
O152 Cd142 2.294 1_655 S
O152 C147 1.239 1_655 S
O153 Cd142 2.439 . S
O153 C147 1.208 . S
O154 Cd155 2.223 . S
O154 C162 1.315 . S
Cd155 O154 2.223 . S
Cd155 O158 2.297 . S
Cd155 O159 2.439 . S
Cd155 O165 2.240 . S
Cd156 O157 2.240 . S
Cd156 O164 2.223 . S
Cd156 O166 2.297 . S
Cd156 O167 2.439 . S
O157 Cd156 2.240 . S
O157 C162 1.279 . S
O158 Cd155 2.297 . S
O158 C160 1.247 . S
O159 Cd155 2.439 . S
O159 C160 1.208 . S
C160 O158 1.247 . S
C160 O159 1.208 . S
C161 O166 1.247 . S
C161 O167 1.208 . S
C162 O154 1.315 . S
C162 O157 1.279 . S
C163 O164 1.315 . S
C163 O165 1.279 . S
O164 Cd156 2.223 . S
O164 C163 1.315 . S
O165 Cd155 2.240 . S
O165 C163 1.279 . S
O166 Cd156 2.297 . S
O166 C161 1.247 . S
O167 Cd156 2.439 . S
O167 C161 1.208 . S
O168 Cd169 2.223 . S
O168 C176 1.315 . S
Cd169 O168 2.223 . S
Cd169 O172 2.297 . S
Cd169 O173 2.439 . S
Cd169 O179 2.240 . S
Cd170 O171 2.240 . S
Cd170 O178 2.223 . S
Cd170 O180 2.297 . S
Cd170 O181 2.439 . S
O171 Cd170 2.240 . S
O171 C176 1.279 . S
O172 Cd169 2.297 . S
O172 C174 1.247 . S
O173 Cd169 2.439 . S
O173 C174 1.208 . S
C174 O172 1.247 . S
C174 O173 1.208 . S
C175 O180 1.247 . S
C175 O181 1.208 . S
C176 O168 1.315 . S
C176 O171 1.279 . S
C177 O178 1.315 . S
C177 O179 1.279 . S
O178 Cd170 2.223 . S
O178 C177 1.315 . S
O179 Cd169 2.240 . S
O179 C177 1.279 . S
O180 Cd170 2.297 . S
O180 C175 1.247 . S
O181 Cd170 2.439 . S
O181 C175 1.208 . S
O182 Cd183 2.223 . S
O182 C190 1.315 . S
Cd183 O182 2.223 . S
Cd183 O186 2.297 . S
Cd183 O187 2.439 . S
Cd183 O193 2.240 . S
Cd184 O185 2.240 . S
Cd184 O192 2.223 . S
Cd184 O194 2.297 . S
Cd184 O195 2.439 . S
O185 Cd184 2.240 . S
O185 C190 1.279 . S
O186 Cd183 2.297 . S
O186 C188 1.247 . S
O187 Cd183 2.439 . S
O187 C188 1.208 . S
C188 O186 1.247 . S
C188 O187 1.208 . S
C189 O194 1.247 . S
C189 O195 1.208 . S
C190 O182 1.315 . S
C190 O185 1.279 . S
C191 O192 1.315 . S
C191 O193 1.279 . S
O192 Cd184 2.223 . S
O192 C191 1.315 . S
O193 Cd183 2.240 . S
O193 C191 1.279 . S
O194 Cd184 2.297 . S
O194 C189 1.247 . S
O195 Cd184 2.439 . S
O195 C189 1.208 . S
O196 Cd197 2.223 . S
O196 C204 1.315 . S
Cd197 O196 2.223 . S
Cd197 O200 2.297 . S
Cd197 O201 2.439 . S
Cd197 O207 2.240 . S
Cd198 O199 2.240 . S
Cd198 O206 2.223 . S
Cd198 O208 2.297 . S
Cd198 O209 2.439 . S
O199 Cd198 2.240 . S
O199 C204 1.279 . S
O200 Cd197 2.297 . S
O200 C202 1.247 . S
O201 Cd197 2.439 . S
O201 C202 1.208 . S
C202 O200 1.247 . S
C202 O201 1.208 . S
C203 O208 1.247 . S
C203 O209 1.208 . S
C204 O196 1.315 . S
C204 O199 1.279 . S
C205 O206 1.315 . S
C205 O207 1.279 . S
O206 Cd198 2.223 . S
O206 C205 1.315 . S
O207 Cd197 2.240 . S
O207 C205 1.279 . S
O208 Cd198 2.297 . S
O208 C203 1.247 . S
O209 Cd198 2.439 . S
O209 C203 1.208 . S
O210 Cd211 2.223 . S
O210 C218 1.315 . S
Cd211 O210 2.223 . S
Cd211 O214 2.297 . S
Cd211 O215 2.439 . S
Cd211 O221 2.240 . S
Cd212 O213 2.240 . S
Cd212 O220 2.223 . S
Cd212 O222 2.297 . S
Cd212 O223 2.439 . S
O213 Cd212 2.240 . S
O213 C218 1.279 . S
O214 Cd211 2.297 . S
O214 C216 1.247 . S
O215 Cd211 2.439 . S
O215 C216 1.208 . S
C216 O214 1.247 . S
C216 O215 1.208 . S
C217 O222 1.247 . S
C217 O223 1.208 . S
C218 O210 1.315 . S
C218 O213 1.279 . S
C219 O220 1.315 . S
C219 O221 1.279 . S
O220 Cd212 2.223 . S
O220 C219 1.315 . S
O221 Cd211 2.240 . S
O221 C219 1.279 . S
O222 Cd212 2.297 . S
O222 C217 1.247 . S
O223 Cd212 2.439 . S
O223 C217 1.208 . S
O224 Cd225 2.223 . S
O224 C232 1.315 . S
Cd225 O224 2.223 . S
Cd225 O228 2.297 . S
Cd225 O229 2.439 . S
Cd225 O235 2.240 . S
Cd226 O227 2.240 . S
Cd226 O234 2.223 . S
Cd226 O236 2.297 . S
Cd226 O237 2.439 . S
O227 Cd226 2.240 . S
O227 C232 1.279 . S
O228 Cd225 2.297 . S
O228 C230 1.247 . S
O229 Cd225 2.439 . S
O229 C230 1.208 . S
C230 O228 1.247 . S
C230 O229 1.208 . S
C231 O236 1.247 . S
C231 O237 1.208 . S
C232 O224 1.315 . S
C232 O227 1.279 . S
C233 O234 1.315 . S
C233 O235 1.279 . S
O234 Cd226 2.223 . S
O234 C233 1.315 . S
O235 Cd225 2.240 . S
O235 C233 1.279 . S
O236 Cd226 2.297 . S
O236 C231 1.247 . S
O237 Cd226 2.439 . S
O237 C231 1.208 . S
O238 Cd239 2.223 . S
O238 C246 1.315 . S
Cd239 O238 2.223 . S
Cd239 O242 2.297 . S
Cd239 O243 2.439 . S
Cd239 O249 2.240 . S
Cd240 O241 2.240 . S
Cd240 O248 2.223 . S
Cd240 O250 2.297 . S
Cd240 O251 2.439 . S
O241 Cd240 2.240 . S
O241 C246 1.279 . S
O242 Cd239 2.297 . S
O242 C244 1.247 . S
O243 Cd239 2.439 . S
O243 C244 1.208 . S
C244 O242 1.247 . S
C244 O243 1.208 . S
C245 O250 1.247 . S
C245 O251 1.208 . S
C246 O238 1.315 . S
C246 O241 1.279 . S
C247 O248 1.315 . S
C247 O249 1.279 . S
O248 Cd240 2.223 . S
O248 C247 1.315 . S
O249 Cd239 2.240 . S
O249 C247 1.279 . S
O250 Cd240 2.297 . S
O250 C245 1.247 . S
O251 Cd240 2.439 . S
O251 C245 1.208 . S
O252 Cd253 2.223 . S
O252 C260 1.315 . S
Cd253 O252 2.223 . S
Cd253 O256 2.297 . S
Cd253 O257 2.439 . S
Cd253 O263 2.240 . S
Cd254 O255 2.240 . S
Cd254 O262 2.223 . S
Cd254 O264 2.297 . S
Cd254 O265 2.439 . S
O255 Cd254 2.240 . S
O255 C260 1.279 . S
O256 Cd253 2.297 . S
O256 C258 1.247 . S
O257 Cd253 2.439 . S
O257 C258 1.208 . S
C258 O256 1.247 . S
C258 O257 1.208 . S
C259 O264 1.247 . S
C259 O265 1.208 . S
C260 O252 1.315 . S
C260 O255 1.279 . S
C261 O262 1.315 . S
C261 O263 1.279 . S
O262 Cd254 2.223 . S
O262 C261 1.315 . S
O263 Cd253 2.240 . S
O263 C261 1.279 . S
O264 Cd254 2.297 . S
O264 C259 1.247 . S
O265 Cd254 2.439 . S
O265 C259 1.208 . S
O266 Cd267 2.223 . S
O266 C274 1.315 . S
Cd267 O266 2.223 . S
Cd267 O270 2.297 . S
Cd267 O271 2.439 . S
Cd267 O277 2.240 . S
Cd268 O269 2.240 . S
Cd268 O276 2.223 . S
Cd268 O278 2.297 . S
Cd268 O279 2.439 . S
O269 Cd268 2.240 . S
O269 C274 1.279 . S
O270 Cd267 2.297 . S
O270 C272 1.247 . S
O271 Cd267 2.439 . S
O271 C272 1.208 . S
C272 O270 1.247 . S
C272 O271 1.208 . S
C273 O278 1.247 . S
C273 O279 1.208 . S
C274 O266 1.315 . S
C274 O269 1.279 . S
C275 O276 1.315 . S
C275 O277 1.279 . S
O276 Cd268 2.223 . S
O276 C275 1.315 . S
O277 Cd267 2.240 . S
O277 C275 1.279 . S
O278 Cd268 2.297 . S
O278 C273 1.247 . S
O279 Cd268 2.439 . S
O279 C273 1.208 . S
O280 Cd281 2.223 . S
O280 C288 1.315 . S
Cd281 O280 2.223 . S
Cd281 O284 2.297 . S
Cd281 O285 2.439 . S
Cd281 O291 2.240 . S
Cd282 O283 2.240 . S
Cd282 O290 2.223 . S
Cd282 O292 2.297 . S
Cd282 O293 2.439 . S
O283 Cd282 2.240 . S
O283 C288 1.279 . S
O284 Cd281 2.297 . S
O284 C286 1.247 . S
O285 Cd281 2.439 . S
O285 C286 1.208 . S
C286 O284 1.247 . S
C286 O285 1.208 . S
C287 O292 1.247 . S
C287 O293 1.208 . S
C288 O280 1.315 . S
C288 O283 1.279 . S
C289 O290 1.315 . S
C289 O291 1.279 . S
O290 Cd282 2.223 . S
O290 C289 1.315 . S
O291 Cd281 2.240 . S
O291 C289 1.279 . S
O292 Cd282 2.297 . S
O292 C287 1.247 . S
O293 Cd282 2.439 . S
O293 C287 1.208 . S
O294 Cd295 2.223 . S
O294 C302 1.315 . S
Cd295 O294 2.223 . S
Cd295 O298 2.297 . S
Cd295 O299 2.439 . S
Cd295 O305 2.240 . S
Cd296 O297 2.240 . S
Cd296 O304 2.223 . S
Cd296 O306 2.297 . S
Cd296 O307 2.439 . S
O297 Cd296 2.240 . S
O297 C302 1.279 . S
O298 Cd295 2.297 . S
O298 C300 1.247 . S
O299 Cd295 2.439 . S
O299 C300 1.208 . S
C300 O298 1.247 . S
C300 O299 1.208 . S
C301 O306 1.247 . S
C301 O307 1.208 . S
C302 O294 1.315 . S
C302 O297 1.279 . S
C303 O304 1.315 . S
C303 O305 1.279 . S
O304 Cd296 2.223 . S
O304 C303 1.315 . S
O305 Cd295 2.240 . S
O305 C303 1.279 . S
O306 Cd296 2.297 . S
O306 C301 1.247 . S
O307 Cd296 2.439 . S
O307 C301 1.208 . S
O308 Cd309 2.223 . S
O308 C316 1.315 . S
Cd309 O308 2.223 . S
Cd309 O312 2.297 . S
Cd309 O313 2.439 . S
Cd309 O319 2.240 . S
Cd310 O311 2.240 . S
Cd310 O318 2.223 . S
Cd310 O320 2.297 . S
Cd310 O321 2.439 . S
O311 Cd310 2.240 . S
O311 C316 1.279 . S
O312 Cd309 2.297 . S
O312 C314 1.247 . S
O313 Cd309 2.439 . S
O313 C314 1.208 . S
C314 O312 1.247 . S
C314 O313 1.208 . S
C315 O320 1.247 . S
C315 O321 1.208 . S
C316 O308 1.315 . S
C316 O311 1.279 . S
C317 O318 1.315 . S
C317 O319 1.279 . S
O318 Cd310 2.223 . S
O318 C317 1.315 . S
O319 Cd309 2.240 . S
O319 C317 1.279 . S
O320 Cd310 2.297 . S
O320 C315 1.247 . S
O321 Cd310 2.439 . S
O321 C315 1.208 . S
O322 Cd323 2.223 . S
O322 C330 1.315 . S
Cd323 O322 2.223 . S
Cd323 O326 2.297 . S
Cd323 O327 2.439 . S
Cd323 O333 2.240 . S
Cd324 O325 2.240 . S
Cd324 O332 2.223 . S
Cd324 O334 2.297 . S
Cd324 O335 2.439 . S
O325 Cd324 2.240 . S
O325 C330 1.279 . S
O326 Cd323 2.297 . S
O326 C328 1.247 . S
O327 Cd323 2.439 . S
O327 C328 1.208 . S
C328 O326 1.247 . S
C328 O327 1.208 . S
C329 O334 1.247 . S
C329 O335 1.208 . S
C330 O322 1.315 . S
C330 O325 1.279 . S
C331 O332 1.315 . S
C331 O333 1.279 . S
O332 Cd324 2.223 . S
O332 C331 1.315 . S
O333 Cd323 2.240 . S
O333 C331 1.279 . S
O334 Cd324 2.297 . S
O334 C329 1.247 . S
O335 Cd324 2.439 . S
O335 C329 1.208 . S
O336 Cd337 2.223 . S
O336 C344 1.315 . S
Cd337 O336 2.223 . S
Cd337 O340 2.297 . S
Cd337 O341 2.439 . S
Cd337 O347 2.240 . S
Cd338 O339 2.240 . S
Cd338 O346 2.223 . S
Cd338 O348 2.297 . S
Cd338 O349 2.439 . S
O339 Cd338 2.240 . S
O339 C344 1.279 . S
O340 Cd337 2.297 . S
O340 C342 1.247 . S
O341 Cd337 2.439 . S
O341 C342 1.208 . S
C342 O340 1.247 . S
C342 O341 1.208 . S
C343 O348 1.247 . S
C343 O349 1.208 . S
C344 O336 1.315 . S
C344 O339 1.279 . S
C345 O346 1.315 . S
C345 O347 1.279 . S
O346 Cd338 2.223 . S
O346 C345 1.315 . S
O347 Cd337 2.240 . S
O347 C345 1.279 . S
O348 Cd338 2.297 . S
O348 C343 1.247 . S
O349 Cd338 2.439 . S
O349 C343 1.208 . S
O350 Cd351 2.223 . S
O350 C358 1.315 . S
Cd351 O350 2.223 . S
Cd351 O354 2.297 . S
Cd351 O355 2.439 . S
Cd351 O361 2.240 . S
Cd352 O353 2.240 . S
Cd352 O360 2.223 . S
Cd352 O362 2.297 . S
Cd352 O363 2.439 . S
O353 Cd352 2.240 . S
O353 C358 1.279 . S
O354 Cd351 2.297 . S
O354 C356 1.247 . S
O355 Cd351 2.439 . S
O355 C356 1.208 . S
C356 O354 1.247 . S
C356 O355 1.208 . S
C357 O362 1.247 . S
C357 O363 1.208 . S
C358 O350 1.315 . S
C358 O353 1.279 . S
C359 O360 1.315 . S
C359 O361 1.279 . S
O360 Cd352 2.223 . S
O360 C359 1.315 . S
O361 Cd351 2.240 . S
O361 C359 1.279 . S
O362 Cd352 2.297 . S
O362 C357 1.247 . S
O363 Cd352 2.439 . S
O363 C357 1.208 . S
O364 Cd365 2.223 . S
O364 C372 1.315 . S
Cd365 O364 2.223 . S
Cd365 O368 2.297 . S
Cd365 O369 2.439 . S
Cd365 O375 2.240 . S
Cd366 O367 2.240 . S
Cd366 O374 2.223 . S
Cd366 O376 2.297 . S
Cd366 O377 2.439 . S
O367 Cd366 2.240 . S
O367 C372 1.279 . S
O368 Cd365 2.297 . S
O368 C370 1.247 . S
O369 Cd365 2.439 . S
O369 C370 1.208 . S
C370 O368 1.247 . S
C370 O369 1.208 . S
C371 O376 1.247 . S
C371 O377 1.208 . S
C372 O364 1.315 . S
C372 O367 1.279 . S
C373 O374 1.315 . S
C373 O375 1.279 . S
O374 Cd366 2.223 . S
O374 C373 1.315 . S
O375 Cd365 2.240 . S
O375 C373 1.279 . S
O376 Cd366 2.297 . S
O376 C371 1.247 . S
O377 Cd366 2.439 . S
O377 C371 1.208 . S
O378 Cd379 2.223 . S
O378 C386 1.315 . S
Cd379 O378 2.223 . S
Cd379 O382 2.297 . S
Cd379 O383 2.439 . S
Cd379 O389 2.240 . S
Cd380 O381 2.240 . S
Cd380 O388 2.223 . S
Cd380 O390 2.297 . S
Cd380 O391 2.439 . S
O381 Cd380 2.240 . S
O381 C386 1.279 . S
O382 Cd379 2.297 . S
O382 C384 1.247 . S
O383 Cd379 2.439 . S
O383 C384 1.208 . S
C384 O382 1.247 . S
C384 O383 1.208 . S
C385 O390 1.247 . S
C385 O391 1.208 . S
C386 O378 1.315 . S
C386 O381 1.279 . S
C387 O388 1.315 . S
C387 O389 1.279 . S
O388 Cd380 2.223 . S
O388 C387 1.315 . S
O389 Cd379 2.240 . S
O389 C387 1.279 . S
O390 Cd380 2.297 . S
O390 C385 1.247 . S
O391 Cd380 2.439 . S
O391 C385 1.208 . S
O392 Cd393 2.223 . S
O392 C400 1.315 . S
Cd393 O392 2.223 . S
Cd393 O396 2.297 . S
Cd393 O397 2.439 . S
Cd393 O403 2.240 . S
Cd394 O395 2.240 . S
Cd394 O402 2.223 . S
Cd394 O404 2.297 . S
Cd394 O405 2.439 . S
O395 Cd394 2.240 . S
O395 C400 1.279 . S
O396 Cd393 2.297 . S
O396 C398 1.247 . S
O397 Cd393 2.439 . S
O397 C398 1.208 . S
C398 O396 1.247 . S
C398 O397 1.208 . S
C399 O404 1.247 . S
C399 O405 1.208 . S
C400 O392 1.315 . S
C400 O395 1.279 . S
C401 O402 1.315 . S
C401 O403 1.279 . S
O402 Cd394 2.223 . S
O402 C401 1.315 . S
O403 Cd393 2.240 . S
O403 C401 1.279 . S
O404 Cd394 2.297 . S
O404 C399 1.247 . S
O405 Cd394 2.439 . S
O405 C399 1.208 . S
O406 Cd407 2.223 . S
O406 C414 1.315 . S
Cd407 O406 2.223 . S
Cd407 O410 2.297 . S
Cd407 O411 2.439 . S
Cd407 O417 2.240 . S
Cd408 O409 2.240 . S
Cd408 O416 2.223 . S
Cd408 O418 2.297 . S
Cd408 O419 2.439 . S
O409 Cd408 2.240 . S
O409 C414 1.279 . S
O410 Cd407 2.297 . S
O410 C412 1.247 . S
O411 Cd407 2.439 . S
O411 C412 1.208 . S
C412 O410 1.247 . S
C412 O411 1.208 . S
C413 O418 1.247 . S
C413 O419 1.208 . S
C414 O406 1.315 . S
C414 O409 1.279 . S
C415 O416 1.315 . S
C415 O417 1.279 . S
O416 Cd408 2.223 . S
O416 C415 1.315 . S
O417 Cd407 2.240 . S
O417 C415 1.279 . S
O418 Cd408 2.297 . S
O418 C413 1.247 . S
O419 Cd408 2.439 . S
O419 C413 1.208 . S
O420 Cd421 2.223 . S
O420 C428 1.315 . S
Cd421 O420 2.223 . S
Cd421 O424 2.297 . S
Cd421 O425 2.439 . S
Cd421 O431 2.240 . S
Cd422 O423 2.240 . S
Cd422 O430 2.223 . S
Cd422 O432 2.297 . S
Cd422 O433 2.439 . S
O423 Cd422 2.240 . S
O423 C428 1.279 . S
O424 Cd421 2.297 . S
O424 C426 1.247 . S
O425 Cd421 2.439 . S
O425 C426 1.208 . S
C426 O424 1.247 . S
C426 O425 1.208 . S
C427 O432 1.247 . S
C427 O433 1.208 . S
C428 O420 1.315 . S
C428 O423 1.279 . S
C429 O430 1.315 . S
C429 O431 1.279 . S
O430 Cd422 2.223 . S
O430 C429 1.315 . S
O431 Cd421 2.240 . S
O431 C429 1.279 . S
O432 Cd422 2.297 . S
O432 C427 1.247 . S
O433 Cd422 2.439 . S
O433 C427 1.208 . S
O434 Cd435 2.223 . S
O434 C442 1.315 . S
Cd435 O434 2.223 . S
Cd435 O438 2.297 . S
Cd435 O439 2.439 . S
Cd435 O445 2.240 . S
Cd436 O437 2.240 . S
Cd436 O444 2.223 . S
Cd436 O446 2.297 . S
Cd436 O447 2.439 . S
O437 Cd436 2.240 . S
O437 C442 1.279 . S
O438 Cd435 2.297 . S
O438 C440 1.247 . S
O439 Cd435 2.439 . S
O439 C440 1.208 . S
C440 O438 1.247 . S
C440 O439 1.208 . S
C441 O446 1.247 . S
C441 O447 1.208 . S
C442 O434 1.315 . S
C442 O437 1.279 . S
C443 O444 1.315 . S
C443 O445 1.279 . S
O444 Cd436 2.223 . S
O444 C443 1.315 . S
O445 Cd435 2.240 . S
O445 C443 1.279 . S
O446 Cd436 2.297 . S
O446 C441 1.247 . S
O447 Cd436 2.439 . S
O447 C441 1.208 . S
O448 Cd449 2.223 . S
O448 C456 1.315 . S
Cd449 O448 2.223 . S
Cd449 O452 2.297 . S
Cd449 O453 2.439 . S
Cd449 O459 2.240 . S
Cd450 O451 2.240 . S
Cd450 O458 2.223 . S
Cd450 O460 2.297 . S
Cd450 O461 2.439 . S
O451 Cd450 2.240 . S
O451 C456 1.279 . S
O452 Cd449 2.297 . S
O452 C454 1.247 . S
O453 Cd449 2.439 . S
O453 C454 1.208 . S
C454 O452 1.247 . S
C454 O453 1.208 . S
C455 O460 1.247 . S
C455 O461 1.208 . S
C456 O448 1.315 . S
C456 O451 1.279 . S
C457 O458 1.315 . S
C457 O459 1.279 . S
O458 Cd450 2.223 . S
O458 C457 1.315 . S
O459 Cd449 2.240 . S
O459 C457 1.279 . S
O460 Cd450 2.297 . S
O460 C455 1.247 . S
O461 Cd450 2.439 . S
O461 C455 1.208 . S
O462 Cd463 2.223 . S
O462 C470 1.315 . S
Cd463 O462 2.223 . S
Cd463 O466 2.297 . S
Cd463 O467 2.439 . S
Cd463 O473 2.240 . S
Cd464 O465 2.240 . S
Cd464 O472 2.223 . S
Cd464 O474 2.297 . S
Cd464 O475 2.439 . S
O465 Cd464 2.240 . S
O465 C470 1.279 . S
O466 Cd463 2.297 . S
O466 C468 1.247 . S
O467 Cd463 2.439 . S
O467 C468 1.208 . S
C468 O466 1.247 . S
C468 O467 1.208 . S
C469 O474 1.247 . S
C469 O475 1.208 . S
C470 O462 1.315 . S
C470 O465 1.279 . S
C471 O472 1.315 . S
C471 O473 1.279 . S
O472 Cd464 2.223 . S
O472 C471 1.315 . S
O473 Cd463 2.240 . S
O473 C471 1.279 . S
O474 Cd464 2.297 . S
O474 C469 1.247 . S
O475 Cd464 2.439 . S
O475 C469 1.208 . S
O476 Cd477 2.223 . S
O476 C484 1.315 . S
Cd477 O476 2.223 . S
Cd477 O480 2.297 . S
Cd477 O481 2.439 . S
Cd477 O487 2.240 . S
Cd478 O479 2.240 . S
Cd478 O486 2.223 . S
Cd478 O488 2.297 . S
Cd478 O489 2.439 . S
O479 Cd478 2.240 . S
O479 C484 1.279 . S
O480 Cd477 2.297 . S
O480 C482 1.247 . S
O481 Cd477 2.439 . S
O481 C482 1.208 . S
C482 O480 1.247 . S
C482 O481 1.208 . S
C483 O488 1.247 . S
C483 O489 1.208 . S
C484 O476 1.315 . S
C484 O479 1.279 . S
C485 O486 1.315 . S
C485 O487 1.279 . S
O486 Cd478 2.223 . S
O486 C485 1.315 . S
O487 Cd477 2.240 . S
O487 C485 1.279 . S
O488 Cd478 2.297 . S
O488 C483 1.247 . S
O489 Cd478 2.439 . S
O489 C483 1.208 . S
O490 Cd491 2.223 . S
O490 C498 1.315 . S
Cd491 O490 2.223 . S
Cd491 O494 2.297 . S
Cd491 O495 2.439 . S
Cd491 O501 2.240 . S
Cd492 O493 2.240 . S
Cd492 O500 2.223 . S
Cd492 O502 2.297 . S
Cd492 O503 2.439 . S
O493 Cd492 2.240 . S
O493 C498 1.279 . S
O494 Cd491 2.297 . S
O494 C496 1.247 . S
O495 Cd491 2.439 . S
O495 C496 1.208 . S
C496 O494 1.247 . S
C496 O495 1.208 . S
C497 O502 1.247 . S
C497 O503 1.208 . S
C498 O490 1.315 . S
C498 O493 1.279 . S
C499 O500 1.315 . S
C499 O501 1.279 . S
O500 Cd492 2.223 . S
O500 C499 1.315 . S
O501 Cd491 2.240 . S
O501 C499 1.279 . S
O502 Cd492 2.297 . S
O502 C497 1.247 . S
O503 Cd492 2.439 . S
O503 C497 1.208 . S
H504 C512 0.929 . S
H505 C514 0.930 . S
H506 C516 0.930 . S
H507 C519 0.929 . S
H508 C522 0.930 . S
H509 C524 0.960 . S
H510 C524 0.960 . S
H511 C524 0.960 . S
C512 H504 0.929 . S
C512 C513 1.377 . S
C512 C514 1.384 . S
C513 C512 1.377 . S
C513 C519 1.390 . S
C514 H505 0.930 . S
C514 C512 1.384 . S
C514 C515 1.372 . S
C515 C514 1.372 . S
C515 C516 1.400 . S
C515 C520 1.490 . S
C516 H506 0.930 . S
C516 C515 1.400 . S
C516 C519 1.386 . S
H517 C533 0.930 . S
H518 C534 0.931 . S
C519 H507 0.929 . S
C519 C513 1.390 . S
C519 C516 1.386 . S
C520 C515 1.490 . S
C520 C522 1.395 . S
C520 C523 1.403 . S
H521 C527 0.930 . S
C522 H508 0.930 . S
C522 C520 1.395 . S
C522 C525 1.403 . S
C523 C520 1.403 . S
C523 C524 1.524 . S
C523 C527 1.400 . S
C524 H509 0.960 . S
C524 H510 0.960 . S
C524 H511 0.960 . S
C524 C523 1.524 . S
C525 C522 1.403 . S
C525 C526 1.392 . S
C525 C529 1.495 . S
C526 C525 1.392 . S
C526 C527 1.385 . S
C526 C528 1.478 . S
C527 H521 0.930 . S
C527 C523 1.400 . S
C527 C526 1.385 . S
C528 C526 1.478 . S
C528 C530 1.381 . S
C528 C534 1.383 . S
C529 C525 1.495 . S
C529 H535 0.959 . S
C529 H536 0.961 . S
C529 H537 0.960 . S
C530 C528 1.381 . S
C530 C531 1.394 . S
C530 H538 0.930 . S
C531 C530 1.394 . S
C531 C532 1.383 . S
C531 H539 0.929 . S
C532 C531 1.383 . S
C532 C533 1.377 . S
C533 H517 0.930 . S
C533 C532 1.377 . S
C533 C534 1.379 . S
C534 H518 0.931 . S
C534 C528 1.383 . S
C534 C533 1.379 . S
H535 C529 0.959 . S
H536 C529 0.961 . S
H537 C529 0.960 . S
H538 C530 0.930 . S
H539 C531 0.929 . S
H540 C548 0.929 . S
H541 C550 0.930 . S
H542 C552 0.930 . S
H543 C555 0.929 . S
H544 C558 0.930 . S
H545 C560 0.960 . S
H546 C560 0.960 . S
H547 C560 0.960 . S
C548 H540 0.929 . S
C548 C549 1.377 . S
C548 C550 1.384 . S
C549 C548 1.377 . S
C549 C555 1.390 . S
C550 H541 0.930 . S
C550 C548 1.384 . S
C550 C551 1.372 . S
C551 C550 1.372 . S
C551 C552 1.400 . S
C551 C556 1.490 . S
C552 H542 0.930 . S
C552 C551 1.400 . S
C552 C555 1.386 . S
H553 C569 0.930 . S
H554 C570 0.931 . S
C555 H543 0.929 . S
C555 C549 1.390 . S
C555 C552 1.386 . S
C556 C551 1.490 . S
C556 C558 1.395 . S
C556 C559 1.403 . S
H557 C563 0.930 . S
C558 H544 0.930 . S
C558 C556 1.395 . S
C558 C561 1.403 . S
C559 C556 1.403 . S
C559 C560 1.524 . S
C559 C563 1.400 . S
C560 H545 0.960 . S
C560 H546 0.960 . S
C560 H547 0.960 . S
C560 C559 1.524 . S
C561 C558 1.403 . S
C561 C562 1.392 . S
C561 C565 1.495 . S
C562 C561 1.392 . S
C562 C563 1.385 . S
C562 C564 1.478 . S
C563 H557 0.930 . S
C563 C559 1.400 . S
C563 C562 1.385 . S
C564 C562 1.478 . S
C564 C566 1.381 . S
C564 C570 1.383 . S
C565 C561 1.495 . S
C565 H571 0.959 . S
C565 H572 0.961 . S
C565 H573 0.960 . S
C566 C564 1.381 . S
C566 C567 1.394 . S
C566 H574 0.930 . S
C567 C566 1.394 . S
C567 C568 1.383 . S
C567 H575 0.929 . S
C568 C567 1.383 . S
C568 C569 1.377 . S
C569 H553 0.930 . S
C569 C568 1.377 . S
C569 C570 1.379 . S
C570 H554 0.931 . S
C570 C564 1.383 . S
C570 C569 1.379 . S
H571 C565 0.959 . S
H572 C565 0.961 . S
H573 C565 0.960 . S
H574 C566 0.930 . S
H575 C567 0.929 . S
H576 C584 0.929 . S
H577 C586 0.930 . S
H578 C588 0.930 . S
H579 C591 0.929 . S
H580 C594 0.930 . S
H581 C596 0.960 . S
H582 C596 0.960 . S
H583 C596 0.960 . S
C584 H576 0.929 . S
C584 C585 1.377 . S
C584 C586 1.384 . S
C585 C584 1.377 . S
C585 C591 1.390 . S
C586 H577 0.930 . S
C586 C584 1.384 . S
C586 C587 1.372 . S
C587 C586 1.372 . S
C587 C588 1.400 . S
C587 C592 1.490 . S
C588 H578 0.930 . S
C588 C587 1.400 . S
C588 C591 1.386 . S
H589 C605 0.930 . S
H590 C606 0.931 . S
C591 H579 0.929 . S
C591 C585 1.390 . S
C591 C588 1.386 . S
C592 C587 1.490 . S
C592 C594 1.395 . S
C592 C595 1.403 . S
H593 C599 0.930 . S
C594 H580 0.930 . S
C594 C592 1.395 . S
C594 C597 1.403 . S
C595 C592 1.403 . S
C595 C596 1.524 . S
C595 C599 1.400 . S
C596 H581 0.960 . S
C596 H582 0.960 . S
C596 H583 0.960 . S
C596 C595 1.524 . S
C597 C594 1.403 . S
C597 C598 1.392 . S
C597 C601 1.495 . S
C598 C597 1.392 . S
C598 C599 1.385 . S
C598 C600 1.478 . S
C599 H593 0.930 . S
C599 C595 1.400 . S
C599 C598 1.385 . S
C600 C598 1.478 . S
C600 C602 1.381 . S
C600 C606 1.383 . S
C601 C597 1.495 . S
C601 H607 0.959 . S
C601 H608 0.961 . S
C601 H609 0.960 . S
C602 C600 1.381 . S
C602 C603 1.394 . S
C602 H610 0.930 . S
C603 C602 1.394 . S
C603 C604 1.383 . S
C603 H611 0.929 . S
C604 C603 1.383 . S
C604 C605 1.377 . S
C605 H589 0.930 . S
C605 C604 1.377 . S
C605 C606 1.379 . S
C606 H590 0.931 . S
C606 C600 1.383 . S
C606 C605 1.379 . S
H607 C601 0.959 . S
H608 C601 0.961 . S
H609 C601 0.960 . S
H610 C602 0.930 . S
H611 C603 0.929 . S
H612 C620 0.929 . S
H613 C622 0.930 . S
H614 C624 0.930 . S
H615 C627 0.929 . S
H616 C630 0.930 . S
H617 C632 0.960 . S
H618 C632 0.960 . S
H619 C632 0.960 . S
C620 H612 0.929 . S
C620 C621 1.377 . S
C620 C622 1.384 . S
C621 C620 1.377 . S
C621 C627 1.390 . S
C622 H613 0.930 . S
C622 C620 1.384 . S
C622 C623 1.372 . S
C623 C622 1.372 . S
C623 C624 1.400 . S
C623 C628 1.490 . S
C624 H614 0.930 . S
C624 C623 1.400 . S
C624 C627 1.386 . S
H625 C641 0.930 . S
H626 C642 0.931 . S
C627 H615 0.929 . S
C627 C621 1.390 . S
C627 C624 1.386 . S
C628 C623 1.490 . S
C628 C630 1.395 . S
C628 C631 1.403 . S
H629 C635 0.930 . S
C630 H616 0.930 . S
C630 C628 1.395 . S
C630 C633 1.403 . S
C631 C628 1.403 . S
C631 C632 1.524 . S
C631 C635 1.400 . S
C632 H617 0.960 . S
C632 H618 0.960 . S
C632 H619 0.960 . S
C632 C631 1.524 . S
C633 C630 1.403 . S
C633 C634 1.392 . S
C633 C637 1.495 . S
C634 C633 1.392 . S
C634 C635 1.385 . S
C634 C636 1.478 . S
C635 H629 0.930 . S
C635 C631 1.400 . S
C635 C634 1.385 . S
C636 C634 1.478 . S
C636 C638 1.381 . S
C636 C642 1.383 . S
C637 C633 1.495 . S
C637 H643 0.959 . S
C637 H644 0.961 . S
C637 H645 0.960 . S
C638 C636 1.381 . S
C638 C639 1.394 . S
C638 H646 0.930 . S
C639 C638 1.394 . S
C639 C640 1.383 . S
C639 H647 0.929 . S
C640 C639 1.383 . S
C640 C641 1.377 . S
C641 H625 0.930 . S
C641 C640 1.377 . S
C641 C642 1.379 . S
C642 H626 0.931 . S
C642 C636 1.383 . S
C642 C641 1.379 . S
H643 C637 0.959 . S
H644 C637 0.961 . S
H645 C637 0.960 . S
H646 C638 0.930 . S
H647 C639 0.929 . S
H648 C656 0.929 . S
H649 C658 0.930 . S
H650 C660 0.930 . S
H651 C663 0.929 . S
H652 C666 0.930 . S
H653 C668 0.960 . S
H654 C668 0.960 . S
H655 C668 0.960 . S
C656 H648 0.929 . S
C656 C657 1.377 . S
C656 C658 1.384 . S
C657 C656 1.377 . S
C657 C663 1.390 . S
C658 H649 0.930 . S
C658 C656 1.384 . S
C658 C659 1.372 . S
C659 C658 1.372 . S
C659 C660 1.400 . S
C659 C664 1.490 . S
C660 H650 0.930 . S
C660 C659 1.400 . S
C660 C663 1.386 . S
H661 C677 0.930 . S
H662 C678 0.931 . S
C663 H651 0.929 . S
C663 C657 1.390 . S
C663 C660 1.386 . S
C664 C659 1.490 . S
C664 C666 1.395 . S
C664 C667 1.403 . S
H665 C671 0.930 . S
C666 H652 0.930 . S
C666 C664 1.395 . S
C666 C669 1.403 . S
C667 C664 1.403 . S
C667 C668 1.524 . S
C667 C671 1.400 . S
C668 H653 0.960 . S
C668 H654 0.960 . S
C668 H655 0.960 . S
C668 C667 1.524 . S
C669 C666 1.403 . S
C669 C670 1.392 . S
C669 C673 1.495 . S
C670 C669 1.392 . S
C670 C671 1.385 . S
C670 C672 1.478 . S
C671 H665 0.930 . S
C671 C667 1.400 . S
C671 C670 1.385 . S
C672 C670 1.478 . S
C672 C674 1.381 . S
C672 C678 1.383 . S
C673 C669 1.495 . S
C673 H679 0.959 . S
C673 H680 0.961 . S
C673 H681 0.960 . S
C674 C672 1.381 . S
C674 C675 1.394 . S
C674 H682 0.930 . S
C675 C674 1.394 . S
C675 C676 1.383 . S
C675 H683 0.929 . S
C676 C675 1.383 . S
C676 C677 1.377 . S
C677 H661 0.930 . S
C677 C676 1.377 . S
C677 C678 1.379 . S
C678 H662 0.931 . S
C678 C672 1.383 . S
C678 C677 1.379 . S
H679 C673 0.959 . S
H680 C673 0.961 . S
H681 C673 0.960 . S
H682 C674 0.930 . S
H683 C675 0.929 . S
H684 C692 0.929 . S
H685 C694 0.930 . S
H686 C696 0.930 . S
H687 C699 0.929 . S
H688 C702 0.930 . S
H689 C704 0.960 . S
H690 C704 0.960 . S
H691 C704 0.960 . S
C692 H684 0.929 . S
C692 C693 1.377 . S
C692 C694 1.384 . S
C693 C692 1.377 . S
C693 C699 1.390 . S
C694 H685 0.930 . S
C694 C692 1.384 . S
C694 C695 1.372 . S
C695 C694 1.372 . S
C695 C696 1.400 . S
C695 C700 1.490 . S
C696 H686 0.930 . S
C696 C695 1.400 . S
C696 C699 1.386 . S
H697 C713 0.930 . S
H698 C714 0.931 . S
C699 H687 0.929 . S
C699 C693 1.390 . S
C699 C696 1.386 . S
C700 C695 1.490 . S
C700 C702 1.395 . S
C700 C703 1.403 . S
H701 C707 0.930 . S
C702 H688 0.930 . S
C702 C700 1.395 . S
C702 C705 1.403 . S
C703 C700 1.403 . S
C703 C704 1.524 . S
C703 C707 1.400 . S
C704 H689 0.960 . S
C704 H690 0.960 . S
C704 H691 0.960 . S
C704 C703 1.524 . S
C705 C702 1.403 . S
C705 C706 1.392 . S
C705 C709 1.495 . S
C706 C705 1.392 . S
C706 C707 1.385 . S
C706 C708 1.478 . S
C707 H701 0.930 . S
C707 C703 1.400 . S
C707 C706 1.385 . S
C708 C706 1.478 . S
C708 C710 1.381 . S
C708 C714 1.383 . S
C709 C705 1.495 . S
C709 H715 0.959 . S
C709 H716 0.961 . S
C709 H717 0.960 . S
C710 C708 1.381 . S
C710 C711 1.394 . S
C710 H718 0.930 . S
C711 C710 1.394 . S
C711 C712 1.383 . S
C711 H719 0.929 . S
C712 C711 1.383 . S
C712 C713 1.377 . S
C713 H697 0.930 . S
C713 C712 1.377 . S
C713 C714 1.379 . S
C714 H698 0.931 . S
C714 C708 1.383 . S
C714 C713 1.379 . S
H715 C709 0.959 . S
H716 C709 0.961 . S
H717 C709 0.960 . S
H718 C710 0.930 . S
H719 C711 0.929 . S
H720 C728 0.929 . S
H721 C730 0.930 . S
H722 C732 0.930 . S
H723 C735 0.929 . S
H724 C738 0.930 . S
H725 C740 0.960 . S
H726 C740 0.960 . S
H727 C740 0.960 . S
C728 H720 0.929 . S
C728 C729 1.377 . S
C728 C730 1.384 . S
C729 C728 1.377 . S
C729 C735 1.390 . S
C730 H721 0.930 . S
C730 C728 1.384 . S
C730 C731 1.372 . S
C731 C730 1.372 . S
C731 C732 1.400 . S
C731 C736 1.490 . S
C732 H722 0.930 . S
C732 C731 1.400 . S
C732 C735 1.386 . S
H733 C749 0.930 . S
H734 C750 0.931 . S
C735 H723 0.929 . S
C735 C729 1.390 . S
C735 C732 1.386 . S
C736 C731 1.490 . S
C736 C738 1.395 . S
C736 C739 1.403 . S
H737 C743 0.930 . S
C738 H724 0.930 . S
C738 C736 1.395 . S
C738 C741 1.403 . S
C739 C736 1.403 . S
C739 C740 1.524 . S
C739 C743 1.400 . S
C740 H725 0.960 . S
C740 H726 0.960 . S
C740 H727 0.960 . S
C740 C739 1.524 . S
C741 C738 1.403 . S
C741 C742 1.392 . S
C741 C745 1.495 . S
C742 C741 1.392 . S
C742 C743 1.385 . S
C742 C744 1.478 . S
C743 H737 0.930 . S
C743 C739 1.400 . S
C743 C742 1.385 . S
C744 C742 1.478 . S
C744 C746 1.381 . S
C744 C750 1.383 . S
C745 C741 1.495 . S
C745 H751 0.959 . S
C745 H752 0.961 . S
C745 H753 0.960 . S
C746 C744 1.381 . S
C746 C747 1.394 . S
C746 H754 0.930 . S
C747 C746 1.394 . S
C747 C748 1.383 . S
C747 H755 0.929 . S
C748 C747 1.383 . S
C748 C749 1.377 . S
C749 H733 0.930 . S
C749 C748 1.377 . S
C749 C750 1.379 . S
C750 H734 0.931 . S
C750 C744 1.383 . S
C750 C749 1.379 . S
H751 C745 0.959 . S
H752 C745 0.961 . S
H753 C745 0.960 . S
H754 C746 0.930 . S
H755 C747 0.929 . S
H756 C764 0.929 . S
H757 C766 0.930 . S
H758 C768 0.930 . S
H759 C771 0.929 . S
H760 C774 0.930 . S
H761 C776 0.960 . S
H762 C776 0.960 . S
H763 C776 0.960 . S
C764 H756 0.929 . S
C764 C765 1.377 . S
C764 C766 1.384 . S
C765 C764 1.377 . S
C765 C771 1.390 . S
C766 H757 0.930 . S
C766 C764 1.384 . S
C766 C767 1.372 . S
C767 C766 1.372 . S
C767 C768 1.400 . S
C767 C772 1.490 . S
C768 H758 0.930 . S
C768 C767 1.400 . S
C768 C771 1.386 . S
H769 C785 0.930 . S
H770 C786 0.931 . S
C771 H759 0.929 . S
C771 C765 1.390 . S
C771 C768 1.386 . S
C772 C767 1.490 . S
C772 C774 1.395 . S
C772 C775 1.403 . S
H773 C779 0.930 . S
C774 H760 0.930 . S
C774 C772 1.395 . S
C774 C777 1.403 . S
C775 C772 1.403 . S
C775 C776 1.524 . S
C775 C779 1.400 . S
C776 H761 0.960 . S
C776 H762 0.960 . S
C776 H763 0.960 . S
C776 C775 1.524 . S
C777 C774 1.403 . S
C777 C778 1.392 . S
C777 C781 1.495 . S
C778 C777 1.392 . S
C778 C779 1.385 . S
C778 C780 1.478 . S
C779 H773 0.930 . S
C779 C775 1.400 . S
C779 C778 1.385 . S
C780 C778 1.478 . S
C780 C782 1.381 . S
C780 C786 1.383 . S
C781 C777 1.495 . S
C781 H787 0.959 . S
C781 H788 0.961 . S
C781 H789 0.960 . S
C782 C780 1.381 . S
C782 C783 1.394 . S
C782 H790 0.930 . S
C783 C782 1.394 . S
C783 C784 1.383 . S
C783 H791 0.929 . S
C784 C783 1.383 . S
C784 C785 1.377 . S
C785 H769 0.930 . S
C785 C784 1.377 . S
C785 C786 1.379 . S
C786 H770 0.931 . S
C786 C780 1.383 . S
C786 C785 1.379 . S
H787 C781 0.959 . S
H788 C781 0.961 . S
H789 C781 0.960 . S
H790 C782 0.930 . S
H791 C783 0.929 . S
H792 C800 0.929 . S
H793 C802 0.930 . S
H794 C804 0.930 . S
H795 C807 0.929 . S
H796 C810 0.930 . S
H797 C812 0.960 . S
H798 C812 0.960 . S
H799 C812 0.960 . S
C800 H792 0.929 . S
C800 C801 1.377 . S
C800 C802 1.384 . S
C801 C800 1.377 . S
C801 C807 1.390 . S
C802 H793 0.930 . S
C802 C800 1.384 . S
C802 C803 1.372 . S
C803 C802 1.372 . S
C803 C804 1.400 . S
C803 C808 1.490 . S
C804 H794 0.930 . S
C804 C803 1.400 . S
C804 C807 1.386 . S
H805 C821 0.930 . S
H806 C822 0.931 . S
C807 H795 0.929 . S
C807 C801 1.390 . S
C807 C804 1.386 . S
C808 C803 1.490 . S
C808 C810 1.395 . S
C808 C811 1.403 . S
H809 C815 0.930 . S
C810 H796 0.930 . S
C810 C808 1.395 . S
C810 C813 1.403 . S
C811 C808 1.403 . S
C811 C812 1.524 . S
C811 C815 1.400 . S
C812 H797 0.960 . S
C812 H798 0.960 . S
C812 H799 0.960 . S
C812 C811 1.524 . S
C813 C810 1.403 . S
C813 C814 1.392 . S
C813 C817 1.495 . S
C814 C813 1.392 . S
C814 C815 1.385 . S
C814 C816 1.478 . S
C815 H809 0.930 . S
C815 C811 1.400 . S
C815 C814 1.385 . S
C816 C814 1.478 . S
C816 C818 1.381 . S
C816 C822 1.383 . S
C817 C813 1.495 . S
C817 H823 0.959 . S
C817 H824 0.961 . S
C817 H825 0.960 . S
C818 C816 1.381 . S
C818 C819 1.394 . S
C818 H826 0.930 . S
C819 C818 1.394 . S
C819 C820 1.383 . S
C819 H827 0.929 . S
C820 C819 1.383 . S
C820 C821 1.377 . S
C821 H805 0.930 . S
C821 C820 1.377 . S
C821 C822 1.379 . S
C822 H806 0.931 . S
C822 C816 1.383 . S
C822 C821 1.379 . S
H823 C817 0.959 . S
H824 C817 0.961 . S
H825 C817 0.960 . S
H826 C818 0.930 . S
H827 C819 0.929 . S
H828 C836 0.929 . S
H829 C838 0.930 . S
H830 C840 0.930 . S
H831 C843 0.929 . S
H832 C846 0.930 . S
H833 C848 0.960 . S
H834 C848 0.960 . S
H835 C848 0.960 . S
C836 H828 0.929 . S
C836 C837 1.377 . S
C836 C838 1.384 . S
C837 C836 1.377 . S
C837 C843 1.390 . S
C838 H829 0.930 . S
C838 C836 1.384 . S
C838 C839 1.372 . S
C839 C838 1.372 . S
C839 C840 1.400 . S
C839 C844 1.490 . S
C840 H830 0.930 . S
C840 C839 1.400 . S
C840 C843 1.386 . S
H841 C857 0.930 . S
H842 C858 0.931 . S
C843 H831 0.929 . S
C843 C837 1.390 . S
C843 C840 1.386 . S
C844 C839 1.490 . S
C844 C846 1.395 . S
C844 C847 1.403 . S
H845 C851 0.930 . S
C846 H832 0.930 . S
C846 C844 1.395 . S
C846 C849 1.403 . S
C847 C844 1.403 . S
C847 C848 1.524 . S
C847 C851 1.400 . S
C848 H833 0.960 . S
C848 H834 0.960 . S
C848 H835 0.960 . S
C848 C847 1.524 . S
C849 C846 1.403 . S
C849 C850 1.392 . S
C849 C853 1.495 . S
C850 C849 1.392 . S
C850 C851 1.385 . S
C850 C852 1.478 . S
C851 H845 0.930 . S
C851 C847 1.400 . S
C851 C850 1.385 . S
C852 C850 1.478 . S
C852 C854 1.381 . S
C852 C858 1.383 . S
C853 C849 1.495 . S
C853 H859 0.959 . S
C853 H860 0.961 . S
C853 H861 0.960 . S
C854 C852 1.381 . S
C854 C855 1.394 . S
C854 H862 0.930 . S
C855 C854 1.394 . S
C855 C856 1.383 . S
C855 H863 0.929 . S
C856 C855 1.383 . S
C856 C857 1.377 . S
C857 H841 0.930 . S
C857 C856 1.377 . S
C857 C858 1.379 . S
C858 H842 0.931 . S
C858 C852 1.383 . S
C858 C857 1.379 . S
H859 C853 0.959 . S
H860 C853 0.961 . S
H861 C853 0.960 . S
H862 C854 0.930 . S
H863 C855 0.929 . S
H864 C872 0.929 . S
H865 C874 0.930 . S
H866 C876 0.930 . S
H867 C879 0.929 . S
H868 C882 0.930 . S
H869 C884 0.960 . S
H870 C884 0.960 . S
H871 C884 0.960 . S
C872 H864 0.929 . S
C872 C873 1.377 . S
C872 C874 1.384 . S
C873 C872 1.377 . S
C873 C879 1.390 . S
C874 H865 0.930 . S
C874 C872 1.384 . S
C874 C875 1.372 . S
C875 C874 1.372 . S
C875 C876 1.400 . S
C875 C880 1.490 . S
C876 H866 0.930 . S
C876 C875 1.400 . S
C876 C879 1.386 . S
H877 C893 0.930 . S
H878 C894 0.931 . S
C879 H867 0.929 . S
C879 C873 1.390 . S
C879 C876 1.386 . S
C880 C875 1.490 . S
C880 C882 1.395 . S
C880 C883 1.403 . S
H881 C887 0.930 . S
C882 H868 0.930 . S
C882 C880 1.395 . S
C882 C885 1.403 . S
C883 C880 1.403 . S
C883 C884 1.524 . S
C883 C887 1.400 . S
C884 H869 0.960 . S
C884 H870 0.960 . S
C884 H871 0.960 . S
C884 C883 1.524 . S
C885 C882 1.403 . S
C885 C886 1.392 . S
C885 C889 1.495 . S
C886 C885 1.392 . S
C886 C887 1.385 . S
C886 C888 1.478 . S
C887 H881 0.930 . S
C887 C883 1.400 . S
C887 C886 1.385 . S
C888 C886 1.478 . S
C888 C890 1.381 . S
C888 C894 1.383 . S
C889 C885 1.495 . S
C889 H895 0.959 . S
C889 H896 0.961 . S
C889 H897 0.960 . S
C890 C888 1.381 . S
C890 C891 1.394 . S
C890 H898 0.930 . S
C891 C890 1.394 . S
C891 C892 1.383 . S
C891 H899 0.929 . S
C892 C891 1.383 . S
C892 C893 1.377 . S
C893 H877 0.930 . S
C893 C892 1.377 . S
C893 C894 1.379 . S
C894 H878 0.931 . S
C894 C888 1.383 . S
C894 C893 1.379 . S
H895 C889 0.959 . S
H896 C889 0.961 . S
H897 C889 0.960 . S
H898 C890 0.930 . S
H899 C891 0.929 . S
H900 C908 0.929 . S
H901 C910 0.930 . S
H902 C912 0.930 . S
H903 C915 0.929 . S
H904 C918 0.930 . S
H905 C920 0.960 . S
H906 C920 0.960 . S
H907 C920 0.960 . S
C908 H900 0.929 . S
C908 C909 1.377 . S
C908 C910 1.384 . S
C909 C908 1.377 . S
C909 C915 1.390 . S
C910 H901 0.930 . S
C910 C908 1.384 . S
C910 C911 1.372 . S
C911 C910 1.372 . S
C911 C912 1.400 . S
C911 C916 1.490 . S
C912 H902 0.930 . S
C912 C911 1.400 . S
C912 C915 1.386 . S
H913 C929 0.930 . S
H914 C930 0.931 . S
C915 H903 0.929 . S
C915 C909 1.390 . S
C915 C912 1.386 . S
C916 C911 1.490 . S
C916 C918 1.395 . S
C916 C919 1.403 . S
H917 C923 0.930 . S
C918 H904 0.930 . S
C918 C916 1.395 . S
C918 C921 1.403 . S
C919 C916 1.403 . S
C919 C920 1.524 . S
C919 C923 1.400 . S
C920 H905 0.960 . S
C920 H906 0.960 . S
C920 H907 0.960 . S
C920 C919 1.524 . S
C921 C918 1.403 . S
C921 C922 1.392 . S
C921 C925 1.495 . S
C922 C921 1.392 . S
C922 C923 1.385 . S
C922 C924 1.478 . S
C923 H917 0.930 . S
C923 C919 1.400 . S
C923 C922 1.385 . S
C924 C922 1.478 . S
C924 C926 1.381 . S
C924 C930 1.383 . S
C925 C921 1.495 . S
C925 H931 0.959 . S
C925 H932 0.961 . S
C925 H933 0.960 . S
C926 C924 1.381 . S
C926 C927 1.394 . S
C926 H934 0.930 . S
C927 C926 1.394 . S
C927 C928 1.383 . S
C927 H935 0.929 . S
C928 C927 1.383 . S
C928 C929 1.377 . S
C929 H913 0.930 . S
C929 C928 1.377 . S
C929 C930 1.379 . S
C930 H914 0.931 . S
C930 C924 1.383 . S
C930 C929 1.379 . S
H931 C925 0.959 . S
H932 C925 0.961 . S
H933 C925 0.960 . S
H934 C926 0.930 . S
H935 C927 0.929 . S
H936 C944 0.929 . S
H937 C946 0.930 . S
H938 C948 0.930 . S
H939 C951 0.929 . S
H940 C954 0.930 . S
H941 C956 0.960 . S
H942 C956 0.960 . S
H943 C956 0.960 . S
C944 H936 0.929 . S
C944 C945 1.377 . S
C944 C946 1.384 . S
C945 C944 1.377 . S
C945 C951 1.390 . S
C946 H937 0.930 . S
C946 C944 1.384 . S
C946 C947 1.372 . S
C947 C946 1.372 . S
C947 C948 1.400 . S
C947 C952 1.490 . S
C948 H938 0.930 . S
C948 C947 1.400 . S
C948 C951 1.386 . S
H949 C965 0.930 . S
H950 C966 0.931 . S
C951 H939 0.929 . S
C951 C945 1.390 . S
C951 C948 1.386 . S
C952 C947 1.490 . S
C952 C954 1.395 . S
C952 C955 1.403 . S
H953 C959 0.930 . S
C954 H940 0.930 . S
C954 C952 1.395 . S
C954 C957 1.403 . S
C955 C952 1.403 . S
C955 C956 1.524 . S
C955 C959 1.400 . S
C956 H941 0.960 . S
C956 H942 0.960 . S
C956 H943 0.960 . S
C956 C955 1.524 . S
C957 C954 1.403 . S
C957 C958 1.392 . S
C957 C961 1.495 . S
C958 C957 1.392 . S
C958 C959 1.385 . S
C958 C960 1.478 . S
C959 H953 0.930 . S
C959 C955 1.400 . S
C959 C958 1.385 . S
C960 C958 1.478 . S
C960 C962 1.381 . S
C960 C966 1.383 . S
C961 C957 1.495 . S
C961 H967 0.959 . S
C961 H968 0.961 . S
C961 H969 0.960 . S
C962 C960 1.381 . S
C962 C963 1.394 . S
C962 H970 0.930 . S
C963 C962 1.394 . S
C963 C964 1.383 . S
C963 H971 0.929 . S
C964 C963 1.383 . S
C964 C965 1.377 . S
C965 H949 0.930 . S
C965 C964 1.377 . S
C965 C966 1.379 . S
C966 H950 0.931 . S
C966 C960 1.383 . S
C966 C965 1.379 . S
H967 C961 0.959 . S
H968 C961 0.961 . S
H969 C961 0.960 . S
H970 C962 0.930 . S
H971 C963 0.929 . S
H972 C980 0.929 . S
H973 C982 0.930 . S
H974 C984 0.930 . S
H975 C987 0.929 . S
H976 C990 0.930 . S
H977 C992 0.960 . S
H978 C992 0.960 . S
H979 C992 0.960 . S
C980 H972 0.929 . S
C980 C981 1.377 . S
C980 C982 1.384 . S
C981 C980 1.377 . S
C981 C987 1.390 . S
C982 H973 0.930 . S
C982 C980 1.384 . S
C982 C983 1.372 . S
C983 C982 1.372 . S
C983 C984 1.400 . S
C983 C988 1.490 . S
C984 H974 0.930 . S
C984 C983 1.400 . S
C984 C987 1.386 . S
H985 C1001 0.930 . S
H986 C1002 0.931 . S
C987 H975 0.929 . S
C987 C981 1.390 . S
C987 C984 1.386 . S
C988 C983 1.490 . S
C988 C990 1.395 . S
C988 C991 1.403 . S
H989 C995 0.930 . S
C990 H976 0.930 . S
C990 C988 1.395 . S
C990 C993 1.403 . S
C991 C988 1.403 . S
C991 C992 1.524 . S
C991 C995 1.400 . S
C992 H977 0.960 . S
C992 H978 0.960 . S
C992 H979 0.960 . S
C992 C991 1.524 . S
C993 C990 1.403 . S
C993 C994 1.392 . S
C993 C997 1.495 . S
C994 C993 1.392 . S
C994 C995 1.385 . S
C994 C996 1.478 . S
C995 H989 0.930 . S
C995 C991 1.400 . S
C995 C994 1.385 . S
C996 C994 1.478 . S
C996 C998 1.381 . S
C996 C1002 1.383 . S
C997 C993 1.495 . S
C997 H1003 0.959 . S
C997 H1004 0.961 . S
C997 H1005 0.960 . S
C998 C996 1.381 . S
C998 C999 1.394 . S
C998 H1006 0.930 . S
C999 C998 1.394 . S
C999 C1000 1.383 . S
C999 H1007 0.929 . S
C1000 C999 1.383 . S
C1000 C1001 1.377 . S
C1001 H985 0.930 . S
C1001 C1000 1.377 . S
C1001 C1002 1.379 . S
C1002 H986 0.931 . S
C1002 C996 1.383 . S
C1002 C1001 1.379 . S
H1003 C997 0.959 . S
H1004 C997 0.961 . S
H1005 C997 0.960 . S
H1006 C998 0.930 . S
H1007 C999 0.929 . S
H1008 C1016 0.929 . S
H1009 C1018 0.930 . S
H1010 C1020 0.930 . S
H1011 C1023 0.929 . S
H1012 C1026 0.930 . S
H1013 C1028 0.960 . S
H1014 C1028 0.960 . S
H1015 C1028 0.960 . S
C1016 H1008 0.929 . S
C1016 C1017 1.377 . S
C1016 C1018 1.384 . S
C1017 C1016 1.377 . S
C1017 C1023 1.390 . S
C1018 H1009 0.930 . S
C1018 C1016 1.384 . S
C1018 C1019 1.372 . S
C1019 C1018 1.372 . S
C1019 C1020 1.400 . S
C1019 C1024 1.490 . S
C1020 H1010 0.930 . S
C1020 C1019 1.400 . S
C1020 C1023 1.386 . S
H1021 C1037 0.930 . S
H1022 C1038 0.931 . S
C1023 H1011 0.929 . S
C1023 C1017 1.390 . S
C1023 C1020 1.386 . S
C1024 C1019 1.490 . S
C1024 C1026 1.395 . S
C1024 C1027 1.403 . S
H1025 C1031 0.930 . S
C1026 H1012 0.930 . S
C1026 C1024 1.395 . S
C1026 C1029 1.403 . S
C1027 C1024 1.403 . S
C1027 C1028 1.524 . S
C1027 C1031 1.400 . S
C1028 H1013 0.960 . S
C1028 H1014 0.960 . S
C1028 H1015 0.960 . S
C1028 C1027 1.524 . S
C1029 C1026 1.403 . S
C1029 C1030 1.392 . S
C1029 C1033 1.495 . S
C1030 C1029 1.392 . S
C1030 C1031 1.385 . S
C1030 C1032 1.478 . S
C1031 H1025 0.930 . S
C1031 C1027 1.400 . S
C1031 C1030 1.385 . S
C1032 C1030 1.478 . S
C1032 C1034 1.381 . S
C1032 C1038 1.383 . S
C1033 C1029 1.495 . S
C1033 H1039 0.959 . S
C1033 H1040 0.961 . S
C1033 H1041 0.960 . S
C1034 C1032 1.381 . S
C1034 C1035 1.394 . S
C1034 H1042 0.930 . S
C1035 C1034 1.394 . S
C1035 C1036 1.383 . S
C1035 H1043 0.929 . S
C1036 C1035 1.383 . S
C1036 C1037 1.377 . S
C1037 H1021 0.930 . S
C1037 C1036 1.377 . S
C1037 C1038 1.379 . S
C1038 H1022 0.931 . S
C1038 C1032 1.383 . S
C1038 C1037 1.379 . S
H1039 C1033 0.959 . S
H1040 C1033 0.961 . S
H1041 C1033 0.960 . S
H1042 C1034 0.930 . S
H1043 C1035 0.929 . S
H1044 C1052 0.929 . S
H1045 C1054 0.930 . S
H1046 C1056 0.930 . S
H1047 C1059 0.929 . S
H1048 C1062 0.930 . S
H1049 C1064 0.960 . S
H1050 C1064 0.960 . S
H1051 C1064 0.960 . S
C1052 H1044 0.929 . S
C1052 C1053 1.377 . S
C1052 C1054 1.384 . S
C1053 C1052 1.377 . S
C1053 C1059 1.390 . S
C1054 H1045 0.930 . S
C1054 C1052 1.384 . S
C1054 C1055 1.372 . S
C1055 C1054 1.372 . S
C1055 C1056 1.400 . S
C1055 C1060 1.490 . S
C1056 H1046 0.930 . S
C1056 C1055 1.400 . S
C1056 C1059 1.386 . S
H1057 C1073 0.930 . S
H1058 C1074 0.931 . S
C1059 H1047 0.929 . S
C1059 C1053 1.390 . S
C1059 C1056 1.386 . S
C1060 C1055 1.490 . S
C1060 C1062 1.395 . S
C1060 C1063 1.403 . S
H1061 C1067 0.930 . S
C1062 H1048 0.930 . S
C1062 C1060 1.395 . S
C1062 C1065 1.403 . S
C1063 C1060 1.403 . S
C1063 C1064 1.524 . S
C1063 C1067 1.400 . S
C1064 H1049 0.960 . S
C1064 H1050 0.960 . S
C1064 H1051 0.960 . S
C1064 C1063 1.524 . S
C1065 C1062 1.403 . S
C1065 C1066 1.392 . S
C1065 C1069 1.495 . S
C1066 C1065 1.392 . S
C1066 C1067 1.385 . S
C1066 C1068 1.478 . S
C1067 H1061 0.930 . S
C1067 C1063 1.400 . S
C1067 C1066 1.385 . S
C1068 C1066 1.478 . S
C1068 C1070 1.381 . S
C1068 C1074 1.383 . S
C1069 C1065 1.495 . S
C1069 H1075 0.959 . S
C1069 H1076 0.961 . S
C1069 H1077 0.960 . S
C1070 C1068 1.381 . S
C1070 C1071 1.394 . S
C1070 H1078 0.930 . S
C1071 C1070 1.394 . S
C1071 C1072 1.383 . S
C1071 H1079 0.929 . S
C1072 C1071 1.383 . S
C1072 C1073 1.377 . S
C1073 H1057 0.930 . S
C1073 C1072 1.377 . S
C1073 C1074 1.379 . S
C1074 H1058 0.931 . S
C1074 C1068 1.383 . S
C1074 C1073 1.379 . S
H1075 C1069 0.959 . S
H1076 C1069 0.961 . S
H1077 C1069 0.960 . S
H1078 C1070 0.930 . S
H1079 C1071 0.929 . S
H1080 C1088 0.929 . S
H1081 C1090 0.930 . S
H1082 C1092 0.930 . S
H1083 C1095 0.929 . S
H1084 C1098 0.930 . S
H1085 C1100 0.960 . S
H1086 C1100 0.960 . S
H1087 C1100 0.960 . S
C1088 H1080 0.929 . S
C1088 C1089 1.377 . S
C1088 C1090 1.384 . S
C1089 C1088 1.377 . S
C1089 C1095 1.390 . S
C1090 H1081 0.930 . S
C1090 C1088 1.384 . S
C1090 C1091 1.372 . S
C1091 C1090 1.372 . S
C1091 C1092 1.400 . S
C1091 C1096 1.490 . S
C1092 H1082 0.930 . S
C1092 C1091 1.400 . S
C1092 C1095 1.386 . S
H1093 C1109 0.930 . S
H1094 C1110 0.931 . S
C1095 H1083 0.929 . S
C1095 C1089 1.390 . S
C1095 C1092 1.386 . S
C1096 C1091 1.490 . S
C1096 C1098 1.395 . S
C1096 C1099 1.403 . S
H1097 C1103 0.930 . S
C1098 H1084 0.930 . S
C1098 C1096 1.395 . S
C1098 C1101 1.403 . S
C1099 C1096 1.403 . S
C1099 C1100 1.524 . S
C1099 C1103 1.400 . S
C1100 H1085 0.960 . S
C1100 H1086 0.960 . S
C1100 H1087 0.960 . S
C1100 C1099 1.524 . S
C1101 C1098 1.403 . S
C1101 C1102 1.392 . S
C1101 C1105 1.495 . S
C1102 C1101 1.392 . S
C1102 C1103 1.385 . S
C1102 C1104 1.478 . S
C1103 H1097 0.930 . S
C1103 C1099 1.400 . S
C1103 C1102 1.385 . S
C1104 C1102 1.478 . S
C1104 C1106 1.381 . S
C1104 C1110 1.383 . S
C1105 C1101 1.495 . S
C1105 H1111 0.959 . S
C1105 H1112 0.961 . S
C1105 H1113 0.960 . S
C1106 C1104 1.381 . S
C1106 C1107 1.394 . S
C1106 H1114 0.930 . S
C1107 C1106 1.394 . S
C1107 C1108 1.383 . S
C1107 H1115 0.929 . S
C1108 C1107 1.383 . S
C1108 C1109 1.377 . S
C1109 H1093 0.930 . S
C1109 C1108 1.377 . S
C1109 C1110 1.379 . S
C1110 H1094 0.931 . S
C1110 C1104 1.383 . S
C1110 C1109 1.379 . S
H1111 C1105 0.959 . S
H1112 C1105 0.961 . S
H1113 C1105 0.960 . S
H1114 C1106 0.930 . S
H1115 C1107 0.929 . S
H1116 C1124 0.929 . S
H1117 C1126 0.930 . S
H1118 C1128 0.930 . S
H1119 C1131 0.929 . S
H1120 C1134 0.930 . S
H1121 C1136 0.960 . S
H1122 C1136 0.960 . S
H1123 C1136 0.960 . S
C1124 H1116 0.929 . S
C1124 C1125 1.377 . S
C1124 C1126 1.384 . S
C1125 C1124 1.377 . S
C1125 C1131 1.390 . S
C1126 H1117 0.930 . S
C1126 C1124 1.384 . S
C1126 C1127 1.372 . S
C1127 C1126 1.372 . S
C1127 C1128 1.400 . S
C1127 C1132 1.490 . S
C1128 H1118 0.930 . S
C1128 C1127 1.400 . S
C1128 C1131 1.386 . S
H1129 C1145 0.930 . S
H1130 C1146 0.931 . S
C1131 H1119 0.929 . S
C1131 C1125 1.390 . S
C1131 C1128 1.386 . S
C1132 C1127 1.490 . S
C1132 C1134 1.395 . S
C1132 C1135 1.403 . S
H1133 C1139 0.930 . S
C1134 H1120 0.930 . S
C1134 C1132 1.395 . S
C1134 C1137 1.403 . S
C1135 C1132 1.403 . S
C1135 C1136 1.524 . S
C1135 C1139 1.400 . S
C1136 H1121 0.960 . S
C1136 H1122 0.960 . S
C1136 H1123 0.960 . S
C1136 C1135 1.524 . S
C1137 C1134 1.403 . S
C1137 C1138 1.392 . S
C1137 C1141 1.495 . S
C1138 C1137 1.392 . S
C1138 C1139 1.385 . S
C1138 C1140 1.478 . S
C1139 H1133 0.930 . S
C1139 C1135 1.400 . S
C1139 C1138 1.385 . S
C1140 C1138 1.478 . S
C1140 C1142 1.381 . S
C1140 C1146 1.383 . S
C1141 C1137 1.495 . S
C1141 H1147 0.959 . S
C1141 H1148 0.961 . S
C1141 H1149 0.960 . S
C1142 C1140 1.381 . S
C1142 C1143 1.394 . S
C1142 H1150 0.930 . S
C1143 C1142 1.394 . S
C1143 C1144 1.383 . S
C1143 H1151 0.929 . S
C1144 C1143 1.383 . S
C1144 C1145 1.377 . S
C1145 H1129 0.930 . S
C1145 C1144 1.377 . S
C1145 C1146 1.379 . S
C1146 H1130 0.931 . S
C1146 C1140 1.383 . S
C1146 C1145 1.379 . S
H1147 C1141 0.959 . S
H1148 C1141 0.961 . S
H1149 C1141 0.960 . S
H1150 C1142 0.930 . S
H1151 C1143 0.929 . S
H1152 C1160 0.929 . S
H1153 C1162 0.930 . S
H1154 C1164 0.930 . S
H1155 C1167 0.929 . S
H1156 C1170 0.930 . S
H1157 C1172 0.960 . S
H1158 C1172 0.960 . S
H1159 C1172 0.960 . S
C1160 H1152 0.929 . S
C1160 C1161 1.377 . S
C1160 C1162 1.384 . S
C1161 C1160 1.377 . S
C1161 C1167 1.390 . S
C1162 H1153 0.930 . S
C1162 C1160 1.384 . S
C1162 C1163 1.372 . S
C1163 C1162 1.372 . S
C1163 C1164 1.400 . S
C1163 C1168 1.490 1_455 S
C1164 H1154 0.930 . S
C1164 C1163 1.400 . S
C1164 C1167 1.386 . S
H1165 C1181 0.930 . S
H1166 C1182 0.931 . S
C1167 H1155 0.929 . S
C1167 C1161 1.390 . S
C1167 C1164 1.386 . S
C1168 C1163 1.490 1_655 S
C1168 C1170 1.395 . S
C1168 C1171 1.403 1_655 S
H1169 C1175 0.930 . S
C1170 H1156 0.930 . S
C1170 C1168 1.395 . S
C1170 C1173 1.403 . S
C1171 C1168 1.403 1_455 S
C1171 C1172 1.524 . S
C1171 C1175 1.400 . S
C1172 H1157 0.960 . S
C1172 H1158 0.960 . S
C1172 H1159 0.960 . S
C1172 C1171 1.524 . S
C1173 C1170 1.403 . S
C1173 C1174 1.392 . S
C1173 C1177 1.495 . S
C1174 C1173 1.392 . S
C1174 C1175 1.385 1_655 S
C1174 C1176 1.478 . S
C1175 H1169 0.930 . S
C1175 C1171 1.400 . S
C1175 C1174 1.385 1_455 S
C1176 C1174 1.478 . S
C1176 C1178 1.381 . S
C1176 C1182 1.383 . S
C1177 C1173 1.495 . S
C1177 H1183 0.959 . S
C1177 H1184 0.961 . S
C1177 H1185 0.960 . S
C1178 C1176 1.381 . S
C1178 C1179 1.394 . S
C1178 H1186 0.930 . S
C1179 C1178 1.394 . S
C1179 C1180 1.383 . S
C1179 H1187 0.929 . S
C1180 C1179 1.383 . S
C1180 C1181 1.377 . S
C1181 H1165 0.930 . S
C1181 C1180 1.377 . S
C1181 C1182 1.379 . S
C1182 H1166 0.931 . S
C1182 C1176 1.383 . S
C1182 C1181 1.379 . S
H1183 C1177 0.959 . S
H1184 C1177 0.961 . S
H1185 C1177 0.960 . S
H1186 C1178 0.930 . S
H1187 C1179 0.929 . S
H1188 C1196 0.929 . S
H1189 C1198 0.930 . S
H1190 C1200 0.930 . S
H1191 C1203 0.929 . S
H1192 C1206 0.930 . S
H1193 C1208 0.960 . S
H1194 C1208 0.960 . S
H1195 C1208 0.960 . S
C1196 H1188 0.929 . S
C1196 C1197 1.377 . S
C1196 C1198 1.384 . S
C1197 C1196 1.377 . S
C1197 C1203 1.390 . S
C1198 H1189 0.930 . S
C1198 C1196 1.384 . S
C1198 C1199 1.372 . S
C1199 C1198 1.372 . S
C1199 C1200 1.400 . S
C1199 C1204 1.490 . S
C1200 H1190 0.930 . S
C1200 C1199 1.400 . S
C1200 C1203 1.386 . S
H1201 C1217 0.930 . S
H1202 C1218 0.931 . S
C1203 H1191 0.929 . S
C1203 C1197 1.390 . S
C1203 C1200 1.386 . S
C1204 C1199 1.490 . S
C1204 C1206 1.395 . S
C1204 C1207 1.403 . S
H1205 C1211 0.930 . S
C1206 H1192 0.930 . S
C1206 C1204 1.395 . S
C1206 C1209 1.403 . S
C1207 C1204 1.403 . S
C1207 C1208 1.524 . S
C1207 C1211 1.400 . S
C1208 H1193 0.960 . S
C1208 H1194 0.960 . S
C1208 H1195 0.960 . S
C1208 C1207 1.524 . S
C1209 C1206 1.403 . S
C1209 C1210 1.392 . S
C1209 C1213 1.495 . S
C1210 C1209 1.392 . S
C1210 C1211 1.385 . S
C1210 C1212 1.478 . S
C1211 H1205 0.930 . S
C1211 C1207 1.400 . S
C1211 C1210 1.385 . S
C1212 C1210 1.478 . S
C1212 C1214 1.381 . S
C1212 C1218 1.383 . S
C1213 C1209 1.495 . S
C1213 H1219 0.959 . S
C1213 H1220 0.961 . S
C1213 H1221 0.960 . S
C1214 C1212 1.381 . S
C1214 C1215 1.394 . S
C1214 H1222 0.930 . S
C1215 C1214 1.394 . S
C1215 C1216 1.383 . S
C1215 H1223 0.929 . S
C1216 C1215 1.383 . S
C1216 C1217 1.377 . S
C1217 H1201 0.930 . S
C1217 C1216 1.377 . S
C1217 C1218 1.379 . S
C1218 H1202 0.931 . S
C1218 C1212 1.383 . S
C1218 C1217 1.379 . S
H1219 C1213 0.959 . S
H1220 C1213 0.961 . S
H1221 C1213 0.960 . S
H1222 C1214 0.930 . S
H1223 C1215 0.929 . S
H1224 C1232 0.929 . S
H1225 C1234 0.930 . S
H1226 C1236 0.930 . S
H1227 C1239 0.929 . S
H1228 C1242 0.930 . S
H1229 C1244 0.960 . S
H1230 C1244 0.960 . S
H1231 C1244 0.960 . S
C1232 H1224 0.929 . S
C1232 C1233 1.377 . S
C1232 C1234 1.384 . S
C1233 C1232 1.377 . S
C1233 C1239 1.390 . S
C1234 H1225 0.930 . S
C1234 C1232 1.384 . S
C1234 C1235 1.372 . S
C1235 C1234 1.372 . S
C1235 C1236 1.400 . S
C1235 C1240 1.490 . S
C1236 H1226 0.930 . S
C1236 C1235 1.400 . S
C1236 C1239 1.386 . S
H1237 C1253 0.930 . S
H1238 C1254 0.931 . S
C1239 H1227 0.929 . S
C1239 C1233 1.390 . S
C1239 C1236 1.386 . S
C1240 C1235 1.490 . S
C1240 C1242 1.395 . S
C1240 C1243 1.403 . S
H1241 C1247 0.930 . S
C1242 H1228 0.930 . S
C1242 C1240 1.395 . S
C1242 C1245 1.403 . S
C1243 C1240 1.403 . S
C1243 C1244 1.524 . S
C1243 C1247 1.400 . S
C1244 H1229 0.960 . S
C1244 H1230 0.960 . S
C1244 H1231 0.960 . S
C1244 C1243 1.524 . S
C1245 C1242 1.403 . S
C1245 C1246 1.392 . S
C1245 C1249 1.495 . S
C1246 C1245 1.392 . S
C1246 C1247 1.385 . S
C1246 C1248 1.478 . S
C1247 H1241 0.930 . S
C1247 C1243 1.400 . S
C1247 C1246 1.385 . S
C1248 C1246 1.478 . S
C1248 C1250 1.381 . S
C1248 C1254 1.383 . S
C1249 C1245 1.495 . S
C1249 H1255 0.959 . S
C1249 H1256 0.961 . S
C1249 H1257 0.960 . S
C1250 C1248 1.381 . S
C1250 C1251 1.394 . S
C1250 H1258 0.930 . S
C1251 C1250 1.394 . S
C1251 C1252 1.383 . S
C1251 H1259 0.929 . S
C1252 C1251 1.383 . S
C1252 C1253 1.377 . S
C1253 H1237 0.930 . S
C1253 C1252 1.377 . S
C1253 C1254 1.379 . S
C1254 H1238 0.931 . S
C1254 C1248 1.383 . S
C1254 C1253 1.379 . S
H1255 C1249 0.959 . S
H1256 C1249 0.961 . S
H1257 C1249 0.960 . S
H1258 C1250 0.930 . S
H1259 C1251 0.929 . S
H1260 C1268 0.929 . S
H1261 C1270 0.930 . S
H1262 C1272 0.933 1_565 S
H1263 C1275 0.929 . S
H1264 C1278 0.930 . S
H1265 C1280 0.960 . S
H1266 C1280 0.960 . S
H1267 C1280 0.960 . S
C1268 H1260 0.929 . S
C1268 C1269 1.377 . S
C1268 C1270 1.384 . S
C1269 C1268 1.377 . S
C1269 C1275 1.390 . S
C1270 H1261 0.930 . S
C1270 C1268 1.384 . S
C1270 C1271 1.372 . S
C1271 C1270 1.372 . S
C1271 C1272 1.374 . S
C1271 C1276 1.490 1_545 S
C1272 H1262 0.933 1_545 S
C1272 C1271 1.374 . S
C1272 C1275 1.413 . S
H1273 C1289 0.930 . S
H1274 C1290 0.931 . S
C1275 H1263 0.929 . S
C1275 C1269 1.390 . S
C1275 C1272 1.413 . S
C1276 C1271 1.490 1_565 S
C1276 C1278 1.395 . S
C1276 C1279 1.403 1_565 S
H1277 C1283 0.931 . S
C1278 H1264 0.930 . S
C1278 C1276 1.395 . S
C1278 C1281 1.403 . S
C1279 C1276 1.403 1_545 S
C1279 C1280 1.524 . S
C1279 C1283 1.401 . S
C1280 H1265 0.960 . S
C1280 H1266 0.960 . S
C1280 H1267 0.960 . S
C1280 C1279 1.524 . S
C1281 C1278 1.403 . S
C1281 C1282 1.392 . S
C1281 C1285 1.495 . S
C1282 C1281 1.392 . S
C1282 C1283 1.383 1_565 S
C1282 C1284 1.478 . S
C1283 H1277 0.931 . S
C1283 C1279 1.401 . S
C1283 C1282 1.383 1_545 S
C1284 C1282 1.478 . S
C1284 C1286 1.381 . S
C1284 C1290 1.383 . S
C1285 C1281 1.495 . S
C1285 H1291 0.959 . S
C1285 H1292 0.961 . S
C1285 H1293 0.960 . S
C1286 C1284 1.381 . S
C1286 C1287 1.394 . S
C1286 H1294 0.930 . S
C1287 C1286 1.394 . S
C1287 C1288 1.383 . S
C1287 H1295 0.929 . S
C1288 C1287 1.383 . S
C1288 C1289 1.377 . S
C1289 H1273 0.930 . S
C1289 C1288 1.377 . S
C1289 C1290 1.379 . S
C1290 H1274 0.931 . S
C1290 C1284 1.383 . S
C1290 C1289 1.379 . S
H1291 C1285 0.959 . S
H1292 C1285 0.961 . S
H1293 C1285 0.960 . S
H1294 C1286 0.930 . S
H1295 C1287 0.929 . S
H1296 C1304 0.929 . S
H1297 C1306 0.930 . S
H1298 C1308 0.930 . S
H1299 C1311 0.929 . S
H1300 C1314 0.930 . S
H1301 C1316 0.960 . S
H1302 C1316 0.960 . S
H1303 C1316 0.960 . S
C1304 H1296 0.929 . S
C1304 C1305 1.377 . S
C1304 C1306 1.384 . S
C1305 C1304 1.377 . S
C1305 C1311 1.390 . S
C1306 H1297 0.930 . S
C1306 C1304 1.384 . S
C1306 C1307 1.372 . S
C1307 C1306 1.372 . S
C1307 C1308 1.400 . S
C1307 C1312 1.490 . S
C1308 H1298 0.930 . S
C1308 C1307 1.400 . S
C1308 C1311 1.386 . S
H1309 C1325 0.930 . S
H1310 C1326 0.931 . S
C1311 H1299 0.929 . S
C1311 C1305 1.390 . S
C1311 C1308 1.386 . S
C1312 C1307 1.490 . S
C1312 C1314 1.395 . S
C1312 C1315 1.403 . S
H1313 C1319 0.930 . S
C1314 H1300 0.930 . S
C1314 C1312 1.395 . S
C1314 C1317 1.403 . S
C1315 C1312 1.403 . S
C1315 C1316 1.524 . S
C1315 C1319 1.400 . S
C1316 H1301 0.960 . S
C1316 H1302 0.960 . S
C1316 H1303 0.960 . S
C1316 C1315 1.524 . S
C1317 C1314 1.403 . S
C1317 C1318 1.392 . S
C1317 C1321 1.495 . S
C1318 C1317 1.392 . S
C1318 C1319 1.385 . S
C1318 C1320 1.478 . S
C1319 H1313 0.930 . S
C1319 C1315 1.400 . S
C1319 C1318 1.385 . S
C1320 C1318 1.478 . S
C1320 C1322 1.381 . S
C1320 C1326 1.383 . S
C1321 C1317 1.495 . S
C1321 H1327 0.959 . S
C1321 H1328 0.961 . S
C1321 H1329 0.960 . S
C1322 C1320 1.381 . S
C1322 C1323 1.394 . S
C1322 H1330 0.930 . S
C1323 C1322 1.394 . S
C1323 C1324 1.383 . S
C1323 H1331 0.929 . S
C1324 C1323 1.383 . S
C1324 C1325 1.377 . S
C1325 H1309 0.930 . S
C1325 C1324 1.377 . S
C1325 C1326 1.379 . S
C1326 H1310 0.931 . S
C1326 C1320 1.383 . S
C1326 C1325 1.379 . S
H1327 C1321 0.959 . S
H1328 C1321 0.961 . S
H1329 C1321 0.960 . S
H1330 C1322 0.930 . S
H1331 C1323 0.929 . S
H1332 C1340 0.929 . S
H1333 C1342 0.930 . S
H1334 C1344 0.930 . S
H1335 C1347 0.929 . S
H1336 C1350 0.930 . S
H1337 C1352 0.960 . S
H1338 C1352 0.960 . S
H1339 C1352 0.960 . S
C1340 H1332 0.929 . S
C1340 C1341 1.377 . S
C1340 C1342 1.384 . S
C1341 C1340 1.377 . S
C1341 C1347 1.390 . S
C1342 H1333 0.930 . S
C1342 C1340 1.384 . S
C1342 C1343 1.372 . S
C1343 C1342 1.372 . S
C1343 C1344 1.400 . S
C1343 C1348 1.490 . S
C1344 H1334 0.930 . S
C1344 C1343 1.400 . S
C1344 C1347 1.386 . S
H1345 C1361 0.930 . S
H1346 C1362 0.931 . S
C1347 H1335 0.929 . S
C1347 C1341 1.390 . S
C1347 C1344 1.386 . S
C1348 C1343 1.490 . S
C1348 C1350 1.395 . S
C1348 C1351 1.403 . S
H1349 C1355 0.930 . S
C1350 H1336 0.930 . S
C1350 C1348 1.395 . S
C1350 C1353 1.403 . S
C1351 C1348 1.403 . S
C1351 C1352 1.524 . S
C1351 C1355 1.400 . S
C1352 H1337 0.960 . S
C1352 H1338 0.960 . S
C1352 H1339 0.960 . S
C1352 C1351 1.524 . S
C1353 C1350 1.403 . S
C1353 C1354 1.392 . S
C1353 C1357 1.495 . S
C1354 C1353 1.392 . S
C1354 C1355 1.385 . S
C1354 C1356 1.478 . S
C1355 H1349 0.930 . S
C1355 C1351 1.400 . S
C1355 C1354 1.385 . S
C1356 C1354 1.478 . S
C1356 C1358 1.381 . S
C1356 C1362 1.383 . S
C1357 C1353 1.495 . S
C1357 H1363 0.959 . S
C1357 H1364 0.961 . S
C1357 H1365 0.960 . S
C1358 C1356 1.381 . S
C1358 C1359 1.394 . S
C1358 H1366 0.930 . S
C1359 C1358 1.394 . S
C1359 C1360 1.383 . S
C1359 H1367 0.929 . S
C1360 C1359 1.383 . S
C1360 C1361 1.377 . S
C1361 H1345 0.930 . S
C1361 C1360 1.377 . S
C1361 C1362 1.379 . S
C1362 H1346 0.931 . S
C1362 C1356 1.383 . S
C1362 C1361 1.379 . S
H1363 C1357 0.959 . S
H1364 C1357 0.961 . S
H1365 C1357 0.960 . S
H1366 C1358 0.930 . S
H1367 C1359 0.929 . S
H1368 C1376 0.929 . S
H1369 C1378 0.930 . S
H1370 C1380 0.930 . S
H1371 C1383 0.929 . S
H1372 C1386 0.930 . S
H1373 C1388 0.960 . S
H1374 C1388 0.960 . S
H1375 C1388 0.960 . S
C1376 H1368 0.929 . S
C1376 C1377 1.377 . S
C1376 C1378 1.384 . S
C1377 C1376 1.377 . S
C1377 C1383 1.390 . S
C1378 H1369 0.930 . S
C1378 C1376 1.384 . S
C1378 C1379 1.372 . S
C1379 C1378 1.372 . S
C1379 C1380 1.400 . S
C1379 C1384 1.490 . S
C1380 H1370 0.930 . S
C1380 C1379 1.400 . S
C1380 C1383 1.386 . S
H1381 C1397 0.930 . S
H1382 C1398 0.931 . S
C1383 H1371 0.929 . S
C1383 C1377 1.390 . S
C1383 C1380 1.386 . S
C1384 C1379 1.490 . S
C1384 C1386 1.395 . S
C1384 C1387 1.403 . S
H1385 C1391 0.930 . S
C1386 H1372 0.930 . S
C1386 C1384 1.395 . S
C1386 C1389 1.403 . S
C1387 C1384 1.403 . S
C1387 C1388 1.524 . S
C1387 C1391 1.400 . S
C1388 H1373 0.960 . S
C1388 H1374 0.960 . S
C1388 H1375 0.960 . S
C1388 C1387 1.524 . S
C1389 C1386 1.403 . S
C1389 C1390 1.392 . S
C1389 C1393 1.495 . S
C1390 C1389 1.392 . S
C1390 C1391 1.385 . S
C1390 C1392 1.478 . S
C1391 H1385 0.930 . S
C1391 C1387 1.400 . S
C1391 C1390 1.385 . S
C1392 C1390 1.478 . S
C1392 C1394 1.381 . S
C1392 C1398 1.383 . S
C1393 C1389 1.495 . S
C1393 H1399 0.959 . S
C1393 H1400 0.961 . S
C1393 H1401 0.960 . S
C1394 C1392 1.381 . S
C1394 C1395 1.394 . S
C1394 H1402 0.930 . S
C1395 C1394 1.394 . S
C1395 C1396 1.383 . S
C1395 H1403 0.929 . S
C1396 C1395 1.383 . S
C1396 C1397 1.377 . S
C1397 H1381 0.930 . S
C1397 C1396 1.377 . S
C1397 C1398 1.379 . S
C1398 H1382 0.931 . S
C1398 C1392 1.383 . S
C1398 C1397 1.379 . S
H1399 C1393 0.959 . S
H1400 C1393 0.961 . S
H1401 C1393 0.960 . S
H1402 C1394 0.930 . S
H1403 C1395 0.929 . S
H1404 C1412 0.929 . S
H1405 C1414 0.930 . S
H1406 C1416 0.930 . S
H1407 C1419 0.929 . S
H1408 C1422 0.930 . S
H1409 C1424 0.960 . S
H1410 C1424 0.960 . S
H1411 C1424 0.960 . S
C1412 H1404 0.929 . S
C1412 C1413 1.377 . S
C1412 C1414 1.384 . S
C1413 C1412 1.377 . S
C1413 C1419 1.390 . S
C1414 H1405 0.930 . S
C1414 C1412 1.384 . S
C1414 C1415 1.372 . S
C1415 C1414 1.372 . S
C1415 C1416 1.400 . S
C1415 C1420 1.490 . S
C1416 H1406 0.930 . S
C1416 C1415 1.400 . S
C1416 C1419 1.386 . S
H1417 C1433 0.930 . S
H1418 C1434 0.931 . S
C1419 H1407 0.929 . S
C1419 C1413 1.390 . S
C1419 C1416 1.386 . S
C1420 C1415 1.490 . S
C1420 C1422 1.395 . S
C1420 C1423 1.403 . S
H1421 C1427 0.930 . S
C1422 H1408 0.930 . S
C1422 C1420 1.395 . S
C1422 C1425 1.403 . S
C1423 C1420 1.403 . S
C1423 C1424 1.524 . S
C1423 C1427 1.400 . S
C1424 H1409 0.960 . S
C1424 H1410 0.960 . S
C1424 H1411 0.960 . S
C1424 C1423 1.524 . S
C1425 C1422 1.403 . S
C1425 C1426 1.392 . S
C1425 C1429 1.495 . S
C1426 C1425 1.392 . S
C1426 C1427 1.385 . S
C1426 C1428 1.478 . S
C1427 H1421 0.930 . S
C1427 C1423 1.400 . S
C1427 C1426 1.385 . S
C1428 C1426 1.478 . S
C1428 C1430 1.381 . S
C1428 C1434 1.383 . S
C1429 C1425 1.495 . S
C1429 H1435 0.959 . S
C1429 H1436 0.961 . S
C1429 H1437 0.960 . S
C1430 C1428 1.381 . S
C1430 C1431 1.394 . S
C1430 H1438 0.930 . S
C1431 C1430 1.394 . S
C1431 C1432 1.383 . S
C1431 H1439 0.929 . S
C1432 C1431 1.383 . S
C1432 C1433 1.377 . S
C1433 H1417 0.930 . S
C1433 C1432 1.377 . S
C1433 C1434 1.379 . S
C1434 H1418 0.931 . S
C1434 C1428 1.383 . S
C1434 C1433 1.379 . S
H1435 C1429 0.959 . S
H1436 C1429 0.961 . S
H1437 C1429 0.960 . S
H1438 C1430 0.930 . S
H1439 C1431 0.929 . S
H1440 C1448 0.929 . S
H1441 C1450 0.930 . S
H1442 C1452 0.930 . S
H1443 C1455 0.929 . S
H1444 C1458 0.930 . S
H1445 C1460 0.960 . S
H1446 C1460 0.960 1_545 S
H1447 C1460 0.960 . S
C1448 H1440 0.929 . S
C1448 C1449 1.377 . S
C1448 C1450 1.384 . S
C1449 C1448 1.377 . S
C1449 C1455 1.390 1_545 S
C1450 H1441 0.930 . S
C1450 C1448 1.384 . S
C1450 C1451 1.372 . S
C1451 C1450 1.372 . S
C1451 C1452 1.400 1_545 S
C1451 C1456 1.490 1_545 S
C1452 H1442 0.930 . S
C1452 C1451 1.400 1_565 S
C1452 C1455 1.386 . S
H1453 C1469 0.930 . S
H1454 C1470 0.931 . S
C1455 H1443 0.929 . S
C1455 C1449 1.390 1_565 S
C1455 C1452 1.386 . S
C1456 C1451 1.490 1_565 S
C1456 C1458 1.395 . S
C1456 C1459 1.403 . S
H1457 C1463 0.930 . S
C1458 H1444 0.930 . S
C1458 C1456 1.395 . S
C1458 C1461 1.403 . S
C1459 C1456 1.403 . S
C1459 C1460 1.524 . S
C1459 C1463 1.400 . S
C1460 H1445 0.960 . S
C1460 H1446 0.960 1_565 S
C1460 H1447 0.960 . S
C1460 C1459 1.524 . S
C1461 C1458 1.403 . S
C1461 C1462 1.392 . S
C1461 C1465 1.495 . S
C1462 C1461 1.392 . S
C1462 C1463 1.385 . S
C1462 C1464 1.478 . S
C1463 H1457 0.930 . S
C1463 C1459 1.400 . S
C1463 C1462 1.385 . S
C1464 C1462 1.478 . S
C1464 C1466 1.381 . S
C1464 C1470 1.383 . S
C1465 C1461 1.495 . S
C1465 H1471 0.959 . S
C1465 H1472 0.961 . S
C1465 H1473 0.960 . S
C1466 C1464 1.381 . S
C1466 C1467 1.394 . S
C1466 H1474 0.930 1_565 S
C1467 C1466 1.394 . S
C1467 C1468 1.383 . S
C1467 H1475 0.926 1_565 S
C1468 C1467 1.383 . S
C1468 C1469 1.377 . S
C1469 H1453 0.930 . S
C1469 C1468 1.377 . S
C1469 C1470 1.379 . S
C1470 H1454 0.931 . S
C1470 C1464 1.383 . S
C1470 C1469 1.379 . S
H1471 C1465 0.959 . S
H1472 C1465 0.961 . S
H1473 C1465 0.960 . S
H1474 C1466 0.930 1_545 S
H1475 C1467 0.926 1_545 S
H1476 C1484 0.929 . S
H1477 C1486 0.930 . S
H1478 C1488 0.930 . S
H1479 C1491 0.929 . S
H1480 C1494 0.930 . S
H1481 C1496 0.960 . S
H1482 C1496 0.960 . S
H1483 C1496 0.960 . S
C1484 H1476 0.929 . S
C1484 C1485 1.377 . S
C1484 C1486 1.384 . S
C1485 C1484 1.377 . S
C1485 C1491 1.390 . S
C1486 H1477 0.930 . S
C1486 C1484 1.384 . S
C1486 C1487 1.372 . S
C1487 C1486 1.372 . S
C1487 C1488 1.400 . S
C1487 C1492 1.490 . S
C1488 H1478 0.930 . S
C1488 C1487 1.400 . S
C1488 C1491 1.386 . S
H1489 C1505 0.930 . S
H1490 C1506 0.931 . S
C1491 H1479 0.929 . S
C1491 C1485 1.390 . S
C1491 C1488 1.386 . S
C1492 C1487 1.490 . S
C1492 C1494 1.395 . S
C1492 C1495 1.403 . S
H1493 C1499 0.930 . S
C1494 H1480 0.930 . S
C1494 C1492 1.395 . S
C1494 C1497 1.403 . S
C1495 C1492 1.403 . S
C1495 C1496 1.524 . S
C1495 C1499 1.400 . S
C1496 H1481 0.960 . S
C1496 H1482 0.960 . S
C1496 H1483 0.960 . S
C1496 C1495 1.524 . S
C1497 C1494 1.403 . S
C1497 C1498 1.392 . S
C1497 C1501 1.495 . S
C1498 C1497 1.392 . S
C1498 C1499 1.385 . S
C1498 C1500 1.478 . S
C1499 H1493 0.930 . S
C1499 C1495 1.400 . S
C1499 C1498 1.385 . S
C1500 C1498 1.478 . S
C1500 C1502 1.381 . S
C1500 C1506 1.383 . S
C1501 C1497 1.495 . S
C1501 H1507 0.959 . S
C1501 H1508 0.961 . S
C1501 H1509 0.960 . S
C1502 C1500 1.381 . S
C1502 C1503 1.394 . S
C1502 H1510 0.930 . S
C1503 C1502 1.394 . S
C1503 C1504 1.383 . S
C1503 H1511 0.929 . S
C1504 C1503 1.383 . S
C1504 C1505 1.377 . S
C1505 H1489 0.930 . S
C1505 C1504 1.377 . S
C1505 C1506 1.379 . S
C1506 H1490 0.931 . S
C1506 C1500 1.383 . S
C1506 C1505 1.379 . S
H1507 C1501 0.959 . S
H1508 C1501 0.961 . S
H1509 C1501 0.960 . S
H1510 C1502 0.930 . S
H1511 C1503 0.929 . S
H1512 C1520 0.929 . S
H1513 C1522 0.966 . S
H1514 C1524 0.930 . S
H1515 C1527 0.929 . S
H1516 C1530 0.930 . S
H1517 C1532 0.960 . S
H1518 C1532 0.960 . S
H1519 C1532 0.960 . S
C1520 H1512 0.929 . S
C1520 C1521 1.377 . S
C1520 C1522 1.384 1_455 S
C1521 C1520 1.377 . S
C1521 C1527 1.390 . S
C1522 H1513 0.966 . S
C1522 C1520 1.384 1_655 S
C1522 C1523 1.339 1_655 S
C1523 C1522 1.339 1_455 S
C1523 C1524 1.400 . S
C1523 C1528 1.490 1_455 S
C1524 H1514 0.930 . S
C1524 C1523 1.400 . S
C1524 C1527 1.386 . S
H1525 C1541 0.930 . S
H1526 C1542 0.931 . S
C1527 H1515 0.929 . S
C1527 C1521 1.390 . S
C1527 C1524 1.386 . S
C1528 C1523 1.490 1_655 S
C1528 C1530 1.395 . S
C1528 C1531 1.403 1_655 S
H1529 C1535 0.930 . S
C1530 H1516 0.930 . S
C1530 C1528 1.395 . S
C1530 C1533 1.403 . S
C1531 C1528 1.403 1_455 S
C1531 C1532 1.524 . S
C1531 C1535 1.400 . S
C1532 H1517 0.960 . S
C1532 H1518 0.960 . S
C1532 H1519 0.960 . S
C1532 C1531 1.524 . S
C1533 C1530 1.403 . S
C1533 C1534 1.392 . S
C1533 C1537 1.495 . S
C1534 C1533 1.392 . S
C1534 C1535 1.385 1_655 S
C1534 C1536 1.478 . S
C1535 H1529 0.930 . S
C1535 C1531 1.400 . S
C1535 C1534 1.385 1_455 S
C1536 C1534 1.478 . S
C1536 C1538 1.381 . S
C1536 C1542 1.383 . S
C1537 C1533 1.495 . S
C1537 H1543 0.959 . S
C1537 H1544 0.961 . S
C1537 H1545 0.960 . S
C1538 C1536 1.381 . S
C1538 C1539 1.394 . S
C1538 H1546 0.930 . S
C1539 C1538 1.394 . S
C1539 C1540 1.383 . S
C1539 H1547 0.929 . S
C1540 C1539 1.383 . S
C1540 C1541 1.377 . S
C1541 H1525 0.930 . S
C1541 C1540 1.377 . S
C1541 C1542 1.379 . S
C1542 H1526 0.931 . S
C1542 C1536 1.383 . S
C1542 C1541 1.379 . S
H1543 C1537 0.959 . S
H1544 C1537 0.961 . S
H1545 C1537 0.960 . S
H1546 C1538 0.930 . S
H1547 C1539 0.929 . S
H1548 C1556 0.929 . S
H1549 C1558 0.930 . S
H1550 C1560 0.930 . S
H1551 C1563 0.929 . S
H1552 C1566 0.930 . S
H1553 C1568 0.960 . S
H1554 C1568 0.960 . S
H1555 C1568 0.960 . S
C1556 H1548 0.929 . S
C1556 C1557 1.377 . S
C1556 C1558 1.384 . S
C1557 C1556 1.377 . S
C1557 C1563 1.390 . S
C1558 H1549 0.930 . S
C1558 C1556 1.384 . S
C1558 C1559 1.372 . S
C1559 C1558 1.372 . S
C1559 C1560 1.400 . S
C1559 C1564 1.490 . S
C1560 H1550 0.930 . S
C1560 C1559 1.400 . S
C1560 C1563 1.386 . S
H1561 C1577 0.930 . S
H1562 C1578 0.931 . S
C1563 H1551 0.929 . S
C1563 C1557 1.390 . S
C1563 C1560 1.386 . S
C1564 C1559 1.490 . S
C1564 C1566 1.395 . S
C1564 C1567 1.403 . S
H1565 C1571 0.930 . S
C1566 H1552 0.930 . S
C1566 C1564 1.395 . S
C1566 C1569 1.403 . S
C1567 C1564 1.403 . S
C1567 C1568 1.524 . S
C1567 C1571 1.400 . S
C1568 H1553 0.960 . S
C1568 H1554 0.960 . S
C1568 H1555 0.960 . S
C1568 C1567 1.524 . S
C1569 C1566 1.403 . S
C1569 C1570 1.392 . S
C1569 C1573 1.495 . S
C1570 C1569 1.392 . S
C1570 C1571 1.385 . S
C1570 C1572 1.478 . S
C1571 H1565 0.930 . S
C1571 C1567 1.400 . S
C1571 C1570 1.385 . S
C1572 C1570 1.478 . S
C1572 C1574 1.381 . S
C1572 C1578 1.383 . S
C1573 C1569 1.495 . S
C1573 H1579 0.959 . S
C1573 H1580 0.961 . S
C1573 H1581 0.960 . S
C1574 C1572 1.381 . S
C1574 C1575 1.394 . S
C1574 H1582 0.930 . S
C1575 C1574 1.394 . S
C1575 C1576 1.383 . S
C1575 H1583 0.929 . S
C1576 C1575 1.383 . S
C1576 C1577 1.377 . S
C1577 H1561 0.930 . S
C1577 C1576 1.377 . S
C1577 C1578 1.379 . S
C1578 H1562 0.931 . S
C1578 C1572 1.383 . S
C1578 C1577 1.379 . S
H1579 C1573 0.959 . S
H1580 C1573 0.961 . S
H1581 C1573 0.960 . S
H1582 C1574 0.930 . S
H1583 C1575 0.929 . S
H1584 C1592 0.929 . S
H1585 C1594 0.930 . S
H1586 C1596 0.930 . S
H1587 C1599 0.929 . S
H1588 C1602 0.930 . S
H1589 C1604 0.960 . S
H1590 C1604 0.960 . S
H1591 C1604 0.960 . S
C1592 H1584 0.929 . S
C1592 C1593 1.377 . S
C1592 C1594 1.384 . S
C1593 C1592 1.377 . S
C1593 C1599 1.390 . S
C1594 H1585 0.930 . S
C1594 C1592 1.384 . S
C1594 C1595 1.372 . S
C1595 C1594 1.372 . S
C1595 C1596 1.400 . S
C1595 C1600 1.490 . S
C1596 H1586 0.930 . S
C1596 C1595 1.400 . S
C1596 C1599 1.386 . S
H1597 C1613 0.930 . S
H1598 C1614 0.931 . S
C1599 H1587 0.929 . S
C1599 C1593 1.390 . S
C1599 C1596 1.386 . S
C1600 C1595 1.490 . S
C1600 C1602 1.395 . S
C1600 C1603 1.403 . S
H1601 C1607 0.930 . S
C1602 H1588 0.930 . S
C1602 C1600 1.395 . S
C1602 C1605 1.403 . S
C1603 C1600 1.403 . S
C1603 C1604 1.524 . S
C1603 C1607 1.400 . S
C1604 H1589 0.960 . S
C1604 H1590 0.960 . S
C1604 H1591 0.960 . S
C1604 C1603 1.524 . S
C1605 C1602 1.403 . S
C1605 C1606 1.392 . S
C1605 C1609 1.495 . S
C1606 C1605 1.392 . S
C1606 C1607 1.385 . S
C1606 C1608 1.478 . S
C1607 H1601 0.930 . S
C1607 C1603 1.400 . S
C1607 C1606 1.385 . S
C1608 C1606 1.478 . S
C1608 C1610 1.381 . S
C1608 C1614 1.383 . S
C1609 C1605 1.495 . S
C1609 H1615 0.959 . S
C1609 H1616 0.961 . S
C1609 H1617 0.960 . S
C1610 C1608 1.381 . S
C1610 C1611 1.394 . S
C1610 H1618 0.930 . S
C1611 C1610 1.394 . S
C1611 C1612 1.383 . S
C1611 H1619 0.929 . S
C1612 C1611 1.383 . S
C1612 C1613 1.377 . S
C1613 H1597 0.930 . S
C1613 C1612 1.377 . S
C1613 C1614 1.379 . S
C1614 H1598 0.931 . S
C1614 C1608 1.383 . S
C1614 C1613 1.379 . S
H1615 C1609 0.959 . S
H1616 C1609 0.961 . S
H1617 C1609 0.960 . S
H1618 C1610 0.930 . S
H1619 C1611 0.929 . S
H1620 C1628 0.929 . S
H1621 C1630 0.930 . S
H1622 C1632 0.930 . S
H1623 C1635 0.929 . S
H1624 C1638 0.930 . S
H1625 C1640 0.960 1_565 S
H1626 C1640 0.960 . S
H1627 C1640 0.960 . S
C1628 H1620 0.929 . S
C1628 C1629 1.377 . S
C1628 C1630 1.384 . S
C1629 C1628 1.377 . S
C1629 C1635 1.390 . S
C1630 H1621 0.930 . S
C1630 C1628 1.384 . S
C1630 C1631 1.372 . S
C1631 C1630 1.372 . S
C1631 C1632 1.400 . S
C1631 C1636 1.490 . S
C1632 H1622 0.930 . S
C1632 C1631 1.400 . S
C1632 C1635 1.386 . S
H1633 C1649 0.930 . S
H1634 C1650 0.931 . S
C1635 H1623 0.929 . S
C1635 C1629 1.390 . S
C1635 C1632 1.386 . S
C1636 C1631 1.490 . S
C1636 C1638 1.395 . S
C1636 C1639 1.403 . S
H1637 C1643 0.930 1_565 S
C1638 H1624 0.930 . S
C1638 C1636 1.395 . S
C1638 C1641 1.403 . S
C1639 C1636 1.403 . S
C1639 C1640 1.524 . S
C1639 C1643 1.400 . S
C1640 H1625 0.960 1_545 S
C1640 H1626 0.960 . S
C1640 H1627 0.960 . S
C1640 C1639 1.524 . S
C1641 C1638 1.403 . S
C1641 C1642 1.392 . S
C1641 C1645 1.495 . S
C1642 C1641 1.392 . S
C1642 C1643 1.385 . S
C1642 C1644 1.478 . S
C1643 H1637 0.930 1_545 S
C1643 C1639 1.400 . S
C1643 C1642 1.385 . S
C1644 C1642 1.478 . S
C1644 C1646 1.381 . S
C1644 C1650 1.383 . S
C1645 C1641 1.495 . S
C1645 H1651 0.959 . S
C1645 H1652 0.961 . S
C1645 H1653 0.960 . S
C1646 C1644 1.381 . S
C1646 C1647 1.421 . S
C1646 H1654 0.930 . S
C1647 C1646 1.421 . S
C1647 C1648 1.389 1_545 S
C1647 H1655 0.880 1_545 S
C1648 C1647 1.389 1_565 S
C1648 C1649 1.377 . S
C1649 H1633 0.930 . S
C1649 C1648 1.377 . S
C1649 C1650 1.379 1_565 S
C1650 H1634 0.931 . S
C1650 C1644 1.383 . S
C1650 C1649 1.379 1_545 S
H1651 C1645 0.959 . S
H1652 C1645 0.961 . S
H1653 C1645 0.960 . S
H1654 C1646 0.930 . S
H1655 C1647 0.880 1_565 S
H1656 C1664 0.929 . S
H1657 C1666 0.930 . S
H1658 C1668 0.930 . S
H1659 C1671 0.929 . S
H1660 C1674 0.930 1_655 S
H1661 C1676 0.960 . S
H1662 C1676 0.960 . S
H1663 C1676 0.960 . S
C1664 H1656 0.929 . S
C1664 C1665 1.377 . S
C1664 C1666 1.384 . S
C1665 C1664 1.377 . S
C1665 C1671 1.390 1_655 S
C1666 H1657 0.930 . S
C1666 C1664 1.384 . S
C1666 C1667 1.372 1_655 S
C1667 C1666 1.372 1_455 S
C1667 C1668 1.400 . S
C1667 C1672 1.490 . S
C1668 H1658 0.930 . S
C1668 C1667 1.400 . S
C1668 C1671 1.386 . S
H1669 C1685 0.930 . S
H1670 C1686 0.931 . S
C1671 H1659 0.929 . S
C1671 C1665 1.390 1_455 S
C1671 C1668 1.386 . S
C1672 C1667 1.490 . S
C1672 C1674 1.395 . S
C1672 C1675 1.403 . S
H1673 C1679 0.930 . S
C1674 H1660 0.930 1_455 S
C1674 C1672 1.395 . S
C1674 C1677 1.403 . S
C1675 C1672 1.403 . S
C1675 C1676 1.524 . S
C1675 C1679 1.400 . S
C1676 H1661 0.960 . S
C1676 H1662 0.960 . S
C1676 H1663 0.960 . S
C1676 C1675 1.524 . S
C1677 C1674 1.403 . S
C1677 C1678 1.392 . S
C1677 C1681 1.495 . S
C1678 C1677 1.392 . S
C1678 C1679 1.385 . S
C1678 C1680 1.478 . S
C1679 H1673 0.930 . S
C1679 C1675 1.400 . S
C1679 C1678 1.385 . S
C1680 C1678 1.478 . S
C1680 C1682 1.381 . S
C1680 C1686 1.383 . S
C1681 C1677 1.495 . S
C1681 H1687 0.959 1_455 S
C1681 H1688 0.961 . S
C1681 H1689 0.960 . S
C1682 C1680 1.381 . S
C1682 C1683 1.394 . S
C1682 H1690 0.930 . S
C1683 C1682 1.394 . S
C1683 C1684 1.383 . S
C1683 H1691 0.929 . S
C1684 C1683 1.383 . S
C1684 C1685 1.377 . S
C1685 H1669 0.930 . S
C1685 C1684 1.377 . S
C1685 C1686 1.379 . S
C1686 H1670 0.931 . S
C1686 C1680 1.383 . S
C1686 C1685 1.379 . S
H1687 C1681 0.959 1_655 S
H1688 C1681 0.961 . S
H1689 C1681 0.960 . S
H1690 C1682 0.930 . S
H1691 C1683 0.929 . S
H1692 C1700 0.929 . S
H1693 C1702 0.930 . S
H1694 C1704 0.930 . S
H1695 C1707 0.929 . S
H1696 C1710 0.930 . S
H1697 C1712 0.960 . S
H1698 C1712 0.960 . S
H1699 C1712 0.960 . S
C1700 H1692 0.929 . S
C1700 C1701 1.377 . S
C1700 C1702 1.384 . S
C1701 C1700 1.377 . S
C1701 C1707 1.390 . S
C1702 H1693 0.930 . S
C1702 C1700 1.384 . S
C1702 C1703 1.372 . S
C1703 C1702 1.372 . S
C1703 C1704 1.400 . S
C1703 C1708 1.490 . S
C1704 H1694 0.930 . S
C1704 C1703 1.400 . S
C1704 C1707 1.386 . S
H1705 C1721 0.930 . S
H1706 C1722 0.931 . S
C1707 H1695 0.929 . S
C1707 C1701 1.390 . S
C1707 C1704 1.386 . S
C1708 C1703 1.490 . S
C1708 C1710 1.395 . S
C1708 C1711 1.403 . S
H1709 C1715 0.930 . S
C1710 H1696 0.930 . S
C1710 C1708 1.395 . S
C1710 C1713 1.403 . S
C1711 C1708 1.403 . S
C1711 C1712 1.524 . S
C1711 C1715 1.400 . S
C1712 H1697 0.960 . S
C1712 H1698 0.960 . S
C1712 H1699 0.960 . S
C1712 C1711 1.524 . S
C1713 C1710 1.403 . S
C1713 C1714 1.392 . S
C1713 C1717 1.495 . S
C1714 C1713 1.392 . S
C1714 C1715 1.385 . S
C1714 C1716 1.478 . S
C1715 H1709 0.930 . S
C1715 C1711 1.400 . S
C1715 C1714 1.385 . S
C1716 C1714 1.478 . S
C1716 C1718 1.381 . S
C1716 C1722 1.383 . S
C1717 C1713 1.495 . S
C1717 H1723 0.959 . S
C1717 H1724 0.961 . S
C1717 H1725 0.960 . S
C1718 C1716 1.381 . S
C1718 C1719 1.394 . S
C1718 H1726 0.930 . S
C1719 C1718 1.394 . S
C1719 C1720 1.383 . S
C1719 H1727 0.929 . S
C1720 C1719 1.383 . S
C1720 C1721 1.377 . S
C1721 H1705 0.930 . S
C1721 C1720 1.377 . S
C1721 C1722 1.379 . S
C1722 H1706 0.931 . S
C1722 C1716 1.383 . S
C1722 C1721 1.379 . S
H1723 C1717 0.959 . S
H1724 C1717 0.961 . S
H1725 C1717 0.960 . S
H1726 C1718 0.930 . S
H1727 C1719 0.929 . S
H1728 C1736 0.921 . S
H1729 C1738 0.930 . S
H1730 C1740 0.930 . S
H1731 C1743 0.929 . S
H1732 C1746 0.930 . S
H1733 C1748 0.960 . S
H1734 C1748 0.960 . S
H1735 C1748 0.960 . S
C1736 H1728 0.921 . S
C1736 C1737 1.379 1_545 S
C1736 C1738 1.395 . S
C1737 C1736 1.379 1_565 S
C1737 C1743 1.390 . S
C1738 H1729 0.930 . S
C1738 C1736 1.395 . S
C1738 C1739 1.372 . S
C1739 C1738 1.372 . S
C1739 C1740 1.400 . S
C1739 C1744 1.490 . S
C1740 H1730 0.930 . S
C1740 C1739 1.400 . S
C1740 C1743 1.386 1_545 S
H1741 C1757 0.930 . S
H1742 C1758 0.931 . S
C1743 H1731 0.929 . S
C1743 C1737 1.390 . S
C1743 C1740 1.386 1_565 S
C1744 C1739 1.490 . S
C1744 C1746 1.395 . S
C1744 C1747 1.403 . S
H1745 C1751 0.930 . S
C1746 H1732 0.930 . S
C1746 C1744 1.395 . S
C1746 C1749 1.403 . S
C1747 C1744 1.403 . S
C1747 C1748 1.524 . S
C1747 C1751 1.400 . S
C1748 H1733 0.960 . S
C1748 H1734 0.960 . S
C1748 H1735 0.960 . S
C1748 C1747 1.524 . S
C1749 C1746 1.403 . S
C1749 C1750 1.392 . S
C1749 C1753 1.495 . S
C1750 C1749 1.392 . S
C1750 C1751 1.385 . S
C1750 C1752 1.478 . S
C1751 H1745 0.930 . S
C1751 C1747 1.400 . S
C1751 C1750 1.385 . S
C1752 C1750 1.478 . S
C1752 C1754 1.381 . S
C1752 C1758 1.383 . S
C1753 C1749 1.495 . S
C1753 H1759 0.959 . S
C1753 H1760 0.961 . S
C1753 H1761 0.960 . S
C1754 C1752 1.381 . S
C1754 C1755 1.394 . S
C1754 H1762 0.930 . S
C1755 C1754 1.394 . S
C1755 C1756 1.383 . S
C1755 H1763 0.929 . S
C1756 C1755 1.383 . S
C1756 C1757 1.377 . S
C1757 H1741 0.930 . S
C1757 C1756 1.377 . S
C1757 C1758 1.379 . S
C1758 H1742 0.931 . S
C1758 C1752 1.383 . S
C1758 C1757 1.379 . S
H1759 C1753 0.959 . S
H1760 C1753 0.961 . S
H1761 C1753 0.960 . S
H1762 C1754 0.930 . S
H1763 C1755 0.929 . S
H1764 C1772 0.929 . S
H1765 C1774 0.930 . S
H1766 C1776 0.930 . S
H1767 C1779 0.929 . S
H1768 C1782 0.930 . S
H1769 C1784 0.960 . S
H1770 C1784 0.960 . S
H1771 C1784 0.960 . S
C1772 H1764 0.929 . S
C1772 C1773 1.377 1_455 S
C1772 C1774 1.384 . S
C1773 C1772 1.377 1_655 S
C1773 C1779 1.390 . S
C1774 H1765 0.930 . S
C1774 C1772 1.384 . S
C1774 C1775 1.372 . S
C1775 C1774 1.372 . S
C1775 C1776 1.400 1_455 S
C1775 C1780 1.490 . S
C1776 H1766 0.930 . S
C1776 C1775 1.400 1_655 S
C1776 C1779 1.386 . S
H1777 C1793 0.930 . S
H1778 C1794 0.931 . S
C1779 H1767 0.929 . S
C1779 C1773 1.390 . S
C1779 C1776 1.386 . S
C1780 C1775 1.490 . S
C1780 C1782 1.395 . S
C1780 C1783 1.403 . S
H1781 C1787 0.930 . S
C1782 H1768 0.930 . S
C1782 C1780 1.395 . S
C1782 C1785 1.403 . S
C1783 C1780 1.403 . S
C1783 C1784 1.524 . S
C1783 C1787 1.400 . S
C1784 H1769 0.960 . S
C1784 H1770 0.960 . S
C1784 H1771 0.960 . S
C1784 C1783 1.524 . S
C1785 C1782 1.403 . S
C1785 C1786 1.392 . S
C1785 C1789 1.495 . S
C1786 C1785 1.392 . S
C1786 C1787 1.385 . S
C1786 C1788 1.478 . S
C1787 H1781 0.930 . S
C1787 C1783 1.400 . S
C1787 C1786 1.385 . S
C1788 C1786 1.478 . S
C1788 C1790 1.381 . S
C1788 C1794 1.383 . S
C1789 C1785 1.495 . S
C1789 H1795 0.959 . S
C1789 H1796 0.961 . S
C1789 H1797 0.960 . S
C1790 C1788 1.381 . S
C1790 C1791 1.394 . S
C1790 H1798 0.930 . S
C1791 C1790 1.394 . S
C1791 C1792 1.383 . S
C1791 H1799 0.929 . S
C1792 C1791 1.383 . S
C1792 C1793 1.377 . S
C1793 H1777 0.930 . S
C1793 C1792 1.377 . S
C1793 C1794 1.379 . S
C1794 H1778 0.931 . S
C1794 C1788 1.383 . S
C1794 C1793 1.379 . S
H1795 C1789 0.959 . S
H1796 C1789 0.961 . S
H1797 C1789 0.960 . S
H1798 C1790 0.930 . S
H1799 C1791 0.929 . S
H1800 C1808 0.929 1_655 S
H1801 C1810 0.930 1_655 S
H1802 C1812 0.930 . S
H1803 C1815 0.929 . S
H1804 C1818 0.930 . S
H1805 C1820 0.960 . S
H1806 C1820 0.960 . S
H1807 C1820 0.960 . S
C1808 H1800 0.929 1_455 S
C1808 C1809 1.377 . S
C1808 C1810 1.384 . S
C1809 C1808 1.377 . S
C1809 C1815 1.390 . S
C1810 H1801 0.930 1_455 S
C1810 C1808 1.384 . S
C1810 C1811 1.372 . S
C1811 C1810 1.372 . S
C1811 C1812 1.400 . S
C1811 C1816 1.490 . S
C1812 H1802 0.930 . S
C1812 C1811 1.400 . S
C1812 C1815 1.386 . S
H1813 C1829 0.930 . S
H1814 C1830 0.931 . S
C1815 H1803 0.929 . S
C1815 C1809 1.390 . S
C1815 C1812 1.386 . S
C1816 C1811 1.490 . S
C1816 C1818 1.395 . S
C1816 C1819 1.403 . S
H1817 C1823 0.930 . S
C1818 H1804 0.930 . S
C1818 C1816 1.395 . S
C1818 C1821 1.403 1_554 S
C1819 C1816 1.403 . S
C1819 C1820 1.524 . S
C1819 C1823 1.400 1_554 S
C1820 H1805 0.960 . S
C1820 H1806 0.960 . S
C1820 H1807 0.960 . S
C1820 C1819 1.524 . S
C1821 C1818 1.403 1_556 S
C1821 C1822 1.392 . S
C1821 C1825 1.495 . S
C1822 C1821 1.392 . S
C1822 C1823 1.385 . S
C1822 C1824 1.478 . S
C1823 H1817 0.930 . S
C1823 C1819 1.400 1_556 S
C1823 C1822 1.385 . S
C1824 C1822 1.478 . S
C1824 C1826 1.381 . S
C1824 C1830 1.383 . S
C1825 C1821 1.495 . S
C1825 H1831 0.959 1_455 S
C1825 H1832 0.961 . S
C1825 H1833 0.960 1_455 S
C1826 C1824 1.381 . S
C1826 C1827 1.394 . S
C1826 H1834 0.930 . S
C1827 C1826 1.394 . S
C1827 C1828 1.383 . S
C1827 H1835 0.929 . S
C1828 C1827 1.383 . S
C1828 C1829 1.377 . S
C1829 H1813 0.930 . S
C1829 C1828 1.377 . S
C1829 C1830 1.379 . S
C1830 H1814 0.931 . S
C1830 C1824 1.383 . S
C1830 C1829 1.379 . S
H1831 C1825 0.959 1_655 S
H1832 C1825 0.961 . S
H1833 C1825 0.960 1_655 S
H1834 C1826 0.930 . S
H1835 C1827 0.929 . S
H1836 C1844 0.929 . S
H1837 C1846 0.930 . S
H1838 C1848 0.930 . S
H1839 C1851 0.929 . S
H1840 C1854 0.930 . S
H1841 C1856 0.960 . S
H1842 C1856 0.960 . S
H1843 C1856 0.960 . S
C1844 H1836 0.929 . S
C1844 C1845 1.377 . S
C1844 C1846 1.384 . S
C1845 C1844 1.377 . S
C1845 C1851 1.390 . S
C1846 H1837 0.930 . S
C1846 C1844 1.384 . S
C1846 C1847 1.372 . S
C1847 C1846 1.372 . S
C1847 C1848 1.400 . S
C1847 C1852 1.490 . S
C1848 H1838 0.930 . S
C1848 C1847 1.400 . S
C1848 C1851 1.386 . S
H1849 C1865 0.930 . S
H1850 C1866 0.931 . S
C1851 H1839 0.929 . S
C1851 C1845 1.390 . S
C1851 C1848 1.386 . S
C1852 C1847 1.490 . S
C1852 C1854 1.395 . S
C1852 C1855 1.403 . S
H1853 C1859 0.930 . S
C1854 H1840 0.930 . S
C1854 C1852 1.395 . S
C1854 C1857 1.403 1_556 S
C1855 C1852 1.403 . S
C1855 C1856 1.524 . S
C1855 C1859 1.400 1_556 S
C1856 H1841 0.960 . S
C1856 H1842 0.960 . S
C1856 H1843 0.960 . S
C1856 C1855 1.524 . S
C1857 C1854 1.403 1_554 S
C1857 C1858 1.392 . S
C1857 C1861 1.495 . S
C1858 C1857 1.392 . S
C1858 C1859 1.385 . S
C1858 C1860 1.478 . S
C1859 H1853 0.930 . S
C1859 C1855 1.400 1_554 S
C1859 C1858 1.385 . S
C1860 C1858 1.478 . S
C1860 C1862 1.381 . S
C1860 C1866 1.383 . S
C1861 C1857 1.495 . S
C1861 H1867 0.959 . S
C1861 H1868 0.961 . S
C1861 H1869 0.960 . S
C1862 C1860 1.381 . S
C1862 C1863 1.394 . S
C1862 H1870 0.930 . S
C1863 C1862 1.394 . S
C1863 C1864 1.383 . S
C1863 H1871 0.929 . S
C1864 C1863 1.383 . S
C1864 C1865 1.377 . S
C1865 H1849 0.930 . S
C1865 C1864 1.377 . S
C1865 C1866 1.379 . S
C1866 H1850 0.931 . S
C1866 C1860 1.383 . S
C1866 C1865 1.379 . S
H1867 C1861 0.959 . S
H1868 C1861 0.961 . S
H1869 C1861 0.960 . S
H1870 C1862 0.930 . S
H1871 C1863 0.929 . S
H1872 C1880 0.929 . S
H1873 C1882 0.930 . S
H1874 C1884 0.930 . S
H1875 C1887 0.929 . S
H1876 C1890 0.930 . S
H1877 C1892 0.960 . S
H1878 C1892 0.960 . S
H1879 C1892 0.960 1_545 S
C1880 H1872 0.929 . S
C1880 C1881 1.377 . S
C1880 C1882 1.384 . S
C1881 C1880 1.377 . S
C1881 C1887 1.390 . S
C1882 H1873 0.930 . S
C1882 C1880 1.384 . S
C1882 C1883 1.372 . S
C1883 C1882 1.372 . S
C1883 C1884 1.400 . S
C1883 C1888 1.490 . S
C1884 H1874 0.930 . S
C1884 C1883 1.400 . S
C1884 C1887 1.386 . S
H1885 C1901 0.930 . S
H1886 C1902 0.931 . S
C1887 H1875 0.929 . S
C1887 C1881 1.390 . S
C1887 C1884 1.386 . S
C1888 C1883 1.490 . S
C1888 C1890 1.395 . S
C1888 C1891 1.403 . S
H1889 C1895 0.930 . S
C1890 H1876 0.930 . S
C1890 C1888 1.395 . S
C1890 C1893 1.403 1_556 S
C1891 C1888 1.403 . S
C1891 C1892 1.524 1_545 S
C1891 C1895 1.400 1_556 S
C1892 H1877 0.960 . S
C1892 H1878 0.960 . S
C1892 H1879 0.960 1_565 S
C1892 C1891 1.524 1_565 S
C1893 C1890 1.403 1_554 S
C1893 C1894 1.392 . S
C1893 C1897 1.495 . S
C1894 C1893 1.392 . S
C1894 C1895 1.385 . S
C1894 C1896 1.478 . S
C1895 H1889 0.930 . S
C1895 C1891 1.400 1_554 S
C1895 C1894 1.385 . S
C1896 C1894 1.478 . S
C1896 C1898 1.381 . S
C1896 C1902 1.383 . S
C1897 C1893 1.495 . S
C1897 H1903 0.959 . S
C1897 H1904 0.961 . S
C1897 H1905 0.960 . S
C1898 C1896 1.381 . S
C1898 C1899 1.394 . S
C1898 H1906 0.930 . S
C1899 C1898 1.394 . S
C1899 C1900 1.383 . S
C1899 H1907 0.929 . S
C1900 C1899 1.383 . S
C1900 C1901 1.377 . S
C1901 H1885 0.930 . S
C1901 C1900 1.377 . S
C1901 C1902 1.379 . S
C1902 H1886 0.931 . S
C1902 C1896 1.383 . S
C1902 C1901 1.379 . S
H1903 C1897 0.959 . S
H1904 C1897 0.961 . S
H1905 C1897 0.960 . S
H1906 C1898 0.930 . S
H1907 C1899 0.929 . S
H1908 C1916 0.929 . S
H1909 C1918 0.930 . S
H1910 C1920 0.930 . S
H1911 C1923 0.929 . S
H1912 C1926 0.930 . S
H1913 C1928 0.960 . S
H1914 C1928 0.960 . S
H1915 C1928 0.960 . S
C1916 H1908 0.929 . S
C1916 C1917 1.377 . S
C1916 C1918 1.384 . S
C1917 C1916 1.377 . S
C1917 C1923 1.390 . S
C1918 H1909 0.930 . S
C1918 C1916 1.384 . S
C1918 C1919 1.372 . S
C1919 C1918 1.372 . S
C1919 C1920 1.400 . S
C1919 C1924 1.490 . S
C1920 H1910 0.930 . S
C1920 C1919 1.400 . S
C1920 C1923 1.386 . S
H1921 C1937 0.930 . S
H1922 C1938 0.931 . S
C1923 H1911 0.929 . S
C1923 C1917 1.390 . S
C1923 C1920 1.386 . S
C1924 C1919 1.490 . S
C1924 C1926 1.395 . S
C1924 C1927 1.403 . S
H1925 C1931 0.930 . S
C1926 H1912 0.930 . S
C1926 C1924 1.395 . S
C1926 C1929 1.403 1_556 S
C1927 C1924 1.403 . S
C1927 C1928 1.524 . S
C1927 C1931 1.400 1_556 S
C1928 H1913 0.960 . S
C1928 H1914 0.960 . S
C1928 H1915 0.960 . S
C1928 C1927 1.524 . S
C1929 C1926 1.403 1_554 S
C1929 C1930 1.392 . S
C1929 C1933 1.495 1_455 S
C1930 C1929 1.392 . S
C1930 C1931 1.385 . S
C1930 C1932 1.478 . S
C1931 H1925 0.930 . S
C1931 C1927 1.400 1_554 S
C1931 C1930 1.385 . S
C1932 C1930 1.478 . S
C1932 C1934 1.381 . S
C1932 C1938 1.383 . S
C1933 C1929 1.495 1_655 S
C1933 H1939 0.959 . S
C1933 H1940 0.961 1_655 S
C1933 H1941 0.960 . S
C1934 C1932 1.381 . S
C1934 C1935 1.394 . S
C1934 H1942 0.876 1_455 S
C1935 C1934 1.394 . S
C1935 C1936 1.383 . S
C1935 H1943 0.890 1_455 S
C1936 C1935 1.383 . S
C1936 C1937 1.377 . S
C1937 H1921 0.930 . S
C1937 C1936 1.377 . S
C1937 C1938 1.379 . S
C1938 H1922 0.931 . S
C1938 C1932 1.383 . S
C1938 C1937 1.379 . S
H1939 C1933 0.959 . S
H1940 C1933 0.961 1_455 S
H1941 C1933 0.960 . S
H1942 C1934 0.876 1_655 S
H1943 C1935 0.890 1_655 S
H1944 C1952 0.929 . S
H1945 C1954 0.930 . S
H1946 C1956 0.930 . S
H1947 C1959 0.929 . S
H1948 C1962 0.930 . S
H1949 C1964 0.960 . S
H1950 C1964 0.960 . S
H1951 C1964 0.960 . S
C1952 H1944 0.929 . S
C1952 C1953 1.377 . S
C1952 C1954 1.384 . S
C1953 C1952 1.377 . S
C1953 C1959 1.390 . S
C1954 H1945 0.930 . S
C1954 C1952 1.384 . S
C1954 C1955 1.372 . S
C1955 C1954 1.372 . S
C1955 C1956 1.400 . S
C1955 C1960 1.490 . S
C1956 H1946 0.930 . S
C1956 C1955 1.400 . S
C1956 C1959 1.386 . S
H1957 C1973 0.930 . S
H1958 C1974 0.931 . S
C1959 H1947 0.929 . S
C1959 C1953 1.390 . S
C1959 C1956 1.386 . S
C1960 C1955 1.490 . S
C1960 C1962 1.395 . S
C1960 C1963 1.403 . S
H1961 C1967 0.930 . S
C1962 H1948 0.930 . S
C1962 C1960 1.395 . S
C1962 C1965 1.403 1_554 S
C1963 C1960 1.403 . S
C1963 C1964 1.524 . S
C1963 C1967 1.400 1_554 S
C1964 H1949 0.960 . S
C1964 H1950 0.960 . S
C1964 H1951 0.960 . S
C1964 C1963 1.524 . S
C1965 C1962 1.403 1_556 S
C1965 C1966 1.392 . S
C1965 C1969 1.495 . S
C1966 C1965 1.392 . S
C1966 C1967 1.385 . S
C1966 C1968 1.478 . S
C1967 H1961 0.930 . S
C1967 C1963 1.400 1_556 S
C1967 C1966 1.385 . S
C1968 C1966 1.478 . S
C1968 C1970 1.381 . S
C1968 C1974 1.383 . S
C1969 C1965 1.495 . S
C1969 H1975 0.959 . S
C1969 H1976 0.961 . S
C1969 H1977 0.960 . S
C1970 C1968 1.381 . S
C1970 C1971 1.394 . S
C1970 H1978 0.930 . S
C1971 C1970 1.394 . S
C1971 C1972 1.383 . S
C1971 H1979 0.929 . S
C1972 C1971 1.383 . S
C1972 C1973 1.377 . S
C1973 H1957 0.930 . S
C1973 C1972 1.377 . S
C1973 C1974 1.379 . S
C1974 H1958 0.931 . S
C1974 C1968 1.383 . S
C1974 C1973 1.379 . S
H1975 C1969 0.959 . S
H1976 C1969 0.961 . S
H1977 C1969 0.960 . S
H1978 C1970 0.930 . S
H1979 C1971 0.929 . S
H1980 C1988 0.929 . S
H1981 C1990 0.930 . S
H1982 C1992 0.930 . S
H1983 C1995 0.929 . S
H1984 C1998 0.930 . S
H1985 C2000 0.960 . S
H1986 C2000 0.960 . S
H1987 C2000 0.960 . S
C1988 H1980 0.929 . S
C1988 C1989 1.377 . S
C1988 C1990 1.384 . S
C1989 C1988 1.377 . S
C1989 C1995 1.390 . S
C1990 H1981 0.930 . S
C1990 C1988 1.384 . S
C1990 C1991 1.372 . S
C1991 C1990 1.372 . S
C1991 C1992 1.400 . S
C1991 C1996 1.490 . S
C1992 H1982 0.930 . S
C1992 C1991 1.400 . S
C1992 C1995 1.386 . S
H1993 C2009 0.930 . S
H1994 C2010 0.931 . S
C1995 H1983 0.929 . S
C1995 C1989 1.390 . S
C1995 C1992 1.386 . S
C1996 C1991 1.490 . S
C1996 C1998 1.395 . S
C1996 C1999 1.403 . S
H1997 C2003 0.930 . S
C1998 H1984 0.930 . S
C1998 C1996 1.395 . S
C1998 C2001 1.403 1_556 S
C1999 C1996 1.403 . S
C1999 C2000 1.524 1_545 S
C1999 C2003 1.400 1_556 S
C2000 H1985 0.960 . S
C2000 H1986 0.960 . S
C2000 H1987 0.960 . S
C2000 C1999 1.524 1_565 S
C2001 C1998 1.403 1_554 S
C2001 C2002 1.392 . S
C2001 C2005 1.495 . S
C2002 C2001 1.392 . S
C2002 C2003 1.385 . S
C2002 C2004 1.478 . S
C2003 H1997 0.930 . S
C2003 C1999 1.400 1_554 S
C2003 C2002 1.385 . S
C2004 C2002 1.478 . S
C2004 C2006 1.381 . S
C2004 C2010 1.383 . S
C2005 C2001 1.495 . S
C2005 H2011 0.959 . S
C2005 H2012 0.961 . S
C2005 H2013 0.960 . S
C2006 C2004 1.381 . S
C2006 C2007 1.394 . S
C2006 H2014 0.930 . S
C2007 C2006 1.394 . S
C2007 C2008 1.383 . S
C2007 H2015 0.929 . S
C2008 C2007 1.383 . S
C2008 C2009 1.377 . S
C2009 H1993 0.930 . S
C2009 C2008 1.377 . S
C2009 C2010 1.379 . S
C2010 H1994 0.931 . S
C2010 C2004 1.383 . S
C2010 C2009 1.379 . S
H2011 C2005 0.959 . S
H2012 C2005 0.961 . S
H2013 C2005 0.960 . S
H2014 C2006 0.930 . S
H2015 C2007 0.929 . S
H2016 C2024 0.929 . S
H2017 C2026 0.930 . S
H2018 C2028 0.930 . S
H2019 C2031 0.929 . S
H2020 C2034 0.930 . S
H2021 C2036 0.960 . S
H2022 C2036 0.960 . S
H2023 C2036 0.960 . S
C2024 H2016 0.929 . S
C2024 C2025 1.377 . S
C2024 C2026 1.384 . S
C2025 C2024 1.377 . S
C2025 C2031 1.390 . S
C2026 H2017 0.930 . S
C2026 C2024 1.384 . S
C2026 C2027 1.372 . S
C2027 C2026 1.372 . S
C2027 C2028 1.400 . S
C2027 C2032 1.490 . S
C2028 H2018 0.930 . S
C2028 C2027 1.400 . S
C2028 C2031 1.386 . S
H2029 C2045 0.930 . S
H2030 C2046 0.931 . S
C2031 H2019 0.929 . S
C2031 C2025 1.390 . S
C2031 C2028 1.386 . S
C2032 C2027 1.490 . S
C2032 C2034 1.395 . S
C2032 C2035 1.403 . S
H2033 C2039 0.930 . S
C2034 H2020 0.930 . S
C2034 C2032 1.395 . S
C2034 C2037 1.403 . S
C2035 C2032 1.403 . S
C2035 C2036 1.524 . S
C2035 C2039 1.400 . S
C2036 H2021 0.960 . S
C2036 H2022 0.960 . S
C2036 H2023 0.960 . S
C2036 C2035 1.524 . S
C2037 C2034 1.403 . S
C2037 C2038 1.392 . S
C2037 C2041 1.495 . S
C2038 C2037 1.392 . S
C2038 C2039 1.385 . S
C2038 C2040 1.478 . S
C2039 H2033 0.930 . S
C2039 C2035 1.400 . S
C2039 C2038 1.385 . S
C2040 C2038 1.478 . S
C2040 C2042 1.381 . S
C2040 C2046 1.383 . S
C2041 C2037 1.495 . S
C2041 H2047 0.959 . S
C2041 H2048 0.961 . S
C2041 H2049 0.960 . S
C2042 C2040 1.381 . S
C2042 C2043 1.394 . S
C2042 H2050 0.930 . S
C2043 C2042 1.394 . S
C2043 C2044 1.383 . S
C2043 H2051 0.929 . S
C2044 C2043 1.383 . S
C2044 C2045 1.377 . S
C2045 H2029 0.930 . S
C2045 C2044 1.377 . S
C2045 C2046 1.379 . S
C2046 H2030 0.931 . S
C2046 C2040 1.383 . S
C2046 C2045 1.379 . S
H2047 C2041 0.959 . S
H2048 C2041 0.961 . S
H2049 C2041 0.960 . S
H2050 C2042 0.930 . S
H2051 C2043 0.929 . S
H2052 C2060 0.929 . S
H2053 C2062 0.930 . S
H2054 C2064 0.930 . S
H2055 C2067 0.929 . S
H2056 C2070 0.930 . S
H2057 C2072 0.960 . S
H2058 C2072 0.960 . S
H2059 C2072 0.960 . S
C2060 H2052 0.929 . S
C2060 C2061 1.377 . S
C2060 C2062 1.384 . S
C2061 C2060 1.377 . S
C2061 C2067 1.390 . S
C2062 H2053 0.930 . S
C2062 C2060 1.384 . S
C2062 C2063 1.372 . S
C2063 C2062 1.372 . S
C2063 C2064 1.400 . S
C2063 C2068 1.490 . S
C2064 H2054 0.930 . S
C2064 C2063 1.400 . S
C2064 C2067 1.386 . S
H2065 C2081 0.930 . S
H2066 C2082 0.931 . S
C2067 H2055 0.929 . S
C2067 C2061 1.390 . S
C2067 C2064 1.386 . S
C2068 C2063 1.490 . S
C2068 C2070 1.395 . S
C2068 C2071 1.403 . S
H2069 C2075 0.930 . S
C2070 H2056 0.930 . S
C2070 C2068 1.395 . S
C2070 C2073 1.403 . S
C2071 C2068 1.403 . S
C2071 C2072 1.524 . S
C2071 C2075 1.400 . S
C2072 H2057 0.960 . S
C2072 H2058 0.960 . S
C2072 H2059 0.960 . S
C2072 C2071 1.524 . S
C2073 C2070 1.403 . S
C2073 C2074 1.392 . S
C2073 C2077 1.495 . S
C2074 C2073 1.392 . S
C2074 C2075 1.385 . S
C2074 C2076 1.478 . S
C2075 H2069 0.930 . S
C2075 C2071 1.400 . S
C2075 C2074 1.385 . S
C2076 C2074 1.478 . S
C2076 C2078 1.381 . S
C2076 C2082 1.383 . S
C2077 C2073 1.495 . S
C2077 H2083 0.959 . S
C2077 H2084 0.961 . S
C2077 H2085 0.960 . S
C2078 C2076 1.381 . S
C2078 C2079 1.394 . S
C2078 H2086 0.930 . S
C2079 C2078 1.394 . S
C2079 C2080 1.383 . S
C2079 H2087 0.929 . S
C2080 C2079 1.383 . S
C2080 C2081 1.377 . S
C2081 H2065 0.930 . S
C2081 C2080 1.377 . S
C2081 C2082 1.379 . S
C2082 H2066 0.931 . S
C2082 C2076 1.383 . S
C2082 C2081 1.379 . S
H2083 C2077 0.959 . S
H2084 C2077 0.961 . S
H2085 C2077 0.960 . S
H2086 C2078 0.930 . S
H2087 C2079 0.929 . S
H2088 C2096 0.929 . S
H2089 C2098 0.930 . S
H2090 C2100 0.930 . S
H2091 C2103 0.929 . S
H2092 C2106 0.930 . S
H2093 C2108 0.960 1_455 S
H2094 C2108 0.960 . S
H2095 C2108 0.960 . S
C2096 H2088 0.929 . S
C2096 C2097 1.377 . S
C2096 C2098 1.384 . S
C2097 C2096 1.377 . S
C2097 C2103 1.390 . S
C2098 H2089 0.930 . S
C2098 C2096 1.384 . S
C2098 C2099 1.372 . S
C2099 C2098 1.372 . S
C2099 C2100 1.400 . S
C2099 C2104 1.490 . S
C2100 H2090 0.930 . S
C2100 C2099 1.400 . S
C2100 C2103 1.386 . S
H2101 C2117 0.930 . S
H2102 C2118 0.931 . S
C2103 H2091 0.929 . S
C2103 C2097 1.390 . S
C2103 C2100 1.386 . S
C2104 C2099 1.490 . S
C2104 C2106 1.395 . S
C2104 C2107 1.403 . S
H2105 C2111 0.930 . S
C2106 H2092 0.930 . S
C2106 C2104 1.395 . S
C2106 C2109 1.403 . S
C2107 C2104 1.403 . S
C2107 C2108 1.524 . S
C2107 C2111 1.400 . S
C2108 H2093 0.960 1_655 S
C2108 H2094 0.960 . S
C2108 H2095 0.960 . S
C2108 C2107 1.524 . S
C2109 C2106 1.403 . S
C2109 C2110 1.392 . S
C2109 C2113 1.495 . S
C2110 C2109 1.392 . S
C2110 C2111 1.385 . S
C2110 C2112 1.478 . S
C2111 H2105 0.930 . S
C2111 C2107 1.400 . S
C2111 C2110 1.385 . S
C2112 C2110 1.478 . S
C2112 C2114 1.381 . S
C2112 C2118 1.383 . S
C2113 C2109 1.495 . S
C2113 H2119 0.959 . S
C2113 H2120 0.961 . S
C2113 H2121 0.960 . S
C2114 C2112 1.381 . S
C2114 C2115 1.394 . S
C2114 H2122 0.930 . S
C2115 C2114 1.394 . S
C2115 C2116 1.383 . S
C2115 H2123 0.929 . S
C2116 C2115 1.383 . S
C2116 C2117 1.377 . S
C2117 H2101 0.930 . S
C2117 C2116 1.377 . S
C2117 C2118 1.379 . S
C2118 H2102 0.931 . S
C2118 C2112 1.383 . S
C2118 C2117 1.379 . S
H2119 C2113 0.959 . S
H2120 C2113 0.961 . S
H2121 C2113 0.960 . S
H2122 C2114 0.930 . S
H2123 C2115 0.929 . S
H2124 C2132 0.929 . S
H2125 C2134 0.930 . S
H2126 C2136 0.930 . S
H2127 C2139 0.929 . S
H2128 C2142 0.930 . S
H2129 C2144 0.960 . S
H2130 C2144 0.960 . S
H2131 C2144 0.960 . S
C2132 H2124 0.929 . S
C2132 C2133 1.377 . S
C2132 C2134 1.384 . S
C2133 C2132 1.377 . S
C2133 C2139 1.390 . S
C2134 H2125 0.930 . S
C2134 C2132 1.384 . S
C2134 C2135 1.372 . S
C2135 C2134 1.372 . S
C2135 C2136 1.400 . S
C2135 C2140 1.490 . S
C2136 H2126 0.930 . S
C2136 C2135 1.400 . S
C2136 C2139 1.386 . S
H2137 C2153 0.930 . S
H2138 C2154 0.931 . S
C2139 H2127 0.929 . S
C2139 C2133 1.390 . S
C2139 C2136 1.386 . S
C2140 C2135 1.490 . S
C2140 C2142 1.395 . S
C2140 C2143 1.403 . S
H2141 C2147 0.930 . S
C2142 H2128 0.930 . S
C2142 C2140 1.395 . S
C2142 C2145 1.403 . S
C2143 C2140 1.403 . S
C2143 C2144 1.524 . S
C2143 C2147 1.400 . S
C2144 H2129 0.960 . S
C2144 H2130 0.960 . S
C2144 H2131 0.960 . S
C2144 C2143 1.524 . S
C2145 C2142 1.403 . S
C2145 C2146 1.392 . S
C2145 C2149 1.495 . S
C2146 C2145 1.392 . S
C2146 C2147 1.385 . S
C2146 C2148 1.478 . S
C2147 H2141 0.930 . S
C2147 C2143 1.400 . S
C2147 C2146 1.385 . S
C2148 C2146 1.478 . S
C2148 C2150 1.381 . S
C2148 C2154 1.383 . S
C2149 C2145 1.495 . S
C2149 H2155 0.959 . S
C2149 H2156 0.961 . S
C2149 H2157 0.960 . S
C2150 C2148 1.381 . S
C2150 C2151 1.394 . S
C2150 H2158 0.930 . S
C2151 C2150 1.394 . S
C2151 C2152 1.383 . S
C2151 H2159 0.929 . S
C2152 C2151 1.383 . S
C2152 C2153 1.377 . S
C2153 H2137 0.930 . S
C2153 C2152 1.377 . S
C2153 C2154 1.379 . S
C2154 H2138 0.931 . S
C2154 C2148 1.383 . S
C2154 C2153 1.379 . S
H2155 C2149 0.959 . S
H2156 C2149 0.961 . S
H2157 C2149 0.960 . S
H2158 C2150 0.930 . S
H2159 C2151 0.929 . S
H2160 C2168 0.929 . S
H2161 C2170 0.930 . S
H2162 C2172 0.930 . S
H2163 C2175 0.929 . S
H2164 C2178 0.930 . S
H2165 C2180 0.960 . S
H2166 C2180 0.960 . S
H2167 C2180 0.960 . S
C2168 H2160 0.929 . S
C2168 C2169 1.377 . S
C2168 C2170 1.384 . S
C2169 C2168 1.377 . S
C2169 C2175 1.390 . S
C2170 H2161 0.930 . S
C2170 C2168 1.384 . S
C2170 C2171 1.372 . S
C2171 C2170 1.372 . S
C2171 C2172 1.400 . S
C2171 C2176 1.490 . S
C2172 H2162 0.930 . S
C2172 C2171 1.400 . S
C2172 C2175 1.386 . S
H2173 C2189 0.930 . S
H2174 C2190 0.931 . S
C2175 H2163 0.929 . S
C2175 C2169 1.390 . S
C2175 C2172 1.386 . S
C2176 C2171 1.490 . S
C2176 C2178 1.395 . S
C2176 C2179 1.403 . S
H2177 C2183 0.930 . S
C2178 H2164 0.930 . S
C2178 C2176 1.395 . S
C2178 C2181 1.403 . S
C2179 C2176 1.403 . S
C2179 C2180 1.524 . S
C2179 C2183 1.400 . S
C2180 H2165 0.960 . S
C2180 H2166 0.960 . S
C2180 H2167 0.960 . S
C2180 C2179 1.524 . S
C2181 C2178 1.403 . S
C2181 C2182 1.392 . S
C2181 C2185 1.495 . S
C2182 C2181 1.392 . S
C2182 C2183 1.385 . S
C2182 C2184 1.478 . S
C2183 H2177 0.930 . S
C2183 C2179 1.400 . S
C2183 C2182 1.385 . S
C2184 C2182 1.478 . S
C2184 C2186 1.381 . S
C2184 C2190 1.383 . S
C2185 C2181 1.495 . S
C2185 H2191 0.959 1_655 S
C2185 H2192 0.961 . S
C2185 H2193 0.960 . S
C2186 C2184 1.381 . S
C2186 C2187 1.394 . S
C2186 H2194 0.930 . S
C2187 C2186 1.394 . S
C2187 C2188 1.383 . S
C2187 H2195 0.929 . S
C2188 C2187 1.383 . S
C2188 C2189 1.377 . S
C2189 H2173 0.930 . S
C2189 C2188 1.377 . S
C2189 C2190 1.379 . S
C2190 H2174 0.931 . S
C2190 C2184 1.383 . S
C2190 C2189 1.379 . S
H2191 C2185 0.959 1_455 S
H2192 C2185 0.961 . S
H2193 C2185 0.960 . S
H2194 C2186 0.930 . S
H2195 C2187 0.929 . S
H2196 C2204 0.929 . S
H2197 C2206 0.930 . S
H2198 C2208 0.930 . S
H2199 C2211 0.929 . S
H2200 C2214 0.930 . S
H2201 C2216 0.960 . S
H2202 C2216 0.960 . S
H2203 C2216 0.960 . S
C2204 H2196 0.929 . S
C2204 C2205 1.377 . S
C2204 C2206 1.384 . S
C2205 C2204 1.377 . S
C2205 C2211 1.390 . S
C2206 H2197 0.930 . S
C2206 C2204 1.384 . S
C2206 C2207 1.372 . S
C2207 C2206 1.372 . S
C2207 C2208 1.400 . S
C2207 C2212 1.490 . S
C2208 H2198 0.930 . S
C2208 C2207 1.400 . S
C2208 C2211 1.386 . S
H2209 C2225 0.930 . S
H2210 C2226 0.931 . S
C2211 H2199 0.929 . S
C2211 C2205 1.390 . S
C2211 C2208 1.386 . S
C2212 C2207 1.490 . S
C2212 C2214 1.395 . S
C2212 C2215 1.403 . S
H2213 C2219 0.930 . S
C2214 H2200 0.930 . S
C2214 C2212 1.395 . S
C2214 C2217 1.403 . S
C2215 C2212 1.403 . S
C2215 C2216 1.524 . S
C2215 C2219 1.400 . S
C2216 H2201 0.960 . S
C2216 H2202 0.960 . S
C2216 H2203 0.960 . S
C2216 C2215 1.524 . S
C2217 C2214 1.403 . S
C2217 C2218 1.392 . S
C2217 C2221 1.495 . S
C2218 C2217 1.392 . S
C2218 C2219 1.385 . S
C2218 C2220 1.478 . S
C2219 H2213 0.930 . S
C2219 C2215 1.400 . S
C2219 C2218 1.385 . S
C2220 C2218 1.478 . S
C2220 C2222 1.381 . S
C2220 C2226 1.383 . S
C2221 C2217 1.495 . S
C2221 H2227 0.959 . S
C2221 H2228 0.961 . S
C2221 H2229 0.960 . S
C2222 C2220 1.381 . S
C2222 C2223 1.394 . S
C2222 H2230 0.930 . S
C2223 C2222 1.394 . S
C2223 C2224 1.383 . S
C2223 H2231 0.929 . S
C2224 C2223 1.383 . S
C2224 C2225 1.377 . S
C2225 H2209 0.930 . S
C2225 C2224 1.377 . S
C2225 C2226 1.379 . S
C2226 H2210 0.931 . S
C2226 C2220 1.383 . S
C2226 C2225 1.379 . S
H2227 C2221 0.959 . S
H2228 C2221 0.961 . S
H2229 C2221 0.960 . S
H2230 C2222 0.930 . S
H2231 C2223 0.929 . S
H2232 C2240 0.929 . S
H2233 C2242 0.930 . S
H2234 C2244 0.930 . S
H2235 C2247 0.929 . S
H2236 C2250 0.930 . S
H2237 C2252 0.960 . S
H2238 C2252 0.960 . S
H2239 C2252 0.960 . S
C2240 H2232 0.929 . S
C2240 C2241 1.377 . S
C2240 C2242 1.384 . S
C2241 C2240 1.377 . S
C2241 C2247 1.390 . S
C2242 H2233 0.930 . S
C2242 C2240 1.384 . S
C2242 C2243 1.372 . S
C2243 C2242 1.372 . S
C2243 C2244 1.400 . S
C2243 C2248 1.490 . S
C2244 H2234 0.930 . S
C2244 C2243 1.400 . S
C2244 C2247 1.386 . S
H2245 C2261 0.930 . S
H2246 C2262 0.931 . S
C2247 H2235 0.929 . S
C2247 C2241 1.390 . S
C2247 C2244 1.386 . S
C2248 C2243 1.490 . S
C2248 C2250 1.395 . S
C2248 C2251 1.403 . S
H2249 C2255 0.930 . S
C2250 H2236 0.930 . S
C2250 C2248 1.395 . S
C2250 C2253 1.403 . S
C2251 C2248 1.403 . S
C2251 C2252 1.524 . S
C2251 C2255 1.400 . S
C2252 H2237 0.960 . S
C2252 H2238 0.960 . S
C2252 H2239 0.960 . S
C2252 C2251 1.524 . S
C2253 C2250 1.403 . S
C2253 C2254 1.392 . S
C2253 C2257 1.495 . S
C2254 C2253 1.392 . S
C2254 C2255 1.385 . S
C2254 C2256 1.478 . S
C2255 H2249 0.930 . S
C2255 C2251 1.400 . S
C2255 C2254 1.385 . S
C2256 C2254 1.478 . S
C2256 C2258 1.381 . S
C2256 C2262 1.383 . S
C2257 C2253 1.495 . S
C2257 H2263 0.959 . S
C2257 H2264 0.961 . S
C2257 H2265 0.960 . S
C2258 C2256 1.381 . S
C2258 C2259 1.394 . S
C2258 H2266 0.930 . S
C2259 C2258 1.394 . S
C2259 C2260 1.383 . S
C2259 H2267 0.929 . S
C2260 C2259 1.383 . S
C2260 C2261 1.377 . S
C2261 H2245 0.930 . S
C2261 C2260 1.377 . S
C2261 C2262 1.379 . S
C2262 H2246 0.931 . S
C2262 C2256 1.383 . S
C2262 C2261 1.379 . S
H2263 C2257 0.959 . S
H2264 C2257 0.961 . S
H2265 C2257 0.960 . S
H2266 C2258 0.930 . S
H2267 C2259 0.929 . S
H2268 C2276 0.929 . S
H2269 C2278 0.930 . S
H2270 C2280 0.930 . S
H2271 C2283 0.929 . S
H2272 C2286 0.930 . S
H2273 C2288 0.960 . S
H2274 C2288 0.960 . S
H2275 C2288 0.960 . S
C2276 H2268 0.929 . S
C2276 C2277 1.377 . S
C2276 C2278 1.384 . S
C2277 C2276 1.377 . S
C2277 C2283 1.390 . S
C2278 H2269 0.930 . S
C2278 C2276 1.384 . S
C2278 C2279 1.372 . S
C2279 C2278 1.372 . S
C2279 C2280 1.400 . S
C2279 C2284 1.490 . S
C2280 H2270 0.930 . S
C2280 C2279 1.400 . S
C2280 C2283 1.386 . S
H2281 C2297 0.930 . S
H2282 C2298 0.931 . S
C2283 H2271 0.929 . S
C2283 C2277 1.390 . S
C2283 C2280 1.386 . S
C2284 C2279 1.490 . S
C2284 C2286 1.395 . S
C2284 C2287 1.403 . S
H2285 C2291 0.930 . S
C2286 H2272 0.930 . S
C2286 C2284 1.395 . S
C2286 C2289 1.403 . S
C2287 C2284 1.403 . S
C2287 C2288 1.524 . S
C2287 C2291 1.400 . S
C2288 H2273 0.960 . S
C2288 H2274 0.960 . S
C2288 H2275 0.960 . S
C2288 C2287 1.524 . S
C2289 C2286 1.403 . S
C2289 C2290 1.392 . S
C2289 C2293 1.495 . S
C2290 C2289 1.392 . S
C2290 C2291 1.385 . S
C2290 C2292 1.478 . S
C2291 H2285 0.930 . S
C2291 C2287 1.400 . S
C2291 C2290 1.385 . S
C2292 C2290 1.478 . S
C2292 C2294 1.381 . S
C2292 C2298 1.383 . S
C2293 C2289 1.495 . S
C2293 H2299 0.959 . S
C2293 H2300 0.961 . S
C2293 H2301 0.960 . S
C2294 C2292 1.381 . S
C2294 C2295 1.394 . S
C2294 H2302 0.930 . S
C2295 C2294 1.394 . S
C2295 C2296 1.383 . S
C2295 H2303 0.929 . S
C2296 C2295 1.383 . S
C2296 C2297 1.377 . S
C2297 H2281 0.930 . S
C2297 C2296 1.377 . S
C2297 C2298 1.379 . S
C2298 H2282 0.931 . S
C2298 C2292 1.383 . S
C2298 C2297 1.379 . S
H2299 C2293 0.959 . S
H2300 C2293 0.961 . S
H2301 C2293 0.960 . S
H2302 C2294 0.930 . S
H2303 C2295 0.929 . S
H2304 C2312 0.929 . S
H2305 C2314 0.930 . S
H2306 C2316 0.930 . S
H2307 C2319 0.929 . S
H2308 C2322 0.930 . S
H2309 C2324 0.960 . S
H2310 C2324 0.960 . S
H2311 C2324 0.960 . S
C2312 H2304 0.929 . S
C2312 C2313 1.377 . S
C2312 C2314 1.384 . S
C2313 C2312 1.377 . S
C2313 C2319 1.390 . S
C2314 H2305 0.930 . S
C2314 C2312 1.384 . S
C2314 C2315 1.372 . S
C2315 C2314 1.372 . S
C2315 C2316 1.400 . S
C2315 C2320 1.490 . S
C2316 H2306 0.930 . S
C2316 C2315 1.400 . S
C2316 C2319 1.386 . S
H2317 C2333 0.930 . S
H2318 C2334 0.931 . S
C2319 H2307 0.929 . S
C2319 C2313 1.390 . S
C2319 C2316 1.386 . S
C2320 C2315 1.490 . S
C2320 C2322 1.395 . S
C2320 C2323 1.403 . S
H2321 C2327 0.930 . S
C2322 H2308 0.930 . S
C2322 C2320 1.395 . S
C2322 C2325 1.403 . S
C2323 C2320 1.403 . S
C2323 C2324 1.524 . S
C2323 C2327 1.400 . S
C2324 H2309 0.960 . S
C2324 H2310 0.960 . S
C2324 H2311 0.960 . S
C2324 C2323 1.524 . S
C2325 C2322 1.403 . S
C2325 C2326 1.392 . S
C2325 C2329 1.495 . S
C2326 C2325 1.392 . S
C2326 C2327 1.385 . S
C2326 C2328 1.478 . S
C2327 H2321 0.930 . S
C2327 C2323 1.400 . S
C2327 C2326 1.385 . S
C2328 C2326 1.478 . S
C2328 C2330 1.381 . S
C2328 C2334 1.383 . S
C2329 C2325 1.495 . S
C2329 H2335 0.959 . S
C2329 H2336 0.961 . S
C2329 H2337 0.960 . S
C2330 C2328 1.381 . S
C2330 C2331 1.394 . S
C2330 H2338 0.930 . S
C2331 C2330 1.394 . S
C2331 C2332 1.383 . S
C2331 H2339 0.929 . S
C2332 C2331 1.383 . S
C2332 C2333 1.377 . S
C2333 H2317 0.930 . S
C2333 C2332 1.377 . S
C2333 C2334 1.379 . S
C2334 H2318 0.931 . S
C2334 C2328 1.383 . S
C2334 C2333 1.379 . S
H2335 C2329 0.959 . S
H2336 C2329 0.961 . S
H2337 C2329 0.960 . S
H2338 C2330 0.930 . S
H2339 C2331 0.929 . S
H2340 C2348 0.929 . S
H2341 C2350 0.930 . S
H2342 C2352 0.930 . S
H2343 C2355 0.929 . S
H2344 C2358 0.930 . S
H2345 C2360 0.960 . S
H2346 C2360 0.960 . S
H2347 C2360 0.960 . S
C2348 H2340 0.929 . S
C2348 C2349 1.377 . S
C2348 C2350 1.384 . S
C2349 C2348 1.377 . S
C2349 C2355 1.390 . S
C2350 H2341 0.930 . S
C2350 C2348 1.384 . S
C2350 C2351 1.372 . S
C2351 C2350 1.372 . S
C2351 C2352 1.400 . S
C2351 C2356 1.490 . S
C2352 H2342 0.930 . S
C2352 C2351 1.400 . S
C2352 C2355 1.386 . S
H2353 C2369 0.930 . S
H2354 C2370 0.931 . S
C2355 H2343 0.929 . S
C2355 C2349 1.390 . S
C2355 C2352 1.386 . S
C2356 C2351 1.490 . S
C2356 C2358 1.395 . S
C2356 C2359 1.403 . S
H2357 C2363 0.930 . S
C2358 H2344 0.930 . S
C2358 C2356 1.395 . S
C2358 C2361 1.403 . S
C2359 C2356 1.403 . S
C2359 C2360 1.524 . S
C2359 C2363 1.400 . S
C2360 H2345 0.960 . S
C2360 H2346 0.960 . S
C2360 H2347 0.960 . S
C2360 C2359 1.524 . S
C2361 C2358 1.403 . S
C2361 C2362 1.392 . S
C2361 C2365 1.495 . S
C2362 C2361 1.392 . S
C2362 C2363 1.385 . S
C2362 C2364 1.478 . S
C2363 H2357 0.930 . S
C2363 C2359 1.400 . S
C2363 C2362 1.385 . S
C2364 C2362 1.478 . S
C2364 C2366 1.381 . S
C2364 C2370 1.383 . S
C2365 C2361 1.495 . S
C2365 H2371 0.959 . S
C2365 H2372 0.961 . S
C2365 H2373 0.960 . S
C2366 C2364 1.381 . S
C2366 C2367 1.394 . S
C2366 H2374 0.930 . S
C2367 C2366 1.394 . S
C2367 C2368 1.383 . S
C2367 H2375 0.929 . S
C2368 C2367 1.383 . S
C2368 C2369 1.377 . S
C2369 H2353 0.930 . S
C2369 C2368 1.377 . S
C2369 C2370 1.379 . S
C2370 H2354 0.931 . S
C2370 C2364 1.383 . S
C2370 C2369 1.379 . S
H2371 C2365 0.959 . S
H2372 C2365 0.961 . S
H2373 C2365 0.960 . S
H2374 C2366 0.930 . S
H2375 C2367 0.929 . S
H2376 C2384 0.929 . S
H2377 C2386 0.930 . S
H2378 C2388 0.930 . S
H2379 C2391 0.929 . S
H2380 C2394 0.930 . S
H2381 C2396 0.960 . S
H2382 C2396 0.960 . S
H2383 C2396 0.960 . S
C2384 H2376 0.929 . S
C2384 C2385 1.377 . S
C2384 C2386 1.384 . S
C2385 C2384 1.377 . S
C2385 C2391 1.390 . S
C2386 H2377 0.930 . S
C2386 C2384 1.384 . S
C2386 C2387 1.372 . S
C2387 C2386 1.372 . S
C2387 C2388 1.400 . S
C2387 C2392 1.490 . S
C2388 H2378 0.930 . S
C2388 C2387 1.400 . S
C2388 C2391 1.386 . S
H2389 C2405 0.930 . S
H2390 C2406 0.931 . S
C2391 H2379 0.929 . S
C2391 C2385 1.390 . S
C2391 C2388 1.386 . S
C2392 C2387 1.490 . S
C2392 C2394 1.395 . S
C2392 C2395 1.403 . S
H2393 C2399 0.930 . S
C2394 H2380 0.930 . S
C2394 C2392 1.395 . S
C2394 C2397 1.403 . S
C2395 C2392 1.403 . S
C2395 C2396 1.524 . S
C2395 C2399 1.400 . S
C2396 H2381 0.960 . S
C2396 H2382 0.960 . S
C2396 H2383 0.960 . S
C2396 C2395 1.524 . S
C2397 C2394 1.403 . S
C2397 C2398 1.392 . S
C2397 C2401 1.495 . S
C2398 C2397 1.392 . S
C2398 C2399 1.385 . S
C2398 C2400 1.478 . S
C2399 H2393 0.930 . S
C2399 C2395 1.400 . S
C2399 C2398 1.385 . S
C2400 C2398 1.478 . S
C2400 C2402 1.381 . S
C2400 C2406 1.383 . S
C2401 C2397 1.495 . S
C2401 H2407 0.959 1_565 S
C2401 H2408 0.958 . S
C2401 H2409 0.960 . S
C2402 C2400 1.381 . S
C2402 C2403 1.394 . S
C2402 H2410 0.930 . S
C2403 C2402 1.394 . S
C2403 C2404 1.383 . S
C2403 H2411 0.929 . S
C2404 C2403 1.383 . S
C2404 C2405 1.377 . S
C2405 H2389 0.930 . S
C2405 C2404 1.377 . S
C2405 C2406 1.379 . S
C2406 H2390 0.931 . S
C2406 C2400 1.383 . S
C2406 C2405 1.379 . S
H2407 C2401 0.959 1_545 S
H2408 C2401 0.958 . S
H2409 C2401 0.960 . S
H2410 C2402 0.930 . S
H2411 C2403 0.929 . S
H2412 C2420 0.929 . S
H2413 C2422 0.930 . S
H2414 C2424 0.930 . S
H2415 C2427 0.929 . S
H2416 C2430 0.930 . S
H2417 C2432 0.960 . S
H2418 C2432 0.960 . S
H2419 C2432 0.960 . S
C2420 H2412 0.929 . S
C2420 C2421 1.377 . S
C2420 C2422 1.384 . S
C2421 C2420 1.377 . S
C2421 C2427 1.390 . S
C2422 H2413 0.930 . S
C2422 C2420 1.384 . S
C2422 C2423 1.372 . S
C2423 C2422 1.372 . S
C2423 C2424 1.400 . S
C2423 C2428 1.490 . S
C2424 H2414 0.930 . S
C2424 C2423 1.400 . S
C2424 C2427 1.386 . S
H2425 C2441 0.930 . S
H2426 C2442 0.931 . S
C2427 H2415 0.929 . S
C2427 C2421 1.390 . S
C2427 C2424 1.386 . S
C2428 C2423 1.490 . S
C2428 C2430 1.395 . S
C2428 C2431 1.403 . S
H2429 C2435 0.930 . S
C2430 H2416 0.930 . S
C2430 C2428 1.395 . S
C2430 C2433 1.403 . S
C2431 C2428 1.403 . S
C2431 C2432 1.524 . S
C2431 C2435 1.400 . S
C2432 H2417 0.960 . S
C2432 H2418 0.960 . S
C2432 H2419 0.960 . S
C2432 C2431 1.524 . S
C2433 C2430 1.403 . S
C2433 C2434 1.392 . S
C2433 C2437 1.495 . S
C2434 C2433 1.392 . S
C2434 C2435 1.385 . S
C2434 C2436 1.478 . S
C2435 H2429 0.930 . S
C2435 C2431 1.400 . S
C2435 C2434 1.385 . S
C2436 C2434 1.478 . S
C2436 C2438 1.381 . S
C2436 C2442 1.383 . S
C2437 C2433 1.495 . S
C2437 H2443 0.959 . S
C2437 H2444 0.961 . S
C2437 H2445 0.960 . S
C2438 C2436 1.381 . S
C2438 C2439 1.394 . S
C2438 H2446 0.930 . S
C2439 C2438 1.394 . S
C2439 C2440 1.383 . S
C2439 H2447 0.929 . S
C2440 C2439 1.383 . S
C2440 C2441 1.377 . S
C2441 H2425 0.930 . S
C2441 C2440 1.377 . S
C2441 C2442 1.379 . S
C2442 H2426 0.931 . S
C2442 C2436 1.383 . S
C2442 C2441 1.379 . S
H2443 C2437 0.959 . S
H2444 C2437 0.961 . S
H2445 C2437 0.960 . S
H2446 C2438 0.930 . S
H2447 C2439 0.929 . S
H2448 C2456 0.929 . S
H2449 C2458 0.930 . S
H2450 C2460 0.930 . S
H2451 C2463 0.929 . S
H2452 C2466 0.930 . S
H2453 C2468 0.960 . S
H2454 C2468 0.960 . S
H2455 C2468 0.960 . S
C2456 H2448 0.929 . S
C2456 C2457 1.377 . S
C2456 C2458 1.384 . S
C2457 C2456 1.377 . S
C2457 C2463 1.390 . S
C2458 H2449 0.930 . S
C2458 C2456 1.384 . S
C2458 C2459 1.372 . S
C2459 C2458 1.372 . S
C2459 C2460 1.400 . S
C2459 C2464 1.490 . S
C2460 H2450 0.930 . S
C2460 C2459 1.400 . S
C2460 C2463 1.386 . S
H2461 C2477 0.930 . S
H2462 C2478 0.931 . S
C2463 H2451 0.929 . S
C2463 C2457 1.390 . S
C2463 C2460 1.386 . S
C2464 C2459 1.490 . S
C2464 C2466 1.395 . S
C2464 C2467 1.403 . S
H2465 C2471 0.930 . S
C2466 H2452 0.930 . S
C2466 C2464 1.395 . S
C2466 C2469 1.403 . S
C2467 C2464 1.403 . S
C2467 C2468 1.524 . S
C2467 C2471 1.400 . S
C2468 H2453 0.960 . S
C2468 H2454 0.960 . S
C2468 H2455 0.960 . S
C2468 C2467 1.524 . S
C2469 C2466 1.403 . S
C2469 C2470 1.392 . S
C2469 C2473 1.495 . S
C2470 C2469 1.392 . S
C2470 C2471 1.385 . S
C2470 C2472 1.478 . S
C2471 H2465 0.930 . S
C2471 C2467 1.400 . S
C2471 C2470 1.385 . S
C2472 C2470 1.478 . S
C2472 C2474 1.381 . S
C2472 C2478 1.383 . S
C2473 C2469 1.495 . S
C2473 H2479 0.959 . S
C2473 H2480 0.961 . S
C2473 H2481 0.960 . S
C2474 C2472 1.381 . S
C2474 C2475 1.394 . S
C2474 H2482 0.930 . S
C2475 C2474 1.394 . S
C2475 C2476 1.383 . S
C2475 H2483 0.929 . S
C2476 C2475 1.383 . S
C2476 C2477 1.377 . S
C2477 H2461 0.930 . S
C2477 C2476 1.377 . S
C2477 C2478 1.379 . S
C2478 H2462 0.931 . S
C2478 C2472 1.383 . S
C2478 C2477 1.379 . S
H2479 C2473 0.959 . S
H2480 C2473 0.961 . S
H2481 C2473 0.960 . S
H2482 C2474 0.930 . S
H2483 C2475 0.929 . S
H2484 C2492 0.929 . S
H2485 C2494 0.930 . S
H2486 C2496 0.930 . S
H2487 C2499 0.929 . S
H2488 C2502 0.930 . S
H2489 C2504 0.960 . S
H2490 C2504 0.960 . S
H2491 C2504 0.960 . S
C2492 H2484 0.929 . S
C2492 C2493 1.377 . S
C2492 C2494 1.384 . S
C2493 C2492 1.377 . S
C2493 C2499 1.390 . S
C2494 H2485 0.930 . S
C2494 C2492 1.384 . S
C2494 C2495 1.372 . S
C2495 C2494 1.372 . S
C2495 C2496 1.400 . S
C2495 C2500 1.490 . S
C2496 H2486 0.930 . S
C2496 C2495 1.400 . S
C2496 C2499 1.386 . S
H2497 C2513 0.930 . S
H2498 C2514 0.931 . S
C2499 H2487 0.929 . S
C2499 C2493 1.390 . S
C2499 C2496 1.386 . S
C2500 C2495 1.490 . S
C2500 C2502 1.395 . S
C2500 C2503 1.403 . S
H2501 C2507 0.930 . S
C2502 H2488 0.930 . S
C2502 C2500 1.395 . S
C2502 C2505 1.403 . S
C2503 C2500 1.403 . S
C2503 C2504 1.524 . S
C2503 C2507 1.400 . S
C2504 H2489 0.960 . S
C2504 H2490 0.960 . S
C2504 H2491 0.960 . S
C2504 C2503 1.524 . S
C2505 C2502 1.403 . S
C2505 C2506 1.392 . S
C2505 C2509 1.495 . S
C2506 C2505 1.392 . S
C2506 C2507 1.385 . S
C2506 C2508 1.478 . S
C2507 H2501 0.930 . S
C2507 C2503 1.400 . S
C2507 C2506 1.385 . S
C2508 C2506 1.478 . S
C2508 C2510 1.381 . S
C2508 C2514 1.383 . S
C2509 C2505 1.495 . S
C2509 H2515 0.959 . S
C2509 H2516 0.961 . S
C2509 H2517 0.960 . S
C2510 C2508 1.381 . S
C2510 C2511 1.394 . S
C2510 H2518 0.930 . S
C2511 C2510 1.394 . S
C2511 C2512 1.383 . S
C2511 H2519 0.929 . S
C2512 C2511 1.383 . S
C2512 C2513 1.377 . S
C2513 H2497 0.930 . S
C2513 C2512 1.377 . S
C2513 C2514 1.379 . S
C2514 H2498 0.931 . S
C2514 C2508 1.383 . S
C2514 C2513 1.379 . S
H2515 C2509 0.959 . S
H2516 C2509 0.961 . S
H2517 C2509 0.960 . S
H2518 C2510 0.930 . S
H2519 C2511 0.929 . S
H2520 C2528 0.929 . S
H2521 C2530 0.930 . S
H2522 C2532 0.930 . S
H2523 C2535 0.929 . S
H2524 C2538 0.930 . S
H2525 C2540 0.960 . S
H2526 C2540 0.960 . S
H2527 C2540 0.960 . S
C2528 H2520 0.929 . S
C2528 C2529 1.377 . S
C2528 C2530 1.384 . S
C2529 C2528 1.377 . S
C2529 C2535 1.390 . S
C2530 H2521 0.930 . S
C2530 C2528 1.384 . S
C2530 C2531 1.372 . S
C2531 C2530 1.372 . S
C2531 C2532 1.400 . S
C2531 C2536 1.490 . S
C2532 H2522 0.930 . S
C2532 C2531 1.400 . S
C2532 C2535 1.386 . S
H2533 C2549 0.930 . S
H2534 C2550 0.931 . S
C2535 H2523 0.929 . S
C2535 C2529 1.390 . S
C2535 C2532 1.386 . S
C2536 C2531 1.490 . S
C2536 C2538 1.395 . S
C2536 C2539 1.403 . S
H2537 C2543 0.930 . S
C2538 H2524 0.930 . S
C2538 C2536 1.395 . S
C2538 C2541 1.403 . S
C2539 C2536 1.403 . S
C2539 C2540 1.524 . S
C2539 C2543 1.400 . S
C2540 H2525 0.960 . S
C2540 H2526 0.960 . S
C2540 H2527 0.960 . S
C2540 C2539 1.524 . S
C2541 C2538 1.403 . S
C2541 C2542 1.392 . S
C2541 C2545 1.495 . S
C2542 C2541 1.392 . S
C2542 C2543 1.385 . S
C2542 C2544 1.478 . S
C2543 H2537 0.930 . S
C2543 C2539 1.400 . S
C2543 C2542 1.385 . S
C2544 C2542 1.478 . S
C2544 C2546 1.381 . S
C2544 C2550 1.383 . S
C2545 C2541 1.495 . S
C2545 H2551 0.959 . S
C2545 H2552 0.961 . S
C2545 H2553 0.960 . S
C2546 C2544 1.381 . S
C2546 C2547 1.394 . S
C2546 H2554 0.930 . S
C2547 C2546 1.394 . S
C2547 C2548 1.383 . S
C2547 H2555 0.929 . S
C2548 C2547 1.383 . S
C2548 C2549 1.377 . S
C2549 H2533 0.930 . S
C2549 C2548 1.377 . S
C2549 C2550 1.379 . S
C2550 H2534 0.931 . S
C2550 C2544 1.383 . S
C2550 C2549 1.379 . S
H2551 C2545 0.959 . S
H2552 C2545 0.961 . S
H2553 C2545 0.960 . S
H2554 C2546 0.930 . S
H2555 C2547 0.929 . S
H2556 C2564 0.929 . S
H2557 C2566 0.930 . S
H2558 C2568 0.930 . S
H2559 C2571 0.929 . S
H2560 C2574 0.930 . S
H2561 C2576 0.960 . S
H2562 C2576 0.960 . S
H2563 C2576 0.960 . S
C2564 H2556 0.929 . S
C2564 C2565 1.377 . S
C2564 C2566 1.384 . S
C2565 C2564 1.377 . S
C2565 C2571 1.390 . S
C2566 H2557 0.930 . S
C2566 C2564 1.384 . S
C2566 C2567 1.372 . S
C2567 C2566 1.372 . S
C2567 C2568 1.400 . S
C2567 C2572 1.490 . S
C2568 H2558 0.930 . S
C2568 C2567 1.400 . S
C2568 C2571 1.386 . S
H2569 C2585 0.930 . S
H2570 C2586 0.931 . S
C2571 H2559 0.929 . S
C2571 C2565 1.390 . S
C2571 C2568 1.386 . S
C2572 C2567 1.490 . S
C2572 C2574 1.395 . S
C2572 C2575 1.403 . S
H2573 C2579 0.930 . S
C2574 H2560 0.930 . S
C2574 C2572 1.395 . S
C2574 C2577 1.403 . S
C2575 C2572 1.403 . S
C2575 C2576 1.524 . S
C2575 C2579 1.400 . S
C2576 H2561 0.960 . S
C2576 H2562 0.960 . S
C2576 H2563 0.960 . S
C2576 C2575 1.524 . S
C2577 C2574 1.403 . S
C2577 C2578 1.392 . S
C2577 C2581 1.495 . S
C2578 C2577 1.392 . S
C2578 C2579 1.385 . S
C2578 C2580 1.478 . S
C2579 H2573 0.930 . S
C2579 C2575 1.400 . S
C2579 C2578 1.385 . S
C2580 C2578 1.478 . S
C2580 C2582 1.381 . S
C2580 C2586 1.383 . S
C2581 C2577 1.495 . S
C2581 H2587 0.959 . S
C2581 H2588 0.961 . S
C2581 H2589 0.960 . S
C2582 C2580 1.381 . S
C2582 C2583 1.394 . S
C2582 H2590 0.930 . S
C2583 C2582 1.394 . S
C2583 C2584 1.383 . S
C2583 H2591 0.929 . S
C2584 C2583 1.383 . S
C2584 C2585 1.377 . S
C2585 H2569 0.930 . S
C2585 C2584 1.377 . S
C2585 C2586 1.379 . S
C2586 H2570 0.931 . S
C2586 C2580 1.383 . S
C2586 C2585 1.379 . S
H2587 C2581 0.959 . S
H2588 C2581 0.961 . S
H2589 C2581 0.960 . S
H2590 C2582 0.930 . S
H2591 C2583 0.929 . S
H2592 C2600 0.929 . S
H2593 C2602 0.930 . S
H2594 C2604 0.930 . S
H2595 C2607 0.929 . S
H2596 C2610 0.930 . S
H2597 C2612 0.960 . S
H2598 C2612 0.960 . S
H2599 C2612 0.960 . S
C2600 H2592 0.929 . S
C2600 C2601 1.377 . S
C2600 C2602 1.384 . S
C2601 C2600 1.377 . S
C2601 C2607 1.390 . S
C2602 H2593 0.930 . S
C2602 C2600 1.384 . S
C2602 C2603 1.372 . S
C2603 C2602 1.372 . S
C2603 C2604 1.400 . S
C2603 C2608 1.490 . S
C2604 H2594 0.930 . S
C2604 C2603 1.400 . S
C2604 C2607 1.386 . S
H2605 C2621 0.930 . S
H2606 C2622 0.931 . S
C2607 H2595 0.929 . S
C2607 C2601 1.390 . S
C2607 C2604 1.386 . S
C2608 C2603 1.490 . S
C2608 C2610 1.395 . S
C2608 C2611 1.403 . S
H2609 C2615 0.930 . S
C2610 H2596 0.930 . S
C2610 C2608 1.395 . S
C2610 C2613 1.403 . S
C2611 C2608 1.403 . S
C2611 C2612 1.524 . S
C2611 C2615 1.400 . S
C2612 H2597 0.960 . S
C2612 H2598 0.960 . S
C2612 H2599 0.960 . S
C2612 C2611 1.524 . S
C2613 C2610 1.403 . S
C2613 C2614 1.392 . S
C2613 C2617 1.495 . S
C2614 C2613 1.392 . S
C2614 C2615 1.385 . S
C2614 C2616 1.478 . S
C2615 H2609 0.930 . S
C2615 C2611 1.400 . S
C2615 C2614 1.385 . S
C2616 C2614 1.478 . S
C2616 C2618 1.381 . S
C2616 C2622 1.383 . S
C2617 C2613 1.495 . S
C2617 H2623 0.959 . S
C2617 H2624 0.961 . S
C2617 H2625 0.960 . S
C2618 C2616 1.381 . S
C2618 C2619 1.394 . S
C2618 H2626 0.930 . S
C2619 C2618 1.394 . S
C2619 C2620 1.383 . S
C2619 H2627 0.929 . S
C2620 C2619 1.383 . S
C2620 C2621 1.377 . S
C2621 H2605 0.930 . S
C2621 C2620 1.377 . S
C2621 C2622 1.379 . S
C2622 H2606 0.931 . S
C2622 C2616 1.383 . S
C2622 C2621 1.379 . S
H2623 C2617 0.959 . S
H2624 C2617 0.961 . S
H2625 C2617 0.960 . S
H2626 C2618 0.930 . S
H2627 C2619 0.929 . S
H2628 C2636 0.929 . S
H2629 C2638 0.930 . S
H2630 C2640 0.930 . S
H2631 C2643 0.929 . S
H2632 C2646 0.930 . S
H2633 C2648 0.960 . S
H2634 C2648 0.960 . S
H2635 C2648 0.960 . S
C2636 H2628 0.929 . S
C2636 C2637 1.377 . S
C2636 C2638 1.384 . S
C2637 C2636 1.377 . S
C2637 C2643 1.390 . S
C2638 H2629 0.930 . S
C2638 C2636 1.384 . S
C2638 C2639 1.372 . S
C2639 C2638 1.372 . S
C2639 C2640 1.400 . S
C2639 C2644 1.490 . S
C2640 H2630 0.930 . S
C2640 C2639 1.400 . S
C2640 C2643 1.386 . S
H2641 C2657 0.930 . S
H2642 C2658 0.931 . S
C2643 H2631 0.929 . S
C2643 C2637 1.390 . S
C2643 C2640 1.386 . S
C2644 C2639 1.490 . S
C2644 C2646 1.395 . S
C2644 C2647 1.403 . S
H2645 C2651 0.930 . S
C2646 H2632 0.930 . S
C2646 C2644 1.395 . S
C2646 C2649 1.403 . S
C2647 C2644 1.403 . S
C2647 C2648 1.524 . S
C2647 C2651 1.400 . S
C2648 H2633 0.960 . S
C2648 H2634 0.960 . S
C2648 H2635 0.960 . S
C2648 C2647 1.524 . S
C2649 C2646 1.403 . S
C2649 C2650 1.392 . S
C2649 C2653 1.495 . S
C2650 C2649 1.392 . S
C2650 C2651 1.385 . S
C2650 C2652 1.478 . S
C2651 H2645 0.930 . S
C2651 C2647 1.400 . S
C2651 C2650 1.385 . S
C2652 C2650 1.478 . S
C2652 C2654 1.381 . S
C2652 C2658 1.383 . S
C2653 C2649 1.495 . S
C2653 H2659 0.959 . S
C2653 H2660 0.961 . S
C2653 H2661 0.960 . S
C2654 C2652 1.381 . S
C2654 C2655 1.394 . S
C2654 H2662 0.930 . S
C2655 C2654 1.394 . S
C2655 C2656 1.383 . S
C2655 H2663 0.929 . S
C2656 C2655 1.383 . S
C2656 C2657 1.377 . S
C2657 H2641 0.930 . S
C2657 C2656 1.377 . S
C2657 C2658 1.379 . S
C2658 H2642 0.931 . S
C2658 C2652 1.383 . S
C2658 C2657 1.379 . S
H2659 C2653 0.959 . S
H2660 C2653 0.961 . S
H2661 C2653 0.960 . S
H2662 C2654 0.930 . S
H2663 C2655 0.929 . S
H2664 C2672 0.929 . S
H2665 C2674 0.930 . S
H2666 C2676 0.930 . S
H2667 C2679 0.929 . S
H2668 C2682 0.930 . S
H2669 C2684 0.960 . S
H2670 C2684 0.960 . S
H2671 C2684 0.960 . S
C2672 H2664 0.929 . S
C2672 C2673 1.377 . S
C2672 C2674 1.384 . S
C2673 C2672 1.377 . S
C2673 C2679 1.390 . S
C2674 H2665 0.930 . S
C2674 C2672 1.384 . S
C2674 C2675 1.372 . S
C2675 C2674 1.372 . S
C2675 C2676 1.400 . S
C2675 C2680 1.490 . S
C2676 H2666 0.930 . S
C2676 C2675 1.400 . S
C2676 C2679 1.386 . S
H2677 C2693 0.930 . S
H2678 C2694 0.931 . S
C2679 H2667 0.929 . S
C2679 C2673 1.390 . S
C2679 C2676 1.386 . S
C2680 C2675 1.490 . S
C2680 C2682 1.395 . S
C2680 C2683 1.403 . S
H2681 C2687 0.930 . S
C2682 H2668 0.930 . S
C2682 C2680 1.395 . S
C2682 C2685 1.403 . S
C2683 C2680 1.403 . S
C2683 C2684 1.524 . S
C2683 C2687 1.400 . S
C2684 H2669 0.960 . S
C2684 H2670 0.960 . S
C2684 H2671 0.960 . S
C2684 C2683 1.524 . S
C2685 C2682 1.403 . S
C2685 C2686 1.392 . S
C2685 C2689 1.495 . S
C2686 C2685 1.392 . S
C2686 C2687 1.385 . S
C2686 C2688 1.478 . S
C2687 H2681 0.930 . S
C2687 C2683 1.400 . S
C2687 C2686 1.385 . S
C2688 C2686 1.478 . S
C2688 C2690 1.381 . S
C2688 C2694 1.383 . S
C2689 C2685 1.495 . S
C2689 H2695 0.959 . S
C2689 H2696 0.961 . S
C2689 H2697 0.960 . S
C2690 C2688 1.381 . S
C2690 C2691 1.394 . S
C2690 H2698 0.930 . S
C2691 C2690 1.394 . S
C2691 C2692 1.383 . S
C2691 H2699 0.929 . S
C2692 C2691 1.383 . S
C2692 C2693 1.377 . S
C2693 H2677 0.930 . S
C2693 C2692 1.377 . S
C2693 C2694 1.379 . S
C2694 H2678 0.931 . S
C2694 C2688 1.383 . S
C2694 C2693 1.379 . S
H2695 C2689 0.959 . S
H2696 C2689 0.961 . S
H2697 C2689 0.960 . S
H2698 C2690 0.930 . S
H2699 C2691 0.929 . S
H2700 C2708 0.929 . S
H2701 C2710 0.930 . S
H2702 C2712 0.930 . S
H2703 C2715 0.929 . S
H2704 C2718 0.930 . S
H2705 C2720 0.960 . S
H2706 C2720 0.960 . S
H2707 C2720 0.960 . S
C2708 H2700 0.929 . S
C2708 C2709 1.377 . S
C2708 C2710 1.384 . S
C2709 C2708 1.377 . S
C2709 C2715 1.390 . S
C2710 H2701 0.930 . S
C2710 C2708 1.384 . S
C2710 C2711 1.372 . S
C2711 C2710 1.372 . S
C2711 C2712 1.400 . S
C2711 C2716 1.490 . S
C2712 H2702 0.930 . S
C2712 C2711 1.400 . S
C2712 C2715 1.386 . S
H2713 C2729 0.930 . S
H2714 C2730 0.931 . S
C2715 H2703 0.929 . S
C2715 C2709 1.390 . S
C2715 C2712 1.386 . S
C2716 C2711 1.490 . S
C2716 C2718 1.395 . S
C2716 C2719 1.403 . S
H2717 C2723 0.930 . S
C2718 H2704 0.930 . S
C2718 C2716 1.395 . S
C2718 C2721 1.403 . S
C2719 C2716 1.403 . S
C2719 C2720 1.524 . S
C2719 C2723 1.400 . S
C2720 H2705 0.960 . S
C2720 H2706 0.960 . S
C2720 H2707 0.960 . S
C2720 C2719 1.524 . S
C2721 C2718 1.403 . S
C2721 C2722 1.392 . S
C2721 C2725 1.495 . S
C2722 C2721 1.392 . S
C2722 C2723 1.385 . S
C2722 C2724 1.478 . S
C2723 H2717 0.930 . S
C2723 C2719 1.400 . S
C2723 C2722 1.385 . S
C2724 C2722 1.478 . S
C2724 C2726 1.381 . S
C2724 C2730 1.383 . S
C2725 C2721 1.495 . S
C2725 H2731 0.959 . S
C2725 H2732 0.961 . S
C2725 H2733 0.960 . S
C2726 C2724 1.381 . S
C2726 C2727 1.394 . S
C2726 H2734 0.930 . S
C2727 C2726 1.394 . S
C2727 C2728 1.383 . S
C2727 H2735 0.929 . S
C2728 C2727 1.383 . S
C2728 C2729 1.377 . S
C2729 H2713 0.930 . S
C2729 C2728 1.377 . S
C2729 C2730 1.379 . S
C2730 H2714 0.931 . S
C2730 C2724 1.383 . S
C2730 C2729 1.379 . S
H2731 C2725 0.959 . S
H2732 C2725 0.961 . S
H2733 C2725 0.960 . S
H2734 C2726 0.930 . S
H2735 C2727 0.929 . S
H2736 C2744 0.929 . S
H2737 C2746 0.930 . S
H2738 C2748 0.930 . S
H2739 C2751 0.929 . S
H2740 C2754 0.930 . S
H2741 C2756 0.960 . S
H2742 C2756 0.960 . S
H2743 C2756 0.960 . S
C2744 H2736 0.929 . S
C2744 C2745 1.377 . S
C2744 C2746 1.384 . S
C2745 C2744 1.377 . S
C2745 C2751 1.390 . S
C2746 H2737 0.930 . S
C2746 C2744 1.384 . S
C2746 C2747 1.372 . S
C2747 C2746 1.372 . S
C2747 C2748 1.400 . S
C2747 C2752 1.490 . S
C2748 H2738 0.930 . S
C2748 C2747 1.400 . S
C2748 C2751 1.386 . S
H2749 C2765 0.930 . S
H2750 C2766 0.931 . S
C2751 H2739 0.929 . S
C2751 C2745 1.390 . S
C2751 C2748 1.386 . S
C2752 C2747 1.490 . S
C2752 C2754 1.395 . S
C2752 C2755 1.403 . S
H2753 C2759 0.930 . S
C2754 H2740 0.930 . S
C2754 C2752 1.395 . S
C2754 C2757 1.403 . S
C2755 C2752 1.403 . S
C2755 C2756 1.524 . S
C2755 C2759 1.400 . S
C2756 H2741 0.960 . S
C2756 H2742 0.960 . S
C2756 H2743 0.960 . S
C2756 C2755 1.524 . S
C2757 C2754 1.403 . S
C2757 C2758 1.392 . S
C2757 C2761 1.495 . S
C2758 C2757 1.392 . S
C2758 C2759 1.385 . S
C2758 C2760 1.478 . S
C2759 H2753 0.930 . S
C2759 C2755 1.400 . S
C2759 C2758 1.385 . S
C2760 C2758 1.478 . S
C2760 C2762 1.381 . S
C2760 C2766 1.383 . S
C2761 C2757 1.495 . S
C2761 H2767 0.959 . S
C2761 H2768 0.961 . S
C2761 H2769 0.960 . S
C2762 C2760 1.381 . S
C2762 C2763 1.394 . S
C2762 H2770 0.930 . S
C2763 C2762 1.394 . S
C2763 C2764 1.383 . S
C2763 H2771 0.929 . S
C2764 C2763 1.383 . S
C2764 C2765 1.377 . S
C2765 H2749 0.930 . S
C2765 C2764 1.377 . S
C2765 C2766 1.379 . S
C2766 H2750 0.931 . S
C2766 C2760 1.383 . S
C2766 C2765 1.379 . S
H2767 C2761 0.959 . S
H2768 C2761 0.961 . S
H2769 C2761 0.960 . S
H2770 C2762 0.930 . S
H2771 C2763 0.929 . S
H2772 C2780 0.929 . S
H2773 C2782 0.930 . S
H2774 C2784 0.930 . S
H2775 C2787 0.929 . S
H2776 C2790 0.930 . S
H2777 C2792 0.960 . S
H2778 C2792 0.960 . S
H2779 C2792 0.960 . S
C2780 H2772 0.929 . S
C2780 C2781 1.377 . S
C2780 C2782 1.384 . S
C2781 C2780 1.377 . S
C2781 C2787 1.390 . S
C2782 H2773 0.930 . S
C2782 C2780 1.384 . S
C2782 C2783 1.372 . S
C2783 C2782 1.372 . S
C2783 C2784 1.400 . S
C2783 C2788 1.490 . S
C2784 H2774 0.930 . S
C2784 C2783 1.400 . S
C2784 C2787 1.386 . S
H2785 C2801 0.930 . S
H2786 C2802 0.931 . S
C2787 H2775 0.929 . S
C2787 C2781 1.390 . S
C2787 C2784 1.386 . S
C2788 C2783 1.490 . S
C2788 C2790 1.395 . S
C2788 C2791 1.403 . S
H2789 C2795 0.930 . S
C2790 H2776 0.930 . S
C2790 C2788 1.395 . S
C2790 C2793 1.403 . S
C2791 C2788 1.403 . S
C2791 C2792 1.524 . S
C2791 C2795 1.400 . S
C2792 H2777 0.960 . S
C2792 H2778 0.960 . S
C2792 H2779 0.960 . S
C2792 C2791 1.524 . S
C2793 C2790 1.403 . S
C2793 C2794 1.392 . S
C2793 C2797 1.495 . S
C2794 C2793 1.392 . S
C2794 C2795 1.385 . S
C2794 C2796 1.478 . S
C2795 H2789 0.930 . S
C2795 C2791 1.400 . S
C2795 C2794 1.385 . S
C2796 C2794 1.478 . S
C2796 C2798 1.381 . S
C2796 C2802 1.383 . S
C2797 C2793 1.495 . S
C2797 H2803 0.959 . S
C2797 H2804 0.961 . S
C2797 H2805 0.960 . S
C2798 C2796 1.381 . S
C2798 C2799 1.394 . S
C2798 H2806 0.930 . S
C2799 C2798 1.394 . S
C2799 C2800 1.383 . S
C2799 H2807 0.929 . S
C2800 C2799 1.383 . S
C2800 C2801 1.377 . S
C2801 H2785 0.930 . S
C2801 C2800 1.377 . S
C2801 C2802 1.379 . S
C2802 H2786 0.931 . S
C2802 C2796 1.383 . S
C2802 C2801 1.379 . S
H2803 C2797 0.959 . S
H2804 C2797 0.961 . S
H2805 C2797 0.960 . S
H2806 C2798 0.930 . S
H2807 C2799 0.929 . S
H2808 C2816 0.929 . S
H2809 C2818 0.930 . S
H2810 C2820 0.930 . S
H2811 C2823 0.929 . S
H2812 C2826 0.930 . S
H2813 C2828 0.960 . S
H2814 C2828 0.960 . S
H2815 C2828 0.960 . S
C2816 H2808 0.929 . S
C2816 C2817 1.377 . S
C2816 C2818 1.384 . S
C2817 C2816 1.377 . S
C2817 C2823 1.390 . S
C2818 H2809 0.930 . S
C2818 C2816 1.384 . S
C2818 C2819 1.372 . S
C2819 C2818 1.372 . S
C2819 C2820 1.400 . S
C2819 C2824 1.490 . S
C2820 H2810 0.930 . S
C2820 C2819 1.400 . S
C2820 C2823 1.386 . S
H2821 C2837 0.930 . S
H2822 C2838 0.931 . S
C2823 H2811 0.929 . S
C2823 C2817 1.390 . S
C2823 C2820 1.386 . S
C2824 C2819 1.490 . S
C2824 C2826 1.395 . S
C2824 C2827 1.403 . S
H2825 C2831 0.930 . S
C2826 H2812 0.930 . S
C2826 C2824 1.395 . S
C2826 C2829 1.403 . S
C2827 C2824 1.403 . S
C2827 C2828 1.524 . S
C2827 C2831 1.400 . S
C2828 H2813 0.960 . S
C2828 H2814 0.960 . S
C2828 H2815 0.960 . S
C2828 C2827 1.524 . S
C2829 C2826 1.403 . S
C2829 C2830 1.392 . S
C2829 C2833 1.495 . S
C2830 C2829 1.392 . S
C2830 C2831 1.385 . S
C2830 C2832 1.478 . S
C2831 H2825 0.930 . S
C2831 C2827 1.400 . S
C2831 C2830 1.385 . S
C2832 C2830 1.478 . S
C2832 C2834 1.381 . S
C2832 C2838 1.383 . S
C2833 C2829 1.495 . S
C2833 H2839 0.959 . S
C2833 H2840 0.961 . S
C2833 H2841 0.960 . S
C2834 C2832 1.381 . S
C2834 C2835 1.394 . S
C2834 H2842 0.930 . S
C2835 C2834 1.394 . S
C2835 C2836 1.383 . S
C2835 H2843 0.929 . S
C2836 C2835 1.383 . S
C2836 C2837 1.377 . S
C2837 H2821 0.930 . S
C2837 C2836 1.377 . S
C2837 C2838 1.379 . S
C2838 H2822 0.931 . S
C2838 C2832 1.383 . S
C2838 C2837 1.379 . S
H2839 C2833 0.959 . S
H2840 C2833 0.961 . S
H2841 C2833 0.960 . S
H2842 C2834 0.930 . S
H2843 C2835 0.929 . S
H2844 C2852 0.929 . S
H2845 C2854 0.930 . S
H2846 C2856 0.930 . S
H2847 C2859 0.929 . S
H2848 C2862 0.930 . S
H2849 C2864 0.960 . S
H2850 C2864 0.960 . S
H2851 C2864 0.960 . S
C2852 H2844 0.929 . S
C2852 C2853 1.377 . S
C2852 C2854 1.384 . S
C2853 C2852 1.377 . S
C2853 C2859 1.390 . S
C2854 H2845 0.930 . S
C2854 C2852 1.384 . S
C2854 C2855 1.372 . S
C2855 C2854 1.372 . S
C2855 C2856 1.400 . S
C2855 C2860 1.490 . S
C2856 H2846 0.930 . S
C2856 C2855 1.400 . S
C2856 C2859 1.386 . S
H2857 C2873 0.930 . S
H2858 C2874 0.931 . S
C2859 H2847 0.929 . S
C2859 C2853 1.390 . S
C2859 C2856 1.386 . S
C2860 C2855 1.490 . S
C2860 C2862 1.395 . S
C2860 C2863 1.403 . S
H2861 C2867 0.930 . S
C2862 H2848 0.930 . S
C2862 C2860 1.395 . S
C2862 C2865 1.403 . S
C2863 C2860 1.403 . S
C2863 C2864 1.524 . S
C2863 C2867 1.400 . S
C2864 H2849 0.960 . S
C2864 H2850 0.960 . S
C2864 H2851 0.960 . S
C2864 C2863 1.524 . S
C2865 C2862 1.403 . S
C2865 C2866 1.392 . S
C2865 C2869 1.495 . S
C2866 C2865 1.392 . S
C2866 C2867 1.385 . S
C2866 C2868 1.478 . S
C2867 H2861 0.930 . S
C2867 C2863 1.400 . S
C2867 C2866 1.385 . S
C2868 C2866 1.478 . S
C2868 C2870 1.381 . S
C2868 C2874 1.383 . S
C2869 C2865 1.495 . S
C2869 H2875 0.959 . S
C2869 H2876 0.961 . S
C2869 H2877 0.960 . S
C2870 C2868 1.381 . S
C2870 C2871 1.394 . S
C2870 H2878 0.930 . S
C2871 C2870 1.394 . S
C2871 C2872 1.383 . S
C2871 H2879 0.929 . S
C2872 C2871 1.383 . S
C2872 C2873 1.377 . S
C2873 H2857 0.930 . S
C2873 C2872 1.377 . S
C2873 C2874 1.379 . S
C2874 H2858 0.931 . S
C2874 C2868 1.383 . S
C2874 C2873 1.379 . S
H2875 C2869 0.959 . S
H2876 C2869 0.961 . S
H2877 C2869 0.960 . S
H2878 C2870 0.930 . S
H2879 C2871 0.929 . S
H2880 C2888 0.929 . S
H2881 C2890 0.930 . S
H2882 C2892 0.930 . S
H2883 C2895 0.929 . S
H2884 C2898 0.930 . S
H2885 C2900 0.960 . S
H2886 C2900 0.960 . S
H2887 C2900 0.960 . S
C2888 H2880 0.929 . S
C2888 C2889 1.377 . S
C2888 C2890 1.384 . S
C2889 C2888 1.377 . S
C2889 C2895 1.390 . S
C2890 H2881 0.930 . S
C2890 C2888 1.384 . S
C2890 C2891 1.372 . S
C2891 C2890 1.372 . S
C2891 C2892 1.400 . S
C2891 C2896 1.490 . S
C2892 H2882 0.930 . S
C2892 C2891 1.400 . S
C2892 C2895 1.386 . S
H2893 C2909 0.930 . S
H2894 C2910 0.931 . S
C2895 H2883 0.929 . S
C2895 C2889 1.390 . S
C2895 C2892 1.386 . S
C2896 C2891 1.490 . S
C2896 C2898 1.395 . S
C2896 C2899 1.403 . S
H2897 C2903 0.930 . S
C2898 H2884 0.930 . S
C2898 C2896 1.395 . S
C2898 C2901 1.403 . S
C2899 C2896 1.403 . S
C2899 C2900 1.524 . S
C2899 C2903 1.400 . S
C2900 H2885 0.960 . S
C2900 H2886 0.960 . S
C2900 H2887 0.960 . S
C2900 C2899 1.524 . S
C2901 C2898 1.403 . S
C2901 C2902 1.392 . S
C2901 C2905 1.495 . S
C2902 C2901 1.392 . S
C2902 C2903 1.385 . S
C2902 C2904 1.478 . S
C2903 H2897 0.930 . S
C2903 C2899 1.400 . S
C2903 C2902 1.385 . S
C2904 C2902 1.478 . S
C2904 C2906 1.381 . S
C2904 C2910 1.383 . S
C2905 C2901 1.495 . S
C2905 H2911 0.959 . S
C2905 H2912 0.961 . S
C2905 H2913 0.960 . S
C2906 C2904 1.381 . S
C2906 C2907 1.394 . S
C2906 H2914 0.930 . S
C2907 C2906 1.394 . S
C2907 C2908 1.383 . S
C2907 H2915 0.929 . S
C2908 C2907 1.383 . S
C2908 C2909 1.377 . S
C2909 H2893 0.930 . S
C2909 C2908 1.377 . S
C2909 C2910 1.379 . S
C2910 H2894 0.931 . S
C2910 C2904 1.383 . S
C2910 C2909 1.379 . S
H2911 C2905 0.959 . S
H2912 C2905 0.961 . S
H2913 C2905 0.960 . S
H2914 C2906 0.930 . S
H2915 C2907 0.929 . S
H2916 C2924 0.929 . S
H2917 C2926 0.930 . S
H2918 C2928 0.930 . S
H2919 C2931 0.929 . S
H2920 C2934 0.930 . S
H2921 C2936 0.960 . S
H2922 C2936 0.960 . S
H2923 C2936 0.960 . S
C2924 H2916 0.929 . S
C2924 C2925 1.377 . S
C2924 C2926 1.384 . S
C2925 C2924 1.377 . S
C2925 C2931 1.390 . S
C2926 H2917 0.930 . S
C2926 C2924 1.384 . S
C2926 C2927 1.372 . S
C2927 C2926 1.372 . S
C2927 C2928 1.400 . S
C2927 C2932 1.490 . S
C2928 H2918 0.930 . S
C2928 C2927 1.400 . S
C2928 C2931 1.386 . S
H2929 C2945 0.930 . S
H2930 C2946 0.931 . S
C2931 H2919 0.929 . S
C2931 C2925 1.390 . S
C2931 C2928 1.386 . S
C2932 C2927 1.490 . S
C2932 C2934 1.395 . S
C2932 C2935 1.403 . S
H2933 C2939 0.930 . S
C2934 H2920 0.930 . S
C2934 C2932 1.395 . S
C2934 C2937 1.403 . S
C2935 C2932 1.403 . S
C2935 C2936 1.524 . S
C2935 C2939 1.400 . S
C2936 H2921 0.960 . S
C2936 H2922 0.960 . S
C2936 H2923 0.960 . S
C2936 C2935 1.524 . S
C2937 C2934 1.403 . S
C2937 C2938 1.392 . S
C2937 C2941 1.495 . S
C2938 C2937 1.392 . S
C2938 C2939 1.385 . S
C2938 C2940 1.478 . S
C2939 H2933 0.930 . S
C2939 C2935 1.400 . S
C2939 C2938 1.385 . S
C2940 C2938 1.478 . S
C2940 C2942 1.381 . S
C2940 C2946 1.383 . S
C2941 C2937 1.495 . S
C2941 H2947 0.959 . S
C2941 H2948 0.961 . S
C2941 H2949 0.960 . S
C2942 C2940 1.381 . S
C2942 C2943 1.394 . S
C2942 H2950 0.930 . S
C2943 C2942 1.394 . S
C2943 C2944 1.383 . S
C2943 H2951 0.929 . S
C2944 C2943 1.383 . S
C2944 C2945 1.377 . S
C2945 H2929 0.930 . S
C2945 C2944 1.377 . S
C2945 C2946 1.379 . S
C2946 H2930 0.931 . S
C2946 C2940 1.383 . S
C2946 C2945 1.379 . S
H2947 C2941 0.959 . S
H2948 C2941 0.961 . S
H2949 C2941 0.960 . S
H2950 C2942 0.930 . S
H2951 C2943 0.929 . S
H2952 C2960 0.929 . S
H2953 C2962 0.930 . S
H2954 C2964 0.930 . S
H2955 C2967 0.929 . S
H2956 C2970 0.930 . S
H2957 C2972 0.960 . S
H2958 C2972 0.960 . S
H2959 C2972 0.960 . S
C2960 H2952 0.929 . S
C2960 C2961 1.377 . S
C2960 C2962 1.384 . S
C2961 C2960 1.377 . S
C2961 C2967 1.390 . S
C2962 H2953 0.930 . S
C2962 C2960 1.384 . S
C2962 C2963 1.372 . S
C2963 C2962 1.372 . S
C2963 C2964 1.400 . S
C2963 C2968 1.490 . S
C2964 H2954 0.930 . S
C2964 C2963 1.400 . S
C2964 C2967 1.386 . S
H2965 C2981 0.930 . S
H2966 C2982 0.931 . S
C2967 H2955 0.929 . S
C2967 C2961 1.390 . S
C2967 C2964 1.386 . S
C2968 C2963 1.490 . S
C2968 C2970 1.395 . S
C2968 C2971 1.403 . S
H2969 C2975 0.930 . S
C2970 H2956 0.930 . S
C2970 C2968 1.395 . S
C2970 C2973 1.403 . S
C2971 C2968 1.403 . S
C2971 C2972 1.524 . S
C2971 C2975 1.400 . S
C2972 H2957 0.960 . S
C2972 H2958 0.960 . S
C2972 H2959 0.960 . S
C2972 C2971 1.524 . S
C2973 C2970 1.403 . S
C2973 C2974 1.392 . S
C2973 C2977 1.495 . S
C2974 C2973 1.392 . S
C2974 C2975 1.385 . S
C2974 C2976 1.478 . S
C2975 H2969 0.930 . S
C2975 C2971 1.400 . S
C2975 C2974 1.385 . S
C2976 C2974 1.478 . S
C2976 C2978 1.381 . S
C2976 C2982 1.383 . S
C2977 C2973 1.495 . S
C2977 H2983 0.959 . S
C2977 H2984 0.961 . S
C2977 H2985 0.960 . S
C2978 C2976 1.381 . S
C2978 C2979 1.394 . S
C2978 H2986 0.930 . S
C2979 C2978 1.394 . S
C2979 C2980 1.383 . S
C2979 H2987 0.929 . S
C2980 C2979 1.383 . S
C2980 C2981 1.377 . S
C2981 H2965 0.930 . S
C2981 C2980 1.377 . S
C2981 C2982 1.379 . S
C2982 H2966 0.931 . S
C2982 C2976 1.383 . S
C2982 C2981 1.379 . S
H2983 C2977 0.959 . S
H2984 C2977 0.961 . S
H2985 C2977 0.960 . S
H2986 C2978 0.930 . S
H2987 C2979 0.929 . S
H2988 C2996 0.929 . S
H2989 C2998 0.930 . S
H2990 C3000 0.930 . S
H2991 C3003 0.929 . S
H2992 C3006 0.930 . S
H2993 C3008 0.960 . S
H2994 C3008 0.960 . S
H2995 C3008 0.960 . S
C2996 H2988 0.929 . S
C2996 C2997 1.377 . S
C2996 C2998 1.384 . S
C2997 C2996 1.377 . S
C2997 C3003 1.390 . S
C2998 H2989 0.930 . S
C2998 C2996 1.384 . S
C2998 C2999 1.372 . S
C2999 C2998 1.372 . S
C2999 C3000 1.400 . S
C2999 C3004 1.490 . S
C3000 H2990 0.930 . S
C3000 C2999 1.400 . S
C3000 C3003 1.386 . S
H3001 C3017 0.930 . S
H3002 C3018 0.931 . S
C3003 H2991 0.929 . S
C3003 C2997 1.390 . S
C3003 C3000 1.386 . S
C3004 C2999 1.490 . S
C3004 C3006 1.395 . S
C3004 C3007 1.403 . S
H3005 C3011 0.930 . S
C3006 H2992 0.930 . S
C3006 C3004 1.395 . S
C3006 C3009 1.403 . S
C3007 C3004 1.403 . S
C3007 C3008 1.524 . S
C3007 C3011 1.400 . S
C3008 H2993 0.960 . S
C3008 H2994 0.960 . S
C3008 H2995 0.960 . S
C3008 C3007 1.524 . S
C3009 C3006 1.403 . S
C3009 C3010 1.392 . S
C3009 C3013 1.495 . S
C3010 C3009 1.392 . S
C3010 C3011 1.385 . S
C3010 C3012 1.478 . S
C3011 H3005 0.930 . S
C3011 C3007 1.400 . S
C3011 C3010 1.385 . S
C3012 C3010 1.478 . S
C3012 C3014 1.381 . S
C3012 C3018 1.383 . S
C3013 C3009 1.495 . S
C3013 H3019 0.959 . S
C3013 H3020 0.961 . S
C3013 H3021 0.960 . S
C3014 C3012 1.381 . S
C3014 C3015 1.394 . S
C3014 H3022 0.930 . S
C3015 C3014 1.394 . S
C3015 C3016 1.383 . S
C3015 H3023 0.929 . S
C3016 C3015 1.383 . S
C3016 C3017 1.377 . S
C3017 H3001 0.930 . S
C3017 C3016 1.377 . S
C3017 C3018 1.379 . S
C3018 H3002 0.931 . S
C3018 C3012 1.383 . S
C3018 C3017 1.379 . S
H3019 C3013 0.959 . S
H3020 C3013 0.961 . S
H3021 C3013 0.960 . S
H3022 C3014 0.930 . S
H3023 C3015 0.929 . S
H3024 C3032 0.929 . S
H3025 C3034 0.930 . S
H3026 C3036 0.930 . S
H3027 C3039 0.929 . S
H3028 C3042 0.930 . S
H3029 C3044 0.960 . S
H3030 C3044 0.960 . S
H3031 C3044 0.960 . S
C3032 H3024 0.929 . S
C3032 C3033 1.377 . S
C3032 C3034 1.384 . S
C3033 C3032 1.377 . S
C3033 C3039 1.390 . S
C3034 H3025 0.930 . S
C3034 C3032 1.384 . S
C3034 C3035 1.372 . S
C3035 C3034 1.372 . S
C3035 C3036 1.400 . S
C3035 C3040 1.490 . S
C3036 H3026 0.930 . S
C3036 C3035 1.400 . S
C3036 C3039 1.386 . S
H3037 C3053 0.930 . S
H3038 C3054 0.931 . S
C3039 H3027 0.929 . S
C3039 C3033 1.390 . S
C3039 C3036 1.386 . S
C3040 C3035 1.490 . S
C3040 C3042 1.395 . S
C3040 C3043 1.403 . S
H3041 C3047 0.930 . S
C3042 H3028 0.930 . S
C3042 C3040 1.395 . S
C3042 C3045 1.403 . S
C3043 C3040 1.403 . S
C3043 C3044 1.524 . S
C3043 C3047 1.400 . S
C3044 H3029 0.960 . S
C3044 H3030 0.960 . S
C3044 H3031 0.960 . S
C3044 C3043 1.524 . S
C3045 C3042 1.403 . S
C3045 C3046 1.392 . S
C3045 C3049 1.495 . S
C3046 C3045 1.392 . S
C3046 C3047 1.385 . S
C3046 C3048 1.478 . S
C3047 H3041 0.930 . S
C3047 C3043 1.400 . S
C3047 C3046 1.385 . S
C3048 C3046 1.478 . S
C3048 C3050 1.381 . S
C3048 C3054 1.383 . S
C3049 C3045 1.495 . S
C3049 H3055 0.959 . S
C3049 H3056 0.961 . S
C3049 H3057 0.960 . S
C3050 C3048 1.381 . S
C3050 C3051 1.394 . S
C3050 H3058 0.930 . S
C3051 C3050 1.394 . S
C3051 C3052 1.383 . S
C3051 H3059 0.929 . S
C3052 C3051 1.383 . S
C3052 C3053 1.377 . S
C3053 H3037 0.930 . S
C3053 C3052 1.377 . S
C3053 C3054 1.379 . S
C3054 H3038 0.931 . S
C3054 C3048 1.383 . S
C3054 C3053 1.379 . S
H3055 C3049 0.959 . S
H3056 C3049 0.961 . S
H3057 C3049 0.960 . S
H3058 C3050 0.930 . S
H3059 C3051 0.929 . S
H3060 C3068 0.929 . S
H3061 C3070 0.930 . S
H3062 C3072 0.930 . S
H3063 C3075 0.929 . S
H3064 C3078 0.930 . S
H3065 C3080 0.960 . S
H3066 C3080 0.960 . S
H3067 C3080 0.960 . S
C3068 H3060 0.929 . S
C3068 C3069 1.377 . S
C3068 C3070 1.384 . S
C3069 C3068 1.377 . S
C3069 C3075 1.390 . S
C3070 H3061 0.930 . S
C3070 C3068 1.384 . S
C3070 C3071 1.372 . S
C3071 C3070 1.372 . S
C3071 C3072 1.400 . S
C3071 C3076 1.490 . S
C3072 H3062 0.930 . S
C3072 C3071 1.400 . S
C3072 C3075 1.386 . S
H3073 C3089 0.930 . S
H3074 C3090 0.931 . S
C3075 H3063 0.929 . S
C3075 C3069 1.390 . S
C3075 C3072 1.386 . S
C3076 C3071 1.490 . S
C3076 C3078 1.395 . S
C3076 C3079 1.403 . S
H3077 C3083 0.930 . S
C3078 H3064 0.930 . S
C3078 C3076 1.395 . S
C3078 C3081 1.403 . S
C3079 C3076 1.403 . S
C3079 C3080 1.524 . S
C3079 C3083 1.400 . S
C3080 H3065 0.960 . S
C3080 H3066 0.960 . S
C3080 H3067 0.960 . S
C3080 C3079 1.524 . S
C3081 C3078 1.403 . S
C3081 C3082 1.392 . S
C3081 C3085 1.495 . S
C3082 C3081 1.392 . S
C3082 C3083 1.385 . S
C3082 C3084 1.478 . S
C3083 H3077 0.930 . S
C3083 C3079 1.400 . S
C3083 C3082 1.385 . S
C3084 C3082 1.478 . S
C3084 C3086 1.381 . S
C3084 C3090 1.383 . S
C3085 C3081 1.495 . S
C3085 H3091 0.959 . S
C3085 H3092 0.961 . S
C3085 H3093 0.960 . S
C3086 C3084 1.381 . S
C3086 C3087 1.394 . S
C3086 H3094 0.930 . S
C3087 C3086 1.394 . S
C3087 C3088 1.383 . S
C3087 H3095 0.929 . S
C3088 C3087 1.383 . S
C3088 C3089 1.377 . S
C3089 H3073 0.930 . S
C3089 C3088 1.377 . S
C3089 C3090 1.379 . S
C3090 H3074 0.931 . S
C3090 C3084 1.383 . S
C3090 C3089 1.379 . S
H3091 C3085 0.959 . S
H3092 C3085 0.961 . S
H3093 C3085 0.960 . S
H3094 C3086 0.930 . S
H3095 C3087 0.929 . S
C513 C6 1.441 . S
C532 C160 1.408 . S
C549 C132 1.442 . S
C568 C20 1.409 . S
C585 C146 1.443 . S
C604 C34 1.432 . S
C621 C48 1.437 . S
C640 C104 1.460 . S
C657 C62 1.433 . S
C676 C118 1.435 . S
C693 C76 1.433 . S
C712 C90 1.448 . S
C729 C174 1.440 . S
C748 C328 1.409 . S
C765 C300 1.443 . S
C784 C188 1.411 . S
C801 C202 1.443 . S
C820 C314 1.433 . S
C837 C216 1.443 . S
C856 C272 1.434 . S
C873 C230 1.439 . S
C892 C286 1.408 . S
C909 C244 1.443 . S
C928 C258 1.439 . S
C945 C342 1.440 . S
C964 C496 1.454 . S
C981 C356 1.444 . S
C1000 C468 1.425 . S
C1017 C482 1.439 . S
C1036 C370 1.455 . S
C1053 C384 1.434 . S
C1072 C440 1.461 . S
C1089 C454 1.441 . S
C1108 C398 1.408 . S
C1125 C426 1.443 . S
C1144 C412 1.429 . S
C1161 C7 1.293 . S
C1180 C217 1.295 . S
C1197 C21 1.290 . S
C1216 C231 1.282 . S
C1233 C35 1.294 . S
C1252 C245 1.303 . S
C1269 C49 1.294 . S
C1288 C343 1.299 . S
C1305 C357 1.290 . S
C1324 C63 1.280 . S
C1341 C371 1.291 . S
C1360 C77 1.288 . S
C1377 C91 1.294 . S
C1396 C469 1.272 . S
C1413 C483 1.289 . S
C1432 C105 1.305 . S
C1449 C119 1.293 . S
C1468 C497 1.272 . S
C1485 C133 1.294 . S
C1504 C259 1.293 . S
C1521 C147 1.294 . S
C1540 C273 1.286 . S
C1557 C161 1.293 . S
C1576 C287 1.298 . S
C1593 C385 1.295 . S
C1612 C175 1.305 . S
C1629 C189 1.288 . S
C1648 C399 1.274 . S
C1665 C203 1.290 . S
C1684 C413 1.283 . S
C1701 C427 1.291 . S
C1720 C301 1.304 . S
C1737 C441 1.289 . S
C1756 C315 1.283 . S
C1773 C329 1.288 . S
C1792 C455 1.288 . S
C1809 C8 1.248 . S
C1828 C64 1.264 . S
C1845 C78 1.250 . S
C1864 C22 1.272 . S
C1881 C50 1.257 . S
C1900 C36 1.274 . S
C1917 C92 1.246 . S
C1936 C148 1.277 . S
C1953 C162 1.246 . S
C1972 C106 1.276 . S
C1989 C120 1.250 . S
C2008 C134 1.251 . S
C2025 C232 1.251 . S
C2044 C176 1.273 . S
C2061 C190 1.253 . S
C2080 C246 1.278 . S
C2097 C204 1.255 . S
C2116 C218 1.232 . S
C2133 C316 1.252 . S
C2152 C260 1.254 . S
C2169 C330 1.248 . S
C2188 C274 1.272 . S
C2205 C302 1.246 . S
C2224 C288 1.279 . S
C2241 C344 1.257 . S
C2260 C400 1.246 . S
C2277 C358 1.249 . S
C2296 C414 1.267 . S
C2313 C372 1.246 . S
C2332 C386 1.240 . S
C2349 C484 1.254 . S
C2368 C428 1.236 . S
C2385 C498 1.246 . S
C2404 C442 1.279 . S
C2421 C470 1.252 . S
C2440 C456 1.256 . S
C2457 C135 2.064 . S
C2476 C9 2.051 . S
C2493 C149 2.063 . S
C2512 C23 2.049 . S
C2529 C37 2.063 . S
C2548 C163 2.050 . S
C2565 C51 2.062 . S
C2584 C93 2.068 . S
C2601 C107 2.062 . S
C2620 C65 2.051 . S
C2637 C79 2.063 . S
C2656 C121 2.066 . S
C2673 C303 2.061 . S
C2692 C177 2.067 . S
C2709 C317 2.061 . S
C2728 C191 2.065 . S
C2745 C205 2.064 . S
C2764 C331 2.061 . S
C2781 C261 2.061 . S
C2800 C219 2.065 . S
C2817 C275 2.064 . S
C2836 C233 2.059 . S
C2853 C289 2.062 . S
C2872 C247 2.068 . S
C2889 C345 2.064 . S
C2908 C471 2.051 . S
C2925 C485 2.064 . S
C2944 C359 2.060 . S
C2961 C373 2.061 . S
C2980 C499 2.059 . S
C2997 C387 2.063 . S
C3016 C429 2.064 . S
C3033 C401 2.065 . S
C3052 C443 2.051 . S
C3069 C457 2.062 . S
C3088 C415 2.067 . S
