# Generated by pormake.
# Topology why, (6)-cn, num edge types: 1
# Building blocks:
#     Node 0, Type 0, BuildingBlock: MIDCAF_clean_sbu_0, # of connection points: 6
#     Node 1, Type 0, BuildingBlock: MIDCAF_clean_sbu_0, # of connection points: 6
#     Node 2, Type 0, BuildingBlock: MIDCAF_clean_sbu_0, # of connection points: 6
#     Node 3, Type 0, BuildingBlock: MIDCAF_clean_sbu_0, # of connection points: 6
#     Node 4, Type 0, BuildingBlock: MIDCAF_clean_sbu_0, # of connection points: 6
#     Node 5, Type 0, BuildingBlock: MIDCAF_clean_sbu_0, # of connection points: 6
#     Node 6, Type 0, BuildingBlock: MIDCAF_clean_sbu_0, # of connection points: 6
#     Node 7, Type 0, BuildingBlock: MIDCAF_clean_sbu_0, # of connection points: 6
#     Node 8, Type 0, BuildingBlock: MIDCAF_clean_sbu_0, # of connection points: 6
#     Node 9, Type 0, BuildingBlock: MIDCAF_clean_sbu_0, # of connection points: 6
#     Node 10, Type 0, BuildingBlock: MIDCAF_clean_sbu_0, # of connection points: 6
#     Node 11, Type 0, BuildingBlock: MIDCAF_clean_sbu_0, # of connection points: 6
#     Node 12, Type 0, BuildingBlock: MIDCAF_clean_sbu_0, # of connection points: 6
#     Node 13, Type 0, BuildingBlock: MIDCAF_clean_sbu_0, # of connection points: 6
#     Node 14, Type 0, BuildingBlock: MIDCAF_clean_sbu_0, # of connection points: 6
#     Node 15, Type 0, BuildingBlock: MIDCAF_clean_sbu_0, # of connection points: 6
#     Edge 16, Type (0, 0), BuildingBlock: AJUNOK_clean_linker_0, # of connection points: 2
#     Edge 17, Type (0, 0), BuildingBlock: AJUNOK_clean_linker_0, # of connection points: 2
#     Edge 18, Type (0, 0), BuildingBlock: AJUNOK_clean_linker_0, # of connection points: 2
#     Edge 19, Type (0, 0), BuildingBlock: AJUNOK_clean_linker_0, # of connection points: 2
#     Edge 20, Type (0, 0), BuildingBlock: AJUNOK_clean_linker_0, # of connection points: 2
#     Edge 21, Type (0, 0), BuildingBlock: AJUNOK_clean_linker_0, # of connection points: 2
#     Edge 22, Type (0, 0), BuildingBlock: AJUNOK_clean_linker_0, # of connection points: 2
#     Edge 23, Type (0, 0), BuildingBlock: AJUNOK_clean_linker_0, # of connection points: 2
#     Edge 24, Type (0, 0), BuildingBlock: AJUNOK_clean_linker_0, # of connection points: 2
#     Edge 25, Type (0, 0), BuildingBlock: AJUNOK_clean_linker_0, # of connection points: 2
#     Edge 26, Type (0, 0), BuildingBlock: AJUNOK_clean_linker_0, # of connection points: 2
#     Edge 27, Type (0, 0), BuildingBlock: AJUNOK_clean_linker_0, # of connection points: 2
#     Edge 28, Type (0, 0), BuildingBlock: AJUNOK_clean_linker_0, # of connection points: 2
#     Edge 29, Type (0, 0), BuildingBlock: AJUNOK_clean_linker_0, # of connection points: 2
#     Edge 30, Type (0, 0), BuildingBlock: AJUNOK_clean_linker_0, # of connection points: 2
#     Edge 31, Type (0, 0), BuildingBlock: AJUNOK_clean_linker_0, # of connection points: 2
#     Edge 32, Type (0, 0), BuildingBlock: AJUNOK_clean_linker_0, # of connection points: 2
#     Edge 33, Type (0, 0), BuildingBlock: AJUNOK_clean_linker_0, # of connection points: 2
#     Edge 34, Type (0, 0), BuildingBlock: AJUNOK_clean_linker_0, # of connection points: 2
#     Edge 35, Type (0, 0), BuildingBlock: AJUNOK_clean_linker_0, # of connection points: 2
#     Edge 36, Type (0, 0), BuildingBlock: AJUNOK_clean_linker_0, # of connection points: 2
#     Edge 37, Type (0, 0), BuildingBlock: AJUNOK_clean_linker_0, # of connection points: 2
#     Edge 38, Type (0, 0), BuildingBlock: AJUNOK_clean_linker_0, # of connection points: 2
#     Edge 39, Type (0, 0), BuildingBlock: AJUNOK_clean_linker_0, # of connection points: 2
#     Edge 40, Type (0, 0), BuildingBlock: AJUNOK_clean_linker_0, # of connection points: 2
#     Edge 41, Type (0, 0), BuildingBlock: AJUNOK_clean_linker_0, # of connection points: 2
#     Edge 42, Type (0, 0), BuildingBlock: AJUNOK_clean_linker_0, # of connection points: 2
#     Edge 43, Type (0, 0), BuildingBlock: AJUNOK_clean_linker_0, # of connection points: 2
#     Edge 44, Type (0, 0), BuildingBlock: AJUNOK_clean_linker_0, # of connection points: 2
#     Edge 45, Type (0, 0), BuildingBlock: AJUNOK_clean_linker_0, # of connection points: 2
#     Edge 46, Type (0, 0), BuildingBlock: AJUNOK_clean_linker_0, # of connection points: 2
#     Edge 47, Type (0, 0), BuildingBlock: AJUNOK_clean_linker_0, # of connection points: 2
#     Edge 48, Type (0, 0), BuildingBlock: AJUNOK_clean_linker_0, # of connection points: 2
#     Edge 49, Type (0, 0), BuildingBlock: AJUNOK_clean_linker_0, # of connection points: 2
#     Edge 50, Type (0, 0), BuildingBlock: AJUNOK_clean_linker_0, # of connection points: 2
#     Edge 51, Type (0, 0), BuildingBlock: AJUNOK_clean_linker_0, # of connection points: 2
#     Edge 52, Type (0, 0), BuildingBlock: AJUNOK_clean_linker_0, # of connection points: 2
#     Edge 53, Type (0, 0), BuildingBlock: AJUNOK_clean_linker_0, # of connection points: 2
#     Edge 54, Type (0, 0), BuildingBlock: AJUNOK_clean_linker_0, # of connection points: 2
#     Edge 55, Type (0, 0), BuildingBlock: AJUNOK_clean_linker_0, # of connection points: 2
#     Edge 56, Type (0, 0), BuildingBlock: AJUNOK_clean_linker_0, # of connection points: 2
#     Edge 57, Type (0, 0), BuildingBlock: AJUNOK_clean_linker_0, # of connection points: 2
#     Edge 58, Type (0, 0), BuildingBlock: AJUNOK_clean_linker_0, # of connection points: 2
#     Edge 59, Type (0, 0), BuildingBlock: AJUNOK_clean_linker_0, # of connection points: 2
#     Edge 60, Type (0, 0), BuildingBlock: AJUNOK_clean_linker_0, # of connection points: 2
#     Edge 61, Type (0, 0), BuildingBlock: AJUNOK_clean_linker_0, # of connection points: 2
#     Edge 62, Type (0, 0), BuildingBlock: AJUNOK_clean_linker_0, # of connection points: 2
#     Edge 63, Type (0, 0), BuildingBlock: AJUNOK_clean_linker_0, # of connection points: 2
# Relax obj value: 0.309
# Max RMSD: 0.222
# Mean RMSD: 0.222
data_MOF--net-why--node1-MIDCAF_clean_sbu_0--edge1-AJUNOK_clean_linker_0
_symmetry_space_group_name_H-M    P1
_symmetry_Int_Tables_number       1
_symmetry_cell_setting            triclinic
loop_
_symmetry_equiv_pos_as_xyz
'x, y, z'
_cell_length_a     35.838544
_cell_length_b     35.877512
_cell_length_c     19.262541
_cell_angle_alpha  90.18989
_cell_angle_beta   89.238415
_cell_angle_gamma 89.579323
loop_
_atom_site_label
_atom_site_type_symbol
_atom_site_fract_x
_atom_site_fract_y
_atom_site_fract_z
_atom_type_partial_charge
Zn0 Zn 0.34869 0.16785 0.2106 0.0
Zn1 Zn 0.30765 0.14143 0.88463 0.0
Zn2 Zn 0.32748 0.15567 0.09552 0.0
C3 C 0.34607 0.10119 0.9958 0.0
C4 C 0.34368 0.21131 0.95413 0.0
O5 O 0.27574 0.17061 0.15373 0.0
O6 O 0.30262 0.1882 0.25063 0.0
C7 C 0.36224 0.09246 0.1956 0.0
O8 O 0.34787 0.10254 0.06189 0.0
O9 O 0.31463 0.10952 0.97049 0.0
O10 O 0.33118 0.19206 0.90346 0.0
O11 O 0.34444 0.1997 1.01801 0.0
O12 O 0.36214 0.11743 0.24177 0.0
O13 O 0.3528 0.1011 0.13307 0.0
O14 O 0.3701 0.19862 0.07891 0.0
O15 O 0.38968 0.20178 0.18662 0.0
C16 C 0.39319 0.211 0.12372 0.0
O17 O 0.26714 0.15832 0.08636 0.0
O18 O 0.28662 0.14914 0.98183 0.0
C19 C 0.2735 0.18432 0.2154 0.0
C20 C 0.2591 0.15336 1.02269 0.0
Zn21 Zn 0.52834 0.60687 0.47245 0.0
Zn22 Zn 0.56469 0.54906 0.12717 0.0
Zn23 Zn 0.5443 0.58377 0.35958 0.0
C24 C 0.59962 0.59981 0.25377 0.0
C25 C 0.50625 0.59304 0.22821 0.0
O26 O 0.52928 0.5328 0.41343 0.0
O27 O 0.51735 0.55907 0.51539 0.0
C28 C 0.60122 0.62865 0.44847 0.0
O29 O 0.59681 0.60219 0.31994 0.0
O30 O 0.58308 0.57235 0.22487 0.0
O31 O 0.53627 0.57625 0.20996 0.0
O32 O 0.5035 0.60418 0.29109 0.0
O33 O 0.57616 0.63051 0.49491 0.0
O34 O 0.59522 0.61143 0.3912 0.0
O35 O 0.50191 0.62864 0.34693 0.0
O36 O 0.48769 0.64265 0.45529 0.0
C37 C 0.48612 0.65052 0.39161 0.0
O38 O 0.54419 0.5225 0.34209 0.0
O39 O 0.55461 0.53977 0.23519 0.0
C40 C 0.51898 0.53044 0.47739 0.0
C41 C 0.55095 0.5132 0.27867 0.0
Zn42 Zn 0.15391 0.80028 0.38106 0.0
Zn43 Zn 0.10346 0.78298 0.70877 0.0
Zn44 Zn 0.12007 0.79147 0.58889 0.0
C45 C 0.053 0.74053 0.64667 0.0
C46 C 0.08248 0.85605 0.6791 0.0
O47 O 0.18217 0.78621 0.58142 0.0
O48 O 0.16364 0.78439 0.47662 0.0
C49 C 0.10925 0.73386 0.47462 0.0
O50 O 0.07321 0.75132 0.5949 0.0
O51 O 0.06431 0.74567 0.70761 0.0
O52 O 0.08352 0.83263 0.7275 0.0
O53 O 0.09434 0.84649 0.61814 0.0
O54 O 0.12599 0.75945 0.44095 0.0
O55 O 0.09928 0.74057 0.53795 0.0
O56 O 0.10782 0.82723 0.5001 0.0
O57 O 0.12315 0.84808 0.39559 0.0
C58 C 0.10074 0.8482 0.44792 0.0
O59 O 0.17218 0.78086 0.65022 0.0
O60 O 0.14937 0.77296 0.75647 0.0
C61 C 0.19064 0.78787 0.51686 0.0
C62 C 0.17694 0.77469 0.71563 0.0
Zn63 Zn 0.9109 0.35046 0.97412 0.0
Zn64 Zn 0.90201 0.38008 0.73039 0.0
Zn65 Zn 0.90661 0.3677 0.85064 0.0
C66 C 0.84418 0.34233 0.74676 0.0
C67 C 0.96411 0.34171 0.73082 0.0
O68 O 0.9156 0.42008 0.90535 0.0
O69 O 0.91572 0.39979 1.0135 0.0
C70 C 0.84259 0.32306 0.94128 0.0
O71 O 0.85822 0.33981 0.8077 0.0
O72 O 0.8485 0.37225 0.71386 0.0
O73 O 0.93836 0.34625 0.68769 0.0
O74 O 0.95789 0.34773 0.7959 0.0
O75 O 0.86405 0.32461 0.9924 0.0
O76 O 0.85315 0.33764 0.88284 0.0
O77 O 0.95209 0.3269 0.86246 0.0
O78 O 0.95522 0.31793 0.97525 0.0
C79 C 0.96532 0.30905 0.91458 0.0
O80 O 0.90552 0.43046 0.83322 0.0
O81 O 0.91854 0.43082 0.72118 0.0
C82 C 0.91951 0.42592 0.9707 0.0
C83 C 0.91179 0.44857 0.7763 0.0
Zn84 Zn 0.66607 0.81308 0.16198 0.0
Zn85 Zn 0.60027 0.78033 0.86549 0.0
Zn86 Zn 0.62595 0.78674 0.97361 0.0
C87 C 0.56346 0.72641 0.93354 0.0
C88 C 0.57955 0.85098 0.89587 0.0
O89 O 0.68837 0.77818 0.97078 0.0
O90 O 0.67061 0.78707 0.0749 0.0
C91 C 0.61749 0.7383 0.10503 0.0
O92 O 0.58147 0.74248 0.98263 0.0
O93 O 0.57155 0.73465 0.87172 0.0
O94 O 0.57055 0.82578 0.85381 0.0
O95 O 0.60142 0.84275 0.94647 0.0
O96 O 0.63684 0.76226 0.13841 0.0
O97 O 0.60713 0.74389 0.04214 0.0
O98 O 0.61311 0.83005 0.04981 0.0
O99 O 0.63867 0.86099 0.13621 0.0
C100 C 0.61093 0.85533 0.09703 0.0
O101 O 0.67378 0.77233 0.90538 0.0
O102 O 0.64406 0.77591 0.80609 0.0
C103 C 0.69757 0.78377 0.03361 0.0
C104 C 0.67347 0.76918 0.83883 0.0
Zn105 Zn 0.39975 0.38594 0.88514 0.0
Zn106 Zn 0.41109 0.34273 0.60579 0.0
Zn107 Zn 0.40569 0.36589 0.72974 0.0
C108 C 0.4582 0.29846 0.67923 0.0
C109 C 0.33944 0.32607 0.64044 0.0
O110 O 0.40786 0.42693 0.74461 0.0
O111 O 0.43145 0.42798 0.84931 0.0
C112 C 0.45398 0.33228 0.86105 0.0
O113 O 0.44536 0.31943 0.72833 0.0
O114 O 0.45077 0.3055 0.61689 0.0
O115 O 0.36133 0.32148 0.58938 0.0
O116 O 0.35075 0.34265 0.6958 0.0
O117 O 0.42662 0.33824 0.90161 0.0
O118 O 0.45088 0.34051 0.796 0.0
O119 O 0.34996 0.35352 0.76467 0.0
O120 O 0.34584 0.38549 0.8599 0.0
C121 C 0.33999 0.35517 0.82873 0.0
O122 O 0.42415 0.41422 0.67095 0.0
O123 O 0.42442 0.3906 0.56477 0.0
C124 C 0.41727 0.44534 0.79905 0.0
C125 C 0.43056 0.41738 0.60549 0.0
Zn126 Zn 0.79637 0.1428 0.6465 0.0
Zn127 Zn 0.8585 0.16298 0.34645 0.0
Zn128 Zn 0.83605 0.1539 0.464 0.0
C129 C 0.90612 0.20597 0.41802 0.0
C130 C 0.87557 0.08928 0.37363 0.0
O131 O 0.7744 0.16052 0.48037 0.0
O132 O 0.77839 0.18439 0.58439 0.0
C133 C 0.84583 0.21081 0.58228 0.0
O134 O 0.88574 0.19241 0.46759 0.0
O135 O 0.89642 0.20151 0.35593 0.0
O136 O 0.87999 0.11329 0.32671 0.0
O137 O 0.85906 0.09847 0.43125 0.0
O138 O 0.82366 0.19213 0.62085 0.0
O139 O 0.8591 0.19825 0.52445 0.0
O140 O 0.85058 0.10019 0.5045 0.0
O141 O 0.81496 0.09692 0.59636 0.0
C142 C 0.84758 0.09552 0.57025 0.0
O143 O 0.78619 0.17053 0.40613 0.0
O144 O 0.81146 0.17579 0.30152 0.0
C145 C 0.75815 0.17166 0.53699 0.0
C146 C 0.78327 0.17796 0.34116 0.0
Zn147 Zn 0.03188 0.59928 0.11663 0.0
Zn148 Zn 0.06858 0.54668 0.40873 0.0
Zn149 Zn 0.03994 0.58025 0.23066 0.0
C150 C 0.10755 0.59385 0.31903 0.0
C151 C -0.00567 0.59511 0.36475 0.0
O152 O 0.01744 0.5319 0.17493 0.0
O153 O 0.02216 0.55343 0.06805 0.0
C154 C 0.10296 0.61486 0.127 0.0
O155 O 0.09644 0.59412 0.25617 0.0
O156 O 0.11119 0.56224 0.34716 0.0
O157 O 0.018 0.57458 0.39578 0.0
O158 O 3e-05 0.60595 0.30188 0.0
O159 O 0.07754 0.62351 0.08555 0.0
O160 O 0.09463 0.59818 0.18441 0.0
O161 O 0.00371 0.6307 0.23845 0.0
O162 O -0.0101 0.63319 0.12795 0.0
C163 C -0.01161 0.64783 0.1874 0.0
O164 O 0.0312 0.51977 0.24705 0.0
O165 O 0.02259 0.52618 0.35945 0.0
C166 C 0.01342 0.52775 0.10912 0.0
C167 C 0.02685 0.50492 0.30733 0.0
Zn168 Zn 0.853 0.67933 0.76888 0.0
Zn169 Zn 0.82312 0.6391 0.43222 0.0
Zn170 Zn 0.831 0.65552 0.59349 0.0
C171 C 0.85514 0.58938 0.52227 0.0
C172 C 0.86357 0.70507 0.47058 0.0
O173 O 0.77452 0.6689 0.62569 0.0
O174 O 0.81369 0.67569 0.70564 0.0
C175 C 0.86803 0.60191 0.72109 0.0
O176 O 0.85672 0.60255 0.58352 0.0
O177 O 0.82445 0.59396 0.49273 0.0
O178 O 0.8625 0.67843 0.4273 0.0
O179 O 0.85508 0.70016 0.53492 0.0
O180 O 0.86867 0.6257 0.77028 0.0
O181 O 0.85573 0.6101 0.6597 0.0
O182 O 0.87489 0.69893 0.60348 0.0
O183 O 0.89022 0.70808 0.71508 0.0
C184 C 0.89593 0.7133 0.65049 0.0
O185 O 0.7721 0.65758 0.55422 0.0
O186 O 0.77253 0.66051 0.43821 0.0
C187 C 0.78145 0.68154 0.68544 0.0
C188 C 0.75498 0.66118 0.49569 0.0
Zn189 Zn 0.04812 0.07691 0.71851 0.0
Zn190 Zn 0.03713 0.09582 0.95797 0.0
Zn191 Zn 0.04137 0.08591 0.83659 0.0
C192 C -0.00566 0.15105 0.90708 0.0
C193 C 0.10918 0.11428 0.9346 0.0
O194 O 0.03946 0.02354 0.81041 0.0
O195 O 0.02992 0.02715 0.69816 0.0
C196 C -0.01306 0.1174 0.71978 0.0
O197 O -0.0004 0.13101 0.85214 0.0
O198 O 0.00643 0.14008 0.96448 0.0
O199 O 0.08796 0.10549 0.98438 0.0
O200 O 0.09692 0.1111 0.87197 0.0
O201 O 0.01541 0.11571 0.68085 0.0
O202 O -0.00933 0.1098 0.78478 0.0
O203 O 0.09214 0.1125 0.79683 0.0
O204 O 0.10163 0.08278 0.69894 0.0
C205 C 0.10835 0.1105 0.73682 0.0
O206 O 0.02765 0.03114 0.88388 0.0
O207 O 0.01635 0.05063 0.99115 0.0
C208 C 0.03418 0.00725 0.75108 0.0
C209 C 0.01632 0.02498 0.94661 0.0
Zn210 Zn 0.64925 0.33593 0.90207 0.0
Zn211 Zn 0.59653 0.28832 0.19935 0.0
Zn212 Zn 0.61796 0.29699 0.08553 0.0
C213 C 0.54643 0.25051 0.11674 0.0
C214 C 0.58816 0.3647 0.17701 0.0
O215 O 0.67777 0.27998 0.07943 0.0
O216 O 0.66314 0.30651 0.98489 0.0
C217 C 0.6081 0.25615 0.94511 0.0
O218 O 0.56751 0.26361 0.06839 0.0
O219 O 0.55665 0.25276 0.179 0.0
O220 O 0.58119 0.34015 0.22199 0.0
O221 O 0.60319 0.3551 0.11846 0.0
O222 O 0.62698 0.28076 0.91185 0.0
O223 O 0.59585 0.26149 1.00758 0.0
O224 O 0.6135 0.35152 0.03681 0.0
O225 O 0.61621 0.37948 0.93632 0.0
C226 C 0.59682 0.36184 0.98075 0.0
O227 O 0.66418 0.27041 0.14746 0.0
O228 O 0.63806 0.26891 0.2519 0.0
C229 C 0.68855 0.29206 1.02018 0.0
C230 C 0.66547 0.26176 0.21251 0.0
Zn231 Zn 0.41227 0.84654 0.45288 0.0
Zn232 Zn 0.38489 0.91403 0.15339 0.0
Zn233 Zn 0.40442 0.8704 0.33922 0.0
C234 C 0.33925 0.85614 0.21181 0.0
C235 C 0.46082 0.86818 0.21236 0.0
O236 O 0.41844 0.91796 0.41162 0.0
O237 O 0.42458 0.88852 0.51114 0.0
C238 C 0.33999 0.82684 0.41725 0.0
O239 O 0.36215 0.85346 0.26277 0.0
O240 O 0.33661 0.88637 0.17787 0.0
O241 O 0.43789 0.88794 0.17695 0.0
O242 O 0.45166 0.85518 0.2726 0.0
O243 O 0.36305 0.82454 0.46591 0.0
O244 O 0.34963 0.84319 0.36025 0.0
O245 O 0.44865 0.82765 0.32897 0.0
O246 O 0.45242 0.8105 0.43826 0.0
C247 C 0.46183 0.80585 0.37561 0.0
O248 O 0.40648 0.93158 0.34756 0.0
O249 O 0.40953 0.91737 0.24073 0.0
C250 C 0.4273 0.91807 0.47657 0.0
C251 C 0.40553 0.94268 0.28488 0.0
Zn252 Zn 0.14064 0.29817 0.69165 0.0
Zn253 Zn 0.10401 0.28063 0.28028 0.0
Zn254 Zn 0.12442 0.2933 0.45424 0.0
C255 C 0.06366 0.23532 0.38996 0.0
C256 C 0.07851 0.35233 0.3567 0.0
O257 O 0.18492 0.29536 0.48513 0.0
O258 O 0.16071 0.29779 0.58868 0.0
C259 C 0.11367 0.24324 0.56826 0.0
O260 O 0.08455 0.24685 0.4398 0.0
O261 O 0.07051 0.24325 0.32677 0.0
O262 O 0.08058 0.33162 0.30262 0.0
O263 O 0.09319 0.34249 0.41512 0.0
O264 O 0.12468 0.27402 0.59413 0.0
O265 O 0.10595 0.24284 0.50362 0.0
O266 O 0.09554 0.33999 0.50069 0.0
O267 O 0.12546 0.32121 0.59202 0.0
C268 C 0.09803 0.33947 0.56693 0.0
O269 O 0.18088 0.28748 0.41762 0.0
O270 O 0.1449 0.29831 0.33423 0.0
C271 C 0.19009 0.29773 0.55061 0.0
C272 C 0.17416 0.28273 0.35396 0.0
Zn273 Zn 0.87152 0.90333 0.40209 0.0
Zn274 Zn 0.91638 0.84515 0.10164 0.0
Zn275 Zn 0.90675 0.86737 0.2126 0.0
C276 C 0.96972 0.80841 0.16945 0.0
C277 C 0.84563 0.82066 0.1361 0.0
O278 O 0.91623 0.9292 0.21378 0.0
O279 O 0.90132 0.91265 0.31649 0.0
C280 C 0.95149 0.86052 0.34546 0.0
O281 O 0.95005 0.82301 0.21889 0.0
O282 O 0.96706 0.8222 0.10964 0.0
O283 O 0.87221 0.8119 0.09545 0.0
O284 O 0.85167 0.84393 0.18564 0.0
O285 O 0.92557 0.87848 0.37829 0.0
O286 O 0.94762 0.84891 0.28275 0.0
O287 O 0.86177 0.86015 0.28902 0.0
O288 O 0.82501 0.87194 0.37614 0.0
C289 C 0.83945 0.84755 0.33584 0.0
O290 O 0.92369 0.91463 0.14602 0.0
O291 O 0.91488 0.88961 0.04285 0.0
C292 C 0.90729 0.93902 0.27565 0.0
C293 C 0.92447 0.91703 0.07921 0.0
Zn294 Zn 0.31987 0.65324 0.08055 0.0
Zn295 Zn 0.35923 0.66552 0.86726 0.0
Zn296 Zn 0.32886 0.65214 0.96689 0.0
C297 C 0.40847 0.68722 0.95415 0.0
C298 C 0.35454 0.5918 0.86239 0.0
O299 O 0.27835 0.6204 0.99883 0.0
O300 O 0.26625 0.65901 0.08505 0.0
C301 C 0.33096 0.72355 0.0462 0.0
O302 O 0.39074 0.66038 0.98411 0.0
O303 O 0.39224 0.70463 0.90621 0.0
O304 O 0.37945 0.61523 0.84767 0.0
O305 O 0.32601 0.60228 0.89912 0.0
O306 O 0.34657 0.70076 0.0867 0.0
O307 O 0.3145 0.71121 0.99143 0.0
O308 O 0.37734 0.63285 1.02144 0.0
O309 O 0.34317 0.60323 0.09786 0.0
C310 C 0.3745 0.60796 0.06892 0.0
O311 O 0.30263 0.70228 0.92101 0.0
O312 O 0.31429 0.679 0.81745 0.0
C313 C 0.2552 0.63477 0.04308 0.0
C314 C 0.29558 0.70079 0.85575 0.0
Zn315 Zn 0.55037 0.0715 0.84577 0.0
Zn316 Zn 0.53934 0.10129 0.60972 0.0
Zn317 Zn 0.54493 0.07957 0.72522 0.0
C318 C 0.48863 0.14275 0.67214 0.0
C319 C 0.60953 0.12023 0.6238 0.0
O320 O 0.54528 0.01689 0.74436 0.0
O321 O 0.53621 0.01971 0.85752 0.0
C322 C 0.48857 0.10959 0.85128 0.0
O323 O 0.50104 0.12203 0.72109 0.0
O324 O 0.49786 0.13607 0.61019 0.0
O325 O 0.58504 0.12352 0.57821 0.0
O326 O 0.60029 0.10603 0.68353 0.0
O327 O 0.51477 0.10482 0.89331 0.0
O328 O 0.49471 0.10259 0.78612 0.0
O329 O 0.59533 0.10763 0.75774 0.0
O330 O 0.6033 0.08253 0.85951 0.0
C331 C 0.60988 0.10893 0.81839 0.0
O332 O 0.53111 0.02767 0.66902 0.0
O333 O 0.52988 0.05476 0.56708 0.0
C334 C 0.5406 0.00038 0.80347 0.0
C335 C 0.52471 0.02629 0.6034 0.0
C336 C 0.45241 0.21488 0.05374 0.0
C337 C 0.42788 0.2305 0.10403 0.0
C338 C 0.4911 0.2223 0.05469 0.0
C339 C 0.50595 0.24521 0.10666 0.0
H340 H 0.44212 0.19465 1.0172 0.0
H341 H 0.50952 0.2083 1.01779 0.0
S342 S 0.45209 0.29885 0.24037 0.0
N343 N 0.42034 0.27496 0.19826 0.0
N344 N 0.4923 0.2875 0.20317 0.0
C345 C 0.481 0.26331 0.15315 0.0
C346 C 0.44209 0.25664 0.15061 0.0
C347 C 0.50514 0.71499 0.41459 0.0
C348 C 0.4834 0.69048 0.37502 0.0
C349 C 0.50263 0.75348 0.40616 0.0
C350 C 0.47795 0.76912 0.35823 0.0
H351 H 0.52334 0.70436 0.4546 0.0
H352 H 0.51741 0.77119 0.44211 0.0
S353 S 0.418 0.71713 0.2365 0.0
N354 N 0.43959 0.68418 0.28082 0.0
N355 N 0.43408 0.7572 0.26571 0.0
C356 C 0.45868 0.74492 0.31368 0.0
C357 C 0.4614 0.70535 0.32215 0.0
C358 C -0.01128 0.75309 0.68802 0.0
C359 C 0.01235 0.73557 0.63866 0.0
C360 C 0.95008 0.75056 0.68432 0.0
C361 C 0.93304 0.72896 0.63286 0.0
H362 H 0.00012 0.76902 0.73057 0.0
H363 H 0.93352 0.76317 0.72579 0.0
S364 S -0.01816 0.68652 0.4804 0.0
N365 N 0.01587 0.70335 0.52789 0.0
N366 N 0.94261 0.69573 0.52344 0.0
C367 C 0.95601 0.71438 0.57902 0.0
C368 C -0.00418 0.71812 0.58166 0.0
C369 C 0.94613 0.24463 0.89379 0.0
C370 C 0.97547 0.26975 0.90501 0.0
C371 C 0.95233 0.20607 0.89019 0.0
C372 C -0.01219 0.19139 0.90215 0.0
H373 H 0.91779 0.25498 0.88899 0.0
H374 H 0.92897 0.18779 0.88165 0.0
S375 S 0.07041 0.24432 0.96148 0.0
N376 N 0.03907 0.27684 0.94373 0.0
N377 N 0.05059 0.20412 0.94274 0.0
C378 C 0.01656 0.21602 0.92113 0.0
C379 C 0.01044 0.25533 0.92187 0.0
C380 C 0.50602 0.69888 0.88581 0.0
C381 C 0.52746 0.70653 0.94498 0.0
C382 C 0.46811 0.69139 0.89096 0.0
C383 C 0.44962 0.6899 0.95548 0.0
H384 H 0.51777 0.70129 0.83393 0.0
H385 H 0.45282 0.68793 0.84319 0.0
S386 S 0.49448 0.69647 0.12715 0.0
N387 N 0.52863 0.70496 0.07111 0.0
N388 N 0.4567 0.68909 0.08074 0.0
C389 C 0.47112 0.69288 1.01572 0.0
C390 C 0.51021 0.7015 1.01045 0.0
C391 C 0.50341 0.24573 0.68274 0.0
C392 C 0.4672 0.25951 0.6938 0.0
C393 C 0.51 0.20726 0.68032 0.0
C394 C 0.48053 0.1817 0.6879 0.0
H395 H 0.52627 0.26463 0.67258 0.0
H396 H 0.53809 0.19735 0.66896 0.0
S397 S 0.38043 0.20391 0.70821 0.0
N398 N 0.40126 0.24481 0.70555 0.0
N399 N 0.41418 0.17245 0.70275 0.0
C400 C 0.4444 0.195 0.69897 0.0
C401 C 0.43762 0.23408 0.70132 0.0
C402 C 0.95878 0.24605 0.38261 0.0
C403 C 0.94491 0.21885 0.42816 0.0
C404 C -0.0029 0.25056 0.37164 0.0
C405 C 0.02365 0.22796 0.40521 0.0
H406 H 0.93974 0.26273 0.35216 0.0
H407 H 0.00601 0.27187 0.3354 0.0
S408 S 0.00256 0.15605 0.53601 0.0
N409 N 0.96096 0.17109 0.5121 0.0
N410 N 0.03362 0.17977 0.49064 0.0
C411 C 0.01052 0.20177 0.45324 0.0
C412 C 0.97106 0.19734 0.46513 0.0
C413 C -0.0024 0.7123 0.23725 0.0
C414 C -0.01999 0.68849 0.1893 0.0
C415 C -0.00349 0.75149 0.22944 0.0
C416 C -0.02139 0.76798 0.17242 0.0
H417 H 0.01286 0.70062 0.2803 0.0
H418 H 0.00899 0.76893 0.26871 0.0
S419 S 0.92934 0.71816 0.03111 0.0
N420 N 0.94395 0.68491 0.08316 0.0
N421 N 0.94388 0.75724 0.06633 0.0
C422 C 0.962 0.74431 0.12321 0.0
C423 C 0.96191 0.70501 0.13247 0.0
C424 C 0.15883 0.1224 1.02274 0.0
C425 C 0.1475 0.12706 0.95315 0.0
C426 C 0.19414 0.13291 0.04517 0.0
C427 C 0.22029 0.14821 0.99911 0.0
H428 H 0.14049 0.10976 0.06093 0.0
H429 H 0.20146 0.12751 0.09864 0.0
S430 S 0.20401 0.17235 0.81468 0.0
N431 N 0.16476 0.15243 0.84033 0.0
N432 N 0.23171 0.17171 0.88258 0.0
C433 C 0.20929 0.15482 0.93021 0.0
C434 C 0.17285 0.14433 0.90719 0.0
C435 C 0.55305 0.42566 0.16632 0.0
C436 C 0.58098 0.40395 0.19763 0.0
C437 C 0.5423 0.46053 0.19449 0.0
C438 C 0.55852 0.47441 0.25563 0.0
H439 H 0.53897 0.41554 0.12077 0.0
H440 H 0.52113 0.47678 0.16836 0.0
S441 S 0.63454 0.4294 0.35387 0.0
N442 N 0.6257 0.39966 0.29068 0.0
N443 N 0.60523 0.46464 0.34372 0.0
C444 C 0.5865 0.45303 0.28683 0.0
C445 C 0.59775 0.41797 0.25778 0.0
C446 C 0.29605 0.78805 0.48839 0.0
C447 C 0.30145 0.8138 0.4336 0.0
C448 C 0.2604 0.78039 0.51602 0.0
C449 C 0.22848 0.79798 0.48991 0.0
H450 H 0.31981 0.77425 0.51154 0.0
H451 H 0.25781 0.76042 0.55788 0.0
S452 S 0.22729 0.86946 0.35042 0.0
N453 N 0.27165 0.85728 0.35568 0.0
N454 N 0.20501 0.84424 0.40906 0.0
C455 C 0.23346 0.82379 0.43532 0.0
C456 C 0.26976 0.83122 0.40659 0.0
C457 C 0.87021 0.53396 0.6933 0.0
C458 C 0.88087 0.5634 0.73653 0.0
C459 C 0.88037 0.49729 0.70817 0.0
C460 C 0.90149 0.48816 0.76708 0.0
H461 H 0.85322 0.53891 0.64822 0.0
H462 H 0.87108 0.47566 0.67312 0.0
S463 S 0.93861 0.55488 0.89512 0.0
N464 N 0.91532 0.58112 0.84 0.0
N465 N 0.93415 0.51153 0.86738 0.0
C466 C 0.9127 0.51708 0.81076 0.0
C467 C 0.9025 0.55482 0.79551 0.0
C468 C 0.74158 0.82429 0.09933 0.0
C469 C 0.73598 0.79277 0.05681 0.0
C470 C 0.7765 0.83198 0.12858 0.0
C471 C 0.80742 0.80841 0.11662 0.0
H472 H 0.7188 0.84363 0.10938 0.0
H473 H 0.77957 0.85733 0.15862 0.0
S474 S 0.80683 0.72018 1.01454 0.0
N475 N 0.76379 0.73654 1.00798 0.0
N476 N 0.82941 0.75069 0.06243 0.0
C477 C 0.80195 0.7762 0.07549 0.0
C478 C 0.76636 0.76852 0.04554 0.0
C479 C 0.37333 0.5422 0.77672 0.0
C480 C 0.36298 0.55229 0.84527 0.0
C481 C 0.39062 0.50761 0.76142 0.0
C482 C 0.39969 0.48245 0.81458 0.0
H483 H 0.36893 0.56173 0.7348 0.0
H484 H 0.3979 0.50101 0.70798 0.0
S485 S 0.37918 0.49635 1.00331 0.0
N486 N 0.36286 0.53443 0.96632 0.0
N487 N 0.39619 0.47039 0.93932 0.0
C488 C 0.38923 0.49238 0.8835 0.0
C489 C 0.3707 0.52699 0.89841 0.0
C490 C 0.67272 0.14798 0.65041 0.0
C491 C 0.64825 0.13135 0.6035 0.0
C492 C 0.70767 0.16152 0.62783 0.0
C493 C 0.71998 0.15846 0.55763 0.0
H494 H 0.66459 0.15136 0.70439 0.0
H495 H 0.72527 0.17437 0.66626 0.0
S496 S 0.66656 0.11574 0.41481 0.0
N497 N 0.63912 0.11167 0.48377 0.0
N498 N 0.7044 0.13684 0.44222 0.0
C499 C 0.69583 0.14145 0.51065 0.0
C500 C 0.66024 0.12795 0.5334 0.0
C501 C 0.07146 0.41975 0.3916 0.0
C502 C 0.06136 0.3901 0.34805 0.0
C503 C 0.05973 0.45646 0.37807 0.0
C504 C 0.03769 0.46531 0.32005 0.0
H505 H 0.08964 0.41485 0.43518 0.0
H506 H 0.06897 0.47829 0.41258 0.0
S507 S -0.00126 0.39727 0.19585 0.0
N508 N 0.02408 0.37164 0.2488 0.0
N509 N 0.00312 0.44076 0.22285 0.0
C510 C 0.02608 0.43583 0.27768 0.0
C511 C 0.03755 0.39827 0.29193 0.0
C512 C 0.65902 0.66352 0.41799 0.0
C513 C 0.63852 0.64183 0.46502 0.0
C514 C 0.69604 0.67291 0.43198 0.0
C515 C 0.7139 0.65985 0.49227 0.0
H516 H 0.6467 0.67258 0.36979 0.0
H517 H 0.7114 0.68877 0.39345 0.0
S518 S 0.67107 0.60146 0.63015 0.0
N519 N 0.63721 0.60891 0.57466 0.0
N520 N 0.70765 0.6236 0.59827 0.0
C521 C 0.69296 0.63902 0.54032 0.0
C522 C 0.65503 0.63063 0.52713 0.0
C523 C 0.03515 0.95171 0.67089 0.0
C524 C 0.04066 0.96655 0.73842 0.0
C525 C 0.04911 0.91641 0.65088 0.0
C526 C 0.0687 0.89416 0.69789 0.0
H527 H 0.02106 0.96811 0.63191 0.0
H528 H 0.04447 0.90654 0.59849 0.0
S529 S 0.08861 0.91825 0.882 0.0
N530 N 0.06552 0.95477 0.85275 0.0
N531 N 0.09149 0.88876 0.81622 0.0
C532 C 0.07297 0.90791 0.76637 0.0
C533 C 0.05888 0.94383 0.78649 0.0
C534 C 0.73722 0.31282 0.93359 0.0
C535 C 0.72837 0.29406 0.99612 0.0
C536 C 0.77433 0.31976 0.91297 0.0
C537 C 0.80431 0.30807 0.95384 0.0
H538 H 0.7153 0.32376 0.90127 0.0
H539 H 0.77936 0.33619 0.86677 0.0
S540 S 0.79698 0.25122 0.11488 0.0
N541 N 0.75325 0.25965 0.09364 0.0
N542 N 0.8228 0.27158 0.05455 0.0
C543 C 0.79601 0.2864 1.01334 0.0
C544 C 0.75818 0.27971 0.03461 0.0
C545 C 0.40183 -0.00674 0.19486 0.0
C546 C 0.39436 -0.01897 0.26341 0.0
C547 C 0.39066 0.02886 0.17192 0.0
C548 C 0.37187 0.05373 0.21694 0.0
H549 H 0.41681 -0.0247 0.15862 0.0
H550 H 0.39752 0.03723 0.11931 0.0
S551 S 0.34353 0.03472 0.39981 0.0
N552 N 0.36578 -0.00355 0.37473 0.0
N553 N 0.34464 0.06288 0.33228 0.0
C554 C 0.36389 0.04163 0.28524 0.0
C555 C 0.37526 0.00553 0.30841 0.0
C556 C 0.23767 0.3389 0.60186 0.0
C557 C 0.22715 0.30305 0.58058 0.0
C558 C 0.27358 0.34563 0.62686 0.0
C559 C 0.29996 0.31666 0.63126 0.0
H560 H 0.2184 0.36212 0.59688 0.0
H561 H 0.2814 0.37399 0.6391 0.0
S562 S 0.28417 0.21687 0.59186 0.0
N563 N 0.24424 0.23754 0.57268 0.0
N564 N 0.31212 0.25025 0.61882 0.0
C565 C 0.2891 0.28032 0.6136 0.0
C566 C 0.25249 0.27346 0.58843 0.0
C567 C 0.91689 0.04267 0.31291 0.0
C568 C 0.88556 0.05028 0.35609 0.0
C569 C 0.92334 0.00693 0.28459 0.0
C570 C 0.89832 -0.02224 0.2976 0.0
H571 H 0.93635 0.06469 0.30032 0.0
H572 H 0.94822 0.00199 0.25323 0.0
S573 S 0.81017 -0.01564 0.40086 0.0
N574 N 0.82876 0.02612 0.40791 0.0
N575 N 0.83946 0.95988 0.3517 0.0
C576 C 0.86657 -0.01464 0.33946 0.0
C577 C 0.86059 0.02133 0.36966 0.0
C578 C 0.16899 0.59288 0.1197 0.0
C579 C 0.14193 0.62009 0.10443 0.0
C580 C 0.20539 0.59528 0.09236 0.0
C581 C 0.21575 0.62491 0.04889 0.0
H582 H 0.16197 0.56951 0.15275 0.0
H583 H 0.22606 0.57497 0.1083 0.0
S584 S 0.15591 0.70451 0.99677 0.0
N585 N 0.1282 0.67813 0.04467 0.0
N586 N 0.19673 0.68282 0.99434 0.0
C587 C 0.18889 0.65221 0.0332 0.0
C588 C 0.15194 0.64978 0.06074 0.0
C589 C 0.52792 0.93122 0.8078 0.0
C590 C 0.55217 0.96133 0.81689 0.0
C591 C 0.53622 0.89598 0.83648 0.0
C592 C 0.5684 0.88981 0.87717 0.0
H593 H 0.5021 0.93508 0.78006 0.0
H594 H 0.5172 0.87328 0.82671 0.0
S595 S 0.63946 0.96061 0.91856 0.0
N596 N 0.60901 -0.01693 0.87028 0.0
N597 N 0.6239 0.91755 0.92523 0.0
C598 C 0.59221 0.92004 0.88757 0.0
C599 C 0.58427 0.95547 0.85713 0.0
C600 C 0.41295 0.12045 0.98789 0.0
C601 C 0.38079 0.10772 0.95447 0.0
C602 C 0.44679 0.12452 0.95184 0.0
C603 C 0.45036 0.11573 0.88072 0.0
H604 H 0.41241 0.12663 0.04298 0.0
H605 H 0.47095 0.13281 0.98124 0.0
S606 S 0.37373 0.08407 0.76739 0.0
N607 N 0.35394 0.08852 0.84491 0.0
N608 N 0.41775 0.09618 0.77692 0.0
C609 C 0.4179 0.10508 0.84551 0.0
C610 C 0.38318 0.10094 0.88248 0.0
C611 C 0.59465 0.66865 0.24431 0.0
C612 C 0.60569 0.6344 0.21414 0.0
C613 C 0.59724 0.70197 0.20739 0.0
C614 C 0.61038 0.70229 0.13861 0.0
H615 H 0.58337 0.66985 0.29673 0.0
H616 H 0.58901 0.72776 0.23297 0.0
S617 S 0.64256 0.62039 0.03546 0.0
N618 N 0.62984 0.60277 0.11125 0.0
N619 N 0.63468 0.66577 0.04117 0.0
C620 C 0.62075 0.66828 0.10698 0.0
C621 C 0.61834 0.63421 0.14494 0.0
C622 C 0.01843 0.87698 0.34146 0.0
C623 C -0.01135 0.8596 0.37606 0.0
C624 C 0.05409 0.87721 0.37003 0.0
C625 C 0.06156 0.85892 0.43317 0.0
H626 H 0.01416 0.8903 0.29172 0.0
H627 H 0.07644 0.88982 0.34005 0.0
S628 S -0.00927 0.81376 0.547 0.0
N629 N 0.96695 0.82799 0.47928 0.0
N630 N 0.03437 0.82621 0.53229 0.0
C631 C 0.03111 0.84354 0.47014 0.0
C632 C -0.00541 0.84422 0.44147 0.0
C633 C 0.82575 0.27606 0.59783 0.0
C634 C 0.85328 0.24841 0.60658 0.0
C635 C 0.8225 0.30615 0.64434 0.0
C636 C 0.84568 0.30859 0.70251 0.0
H637 H 0.80522 0.27314 0.55744 0.0
H638 H 0.80109 0.32707 0.63591 0.0
S639 S 0.92519 0.24503 0.73983 0.0
N640 N 0.90644 0.22717 0.67007 0.0
N641 N 0.90005 0.28234 0.7604 0.0
C642 C 0.87455 0.28182 0.70903 0.0
C643 C 0.87846 0.25219 0.66012 0.0
C644 C 0.54204 0.86372 0.08446 0.0
C645 C 0.57337 0.86276 0.1274 0.0
C646 C 0.5058 0.86466 0.11258 0.0
C647 C 0.49935 0.86381 0.18482 0.0
H648 H 0.54541 0.86337 1.02864 0.0
H649 H 0.48256 0.86579 0.07725 0.0
S650 S 0.57165 0.86062 0.32082 0.0
N651 N 0.5954 0.86078 0.24688 0.0
N652 N 0.52729 0.86219 0.29908 0.0
C653 C 0.53033 0.86268 0.22865 0.0
C654 C 0.5673 0.86238 0.20014 0.0
C655 C 0.36694 0.29104 0.83981 0.0
C656 C 0.34606 0.32056 0.86918 0.0
C657 C 0.37057 0.25692 0.87357 0.0
C658 C 0.35254 0.25035 0.93721 0.0
H659 H 0.38034 0.29423 0.78982 0.0
H660 H 0.38555 0.23449 0.84762 0.0
S661 S 0.30033 0.32053 0.04286 0.0
N662 N 0.31224 0.34306 0.97132 0.0
N663 N 0.31733 0.27778 0.03381 0.0
C664 C 0.33442 0.28054 0.9707 0.0
C665 C 0.3314 0.31585 0.93663 0.0
C666 C 0.94931 0.09725 0.61924 0.0
C667 C 0.95016 0.11461 0.68502 0.0
C668 C 0.91612 0.09205 0.5836 0.0
C669 C 0.88149 0.10233 0.61286 0.0
H670 H 0.97469 0.08678 0.59478 0.0
H671 H 0.91767 0.07892 0.53287 0.0
S672 S 0.86742 0.14385 0.78899 0.0
N673 N 0.91317 0.13976 0.78047 0.0
N674 N 0.84995 0.12712 0.71648 0.0
C675 C 0.88146 0.11765 0.68082 0.0
C676 C 0.91589 0.12428 0.71623 0.0
C677 C 0.10007 0.69687 0.3662 0.0
C678 C 0.10255 0.69754 0.43911 0.0
C679 C 0.09994 0.66327 0.32872 0.0
C680 C 0.10289 0.62852 0.36215 0.0
H681 H 0.09925 0.72274 0.33735 0.0
H682 H 0.09904 0.66476 0.27261 0.0
S683 S 0.1082 0.61464 0.55312 0.0
N684 N 0.10582 0.66035 0.544 0.0
N685 N 0.10705 0.59713 0.47382 0.0
C686 C 0.10422 0.6287 0.43549 0.0
C687 C 0.10356 0.66314 0.47385 0.0
C688 C 0.92424 0.59571 0.51212 0.0
C689 C 0.88981 0.59163 0.47913 0.0
C690 C 0.95736 0.59915 0.47389 0.0
C691 C 0.9578 0.59966 0.40079 0.0
H692 H 0.92587 0.59573 0.56824 0.0
H693 H -0.01677 0.60079 0.50223 0.0
S694 S 0.87574 0.5868 0.28805 0.0
N695 N 0.85849 0.5852 0.36788 0.0
N696 N 0.92095 0.59394 0.2963 0.0
C697 C 0.92366 0.59568 0.36655 0.0
C698 C 0.88973 0.59095 0.40562 0.0
C699 C 0.12804 0.14413 0.62913 0.0
C700 C 0.1161 0.14582 0.69931 0.0
C701 C 0.12591 0.17539 0.58576 0.0
C702 C 0.11241 0.20962 0.61134 0.0
H703 H 0.13764 0.11801 0.60658 0.0
H704 H 0.13521 0.17283 0.5322 0.0
S705 S 0.07744 0.23002 0.78804 0.0
N706 N 0.09 0.18574 0.79095 0.0
N707 N 0.08685 0.24405 0.70872 0.0
C708 C 0.10122 0.21217 0.68082 0.0
C709 C 0.10304 0.1805 0.7251 0.0
C710 C 0.52441 0.32774 0.85274 0.0
C711 C 0.49154 0.32757 0.89356 0.0
C712 C 0.55929 0.33534 0.88245 0.0
C713 C 0.56289 0.34281 0.95427 0.0
H714 H 0.52294 0.32484 0.79685 0.0
H715 H 0.58326 0.33774 0.84796 0.0
S716 S 0.48583 0.34618 0.08338 0.0
N717 N 0.46567 0.33385 1.01073 0.0
N718 N 0.53062 0.3489 0.06442 0.0
C719 C 0.53083 0.34001 0.99597 0.0
C720 C 0.49539 0.33208 0.96622 0.0
C721 C 0.29831 0.77823 0.10079 0.0
C722 C 0.33069 0.76266 0.06943 0.0
C723 C 0.30064 0.80833 0.14818 0.0
C724 C 0.33552 0.82248 0.16767 0.0
H725 H 0.27138 0.76571 0.09182 0.0
H726 H 0.27527 0.81979 0.17112 0.0
S727 S 0.42789 0.79307 0.09587 0.0
N728 N 0.39786 0.76565 0.05699 0.0
N729 N 0.40251 0.82027 0.14744 0.0
C730 C 0.36764 0.80779 0.13454 0.0
C731 C 0.36515 0.77844 0.08509 0.0
C732 C 0.06016 0.36583 0.66612 0.0
C733 C 0.06396 0.34098 0.60989 0.0
C734 C 0.02896 0.36389 0.71119 0.0
C735 C 0.00181 0.33612 0.70244 0.0
H736 H 0.08081 0.38725 0.67419 0.0
H737 H 0.02502 0.38529 0.75047 0.0
S738 S 0.00304 0.26097 0.57253 0.0
N739 N 0.04009 0.28592 0.55285 0.0
N740 N -0.01684 0.28128 0.64005 0.0
C741 C 0.0071 0.30979 0.65 0.0
C742 C 0.03774 0.31246 0.60301 0.0
C743 C 0.82857 0.80202 0.4325 0.0
C744 C 0.84577 0.81025 0.36788 0.0
C745 C 0.83706 0.76933 0.46886 0.0
C746 C 0.86289 0.74319 0.44197 0.0
H747 H 0.80819 0.82095 0.45552 0.0
H748 H 0.8218 0.76369 0.51659 0.0
S749 S 0.91051 0.74767 0.27225 0.0
N750 N 0.88671 0.78706 0.27643 0.0
N751 N 0.9034 0.72605 0.34616 0.0
C752 C 0.87981 0.75066 0.37777 0.0
C753 C 0.87093 0.78383 0.34026 0.0
C754 C 0.40605 0.5935 0.17756 0.0
C755 C 0.40799 0.59605 0.10498 0.0
C756 C 0.43829 0.5928 0.21647 0.0
C757 C 0.47357 0.59379 0.18413 0.0
H758 H 0.3795 0.59454 0.20515 0.0
H759 H 0.43542 0.5919 0.27252 0.0
S760 S 0.49365 0.59514 0.99511 0.0
N761 N 0.44762 0.59585 1.00142 0.0
N762 N 0.50897 0.59393 0.07559 0.0
C763 C 0.47609 0.59371 0.11146 0.0
C764 C 0.44303 0.5949 0.07153 0.0
C765 C 0.60424 0.21397 0.8422 0.0
C766 C 0.6066 0.21834 0.91452 0.0
C767 C 0.60773 0.17877 0.81084 0.0
C768 C 0.61453 0.14645 0.8504 0.0
H769 H 0.59945 0.23801 0.80953 0.0
H770 H 0.60403 0.17693 0.75524 0.0
S771 S 0.62471 0.14337 0.04242 0.0
N772 N 0.61668 0.18771 1.02521 0.0
N773 N 0.62459 0.1218 0.96667 0.0
C774 C 0.61777 0.15073 0.92304 0.0
C775 C 0.61327 0.18649 0.955 0.0
C776 C 0.235 0.19901 0.31822 0.0
C777 C 0.23866 0.19944 0.2455 0.0
C778 C 0.21218 0.22475 0.35287 0.0
C779 C 0.19172 0.25147 0.31586 0.0
H780 H 0.25251 0.18084 0.34897 0.0
H781 H 0.21232 0.22495 0.40913 0.0
S782 S 0.18418 0.25783 0.12453 0.0
N783 N 0.21484 0.22397 0.13709 0.0
N784 N 0.17095 0.2723 0.20264 0.0
C785 C 0.19125 0.24899 0.24303 0.0
C786 C 0.21489 0.22276 0.20755 0.0
C787 C 0.4689 0.4841 0.47313 0.0
C788 C 0.50113 0.49722 0.50529 0.0
C789 C 0.44465 0.46008 0.50823 0.0
C790 C 0.45178 0.44861 0.57663 0.0
H791 H 0.46149 0.49382 0.42186 0.0
H792 H 0.4202 0.45015 0.48151 0.0
S793 S 0.5343 0.47316 0.6809 0.0
N794 N 0.54009 0.49607 0.60733 0.0
N795 N 0.49464 0.45038 0.67341 0.0
C796 C 0.48429 0.46113 0.60884 0.0
C797 C 0.50904 0.48544 0.57292 0.0
C798 C 0.21829 0.72168 0.73262 0.0
C799 C 0.21196 0.75989 0.74176 0.0
C800 C 0.24445 0.70291 0.77252 0.0
C801 C 0.26538 0.7217 0.82285 0.0
H802 H 0.20149 0.70578 0.69686 0.0
H803 H 0.24816 0.6732 0.76422 0.0
S804 S 0.26054 0.82247 0.86375 0.0
N805 N 0.22881 0.81645 0.8032 0.0
N806 N 0.2794 0.78098 0.87753 0.0
C807 C 0.25984 0.76012 0.83193 0.0
C808 C 0.2328 0.7793 0.79129 0.0
C809 C 0.00434 0.4721 0.03625 0.0
C810 C -0.0108 0.49948 0.08048 0.0
C811 C -0.01892 0.45065 0.99463 0.0
C812 C 0.94221 0.45649 0.99525 0.0
H813 H 0.03425 0.46756 0.03337 0.0
H814 H -0.00661 0.42825 0.96387 0.0
S815 S 0.89 0.52882 0.09374 0.0
N816 N 0.93388 0.53436 0.11674 0.0
N817 N 0.88998 0.49323 0.03902 0.0
C818 C 0.92695 0.48466 0.03718 0.0
C819 C 0.95058 0.50645 0.07965 0.0
C820 C 0.69097 0.72063 0.75467 0.0
C821 C 0.70255 0.74812 0.80183 0.0
C822 C 0.71671 0.69911 0.71754 0.0
C823 C 0.75495 0.70395 0.72666 0.0
H824 H 0.66158 0.7154 0.74669 0.0
H825 H 0.70646 0.6785 0.68186 0.0
S826 S 0.79975 0.7733 0.84197 0.0
N827 N 0.75451 0.77973 0.85523 0.0
N828 N 0.80364 0.73909 0.78464 0.0
C829 C 0.76711 0.73127 0.77402 0.0
C830 C 0.74068 0.75335 0.81208 0.0
C831 C 0.7075 0.24868 0.31111 0.0
C832 C 0.69662 0.24061 0.24266 0.0
C833 C 0.73354 0.22629 0.34544 0.0
C834 C 0.74952 0.19505 0.31238 0.0
H835 H 0.69585 0.27268 0.33825 0.0
H836 H 0.74245 0.23445 0.39681 0.0
S837 S 0.72692 0.159 0.13743 0.0
N838 N 0.70101 0.19705 0.14607 0.0
N839 N 0.75077 0.15537 0.20995 0.0
C840 C 0.73797 0.1859 0.24501 0.0
C841 C 0.71137 0.20862 0.21017 0.0
C842 C 0.00688 -0.0237 0.03351 0.0
C843 C -0.0025 -0.00911 0.96829 0.0
C844 C -0.01815 0.95429 0.0711 0.0
C845 C 0.94666 0.94578 0.04445 0.0
H846 H 0.03302 -0.01621 0.05738 0.0
H847 H -0.00962 0.94338 0.12089 0.0
S848 S 0.90864 -0.02313 0.87623 0.0
N849 N 0.95067 -0.00457 0.87875 0.0
N850 N 0.90381 0.95271 0.94866 0.0
C851 C 0.93733 0.95912 0.9784 0.0
C852 C 0.9628 -0.01817 0.94027 0.0
C853 C 0.48296 0.97069 0.61041 0.0
C854 C 0.50284 -0.0036 0.57003 0.0
C855 C 0.4564 0.94738 0.58025 0.0
C856 C 0.44846 0.94891 0.50853 0.0
H857 H 0.48725 0.96911 0.66587 0.0
H858 H 0.44243 0.92741 0.61348 0.0
S859 S 0.49144 0.01299 0.38014 0.0
N860 N 0.51236 0.02235 0.45377 0.0
N861 N 0.46145 -0.02017 0.39897 0.0
C862 C 0.46737 -0.02476 0.46797 0.0
C863 C 0.49502 -0.00167 0.49806 0.0
loop_
_geom_bond_atom_site_label_1
_geom_bond_atom_site_label_2
_geom_bond_distance
_geom_bond_site_symmetry_2
_ccdc_geom_bond_type
Zn0 O6 1.920 . S
Zn0 O12 1.898 . S
Zn0 O15 1.905 . S
Zn1 O9 1.905 . S
Zn1 O10 1.898 . S
Zn1 O18 1.920 . S
Zn2 O5 2.080 . S
Zn2 O8 2.114 1_554 S
Zn2 O11 2.120 1_554 S
Zn2 O13 2.120 . S
Zn2 O14 2.114 . S
Zn2 O17 2.080 . S
C3 O8 1.166 . S
C3 O9 1.182 . S
C4 O10 1.167 . S
C4 O11 1.299 . S
O5 Zn2 2.080 . S
O5 C19 1.305 . S
O6 Zn0 1.920 . S
O6 C19 1.234 . S
C7 O12 1.167 . S
C7 O13 1.299 . S
O8 Zn2 2.114 1_556 S
O8 C3 1.166 . S
O9 Zn1 1.905 . S
O9 C3 1.182 . S
O10 Zn1 1.898 . S
O10 C4 1.167 . S
O11 Zn2 2.120 1_556 S
O11 C4 1.299 . S
O12 Zn0 1.898 . S
O12 C7 1.167 . S
O13 Zn2 2.120 . S
O13 C7 1.299 . S
O14 Zn2 2.114 . S
O14 C16 1.166 . S
O15 Zn0 1.905 . S
O15 C16 1.182 . S
C16 O14 1.166 . S
C16 O15 1.182 . S
O17 Zn2 2.080 . S
O17 C20 1.305 1_554 S
O18 Zn1 1.920 . S
O18 C20 1.234 . S
C19 O5 1.305 . S
C19 O6 1.234 . S
C20 O17 1.305 1_556 S
C20 O18 1.234 . S
Zn21 O27 1.920 . S
Zn21 O33 1.898 . S
Zn21 O36 1.905 . S
Zn22 O30 1.905 . S
Zn22 O31 1.898 . S
Zn22 O39 1.920 . S
Zn23 O26 2.080 . S
Zn23 O29 2.114 . S
Zn23 O32 2.120 . S
Zn23 O34 2.120 . S
Zn23 O35 2.114 . S
Zn23 O38 2.080 . S
C24 O29 1.166 . S
C24 O30 1.182 . S
C25 O31 1.167 . S
C25 O32 1.299 . S
O26 Zn23 2.080 . S
O26 C40 1.305 . S
O27 Zn21 1.920 . S
O27 C40 1.234 . S
C28 O33 1.167 . S
C28 O34 1.299 . S
O29 Zn23 2.114 . S
O29 C24 1.166 . S
O30 Zn22 1.905 . S
O30 C24 1.182 . S
O31 Zn22 1.898 . S
O31 C25 1.167 . S
O32 Zn23 2.120 . S
O32 C25 1.299 . S
O33 Zn21 1.898 . S
O33 C28 1.167 . S
O34 Zn23 2.120 . S
O34 C28 1.299 . S
O35 Zn23 2.114 . S
O35 C37 1.166 . S
O36 Zn21 1.905 . S
O36 C37 1.182 . S
C37 O35 1.166 . S
C37 O36 1.182 . S
O38 Zn23 2.080 . S
O38 C41 1.305 . S
O39 Zn22 1.920 . S
O39 C41 1.234 . S
C40 O26 1.305 . S
C40 O27 1.234 . S
C41 O38 1.305 . S
C41 O39 1.234 . S
Zn42 O48 1.920 . S
Zn42 O54 1.898 . S
Zn42 O57 1.905 . S
Zn43 O51 1.905 . S
Zn43 O52 1.898 . S
Zn43 O60 1.920 . S
Zn44 O47 2.080 . S
Zn44 O50 2.114 . S
Zn44 O53 2.120 . S
Zn44 O55 2.120 . S
Zn44 O56 2.114 . S
Zn44 O59 2.080 . S
C45 O50 1.166 . S
C45 O51 1.182 . S
C46 O52 1.167 . S
C46 O53 1.299 . S
O47 Zn44 2.080 . S
O47 C61 1.305 . S
O48 Zn42 1.920 . S
O48 C61 1.234 . S
C49 O54 1.167 . S
C49 O55 1.299 . S
O50 Zn44 2.114 . S
O50 C45 1.166 . S
O51 Zn43 1.905 . S
O51 C45 1.182 . S
O52 Zn43 1.898 . S
O52 C46 1.167 . S
O53 Zn44 2.120 . S
O53 C46 1.299 . S
O54 Zn42 1.898 . S
O54 C49 1.167 . S
O55 Zn44 2.120 . S
O55 C49 1.299 . S
O56 Zn44 2.114 . S
O56 C58 1.166 . S
O57 Zn42 1.905 . S
O57 C58 1.182 . S
C58 O56 1.166 . S
C58 O57 1.182 . S
O59 Zn44 2.080 . S
O59 C62 1.305 . S
O60 Zn43 1.920 . S
O60 C62 1.234 . S
C61 O47 1.305 . S
C61 O48 1.234 . S
C62 O59 1.305 . S
C62 O60 1.234 . S
Zn63 O69 1.920 . S
Zn63 O75 1.898 . S
Zn63 O78 1.905 . S
Zn64 O72 1.905 . S
Zn64 O73 1.898 . S
Zn64 O81 1.920 . S
Zn65 O68 2.080 . S
Zn65 O71 2.114 . S
Zn65 O74 2.120 . S
Zn65 O76 2.120 . S
Zn65 O77 2.114 . S
Zn65 O80 2.080 . S
C66 O71 1.166 . S
C66 O72 1.182 . S
C67 O73 1.167 1_455 S
C67 O74 1.299 1_455 S
O68 Zn65 2.080 . S
O68 C82 1.305 . S
O69 Zn63 1.920 . S
O69 C82 1.234 . S
C70 O75 1.167 . S
C70 O76 1.299 . S
O71 Zn65 2.114 . S
O71 C66 1.166 . S
O72 Zn64 1.905 . S
O72 C66 1.182 . S
O73 Zn64 1.898 . S
O73 C67 1.167 1_655 S
O74 Zn65 2.120 . S
O74 C67 1.299 1_655 S
O75 Zn63 1.898 . S
O75 C70 1.167 . S
O76 Zn65 2.120 . S
O76 C70 1.299 . S
O77 Zn65 2.114 . S
O77 C79 1.166 . S
O78 Zn63 1.905 . S
O78 C79 1.182 . S
C79 O77 1.166 . S
C79 O78 1.182 . S
O80 Zn65 2.080 . S
O80 C83 1.305 . S
O81 Zn64 1.920 . S
O81 C83 1.234 . S
C82 O68 1.305 . S
C82 O69 1.234 . S
C83 O80 1.305 . S
C83 O81 1.234 . S
Zn84 O90 1.920 . S
Zn84 O96 1.898 . S
Zn84 O99 1.905 . S
Zn85 O93 1.905 . S
Zn85 O94 1.898 . S
Zn85 O102 1.920 . S
Zn86 O89 2.080 . S
Zn86 O92 2.114 . S
Zn86 O95 2.120 . S
Zn86 O97 2.120 1_556 S
Zn86 O98 2.114 1_556 S
Zn86 O101 2.080 . S
C87 O92 1.166 . S
C87 O93 1.182 . S
C88 O94 1.167 . S
C88 O95 1.299 . S
O89 Zn86 2.080 . S
O89 C103 1.305 1_556 S
O90 Zn84 1.920 . S
O90 C103 1.234 . S
C91 O96 1.167 . S
C91 O97 1.299 . S
O92 Zn86 2.114 . S
O92 C87 1.166 . S
O93 Zn85 1.905 . S
O93 C87 1.182 . S
O94 Zn85 1.898 . S
O94 C88 1.167 . S
O95 Zn86 2.120 . S
O95 C88 1.299 . S
O96 Zn84 1.898 . S
O96 C91 1.167 . S
O97 Zn86 2.120 1_554 S
O97 C91 1.299 . S
O98 Zn86 2.114 1_554 S
O98 C100 1.166 . S
O99 Zn84 1.905 . S
O99 C100 1.182 . S
C100 O98 1.166 . S
C100 O99 1.182 . S
O101 Zn86 2.080 . S
O101 C104 1.305 . S
O102 Zn85 1.920 . S
O102 C104 1.234 . S
C103 O89 1.305 1_554 S
C103 O90 1.234 . S
C104 O101 1.305 . S
C104 O102 1.234 . S
Zn105 O111 1.920 . S
Zn105 O117 1.898 . S
Zn105 O120 1.905 . S
Zn106 O114 1.905 . S
Zn106 O115 1.898 . S
Zn106 O123 1.920 . S
Zn107 O110 2.080 . S
Zn107 O113 2.114 . S
Zn107 O116 2.120 . S
Zn107 O118 2.120 . S
Zn107 O119 2.114 . S
Zn107 O122 2.080 . S
C108 O113 1.166 . S
C108 O114 1.182 . S
C109 O115 1.167 . S
C109 O116 1.299 . S
O110 Zn107 2.080 . S
O110 C124 1.305 . S
O111 Zn105 1.920 . S
O111 C124 1.234 . S
C112 O117 1.167 . S
C112 O118 1.299 . S
O113 Zn107 2.114 . S
O113 C108 1.166 . S
O114 Zn106 1.905 . S
O114 C108 1.182 . S
O115 Zn106 1.898 . S
O115 C109 1.167 . S
O116 Zn107 2.120 . S
O116 C109 1.299 . S
O117 Zn105 1.898 . S
O117 C112 1.167 . S
O118 Zn107 2.120 . S
O118 C112 1.299 . S
O119 Zn107 2.114 . S
O119 C121 1.166 . S
O120 Zn105 1.905 . S
O120 C121 1.182 . S
C121 O119 1.166 . S
C121 O120 1.182 . S
O122 Zn107 2.080 . S
O122 C125 1.305 . S
O123 Zn106 1.920 . S
O123 C125 1.234 . S
C124 O110 1.305 . S
C124 O111 1.234 . S
C125 O122 1.305 . S
C125 O123 1.234 . S
Zn126 O132 1.920 . S
Zn126 O138 1.898 . S
Zn126 O141 1.905 . S
Zn127 O135 1.905 . S
Zn127 O136 1.898 . S
Zn127 O144 1.920 . S
Zn128 O131 2.080 . S
Zn128 O134 2.114 . S
Zn128 O137 2.120 . S
Zn128 O139 2.120 . S
Zn128 O140 2.114 . S
Zn128 O143 2.080 . S
C129 O134 1.166 . S
C129 O135 1.182 . S
C130 O136 1.167 . S
C130 O137 1.299 . S
O131 Zn128 2.080 . S
O131 C145 1.305 . S
O132 Zn126 1.920 . S
O132 C145 1.234 . S
C133 O138 1.167 . S
C133 O139 1.299 . S
O134 Zn128 2.114 . S
O134 C129 1.166 . S
O135 Zn127 1.905 . S
O135 C129 1.182 . S
O136 Zn127 1.898 . S
O136 C130 1.167 . S
O137 Zn128 2.120 . S
O137 C130 1.299 . S
O138 Zn126 1.898 . S
O138 C133 1.167 . S
O139 Zn128 2.120 . S
O139 C133 1.299 . S
O140 Zn128 2.114 . S
O140 C142 1.166 . S
O141 Zn126 1.905 . S
O141 C142 1.182 . S
C142 O140 1.166 . S
C142 O141 1.182 . S
O143 Zn128 2.080 . S
O143 C146 1.305 . S
O144 Zn127 1.920 . S
O144 C146 1.234 . S
C145 O131 1.305 . S
C145 O132 1.234 . S
C146 O143 1.305 . S
C146 O144 1.234 . S
Zn147 O153 1.920 . S
Zn147 O159 1.898 . S
Zn147 O162 1.905 . S
Zn148 O156 1.905 . S
Zn148 O157 1.898 . S
Zn148 O165 1.920 . S
Zn149 O152 2.080 . S
Zn149 O155 2.114 . S
Zn149 O158 2.120 . S
Zn149 O160 2.120 . S
Zn149 O161 2.114 . S
Zn149 O164 2.080 . S
C150 O155 1.166 . S
C150 O156 1.182 . S
C151 O157 1.167 1_655 S
C151 O158 1.299 1_655 S
O152 Zn149 2.080 . S
O152 C166 1.305 . S
O153 Zn147 1.920 . S
O153 C166 1.234 . S
C154 O159 1.167 . S
C154 O160 1.299 . S
O155 Zn149 2.114 . S
O155 C150 1.166 . S
O156 Zn148 1.905 . S
O156 C150 1.182 . S
O157 Zn148 1.898 . S
O157 C151 1.167 1_455 S
O158 Zn149 2.120 . S
O158 C151 1.299 1_455 S
O159 Zn147 1.898 . S
O159 C154 1.167 . S
O160 Zn149 2.120 . S
O160 C154 1.299 . S
O161 Zn149 2.114 . S
O161 C163 1.166 . S
O162 Zn147 1.905 . S
O162 C163 1.182 . S
C163 O161 1.166 . S
C163 O162 1.182 . S
O164 Zn149 2.080 . S
O164 C167 1.305 . S
O165 Zn148 1.920 . S
O165 C167 1.234 . S
C166 O152 1.305 . S
C166 O153 1.234 . S
C167 O164 1.305 . S
C167 O165 1.234 . S
Zn168 O174 1.920 . S
Zn168 O180 1.898 . S
Zn168 O183 1.905 . S
Zn169 O177 1.905 . S
Zn169 O178 1.898 . S
Zn169 O186 1.920 . S
Zn170 O173 2.080 . S
Zn170 O176 2.114 . S
Zn170 O179 2.120 . S
Zn170 O181 2.120 . S
Zn170 O182 2.114 . S
Zn170 O185 2.080 . S
C171 O176 1.166 . S
C171 O177 1.182 . S
C172 O178 1.167 . S
C172 O179 1.299 . S
O173 Zn170 2.080 . S
O173 C187 1.305 . S
O174 Zn168 1.920 . S
O174 C187 1.234 . S
C175 O180 1.167 . S
C175 O181 1.299 . S
O176 Zn170 2.114 . S
O176 C171 1.166 . S
O177 Zn169 1.905 . S
O177 C171 1.182 . S
O178 Zn169 1.898 . S
O178 C172 1.167 . S
O179 Zn170 2.120 . S
O179 C172 1.299 . S
O180 Zn168 1.898 . S
O180 C175 1.167 . S
O181 Zn170 2.120 . S
O181 C175 1.299 . S
O182 Zn170 2.114 . S
O182 C184 1.166 . S
O183 Zn168 1.905 . S
O183 C184 1.182 . S
C184 O182 1.166 . S
C184 O183 1.182 . S
O185 Zn170 2.080 . S
O185 C188 1.305 . S
O186 Zn169 1.920 . S
O186 C188 1.234 . S
C187 O173 1.305 . S
C187 O174 1.234 . S
C188 O185 1.305 . S
C188 O186 1.234 . S
Zn189 O195 1.920 . S
Zn189 O201 1.898 . S
Zn189 O204 1.905 . S
Zn190 O198 1.905 . S
Zn190 O199 1.898 . S
Zn190 O207 1.920 . S
Zn191 O194 2.080 . S
Zn191 O197 2.114 . S
Zn191 O200 2.120 . S
Zn191 O202 2.120 . S
Zn191 O203 2.114 . S
Zn191 O206 2.080 . S
C192 O197 1.166 . S
C192 O198 1.182 . S
C193 O199 1.167 . S
C193 O200 1.299 . S
O194 Zn191 2.080 . S
O194 C208 1.305 . S
O195 Zn189 1.920 . S
O195 C208 1.234 . S
C196 O201 1.167 1_655 S
C196 O202 1.299 1_655 S
O197 Zn191 2.114 . S
O197 C192 1.166 . S
O198 Zn190 1.905 . S
O198 C192 1.182 . S
O199 Zn190 1.898 . S
O199 C193 1.167 . S
O200 Zn191 2.120 . S
O200 C193 1.299 . S
O201 Zn189 1.898 . S
O201 C196 1.167 1_455 S
O202 Zn191 2.120 . S
O202 C196 1.299 1_455 S
O203 Zn191 2.114 . S
O203 C205 1.166 . S
O204 Zn189 1.905 . S
O204 C205 1.182 . S
C205 O203 1.166 . S
C205 O204 1.182 . S
O206 Zn191 2.080 . S
O206 C209 1.305 . S
O207 Zn190 1.920 . S
O207 C209 1.234 . S
C208 O194 1.305 . S
C208 O195 1.234 . S
C209 O206 1.305 . S
C209 O207 1.234 . S
Zn210 O216 1.920 . S
Zn210 O222 1.898 . S
Zn210 O225 1.905 . S
Zn211 O219 1.905 . S
Zn211 O220 1.898 . S
Zn211 O228 1.920 . S
Zn212 O215 2.080 . S
Zn212 O218 2.114 . S
Zn212 O221 2.120 . S
Zn212 O223 2.120 1_554 S
Zn212 O224 2.114 1_554 S
Zn212 O227 2.080 . S
C213 O218 1.166 . S
C213 O219 1.182 . S
C214 O220 1.167 . S
C214 O221 1.299 . S
O215 Zn212 2.080 . S
O215 C229 1.305 1_554 S
O216 Zn210 1.920 . S
O216 C229 1.234 . S
C217 O222 1.167 . S
C217 O223 1.299 . S
O218 Zn212 2.114 . S
O218 C213 1.166 . S
O219 Zn211 1.905 . S
O219 C213 1.182 . S
O220 Zn211 1.898 . S
O220 C214 1.167 . S
O221 Zn212 2.120 . S
O221 C214 1.299 . S
O222 Zn210 1.898 . S
O222 C217 1.167 . S
O223 Zn212 2.120 1_556 S
O223 C217 1.299 . S
O224 Zn212 2.114 1_556 S
O224 C226 1.166 . S
O225 Zn210 1.905 . S
O225 C226 1.182 . S
C226 O224 1.166 . S
C226 O225 1.182 . S
O227 Zn212 2.080 . S
O227 C230 1.305 . S
O228 Zn211 1.920 . S
O228 C230 1.234 . S
C229 O215 1.305 1_556 S
C229 O216 1.234 . S
C230 O227 1.305 . S
C230 O228 1.234 . S
Zn231 O237 1.920 . S
Zn231 O243 1.898 . S
Zn231 O246 1.905 . S
Zn232 O240 1.905 . S
Zn232 O241 1.898 . S
Zn232 O249 1.920 . S
Zn233 O236 2.080 . S
Zn233 O239 2.114 . S
Zn233 O242 2.120 . S
Zn233 O244 2.120 . S
Zn233 O245 2.114 . S
Zn233 O248 2.080 . S
C234 O239 1.166 . S
C234 O240 1.182 . S
C235 O241 1.167 . S
C235 O242 1.299 . S
O236 Zn233 2.080 . S
O236 C250 1.305 . S
O237 Zn231 1.920 . S
O237 C250 1.234 . S
C238 O243 1.167 . S
C238 O244 1.299 . S
O239 Zn233 2.114 . S
O239 C234 1.166 . S
O240 Zn232 1.905 . S
O240 C234 1.182 . S
O241 Zn232 1.898 . S
O241 C235 1.167 . S
O242 Zn233 2.120 . S
O242 C235 1.299 . S
O243 Zn231 1.898 . S
O243 C238 1.167 . S
O244 Zn233 2.120 . S
O244 C238 1.299 . S
O245 Zn233 2.114 . S
O245 C247 1.166 . S
O246 Zn231 1.905 . S
O246 C247 1.182 . S
C247 O245 1.166 . S
C247 O246 1.182 . S
O248 Zn233 2.080 . S
O248 C251 1.305 . S
O249 Zn232 1.920 . S
O249 C251 1.234 . S
C250 O236 1.305 . S
C250 O237 1.234 . S
C251 O248 1.305 . S
C251 O249 1.234 . S
Zn252 O258 1.920 . S
Zn252 O264 1.898 . S
Zn252 O267 1.905 . S
Zn253 O261 1.905 . S
Zn253 O262 1.898 . S
Zn253 O270 1.920 . S
Zn254 O257 2.080 . S
Zn254 O260 2.114 . S
Zn254 O263 2.120 . S
Zn254 O265 2.120 . S
Zn254 O266 2.114 . S
Zn254 O269 2.080 . S
C255 O260 1.166 . S
C255 O261 1.182 . S
C256 O262 1.167 . S
C256 O263 1.299 . S
O257 Zn254 2.080 . S
O257 C271 1.305 . S
O258 Zn252 1.920 . S
O258 C271 1.234 . S
C259 O264 1.167 . S
C259 O265 1.299 . S
O260 Zn254 2.114 . S
O260 C255 1.166 . S
O261 Zn253 1.905 . S
O261 C255 1.182 . S
O262 Zn253 1.898 . S
O262 C256 1.167 . S
O263 Zn254 2.120 . S
O263 C256 1.299 . S
O264 Zn252 1.898 . S
O264 C259 1.167 . S
O265 Zn254 2.120 . S
O265 C259 1.299 . S
O266 Zn254 2.114 . S
O266 C268 1.166 . S
O267 Zn252 1.905 . S
O267 C268 1.182 . S
C268 O266 1.166 . S
C268 O267 1.182 . S
O269 Zn254 2.080 . S
O269 C272 1.305 . S
O270 Zn253 1.920 . S
O270 C272 1.234 . S
C271 O257 1.305 . S
C271 O258 1.234 . S
C272 O269 1.305 . S
C272 O270 1.234 . S
Zn273 O279 1.920 . S
Zn273 O285 1.898 . S
Zn273 O288 1.905 . S
Zn274 O282 1.905 . S
Zn274 O283 1.898 . S
Zn274 O291 1.920 . S
Zn275 O278 2.080 . S
Zn275 O281 2.114 . S
Zn275 O284 2.120 . S
Zn275 O286 2.120 . S
Zn275 O287 2.114 . S
Zn275 O290 2.080 . S
C276 O281 1.166 . S
C276 O282 1.182 . S
C277 O283 1.167 . S
C277 O284 1.299 . S
O278 Zn275 2.080 . S
O278 C292 1.305 . S
O279 Zn273 1.920 . S
O279 C292 1.234 . S
C280 O285 1.167 1_455 S
C280 O286 1.299 1_455 S
O281 Zn275 2.114 . S
O281 C276 1.166 . S
O282 Zn274 1.905 . S
O282 C276 1.182 . S
O283 Zn274 1.898 . S
O283 C277 1.167 . S
O284 Zn275 2.120 . S
O284 C277 1.299 . S
O285 Zn273 1.898 . S
O285 C280 1.167 1_655 S
O286 Zn275 2.120 . S
O286 C280 1.299 1_655 S
O287 Zn275 2.114 . S
O287 C289 1.166 . S
O288 Zn273 1.905 . S
O288 C289 1.182 . S
C289 O287 1.166 . S
C289 O288 1.182 . S
O290 Zn275 2.080 . S
O290 C293 1.305 . S
O291 Zn274 1.920 . S
O291 C293 1.234 . S
C292 O278 1.305 . S
C292 O279 1.234 . S
C293 O290 1.305 . S
C293 O291 1.234 . S
Zn294 O300 1.920 . S
Zn294 O306 1.898 . S
Zn294 O309 1.905 . S
Zn295 O303 1.905 . S
Zn295 O304 1.898 . S
Zn295 O312 1.920 . S
Zn296 O299 2.080 . S
Zn296 O302 2.114 . S
Zn296 O305 2.120 . S
Zn296 O307 2.120 1_556 S
Zn296 O308 2.114 1_556 S
Zn296 O311 2.080 . S
C297 O302 1.166 . S
C297 O303 1.182 . S
C298 O304 1.167 . S
C298 O305 1.299 . S
O299 Zn296 2.080 . S
O299 C313 1.305 1_556 S
O300 Zn294 1.920 . S
O300 C313 1.234 . S
C301 O306 1.167 . S
C301 O307 1.299 . S
O302 Zn296 2.114 . S
O302 C297 1.166 . S
O303 Zn295 1.905 . S
O303 C297 1.182 . S
O304 Zn295 1.898 . S
O304 C298 1.167 . S
O305 Zn296 2.120 . S
O305 C298 1.299 . S
O306 Zn294 1.898 . S
O306 C301 1.167 . S
O307 Zn296 2.120 1_554 S
O307 C301 1.299 . S
O308 Zn296 2.114 1_554 S
O308 C310 1.166 . S
O309 Zn294 1.905 . S
O309 C310 1.182 . S
C310 O308 1.166 . S
C310 O309 1.182 . S
O311 Zn296 2.080 . S
O311 C314 1.305 . S
O312 Zn295 1.920 . S
O312 C314 1.234 . S
C313 O299 1.305 1_554 S
C313 O300 1.234 . S
C314 O311 1.305 . S
C314 O312 1.234 . S
Zn315 O321 1.920 . S
Zn315 O327 1.898 . S
Zn315 O330 1.905 . S
Zn316 O324 1.905 . S
Zn316 O325 1.898 . S
Zn316 O333 1.920 . S
Zn317 O320 2.080 . S
Zn317 O323 2.114 . S
Zn317 O326 2.120 . S
Zn317 O328 2.120 . S
Zn317 O329 2.114 . S
Zn317 O332 2.080 . S
C318 O323 1.166 . S
C318 O324 1.182 . S
C319 O325 1.167 . S
C319 O326 1.299 . S
O320 Zn317 2.080 . S
O320 C334 1.305 . S
O321 Zn315 1.920 . S
O321 C334 1.234 . S
C322 O327 1.167 . S
C322 O328 1.299 . S
O323 Zn317 2.114 . S
O323 C318 1.166 . S
O324 Zn316 1.905 . S
O324 C318 1.182 . S
O325 Zn316 1.898 . S
O325 C319 1.167 . S
O326 Zn317 2.120 . S
O326 C319 1.299 . S
O327 Zn315 1.898 . S
O327 C322 1.167 . S
O328 Zn317 2.120 . S
O328 C322 1.299 . S
O329 Zn317 2.114 . S
O329 C331 1.166 . S
O330 Zn315 1.905 . S
O330 C331 1.182 . S
C331 O329 1.166 . S
C331 O330 1.182 . S
O332 Zn317 2.080 . S
O332 C335 1.305 . S
O333 Zn316 1.920 . S
O333 C335 1.234 . S
C334 O320 1.305 . S
C334 O321 1.234 . S
C335 O332 1.305 . S
C335 O333 1.234 . S
C336 C337 1.369 . S
C336 C338 1.419 . S
C336 H340 0.930 . S
C337 C336 1.369 . S
C337 C346 1.429 . S
C338 C336 1.419 . S
C338 C339 1.363 . S
C338 H341 0.929 . S
C339 C338 1.363 . S
C339 C345 1.428 . S
H340 C336 0.930 . S
H341 C338 0.929 . S
S342 N343 1.613 . S
S342 N344 1.610 . S
N343 S342 1.613 . S
N343 C346 1.350 . S
N344 S342 1.610 . S
N344 C345 1.351 . S
C345 C339 1.428 . S
C345 N344 1.351 . S
C345 C346 1.434 . S
C346 C337 1.429 . S
C346 N343 1.350 . S
C346 C345 1.434 . S
C347 C348 1.369 . S
C347 C349 1.419 . S
C347 H351 0.930 . S
C348 C347 1.369 . S
C348 C357 1.429 . S
C349 C347 1.419 . S
C349 C350 1.363 . S
C349 H352 0.929 . S
C350 C349 1.363 . S
C350 C356 1.428 . S
H351 C347 0.930 . S
H352 C349 0.929 . S
S353 N354 1.613 . S
S353 N355 1.610 . S
N354 S353 1.613 . S
N354 C357 1.350 . S
N355 S353 1.610 . S
N355 C356 1.351 . S
C356 C350 1.428 . S
C356 N355 1.351 . S
C356 C357 1.434 . S
C357 C348 1.429 . S
C357 N354 1.350 . S
C357 C356 1.434 . S
C358 C359 1.369 . S
C358 C360 1.419 1_455 S
C358 H362 0.930 . S
C359 C358 1.369 . S
C359 C368 1.429 . S
C360 C358 1.419 1_655 S
C360 C361 1.363 . S
C360 H363 0.929 . S
C361 C360 1.363 . S
C361 C367 1.428 . S
H362 C358 0.930 . S
H363 C360 0.929 . S
S364 N365 1.613 . S
S364 N366 1.610 1_455 S
N365 S364 1.613 . S
N365 C368 1.350 . S
N366 S364 1.610 1_655 S
N366 C367 1.351 . S
C367 C361 1.428 . S
C367 N366 1.351 . S
C367 C368 1.434 1_655 S
C368 C359 1.429 . S
C368 N365 1.350 . S
C368 C367 1.434 1_455 S
C369 C370 1.369 . S
C369 C371 1.419 . S
C369 H373 0.930 . S
C370 C369 1.369 . S
C370 C379 1.429 1_655 S
C371 C369 1.419 . S
C371 C372 1.363 1_655 S
C371 H374 0.929 . S
C372 C371 1.363 1_455 S
C372 C378 1.428 . S
H373 C369 0.930 . S
H374 C371 0.929 . S
S375 N376 1.613 . S
S375 N377 1.610 . S
N376 S375 1.613 . S
N376 C379 1.350 . S
N377 S375 1.610 . S
N377 C378 1.351 . S
C378 C372 1.428 . S
C378 N377 1.351 . S
C378 C379 1.434 . S
C379 C370 1.429 1_455 S
C379 N376 1.350 . S
C379 C378 1.434 . S
C380 C381 1.369 . S
C380 C382 1.419 . S
C380 H384 0.930 . S
C381 C380 1.369 . S
C381 C390 1.429 . S
C382 C380 1.419 . S
C382 C383 1.363 . S
C382 H385 0.929 . S
C383 C382 1.363 . S
C383 C389 1.428 . S
H384 C380 0.930 . S
H385 C382 0.929 . S
S386 N387 1.613 . S
S386 N388 1.610 . S
N387 S386 1.613 . S
N387 C390 1.350 1_554 S
N388 S386 1.610 . S
N388 C389 1.351 1_554 S
C389 C383 1.428 . S
C389 N388 1.351 1_556 S
C389 C390 1.434 . S
C390 C381 1.429 . S
C390 N387 1.350 1_556 S
C390 C389 1.434 . S
C391 C392 1.369 . S
C391 C393 1.419 . S
C391 H395 0.930 . S
C392 C391 1.369 . S
C392 C401 1.429 . S
C393 C391 1.419 . S
C393 C394 1.363 . S
C393 H396 0.929 . S
C394 C393 1.363 . S
C394 C400 1.428 . S
H395 C391 0.930 . S
H396 C393 0.929 . S
S397 N398 1.613 . S
S397 N399 1.610 . S
N398 S397 1.613 . S
N398 C401 1.350 . S
N399 S397 1.610 . S
N399 C400 1.351 . S
C400 C394 1.428 . S
C400 N399 1.351 . S
C400 C401 1.434 . S
C401 C392 1.429 . S
C401 N398 1.350 . S
C401 C400 1.434 . S
C402 C403 1.369 . S
C402 C404 1.419 1_655 S
C402 H406 0.930 . S
C403 C402 1.369 . S
C403 C412 1.429 . S
C404 C402 1.419 1_455 S
C404 C405 1.363 . S
C404 H407 0.929 . S
C405 C404 1.363 . S
C405 C411 1.428 . S
H406 C402 0.930 . S
H407 C404 0.929 . S
S408 N409 1.637 . S
S408 N410 1.587 1_655 S
N409 S408 1.637 . S
N409 C412 1.350 . S
N410 S408 1.587 1_455 S
N410 C411 1.351 . S
C411 C405 1.428 . S
C411 N410 1.351 . S
C411 C412 1.434 1_455 S
C412 C403 1.429 . S
C412 N409 1.350 . S
C412 C411 1.434 1_655 S
C413 C414 1.369 . S
C413 C415 1.420 . S
C413 H417 0.930 . S
C414 C413 1.369 . S
C414 C423 1.429 . S
C415 C413 1.420 . S
C415 C416 1.361 1_455 S
C415 H418 0.930 . S
C416 C415 1.361 1_655 S
C416 C422 1.428 . S
H417 C413 0.930 . S
H418 C415 0.930 . S
S419 N420 1.613 1_656 S
S419 N421 1.610 1_556 S
N420 S419 1.613 1_454 S
N420 C423 1.350 . S
N421 S419 1.610 1_554 S
N421 C422 1.351 . S
C422 C416 1.428 . S
C422 N421 1.351 . S
C422 C423 1.434 1_655 S
C423 C414 1.429 . S
C423 N420 1.350 . S
C423 C422 1.434 1_455 S
C424 C425 1.369 . S
C424 C426 1.419 1_556 S
C424 H428 0.930 . S
C425 C424 1.369 . S
C425 C434 1.429 . S
C426 C424 1.419 1_554 S
C426 C427 1.363 1_554 S
C426 H429 0.929 . S
C427 C426 1.363 1_556 S
C427 C433 1.428 . S
H428 C424 0.930 . S
H429 C426 0.929 . S
S430 N431 1.613 . S
S430 N432 1.610 . S
N431 S430 1.613 . S
N431 C434 1.350 . S
N432 S430 1.610 . S
N432 C433 1.351 . S
C433 C427 1.428 . S
C433 N432 1.351 . S
C433 C434 1.434 . S
C434 C425 1.429 . S
C434 N431 1.350 . S
C434 C433 1.434 . S
C435 C436 1.369 . S
C435 C437 1.419 . S
C435 H439 0.930 . S
C436 C435 1.369 . S
C436 C445 1.429 . S
C437 C435 1.419 . S
C437 C438 1.363 . S
C437 H440 0.929 . S
C438 C437 1.363 . S
C438 C444 1.428 . S
H439 C435 0.930 . S
H440 C437 0.929 . S
S441 N442 1.613 . S
S441 N443 1.610 . S
N442 S441 1.613 . S
N442 C445 1.350 . S
N443 S441 1.610 . S
N443 C444 1.351 . S
C444 C438 1.428 . S
C444 N443 1.351 . S
C444 C445 1.434 . S
C445 C436 1.429 . S
C445 N442 1.350 . S
C445 C444 1.434 . S
C446 C447 1.369 . S
C446 C448 1.419 . S
C446 H450 0.930 . S
C447 C446 1.369 . S
C447 C456 1.429 . S
C448 C446 1.419 . S
C448 C449 1.363 . S
C448 H451 0.929 . S
C449 C448 1.363 . S
C449 C455 1.428 . S
H450 C446 0.930 . S
H451 C448 0.929 . S
S452 N453 1.613 . S
S452 N454 1.610 . S
N453 S452 1.613 . S
N453 C456 1.350 . S
N454 S452 1.610 . S
N454 C455 1.351 . S
C455 C449 1.428 . S
C455 N454 1.351 . S
C455 C456 1.434 . S
C456 C447 1.429 . S
C456 N453 1.350 . S
C456 C455 1.434 . S
C457 C458 1.369 . S
C457 C459 1.419 . S
C457 H461 0.930 . S
C458 C457 1.369 . S
C458 C467 1.429 . S
C459 C457 1.419 . S
C459 C460 1.363 . S
C459 H462 0.929 . S
C460 C459 1.363 . S
C460 C466 1.428 . S
H461 C457 0.930 . S
H462 C459 0.929 . S
S463 N464 1.613 . S
S463 N465 1.610 . S
N464 S463 1.613 . S
N464 C467 1.350 . S
N465 S463 1.610 . S
N465 C466 1.351 . S
C466 C460 1.428 . S
C466 N465 1.351 . S
C466 C467 1.434 . S
C467 C458 1.429 . S
C467 N464 1.350 . S
C467 C466 1.434 . S
C468 C469 1.369 . S
C468 C470 1.419 . S
C468 H472 0.930 . S
C469 C468 1.369 . S
C469 C478 1.429 . S
C470 C468 1.419 . S
C470 C471 1.363 . S
C470 H473 0.929 . S
C471 C470 1.363 . S
C471 C477 1.428 . S
H472 C468 0.930 . S
H473 C470 0.929 . S
S474 N475 1.613 . S
S474 N476 1.610 1_556 S
N475 S474 1.613 . S
N475 C478 1.350 1_556 S
N476 S474 1.610 1_554 S
N476 C477 1.351 . S
C477 C471 1.428 . S
C477 N476 1.351 . S
C477 C478 1.434 . S
C478 C469 1.429 . S
C478 N475 1.350 1_554 S
C478 C477 1.434 . S
C479 C480 1.369 . S
C479 C481 1.419 . S
C479 H483 0.930 . S
C480 C479 1.369 . S
C480 C489 1.429 . S
C481 C479 1.419 . S
C481 C482 1.363 . S
C481 H484 0.929 . S
C482 C481 1.363 . S
C482 C488 1.428 . S
H483 C479 0.930 . S
H484 C481 0.929 . S
S485 N486 1.613 . S
S485 N487 1.610 . S
N486 S485 1.613 . S
N486 C489 1.350 . S
N487 S485 1.610 . S
N487 C488 1.351 . S
C488 C482 1.428 . S
C488 N487 1.351 . S
C488 C489 1.434 . S
C489 C480 1.429 . S
C489 N486 1.350 . S
C489 C488 1.434 . S
C490 C491 1.369 . S
C490 C492 1.419 . S
C490 H494 0.930 . S
C491 C490 1.369 . S
C491 C500 1.429 . S
C492 C490 1.419 . S
C492 C493 1.363 . S
C492 H495 0.929 . S
C493 C492 1.363 . S
C493 C499 1.428 . S
H494 C490 0.930 . S
H495 C492 0.929 . S
S496 N497 1.613 . S
S496 N498 1.610 . S
N497 S496 1.613 . S
N497 C500 1.350 . S
N498 S496 1.610 . S
N498 C499 1.351 . S
C499 C493 1.428 . S
C499 N498 1.351 . S
C499 C500 1.434 . S
C500 C491 1.429 . S
C500 N497 1.350 . S
C500 C499 1.434 . S
C501 C502 1.369 . S
C501 C503 1.419 . S
C501 H505 0.930 . S
C502 C501 1.369 . S
C502 C511 1.429 . S
C503 C501 1.419 . S
C503 C504 1.363 . S
C503 H506 0.929 . S
C504 C503 1.363 . S
C504 C510 1.428 . S
H505 C501 0.930 . S
H506 C503 0.929 . S
S507 N508 1.613 . S
S507 N509 1.610 . S
N508 S507 1.613 . S
N508 C511 1.350 . S
N509 S507 1.610 . S
N509 C510 1.351 . S
C510 C504 1.428 . S
C510 N509 1.351 . S
C510 C511 1.434 . S
C511 C502 1.429 . S
C511 N508 1.350 . S
C511 C510 1.434 . S
C512 C513 1.369 . S
C512 C514 1.419 . S
C512 H516 0.930 . S
C513 C512 1.369 . S
C513 C522 1.429 . S
C514 C512 1.419 . S
C514 C515 1.363 . S
C514 H517 0.929 . S
C515 C514 1.363 . S
C515 C521 1.428 . S
H516 C512 0.930 . S
H517 C514 0.929 . S
S518 N519 1.613 . S
S518 N520 1.610 . S
N519 S518 1.613 . S
N519 C522 1.350 . S
N520 S518 1.610 . S
N520 C521 1.351 . S
C521 C515 1.428 . S
C521 N520 1.351 . S
C521 C522 1.434 . S
C522 C513 1.429 . S
C522 N519 1.350 . S
C522 C521 1.434 . S
C523 C524 1.369 . S
C523 C525 1.419 . S
C523 H527 0.930 1_565 S
C524 C523 1.369 . S
C524 C533 1.429 . S
C525 C523 1.419 . S
C525 C526 1.363 . S
C525 H528 0.929 . S
C526 C525 1.363 . S
C526 C532 1.428 . S
H527 C523 0.930 1_545 S
H528 C525 0.929 . S
S529 N530 1.613 . S
S529 N531 1.610 . S
N530 S529 1.613 . S
N530 C533 1.350 . S
N531 S529 1.610 . S
N531 C532 1.351 . S
C532 C526 1.428 . S
C532 N531 1.351 . S
C532 C533 1.434 . S
C533 C524 1.429 . S
C533 N530 1.350 . S
C533 C532 1.434 . S
C534 C535 1.369 . S
C534 C536 1.419 . S
C534 H538 0.930 . S
C535 C534 1.369 . S
C535 C544 1.429 1_556 S
C536 C534 1.419 . S
C536 C537 1.363 . S
C536 H539 0.929 . S
C537 C536 1.363 . S
C537 C543 1.428 . S
H538 C534 0.930 . S
H539 C536 0.929 . S
S540 N541 1.613 . S
S540 N542 1.610 . S
N541 S540 1.613 . S
N541 C544 1.350 . S
N542 S540 1.610 . S
N542 C543 1.351 1_554 S
C543 C537 1.428 . S
C543 N542 1.351 1_556 S
C543 C544 1.434 1_556 S
C544 C535 1.429 1_554 S
C544 N541 1.350 . S
C544 C543 1.434 1_554 S
C545 C546 1.369 . S
C545 C547 1.419 . S
C545 H549 0.940 . S
C546 C545 1.369 . S
C546 C555 1.429 . S
C547 C545 1.419 . S
C547 C548 1.363 . S
C547 H550 0.929 . S
C548 C547 1.363 . S
C548 C554 1.428 . S
H549 C545 0.940 . S
H550 C547 0.929 . S
S551 N552 1.613 . S
S551 N553 1.610 . S
N552 S551 1.613 . S
N552 C555 1.350 . S
N553 S551 1.610 . S
N553 C554 1.351 . S
C554 C548 1.428 . S
C554 N553 1.351 . S
C554 C555 1.434 . S
C555 C546 1.429 . S
C555 N552 1.350 . S
C555 C554 1.434 . S
C556 C557 1.369 . S
C556 C558 1.419 . S
C556 H560 0.930 . S
C557 C556 1.369 . S
C557 C566 1.429 . S
C558 C556 1.419 . S
C558 C559 1.363 . S
C558 H561 0.929 . S
C559 C558 1.363 . S
C559 C565 1.428 . S
H560 C556 0.930 . S
H561 C558 0.929 . S
S562 N563 1.613 . S
S562 N564 1.610 . S
N563 S562 1.613 . S
N563 C566 1.350 . S
N564 S562 1.610 . S
N564 C565 1.351 . S
C565 C559 1.428 . S
C565 N564 1.351 . S
C565 C566 1.434 . S
C566 C557 1.429 . S
C566 N563 1.350 . S
C566 C565 1.434 . S
C567 C568 1.369 . S
C567 C569 1.419 . S
C567 H571 0.930 . S
C568 C567 1.369 . S
C568 C577 1.429 . S
C569 C567 1.419 . S
C569 C570 1.363 . S
C569 H572 0.929 . S
C570 C569 1.363 . S
C570 C576 1.428 . S
H571 C567 0.930 . S
H572 C569 0.929 . S
S573 N574 1.613 1_565 S
S573 N575 1.610 . S
N574 S573 1.613 1_545 S
N574 C577 1.350 . S
N575 S573 1.610 . S
N575 C576 1.351 1_565 S
C576 C570 1.428 . S
C576 N575 1.351 1_545 S
C576 C577 1.434 . S
C577 C568 1.429 . S
C577 N574 1.350 . S
C577 C576 1.434 . S
C578 C579 1.369 . S
C578 C580 1.419 . S
C578 H582 0.930 . S
C579 C578 1.369 . S
C579 C588 1.429 . S
C580 C578 1.419 . S
C580 C581 1.363 . S
C580 H583 0.929 . S
C581 C580 1.363 . S
C581 C587 1.428 . S
H582 C578 0.930 . S
H583 C580 0.929 . S
S584 N585 1.613 1_556 S
S584 N586 1.610 . S
N585 S584 1.613 1_554 S
N585 C588 1.350 . S
N586 S584 1.610 . S
N586 C587 1.351 1_556 S
C587 C581 1.428 . S
C587 N586 1.351 1_554 S
C587 C588 1.434 . S
C588 C579 1.429 . S
C588 N585 1.350 . S
C588 C587 1.434 . S
C589 C590 1.369 . S
C589 C591 1.419 . S
C589 H593 0.930 . S
C590 C589 1.369 . S
C590 C599 1.429 . S
C591 C589 1.419 . S
C591 C592 1.363 . S
C591 H594 0.929 . S
C592 C591 1.363 . S
C592 C598 1.428 . S
H593 C589 0.930 . S
H594 C591 0.929 . S
S595 N596 1.613 . S
S595 N597 1.610 1_545 S
N596 S595 1.613 . S
N596 C599 1.350 1_545 S
N597 S595 1.610 1_565 S
N597 C598 1.351 . S
C598 C592 1.428 . S
C598 N597 1.351 . S
C598 C599 1.434 . S
C599 C590 1.429 . S
C599 N596 1.350 1_565 S
C599 C598 1.434 . S
C600 C601 1.369 . S
C600 C602 1.419 . S
C600 H604 0.930 . S
C601 C600 1.369 . S
C601 C610 1.429 . S
C602 C600 1.419 . S
C602 C603 1.363 . S
C602 H605 0.929 . S
C603 C602 1.363 . S
C603 C609 1.428 . S
H604 C600 0.930 . S
H605 C602 0.929 . S
S606 N607 1.613 . S
S606 N608 1.610 . S
N607 S606 1.613 . S
N607 C610 1.350 . S
N608 S606 1.610 . S
N608 C609 1.351 . S
C609 C603 1.428 . S
C609 N608 1.351 . S
C609 C610 1.434 . S
C610 C601 1.429 . S
C610 N607 1.350 . S
C610 C609 1.434 . S
C611 C612 1.369 . S
C611 C613 1.419 . S
C611 H615 0.930 . S
C612 C611 1.369 . S
C612 C621 1.429 . S
C613 C611 1.419 . S
C613 C614 1.363 . S
C613 H616 0.929 . S
C614 C613 1.363 . S
C614 C620 1.428 . S
H615 C611 0.930 . S
H616 C613 0.929 . S
S617 N618 1.613 . S
S617 N619 1.610 . S
N618 S617 1.613 . S
N618 C621 1.350 . S
N619 S617 1.610 . S
N619 C620 1.351 . S
C620 C614 1.428 . S
C620 N619 1.351 . S
C620 C621 1.434 . S
C621 C612 1.429 . S
C621 N618 1.350 . S
C621 C620 1.434 . S
C622 C623 1.369 . S
C622 C624 1.419 . S
C622 H626 0.930 . S
C623 C622 1.369 . S
C623 C632 1.429 . S
C624 C622 1.419 . S
C624 C625 1.363 . S
C624 H627 0.929 . S
C625 C624 1.363 . S
C625 C631 1.428 . S
H626 C622 0.930 . S
H627 C624 0.929 . S
S628 N629 1.613 . S
S628 N630 1.610 1_655 S
N629 S628 1.613 . S
N629 C632 1.350 1_655 S
N630 S628 1.610 1_455 S
N630 C631 1.351 . S
C631 C625 1.428 . S
C631 N630 1.351 . S
C631 C632 1.434 . S
C632 C623 1.429 . S
C632 N629 1.350 1_455 S
C632 C631 1.434 . S
C633 C634 1.369 . S
C633 C635 1.419 . S
C633 H637 0.930 . S
C634 C633 1.369 . S
C634 C643 1.429 . S
C635 C633 1.419 . S
C635 C636 1.363 . S
C635 H638 0.929 . S
C636 C635 1.363 . S
C636 C642 1.428 . S
H637 C633 0.930 . S
H638 C635 0.929 . S
S639 N640 1.613 . S
S639 N641 1.610 . S
N640 S639 1.613 . S
N640 C643 1.350 . S
N641 S639 1.610 . S
N641 C642 1.351 . S
C642 C636 1.428 . S
C642 N641 1.351 . S
C642 C643 1.434 . S
C643 C634 1.429 . S
C643 N640 1.350 . S
C643 C642 1.434 . S
C644 C645 1.369 . S
C644 C646 1.419 . S
C644 H648 0.930 . S
C645 C644 1.369 . S
C645 C654 1.429 . S
C646 C644 1.419 . S
C646 C647 1.363 . S
C646 H649 0.929 . S
C647 C646 1.363 . S
C647 C653 1.428 . S
H648 C644 0.930 . S
H649 C646 0.929 . S
S650 N651 1.613 . S
S650 N652 1.610 . S
N651 S650 1.613 . S
N651 C654 1.350 . S
N652 S650 1.610 . S
N652 C653 1.351 . S
C653 C647 1.428 . S
C653 N652 1.351 . S
C653 C654 1.434 . S
C654 C645 1.429 . S
C654 N651 1.350 . S
C654 C653 1.434 . S
C655 C656 1.369 . S
C655 C657 1.419 . S
C655 H659 0.930 . S
C656 C655 1.369 . S
C656 C665 1.429 . S
C657 C655 1.419 . S
C657 C658 1.363 . S
C657 H660 0.929 . S
C658 C657 1.363 . S
C658 C664 1.428 . S
H659 C655 0.930 . S
H660 C657 0.929 . S
S661 N662 1.613 . S
S661 N663 1.610 1_556 S
N662 S661 1.613 . S
N662 C665 1.350 . S
N663 S661 1.610 1_554 S
N663 C664 1.352 1_554 S
C664 C658 1.428 . S
C664 N663 1.352 1_556 S
C664 C665 1.434 . S
C665 C656 1.429 . S
C665 N662 1.350 . S
C665 C664 1.434 . S
C666 C667 1.369 . S
C666 C668 1.419 . S
C666 H670 0.930 . S
C667 C666 1.369 . S
C667 C676 1.429 . S
C668 C666 1.419 . S
C668 C669 1.363 . S
C668 H671 0.929 . S
C669 C668 1.363 . S
C669 C675 1.428 . S
H670 C666 0.930 . S
H671 C668 0.929 . S
S672 N673 1.613 . S
S672 N674 1.610 . S
N673 S672 1.613 . S
N673 C676 1.350 . S
N674 S672 1.610 . S
N674 C675 1.351 . S
C675 C669 1.428 . S
C675 N674 1.351 . S
C675 C676 1.434 . S
C676 C667 1.429 . S
C676 N673 1.350 . S
C676 C675 1.434 . S
C677 C678 1.369 . S
C677 C679 1.419 . S
C677 H681 0.930 . S
C678 C677 1.369 . S
C678 C687 1.429 . S
C679 C677 1.419 . S
C679 C680 1.363 . S
C679 H682 0.929 . S
C680 C679 1.363 . S
C680 C686 1.428 . S
H681 C677 0.930 . S
H682 C679 0.929 . S
S683 N684 1.613 . S
S683 N685 1.610 . S
N684 S683 1.613 . S
N684 C687 1.350 . S
N685 S683 1.610 . S
N685 C686 1.351 . S
C686 C680 1.428 . S
C686 N685 1.351 . S
C686 C687 1.434 . S
C687 C678 1.429 . S
C687 N684 1.350 . S
C687 C686 1.434 . S
C688 C689 1.369 . S
C688 C690 1.419 . S
C688 H692 0.930 . S
C689 C688 1.369 . S
C689 C698 1.429 . S
C690 C688 1.419 . S
C690 C691 1.363 . S
C690 H693 0.929 1_655 S
C691 C690 1.363 . S
C691 C697 1.428 . S
H692 C688 0.930 . S
H693 C690 0.929 1_455 S
S694 N695 1.613 . S
S694 N696 1.610 . S
N695 S694 1.613 . S
N695 C698 1.350 . S
N696 S694 1.610 . S
N696 C697 1.351 . S
C697 C691 1.428 . S
C697 N696 1.351 . S
C697 C698 1.434 . S
C698 C689 1.429 . S
C698 N695 1.350 . S
C698 C697 1.434 . S
C699 C700 1.369 . S
C699 C701 1.419 . S
C699 H703 0.930 . S
C700 C699 1.369 . S
C700 C709 1.429 . S
C701 C699 1.419 . S
C701 C702 1.363 . S
C701 H704 0.929 . S
C702 C701 1.363 . S
C702 C708 1.428 . S
H703 C699 0.930 . S
H704 C701 0.929 . S
S705 N706 1.613 . S
S705 N707 1.610 . S
N706 S705 1.613 . S
N706 C709 1.350 . S
N707 S705 1.610 . S
N707 C708 1.351 . S
C708 C702 1.428 . S
C708 N707 1.351 . S
C708 C709 1.434 . S
C709 C700 1.429 . S
C709 N706 1.350 . S
C709 C708 1.434 . S
C710 C711 1.369 . S
C710 C712 1.419 . S
C710 H714 0.930 . S
C711 C710 1.369 . S
C711 C720 1.429 . S
C712 C710 1.419 . S
C712 C713 1.363 . S
C712 H715 0.929 . S
C713 C712 1.363 . S
C713 C719 1.428 . S
H714 C710 0.930 . S
H715 C712 0.929 . S
S716 N717 1.613 . S
S716 N718 1.610 . S
N717 S716 1.613 . S
N717 C720 1.350 . S
N718 S716 1.610 . S
N718 C719 1.351 . S
C719 C713 1.428 . S
C719 N718 1.351 . S
C719 C720 1.434 . S
C720 C711 1.429 . S
C720 N717 1.350 . S
C720 C719 1.434 . S
C721 C722 1.369 . S
C721 C723 1.419 . S
C721 H725 0.930 . S
C722 C721 1.369 . S
C722 C731 1.429 . S
C723 C721 1.419 . S
C723 C724 1.363 . S
C723 H726 0.929 . S
C724 C723 1.363 . S
C724 C730 1.428 . S
H725 C721 0.930 . S
H726 C723 0.929 . S
S727 N728 1.613 . S
S727 N729 1.610 . S
N728 S727 1.613 . S
N728 C731 1.350 . S
N729 S727 1.610 . S
N729 C730 1.351 . S
C730 C724 1.428 . S
C730 N729 1.351 . S
C730 C731 1.434 . S
C731 C722 1.429 . S
C731 N728 1.350 . S
C731 C730 1.434 . S
C732 C733 1.369 . S
C732 C734 1.419 . S
C732 H736 0.930 . S
C733 C732 1.369 . S
C733 C742 1.429 . S
C734 C732 1.419 . S
C734 C735 1.363 . S
C734 H737 0.929 . S
C735 C734 1.363 . S
C735 C741 1.428 . S
H736 C732 0.930 . S
H737 C734 0.929 . S
S738 N739 1.613 . S
S738 N740 1.610 . S
N739 S738 1.613 . S
N739 C742 1.350 . S
N740 S738 1.610 . S
N740 C741 1.351 . S
C741 C735 1.428 . S
C741 N740 1.351 . S
C741 C742 1.434 . S
C742 C733 1.429 . S
C742 N739 1.350 . S
C742 C741 1.434 . S
C743 C744 1.369 . S
C743 C745 1.419 . S
C743 H747 0.930 . S
C744 C743 1.369 . S
C744 C753 1.429 . S
C745 C743 1.419 . S
C745 C746 1.363 . S
C745 H748 0.929 . S
C746 C745 1.363 . S
C746 C752 1.428 . S
H747 C743 0.930 . S
H748 C745 0.929 . S
S749 N750 1.613 . S
S749 N751 1.610 . S
N750 S749 1.613 . S
N750 C753 1.350 . S
N751 S749 1.610 . S
N751 C752 1.351 . S
C752 C746 1.428 . S
C752 N751 1.351 . S
C752 C753 1.434 . S
C753 C744 1.429 . S
C753 N750 1.350 . S
C753 C752 1.434 . S
C754 C755 1.369 . S
C754 C756 1.419 . S
C754 H758 0.930 . S
C755 C754 1.369 . S
C755 C764 1.429 . S
C756 C754 1.419 . S
C756 C757 1.363 . S
C756 H759 0.929 . S
C757 C756 1.363 . S
C757 C763 1.428 . S
H758 C754 0.930 . S
H759 C756 0.929 . S
S760 N761 1.613 . S
S760 N762 1.610 . S
N761 S760 1.613 . S
N761 C764 1.350 . S
N762 S760 1.610 . S
N762 C763 1.351 . S
C763 C757 1.428 . S
C763 N762 1.351 . S
C763 C764 1.434 . S
C764 C755 1.429 . S
C764 N761 1.350 . S
C764 C763 1.434 . S
C765 C766 1.369 . S
C765 C767 1.419 . S
C765 H769 0.930 . S
C766 C765 1.369 . S
C766 C775 1.429 . S
C767 C765 1.419 . S
C767 C768 1.363 . S
C767 H770 0.929 . S
C768 C767 1.363 . S
C768 C774 1.428 . S
H769 C765 0.930 . S
H770 C767 0.929 . S
S771 N772 1.613 1_556 S
S771 N773 1.610 . S
N772 S771 1.613 1_554 S
N772 C775 1.350 1_554 S
N773 S771 1.610 . S
N773 C774 1.351 . S
C774 C768 1.428 . S
C774 N773 1.351 . S
C774 C775 1.434 . S
C775 C766 1.429 . S
C775 N772 1.350 1_556 S
C775 C774 1.434 . S
C776 C777 1.369 . S
C776 C778 1.419 . S
C776 H780 0.930 . S
C777 C776 1.369 . S
C777 C786 1.429 . S
C778 C776 1.419 . S
C778 C779 1.363 . S
C778 H781 0.929 . S
C779 C778 1.363 . S
C779 C785 1.428 . S
H780 C776 0.930 . S
H781 C778 0.929 . S
S782 N783 1.613 . S
S782 N784 1.610 . S
N783 S782 1.613 . S
N783 C786 1.350 . S
N784 S782 1.610 . S
N784 C785 1.351 . S
C785 C779 1.428 . S
C785 N784 1.351 . S
C785 C786 1.434 . S
C786 C777 1.429 . S
C786 N783 1.350 . S
C786 C785 1.434 . S
C787 C788 1.369 . S
C787 C789 1.419 . S
C787 H791 0.930 . S
C788 C787 1.369 . S
C788 C797 1.429 . S
C789 C787 1.419 . S
C789 C790 1.363 . S
C789 H792 0.929 . S
C790 C789 1.363 . S
C790 C796 1.428 . S
H791 C787 0.930 . S
H792 C789 0.929 . S
S793 N794 1.613 . S
S793 N795 1.610 . S
N794 S793 1.613 . S
N794 C797 1.350 . S
N795 S793 1.610 . S
N795 C796 1.351 . S
C796 C790 1.428 . S
C796 N795 1.351 . S
C796 C797 1.434 . S
C797 C788 1.429 . S
C797 N794 1.350 . S
C797 C796 1.434 . S
C798 C799 1.369 . S
C798 C800 1.419 . S
C798 H802 0.930 . S
C799 C798 1.369 . S
C799 C808 1.429 . S
C800 C798 1.419 . S
C800 C801 1.363 . S
C800 H803 0.929 . S
C801 C800 1.363 . S
C801 C807 1.428 . S
H802 C798 0.930 . S
H803 C800 0.929 . S
S804 N805 1.613 . S
S804 N806 1.610 . S
N805 S804 1.613 . S
N805 C808 1.350 . S
N806 S804 1.610 . S
N806 C807 1.351 . S
C807 C801 1.428 . S
C807 N806 1.351 . S
C807 C808 1.434 . S
C808 C799 1.429 . S
C808 N805 1.350 . S
C808 C807 1.434 . S
C809 C810 1.369 . S
C809 C811 1.419 1_554 S
C809 H813 0.930 . S
C810 C809 1.369 . S
C810 C819 1.429 1_455 S
C811 C809 1.419 1_556 S
C811 C812 1.363 1_455 S
C811 H814 0.929 . S
C812 C811 1.363 1_655 S
C812 C818 1.428 . S
H813 C809 0.930 . S
H814 C811 0.929 . S
S815 N816 1.613 . S
S815 N817 1.610 1_554 S
N816 S815 1.613 . S
N816 C819 1.350 . S
N817 S815 1.610 1_556 S
N817 C818 1.351 . S
C818 C812 1.428 . S
C818 N817 1.351 . S
C818 C819 1.434 1_556 S
C819 C810 1.429 1_655 S
C819 N816 1.350 . S
C819 C818 1.434 1_554 S
C820 C821 1.369 . S
C820 C822 1.419 . S
C820 H824 0.930 . S
C821 C820 1.369 . S
C821 C830 1.429 . S
C822 C820 1.419 . S
C822 C823 1.363 . S
C822 H825 0.929 . S
C823 C822 1.363 . S
C823 C829 1.428 . S
H824 C820 0.930 . S
H825 C822 0.929 . S
S826 N827 1.613 . S
S826 N828 1.610 . S
N827 S826 1.613 . S
N827 C830 1.350 . S
N828 S826 1.610 . S
N828 C829 1.351 . S
C829 C823 1.428 . S
C829 N828 1.351 . S
C829 C830 1.434 . S
C830 C821 1.429 . S
C830 N827 1.350 . S
C830 C829 1.434 . S
C831 C832 1.369 . S
C831 C833 1.419 . S
C831 H835 0.930 . S
C832 C831 1.369 . S
C832 C841 1.429 . S
C833 C831 1.419 . S
C833 C834 1.363 . S
C833 H836 0.929 . S
C834 C833 1.363 . S
C834 C840 1.428 . S
H835 C831 0.930 . S
H836 C833 0.929 . S
S837 N838 1.613 . S
S837 N839 1.610 . S
N838 S837 1.613 . S
N838 C841 1.350 . S
N839 S837 1.610 . S
N839 C840 1.351 . S
C840 C834 1.428 . S
C840 N839 1.351 . S
C840 C841 1.434 . S
C841 C832 1.429 . S
C841 N838 1.350 . S
C841 C840 1.434 . S
C842 C843 1.369 1_554 S
C842 C844 1.419 1_545 S
C842 H846 0.930 . S
C843 C842 1.369 1_556 S
C843 C852 1.429 1_455 S
C844 C842 1.419 1_565 S
C844 C845 1.363 1_455 S
C844 H847 0.929 . S
C845 C844 1.363 1_655 S
C845 C851 1.428 1_554 S
H846 C842 0.930 . S
H847 C844 0.929 . S
S848 N849 1.613 1_565 S
S848 N850 1.610 . S
N849 S848 1.613 1_545 S
N849 C852 1.350 . S
N850 S848 1.610 . S
N850 C851 1.351 . S
C851 C845 1.428 1_556 S
C851 N850 1.351 . S
C851 C852 1.434 1_565 S
C852 C843 1.429 1_655 S
C852 N849 1.350 . S
C852 C851 1.434 1_545 S
C853 C854 1.369 1_565 S
C853 C855 1.419 . S
C853 H857 0.930 . S
C854 C853 1.369 1_545 S
C854 C863 1.429 . S
C855 C853 1.419 . S
C855 C856 1.363 . S
C855 H858 0.929 . S
C856 C855 1.363 . S
C856 C862 1.428 1_565 S
H857 C853 0.930 . S
H858 C855 0.929 . S
S859 N860 1.613 . S
S859 N861 1.610 . S
N860 S859 1.613 . S
N860 C863 1.350 . S
N861 S859 1.610 . S
N861 C862 1.351 . S
C862 C856 1.428 1_545 S
C862 N861 1.351 . S
C862 C863 1.434 . S
C863 C854 1.429 . S
C863 N860 1.350 . S
C863 C862 1.434 . S
C337 C16 1.396 . S
C339 C213 1.386 . S
C348 C37 1.394 . S
C350 C247 1.394 . S
C359 C45 1.397 . S
C361 C184 1.392 . S
C370 C79 1.397 . S
C372 C192 1.387 . S
C381 C87 1.397 . S
C383 C297 1.393 . S
C392 C108 1.392 . S
C394 C318 1.396 . S
C403 C129 1.397 . S
C405 C255 1.392 . S
C414 C163 1.386 . S
C416 C276 1.390 . S
C425 C193 1.409 . S
C427 C20 1.341 . S
C436 C214 1.397 . S
C438 C41 1.353 . S
C447 C238 1.408 . S
C449 C61 1.343 . S
C458 C175 1.397 . S
C460 C83 1.352 . S
C469 C103 1.349 . S
C471 C277 1.401 . S
C480 C298 1.408 . S
C482 C124 1.342 . S
C491 C319 1.397 . S
C493 C145 1.353 . S
C502 C256 1.396 . S
C504 C167 1.353 . S
C513 C28 1.396 . S
C515 C188 1.354 . S
C524 C208 1.354 1_565 S
C526 C46 1.399 . S
C535 C229 1.355 . S
C537 C70 1.398 . S
C546 C251 1.353 1_545 S
C548 C7 1.399 . S
C557 C271 1.344 . S
C559 C109 1.404 . S
C568 C130 1.409 . S
C570 C292 1.342 1_545 S
C579 C154 1.396 . S
C581 C313 1.353 . S
C590 C334 1.345 1_565 S
C592 C88 1.405 . S
C601 C3 1.006 . S
C603 C322 1.047 . S
C612 C24 1.015 . S
C614 C91 1.042 . S
C623 C280 1.032 . S
C625 C58 1.014 . S
C634 C133 1.032 . S
C636 C66 1.013 . S
C645 C100 1.002 . S
C647 C235 1.048 . S
C656 C121 1.004 . S
C658 C4 1.047 . S
C667 C196 1.051 . S
C669 C142 1.002 . S
C678 C49 1.048 . S
C680 C150 1.006 . S
C689 C171 1.010 . S
C691 C151 1.045 . S
C700 C205 1.008 . S
C702 C259 1.037 . S
C711 C112 1.030 . S
C713 C226 1.019 . S
C722 C301 1.044 . S
C724 C234 1.003 . S
C733 C268 1.007 . S
C735 C67 1.039 . S
C744 C289 1.009 . S
C746 C172 1.038 . S
C755 C310 1.021 . S
C757 C25 1.032 . S
C766 C217 1.046 . S
C768 C331 1.009 . S
C777 C19 1.367 . S
C779 C272 1.357 . S
C788 C40 1.361 . S
C790 C125 1.363 . S
C799 C62 1.365 . S
C801 C314 1.360 . S
C810 C166 1.362 . S
C812 C82 1.363 . S
C821 C104 1.366 . S
C823 C187 1.358 . S
C832 C230 1.364 . S
C834 C146 1.360 . S
C843 C209 1.363 . S
C845 C293 1.361 . S
C854 C335 1.355 . S
C856 C250 1.367 . S
