# Generated by pormake.
# Topology sma, (6)-cn, num edge types: 1
# Building blocks:
#     Node 0, Type 0, BuildingBlock: GEDQOX_clean_sbu_0, # of connection points: 6
#     Node 1, Type 0, BuildingBlock: GEDQOX_clean_sbu_0, # of connection points: 6
#     Node 2, Type 0, BuildingBlock: GEDQOX_clean_sbu_0, # of connection points: 6
#     Edge 3, Type (0, 0), BuildingBlock: UVAHIK_clean_linker_0, # of connection points: 2
#     Edge 4, Type (0, 0), BuildingBlock: UVAHIK_clean_linker_0, # of connection points: 2
#     Edge 5, Type (0, 0), BuildingBlock: UVAHIK_clean_linker_0, # of connection points: 2
#     Edge 6, Type (0, 0), BuildingBlock: UVAHIK_clean_linker_0, # of connection points: 2
#     Edge 7, Type (0, 0), BuildingBlock: UVAHIK_clean_linker_0, # of connection points: 2
#     Edge 8, Type (0, 0), BuildingBlock: UVAHIK_clean_linker_0, # of connection points: 2
#     Edge 9, Type (0, 0), BuildingBlock: UVAHIK_clean_linker_0, # of connection points: 2
#     Edge 10, Type (0, 0), BuildingBlock: UVAHIK_clean_linker_0, # of connection points: 2
#     Edge 11, Type (0, 0), BuildingBlock: UVAHIK_clean_linker_0, # of connection points: 2
# Relax obj value: 0.120
# Max RMSD: 0.249
# Mean RMSD: 0.205
data_MOF--net-sma--node1-GEDQOX_clean_sbu_0--edge1-UVAHIK_clean_linker_0
_symmetry_space_group_name_H-M    P1
_symmetry_Int_Tables_number       1
_symmetry_cell_setting            triclinic
loop_
_symmetry_equiv_pos_as_xyz
'x, y, z'
_cell_length_a     49.43936
_cell_length_b     39.881165
_cell_length_c     17.579123
_cell_angle_alpha  96.675702
_cell_angle_beta   90.461604
_cell_angle_gamma 102.72597
loop_
_atom_site_label
_atom_site_type_symbol
_atom_site_fract_x
_atom_site_fract_y
_atom_site_fract_z
_atom_type_partial_charge
Nd0 Nd 0.06863 0.58983 0.04901 0.0
Nd1 Nd 0.04974 0.51438 0.08618 0.0
C2 C 0.09466 0.65045 0.01007 0.0
C3 C 0.1179 0.67663 0.04952 0.0
C4 C 0.13559 0.70018 0.00871 0.0
C5 C 0.15844 0.72377 0.04611 0.0
C6 C 0.16394 0.72426 0.12508 0.0
C7 C 0.14605 0.70059 0.16557 0.0
C8 C 0.12339 0.67696 0.12816 0.0
C9 C 0.07153 0.58212 0.20109 0.0
C10 C 0.11312 0.53843 0.03798 0.0
C11 C 1.02769 0.45939 0.1545 0.0
C12 C 1.00015 0.43858 0.17227 0.0
C13 C 0.99235 0.43805 0.24889 0.0
C14 C 0.9671 0.41733 0.26744 0.0
C15 C 0.94908 0.39636 0.20981 0.0
C16 C 0.95679 0.39712 0.133 0.0
C17 C 0.98199 0.418 0.11441 0.0
C18 C 0.05135 0.52202 0.93411 0.0
C19 C 1.00286 0.56144 0.06023 0.0
O20 O 0.10071 0.62123 -0.01759 0.0
O21 O 0.07116 0.64582 0.04533 0.0
O22 O 0.06347 0.6074 0.1751 0.0
O23 O 0.078 0.56209 0.14746 0.0
O24 O 0.10493 0.56468 0.01271 0.0
O25 O 0.0968 0.51707 0.07948 0.0
O26 O 0.03545 0.49069 0.19122 0.0
O27 O 0.03497 0.45756 0.08287 0.0
O28 O 0.05638 0.49474 0.96044 0.0
O29 O 0.04318 0.5413 -0.01375 0.0
O30 O 1.00942 0.53615 0.09455 0.0
O31 O 1.02195 0.58302 0.02652 0.0
H32 H 0.13186 0.70013 0.94788 0.0
H33 H 0.17171 0.74177 0.01332 0.0
H34 H 0.1499 0.69978 0.226 0.0
H35 H 0.11033 0.65863 0.16064 0.0
H36 H 1.00601 0.45335 0.29477 0.0
H37 H 0.96204 0.41707 0.32722 0.0
H38 H 0.94329 0.38161 0.08709 0.0
H39 H 0.9873 0.41772 0.05473 0.0
Nd40 Nd 0.52808 1.04151 0.59879 0.0
Nd41 Nd 0.58883 0.05843 0.54803 0.0
C42 C 0.47766 1.01646 0.64624 0.0
C43 C 0.45221 0.99473 0.60683 0.0
C44 C 0.43181 0.97498 0.64832 0.0
C45 C 0.4082 0.95318 0.61046 0.0
C46 C 0.40457 0.95068 0.5302 0.0
C47 C 0.4251 0.97079 0.4891 0.0
C48 C 0.44868 0.99242 0.52693 0.0
C49 C 0.53473 1.0363 0.44402 0.0
C50 C 0.56466 0.98173 0.59145 0.0
C51 C 0.63424 0.0779 0.47042 0.0
C52 C 0.65634 0.10816 0.45629 0.0
C53 C 0.65972 0.11736 0.38164 0.0
C54 C 0.68206 0.14352 0.36505 0.0
C55 C 0.70174 0.161 0.4227 0.0
C56 C 0.69797 0.15232 0.49787 0.0
C57 C 0.67554 0.12624 0.51452 0.0
C58 C 0.58319 0.06026 0.70296 0.0
C59 C 0.55585 0.12202 0.59391 0.0
O60 O 0.4983 1.00125 0.65202 0.0
O61 O 0.48564 0.04771 0.62684 0.0
O62 O 0.51567 0.04938 0.47767 0.0
O63 O 0.54918 1.02599 0.49122 0.0
O64 O 0.54547 0.9953 0.62725 0.0
O65 O 0.5816 0.99909 0.54431 0.0
O66 O 0.60918 0.07593 0.44262 0.0
O67 O 0.63433 0.0666 0.53745 0.0
O68 O 0.60457 0.05249 0.66849 0.0
O69 O 0.56811 0.07044 0.65692 0.0
O70 O 0.5752 0.11114 0.55196 0.0
O71 O 0.5377 0.10029 0.62993 0.0
H72 H 0.43428 0.97612 0.70993 0.0
H73 H 0.39307 0.93778 0.64397 0.0
H74 H 0.42291 0.97002 0.42755 0.0
H75 H 0.46425 1.00725 0.49361 0.0
H76 H 0.64543 0.10363 0.33548 0.0
H77 H 0.68444 0.14919 0.30638 0.0
H78 H 0.7125 0.16555 0.54388 0.0
H79 H 0.6736 0.11983 0.57272 0.0
Nd80 Nd 0.52218 0.55094 0.73368 0.0
Nd81 Nd 0.58598 0.56688 0.77619 0.0
C82 C 0.46921 0.52962 0.68768 0.0
C83 C 0.4415 0.5276 0.72055 0.0
C84 C 0.4194 0.53139 0.6743 0.0
C85 C 0.39287 0.52909 0.70357 0.0
C86 C 0.38774 0.52282 0.77998 0.0
C87 C 0.4101 0.51939 0.8265 0.0
C88 C 0.4367 0.52182 0.79716 0.0
C89 C 0.53576 0.56906 0.887 0.0
C90 C 0.55644 0.62925 0.73317 0.0
C91 C 0.63662 0.58838 0.83985 0.0
C92 C 0.66358 0.57881 0.853 0.0
C93 C 0.6703 0.5698 0.92468 0.0
C94 C 0.69692 0.56502 0.94089 0.0
C95 C 0.7176 0.56945 0.88606 0.0
C96 C 0.71061 0.57754 0.81365 0.0
C97 C 0.684 0.58223 0.79737 0.0
C98 C 0.57183 0.5444 0.62605 0.0
C99 C 0.55439 0.48663 0.74228 0.0
O100 O 0.48395 0.56055 0.68065 0.0
O101 O 0.48414 0.50922 0.71094 0.0
O102 O 0.51565 0.57776 0.85233 0.0
O103 O 0.54711 0.5505 0.84081 0.0
O104 O 0.53596 0.60523 0.69826 0.0
O105 O 0.57529 0.62098 0.77729 0.0
O106 O 0.61507 0.57399 0.87699 0.0
O107 O 0.63012 0.59336 0.77029 0.0
O108 O 0.59357 0.53822 0.65901 0.0
O109 O 0.56086 0.56454 0.66935 0.0
O110 O 0.57552 0.50828 0.78106 0.0
O111 O 0.53389 0.49762 0.71107 0.0
H112 H 0.42266 0.53612 0.61524 0.0
H113 H 0.37643 0.53261 0.66631 0.0
H114 H 0.407 0.51427 0.88532 0.0
H115 H 0.45346 0.51898 0.83421 0.0
H116 H 0.65523 0.56749 0.96925 0.0
H117 H 0.70158 0.55919 -0.00246 0.0
H118 H 0.72586 0.58069 0.76963 0.0
H119 H 0.67972 0.58943 0.74173 0.0
C120 C 0.15767 0.55667 0.97187 0.0
C121 C 0.14127 0.53351 0.01679 0.0
C122 C 0.18381 0.55249 0.9491 0.0
C123 C 0.24195 0.51269 -0.00757 0.0
H124 H 0.26136 0.52939 0.78466 0.0
C125 C 0.35518 0.5337 0.88599 0.0
C126 C 0.3592 0.51993 0.81049 0.0
C127 C 0.32836 0.53209 0.91314 0.0
C128 C 0.25629 0.52427 0.84263 0.0
H129 H 0.14007 0.48788 0.07382 0.0
H130 H 0.18613 0.4805 0.0336 0.0
H131 H 0.21514 0.53173 0.82768 0.0
H132 H 0.33775 0.49219 0.70588 0.0
H133 H 0.29126 0.48973 0.75279 0.0
H134 H 0.28331 0.50522 0.00699 0.0
C135 C 0.17851 0.50204 0.01644 0.0
C136 C 0.22979 0.52598 0.86764 0.0
C137 C 0.15207 0.50618 0.03924 0.0
C138 C 0.33561 0.50383 0.76367 0.0
C139 C 0.30885 0.50233 0.7907 0.0
C140 C 0.26862 0.51114 0.96742 0.0
C141 C 0.19456 0.52499 0.97029 0.0
C142 C 0.22231 0.52063 0.9431 0.0
C143 C 0.30481 0.51677 0.86551 0.0
C144 C 0.2762 0.51713 0.89224 0.0
H145 H 0.15033 0.57823 0.95362 0.0
H146 H 0.19574 0.5711 0.91503 0.0
H147 H 0.23696 0.50859 0.05099 0.0
H148 H 0.37276 0.54662 0.92361 0.0
H149 H 0.32609 0.54384 0.97077 0.0
C150 C 0.753 0.18756 0.43528 0.0
C151 C 0.72665 0.18706 0.40371 0.0
C152 C 0.77662 0.21087 0.41493 0.0
C153 C 0.79971 0.29328 0.33158 0.0
H154 H 0.8668 0.25982 0.29207 0.0
C155 C 0.906 0.38458 0.28735 0.0
C156 C 0.92273 0.37316 0.23001 0.0
C157 C 0.88169 0.36245 0.30769 0.0
C158 C 0.84821 0.26957 0.30238 0.0
H159 H 0.70454 0.21146 0.32718 0.0
H160 H 0.74576 0.25197 0.2913 0.0
H161 H 0.82527 0.22048 0.32924 0.0
H162 H 0.92688 0.32928 0.14933 0.0
H163 H 0.88444 0.29084 0.18427 0.0
H164 H 0.82264 0.34232 0.30392 0.0
C165 C 0.74813 0.23437 0.33208 0.0
C166 C 0.82445 0.24708 0.32459 0.0
C167 C 0.72451 0.2109 0.35211 0.0
C168 C 0.9144 0.33908 0.19321 0.0
C169 C 0.8902 0.3169 0.21387 0.0
C170 C 0.82355 0.31585 0.30981 0.0
C171 C 0.77454 0.23446 0.36272 0.0
C172 C 0.79987 0.25861 0.33945 0.0
C173 C 0.87357 0.32822 0.27161 0.0
C174 C 0.84811 0.30427 0.29477 0.0
H175 H 0.75552 0.16937 0.47455 0.0
H176 H 0.79655 0.21046 0.44034 0.0
H177 H 0.78123 0.30313 0.34312 0.0
H178 H 0.91164 0.41075 0.31641 0.0
H179 H 0.86953 0.37199 0.35278 0.0
C180 C 0.58368 0.92772 0.5634 0.0
C181 C 0.56666 0.94633 0.60616 0.0
C182 C 0.58423 0.89379 0.57693 0.0
C183 C 0.5415 0.81898 0.6597 0.0
H184 H 0.60907 0.7848 0.66034 0.0
C185 C 0.5388 0.67457 0.67233 0.0
C186 C 0.55876 0.66592 0.71937 0.0
C187 C 0.5409 0.70873 0.65759 0.0
C188 C 0.59004 0.79402 0.66085 0.0
H189 H 0.53775 0.94413 0.6989 0.0
H190 H 0.5389 0.88581 0.72234 0.0
H191 H 0.61107 0.84462 0.63665 0.0
H192 H 0.5968 0.6868 0.78741 0.0
H193 H 0.6003 0.74667 0.76227 0.0
H194 H 0.52046 0.7689 0.68508 0.0
C195 C 0.55137 0.89689 0.67723 0.0
C196 C 0.59115 0.8282 0.64639 0.0
C197 C 0.55081 0.93055 0.66382 0.0
C198 C 0.581 0.69247 0.75108 0.0
C199 C 0.58313 0.72678 0.73617 0.0
C200 C 0.54038 0.78494 0.67386 0.0
C201 C 0.56775 0.8778 0.6334 0.0
C202 C 0.56688 0.84117 0.64611 0.0
C203 C 0.56301 0.73538 0.68944 0.0
C204 C 0.5646 0.77193 0.67473 0.0
H205 H 0.5962 0.93909 0.51872 0.0
H206 H 0.59702 0.8798 0.5419 0.0
H207 H 0.52232 0.82785 0.65898 0.0
H208 H 0.52145 0.65489 0.64638 0.0
H209 H 0.52525 0.71419 0.62037 0.0
C210 C 0.76934 0.59135 0.88167 0.0
C211 C 0.74663 0.56733 0.90548 0.0
C212 C 0.79657 0.59032 0.90182 0.0
C213 C 0.83967 0.53325 0.96744 0.0
H214 H 0.89252 0.62002 0.0272 0.0
C215 C 0.95182 0.53817 0.07791 0.0
C216 C 0.97322 0.56314 0.05133 0.0
C217 C 0.92389 0.53863 0.06447 0.0
C218 C 0.87815 0.59553 0.00994 0.0
H219 H 0.73502 0.52295 0.96832 0.0
H220 H 0.78256 0.52133 0.00407 0.0
H221 H 0.84469 0.62045 -0.00603 0.0
H222 H 0.98178 0.6085 -0.00939 0.0
H223 H 0.93343 0.60911 0.96682 0.0
H224 H 0.87324 0.50836 -0.01728 0.0
C225 C 0.77926 0.5409 0.96938 0.0
C226 C 0.85065 0.59578 -0.00918 0.0
C227 C 0.75196 0.54202 0.94947 0.0
C228 C 0.96595 0.5889 0.01225 0.0
C229 C 0.9381 0.58937 -0.00111 0.0
C230 C 0.86723 0.533 -0.01358 0.0
C231 C 0.80194 0.56521 0.94628 0.0
C232 C 0.83106 0.56468 0.96872 0.0
C233 C 0.91664 0.56412 0.02427 0.0
C234 C 0.88692 0.56416 0.00738 0.0
H235 H 0.7661 0.61147 0.84854 0.0
H236 H 0.81348 0.60919 0.88213 0.0
H237 H 0.82526 0.50882 0.94991 0.0
H238 H 0.95659 0.51792 0.10819 0.0
H239 H 0.90798 0.51903 0.08577 0.0
C240 C 0.38205 0.90859 0.41726 0.0
C241 C 0.37968 0.92708 0.48925 0.0
C242 C 0.35872 0.88696 0.37808 0.0
C243 C 0.28735 0.83838 0.40632 0.0
H244 H 0.27802 0.83955 0.1875 0.0
C245 C 0.18618 0.76562 0.23909 0.0
C246 C 0.18843 0.74883 0.16524 0.0
C247 C 0.20933 0.78772 0.2781 0.0
C248 C 0.28042 0.83852 0.2484 0.0
H249 H 0.35056 0.93712 0.57604 0.0
H250 H 0.30996 0.89912 0.50803 0.0
H251 H 0.31861 0.87679 0.25672 0.0
H252 H 0.21698 0.74214 0.07477 0.0
H253 H 0.25741 0.78041 0.14291 0.0
H254 H 0.24935 0.79989 0.39808 0.0
C255 C 0.32999 0.9012 0.48221 0.0
C256 C 0.30373 0.85996 0.28816 0.0
C257 C 0.35332 0.92298 0.5213 0.0
C258 C 0.21441 0.75501 0.13111 0.0
C259 C 0.23762 0.777 0.17028 0.0
C260 C 0.2641 0.81682 0.36652 0.0
C261 C 0.33237 0.88304 0.40991 0.0
C262 C 0.3075 0.86019 0.36765 0.0
C263 C 0.23544 0.79356 0.24452 0.0
C264 C 0.26027 0.81659 0.28697 0.0
H265 H 0.40204 0.91047 0.39135 0.0
H266 H 0.36142 0.87291 0.32316 0.0
H267 H 0.28978 0.83751 0.4673 0.0
H268 H 0.1664 0.76188 0.26666 0.0
H269 H 0.20665 0.80048 0.33445 0.0
C270 C 0.53423 0.42637 0.67911 0.0
C271 C 0.55441 0.44911 0.72864 0.0
C272 C 0.53464 0.39127 0.6638 0.0
C273 C 0.58065 0.32942 0.67242 0.0
H274 H 0.51101 0.26112 0.65105 0.0
C275 C 0.57476 0.18392 0.57022 0.0
C276 C 0.55575 0.15954 0.60623 0.0
C277 C 0.57482 0.21931 0.58382 0.0
C278 C 0.5307 0.27976 0.65737 0.0
H279 H 0.5908 0.45243 0.80131 0.0
H280 H 0.59121 0.39107 0.77572 0.0
H281 H 0.51076 0.32213 0.68052 0.0
H282 H 0.52193 0.15354 0.68508 0.0
H283 H 0.52232 0.21482 0.70944 0.0
H284 H 0.60059 0.28683 0.6513 0.0
C285 C 0.5753 0.40054 0.74764 0.0
C286 C 0.53053 0.31491 0.67337 0.0
C287 C 0.57494 0.43573 0.7628 0.0
C288 C 0.5368 0.17144 0.65591 0.0
C289 C 0.5369 0.20671 0.6696 0.0
C290 C 0.58082 0.2942 0.65654 0.0
C291 C 0.55517 0.37782 0.69777 0.0
C292 C 0.55549 0.34027 0.68115 0.0
C293 C 0.55588 0.23119 0.6338 0.0
C294 C 0.55583 0.26885 0.64899 0.0
H295 H 0.51822 0.43571 0.65113 0.0
H296 H 0.51906 0.3748 0.62416 0.0
H297 H 0.60027 0.34818 0.67708 0.0
H298 H 0.58964 0.17571 0.53153 0.0
H299 H 0.58952 0.23731 0.55446 0.0
C300 C 0.07552 0.51465 0.81143 0.0
C301 C 0.06355 0.53526 0.86516 0.0
C302 C 0.08797 0.5285 0.74763 0.0
C303 C 0.08265 0.59793 0.63348 0.0
H304 H 0.13706 0.56113 0.51236 0.0
C305 C 0.08818 0.61722 0.32476 0.0
C306 C 0.08299 0.58514 0.27886 0.0
C307 C 0.09845 0.62006 0.39955 0.0
C308 C 0.12221 0.57206 0.54633 0.0
H309 H 0.05599 0.58654 0.89676 0.0
H310 H 0.07953 0.61133 0.78996 0.0
H311 H 0.13101 0.54928 0.64547 0.0
H312 H 0.08634 0.53163 0.27154 0.0
H313 H 0.10262 0.53597 0.40452 0.0
H314 H 0.07283 0.61934 0.53469 0.0
C315 C 0.07839 0.5842 0.79441 0.0
C316 C 0.11858 0.5651 0.62203 0.0
C317 C 0.06499 0.57002 0.85593 0.0
C318 C 0.08973 0.55643 0.30685 0.0
C319 C 0.09957 0.55913 0.38225 0.0
C320 C 0.08651 0.60519 0.55878 0.0
C321 C 0.08917 0.56337 0.73806 0.0
C322 C 0.09782 0.57665 0.66503 0.0
C323 C 0.10304 0.5907 0.42994 0.0
C324 C 0.10533 0.59098 0.5134 0.0
H325 H 0.07482 0.48779 0.81799 0.0
H326 H 0.09566 0.51154 0.70463 0.0
H327 H 0.0661 0.60681 0.66393 0.0
H328 H 0.08389 0.64 0.30341 0.0
H329 H 0.1013 0.64477 0.43504 0.0
C330 C 0.52178 1.04267 0.31209 0.0
C331 C 0.53287 1.02423 0.36242 0.0
C332 C 0.5193 1.03113 0.23429 0.0
C333 C 0.50865 1.00076 0.07345 0.0
H334 H 0.57279 0.97124 -0.01082 0.0
C335 C 0.54408 1.03912 0.78431 0.0
C336 C 0.57257 0.0455 0.772 0.0
C337 C 0.53302 1.02059 0.84323 0.0
C338 C 0.55498 0.98018 0.01165 0.0
H339 H 0.54888 0.97855 0.37351 0.0
H340 H 0.5435 0.95732 0.23705 0.0
H341 H 0.56418 0.96931 0.12348 0.0
H342 H 0.61231 1.03944 0.81323 0.0
H343 H 0.59402 1.0123 0.9237 0.0
H344 H 0.50146 1.01664 0.96645 0.0
C345 C 0.53754 0.98131 0.25691 0.0
C346 C 0.54956 0.97809 0.0888 0.0
C347 C 0.54072 0.99345 0.33481 0.0
C348 C 0.59017 1.03467 0.82178 0.0
C349 C 0.57938 1.01815 0.8841 0.0
C350 C 0.51485 1.0046 -0.00235 0.0
C351 C 0.52714 1.0003 0.20552 0.0
C352 C 0.5275 0.99093 0.12164 0.0
C353 C 0.55052 1.01063 0.89576 0.0
C354 C 0.53934 0.99679 0.96718 0.0
H355 H 0.51561 0.06648 0.33272 0.0
H356 H 0.51212 0.04725 0.1967 0.0
H357 H 0.49047 1.00885 0.09601 0.0
H358 H 0.53012 0.0476 0.74699 0.0
H359 H 0.51072 1.01463 0.84725 0.0
C360 C 0.57439 0.51359 0.49602 0.0
C361 C 0.55863 0.52584 0.55417 0.0
C362 C 0.56231 0.50213 0.42297 0.0
C363 C 0.51235 0.53122 0.31565 0.0
H364 H 0.53899 0.47722 0.14688 0.0
C365 C 0.50977 0.56454 0.00684 0.0
C366 C 0.53416 0.5632 0.96743 0.0
C367 C 0.50553 0.5509 0.07626 0.0
C368 C 0.53128 0.49232 0.19361 0.0
H369 H 0.51741 0.53091 0.58651 0.0
H370 H 0.49609 0.50972 0.46023 0.0
H371 H 0.54221 0.46194 0.27681 0.0
H372 H 0.57384 0.54869 0.97075 0.0
H373 H 0.56718 0.5267 0.09419 0.0
H374 H 0.50343 0.56322 0.23433 0.0
C375 C 0.51784 0.51006 0.46964 0.0
C376 C 0.53292 0.48339 0.26754 0.0
C377 C 0.53007 0.5224 0.54169 0.0
C378 C 0.55491 0.55004 0.00036 0.0
C379 C 0.55081 0.53677 0.07004 0.0
C380 C 0.51088 0.54022 0.2421 0.0
C381 C 0.53431 0.50238 0.40838 0.0
C382 C 0.52477 0.5039 0.32959 0.0
C383 C 0.52577 0.53619 0.10752 0.0
C384 C 0.52166 0.52196 0.18118 0.0
H385 H 0.59641 0.51557 0.50524 0.0
H386 H 0.57557 0.49641 0.37676 0.0
H387 H 0.50619 0.54789 0.36228 0.0
H388 H 0.49331 0.57425 -0.01789 0.0
H389 H 0.48609 0.55093 0.10423 0.0
loop_
_geom_bond_atom_site_label_1
_geom_bond_atom_site_label_2
_geom_bond_distance
_geom_bond_site_symmetry_2
_ccdc_geom_bond_type
Nd0 C2 2.836 . S
Nd0 O20 2.500 . S
Nd0 O21 2.492 . S
Nd0 O22 2.487 . S
Nd0 O23 2.682 . S
Nd0 O24 2.410 . S
Nd0 O29 2.414 . S
Nd0 O31 2.424 1_455 S
Nd1 C11 2.836 1_455 S
Nd1 O23 2.414 . S
Nd1 O25 2.424 . S
Nd1 O26 2.500 1_455 S
Nd1 O27 2.492 1_455 S
Nd1 O28 2.487 1_554 S
Nd1 O29 2.682 . S
Nd1 O30 2.410 1_455 S
C2 Nd0 2.836 . S
C2 C3 1.498 . S
C2 O20 1.258 . S
C2 O21 1.239 . S
C3 C2 1.498 . S
C3 C4 1.366 . S
C3 C8 1.407 . S
C4 C3 1.366 . S
C4 C5 1.392 . S
C4 H32 0.930 . S
C5 C4 1.392 . S
C5 C6 1.398 . S
C5 H33 0.929 . S
C6 C5 1.398 . S
C6 C7 1.352 . S
C7 C6 1.352 . S
C7 C8 1.384 . S
C7 H34 0.930 . S
C8 C3 1.407 . S
C8 C7 1.384 . S
C8 H35 0.929 . S
C9 O22 1.241 . S
C9 O23 1.273 . S
C10 O24 1.251 . S
C10 O25 1.268 . S
C11 Nd1 2.836 1_655 S
C11 C12 1.498 . S
C11 O26 1.258 . S
C11 O27 1.239 . S
C12 C11 1.498 . S
C12 C13 1.366 . S
C12 C17 1.407 . S
C13 C12 1.366 . S
C13 C14 1.392 . S
C13 H36 0.930 . S
C14 C13 1.392 . S
C14 C15 1.398 . S
C14 H37 0.929 . S
C15 C14 1.398 . S
C15 C16 1.352 . S
C16 C15 1.352 . S
C16 C17 1.384 . S
C16 H38 0.930 . S
C17 C12 1.407 . S
C17 C16 1.384 . S
C17 H39 0.929 . S
C18 O28 1.241 . S
C18 O29 1.273 1_556 S
C19 O30 1.251 . S
C19 O31 1.268 . S
O20 Nd0 2.500 . S
O20 C2 1.258 . S
O21 Nd0 2.492 . S
O21 C2 1.239 . S
O22 Nd0 2.487 . S
O22 C9 1.241 . S
O23 Nd0 2.682 . S
O23 Nd1 2.414 . S
O23 C9 1.273 . S
O24 Nd0 2.410 . S
O24 C10 1.251 . S
O25 Nd1 2.424 . S
O25 C10 1.268 . S
O26 Nd1 2.500 1_655 S
O26 C11 1.258 . S
O27 Nd1 2.492 1_655 S
O27 C11 1.239 . S
O28 Nd1 2.487 1_556 S
O28 C18 1.241 . S
O29 Nd0 2.414 . S
O29 Nd1 2.682 . S
O29 C18 1.273 1_554 S
O30 Nd1 2.410 1_655 S
O30 C19 1.251 . S
O31 Nd0 2.424 1_655 S
O31 C19 1.268 . S
H32 C4 0.930 . S
H33 C5 0.929 . S
H34 C7 0.930 . S
H35 C8 0.929 . S
H36 C13 0.930 . S
H37 C14 0.929 . S
H38 C16 0.930 . S
H39 C17 0.929 . S
Nd40 C42 2.836 . S
Nd40 O60 2.500 . S
Nd40 O61 2.492 . S
Nd40 O62 2.487 . S
Nd40 O63 2.682 1_565 S
Nd40 O64 2.410 . S
Nd40 O69 2.414 1_565 S
Nd40 O71 2.424 1_565 S
Nd41 C51 2.836 . S
Nd41 O63 2.414 . S
Nd41 O65 2.424 1_545 S
Nd41 O66 2.500 . S
Nd41 O67 2.492 . S
Nd41 O68 2.487 . S
Nd41 O69 2.682 . S
Nd41 O70 2.410 . S
C42 Nd40 2.836 . S
C42 C43 1.498 . S
C42 O60 1.258 . S
C42 O61 1.239 . S
C43 C42 1.498 . S
C43 C44 1.366 . S
C43 C48 1.407 . S
C44 C43 1.366 . S
C44 C45 1.392 . S
C44 H72 0.930 . S
C45 C44 1.392 . S
C45 C46 1.398 . S
C45 H73 0.929 . S
C46 C45 1.398 . S
C46 C47 1.352 . S
C47 C46 1.352 . S
C47 C48 1.384 . S
C47 H74 0.930 . S
C48 C43 1.407 . S
C48 C47 1.384 . S
C48 H75 0.929 . S
C49 O62 1.241 1_545 S
C49 O63 1.273 . S
C50 O64 1.251 . S
C50 O65 1.268 . S
C51 Nd41 2.836 . S
C51 C52 1.498 . S
C51 O66 1.258 . S
C51 O67 1.239 . S
C52 C51 1.498 . S
C52 C53 1.366 . S
C52 C57 1.407 . S
C53 C52 1.366 . S
C53 C54 1.392 . S
C53 H76 0.930 . S
C54 C53 1.392 . S
C54 C55 1.398 . S
C54 H77 0.929 . S
C55 C54 1.398 . S
C55 C56 1.352 . S
C56 C55 1.352 . S
C56 C57 1.384 . S
C56 H78 0.930 . S
C57 C52 1.407 . S
C57 C56 1.384 . S
C57 H79 0.929 . S
C58 O68 1.241 . S
C58 O69 1.273 . S
C59 O70 1.251 . S
C59 O71 1.268 . S
O60 Nd40 2.500 . S
O60 C42 1.258 . S
O61 Nd40 2.492 . S
O61 C42 1.239 . S
O62 Nd40 2.487 . S
O62 C49 1.241 1_565 S
O63 Nd40 2.682 1_545 S
O63 Nd41 2.414 . S
O63 C49 1.273 . S
O64 Nd40 2.410 . S
O64 C50 1.251 . S
O65 Nd41 2.424 1_565 S
O65 C50 1.268 . S
O66 Nd41 2.500 . S
O66 C51 1.258 . S
O67 Nd41 2.492 . S
O67 C51 1.239 . S
O68 Nd41 2.487 . S
O68 C58 1.241 . S
O69 Nd40 2.414 1_545 S
O69 Nd41 2.682 . S
O69 C58 1.273 . S
O70 Nd41 2.410 . S
O70 C59 1.251 . S
O71 Nd40 2.424 1_545 S
O71 C59 1.268 . S
H72 C44 0.930 . S
H73 C45 0.929 . S
H74 C47 0.930 . S
H75 C48 0.929 . S
H76 C53 0.930 . S
H77 C54 0.929 . S
H78 C56 0.930 . S
H79 C57 0.929 . S
Nd80 C82 2.836 . S
Nd80 O100 2.500 . S
Nd80 O101 2.492 . S
Nd80 O102 2.487 . S
Nd80 O103 2.682 . S
Nd80 O104 2.410 . S
Nd80 O109 2.414 . S
Nd80 O111 2.424 . S
Nd81 C91 2.836 . S
Nd81 O103 2.414 . S
Nd81 O105 2.424 . S
Nd81 O106 2.500 . S
Nd81 O107 2.492 . S
Nd81 O108 2.487 . S
Nd81 O109 2.682 . S
Nd81 O110 2.410 . S
C82 Nd80 2.836 . S
C82 C83 1.498 . S
C82 O100 1.258 . S
C82 O101 1.239 . S
C83 C82 1.498 . S
C83 C84 1.366 . S
C83 C88 1.407 . S
C84 C83 1.366 . S
C84 C85 1.392 . S
C84 H112 0.930 . S
C85 C84 1.392 . S
C85 C86 1.398 . S
C85 H113 0.929 . S
C86 C85 1.398 . S
C86 C87 1.352 . S
C87 C86 1.352 . S
C87 C88 1.384 . S
C87 H114 0.930 . S
C88 C83 1.407 . S
C88 C87 1.384 . S
C88 H115 0.929 . S
C89 O102 1.241 . S
C89 O103 1.273 . S
C90 O104 1.251 . S
C90 O105 1.268 . S
C91 Nd81 2.836 . S
C91 C92 1.498 . S
C91 O106 1.258 . S
C91 O107 1.239 . S
C92 C91 1.498 . S
C92 C93 1.366 . S
C92 C97 1.407 . S
C93 C92 1.366 . S
C93 C94 1.392 . S
C93 H116 0.930 . S
C94 C93 1.392 . S
C94 C95 1.398 . S
C94 H117 0.929 . S
C95 C94 1.398 . S
C95 C96 1.352 . S
C96 C95 1.352 . S
C96 C97 1.384 . S
C96 H118 0.930 . S
C97 C92 1.407 . S
C97 C96 1.384 . S
C97 H119 0.929 . S
C98 O108 1.241 . S
C98 O109 1.273 . S
C99 O110 1.251 . S
C99 O111 1.268 . S
O100 Nd80 2.500 . S
O100 C82 1.258 . S
O101 Nd80 2.492 . S
O101 C82 1.239 . S
O102 Nd80 2.487 . S
O102 C89 1.241 . S
O103 Nd80 2.682 . S
O103 Nd81 2.414 . S
O103 C89 1.273 . S
O104 Nd80 2.410 . S
O104 C90 1.251 . S
O105 Nd81 2.424 . S
O105 C90 1.268 . S
O106 Nd81 2.500 . S
O106 C91 1.258 . S
O107 Nd81 2.492 . S
O107 C91 1.239 . S
O108 Nd81 2.487 . S
O108 C98 1.241 . S
O109 Nd80 2.414 . S
O109 Nd81 2.682 . S
O109 C98 1.273 . S
O110 Nd81 2.410 . S
O110 C99 1.251 . S
O111 Nd80 2.424 . S
O111 C99 1.268 . S
H112 C84 0.930 . S
H113 C85 0.929 . S
H114 C87 0.930 . S
H115 C88 0.929 . S
H116 C93 0.930 . S
H117 C94 0.929 . S
H118 C96 0.930 . S
H119 C97 0.929 . S
C120 C121 1.349 . S
C120 C122 1.327 1_554 S
C120 H145 0.950 1_554 S
C121 C120 1.349 . S
C121 C137 1.349 . S
C122 C120 1.327 1_556 S
C122 C141 1.429 1_556 S
C122 H146 0.950 . S
C123 C140 1.574 . S
C123 C142 1.368 1_554 S
C123 H147 0.949 . S
H124 C128 0.949 . S
C125 C126 1.349 . S
C125 C127 1.327 . S
C125 H148 0.950 . S
C126 C125 1.349 . S
C126 C138 1.349 . S
C127 C125 1.327 . S
C127 C143 1.429 . S
C127 H149 0.950 1_556 S
C128 H124 0.949 . S
C128 C136 1.574 . S
C128 C144 1.368 . S
H129 C137 0.950 . S
H130 C135 0.950 . S
H131 C136 0.949 . S
H132 C138 0.950 . S
H133 C139 0.950 . S
H134 C140 0.949 . S
C135 H130 0.950 . S
C135 C137 1.327 . S
C135 C141 1.429 . S
C136 C128 1.574 . S
C136 H131 0.949 . S
C136 C142 1.368 . S
C137 C121 1.349 . S
C137 H129 0.950 . S
C137 C135 1.327 . S
C138 C126 1.349 . S
C138 H132 0.950 . S
C138 C139 1.327 . S
C139 H133 0.950 . S
C139 C138 1.327 . S
C139 C143 1.429 . S
C140 C123 1.574 . S
C140 H134 0.949 . S
C140 C144 1.368 1_554 S
C141 C122 1.429 1_554 S
C141 C135 1.429 . S
C141 C142 1.523 1_554 S
C142 C123 1.368 1_556 S
C142 C136 1.368 . S
C142 C141 1.523 1_556 S
C143 C127 1.429 . S
C143 C139 1.429 . S
C143 C144 1.523 . S
C144 C128 1.368 . S
C144 C140 1.368 1_556 S
C144 C143 1.523 . S
H145 C120 0.950 1_556 S
H146 C122 0.950 . S
H147 C123 0.949 . S
H148 C125 0.950 . S
H149 C127 0.950 1_554 S
C150 C151 1.349 . S
C150 C152 1.327 . S
C150 H175 0.950 . S
C151 C150 1.349 . S
C151 C167 1.349 . S
C152 C150 1.327 . S
C152 C171 1.429 . S
C152 H176 0.950 . S
C153 C170 1.574 . S
C153 C172 1.368 . S
C153 H177 0.949 . S
H154 C158 0.949 . S
C155 C156 1.349 . S
C155 C157 1.327 . S
C155 H178 0.950 . S
C156 C155 1.349 . S
C156 C168 1.349 . S
C157 C155 1.327 . S
C157 C173 1.429 . S
C157 H179 0.950 . S
C158 H154 0.949 . S
C158 C166 1.574 . S
C158 C174 1.368 . S
H159 C167 0.950 . S
H160 C165 0.950 . S
H161 C166 0.949 . S
H162 C168 0.950 . S
H163 C169 0.950 . S
H164 C170 0.949 . S
C165 H160 0.950 . S
C165 C167 1.327 . S
C165 C171 1.429 . S
C166 C158 1.574 . S
C166 H161 0.949 . S
C166 C172 1.368 . S
C167 C151 1.349 . S
C167 H159 0.950 . S
C167 C165 1.327 . S
C168 C156 1.349 . S
C168 H162 0.950 . S
C168 C169 1.327 . S
C169 H163 0.950 . S
C169 C168 1.327 . S
C169 C173 1.429 . S
C170 C153 1.574 . S
C170 H164 0.949 . S
C170 C174 1.368 . S
C171 C152 1.429 . S
C171 C165 1.429 . S
C171 C172 1.523 . S
C172 C153 1.368 . S
C172 C166 1.368 . S
C172 C171 1.523 . S
C173 C157 1.429 . S
C173 C169 1.429 . S
C173 C174 1.523 . S
C174 C158 1.368 . S
C174 C170 1.368 . S
C174 C173 1.523 . S
H175 C150 0.950 . S
H176 C152 0.950 . S
H177 C153 0.949 . S
H178 C155 0.950 . S
H179 C157 0.950 . S
C180 C181 1.349 . S
C180 C182 1.327 . S
C180 H205 0.950 . S
C181 C180 1.349 . S
C181 C197 1.349 . S
C182 C180 1.327 . S
C182 C201 1.429 . S
C182 H206 0.950 . S
C183 C200 1.574 . S
C183 C202 1.368 . S
C183 H207 0.949 . S
H184 C188 0.949 . S
C185 C186 1.349 . S
C185 C187 1.327 . S
C185 H208 0.950 . S
C186 C185 1.349 . S
C186 C198 1.349 . S
C187 C185 1.327 . S
C187 C203 1.429 . S
C187 H209 0.950 . S
C188 H184 0.949 . S
C188 C196 1.574 . S
C188 C204 1.368 . S
H189 C197 0.950 . S
H190 C195 0.950 . S
H191 C196 0.949 . S
H192 C198 0.950 . S
H193 C199 0.950 . S
H194 C200 0.949 . S
C195 H190 0.950 . S
C195 C197 1.327 . S
C195 C201 1.429 . S
C196 C188 1.574 . S
C196 H191 0.949 . S
C196 C202 1.368 . S
C197 C181 1.349 . S
C197 H189 0.950 . S
C197 C195 1.327 . S
C198 C186 1.349 . S
C198 H192 0.950 . S
C198 C199 1.327 . S
C199 H193 0.950 . S
C199 C198 1.327 . S
C199 C203 1.429 . S
C200 C183 1.574 . S
C200 H194 0.949 . S
C200 C204 1.368 . S
C201 C182 1.429 . S
C201 C195 1.429 . S
C201 C202 1.523 . S
C202 C183 1.368 . S
C202 C196 1.368 . S
C202 C201 1.523 . S
C203 C187 1.429 . S
C203 C199 1.429 . S
C203 C204 1.523 . S
C204 C188 1.368 . S
C204 C200 1.368 . S
C204 C203 1.523 . S
H205 C180 0.950 . S
H206 C182 0.950 . S
H207 C183 0.949 . S
H208 C185 0.950 . S
H209 C187 0.950 . S
C210 C211 1.349 . S
C210 C212 1.327 . S
C210 H235 0.950 . S
C211 C210 1.349 . S
C211 C227 1.349 . S
C212 C210 1.327 . S
C212 C231 1.429 . S
C212 H236 0.950 . S
C213 C230 1.574 1_556 S
C213 C232 1.368 . S
C213 H237 0.949 . S
H214 C218 0.949 . S
C215 C216 1.349 . S
C215 C217 1.327 . S
C215 H238 0.950 . S
C216 C215 1.349 . S
C216 C228 1.349 . S
C217 C215 1.327 . S
C217 C233 1.429 . S
C217 H239 0.950 . S
C218 H214 0.949 . S
C218 C226 1.574 1_554 S
C218 C234 1.368 . S
H219 C227 0.950 . S
H220 C225 0.950 . S
H221 C226 0.949 . S
H222 C228 0.950 . S
H223 C229 0.950 . S
H224 C230 0.949 . S
C225 H220 0.950 . S
C225 C227 1.327 . S
C225 C231 1.429 . S
C226 C218 1.574 1_556 S
C226 H221 0.949 . S
C226 C232 1.368 . S
C227 C211 1.349 . S
C227 H219 0.950 . S
C227 C225 1.327 . S
C228 C216 1.349 . S
C228 H222 0.950 . S
C228 C229 1.327 . S
C229 H223 0.950 . S
C229 C228 1.327 . S
C229 C233 1.429 . S
C230 C213 1.574 1_554 S
C230 H224 0.949 . S
C230 C234 1.368 . S
C231 C212 1.429 . S
C231 C225 1.429 . S
C231 C232 1.523 . S
C232 C213 1.368 . S
C232 C226 1.368 . S
C232 C231 1.523 . S
C233 C217 1.429 . S
C233 C229 1.429 . S
C233 C234 1.523 . S
C234 C218 1.368 . S
C234 C230 1.368 . S
C234 C233 1.523 . S
H235 C210 0.950 . S
H236 C212 0.950 . S
H237 C213 0.949 . S
H238 C215 0.950 . S
H239 C217 0.950 . S
C240 C241 1.349 . S
C240 C242 1.327 . S
C240 H265 0.950 . S
C241 C240 1.349 . S
C241 C257 1.349 . S
C242 C240 1.327 . S
C242 C261 1.429 . S
C242 H266 0.950 . S
C243 C260 1.574 . S
C243 C262 1.368 . S
C243 H267 0.949 . S
H244 C248 0.949 . S
C245 C246 1.349 . S
C245 C247 1.327 . S
C245 H268 0.950 . S
C246 C245 1.349 . S
C246 C258 1.349 . S
C247 C245 1.327 . S
C247 C263 1.429 . S
C247 H269 0.950 . S
C248 H244 0.949 . S
C248 C256 1.574 . S
C248 C264 1.368 . S
H249 C257 0.950 . S
H250 C255 0.950 . S
H251 C256 0.949 . S
H252 C258 0.950 . S
H253 C259 0.950 . S
H254 C260 0.949 . S
C255 H250 0.950 . S
C255 C257 1.327 . S
C255 C261 1.429 . S
C256 C248 1.574 . S
C256 H251 0.949 . S
C256 C262 1.368 . S
C257 C241 1.349 . S
C257 H249 0.950 . S
C257 C255 1.327 . S
C258 C246 1.349 . S
C258 H252 0.950 . S
C258 C259 1.327 . S
C259 H253 0.950 . S
C259 C258 1.327 . S
C259 C263 1.429 . S
C260 C243 1.574 . S
C260 H254 0.949 . S
C260 C264 1.368 . S
C261 C242 1.429 . S
C261 C255 1.429 . S
C261 C262 1.523 . S
C262 C243 1.368 . S
C262 C256 1.368 . S
C262 C261 1.523 . S
C263 C247 1.429 . S
C263 C259 1.429 . S
C263 C264 1.523 . S
C264 C248 1.368 . S
C264 C260 1.368 . S
C264 C263 1.523 . S
H265 C240 0.950 . S
H266 C242 0.950 . S
H267 C243 0.949 . S
H268 C245 0.950 . S
H269 C247 0.950 . S
C270 C271 1.349 . S
C270 C272 1.327 . S
C270 H295 0.950 . S
C271 C270 1.349 . S
C271 C287 1.349 . S
C272 C270 1.327 . S
C272 C291 1.429 . S
C272 H296 0.950 . S
C273 C290 1.574 . S
C273 C292 1.368 . S
C273 H297 0.949 . S
H274 C278 0.949 . S
C275 C276 1.349 . S
C275 C277 1.327 . S
C275 H298 0.950 . S
C276 C275 1.349 . S
C276 C288 1.349 . S
C277 C275 1.327 . S
C277 C293 1.429 . S
C277 H299 0.950 . S
C278 H274 0.949 . S
C278 C286 1.574 . S
C278 C294 1.368 . S
H279 C287 0.950 . S
H280 C285 0.950 . S
H281 C286 0.949 . S
H282 C288 0.950 . S
H283 C289 0.950 . S
H284 C290 0.949 . S
C285 H280 0.950 . S
C285 C287 1.327 . S
C285 C291 1.429 . S
C286 C278 1.574 . S
C286 H281 0.949 . S
C286 C292 1.368 . S
C287 C271 1.349 . S
C287 H279 0.950 . S
C287 C285 1.327 . S
C288 C276 1.349 . S
C288 H282 0.950 . S
C288 C289 1.327 . S
C289 H283 0.950 . S
C289 C288 1.327 . S
C289 C293 1.429 . S
C290 C273 1.574 . S
C290 H284 0.949 . S
C290 C294 1.368 . S
C291 C272 1.429 . S
C291 C285 1.429 . S
C291 C292 1.523 . S
C292 C273 1.368 . S
C292 C286 1.368 . S
C292 C291 1.523 . S
C293 C277 1.429 . S
C293 C289 1.429 . S
C293 C294 1.523 . S
C294 C278 1.368 . S
C294 C290 1.368 . S
C294 C293 1.523 . S
H295 C270 0.950 . S
H296 C272 0.950 . S
H297 C273 0.949 . S
H298 C275 0.950 . S
H299 C277 0.950 . S
C300 C301 1.349 . S
C300 C302 1.327 . S
C300 H325 0.950 . S
C301 C300 1.349 . S
C301 C317 1.349 . S
C302 C300 1.327 . S
C302 C321 1.429 . S
C302 H326 0.950 . S
C303 C320 1.573 1_455 S
C303 C322 1.381 . S
C303 H327 0.938 1_455 S
H304 C308 0.949 . S
C305 C306 1.349 1_655 S
C305 C307 1.327 . S
C305 H328 0.950 . S
C306 C305 1.349 1_455 S
C306 C318 1.349 . S
C307 C305 1.327 . S
C307 C323 1.429 1_655 S
C307 H329 0.950 . S
C308 H304 0.949 . S
C308 C316 1.574 . S
C308 C324 1.368 . S
H309 C317 0.950 1_655 S
H310 C315 0.950 1_655 S
H311 C316 0.949 . S
H312 C318 0.950 . S
H313 C319 0.950 . S
H314 C320 0.960 . S
C315 H310 0.950 1_455 S
C315 C317 1.327 . S
C315 C321 1.429 . S
C316 C308 1.574 . S
C316 H311 0.949 . S
C316 C322 1.368 . S
C317 C301 1.349 . S
C317 H309 0.950 1_455 S
C317 C315 1.327 . S
C318 C306 1.349 . S
C318 H312 0.950 . S
C318 C319 1.327 . S
C319 H313 0.950 . S
C319 C318 1.327 . S
C319 C323 1.429 . S
C320 C303 1.573 1_655 S
C320 H314 0.960 . S
C320 C324 1.357 1_655 S
C321 C302 1.429 . S
C321 C315 1.429 . S
C321 C322 1.523 . S
C322 C303 1.381 . S
C322 C316 1.368 . S
C322 C321 1.523 . S
C323 C307 1.429 1_455 S
C323 C319 1.429 . S
C323 C324 1.523 . S
C324 C308 1.368 . S
C324 C320 1.357 1_455 S
C324 C323 1.523 . S
H325 C300 0.950 . S
H326 C302 0.950 . S
H327 C303 0.938 1_655 S
H328 C305 0.950 . S
H329 C307 0.950 . S
C330 C331 1.349 . S
C330 C332 1.327 . S
C330 H355 0.950 . S
C331 C330 1.349 . S
C331 C347 1.349 1_545 S
C332 C330 1.327 . S
C332 C351 1.429 . S
C332 H356 0.950 . S
C333 C350 1.574 1_554 S
C333 C352 1.368 1_565 S
C333 H357 0.949 . S
H334 C338 0.949 . S
C335 C336 1.349 1_565 S
C335 C337 1.327 . S
C335 H358 0.950 . S
C336 C335 1.349 1_545 S
C336 C348 1.349 . S
C337 C335 1.327 . S
C337 C353 1.429 1_565 S
C337 H359 0.950 . S
C338 H334 0.949 . S
C338 C346 1.574 1_556 S
C338 C354 1.368 . S
H339 C347 0.950 . S
H340 C345 0.950 . S
H341 C346 0.949 . S
H342 C348 0.950 . S
H343 C349 0.950 . S
H344 C350 0.949 . S
C345 H340 0.950 . S
C345 C347 1.327 . S
C345 C351 1.429 1_565 S
C346 C338 1.574 1_554 S
C346 H341 0.949 . S
C346 C352 1.368 . S
C347 C331 1.349 1_565 S
C347 H339 0.950 . S
C347 C345 1.327 . S
C348 C336 1.349 . S
C348 H342 0.950 . S
C348 C349 1.327 . S
C349 H343 0.950 . S
C349 C348 1.327 . S
C349 C353 1.429 . S
C350 C333 1.574 1_556 S
C350 H344 0.949 . S
C350 C354 1.368 1_565 S
C351 C332 1.429 . S
C351 C345 1.429 1_545 S
C351 C352 1.523 . S
C352 C333 1.368 1_545 S
C352 C346 1.368 . S
C352 C351 1.523 . S
C353 C337 1.429 1_545 S
C353 C349 1.429 . S
C353 C354 1.523 . S
C354 C338 1.368 . S
C354 C350 1.368 1_545 S
C354 C353 1.523 . S
H355 C330 0.950 . S
H356 C332 0.950 . S
H357 C333 0.949 . S
H358 C335 0.950 . S
H359 C337 0.950 . S
C360 C361 1.349 . S
C360 C362 1.327 . S
C360 H385 0.950 . S
C361 C360 1.349 . S
C361 C377 1.349 . S
C362 C360 1.327 . S
C362 C381 1.429 . S
C362 H386 0.950 . S
C363 C380 1.574 . S
C363 C382 1.368 . S
C363 H387 0.949 . S
H364 C368 0.949 . S
C365 C366 1.349 1_554 S
C365 C367 1.327 . S
C365 H388 0.950 . S
C366 C365 1.349 1_556 S
C366 C378 1.349 1_556 S
C367 C365 1.327 . S
C367 C383 1.429 . S
C367 H389 0.950 . S
C368 H364 0.949 . S
C368 C376 1.574 . S
C368 C384 1.368 . S
H369 C377 0.950 . S
H370 C375 0.950 . S
H371 C376 0.949 . S
H372 C378 0.950 1_556 S
H373 C379 0.950 . S
H374 C380 0.949 . S
C375 H370 0.950 . S
C375 C377 1.327 . S
C375 C381 1.429 . S
C376 C368 1.574 . S
C376 H371 0.949 . S
C376 C382 1.368 . S
C377 C361 1.349 . S
C377 H369 0.950 . S
C377 C375 1.327 . S
C378 C366 1.349 1_554 S
C378 H372 0.950 1_554 S
C378 C379 1.327 . S
C379 H373 0.950 . S
C379 C378 1.327 . S
C379 C383 1.429 . S
C380 C363 1.574 . S
C380 H374 0.949 . S
C380 C384 1.368 . S
C381 C362 1.429 . S
C381 C375 1.429 . S
C381 C382 1.523 . S
C382 C363 1.368 . S
C382 C376 1.368 . S
C382 C381 1.523 . S
C383 C367 1.429 . S
C383 C379 1.429 . S
C383 C384 1.523 . S
C384 C368 1.368 . S
C384 C380 1.368 . S
C384 C383 1.523 . S
H385 C360 0.950 . S
H386 C362 0.950 . S
H387 C363 0.949 . S
H388 C365 0.950 . S
H389 C367 0.950 . S
C121 C10 2.543 . S
C126 C86 2.429 . S
C151 C55 1.694 . S
C156 C15 1.698 . S
C181 C50 3.108 . S
C186 C90 3.072 . S
C211 C95 2.228 . S
C216 C19 2.199 . S
C241 C46 1.402 . S
C246 C6 1.413 . S
C271 C99 2.701 . S
C276 C59 2.724 . S
C301 C18 0.380 . S
C306 C9 0.380 . S
C331 C49 0.378 . S
C336 C58 0.378 . S
C361 C98 0.415 . S
C366 C89 0.415 . S
