# Generated by pormake.
# Topology uoq, (4)-cn, num edge types: 1
# Building blocks:
#     Node 0, Type 0, BuildingBlock: QUQFOY_clean_sbu_3, # of connection points: 4
#     Node 1, Type 0, BuildingBlock: QUQFOY_clean_sbu_3, # of connection points: 4
#     Node 2, Type 0, BuildingBlock: QUQFOY_clean_sbu_3, # of connection points: 4
#     Node 3, Type 0, BuildingBlock: QUQFOY_clean_sbu_3, # of connection points: 4
#     Node 4, Type 0, BuildingBlock: QUQFOY_clean_sbu_3, # of connection points: 4
#     Node 5, Type 0, BuildingBlock: QUQFOY_clean_sbu_3, # of connection points: 4
#     Node 6, Type 0, BuildingBlock: QUQFOY_clean_sbu_3, # of connection points: 4
#     Node 7, Type 0, BuildingBlock: QUQFOY_clean_sbu_3, # of connection points: 4
#     Node 8, Type 0, BuildingBlock: QUQFOY_clean_sbu_3, # of connection points: 4
#     Node 9, Type 0, BuildingBlock: QUQFOY_clean_sbu_3, # of connection points: 4
#     Node 10, Type 0, BuildingBlock: QUQFOY_clean_sbu_3, # of connection points: 4
#     Node 11, Type 0, BuildingBlock: QUQFOY_clean_sbu_3, # of connection points: 4
#     Edge 12, Type (0, 0), BuildingBlock: ZUJKAS_clean_linker_0, # of connection points: 2
#     Edge 13, Type (0, 0), BuildingBlock: ZUJKAS_clean_linker_0, # of connection points: 2
#     Edge 14, Type (0, 0), BuildingBlock: ZUJKAS_clean_linker_0, # of connection points: 2
#     Edge 15, Type (0, 0), BuildingBlock: ZUJKAS_clean_linker_0, # of connection points: 2
#     Edge 16, Type (0, 0), BuildingBlock: ZUJKAS_clean_linker_0, # of connection points: 2
#     Edge 17, Type (0, 0), BuildingBlock: ZUJKAS_clean_linker_0, # of connection points: 2
#     Edge 18, Type (0, 0), BuildingBlock: ZUJKAS_clean_linker_0, # of connection points: 2
#     Edge 19, Type (0, 0), BuildingBlock: ZUJKAS_clean_linker_0, # of connection points: 2
#     Edge 20, Type (0, 0), BuildingBlock: ZUJKAS_clean_linker_0, # of connection points: 2
#     Edge 21, Type (0, 0), BuildingBlock: ZUJKAS_clean_linker_0, # of connection points: 2
#     Edge 22, Type (0, 0), BuildingBlock: ZUJKAS_clean_linker_0, # of connection points: 2
#     Edge 23, Type (0, 0), BuildingBlock: ZUJKAS_clean_linker_0, # of connection points: 2
#     Edge 24, Type (0, 0), BuildingBlock: ZUJKAS_clean_linker_0, # of connection points: 2
#     Edge 25, Type (0, 0), BuildingBlock: ZUJKAS_clean_linker_0, # of connection points: 2
#     Edge 26, Type (0, 0), BuildingBlock: ZUJKAS_clean_linker_0, # of connection points: 2
#     Edge 27, Type (0, 0), BuildingBlock: ZUJKAS_clean_linker_0, # of connection points: 2
#     Edge 28, Type (0, 0), BuildingBlock: ZUJKAS_clean_linker_0, # of connection points: 2
#     Edge 29, Type (0, 0), BuildingBlock: ZUJKAS_clean_linker_0, # of connection points: 2
#     Edge 30, Type (0, 0), BuildingBlock: ZUJKAS_clean_linker_0, # of connection points: 2
#     Edge 31, Type (0, 0), BuildingBlock: ZUJKAS_clean_linker_0, # of connection points: 2
#     Edge 32, Type (0, 0), BuildingBlock: ZUJKAS_clean_linker_0, # of connection points: 2
#     Edge 33, Type (0, 0), BuildingBlock: ZUJKAS_clean_linker_0, # of connection points: 2
#     Edge 34, Type (0, 0), BuildingBlock: ZUJKAS_clean_linker_0, # of connection points: 2
#     Edge 35, Type (0, 0), BuildingBlock: ZUJKAS_clean_linker_0, # of connection points: 2
# Relax obj value: 0.160
# Max RMSD: 0.152
# Mean RMSD: 0.152
data_MOF--net-uoq--node1-QUQFOY_clean_sbu_3--edge1-ZUJKAS_clean_linker_0
_symmetry_space_group_name_H-M    P1
_symmetry_Int_Tables_number       1
_symmetry_cell_setting            triclinic
loop_
_symmetry_equiv_pos_as_xyz
'x, y, z'
_cell_length_a     77.869962
_cell_length_b     77.882738
_cell_length_c     29.962567
_cell_angle_alpha  89.981493
_cell_angle_beta   90.014558
_cell_angle_gamma 119.99307
loop_
_atom_site_label
_atom_site_type_symbol
_atom_site_fract_x
_atom_site_fract_y
_atom_site_fract_z
_atom_type_partial_charge
C0 C 0.30007 0.40513 0.31075 0.0
O1 O 0.2972 0.411 0.34804 0.0
Cd2 Cd 0.29497 0.44002 0.35896 0.0
O3 O 0.30055 0.41413 0.27473 0.0
Cd4 Cd 0.29566 0.44242 0.25232 0.0
C5 C 0.33812 0.47398 0.30432 0.0
O6 O 0.27151 0.4391 0.30736 0.0
O7 O 0.28805 0.46791 0.27675 0.0
O8 O 0.27119 0.42187 0.19709 0.0
C9 C 0.27398 0.45634 0.30216 0.0
O10 O 0.32788 0.46717 0.33982 0.0
C11 C 0.27823 0.43436 0.16549 0.0
O12 O 0.33063 0.46691 0.26615 0.0
O13 O 0.29447 0.45024 0.17313 0.0
C14 C 0.88825 0.29873 0.6512 0.0
O15 O 0.8801 0.29619 0.68916 0.0
Cd16 Cd 0.84984 0.29552 0.70361 0.0
O17 O 0.87939 0.29931 0.61581 0.0
Cd18 Cd 0.84589 0.29428 0.59525 0.0
C19 C 0.85875 0.33786 0.64483 0.0
O20 O 0.82644 0.27206 0.654 0.0
O21 O 0.81291 0.28697 0.62178 0.0
O22 O 0.84061 0.26876 0.54157 0.0
C23 C 0.81156 0.27441 0.65051 0.0
O24 O 0.85621 0.32837 0.6812 0.0
C25 C 0.83514 0.27567 0.50974 0.0
O26 O 0.85697 0.32949 0.60713 0.0
O27 O 0.83598 0.2922 0.51657 0.0
C28 C 0.58642 0.89327 0.9811 0.0
O29 O 0.57989 0.88483 0.01847 0.0
Cd30 Cd 0.55068 0.85373 0.029 0.0
O31 O 0.57792 0.88455 0.94483 0.0
Cd32 Cd 0.54952 0.85133 0.92283 0.0
C33 C 0.51743 0.86263 0.97071 0.0
O34 O 0.55249 0.83094 0.97962 0.0
O35 O 0.52384 0.81838 0.94814 0.0
O36 O 0.56988 0.84654 0.86844 0.0
C37 C 0.53535 0.81608 0.97418 0.0
O38 O 0.52364 0.8593 0.00724 0.0
C39 C 0.55745 0.84115 0.83672 0.0
O40 O 0.52509 0.86206 0.93349 0.0
O41 O 0.54177 0.84194 0.84389 0.0
C42 C 0.69433 0.59015 0.30979 0.0
O43 O 0.69813 0.58536 0.34743 0.0
Cd44 Cd 0.69684 0.55462 0.36094 0.0
O45 O 0.69223 0.57979 0.27506 0.0
Cd46 Cd 0.69683 0.55118 0.25452 0.0
C47 C 0.65331 0.522 0.30444 0.0
O48 O 0.71938 0.55249 0.31173 0.0
O49 O 0.70123 0.52393 0.281 0.0
O50 O 0.72273 0.57115 0.20153 0.0
C51 C 0.71515 0.53459 0.3077 0.0
O52 O 0.66319 0.52882 0.34043 0.0
C53 C 0.71564 0.55902 0.16929 0.0
O54 O 0.66149 0.52829 0.26644 0.0
O55 O 0.69885 0.54357 0.17558 0.0
C56 C 0.09394 0.68944 0.64625 0.0
O57 O 0.10075 0.69096 0.68544 0.0
Cd58 Cd 0.13145 0.69374 0.70568 0.0
O59 O 0.10425 0.69033 0.61223 0.0
Cd60 Cd 0.13862 0.69612 0.59844 0.0
C61 C 0.12682 0.6528 0.64876 0.0
O62 O 0.15524 0.71866 0.65908 0.0
O63 O 0.17122 0.7054 0.63107 0.0
O64 O 0.14438 0.72079 0.5416 0.0
C65 C 0.17089 0.71755 0.65865 0.0
O66 O 0.12812 0.66194 0.685 0.0
C67 C 0.15187 0.71438 0.51308 0.0
O68 O 0.12872 0.66117 0.61099 0.0
O69 O 0.15187 0.6985 0.52291 0.0
C70 C 0.40119 0.10169 0.97396 0.0
O71 O 0.40487 0.11039 0.01144 0.0
Cd72 Cd 0.43489 0.14021 0.02699 0.0
O73 O 0.41218 0.1101 0.94011 0.0
Cd74 Cd 0.44029 0.1438 0.92046 0.0
C75 C 0.46918 0.13029 0.97487 0.0
O76 O 0.43718 0.16435 0.97626 0.0
O77 O 0.46631 0.17619 0.9479 0.0
O78 O 0.42025 0.14856 0.8656 0.0
C79 C 0.45487 0.17857 0.97402 0.0
O80 O 0.46138 0.13297 0.00969 0.0
C81 C 0.43285 0.15418 0.8342 0.0
O82 O 0.46372 0.13227 0.93593 0.0
O83 O 0.44866 0.15363 0.84177 0.0
C84 C 0.59181 0.69413 0.35251 0.0
O85 O 0.58763 0.69776 0.31401 0.0
Cd86 Cd 0.55783 0.69767 0.29637 0.0
O87 O 0.58112 0.6925 0.38632 0.0
Cd88 Cd 0.5526 0.6979 0.40296 0.0
C89 C 0.52293 0.65479 0.3512 0.0
O90 O 0.55634 0.72081 0.34453 0.0
O91 O 0.5272 0.70481 0.37335 0.0
O92 O 0.57184 0.72315 0.45794 0.0
C93 C 0.53887 0.71798 0.34625 0.0
O94 O 0.53069 0.66453 0.31549 0.0
C95 C 0.55891 0.7161 0.48866 0.0
O96 O 0.52877 0.66287 0.38943 0.0
O97 O 0.54336 0.6996 0.48071 0.0
C98 C 0.88598 0.5884 0.65987 0.0
O99 O 0.87607 0.5814 0.62427 0.0
Cd100 Cd 0.84514 0.55149 0.61929 0.0
O101 O 0.87881 0.58027 0.69753 0.0
Cd102 Cd 0.84667 0.55218 0.72593 0.0
C103 C 0.85765 0.52031 0.67575 0.0
O104 O 0.82358 0.55286 0.67302 0.0
O105 O 0.81353 0.52502 0.70675 0.0
O106 O 0.84297 0.57306 0.7808 0.0
C107 C 0.80959 0.53543 0.68081 0.0
O108 O 0.85277 0.52566 0.63996 0.0
C109 C 0.83903 0.56127 0.81341 0.0
O110 O 0.85803 0.52839 0.71306 0.0
O111 O 0.8402 0.54579 0.80623 0.0
C112 C 0.29773 0.89359 0.03041 0.0
O113 O 0.29178 0.88428 0.99379 0.0
Cd114 Cd 0.29029 0.85352 0.9799 0.0
O115 O 0.3008 0.8856 0.06439 0.0
Cd116 Cd 0.29521 0.85201 0.08532 0.0
C117 C 0.33559 0.86319 0.02491 0.0
O118 O 0.26897 0.83099 0.03431 0.0
O119 O 0.28665 0.81888 0.05933 0.0
O120 O 0.27355 0.84956 0.14627 0.0
C121 C 0.2717 0.81629 0.03708 0.0
O122 O 0.32418 0.8599 0.99152 0.0
C123 C 0.28103 0.84318 0.17489 0.0
O124 O 0.32937 0.86243 0.06466 0.0
O125 O 0.29632 0.84244 0.16293 0.0
C126 C 0.40307 0.29944 0.33748 0.0
O127 O 0.40916 0.29613 0.30099 0.0
Cd128 Cd 0.43865 0.29465 0.2925 0.0
O129 O 0.41195 0.30052 0.3741 0.0
Cd130 Cd 0.44013 0.29578 0.39884 0.0
C131 C 0.4717 0.33823 0.34702 0.0
O132 O 0.43771 0.27158 0.34511 0.0
O133 O 0.46625 0.28854 0.37634 0.0
O134 O 0.41942 0.27133 0.45391 0.0
C135 C 0.45504 0.27438 0.35072 0.0
O136 O 0.46525 0.32788 0.31159 0.0
C137 C 0.43163 0.27866 0.48596 0.0
O138 O 0.46447 0.33077 0.3851 0.0
O139 O 0.44738 0.29506 0.47858 0.0
C140 C 0.09678 0.40079 0.6774 0.0
O141 O 0.10473 0.40631 0.63923 0.0
Cd142 Cd 0.13537 0.43545 0.62415 0.0
O143 O 0.10596 0.41014 0.71258 0.0
Cd144 Cd 0.13972 0.43841 0.73174 0.0
C145 C 0.12768 0.46975 0.68201 0.0
O146 O 0.15888 0.43501 0.67301 0.0
O147 O 0.17251 0.46372 0.70401 0.0
O148 O 0.14544 0.41868 0.78612 0.0
C149 C 0.17382 0.45223 0.67604 0.0
O150 O 0.13009 0.46273 0.64562 0.0
C151 C 0.15104 0.43133 0.8174 0.0
O152 O 0.12911 0.46287 0.71966 0.0
O153 O 0.15 0.44687 0.81 0.0
C154 C 0.69134 0.10123 0.00925 0.0
O155 O 0.69392 0.11047 0.97274 0.0
Cd156 Cd 0.69414 0.14086 0.96485 0.0
O157 O 0.69037 0.10895 0.0461 0.0
Cd158 Cd 0.69428 0.14153 0.07093 0.0
C159 C 0.65087 0.12919 0.02199 0.0
O160 O 0.71757 0.16361 0.01607 0.0
O161 O 0.70011 0.1744 0.04821 0.0
O162 O 0.71947 0.14627 0.12518 0.0
C163 C 0.71423 0.17776 0.02202 0.0
O164 O 0.66079 0.13331 0.98585 0.0
C165 C 0.71202 0.15086 0.1575 0.0
O166 O 0.65894 0.12974 0.05943 0.0
O167 O 0.69532 0.14963 0.15061 0.0
H168 H 0.30837 0.38884 0.23839 0.0
H169 H 0.31958 0.36455 0.2395 0.0
H170 H 0.31376 0.36071 0.38284 0.0
H171 H 0.30212 0.38442 0.38203 0.0
H172 H 0.35301 0.37105 0.27951 0.0
H173 H 0.29053 0.30316 0.35161 0.0
H174 H 0.28764 0.32328 0.33038 0.0
H175 H 0.29714 0.32446 0.3858 0.0
C176 C 0.30905 0.38249 0.27003 0.0
C177 C 0.30443 0.38867 0.31011 0.0
C178 C 0.31545 0.3686 0.27061 0.0
C179 C 0.31727 0.36061 0.31121 0.0
C180 C 0.312 0.36624 0.35102 0.0
H181 H 0.3896 0.3135 0.40508 0.0
H182 H 0.36629 0.32588 0.39815 0.0
C183 C 0.30551 0.38 0.35048 0.0
C184 C 0.32697 0.34839 0.31278 0.0
H185 H 0.32271 0.30572 0.35553 0.0
C186 C 0.34624 0.35662 0.29547 0.0
C187 C 0.31817 0.32961 0.3339 0.0
C188 C 0.29715 0.31953 0.35106 0.0
C189 C 0.35718 0.34691 0.29999 0.0
C190 C 0.34861 0.32846 0.32223 0.0
C191 C 0.32923 0.31997 0.33881 0.0
C192 C 0.35988 0.31805 0.32847 0.0
C193 C 0.37808 0.35665 0.28201 0.0
C194 C 0.36338 0.30903 0.29194 0.0
C195 C 0.37664 0.30199 0.2957 0.0
C196 C 0.38668 0.3039 0.33612 0.0
C197 C 0.38217 0.31186 0.37349 0.0
C198 C 0.36886 0.3189 0.36964 0.0
H199 H 0.38345 0.37213 0.27091 0.0
H200 H 0.38836 0.35675 0.30783 0.0
H201 H 0.3786 0.34803 0.25307 0.0
H202 H 0.3565 0.30821 0.25997 0.0
H203 H 0.3796 0.29578 0.26633 0.0
H204 H 0.90828 0.29096 0.71524 0.0
H205 H 0.94392 0.30337 0.71867 0.0
H206 H 0.95102 0.32888 0.58759 0.0
H207 H 0.91524 0.31646 0.58366 0.0
H208 H 0.97314 0.30074 0.65422 0.0
H209 H 0.98234 0.37557 0.68274 0.0
H210 H 0.95892 0.35306 0.6907 0.0
H211 H 0.9677 0.36184 0.63535 0.0
C212 C 0.91734 0.29887 0.6867 0.0
C213 C 0.90899 0.30296 0.64938 0.0
C214 C 0.93767 0.30586 0.68871 0.0
C215 C 0.95001 0.31716 0.6536 0.0
C216 C 0.94164 0.32022 0.61506 0.0
H217 H 0.0756 0.37381 0.61271 0.0
H218 H 0.03992 0.35095 0.61112 0.0
C219 C 0.92122 0.31308 0.61284 0.0
C220 C 0.97172 0.32756 0.65962 0.0
H221 H 0.01138 0.3734 0.67975 0.0
C222 C 0.98157 0.31662 0.65972 0.0
C223 C 0.98249 0.34819 0.66768 0.0
C224 C 0.9724 0.36043 0.66948 0.0
C225 C 0.00215 0.32596 0.66673 0.0
C226 C 0.01297 0.34668 0.67378 0.0
C227 C 0.003 0.3575 0.67449 0.0
C228 C 0.0348 0.35781 0.67803 0.0
C229 C 0.01215 0.31364 0.66689 0.0
C230 C 0.04379 0.36904 0.7165 0.0
C231 C 0.06425 0.38218 0.71757 0.0
C232 C 0.07595 0.3845 0.67985 0.0
C233 C 0.06699 0.37245 0.64226 0.0
C234 C 0.04661 0.35925 0.64136 0.0
H235 H 0.00136 0.29768 0.67236 0.0
H236 H 0.01943 0.31517 0.63414 0.0
H237 H 0.02374 0.31881 0.69318 0.0
H238 H 0.03485 0.36819 0.74503 0.0
H239 H 0.07069 0.39128 0.74695 0.0
H240 H 0.6038 0.91749 0.90862 0.0
H241 H 0.62848 0.9529 0.90965 0.0
H242 H 0.63067 0.95135 0.05337 0.0
H243 H 0.60659 0.91612 0.05267 0.0
H244 H 0.62188 0.98014 0.94731 0.0
H245 H 0.68858 0.98521 0.0254 0.0
H246 H 0.6686 0.96221 0.0038 0.0
H247 H 0.66687 0.97073 0.05861 0.0
C248 C 0.60988 0.9246 0.94035 0.0
C249 C 0.60312 0.91397 0.98055 0.0
C250 C 0.62399 0.94483 0.94089 0.0
C251 C 0.63162 0.95473 0.98156 0.0
C252 C 0.62542 0.94397 0.02153 0.0
H253 H 0.67774 0.07352 0.07646 0.0
H254 H 0.666 0.03799 0.06887 0.0
C255 C 0.61145 0.9238 0.02103 0.0
C256 C 0.64397 0.97664 0.98292 0.0
H257 H 0.68604 0.01491 0.02816 0.0
C258 C 0.63608 0.98774 0.96427 0.0
C259 C 0.66244 0.98655 0.00538 0.0
C260 C 0.6722 0.97554 0.02402 0.0
C261 C 0.64575 0.00839 0.96888 0.0
C262 C 0.66386 0.01819 0.99251 0.0
C263 C 0.67206 0.00725 0.01034 0.0
C264 C 0.67411 0.03985 -0.00072 0.0
C265 C 0.63626 0.01957 0.94965 0.0
C266 C 0.68315 0.05259 0.96307 0.0
C267 C 0.68981 0.07279 0.9672 0.0
C268 C 0.68752 0.08061 0.00769 0.0
C269 C 0.67967 0.06797 0.04483 0.0
C270 C 0.67298 0.0477 0.04059 0.0
H271 H 0.62085 0.00948 0.9381 0.0
H272 H 0.63603 0.02991 0.97484 0.0
H273 H 0.64512 0.02853 0.92074 0.0
H274 H 0.68422 0.04675 0.93102 0.0
H275 H 0.69598 0.08212 0.93804 0.0
H276 H 0.66639 0.59247 0.26013 0.0
H277 H 0.65548 0.61672 0.26782 0.0
H278 H 0.70263 0.64975 0.3622 0.0
H279 H 0.71263 0.62461 0.35687 0.0
H280 H 0.67153 0.64597 0.39515 0.0
H281 H 0.67224 0.66982 0.22219 0.0
H282 H 0.65736 0.64339 0.22438 0.0
H283 H 0.68349 0.65527 0.23734 0.0
C284 C 0.6747 0.60518 0.28165 0.0
C285 C 0.69036 0.60674 0.30782 0.0
C286 C 0.66855 0.61915 0.28585 0.0
C287 C 0.67842 0.63536 0.31503 0.0
C288 C 0.69475 0.63743 0.33945 0.0
H289 H 0.62754 0.71315 0.31082 0.0
H290 H 0.65248 0.70284 0.30766 0.0
C291 C 0.70052 0.62313 0.33626 0.0
C292 C 0.67033 0.64878 0.32368 0.0
H293 H 0.64893 0.6724 0.2721 0.0
C294 C 0.667 0.65211 0.36816 0.0
C295 C 0.66481 0.65732 0.28884 0.0
C296 C 0.66991 0.65644 0.24062 0.0
C297 C 0.65734 0.66273 0.37857 0.0
C298 C 0.64989 0.66936 0.34356 0.0
C299 C 0.65423 0.66703 0.29918 0.0
C300 C 0.63659 0.67763 0.3517 0.0
C301 C 0.65535 0.66669 0.42705 0.0
C302 C 0.61961 0.66734 0.3786 0.0
C303 C 0.60573 0.67367 0.38168 0.0
C304 C 0.60821 0.68995 0.35656 0.0
C305 C 0.62537 0.70057 0.33059 0.0
C306 C 0.63955 0.69461 0.32862 0.0
H307 H 0.66816 0.6683 0.44677 0.0
H308 H 0.65437 0.68034 0.43138 0.0
H309 H 0.64179 0.65391 0.44108 0.0
H310 H 0.61651 0.65381 0.39551 0.0
H311 H 0.59241 0.66504 0.40124 0.0
H312 H 0.90504 0.60955 0.58536 0.0
H313 H 0.94046 0.63272 0.57653 0.0
H314 H 0.94956 0.62769 0.7167 0.0
H315 H 0.91404 0.60437 0.72612 0.0
H316 H 0.97219 0.66927 0.67025 0.0
H317 H 0.97831 0.60772 0.59127 0.0
H318 H 0.95922 0.61244 0.57151 0.0
H319 H 0.95778 0.60316 0.62698 0.0
C320 C 0.91446 0.61358 0.61458 0.0
C321 C 0.90673 0.60487 0.6564 0.0
C322 C 0.93469 0.62685 0.60938 0.0
C323 C 0.94754 0.63169 0.64585 0.0
C324 C 0.93979 0.62407 0.68819 0.0
H325 H 0.069 0.68777 0.71199 0.0
H326 H 0.03397 0.67694 0.70597 0.0
C327 C 0.91951 0.61074 0.69347 0.0
C328 C 0.96919 0.64305 0.63897 0.0
H329 H 0.00767 0.63803 0.60059 0.0
C330 C 0.98 0.66257 0.65472 0.0
C331 C 0.9792 0.63425 0.6182 0.0
C332 C 0.96815 0.61321 0.60111 0.0
C333 C 0.00075 0.67346 0.651 0.0
C334 C 0.01087 0.66433 0.6321 0.0
C335 C -9e-05 0.64504 0.61492 0.0
C336 C 0.03273 0.6735 0.63416 0.0
C337 C 0.0116 0.69458 0.6675 0.0
C338 C 0.04378 0.67502 0.59576 0.0
C339 C 0.06394 0.68097 0.59914 0.0
C340 C 0.07331 0.68537 0.64106 0.0
C341 C 0.06232 0.68451 0.67912 0.0
C342 C 0.04225 0.67851 0.67572 0.0
H343 H 0.00213 0.70148 0.665 0.0
H344 H 0.01547 0.69473 0.7032 0.0
H345 H 0.02547 0.70376 0.6484 0.0
H346 H 0.03666 0.67104 0.56337 0.0
H347 H 0.07197 0.68148 0.5692 0.0
H348 H 0.27925 0.91078 0.98794 0.0
H349 H 0.29139 0.9463 0.97964 0.0
H350 H 0.34163 0.95924 0.0632 0.0
H351 H 0.32876 0.92376 0.07397 0.0
H352 H 0.33094 0.9849 0.07866 0.0
H353 H 0.33439 0.97884 0.89491 0.0
H354 H 0.30966 0.96469 0.91619 0.0
H355 H 0.32808 0.95821 0.9316 0.0
C356 C 0.29267 0.92127 0.00522 0.0
C357 C 0.30317 0.91462 0.03137 0.0
C358 C 0.29973 0.94154 1e-05 0.0
C359 C 0.31783 0.95548 0.01939 0.0
C360 C 0.32772 0.94879 0.04756 0.0
H361 H 0.40187 0.07195 0.92815 0.0
H362 H 0.37934 0.03639 0.93794 0.0
C363 C 0.32035 0.92852 0.05384 0.0
C364 C 0.32698 0.97696 0.00909 0.0
H365 H 0.34297 0.01036 0.92338 0.0
C366 C 0.33355 0.99047 0.04469 0.0
C367 C 0.33067 0.98426 0.9647 0.0
C368 C 0.32552 0.97076 0.92469 0.0
C369 C 0.34413 0.01101 0.03732 0.0
C370 C 0.34733 0.01831 0.99294 0.0
C371 C 0.34031 0.00479 0.95735 0.0
C372 C 0.35937 0.03981 0.98266 0.0
C373 C 0.35262 0.02452 0.07727 0.0
C374 C 0.35518 0.0536 0.00274 0.0
C375 C 0.36834 0.07391 -0.00189 0.0
C376 C 0.38547 0.08075 0.97181 0.0
C377 C 0.3887 0.06703 0.94842 0.0
C378 C 0.37585 0.04671 0.95414 0.0
H379 H 0.35372 0.01651 0.10684 0.0
H380 H 0.36762 0.03718 0.07 0.0
H381 H 0.34276 0.03044 0.08634 0.0
H382 H 0.34214 0.04868 0.02339 0.0
H383 H 0.36546 0.08427 0.01611 0.0
H384 H 0.16831 0.45776 0.88602 0.0
H385 H 0.18929 0.45649 0.9454 0.0
H386 H 0.17709 0.39907 0.89907 0.0
H387 H 0.1562 0.40021 0.83957 0.0
H388 H 0.18207 0.42793 0.01469 0.0
H389 H 0.23842 0.43451 0.8915 0.0
H390 H 0.21903 0.4399 0.87763 0.0
H391 H 0.2136 0.41465 0.88136 0.0
C392 C 0.1698 0.44471 0.88894 0.0
C393 C 0.16073 0.42917 0.85784 0.0
C394 C 0.18184 0.44404 0.92279 0.0
C395 C 0.18505 0.42788 0.92593 0.0
C396 C 0.17509 0.41184 0.8966 0.0
H397 H 0.24293 0.40213 0.14222 0.0
H398 H 0.2207 0.39996 0.08217 0.0
C399 C 0.16305 0.41248 0.86283 0.0
C400 C 0.19945 0.42816 0.95866 0.0
H401 H 0.24381 0.42935 0.96689 0.0
C402 C 0.19555 0.42821 0.00432 0.0
C403 C 0.21716 0.42881 0.94489 0.0
C404 C 0.22247 0.42964 0.8962 0.0
C405 C 0.20879 0.42862 0.03668 0.0
C406 C 0.22626 0.42877 0.02291 0.0
C407 C 0.2303 0.42901 0.97726 0.0
C408 C 0.24067 0.42912 0.05568 0.0
C409 C 0.20416 0.42922 0.08537 0.0
C410 C 0.25968 0.44584 0.05917 0.0
C411 C 0.27252 0.44711 0.09335 0.0
C412 C 0.26654 0.43162 0.12444 0.0
C413 C 0.24796 0.41437 0.119 0.0
C414 C 0.23516 0.41314 0.08489 0.0
H415 H 0.1926 0.43344 0.09007 0.0
H416 H 0.19863 0.41431 0.10023 0.0
H417 H 0.21769 0.43988 0.10392 0.0
H418 H 0.26424 0.45827 0.03665 0.0
H419 H 0.28671 0.46058 0.09664 0.0
H420 H 0.81768 0.28421 0.44041 0.0
H421 H 0.79755 0.26178 0.38039 0.0
H422 H 0.81121 0.21768 0.42766 0.0
H423 H 0.8312 0.23987 0.48785 0.0
H424 H 0.80596 0.24164 0.31165 0.0
H425 H 0.74993 0.18965 0.4325 0.0
H426 H 0.76866 0.21454 0.44747 0.0
H427 H 0.77493 0.19531 0.44321 0.0
C428 C 0.81667 0.26987 0.43759 0.0
C429 C 0.82589 0.26375 0.46914 0.0
C430 C 0.80512 0.25706 0.40337 0.0
C431 C 0.80255 0.23793 0.40027 0.0
C432 C 0.81267 0.23223 0.43009 0.0
H433 H 0.74819 0.15569 0.17954 0.0
H434 H 0.76992 0.17575 0.24029 0.0
C435 C 0.82421 0.245 0.46427 0.0
C436 C 0.7887 0.22368 0.36694 0.0
H437 H 0.74544 0.17953 0.35682 0.0
C438 C 0.79274 0.22805 0.32145 0.0
C439 C 0.77133 0.2061 0.37996 0.0
C440 C 0.76578 0.20113 0.42842 0.0
C441 C 0.77998 0.21516 0.28852 0.0
C442 C 0.76287 0.19733 0.30153 0.0
C443 C 0.75869 0.19309 0.34702 0.0
C444 C 0.74888 0.18324 0.26818 0.0
C445 C 0.78471 0.2209 0.24008 0.0
C446 C 0.72947 0.17994 0.26522 0.0
C447 C 0.71693 0.16835 0.23069 0.0
C448 C 0.7236 0.15981 0.19867 0.0
C449 C 0.74263 0.16214 0.20349 0.0
C450 C 0.75513 0.17372 0.23798 0.0
H451 H 0.79571 0.23691 0.23608 0.0
H452 H 0.79103 0.21226 0.22497 0.0
H453 H 0.77109 0.21752 0.22124 0.0
H454 H 0.72433 0.18704 0.28848 0.0
H455 H 0.70237 0.16684 0.22792 0.0
H456 H 0.53148 0.82419 0.76717 0.0
H457 H 0.5333 0.80367 0.70743 0.0
H458 H 0.59064 0.81614 0.75509 0.0
H459 H 0.58896 0.83657 0.81492 0.0
H460 H 0.56233 0.81143 0.6388 0.0
H461 H 0.55546 0.75473 0.76133 0.0
H462 H 0.5498 0.77392 0.7752 0.0
H463 H 0.57513 0.77955 0.77226 0.0
C464 C 0.54464 0.82287 0.76444 0.0
C465 C 0.56 0.83187 0.79602 0.0
C466 C 0.54562 0.8111 0.7304 0.0
C467 C 0.56191 0.80807 0.72754 0.0
C468 C 0.57778 0.81799 0.75732 0.0
H469 H 0.59028 0.75192 0.51234 0.0
H470 H 0.59143 0.77388 0.57194 0.0
C471 C 0.57683 0.82977 0.79129 0.0
C472 C 0.56193 0.79388 0.69468 0.0
H473 H 0.56128 0.7498 0.68608 0.0
C474 C 0.56212 0.79797 0.64905 0.0
C475 C 0.56135 0.7762 0.70829 0.0
C476 C 0.56025 0.77067 0.75691 0.0
C477 C 0.56208 0.78495 0.61658 0.0
C478 C 0.56204 0.76753 0.63021 0.0
C479 C 0.56152 0.76328 0.67582 0.0
C480 C 0.56219 0.7534 0.59736 0.0
C481 C 0.56175 0.78978 0.56791 0.0
C482 C 0.54576 0.73424 0.59337 0.0
C483 C 0.54508 0.72156 0.55944 0.0
C484 C 0.56089 0.72786 0.52913 0.0
C485 C 0.57781 0.74665 0.53496 0.0
C486 C 0.57845 0.75928 0.56881 0.0
H487 H 0.5573 0.80117 0.56318 0.0
H488 H 0.57681 0.79563 0.55364 0.0
H489 H 0.55139 0.77629 0.54887 0.0
H490 H 0.53313 0.72938 0.61539 0.0
H491 H 0.53185 0.70719 0.55585 0.0
H492 H 0.70701 0.53322 0.09953 0.0
H493 H 0.7294 0.53561 0.03933 0.0
H494 H 0.77374 0.59307 0.08754 0.0
H495 H 0.75159 0.59077 0.14791 0.0
H496 H 0.74941 0.56418 0.97117 0.0
H497 H 0.8018 0.55997 0.09048 0.0
H498 H 0.77698 0.55384 0.10604 0.0
H499 H 0.79625 0.57933 0.10184 0.0
C500 C 0.7214 0.5465 0.09689 0.0
C501 C 0.72759 0.56172 0.12873 0.0
C502 C 0.73419 0.54781 0.06258 0.0
C503 C 0.75337 0.56431 0.05967 0.0
C504 C 0.75916 0.58001 0.08984 0.0
H505 H 0.83458 0.59272 0.83657 0.0
H506 H 0.81502 0.59441 0.89845 0.0
C507 C 0.74641 0.57872 0.12411 0.0
C508 C 0.76756 0.56482 0.026 0.0
H509 H 0.81182 0.566 0.01472 0.0
C510 C 0.76306 0.5646 0.98062 0.0
C511 C 0.78522 0.56509 0.03855 0.0
C512 C 0.79034 0.56439 0.08685 0.0
C513 C 0.7759 0.5649 0.94736 0.0
C514 C 0.79382 0.5657 0.9599 0.0
C515 C 0.79819 0.56565 0.00527 0.0
C516 C 0.80783 0.56593 0.92614 0.0
C517 C 0.76999 0.56394 0.89905 0.0
C518 C 0.81119 0.54987 0.92275 0.0
C519 C 0.8225 0.54892 0.88759 0.0
C520 C 0.83068 0.56406 0.85535 0.0
C521 C 0.82839 0.58075 0.86067 0.0
C522 C 0.81709 0.58168 0.89582 0.0
H523 H 0.75394 0.55883 0.89539 0.0
H524 H 0.77848 0.57894 0.88407 0.0
H525 H 0.77341 0.55382 0.87986 0.0
H526 H 0.80429 0.53764 0.9461 0.0
H527 H 0.824 0.53587 0.88446 0.0
H528 H 0.15172 0.74711 0.4808 0.0
H529 H 0.17343 0.76996 0.42317 0.0
H530 H 0.19823 0.7322 0.3994 0.0
H531 H 0.17645 0.70911 0.45669 0.0
H532 H 0.22538 0.77813 0.42513 0.0
H533 H 0.17463 0.75948 0.27933 0.0
H534 H 0.16559 0.76021 0.33431 0.0
H535 H 0.17121 0.74116 0.32077 0.0
C536 C 0.16149 0.74344 0.46268 0.0
C537 C 0.16238 0.7263 0.47333 0.0
C538 C 0.17389 0.75653 0.42988 0.0
C539 C 0.18742 0.75274 0.40734 0.0
C540 C 0.18784 0.73531 0.41656 0.0
H541 H 0.28738 0.81962 0.23222 0.0
H542 H 0.2655 0.79918 0.29229 0.0
C543 C 0.17532 0.72211 0.4491 0.0
C544 C 0.20201 0.76764 0.37633 0.0
H545 H 0.20725 0.78598 0.27083 0.0
C546 C 0.2215 0.7799 0.39134 0.0
C547 C 0.19673 0.76997 0.33267 0.0
C548 C 0.17594 0.75702 0.3154 0.0
C549 C 0.23593 0.79457 0.36365 0.0
C550 C 0.2308 0.79664 0.31945 0.0
C551 C 0.2112 0.78442 0.30471 0.0
C552 C 0.24555 0.81091 0.28729 0.0
C553 C 0.25639 0.80792 0.38234 0.0
C554 C 0.24175 0.82445 0.26465 0.0
C555 C 0.25413 0.836 0.22994 0.0
C556 C 0.27056 0.83424 0.2172 0.0
C557 C 0.27497 0.82149 0.24153 0.0
C558 C 0.26247 0.8098 0.27601 0.0
H559 H 0.25611 0.80877 0.41933 0.0
H560 H 0.26614 0.80184 0.37341 0.0
H561 H 0.263 0.82315 0.36854 0.0
H562 H 0.22879 0.82557 0.2728 0.0
H563 H 0.25031 0.84567 0.21181 0.0
H564 H 0.40087 0.15776 0.81164 0.0
H565 H 0.39862 0.17767 0.75139 0.0
H566 H 0.45669 0.19192 0.70506 0.0
H567 H 0.45909 0.17193 0.76532 0.0
H568 H 0.42604 0.21897 0.74214 0.0
H569 H 0.42245 0.17647 0.59004 0.0
H570 H 0.41675 0.16548 0.64503 0.0
H571 H 0.44209 0.18113 0.62835 0.0
C572 C 0.41302 0.16478 0.78812 0.0
C573 C 0.43019 0.16329 0.79332 0.0
C574 C 0.41172 0.17621 0.75382 0.0
C575 C 0.42747 0.18624 0.72381 0.0
C576 C 0.44428 0.1841 0.72761 0.0
H577 H 0.45714 0.28816 0.55667 0.0
H578 H 0.45507 0.26612 0.61738 0.0
C579 C 0.44562 0.17268 0.76205 0.0
C580 C 0.42685 0.20006 0.69074 0.0
H581 H 0.42696 0.20864 0.57904 0.0
C582 C 0.42617 0.2167 0.70645 0.0
C583 C 0.42688 0.19695 0.6443 0.0
C584 C 0.42692 0.17897 0.62573 0.0
C585 C 0.42581 0.2305 0.67686 0.0
C586 C 0.42629 0.22762 0.63044 0.0
C587 C 0.42668 0.21083 0.61472 0.0
C588 C 0.42647 0.24185 0.59737 0.0
C589 C 0.42471 0.24793 0.69541 0.0
C590 C 0.41093 0.23562 0.56656 0.0
C591 C 0.41204 0.24817 0.53199 0.0
C592 C 0.42883 0.26714 0.52732 0.0
C593 C 0.44397 0.27369 0.55949 0.0
C594 C 0.44281 0.26112 0.5942 0.0
H595 H 0.41994 0.24563 0.7309 0.0
H596 H 0.43959 0.2614 0.6934 0.0
H597 H 0.41426 0.25069 0.67566 0.0
H598 H 0.39819 0.22081 0.5685 0.0
H599 H 0.40012 0.24264 0.50777 0.0
H600 H 0.18057 0.43075 0.61464 0.0
H601 H 0.20201 0.44319 0.54923 0.0
H602 H 0.22242 0.50334 0.59087 0.0
H603 H 0.20095 0.491 0.65703 0.0
H604 H 0.19822 0.47465 0.48669 0.0
H605 H 0.27267 0.49446 0.55379 0.0
H606 H 0.2508 0.47465 0.57979 0.0
H607 H 0.25579 0.49967 0.5844 0.0
C608 C 0.18983 0.44662 0.61034 0.0
C609 C 0.18899 0.4599 0.6407 0.0
C610 C 0.20202 0.45369 0.573 0.0
C611 C 0.21358 0.47412 0.5654 0.0
C612 C 0.21354 0.48752 0.59647 0.0
H613 H 0.28702 0.49469 0.32725 0.0
H614 H 0.27306 0.50583 0.38654 0.0
C615 C 0.20134 0.48044 0.63415 0.0
C616 C 0.22455 0.48088 0.52316 0.0
H617 H 0.26774 0.48906 0.4759 0.0
C618 C 0.21363 0.47847 0.48415 0.0
C619 C 0.24464 0.48604 0.52031 0.0
C620 C 0.25682 0.48896 0.56169 0.0
C621 C 0.2218 0.47922 0.44211 0.0
C622 C 0.24121 0.48222 0.43946 0.0
C623 C 0.25281 0.48671 0.47821 0.0
C624 C 0.24809 0.47663 0.39917 0.0
C625 C 0.20918 0.4754 0.40109 0.0
C626 C 0.2385 0.4566 0.38668 0.0
C627 C 0.24652 0.45018 0.35357 0.0
C628 C 0.2642 0.46372 0.33222 0.0
C629 C 0.27328 0.48397 0.3431 0.0
C630 C 0.26538 0.49036 0.37686 0.0
H631 H 0.19781 0.47983 0.40652 0.0
H632 H 0.21838 0.48352 0.37175 0.0
H633 H 0.20132 0.4593 0.39345 0.0
H634 H 0.22532 0.44574 0.40414 0.0
H635 H 0.23924 0.43451 0.34574 0.0
H636 H 0.78297 0.28461 0.66512 0.0
H637 H 0.76102 0.27582 0.73048 0.0
H638 H 0.78438 0.23975 0.78085 0.0
H639 H 0.80616 0.24828 0.71624 0.0
H640 H 0.73331 0.23021 0.77081 0.0
H641 H 0.79326 0.28782 0.87544 0.0
H642 H 0.79169 0.29046 0.81579 0.0
H643 H 0.80088 0.27505 0.83729 0.0
C644 C 0.78317 0.27456 0.68983 0.0
C645 C 0.79638 0.26724 0.68585 0.0
C646 C 0.7707 0.26964 0.72704 0.0
C647 C 0.7714 0.2574 0.76038 0.0
C648 C 0.78387 0.24939 0.75542 0.0
H649 H 0.74757 0.19113 0.97259 0.0
H650 H 0.75907 0.21591 0.91334 0.0
C651 C 0.79625 0.25424 0.71849 0.0
C652 C 0.75981 0.25314 0.80172 0.0
H653 H 0.76809 0.25899 0.91373 0.0
C654 C 0.74046 0.23696 0.80216 0.0
C655 C 0.76931 0.26212 0.84223 0.0
C656 C 0.7899 0.27996 0.84289 0.0
C657 C 0.73119 0.22811 0.8426 0.0
C658 C 0.74167 0.23575 0.88299 0.0
C659 C 0.76014 0.25322 0.8826 0.0
C660 C 0.73603 0.22333 0.92335 0.0
C661 C 0.7112 0.20944 0.84174 0.0
C662 C 0.71963 0.21985 0.9493 0.0
C663 C 0.71308 0.20574 0.98351 0.0
C664 C 0.72277 0.19487 0.99155 0.0
C665 C 0.73977 0.1992 0.96689 0.0
C666 C 0.74638 0.21337 0.93319 0.0
H667 H 0.70488 0.20564 0.80754 0.0
H668 H 0.71255 0.19685 0.85501 0.0
H669 H 0.70069 0.21125 0.86353 0.0
H670 H 0.71153 0.22749 0.94205 0.0
H671 H 0.6999 0.20265 0.00207 0.0
H672 H 0.55734 0.80346 0.01809 0.0
H673 H 0.54619 0.77809 0.07594 0.0
H674 H 0.4859 0.76507 0.05761 0.0
H675 H 0.49699 0.79042 -0.00118 0.0
H676 H 0.50239 0.77601 0.14768 0.0
H677 H 0.51261 0.71638 0.07555 0.0
H678 H 0.53299 0.74064 0.06333 0.0
H679 H 0.50874 0.73337 0.04159 0.0
C680 C 0.54165 0.79491 0.02567 0.0
C681 C 0.52803 0.79891 0.00421 0.0
C682 C 0.53528 0.78034 0.05846 0.0
C683 C 0.51521 0.76962 0.07055 0.0
C684 C 0.50141 0.77308 0.04823 0.0
H685 H 0.50021 0.70649 0.32642 0.0
H686 H 0.48816 0.71599 0.26033 0.0
C687 C 0.50776 0.78751 0.01476 0.0
C688 C 0.5096 0.75682 0.11033 0.0
H689 H 0.51749 0.72131 0.1559 0.0
C690 C 0.5049 0.76352 0.14942 0.0
C691 C 0.51281 0.74054 0.11222 0.0
C692 C 0.51687 0.73217 0.07078 0.0
C693 C 0.50554 0.75572 0.19118 0.0
C694 C 0.51089 0.74092 0.19332 0.0
C695 C 0.51354 0.73282 0.15392 0.0
C696 C 0.5175 0.73636 0.23538 0.0
C697 C 0.50236 0.76454 0.23298 0.0
C698 C 0.5379 0.74507 0.24324 0.0
C699 C 0.5448 0.73974 0.28058 0.0
C700 C 0.53138 0.72556 0.31066 0.0
C701 C 0.51088 0.71748 0.30377 0.0
C702 C 0.50397 0.72281 0.26613 0.0
H703 H 0.49696 0.77502 0.22556 0.0
H704 H 0.49145 0.75257 0.25495 0.0
H705 H 0.51654 0.77258 0.25168 0.0
H706 H 0.5485 0.75563 0.21974 0.0
H707 H 0.56066 0.74628 0.28511 0.0
H708 H 0.74952 0.55303 0.35432 0.0
H709 H 0.75894 0.53979 0.4178 0.0
H710 H 0.7057 0.48318 0.40139 0.0
H711 H 0.69635 0.49622 0.3369 0.0
H712 H 0.71385 0.50597 0.49025 0.0
H713 H 0.77462 0.49424 0.43039 0.0
H714 H 0.77549 0.51631 0.40948 0.0
H715 H 0.75517 0.49244 0.3942 0.0
C716 C 0.74008 0.53763 0.36354 0.0
C717 C 0.72223 0.52565 0.34091 0.0
C718 C 0.74549 0.53007 0.39959 0.0
C719 C 0.73303 0.51052 0.41386 0.0
C720 C 0.71554 0.49824 0.39039 0.0
H721 H 0.78735 0.49649 0.65671 0.0
H722 H 0.76258 0.48305 0.59674 0.0
C723 C 0.71028 0.50571 0.35365 0.0
C724 C 0.73738 0.5042 0.45661 0.0
H725 H 0.77496 0.50177 0.50859 0.0
C726 C 0.7268 0.50432 0.49438 0.0
C727 C 0.75413 0.50191 0.46162 0.0
C728 C 0.76545 0.50103 0.42174 0.0
C729 C 0.73388 0.50437 0.5374 0.0
C730 C 0.75185 0.50428 0.54229 0.0
C731 C 0.76118 0.50192 0.50463 0.0
C732 C 0.76333 0.51075 0.58407 0.0
C733 C 0.72292 0.50601 0.57716 0.0
C734 C 0.7716 0.53064 0.59698 0.0
C735 C 0.78592 0.53841 0.63042 0.0
C736 C 0.79204 0.52634 0.65174 0.0
C737 C 0.78278 0.50607 0.6409 0.0
C738 C 0.76866 0.49837 0.60676 0.0
H739 H 0.70694 0.49989 0.56962 0.0
H740 H 0.7244 0.49811 0.60648 0.0
H741 H 0.72931 0.52187 0.5861 0.0
H742 H 0.76789 0.54048 0.57925 0.0
H743 H 0.79283 0.55405 0.63825 0.0
H744 H 0.17298 0.74332 0.72214 0.0
H745 H 0.19322 0.7533 0.78956 0.0
H746 H 0.22062 0.71956 0.7483 0.0
H747 H 0.20039 0.70949 0.68012 0.0
H748 H 0.1924 0.72313 0.8534 0.0
H749 H 0.26709 0.77692 0.78546 0.0
H750 H 0.24478 0.77156 0.75567 0.0
H751 H 0.25222 0.75322 0.75873 0.0
C752 C 0.18349 0.73821 0.72702 0.0
C753 C 0.18504 0.72555 0.69602 0.0
C754 C 0.19497 0.74387 0.76558 0.0
C755 C 0.20825 0.73704 0.77378 0.0
C756 C 0.21045 0.72498 0.74227 0.0
H757 H 0.28322 0.79002 0.00996 0.0
H758 H 0.26798 0.76507 0.95079 0.0
C759 C 0.19893 0.71931 0.70343 0.0
C760 C 0.21901 0.74214 0.81649 0.0
H761 H 0.26274 0.77649 0.8631 0.0
C762 C 0.20793 0.73443 0.8557 0.0
C763 C 0.23928 0.75665 0.8191 0.0
C764 C 0.25167 0.76519 0.77765 0.0
C765 C 0.21622 0.74207 0.89753 0.0
C766 C 0.23594 0.75791 0.89984 0.0
C767 C 0.24757 0.76434 0.86102 0.0
C768 C 0.24353 0.77034 0.94011 0.0
C769 C 0.20351 0.73391 0.93866 0.0
C770 C 0.23463 0.7813 0.95376 0.0
C771 C 0.24336 0.79563 0.98694 0.0
C772 C 0.2611 0.79919 0.0071 0.0
C773 C 0.26948 0.7875 0.99504 0.0
C774 C 0.26084 0.77329 0.96132 0.0
H775 H 0.19174 0.71823 0.93373 0.0
H776 H 0.21256 0.73484 0.96819 0.0
H777 H 0.19615 0.74269 0.94569 0.0
H778 H 0.22146 0.77948 0.93715 0.0
H779 H 0.23659 0.80441 0.99567 0.0
H780 H 0.49374 0.20323 -0.00285 0.0
H781 H 0.50593 0.22474 0.06323 0.0
H782 H 0.44609 0.20989 0.09531 0.0
H783 H 0.43377 0.18836 0.02996 0.0
H784 H 0.48749 0.25647 0.09805 0.0
H785 H 0.48071 0.19314 0.19826 0.0
H786 H 0.48892 0.19716 0.14082 0.0
H787 H 0.46325 0.18777 0.15352 0.0
C788 C 0.48325 0.20489 0.01781 0.0
C789 C 0.46278 0.19401 0.00873 0.0
C790 C 0.49024 0.21712 0.05544 0.0
C791 C 0.47683 0.21868 0.0839 0.0
C792 C 0.45659 0.20874 0.07351 0.0
H793 H 0.43407 0.24115 0.30136 0.0
H794 H 0.44649 0.22926 0.24107 0.0
C795 C 0.44959 0.19647 0.03627 0.0
C796 C 0.48322 0.22929 0.12661 0.0
H797 H 0.47944 0.21896 0.23783 0.0
C798 C 0.48657 0.24868 0.12877 0.0
C799 C 0.48192 0.2189 0.16623 0.0
C800 C 0.4786 0.1981 0.16496 0.0
C801 C 0.48681 0.25732 0.16997 0.0
C802 C 0.48355 0.24614 0.20945 0.0
C803 C 0.48202 0.22745 0.20739 0.0
C804 C 0.47724 0.25165 0.25072 0.0
C805 C 0.48858 0.27752 0.17084 0.0
C806 C 0.49059 0.26773 0.2769 0.0
C807 C 0.48352 0.2745 0.31166 0.0
C808 C 0.46303 0.26535 0.32006 0.0
C809 C 0.44991 0.24854 0.29537 0.0
C810 C 0.45698 0.24171 0.26108 0.0
H811 H 0.49091 0.28418 0.13703 0.0
H812 H 0.47493 0.27639 0.18534 0.0
H813 H 0.50123 0.28764 0.19237 0.0
H814 H 0.50629 0.27549 0.26927 0.0
H815 H 0.49395 0.28749 0.33026 0.0
H816 H 0.35901 0.49028 0.3807 0.0
H817 H 0.39185 0.51939 0.38814 0.0
H818 H 0.39691 0.52515 0.24497 0.0
H819 H 0.36389 0.49575 0.23694 0.0
H820 H 0.43215 0.53054 0.29216 0.0
H821 H 0.40181 0.57595 0.36229 0.0
H822 H 0.39366 0.55268 0.39001 0.0
H823 H 0.38659 0.55295 0.33303 0.0
C824 C 0.36707 0.49762 0.35064 0.0
C825 C 0.3587 0.49077 0.30816 0.0
C826 C 0.38584 0.5143 0.35505 0.0
C827 C 0.39661 0.52457 0.31716 0.0
C828 C 0.38872 0.51743 0.27461 0.0
H829 H 0.50756 0.63298 0.27527 0.0
H830 H 0.47792 0.6005 0.2681 0.0
C831 C 0.36987 0.50066 0.27011 0.0
C832 C 0.41584 0.54309 0.32236 0.0
H833 H 0.43667 0.59008 0.36397 0.0
C834 C 0.43319 0.54361 0.30768 0.0
C835 C 0.41707 0.56004 0.34276 0.0
C836 C 0.39879 0.56054 0.35762 0.0
C837 C 0.45187 0.56061 0.31359 0.0
C838 C 0.45308 0.57756 0.33405 0.0
C839 C 0.4357 0.577 0.34865 0.0
C840 C 0.4721 0.59638 0.33903 0.0
C841 C 0.47014 0.56016 0.29865 0.0
C842 C 0.4786 0.60495 0.38134 0.0
C843 C 0.49553 0.62366 0.38563 0.0
C844 C 0.50614 0.6342 0.34757 0.0
C845 C 0.4998 0.62531 0.30534 0.0
C846 C 0.48291 0.60664 0.30113 0.0
H847 H 0.4673 0.54474 0.29568 0.0
H848 H 0.47473 0.56726 0.26535 0.0
H849 H 0.48263 0.56844 0.32222 0.0
H850 H 0.47036 0.5973 0.41099 0.0
H851 H 0.49996 0.63007 0.41861 0.0
H852 H 0.86493 0.50177 0.74518 0.0
H853 H 0.86965 0.47298 0.74088 0.0
H854 H 0.86466 0.47275 0.59753 0.0
H855 H 0.86019 0.50151 0.60129 0.0
H856 H 0.84195 0.43643 0.70537 0.0
H857 H 0.9134 0.46674 0.61494 0.0
H858 H 0.90543 0.48239 0.64151 0.0
H859 H 0.89572 0.4716 0.58778 0.0
C860 C 0.86515 0.49579 0.71269 0.0
C861 C 0.86214 0.50394 0.6736 0.0
C862 C 0.86784 0.47934 0.71031 0.0
C863 C 0.86778 0.47092 0.66884 0.0
C864 C 0.8652 0.47928 0.62979 0.0
H865 H 0.85918 0.36156 0.57629 0.0
H866 H 0.86269 0.39457 0.5826 0.0
C867 C 0.86248 0.49565 0.6321 0.0
C868 C 0.86861 0.45236 0.66644 0.0
H869 H 0.89379 0.43142 0.61961 0.0
C870 C 0.85341 0.43538 0.68708 0.0
C871 C 0.88347 0.45102 0.64215 0.0
C872 C 0.90054 0.46895 0.62065 0.0
C873 C 0.85239 0.41695 0.68321 0.0
C874 C 0.86717 0.41557 0.65869 0.0
C875 C 0.88247 0.43256 0.63829 0.0
C876 C 0.8669 0.39651 0.65418 0.0
C877 C 0.83516 0.399 0.70434 0.0
C878 C 0.86872 0.38704 0.69213 0.0
C879 C 0.86666 0.36824 0.68871 0.0
C880 C 0.86288 0.35858 0.64715 0.0
C881 C 0.86201 0.36854 0.60879 0.0
C882 C 0.86402 0.38739 0.61231 0.0
H883 H 0.82273 0.40163 0.71235 0.0
H884 H 0.82955 0.38591 0.68202 0.0
H885 H 0.84015 0.39544 0.73593 0.0
H886 H 0.87133 0.39402 0.7246 0.0
H887 H 0.86766 0.36114 0.7189 0.0
H888 H 0.499 0.86626 0.04454 0.0
H889 H 0.46985 0.87011 0.04759 0.0
H890 H 0.46858 0.87189 0.90385 0.0
H891 H 0.49776 0.86775 0.90028 0.0
H892 H 0.4628 0.89984 0.01357 0.0
H893 H 0.41321 0.826 0.93745 0.0
H894 H 0.43763 0.83304 0.95807 0.0
H895 H 0.4348 0.84243 0.9055 0.0
C896 C 0.49263 0.86754 0.01345 0.0
C897 C 0.50063 0.86649 0.9721 0.0
C898 C 0.47598 0.86981 0.01533 0.0
C899 C 0.46692 0.87101 0.97599 0.0
C900 C 0.4752 0.87066 0.9346 0.0
H901 H 0.35387 0.86714 0.94465 0.0
H902 H 0.38667 0.87138 0.93112 0.0
C903 C 0.49191 0.86838 0.93264 0.0
C904 C 0.4484 0.8719 0.97881 0.0
H905 H 0.39875 0.84514 0.95747 0.0
C906 C 0.4488 0.88796 0.00107 0.0
C907 C 0.43018 0.85634 0.96255 0.0
C908 C 0.42877 0.83838 0.93984 0.0
C909 C 0.4314 0.88882 0.00773 0.0
C910 C 0.41313 0.87304 0.99235 0.0
C911 C 0.41281 0.85721 0.96921 0.0
C912 C 0.39401 0.87223 0.00099 0.0
C913 C 0.43273 0.90662 0.03098 0.0
C914 C 0.38729 0.87137 0.04486 0.0
C915 C 0.36851 0.86895 0.05281 0.0
C916 C 0.35605 0.86719 0.01698 0.0
C917 C 0.36303 0.86841 0.97308 0.0
C918 C 0.38179 0.87085 0.96521 0.0
H919 H 0.44797 0.91963 0.02926 0.0
H920 H 0.42224 0.91077 0.01615 0.0
H921 H 0.42885 0.90301 0.0667 0.0
H922 H 0.39633 0.87199 0.07296 0.0
H923 H 0.36358 0.86798 0.08699 0.0
H924 H 0.62845 0.50027 0.23602 0.0
H925 H 0.59529 0.47112 0.24238 0.0
H926 H 0.59815 0.4773 0.38561 0.0
H927 H 0.63104 0.50648 0.37971 0.0
H928 H 0.58756 0.43686 0.28797 0.0
H929 H 0.54265 0.46766 0.3579 0.0
H930 H 0.56645 0.48299 0.33173 0.0
H931 H 0.56508 0.47466 0.38828 0.0
C932 C 0.62188 0.49566 0.26882 0.0
C933 C 0.63245 0.5057 0.30735 0.0
C934 C 0.60295 0.47899 0.27238 0.0
C935 C 0.59418 0.4722 0.31443 0.0
C936 C 0.60445 0.48252 0.35279 0.0
H937 H 0.49326 0.36402 0.4145 0.0
H938 H 0.52255 0.39712 0.40662 0.0
C939 C 0.62335 0.49914 0.34931 0.0
C940 C 0.57521 0.45328 0.31862 0.0
H941 H 0.52815 0.43245 0.36027 0.0
C942 C 0.57451 0.43592 0.30336 0.0
C943 C 0.55829 0.4521 0.33919 0.0
C944 C 0.55803 0.47036 0.35488 0.0
C945 C 0.55745 0.41733 0.30879 0.0
C946 C 0.54053 0.41612 0.32935 0.0
C947 C 0.54118 0.43346 0.34461 0.0
C948 C 0.52197 0.39692 0.33443 0.0
C949 C 0.55783 0.39906 0.29339 0.0
C950 C 0.51171 0.38618 0.2965 0.0
C951 C 0.4951 0.36735 0.30082 0.0
C952 C 0.48832 0.3589 0.34326 0.0
C953 C 0.49814 0.37006 0.38136 0.0
C954 C 0.51485 0.38896 0.37694 0.0
H955 H 0.57322 0.402 0.28867 0.0
H956 H 0.55016 0.38675 0.31768 0.0
H957 H 0.55001 0.39412 0.26091 0.0
H958 H 0.51678 0.39224 0.26343 0.0
H959 H 0.4878 0.35931 0.27073 0.0
H960 H 0.12087 0.63057 0.72363 0.0
H961 H 0.11831 0.59816 0.7293 0.0
H962 H 0.1235 0.59635 0.58638 0.0
H963 H 0.126 0.62894 0.5801 0.0
H964 H 0.09289 0.55975 0.62857 0.0
H965 H 0.16685 0.5905 0.70884 0.0
H966 H 0.1504 0.59746 0.73466 0.0
H967 H 0.15931 0.60579 0.67906 0.0
C968 C 0.12139 0.62332 0.69324 0.0
C969 C 0.12383 0.63248 0.65137 0.0
C970 C 0.11997 0.6048 0.69665 0.0
C971 C 0.12104 0.59507 0.65836 0.0
C972 C 0.12276 0.60374 0.61633 0.0
H973 H 0.12307 0.48718 0.60744 0.0
H974 H 0.11973 0.51659 0.60309 0.0
C975 C 0.1242 0.62235 0.61283 0.0
C976 C 0.12085 0.57606 0.66262 0.0
H977 H 0.14718 0.55559 0.70533 0.0
C978 C 0.10476 0.55879 0.6452 0.0
C979 C 0.13634 0.57493 0.68456 0.0
C980 C 0.15431 0.59316 0.70258 0.0
C981 C 0.10361 0.54029 0.64969 0.0
C982 C 0.11916 0.53918 0.67144 0.0
C983 C 0.13521 0.55647 0.68896 0.0
C984 C 0.11964 0.52045 0.67457 0.0
C985 C 0.08562 0.52208 0.63176 0.0
C986 C 0.12098 0.51297 0.71628 0.0
C987 C 0.12306 0.49616 0.71898 0.0
C988 C 0.124 0.48665 0.67992 0.0
C989 C 0.12234 0.49406 0.63824 0.0
C990 C 0.12027 0.51082 0.63563 0.0
H991 H 0.07275 0.52444 0.62831 0.0
H992 H 0.08908 0.51859 0.5982 0.0
H993 H 0.08134 0.50907 0.65374 0.0
H994 H 0.12067 0.52031 0.74674 0.0
H995 H 0.12434 0.49089 0.75157 0.0
H996 H 0.62573 0.12395 0.09163 0.0
H997 H 0.59219 0.11921 0.08691 0.0
H998 H 0.59559 0.11992 0.94322 0.0
H999 H 0.62878 0.12436 0.94745 0.0
H1000 H 0.58311 0.1458 0.04704 0.0
H1001 H 0.5409 0.07225 0.96604 0.0
H1002 H 0.56476 0.08077 0.99201 0.0
H1003 H 0.56321 0.08889 0.93669 0.0
C1004 C 0.6192 0.12276 0.05904 0.0
C1005 C 0.62997 0.12458 0.01994 0.0
C1006 C 0.60005 0.12006 0.05641 0.0
C1007 C 0.59131 0.11893 0.01471 0.0
C1008 C 0.60185 0.12029 0.97573 0.0
H1009 H 0.49297 0.12803 0.91013 0.0
H1010 H 0.52183 0.1238 0.92137 0.0
C1011 C 0.62094 0.12301 0.97828 0.0
C1012 C 0.57198 0.11821 0.0116 0.0
H1013 H 0.52587 0.09263 0.96485 0.0
C1014 C 0.57049 0.13403 0.02964 0.0
C1015 C 0.55562 0.10292 0.98853 0.0
C1016 C 0.55609 0.08515 0.97007 0.0
C1017 C 0.5533 0.13533 0.02401 0.0
C1018 C 0.53706 0.12021 0.00032 0.0
C1019 C 0.53839 0.10422 0.98284 0.0
C1020 C 0.51865 0.12098 0.99315 0.0
C1021 C 0.5529 0.15321 0.04219 0.0
C1022 C 0.50706 0.1202 0.02965 0.0
C1023 C 0.49066 0.12265 0.02342 0.0
C1024 C 0.48545 0.12582 0.98045 0.0
C1025 C 0.49661 0.1257 0.94365 0.0
C1026 C 0.51308 0.12327 0.94999 0.0
H1027 H 0.56801 0.16551 0.05035 0.0
H1028 H 0.54599 0.1587 0.01787 0.0
H1029 H 0.54393 0.14898 0.07323 0.0
H1030 H 0.51093 0.11809 0.06313 0.0
H1031 H 0.4823 0.12245 0.05251 0.0
loop_
_geom_bond_atom_site_label_1
_geom_bond_atom_site_label_2
_geom_bond_distance
_geom_bond_site_symmetry_2
_ccdc_geom_bond_type
C0 O1 1.306 . S
C0 O3 1.160 . S
O1 C0 1.306 . S
O1 Cd2 2.228 . S
Cd2 O1 2.228 . S
Cd2 O6 2.273 . S
Cd2 O10 2.277 . S
O3 C0 1.160 . S
O3 Cd4 2.203 . S
Cd4 O3 2.203 . S
Cd4 O6 2.411 . S
Cd4 O7 2.333 . S
Cd4 O8 2.352 . S
Cd4 O12 2.277 . S
Cd4 O13 2.356 . S
C5 O10 1.209 . S
C5 O12 1.226 . S
O6 Cd2 2.273 . S
O6 Cd4 2.411 . S
O6 C9 1.320 . S
O7 Cd4 2.333 . S
O7 C9 1.214 . S
O8 Cd4 2.352 . S
O8 C11 1.258 . S
C9 O6 1.320 . S
C9 O7 1.214 . S
O10 Cd2 2.277 . S
O10 C5 1.209 . S
C11 O8 1.258 . S
C11 O13 1.282 . S
O12 Cd4 2.277 . S
O12 C5 1.226 . S
O13 Cd4 2.356 . S
O13 C11 1.282 . S
C14 O15 1.306 . S
C14 O17 1.160 . S
O15 C14 1.306 . S
O15 Cd16 2.228 . S
Cd16 O15 2.228 . S
Cd16 O20 2.273 . S
Cd16 O24 2.277 . S
O17 C14 1.160 . S
O17 Cd18 2.203 . S
Cd18 O17 2.203 . S
Cd18 O20 2.411 . S
Cd18 O21 2.333 . S
Cd18 O22 2.352 . S
Cd18 O26 2.277 . S
Cd18 O27 2.356 . S
C19 O24 1.209 . S
C19 O26 1.226 . S
O20 Cd16 2.273 . S
O20 Cd18 2.411 . S
O20 C23 1.320 . S
O21 Cd18 2.333 . S
O21 C23 1.214 . S
O22 Cd18 2.352 . S
O22 C25 1.258 . S
C23 O20 1.320 . S
C23 O21 1.214 . S
O24 Cd16 2.277 . S
O24 C19 1.209 . S
C25 O22 1.258 . S
C25 O27 1.282 . S
O26 Cd18 2.277 . S
O26 C19 1.226 . S
O27 Cd18 2.356 . S
O27 C25 1.282 . S
C28 O29 1.306 . S
C28 O31 1.160 . S
O29 C28 1.306 . S
O29 Cd30 2.228 1_556 S
Cd30 O29 2.228 1_554 S
Cd30 O34 2.273 . S
Cd30 O38 2.279 . S
O31 C28 1.160 . S
O31 Cd32 2.203 . S
Cd32 O31 2.203 . S
Cd32 O34 2.411 1_556 S
Cd32 O35 2.333 . S
Cd32 O36 2.352 . S
Cd32 O40 2.277 . S
Cd32 O41 2.356 . S
C33 O38 1.206 1_556 S
C33 O40 1.226 . S
O34 Cd30 2.273 . S
O34 Cd32 2.411 1_554 S
O34 C37 1.320 . S
O35 Cd32 2.333 . S
O35 C37 1.214 1_556 S
O36 Cd32 2.352 . S
O36 C39 1.258 . S
C37 O34 1.320 . S
C37 O35 1.214 1_554 S
O38 Cd30 2.279 . S
O38 C33 1.206 1_554 S
C39 O36 1.258 . S
C39 O41 1.282 . S
O40 Cd32 2.277 . S
O40 C33 1.226 . S
O41 Cd32 2.356 . S
O41 C39 1.282 . S
C42 O43 1.306 . S
C42 O45 1.160 . S
O43 C42 1.306 . S
O43 Cd44 2.228 . S
Cd44 O43 2.228 . S
Cd44 O48 2.273 . S
Cd44 O52 2.277 . S
O45 C42 1.160 . S
O45 Cd46 2.203 . S
Cd46 O45 2.203 . S
Cd46 O48 2.411 . S
Cd46 O49 2.333 . S
Cd46 O50 2.352 . S
Cd46 O54 2.277 . S
Cd46 O55 2.356 . S
C47 O52 1.209 . S
C47 O54 1.226 . S
O48 Cd44 2.273 . S
O48 Cd46 2.411 . S
O48 C51 1.320 . S
O49 Cd46 2.333 . S
O49 C51 1.214 . S
O50 Cd46 2.352 . S
O50 C53 1.258 . S
C51 O48 1.320 . S
C51 O49 1.214 . S
O52 Cd44 2.277 . S
O52 C47 1.209 . S
C53 O50 1.258 . S
C53 O55 1.282 . S
O54 Cd46 2.277 . S
O54 C47 1.226 . S
O55 Cd46 2.356 . S
O55 C53 1.282 . S
C56 O57 1.306 . S
C56 O59 1.160 . S
O57 C56 1.306 . S
O57 Cd58 2.228 . S
Cd58 O57 2.228 . S
Cd58 O62 2.273 . S
Cd58 O66 2.277 . S
O59 C56 1.160 . S
O59 Cd60 2.203 . S
Cd60 O59 2.203 . S
Cd60 O62 2.411 . S
Cd60 O63 2.333 . S
Cd60 O64 2.352 . S
Cd60 O68 2.277 . S
Cd60 O69 2.356 . S
C61 O66 1.209 . S
C61 O68 1.226 . S
O62 Cd58 2.273 . S
O62 Cd60 2.411 . S
O62 C65 1.320 . S
O63 Cd60 2.333 . S
O63 C65 1.214 . S
O64 Cd60 2.352 . S
O64 C67 1.258 . S
C65 O62 1.320 . S
C65 O63 1.214 . S
O66 Cd58 2.277 . S
O66 C61 1.209 . S
C67 O64 1.258 . S
C67 O69 1.282 . S
O68 Cd60 2.277 . S
O68 C61 1.226 . S
O69 Cd60 2.356 . S
O69 C67 1.282 . S
C70 O71 1.306 . S
C70 O73 1.160 . S
O71 C70 1.306 . S
O71 Cd72 2.228 1_556 S
Cd72 O71 2.228 1_554 S
Cd72 O76 2.273 . S
Cd72 O80 2.279 . S
O73 C70 1.160 . S
O73 Cd74 2.203 . S
Cd74 O73 2.203 . S
Cd74 O76 2.411 1_556 S
Cd74 O77 2.333 . S
Cd74 O78 2.352 . S
Cd74 O82 2.277 . S
Cd74 O83 2.356 . S
C75 O80 1.206 1_556 S
C75 O82 1.226 . S
O76 Cd72 2.273 . S
O76 Cd74 2.411 1_554 S
O76 C79 1.320 . S
O77 Cd74 2.333 . S
O77 C79 1.214 1_556 S
O78 Cd74 2.352 . S
O78 C81 1.258 . S
C79 O76 1.320 . S
C79 O77 1.214 1_554 S
O80 Cd72 2.279 . S
O80 C75 1.206 1_554 S
C81 O78 1.258 . S
C81 O83 1.282 . S
O82 Cd74 2.277 . S
O82 C75 1.226 . S
O83 Cd74 2.356 . S
O83 C81 1.282 . S
C84 O85 1.306 . S
C84 O87 1.160 . S
O85 C84 1.306 . S
O85 Cd86 2.228 . S
Cd86 O85 2.228 . S
Cd86 O90 2.273 . S
Cd86 O94 2.277 . S
O87 C84 1.160 . S
O87 Cd88 2.203 . S
Cd88 O87 2.203 . S
Cd88 O90 2.411 . S
Cd88 O91 2.333 . S
Cd88 O92 2.352 . S
Cd88 O96 2.277 . S
Cd88 O97 2.356 . S
C89 O94 1.209 . S
C89 O96 1.226 . S
O90 Cd86 2.273 . S
O90 Cd88 2.411 . S
O90 C93 1.320 . S
O91 Cd88 2.333 . S
O91 C93 1.214 . S
O92 Cd88 2.352 . S
O92 C95 1.258 . S
C93 O90 1.320 . S
C93 O91 1.214 . S
O94 Cd86 2.277 . S
O94 C89 1.209 . S
C95 O92 1.258 . S
C95 O97 1.282 . S
O96 Cd88 2.277 . S
O96 C89 1.226 . S
O97 Cd88 2.356 . S
O97 C95 1.282 . S
C98 O99 1.306 . S
C98 O101 1.160 . S
O99 C98 1.306 . S
O99 Cd100 2.228 . S
Cd100 O99 2.228 . S
Cd100 O104 2.273 . S
Cd100 O108 2.277 . S
O101 C98 1.160 . S
O101 Cd102 2.203 . S
Cd102 O101 2.203 . S
Cd102 O104 2.411 . S
Cd102 O105 2.333 . S
Cd102 O106 2.352 . S
Cd102 O110 2.277 . S
Cd102 O111 2.356 . S
C103 O108 1.209 . S
C103 O110 1.226 . S
O104 Cd100 2.273 . S
O104 Cd102 2.411 . S
O104 C107 1.320 . S
O105 Cd102 2.333 . S
O105 C107 1.214 . S
O106 Cd102 2.352 . S
O106 C109 1.258 . S
C107 O104 1.320 . S
C107 O105 1.214 . S
O108 Cd100 2.277 . S
O108 C103 1.209 . S
C109 O106 1.258 . S
C109 O111 1.282 . S
O110 Cd102 2.277 . S
O110 C103 1.226 . S
O111 Cd102 2.356 . S
O111 C109 1.282 . S
C112 O113 1.306 . S
C112 O115 1.160 . S
O113 C112 1.306 . S
O113 Cd114 2.228 1_554 S
Cd114 O113 2.228 1_556 S
Cd114 O118 2.273 . S
Cd114 O122 2.279 . S
O115 C112 1.160 . S
O115 Cd116 2.203 . S
Cd116 O115 2.203 . S
Cd116 O118 2.411 1_554 S
Cd116 O119 2.333 . S
Cd116 O120 2.352 . S
Cd116 O124 2.277 . S
Cd116 O125 2.356 . S
C117 O122 1.206 1_554 S
C117 O124 1.226 . S
O118 Cd114 2.273 . S
O118 Cd116 2.411 1_556 S
O118 C121 1.320 . S
O119 Cd116 2.333 . S
O119 C121 1.214 1_554 S
O120 Cd116 2.352 . S
O120 C123 1.258 . S
C121 O118 1.320 . S
C121 O119 1.214 1_556 S
O122 Cd114 2.279 . S
O122 C117 1.206 1_556 S
C123 O120 1.258 . S
C123 O125 1.282 . S
O124 Cd116 2.277 . S
O124 C117 1.226 . S
O125 Cd116 2.356 . S
O125 C123 1.282 . S
C126 O127 1.306 . S
C126 O129 1.160 . S
O127 C126 1.306 . S
O127 Cd128 2.228 . S
Cd128 O127 2.228 . S
Cd128 O132 2.273 . S
Cd128 O136 2.277 . S
O129 C126 1.160 . S
O129 Cd130 2.203 . S
Cd130 O129 2.203 . S
Cd130 O132 2.411 . S
Cd130 O133 2.333 . S
Cd130 O134 2.352 . S
Cd130 O138 2.277 . S
Cd130 O139 2.356 . S
C131 O136 1.209 . S
C131 O138 1.226 . S
O132 Cd128 2.273 . S
O132 Cd130 2.411 . S
O132 C135 1.320 . S
O133 Cd130 2.333 . S
O133 C135 1.214 . S
O134 Cd130 2.352 . S
O134 C137 1.258 . S
C135 O132 1.320 . S
C135 O133 1.214 . S
O136 Cd128 2.277 . S
O136 C131 1.209 . S
C137 O134 1.258 . S
C137 O139 1.282 . S
O138 Cd130 2.277 . S
O138 C131 1.226 . S
O139 Cd130 2.356 . S
O139 C137 1.282 . S
C140 O141 1.306 . S
C140 O143 1.160 . S
O141 C140 1.306 . S
O141 Cd142 2.228 . S
Cd142 O141 2.228 . S
Cd142 O146 2.273 . S
Cd142 O150 2.277 . S
O143 C140 1.160 . S
O143 Cd144 2.203 . S
Cd144 O143 2.203 . S
Cd144 O146 2.411 . S
Cd144 O147 2.333 . S
Cd144 O148 2.352 . S
Cd144 O152 2.277 . S
Cd144 O153 2.356 . S
C145 O150 1.209 . S
C145 O152 1.226 . S
O146 Cd142 2.273 . S
O146 Cd144 2.411 . S
O146 C149 1.320 . S
O147 Cd144 2.333 . S
O147 C149 1.214 . S
O148 Cd144 2.352 . S
O148 C151 1.258 . S
C149 O146 1.320 . S
C149 O147 1.214 . S
O150 Cd142 2.277 . S
O150 C145 1.209 . S
C151 O148 1.258 . S
C151 O153 1.282 . S
O152 Cd144 2.277 . S
O152 C145 1.226 . S
O153 Cd144 2.356 . S
O153 C151 1.282 . S
C154 O155 1.306 . S
C154 O157 1.160 . S
O155 C154 1.306 . S
O155 Cd156 2.228 1_554 S
Cd156 O155 2.228 1_556 S
Cd156 O160 2.273 . S
Cd156 O164 2.279 . S
O157 C154 1.160 . S
O157 Cd158 2.203 . S
Cd158 O157 2.203 . S
Cd158 O160 2.411 1_554 S
Cd158 O161 2.333 . S
Cd158 O162 2.352 . S
Cd158 O166 2.277 . S
Cd158 O167 2.356 . S
C159 O164 1.206 1_554 S
C159 O166 1.226 . S
O160 Cd156 2.273 . S
O160 Cd158 2.411 1_556 S
O160 C163 1.320 . S
O161 Cd158 2.333 . S
O161 C163 1.214 1_554 S
O162 Cd158 2.352 . S
O162 C165 1.258 . S
C163 O160 1.320 . S
C163 O161 1.214 1_556 S
O164 Cd156 2.279 . S
O164 C159 1.206 1_556 S
C165 O162 1.258 . S
C165 O167 1.282 . S
O166 Cd158 2.277 . S
O166 C159 1.226 . S
O167 Cd158 2.356 . S
O167 C165 1.282 . S
H168 C176 0.929 . S
H169 C178 0.930 . S
H170 C180 0.930 . S
H171 C183 0.929 . S
H172 C186 0.930 . S
H173 C188 0.960 . S
H174 C188 0.960 . S
H175 C188 0.960 . S
C176 H168 0.929 . S
C176 C177 1.377 . S
C176 C178 1.384 . S
C177 C176 1.377 . S
C177 C183 1.390 . S
C178 H169 0.930 . S
C178 C176 1.384 . S
C178 C179 1.372 . S
C179 C178 1.372 . S
C179 C180 1.400 . S
C179 C184 1.490 . S
C180 H170 0.930 . S
C180 C179 1.400 . S
C180 C183 1.386 . S
H181 C197 0.930 . S
H182 C198 0.931 . S
C183 H171 0.929 . S
C183 C177 1.390 . S
C183 C180 1.386 . S
C184 C179 1.490 . S
C184 C186 1.395 . S
C184 C187 1.403 . S
H185 C191 0.930 . S
C186 H172 0.930 . S
C186 C184 1.395 . S
C186 C189 1.403 . S
C187 C184 1.403 . S
C187 C188 1.524 . S
C187 C191 1.400 . S
C188 H173 0.960 . S
C188 H174 0.960 . S
C188 H175 0.960 . S
C188 C187 1.524 . S
C189 C186 1.403 . S
C189 C190 1.392 . S
C189 C193 1.495 . S
C190 C189 1.392 . S
C190 C191 1.385 . S
C190 C192 1.478 . S
C191 H185 0.930 . S
C191 C187 1.400 . S
C191 C190 1.385 . S
C192 C190 1.478 . S
C192 C194 1.381 . S
C192 C198 1.383 . S
C193 C189 1.495 . S
C193 H199 0.959 . S
C193 H200 0.961 . S
C193 H201 0.960 . S
C194 C192 1.381 . S
C194 C195 1.394 . S
C194 H202 0.930 . S
C195 C194 1.394 . S
C195 C196 1.383 . S
C195 H203 0.929 . S
C196 C195 1.383 . S
C196 C197 1.377 . S
C197 H181 0.930 . S
C197 C196 1.377 . S
C197 C198 1.379 . S
C198 H182 0.931 . S
C198 C192 1.383 . S
C198 C197 1.379 . S
H199 C193 0.959 . S
H200 C193 0.961 . S
H201 C193 0.960 . S
H202 C194 0.930 . S
H203 C195 0.929 . S
H204 C212 0.929 . S
H205 C214 0.930 . S
H206 C216 0.930 . S
H207 C219 0.929 . S
H208 C222 0.930 . S
H209 C224 0.960 . S
H210 C224 0.960 . S
H211 C224 0.960 . S
C212 H204 0.929 . S
C212 C213 1.377 . S
C212 C214 1.384 . S
C213 C212 1.377 . S
C213 C219 1.390 . S
C214 H205 0.930 . S
C214 C212 1.384 . S
C214 C215 1.372 . S
C215 C214 1.372 . S
C215 C216 1.400 . S
C215 C220 1.490 . S
C216 H206 0.930 . S
C216 C215 1.400 . S
C216 C219 1.386 . S
H217 C233 0.930 . S
H218 C234 0.931 . S
C219 H207 0.929 . S
C219 C213 1.390 . S
C219 C216 1.386 . S
C220 C215 1.490 . S
C220 C222 1.395 . S
C220 C223 1.403 . S
H221 C227 0.930 . S
C222 H208 0.930 . S
C222 C220 1.395 . S
C222 C225 1.403 1_655 S
C223 C220 1.403 . S
C223 C224 1.524 . S
C223 C227 1.400 1_655 S
C224 H209 0.960 . S
C224 H210 0.960 . S
C224 H211 0.960 . S
C224 C223 1.524 . S
C225 C222 1.403 1_455 S
C225 C226 1.392 . S
C225 C229 1.495 . S
C226 C225 1.392 . S
C226 C227 1.385 . S
C226 C228 1.478 . S
C227 H221 0.930 . S
C227 C223 1.400 1_455 S
C227 C226 1.385 . S
C228 C226 1.478 . S
C228 C230 1.381 . S
C228 C234 1.383 . S
C229 C225 1.495 . S
C229 H235 0.959 . S
C229 H236 0.961 . S
C229 H237 0.960 . S
C230 C228 1.381 . S
C230 C231 1.394 . S
C230 H238 0.930 . S
C231 C230 1.394 . S
C231 C232 1.383 . S
C231 H239 0.929 . S
C232 C231 1.383 . S
C232 C233 1.377 . S
C233 H217 0.930 . S
C233 C232 1.377 . S
C233 C234 1.379 . S
C234 H218 0.931 . S
C234 C228 1.383 . S
C234 C233 1.379 . S
H235 C229 0.959 . S
H236 C229 0.961 . S
H237 C229 0.960 . S
H238 C230 0.930 . S
H239 C231 0.929 . S
H240 C248 0.929 . S
H241 C250 0.930 . S
H242 C252 0.930 . S
H243 C255 0.929 1_554 S
H244 C258 0.930 . S
H245 C260 0.960 . S
H246 C260 0.960 . S
H247 C260 0.960 . S
C248 H240 0.929 . S
C248 C249 1.377 . S
C248 C250 1.384 . S
C249 C248 1.377 . S
C249 C255 1.390 . S
C250 H241 0.930 . S
C250 C248 1.384 . S
C250 C251 1.372 . S
C251 C250 1.372 . S
C251 C252 1.400 1_556 S
C251 C256 1.490 . S
C252 H242 0.930 . S
C252 C251 1.400 1_554 S
C252 C255 1.386 1_554 S
H253 C269 0.930 . S
H254 C270 0.931 . S
C255 H243 0.929 1_556 S
C255 C249 1.390 . S
C255 C252 1.386 1_556 S
C256 C251 1.490 . S
C256 C258 1.395 . S
C256 C259 1.403 1_556 S
H257 C263 0.930 . S
C258 H244 0.930 . S
C258 C256 1.395 . S
C258 C261 1.403 1_565 S
C259 C256 1.403 1_554 S
C259 C260 1.524 . S
C259 C263 1.400 1_565 S
C260 H245 0.960 . S
C260 H246 0.960 . S
C260 H247 0.960 . S
C260 C259 1.524 . S
C261 C258 1.403 1_545 S
C261 C262 1.392 1_556 S
C261 C265 1.495 . S
C262 C261 1.392 1_554 S
C262 C263 1.385 . S
C262 C264 1.478 . S
C263 H257 0.930 . S
C263 C259 1.400 1_545 S
C263 C262 1.385 . S
C264 C262 1.478 . S
C264 C266 1.381 1_554 S
C264 C270 1.383 . S
C265 C261 1.495 . S
C265 H271 0.959 . S
C265 H272 0.961 . S
C265 H273 0.960 . S
C266 C264 1.381 1_556 S
C266 C267 1.394 1_556 S
C266 H274 0.930 . S
C267 C266 1.394 1_554 S
C267 C268 1.383 . S
C267 H275 0.929 1_554 S
C268 C267 1.383 . S
C268 C269 1.377 . S
C269 H253 0.930 . S
C269 C268 1.377 . S
C269 C270 1.379 . S
C270 H254 0.931 . S
C270 C264 1.383 . S
C270 C269 1.379 . S
H271 C265 0.959 . S
H272 C265 0.961 . S
H273 C265 0.960 . S
H274 C266 0.930 . S
H275 C267 0.929 1_556 S
H276 C284 0.929 . S
H277 C286 0.930 . S
H278 C288 0.930 . S
H279 C291 0.929 . S
H280 C294 0.930 . S
H281 C296 0.960 . S
H282 C296 0.960 . S
H283 C296 0.960 . S
C284 H276 0.929 . S
C284 C285 1.377 . S
C284 C286 1.384 . S
C285 C284 1.377 . S
C285 C291 1.390 . S
C286 H277 0.930 . S
C286 C284 1.384 . S
C286 C287 1.372 . S
C287 C286 1.372 . S
C287 C288 1.400 . S
C287 C292 1.490 . S
C288 H278 0.930 . S
C288 C287 1.400 . S
C288 C291 1.386 . S
H289 C305 0.930 . S
H290 C306 0.931 . S
C291 H279 0.929 . S
C291 C285 1.390 . S
C291 C288 1.386 . S
C292 C287 1.490 . S
C292 C294 1.395 . S
C292 C295 1.403 . S
H293 C299 0.930 . S
C294 H280 0.930 . S
C294 C292 1.395 . S
C294 C297 1.403 . S
C295 C292 1.403 . S
C295 C296 1.524 . S
C295 C299 1.400 . S
C296 H281 0.960 . S
C296 H282 0.960 . S
C296 H283 0.960 . S
C296 C295 1.524 . S
C297 C294 1.403 . S
C297 C298 1.392 . S
C297 C301 1.495 . S
C298 C297 1.392 . S
C298 C299 1.385 . S
C298 C300 1.478 . S
C299 H293 0.930 . S
C299 C295 1.400 . S
C299 C298 1.385 . S
C300 C298 1.478 . S
C300 C302 1.381 . S
C300 C306 1.383 . S
C301 C297 1.495 . S
C301 H307 0.959 . S
C301 H308 0.961 . S
C301 H309 0.960 . S
C302 C300 1.381 . S
C302 C303 1.394 . S
C302 H310 0.930 . S
C303 C302 1.394 . S
C303 C304 1.383 . S
C303 H311 0.929 . S
C304 C303 1.383 . S
C304 C305 1.377 . S
C305 H289 0.930 . S
C305 C304 1.377 . S
C305 C306 1.379 . S
C306 H290 0.931 . S
C306 C300 1.383 . S
C306 C305 1.379 . S
H307 C301 0.959 . S
H308 C301 0.961 . S
H309 C301 0.960 . S
H310 C302 0.930 . S
H311 C303 0.929 . S
H312 C320 0.929 . S
H313 C322 0.930 . S
H314 C324 0.930 . S
H315 C327 0.929 . S
H316 C330 0.930 . S
H317 C332 0.960 . S
H318 C332 0.960 . S
H319 C332 0.960 . S
C320 H312 0.929 . S
C320 C321 1.377 . S
C320 C322 1.384 . S
C321 C320 1.377 . S
C321 C327 1.390 . S
C322 H313 0.930 . S
C322 C320 1.384 . S
C322 C323 1.372 . S
C323 C322 1.372 . S
C323 C324 1.400 . S
C323 C328 1.490 . S
C324 H314 0.930 . S
C324 C323 1.400 . S
C324 C327 1.386 . S
H325 C341 0.930 . S
H326 C342 0.931 . S
C327 H315 0.929 . S
C327 C321 1.390 . S
C327 C324 1.386 . S
C328 C323 1.490 . S
C328 C330 1.395 . S
C328 C331 1.403 . S
H329 C335 0.930 . S
C330 H316 0.930 . S
C330 C328 1.395 . S
C330 C333 1.403 1_655 S
C331 C328 1.403 . S
C331 C332 1.524 . S
C331 C335 1.400 1_655 S
C332 H317 0.960 . S
C332 H318 0.960 . S
C332 H319 0.960 . S
C332 C331 1.524 . S
C333 C330 1.403 1_455 S
C333 C334 1.392 . S
C333 C337 1.495 . S
C334 C333 1.392 . S
C334 C335 1.385 . S
C334 C336 1.478 . S
C335 H329 0.930 . S
C335 C331 1.400 1_455 S
C335 C334 1.385 . S
C336 C334 1.478 . S
C336 C338 1.381 . S
C336 C342 1.383 . S
C337 C333 1.495 . S
C337 H343 0.959 . S
C337 H344 0.961 . S
C337 H345 0.960 . S
C338 C336 1.381 . S
C338 C339 1.394 . S
C338 H346 0.930 . S
C339 C338 1.394 . S
C339 C340 1.383 . S
C339 H347 0.929 . S
C340 C339 1.383 . S
C340 C341 1.377 . S
C341 H325 0.930 . S
C341 C340 1.377 . S
C341 C342 1.379 . S
C342 H326 0.931 . S
C342 C336 1.383 . S
C342 C341 1.379 . S
H343 C337 0.959 . S
H344 C337 0.961 . S
H345 C337 0.960 . S
H346 C338 0.930 . S
H347 C339 0.929 . S
H348 C356 0.929 . S
H349 C358 0.930 . S
H350 C360 0.930 . S
H351 C363 0.929 . S
H352 C366 0.930 . S
H353 C368 0.960 . S
H354 C368 0.960 . S
H355 C368 0.960 . S
C356 H348 0.929 . S
C356 C357 1.377 . S
C356 C358 1.384 . S
C357 C356 1.377 . S
C357 C363 1.390 . S
C358 H349 0.930 . S
C358 C356 1.384 . S
C358 C359 1.372 . S
C359 C358 1.372 . S
C359 C360 1.400 . S
C359 C364 1.490 . S
C360 H350 0.930 . S
C360 C359 1.400 . S
C360 C363 1.386 . S
H361 C377 0.930 . S
H362 C378 0.931 . S
C363 H351 0.929 . S
C363 C357 1.390 . S
C363 C360 1.386 . S
C364 C359 1.490 . S
C364 C366 1.395 . S
C364 C367 1.403 1_554 S
H365 C371 0.930 . S
C366 H352 0.930 . S
C366 C364 1.395 . S
C366 C369 1.403 1_565 S
C367 C364 1.403 1_556 S
C367 C368 1.524 . S
C367 C371 1.400 1_565 S
C368 H353 0.960 . S
C368 H354 0.960 . S
C368 H355 0.960 . S
C368 C367 1.524 . S
C369 C366 1.403 1_545 S
C369 C370 1.392 1_554 S
C369 C373 1.495 . S
C370 C369 1.392 1_556 S
C370 C371 1.385 . S
C370 C372 1.478 . S
C371 H365 0.930 . S
C371 C367 1.400 1_545 S
C371 C370 1.385 . S
C372 C370 1.478 . S
C372 C374 1.381 . S
C372 C378 1.383 . S
C373 C369 1.495 . S
C373 H379 0.959 . S
C373 H380 0.961 . S
C373 H381 0.960 . S
C374 C372 1.381 . S
C374 C375 1.394 . S
C374 H382 0.930 . S
C375 C374 1.394 . S
C375 C376 1.383 . S
C375 H383 0.929 . S
C376 C375 1.383 . S
C376 C377 1.377 . S
C377 H361 0.930 . S
C377 C376 1.377 . S
C377 C378 1.379 . S
C378 H362 0.931 . S
C378 C372 1.383 . S
C378 C377 1.379 . S
H379 C373 0.959 . S
H380 C373 0.961 . S
H381 C373 0.960 . S
H382 C374 0.930 . S
H383 C375 0.929 . S
H384 C392 0.929 . S
H385 C394 0.930 . S
H386 C396 0.930 . S
H387 C399 0.929 . S
H388 C402 0.930 . S
H389 C404 0.960 . S
H390 C404 0.960 . S
H391 C404 0.960 . S
C392 H384 0.929 . S
C392 C393 1.377 . S
C392 C394 1.384 . S
C393 C392 1.377 . S
C393 C399 1.390 . S
C394 H385 0.930 . S
C394 C392 1.384 . S
C394 C395 1.372 . S
C395 C394 1.372 . S
C395 C396 1.400 . S
C395 C400 1.490 . S
C396 H386 0.930 . S
C396 C395 1.400 . S
C396 C399 1.386 . S
H397 C413 0.930 . S
H398 C414 0.931 . S
C399 H387 0.929 . S
C399 C393 1.390 . S
C399 C396 1.386 . S
C400 C395 1.490 . S
C400 C402 1.395 . S
C400 C403 1.403 . S
H401 C407 0.930 . S
C402 H388 0.930 . S
C402 C400 1.395 . S
C402 C405 1.403 1_556 S
C403 C400 1.403 . S
C403 C404 1.524 . S
C403 C407 1.400 1_556 S
C404 H389 0.960 . S
C404 H390 0.960 . S
C404 H391 0.960 . S
C404 C403 1.524 . S
C405 C402 1.403 1_554 S
C405 C406 1.392 . S
C405 C409 1.495 . S
C406 C405 1.392 . S
C406 C407 1.385 . S
C406 C408 1.478 . S
C407 H401 0.930 . S
C407 C403 1.400 1_554 S
C407 C406 1.385 . S
C408 C406 1.478 . S
C408 C410 1.381 . S
C408 C414 1.383 . S
C409 C405 1.495 . S
C409 H415 0.959 . S
C409 H416 0.961 . S
C409 H417 0.960 . S
C410 C408 1.381 . S
C410 C411 1.394 . S
C410 H418 0.930 . S
C411 C410 1.394 . S
C411 C412 1.383 . S
C411 H419 0.929 . S
C412 C411 1.383 . S
C412 C413 1.377 . S
C413 H397 0.930 . S
C413 C412 1.377 . S
C413 C414 1.379 . S
C414 H398 0.931 . S
C414 C408 1.383 . S
C414 C413 1.379 . S
H415 C409 0.959 . S
H416 C409 0.961 . S
H417 C409 0.960 . S
H418 C410 0.930 . S
H419 C411 0.929 . S
H420 C428 0.929 . S
H421 C430 0.930 . S
H422 C432 0.930 . S
H423 C435 0.929 . S
H424 C438 0.930 . S
H425 C440 0.960 . S
H426 C440 0.960 . S
H427 C440 0.960 . S
C428 H420 0.929 . S
C428 C429 1.377 . S
C428 C430 1.384 . S
C429 C428 1.377 . S
C429 C435 1.390 . S
C430 H421 0.930 . S
C430 C428 1.384 . S
C430 C431 1.372 . S
C431 C430 1.372 . S
C431 C432 1.400 . S
C431 C436 1.490 . S
C432 H422 0.930 . S
C432 C431 1.400 . S
C432 C435 1.386 . S
H433 C449 0.930 . S
H434 C450 0.931 . S
C435 H423 0.929 . S
C435 C429 1.390 . S
C435 C432 1.386 . S
C436 C431 1.490 . S
C436 C438 1.395 . S
C436 C439 1.403 . S
H437 C443 0.930 . S
C438 H424 0.930 . S
C438 C436 1.395 . S
C438 C441 1.403 . S
C439 C436 1.403 . S
C439 C440 1.524 . S
C439 C443 1.400 . S
C440 H425 0.960 . S
C440 H426 0.960 . S
C440 H427 0.960 . S
C440 C439 1.524 . S
C441 C438 1.403 . S
C441 C442 1.392 . S
C441 C445 1.495 . S
C442 C441 1.392 . S
C442 C443 1.385 . S
C442 C444 1.478 . S
C443 H437 0.930 . S
C443 C439 1.400 . S
C443 C442 1.385 . S
C444 C442 1.478 . S
C444 C446 1.381 . S
C444 C450 1.383 . S
C445 C441 1.495 . S
C445 H451 0.959 . S
C445 H452 0.961 . S
C445 H453 0.960 . S
C446 C444 1.381 . S
C446 C447 1.394 . S
C446 H454 0.930 . S
C447 C446 1.394 . S
C447 C448 1.383 . S
C447 H455 0.929 . S
C448 C447 1.383 . S
C448 C449 1.377 . S
C449 H433 0.930 . S
C449 C448 1.377 . S
C449 C450 1.379 . S
C450 H434 0.931 . S
C450 C444 1.383 . S
C450 C449 1.379 . S
H451 C445 0.959 . S
H452 C445 0.961 . S
H453 C445 0.960 . S
H454 C446 0.930 . S
H455 C447 0.929 . S
H456 C464 0.929 . S
H457 C466 0.930 . S
H458 C468 0.930 . S
H459 C471 0.929 . S
H460 C474 0.930 . S
H461 C476 0.960 . S
H462 C476 0.960 . S
H463 C476 0.960 . S
C464 H456 0.929 . S
C464 C465 1.377 . S
C464 C466 1.384 . S
C465 C464 1.377 . S
C465 C471 1.390 . S
C466 H457 0.930 . S
C466 C464 1.384 . S
C466 C467 1.372 . S
C467 C466 1.372 . S
C467 C468 1.400 . S
C467 C472 1.490 . S
C468 H458 0.930 . S
C468 C467 1.400 . S
C468 C471 1.386 . S
H469 C485 0.930 . S
H470 C486 0.931 . S
C471 H459 0.929 . S
C471 C465 1.390 . S
C471 C468 1.386 . S
C472 C467 1.490 . S
C472 C474 1.395 . S
C472 C475 1.403 . S
H473 C479 0.930 . S
C474 H460 0.930 . S
C474 C472 1.395 . S
C474 C477 1.403 . S
C475 C472 1.403 . S
C475 C476 1.524 . S
C475 C479 1.400 . S
C476 H461 0.960 . S
C476 H462 0.960 . S
C476 H463 0.960 . S
C476 C475 1.524 . S
C477 C474 1.403 . S
C477 C478 1.392 . S
C477 C481 1.495 . S
C478 C477 1.392 . S
C478 C479 1.385 . S
C478 C480 1.478 . S
C479 H473 0.930 . S
C479 C475 1.400 . S
C479 C478 1.385 . S
C480 C478 1.478 . S
C480 C482 1.381 . S
C480 C486 1.383 . S
C481 C477 1.495 . S
C481 H487 0.959 . S
C481 H488 0.961 . S
C481 H489 0.960 . S
C482 C480 1.381 . S
C482 C483 1.394 . S
C482 H490 0.930 . S
C483 C482 1.394 . S
C483 C484 1.383 . S
C483 H491 0.929 . S
C484 C483 1.383 . S
C484 C485 1.377 . S
C485 H469 0.930 . S
C485 C484 1.377 . S
C485 C486 1.379 . S
C486 H470 0.931 . S
C486 C480 1.383 . S
C486 C485 1.379 . S
H487 C481 0.959 . S
H488 C481 0.961 . S
H489 C481 0.960 . S
H490 C482 0.930 . S
H491 C483 0.929 . S
H492 C500 0.929 . S
H493 C502 0.930 . S
H494 C504 0.930 . S
H495 C507 0.929 . S
H496 C510 0.930 . S
H497 C512 0.960 . S
H498 C512 0.960 . S
H499 C512 0.960 . S
C500 H492 0.929 . S
C500 C501 1.377 . S
C500 C502 1.384 . S
C501 C500 1.377 . S
C501 C507 1.390 . S
C502 H493 0.930 . S
C502 C500 1.384 . S
C502 C503 1.372 . S
C503 C502 1.372 . S
C503 C504 1.400 . S
C503 C508 1.490 . S
C504 H494 0.930 . S
C504 C503 1.400 . S
C504 C507 1.386 . S
H505 C521 0.930 . S
H506 C522 0.931 . S
C507 H495 0.929 . S
C507 C501 1.390 . S
C507 C504 1.386 . S
C508 C503 1.490 . S
C508 C510 1.395 1_554 S
C508 C511 1.403 . S
H509 C515 0.930 . S
C510 H496 0.930 . S
C510 C508 1.395 1_556 S
C510 C513 1.403 . S
C511 C508 1.403 . S
C511 C512 1.524 . S
C511 C515 1.400 1_554 S
C512 H497 0.960 . S
C512 H498 0.960 . S
C512 H499 0.960 . S
C512 C511 1.524 . S
C513 C510 1.403 . S
C513 C514 1.392 . S
C513 C517 1.495 . S
C514 C513 1.392 . S
C514 C515 1.385 . S
C514 C516 1.478 . S
C515 H509 0.930 . S
C515 C511 1.400 1_556 S
C515 C514 1.385 . S
C516 C514 1.478 . S
C516 C518 1.381 . S
C516 C522 1.383 . S
C517 C513 1.495 . S
C517 H523 0.959 . S
C517 H524 0.961 . S
C517 H525 0.960 . S
C518 C516 1.381 . S
C518 C519 1.394 . S
C518 H526 0.930 . S
C519 C518 1.394 . S
C519 C520 1.383 . S
C519 H527 0.929 . S
C520 C519 1.383 . S
C520 C521 1.377 . S
C521 H505 0.930 . S
C521 C520 1.377 . S
C521 C522 1.379 . S
C522 H506 0.931 . S
C522 C516 1.383 . S
C522 C521 1.379 . S
H523 C517 0.959 . S
H524 C517 0.961 . S
H525 C517 0.960 . S
H526 C518 0.930 . S
H527 C519 0.929 . S
H528 C536 0.929 . S
H529 C538 0.930 . S
H530 C540 0.930 . S
H531 C543 0.929 . S
H532 C546 0.930 . S
H533 C548 0.960 . S
H534 C548 0.960 . S
H535 C548 0.960 . S
C536 H528 0.929 . S
C536 C537 1.377 . S
C536 C538 1.384 . S
C537 C536 1.377 . S
C537 C543 1.390 . S
C538 H529 0.930 . S
C538 C536 1.384 . S
C538 C539 1.372 . S
C539 C538 1.372 . S
C539 C540 1.400 . S
C539 C544 1.490 . S
C540 H530 0.930 . S
C540 C539 1.400 . S
C540 C543 1.386 . S
H541 C557 0.930 . S
H542 C558 0.931 . S
C543 H531 0.929 . S
C543 C537 1.390 . S
C543 C540 1.386 . S
C544 C539 1.490 . S
C544 C546 1.395 . S
C544 C547 1.403 . S
H545 C551 0.930 . S
C546 H532 0.930 . S
C546 C544 1.395 . S
C546 C549 1.403 . S
C547 C544 1.403 . S
C547 C548 1.524 . S
C547 C551 1.400 . S
C548 H533 0.960 . S
C548 H534 0.960 . S
C548 H535 0.960 . S
C548 C547 1.524 . S
C549 C546 1.403 . S
C549 C550 1.392 . S
C549 C553 1.495 . S
C550 C549 1.392 . S
C550 C551 1.385 . S
C550 C552 1.478 . S
C551 H545 0.930 . S
C551 C547 1.400 . S
C551 C550 1.385 . S
C552 C550 1.478 . S
C552 C554 1.381 . S
C552 C558 1.383 . S
C553 C549 1.495 . S
C553 H559 0.959 . S
C553 H560 0.961 . S
C553 H561 0.960 . S
C554 C552 1.381 . S
C554 C555 1.394 . S
C554 H562 0.930 . S
C555 C554 1.394 . S
C555 C556 1.383 . S
C555 H563 0.929 . S
C556 C555 1.383 . S
C556 C557 1.377 . S
C557 H541 0.930 . S
C557 C556 1.377 . S
C557 C558 1.379 . S
C558 H542 0.931 . S
C558 C552 1.383 . S
C558 C557 1.379 . S
H559 C553 0.959 . S
H560 C553 0.961 . S
H561 C553 0.960 . S
H562 C554 0.930 . S
H563 C555 0.929 . S
H564 C572 0.929 . S
H565 C574 0.930 . S
H566 C576 0.930 . S
H567 C579 0.929 . S
H568 C582 0.930 . S
H569 C584 0.960 . S
H570 C584 0.960 . S
H571 C584 0.960 . S
C572 H564 0.929 . S
C572 C573 1.377 . S
C572 C574 1.384 . S
C573 C572 1.377 . S
C573 C579 1.390 . S
C574 H565 0.930 . S
C574 C572 1.384 . S
C574 C575 1.372 . S
C575 C574 1.372 . S
C575 C576 1.400 . S
C575 C580 1.490 . S
C576 H566 0.930 . S
C576 C575 1.400 . S
C576 C579 1.386 . S
H577 C593 0.930 . S
H578 C594 0.931 . S
C579 H567 0.929 . S
C579 C573 1.390 . S
C579 C576 1.386 . S
C580 C575 1.490 . S
C580 C582 1.395 . S
C580 C583 1.403 . S
H581 C587 0.930 . S
C582 H568 0.930 . S
C582 C580 1.395 . S
C582 C585 1.403 . S
C583 C580 1.403 . S
C583 C584 1.524 . S
C583 C587 1.400 . S
C584 H569 0.960 . S
C584 H570 0.960 . S
C584 H571 0.960 . S
C584 C583 1.524 . S
C585 C582 1.403 . S
C585 C586 1.392 . S
C585 C589 1.495 . S
C586 C585 1.392 . S
C586 C587 1.385 . S
C586 C588 1.478 . S
C587 H581 0.930 . S
C587 C583 1.400 . S
C587 C586 1.385 . S
C588 C586 1.478 . S
C588 C590 1.381 . S
C588 C594 1.383 . S
C589 C585 1.495 . S
C589 H595 0.959 . S
C589 H596 0.961 . S
C589 H597 0.960 . S
C590 C588 1.381 . S
C590 C591 1.394 . S
C590 H598 0.930 . S
C591 C590 1.394 . S
C591 C592 1.383 . S
C591 H599 0.929 . S
C592 C591 1.383 . S
C592 C593 1.377 . S
C593 H577 0.930 . S
C593 C592 1.377 . S
C593 C594 1.379 . S
C594 H578 0.931 . S
C594 C588 1.383 . S
C594 C593 1.379 . S
H595 C589 0.959 . S
H596 C589 0.961 . S
H597 C589 0.960 . S
H598 C590 0.930 . S
H599 C591 0.929 . S
H600 C608 0.929 . S
H601 C610 0.930 . S
H602 C612 0.930 . S
H603 C615 0.929 . S
H604 C618 0.930 . S
H605 C620 0.960 . S
H606 C620 0.960 . S
H607 C620 0.960 . S
C608 H600 0.929 . S
C608 C609 1.377 . S
C608 C610 1.384 . S
C609 C608 1.377 . S
C609 C615 1.390 . S
C610 H601 0.930 . S
C610 C608 1.384 . S
C610 C611 1.372 . S
C611 C610 1.372 . S
C611 C612 1.400 . S
C611 C616 1.490 . S
C612 H602 0.930 . S
C612 C611 1.400 . S
C612 C615 1.386 . S
H613 C629 0.930 . S
H614 C630 0.931 . S
C615 H603 0.929 . S
C615 C609 1.390 . S
C615 C612 1.386 . S
C616 C611 1.490 . S
C616 C618 1.395 . S
C616 C619 1.403 . S
H617 C623 0.930 . S
C618 H604 0.930 . S
C618 C616 1.395 . S
C618 C621 1.403 . S
C619 C616 1.403 . S
C619 C620 1.524 . S
C619 C623 1.400 . S
C620 H605 0.960 . S
C620 H606 0.960 . S
C620 H607 0.960 . S
C620 C619 1.524 . S
C621 C618 1.403 . S
C621 C622 1.392 . S
C621 C625 1.495 . S
C622 C621 1.392 . S
C622 C623 1.385 . S
C622 C624 1.478 . S
C623 H617 0.930 . S
C623 C619 1.400 . S
C623 C622 1.385 . S
C624 C622 1.478 . S
C624 C626 1.381 . S
C624 C630 1.383 . S
C625 C621 1.495 . S
C625 H631 0.959 . S
C625 H632 0.961 . S
C625 H633 0.960 . S
C626 C624 1.381 . S
C626 C627 1.394 . S
C626 H634 0.930 . S
C627 C626 1.394 . S
C627 C628 1.383 . S
C627 H635 0.929 . S
C628 C627 1.383 . S
C628 C629 1.377 . S
C629 H613 0.930 . S
C629 C628 1.377 . S
C629 C630 1.379 . S
C630 H614 0.931 . S
C630 C624 1.383 . S
C630 C629 1.379 . S
H631 C625 0.959 . S
H632 C625 0.961 . S
H633 C625 0.960 . S
H634 C626 0.930 . S
H635 C627 0.929 . S
H636 C644 0.929 . S
H637 C646 0.930 . S
H638 C648 0.930 . S
H639 C651 0.929 . S
H640 C654 0.930 . S
H641 C656 0.960 . S
H642 C656 0.960 . S
H643 C656 0.960 . S
C644 H636 0.929 . S
C644 C645 1.377 . S
C644 C646 1.384 . S
C645 C644 1.377 . S
C645 C651 1.390 . S
C646 H637 0.930 . S
C646 C644 1.384 . S
C646 C647 1.372 . S
C647 C646 1.372 . S
C647 C648 1.400 . S
C647 C652 1.490 . S
C648 H638 0.930 . S
C648 C647 1.400 . S
C648 C651 1.386 . S
H649 C665 0.930 1_554 S
H650 C666 0.931 . S
C651 H639 0.929 . S
C651 C645 1.390 . S
C651 C648 1.386 . S
C652 C647 1.490 . S
C652 C654 1.395 . S
C652 C655 1.403 . S
H653 C659 0.930 . S
C654 H640 0.930 . S
C654 C652 1.395 . S
C654 C657 1.403 . S
C655 C652 1.403 . S
C655 C656 1.524 . S
C655 C659 1.400 . S
C656 H641 0.960 . S
C656 H642 0.960 . S
C656 H643 0.960 . S
C656 C655 1.524 . S
C657 C654 1.403 . S
C657 C658 1.392 . S
C657 C661 1.495 . S
C658 C657 1.392 . S
C658 C659 1.385 . S
C658 C660 1.478 . S
C659 H653 0.930 . S
C659 C655 1.400 . S
C659 C658 1.385 . S
C660 C658 1.478 . S
C660 C662 1.381 . S
C660 C666 1.383 . S
C661 C657 1.495 . S
C661 H667 0.959 . S
C661 H668 0.961 . S
C661 H669 0.960 . S
C662 C660 1.381 . S
C662 C663 1.394 . S
C662 H670 0.930 . S
C663 C662 1.394 . S
C663 C664 1.383 . S
C663 H671 0.929 . S
C664 C663 1.383 . S
C664 C665 1.377 . S
C665 H649 0.930 1_556 S
C665 C664 1.377 . S
C665 C666 1.379 . S
C666 H650 0.931 . S
C666 C660 1.383 . S
C666 C665 1.379 . S
H667 C661 0.959 . S
H668 C661 0.961 . S
H669 C661 0.960 . S
H670 C662 0.930 . S
H671 C663 0.929 . S
H672 C680 0.929 . S
H673 C682 0.930 . S
H674 C684 0.930 . S
H675 C687 0.929 . S
H676 C690 0.930 . S
H677 C692 0.960 . S
H678 C692 0.960 . S
H679 C692 0.960 . S
C680 H672 0.929 . S
C680 C681 1.377 . S
C680 C682 1.384 . S
C681 C680 1.377 . S
C681 C687 1.390 . S
C682 H673 0.930 . S
C682 C680 1.384 . S
C682 C683 1.372 . S
C683 C682 1.372 . S
C683 C684 1.400 . S
C683 C688 1.490 . S
C684 H674 0.930 . S
C684 C683 1.400 . S
C684 C687 1.386 . S
H685 C701 0.930 . S
H686 C702 0.931 . S
C687 H675 0.929 . S
C687 C681 1.390 . S
C687 C684 1.386 . S
C688 C683 1.490 . S
C688 C690 1.395 . S
C688 C691 1.403 . S
H689 C695 0.930 . S
C690 H676 0.930 . S
C690 C688 1.395 . S
C690 C693 1.403 . S
C691 C688 1.403 . S
C691 C692 1.524 . S
C691 C695 1.400 . S
C692 H677 0.960 . S
C692 H678 0.960 . S
C692 H679 0.960 . S
C692 C691 1.524 . S
C693 C690 1.403 . S
C693 C694 1.392 . S
C693 C697 1.495 . S
C694 C693 1.392 . S
C694 C695 1.385 . S
C694 C696 1.478 . S
C695 H689 0.930 . S
C695 C691 1.400 . S
C695 C694 1.385 . S
C696 C694 1.478 . S
C696 C698 1.381 . S
C696 C702 1.383 . S
C697 C693 1.495 . S
C697 H703 0.959 . S
C697 H704 0.961 . S
C697 H705 0.960 . S
C698 C696 1.381 . S
C698 C699 1.394 . S
C698 H706 0.930 . S
C699 C698 1.394 . S
C699 C700 1.383 . S
C699 H707 0.929 . S
C700 C699 1.383 . S
C700 C701 1.377 . S
C701 H685 0.930 . S
C701 C700 1.377 . S
C701 C702 1.379 . S
C702 H686 0.931 . S
C702 C696 1.383 . S
C702 C701 1.379 . S
H703 C697 0.959 . S
H704 C697 0.961 . S
H705 C697 0.960 . S
H706 C698 0.930 . S
H707 C699 0.929 . S
H708 C716 0.929 . S
H709 C718 0.930 . S
H710 C720 0.930 . S
H711 C723 0.929 . S
H712 C726 0.930 . S
H713 C728 0.960 . S
H714 C728 0.960 . S
H715 C728 0.960 . S
C716 H708 0.929 . S
C716 C717 1.377 . S
C716 C718 1.384 . S
C717 C716 1.377 . S
C717 C723 1.390 . S
C718 H709 0.930 . S
C718 C716 1.384 . S
C718 C719 1.372 . S
C719 C718 1.372 . S
C719 C720 1.400 . S
C719 C724 1.490 . S
C720 H710 0.930 . S
C720 C719 1.400 . S
C720 C723 1.386 . S
H721 C737 0.930 . S
H722 C738 0.931 . S
C723 H711 0.929 . S
C723 C717 1.390 . S
C723 C720 1.386 . S
C724 C719 1.490 . S
C724 C726 1.395 . S
C724 C727 1.403 . S
H725 C731 0.930 . S
C726 H712 0.930 . S
C726 C724 1.395 . S
C726 C729 1.403 . S
C727 C724 1.403 . S
C727 C728 1.524 . S
C727 C731 1.400 . S
C728 H713 0.960 . S
C728 H714 0.960 . S
C728 H715 0.960 . S
C728 C727 1.524 . S
C729 C726 1.403 . S
C729 C730 1.392 . S
C729 C733 1.495 . S
C730 C729 1.392 . S
C730 C731 1.385 . S
C730 C732 1.478 . S
C731 H725 0.930 . S
C731 C727 1.400 . S
C731 C730 1.385 . S
C732 C730 1.478 . S
C732 C734 1.381 . S
C732 C738 1.383 . S
C733 C729 1.495 . S
C733 H739 0.959 . S
C733 H740 0.961 . S
C733 H741 0.960 . S
C734 C732 1.381 . S
C734 C735 1.394 . S
C734 H742 0.930 . S
C735 C734 1.394 . S
C735 C736 1.383 . S
C735 H743 0.929 . S
C736 C735 1.383 . S
C736 C737 1.377 . S
C737 H721 0.930 . S
C737 C736 1.377 . S
C737 C738 1.379 . S
C738 H722 0.931 . S
C738 C732 1.383 . S
C738 C737 1.379 . S
H739 C733 0.959 . S
H740 C733 0.961 . S
H741 C733 0.960 . S
H742 C734 0.930 . S
H743 C735 0.929 . S
H744 C752 0.929 . S
H745 C754 0.930 . S
H746 C756 0.930 . S
H747 C759 0.929 . S
H748 C762 0.930 . S
H749 C764 0.960 . S
H750 C764 0.960 . S
H751 C764 0.960 . S
C752 H744 0.929 . S
C752 C753 1.377 . S
C752 C754 1.384 . S
C753 C752 1.377 . S
C753 C759 1.390 . S
C754 H745 0.930 . S
C754 C752 1.384 . S
C754 C755 1.372 . S
C755 C754 1.372 . S
C755 C756 1.400 . S
C755 C760 1.490 . S
C756 H746 0.930 . S
C756 C755 1.400 . S
C756 C759 1.386 . S
H757 C773 0.930 . S
H758 C774 0.931 . S
C759 H747 0.929 . S
C759 C753 1.390 . S
C759 C756 1.386 . S
C760 C755 1.490 . S
C760 C762 1.395 . S
C760 C763 1.403 . S
H761 C767 0.930 . S
C762 H748 0.930 . S
C762 C760 1.395 . S
C762 C765 1.403 . S
C763 C760 1.403 . S
C763 C764 1.524 . S
C763 C767 1.400 . S
C764 H749 0.960 . S
C764 H750 0.960 . S
C764 H751 0.960 . S
C764 C763 1.524 . S
C765 C762 1.403 . S
C765 C766 1.392 . S
C765 C769 1.495 . S
C766 C765 1.392 . S
C766 C767 1.385 . S
C766 C768 1.478 . S
C767 H761 0.930 . S
C767 C763 1.400 . S
C767 C766 1.385 . S
C768 C766 1.478 . S
C768 C770 1.381 . S
C768 C774 1.383 . S
C769 C765 1.495 . S
C769 H775 0.959 . S
C769 H776 0.961 . S
C769 H777 0.960 . S
C770 C768 1.381 . S
C770 C771 1.394 . S
C770 H778 0.930 . S
C771 C770 1.394 . S
C771 C772 1.383 . S
C771 H779 0.929 . S
C772 C771 1.383 . S
C772 C773 1.377 . S
C773 H757 0.930 . S
C773 C772 1.377 . S
C773 C774 1.379 . S
C774 H758 0.931 . S
C774 C768 1.383 . S
C774 C773 1.379 . S
H775 C769 0.959 . S
H776 C769 0.961 . S
H777 C769 0.960 . S
H778 C770 0.930 . S
H779 C771 0.929 . S
H780 C788 0.929 . S
H781 C790 0.930 . S
H782 C792 0.930 . S
H783 C795 0.929 1_556 S
H784 C798 0.930 . S
H785 C800 0.960 . S
H786 C800 0.960 . S
H787 C800 0.960 . S
C788 H780 0.929 . S
C788 C789 1.377 . S
C788 C790 1.384 . S
C789 C788 1.377 . S
C789 C795 1.390 . S
C790 H781 0.930 . S
C790 C788 1.384 . S
C790 C791 1.372 . S
C791 C790 1.372 . S
C791 C792 1.400 . S
C791 C796 1.490 . S
C792 H782 0.930 . S
C792 C791 1.400 . S
C792 C795 1.386 . S
H793 C809 0.930 . S
H794 C810 0.931 . S
C795 H783 0.929 1_554 S
C795 C789 1.390 . S
C795 C792 1.386 . S
C796 C791 1.490 . S
C796 C798 1.395 . S
C796 C799 1.403 . S
H797 C803 0.930 . S
C798 H784 0.930 . S
C798 C796 1.395 . S
C798 C801 1.403 . S
C799 C796 1.403 . S
C799 C800 1.524 . S
C799 C803 1.400 . S
C800 H785 0.960 . S
C800 H786 0.960 . S
C800 H787 0.960 . S
C800 C799 1.524 . S
C801 C798 1.403 . S
C801 C802 1.392 . S
C801 C805 1.495 . S
C802 C801 1.392 . S
C802 C803 1.385 . S
C802 C804 1.478 . S
C803 H797 0.930 . S
C803 C799 1.400 . S
C803 C802 1.385 . S
C804 C802 1.478 . S
C804 C806 1.381 . S
C804 C810 1.383 . S
C805 C801 1.495 . S
C805 H811 0.959 . S
C805 H812 0.961 . S
C805 H813 0.960 . S
C806 C804 1.381 . S
C806 C807 1.394 . S
C806 H814 0.930 . S
C807 C806 1.394 . S
C807 C808 1.383 . S
C807 H815 0.929 . S
C808 C807 1.383 . S
C808 C809 1.377 . S
C809 H793 0.930 . S
C809 C808 1.377 . S
C809 C810 1.379 . S
C810 H794 0.931 . S
C810 C804 1.383 . S
C810 C809 1.379 . S
H811 C805 0.959 . S
H812 C805 0.961 . S
H813 C805 0.960 . S
H814 C806 0.930 . S
H815 C807 0.929 . S
H816 C824 0.929 . S
H817 C826 0.930 . S
H818 C828 0.930 . S
H819 C831 0.929 . S
H820 C834 0.930 . S
H821 C836 0.960 . S
H822 C836 0.960 . S
H823 C836 0.960 . S
C824 H816 0.929 . S
C824 C825 1.377 . S
C824 C826 1.384 . S
C825 C824 1.377 . S
C825 C831 1.390 . S
C826 H817 0.930 . S
C826 C824 1.384 . S
C826 C827 1.372 . S
C827 C826 1.372 . S
C827 C828 1.400 . S
C827 C832 1.490 . S
C828 H818 0.930 . S
C828 C827 1.400 . S
C828 C831 1.386 . S
H829 C845 0.930 . S
H830 C846 0.931 . S
C831 H819 0.929 . S
C831 C825 1.390 . S
C831 C828 1.386 . S
C832 C827 1.490 . S
C832 C834 1.395 . S
C832 C835 1.403 . S
H833 C839 0.930 . S
C834 H820 0.930 . S
C834 C832 1.395 . S
C834 C837 1.403 . S
C835 C832 1.403 . S
C835 C836 1.524 . S
C835 C839 1.400 . S
C836 H821 0.960 . S
C836 H822 0.960 . S
C836 H823 0.960 . S
C836 C835 1.524 . S
C837 C834 1.403 . S
C837 C838 1.392 . S
C837 C841 1.495 . S
C838 C837 1.392 . S
C838 C839 1.385 . S
C838 C840 1.478 . S
C839 H833 0.930 . S
C839 C835 1.400 . S
C839 C838 1.385 . S
C840 C838 1.478 . S
C840 C842 1.381 . S
C840 C846 1.383 . S
C841 C837 1.495 . S
C841 H847 0.959 . S
C841 H848 0.961 . S
C841 H849 0.960 . S
C842 C840 1.381 . S
C842 C843 1.394 . S
C842 H850 0.930 . S
C843 C842 1.394 . S
C843 C844 1.383 . S
C843 H851 0.929 . S
C844 C843 1.383 . S
C844 C845 1.377 . S
C845 H829 0.930 . S
C845 C844 1.377 . S
C845 C846 1.379 . S
C846 H830 0.931 . S
C846 C840 1.383 . S
C846 C845 1.379 . S
H847 C841 0.959 . S
H848 C841 0.961 . S
H849 C841 0.960 . S
H850 C842 0.930 . S
H851 C843 0.929 . S
H852 C860 0.929 . S
H853 C862 0.930 . S
H854 C864 0.930 . S
H855 C867 0.929 . S
H856 C870 0.930 . S
H857 C872 0.960 . S
H858 C872 0.960 . S
H859 C872 0.960 . S
C860 H852 0.929 . S
C860 C861 1.377 . S
C860 C862 1.384 . S
C861 C860 1.377 . S
C861 C867 1.390 . S
C862 H853 0.930 . S
C862 C860 1.384 . S
C862 C863 1.372 . S
C863 C862 1.372 . S
C863 C864 1.400 . S
C863 C868 1.490 . S
C864 H854 0.930 . S
C864 C863 1.400 . S
C864 C867 1.386 . S
H865 C881 0.930 . S
H866 C882 0.931 . S
C867 H855 0.929 . S
C867 C861 1.390 . S
C867 C864 1.386 . S
C868 C863 1.490 . S
C868 C870 1.395 . S
C868 C871 1.403 . S
H869 C875 0.930 . S
C870 H856 0.930 . S
C870 C868 1.395 . S
C870 C873 1.403 . S
C871 C868 1.403 . S
C871 C872 1.524 . S
C871 C875 1.400 . S
C872 H857 0.960 . S
C872 H858 0.960 . S
C872 H859 0.960 . S
C872 C871 1.524 . S
C873 C870 1.403 . S
C873 C874 1.392 . S
C873 C877 1.495 . S
C874 C873 1.392 . S
C874 C875 1.385 . S
C874 C876 1.478 . S
C875 H869 0.930 . S
C875 C871 1.400 . S
C875 C874 1.385 . S
C876 C874 1.478 . S
C876 C878 1.381 . S
C876 C882 1.383 . S
C877 C873 1.495 . S
C877 H883 0.959 . S
C877 H884 0.961 . S
C877 H885 0.960 . S
C878 C876 1.381 . S
C878 C879 1.394 . S
C878 H886 0.930 . S
C879 C878 1.394 . S
C879 C880 1.383 . S
C879 H887 0.929 . S
C880 C879 1.383 . S
C880 C881 1.377 . S
C881 H865 0.930 . S
C881 C880 1.377 . S
C881 C882 1.379 . S
C882 H866 0.931 . S
C882 C876 1.383 . S
C882 C881 1.379 . S
H883 C877 0.959 . S
H884 C877 0.961 . S
H885 C877 0.960 . S
H886 C878 0.930 . S
H887 C879 0.929 . S
H888 C896 0.929 . S
H889 C898 0.930 . S
H890 C900 0.930 . S
H891 C903 0.929 . S
H892 C906 0.930 . S
H893 C908 0.960 . S
H894 C908 0.960 . S
H895 C908 0.960 . S
C896 H888 0.929 . S
C896 C897 1.377 1_554 S
C896 C898 1.384 . S
C897 C896 1.377 1_556 S
C897 C903 1.390 . S
C898 H889 0.930 . S
C898 C896 1.384 . S
C898 C899 1.372 1_554 S
C899 C898 1.372 1_556 S
C899 C900 1.400 . S
C899 C904 1.490 . S
C900 H890 0.930 . S
C900 C899 1.400 . S
C900 C903 1.386 . S
H901 C917 0.930 . S
H902 C918 0.931 . S
C903 H891 0.929 . S
C903 C897 1.390 . S
C903 C900 1.386 . S
C904 C899 1.490 . S
C904 C906 1.395 1_556 S
C904 C907 1.403 . S
H905 C911 0.930 . S
C906 H892 0.930 . S
C906 C904 1.395 1_554 S
C906 C909 1.403 . S
C907 C904 1.403 . S
C907 C908 1.524 . S
C907 C911 1.400 . S
C908 H893 0.960 . S
C908 H894 0.960 . S
C908 H895 0.960 . S
C908 C907 1.524 . S
C909 C906 1.403 . S
C909 C910 1.392 . S
C909 C913 1.495 . S
C910 C909 1.392 . S
C910 C911 1.385 1_554 S
C910 C912 1.478 . S
C911 H905 0.930 . S
C911 C907 1.400 . S
C911 C910 1.385 1_556 S
C912 C910 1.478 . S
C912 C914 1.381 . S
C912 C918 1.383 1_554 S
C913 C909 1.495 . S
C913 H919 0.959 . S
C913 H920 0.961 . S
C913 H921 0.960 . S
C914 C912 1.381 . S
C914 C915 1.394 . S
C914 H922 0.930 . S
C915 C914 1.394 . S
C915 C916 1.383 . S
C915 H923 0.929 . S
C916 C915 1.383 . S
C916 C917 1.377 1_554 S
C917 H901 0.930 . S
C917 C916 1.377 1_556 S
C917 C918 1.379 . S
C918 H902 0.931 . S
C918 C912 1.383 1_556 S
C918 C917 1.379 . S
H919 C913 0.959 . S
H920 C913 0.961 . S
H921 C913 0.960 . S
H922 C914 0.930 . S
H923 C915 0.929 . S
H924 C932 0.929 . S
H925 C934 0.930 . S
H926 C936 0.930 . S
H927 C939 0.929 . S
H928 C942 0.930 . S
H929 C944 0.960 . S
H930 C944 0.960 . S
H931 C944 0.960 . S
C932 H924 0.929 . S
C932 C933 1.377 . S
C932 C934 1.384 . S
C933 C932 1.377 . S
C933 C939 1.390 . S
C934 H925 0.930 . S
C934 C932 1.384 . S
C934 C935 1.372 . S
C935 C934 1.372 . S
C935 C936 1.400 . S
C935 C940 1.490 . S
C936 H926 0.930 . S
C936 C935 1.400 . S
C936 C939 1.386 . S
H937 C953 0.930 . S
H938 C954 0.931 . S
C939 H927 0.929 . S
C939 C933 1.390 . S
C939 C936 1.386 . S
C940 C935 1.490 . S
C940 C942 1.395 . S
C940 C943 1.403 . S
H941 C947 0.930 . S
C942 H928 0.930 . S
C942 C940 1.395 . S
C942 C945 1.403 . S
C943 C940 1.403 . S
C943 C944 1.524 . S
C943 C947 1.400 . S
C944 H929 0.960 . S
C944 H930 0.960 . S
C944 H931 0.960 . S
C944 C943 1.524 . S
C945 C942 1.403 . S
C945 C946 1.392 . S
C945 C949 1.495 . S
C946 C945 1.392 . S
C946 C947 1.385 . S
C946 C948 1.478 . S
C947 H941 0.930 . S
C947 C943 1.400 . S
C947 C946 1.385 . S
C948 C946 1.478 . S
C948 C950 1.381 . S
C948 C954 1.383 . S
C949 C945 1.495 . S
C949 H955 0.959 . S
C949 H956 0.961 . S
C949 H957 0.960 . S
C950 C948 1.381 . S
C950 C951 1.394 . S
C950 H958 0.930 . S
C951 C950 1.394 . S
C951 C952 1.383 . S
C951 H959 0.929 . S
C952 C951 1.383 . S
C952 C953 1.377 . S
C953 H937 0.930 . S
C953 C952 1.377 . S
C953 C954 1.379 . S
C954 H938 0.931 . S
C954 C948 1.383 . S
C954 C953 1.379 . S
H955 C949 0.959 . S
H956 C949 0.961 . S
H957 C949 0.960 . S
H958 C950 0.930 . S
H959 C951 0.929 . S
H960 C968 0.929 . S
H961 C970 0.930 . S
H962 C972 0.930 . S
H963 C975 0.929 . S
H964 C978 0.930 . S
H965 C980 0.960 . S
H966 C980 0.960 . S
H967 C980 0.960 . S
C968 H960 0.929 . S
C968 C969 1.377 . S
C968 C970 1.384 . S
C969 C968 1.377 . S
C969 C975 1.390 . S
C970 H961 0.930 . S
C970 C968 1.384 . S
C970 C971 1.372 . S
C971 C970 1.372 . S
C971 C972 1.400 . S
C971 C976 1.490 . S
C972 H962 0.930 . S
C972 C971 1.400 . S
C972 C975 1.386 . S
H973 C989 0.930 . S
H974 C990 0.931 . S
C975 H963 0.929 . S
C975 C969 1.390 . S
C975 C972 1.386 . S
C976 C971 1.490 . S
C976 C978 1.395 . S
C976 C979 1.403 . S
H977 C983 0.930 . S
C978 H964 0.930 . S
C978 C976 1.395 . S
C978 C981 1.403 . S
C979 C976 1.403 . S
C979 C980 1.524 . S
C979 C983 1.400 . S
C980 H965 0.960 . S
C980 H966 0.960 . S
C980 H967 0.960 . S
C980 C979 1.524 . S
C981 C978 1.403 . S
C981 C982 1.392 . S
C981 C985 1.495 . S
C982 C981 1.392 . S
C982 C983 1.385 . S
C982 C984 1.478 . S
C983 H977 0.930 . S
C983 C979 1.400 . S
C983 C982 1.385 . S
C984 C982 1.478 . S
C984 C986 1.381 . S
C984 C990 1.383 . S
C985 C981 1.495 . S
C985 H991 0.959 . S
C985 H992 0.961 . S
C985 H993 0.960 . S
C986 C984 1.381 . S
C986 C987 1.394 . S
C986 H994 0.930 . S
C987 C986 1.394 . S
C987 C988 1.383 . S
C987 H995 0.929 . S
C988 C987 1.383 . S
C988 C989 1.377 . S
C989 H973 0.930 . S
C989 C988 1.377 . S
C989 C990 1.379 . S
C990 H974 0.931 . S
C990 C984 1.383 . S
C990 C989 1.379 . S
H991 C985 0.959 . S
H992 C985 0.961 . S
H993 C985 0.960 . S
H994 C986 0.930 . S
H995 C987 0.929 . S
H996 C1004 0.929 . S
H997 C1006 0.930 . S
H998 C1008 0.930 . S
H999 C1011 0.929 . S
H1000 C1014 0.930 . S
H1001 C1016 0.960 . S
H1002 C1016 0.960 . S
H1003 C1016 0.960 . S
C1004 H996 0.929 . S
C1004 C1005 1.377 . S
C1004 C1006 1.384 . S
C1005 C1004 1.377 . S
C1005 C1011 1.390 1_554 S
C1006 H997 0.930 . S
C1006 C1004 1.384 . S
C1006 C1007 1.372 . S
C1007 C1006 1.372 . S
C1007 C1008 1.400 1_554 S
C1007 C1012 1.490 . S
C1008 H998 0.930 . S
C1008 C1007 1.400 1_556 S
C1008 C1011 1.386 . S
H1009 C1025 0.930 . S
H1010 C1026 0.931 . S
C1011 H999 0.929 . S
C1011 C1005 1.390 1_556 S
C1011 C1008 1.386 . S
C1012 C1007 1.490 . S
C1012 C1014 1.395 . S
C1012 C1015 1.403 1_554 S
H1013 C1019 0.930 . S
C1014 H1000 0.930 . S
C1014 C1012 1.395 . S
C1014 C1017 1.403 . S
C1015 C1012 1.403 1_556 S
C1015 C1016 1.524 . S
C1015 C1019 1.400 . S
C1016 H1001 0.960 . S
C1016 H1002 0.960 . S
C1016 H1003 0.960 . S
C1016 C1015 1.524 . S
C1017 C1014 1.403 . S
C1017 C1018 1.393 . S
C1017 C1021 1.495 . S
C1018 C1017 1.393 . S
C1018 C1019 1.384 1_554 S
C1018 C1020 1.477 1_554 S
C1019 H1013 0.930 . S
C1019 C1015 1.400 . S
C1019 C1018 1.384 1_556 S
C1020 C1018 1.477 1_556 S
C1020 C1022 1.381 1_556 S
C1020 C1026 1.383 . S
C1021 C1017 1.495 . S
C1021 H1027 0.959 . S
C1021 H1028 0.961 . S
C1021 H1029 0.960 . S
C1022 C1020 1.381 1_554 S
C1022 C1023 1.394 . S
C1022 H1030 0.930 . S
C1023 C1022 1.394 . S
C1023 C1024 1.383 1_554 S
C1023 H1031 0.929 . S
C1024 C1023 1.383 1_556 S
C1024 C1025 1.377 . S
C1025 H1009 0.930 . S
C1025 C1024 1.377 . S
C1025 C1026 1.379 . S
C1026 H1010 0.931 . S
C1026 C1020 1.383 . S
C1026 C1025 1.379 . S
H1027 C1021 0.959 . S
H1028 C1021 0.961 . S
H1029 C1021 0.960 . S
H1030 C1022 0.930 . S
H1031 C1023 0.929 . S
C177 C0 1.292 . S
C196 C126 1.258 . S
C213 C14 1.282 . S
C232 C140 1.285 . S
C249 C28 1.293 . S
C268 C154 1.262 . S
C285 C42 1.289 . S
C304 C84 1.312 . S
C321 C98 1.283 . S
C340 C56 1.278 . S
C357 C112 1.286 . S
C376 C70 1.260 . S
C393 C151 1.821 . S
C412 C11 1.803 . S
C429 C25 1.823 . S
C448 C165 1.804 . S
C465 C39 1.819 . S
C484 C95 1.810 . S
C501 C53 1.819 . S
C520 C109 1.809 . S
C537 C67 1.824 . S
C556 C123 1.809 . S
C573 C81 1.824 . S
C592 C137 1.831 . S
C609 C149 0.766 . S
C628 C9 0.763 . S
C645 C23 0.765 . S
C664 C163 0.771 . S
C681 C37 0.767 . S
C700 C93 0.759 . S
C717 C51 0.765 . S
C736 C107 0.765 . S
C753 C65 0.765 . S
C772 C121 0.763 . S
C789 C79 0.768 . S
C808 C135 0.763 . S
C825 C5 1.668 . S
C844 C89 1.664 . S
C861 C103 1.666 . S
C880 C19 1.668 . S
C897 C33 1.667 . S
C916 C117 1.659 . S
C933 C47 1.666 . S
C952 C131 1.664 . S
C969 C61 1.668 . S
C988 C145 1.667 . S
C1005 C159 1.666 . S
C1024 C75 1.665 . S
