# Generated by pormake.
# Topology ukv, (4)-cn, num edge types: 1
# Building blocks:
#     Node 0, Type 0, BuildingBlock: CEKHIL_clean_sbu_0, # of connection points: 4
#     Node 1, Type 0, BuildingBlock: CEKHIL_clean_sbu_0, # of connection points: 4
#     Node 2, Type 0, BuildingBlock: CEKHIL_clean_sbu_0, # of connection points: 4
#     Node 3, Type 0, BuildingBlock: CEKHIL_clean_sbu_0, # of connection points: 4
#     Node 4, Type 0, BuildingBlock: CEKHIL_clean_sbu_0, # of connection points: 4
#     Node 5, Type 0, BuildingBlock: CEKHIL_clean_sbu_0, # of connection points: 4
#     Node 6, Type 0, BuildingBlock: CEKHIL_clean_sbu_0, # of connection points: 4
#     Node 7, Type 0, BuildingBlock: CEKHIL_clean_sbu_0, # of connection points: 4
#     Node 8, Type 0, BuildingBlock: CEKHIL_clean_sbu_0, # of connection points: 4
#     Node 9, Type 0, BuildingBlock: CEKHIL_clean_sbu_0, # of connection points: 4
#     Node 10, Type 0, BuildingBlock: CEKHIL_clean_sbu_0, # of connection points: 4
#     Node 11, Type 0, BuildingBlock: CEKHIL_clean_sbu_0, # of connection points: 4
#     Node 12, Type 0, BuildingBlock: CEKHIL_clean_sbu_0, # of connection points: 4
#     Node 13, Type 0, BuildingBlock: CEKHIL_clean_sbu_0, # of connection points: 4
#     Node 14, Type 0, BuildingBlock: CEKHIL_clean_sbu_0, # of connection points: 4
#     Node 15, Type 0, BuildingBlock: CEKHIL_clean_sbu_0, # of connection points: 4
#     Node 16, Type 0, BuildingBlock: CEKHIL_clean_sbu_0, # of connection points: 4
#     Node 17, Type 0, BuildingBlock: CEKHIL_clean_sbu_0, # of connection points: 4
#     Node 18, Type 0, BuildingBlock: CEKHIL_clean_sbu_0, # of connection points: 4
#     Node 19, Type 0, BuildingBlock: CEKHIL_clean_sbu_0, # of connection points: 4
#     Node 20, Type 0, BuildingBlock: CEKHIL_clean_sbu_0, # of connection points: 4
#     Node 21, Type 0, BuildingBlock: CEKHIL_clean_sbu_0, # of connection points: 4
#     Node 22, Type 0, BuildingBlock: CEKHIL_clean_sbu_0, # of connection points: 4
#     Node 23, Type 0, BuildingBlock: CEKHIL_clean_sbu_0, # of connection points: 4
#     Node 24, Type 0, BuildingBlock: CEKHIL_clean_sbu_0, # of connection points: 4
#     Node 25, Type 0, BuildingBlock: CEKHIL_clean_sbu_0, # of connection points: 4
#     Node 26, Type 0, BuildingBlock: CEKHIL_clean_sbu_0, # of connection points: 4
#     Node 27, Type 0, BuildingBlock: CEKHIL_clean_sbu_0, # of connection points: 4
#     Node 28, Type 0, BuildingBlock: CEKHIL_clean_sbu_0, # of connection points: 4
#     Node 29, Type 0, BuildingBlock: CEKHIL_clean_sbu_0, # of connection points: 4
#     Node 30, Type 0, BuildingBlock: CEKHIL_clean_sbu_0, # of connection points: 4
#     Node 31, Type 0, BuildingBlock: CEKHIL_clean_sbu_0, # of connection points: 4
#     Node 32, Type 0, BuildingBlock: CEKHIL_clean_sbu_0, # of connection points: 4
#     Node 33, Type 0, BuildingBlock: CEKHIL_clean_sbu_0, # of connection points: 4
#     Node 34, Type 0, BuildingBlock: CEKHIL_clean_sbu_0, # of connection points: 4
#     Node 35, Type 0, BuildingBlock: CEKHIL_clean_sbu_0, # of connection points: 4
#     Edge 36, Type (0, 0), BuildingBlock: CIFDUS_clean_linker_0, # of connection points: 2
#     Edge 37, Type (0, 0), BuildingBlock: CIFDUS_clean_linker_0, # of connection points: 2
#     Edge 38, Type (0, 0), BuildingBlock: CIFDUS_clean_linker_0, # of connection points: 2
#     Edge 39, Type (0, 0), BuildingBlock: CIFDUS_clean_linker_0, # of connection points: 2
#     Edge 40, Type (0, 0), BuildingBlock: CIFDUS_clean_linker_0, # of connection points: 2
#     Edge 41, Type (0, 0), BuildingBlock: CIFDUS_clean_linker_0, # of connection points: 2
#     Edge 42, Type (0, 0), BuildingBlock: CIFDUS_clean_linker_0, # of connection points: 2
#     Edge 43, Type (0, 0), BuildingBlock: CIFDUS_clean_linker_0, # of connection points: 2
#     Edge 44, Type (0, 0), BuildingBlock: CIFDUS_clean_linker_0, # of connection points: 2
#     Edge 45, Type (0, 0), BuildingBlock: CIFDUS_clean_linker_0, # of connection points: 2
#     Edge 46, Type (0, 0), BuildingBlock: CIFDUS_clean_linker_0, # of connection points: 2
#     Edge 47, Type (0, 0), BuildingBlock: CIFDUS_clean_linker_0, # of connection points: 2
#     Edge 48, Type (0, 0), BuildingBlock: CIFDUS_clean_linker_0, # of connection points: 2
#     Edge 49, Type (0, 0), BuildingBlock: CIFDUS_clean_linker_0, # of connection points: 2
#     Edge 50, Type (0, 0), BuildingBlock: CIFDUS_clean_linker_0, # of connection points: 2
#     Edge 51, Type (0, 0), BuildingBlock: CIFDUS_clean_linker_0, # of connection points: 2
#     Edge 52, Type (0, 0), BuildingBlock: CIFDUS_clean_linker_0, # of connection points: 2
#     Edge 53, Type (0, 0), BuildingBlock: CIFDUS_clean_linker_0, # of connection points: 2
#     Edge 54, Type (0, 0), BuildingBlock: CIFDUS_clean_linker_0, # of connection points: 2
#     Edge 55, Type (0, 0), BuildingBlock: CIFDUS_clean_linker_0, # of connection points: 2
#     Edge 56, Type (0, 0), BuildingBlock: CIFDUS_clean_linker_0, # of connection points: 2
#     Edge 57, Type (0, 0), BuildingBlock: CIFDUS_clean_linker_0, # of connection points: 2
#     Edge 58, Type (0, 0), BuildingBlock: CIFDUS_clean_linker_0, # of connection points: 2
#     Edge 59, Type (0, 0), BuildingBlock: CIFDUS_clean_linker_0, # of connection points: 2
#     Edge 60, Type (0, 0), BuildingBlock: CIFDUS_clean_linker_0, # of connection points: 2
#     Edge 61, Type (0, 0), BuildingBlock: CIFDUS_clean_linker_0, # of connection points: 2
#     Edge 62, Type (0, 0), BuildingBlock: CIFDUS_clean_linker_0, # of connection points: 2
#     Edge 63, Type (0, 0), BuildingBlock: CIFDUS_clean_linker_0, # of connection points: 2
#     Edge 64, Type (0, 0), BuildingBlock: CIFDUS_clean_linker_0, # of connection points: 2
#     Edge 65, Type (0, 0), BuildingBlock: CIFDUS_clean_linker_0, # of connection points: 2
#     Edge 66, Type (0, 0), BuildingBlock: CIFDUS_clean_linker_0, # of connection points: 2
#     Edge 67, Type (0, 0), BuildingBlock: CIFDUS_clean_linker_0, # of connection points: 2
#     Edge 68, Type (0, 0), BuildingBlock: CIFDUS_clean_linker_0, # of connection points: 2
#     Edge 69, Type (0, 0), BuildingBlock: CIFDUS_clean_linker_0, # of connection points: 2
#     Edge 70, Type (0, 0), BuildingBlock: CIFDUS_clean_linker_0, # of connection points: 2
#     Edge 71, Type (0, 0), BuildingBlock: CIFDUS_clean_linker_0, # of connection points: 2
#     Edge 72, Type (0, 0), BuildingBlock: CIFDUS_clean_linker_0, # of connection points: 2
#     Edge 73, Type (0, 0), BuildingBlock: CIFDUS_clean_linker_0, # of connection points: 2
#     Edge 74, Type (0, 0), BuildingBlock: CIFDUS_clean_linker_0, # of connection points: 2
#     Edge 75, Type (0, 0), BuildingBlock: CIFDUS_clean_linker_0, # of connection points: 2
#     Edge 76, Type (0, 0), BuildingBlock: CIFDUS_clean_linker_0, # of connection points: 2
#     Edge 77, Type (0, 0), BuildingBlock: CIFDUS_clean_linker_0, # of connection points: 2
#     Edge 78, Type (0, 0), BuildingBlock: CIFDUS_clean_linker_0, # of connection points: 2
#     Edge 79, Type (0, 0), BuildingBlock: CIFDUS_clean_linker_0, # of connection points: 2
#     Edge 80, Type (0, 0), BuildingBlock: CIFDUS_clean_linker_0, # of connection points: 2
#     Edge 81, Type (0, 0), BuildingBlock: CIFDUS_clean_linker_0, # of connection points: 2
#     Edge 82, Type (0, 0), BuildingBlock: CIFDUS_clean_linker_0, # of connection points: 2
#     Edge 83, Type (0, 0), BuildingBlock: CIFDUS_clean_linker_0, # of connection points: 2
#     Edge 84, Type (0, 0), BuildingBlock: CIFDUS_clean_linker_0, # of connection points: 2
#     Edge 85, Type (0, 0), BuildingBlock: CIFDUS_clean_linker_0, # of connection points: 2
#     Edge 86, Type (0, 0), BuildingBlock: CIFDUS_clean_linker_0, # of connection points: 2
#     Edge 87, Type (0, 0), BuildingBlock: CIFDUS_clean_linker_0, # of connection points: 2
#     Edge 88, Type (0, 0), BuildingBlock: CIFDUS_clean_linker_0, # of connection points: 2
#     Edge 89, Type (0, 0), BuildingBlock: CIFDUS_clean_linker_0, # of connection points: 2
#     Edge 90, Type (0, 0), BuildingBlock: CIFDUS_clean_linker_0, # of connection points: 2
#     Edge 91, Type (0, 0), BuildingBlock: CIFDUS_clean_linker_0, # of connection points: 2
#     Edge 92, Type (0, 0), BuildingBlock: CIFDUS_clean_linker_0, # of connection points: 2
#     Edge 93, Type (0, 0), BuildingBlock: CIFDUS_clean_linker_0, # of connection points: 2
#     Edge 94, Type (0, 0), BuildingBlock: CIFDUS_clean_linker_0, # of connection points: 2
#     Edge 95, Type (0, 0), BuildingBlock: CIFDUS_clean_linker_0, # of connection points: 2
#     Edge 96, Type (0, 0), BuildingBlock: CIFDUS_clean_linker_0, # of connection points: 2
#     Edge 97, Type (0, 0), BuildingBlock: CIFDUS_clean_linker_0, # of connection points: 2
#     Edge 98, Type (0, 0), BuildingBlock: CIFDUS_clean_linker_0, # of connection points: 2
#     Edge 99, Type (0, 0), BuildingBlock: CIFDUS_clean_linker_0, # of connection points: 2
#     Edge 100, Type (0, 0), BuildingBlock: CIFDUS_clean_linker_0, # of connection points: 2
#     Edge 101, Type (0, 0), BuildingBlock: CIFDUS_clean_linker_0, # of connection points: 2
#     Edge 102, Type (0, 0), BuildingBlock: CIFDUS_clean_linker_0, # of connection points: 2
#     Edge 103, Type (0, 0), BuildingBlock: CIFDUS_clean_linker_0, # of connection points: 2
#     Edge 104, Type (0, 0), BuildingBlock: CIFDUS_clean_linker_0, # of connection points: 2
#     Edge 105, Type (0, 0), BuildingBlock: CIFDUS_clean_linker_0, # of connection points: 2
#     Edge 106, Type (0, 0), BuildingBlock: CIFDUS_clean_linker_0, # of connection points: 2
#     Edge 107, Type (0, 0), BuildingBlock: CIFDUS_clean_linker_0, # of connection points: 2
# Relax obj value: 0.233
# Max RMSD: 0.137
# Mean RMSD: 0.137
data_MOF--net-ukv--node1-CEKHIL_clean_sbu_0--edge1-CIFDUS_clean_linker_0
_symmetry_space_group_name_H-M    P1
_symmetry_Int_Tables_number       1
_symmetry_cell_setting            triclinic
loop_
_symmetry_equiv_pos_as_xyz
'x, y, z'
_cell_length_a     82.426995
_cell_length_b     82.597802
_cell_length_c     18.743907
_cell_angle_alpha  89.964267
_cell_angle_beta   90.047048
_cell_angle_gamma 119.95551
loop_
_atom_site_label
_atom_site_type_symbol
_atom_site_fract_x
_atom_site_fract_y
_atom_site_fract_z
_atom_type_partial_charge
Co0 Co 0.28083 0.08377 0.11912 0.0
O1 O 0.28036 0.06705 0.19124 0.0
O2 O 0.25546 0.06283 0.13113 0.0
C3 C 0.30594 0.08663 0.05899 0.0
O4 O 0.27643 0.09791 0.03866 0.0
Co5 Co 0.31574 0.12387 0.10703 0.0
O6 O 0.30434 0.12337 0.01376 0.0
C7 C 0.28628 0.1163 0.21365 0.0
C8 C 0.26262 0.05664 0.17846 0.0
C9 C 0.28716 0.11218 -0.00022 0.0
O10 O 0.27658 0.0991 0.19369 0.0
O11 O 0.30232 0.12791 0.18772 0.0
O12 O 0.2894 0.07237 0.04815 0.0
O13 O 0.30708 0.09745 0.1108 0.0
Co14 Co 0.92622 0.19197 0.11818 0.0
O15 O 0.94635 0.20666 0.18254 0.0
O16 O 0.94129 0.18011 0.13403 0.0
C17 C 0.93029 0.21569 0.0464 0.0
O18 O 0.90691 0.17375 0.04677 0.0
Co19 Co 0.89333 0.20053 0.10884 0.0
O20 O 0.88826 0.18572 0.02016 0.0
C21 C 0.89615 0.17996 0.23241 0.0
C22 C 0.95164 0.19441 0.17473 0.0
C23 C 0.89427 0.17442 0.00828 0.0
O24 O 0.90918 0.1782 0.20164 0.0
O25 O 0.88947 0.1898 0.20699 0.0
O26 O 0.94044 0.20787 0.03757 0.0
O27 O 0.91995 0.21052 0.10273 0.0
Co28 Co 0.8162 0.7305 0.12935 0.0
O29 O 0.80276 0.73526 0.20253 0.0
O30 O 0.82783 0.7572 0.14687 0.0
C31 C 0.79085 0.7106 0.06374 0.0
O32 O 0.8331 0.73066 0.0493 0.0
Co33 Co 0.80855 0.68972 0.10512 0.0
O34 O 0.82141 0.70078 0.01373 0.0
C35 C 0.8349 0.71353 0.21874 0.0
C36 C 0.81443 0.75287 0.19273 0.0
C37 C 0.83233 0.71829 0.00548 0.0
O38 O 0.83281 0.72758 0.20253 0.0
O39 O 0.82545 0.69739 0.18978 0.0
O40 O 0.79802 0.72853 0.0572 0.0
O41 O 0.79772 0.70546 0.1149 0.0
Co42 Co 0.08157 0.27779 0.35116 0.0
O43 O 0.05794 0.27016 0.30603 0.0
O44 O 0.06599 0.25065 0.35381 0.0
C45 C 0.08197 0.30073 0.41874 0.0
O46 O 0.10462 0.28118 0.40528 0.0
Co47 Co 0.11438 0.31837 0.32381 0.0
O48 O 0.12687 0.3116 0.39905 0.0
C49 C 0.10445 0.28946 0.21378 0.0
C50 C 0.05334 0.25316 0.32222 0.0
C51 C 0.12083 0.29503 0.42218 0.0
O52 O 0.09318 0.27669 0.25728 0.0
O53 O 0.11247 0.30695 0.22776 0.0
O54 O 0.07258 0.28342 0.43919 0.0
O55 O 0.08887 0.30323 0.35526 0.0
Co56 Co 0.7333 0.80072 0.37939 0.0
O57 O 0.7379 0.78745 0.30517 0.0
O58 O 0.7601 0.81114 0.36612 0.0
C59 C 0.71155 0.77548 0.44042 0.0
O60 O 0.7336 0.81723 0.46132 0.0
Co61 Co 0.69342 0.79599 0.39559 0.0
O62 O 0.70342 0.80668 0.49084 0.0
C63 C 0.71942 0.82181 0.28625 0.0
C64 C 0.7556 0.79835 0.31747 0.0
C65 C 0.72091 0.81646 0.5036 0.0
O66 O 0.73251 0.81857 0.30654 0.0
O67 O 0.70285 0.81337 0.31231 0.0
O68 O 0.72927 0.78146 0.44952 0.0
O69 O 0.70766 0.78335 0.38894 0.0
Co70 Co 0.20946 0.92299 0.3172 0.0
O71 O 0.22384 0.94463 0.25876 0.0
O72 O 0.19633 0.93699 0.30619 0.0
C73 C 0.23331 0.92706 0.38897 0.0
O74 O 0.19132 0.90214 0.38377 0.0
Co75 Co 0.22019 0.89154 0.32047 0.0
O76 O 0.20422 0.8842 0.40686 0.0
C77 C 0.19579 0.89207 0.20532 0.0
C78 C 0.21087 0.94884 0.26952 0.0
C79 C 0.19207 0.88913 0.41914 0.0
O80 O 0.19616 0.90674 0.23124 0.0
O81 O 0.20546 0.88513 0.23028 0.0
O82 O 0.22464 0.93629 0.40065 0.0
O83 O 0.22891 0.91774 0.33022 0.0
Co84 Co 0.73341 0.92018 0.88235 0.0
O85 O 0.74209 0.94018 0.81405 0.0
O86 O 0.76034 0.93624 0.89056 0.0
C87 C 0.70911 0.92271 0.92513 0.0
O88 O 0.72911 0.90142 0.96196 0.0
Co89 Co 0.69329 0.88544 0.86815 0.0
O90 O 0.69798 0.88172 0.96877 0.0
C91 C 0.72452 0.88795 0.78117 0.0
C92 C 0.7587 0.94613 0.83997 0.0
C93 C 0.71448 0.88851 0.99385 0.0
O94 O 0.73635 0.90369 0.80963 0.0
O95 O 0.70699 0.87917 0.79532 0.0
O96 O 0.72598 0.93365 0.94839 0.0
O97 O 0.70785 0.9123 0.87173 0.0
Co98 Co 0.09559 0.80252 0.81936 0.0
O99 O 0.07595 0.7917 0.74941 0.0
O100 O 0.08364 0.81765 0.80934 0.0
C101 C 0.08759 0.77615 0.88245 0.0
O102 O 0.11488 0.81723 0.897 0.0
Co103 Co 0.12439 0.78826 0.82695 0.0
O104 O 0.13055 0.80182 0.91896 0.0
C105 C 0.12947 0.81705 0.72061 0.0
C106 C 0.07271 0.80519 0.7631 0.0
C107 C 0.12644 0.81441 0.93407 0.0
O108 O 0.11489 0.81747 0.74308 0.0
O109 O 0.13434 0.80552 0.74376 0.0
O110 O 0.079 0.78549 0.89324 0.0
O111 O 0.0985 0.78145 0.82772 0.0
Co112 Co 0.19833 0.28509 0.846 0.0
O113 O 0.21592 0.27917 0.80424 0.0
O114 O 0.18619 0.25838 0.82453 0.0
C115 C 0.21722 0.30266 0.93616 0.0
O116 O 0.17673 0.28683 0.89198 0.0
Co117 Co 0.20963 0.32729 0.84602 0.0
O118 O 0.18634 0.31757 0.90281 0.0
C119 C 0.19436 0.30518 0.71526 0.0
C120 C 0.20262 0.26193 0.80234 0.0
C121 C 0.17424 0.30036 0.91227 0.0
O122 O 0.19096 0.29023 0.74909 0.0
O123 O 0.20348 0.32155 0.74245 0.0
O124 O 0.20778 0.28458 0.94134 0.0
O125 O 0.21663 0.30919 0.87427 0.0
Co126 Co 0.94113 0.74261 0.62687 0.0
O127 O 0.96198 0.74845 0.68851 0.0
O128 O 0.95711 0.7696 0.63531 0.0
C129 C 0.94315 0.72116 0.55796 0.0
O130 O 0.92121 0.74113 0.55735 0.0
Co131 Co 0.90727 0.70152 0.62886 0.0
O132 O 0.9011 0.71036 0.54034 0.0
C133 C 0.90976 0.72859 0.73763 0.0
C134 C 0.96768 0.76588 0.6758 0.0
C135 C 0.90743 0.72749 0.5242 0.0
O136 O 0.92511 0.74178 0.7108 0.0
O137 O 0.90145 0.71171 0.71518 0.0
O138 O 0.95397 0.73888 0.54602 0.0
O139 O 0.93379 0.71726 0.61668 0.0
Co140 Co 0.27716 0.20399 0.61954 0.0
O141 O 0.27637 0.21971 0.69291 0.0
O142 O 0.25148 0.19864 0.63423 0.0
C143 C 0.30165 0.22688 0.5591 0.0
O144 O 0.27323 0.1858 0.53814 0.0
Co145 Co 0.31313 0.20051 0.60476 0.0
O146 O 0.30156 0.18923 0.51221 0.0
C147 C 0.28446 0.17794 0.7128 0.0
C148 C 0.25849 0.21179 0.68228 0.0
C149 C 0.28425 0.18271 0.49882 0.0
O150 O 0.27399 0.18463 0.69317 0.0
O151 O 0.30064 0.18309 0.68639 0.0
O152 O 0.28484 0.22403 0.54914 0.0
O153 O 0.30334 0.21733 0.61012 0.0
Co154 Co 0.81146 0.07 0.61329 0.0
O155 O 0.79705 0.04842 0.67202 0.0
O156 O 0.82396 0.05538 0.62053 0.0
C157 C 0.78781 0.06716 0.54326 0.0
O158 O 0.82971 0.09101 0.54743 0.0
Co159 Co 0.80195 0.10227 0.61911 0.0
O160 O 0.8196 0.11178 0.53789 0.0
C161 C 0.82651 0.10004 0.72921 0.0
C162 C 0.80978 0.04398 0.65974 0.0
C163 C 0.83076 0.10592 0.52074 0.0
O164 O 0.82545 0.08544 0.69982 0.0
O165 O 0.8174 0.1079 0.70745 0.0
O166 O 0.79584 0.05739 0.53023 0.0
O167 O 0.79244 0.07608 0.60306 0.0
Co168 Co 0.94249 0.41473 0.44062 0.0
O169 O 0.94556 0.39817 0.50352 0.0
O170 O 0.91824 0.39317 0.46272 0.0
C171 C 0.96553 0.41927 0.36378 0.0
O172 O 0.93413 0.42829 0.37186 0.0
Co173 Co 0.9754 0.45573 0.42143 0.0
O174 O 0.95933 0.4561 0.34403 0.0
C175 C 0.95001 0.44613 0.54504 0.0
C176 C 0.92756 0.38729 0.50031 0.0
C177 C 0.94218 0.44368 0.33643 0.0
O178 O 0.9403 0.42901 0.52441 0.0
O179 O 0.96473 0.45851 0.51318 0.0
O180 O 0.94904 0.40453 0.35845 0.0
O181 O 0.96807 0.4296 0.41898 0.0
Co182 Co 0.58788 0.5287 0.48795 0.0
O183 O 0.60905 0.54668 0.54104 0.0
O184 O 0.60391 0.51839 0.5152 0.0
C185 C 0.5899 0.54847 0.40019 0.0
O186 O 0.56687 0.50685 0.43263 0.0
Co187 Co 0.5548 0.53705 0.47627 0.0
O188 O 0.54402 0.51413 0.41707 0.0
C189 C 0.56019 0.52139 0.60911 0.0
C190 C 0.61445 0.53448 0.54597 0.0
C191 C 0.55068 0.50322 0.40875 0.0
O192 O 0.57285 0.51893 0.57908 0.0
O193 O 0.55293 0.53028 0.5797 0.0
O194 O 0.59998 0.54043 0.39712 0.0
O195 O 0.58086 0.54595 0.4589 0.0
Co196 Co 0.47504 0.06074 0.47723 0.0
O197 O 0.46002 0.0691 0.52532 0.0
O198 O 0.48985 0.08744 0.49664 0.0
C199 C 0.45408 0.04418 0.39103 0.0
O200 O 0.49433 0.05663 0.42393 0.0
Co201 Co 0.46054 0.01787 0.47402 0.0
O202 O 0.48172 0.02559 0.40687 0.0
C203 C 0.47792 0.03922 0.6048 0.0
C204 C 0.47457 0.08568 0.52432 0.0
C205 C 0.49475 0.04243 0.39721 0.0
O206 O 0.48285 0.05465 0.57148 0.0
O207 O 0.46729 0.02311 0.57736 0.0
O208 O 0.46464 0.06216 0.38519 0.0
O209 O 0.45489 0.03733 0.45199 0.0
Co210 Co 0.74698 0.60643 0.70768 0.0
O211 O 0.72375 0.59983 0.66123 0.0
O212 O 0.73213 0.57936 0.69498 0.0
C213 C 0.74602 0.62626 0.78874 0.0
O214 O 0.76979 0.6088 0.76078 0.0
Co215 Co 0.77877 0.6482 0.69779 0.0
O216 O 0.791 0.63961 0.76723 0.0
C217 C 0.77195 0.62315 0.57597 0.0
C218 C 0.71956 0.58255 0.66657 0.0
C219 C 0.78553 0.62258 0.78257 0.0
O220 O 0.75994 0.60907 0.61287 0.0
O221 O 0.77945 0.64005 0.59787 0.0
O222 O 0.73672 0.60833 0.7994 0.0
O223 O 0.75333 0.63125 0.72608 0.0
Co224 Co 0.39709 0.13934 0.66775 0.0
O225 O 0.40323 0.12579 0.60037 0.0
O226 O 0.42419 0.15082 0.65918 0.0
C227 C 0.37562 0.11441 0.73071 0.0
O228 O 0.39535 0.15639 0.74285 0.0
Co229 Co 0.3559 0.13184 0.67013 0.0
O230 O 0.36454 0.14507 0.76237 0.0
C231 C 0.38293 0.15822 0.56467 0.0
C232 C 0.42066 0.1375 0.61386 0.0
C233 C 0.3817 0.15582 0.77856 0.0
O234 O 0.39618 0.15572 0.58877 0.0
O235 O 0.36605 0.14933 0.58748 0.0
O236 O 0.39336 0.12149 0.74368 0.0
O237 O 0.37172 0.12096 0.67492 0.0
Co238 Co 0.86239 0.25778 0.72024 0.0
O239 O 0.87831 0.27568 0.65096 0.0
O240 O 0.85496 0.27655 0.70557 0.0
C241 C 0.88564 0.25801 0.78471 0.0
O242 O 0.84385 0.24188 0.79837 0.0
Co243 Co 0.86205 0.21995 0.73245 0.0
O244 O 0.85079 0.21942 0.82605 0.0
C245 C 0.83863 0.22441 0.62335 0.0
C246 C 0.8691 0.28437 0.66181 0.0
C247 C 0.84249 0.22861 0.8388 0.0
O248 O 0.8445 0.24136 0.64324 0.0
O249 O 0.84436 0.21393 0.65051 0.0
O250 O 0.88114 0.27083 0.79401 0.0
O251 O 0.87749 0.24684 0.73169 0.0
Co252 Co 0.38749 0.25252 0.1641 0.0
O253 O 0.39311 0.26977 0.08672 0.0
O254 O 0.41442 0.26667 0.14738 0.0
C255 C 0.36802 0.25981 0.2233 0.0
O256 O 0.38658 0.23642 0.2487 0.0
Co257 Co 0.346 0.22092 0.18917 0.0
O258 O 0.35636 0.21955 0.28286 0.0
C259 C 0.36945 0.216 0.08045 0.0
C260 C 0.41063 0.27536 0.09787 0.0
C261 C 0.37375 0.22557 0.29294 0.0
O262 O 0.38394 0.23192 0.0957 0.0
O263 O 0.35328 0.21024 0.10817 0.0
O264 O 0.38602 0.26997 0.23124 0.0
O265 O 0.36266 0.24713 0.17478 0.0
Co266 Co 0.74258 0.1341 0.22058 0.0
O267 O 0.72626 0.11785 0.14804 0.0
O268 O 0.72232 0.13937 0.20252 0.0
C269 C 0.74399 0.11179 0.28564 0.0
O270 O 0.75676 0.15283 0.30052 0.0
Co271 Co 0.78196 0.13769 0.23738 0.0
O272 O 0.7811 0.14875 0.32969 0.0
C273 C 0.77605 0.15968 0.12644 0.0
C274 C 0.71632 0.12588 0.15596 0.0
C275 C 0.77051 0.15559 0.34145 0.0
O276 O 0.75886 0.15293 0.14563 0.0
O277 O 0.78716 0.15483 0.15435 0.0
O278 O 0.73002 0.11474 0.29299 0.0
O279 O 0.7553 0.12075 0.23392 0.0
Co280 Co 0.86539 0.61774 0.20765 0.0
O281 O 0.88112 0.60957 0.16446 0.0
O282 O 0.85167 0.59062 0.19645 0.0
C283 C 0.88655 0.63675 0.28945 0.0
O284 O 0.84558 0.62197 0.25647 0.0
Co285 Co 0.87848 0.66016 0.19409 0.0
O286 O 0.8572 0.65316 0.25997 0.0
C287 C 0.86027 0.63528 0.07184 0.0
C288 C 0.86717 0.59271 0.16957 0.0
C289 C 0.84458 0.63649 0.27533 0.0
O290 O 0.85653 0.62099 0.11079 0.0
O291 O 0.87053 0.65215 0.09309 0.0
O292 O 0.87651 0.61892 0.30102 0.0
O293 O 0.88507 0.64202 0.22609 0.0
Co294 Co 0.58383 0.05224 0.97842 0.0
O295 O 0.60639 0.05729 0.02668 0.0
O296 O 0.59866 0.07877 0.00115 0.0
C297 C 0.58579 0.03442 0.89093 0.0
O298 O 0.56207 0.05192 0.92496 0.0
Co299 Co 0.55128 0.01089 0.96995 0.0
O300 O 0.54036 0.02181 0.90456 0.0
C301 C 0.55749 0.03199 0.10328 0.0
C302 C 0.6108 0.0747 0.02761 0.0
C303 C 0.54658 0.03929 0.89692 0.0
O304 O 0.56979 0.04711 0.07216 0.0
O305 O 0.55005 0.01589 0.07367 0.0
O306 O 0.59517 0.05252 0.88625 0.0
O307 O 0.57739 0.02792 0.95099 0.0
Co308 Co 0.93167 0.53062 0.94517 0.0
O309 O 0.92732 0.54621 0.00929 0.0
O310 O 0.90561 0.52431 0.94039 0.0
C311 C 0.95812 0.55314 0.89367 0.0
O312 O 0.93139 0.51238 0.87091 0.0
Co313 Co 0.968 0.52783 0.9635 0.0
O314 O 0.95925 0.51328 0.87413 0.0
C315 C 0.93598 0.50694 0.06013 0.0
C316 C 0.91005 0.53735 0.9879 0.0
C317 C 0.94308 0.50759 0.84736 0.0
O318 O 0.92579 0.51182 0.02438 0.0
O319 O 0.95328 0.51285 0.0474 0.0
O320 O 0.94186 0.55016 0.87224 0.0
O321 O 0.95791 0.54429 0.95071 0.0
Co322 Co 0.47643 0.40882 0.97794 0.0
O323 O 0.46105 0.38569 0.02703 0.0
O324 O 0.48765 0.39291 0.97247 0.0
C325 C 0.45309 0.40933 0.91585 0.0
O326 O 0.49525 0.43138 0.91978 0.0
Co327 Co 0.46932 0.44191 0.00989 0.0
O328 O 0.48702 0.45356 0.92935 0.0
C329 C 0.49057 0.43278 0.11265 0.0
C330 C 0.4731 0.3808 0.00846 0.0
C331 C 0.49721 0.44744 0.9031 0.0
O332 O 0.49096 0.42103 0.06848 0.0
O333 O 0.48096 0.44086 0.10232 0.0
O334 O 0.46036 0.39948 0.89328 0.0
O335 O 0.45846 0.4164 0.97864 0.0
Co336 Co 0.60318 0.73903 0.76396 0.0
O337 O 0.59686 0.71946 0.83289 0.0
O338 O 0.57619 0.72368 0.77236 0.0
C339 C 0.62442 0.73486 0.70183 0.0
O340 O 0.6045 0.75702 0.68607 0.0
Co341 Co 0.64391 0.77282 0.75467 0.0
O342 O 0.63505 0.77538 0.65936 0.0
C343 C 0.61774 0.77284 0.86331 0.0
C344 C 0.57948 0.71368 0.81739 0.0
C345 C 0.61774 0.76887 0.64557 0.0
O346 O 0.60438 0.75692 0.84109 0.0
O347 O 0.63441 0.78066 0.83823 0.0
O348 O 0.60662 0.72424 0.69048 0.0
O349 O 0.62865 0.74598 0.7558 0.0
Co350 Co 0.25915 0.86579 0.8078 0.0
O351 O 0.28157 0.88433 0.85388 0.0
O352 O 0.27695 0.85688 0.81729 0.0
C353 C 0.2573 0.88576 0.72974 0.0
O354 O 0.23818 0.84379 0.75386 0.0
Co355 Co 0.22322 0.86949 0.81459 0.0
O356 O 0.21338 0.8483 0.74665 0.0
C357 C 0.2348 0.85637 0.94028 0.0
C358 C 0.28821 0.87319 0.84487 0.0
C359 C 0.22159 0.8391 0.73162 0.0
O360 O 0.24692 0.85449 0.90304 0.0
O361 O 0.22584 0.86421 0.9167 0.0
O362 O 0.26822 0.87899 0.71674 0.0
O363 O 0.24946 0.88172 0.79163 0.0
Co364 Co 0.13844 0.39151 0.799 0.0
O365 O 0.12789 0.40116 0.8666 0.0
O366 O 0.15307 0.41868 0.80144 0.0
C367 C 0.11153 0.37157 0.74176 0.0
O368 O 0.15277 0.38614 0.72244 0.0
Co369 Co 0.12526 0.34872 0.80132 0.0
O370 O 0.13806 0.35487 0.70757 0.0
C371 C 0.15503 0.37469 0.90035 0.0
C372 C 0.14085 0.41773 0.84775 0.0
C373 C 0.15018 0.37142 0.68876 0.0
O374 O 0.15458 0.38904 0.87547 0.0
O375 O 0.14364 0.35785 0.8813 0.0
O376 O 0.12038 0.38922 0.7259 0.0
O377 O 0.1177 0.36721 0.79744 0.0
Co378 Co 0.41702 0.94627 0.03019 0.0
O379 O 0.39787 0.93965 0.95987 0.0
O380 O 0.40335 0.91926 0.01549 0.0
C381 C 0.41018 0.96496 0.09697 0.0
O382 O 0.43556 0.94877 0.10822 0.0
Co383 Co 0.4476 0.98861 0.04258 0.0
O384 O 0.45245 0.9796 0.13354 0.0
C385 C 0.45115 0.96495 0.93194 0.0
C386 C 0.39301 0.92235 0.97112 0.0
C387 C 0.44736 0.96257 0.14704 0.0
O388 O 0.43627 0.9502 0.95405 0.0
O389 O 0.45659 0.98136 0.95632 0.0
O390 O 0.40063 0.94696 0.10434 0.0
O391 O 0.42138 0.97066 0.04304 0.0
Co392 Co 0.07467 0.4836 0.02007 0.0
O393 O 0.07888 0.46503 0.97625 0.0
O394 O 0.10147 0.49279 0.01141 0.0
C395 C 0.05314 0.46436 0.1003 0.0
O396 O 0.07501 0.50565 0.07094 0.0
Co397 Co 0.03455 0.47849 0.00723 0.0
O398 O 0.04526 0.50009 0.07337 0.0
C399 C 0.0603 0.49315 0.88513 0.0
C400 C 0.09662 0.47646 0.98448 0.0
C401 C 0.06254 0.50989 0.08994 0.0
O402 O 0.0739 0.4945 0.92369 0.0
O403 O 0.04329 0.4851 0.90646 0.0
O404 O 0.07087 0.47131 0.11278 0.0
O405 O 0.04907 0.4673 0.03692 0.0
Co406 Co 0.52953 0.59022 0.0521 0.0
O407 O 0.5423 0.60973 0.98264 0.0
O408 O 0.51694 0.60466 0.04179 0.0
C409 C 0.55496 0.59534 0.11617 0.0
O410 O 0.51315 0.57187 0.12988 0.0
Co411 Co 0.53853 0.5577 0.06176 0.0
O412 O 0.5259 0.55388 0.15511 0.0
C413 C 0.5127 0.5569 0.9501 0.0
C414 C 0.53012 0.61484 -0.00341 0.0
C415 C 0.51471 0.55989 0.16919 0.0
O416 O 0.51362 0.57194 0.97467 0.0
O417 O 0.52256 0.5501 0.97444 0.0
O418 O 0.54731 0.6056 0.12606 0.0
O419 O 0.54868 0.58433 0.06177 0.0
Co420 Co 0.06028 0.58879 0.52185 0.0
O421 O 0.06626 0.61289 0.48637 0.0
O422 O 0.08733 0.60586 0.52567 0.0
C423 C 0.03639 0.58513 0.59255 0.0
O424 O 0.05835 0.56511 0.56528 0.0
Co425 Co 0.02054 0.55551 0.48519 0.0
O426 O 0.02836 0.54209 0.55219 0.0
C427 C 0.04994 0.57033 0.3756 0.0
C428 C 0.08361 0.61832 0.50017 0.0
C429 C 0.04496 0.54819 0.57575 0.0
O430 O 0.06235 0.58023 0.4227 0.0
O431 O 0.03234 0.56136 0.38834 0.0
O432 O 0.05356 0.59466 0.61496 0.0
O433 O 0.03454 0.57998 0.52678 0.0
Co434 Co 0.41255 0.46945 0.55873 0.0
O435 O 0.39074 0.45711 0.49876 0.0
O436 O 0.39747 0.48142 0.56779 0.0
C437 C 0.41023 0.44357 0.61025 0.0
O438 O 0.43347 0.48509 0.62998 0.0
Co439 Co 0.44564 0.46169 0.5355 0.0
O440 O 0.45255 0.47284 0.63193 0.0
C441 C 0.44268 0.48954 0.44518 0.0
C442 C 0.38595 0.46876 0.52344 0.0
C443 C 0.44692 0.48346 0.65774 0.0
O444 O 0.42777 0.48682 0.47793 0.0
O445 O 0.45108 0.48036 0.45826 0.0
O446 O 0.40021 0.45059 0.63319 0.0
O447 O 0.41916 0.45075 0.55158 0.0
Co448 Co 0.52895 0.93448 0.53001 0.0
O449 O 0.54259 0.92728 0.4666 0.0
O450 O 0.5157 0.90746 0.51808 0.0
C451 C 0.55312 0.95378 0.60153 0.0
O452 O 0.51145 0.9373 0.60039 0.0
Co453 Co 0.5401 0.97673 0.53372 0.0
O454 O 0.52427 0.96825 0.62026 0.0
C455 C 0.51486 0.9521 0.42057 0.0
C456 C 0.52962 0.91014 0.47731 0.0
C457 C 0.51231 0.95128 0.63461 0.0
O458 O 0.51505 0.93775 0.4468 0.0
O459 O 0.5249 0.96873 0.44457 0.0
O460 O 0.5447 0.93582 0.61062 0.0
O461 O 0.54862 0.95906 0.54366 0.0
Co462 Co 0.26046 0.40039 0.30634 0.0
O463 O 0.28078 0.40644 0.37127 0.0
O464 O 0.27462 0.42721 0.32256 0.0
C465 C 0.2653 0.38157 0.2322 0.0
O466 O 0.24092 0.39897 0.23523 0.0
Co467 Co 0.22866 0.35853 0.29351 0.0
O468 O 0.22266 0.36848 0.20754 0.0
C469 C 0.22787 0.38185 0.41168 0.0
C470 C 0.28543 0.42379 0.36288 0.0
C471 C 0.22814 0.38572 0.19721 0.0
O472 O 0.24275 0.39641 0.38843 0.0
O473 O 0.22124 0.36556 0.38437 0.0
O474 O 0.27521 0.39959 0.22588 0.0
O475 O 0.25507 0.37583 0.28879 0.0
Co476 Co 0.60467 0.85947 0.2614 0.0
O477 O 0.59633 0.87164 0.32752 0.0
O478 O 0.5777 0.84891 0.25403 0.0
C479 C 0.62893 0.88575 0.21519 0.0
O480 O 0.60862 0.84418 0.18405 0.0
Co481 Co 0.64487 0.86483 0.27605 0.0
O482 O 0.63972 0.85525 0.17701 0.0
C483 C 0.61386 0.83701 0.3663 0.0
C484 C 0.57963 0.86103 0.30248 0.0
C485 C 0.62315 0.84545 0.15269 0.0
O486 O 0.60188 0.84065 0.337 0.0
O487 O 0.63136 0.84568 0.35152 0.0
O488 O 0.61201 0.87974 0.19223 0.0
O489 O 0.63026 0.87707 0.27007 0.0
Co490 Co 0.14361 0.74834 0.30804 0.0
O491 O 0.12672 0.72642 0.36105 0.0
O492 O 0.15422 0.73205 0.31995 0.0
C493 C 0.12225 0.74809 0.23123 0.0
O494 O 0.1643 0.76945 0.24951 0.0
Co495 Co 0.13729 0.78262 0.31405 0.0
O496 O 0.15813 0.79315 0.24415 0.0
C497 C 0.15297 0.77346 0.43803 0.0
C498 C 0.13891 0.72097 0.35446 0.0
C499 C 0.16799 0.78575 0.22752 0.0
O500 O 0.1556 0.76197 0.40013 0.0
O501 O 0.14384 0.78127 0.41593 0.0
O502 O 0.12955 0.73757 0.21955 0.0
O503 O 0.12637 0.75643 0.29218 0.0
H504 H 0.23701 0.98 0.33041 0.0
H505 H 0.19392 0.9601 0.17009 0.0
H506 H 0.20492 0.99247 0.13135 0.0
H507 H 0.22931 0.02627 0.13576 0.0
H508 H 0.27231 0.04503 0.29738 0.0
H509 H 0.2587 0.01341 0.34376 0.0
C510 C 0.22982 0.98284 0.28791 0.0
C511 C 0.21474 0.96788 0.25304 0.0
C512 C 0.23631 1.00129 0.266 0.0
C513 C 0.20549 0.97152 0.19791 0.0
C514 C 0.21187 0.98999 0.17561 0.0
C515 C 0.23542 0.02346 0.18203 0.0
C516 C 0.25194 0.038 0.21255 0.0
C517 C 0.22761 0.005 0.20816 0.0
C518 C 0.25973 0.03411 0.27236 0.0
C519 C 0.25198 0.016 0.29896 0.0
H520 H 0.96665 0.2119 0.29817 0.0
H521 H 0.9774 0.18617 0.11847 0.0
H522 H 0.01037 0.2002 0.15441 0.0
H523 H 0.03709 0.22424 0.22641 0.0
H524 H 0.02546 0.25019 0.40325 0.0
H525 H 0.99193 0.23154 0.37989 0.0
C526 C 0.97612 0.20897 0.26796 0.0
C527 C 0.96972 0.19821 0.20551 0.0
C528 C 0.99498 0.21733 0.28821 0.0
C529 C 0.98202 0.19437 0.16698 0.0
C530 C 1.00092 0.20256 0.18715 0.0
C531 C 0.0271 0.22527 0.26095 0.0
C532 C 0.03358 0.23844 0.31666 0.0
C533 C 0.00773 0.21471 0.2461 0.0
C534 C 0.02065 0.24 0.36046 0.0
C535 C 1.00152 0.22944 0.34686 0.0
H536 H 0.78446 0.79586 0.37623 0.0
H537 H 0.75699 0.79245 0.17657 0.0
H538 H 0.77577 0.7811 0.11702 0.0
H539 H 0.79659 0.76791 0.12542 0.0
H540 H 0.82107 0.76728 0.32745 0.0
H541 H 0.80724 0.78458 0.38259 0.0
C542 C 0.78304 0.79311 0.31932 0.0
C543 C 0.76953 0.79512 0.28047 0.0
C544 C 0.79326 0.78568 0.28621 0.0
C545 C 0.76739 0.79107 0.20722 0.0
C546 C 0.77806 0.78451 0.1733 0.0
C547 C 0.79934 0.77213 0.18097 0.0
C548 C 0.8101 0.76678 0.22222 0.0
C549 C 0.79057 0.78117 0.2127 0.0
C550 C 0.81312 0.77165 0.29464 0.0
C551 C 0.80507 0.78138 0.32614 0.0
H552 H 0.77067 0.9582 0.70586 0.0
H553 H 0.78055 0.97535 0.92598 0.0
H554 H 0.79997 0.00805 0.88947 0.0
H555 H 0.80952 0.0319 0.79418 0.0
H556 H 0.80121 0.01458 0.57423 0.0
H557 H 0.78612 0.98176 0.61084 0.0
C558 C 0.77761 0.96909 0.74561 0.0
C559 C 0.7742 0.96453 0.81832 0.0
C560 C 0.78888 0.98778 0.72412 0.0
C561 C 0.78316 0.97862 0.86969 0.0
C562 C 0.79411 0.9973 0.8488 0.0
C563 C 0.80503 0.02091 0.75455 0.0
C564 C 0.80646 0.02549 0.68178 0.0
C565 C 0.79645 0.0021 0.77614 0.0
C566 C 0.80044 0.01127 0.63053 0.0
C567 C 0.79164 0.99253 0.65148 0.0
H568 H 0.04452 0.80614 0.83388 0.0
H569 H 0.06304 0.80161 0.6239 0.0
H570 H 0.03217 0.79262 0.57483 0.0
H571 H 0.99865 0.78067 0.59558 0.0
H572 H 0.97902 0.78098 0.80786 0.0
H573 H 0.01135 0.7972 0.85235 0.0
C574 C 0.04191 0.80383 0.77704 0.0
C575 C 0.05602 0.80474 0.73221 0.0
C576 C 0.02377 0.79765 0.74997 0.0
C577 C 0.05239 0.80116 0.65905 0.0
C578 C 0.03471 0.79589 0.63115 0.0
C579 C 1.0016 0.78499 0.65098 0.0
C580 C 0.98665 0.7801 0.69826 0.0
C581 C 0.0201 0.79334 0.67655 0.0
C582 C 0.99043 0.78504 0.77045 0.0
C583 C 0.00888 0.79411 0.7959 0.0
H584 H 0.22335 0.20646 0.65066 0.0
H585 H 0.26899 0.23295 0.80111 0.0
H586 H 0.25445 0.24915 0.85573 0.0
H587 H 0.23102 0.25879 0.85266 0.0
H588 H 0.18485 0.2331 0.70553 0.0
H589 H 0.1971 0.21344 0.65829 0.0
C590 C 0.22987 0.21549 0.69624 0.0
C591 C 0.24742 0.21869 0.72094 0.0
C592 C 0.22143 0.22504 0.72763 0.0
C593 C 0.25566 0.23042 0.78022 0.0
C594 C 0.24736 0.23973 0.81166 0.0
C595 C 0.22345 0.24861 0.81109 0.0
C596 C 0.2072 0.2474 0.78216 0.0
C597 C 0.23061 0.23761 0.78445 0.0
C598 C 0.19738 0.23415 0.72875 0.0
C599 C 0.20448 0.22305 0.70149 0.0
H600 H 0.9047 0.30871 0.63064 0.0
H601 H 0.84964 0.30259 0.62788 0.0
H602 H 0.86272 0.33414 0.57658 0.0
H603 H 0.89028 0.36345 0.53099 0.0
H604 H 0.94515 0.36895 0.54401 0.0
H605 H 0.93166 0.33769 0.59309 0.0
C606 C 0.89549 0.3142 0.61848 0.0
C607 C 0.87621 0.30328 0.63183 0.0
C608 C 0.90313 0.3323 0.59108 0.0
C609 C 0.86453 0.31075 0.61755 0.0
C610 C 0.87202 0.32876 0.58826 0.0
C611 C 0.89922 0.35776 0.54485 0.0
C612 C 0.9187 0.36853 0.53351 0.0
C613 C 0.89135 0.33968 0.57456 0.0
C614 C 0.93015 0.36106 0.55229 0.0
C615 C 0.92245 0.34312 0.58019 0.0
H616 H 0.64344 0.528 0.51327 0.0
H617 H 0.62416 0.55276 0.67011 0.0
H618 H 0.65473 0.56794 0.72719 0.0
H619 H 0.68795 0.57803 0.72226 0.0
H620 H 0.70866 0.55458 0.56659 0.0
H621 H 0.67671 0.53493 0.51964 0.0
C622 C 0.64586 0.53626 0.56116 0.0
C623 C 0.6316 0.53936 0.58728 0.0
C624 C 0.66382 0.54542 0.59321 0.0
C625 C 0.63495 0.55027 0.64885 0.0
C626 C 0.65245 0.55903 0.68142 0.0
C627 C 0.68535 0.56825 0.67919 0.0
C628 C 0.70048 0.56768 0.64776 0.0
C629 C 0.66715 0.5573 0.65247 0.0
C630 C 0.6971 0.55507 0.5919 0.0
C631 C 0.67887 0.54398 0.56479 0.0
H632 H 0.44907 0.1358 0.68112 0.0
H633 H 0.42375 0.13106 0.47532 0.0
H634 H 0.44171 0.1176 0.42516 0.0
H635 H 0.45989 0.10195 0.44527 0.0
H636 H 0.48303 0.10364 0.65271 0.0
H637 H 0.471 0.12364 0.69705 0.0
C638 C 0.44808 0.13243 0.62479 0.0
C639 C 0.43523 0.13447 0.58165 0.0
C640 C 0.45786 0.12386 0.59707 0.0
C641 C 0.43364 0.12966 0.50918 0.0
C642 C 0.44381 0.12185 0.48066 0.0
C643 C 0.46286 0.10732 0.49941 0.0
C644 C 0.4725 0.10168 0.54555 0.0
C645 C 0.45529 0.11813 0.5248 0.0
C646 C 0.47592 0.10819 0.61611 0.0
C647 C 0.46886 0.11944 0.64151 0.0
H648 H 0.44392 0.30285 0.1514 0.0
H649 H 0.40911 0.28631 0.96343 0.0
H650 H 0.4282 0.31741 0.91239 0.0
H651 H 0.45105 0.35057 0.93056 0.0
H652 H 0.4844 0.36817 0.12164 0.0
H653 H 0.46997 0.33558 0.16195 0.0
C654 C 0.44096 0.30592 0.0983 0.0
C655 C 0.42511 0.29234 0.06123 0.0
C656 C 0.45162 0.32416 0.07034 0.0
C657 C 0.42121 0.29657 0.99298 0.0
C658 C 0.43206 0.31438 0.96392 0.0
C659 C 0.45562 0.34711 0.9797 0.0
C660 C 0.46893 0.36156 0.02265 0.0
C661 C 0.44677 0.32849 0.00339 0.0
C662 C 0.47443 0.35714 0.08721 0.0
C663 C 0.46602 0.33854 0.1105 0.0
H664 H 0.68614 0.1308 0.18407 0.0
H665 H 0.70643 0.10452 0.03781 0.0
H666 H 0.67585 0.08768 0.98186 0.0
H667 H 0.64264 0.07756 0.98255 0.0
H668 H 0.62118 0.10335 0.12439 0.0
H669 H 0.65282 0.12332 0.17372 0.0
C670 C 0.68391 0.12168 0.13907 0.0
C671 C 0.69851 0.1187 0.116 0.0
C672 C 0.66603 0.11178 0.10691 0.0
C673 C 0.69541 0.10687 0.05746 0.0
C674 C 0.6779 0.09718 0.0253 0.0
C675 C 0.64498 0.08778 0.02358 0.0
C676 C 0.62975 0.08895 0.05048 0.0
C677 C 0.66301 0.09907 0.05101 0.0
C678 C 0.63282 0.1023 0.10296 0.0
C679 C 0.65086 0.1136 0.1313 0.0
H680 H 0.8586 0.57201 0.04781 0.0
H681 H 0.88449 0.58006 0.25428 0.0
H682 H 0.89892 0.56174 0.21799 0.0
H683 H 0.90797 0.54771 0.12204 0.0
H684 H 0.88206 0.5389 0.91528 0.0
H685 H 0.86366 0.55301 0.95681 0.0
C686 C 0.86679 0.56906 0.08544 0.0
C687 C 0.87034 0.57708 0.15387 0.0
C688 C 0.87534 0.55874 0.06357 0.0
C689 C 0.88136 0.57368 0.20183 0.0
C690 C 0.88978 0.56341 0.18081 0.0
C691 C 0.89802 0.54858 0.08656 0.0
C692 C 0.89651 0.54257 0.01557 0.0
C693 C 0.88748 0.55655 0.11098 0.0
C694 C 0.88344 0.54349 0.9702 0.0
C695 C 0.873 0.55163 0.99386 0.0
H696 H 0.56319 0.7005 0.94715 0.0
H697 H 0.56472 0.68399 0.7305 0.0
H698 H 0.54743 0.65104 0.76503 0.0
H699 H 0.53606 0.62732 0.86043 0.0
H700 H 0.53229 0.64329 0.0757 0.0
H701 H 0.54588 0.67598 0.03849 0.0
C702 C 0.55915 0.68961 0.90739 0.0
C703 C 0.56509 0.69451 0.83647 0.0
C704 C 0.54897 0.67065 0.92758 0.0
C705 C 0.56003 0.68042 0.78523 0.0
C706 C 0.5503 0.66161 0.80506 0.0
C707 C 0.53768 0.63791 0.89854 0.0
C708 C 0.53327 0.63303 0.97054 0.0
C709 C 0.54527 0.65659 0.87651 0.0
C710 C 0.53544 0.64677 0.01978 0.0
C711 C 0.54338 0.66548 -0.00136 0.0
H712 H 0.37495 0.92476 0.85614 0.0
H713 H 0.36999 0.88695 0.02422 0.0
H714 H 0.33678 0.86648 -0.0055 0.0
H715 H 0.308 0.86206 0.93152 0.0
H716 H 0.31393 0.90185 0.76999 0.0
H717 H 0.34777 0.91873 0.78594 0.0
C718 C 0.36672 0.91181 0.88533 0.0
C719 C 0.37486 0.90746 0.94263 0.0
C720 C 0.34765 0.90059 0.86964 0.0
C721 C 0.36407 0.89058 0.97959 0.0
C722 C 0.34501 0.87899 0.96311 0.0
C723 C 0.31684 0.87419 0.89907 0.0
C724 C 0.3086 0.88083 0.84986 0.0
C725 C 0.33644 0.88423 0.90998 0.0
C726 C 0.32006 0.89662 0.80838 0.0
C727 C 0.33939 0.90628 0.81747 0.0
H728 H 0.12864 0.42251 0.97488 0.0
H729 H 0.14982 0.4495 0.77232 0.0
H730 H 0.14016 0.47247 0.80048 0.0
H731 H 0.12097 0.48154 0.87562 0.0
H732 H 0.10007 0.454 0.07758 0.0
H733 H 0.11452 0.43481 0.05764 0.0
C734 C 0.13159 0.43374 0.93776 0.0
C735 C 0.13976 0.43425 0.87148 0.0
C736 C 0.12587 0.44672 0.95412 0.0
C737 C 0.14362 0.44889 0.82389 0.0
C738 C 0.13792 0.46191 0.83973 0.0
C739 C 0.12021 0.47178 0.91605 0.0
C740 C 0.10962 0.46919 0.9782 0.0
C741 C 0.12838 0.46054 0.90362 0.0
C742 C 0.10834 0.45629 0.02977 0.0
C743 C 0.11647 0.44523 0.01814 0.0
H744 H 0.11325 0.63616 0.40792 0.0
H745 H 0.08369 0.64526 0.57852 0.0
H746 H 0.10014 0.67869 0.55347 0.0
H747 H 0.11919 0.70438 0.47251 0.0
H748 H 0.14888 0.69628 0.3 0.0
H749 H 0.13642 0.66358 0.33637 0.0
C750 C 0.11099 0.64563 0.44092 0.0
C751 C 0.09743 0.63839 0.49535 0.0
C752 C 0.12025 0.66494 0.42494 0.0
C753 C 0.09422 0.65064 0.53686 0.0
C754 C 0.10349 0.66971 0.52218 0.0
C755 C 0.12321 0.69553 0.44366 0.0
C756 C 0.1347 0.70259 0.38323 0.0
C757 C 0.11595 0.67688 0.46469 0.0
C758 C 0.14003 0.69111 0.34677 0.0
C759 C 0.1328 0.67239 0.36733 0.0
H760 H 0.37155 0.47527 0.40321 0.0
H761 H 0.35738 0.45285 0.616 0.0
H762 H 0.324 0.43839 0.58801 0.0
H763 H 0.2992 0.428 0.49673 0.0
H764 H 0.31296 0.45181 0.28594 0.0
H765 H 0.34608 0.47019 0.31927 0.0
C766 C 0.36109 0.46778 0.44396 0.0
C767 C 0.36676 0.46512 0.51158 0.0
C768 C 0.3419 0.45962 0.4275 0.0
C769 C 0.35322 0.45522 0.56393 0.0
C770 C 0.33416 0.44682 0.54772 0.0
C771 C 0.30941 0.43773 0.45905 0.0
C772 C 0.30377 0.43859 0.38909 0.0
C773 C 0.32836 0.44833 0.47886 0.0
C774 C 0.31702 0.45112 0.34036 0.0
C775 C 0.33598 0.46146 0.3592 0.0
H776 H 0.53348 0.90148 0.34131 0.0
H777 H 0.53366 0.88562 0.56002 0.0
H778 H 0.5477 0.86679 0.52443 0.0
H779 H 0.56449 0.85913 0.43284 0.0
H780 H 0.5622 0.87304 0.21305 0.0
H781 H 0.54413 0.88807 0.24654 0.0
C782 C 0.53598 0.89333 0.38061 0.0
C783 C 0.53256 0.89483 0.45304 0.0
C784 C 0.54387 0.88238 0.35953 0.0
C785 C 0.53598 0.88442 0.50385 0.0
C786 C 0.54419 0.87382 0.48358 0.0
C787 C 0.55944 0.8649 0.39223 0.0
C788 C 0.56459 0.86502 0.32069 0.0
C789 C 0.54885 0.87329 0.4119 0.0
C790 C 0.55816 0.87262 0.26832 0.0
C791 C 0.548 0.88137 0.28757 0.0
H792 H 0.28695 0.14684 0.70925 0.0
H793 H 0.26735 0.1765 0.83974 0.0
H794 H 0.26265 0.15545 0.9401 0.0
H795 H 0.26961 0.13228 -0.00479 0.0
H796 H 0.29029 0.10373 0.864 0.0
H797 H 0.28867 0.12029 0.75848 0.0
C798 C 0.28128 0.14842 0.75933 0.0
C799 C 0.27781 0.16331 0.768 0.0
C800 C 0.27881 0.13643 0.81632 0.0
C801 C 0.27019 0.16513 0.83232 0.0
C802 C 0.2676 0.15318 0.88962 0.0
C803 C 0.27293 0.12915 0.94281 0.0
C804 C 0.27978 0.11668 0.9365 0.0
C805 C 0.27257 0.13924 0.88297 0.0
C806 C 0.28462 0.11302 0.86924 0.0
C807 C 0.28394 0.12267 0.80929 0.0
H808 H 0.85047 0.13653 0.73048 0.0
H809 H 0.83482 0.08628 0.84985 0.0
H810 H 0.85681 0.10493 0.94548 0.0
H811 H 0.87799 0.13627 -0.00019 0.0
H812 H 0.89229 0.18577 0.87676 0.0
H813 H 0.87367 0.16671 0.77698 0.0
C814 C 0.85195 0.12964 0.77737 0.0
C815 C 0.84082 0.1102 0.78433 0.0
C816 C 0.86447 0.14036 0.83109 0.0
C817 C 0.84316 0.10131 0.84405 0.0
C818 C 0.85569 0.11197 0.89854 0.0
C819 C 0.87737 0.14274 0.95031 0.0
C820 C 0.88643 0.16235 0.94528 0.0
C821 C 0.86612 0.1316 0.89338 0.0
C822 C 0.8854 0.1707 0.8815 0.0
C823 C 0.87468 0.15982 0.82468 0.0
H824 H 0.87374 0.7181 0.72939 0.0
H825 H 0.92225 0.74886 0.86287 0.0
H826 H 0.9024 0.75108 0.95628 0.0
H827 H 0.87036 0.74024 0.00474 0.0
H828 H 0.82243 0.708 0.86958 0.0
H829 H 0.84293 0.71063 0.7711 0.0
C830 C 0.88 0.72549 0.77872 0.0
C831 C 0.89927 0.733 0.79026 0.0
C832 C 0.86856 0.72641 0.83155 0.0
C833 C 0.90738 0.74289 0.85336 0.0
C834 C 0.89602 0.74406 0.90663 0.0
C835 C 0.86456 0.73433 0.95294 0.0
C836 C 0.84499 0.72397 0.94384 0.0
C837 C 0.87648 0.73535 0.8971 0.0
C838 C 0.83747 0.71605 0.87726 0.0
C839 C 0.84916 0.71745 0.82125 0.0
H840 H 0.16093 0.27653 0.67007 0.0
H841 H 0.20631 0.33057 0.60719 0.0
H842 H 0.1879 0.33119 0.50633 0.0
H843 H 0.15793 0.31817 0.44469 0.0
H844 H 0.11156 0.2651 0.51088 0.0
H845 H 0.13143 0.2622 0.60123 0.0
C846 C 0.16697 0.2882 0.63311 0.0
C847 C 0.18497 0.30349 0.64609 0.0
C848 C 0.15602 0.28878 0.5766 0.0
C849 C 0.19249 0.31864 0.59839 0.0
C850 C 0.18193 0.31906 0.54098 0.0
C851 C 0.1521 0.30592 0.4787 0.0
C852 C 0.13314 0.29204 0.47182 0.0
C853 C 0.16347 0.30452 0.53112 0.0
C854 C 0.12605 0.27606 0.51525 0.0
C855 C 0.13741 0.27441 0.56705 0.0
H856 H 0.74336 0.85414 0.51591 0.0
H857 H 0.70898 0.80387 0.63596 0.0
H858 H 0.70969 0.82233 0.73858 0.0
H859 H 0.71528 0.85213 0.7856 0.0
H860 H 0.74816 0.90282 0.66627 0.0
H861 H 0.75313 0.88502 0.57203 0.0
C862 C 0.73665 0.84737 0.56556 0.0
C863 C 0.72615 0.82775 0.56894 0.0
C864 C 0.73653 0.85813 0.62364 0.0
C865 C 0.71717 0.81897 0.63272 0.0
C866 C 0.71745 0.82951 0.69107 0.0
C867 C 0.72385 0.8593 0.73949 0.0
C868 C 0.73109 0.8786 0.73179 0.0
C869 C 0.72632 0.849 0.68581 0.0
C870 C 0.74241 0.8879 0.6728 0.0
C871 C 0.74513 0.87771 0.61892 0.0
H872 H 0.19763 0.87351 0.53466 0.0
H873 H 0.15547 0.88137 0.4302 0.0
H874 H 0.13194 0.8602 0.5166 0.0
H875 H 0.12309 0.83733 0.61729 0.0
H876 H 0.16654 0.83056 0.71729 0.0
H877 H 0.18966 0.85309 0.63657 0.0
C878 C 0.18329 0.87067 0.53078 0.0
C879 C 0.17821 0.87874 0.47566 0.0
C880 C 0.16998 0.85838 0.5793 0.0
C881 C 0.1597 0.87528 0.47234 0.0
C882 C 0.14624 0.86307 0.52136 0.0
C883 C 0.13762 0.84089 0.62128 0.0
C884 C 0.14292 0.83174 0.67175 0.0
C885 C 0.15113 0.85418 0.57432 0.0
C886 C 0.1619 0.83676 0.67711 0.0
C887 C 0.17524 0.84985 0.63151 0.0
H888 H 0.73996 0.87754 0.02523 0.0
H889 H 0.69251 0.87989 0.10978 0.0
H890 H 0.69086 0.86045 0.21053 0.0
H891 H 0.70068 0.84043 0.26767 0.0
H892 H 0.74727 0.83638 0.18397 0.0
H893 H 0.7516 0.85894 0.08994 0.0
C894 C 0.72961 0.87413 0.06682 0.0
C895 C 0.71636 0.88008 0.06038 0.0
C896 C 0.72838 0.86242 0.12383 0.0
C897 C 0.70281 0.8754 0.11378 0.0
C898 C 0.7018 0.86423 0.17113 0.0
C899 C 0.71183 0.84444 0.22898 0.0
C900 C 0.7234 0.83643 0.232 0.0
C901 C 0.71412 0.85721 0.17541 0.0
C902 C 0.73806 0.84221 0.18246 0.0
C903 C 0.74052 0.85509 0.1287 0.0
H904 H 0.1386 0.85176 0.95142 0.0
H905 H 0.13699 0.8041 0.05368 0.0
H906 H 0.15815 0.82416 0.14613 0.0
H907 H 0.17852 0.85495 0.19343 0.0
H908 H 0.1809 0.90347 0.09661 0.0
H909 H 0.15789 0.88334 0.00635 0.0
C910 C 0.14261 0.84581 -0.00514 0.0
C911 C 0.13639 0.82651 -0.00455 0.0
C912 C 0.15509 0.85755 0.04791 0.0
C913 C 0.14176 0.81893 0.05169 0.0
C914 C 0.15389 0.83038 0.10448 0.0
C915 C 0.17417 0.86125 0.1523 0.0
C916 C 0.18176 0.88073 0.15047 0.0
C917 C 0.16097 0.84969 0.10201 0.0
C918 C 0.17543 0.88852 0.09842 0.0
C919 C 0.16228 0.87701 0.04706 0.0
H920 H 0.15265 0.27188 0.00531 0.0
H921 H 0.1567 0.32038 0.90148 0.0
H922 H 0.13253 0.31924 0.97904 0.0
H923 H 0.11423 0.30778 0.08828 0.0
H924 H 0.1101 0.25976 0.19588 0.0
H925 H 0.12969 0.25694 0.10402 0.0
C926 C 0.14784 0.28184 -0.00138 0.0
C927 C 0.15679 0.2965 0.94906 0.0
C928 C 0.13396 0.28124 0.04438 0.0
C929 C 0.15038 0.30929 0.94062 0.0
C930 C 0.1365 0.30862 0.98478 0.0
C931 C 0.11719 0.29638 0.09049 0.0
C932 C 0.11096 0.28417 0.14908 0.0
C933 C 0.1288 0.29517 0.03877 0.0
C934 C 0.11471 0.26933 0.15109 0.0
C935 C 0.12611 0.26785 0.09901 0.0
H936 H 0.8538 0.74069 0.32206 0.0
H937 H 0.85086 0.69195 0.22359 0.0
H938 H 0.87455 0.69363 0.3038 0.0
H939 H 0.89455 0.70715 0.40617 0.0
H940 H 0.89824 0.75527 0.51087 0.0
H941 H 0.87644 0.75607 0.42277 0.0
C942 C 0.85842 0.73053 0.31823 0.0
C943 C 0.85004 0.71588 0.26805 0.0
C944 C 0.87236 0.73155 0.36511 0.0
C945 C 0.85647 0.703 0.26307 0.0
C946 C 0.87023 0.70402 0.30848 0.0
C947 C 0.89076 0.71798 0.40926 0.0
C948 C 0.89778 0.73101 0.46499 0.0
C949 C 0.878 0.71797 0.36032 0.0
C950 C 0.89304 0.74514 0.46796 0.0
C951 C 0.88042 0.74543 0.41813 0.0
H952 H 0.28663 0.14893 0.20941 0.0
H953 H 0.2695 0.10019 0.3406 0.0
H954 H 0.26335 0.11569 0.44025 0.0
H955 H 0.26839 0.14521 0.49475 0.0
H956 H 0.2865 0.19395 0.36281 0.0
H957 H 0.28627 0.17628 0.25782 0.0
C958 C 0.28117 0.14158 0.25947 0.0
C959 C 0.27882 0.12363 0.2685 0.0
C960 C 0.27782 0.1506 0.31605 0.0
C961 C 0.27148 0.11406 0.33284 0.0
C962 C 0.26806 0.12296 0.38975 0.0
C963 C 0.2714 0.15161 0.44228 0.0
C964 C 0.27713 0.17069 0.43573 0.0
C965 C 0.27187 0.1415 0.38272 0.0
C966 C 0.28163 0.17916 0.36831 0.0
C967 C 0.28178 0.16913 0.30865 0.0
H968 H 0.84511 0.14261 0.49738 0.0
H969 H 0.85042 0.09554 0.43013 0.0
H970 H 0.87328 0.11511 0.33891 0.0
H971 H 0.8894 0.1451 0.27124 0.0
H972 H 0.88252 0.19117 0.34034 0.0
H973 H 0.86273 0.17249 0.4384 0.0
C974 C 0.85126 0.13656 0.46296 0.0
C975 C 0.84582 0.11756 0.46962 0.0
C976 C 0.86415 0.14776 0.411 0.0
C977 C 0.85429 0.11011 0.42572 0.0
C978 C 0.86732 0.12129 0.37352 0.0
C979 C 0.8839 0.15112 0.30888 0.0
C980 C 0.88733 0.16946 0.2984 0.0
C981 C 0.87208 0.14008 0.36473 0.0
C982 C 0.87998 0.17706 0.34704 0.0
C983 C 0.86861 0.16638 0.40301 0.0
H984 H 0.93156 0.46935 0.34717 0.0
H985 H 0.9309 0.4279 0.20623 0.0
H986 H 0.9243 0.44237 0.10451 0.0
H987 H 0.92636 0.4709 0.05441 0.0
H988 H 0.92878 0.51325 0.19496 0.0
H989 H 0.92651 0.49421 0.29887 0.0
C990 C 0.9291 0.46308 0.29455 0.0
C991 C 0.93162 0.44768 0.28345 0.0
C992 C 0.9259 0.47182 0.23649 0.0
C993 C 0.92875 0.43965 0.21549 0.0
C994 C 0.92522 0.44806 0.15742 0.0
C995 C 0.92551 0.47548 0.10786 0.0
C996 C 0.92768 0.49329 0.11783 0.0
C997 C 0.92484 0.46473 0.16689 0.0
C998 C 0.92691 0.49944 0.1867 0.0
C999 C 0.92585 0.48866 0.24589 0.0
H1000 H 0.55891 0.48498 0.304 0.0
H1001 H 0.51394 0.48146 0.43304 0.0
H1002 H 0.49097 0.45628 0.35894 0.0
H1003 H 0.4834 0.43948 0.24592 0.0
H1004 H 0.52752 0.44269 0.11326 0.0
H1005 H 0.55099 0.4633 0.20041 0.0
C1006 C 0.54413 0.47827 0.31686 0.0
C1007 C 0.53809 0.48528 0.37303 0.0
C1008 C 0.5308 0.46387 0.27282 0.0
C1009 C 0.51889 0.4765 0.38926 0.0
C1010 C 0.50572 0.4621 0.34691 0.0
C1011 C 0.49812 0.4442 0.23735 0.0
C1012 C 0.50376 0.43973 0.17336 0.0
C1013 C 0.51145 0.45629 0.28675 0.0
C1014 C 0.52285 0.44587 0.16259 0.0
C1015 C 0.53629 0.45785 0.21202 0.0
H1016 H 0.55567 0.06165 0.1588 0.0
H1017 H 0.54073 0.00452 0.2025 0.0
H1018 H 0.52136 0.0035 0.30234 0.0
H1019 H 0.50572 0.01733 0.36733 0.0
H1020 H 0.51934 0.07401 0.323 0.0
H1021 H 0.54239 0.07681 0.23408 0.0
C1022 C 0.54859 0.04916 0.1914 0.0
C1023 C 0.54953 0.03313 0.17273 0.0
C1024 C 0.53703 0.0485 0.24799 0.0
C1025 C 0.54013 0.017 0.21527 0.0
C1026 C 0.52898 0.01637 0.27227 0.0
C1027 C 0.51384 0.03039 0.33877 0.0
C1028 C 0.51059 0.04535 0.35099 0.0
C1029 C 0.52681 0.03179 0.28739 0.0
C1030 C 0.5215 0.06226 0.31444 0.0
C1031 C 0.53463 0.06383 0.26337 0.0
H1032 H 0.82288 0.64449 0.79682 0.0
H1033 H 0.77618 0.59315 0.87426 0.0
H1034 H 0.79637 0.59097 0.96552 0.0
H1035 H 0.82622 0.60616 0.03298 0.0
H1036 H 0.87199 0.65842 0.95693 0.0
H1037 H 0.85328 0.65761 0.85483 0.0
C1038 C 0.81712 0.63268 0.83313 0.0
C1039 C 0.79797 0.61917 0.82959 0.0
C1040 C 0.82866 0.63175 0.88591 0.0
C1041 C 0.79085 0.60377 0.87604 0.0
C1042 C 0.80238 0.60259 0.92845 0.0
C1043 C 0.83225 0.6171 0.993 0.0
C1044 C 0.85044 0.63243 0.00286 0.0
C1045 C 0.82116 0.61684 0.93531 0.0
C1046 C 0.858 0.64657 0.9509 0.0
C1047 C 0.84728 0.64615 0.89263 0.0
H1048 H 0.3601 0.14888 0.8935 0.0
H1049 H 0.4112 0.19163 0.79795 0.0
H1050 H 0.41282 0.21437 0.8865 0.0
H1051 H 0.39746 0.22261 0.98365 0.0
H1052 H 0.34536 0.17884 0.07144 0.0
H1053 H 0.34633 0.15619 0.9929 0.0
C1054 C 0.37174 0.16314 0.89243 0.0
C1055 C 0.38536 0.16867 0.83892 0.0
C1056 C 0.3722 0.17609 0.94142 0.0
C1057 C 0.40054 0.18706 0.83891 0.0
C1058 C 0.40134 0.20009 0.88899 0.0
C1059 C 0.3864 0.20811 0.98561 0.0
C1060 C 0.37118 0.20264 0.03254 0.0
C1061 C 0.38688 0.19489 0.93923 0.0
C1062 C 0.35705 0.18369 0.03492 0.0
C1063 C 0.35761 0.17059 0.99029 0.0
H1064 H 0.80476 0.20737 0.84584 0.0
H1065 H 0.85468 0.23585 0.97392 0.0
H1066 H 0.83749 0.21789 0.07868 0.0
H1067 H 0.80988 0.19062 0.12769 0.0
H1068 H 0.75978 0.16128 0.00104 0.0
H1069 H 0.77524 0.18306 0.9017 0.0
C1070 C 0.81156 0.21015 0.89756 0.0
C1071 C 0.83081 0.22304 0.903 0.0
C1072 C 0.80168 0.19927 0.95702 0.0
C1073 C 0.83976 0.22623 0.96935 0.0
C1074 C 0.83 0.21578 0.02886 0.0
C1075 C 0.80228 0.18919 0.07861 0.0
C1076 C 0.78392 0.17422 0.07073 0.0
C1077 C 0.81123 0.2017 0.02237 0.0
C1078 C 0.774 0.17266 0.00779 0.0
C1079 C 0.78286 0.18507 0.9511 0.0
H1080 H 0.39737 0.2114 0.30151 0.0
H1081 H 0.3601 0.22281 0.42519 0.0
H1082 H 0.36153 0.20438 0.52392 0.0
H1083 H 0.36968 0.18174 0.56804 0.0
H1084 H 0.40584 0.16854 0.44608 0.0
H1085 H 0.40875 0.19104 0.3536 0.0
C1086 C 0.39007 0.21026 0.35101 0.0
C1087 C 0.37863 0.21839 0.35642 0.0
C1088 C 0.39045 0.19904 0.40695 0.0
C1089 C 0.36898 0.21666 0.42016 0.0
C1090 C 0.36969 0.20603 0.47634 0.0
C1091 C 0.37833 0.18389 0.5214 0.0
C1092 C 0.38719 0.17326 0.51274 0.0
C1093 C 0.37975 0.19658 0.46909 0.0
C1094 C 0.39876 0.17649 0.45329 0.0
C1095 C 0.40035 0.18929 0.40053 0.0
H1096 H 0.808 0.19043 0.62776 0.0
H1097 H 0.83645 0.23963 0.49636 0.0
H1098 H 0.8145 0.22327 0.39824 0.0
H1099 H 0.79054 0.19324 0.34499 0.0
H1100 H 0.7629 0.14423 0.47759 0.0
H1101 H 0.78075 0.16231 0.58118 0.0
C1102 C 0.80918 0.19763 0.5779 0.0
C1103 C 0.82396 0.21599 0.56827 0.0
C1104 C 0.79655 0.18818 0.52243 0.0
C1105 C 0.82522 0.2254 0.50438 0.0
C1106 C 0.81271 0.21604 0.44842 0.0
C1107 C 0.78786 0.18684 0.39741 0.0
C1108 C 0.77528 0.16758 0.40448 0.0
C1109 C 0.79871 0.19722 0.4561 0.0
C1110 C 0.77224 0.15914 0.47176 0.0
C1111 C 0.78266 0.16941 0.53058 0.0
H1112 H 0.78819 0.64715 0.46636 0.0
H1113 H 0.77401 0.59208 0.53882 0.0
H1114 H 0.79406 0.5903 0.4464 0.0
H1115 H 0.81922 0.6065 0.356 0.0
H1116 H 0.83319 0.66193 0.28791 0.0
H1117 H 0.80979 0.66144 0.36736 0.0
C1118 C 0.78917 0.63458 0.46107 0.0
C1119 C 0.77981 0.61989 0.50996 0.0
C1120 C 0.80104 0.63386 0.40926 0.0
C1121 C 0.78104 0.6036 0.50177 0.0
C1122 C 0.79269 0.60266 0.44938 0.0
C1123 C 0.81691 0.61831 0.3578 0.0
C1124 C 0.82834 0.63441 0.31712 0.0
C1125 C 0.80334 0.61803 0.40453 0.0
C1126 C 0.825 0.64954 0.31976 0.0
C1127 C 0.81151 0.64926 0.36505 0.0
H1128 H 0.50939 0.01974 0.87428 0.0
H1129 H 0.55887 0.07128 0.81732 0.0
H1130 H 0.54092 0.07741 0.72758 0.0
H1131 H 0.51213 0.06574 0.65467 0.0
H1132 H 0.46339 0.01321 0.71007 0.0
H1133 H 0.48 0.0099 0.81154 0.0
C1134 C 0.51621 0.03238 0.84264 0.0
C1135 C 0.53548 0.04483 0.85141 0.0
C1136 C 0.50592 0.03558 0.79066 0.0
C1137 C 0.54406 0.06142 0.81135 0.0
C1138 C 0.53381 0.06487 0.7598 0.0
C1139 C 0.50501 0.05384 0.69014 0.0
C1140 C 0.4866 0.03966 0.67447 0.0
C1141 C 0.51486 0.05174 0.74745 0.0
C1142 C 0.4776 0.02424 0.7206 0.0
C1143 C 0.48711 0.02229 0.77849 0.0
H1144 H 0.94508 0.4758 0.54911 0.0
H1145 H 0.94104 0.43077 0.67832 0.0
H1146 H 0.93593 0.44492 0.78499 0.0
H1147 H 0.93698 0.47242 0.84235 0.0
H1148 H 0.94019 0.51687 0.71181 0.0
H1149 H 0.94098 0.50054 0.60389 0.0
C1150 C 0.94275 0.46896 0.60059 0.0
C1151 C 0.9437 0.4525 0.60672 0.0
C1152 C 0.9397 0.47709 0.66092 0.0
C1153 C 0.94041 0.44351 0.67293 0.0
C1154 C 0.93758 0.45163 0.73369 0.0
C1155 C 0.93722 0.47814 0.78996 0.0
C1156 C 0.93838 0.49564 0.78423 0.0
C1157 C 0.93778 0.46871 0.72854 0.0
C1158 C 0.93896 0.50322 0.71677 0.0
C1159 C 0.93963 0.494 0.65537 0.0
H1160 H 0.55605 0.4883 0.65591 0.0
H1161 H 0.54428 0.53209 0.71186 0.0
H1162 H 0.52464 0.5133 0.81057 0.0
H1163 H 0.50871 0.48368 0.87365 0.0
H1164 H 0.51883 0.43888 0.81607 0.0
H1165 H 0.54137 0.45892 0.72553 0.0
C1166 C 0.54957 0.4939 0.69089 0.0
C1167 C 0.55164 0.51158 0.67667 0.0
C1168 C 0.5378 0.48275 0.74647 0.0
C1169 C 0.5429 0.51853 0.72169 0.0
C1170 C 0.53159 0.50776 0.77792 0.0
C1171 C 0.51583 0.47821 0.84159 0.0
C1172 C 0.51185 0.45966 0.85118 0.0
C1173 C 0.52855 0.48968 0.78944 0.0
C1174 C 0.52152 0.45304 0.80968 0.0
C1175 C 0.53441 0.4645 0.75784 0.0
H1176 H 0.62406 0.81114 0.36394 0.0
H1177 H 0.5899 0.82786 0.48092 0.0
H1178 H 0.58532 0.8053 0.57571 0.0
H1179 H 0.59538 0.78438 0.63245 0.0
H1180 H 0.63118 0.7698 0.51462 0.0
H1181 H 0.63056 0.78768 0.4122 0.0
C1182 C 0.61534 0.8096 0.40973 0.0
C1183 C 0.60757 0.82126 0.41646 0.0
C1184 C 0.61317 0.79703 0.46379 0.0
C1185 C 0.59605 0.81901 0.47505 0.0
C1186 C 0.59356 0.80623 0.52926 0.0
C1187 C 0.60252 0.78472 0.58342 0.0
C1188 C 0.61335 0.7759 0.58062 0.0
C1189 C 0.60263 0.79564 0.52536 0.0
C1190 C 0.62281 0.77656 0.51756 0.0
C1191 C 0.62253 0.78684 0.45926 0.0
H1192 H 0.1844 0.81586 0.72458 0.0
H1193 H 0.23633 0.826 0.63085 0.0
H1194 H 0.21902 0.80335 0.53612 0.0
H1195 H 0.18922 0.78466 0.47 0.0
H1196 H 0.1379 0.77742 0.56004 0.0
H1197 H 0.15472 0.79476 0.66628 0.0
C1198 C 0.19189 0.81303 0.68353 0.0
C1199 C 0.21155 0.82288 0.6835 0.0
C1200 C 0.1819 0.80056 0.62838 0.0
C1201 C 0.22116 0.81863 0.63172 0.0
C1202 C 0.21127 0.80579 0.5773 0.0
C1203 C 0.18171 0.78643 0.51399 0.0
C1204 C 0.16238 0.77979 0.50761 0.0
C1205 C 0.19165 0.79721 0.57362 0.0
C1206 C 0.15278 0.78242 0.5641 0.0
C1207 C 0.1624 0.79244 0.62453 0.0
H1208 H 0.187 0.39761 0.66644 0.0
H1209 H 0.14004 0.34879 0.57393 0.0
H1210 H 0.16009 0.34815 0.48026 0.0
H1211 H 0.19085 0.3599 0.4292 0.0
H1212 H 0.2386 0.40865 0.51747 0.0
H1213 H 0.21834 0.41084 0.60875 0.0
C1214 C 0.18118 0.38705 0.625 0.0
C1215 C 0.16211 0.37319 0.62729 0.0
C1216 C 0.19293 0.38652 0.57159 0.0
C1217 C 0.15471 0.35949 0.57368 0.0
C1218 C 0.16617 0.35905 0.52027 0.0
C1219 C 0.19697 0.37098 0.46865 0.0
C1220 C 0.2163 0.38386 0.46755 0.0
C1221 C 0.18532 0.3722 0.51978 0.0
C1222 C 0.22379 0.39843 0.51775 0.0
C1223 C 0.2122 0.39969 0.56974 0.0
H1224 H 0.49685 0.97131 0.41164 0.0
H1225 H 0.50082 0.92669 0.30935 0.0
H1226 H 0.47826 0.92435 0.21783 0.0
H1227 H 0.45927 0.93706 0.16266 0.0
H1228 H 0.45601 0.98154 0.27046 0.0
H1229 H 0.47629 0.9817 0.36489 0.0
C1230 C 0.49286 0.96107 0.36921 0.0
C1231 C 0.5008 0.94949 0.36605 0.0
C1232 C 0.47991 0.95973 0.31817 0.0
C1233 C 0.49503 0.9359 0.3122 0.0
C1234 C 0.48215 0.93458 0.2601 0.0
C1235 C 0.46267 0.94641 0.20781 0.0
C1236 C 0.4563 0.95938 0.20943 0.0
C1237 C 0.47468 0.94663 0.262 0.0
C1238 C 0.4609 0.97156 0.26781 0.0
C1239 C 0.47254 0.97172 0.32169 0.0
H1240 H 0.07781 0.56254 0.35139 0.0
H1241 H 0.03438 0.56829 0.24643 0.0
H1242 H 0.03712 0.55256 0.14084 0.0
H1243 H 0.04734 0.53208 0.089 0.0
H1244 H 0.08908 0.52399 0.19582 0.0
H1245 H 0.09183 0.54595 0.28953 0.0
C1246 C 0.06949 0.56096 0.30427 0.0
C1247 C 0.05585 0.56646 0.30651 0.0
C1248 C 0.07057 0.55113 0.24483 0.0
C1249 C 0.04493 0.56412 0.24573 0.0
C1250 C 0.04639 0.555 0.18565 0.0
C1251 C 0.05734 0.53544 0.13205 0.0
C1252 C 0.06775 0.52622 0.13637 0.0
C1253 C 0.05844 0.54761 0.18622 0.0
C1254 C 0.08088 0.53089 0.19156 0.0
C1255 C 0.08233 0.54334 0.24537 0.0
H1256 H 0.47888 0.51494 0.44631 0.0
H1257 H 0.42782 0.49912 0.33161 0.0
H1258 H 0.44572 0.52226 0.23829 0.0
H1259 H 0.47668 0.54386 0.18239 0.0
H1260 H 0.52717 0.55798 0.29907 0.0
H1261 H 0.50876 0.53894 0.39944 0.0
C1262 C 0.47164 0.51676 0.40127 0.0
C1263 C 0.45219 0.50523 0.39476 0.0
C1264 C 0.48198 0.52979 0.34836 0.0
C1265 C 0.44284 0.50785 0.33722 0.0
C1266 C 0.45309 0.521 0.28391 0.0
C1267 C 0.48352 0.54316 0.2308 0.0
C1268 C 0.5032 0.55222 0.2337 0.0
C1269 C 0.47277 0.53164 0.28782 0.0
C1270 C 0.51203 0.55108 0.296 0.0
C1271 C 0.50153 0.54012 0.35313 0.0
H1272 H 0.07479 0.5555 0.66358 0.0
H1273 H 0.02245 0.51055 0.58281 0.0
H1274 H 0.02454 0.48873 0.66337 0.0
H1275 H 0.03856 0.48312 0.76793 0.0
H1276 H 0.09039 0.52737 0.85297 0.0
H1277 H 0.09149 0.54846 0.75851 0.0
C1278 C 0.06403 0.54089 0.66281 0.0
C1279 C 0.04826 0.53488 0.61819 0.0
C1280 C 0.0652 0.52819 0.71014 0.0
C1281 C 0.03455 0.51578 0.61752 0.0
C1282 C 0.03573 0.50318 0.6635 0.0
C1283 C 0.05038 0.49723 0.76455 0.0
C1284 C 0.06426 0.50372 0.81755 0.0
C1285 C 0.05061 0.50934 0.71166 0.0
C1286 C 0.07957 0.52199 0.81243 0.0
C1287 C 0.08006 0.53414 0.75899 0.0
H1288 H 0.4994 0.5206 0.92004 0.0
H1289 H 0.4944 0.56808 0.85539 0.0
H1290 H 0.47204 0.54903 0.76189 0.0
H1291 H 0.45527 0.519 0.69452 0.0
H1292 H 0.4613 0.47235 0.76324 0.0
H1293 H 0.48177 0.49098 0.85989 0.0
C1294 C 0.49354 0.52693 0.88552 0.0
C1295 C 0.49883 0.54586 0.894 0.0
C1296 C 0.48078 0.51597 0.83279 0.0
C1297 C 0.49068 0.55358 0.84964 0.0
C1298 C 0.47789 0.54268 0.79627 0.0
C1299 C 0.46085 0.51291 0.73153 0.0
C1300 C 0.45692 0.49439 0.72146 0.0
C1301 C 0.47297 0.52387 0.78688 0.0
C1302 C 0.4643 0.48664 0.76941 0.0
C1303 C 0.47604 0.49728 0.82463 0.0
H1304 H 0.51826 0.97406 0.74485 0.0
H1305 H 0.47594 0.9222 0.65276 0.0
H1306 H 0.45282 0.92115 0.73863 0.0
H1307 H 0.44435 0.93674 0.83498 0.0
H1308 H 0.48801 0.98923 0.91982 0.0
H1309 H 0.51064 0.9884 0.84064 0.0
C1310 C 0.50398 0.96243 0.74347 0.0
C1311 C 0.49876 0.94836 0.69198 0.0
C1312 C 0.49086 0.96223 0.79103 0.0
C1313 C 0.48032 0.93321 0.69208 0.0
C1314 C 0.46708 0.93272 0.74071 0.0
C1315 C 0.45881 0.94794 0.83589 0.0
C1316 C 0.46425 0.9633 0.88212 0.0
C1317 C 0.4721 0.94743 0.78955 0.0
C1318 C 0.48316 0.97756 0.88334 0.0
C1319 C 0.49626 0.97703 0.83857 0.0
H1320 H 0.17427 0.40111 0.00542 0.0
H1321 H 0.17179 0.35414 0.89428 0.0
H1322 H 0.19588 0.35509 0.97092 0.0
H1323 H 0.21566 0.36716 0.07479 0.0
H1324 H 0.21857 0.41332 0.19243 0.0
H1325 H 0.1969 0.41527 0.10701 0.0
C1326 C 0.17917 0.39125 -0.00202 0.0
C1327 C 0.17082 0.3772 0.94567 0.0
C1328 C 0.19319 0.39179 0.04306 0.0
C1329 C 0.17748 0.36465 0.9358 0.0
C1330 C 0.19142 0.36528 0.97911 0.0
C1331 C 0.21173 0.37781 0.08136 0.0
C1332 C 0.21845 0.38991 0.14004 0.0
C1333 C 0.19902 0.37845 0.0338 0.0
C1334 C 0.21356 0.40386 0.14734 0.0
C1335 C 0.20103 0.40484 0.09896 0.0
H1336 H 0.63664 0.8101 0.88122 0.0
H1337 H 0.5901 0.75987 0.96665 0.0
H1338 H 0.58596 0.77837 0.06021 0.0
H1339 H 0.59767 0.80881 0.12357 0.0
H1340 H 0.64489 0.8582 0.03618 0.0
H1341 H 0.6465 0.84007 0.93682 0.0
C1342 C 0.62556 0.8031 0.92025 0.0
C1343 C 0.61394 0.78357 0.91783 0.0
C1344 C 0.62334 0.81375 0.97332 0.0
C1345 C 0.59935 0.77487 0.96772 0.0
C1346 C 0.597 0.78545 0.02119 0.0
C1347 C 0.60797 0.81559 0.08168 0.0
C1348 C 0.62116 0.83479 0.08697 0.0
C1349 C 0.60915 0.8049 0.02527 0.0
C1350 C 0.63464 0.84344 0.03313 0.0
C1351 C 0.63563 0.83307 0.97655 0.0
H1352 H 0.22621 0.82105 0.9765 0.0
H1353 H 0.22822 0.87078 0.05861 0.0
H1354 H 0.20909 0.85329 0.16041 0.0
H1355 H 0.18798 0.82325 0.2153 0.0
H1356 H 0.18434 0.77283 0.13263 0.0
H1357 H 0.20801 0.79114 0.0422 0.0
C1358 C 0.22303 0.82813 0.01822 0.0
C1359 C 0.22864 0.84717 0.01037 0.0
C1360 C 0.21136 0.81777 0.07547 0.0
C1361 C 0.22411 0.85616 0.06386 0.0
C1362 C 0.21301 0.84612 0.12165 0.0
C1363 C 0.19251 0.81626 0.17805 0.0
C1364 C 0.18419 0.79668 0.17979 0.0
C1365 C 0.2059 0.82681 0.1262 0.0
C1366 C 0.19048 0.78788 0.13211 0.0
C1367 C 0.20396 0.79835 0.08028 0.0
H1368 H 0.37946 0.12109 0.87265 0.0
H1369 H 0.3396 0.087 0.71186 0.0
H1370 H 0.31459 0.0741 0.80129 0.0
H1371 H 0.30372 0.07437 0.92313 0.0
H1372 H 0.343 0.1111 0.08071 0.0
H1373 H 0.3686 0.12127 -0.00525 0.0
C1374 C 0.36538 0.11049 0.85776 0.0
C1375 C 0.36136 0.10466 0.78631 0.0
C1376 C 0.35096 0.10387 0.9087 0.0
C1377 C 0.34298 0.09145 0.76689 0.0
C1378 C 0.3287 0.08419 0.81785 0.0
C1379 C 0.31793 0.0844 0.93891 0.0
C1380 C 0.32152 0.09186 0.00831 0.0
C1381 C 0.33246 0.09056 0.88862 0.0
C1382 C 0.33992 0.10512 0.02763 0.0
C1383 C 0.35456 0.11092 0.97855 0.0
H1384 H 0.91773 0.24005 0.0587 0.0
H1385 H 0.93413 0.21248 0.90337 0.0
H1386 H 0.92237 0.22386 0.80702 0.0
H1387 H 0.90467 0.23924 0.76846 0.0
H1388 H 0.88965 0.26791 0.92427 0.0
H1389 H 0.90365 0.25859 0.01889 0.0
C1390 C 0.91904 0.23686 0.00359 0.0
C1391 C 0.92667 0.22542 0.98799 0.0
C1392 C 0.91231 0.24347 0.9487 0.0
C1393 C 0.92842 0.22141 0.91654 0.0
C1394 C 0.92155 0.22777 0.86151 0.0
C1395 C 0.9047 0.24361 0.82305 0.0
C1396 C 0.89604 0.25409 0.83959 0.0
C1397 C 0.91303 0.23842 0.87717 0.0
C1398 C 0.89628 0.25986 0.91026 0.0
C1399 C 0.90422 0.25448 0.96445 0.0
H1400 H 0.76162 0.66408 0.77984 0.0
H1401 H 0.74122 0.61862 0.93077 0.0
H1402 H 0.75194 0.64077 0.02963 0.0
H1403 H 0.76932 0.67309 0.07309 0.0
H1404 H 0.78917 0.71872 0.92344 0.0
H1405 H 0.77625 0.69654 0.82438 0.0
C1406 C 0.75935 0.65905 0.83442 0.0
C1407 C 0.75077 0.63974 0.84791 0.0
C1408 C 0.76546 0.6719 0.89125 0.0
C1409 C 0.74779 0.6334 0.91887 0.0
C1410 C 0.75397 0.64606 0.97551 0.0
C1411 C 0.77051 0.67815 0.01885 0.0
C1412 C 0.78019 0.69748 0.00555 0.0
C1413 C 0.7631 0.66534 0.9623 0.0
C1414 C 0.78162 0.70389 0.93512 0.0
C1415 C 0.77438 0.69121 0.87839 0.0
H1416 H 0.11445 0.37512 0.59769 0.0
H1417 H 0.0852 0.33545 0.76577 0.0
H1418 H 0.07213 0.30995 0.67894 0.0
H1419 H 0.07173 0.29863 0.55756 0.0
H1420 H 0.10269 0.33809 0.39066 0.0
H1421 H 0.11246 0.36396 0.4746 0.0
C1422 C 0.10477 0.36097 0.61492 0.0
C1423 C 0.10061 0.35715 0.68785 0.0
C1424 C 0.09795 0.3463 0.56509 0.0
C1425 C 0.08846 0.33869 0.70976 0.0
C1426 C 0.08112 0.32411 0.66025 0.0
C1427 C 0.08044 0.3129 0.53934 0.0
C1428 C 0.08655 0.31642 0.46806 0.0
C1429 C 0.08621 0.32769 0.58812 0.0
C1430 C 0.09784 0.33499 0.44532 0.0
C1431 C 0.10342 0.3498 0.49329 0.0
H1432 H 0.67397 0.75435 0.42553 0.0
H1433 H 0.71805 0.77436 0.58253 0.0
H1434 H 0.69484 0.76258 0.67841 0.0
H1435 H 0.66197 0.74928 0.71758 0.0
H1436 H 0.61796 0.7279 0.55991 0.0
H1437 H 0.64108 0.73737 0.46455 0.0
C1438 C 0.67845 0.75576 0.48074 0.0
C1439 C 0.69765 0.76523 0.49698 0.0
C1440 C 0.66502 0.74885 0.53552 0.0
C1441 C 0.70332 0.76696 0.56864 0.0
C1442 C 0.69005 0.76037 0.62353 0.0
C1443 C 0.65748 0.74642 0.66236 0.0
C1444 C 0.63831 0.73799 0.64581 0.0
C1445 C 0.67087 0.7517 0.60764 0.0
C1446 C 0.63263 0.73426 0.57412 0.0
C1447 C 0.64585 0.73978 0.51946 0.0
H1448 H 0.22698 0.9265 0.53112 0.0
H1449 H 0.25922 0.91617 0.3754 0.0
H1450 H 0.27043 0.90333 0.46829 0.0
H1451 H 0.26909 0.89283 0.59195 0.0
H1452 H 0.23527 0.90144 0.74606 0.0
H1453 H 0.22655 0.91703 0.6557 0.0
C1454 C 0.23682 0.92186 0.51795 0.0
C1455 C 0.24247 0.92246 0.44683 0.0
C1456 C 0.24265 0.91387 0.57113 0.0
C1457 C 0.25483 0.91596 0.43003 0.0
C1458 C 0.26113 0.90851 0.48297 0.0
C1459 C 0.25994 0.89825 0.60586 0.0
C1460 C 0.25281 0.89594 0.67552 0.0
C1461 C 0.25481 0.90702 0.55342 0.0
C1462 C 0.24091 0.90299 0.69272 0.0
C1463 C 0.23594 0.91194 0.64112 0.0
H1464 H 0.70773 0.92811 0.06724 0.0
H1465 H 0.67309 0.90704 0.87953 0.0
H1466 H 0.64492 0.89578 0.95275 0.0
H1467 H 0.63017 0.88918 0.07113 0.0
H1468 H 0.66483 0.90749 0.25942 0.0
H1469 H 0.69298 0.92277 0.18524 0.0
C1470 C 0.69403 0.92144 0.04226 0.0
C1471 C 0.69245 0.91853 0.9681 0.0
C1472 C 0.67791 0.9144 0.08497 0.0
C1473 C 0.67461 0.90949 0.93655 0.0
C1474 C 0.65852 0.90301 0.97839 0.0
C1475 C 0.64387 0.89693 0.0958 0.0
C1476 C 0.64547 0.89741 0.17053 0.0
C1477 C 0.65998 0.90502 0.05281 0.0
C1478 C 0.66331 0.90706 0.20192 0.0
C1479 C 0.67938 0.91571 0.15956 0.0
H1480 H 0.11739 0.73746 0.09175 0.0
H1481 H 0.10482 0.76855 0.24523 0.0
H1482 H 0.09057 0.77794 0.15169 0.0
H1483 H 0.08406 0.77951 0.02482 0.0
H1484 H 0.09852 0.75022 0.87 0.0
H1485 H 0.10925 0.7376 0.96548 0.0
C1486 C 0.11131 0.74609 0.10485 0.0
C1487 C 0.11222 0.75234 0.17532 0.0
C1488 C 0.1034 0.7517 0.0505 0.0
C1489 C 0.10437 0.7636 0.19137 0.0
C1490 C 0.0962 0.76897 0.1379 0.0
C1491 C 0.08908 0.76995 0.01217 0.0
C1492 C 0.09034 0.76564 0.94055 0.0
C1493 C 0.0959 0.76336 0.06709 0.0
C1494 C 0.09729 0.75361 0.92484 0.0
C1495 C 0.10356 0.74652 0.97935 0.0
H1496 H 0.24611 0.34372 0.23137 0.0
H1497 H 0.27433 0.39155 0.09258 0.0
H1498 H 0.26225 0.37125 0.98813 0.0
H1499 H 0.24164 0.34012 0.93634 0.0
H1500 H 0.21369 0.29234 0.07565 0.0
H1501 H 0.22759 0.31239 0.17961 0.0
C1502 C 0.24987 0.34966 0.17824 0.0
C1503 C 0.26104 0.36911 0.16981 0.0
C1504 C 0.2427 0.33794 0.11845 0.0
C1505 C 0.26584 0.37661 0.10064 0.0
C1506 C 0.25879 0.36503 0.04082 0.0
C1507 C 0.2387 0.33411 0.98946 0.0
C1508 C 0.22655 0.31481 -0.00167 0.0
C1509 C 0.24687 0.34571 0.04911 0.0
C1510 C 0.22297 0.30717 0.06739 0.0
C1511 C 0.23091 0.31862 0.12691 0.0
H1512 H 0.91233 0.67375 0.27673 0.0
H1513 H 0.88513 0.62946 0.43141 0.0
H1514 H 0.90162 0.65141 0.52799 0.0
H1515 H 0.92229 0.68351 0.56919 0.0
H1516 H 0.94989 0.72786 0.41518 0.0
H1517 H 0.93506 0.70555 0.31782 0.0
C1518 C 0.91012 0.66891 0.33157 0.0
C1519 C 0.89742 0.65004 0.34691 0.0
C1520 C 0.91979 0.6816 0.38699 0.0
C1521 C 0.8948 0.64392 0.41814 0.0
C1522 C 0.90422 0.65647 0.47347 0.0
C1523 C 0.9253 0.68823 0.51427 0.0
C1524 C 0.93713 0.7073 0.49951 0.0
C1525 C 0.91658 0.67537 0.4586 0.0
C1526 C 0.94094 0.71323 0.42808 0.0
C1527 C 0.93232 0.7005 0.37232 0.0
H1528 H 0.29831 0.23466 0.42114 0.0
H1529 H 0.33904 0.24162 0.58058 0.0
H1530 H 0.36404 0.25557 0.49165 0.0
H1531 H 0.37371 0.26259 0.36605 0.0
H1532 H 0.33233 0.25218 0.20483 0.0
H1533 H 0.30823 0.24312 0.29669 0.0
C1534 C 0.31271 0.23957 0.43662 0.0
C1535 C 0.31688 0.23721 0.50724 0.0
C1536 C 0.32688 0.24695 0.38468 0.0
C1537 C 0.33553 0.24332 0.52642 0.0
C1538 C 0.34981 0.25129 0.47562 0.0
C1539 C 0.35954 0.2589 0.35145 0.0
C1540 C 0.35478 0.25831 0.27913 0.0
C1541 C 0.3456 0.25278 0.40425 0.0
C1542 C 0.33627 0.25292 0.2604 0.0
C1543 C 0.32249 0.2476 0.31281 0.0
H1544 H 0.76439 0.0811 0.5588 0.0
H1545 H 0.79087 0.06433 0.39981 0.0
H1546 H 0.77927 0.0763 0.30536 0.0
H1547 H 0.76336 0.09352 0.26852 0.0
H1548 H 0.73532 0.10862 0.42665 0.0
H1549 H 0.74569 0.09534 0.52077 0.0
C1550 C 0.76737 0.07984 0.50336 0.0
C1551 C 0.77851 0.07192 0.48629 0.0
C1552 C 0.76049 0.08659 0.44923 0.0
C1553 C 0.78223 0.07027 0.41431 0.0
C1554 C 0.77571 0.07723 0.36026 0.0
C1555 C 0.75939 0.09369 0.32356 0.0
C1556 C 0.7487 0.10207 0.34085 0.0
C1557 C 0.76511 0.08572 0.37718 0.0
C1558 C 0.74347 0.10213 0.41211 0.0
C1559 C 0.74946 0.09462 0.46596 0.0
H1560 H 1.00301 0.44136 0.37702 0.0
H1561 H 0.95962 0.41025 0.22262 0.0
H1562 H 0.98291 0.42146 0.12681 0.0
H1563 H 0.01566 0.44091 0.08668 0.0
H1564 H 0.05914 0.47027 0.2428 0.0
H1565 H 0.03585 0.45893 0.3382 0.0
C1566 C 0.9987 0.43699 0.32238 0.0
C1567 C 0.97967 0.42509 0.30668 0.0
C1568 C 0.01219 0.4432 0.26795 0.0
C1569 C 0.97423 0.41935 0.23592 0.0
C1570 C 0.98753 0.42582 0.18115 0.0
C1571 C 0.01999 0.44471 0.14168 0.0
C1572 C 0.03904 0.45644 0.15777 0.0
C1573 C 0.00654 0.43785 0.19647 0.0
C1574 C 0.04455 0.46118 0.22918 0.0
C1575 C 0.03124 0.45476 0.28372 0.0
H1576 H 0.57356 0.57596 0.10962 0.0
H1577 H 0.55772 0.60616 0.25508 0.0
H1578 H 0.56802 0.5949 0.35601 0.0
H1579 H 0.57858 0.57401 0.4037 0.0
H1580 H 0.59521 0.54436 0.25915 0.0
H1581 H 0.58757 0.55786 0.15705 0.0
C1582 C 0.57271 0.58036 0.16334 0.0
C1583 C 0.56476 0.59175 0.17484 0.0
C1584 C 0.57856 0.57373 0.22131 0.0
C1585 C 0.56383 0.59744 0.24465 0.0
C1586 C 0.56958 0.59088 0.30254 0.0
C1587 C 0.5807 0.57067 0.34979 0.0
C1588 C 0.58724 0.55808 0.33875 0.0
C1589 C 0.57647 0.57861 0.29159 0.0
C1590 C 0.59017 0.55401 0.26883 0.0
C1591 C 0.58576 0.56169 0.21051 0.0
H1592 H 0.42834 0.00283 0.09569 0.0
H1593 H 0.39873 0.95525 0.23476 0.0
H1594 H 0.40885 0.97582 0.33862 0.0
H1595 H 0.4288 0.00701 0.39058 0.0
H1596 H 0.45828 0.05457 0.25133 0.0
H1597 H 0.44552 0.03436 0.14708 0.0
C1598 C 0.42381 0.99701 0.14865 0.0
C1599 C 0.41293 0.97755 0.1575 0.0
C1600 C 0.42987 0.0089 0.20824 0.0
C1601 C 0.40708 0.97019 0.22639 0.0
C1602 C 0.41299 0.98194 0.28594 0.0
C1603 C 0.43224 0.01295 0.33739 0.0
C1604 C 0.4446 0.03221 0.32867 0.0
C1605 C 0.42482 1.00125 0.27761 0.0
C1606 C 0.44883 0.03977 0.2595 0.0
C1607 C 0.44157 0.02822 0.19981 0.0
H1608 H 0.57316 0.99718 0.89314 0.0
H1609 H 0.59226 0.0442 0.75051 0.0
H1610 H 0.58538 0.02353 0.64776 0.0
H1611 H 0.57185 0.99176 0.59839 0.0
H1612 H 0.55331 0.94487 0.74154 0.0
H1613 H 0.56238 0.96583 0.84398 0.0
C1614 C 0.57594 0.0029 0.83955 0.0
C1615 C 0.58305 0.02214 0.82933 0.0
C1616 C 0.5721 0.99096 0.7808 0.0
C1617 C 0.58678 0.02942 0.75972 0.0
C1618 C 0.58281 0.01761 0.70095 0.0
C1619 C 0.57009 0.98618 0.652 0.0
C1620 C 0.56181 0.96677 0.66224 0.0
C1621 C 0.57522 0.99831 0.71082 0.0
C1622 C 0.55969 0.95975 0.73203 0.0
C1623 C 0.56474 0.97172 0.79076 0.0
H1624 H 0.03607 0.58685 0.73746 0.0
H1625 H 1.00003 0.57087 0.55286 0.0
H1626 H 0.97276 0.56102 0.62971 0.0
H1627 H 0.95897 0.55582 0.7495 0.0
H1628 H 0.99459 0.56957 0.93443 0.0
H1629 H 0.02223 0.58162 0.85758 0.0
C1630 C 0.02226 0.58133 0.71413 0.0
C1631 C 0.02007 0.57963 0.63963 0.0
C1632 C 0.00658 0.57536 0.75874 0.0
C1633 C 1.00208 0.57228 0.61011 0.0
C1634 C 0.98648 0.56668 0.65399 0.0
C1635 C 0.97282 0.56175 0.77289 0.0
C1636 C 0.97482 0.56206 0.84741 0.0
C1637 C 0.98854 0.56805 0.72837 0.0
C1638 C 0.99277 0.56933 0.87711 0.0
C1639 C 0.00855 0.57615 0.83322 0.0
H1640 H 0.40904 0.44258 0.75484 0.0
H1641 H 0.42495 0.42172 0.5729 0.0
H1642 H 0.43843 0.40793 0.65211 0.0
H1643 H 0.44779 0.40392 0.77263 0.0
H1644 H 0.43385 0.42688 0.95362 0.0
H1645 H 0.41753 0.43775 0.87537 0.0
C1646 C 0.41509 0.43467 0.73261 0.0
C1647 C 0.41583 0.43297 0.65817 0.0
C1648 C 0.42339 0.42737 0.77834 0.0
C1649 C 0.42412 0.42308 0.63007 0.0
C1650 C 0.43191 0.41529 0.67532 0.0
C1651 C 0.44098 0.4111 0.79503 0.0
C1652 C 0.442 0.41456 0.86886 0.0
C1653 C 0.43195 0.41766 0.74948 0.0
C1654 C 0.43327 0.42405 0.89698 0.0
C1655 C 0.42393 0.43027 0.85225 0.0
loop_
_geom_bond_atom_site_label_1
_geom_bond_atom_site_label_2
_geom_bond_distance
_geom_bond_site_symmetry_2
_ccdc_geom_bond_type
Co0 O1 2.216 . S
Co0 O2 2.091 . S
Co0 O4 2.004 1_554 S
Co0 O10 2.021 . S
Co0 O12 2.137 1_554 S
Co0 O13 2.244 . S
O1 Co0 2.216 . S
O1 C8 1.247 . S
O2 Co0 2.091 . S
O2 C8 1.261 . S
C3 O12 1.247 1_554 S
C3 O13 1.272 . S
O4 Co0 2.004 1_556 S
O4 C9 1.259 . S
Co5 O6 2.061 1_554 S
Co5 O11 2.052 . S
Co5 O13 2.135 . S
O6 Co5 2.061 1_556 S
O6 C9 1.235 . S
C7 O10 1.238 . S
C7 O11 1.241 . S
C8 O1 1.247 . S
C8 O2 1.261 . S
C9 O4 1.259 . S
C9 O6 1.235 . S
O10 Co0 2.021 . S
O10 C7 1.238 . S
O11 Co5 2.052 . S
O11 C7 1.241 . S
O12 Co0 2.137 1_556 S
O12 C3 1.247 1_556 S
O13 Co0 2.244 . S
O13 C3 1.272 . S
O13 Co5 2.135 . S
Co14 O15 2.216 . S
Co14 O16 2.091 . S
Co14 O18 2.004 1_554 S
Co14 O24 2.021 . S
Co14 O26 2.137 1_554 S
Co14 O27 2.244 . S
O15 Co14 2.216 . S
O15 C22 1.247 . S
O16 Co14 2.091 . S
O16 C22 1.261 . S
C17 O26 1.247 1_554 S
C17 O27 1.272 . S
O18 Co14 2.004 1_556 S
O18 C23 1.259 . S
Co19 O20 2.061 1_554 S
Co19 O25 2.052 . S
Co19 O27 2.135 . S
O20 Co19 2.061 1_556 S
O20 C23 1.235 . S
C21 O24 1.238 . S
C21 O25 1.241 . S
C22 O15 1.247 . S
C22 O16 1.261 . S
C23 O18 1.259 . S
C23 O20 1.235 . S
O24 Co14 2.021 . S
O24 C21 1.238 . S
O25 Co19 2.052 . S
O25 C21 1.241 . S
O26 Co14 2.137 1_556 S
O26 C17 1.247 1_556 S
O27 Co14 2.244 . S
O27 C17 1.272 . S
O27 Co19 2.135 . S
Co28 O29 2.216 . S
Co28 O30 2.091 . S
Co28 O32 2.004 1_554 S
Co28 O38 2.021 . S
Co28 O40 2.137 1_554 S
Co28 O41 2.244 . S
O29 Co28 2.216 . S
O29 C36 1.247 . S
O30 Co28 2.091 . S
O30 C36 1.261 . S
C31 O40 1.247 1_554 S
C31 O41 1.272 . S
O32 Co28 2.004 1_556 S
O32 C37 1.259 . S
Co33 O34 2.061 1_554 S
Co33 O39 2.052 . S
Co33 O41 2.135 . S
O34 Co33 2.061 1_556 S
O34 C37 1.235 . S
C35 O38 1.238 . S
C35 O39 1.241 . S
C36 O29 1.247 . S
C36 O30 1.261 . S
C37 O32 1.259 . S
C37 O34 1.235 . S
O38 Co28 2.021 . S
O38 C35 1.238 . S
O39 Co33 2.052 . S
O39 C35 1.241 . S
O40 Co28 2.137 1_556 S
O40 C31 1.247 1_556 S
O41 Co28 2.244 . S
O41 C31 1.272 . S
O41 Co33 2.135 . S
Co42 O43 2.216 . S
Co42 O44 2.091 . S
Co42 O46 2.004 . S
Co42 O52 2.021 . S
Co42 O54 2.137 . S
Co42 O55 2.244 . S
O43 Co42 2.216 . S
O43 C50 1.247 . S
O44 Co42 2.091 . S
O44 C50 1.261 . S
C45 O54 1.247 . S
C45 O55 1.272 . S
O46 Co42 2.004 . S
O46 C51 1.259 . S
Co47 O48 2.061 . S
Co47 O53 2.052 . S
Co47 O55 2.135 . S
O48 Co47 2.061 . S
O48 C51 1.235 . S
C49 O52 1.238 . S
C49 O53 1.241 . S
C50 O43 1.247 . S
C50 O44 1.261 . S
C51 O46 1.259 . S
C51 O48 1.235 . S
O52 Co42 2.021 . S
O52 C49 1.238 . S
O53 Co47 2.052 . S
O53 C49 1.241 . S
O54 Co42 2.137 . S
O54 C45 1.247 . S
O55 Co42 2.244 . S
O55 C45 1.272 . S
O55 Co47 2.135 . S
Co56 O57 2.216 . S
Co56 O58 2.091 . S
Co56 O60 2.004 . S
Co56 O66 2.021 . S
Co56 O68 2.137 . S
Co56 O69 2.244 . S
O57 Co56 2.216 . S
O57 C64 1.247 . S
O58 Co56 2.091 . S
O58 C64 1.261 . S
C59 O68 1.247 . S
C59 O69 1.272 . S
O60 Co56 2.004 . S
O60 C65 1.259 . S
Co61 O62 2.061 . S
Co61 O67 2.052 . S
Co61 O69 2.135 . S
O62 Co61 2.061 . S
O62 C65 1.235 . S
C63 O66 1.238 . S
C63 O67 1.241 . S
C64 O57 1.247 . S
C64 O58 1.261 . S
C65 O60 1.259 . S
C65 O62 1.235 . S
O66 Co56 2.021 . S
O66 C63 1.238 . S
O67 Co61 2.052 . S
O67 C63 1.241 . S
O68 Co56 2.137 . S
O68 C59 1.247 . S
O69 Co56 2.244 . S
O69 C59 1.272 . S
O69 Co61 2.135 . S
Co70 O71 2.216 . S
Co70 O72 2.091 . S
Co70 O74 2.004 . S
Co70 O80 2.021 . S
Co70 O82 2.137 . S
Co70 O83 2.244 . S
O71 Co70 2.216 . S
O71 C78 1.247 . S
O72 Co70 2.091 . S
O72 C78 1.261 . S
C73 O82 1.247 . S
C73 O83 1.272 . S
O74 Co70 2.004 . S
O74 C79 1.259 . S
Co75 O76 2.061 . S
Co75 O81 2.052 . S
Co75 O83 2.135 . S
O76 Co75 2.061 . S
O76 C79 1.235 . S
C77 O80 1.238 . S
C77 O81 1.241 . S
C78 O71 1.247 . S
C78 O72 1.261 . S
C79 O74 1.259 . S
C79 O76 1.235 . S
O80 Co70 2.021 . S
O80 C77 1.238 . S
O81 Co75 2.052 . S
O81 C77 1.241 . S
O82 Co70 2.137 . S
O82 C73 1.247 . S
O83 Co70 2.244 . S
O83 C73 1.272 . S
O83 Co75 2.135 . S
Co84 O85 2.216 . S
Co84 O86 2.091 . S
Co84 O88 2.004 1_556 S
Co84 O94 2.021 . S
Co84 O96 2.137 1_556 S
Co84 O97 2.244 . S
O85 Co84 2.216 . S
O85 C92 1.247 . S
O86 Co84 2.091 . S
O86 C92 1.261 . S
C87 O96 1.247 1_556 S
C87 O97 1.272 . S
O88 Co84 2.004 1_554 S
O88 C93 1.259 . S
Co89 O90 2.061 1_556 S
Co89 O95 2.052 . S
Co89 O97 2.135 . S
O90 Co89 2.061 1_554 S
O90 C93 1.235 . S
C91 O94 1.238 . S
C91 O95 1.241 . S
C92 O85 1.247 . S
C92 O86 1.261 . S
C93 O88 1.259 . S
C93 O90 1.235 . S
O94 Co84 2.021 . S
O94 C91 1.238 . S
O95 Co89 2.052 . S
O95 C91 1.241 . S
O96 Co84 2.137 1_554 S
O96 C87 1.247 1_554 S
O97 Co84 2.244 . S
O97 C87 1.272 . S
O97 Co89 2.135 . S
Co98 O99 2.216 . S
Co98 O100 2.091 . S
Co98 O102 2.004 1_556 S
Co98 O108 2.021 . S
Co98 O110 2.137 1_556 S
Co98 O111 2.244 . S
O99 Co98 2.216 . S
O99 C106 1.247 . S
O100 Co98 2.091 . S
O100 C106 1.261 . S
C101 O110 1.247 1_556 S
C101 O111 1.272 . S
O102 Co98 2.004 1_554 S
O102 C107 1.259 . S
Co103 O104 2.061 1_556 S
Co103 O109 2.052 . S
Co103 O111 2.135 . S
O104 Co103 2.061 1_554 S
O104 C107 1.235 . S
C105 O108 1.238 . S
C105 O109 1.241 . S
C106 O99 1.247 . S
C106 O100 1.261 . S
C107 O102 1.259 . S
C107 O104 1.235 . S
O108 Co98 2.021 . S
O108 C105 1.238 . S
O109 Co103 2.052 . S
O109 C105 1.241 . S
O110 Co98 2.137 1_554 S
O110 C101 1.247 1_554 S
O111 Co98 2.244 . S
O111 C101 1.272 . S
O111 Co103 2.135 . S
Co112 O113 2.216 . S
Co112 O114 2.091 . S
Co112 O116 2.004 1_556 S
Co112 O122 2.021 . S
Co112 O124 2.137 1_556 S
Co112 O125 2.244 . S
O113 Co112 2.216 . S
O113 C120 1.247 . S
O114 Co112 2.091 . S
O114 C120 1.261 . S
C115 O124 1.247 1_556 S
C115 O125 1.272 . S
O116 Co112 2.004 1_554 S
O116 C121 1.259 . S
Co117 O118 2.061 1_556 S
Co117 O123 2.052 . S
Co117 O125 2.135 . S
O118 Co117 2.061 1_554 S
O118 C121 1.235 . S
C119 O122 1.238 . S
C119 O123 1.241 . S
C120 O113 1.247 . S
C120 O114 1.261 . S
C121 O116 1.259 . S
C121 O118 1.235 . S
O122 Co112 2.021 . S
O122 C119 1.238 . S
O123 Co117 2.052 . S
O123 C119 1.241 . S
O124 Co112 2.137 1_554 S
O124 C115 1.247 1_554 S
O125 Co112 2.244 . S
O125 C115 1.272 . S
O125 Co117 2.135 . S
Co126 O127 2.216 . S
Co126 O128 2.091 . S
Co126 O130 2.004 . S
Co126 O136 2.021 . S
Co126 O138 2.137 . S
Co126 O139 2.244 . S
O127 Co126 2.216 . S
O127 C134 1.247 . S
O128 Co126 2.091 . S
O128 C134 1.261 . S
C129 O138 1.247 . S
C129 O139 1.272 . S
O130 Co126 2.004 . S
O130 C135 1.259 . S
Co131 O132 2.061 . S
Co131 O137 2.052 . S
Co131 O139 2.135 . S
O132 Co131 2.061 . S
O132 C135 1.235 . S
C133 O136 1.238 . S
C133 O137 1.241 . S
C134 O127 1.247 . S
C134 O128 1.261 . S
C135 O130 1.259 . S
C135 O132 1.235 . S
O136 Co126 2.021 . S
O136 C133 1.238 . S
O137 Co131 2.052 . S
O137 C133 1.241 . S
O138 Co126 2.137 . S
O138 C129 1.247 . S
O139 Co126 2.244 . S
O139 C129 1.272 . S
O139 Co131 2.135 . S
Co140 O141 2.216 . S
Co140 O142 2.091 . S
Co140 O144 2.004 . S
Co140 O150 2.021 . S
Co140 O152 2.137 . S
Co140 O153 2.244 . S
O141 Co140 2.216 . S
O141 C148 1.247 . S
O142 Co140 2.091 . S
O142 C148 1.261 . S
C143 O152 1.247 . S
C143 O153 1.272 . S
O144 Co140 2.004 . S
O144 C149 1.259 . S
Co145 O146 2.061 . S
Co145 O151 2.052 . S
Co145 O153 2.135 . S
O146 Co145 2.061 . S
O146 C149 1.235 . S
C147 O150 1.238 . S
C147 O151 1.241 . S
C148 O141 1.247 . S
C148 O142 1.261 . S
C149 O144 1.259 . S
C149 O146 1.235 . S
O150 Co140 2.021 . S
O150 C147 1.238 . S
O151 Co145 2.052 . S
O151 C147 1.241 . S
O152 Co140 2.137 . S
O152 C143 1.247 . S
O153 Co140 2.244 . S
O153 C143 1.272 . S
O153 Co145 2.135 . S
Co154 O155 2.216 . S
Co154 O156 2.091 . S
Co154 O158 2.004 . S
Co154 O164 2.021 . S
Co154 O166 2.137 . S
Co154 O167 2.244 . S
O155 Co154 2.216 . S
O155 C162 1.247 . S
O156 Co154 2.091 . S
O156 C162 1.261 . S
C157 O166 1.247 . S
C157 O167 1.272 . S
O158 Co154 2.004 . S
O158 C163 1.259 . S
Co159 O160 2.061 . S
Co159 O165 2.052 . S
Co159 O167 2.135 . S
O160 Co159 2.061 . S
O160 C163 1.235 . S
C161 O164 1.238 . S
C161 O165 1.241 . S
C162 O155 1.247 . S
C162 O156 1.261 . S
C163 O158 1.259 . S
C163 O160 1.235 . S
O164 Co154 2.021 . S
O164 C161 1.238 . S
O165 Co159 2.052 . S
O165 C161 1.241 . S
O166 Co154 2.137 . S
O166 C157 1.247 . S
O167 Co154 2.244 . S
O167 C157 1.272 . S
O167 Co159 2.135 . S
Co168 O169 2.216 . S
Co168 O170 2.091 . S
Co168 O172 2.004 . S
Co168 O178 2.021 . S
Co168 O180 2.137 . S
Co168 O181 2.244 . S
O169 Co168 2.216 . S
O169 C176 1.247 . S
O170 Co168 2.091 . S
O170 C176 1.261 . S
C171 O180 1.247 . S
C171 O181 1.272 . S
O172 Co168 2.004 . S
O172 C177 1.259 . S
Co173 O174 2.061 . S
Co173 O179 2.052 . S
Co173 O181 2.135 . S
O174 Co173 2.061 . S
O174 C177 1.235 . S
C175 O178 1.238 . S
C175 O179 1.241 . S
C176 O169 1.247 . S
C176 O170 1.261 . S
C177 O172 1.259 . S
C177 O174 1.235 . S
O178 Co168 2.021 . S
O178 C175 1.238 . S
O179 Co173 2.052 . S
O179 C175 1.241 . S
O180 Co168 2.137 . S
O180 C171 1.247 . S
O181 Co168 2.244 . S
O181 C171 1.272 . S
O181 Co173 2.135 . S
Co182 O183 2.216 . S
Co182 O184 2.091 . S
Co182 O186 2.004 . S
Co182 O192 2.021 . S
Co182 O194 2.137 . S
Co182 O195 2.244 . S
O183 Co182 2.216 . S
O183 C190 1.247 . S
O184 Co182 2.091 . S
O184 C190 1.261 . S
C185 O194 1.247 . S
C185 O195 1.272 . S
O186 Co182 2.004 . S
O186 C191 1.259 . S
Co187 O188 2.061 . S
Co187 O193 2.052 . S
Co187 O195 2.135 . S
O188 Co187 2.061 . S
O188 C191 1.235 . S
C189 O192 1.238 . S
C189 O193 1.241 . S
C190 O183 1.247 . S
C190 O184 1.261 . S
C191 O186 1.259 . S
C191 O188 1.235 . S
O192 Co182 2.021 . S
O192 C189 1.238 . S
O193 Co187 2.052 . S
O193 C189 1.241 . S
O194 Co182 2.137 . S
O194 C185 1.247 . S
O195 Co182 2.244 . S
O195 C185 1.272 . S
O195 Co187 2.135 . S
Co196 O197 2.216 . S
Co196 O198 2.091 . S
Co196 O200 2.004 . S
Co196 O206 2.021 . S
Co196 O208 2.137 . S
Co196 O209 2.244 . S
O197 Co196 2.216 . S
O197 C204 1.247 . S
O198 Co196 2.091 . S
O198 C204 1.261 . S
C199 O208 1.247 . S
C199 O209 1.272 . S
O200 Co196 2.004 . S
O200 C205 1.259 . S
Co201 O202 2.061 . S
Co201 O207 2.052 . S
Co201 O209 2.135 . S
O202 Co201 2.061 . S
O202 C205 1.235 . S
C203 O206 1.238 . S
C203 O207 1.241 . S
C204 O197 1.247 . S
C204 O198 1.261 . S
C205 O200 1.259 . S
C205 O202 1.235 . S
O206 Co196 2.021 . S
O206 C203 1.238 . S
O207 Co201 2.052 . S
O207 C203 1.241 . S
O208 Co196 2.137 . S
O208 C199 1.247 . S
O209 Co196 2.244 . S
O209 C199 1.272 . S
O209 Co201 2.135 . S
Co210 O211 2.216 . S
Co210 O212 2.091 . S
Co210 O214 2.004 . S
Co210 O220 2.021 . S
Co210 O222 2.137 . S
Co210 O223 2.244 . S
O211 Co210 2.216 . S
O211 C218 1.247 . S
O212 Co210 2.091 . S
O212 C218 1.261 . S
C213 O222 1.247 . S
C213 O223 1.272 . S
O214 Co210 2.004 . S
O214 C219 1.259 . S
Co215 O216 2.061 . S
Co215 O221 2.052 . S
Co215 O223 2.135 . S
O216 Co215 2.061 . S
O216 C219 1.235 . S
C217 O220 1.238 . S
C217 O221 1.241 . S
C218 O211 1.247 . S
C218 O212 1.261 . S
C219 O214 1.259 . S
C219 O216 1.235 . S
O220 Co210 2.021 . S
O220 C217 1.238 . S
O221 Co215 2.052 . S
O221 C217 1.241 . S
O222 Co210 2.137 . S
O222 C213 1.247 . S
O223 Co210 2.244 . S
O223 C213 1.272 . S
O223 Co215 2.135 . S
Co224 O225 2.216 . S
Co224 O226 2.091 . S
Co224 O228 2.004 . S
Co224 O234 2.021 . S
Co224 O236 2.137 . S
Co224 O237 2.244 . S
O225 Co224 2.216 . S
O225 C232 1.247 . S
O226 Co224 2.091 . S
O226 C232 1.261 . S
C227 O236 1.247 . S
C227 O237 1.272 . S
O228 Co224 2.004 . S
O228 C233 1.259 . S
Co229 O230 2.061 . S
Co229 O235 2.052 . S
Co229 O237 2.135 . S
O230 Co229 2.061 . S
O230 C233 1.235 . S
C231 O234 1.238 . S
C231 O235 1.241 . S
C232 O225 1.247 . S
C232 O226 1.261 . S
C233 O228 1.259 . S
C233 O230 1.235 . S
O234 Co224 2.021 . S
O234 C231 1.238 . S
O235 Co229 2.052 . S
O235 C231 1.241 . S
O236 Co224 2.137 . S
O236 C227 1.247 . S
O237 Co224 2.244 . S
O237 C227 1.272 . S
O237 Co229 2.135 . S
Co238 O239 2.216 . S
Co238 O240 2.091 . S
Co238 O242 2.004 . S
Co238 O248 2.021 . S
Co238 O250 2.137 . S
Co238 O251 2.244 . S
O239 Co238 2.216 . S
O239 C246 1.247 . S
O240 Co238 2.091 . S
O240 C246 1.261 . S
C241 O250 1.247 . S
C241 O251 1.272 . S
O242 Co238 2.004 . S
O242 C247 1.259 . S
Co243 O244 2.061 . S
Co243 O249 2.052 . S
Co243 O251 2.135 . S
O244 Co243 2.061 . S
O244 C247 1.235 . S
C245 O248 1.238 . S
C245 O249 1.241 . S
C246 O239 1.247 . S
C246 O240 1.261 . S
C247 O242 1.259 . S
C247 O244 1.235 . S
O248 Co238 2.021 . S
O248 C245 1.238 . S
O249 Co243 2.052 . S
O249 C245 1.241 . S
O250 Co238 2.137 . S
O250 C241 1.247 . S
O251 Co238 2.244 . S
O251 C241 1.272 . S
O251 Co243 2.135 . S
Co252 O253 2.216 . S
Co252 O254 2.091 . S
Co252 O256 2.004 . S
Co252 O262 2.021 . S
Co252 O264 2.137 . S
Co252 O265 2.244 . S
O253 Co252 2.216 . S
O253 C260 1.247 . S
O254 Co252 2.091 . S
O254 C260 1.261 . S
C255 O264 1.247 . S
C255 O265 1.272 . S
O256 Co252 2.004 . S
O256 C261 1.259 . S
Co257 O258 2.061 . S
Co257 O263 2.052 . S
Co257 O265 2.135 . S
O258 Co257 2.061 . S
O258 C261 1.235 . S
C259 O262 1.238 . S
C259 O263 1.241 . S
C260 O253 1.247 . S
C260 O254 1.261 . S
C261 O256 1.259 . S
C261 O258 1.235 . S
O262 Co252 2.021 . S
O262 C259 1.238 . S
O263 Co257 2.052 . S
O263 C259 1.241 . S
O264 Co252 2.137 . S
O264 C255 1.247 . S
O265 Co252 2.244 . S
O265 C255 1.272 . S
O265 Co257 2.135 . S
Co266 O267 2.216 . S
Co266 O268 2.091 . S
Co266 O270 2.004 . S
Co266 O276 2.021 . S
Co266 O278 2.137 . S
Co266 O279 2.244 . S
O267 Co266 2.216 . S
O267 C274 1.247 . S
O268 Co266 2.091 . S
O268 C274 1.261 . S
C269 O278 1.247 . S
C269 O279 1.272 . S
O270 Co266 2.004 . S
O270 C275 1.259 . S
Co271 O272 2.061 . S
Co271 O277 2.052 . S
Co271 O279 2.135 . S
O272 Co271 2.061 . S
O272 C275 1.235 . S
C273 O276 1.238 . S
C273 O277 1.241 . S
C274 O267 1.247 . S
C274 O268 1.261 . S
C275 O270 1.259 . S
C275 O272 1.235 . S
O276 Co266 2.021 . S
O276 C273 1.238 . S
O277 Co271 2.052 . S
O277 C273 1.241 . S
O278 Co266 2.137 . S
O278 C269 1.247 . S
O279 Co266 2.244 . S
O279 C269 1.272 . S
O279 Co271 2.135 . S
Co280 O281 2.216 . S
Co280 O282 2.091 . S
Co280 O284 2.004 . S
Co280 O290 2.021 . S
Co280 O292 2.137 . S
Co280 O293 2.244 . S
O281 Co280 2.216 . S
O281 C288 1.247 . S
O282 Co280 2.091 . S
O282 C288 1.261 . S
C283 O292 1.247 . S
C283 O293 1.272 . S
O284 Co280 2.004 . S
O284 C289 1.259 . S
Co285 O286 2.061 . S
Co285 O291 2.052 . S
Co285 O293 2.135 . S
O286 Co285 2.061 . S
O286 C289 1.235 . S
C287 O290 1.238 . S
C287 O291 1.241 . S
C288 O281 1.247 . S
C288 O282 1.261 . S
C289 O284 1.259 . S
C289 O286 1.235 . S
O290 Co280 2.021 . S
O290 C287 1.238 . S
O291 Co285 2.052 . S
O291 C287 1.241 . S
O292 Co280 2.137 . S
O292 C283 1.247 . S
O293 Co280 2.244 . S
O293 C283 1.272 . S
O293 Co285 2.135 . S
Co294 O295 2.216 . S
Co294 O296 2.091 . S
Co294 O298 2.004 . S
Co294 O304 2.021 . S
Co294 O306 2.137 . S
Co294 O307 2.244 . S
O295 Co294 2.216 . S
O295 C302 1.247 . S
O296 Co294 2.091 . S
O296 C302 1.261 . S
C297 O306 1.247 . S
C297 O307 1.272 . S
O298 Co294 2.004 . S
O298 C303 1.259 . S
Co299 O300 2.061 . S
Co299 O305 2.052 . S
Co299 O307 2.135 . S
O300 Co299 2.061 . S
O300 C303 1.235 . S
C301 O304 1.238 . S
C301 O305 1.241 . S
C302 O295 1.247 . S
C302 O296 1.261 . S
C303 O298 1.259 . S
C303 O300 1.235 . S
O304 Co294 2.021 . S
O304 C301 1.238 . S
O305 Co299 2.052 . S
O305 C301 1.241 . S
O306 Co294 2.137 . S
O306 C297 1.247 . S
O307 Co294 2.244 . S
O307 C297 1.272 . S
O307 Co299 2.135 . S
Co308 O309 2.216 . S
Co308 O310 2.091 . S
Co308 O312 2.004 . S
Co308 O318 2.021 . S
Co308 O320 2.137 . S
Co308 O321 2.244 . S
O309 Co308 2.216 . S
O309 C316 1.247 . S
O310 Co308 2.091 . S
O310 C316 1.261 . S
C311 O320 1.247 . S
C311 O321 1.272 . S
O312 Co308 2.004 . S
O312 C317 1.259 . S
Co313 O314 2.061 . S
Co313 O319 2.052 . S
Co313 O321 2.135 . S
O314 Co313 2.061 . S
O314 C317 1.235 . S
C315 O318 1.238 . S
C315 O319 1.241 . S
C316 O309 1.247 . S
C316 O310 1.261 . S
C317 O312 1.259 . S
C317 O314 1.235 . S
O318 Co308 2.021 . S
O318 C315 1.238 . S
O319 Co313 2.052 . S
O319 C315 1.241 . S
O320 Co308 2.137 . S
O320 C311 1.247 . S
O321 Co308 2.244 . S
O321 C311 1.272 . S
O321 Co313 2.135 . S
Co322 O323 2.216 . S
Co322 O324 2.091 . S
Co322 O326 2.004 . S
Co322 O332 2.021 . S
Co322 O334 2.137 . S
Co322 O335 2.244 . S
O323 Co322 2.216 . S
O323 C330 1.247 . S
O324 Co322 2.091 . S
O324 C330 1.261 . S
C325 O334 1.247 . S
C325 O335 1.272 . S
O326 Co322 2.004 . S
O326 C331 1.259 . S
Co327 O328 2.061 . S
Co327 O333 2.052 . S
Co327 O335 2.135 . S
O328 Co327 2.061 . S
O328 C331 1.235 . S
C329 O332 1.238 . S
C329 O333 1.241 . S
C330 O323 1.247 . S
C330 O324 1.261 . S
C331 O326 1.259 . S
C331 O328 1.235 . S
O332 Co322 2.021 . S
O332 C329 1.238 . S
O333 Co327 2.052 . S
O333 C329 1.241 . S
O334 Co322 2.137 . S
O334 C325 1.247 . S
O335 Co322 2.244 . S
O335 C325 1.272 . S
O335 Co327 2.135 . S
Co336 O337 2.216 . S
Co336 O338 2.091 . S
Co336 O340 2.004 . S
Co336 O346 2.021 . S
Co336 O348 2.137 . S
Co336 O349 2.244 . S
O337 Co336 2.216 . S
O337 C344 1.247 . S
O338 Co336 2.091 . S
O338 C344 1.261 . S
C339 O348 1.247 . S
C339 O349 1.272 . S
O340 Co336 2.004 . S
O340 C345 1.259 . S
Co341 O342 2.061 . S
Co341 O347 2.052 . S
Co341 O349 2.135 . S
O342 Co341 2.061 . S
O342 C345 1.235 . S
C343 O346 1.238 . S
C343 O347 1.241 . S
C344 O337 1.247 . S
C344 O338 1.261 . S
C345 O340 1.259 . S
C345 O342 1.235 . S
O346 Co336 2.021 . S
O346 C343 1.238 . S
O347 Co341 2.052 . S
O347 C343 1.241 . S
O348 Co336 2.137 . S
O348 C339 1.247 . S
O349 Co336 2.244 . S
O349 C339 1.272 . S
O349 Co341 2.135 . S
Co350 O351 2.216 . S
Co350 O352 2.091 . S
Co350 O354 2.004 . S
Co350 O360 2.021 . S
Co350 O362 2.137 . S
Co350 O363 2.244 . S
O351 Co350 2.216 . S
O351 C358 1.247 . S
O352 Co350 2.091 . S
O352 C358 1.261 . S
C353 O362 1.247 . S
C353 O363 1.272 . S
O354 Co350 2.004 . S
O354 C359 1.259 . S
Co355 O356 2.061 . S
Co355 O361 2.052 . S
Co355 O363 2.135 . S
O356 Co355 2.061 . S
O356 C359 1.235 . S
C357 O360 1.238 . S
C357 O361 1.241 . S
C358 O351 1.247 . S
C358 O352 1.261 . S
C359 O354 1.259 . S
C359 O356 1.235 . S
O360 Co350 2.021 . S
O360 C357 1.238 . S
O361 Co355 2.052 . S
O361 C357 1.241 . S
O362 Co350 2.137 . S
O362 C353 1.247 . S
O363 Co350 2.244 . S
O363 C353 1.272 . S
O363 Co355 2.135 . S
Co364 O365 2.216 . S
Co364 O366 2.091 . S
Co364 O368 2.004 . S
Co364 O374 2.021 . S
Co364 O376 2.137 . S
Co364 O377 2.244 . S
O365 Co364 2.216 . S
O365 C372 1.247 . S
O366 Co364 2.091 . S
O366 C372 1.261 . S
C367 O376 1.247 . S
C367 O377 1.272 . S
O368 Co364 2.004 . S
O368 C373 1.259 . S
Co369 O370 2.061 . S
Co369 O375 2.052 . S
Co369 O377 2.135 . S
O370 Co369 2.061 . S
O370 C373 1.235 . S
C371 O374 1.238 . S
C371 O375 1.241 . S
C372 O365 1.247 . S
C372 O366 1.261 . S
C373 O368 1.259 . S
C373 O370 1.235 . S
O374 Co364 2.021 . S
O374 C371 1.238 . S
O375 Co369 2.052 . S
O375 C371 1.241 . S
O376 Co364 2.137 . S
O376 C367 1.247 . S
O377 Co364 2.244 . S
O377 C367 1.272 . S
O377 Co369 2.135 . S
Co378 O379 2.216 . S
Co378 O380 2.091 . S
Co378 O382 2.004 . S
Co378 O388 2.021 . S
Co378 O390 2.137 . S
Co378 O391 2.244 . S
O379 Co378 2.216 . S
O379 C386 1.247 . S
O380 Co378 2.091 . S
O380 C386 1.261 . S
C381 O390 1.247 . S
C381 O391 1.272 . S
O382 Co378 2.004 . S
O382 C387 1.259 . S
Co383 O384 2.061 . S
Co383 O389 2.052 . S
Co383 O391 2.135 . S
O384 Co383 2.061 . S
O384 C387 1.235 . S
C385 O388 1.238 . S
C385 O389 1.241 . S
C386 O379 1.247 . S
C386 O380 1.261 . S
C387 O382 1.259 . S
C387 O384 1.235 . S
O388 Co378 2.021 . S
O388 C385 1.238 . S
O389 Co383 2.052 . S
O389 C385 1.241 . S
O390 Co378 2.137 . S
O390 C381 1.247 . S
O391 Co378 2.244 . S
O391 C381 1.272 . S
O391 Co383 2.135 . S
Co392 O393 2.216 . S
Co392 O394 2.091 . S
Co392 O396 2.004 . S
Co392 O402 2.021 . S
Co392 O404 2.137 . S
Co392 O405 2.244 . S
O393 Co392 2.216 . S
O393 C400 1.247 . S
O394 Co392 2.091 . S
O394 C400 1.261 . S
C395 O404 1.247 . S
C395 O405 1.272 . S
O396 Co392 2.004 . S
O396 C401 1.259 . S
Co397 O398 2.061 . S
Co397 O403 2.052 . S
Co397 O405 2.135 . S
O398 Co397 2.061 . S
O398 C401 1.235 . S
C399 O402 1.238 . S
C399 O403 1.241 . S
C400 O393 1.247 . S
C400 O394 1.261 . S
C401 O396 1.259 . S
C401 O398 1.235 . S
O402 Co392 2.021 . S
O402 C399 1.238 . S
O403 Co397 2.052 . S
O403 C399 1.241 . S
O404 Co392 2.137 . S
O404 C395 1.247 . S
O405 Co392 2.244 . S
O405 C395 1.272 . S
O405 Co397 2.135 . S
Co406 O407 2.216 . S
Co406 O408 2.091 . S
Co406 O410 2.004 . S
Co406 O416 2.021 . S
Co406 O418 2.137 . S
Co406 O419 2.244 . S
O407 Co406 2.216 . S
O407 C414 1.247 . S
O408 Co406 2.091 . S
O408 C414 1.261 . S
C409 O418 1.247 . S
C409 O419 1.272 . S
O410 Co406 2.004 . S
O410 C415 1.259 . S
Co411 O412 2.061 . S
Co411 O417 2.052 . S
Co411 O419 2.135 . S
O412 Co411 2.061 . S
O412 C415 1.235 . S
C413 O416 1.238 . S
C413 O417 1.241 . S
C414 O407 1.247 . S
C414 O408 1.261 . S
C415 O410 1.259 . S
C415 O412 1.235 . S
O416 Co406 2.021 . S
O416 C413 1.238 . S
O417 Co411 2.052 . S
O417 C413 1.241 . S
O418 Co406 2.137 . S
O418 C409 1.247 . S
O419 Co406 2.244 . S
O419 C409 1.272 . S
O419 Co411 2.135 . S
Co420 O421 2.216 . S
Co420 O422 2.091 . S
Co420 O424 2.004 . S
Co420 O430 2.021 . S
Co420 O432 2.137 . S
Co420 O433 2.244 . S
O421 Co420 2.216 . S
O421 C428 1.247 . S
O422 Co420 2.091 . S
O422 C428 1.261 . S
C423 O432 1.247 . S
C423 O433 1.272 . S
O424 Co420 2.004 . S
O424 C429 1.259 . S
Co425 O426 2.061 . S
Co425 O431 2.052 . S
Co425 O433 2.135 . S
O426 Co425 2.061 . S
O426 C429 1.235 . S
C427 O430 1.238 . S
C427 O431 1.241 . S
C428 O421 1.247 . S
C428 O422 1.261 . S
C429 O424 1.259 . S
C429 O426 1.235 . S
O430 Co420 2.021 . S
O430 C427 1.238 . S
O431 Co425 2.052 . S
O431 C427 1.241 . S
O432 Co420 2.137 . S
O432 C423 1.247 . S
O433 Co420 2.244 . S
O433 C423 1.272 . S
O433 Co425 2.135 . S
Co434 O435 2.216 . S
Co434 O436 2.091 . S
Co434 O438 2.004 . S
Co434 O444 2.021 . S
Co434 O446 2.137 . S
Co434 O447 2.244 . S
O435 Co434 2.216 . S
O435 C442 1.247 . S
O436 Co434 2.091 . S
O436 C442 1.261 . S
C437 O446 1.247 . S
C437 O447 1.272 . S
O438 Co434 2.004 . S
O438 C443 1.259 . S
Co439 O440 2.061 . S
Co439 O445 2.052 . S
Co439 O447 2.135 . S
O440 Co439 2.061 . S
O440 C443 1.235 . S
C441 O444 1.238 . S
C441 O445 1.241 . S
C442 O435 1.247 . S
C442 O436 1.261 . S
C443 O438 1.259 . S
C443 O440 1.235 . S
O444 Co434 2.021 . S
O444 C441 1.238 . S
O445 Co439 2.052 . S
O445 C441 1.241 . S
O446 Co434 2.137 . S
O446 C437 1.247 . S
O447 Co434 2.244 . S
O447 C437 1.272 . S
O447 Co439 2.135 . S
Co448 O449 2.216 . S
Co448 O450 2.091 . S
Co448 O452 2.004 . S
Co448 O458 2.021 . S
Co448 O460 2.137 . S
Co448 O461 2.244 . S
O449 Co448 2.216 . S
O449 C456 1.247 . S
O450 Co448 2.091 . S
O450 C456 1.261 . S
C451 O460 1.247 . S
C451 O461 1.272 . S
O452 Co448 2.004 . S
O452 C457 1.259 . S
Co453 O454 2.061 . S
Co453 O459 2.052 . S
Co453 O461 2.135 . S
O454 Co453 2.061 . S
O454 C457 1.235 . S
C455 O458 1.238 . S
C455 O459 1.241 . S
C456 O449 1.247 . S
C456 O450 1.261 . S
C457 O452 1.259 . S
C457 O454 1.235 . S
O458 Co448 2.021 . S
O458 C455 1.238 . S
O459 Co453 2.052 . S
O459 C455 1.241 . S
O460 Co448 2.137 . S
O460 C451 1.247 . S
O461 Co448 2.244 . S
O461 C451 1.272 . S
O461 Co453 2.135 . S
Co462 O463 2.216 . S
Co462 O464 2.091 . S
Co462 O466 2.004 . S
Co462 O472 2.021 . S
Co462 O474 2.137 . S
Co462 O475 2.244 . S
O463 Co462 2.216 . S
O463 C470 1.247 . S
O464 Co462 2.091 . S
O464 C470 1.261 . S
C465 O474 1.247 . S
C465 O475 1.272 . S
O466 Co462 2.004 . S
O466 C471 1.259 . S
Co467 O468 2.061 . S
Co467 O473 2.052 . S
Co467 O475 2.135 . S
O468 Co467 2.061 . S
O468 C471 1.235 . S
C469 O472 1.238 . S
C469 O473 1.241 . S
C470 O463 1.247 . S
C470 O464 1.261 . S
C471 O466 1.259 . S
C471 O468 1.235 . S
O472 Co462 2.021 . S
O472 C469 1.238 . S
O473 Co467 2.052 . S
O473 C469 1.241 . S
O474 Co462 2.137 . S
O474 C465 1.247 . S
O475 Co462 2.244 . S
O475 C465 1.272 . S
O475 Co467 2.135 . S
Co476 O477 2.216 . S
Co476 O478 2.091 . S
Co476 O480 2.004 . S
Co476 O486 2.021 . S
Co476 O488 2.137 . S
Co476 O489 2.244 . S
O477 Co476 2.216 . S
O477 C484 1.247 . S
O478 Co476 2.091 . S
O478 C484 1.261 . S
C479 O488 1.247 . S
C479 O489 1.272 . S
O480 Co476 2.004 . S
O480 C485 1.259 . S
Co481 O482 2.061 . S
Co481 O487 2.052 . S
Co481 O489 2.135 . S
O482 Co481 2.061 . S
O482 C485 1.235 . S
C483 O486 1.238 . S
C483 O487 1.241 . S
C484 O477 1.247 . S
C484 O478 1.261 . S
C485 O480 1.259 . S
C485 O482 1.235 . S
O486 Co476 2.021 . S
O486 C483 1.238 . S
O487 Co481 2.052 . S
O487 C483 1.241 . S
O488 Co476 2.137 . S
O488 C479 1.247 . S
O489 Co476 2.244 . S
O489 C479 1.272 . S
O489 Co481 2.135 . S
Co490 O491 2.216 . S
Co490 O492 2.091 . S
Co490 O494 2.004 . S
Co490 O500 2.021 . S
Co490 O502 2.137 . S
Co490 O503 2.244 . S
O491 Co490 2.216 . S
O491 C498 1.247 . S
O492 Co490 2.091 . S
O492 C498 1.261 . S
C493 O502 1.247 . S
C493 O503 1.272 . S
O494 Co490 2.004 . S
O494 C499 1.259 . S
Co495 O496 2.061 . S
Co495 O501 2.052 . S
Co495 O503 2.135 . S
O496 Co495 2.061 . S
O496 C499 1.235 . S
C497 O500 1.238 . S
C497 O501 1.241 . S
C498 O491 1.247 . S
C498 O492 1.261 . S
C499 O494 1.259 . S
C499 O496 1.235 . S
O500 Co490 2.021 . S
O500 C497 1.238 . S
O501 Co495 2.052 . S
O501 C497 1.241 . S
O502 Co490 2.137 . S
O502 C493 1.247 . S
O503 Co490 2.244 . S
O503 C493 1.272 . S
O503 Co495 2.135 . S
H504 C510 0.930 . S
H505 C513 0.930 . S
H506 C514 0.930 . S
H507 C515 0.930 . S
H508 C518 0.930 . S
H509 C519 0.930 . S
C510 H504 0.930 . S
C510 C511 1.355 . S
C510 C512 1.415 1_565 S
C511 C510 1.355 . S
C511 C513 1.419 . S
C512 C510 1.415 1_545 S
C512 C517 1.425 1_545 S
C512 C519 1.409 . S
C513 H505 0.930 . S
C513 C511 1.419 . S
C513 C514 1.362 . S
C514 H506 0.930 . S
C514 C513 1.362 . S
C514 C517 1.409 . S
C515 H507 0.930 . S
C515 C516 1.355 . S
C515 C517 1.415 1_545 S
C516 C515 1.355 . S
C516 C518 1.419 . S
C517 C512 1.425 1_565 S
C517 C514 1.409 . S
C517 C515 1.415 1_565 S
C518 H508 0.930 . S
C518 C516 1.419 . S
C518 C519 1.362 . S
C519 H509 0.930 . S
C519 C512 1.409 . S
C519 C518 1.362 . S
H520 C526 0.930 . S
H521 C529 0.930 . S
H522 C530 0.930 . S
H523 C531 0.930 . S
H524 C534 0.930 . S
H525 C535 0.930 . S
C526 H520 0.930 . S
C526 C527 1.355 . S
C526 C528 1.415 . S
C527 C526 1.355 . S
C527 C529 1.419 . S
C528 C526 1.415 . S
C528 C533 1.425 1_655 S
C528 C535 1.409 1_655 S
C529 H521 0.930 . S
C529 C527 1.419 . S
C529 C530 1.362 . S
C530 H522 0.930 . S
C530 C529 1.362 . S
C530 C533 1.409 1_655 S
C531 H523 0.930 . S
C531 C532 1.355 . S
C531 C533 1.415 . S
C532 C531 1.355 . S
C532 C534 1.419 . S
C533 C528 1.425 1_455 S
C533 C530 1.409 1_455 S
C533 C531 1.415 . S
C534 H524 0.930 . S
C534 C532 1.419 . S
C534 C535 1.362 . S
C535 H525 0.930 . S
C535 C528 1.409 1_455 S
C535 C534 1.362 . S
H536 C542 0.930 . S
H537 C545 0.930 . S
H538 C546 0.930 . S
H539 C547 0.930 . S
H540 C550 0.930 . S
H541 C551 0.930 . S
C542 H536 0.930 . S
C542 C543 1.355 . S
C542 C544 1.415 . S
C543 C542 1.355 . S
C543 C545 1.419 . S
C544 C542 1.415 . S
C544 C549 1.425 . S
C544 C551 1.409 . S
C545 H537 0.930 . S
C545 C543 1.419 . S
C545 C546 1.362 . S
C546 H538 0.930 . S
C546 C545 1.362 . S
C546 C549 1.409 . S
C547 H539 0.930 . S
C547 C548 1.355 . S
C547 C549 1.415 . S
C548 C547 1.355 . S
C548 C550 1.419 . S
C549 C544 1.425 . S
C549 C546 1.409 . S
C549 C547 1.415 . S
C550 H540 0.930 . S
C550 C548 1.419 . S
C550 C551 1.362 . S
C551 H541 0.930 . S
C551 C544 1.409 . S
C551 C550 1.362 . S
H552 C558 0.930 . S
H553 C561 0.930 . S
H554 C562 0.935 1_545 S
H555 C563 0.930 . S
H556 C566 0.930 . S
H557 C567 0.935 1_565 S
C558 H552 0.930 . S
C558 C559 1.355 . S
C558 C560 1.415 . S
C559 C558 1.355 . S
C559 C561 1.419 . S
C560 C558 1.415 . S
C560 C565 1.425 1_565 S
C560 C567 1.375 1_565 S
C561 H553 0.930 . S
C561 C559 1.419 . S
C561 C562 1.393 . S
C562 H554 0.935 1_565 S
C562 C561 1.393 . S
C562 C565 1.377 1_565 S
C563 H555 0.930 . S
C563 C564 1.355 . S
C563 C565 1.415 . S
C564 C563 1.355 . S
C564 C566 1.419 . S
C565 C560 1.425 1_545 S
C565 C562 1.377 1_545 S
C565 C563 1.415 . S
C566 H556 0.930 . S
C566 C564 1.419 . S
C566 C567 1.395 . S
C567 H557 0.935 1_545 S
C567 C560 1.375 1_545 S
C567 C566 1.395 . S
H568 C574 0.930 . S
H569 C577 0.930 . S
H570 C578 0.930 . S
H571 C579 0.930 . S
H572 C582 0.930 . S
H573 C583 0.930 . S
C574 H568 0.930 . S
C574 C575 1.355 . S
C574 C576 1.444 . S
C575 C574 1.355 . S
C575 C577 1.419 . S
C576 C574 1.444 . S
C576 C581 1.476 1_455 S
C576 C583 1.358 1_455 S
C577 H569 0.930 . S
C577 C575 1.419 . S
C577 C578 1.362 . S
C578 H570 0.930 . S
C578 C577 1.362 . S
C578 C581 1.359 1_455 S
C579 H571 0.930 . S
C579 C580 1.355 . S
C579 C581 1.444 . S
C580 C579 1.355 . S
C580 C582 1.419 . S
C581 C576 1.476 1_655 S
C581 C578 1.359 1_655 S
C581 C579 1.444 . S
C582 H572 0.930 . S
C582 C580 1.419 . S
C582 C583 1.362 . S
C583 H573 0.930 . S
C583 C576 1.358 1_655 S
C583 C582 1.362 . S
H584 C590 0.930 . S
H585 C593 0.930 . S
H586 C594 0.930 . S
H587 C595 0.930 . S
H588 C598 0.930 . S
H589 C599 0.930 . S
C590 H584 0.930 . S
C590 C591 1.355 . S
C590 C592 1.415 . S
C591 C590 1.355 . S
C591 C593 1.419 . S
C592 C590 1.415 . S
C592 C597 1.425 . S
C592 C599 1.409 . S
C593 H585 0.930 . S
C593 C591 1.419 . S
C593 C594 1.362 . S
C594 H586 0.930 . S
C594 C593 1.362 . S
C594 C597 1.409 . S
C595 H587 0.930 . S
C595 C596 1.355 . S
C595 C597 1.415 . S
C596 C595 1.355 . S
C596 C598 1.419 . S
C597 C592 1.425 . S
C597 C594 1.409 . S
C597 C595 1.415 . S
C598 H588 0.930 . S
C598 C596 1.419 . S
C598 C599 1.362 . S
C599 H589 0.930 . S
C599 C592 1.409 . S
C599 C598 1.362 . S
H600 C606 0.930 . S
H601 C609 0.930 . S
H602 C610 0.930 . S
H603 C611 0.930 . S
H604 C614 0.930 . S
H605 C615 0.930 . S
C606 H600 0.930 . S
C606 C607 1.355 . S
C606 C608 1.415 . S
C607 C606 1.355 . S
C607 C609 1.419 . S
C608 C606 1.415 . S
C608 C613 1.425 . S
C608 C615 1.409 . S
C609 H601 0.930 . S
C609 C607 1.419 . S
C609 C610 1.362 . S
C610 H602 0.930 . S
C610 C609 1.362 . S
C610 C613 1.409 . S
C611 H603 0.930 . S
C611 C612 1.355 . S
C611 C613 1.415 . S
C612 C611 1.355 . S
C612 C614 1.419 . S
C613 C608 1.425 . S
C613 C610 1.409 . S
C613 C611 1.415 . S
C614 H604 0.930 . S
C614 C612 1.419 . S
C614 C615 1.362 . S
C615 H605 0.930 . S
C615 C608 1.409 . S
C615 C614 1.362 . S
H616 C622 0.930 . S
H617 C625 0.930 . S
H618 C626 0.930 . S
H619 C627 0.930 . S
H620 C630 0.930 . S
H621 C631 0.930 . S
C622 H616 0.930 . S
C622 C623 1.355 . S
C622 C624 1.415 . S
C623 C622 1.355 . S
C623 C625 1.419 . S
C624 C622 1.415 . S
C624 C629 1.425 . S
C624 C631 1.409 . S
C625 H617 0.930 . S
C625 C623 1.419 . S
C625 C626 1.362 . S
C626 H618 0.930 . S
C626 C625 1.362 . S
C626 C629 1.409 . S
C627 H619 0.930 . S
C627 C628 1.355 . S
C627 C629 1.415 . S
C628 C627 1.355 . S
C628 C630 1.419 . S
C629 C624 1.425 . S
C629 C626 1.409 . S
C629 C627 1.415 . S
C630 H620 0.930 . S
C630 C628 1.419 . S
C630 C631 1.362 . S
C631 H621 0.930 . S
C631 C624 1.409 . S
C631 C630 1.362 . S
H632 C638 0.930 . S
H633 C641 0.930 . S
H634 C642 0.930 . S
H635 C643 0.930 . S
H636 C646 0.930 . S
H637 C647 0.930 . S
C638 H632 0.930 . S
C638 C639 1.355 . S
C638 C640 1.415 . S
C639 C638 1.355 . S
C639 C641 1.419 . S
C640 C638 1.415 . S
C640 C645 1.425 . S
C640 C647 1.409 . S
C641 H633 0.930 . S
C641 C639 1.419 . S
C641 C642 1.362 . S
C642 H634 0.930 . S
C642 C641 1.362 . S
C642 C645 1.409 . S
C643 H635 0.930 . S
C643 C644 1.355 . S
C643 C645 1.415 . S
C644 C643 1.355 . S
C644 C646 1.419 . S
C645 C640 1.425 . S
C645 C642 1.409 . S
C645 C643 1.415 . S
C646 H636 0.930 . S
C646 C644 1.419 . S
C646 C647 1.362 . S
C647 H637 0.930 . S
C647 C640 1.409 . S
C647 C646 1.362 . S
H648 C654 0.930 . S
H649 C657 0.930 . S
H650 C658 0.930 . S
H651 C659 0.930 . S
H652 C662 0.930 . S
H653 C663 0.930 . S
C654 H648 0.930 . S
C654 C655 1.355 . S
C654 C656 1.415 . S
C655 C654 1.355 . S
C655 C657 1.419 . S
C656 C654 1.415 . S
C656 C661 1.425 . S
C656 C663 1.409 . S
C657 H649 0.930 . S
C657 C655 1.419 . S
C657 C658 1.362 . S
C658 H650 0.930 . S
C658 C657 1.362 . S
C658 C661 1.409 . S
C659 H651 0.930 . S
C659 C660 1.355 . S
C659 C661 1.415 1_556 S
C660 C659 1.355 . S
C660 C662 1.419 1_556 S
C661 C656 1.425 . S
C661 C658 1.409 . S
C661 C659 1.415 1_554 S
C662 H652 0.930 . S
C662 C660 1.419 1_554 S
C662 C663 1.362 . S
C663 H653 0.930 . S
C663 C656 1.409 . S
C663 C662 1.362 . S
H664 C670 0.930 . S
H665 C673 0.930 . S
H666 C674 0.930 . S
H667 C675 0.930 1_556 S
H668 C678 0.930 . S
H669 C679 0.930 . S
C670 H664 0.930 . S
C670 C671 1.355 . S
C670 C672 1.415 . S
C671 C670 1.355 . S
C671 C673 1.419 . S
C672 C670 1.415 . S
C672 C677 1.425 . S
C672 C679 1.409 . S
C673 H665 0.930 . S
C673 C671 1.419 . S
C673 C674 1.362 . S
C674 H666 0.930 . S
C674 C673 1.362 . S
C674 C677 1.409 . S
C675 H667 0.930 1_554 S
C675 C676 1.355 1_554 S
C675 C677 1.415 . S
C676 C675 1.355 1_556 S
C676 C678 1.419 1_556 S
C677 C672 1.425 . S
C677 C674 1.409 . S
C677 C675 1.415 . S
C678 H668 0.930 . S
C678 C676 1.419 1_554 S
C678 C679 1.362 . S
C679 H669 0.930 . S
C679 C672 1.409 . S
C679 C678 1.362 . S
H680 C686 0.930 . S
H681 C689 0.930 . S
H682 C690 0.930 . S
H683 C691 0.930 1_556 S
H684 C694 0.930 . S
H685 C695 0.930 . S
C686 H680 0.930 . S
C686 C687 1.355 . S
C686 C688 1.415 . S
C687 C686 1.355 . S
C687 C689 1.419 . S
C688 C686 1.415 . S
C688 C693 1.425 . S
C688 C695 1.409 . S
C689 H681 0.930 . S
C689 C687 1.419 . S
C689 C690 1.362 . S
C690 H682 0.930 . S
C690 C689 1.362 . S
C690 C693 1.409 . S
C691 H683 0.930 1_554 S
C691 C692 1.355 1_554 S
C691 C693 1.415 . S
C692 C691 1.355 1_556 S
C692 C694 1.419 1_556 S
C693 C688 1.425 . S
C693 C690 1.409 . S
C693 C691 1.415 . S
C694 H684 0.930 . S
C694 C692 1.419 1_554 S
C694 C695 1.362 . S
C695 H685 0.930 . S
C695 C688 1.409 . S
C695 C694 1.362 . S
H696 C702 0.930 . S
H697 C705 0.930 . S
H698 C706 0.930 . S
H699 C707 0.930 . S
H700 C710 0.930 . S
H701 C711 0.930 . S
C702 H696 0.930 . S
C702 C703 1.355 . S
C702 C704 1.415 . S
C703 C702 1.355 . S
C703 C705 1.419 . S
C704 C702 1.415 . S
C704 C709 1.425 . S
C704 C711 1.409 1_556 S
C705 H697 0.930 . S
C705 C703 1.419 . S
C705 C706 1.362 . S
C706 H698 0.930 . S
C706 C705 1.362 . S
C706 C709 1.409 . S
C707 H699 0.930 . S
C707 C708 1.355 1_556 S
C707 C709 1.415 . S
C708 C707 1.355 1_554 S
C708 C710 1.419 . S
C709 C704 1.425 . S
C709 C706 1.409 . S
C709 C707 1.415 . S
C710 H700 0.930 . S
C710 C708 1.419 . S
C710 C711 1.362 . S
C711 H701 0.930 . S
C711 C704 1.409 1_554 S
C711 C710 1.362 . S
H712 C718 0.930 . S
H713 C721 0.930 . S
H714 C722 0.930 1_554 S
H715 C723 0.930 . S
H716 C726 0.930 . S
H717 C727 0.930 . S
C718 H712 0.930 . S
C718 C719 1.355 1_556 S
C718 C720 1.415 . S
C719 C718 1.355 1_554 S
C719 C721 1.419 . S
C720 C718 1.415 . S
C720 C725 1.425 . S
C720 C727 1.409 . S
C721 H713 0.930 . S
C721 C719 1.419 . S
C721 C722 1.362 1_554 S
C722 H714 0.930 1_556 S
C722 C721 1.362 1_556 S
C722 C725 1.409 . S
C723 H715 0.930 . S
C723 C724 1.355 . S
C723 C725 1.415 . S
C724 C723 1.355 . S
C724 C726 1.419 . S
C725 C720 1.425 . S
C725 C722 1.409 . S
C725 C723 1.415 . S
C726 H716 0.930 . S
C726 C724 1.419 . S
C726 C727 1.362 . S
C727 H717 0.930 . S
C727 C720 1.409 . S
C727 C726 1.362 . S
H728 C734 0.930 . S
H729 C737 0.930 . S
H730 C738 0.930 . S
H731 C739 0.930 1_554 S
H732 C742 0.930 . S
H733 C743 0.930 . S
C734 H728 0.930 . S
C734 C735 1.355 . S
C734 C736 1.415 . S
C735 C734 1.355 . S
C735 C737 1.419 . S
C736 C734 1.415 . S
C736 C741 1.425 . S
C736 C743 1.409 . S
C737 H729 0.930 . S
C737 C735 1.419 . S
C737 C738 1.362 . S
C738 H730 0.930 . S
C738 C737 1.362 . S
C738 C741 1.409 . S
C739 H731 0.930 1_556 S
C739 C740 1.355 1_556 S
C739 C741 1.415 . S
C740 C739 1.355 1_554 S
C740 C742 1.419 1_554 S
C741 C736 1.425 . S
C741 C738 1.409 . S
C741 C739 1.415 . S
C742 H732 0.930 . S
C742 C740 1.419 1_556 S
C742 C743 1.362 . S
C743 H733 0.930 . S
C743 C736 1.409 . S
C743 C742 1.362 . S
H744 C750 0.930 . S
H745 C753 0.930 . S
H746 C754 0.930 . S
H747 C755 0.930 . S
H748 C758 0.930 . S
H749 C759 0.930 . S
C750 H744 0.930 . S
C750 C751 1.355 . S
C750 C752 1.415 . S
C751 C750 1.355 . S
C751 C753 1.419 . S
C752 C750 1.415 . S
C752 C757 1.425 . S
C752 C759 1.409 . S
C753 H745 0.930 . S
C753 C751 1.419 . S
C753 C754 1.362 . S
C754 H746 0.930 . S
C754 C753 1.362 . S
C754 C757 1.409 . S
C755 H747 0.930 . S
C755 C756 1.355 . S
C755 C757 1.415 . S
C756 C755 1.355 . S
C756 C758 1.419 . S
C757 C752 1.425 . S
C757 C754 1.409 . S
C757 C755 1.415 . S
C758 H748 0.930 . S
C758 C756 1.419 . S
C758 C759 1.362 . S
C759 H749 0.930 . S
C759 C752 1.409 . S
C759 C758 1.362 . S
H760 C766 0.930 . S
H761 C769 0.930 . S
H762 C770 0.930 . S
H763 C771 0.930 . S
H764 C774 0.930 . S
H765 C775 0.930 . S
C766 H760 0.930 . S
C766 C767 1.355 . S
C766 C768 1.415 . S
C767 C766 1.355 . S
C767 C769 1.419 . S
C768 C766 1.415 . S
C768 C773 1.425 . S
C768 C775 1.409 . S
C769 H761 0.930 . S
C769 C767 1.419 . S
C769 C770 1.362 . S
C770 H762 0.930 . S
C770 C769 1.362 . S
C770 C773 1.409 . S
C771 H763 0.930 . S
C771 C772 1.355 . S
C771 C773 1.415 . S
C772 C771 1.355 . S
C772 C774 1.419 . S
C773 C768 1.425 . S
C773 C770 1.409 . S
C773 C771 1.415 . S
C774 H764 0.930 . S
C774 C772 1.419 . S
C774 C775 1.362 . S
C775 H765 0.930 . S
C775 C768 1.409 . S
C775 C774 1.362 . S
H776 C782 0.930 . S
H777 C785 0.930 . S
H778 C786 0.930 . S
H779 C787 0.930 . S
H780 C790 0.930 . S
H781 C791 0.930 . S
C782 H776 0.930 . S
C782 C783 1.355 . S
C782 C784 1.415 . S
C783 C782 1.355 . S
C783 C785 1.419 . S
C784 C782 1.415 . S
C784 C789 1.425 . S
C784 C791 1.409 . S
C785 H777 0.930 . S
C785 C783 1.419 . S
C785 C786 1.362 . S
C786 H778 0.930 . S
C786 C785 1.362 . S
C786 C789 1.409 . S
C787 H779 0.930 . S
C787 C788 1.355 . S
C787 C789 1.415 . S
C788 C787 1.355 . S
C788 C790 1.419 . S
C789 C784 1.425 . S
C789 C786 1.409 . S
C789 C787 1.415 . S
C790 H780 0.930 . S
C790 C788 1.419 . S
C790 C791 1.362 . S
C791 H781 0.930 . S
C791 C784 1.409 . S
C791 C790 1.362 . S
H792 C798 0.930 . S
H793 C801 0.930 . S
H794 C802 0.930 . S
H795 C803 0.930 . S
H796 C806 0.930 . S
H797 C807 0.930 . S
C798 H792 0.930 . S
C798 C799 1.355 . S
C798 C800 1.415 . S
C799 C798 1.355 . S
C799 C801 1.419 . S
C800 C798 1.415 . S
C800 C805 1.425 . S
C800 C807 1.409 . S
C801 H793 0.930 . S
C801 C799 1.419 . S
C801 C802 1.362 . S
C802 H794 0.930 . S
C802 C801 1.362 . S
C802 C805 1.409 . S
C803 H795 0.930 . S
C803 C804 1.355 . S
C803 C805 1.415 . S
C804 C803 1.355 . S
C804 C806 1.419 . S
C805 C800 1.425 . S
C805 C802 1.409 . S
C805 C803 1.415 . S
C806 H796 0.930 . S
C806 C804 1.419 . S
C806 C807 1.362 . S
C807 H797 0.930 . S
C807 C800 1.409 . S
C807 C806 1.362 . S
H808 C814 0.930 . S
H809 C817 0.930 . S
H810 C818 0.930 . S
H811 C819 0.930 . S
H812 C822 0.930 . S
H813 C823 0.930 . S
C814 H808 0.930 . S
C814 C815 1.355 . S
C814 C816 1.415 . S
C815 C814 1.355 . S
C815 C817 1.419 . S
C816 C814 1.415 . S
C816 C821 1.425 . S
C816 C823 1.409 . S
C817 H809 0.930 . S
C817 C815 1.419 . S
C817 C818 1.362 . S
C818 H810 0.930 . S
C818 C817 1.362 . S
C818 C821 1.409 . S
C819 H811 0.930 . S
C819 C820 1.355 . S
C819 C821 1.415 . S
C820 C819 1.355 . S
C820 C822 1.419 . S
C821 C816 1.425 . S
C821 C818 1.409 . S
C821 C819 1.415 . S
C822 H812 0.930 . S
C822 C820 1.419 . S
C822 C823 1.362 . S
C823 H813 0.930 . S
C823 C816 1.409 . S
C823 C822 1.362 . S
H824 C830 0.930 . S
H825 C833 0.930 . S
H826 C834 0.930 . S
H827 C835 0.930 . S
H828 C838 0.930 . S
H829 C839 0.930 . S
C830 H824 0.930 . S
C830 C831 1.355 . S
C830 C832 1.415 . S
C831 C830 1.355 . S
C831 C833 1.419 . S
C832 C830 1.415 . S
C832 C837 1.425 . S
C832 C839 1.409 . S
C833 H825 0.930 . S
C833 C831 1.419 . S
C833 C834 1.362 . S
C834 H826 0.930 . S
C834 C833 1.362 . S
C834 C837 1.409 . S
C835 H827 0.930 . S
C835 C836 1.355 . S
C835 C837 1.415 . S
C836 C835 1.355 . S
C836 C838 1.419 . S
C837 C832 1.425 . S
C837 C834 1.409 . S
C837 C835 1.415 . S
C838 H828 0.930 . S
C838 C836 1.419 . S
C838 C839 1.362 . S
C839 H829 0.930 . S
C839 C832 1.409 . S
C839 C838 1.362 . S
H840 C846 0.930 . S
H841 C849 0.930 . S
H842 C850 0.930 . S
H843 C851 0.930 . S
H844 C854 0.930 . S
H845 C855 0.930 . S
C846 H840 0.930 . S
C846 C847 1.355 . S
C846 C848 1.415 . S
C847 C846 1.355 . S
C847 C849 1.419 . S
C848 C846 1.415 . S
C848 C853 1.425 . S
C848 C855 1.409 . S
C849 H841 0.930 . S
C849 C847 1.419 . S
C849 C850 1.362 . S
C850 H842 0.930 . S
C850 C849 1.362 . S
C850 C853 1.409 . S
C851 H843 0.930 . S
C851 C852 1.355 . S
C851 C853 1.415 . S
C852 C851 1.355 . S
C852 C854 1.419 . S
C853 C848 1.425 . S
C853 C850 1.409 . S
C853 C851 1.415 . S
C854 H844 0.930 . S
C854 C852 1.419 . S
C854 C855 1.362 . S
C855 H845 0.930 . S
C855 C848 1.409 . S
C855 C854 1.362 . S
H856 C862 0.930 . S
H857 C865 0.930 . S
H858 C866 0.930 . S
H859 C867 0.930 . S
H860 C870 0.930 . S
H861 C871 0.930 . S
C862 H856 0.930 . S
C862 C863 1.355 . S
C862 C864 1.415 . S
C863 C862 1.355 . S
C863 C865 1.419 . S
C864 C862 1.415 . S
C864 C869 1.425 . S
C864 C871 1.409 . S
C865 H857 0.930 . S
C865 C863 1.419 . S
C865 C866 1.362 . S
C866 H858 0.930 . S
C866 C865 1.362 . S
C866 C869 1.409 . S
C867 H859 0.930 . S
C867 C868 1.355 . S
C867 C869 1.415 . S
C868 C867 1.355 . S
C868 C870 1.419 . S
C869 C864 1.425 . S
C869 C866 1.409 . S
C869 C867 1.415 . S
C870 H860 0.930 . S
C870 C868 1.419 . S
C870 C871 1.362 . S
C871 H861 0.930 . S
C871 C864 1.409 . S
C871 C870 1.362 . S
H872 C878 0.930 . S
H873 C881 0.930 . S
H874 C882 0.930 . S
H875 C883 0.930 . S
H876 C886 0.930 . S
H877 C887 0.930 . S
C878 H872 0.930 . S
C878 C879 1.355 . S
C878 C880 1.415 . S
C879 C878 1.355 . S
C879 C881 1.419 . S
C880 C878 1.415 . S
C880 C885 1.425 . S
C880 C887 1.409 . S
C881 H873 0.930 . S
C881 C879 1.419 . S
C881 C882 1.362 . S
C882 H874 0.930 . S
C882 C881 1.362 . S
C882 C885 1.409 . S
C883 H875 0.930 . S
C883 C884 1.355 . S
C883 C885 1.415 . S
C884 C883 1.355 . S
C884 C886 1.419 . S
C885 C880 1.425 . S
C885 C882 1.409 . S
C885 C883 1.415 . S
C886 H876 0.930 . S
C886 C884 1.419 . S
C886 C887 1.362 . S
C887 H877 0.930 . S
C887 C880 1.409 . S
C887 C886 1.362 . S
H888 C894 0.930 . S
H889 C897 0.930 . S
H890 C898 0.930 . S
H891 C899 0.930 . S
H892 C902 0.930 . S
H893 C903 0.930 . S
C894 H888 0.930 . S
C894 C895 1.355 . S
C894 C896 1.415 . S
C895 C894 1.355 . S
C895 C897 1.419 . S
C896 C894 1.415 . S
C896 C901 1.425 . S
C896 C903 1.409 . S
C897 H889 0.930 . S
C897 C895 1.419 . S
C897 C898 1.362 . S
C898 H890 0.930 . S
C898 C897 1.362 . S
C898 C901 1.409 . S
C899 H891 0.930 . S
C899 C900 1.355 . S
C899 C901 1.415 . S
C900 C899 1.355 . S
C900 C902 1.419 . S
C901 C896 1.425 . S
C901 C898 1.409 . S
C901 C899 1.415 . S
C902 H892 0.930 . S
C902 C900 1.419 . S
C902 C903 1.362 . S
C903 H893 0.930 . S
C903 C896 1.409 . S
C903 C902 1.362 . S
H904 C910 0.930 . S
H905 C913 0.930 . S
H906 C914 0.930 . S
H907 C915 0.930 . S
H908 C918 0.930 . S
H909 C919 0.930 . S
C910 H904 0.930 . S
C910 C911 1.355 . S
C910 C912 1.415 . S
C911 C910 1.355 . S
C911 C913 1.419 . S
C912 C910 1.415 . S
C912 C917 1.425 . S
C912 C919 1.409 . S
C913 H905 0.930 . S
C913 C911 1.419 . S
C913 C914 1.362 . S
C914 H906 0.930 . S
C914 C913 1.362 . S
C914 C917 1.409 . S
C915 H907 0.930 . S
C915 C916 1.355 . S
C915 C917 1.415 . S
C916 C915 1.355 . S
C916 C918 1.419 . S
C917 C912 1.425 . S
C917 C914 1.409 . S
C917 C915 1.415 . S
C918 H908 0.930 . S
C918 C916 1.419 . S
C918 C919 1.362 . S
C919 H909 0.930 . S
C919 C912 1.409 . S
C919 C918 1.362 . S
H920 C926 0.930 . S
H921 C929 0.930 . S
H922 C930 0.930 . S
H923 C931 0.930 . S
H924 C934 0.930 . S
H925 C935 0.930 . S
C926 H920 0.930 . S
C926 C927 1.355 . S
C926 C928 1.415 . S
C927 C926 1.355 . S
C927 C929 1.419 . S
C928 C926 1.415 . S
C928 C933 1.425 . S
C928 C935 1.409 . S
C929 H921 0.930 . S
C929 C927 1.419 . S
C929 C930 1.362 . S
C930 H922 0.930 . S
C930 C929 1.362 . S
C930 C933 1.409 . S
C931 H923 0.930 . S
C931 C932 1.355 . S
C931 C933 1.415 . S
C932 C931 1.355 . S
C932 C934 1.419 . S
C933 C928 1.425 . S
C933 C930 1.409 . S
C933 C931 1.415 . S
C934 H924 0.930 . S
C934 C932 1.419 . S
C934 C935 1.362 . S
C935 H925 0.930 . S
C935 C928 1.409 . S
C935 C934 1.362 . S
H936 C942 0.930 . S
H937 C945 0.930 . S
H938 C946 0.930 . S
H939 C947 0.930 . S
H940 C950 0.930 . S
H941 C951 0.930 . S
C942 H936 0.930 . S
C942 C943 1.355 . S
C942 C944 1.415 . S
C943 C942 1.355 . S
C943 C945 1.419 . S
C944 C942 1.415 . S
C944 C949 1.425 . S
C944 C951 1.409 . S
C945 H937 0.930 . S
C945 C943 1.419 . S
C945 C946 1.362 . S
C946 H938 0.930 . S
C946 C945 1.362 . S
C946 C949 1.409 . S
C947 H939 0.930 . S
C947 C948 1.355 . S
C947 C949 1.415 . S
C948 C947 1.355 . S
C948 C950 1.419 . S
C949 C944 1.425 . S
C949 C946 1.409 . S
C949 C947 1.415 . S
C950 H940 0.930 . S
C950 C948 1.419 . S
C950 C951 1.362 . S
C951 H941 0.930 . S
C951 C944 1.409 . S
C951 C950 1.362 . S
H952 C958 0.930 . S
H953 C961 0.930 . S
H954 C962 0.930 . S
H955 C963 0.930 . S
H956 C966 0.930 . S
H957 C967 0.930 . S
C958 H952 0.930 . S
C958 C959 1.355 . S
C958 C960 1.415 . S
C959 C958 1.355 . S
C959 C961 1.419 . S
C960 C958 1.415 . S
C960 C965 1.425 . S
C960 C967 1.409 . S
C961 H953 0.930 . S
C961 C959 1.419 . S
C961 C962 1.362 . S
C962 H954 0.930 . S
C962 C961 1.362 . S
C962 C965 1.409 . S
C963 H955 0.930 . S
C963 C964 1.355 . S
C963 C965 1.415 . S
C964 C963 1.355 . S
C964 C966 1.419 . S
C965 C960 1.425 . S
C965 C962 1.409 . S
C965 C963 1.415 . S
C966 H956 0.930 . S
C966 C964 1.419 . S
C966 C967 1.362 . S
C967 H957 0.930 . S
C967 C960 1.409 . S
C967 C966 1.362 . S
H968 C974 0.930 . S
H969 C977 0.930 . S
H970 C978 0.930 . S
H971 C979 0.930 . S
H972 C982 0.930 . S
H973 C983 0.930 . S
C974 H968 0.930 . S
C974 C975 1.355 . S
C974 C976 1.415 . S
C975 C974 1.355 . S
C975 C977 1.419 . S
C976 C974 1.415 . S
C976 C981 1.425 . S
C976 C983 1.409 . S
C977 H969 0.930 . S
C977 C975 1.419 . S
C977 C978 1.362 . S
C978 H970 0.930 . S
C978 C977 1.362 . S
C978 C981 1.409 . S
C979 H971 0.930 . S
C979 C980 1.355 . S
C979 C981 1.415 . S
C980 C979 1.355 . S
C980 C982 1.419 . S
C981 C976 1.425 . S
C981 C978 1.409 . S
C981 C979 1.415 . S
C982 H972 0.930 . S
C982 C980 1.419 . S
C982 C983 1.362 . S
C983 H973 0.930 . S
C983 C976 1.409 . S
C983 C982 1.362 . S
H984 C990 0.930 . S
H985 C993 0.930 . S
H986 C994 0.930 . S
H987 C995 0.930 . S
H988 C998 0.930 . S
H989 C999 0.930 . S
C990 H984 0.930 . S
C990 C991 1.355 . S
C990 C992 1.415 . S
C991 C990 1.355 . S
C991 C993 1.419 . S
C992 C990 1.415 . S
C992 C997 1.425 . S
C992 C999 1.409 . S
C993 H985 0.930 . S
C993 C991 1.419 . S
C993 C994 1.362 . S
C994 H986 0.930 . S
C994 C993 1.362 . S
C994 C997 1.409 . S
C995 H987 0.930 . S
C995 C996 1.355 . S
C995 C997 1.415 . S
C996 C995 1.355 . S
C996 C998 1.419 . S
C997 C992 1.425 . S
C997 C994 1.409 . S
C997 C995 1.415 . S
C998 H988 0.930 . S
C998 C996 1.419 . S
C998 C999 1.362 . S
C999 H989 0.930 . S
C999 C992 1.409 . S
C999 C998 1.362 . S
H1000 C1006 0.930 . S
H1001 C1009 0.930 . S
H1002 C1010 0.930 . S
H1003 C1011 0.930 . S
H1004 C1014 0.930 . S
H1005 C1015 0.930 . S
C1006 H1000 0.930 . S
C1006 C1007 1.355 . S
C1006 C1008 1.415 . S
C1007 C1006 1.355 . S
C1007 C1009 1.419 . S
C1008 C1006 1.415 . S
C1008 C1013 1.425 . S
C1008 C1015 1.409 . S
C1009 H1001 0.930 . S
C1009 C1007 1.419 . S
C1009 C1010 1.362 . S
C1010 H1002 0.930 . S
C1010 C1009 1.362 . S
C1010 C1013 1.409 . S
C1011 H1003 0.930 . S
C1011 C1012 1.355 . S
C1011 C1013 1.415 . S
C1012 C1011 1.355 . S
C1012 C1014 1.419 . S
C1013 C1008 1.425 . S
C1013 C1010 1.409 . S
C1013 C1011 1.415 . S
C1014 H1004 0.930 . S
C1014 C1012 1.419 . S
C1014 C1015 1.362 . S
C1015 H1005 0.930 . S
C1015 C1008 1.409 . S
C1015 C1014 1.362 . S
H1016 C1022 0.930 . S
H1017 C1025 0.930 1_556 S
H1018 C1026 0.930 . S
H1019 C1027 0.930 . S
H1020 C1030 0.930 . S
H1021 C1031 0.930 . S
C1022 H1016 0.930 . S
C1022 C1023 1.355 . S
C1022 C1024 1.415 . S
C1023 C1022 1.355 . S
C1023 C1025 1.419 . S
C1024 C1022 1.415 . S
C1024 C1029 1.425 . S
C1024 C1031 1.409 . S
C1025 H1017 0.930 1_554 S
C1025 C1023 1.419 . S
C1025 C1026 1.362 . S
C1026 H1018 0.930 . S
C1026 C1025 1.362 . S
C1026 C1029 1.409 . S
C1027 H1019 0.930 . S
C1027 C1028 1.355 . S
C1027 C1029 1.415 . S
C1028 C1027 1.355 . S
C1028 C1030 1.419 . S
C1029 C1024 1.425 . S
C1029 C1026 1.409 . S
C1029 C1027 1.415 . S
C1030 H1020 0.930 . S
C1030 C1028 1.419 . S
C1030 C1031 1.362 . S
C1031 H1021 0.930 . S
C1031 C1024 1.409 . S
C1031 C1030 1.362 . S
H1032 C1038 0.930 . S
H1033 C1041 0.930 . S
H1034 C1042 0.930 . S
H1035 C1043 0.930 . S
H1036 C1046 0.930 . S
H1037 C1047 0.930 . S
C1038 H1032 0.930 . S
C1038 C1039 1.355 . S
C1038 C1040 1.415 1_556 S
C1039 C1038 1.355 . S
C1039 C1041 1.419 . S
C1040 C1038 1.415 1_554 S
C1040 C1045 1.425 . S
C1040 C1047 1.409 . S
C1041 H1033 0.930 . S
C1041 C1039 1.419 . S
C1041 C1042 1.362 1_556 S
C1042 H1034 0.930 . S
C1042 C1041 1.362 1_554 S
C1042 C1045 1.409 . S
C1043 H1035 0.930 . S
C1043 C1044 1.355 . S
C1043 C1045 1.415 . S
C1044 C1043 1.355 . S
C1044 C1046 1.419 . S
C1045 C1040 1.425 . S
C1045 C1042 1.409 . S
C1045 C1043 1.415 . S
C1046 H1036 0.930 . S
C1046 C1044 1.419 . S
C1046 C1047 1.362 . S
C1047 H1037 0.930 . S
C1047 C1040 1.409 . S
C1047 C1046 1.362 . S
H1048 C1054 0.930 . S
H1049 C1057 0.930 . S
H1050 C1058 0.930 . S
H1051 C1059 0.930 . S
H1052 C1062 0.930 . S
H1053 C1063 0.930 . S
C1054 H1048 0.930 . S
C1054 C1055 1.355 1_554 S
C1054 C1056 1.415 . S
C1055 C1054 1.355 1_556 S
C1055 C1057 1.419 . S
C1056 C1054 1.415 . S
C1056 C1061 1.425 . S
C1056 C1063 1.409 . S
C1057 H1049 0.930 . S
C1057 C1055 1.419 . S
C1057 C1058 1.362 . S
C1058 H1050 0.930 . S
C1058 C1057 1.362 . S
C1058 C1061 1.409 1_556 S
C1059 H1051 0.930 . S
C1059 C1060 1.355 . S
C1059 C1061 1.415 . S
C1060 C1059 1.355 . S
C1060 C1062 1.419 . S
C1061 C1056 1.425 . S
C1061 C1058 1.409 1_554 S
C1061 C1059 1.415 . S
C1062 H1052 0.930 . S
C1062 C1060 1.419 . S
C1062 C1063 1.362 . S
C1063 H1053 0.930 . S
C1063 C1056 1.409 . S
C1063 C1062 1.362 . S
H1064 C1070 0.930 . S
H1065 C1073 0.930 . S
H1066 C1074 0.930 . S
H1067 C1075 0.930 . S
H1068 C1078 0.930 . S
H1069 C1079 0.930 1_556 S
C1070 H1064 0.930 . S
C1070 C1071 1.355 . S
C1070 C1072 1.415 1_556 S
C1071 C1070 1.355 . S
C1071 C1073 1.419 . S
C1072 C1070 1.415 1_554 S
C1072 C1077 1.425 . S
C1072 C1079 1.409 . S
C1073 H1065 0.930 . S
C1073 C1071 1.419 . S
C1073 C1074 1.362 1_556 S
C1074 H1066 0.930 . S
C1074 C1073 1.362 1_554 S
C1074 C1077 1.409 . S
C1075 H1067 0.930 . S
C1075 C1076 1.355 . S
C1075 C1077 1.415 . S
C1076 C1075 1.355 . S
C1076 C1078 1.419 . S
C1077 C1072 1.425 . S
C1077 C1074 1.409 . S
C1077 C1075 1.415 . S
C1078 H1068 0.930 . S
C1078 C1076 1.419 . S
C1078 C1079 1.362 . S
C1079 H1069 0.930 1_554 S
C1079 C1072 1.409 . S
C1079 C1078 1.362 . S
H1080 C1086 0.930 . S
H1081 C1089 0.930 . S
H1082 C1090 0.930 . S
H1083 C1091 0.930 . S
H1084 C1094 0.930 . S
H1085 C1095 0.930 . S
C1086 H1080 0.930 . S
C1086 C1087 1.355 . S
C1086 C1088 1.415 . S
C1087 C1086 1.355 . S
C1087 C1089 1.419 . S
C1088 C1086 1.415 . S
C1088 C1093 1.425 . S
C1088 C1095 1.409 . S
C1089 H1081 0.930 . S
C1089 C1087 1.419 . S
C1089 C1090 1.362 . S
C1090 H1082 0.930 . S
C1090 C1089 1.362 . S
C1090 C1093 1.409 . S
C1091 H1083 0.930 . S
C1091 C1092 1.355 . S
C1091 C1093 1.415 . S
C1092 C1091 1.355 . S
C1092 C1094 1.419 . S
C1093 C1088 1.425 . S
C1093 C1090 1.409 . S
C1093 C1091 1.415 . S
C1094 H1084 0.930 . S
C1094 C1092 1.419 . S
C1094 C1095 1.362 . S
C1095 H1085 0.930 . S
C1095 C1088 1.409 . S
C1095 C1094 1.362 . S
H1096 C1102 0.930 . S
H1097 C1105 0.930 . S
H1098 C1106 0.930 . S
H1099 C1107 0.930 . S
H1100 C1110 0.930 . S
H1101 C1111 0.930 . S
C1102 H1096 0.930 . S
C1102 C1103 1.355 . S
C1102 C1104 1.415 . S
C1103 C1102 1.355 . S
C1103 C1105 1.419 . S
C1104 C1102 1.415 . S
C1104 C1109 1.425 . S
C1104 C1111 1.409 . S
C1105 H1097 0.930 . S
C1105 C1103 1.419 . S
C1105 C1106 1.362 . S
C1106 H1098 0.930 . S
C1106 C1105 1.362 . S
C1106 C1109 1.409 . S
C1107 H1099 0.930 . S
C1107 C1108 1.355 . S
C1107 C1109 1.415 . S
C1108 C1107 1.355 . S
C1108 C1110 1.419 . S
C1109 C1104 1.425 . S
C1109 C1106 1.409 . S
C1109 C1107 1.415 . S
C1110 H1100 0.930 . S
C1110 C1108 1.419 . S
C1110 C1111 1.362 . S
C1111 H1101 0.930 . S
C1111 C1104 1.409 . S
C1111 C1110 1.362 . S
H1112 C1118 0.930 . S
H1113 C1121 0.930 . S
H1114 C1122 0.930 . S
H1115 C1123 0.930 . S
H1116 C1126 0.930 . S
H1117 C1127 0.930 . S
C1118 H1112 0.930 . S
C1118 C1119 1.355 . S
C1118 C1120 1.415 . S
C1119 C1118 1.355 . S
C1119 C1121 1.419 . S
C1120 C1118 1.415 . S
C1120 C1125 1.425 . S
C1120 C1127 1.409 . S
C1121 H1113 0.930 . S
C1121 C1119 1.419 . S
C1121 C1122 1.362 . S
C1122 H1114 0.930 . S
C1122 C1121 1.362 . S
C1122 C1125 1.409 . S
C1123 H1115 0.930 . S
C1123 C1124 1.355 . S
C1123 C1125 1.415 . S
C1124 C1123 1.355 . S
C1124 C1126 1.419 . S
C1125 C1120 1.425 . S
C1125 C1122 1.409 . S
C1125 C1123 1.415 . S
C1126 H1116 0.930 . S
C1126 C1124 1.419 . S
C1126 C1127 1.362 . S
C1127 H1117 0.930 . S
C1127 C1120 1.409 . S
C1127 C1126 1.362 . S
H1128 C1134 0.930 . S
H1129 C1137 0.930 . S
H1130 C1138 0.930 . S
H1131 C1139 0.930 . S
H1132 C1142 0.930 . S
H1133 C1143 0.930 . S
C1134 H1128 0.930 . S
C1134 C1135 1.355 . S
C1134 C1136 1.415 . S
C1135 C1134 1.355 . S
C1135 C1137 1.419 . S
C1136 C1134 1.415 . S
C1136 C1141 1.425 . S
C1136 C1143 1.409 . S
C1137 H1129 0.930 . S
C1137 C1135 1.419 . S
C1137 C1138 1.362 . S
C1138 H1130 0.930 . S
C1138 C1137 1.362 . S
C1138 C1141 1.409 . S
C1139 H1131 0.930 . S
C1139 C1140 1.355 . S
C1139 C1141 1.415 . S
C1140 C1139 1.355 . S
C1140 C1142 1.419 . S
C1141 C1136 1.425 . S
C1141 C1138 1.409 . S
C1141 C1139 1.415 . S
C1142 H1132 0.930 . S
C1142 C1140 1.419 . S
C1142 C1143 1.362 . S
C1143 H1133 0.930 . S
C1143 C1136 1.409 . S
C1143 C1142 1.362 . S
H1144 C1150 0.930 . S
H1145 C1153 0.930 . S
H1146 C1154 0.930 . S
H1147 C1155 0.930 . S
H1148 C1158 0.930 . S
H1149 C1159 0.930 . S
C1150 H1144 0.930 . S
C1150 C1151 1.355 . S
C1150 C1152 1.415 . S
C1151 C1150 1.355 . S
C1151 C1153 1.419 . S
C1152 C1150 1.415 . S
C1152 C1157 1.425 . S
C1152 C1159 1.409 . S
C1153 H1145 0.930 . S
C1153 C1151 1.419 . S
C1153 C1154 1.362 . S
C1154 H1146 0.930 . S
C1154 C1153 1.362 . S
C1154 C1157 1.409 . S
C1155 H1147 0.930 . S
C1155 C1156 1.355 . S
C1155 C1157 1.415 . S
C1156 C1155 1.355 . S
C1156 C1158 1.419 . S
C1157 C1152 1.425 . S
C1157 C1154 1.409 . S
C1157 C1155 1.415 . S
C1158 H1148 0.930 . S
C1158 C1156 1.419 . S
C1158 C1159 1.362 . S
C1159 H1149 0.930 . S
C1159 C1152 1.409 . S
C1159 C1158 1.362 . S
H1160 C1166 0.930 . S
H1161 C1169 0.930 . S
H1162 C1170 0.930 . S
H1163 C1171 0.930 . S
H1164 C1174 0.930 . S
H1165 C1175 0.930 . S
C1166 H1160 0.930 . S
C1166 C1167 1.355 . S
C1166 C1168 1.415 . S
C1167 C1166 1.355 . S
C1167 C1169 1.419 . S
C1168 C1166 1.415 . S
C1168 C1173 1.425 . S
C1168 C1175 1.409 . S
C1169 H1161 0.930 . S
C1169 C1167 1.419 . S
C1169 C1170 1.362 . S
C1170 H1162 0.930 . S
C1170 C1169 1.362 . S
C1170 C1173 1.409 . S
C1171 H1163 0.930 . S
C1171 C1172 1.355 . S
C1171 C1173 1.415 . S
C1172 C1171 1.355 . S
C1172 C1174 1.419 . S
C1173 C1168 1.425 . S
C1173 C1170 1.409 . S
C1173 C1171 1.415 . S
C1174 H1164 0.930 . S
C1174 C1172 1.419 . S
C1174 C1175 1.362 . S
C1175 H1165 0.930 . S
C1175 C1168 1.409 . S
C1175 C1174 1.362 . S
H1176 C1182 0.930 . S
H1177 C1185 0.930 . S
H1178 C1186 0.930 . S
H1179 C1187 0.930 . S
H1180 C1190 0.930 . S
H1181 C1191 0.930 . S
C1182 H1176 0.930 . S
C1182 C1183 1.355 . S
C1182 C1184 1.415 . S
C1183 C1182 1.355 . S
C1183 C1185 1.419 . S
C1184 C1182 1.415 . S
C1184 C1189 1.425 . S
C1184 C1191 1.409 . S
C1185 H1177 0.930 . S
C1185 C1183 1.419 . S
C1185 C1186 1.362 . S
C1186 H1178 0.930 . S
C1186 C1185 1.362 . S
C1186 C1189 1.409 . S
C1187 H1179 0.930 . S
C1187 C1188 1.355 . S
C1187 C1189 1.415 . S
C1188 C1187 1.355 . S
C1188 C1190 1.419 . S
C1189 C1184 1.425 . S
C1189 C1186 1.409 . S
C1189 C1187 1.415 . S
C1190 H1180 0.930 . S
C1190 C1188 1.419 . S
C1190 C1191 1.362 . S
C1191 H1181 0.930 . S
C1191 C1184 1.409 . S
C1191 C1190 1.362 . S
H1192 C1198 0.930 . S
H1193 C1201 0.930 . S
H1194 C1202 0.930 . S
H1195 C1203 0.930 . S
H1196 C1206 0.930 . S
H1197 C1207 0.930 . S
C1198 H1192 0.930 . S
C1198 C1199 1.355 . S
C1198 C1200 1.415 . S
C1199 C1198 1.355 . S
C1199 C1201 1.419 . S
C1200 C1198 1.415 . S
C1200 C1205 1.425 . S
C1200 C1207 1.409 . S
C1201 H1193 0.930 . S
C1201 C1199 1.419 . S
C1201 C1202 1.362 . S
C1202 H1194 0.930 . S
C1202 C1201 1.362 . S
C1202 C1205 1.409 . S
C1203 H1195 0.930 . S
C1203 C1204 1.355 . S
C1203 C1205 1.415 . S
C1204 C1203 1.355 . S
C1204 C1206 1.419 . S
C1205 C1200 1.425 . S
C1205 C1202 1.409 . S
C1205 C1203 1.415 . S
C1206 H1196 0.930 . S
C1206 C1204 1.419 . S
C1206 C1207 1.362 . S
C1207 H1197 0.930 . S
C1207 C1200 1.409 . S
C1207 C1206 1.362 . S
H1208 C1214 0.930 . S
H1209 C1217 0.930 . S
H1210 C1218 0.930 . S
H1211 C1219 0.930 . S
H1212 C1222 0.930 . S
H1213 C1223 0.930 . S
C1214 H1208 0.930 . S
C1214 C1215 1.355 . S
C1214 C1216 1.415 . S
C1215 C1214 1.355 . S
C1215 C1217 1.419 . S
C1216 C1214 1.415 . S
C1216 C1221 1.425 . S
C1216 C1223 1.409 . S
C1217 H1209 0.930 . S
C1217 C1215 1.419 . S
C1217 C1218 1.362 . S
C1218 H1210 0.930 . S
C1218 C1217 1.362 . S
C1218 C1221 1.409 . S
C1219 H1211 0.930 . S
C1219 C1220 1.355 . S
C1219 C1221 1.415 . S
C1220 C1219 1.355 . S
C1220 C1222 1.419 . S
C1221 C1216 1.425 . S
C1221 C1218 1.409 . S
C1221 C1219 1.415 . S
C1222 H1212 0.930 . S
C1222 C1220 1.419 . S
C1222 C1223 1.362 . S
C1223 H1213 0.930 . S
C1223 C1216 1.409 . S
C1223 C1222 1.362 . S
H1224 C1230 0.930 . S
H1225 C1233 0.930 . S
H1226 C1234 0.930 . S
H1227 C1235 0.930 . S
H1228 C1238 0.930 . S
H1229 C1239 0.930 . S
C1230 H1224 0.930 . S
C1230 C1231 1.355 . S
C1230 C1232 1.415 . S
C1231 C1230 1.355 . S
C1231 C1233 1.419 . S
C1232 C1230 1.415 . S
C1232 C1237 1.425 . S
C1232 C1239 1.409 . S
C1233 H1225 0.930 . S
C1233 C1231 1.419 . S
C1233 C1234 1.362 . S
C1234 H1226 0.930 . S
C1234 C1233 1.362 . S
C1234 C1237 1.409 . S
C1235 H1227 0.930 . S
C1235 C1236 1.355 . S
C1235 C1237 1.415 . S
C1236 C1235 1.355 . S
C1236 C1238 1.419 . S
C1237 C1232 1.425 . S
C1237 C1234 1.409 . S
C1237 C1235 1.415 . S
C1238 H1228 0.930 . S
C1238 C1236 1.419 . S
C1238 C1239 1.362 . S
C1239 H1229 0.930 . S
C1239 C1232 1.409 . S
C1239 C1238 1.362 . S
H1240 C1246 0.930 . S
H1241 C1249 0.930 . S
H1242 C1250 0.930 . S
H1243 C1251 0.930 . S
H1244 C1254 0.930 . S
H1245 C1255 0.930 . S
C1246 H1240 0.930 . S
C1246 C1247 1.355 . S
C1246 C1248 1.415 . S
C1247 C1246 1.355 . S
C1247 C1249 1.419 . S
C1248 C1246 1.415 . S
C1248 C1253 1.425 . S
C1248 C1255 1.409 . S
C1249 H1241 0.930 . S
C1249 C1247 1.419 . S
C1249 C1250 1.362 . S
C1250 H1242 0.930 . S
C1250 C1249 1.362 . S
C1250 C1253 1.409 . S
C1251 H1243 0.930 . S
C1251 C1252 1.355 . S
C1251 C1253 1.415 . S
C1252 C1251 1.355 . S
C1252 C1254 1.419 . S
C1253 C1248 1.425 . S
C1253 C1250 1.409 . S
C1253 C1251 1.415 . S
C1254 H1244 0.930 . S
C1254 C1252 1.419 . S
C1254 C1255 1.362 . S
C1255 H1245 0.930 . S
C1255 C1248 1.409 . S
C1255 C1254 1.362 . S
H1256 C1262 0.930 . S
H1257 C1265 0.930 . S
H1258 C1266 0.930 . S
H1259 C1267 0.930 . S
H1260 C1270 0.930 . S
H1261 C1271 0.930 . S
C1262 H1256 0.930 . S
C1262 C1263 1.355 . S
C1262 C1264 1.415 . S
C1263 C1262 1.355 . S
C1263 C1265 1.419 . S
C1264 C1262 1.415 . S
C1264 C1269 1.425 . S
C1264 C1271 1.409 . S
C1265 H1257 0.930 . S
C1265 C1263 1.419 . S
C1265 C1266 1.362 . S
C1266 H1258 0.930 . S
C1266 C1265 1.362 . S
C1266 C1269 1.409 . S
C1267 H1259 0.930 . S
C1267 C1268 1.355 . S
C1267 C1269 1.415 . S
C1268 C1267 1.355 . S
C1268 C1270 1.419 . S
C1269 C1264 1.425 . S
C1269 C1266 1.409 . S
C1269 C1267 1.415 . S
C1270 H1260 0.930 . S
C1270 C1268 1.419 . S
C1270 C1271 1.362 . S
C1271 H1261 0.930 . S
C1271 C1264 1.409 . S
C1271 C1270 1.362 . S
H1272 C1278 0.930 . S
H1273 C1281 0.930 . S
H1274 C1282 0.930 . S
H1275 C1283 0.930 . S
H1276 C1286 0.930 . S
H1277 C1287 0.930 . S
C1278 H1272 0.930 . S
C1278 C1279 1.355 . S
C1278 C1280 1.415 . S
C1279 C1278 1.355 . S
C1279 C1281 1.419 . S
C1280 C1278 1.415 . S
C1280 C1285 1.425 . S
C1280 C1287 1.409 . S
C1281 H1273 0.930 . S
C1281 C1279 1.419 . S
C1281 C1282 1.362 . S
C1282 H1274 0.930 . S
C1282 C1281 1.362 . S
C1282 C1285 1.409 . S
C1283 H1275 0.930 . S
C1283 C1284 1.355 . S
C1283 C1285 1.415 . S
C1284 C1283 1.355 . S
C1284 C1286 1.419 . S
C1285 C1280 1.425 . S
C1285 C1282 1.409 . S
C1285 C1283 1.415 . S
C1286 H1276 0.930 . S
C1286 C1284 1.419 . S
C1286 C1287 1.362 . S
C1287 H1277 0.930 . S
C1287 C1280 1.409 . S
C1287 C1286 1.362 . S
H1288 C1294 0.930 . S
H1289 C1297 0.930 . S
H1290 C1298 0.930 . S
H1291 C1299 0.930 . S
H1292 C1302 0.930 . S
H1293 C1303 0.930 . S
C1294 H1288 0.930 . S
C1294 C1295 1.355 . S
C1294 C1296 1.415 . S
C1295 C1294 1.355 . S
C1295 C1297 1.419 . S
C1296 C1294 1.415 . S
C1296 C1301 1.425 . S
C1296 C1303 1.409 . S
C1297 H1289 0.930 . S
C1297 C1295 1.419 . S
C1297 C1298 1.362 . S
C1298 H1290 0.930 . S
C1298 C1297 1.362 . S
C1298 C1301 1.409 . S
C1299 H1291 0.930 . S
C1299 C1300 1.355 . S
C1299 C1301 1.415 . S
C1300 C1299 1.355 . S
C1300 C1302 1.419 . S
C1301 C1296 1.425 . S
C1301 C1298 1.409 . S
C1301 C1299 1.415 . S
C1302 H1292 0.930 . S
C1302 C1300 1.419 . S
C1302 C1303 1.362 . S
C1303 H1293 0.930 . S
C1303 C1296 1.409 . S
C1303 C1302 1.362 . S
H1304 C1310 0.930 . S
H1305 C1313 0.930 . S
H1306 C1314 0.930 . S
H1307 C1315 0.930 . S
H1308 C1318 0.930 1_554 S
H1309 C1319 0.930 . S
C1310 H1304 0.930 . S
C1310 C1311 1.355 . S
C1310 C1312 1.415 . S
C1311 C1310 1.355 . S
C1311 C1313 1.419 . S
C1312 C1310 1.415 . S
C1312 C1317 1.425 . S
C1312 C1319 1.409 . S
C1313 H1305 0.930 . S
C1313 C1311 1.419 . S
C1313 C1314 1.362 . S
C1314 H1306 0.930 . S
C1314 C1313 1.362 . S
C1314 C1317 1.409 . S
C1315 H1307 0.930 . S
C1315 C1316 1.355 . S
C1315 C1317 1.415 . S
C1316 C1315 1.355 . S
C1316 C1318 1.419 . S
C1317 C1312 1.425 . S
C1317 C1314 1.409 . S
C1317 C1315 1.415 . S
C1318 H1308 0.930 1_556 S
C1318 C1316 1.419 . S
C1318 C1319 1.362 . S
C1319 H1309 0.930 . S
C1319 C1312 1.409 . S
C1319 C1318 1.362 . S
H1320 C1326 0.930 . S
H1321 C1329 0.930 . S
H1322 C1330 0.930 . S
H1323 C1331 0.930 . S
H1324 C1334 0.930 . S
H1325 C1335 0.930 . S
C1326 H1320 0.930 . S
C1326 C1327 1.355 . S
C1326 C1328 1.415 . S
C1327 C1326 1.355 . S
C1327 C1329 1.419 . S
C1328 C1326 1.415 . S
C1328 C1333 1.425 . S
C1328 C1335 1.409 1_556 S
C1329 H1321 0.930 . S
C1329 C1327 1.419 . S
C1329 C1330 1.362 . S
C1330 H1322 0.930 . S
C1330 C1329 1.362 . S
C1330 C1333 1.409 . S
C1331 H1323 0.930 . S
C1331 C1332 1.355 1_556 S
C1331 C1333 1.415 . S
C1332 C1331 1.355 1_554 S
C1332 C1334 1.419 . S
C1333 C1328 1.425 . S
C1333 C1330 1.409 . S
C1333 C1331 1.415 . S
C1334 H1324 0.930 . S
C1334 C1332 1.419 . S
C1334 C1335 1.362 . S
C1335 H1325 0.930 . S
C1335 C1328 1.409 1_554 S
C1335 C1334 1.362 . S
H1336 C1342 0.930 . S
H1337 C1345 0.930 . S
H1338 C1346 0.930 . S
H1339 C1347 0.930 . S
H1340 C1350 0.930 . S
H1341 C1351 0.930 . S
C1342 H1336 0.930 . S
C1342 C1343 1.355 . S
C1342 C1344 1.415 . S
C1343 C1342 1.355 . S
C1343 C1345 1.419 . S
C1344 C1342 1.415 . S
C1344 C1349 1.425 . S
C1344 C1351 1.409 . S
C1345 H1337 0.930 . S
C1345 C1343 1.419 . S
C1345 C1346 1.362 . S
C1346 H1338 0.930 . S
C1346 C1345 1.362 . S
C1346 C1349 1.409 . S
C1347 H1339 0.930 . S
C1347 C1348 1.355 . S
C1347 C1349 1.415 1_554 S
C1348 C1347 1.355 . S
C1348 C1350 1.419 . S
C1349 C1344 1.425 . S
C1349 C1346 1.409 . S
C1349 C1347 1.415 1_556 S
C1350 H1340 0.930 . S
C1350 C1348 1.419 . S
C1350 C1351 1.362 1_554 S
C1351 H1341 0.930 . S
C1351 C1344 1.409 . S
C1351 C1350 1.362 1_556 S
H1352 C1358 0.930 . S
H1353 C1361 0.930 . S
H1354 C1362 0.930 . S
H1355 C1363 0.926 1_556 S
H1356 C1366 0.930 . S
H1357 C1367 0.930 . S
C1358 H1352 0.930 . S
C1358 C1359 1.355 . S
C1358 C1360 1.415 . S
C1359 C1358 1.355 . S
C1359 C1361 1.419 . S
C1360 C1358 1.415 . S
C1360 C1365 1.425 . S
C1360 C1367 1.409 1_556 S
C1361 H1353 0.930 . S
C1361 C1359 1.419 . S
C1361 C1362 1.362 . S
C1362 H1354 0.930 . S
C1362 C1361 1.362 . S
C1362 C1365 1.409 . S
C1363 H1355 0.926 1_554 S
C1363 C1364 1.366 . S
C1363 C1365 1.407 1_554 S
C1364 C1363 1.366 . S
C1364 C1366 1.419 . S
C1365 C1360 1.425 . S
C1365 C1362 1.409 . S
C1365 C1363 1.407 1_556 S
C1366 H1356 0.930 . S
C1366 C1364 1.419 . S
C1366 C1367 1.362 . S
C1367 H1357 0.930 . S
C1367 C1360 1.409 1_554 S
C1367 C1366 1.362 . S
H1368 C1374 0.930 . S
H1369 C1377 0.930 . S
H1370 C1378 0.930 . S
H1371 C1379 0.930 . S
H1372 C1382 0.930 . S
H1373 C1383 0.930 1_554 S
C1374 H1368 0.930 . S
C1374 C1375 1.355 . S
C1374 C1376 1.415 . S
C1375 C1374 1.355 . S
C1375 C1377 1.419 . S
C1376 C1374 1.415 . S
C1376 C1381 1.425 . S
C1376 C1383 1.409 . S
C1377 H1369 0.930 . S
C1377 C1375 1.419 . S
C1377 C1378 1.362 . S
C1378 H1370 0.930 . S
C1378 C1377 1.362 . S
C1378 C1381 1.409 . S
C1379 H1371 0.930 . S
C1379 C1380 1.355 . S
C1379 C1381 1.415 . S
C1380 C1379 1.355 . S
C1380 C1382 1.419 1_556 S
C1381 C1376 1.425 . S
C1381 C1378 1.409 . S
C1381 C1379 1.415 . S
C1382 H1372 0.930 . S
C1382 C1380 1.419 1_554 S
C1382 C1383 1.362 1_554 S
C1383 H1373 0.930 1_556 S
C1383 C1376 1.409 . S
C1383 C1382 1.362 1_556 S
H1384 C1390 0.930 1_554 S
H1385 C1393 0.930 . S
H1386 C1394 0.930 . S
H1387 C1395 0.930 . S
H1388 C1398 0.930 . S
H1389 C1399 0.930 1_554 S
C1390 H1384 0.930 1_556 S
C1390 C1391 1.355 . S
C1390 C1392 1.415 . S
C1391 C1390 1.355 . S
C1391 C1393 1.419 . S
C1392 C1390 1.415 . S
C1392 C1397 1.425 . S
C1392 C1399 1.409 . S
C1393 H1385 0.930 . S
C1393 C1391 1.419 . S
C1393 C1394 1.362 . S
C1394 H1386 0.930 . S
C1394 C1393 1.362 . S
C1394 C1397 1.409 . S
C1395 H1387 0.930 . S
C1395 C1396 1.355 . S
C1395 C1397 1.415 . S
C1396 C1395 1.355 . S
C1396 C1398 1.419 . S
C1397 C1392 1.425 . S
C1397 C1394 1.409 . S
C1397 C1395 1.415 . S
C1398 H1388 0.930 . S
C1398 C1396 1.419 . S
C1398 C1399 1.362 . S
C1399 H1389 0.930 1_556 S
C1399 C1392 1.409 . S
C1399 C1398 1.362 . S
H1400 C1406 0.930 . S
H1401 C1409 0.930 . S
H1402 C1410 0.930 . S
H1403 C1411 0.930 . S
H1404 C1414 0.930 . S
H1405 C1415 0.930 . S
C1406 H1400 0.930 . S
C1406 C1407 1.355 . S
C1406 C1408 1.415 . S
C1407 C1406 1.355 . S
C1407 C1409 1.419 . S
C1408 C1406 1.415 . S
C1408 C1413 1.425 . S
C1408 C1415 1.409 . S
C1409 H1401 0.930 . S
C1409 C1407 1.419 . S
C1409 C1410 1.362 . S
C1410 H1402 0.930 . S
C1410 C1409 1.362 . S
C1410 C1413 1.409 . S
C1411 H1403 0.930 . S
C1411 C1412 1.355 . S
C1411 C1413 1.415 . S
C1412 C1411 1.355 . S
C1412 C1414 1.419 . S
C1413 C1408 1.425 . S
C1413 C1410 1.409 . S
C1413 C1411 1.415 . S
C1414 H1404 0.930 . S
C1414 C1412 1.419 . S
C1414 C1415 1.362 . S
C1415 H1405 0.930 . S
C1415 C1408 1.409 . S
C1415 C1414 1.362 . S
H1416 C1422 0.930 . S
H1417 C1425 0.930 . S
H1418 C1426 0.930 . S
H1419 C1427 0.930 . S
H1420 C1430 0.930 . S
H1421 C1431 0.930 . S
C1422 H1416 0.930 . S
C1422 C1423 1.355 . S
C1422 C1424 1.415 . S
C1423 C1422 1.355 . S
C1423 C1425 1.419 . S
C1424 C1422 1.415 . S
C1424 C1429 1.425 . S
C1424 C1431 1.409 . S
C1425 H1417 0.930 . S
C1425 C1423 1.419 . S
C1425 C1426 1.362 . S
C1426 H1418 0.930 . S
C1426 C1425 1.362 . S
C1426 C1429 1.409 . S
C1427 H1419 0.930 . S
C1427 C1428 1.355 . S
C1427 C1429 1.415 . S
C1428 C1427 1.355 . S
C1428 C1430 1.419 . S
C1429 C1424 1.425 . S
C1429 C1426 1.409 . S
C1429 C1427 1.415 . S
C1430 H1420 0.930 . S
C1430 C1428 1.419 . S
C1430 C1431 1.362 . S
C1431 H1421 0.930 . S
C1431 C1424 1.409 . S
C1431 C1430 1.362 . S
H1432 C1438 0.930 . S
H1433 C1441 0.930 . S
H1434 C1442 0.930 . S
H1435 C1443 0.930 . S
H1436 C1446 0.930 . S
H1437 C1447 0.930 . S
C1438 H1432 0.930 . S
C1438 C1439 1.355 . S
C1438 C1440 1.415 . S
C1439 C1438 1.355 . S
C1439 C1441 1.419 . S
C1440 C1438 1.415 . S
C1440 C1445 1.425 . S
C1440 C1447 1.409 . S
C1441 H1433 0.930 . S
C1441 C1439 1.419 . S
C1441 C1442 1.362 . S
C1442 H1434 0.930 . S
C1442 C1441 1.362 . S
C1442 C1445 1.409 . S
C1443 H1435 0.930 . S
C1443 C1444 1.355 . S
C1443 C1445 1.415 . S
C1444 C1443 1.355 . S
C1444 C1446 1.419 . S
C1445 C1440 1.425 . S
C1445 C1442 1.409 . S
C1445 C1443 1.415 . S
C1446 H1436 0.930 . S
C1446 C1444 1.419 . S
C1446 C1447 1.362 . S
C1447 H1437 0.930 . S
C1447 C1440 1.409 . S
C1447 C1446 1.362 . S
H1448 C1454 0.930 . S
H1449 C1457 0.930 . S
H1450 C1458 0.930 . S
H1451 C1459 0.930 . S
H1452 C1462 0.930 . S
H1453 C1463 0.930 . S
C1454 H1448 0.930 . S
C1454 C1455 1.355 . S
C1454 C1456 1.415 . S
C1455 C1454 1.355 . S
C1455 C1457 1.419 . S
C1456 C1454 1.415 . S
C1456 C1461 1.425 . S
C1456 C1463 1.409 . S
C1457 H1449 0.930 . S
C1457 C1455 1.419 . S
C1457 C1458 1.362 . S
C1458 H1450 0.930 . S
C1458 C1457 1.362 . S
C1458 C1461 1.409 . S
C1459 H1451 0.930 . S
C1459 C1460 1.355 . S
C1459 C1461 1.415 . S
C1460 C1459 1.355 . S
C1460 C1462 1.419 . S
C1461 C1456 1.425 . S
C1461 C1458 1.409 . S
C1461 C1459 1.415 . S
C1462 H1452 0.930 . S
C1462 C1460 1.419 . S
C1462 C1463 1.362 . S
C1463 H1453 0.930 . S
C1463 C1456 1.409 . S
C1463 C1462 1.362 . S
H1464 C1470 0.930 . S
H1465 C1473 0.930 . S
H1466 C1474 0.930 . S
H1467 C1475 0.930 . S
H1468 C1478 0.930 . S
H1469 C1479 0.930 . S
C1470 H1464 0.930 . S
C1470 C1471 1.355 . S
C1470 C1472 1.415 . S
C1471 C1470 1.355 . S
C1471 C1473 1.419 1_554 S
C1472 C1470 1.415 . S
C1472 C1477 1.425 . S
C1472 C1479 1.409 . S
C1473 H1465 0.930 . S
C1473 C1471 1.419 1_556 S
C1473 C1474 1.362 . S
C1474 H1466 0.930 . S
C1474 C1473 1.362 . S
C1474 C1477 1.409 1_556 S
C1475 H1467 0.930 . S
C1475 C1476 1.355 . S
C1475 C1477 1.415 . S
C1476 C1475 1.355 . S
C1476 C1478 1.419 . S
C1477 C1472 1.425 . S
C1477 C1474 1.409 1_554 S
C1477 C1475 1.415 . S
C1478 H1468 0.930 . S
C1478 C1476 1.419 . S
C1478 C1479 1.362 . S
C1479 H1469 0.930 . S
C1479 C1472 1.409 . S
C1479 C1478 1.362 . S
H1480 C1486 0.930 . S
H1481 C1489 0.930 . S
H1482 C1490 0.930 . S
H1483 C1491 0.930 . S
H1484 C1494 0.930 . S
H1485 C1495 0.930 . S
C1486 H1480 0.930 . S
C1486 C1487 1.355 . S
C1486 C1488 1.415 . S
C1487 C1486 1.355 . S
C1487 C1489 1.419 . S
C1488 C1486 1.415 . S
C1488 C1493 1.425 . S
C1488 C1495 1.409 1_554 S
C1489 H1481 0.930 . S
C1489 C1487 1.419 . S
C1489 C1490 1.362 . S
C1490 H1482 0.930 . S
C1490 C1489 1.362 . S
C1490 C1493 1.409 . S
C1491 H1483 0.930 . S
C1491 C1492 1.355 . S
C1491 C1493 1.415 . S
C1492 C1491 1.355 . S
C1492 C1494 1.419 1_554 S
C1493 C1488 1.425 . S
C1493 C1490 1.409 . S
C1493 C1491 1.415 . S
C1494 H1484 0.930 . S
C1494 C1492 1.419 1_556 S
C1494 C1495 1.362 . S
C1495 H1485 0.930 . S
C1495 C1488 1.409 1_556 S
C1495 C1494 1.362 . S
H1496 C1502 0.930 . S
H1497 C1505 0.930 . S
H1498 C1506 0.930 . S
H1499 C1507 0.930 1_556 S
H1500 C1510 0.930 . S
H1501 C1511 0.930 . S
C1502 H1496 0.930 . S
C1502 C1503 1.355 . S
C1502 C1504 1.415 . S
C1503 C1502 1.355 . S
C1503 C1505 1.419 . S
C1504 C1502 1.415 . S
C1504 C1509 1.425 . S
C1504 C1511 1.409 . S
C1505 H1497 0.930 . S
C1505 C1503 1.419 . S
C1505 C1506 1.362 . S
C1506 H1498 0.930 . S
C1506 C1505 1.362 . S
C1506 C1509 1.409 . S
C1507 H1499 0.930 1_554 S
C1507 C1508 1.355 . S
C1507 C1509 1.415 . S
C1508 C1507 1.355 . S
C1508 C1510 1.419 . S
C1509 C1504 1.425 . S
C1509 C1506 1.409 . S
C1509 C1507 1.415 . S
C1510 H1500 0.930 . S
C1510 C1508 1.419 . S
C1510 C1511 1.362 . S
C1511 H1501 0.930 . S
C1511 C1504 1.409 . S
C1511 C1510 1.362 . S
H1512 C1518 0.930 . S
H1513 C1521 0.930 . S
H1514 C1522 0.930 . S
H1515 C1523 0.930 . S
H1516 C1526 0.930 . S
H1517 C1527 0.930 . S
C1518 H1512 0.930 . S
C1518 C1519 1.355 . S
C1518 C1520 1.415 . S
C1519 C1518 1.355 . S
C1519 C1521 1.419 . S
C1520 C1518 1.415 . S
C1520 C1525 1.425 . S
C1520 C1527 1.409 . S
C1521 H1513 0.930 . S
C1521 C1519 1.419 . S
C1521 C1522 1.362 . S
C1522 H1514 0.930 . S
C1522 C1521 1.362 . S
C1522 C1525 1.409 . S
C1523 H1515 0.930 . S
C1523 C1524 1.355 . S
C1523 C1525 1.415 . S
C1524 C1523 1.355 . S
C1524 C1526 1.419 . S
C1525 C1520 1.425 . S
C1525 C1522 1.409 . S
C1525 C1523 1.415 . S
C1526 H1516 0.930 . S
C1526 C1524 1.419 . S
C1526 C1527 1.362 . S
C1527 H1517 0.930 . S
C1527 C1520 1.409 . S
C1527 C1526 1.362 . S
H1528 C1534 0.930 . S
H1529 C1537 0.930 . S
H1530 C1538 0.930 . S
H1531 C1539 0.930 . S
H1532 C1542 0.930 . S
H1533 C1543 0.930 . S
C1534 H1528 0.930 . S
C1534 C1535 1.355 . S
C1534 C1536 1.415 . S
C1535 C1534 1.355 . S
C1535 C1537 1.419 . S
C1536 C1534 1.415 . S
C1536 C1541 1.425 . S
C1536 C1543 1.409 . S
C1537 H1529 0.930 . S
C1537 C1535 1.419 . S
C1537 C1538 1.362 . S
C1538 H1530 0.930 . S
C1538 C1537 1.362 . S
C1538 C1541 1.409 . S
C1539 H1531 0.930 . S
C1539 C1540 1.355 . S
C1539 C1541 1.415 . S
C1540 C1539 1.355 . S
C1540 C1542 1.419 . S
C1541 C1536 1.425 . S
C1541 C1538 1.409 . S
C1541 C1539 1.415 . S
C1542 H1532 0.930 . S
C1542 C1540 1.419 . S
C1542 C1543 1.362 . S
C1543 H1533 0.930 . S
C1543 C1536 1.409 . S
C1543 C1542 1.362 . S
H1544 C1550 0.930 . S
H1545 C1553 0.930 . S
H1546 C1554 0.930 . S
H1547 C1555 0.930 . S
H1548 C1558 0.930 . S
H1549 C1559 0.930 . S
C1550 H1544 0.930 . S
C1550 C1551 1.355 . S
C1550 C1552 1.415 . S
C1551 C1550 1.355 . S
C1551 C1553 1.419 . S
C1552 C1550 1.415 . S
C1552 C1557 1.425 . S
C1552 C1559 1.409 . S
C1553 H1545 0.930 . S
C1553 C1551 1.419 . S
C1553 C1554 1.362 . S
C1554 H1546 0.930 . S
C1554 C1553 1.362 . S
C1554 C1557 1.409 . S
C1555 H1547 0.930 . S
C1555 C1556 1.355 . S
C1555 C1557 1.415 . S
C1556 C1555 1.355 . S
C1556 C1558 1.419 . S
C1557 C1552 1.425 . S
C1557 C1554 1.409 . S
C1557 C1555 1.415 . S
C1558 H1548 0.930 . S
C1558 C1556 1.419 . S
C1558 C1559 1.362 . S
C1559 H1549 0.930 . S
C1559 C1552 1.409 . S
C1559 C1558 1.362 . S
H1560 C1566 0.930 . S
H1561 C1569 0.930 . S
H1562 C1570 0.936 1_455 S
H1563 C1571 0.930 . S
H1564 C1574 0.930 . S
H1565 C1575 0.936 1_655 S
C1566 H1560 0.930 . S
C1566 C1567 1.355 . S
C1566 C1568 1.415 . S
C1567 C1566 1.355 . S
C1567 C1569 1.419 . S
C1568 C1566 1.415 . S
C1568 C1573 1.425 1_655 S
C1568 C1575 1.409 1_655 S
C1569 H1561 0.930 . S
C1569 C1567 1.419 . S
C1569 C1570 1.362 . S
C1570 H1562 0.936 1_655 S
C1570 C1569 1.362 . S
C1570 C1573 1.409 1_655 S
C1571 H1563 0.930 . S
C1571 C1572 1.355 . S
C1571 C1573 1.415 . S
C1572 C1571 1.355 . S
C1572 C1574 1.419 . S
C1573 C1568 1.425 1_455 S
C1573 C1570 1.409 1_455 S
C1573 C1571 1.415 . S
C1574 H1564 0.930 . S
C1574 C1572 1.419 . S
C1574 C1575 1.362 . S
C1575 H1565 0.936 1_455 S
C1575 C1568 1.409 1_455 S
C1575 C1574 1.362 . S
H1576 C1582 0.930 . S
H1577 C1585 0.930 . S
H1578 C1586 0.930 . S
H1579 C1587 0.930 . S
H1580 C1590 0.930 . S
H1581 C1591 0.930 . S
C1582 H1576 0.930 . S
C1582 C1583 1.355 . S
C1582 C1584 1.415 . S
C1583 C1582 1.355 . S
C1583 C1585 1.419 . S
C1584 C1582 1.415 . S
C1584 C1589 1.425 . S
C1584 C1591 1.409 . S
C1585 H1577 0.930 . S
C1585 C1583 1.419 . S
C1585 C1586 1.362 . S
C1586 H1578 0.930 . S
C1586 C1585 1.362 . S
C1586 C1589 1.409 . S
C1587 H1579 0.930 . S
C1587 C1588 1.355 . S
C1587 C1589 1.415 . S
C1588 C1587 1.355 . S
C1588 C1590 1.419 . S
C1589 C1584 1.425 . S
C1589 C1586 1.409 . S
C1589 C1587 1.415 . S
C1590 H1580 0.930 . S
C1590 C1588 1.419 . S
C1590 C1591 1.362 . S
C1591 H1581 0.930 . S
C1591 C1584 1.409 . S
C1591 C1590 1.362 . S
H1592 C1598 0.930 . S
H1593 C1601 0.930 . S
H1594 C1602 0.930 . S
H1595 C1603 0.930 . S
H1596 C1606 0.930 . S
H1597 C1607 0.930 . S
C1598 H1592 0.930 . S
C1598 C1599 1.355 . S
C1598 C1600 1.371 1_565 S
C1599 C1598 1.355 . S
C1599 C1601 1.419 . S
C1600 C1598 1.371 1_545 S
C1600 C1605 1.404 1_545 S
C1600 C1607 1.467 . S
C1601 H1593 0.930 . S
C1601 C1599 1.419 . S
C1601 C1602 1.362 . S
C1602 H1594 0.930 . S
C1602 C1601 1.362 . S
C1602 C1605 1.467 . S
C1603 H1595 0.930 . S
C1603 C1604 1.355 . S
C1603 C1605 1.371 1_545 S
C1604 C1603 1.355 . S
C1604 C1606 1.419 . S
C1605 C1600 1.404 1_565 S
C1605 C1602 1.467 . S
C1605 C1603 1.371 1_565 S
C1606 H1596 0.930 . S
C1606 C1604 1.419 . S
C1606 C1607 1.362 . S
C1607 H1597 0.930 . S
C1607 C1600 1.467 . S
C1607 C1606 1.362 . S
H1608 C1614 0.930 . S
H1609 C1617 0.930 . S
H1610 C1618 0.930 . S
H1611 C1619 0.930 . S
H1612 C1622 0.930 . S
H1613 C1623 0.930 . S
C1614 H1608 0.930 . S
C1614 C1615 1.355 . S
C1614 C1616 1.426 . S
C1615 C1614 1.355 . S
C1615 C1617 1.419 . S
C1616 C1614 1.426 . S
C1616 C1621 1.436 1_545 S
C1616 C1623 1.393 1_545 S
C1617 H1609 0.930 . S
C1617 C1615 1.419 . S
C1617 C1618 1.362 . S
C1618 H1610 0.930 . S
C1618 C1617 1.362 . S
C1618 C1621 1.393 1_545 S
C1619 H1611 0.930 . S
C1619 C1620 1.355 . S
C1619 C1621 1.426 . S
C1620 C1619 1.355 . S
C1620 C1622 1.419 . S
C1621 C1616 1.436 1_565 S
C1621 C1618 1.393 1_565 S
C1621 C1619 1.426 . S
C1622 H1612 0.930 . S
C1622 C1620 1.419 . S
C1622 C1623 1.362 . S
C1623 H1613 0.930 . S
C1623 C1616 1.393 1_565 S
C1623 C1622 1.362 . S
H1624 C1630 0.930 . S
H1625 C1633 0.930 . S
H1626 C1634 0.930 1_655 S
H1627 C1635 0.930 . S
H1628 C1638 0.930 . S
H1629 C1639 0.930 1_455 S
C1630 H1624 0.930 . S
C1630 C1631 1.355 . S
C1630 C1632 1.415 . S
C1631 C1630 1.355 . S
C1631 C1633 1.419 . S
C1632 C1630 1.415 . S
C1632 C1637 1.425 1_455 S
C1632 C1639 1.409 1_455 S
C1633 H1625 0.930 . S
C1633 C1631 1.419 . S
C1633 C1634 1.362 . S
C1634 H1626 0.930 1_455 S
C1634 C1633 1.362 . S
C1634 C1637 1.409 1_455 S
C1635 H1627 0.930 . S
C1635 C1636 1.355 . S
C1635 C1637 1.415 . S
C1636 C1635 1.355 . S
C1636 C1638 1.419 . S
C1637 C1632 1.425 1_655 S
C1637 C1634 1.409 1_655 S
C1637 C1635 1.415 . S
C1638 H1628 0.930 . S
C1638 C1636 1.419 . S
C1638 C1639 1.362 . S
C1639 H1629 0.930 1_655 S
C1639 C1632 1.409 1_655 S
C1639 C1638 1.362 . S
H1640 C1646 0.930 . S
H1641 C1649 0.930 . S
H1642 C1650 0.930 . S
H1643 C1651 0.930 . S
H1644 C1654 0.930 . S
H1645 C1655 0.930 . S
C1646 H1640 0.930 . S
C1646 C1647 1.355 . S
C1646 C1648 1.415 . S
C1647 C1646 1.355 . S
C1647 C1649 1.419 . S
C1648 C1646 1.415 . S
C1648 C1653 1.425 . S
C1648 C1655 1.409 . S
C1649 H1641 0.930 . S
C1649 C1647 1.419 . S
C1649 C1650 1.362 . S
C1650 H1642 0.930 . S
C1650 C1649 1.362 . S
C1650 C1653 1.409 . S
C1651 H1643 0.930 . S
C1651 C1652 1.355 . S
C1651 C1653 1.415 . S
C1652 C1651 1.355 . S
C1652 C1654 1.419 . S
C1653 C1648 1.425 . S
C1653 C1650 1.409 . S
C1653 C1651 1.415 . S
C1654 H1644 0.930 . S
C1654 C1652 1.419 . S
C1654 C1655 1.362 . S
C1655 H1645 0.930 . S
C1655 C1648 1.409 . S
C1655 C1654 1.362 . S
C511 C78 1.235 . S
C516 C8 1.234 . S
C527 C22 1.264 . S
C532 C50 1.272 . S
C543 C64 1.238 . S
C548 C36 1.243 . S
C559 C92 1.257 . S
C564 C162 1.265 . S
C575 C106 1.268 . S
C580 C134 1.260 . S
C591 C148 1.241 . S
C596 C120 1.237 . S
C607 C246 1.235 . S
C612 C176 1.234 . S
C623 C190 1.239 . S
C628 C218 1.235 . S
C639 C232 1.236 . S
C644 C204 1.234 . S
C655 C260 1.236 . S
C660 C330 1.234 . S
C671 C274 1.241 . S
C676 C302 1.248 . S
C687 C288 1.264 . S
C692 C316 1.256 . S
C703 C344 1.286 . S
C708 C414 1.287 . S
C719 C386 1.281 . S
C724 C358 1.275 . S
C735 C372 1.252 . S
C740 C400 1.260 . S
C751 C428 1.285 . S
C756 C498 1.281 . S
C767 C442 1.280 . S
C772 C470 1.285 . S
C783 C456 1.283 . S
C788 C484 1.278 . S
C799 C147 1.281 . S
C804 C9 1.325 . S
C815 C161 1.316 . S
C820 C23 1.318 . S
C831 C133 1.338 . S
C836 C37 1.288 . S
C847 C119 1.267 . S
C852 C51 1.315 . S
C863 C65 1.314 . S
C868 C91 1.322 . S
C879 C79 1.292 . S
C884 C105 1.258 . S
C895 C93 1.322 . S
C900 C63 1.275 . S
C911 C107 1.252 . S
C916 C77 1.337 . S
C927 C121 1.291 . S
C932 C49 1.259 . S
C943 C35 1.261 . S
C948 C135 1.272 . S
C959 C7 1.332 . S
C964 C149 1.301 . S
C975 C163 1.264 . S
C980 C21 1.264 . S
C991 C177 1.253 . S
C996 C315 1.338 1_554 S
C1007 C191 1.311 . S
C1012 C329 1.264 1_554 S
C1023 C301 1.262 1_554 S
C1028 C205 1.269 . S
C1039 C219 1.321 . S
C1044 C287 1.274 . S
C1055 C233 1.264 . S
C1060 C259 1.264 . S
C1071 C247 1.324 . S
C1076 C273 1.279 . S
C1087 C261 1.235 . S
C1092 C231 1.289 . S
C1103 C245 1.340 . S
C1108 C275 1.261 . S
C1119 C217 1.266 . S
C1124 C289 1.259 . S
C1135 C303 1.252 . S
C1140 C203 1.271 . S
C1151 C175 1.340 . S
C1156 C317 1.271 . S
C1167 C189 1.260 . S
C1172 C331 1.301 . S
C1183 C483 1.336 . S
C1188 C345 1.290 . S
C1199 C359 1.297 . S
C1204 C497 1.259 . S
C1215 C373 1.316 . S
C1220 C469 1.318 . S
C1231 C455 1.340 . S
C1236 C387 1.271 . S
C1247 C427 1.300 . S
C1252 C401 1.325 . S
C1263 C441 1.318 . S
C1268 C415 1.232 . S
C1279 C429 1.323 . S
C1284 C399 1.276 1_556 S
C1295 C413 1.295 1_556 S
C1300 C443 1.326 . S
C1311 C457 1.270 . S
C1316 C385 1.262 1_556 S
C1327 C371 1.270 . S
C1332 C471 1.253 . S
C1343 C343 1.336 . S
C1348 C485 1.249 . S
C1359 C357 1.312 . S
C1364 C499 1.230 . S
C1375 C227 1.417 . S
C1380 C3 1.384 1_556 S
C1391 C17 1.391 1_556 S
C1396 C241 1.387 . S
C1407 C213 1.409 . S
C1412 C31 1.376 1_556 S
C1423 C367 1.417 . S
C1428 C45 1.382 . S
C1439 C59 1.384 . S
C1444 C339 1.417 . S
C1455 C73 1.412 . S
C1460 C353 1.395 . S
C1471 C87 1.391 1_554 S
C1476 C479 1.414 . S
C1487 C493 1.396 . S
C1492 C101 1.411 1_554 S
C1503 C465 1.411 . S
C1508 C115 1.376 1_554 S
C1519 C283 1.385 . S
C1524 C129 1.393 . S
C1535 C143 1.378 . S
C1540 C255 1.416 . S
C1551 C157 1.398 . S
C1556 C269 1.382 . S
C1567 C171 1.416 . S
C1572 C395 1.378 . S
C1583 C409 1.417 . S
C1588 C185 1.380 . S
C1599 C381 1.379 . S
C1604 C199 1.402 . S
C1615 C297 1.381 . S
C1620 C451 1.399 . S
C1631 C423 1.415 . S
C1636 C311 1.389 . S
C1647 C437 1.379 . S
C1652 C325 1.416 . S
