# Generated by pormake.
# Topology rob, (6)-cn, num edge types: 1
# Building blocks:
#     Node 0, Type 0, BuildingBlock: GEDQOX_clean_sbu_0, # of connection points: 6
#     Node 1, Type 0, BuildingBlock: GEDQOX_clean_sbu_0, # of connection points: 6
#     Node 2, Type 0, BuildingBlock: GEDQOX_clean_sbu_0, # of connection points: 6
#     Node 3, Type 0, BuildingBlock: GEDQOX_clean_sbu_0, # of connection points: 6
#     Edge 4, Type (0, 0), BuildingBlock: XIVTED_clean_linker_0, # of connection points: 2
#     Edge 5, Type (0, 0), BuildingBlock: XIVTED_clean_linker_0, # of connection points: 2
#     Edge 6, Type (0, 0), BuildingBlock: XIVTED_clean_linker_0, # of connection points: 2
#     Edge 7, Type (0, 0), BuildingBlock: XIVTED_clean_linker_0, # of connection points: 2
#     Edge 8, Type (0, 0), BuildingBlock: XIVTED_clean_linker_0, # of connection points: 2
#     Edge 9, Type (0, 0), BuildingBlock: XIVTED_clean_linker_0, # of connection points: 2
#     Edge 10, Type (0, 0), BuildingBlock: XIVTED_clean_linker_0, # of connection points: 2
#     Edge 11, Type (0, 0), BuildingBlock: XIVTED_clean_linker_0, # of connection points: 2
#     Edge 12, Type (0, 0), BuildingBlock: XIVTED_clean_linker_0, # of connection points: 2
#     Edge 13, Type (0, 0), BuildingBlock: XIVTED_clean_linker_0, # of connection points: 2
#     Edge 14, Type (0, 0), BuildingBlock: XIVTED_clean_linker_0, # of connection points: 2
#     Edge 15, Type (0, 0), BuildingBlock: XIVTED_clean_linker_0, # of connection points: 2
# Relax obj value: 0.062
# Max RMSD: 0.214
# Mean RMSD: 0.147
data_MOF--net-rob--node1-GEDQOX_clean_sbu_0--edge1-XIVTED_clean_linker_0
_symmetry_space_group_name_H-M    P1
_symmetry_Int_Tables_number       1
_symmetry_cell_setting            triclinic
loop_
_symmetry_equiv_pos_as_xyz
'x, y, z'
_cell_length_a     19.428312
_cell_length_b     36.715834
_cell_length_c     30.339358
_cell_angle_alpha  110.22955
_cell_angle_beta   111.86868
_cell_angle_gamma 55.630871
loop_
_atom_site_label
_atom_site_type_symbol
_atom_site_fract_x
_atom_site_fract_y
_atom_site_fract_z
_atom_type_partial_charge
Nd0 Nd 0.19041 0.33282 0.01069 0.0
Nd1 Nd 0.23278 0.23592 0.97746 0.0
C2 C 0.16252 0.41425 0.01889 0.0
C3 C 0.20344 0.43413 0.00982 0.0
C4 C 0.23843 0.41692 0.96926 0.0
C5 C 0.28137 0.43471 0.96315 0.0
C6 C 0.29037 0.47008 -0.00249 0.0
C7 C 0.25393 0.48757 0.03764 0.0
C8 C 0.21115 0.46977 0.04369 0.0
C9 C 0.30254 0.2793 0.07788 0.0
C10 C 0.33561 0.26127 0.94403 0.0
C11 C 0.25983 0.15462 0.96885 0.0
C12 C 0.21956 0.13485 0.97878 0.0
C13 C 0.18665 0.15185 0.0201 0.0
C14 C 0.14461 0.13406 0.0272 0.0
C15 C 0.13466 0.0988 -0.00684 0.0
C16 C 0.1685 0.08174 0.95206 0.0
C17 C 0.21032 0.09957 0.94501 0.0
C18 C 0.12095 0.28969 0.91038 0.0
C19 C 0.08832 0.30722 0.04446 0.0
O20 O 0.12469 0.3954 0.98147 0.0
O21 O 0.20601 0.39137 0.05406 0.0
O22 O 0.24201 0.32008 0.08763 0.0
O23 O 0.30598 0.26794 0.03409 0.0
O24 O 0.28122 0.30307 0.96021 0.0
O25 O 0.33925 0.22686 0.95175 0.0
O26 O 0.29951 0.1728 0.00582 0.0
O27 O 0.21483 0.17807 0.93415 0.0
O28 O 0.18176 0.24899 0.90064 0.0
O29 O 0.11712 0.30079 0.95407 0.0
O30 O 0.14301 0.26548 0.02842 0.0
O31 O 0.08413 0.34169 0.03649 0.0
H32 H 0.23361 0.38933 0.94261 0.0
H33 H 0.30923 0.42001 0.93205 0.0
H34 H 0.25812 0.51524 0.06444 0.0
H35 H 0.18469 0.48363 0.07525 0.0
H36 H 0.19283 0.17909 0.04675 0.0
H37 H 0.12039 0.14778 0.05954 0.0
H38 H 0.16106 0.05518 0.92464 0.0
H39 H 0.23451 0.08615 0.91267 0.0
Nd40 Nd 0.71242 0.82763 0.01502 0.0
Nd41 Nd 0.7086 0.742 0.97284 0.0
C42 C 0.69689 0.90845 0.04511 0.0
C43 C 0.73496 0.93042 0.03728 0.0
C44 C 0.76706 0.91539 -0.00393 0.0
C45 C 0.80846 0.93429 0.99061 0.0
C46 C 0.81891 0.96867 0.02631 0.0
C47 C 0.78544 0.98401 0.06724 0.0
C48 C 0.74414 0.96501 0.07267 0.0
C49 C 0.85545 0.7549 0.05371 0.0
C50 C 0.80412 0.76579 0.92616 0.0
C51 C 0.72391 0.66122 0.94232 0.0
C52 C 0.68577 0.63901 0.94959 0.0
C53 C 0.65088 0.65459 0.98982 0.0
C54 C 0.61026 0.63505 -0.00513 0.0
C55 C 0.60334 0.59952 0.95969 0.0
C56 C 0.63924 0.58381 0.91965 0.0
C57 C 0.67986 0.60339 0.91468 0.0
C58 C 0.56562 0.81493 0.93428 0.0
C59 C 0.61715 0.80373 0.06179 0.0
O60 O 0.64354 0.89923 0.00813 0.0
O61 O 0.74986 0.8758 0.06966 0.0
O62 O 0.85775 0.78384 0.03988 0.0
O63 O 0.77915 0.76384 0.0444 0.0
O64 O 0.76693 0.80678 0.95039 0.0
O65 O 0.79965 0.73322 0.93238 0.0
O66 O 0.77691 0.67041 0.97961 0.0
O67 O 0.67117 0.69396 0.91788 0.0
O68 O 0.5632 0.78613 0.9483 0.0
O69 O 0.64207 0.80568 0.94338 0.0
O70 O 0.65408 0.76278 0.03742 0.0
O71 O 0.62179 0.83631 0.05572 0.0
H72 H 0.76092 0.88867 0.9683 0.0
H73 H 0.83215 0.92197 0.95828 0.0
H74 H 0.79311 1.00994 0.09579 0.0
H75 H 0.72062 0.97684 0.10499 0.0
H76 H 0.65404 0.68228 0.01704 0.0
H77 H 0.58253 0.64854 0.02584 0.0
H78 H 0.63632 0.55619 0.89215 0.0
H79 H 0.70601 0.59095 0.88325 0.0
Nd80 Nd 0.28546 0.78553 0.48154 0.0
Nd81 Nd 0.14069 0.77938 0.50575 0.0
C82 C 0.35234 0.81736 0.45338 0.0
C83 C 0.38438 0.81166 0.41289 0.0
C84 C 0.34878 0.79834 0.36496 0.0
C85 C 0.37234 0.79846 0.32665 0.0
C86 C 0.43219 0.81182 0.33538 0.0
C87 C 0.46941 0.8239 0.38359 0.0
C88 C 0.44561 0.82387 0.42186 0.0
C89 C 0.34398 0.69652 0.48599 0.0
C90 C 0.15451 0.7553 0.39319 0.0
C91 C 0.07385 0.74755 0.53395 0.0
C92 C 0.04138 0.75355 0.57439 0.0
C93 C -0.01835 0.74037 0.56561 0.0
C94 C 0.9574 0.74081 0.60397 0.0
C95 C -0.00734 0.75434 0.65207 0.0
C96 C 0.05105 0.76861 0.66057 0.0
C97 C 0.07506 0.76826 0.62217 0.0
C98 C 0.08218 0.86838 0.50132 0.0
C99 C 0.2712 0.80995 0.59406 0.0
O100 O 0.27005 0.83266 0.44462 0.0
O101 O 0.3989 0.78656 0.48078 0.0
O102 O 0.38846 0.70909 0.47807 0.0
O103 O 0.27262 0.73167 0.49149 0.0
O104 O 0.21023 0.76926 0.40663 0.0
O105 O 0.12292 0.75361 0.42394 0.0
O106 O 0.15612 0.73244 0.54298 0.0
O107 O 0.02739 0.77812 0.50627 0.0
O108 O 0.0377 0.85582 0.50926 0.0
O109 O 0.1535 0.83323 0.49577 0.0
O110 O 0.21561 0.79592 0.58067 0.0
O111 O 0.30297 0.81149 0.5633 0.0
H112 H 0.30094 0.78905 0.35707 0.0
H113 H 0.34152 0.7894 0.29014 0.0
H114 H 0.5168 0.83357 0.39183 0.0
H115 H 0.47365 0.83443 0.45855 0.0
H116 H 0.95511 0.72873 0.52904 0.0
H117 H 0.91117 0.73038 0.59587 0.0
H118 H 0.08036 0.77881 0.69702 0.0
H119 H 0.12175 0.77831 0.62991 0.0
Nd120 Nd 0.77994 0.28469 0.47469 0.0
Nd121 Nd 0.6464 0.2802 0.51271 0.0
C122 C 0.83565 0.31561 0.4367 0.0
C123 C 0.86427 0.30905 0.39433 0.0
C124 C 0.83044 0.29237 0.34765 0.0
C125 C 0.85007 0.29199 0.30737 0.0
C126 C 0.90373 0.30841 0.31293 0.0
C127 C 0.93948 0.32374 0.35997 0.0
C128 C 0.91986 0.32408 0.40014 0.0
C129 C 0.84357 0.19666 0.48513 0.0
C130 C 0.64618 0.25108 0.39712 0.0
C131 C 0.59067 0.24935 0.55076 0.0
C132 C 0.56199 0.25613 0.5932 0.0
C133 C 0.50704 0.24079 0.58768 0.0
C134 C 0.48725 0.2415 0.62798 0.0
C135 C 0.52219 0.25752 0.67487 0.0
C136 C 0.57526 0.27421 0.68012 0.0
C137 C 0.59506 0.27347 0.63971 0.0
C138 C 0.58277 0.36824 0.50228 0.0
C139 C 0.77987 0.31399 0.59027 0.0
O140 O 0.7547 0.32867 0.42964 0.0
O141 O 0.88697 0.2872 0.46685 0.0
O142 O 0.8841 0.20842 0.47201 0.0
O143 O 0.7738 0.23209 0.49269 0.0
O144 O 0.69925 0.26547 0.40453 0.0
O145 O 0.62067 0.25117 0.43207 0.0
O146 O 0.67163 0.23626 0.55781 0.0
O147 O 0.5394 0.27769 0.52053 0.0
O148 O 0.54226 0.35647 0.51542 0.0
O149 O 0.65252 0.3328 0.49469 0.0
O150 O 0.72694 0.29953 0.58287 0.0
O151 O 0.80546 0.31385 0.55532 0.0
H152 H 0.78691 0.28083 0.3422 0.0
H153 H 0.82085 0.28022 0.27179 0.0
H154 H -0.01768 0.33581 0.36582 0.0
H155 H 0.94643 0.33725 0.43579 0.0
H156 H 0.48106 0.22713 0.55216 0.0
H157 H 0.44488 0.2292 0.62235 0.0
H158 H 0.60385 0.28651 0.71559 0.0
H159 H 0.63809 0.28526 0.64494 0.0
H160 H 0.49727 0.57079 0.8883 0.0
H161 H 0.39931 0.49712 0.06807 0.0
H162 H 0.60506 0.58237 0.04181 0.0
H163 H 0.29173 0.48472 0.91455 0.0
H164 H 0.47515 0.52812 0.05892 0.0
H165 H 0.42319 0.53841 0.89688 0.0
C166 C 0.50601 0.56627 0.92381 0.0
C167 C 0.55794 0.57941 0.96438 0.0
C168 C 0.435 0.51864 0.02718 0.0
C169 C 0.47188 0.54264 0.97452 0.0
C170 C 0.39107 0.50113 0.03241 0.0
C171 C 0.33833 0.48837 -0.00793 0.0
C172 C 0.4265 0.52361 0.98124 0.0
C173 C 0.33208 0.49361 0.94668 0.0
C174 C 0.4631 0.54799 0.9287 0.0
C175 C 0.56508 0.57336 0.00953 0.0
N176 N 0.37533 0.51087 0.94255 0.0
N177 N 0.52273 0.55546 0.01334 0.0
H178 H 0.50319 0.62399 0.47965 0.0
H179 H 0.42437 0.44096 0.51012 0.0
H180 H 0.26289 0.65711 0.49698 0.0
H181 H 0.66057 0.40657 0.48581 0.0
H182 H 0.36568 0.51917 0.50611 0.0
H183 H 0.56115 0.54558 0.48242 0.0
C184 C 0.46218 0.61502 0.48423 0.0
C185 C 0.37745 0.64823 0.48847 0.0
C186 C 0.43024 0.49472 0.50144 0.0
C187 C 0.44502 0.55648 0.49164 0.0
C188 C 0.46424 0.44963 0.5037 0.0
C189 C 0.54807 0.41618 0.498 0.0
C190 C 0.47987 0.50769 0.49362 0.0
C191 C 0.59564 0.43046 0.48998 0.0
C192 C 0.49579 0.56979 0.48577 0.0
C193 C 0.32852 0.6335 0.49412 0.0
N194 N 0.56117 0.47473 0.48814 0.0
N195 N 0.36279 0.58917 0.49558 0.0
H196 H -0.00918 0.14393 0.02995 0.0
H197 H -0.03705 0.92433 0.99029 0.0
H198 H 0.17239 1.01096 0.97172 0.0
H199 H 0.78329 0.05645 0.05131 0.0
H200 H 0.03943 0.95578 0.98279 0.0
H201 H 0.91478 0.11275 0.03884 0.0
C202 C 0.01525 0.10814 0.01934 0.0
C203 C 0.08841 0.08017 -7e-05 0.0
C204 C -0.01673 0.97795 -0.00217 0.0
C205 C 0.00043 0.04419 0.0095 0.0
C206 C 0.93903 0.96003 0.00183 0.0
C207 C 0.86604 0.98768 0.02136 0.0
C208 C 0.95468 1.02403 0.0134 0.0
C209 C 0.8396 0.03362 0.03653 0.0
C210 C -0.0287 0.09038 0.02415 0.0
C211 C 0.11574 0.03409 0.98616 0.0
N212 N 0.88368 0.05028 0.03216 0.0
N213 N 0.07187 1.01766 -0.00883 0.0
H214 H 0.00202 0.12393 0.47738 0.0
H215 H 0.92291 0.9409 0.50755 0.0
H216 H 0.7657 0.15833 0.50153 0.0
H217 H 0.16339 0.90781 0.49053 0.0
H218 H 0.865 1.01931 0.50481 0.0
H219 H 0.06066 0.04572 0.48138 0.0
C220 C 0.96211 0.11526 0.48376 0.0
C221 C 0.87826 0.14871 0.48942 0.0
C222 C 0.93039 0.9951 0.50152 0.0
C223 C 0.94641 0.05721 0.49378 0.0
C224 C -0.03604 0.94988 0.50304 0.0
C225 C 0.04873 0.91668 0.49887 0.0
C226 C -0.01878 1.00842 0.49574 0.0
C227 C 0.09773 0.93141 0.49332 0.0
C228 C -0.00392 0.07017 0.48601 0.0
C229 C 0.83064 0.13444 0.4974 0.0
N230 N 0.06348 0.97574 0.49188 0.0
N231 N 0.86509 0.09017 0.49922 0.0
H232 H 0.70403 0.2299 0.31723 0.0
H233 H 0.26237 0.27043 0.14776 0.0
H234 H 0.50955 0.23696 0.36195 0.0
H235 H 0.47713 0.2287 0.0939 0.0
H236 H 0.36012 0.24378 0.22254 0.0
H237 H 0.6329 0.21606 0.23326 0.0
C238 C 0.64685 0.22803 0.30942 0.0
C239 C 0.61123 0.23589 0.34668 0.0
C240 C 0.38656 0.23929 0.19409 0.0
C241 C 0.5295 0.22009 0.25054 0.0
C242 C 0.33074 0.25446 0.15145 0.0
C243 C 0.36232 0.25217 0.11543 0.0
C244 C 0.47415 0.22324 0.20123 0.0
C245 C 0.45088 0.2311 0.12129 0.0
C246 C 0.60663 0.21976 0.26138 0.0
C247 C 0.53835 0.23195 0.3344 0.0
N248 N 0.50394 0.21847 0.16418 0.0
N249 N 0.49888 0.22523 0.28733 0.0
H250 H 0.55621 0.75392 0.06452 0.0
H251 H 0.46317 0.87412 0.32835 0.0
H252 H 0.58474 0.86917 0.14369 0.0
H253 H 0.45216 0.75408 0.24845 0.0
H254 H 0.49977 0.87624 0.2606 0.0
H255 H 0.50663 0.75815 0.1297 0.0
C256 C 0.55149 0.78042 0.09557 0.0
C257 C 0.57548 0.81102 0.09872 0.0
C258 C 0.48909 0.84955 0.2579 0.0
C259 C 0.51888 0.81588 0.17434 0.0
C260 C 0.46882 0.84805 0.29676 0.0
C261 C 0.45461 0.81375 0.29442 0.0
C262 C 0.49518 0.81656 0.2162 0.0
C263 C 0.46132 0.7815 0.25196 0.0
C264 C 0.52316 0.78277 0.13295 0.0
C265 C 0.56677 0.84495 0.13968 0.0
N266 N 0.48117 0.78369 0.21479 0.0
N267 N 0.53988 0.84624 0.17615 0.0
H268 H 0.58327 0.84814 0.87362 0.0
H269 H 0.20685 0.82157 0.66722 0.0
H270 H 0.40583 0.8248 0.8964 0.0
H271 H 0.39925 0.83103 0.64055 0.0
H272 H 0.26102 0.83861 0.75353 0.0
H273 H 0.49691 0.85967 0.7918 0.0
C274 C 0.52486 0.84663 0.86185 0.0
C275 C 0.50254 0.83452 0.89139 0.0
C276 C 0.29101 0.83736 0.72886 0.0
C277 C 0.40435 0.84703 0.79777 0.0
C278 C 0.26034 0.82741 0.67941 0.0
C279 C 0.29959 0.82397 0.6464 0.0
C280 C 0.3619 0.84372 0.74571 0.0
C281 C 0.36761 0.83278 0.6646 0.0
C282 C 0.47594 0.85289 0.815 0.0
C283 C 0.42601 0.83335 0.87448 0.0
N284 N 0.39729 0.84173 0.71307 0.0
N285 N 0.38041 0.83872 0.82847 0.0
H286 H 0.49296 0.32004 0.75838 0.0
H287 H 0.4026 0.18852 0.87369 0.0
H288 H 0.51168 0.19125 0.69012 0.0
H289 H 0.37607 0.31929 0.93803 0.0
H290 H 0.45723 0.18502 0.8104 0.0
H291 H 0.46243 0.31707 0.82786 0.0
C292 C 0.4913 0.29096 0.75805 0.0
C293 C 0.50451 0.25598 0.71797 0.0
C294 C 0.4403 0.21427 0.83869 0.0
C295 C 0.46884 0.25247 0.79771 0.0
C296 C 0.4099 0.21608 0.87512 0.0
C297 C 0.38407 0.2544 0.91109 0.0
C298 C 0.44511 0.25101 0.83829 0.0
C299 C 0.39411 0.28932 0.91071 0.0
C300 C 0.47347 0.28936 0.79776 0.0
C301 C 0.50044 0.21942 0.71967 0.0
N302 N 0.42312 0.28693 0.8748 0.0
N303 N 0.48281 0.21868 0.7587 0.0
H304 H 0.83834 0.72089 0.11378 0.0
H305 H 0.21842 0.74404 0.32002 0.0
H306 H 0.01527 0.74499 0.09163 0.0
H307 H 0.02541 0.73502 0.34659 0.0
H308 H 0.16276 0.72828 0.23368 0.0
H309 H 0.9257 0.70819 0.1952 0.0
C310 C 0.89682 0.72234 0.12559 0.0
C311 C 0.91878 0.73495 0.09636 0.0
C312 C 0.13296 0.72934 0.25833 0.0
C313 C 0.01813 0.72107 0.18952 0.0
C314 C 0.1645 0.73855 0.30779 0.0
C315 C 0.1255 0.74176 0.3408 0.0
C316 C 0.06146 0.7235 0.24147 0.0
C317 C 0.05689 0.73341 0.32255 0.0
C318 C 0.94631 0.7154 0.17221 0.0
C319 C -0.00461 0.73604 0.11332 0.0
N320 N 0.02637 0.7252 0.27408 0.0
N321 N 0.04159 0.72997 0.1591 0.0
H322 H 0.93114 0.24687 0.22864 0.0
H323 H 0.02241 0.3795 0.11548 0.0
H324 H 0.91547 0.37475 0.29885 0.0
H325 H 0.04738 0.2492 0.04977 0.0
H326 H -0.03172 0.38244 0.17871 0.0
H327 H 0.96111 0.25059 0.15941 0.0
C328 C 0.93336 0.27592 0.22946 0.0
C329 C 0.92115 0.3104 0.27 0.0
C330 C -0.01528 0.35343 0.15013 0.0
C331 C 0.95619 0.31479 0.19054 0.0
C332 C 0.01482 0.35195 0.11374 0.0
C333 C 0.04004 0.31392 0.07739 0.0
C334 C -0.0204 0.31666 0.15008 0.0
C335 C 0.02973 0.27897 0.07736 0.0
C336 C 0.95087 0.27795 0.18989 0.0
C337 C 0.92592 0.34694 0.26891 0.0
N338 N 0.00101 0.28104 0.11322 0.0
N339 N 0.94322 0.3481 0.23 0.0
H340 H 0.72162 0.33523 0.67002 0.0
H341 H 0.16025 0.29963 0.8409 0.0
H342 H 0.91553 0.32892 0.62553 0.0
H343 H 0.94619 0.33868 0.89367 0.0
H344 H 0.0626 0.32524 0.76566 0.0
H345 H 0.7914 0.35015 0.75401 0.0
C346 C 0.77842 0.33746 0.67788 0.0
C347 C 0.81426 0.32954 0.64069 0.0
C348 C 0.03623 0.32939 0.79397 0.0
C349 C 0.89442 0.34662 0.73688 0.0
C350 C 0.092 0.31484 0.83689 0.0
C351 C 0.06067 0.31665 0.87274 0.0
C352 C 0.94905 0.34432 0.7864 0.0
C353 C -0.02775 0.33669 0.86644 0.0
C354 C 0.81785 0.34636 0.72593 0.0
C355 C 0.88659 0.33397 0.65303 0.0
N356 N 0.91935 0.34871 0.82329 0.0
N357 N 0.92529 0.34133 0.70014 0.0
H358 H -0.03507 0.69148 0.66087 0.0
H359 H 0.8615 0.81674 0.92195 0.0
H360 H -0.0319 0.81406 0.73755 0.0
H361 H 0.84025 0.69895 0.84561 0.0
H362 H 0.91176 0.81183 0.85671 0.0
H363 H 0.92717 0.6904 0.72878 0.0
C364 C 0.95731 0.71832 0.69178 0.0
C365 C -0.03033 0.75302 0.69318 0.0
C366 C 0.89666 0.78681 0.85409 0.0
C367 C 0.92773 0.75145 0.77158 0.0
C368 C 0.86793 0.78955 0.89151 0.0
C369 C 0.84581 0.75841 0.88918 0.0
C370 C 0.9033 0.75274 0.81349 0.0
C371 C 0.8567 0.72363 0.84898 0.0
C372 C 0.93638 0.71743 0.73073 0.0
C373 C 0.96044 0.7863 0.7348 0.0
N374 N 0.88401 0.72194 0.81247 0.0
N375 N 0.93999 0.78469 0.77209 0.0
loop_
_geom_bond_atom_site_label_1
_geom_bond_atom_site_label_2
_geom_bond_distance
_geom_bond_site_symmetry_2
_ccdc_geom_bond_type
Nd0 C2 2.836 . S
Nd0 O20 2.500 1_554 S
Nd0 O21 2.492 . S
Nd0 O22 2.487 . S
Nd0 O23 2.682 . S
Nd0 O24 2.410 1_554 S
Nd0 O29 2.414 1_554 S
Nd0 O31 2.424 . S
Nd1 C11 2.836 1_556 S
Nd1 O23 2.414 1_556 S
Nd1 O25 2.424 . S
Nd1 O26 2.500 1_556 S
Nd1 O27 2.492 . S
Nd1 O28 2.487 . S
Nd1 O29 2.682 . S
Nd1 O30 2.410 1_556 S
C2 Nd0 2.836 . S
C2 C3 1.498 1_554 S
C2 O20 1.258 1_554 S
C2 O21 1.239 . S
C3 C2 1.498 1_556 S
C3 C4 1.366 . S
C3 C8 1.407 1_556 S
C4 C3 1.366 . S
C4 C5 1.392 . S
C4 H32 0.930 . S
C5 C4 1.392 . S
C5 C6 1.398 . S
C5 H33 0.929 . S
C6 C5 1.398 . S
C6 C7 1.352 1_556 S
C7 C6 1.352 1_554 S
C7 C8 1.384 . S
C7 H34 0.930 . S
C8 C3 1.407 1_554 S
C8 C7 1.384 . S
C8 H35 0.929 . S
C9 O22 1.241 . S
C9 O23 1.273 . S
C10 O24 1.251 . S
C10 O25 1.268 . S
C11 Nd1 2.836 1_554 S
C11 C12 1.498 . S
C11 O26 1.258 . S
C11 O27 1.239 1_554 S
C12 C11 1.498 . S
C12 C13 1.366 . S
C12 C17 1.407 1_554 S
C13 C12 1.366 . S
C13 C14 1.392 . S
C13 H36 0.930 . S
C14 C13 1.392 . S
C14 C15 1.398 . S
C14 H37 0.929 . S
C15 C14 1.398 . S
C15 C16 1.352 1_554 S
C16 C15 1.352 1_556 S
C16 C17 1.384 . S
C16 H38 0.930 . S
C17 C12 1.407 1_556 S
C17 C16 1.384 . S
C17 H39 0.929 . S
C18 O28 1.241 . S
C18 O29 1.273 . S
C19 O30 1.251 . S
C19 O31 1.268 . S
O20 Nd0 2.500 1_556 S
O20 C2 1.258 1_556 S
O21 Nd0 2.492 . S
O21 C2 1.239 . S
O22 Nd0 2.487 . S
O22 C9 1.241 . S
O23 Nd0 2.682 . S
O23 Nd1 2.414 1_554 S
O23 C9 1.273 . S
O24 Nd0 2.410 1_556 S
O24 C10 1.251 . S
O25 Nd1 2.424 . S
O25 C10 1.268 . S
O26 Nd1 2.500 1_554 S
O26 C11 1.258 . S
O27 Nd1 2.492 . S
O27 C11 1.239 1_556 S
O28 Nd1 2.487 . S
O28 C18 1.241 . S
O29 Nd0 2.414 1_556 S
O29 Nd1 2.682 . S
O29 C18 1.273 . S
O30 Nd1 2.410 1_554 S
O30 C19 1.251 . S
O31 Nd0 2.424 . S
O31 C19 1.268 . S
H32 C4 0.930 . S
H33 C5 0.929 . S
H34 C7 0.930 . S
H35 C8 0.929 . S
H36 C13 0.930 . S
H37 C14 0.929 . S
H38 C16 0.930 . S
H39 C17 0.929 . S
Nd40 C42 2.836 . S
Nd40 O60 2.500 1_554 S
Nd40 O61 2.492 . S
Nd40 O62 2.487 . S
Nd40 O63 2.682 . S
Nd40 O64 2.410 1_554 S
Nd40 O69 2.414 1_554 S
Nd40 O71 2.424 . S
Nd41 C51 2.836 1_556 S
Nd41 O63 2.414 1_556 S
Nd41 O65 2.424 . S
Nd41 O66 2.500 1_556 S
Nd41 O67 2.492 . S
Nd41 O68 2.487 . S
Nd41 O69 2.682 . S
Nd41 O70 2.410 1_556 S
C42 Nd40 2.836 . S
C42 C43 1.498 1_554 S
C42 O60 1.258 1_554 S
C42 O61 1.239 . S
C43 C42 1.498 1_556 S
C43 C44 1.366 . S
C43 C48 1.407 1_556 S
C44 C43 1.366 . S
C44 C45 1.392 . S
C44 H72 0.930 . S
C45 C44 1.392 . S
C45 C46 1.398 . S
C45 H73 0.929 . S
C46 C45 1.398 . S
C46 C47 1.352 1_556 S
C47 C46 1.352 1_554 S
C47 C48 1.384 . S
C47 H74 0.930 . S
C48 C43 1.407 1_554 S
C48 C47 1.384 . S
C48 H75 0.929 . S
C49 O62 1.241 . S
C49 O63 1.273 . S
C50 O64 1.251 . S
C50 O65 1.268 . S
C51 Nd41 2.836 1_554 S
C51 C52 1.498 . S
C51 O66 1.258 . S
C51 O67 1.239 1_554 S
C52 C51 1.498 . S
C52 C53 1.366 . S
C52 C57 1.407 1_554 S
C53 C52 1.366 . S
C53 C54 1.392 . S
C53 H76 0.930 . S
C54 C53 1.392 . S
C54 C55 1.398 . S
C54 H77 0.929 . S
C55 C54 1.398 . S
C55 C56 1.352 1_554 S
C56 C55 1.352 1_556 S
C56 C57 1.384 . S
C56 H78 0.930 . S
C57 C52 1.407 1_556 S
C57 C56 1.384 . S
C57 H79 0.929 . S
C58 O68 1.241 . S
C58 O69 1.273 . S
C59 O70 1.251 . S
C59 O71 1.268 . S
O60 Nd40 2.500 1_556 S
O60 C42 1.258 1_556 S
O61 Nd40 2.492 . S
O61 C42 1.239 . S
O62 Nd40 2.487 . S
O62 C49 1.241 . S
O63 Nd40 2.682 . S
O63 Nd41 2.414 1_554 S
O63 C49 1.273 . S
O64 Nd40 2.410 1_556 S
O64 C50 1.251 . S
O65 Nd41 2.424 . S
O65 C50 1.268 . S
O66 Nd41 2.500 1_554 S
O66 C51 1.258 . S
O67 Nd41 2.492 . S
O67 C51 1.239 1_556 S
O68 Nd41 2.487 . S
O68 C58 1.241 . S
O69 Nd40 2.414 1_556 S
O69 Nd41 2.682 . S
O69 C58 1.273 . S
O70 Nd41 2.410 1_554 S
O70 C59 1.251 . S
O71 Nd40 2.424 . S
O71 C59 1.268 . S
H72 C44 0.930 . S
H73 C45 0.929 . S
H74 C47 0.930 . S
H75 C48 0.929 . S
H76 C53 0.930 . S
H77 C54 0.929 . S
H78 C56 0.930 . S
H79 C57 0.929 . S
Nd80 C82 2.836 . S
Nd80 O100 2.500 . S
Nd80 O101 2.492 . S
Nd80 O102 2.487 . S
Nd80 O103 2.682 . S
Nd80 O104 2.410 . S
Nd80 O109 2.414 . S
Nd80 O111 2.424 . S
Nd81 C91 2.836 . S
Nd81 O103 2.414 . S
Nd81 O105 2.424 . S
Nd81 O106 2.500 . S
Nd81 O107 2.492 . S
Nd81 O108 2.487 . S
Nd81 O109 2.682 . S
Nd81 O110 2.410 . S
C82 Nd80 2.836 . S
C82 C83 1.498 . S
C82 O100 1.258 . S
C82 O101 1.239 . S
C83 C82 1.498 . S
C83 C84 1.366 . S
C83 C88 1.407 . S
C84 C83 1.366 . S
C84 C85 1.392 . S
C84 H112 0.930 . S
C85 C84 1.392 . S
C85 C86 1.398 . S
C85 H113 0.929 . S
C86 C85 1.398 . S
C86 C87 1.352 . S
C87 C86 1.352 . S
C87 C88 1.384 . S
C87 H114 0.930 . S
C88 C83 1.407 . S
C88 C87 1.384 . S
C88 H115 0.929 . S
C89 O102 1.241 . S
C89 O103 1.273 . S
C90 O104 1.251 . S
C90 O105 1.268 . S
C91 Nd81 2.836 . S
C91 C92 1.498 . S
C91 O106 1.258 . S
C91 O107 1.239 . S
C92 C91 1.498 . S
C92 C93 1.366 . S
C92 C97 1.407 . S
C93 C92 1.366 . S
C93 C94 1.392 . S
C93 H116 0.930 . S
C94 C93 1.392 . S
C94 C95 1.398 . S
C94 H117 0.929 . S
C95 C94 1.398 . S
C95 C96 1.352 . S
C96 C95 1.352 . S
C96 C97 1.384 . S
C96 H118 0.930 1_455 S
C97 C92 1.407 . S
C97 C96 1.384 . S
C97 H119 0.929 . S
C98 O108 1.241 . S
C98 O109 1.273 . S
C99 O110 1.251 . S
C99 O111 1.268 . S
O100 Nd80 2.500 . S
O100 C82 1.258 . S
O101 Nd80 2.492 . S
O101 C82 1.239 . S
O102 Nd80 2.487 . S
O102 C89 1.241 . S
O103 Nd80 2.682 . S
O103 Nd81 2.414 . S
O103 C89 1.273 . S
O104 Nd80 2.410 . S
O104 C90 1.251 . S
O105 Nd81 2.424 . S
O105 C90 1.268 . S
O106 Nd81 2.500 . S
O106 C91 1.258 . S
O107 Nd81 2.492 . S
O107 C91 1.239 . S
O108 Nd81 2.487 . S
O108 C98 1.241 . S
O109 Nd80 2.414 . S
O109 Nd81 2.682 . S
O109 C98 1.273 . S
O110 Nd81 2.410 . S
O110 C99 1.251 . S
O111 Nd80 2.424 . S
O111 C99 1.268 . S
H112 C84 0.930 . S
H113 C85 0.929 . S
H114 C87 0.930 . S
H115 C88 0.929 . S
H116 C93 0.930 . S
H117 C94 0.929 . S
H118 C96 0.930 1_655 S
H119 C97 0.929 . S
Nd120 C122 2.836 . S
Nd120 O140 2.500 . S
Nd120 O141 2.492 . S
Nd120 O142 2.487 . S
Nd120 O143 2.682 . S
Nd120 O144 2.410 . S
Nd120 O149 2.414 . S
Nd120 O151 2.424 . S
Nd121 C131 2.836 . S
Nd121 O143 2.414 . S
Nd121 O145 2.424 . S
Nd121 O146 2.500 . S
Nd121 O147 2.492 . S
Nd121 O148 2.487 . S
Nd121 O149 2.682 . S
Nd121 O150 2.410 . S
C122 Nd120 2.836 . S
C122 C123 1.498 . S
C122 O140 1.258 . S
C122 O141 1.239 . S
C123 C122 1.498 . S
C123 C124 1.366 . S
C123 C128 1.407 . S
C124 C123 1.366 . S
C124 C125 1.392 . S
C124 H152 0.930 . S
C125 C124 1.392 . S
C125 C126 1.398 . S
C125 H153 0.929 . S
C126 C125 1.398 . S
C126 C127 1.352 . S
C127 C126 1.352 . S
C127 C128 1.384 . S
C127 H154 0.930 1_655 S
C128 C123 1.407 . S
C128 C127 1.384 . S
C128 H155 0.929 . S
C129 O142 1.241 . S
C129 O143 1.273 . S
C130 O144 1.251 . S
C130 O145 1.268 . S
C131 Nd121 2.836 . S
C131 C132 1.498 . S
C131 O146 1.258 . S
C131 O147 1.239 . S
C132 C131 1.498 . S
C132 C133 1.366 . S
C132 C137 1.407 . S
C133 C132 1.366 . S
C133 C134 1.392 . S
C133 H156 0.930 . S
C134 C133 1.392 . S
C134 C135 1.398 . S
C134 H157 0.929 . S
C135 C134 1.398 . S
C135 C136 1.352 . S
C136 C135 1.352 . S
C136 C137 1.384 . S
C136 H158 0.930 . S
C137 C132 1.407 . S
C137 C136 1.384 . S
C137 H159 0.929 . S
C138 O148 1.241 . S
C138 O149 1.273 . S
C139 O150 1.251 . S
C139 O151 1.268 . S
O140 Nd120 2.500 . S
O140 C122 1.258 . S
O141 Nd120 2.492 . S
O141 C122 1.239 . S
O142 Nd120 2.487 . S
O142 C129 1.241 . S
O143 Nd120 2.682 . S
O143 Nd121 2.414 . S
O143 C129 1.273 . S
O144 Nd120 2.410 . S
O144 C130 1.251 . S
O145 Nd121 2.424 . S
O145 C130 1.268 . S
O146 Nd121 2.500 . S
O146 C131 1.258 . S
O147 Nd121 2.492 . S
O147 C131 1.239 . S
O148 Nd121 2.487 . S
O148 C138 1.241 . S
O149 Nd120 2.414 . S
O149 Nd121 2.682 . S
O149 C138 1.273 . S
O150 Nd121 2.410 . S
O150 C139 1.251 . S
O151 Nd120 2.424 . S
O151 C139 1.268 . S
H152 C124 0.930 . S
H153 C125 0.929 . S
H154 C127 0.930 1_455 S
H155 C128 0.929 . S
H156 C133 0.930 . S
H157 C134 0.929 . S
H158 C136 0.930 . S
H159 C137 0.929 . S
H160 C166 0.930 . S
H161 C170 0.930 . S
H162 C175 0.929 . S
H163 C173 0.929 . S
H164 C168 0.929 . S
H165 C174 0.929 . S
C166 H160 0.930 . S
C166 C167 1.367 1_556 S
C166 C174 1.378 . S
C167 C166 1.367 1_554 S
C167 C175 1.433 . S
C168 H164 0.929 . S
C168 C170 1.378 . S
C168 C172 1.350 1_554 S
C169 C172 1.463 1_554 S
C169 C174 1.350 1_554 S
C169 N177 1.427 . S
C170 H161 0.930 . S
C170 C168 1.378 . S
C170 C171 1.367 1_554 S
C171 C170 1.367 1_556 S
C171 C173 1.433 . S
C172 C168 1.350 1_556 S
C172 C169 1.463 1_556 S
C172 N176 1.427 . S
C173 H163 0.929 . S
C173 C171 1.433 . S
C173 N176 1.384 . S
C174 H165 0.929 . S
C174 C166 1.378 . S
C174 C169 1.350 1_556 S
C175 H162 0.929 . S
C175 C167 1.433 . S
C175 N177 1.384 . S
N176 C172 1.427 . S
N176 C173 1.384 . S
N177 C169 1.427 . S
N177 C175 1.384 . S
H178 C184 0.930 . S
H179 C188 0.930 . S
H180 C193 0.929 . S
H181 C191 0.929 . S
H182 C186 0.929 . S
H183 C192 0.929 . S
C184 H178 0.930 . S
C184 C185 1.367 . S
C184 C192 1.378 . S
C185 C184 1.367 . S
C185 C193 1.433 . S
C186 H182 0.929 . S
C186 C188 1.378 . S
C186 C190 1.350 . S
C187 C190 1.463 . S
C187 C192 1.350 . S
C187 N195 1.427 . S
C188 H179 0.930 . S
C188 C186 1.378 . S
C188 C189 1.367 . S
C189 C188 1.367 . S
C189 C191 1.433 . S
C190 C186 1.350 . S
C190 C187 1.463 . S
C190 N194 1.427 . S
C191 H181 0.929 . S
C191 C189 1.433 . S
C191 N194 1.384 . S
C192 H183 0.929 . S
C192 C184 1.378 . S
C192 C187 1.350 . S
C193 H180 0.929 . S
C193 C185 1.433 . S
C193 N195 1.384 . S
N194 C190 1.427 . S
N194 C191 1.384 . S
N195 C187 1.427 . S
N195 C193 1.384 . S
H196 C202 0.930 . S
H197 C206 0.930 . S
H198 C211 0.919 . S
H199 C209 0.919 . S
H200 C204 0.929 . S
H201 C210 0.929 . S
C202 H196 0.930 . S
C202 C203 1.367 . S
C202 C210 1.378 . S
C203 C202 1.367 . S
C203 C211 1.433 1_554 S
C204 H200 0.929 . S
C204 C206 1.378 . S
C204 C208 1.350 . S
C205 C208 1.463 1_444 S
C205 C210 1.350 . S
C205 N213 1.427 1_544 S
C206 H197 0.930 . S
C206 C204 1.378 . S
C206 C207 1.367 . S
C207 C206 1.367 . S
C207 C209 1.433 1_556 S
C208 C204 1.350 . S
C208 C205 1.463 1_666 S
C208 N212 1.427 1_566 S
C209 H199 0.919 . S
C209 C207 1.433 1_554 S
C209 N212 1.384 1_565 S
C210 H201 0.929 . S
C210 C202 1.378 . S
C210 C205 1.350 . S
C211 H198 0.919 . S
C211 C203 1.433 1_556 S
C211 N213 1.384 1_545 S
N212 C208 1.427 1_544 S
N212 C209 1.384 1_545 S
N213 C205 1.427 1_566 S
N213 C211 1.384 1_565 S
H214 C220 0.930 1_455 S
H215 C224 0.930 1_655 S
H216 C229 0.929 . S
H217 C227 0.929 . S
H218 C222 0.929 . S
H219 C228 0.929 . S
C220 H214 0.930 1_655 S
C220 C221 1.367 . S
C220 C228 1.378 1_655 S
C221 C220 1.367 . S
C221 C229 1.433 . S
C222 H218 0.929 . S
C222 C224 1.378 1_655 S
C222 C226 1.350 1_655 S
C223 C226 1.463 1_645 S
C223 C228 1.350 1_655 S
C223 N231 1.427 . S
C224 H215 0.930 1_455 S
C224 C222 1.378 1_455 S
C224 C225 1.367 . S
C225 C224 1.367 . S
C225 C227 1.433 . S
C226 C222 1.350 1_455 S
C226 C223 1.463 1_465 S
C226 N230 1.427 . S
C227 H217 0.929 . S
C227 C225 1.433 . S
C227 N230 1.384 . S
C228 H219 0.929 . S
C228 C220 1.378 1_455 S
C228 C223 1.350 1_455 S
C229 H216 0.929 . S
C229 C221 1.433 . S
C229 N231 1.384 . S
N230 C226 1.427 . S
N230 C227 1.384 . S
N231 C223 1.427 . S
N231 C229 1.384 . S
H232 C238 0.930 . S
H233 C242 0.930 . S
H234 C247 0.929 . S
H235 C245 0.929 . S
H236 C240 0.929 . S
H237 C246 0.929 . S
C238 H232 0.930 . S
C238 C239 1.367 . S
C238 C246 1.378 . S
C239 C238 1.367 . S
C239 C247 1.433 . S
C240 H236 0.929 . S
C240 C242 1.378 . S
C240 C244 1.350 . S
C241 C244 1.463 . S
C241 C246 1.350 . S
C241 N249 1.427 . S
C242 H233 0.930 . S
C242 C240 1.378 . S
C242 C243 1.367 . S
C243 C242 1.367 . S
C243 C245 1.433 . S
C244 C240 1.350 . S
C244 C241 1.463 . S
C244 N248 1.427 . S
C245 H235 0.929 . S
C245 C243 1.433 . S
C245 N248 1.384 . S
C246 H237 0.929 . S
C246 C238 1.378 . S
C246 C241 1.350 . S
C247 H234 0.929 . S
C247 C239 1.433 . S
C247 N249 1.384 . S
N248 C244 1.427 . S
N248 C245 1.384 . S
N249 C241 1.427 . S
N249 C247 1.384 . S
H250 C256 0.930 . S
H251 C260 0.930 . S
H252 C265 0.929 . S
H253 C263 0.929 . S
H254 C258 0.929 . S
H255 C264 0.929 . S
C256 H250 0.930 . S
C256 C257 1.367 . S
C256 C264 1.378 . S
C257 C256 1.367 . S
C257 C265 1.433 . S
C258 H254 0.929 . S
C258 C260 1.378 . S
C258 C262 1.350 . S
C259 C262 1.463 . S
C259 C264 1.350 . S
C259 N267 1.427 . S
C260 H251 0.930 . S
C260 C258 1.378 . S
C260 C261 1.367 . S
C261 C260 1.367 . S
C261 C263 1.433 . S
C262 C258 1.350 . S
C262 C259 1.463 . S
C262 N266 1.427 . S
C263 H253 0.929 . S
C263 C261 1.433 . S
C263 N266 1.384 . S
C264 H255 0.929 . S
C264 C256 1.378 . S
C264 C259 1.350 . S
C265 H252 0.929 . S
C265 C257 1.433 . S
C265 N267 1.384 . S
N266 C262 1.427 . S
N266 C263 1.384 . S
N267 C259 1.427 . S
N267 C265 1.384 . S
H268 C274 0.930 . S
H269 C278 0.930 . S
H270 C283 0.929 . S
H271 C281 0.929 . S
H272 C276 0.929 . S
H273 C282 0.929 . S
C274 H268 0.930 . S
C274 C275 1.367 . S
C274 C282 1.378 . S
C275 C274 1.367 . S
C275 C283 1.433 . S
C276 H272 0.929 . S
C276 C278 1.378 . S
C276 C280 1.350 . S
C277 C280 1.463 . S
C277 C282 1.350 . S
C277 N285 1.427 . S
C278 H269 0.930 . S
C278 C276 1.378 . S
C278 C279 1.367 . S
C279 C278 1.367 . S
C279 C281 1.433 . S
C280 C276 1.350 . S
C280 C277 1.463 . S
C280 N284 1.427 . S
C281 H271 0.929 . S
C281 C279 1.433 . S
C281 N284 1.384 . S
C282 H273 0.929 . S
C282 C274 1.378 . S
C282 C277 1.350 . S
C283 H270 0.929 . S
C283 C275 1.433 . S
C283 N285 1.384 . S
N284 C280 1.427 . S
N284 C281 1.384 . S
N285 C277 1.427 . S
N285 C283 1.384 . S
H286 C292 0.930 . S
H287 C296 0.930 . S
H288 C301 0.929 . S
H289 C299 0.929 . S
H290 C294 0.929 . S
H291 C300 0.929 . S
C292 H286 0.930 . S
C292 C293 1.367 . S
C292 C300 1.378 . S
C293 C292 1.367 . S
C293 C301 1.433 . S
C294 H290 0.929 . S
C294 C296 1.378 . S
C294 C298 1.350 . S
C295 C298 1.463 . S
C295 C300 1.350 . S
C295 N303 1.427 . S
C296 H287 0.930 . S
C296 C294 1.378 . S
C296 C297 1.367 . S
C297 C296 1.367 . S
C297 C299 1.433 . S
C298 C294 1.350 . S
C298 C295 1.463 . S
C298 N302 1.427 . S
C299 H289 0.929 . S
C299 C297 1.433 . S
C299 N302 1.384 . S
C300 H291 0.929 . S
C300 C292 1.378 . S
C300 C295 1.350 . S
C301 H288 0.929 . S
C301 C293 1.433 . S
C301 N303 1.384 . S
N302 C298 1.427 . S
N302 C299 1.384 . S
N303 C295 1.427 . S
N303 C301 1.384 . S
H304 C310 0.930 . S
H305 C314 0.930 . S
H306 C319 0.929 . S
H307 C317 0.929 . S
H308 C312 0.929 . S
H309 C318 0.929 . S
C310 H304 0.930 . S
C310 C311 1.367 . S
C310 C318 1.378 . S
C311 C310 1.367 . S
C311 C319 1.433 . S
C312 H308 0.929 . S
C312 C314 1.378 . S
C312 C316 1.350 . S
C313 C316 1.463 1_655 S
C313 C318 1.350 . S
C313 N321 1.427 1_655 S
C314 H305 0.930 . S
C314 C312 1.378 . S
C314 C315 1.367 . S
C315 C314 1.367 . S
C315 C317 1.433 . S
C316 C312 1.350 . S
C316 C313 1.463 1_455 S
C316 N320 1.427 . S
C317 H307 0.929 . S
C317 C315 1.433 . S
C317 N320 1.384 . S
C318 H309 0.929 . S
C318 C310 1.378 . S
C318 C313 1.350 . S
C319 H306 0.929 . S
C319 C311 1.433 . S
C319 N321 1.384 1_655 S
N320 C316 1.427 . S
N320 C317 1.384 . S
N321 C313 1.427 1_455 S
N321 C319 1.384 1_455 S
H322 C328 0.930 . S
H323 C332 0.930 . S
H324 C337 0.929 . S
H325 C335 0.929 . S
H326 C330 0.929 . S
H327 C336 0.929 . S
C328 H322 0.930 . S
C328 C329 1.367 . S
C328 C336 1.378 . S
C329 C328 1.367 . S
C329 C337 1.433 1_655 S
C330 H326 0.929 . S
C330 C332 1.378 . S
C330 C334 1.350 . S
C331 C334 1.463 . S
C331 C336 1.350 1_455 S
C331 N339 1.427 . S
C332 H323 0.930 . S
C332 C330 1.378 . S
C332 C333 1.367 . S
C333 C332 1.367 . S
C333 C335 1.433 . S
C334 C330 1.350 . S
C334 C331 1.463 . S
C334 N338 1.427 . S
C335 H325 0.929 . S
C335 C333 1.433 . S
C335 N338 1.384 . S
C336 H327 0.929 . S
C336 C328 1.378 . S
C336 C331 1.350 1_655 S
C337 H324 0.929 . S
C337 C329 1.433 1_455 S
C337 N339 1.384 . S
N338 C334 1.427 . S
N338 C335 1.384 . S
N339 C331 1.427 . S
N339 C337 1.384 . S
H340 C346 0.930 . S
H341 C350 0.930 . S
H342 C355 0.929 . S
H343 C353 0.929 . S
H344 C348 0.929 . S
H345 C354 0.929 . S
C346 H340 0.930 . S
C346 C347 1.367 . S
C346 C354 1.378 . S
C347 C346 1.367 . S
C347 C355 1.433 . S
C348 H344 0.929 . S
C348 C350 1.378 . S
C348 C352 1.350 . S
C349 C352 1.463 1_655 S
C349 C354 1.350 . S
C349 N357 1.427 . S
C350 H341 0.930 . S
C350 C348 1.378 . S
C350 C351 1.367 . S
C351 C350 1.367 . S
C351 C353 1.433 . S
C352 C348 1.350 . S
C352 C349 1.463 1_455 S
C352 N356 1.427 1_455 S
C353 H343 0.929 . S
C353 C351 1.433 . S
C353 N356 1.384 1_455 S
C354 H345 0.929 . S
C354 C346 1.378 . S
C354 C349 1.350 . S
C355 H342 0.929 . S
C355 C347 1.433 . S
C355 N357 1.384 . S
N356 C352 1.427 1_655 S
N356 C353 1.384 1_655 S
N357 C349 1.427 . S
N357 C355 1.384 . S
H358 C364 0.930 . S
H359 C368 0.930 . S
H360 C373 0.929 . S
H361 C371 0.929 1_455 S
H362 C366 0.929 . S
H363 C372 0.929 . S
C364 H358 0.930 . S
C364 C365 1.367 . S
C364 C372 1.378 . S
C365 C364 1.367 . S
C365 C373 1.433 1_455 S
C366 H362 0.929 . S
C366 C368 1.378 . S
C366 C370 1.350 . S
C367 C370 1.463 . S
C367 C372 1.350 1_655 S
C367 N375 1.427 . S
C368 H359 0.930 . S
C368 C366 1.378 . S
C368 C369 1.367 . S
C369 C368 1.367 . S
C369 C371 1.433 . S
C370 C366 1.350 . S
C370 C367 1.463 . S
C370 N374 1.427 1_655 S
C371 H361 0.929 1_655 S
C371 C369 1.433 . S
C371 N374 1.384 1_655 S
C372 H363 0.929 . S
C372 C364 1.378 . S
C372 C367 1.350 1_455 S
C373 H360 0.929 . S
C373 C365 1.433 1_655 S
C373 N375 1.384 . S
N374 C370 1.427 1_455 S
N374 C371 1.384 1_455 S
N375 C367 1.427 . S
N375 C373 1.384 . S
C167 C55 1.588 . S
C171 C6 1.588 . S
C185 C89 2.116 . S
C189 C138 2.116 . S
C203 C15 1.597 . S
C207 C46 1.597 . S
C221 C129 2.116 . S
C225 C98 2.116 . S
C239 C130 1.086 . S
C243 C9 1.046 . S
C257 C59 1.591 . S
C261 C86 1.582 . S
C275 C58 1.024 . S
C279 C99 1.080 . S
C293 C135 1.582 . S
C297 C10 1.591 . S
C311 C49 1.021 . S
C315 C90 1.077 . S
C329 C126 1.586 . S
C333 C19 1.590 . S
C347 C139 1.085 . S
C351 C18 1.040 . S
C365 C95 1.583 . S
C369 C50 1.588 . S
