# Generated by pormake.
# Topology fcg, (5)-cn, num edge types: 1
# Building blocks:
#     Node 0, Type 0, BuildingBlock: XOMCOT_clean_sbu_1, # of connection points: 5
#     Node 1, Type 0, BuildingBlock: XOMCOT_clean_sbu_1, # of connection points: 5
#     Node 2, Type 0, BuildingBlock: XOMCOT_clean_sbu_1, # of connection points: 5
#     Node 3, Type 0, BuildingBlock: XOMCOT_clean_sbu_1, # of connection points: 5
#     Node 4, Type 0, BuildingBlock: XOMCOT_clean_sbu_1, # of connection points: 5
#     Node 5, Type 0, BuildingBlock: XOMCOT_clean_sbu_1, # of connection points: 5
#     Node 6, Type 0, BuildingBlock: XOMCOT_clean_sbu_1, # of connection points: 5
#     Node 7, Type 0, BuildingBlock: XOMCOT_clean_sbu_1, # of connection points: 5
#     Node 8, Type 0, BuildingBlock: XOMCOT_clean_sbu_1, # of connection points: 5
#     Node 9, Type 0, BuildingBlock: XOMCOT_clean_sbu_1, # of connection points: 5
#     Node 10, Type 0, BuildingBlock: XOMCOT_clean_sbu_1, # of connection points: 5
#     Node 11, Type 0, BuildingBlock: XOMCOT_clean_sbu_1, # of connection points: 5
#     Node 12, Type 0, BuildingBlock: XOMCOT_clean_sbu_1, # of connection points: 5
#     Node 13, Type 0, BuildingBlock: XOMCOT_clean_sbu_1, # of connection points: 5
#     Node 14, Type 0, BuildingBlock: XOMCOT_clean_sbu_1, # of connection points: 5
#     Node 15, Type 0, BuildingBlock: XOMCOT_clean_sbu_1, # of connection points: 5
#     Node 16, Type 0, BuildingBlock: XOMCOT_clean_sbu_1, # of connection points: 5
#     Node 17, Type 0, BuildingBlock: XOMCOT_clean_sbu_1, # of connection points: 5
#     Node 18, Type 0, BuildingBlock: XOMCOT_clean_sbu_1, # of connection points: 5
#     Node 19, Type 0, BuildingBlock: XOMCOT_clean_sbu_1, # of connection points: 5
#     Node 20, Type 0, BuildingBlock: XOMCOT_clean_sbu_1, # of connection points: 5
#     Node 21, Type 0, BuildingBlock: XOMCOT_clean_sbu_1, # of connection points: 5
#     Node 22, Type 0, BuildingBlock: XOMCOT_clean_sbu_1, # of connection points: 5
#     Node 23, Type 0, BuildingBlock: XOMCOT_clean_sbu_1, # of connection points: 5
#     Node 24, Type 0, BuildingBlock: XOMCOT_clean_sbu_1, # of connection points: 5
#     Node 25, Type 0, BuildingBlock: XOMCOT_clean_sbu_1, # of connection points: 5
#     Node 26, Type 0, BuildingBlock: XOMCOT_clean_sbu_1, # of connection points: 5
#     Node 27, Type 0, BuildingBlock: XOMCOT_clean_sbu_1, # of connection points: 5
#     Node 28, Type 0, BuildingBlock: XOMCOT_clean_sbu_1, # of connection points: 5
#     Node 29, Type 0, BuildingBlock: XOMCOT_clean_sbu_1, # of connection points: 5
#     Node 30, Type 0, BuildingBlock: XOMCOT_clean_sbu_1, # of connection points: 5
#     Node 31, Type 0, BuildingBlock: XOMCOT_clean_sbu_1, # of connection points: 5
#     Node 32, Type 0, BuildingBlock: XOMCOT_clean_sbu_1, # of connection points: 5
#     Node 33, Type 0, BuildingBlock: XOMCOT_clean_sbu_1, # of connection points: 5
#     Node 34, Type 0, BuildingBlock: XOMCOT_clean_sbu_1, # of connection points: 5
#     Node 35, Type 0, BuildingBlock: XOMCOT_clean_sbu_1, # of connection points: 5
#     Node 36, Type 0, BuildingBlock: XOMCOT_clean_sbu_1, # of connection points: 5
#     Node 37, Type 0, BuildingBlock: XOMCOT_clean_sbu_1, # of connection points: 5
#     Node 38, Type 0, BuildingBlock: XOMCOT_clean_sbu_1, # of connection points: 5
#     Node 39, Type 0, BuildingBlock: XOMCOT_clean_sbu_1, # of connection points: 5
#     Node 40, Type 0, BuildingBlock: XOMCOT_clean_sbu_1, # of connection points: 5
#     Node 41, Type 0, BuildingBlock: XOMCOT_clean_sbu_1, # of connection points: 5
#     Node 42, Type 0, BuildingBlock: XOMCOT_clean_sbu_1, # of connection points: 5
#     Node 43, Type 0, BuildingBlock: XOMCOT_clean_sbu_1, # of connection points: 5
#     Node 44, Type 0, BuildingBlock: XOMCOT_clean_sbu_1, # of connection points: 5
#     Node 45, Type 0, BuildingBlock: XOMCOT_clean_sbu_1, # of connection points: 5
#     Node 46, Type 0, BuildingBlock: XOMCOT_clean_sbu_1, # of connection points: 5
#     Node 47, Type 0, BuildingBlock: XOMCOT_clean_sbu_1, # of connection points: 5
#     Edge 48, Type (0, 0), BuildingBlock: EZIPEK_clean_linker_0, # of connection points: 2
#     Edge 49, Type (0, 0), BuildingBlock: EZIPEK_clean_linker_0, # of connection points: 2
#     Edge 50, Type (0, 0), BuildingBlock: EZIPEK_clean_linker_0, # of connection points: 2
#     Edge 51, Type (0, 0), BuildingBlock: EZIPEK_clean_linker_0, # of connection points: 2
#     Edge 52, Type (0, 0), BuildingBlock: EZIPEK_clean_linker_0, # of connection points: 2
#     Edge 53, Type (0, 0), BuildingBlock: EZIPEK_clean_linker_0, # of connection points: 2
#     Edge 54, Type (0, 0), BuildingBlock: EZIPEK_clean_linker_0, # of connection points: 2
#     Edge 55, Type (0, 0), BuildingBlock: EZIPEK_clean_linker_0, # of connection points: 2
#     Edge 56, Type (0, 0), BuildingBlock: EZIPEK_clean_linker_0, # of connection points: 2
#     Edge 57, Type (0, 0), BuildingBlock: EZIPEK_clean_linker_0, # of connection points: 2
#     Edge 58, Type (0, 0), BuildingBlock: EZIPEK_clean_linker_0, # of connection points: 2
#     Edge 59, Type (0, 0), BuildingBlock: EZIPEK_clean_linker_0, # of connection points: 2
#     Edge 60, Type (0, 0), BuildingBlock: EZIPEK_clean_linker_0, # of connection points: 2
#     Edge 61, Type (0, 0), BuildingBlock: EZIPEK_clean_linker_0, # of connection points: 2
#     Edge 62, Type (0, 0), BuildingBlock: EZIPEK_clean_linker_0, # of connection points: 2
#     Edge 63, Type (0, 0), BuildingBlock: EZIPEK_clean_linker_0, # of connection points: 2
#     Edge 64, Type (0, 0), BuildingBlock: EZIPEK_clean_linker_0, # of connection points: 2
#     Edge 65, Type (0, 0), BuildingBlock: EZIPEK_clean_linker_0, # of connection points: 2
#     Edge 66, Type (0, 0), BuildingBlock: EZIPEK_clean_linker_0, # of connection points: 2
#     Edge 67, Type (0, 0), BuildingBlock: EZIPEK_clean_linker_0, # of connection points: 2
#     Edge 68, Type (0, 0), BuildingBlock: EZIPEK_clean_linker_0, # of connection points: 2
#     Edge 69, Type (0, 0), BuildingBlock: EZIPEK_clean_linker_0, # of connection points: 2
#     Edge 70, Type (0, 0), BuildingBlock: EZIPEK_clean_linker_0, # of connection points: 2
#     Edge 71, Type (0, 0), BuildingBlock: EZIPEK_clean_linker_0, # of connection points: 2
#     Edge 72, Type (0, 0), BuildingBlock: EZIPEK_clean_linker_0, # of connection points: 2
#     Edge 73, Type (0, 0), BuildingBlock: EZIPEK_clean_linker_0, # of connection points: 2
#     Edge 74, Type (0, 0), BuildingBlock: EZIPEK_clean_linker_0, # of connection points: 2
#     Edge 75, Type (0, 0), BuildingBlock: EZIPEK_clean_linker_0, # of connection points: 2
#     Edge 76, Type (0, 0), BuildingBlock: EZIPEK_clean_linker_0, # of connection points: 2
#     Edge 77, Type (0, 0), BuildingBlock: EZIPEK_clean_linker_0, # of connection points: 2
#     Edge 78, Type (0, 0), BuildingBlock: EZIPEK_clean_linker_0, # of connection points: 2
#     Edge 79, Type (0, 0), BuildingBlock: EZIPEK_clean_linker_0, # of connection points: 2
#     Edge 80, Type (0, 0), BuildingBlock: EZIPEK_clean_linker_0, # of connection points: 2
#     Edge 81, Type (0, 0), BuildingBlock: EZIPEK_clean_linker_0, # of connection points: 2
#     Edge 82, Type (0, 0), BuildingBlock: EZIPEK_clean_linker_0, # of connection points: 2
#     Edge 83, Type (0, 0), BuildingBlock: EZIPEK_clean_linker_0, # of connection points: 2
#     Edge 84, Type (0, 0), BuildingBlock: EZIPEK_clean_linker_0, # of connection points: 2
#     Edge 85, Type (0, 0), BuildingBlock: EZIPEK_clean_linker_0, # of connection points: 2
#     Edge 86, Type (0, 0), BuildingBlock: EZIPEK_clean_linker_0, # of connection points: 2
#     Edge 87, Type (0, 0), BuildingBlock: EZIPEK_clean_linker_0, # of connection points: 2
#     Edge 88, Type (0, 0), BuildingBlock: EZIPEK_clean_linker_0, # of connection points: 2
#     Edge 89, Type (0, 0), BuildingBlock: EZIPEK_clean_linker_0, # of connection points: 2
#     Edge 90, Type (0, 0), BuildingBlock: EZIPEK_clean_linker_0, # of connection points: 2
#     Edge 91, Type (0, 0), BuildingBlock: EZIPEK_clean_linker_0, # of connection points: 2
#     Edge 92, Type (0, 0), BuildingBlock: EZIPEK_clean_linker_0, # of connection points: 2
#     Edge 93, Type (0, 0), BuildingBlock: EZIPEK_clean_linker_0, # of connection points: 2
#     Edge 94, Type (0, 0), BuildingBlock: EZIPEK_clean_linker_0, # of connection points: 2
#     Edge 95, Type (0, 0), BuildingBlock: EZIPEK_clean_linker_0, # of connection points: 2
#     Edge 96, Type (0, 0), BuildingBlock: EZIPEK_clean_linker_0, # of connection points: 2
#     Edge 97, Type (0, 0), BuildingBlock: EZIPEK_clean_linker_0, # of connection points: 2
#     Edge 98, Type (0, 0), BuildingBlock: EZIPEK_clean_linker_0, # of connection points: 2
#     Edge 99, Type (0, 0), BuildingBlock: EZIPEK_clean_linker_0, # of connection points: 2
#     Edge 100, Type (0, 0), BuildingBlock: EZIPEK_clean_linker_0, # of connection points: 2
#     Edge 101, Type (0, 0), BuildingBlock: EZIPEK_clean_linker_0, # of connection points: 2
#     Edge 102, Type (0, 0), BuildingBlock: EZIPEK_clean_linker_0, # of connection points: 2
#     Edge 103, Type (0, 0), BuildingBlock: EZIPEK_clean_linker_0, # of connection points: 2
#     Edge 104, Type (0, 0), BuildingBlock: EZIPEK_clean_linker_0, # of connection points: 2
#     Edge 105, Type (0, 0), BuildingBlock: EZIPEK_clean_linker_0, # of connection points: 2
#     Edge 106, Type (0, 0), BuildingBlock: EZIPEK_clean_linker_0, # of connection points: 2
#     Edge 107, Type (0, 0), BuildingBlock: EZIPEK_clean_linker_0, # of connection points: 2
#     Edge 108, Type (0, 0), BuildingBlock: EZIPEK_clean_linker_0, # of connection points: 2
#     Edge 109, Type (0, 0), BuildingBlock: EZIPEK_clean_linker_0, # of connection points: 2
#     Edge 110, Type (0, 0), BuildingBlock: EZIPEK_clean_linker_0, # of connection points: 2
#     Edge 111, Type (0, 0), BuildingBlock: EZIPEK_clean_linker_0, # of connection points: 2
#     Edge 112, Type (0, 0), BuildingBlock: EZIPEK_clean_linker_0, # of connection points: 2
#     Edge 113, Type (0, 0), BuildingBlock: EZIPEK_clean_linker_0, # of connection points: 2
#     Edge 114, Type (0, 0), BuildingBlock: EZIPEK_clean_linker_0, # of connection points: 2
#     Edge 115, Type (0, 0), BuildingBlock: EZIPEK_clean_linker_0, # of connection points: 2
#     Edge 116, Type (0, 0), BuildingBlock: EZIPEK_clean_linker_0, # of connection points: 2
#     Edge 117, Type (0, 0), BuildingBlock: EZIPEK_clean_linker_0, # of connection points: 2
#     Edge 118, Type (0, 0), BuildingBlock: EZIPEK_clean_linker_0, # of connection points: 2
#     Edge 119, Type (0, 0), BuildingBlock: EZIPEK_clean_linker_0, # of connection points: 2
#     Edge 120, Type (0, 0), BuildingBlock: EZIPEK_clean_linker_0, # of connection points: 2
#     Edge 121, Type (0, 0), BuildingBlock: EZIPEK_clean_linker_0, # of connection points: 2
#     Edge 122, Type (0, 0), BuildingBlock: EZIPEK_clean_linker_0, # of connection points: 2
#     Edge 123, Type (0, 0), BuildingBlock: EZIPEK_clean_linker_0, # of connection points: 2
#     Edge 124, Type (0, 0), BuildingBlock: EZIPEK_clean_linker_0, # of connection points: 2
#     Edge 125, Type (0, 0), BuildingBlock: EZIPEK_clean_linker_0, # of connection points: 2
#     Edge 126, Type (0, 0), BuildingBlock: EZIPEK_clean_linker_0, # of connection points: 2
#     Edge 127, Type (0, 0), BuildingBlock: EZIPEK_clean_linker_0, # of connection points: 2
#     Edge 128, Type (0, 0), BuildingBlock: EZIPEK_clean_linker_0, # of connection points: 2
#     Edge 129, Type (0, 0), BuildingBlock: EZIPEK_clean_linker_0, # of connection points: 2
#     Edge 130, Type (0, 0), BuildingBlock: EZIPEK_clean_linker_0, # of connection points: 2
#     Edge 131, Type (0, 0), BuildingBlock: EZIPEK_clean_linker_0, # of connection points: 2
#     Edge 132, Type (0, 0), BuildingBlock: EZIPEK_clean_linker_0, # of connection points: 2
#     Edge 133, Type (0, 0), BuildingBlock: EZIPEK_clean_linker_0, # of connection points: 2
#     Edge 134, Type (0, 0), BuildingBlock: EZIPEK_clean_linker_0, # of connection points: 2
#     Edge 135, Type (0, 0), BuildingBlock: EZIPEK_clean_linker_0, # of connection points: 2
#     Edge 136, Type (0, 0), BuildingBlock: EZIPEK_clean_linker_0, # of connection points: 2
#     Edge 137, Type (0, 0), BuildingBlock: EZIPEK_clean_linker_0, # of connection points: 2
#     Edge 138, Type (0, 0), BuildingBlock: EZIPEK_clean_linker_0, # of connection points: 2
#     Edge 139, Type (0, 0), BuildingBlock: EZIPEK_clean_linker_0, # of connection points: 2
#     Edge 140, Type (0, 0), BuildingBlock: EZIPEK_clean_linker_0, # of connection points: 2
#     Edge 141, Type (0, 0), BuildingBlock: EZIPEK_clean_linker_0, # of connection points: 2
#     Edge 142, Type (0, 0), BuildingBlock: EZIPEK_clean_linker_0, # of connection points: 2
#     Edge 143, Type (0, 0), BuildingBlock: EZIPEK_clean_linker_0, # of connection points: 2
#     Edge 144, Type (0, 0), BuildingBlock: EZIPEK_clean_linker_0, # of connection points: 2
#     Edge 145, Type (0, 0), BuildingBlock: EZIPEK_clean_linker_0, # of connection points: 2
#     Edge 146, Type (0, 0), BuildingBlock: EZIPEK_clean_linker_0, # of connection points: 2
#     Edge 147, Type (0, 0), BuildingBlock: EZIPEK_clean_linker_0, # of connection points: 2
#     Edge 148, Type (0, 0), BuildingBlock: EZIPEK_clean_linker_0, # of connection points: 2
#     Edge 149, Type (0, 0), BuildingBlock: EZIPEK_clean_linker_0, # of connection points: 2
#     Edge 150, Type (0, 0), BuildingBlock: EZIPEK_clean_linker_0, # of connection points: 2
#     Edge 151, Type (0, 0), BuildingBlock: EZIPEK_clean_linker_0, # of connection points: 2
#     Edge 152, Type (0, 0), BuildingBlock: EZIPEK_clean_linker_0, # of connection points: 2
#     Edge 153, Type (0, 0), BuildingBlock: EZIPEK_clean_linker_0, # of connection points: 2
#     Edge 154, Type (0, 0), BuildingBlock: EZIPEK_clean_linker_0, # of connection points: 2
#     Edge 155, Type (0, 0), BuildingBlock: EZIPEK_clean_linker_0, # of connection points: 2
#     Edge 156, Type (0, 0), BuildingBlock: EZIPEK_clean_linker_0, # of connection points: 2
#     Edge 157, Type (0, 0), BuildingBlock: EZIPEK_clean_linker_0, # of connection points: 2
#     Edge 158, Type (0, 0), BuildingBlock: EZIPEK_clean_linker_0, # of connection points: 2
#     Edge 159, Type (0, 0), BuildingBlock: EZIPEK_clean_linker_0, # of connection points: 2
#     Edge 160, Type (0, 0), BuildingBlock: EZIPEK_clean_linker_0, # of connection points: 2
#     Edge 161, Type (0, 0), BuildingBlock: EZIPEK_clean_linker_0, # of connection points: 2
#     Edge 162, Type (0, 0), BuildingBlock: EZIPEK_clean_linker_0, # of connection points: 2
#     Edge 163, Type (0, 0), BuildingBlock: EZIPEK_clean_linker_0, # of connection points: 2
#     Edge 164, Type (0, 0), BuildingBlock: EZIPEK_clean_linker_0, # of connection points: 2
#     Edge 165, Type (0, 0), BuildingBlock: EZIPEK_clean_linker_0, # of connection points: 2
#     Edge 166, Type (0, 0), BuildingBlock: EZIPEK_clean_linker_0, # of connection points: 2
#     Edge 167, Type (0, 0), BuildingBlock: EZIPEK_clean_linker_0, # of connection points: 2
# Relax obj value: 0.361
# Max RMSD: 0.246
# Mean RMSD: 0.246
data_MOF--net-fcg--node1-XOMCOT_clean_sbu_1--edge1-EZIPEK_clean_linker_0
_symmetry_space_group_name_H-M    P1
_symmetry_Int_Tables_number       1
_symmetry_cell_setting            triclinic
loop_
_symmetry_equiv_pos_as_xyz
'x, y, z'
_cell_length_a     50.926743
_cell_length_b     50.945467
_cell_length_c     50.959533
_cell_angle_alpha  90.025335
_cell_angle_beta   90.03322
_cell_angle_gamma 90.022297
loop_
_atom_site_label
_atom_site_type_symbol
_atom_site_fract_x
_atom_site_fract_y
_atom_site_fract_z
_atom_type_partial_charge
C0 C 0.15175 0.29337 0.13346 0.0
C1 C 0.17399 0.27992 0.12588 0.0
N2 N 0.16637 0.25653 0.11629 0.0
N3 N 0.13047 0.27818 0.12889 0.0
C4 C 0.14011 0.256 0.11819 0.0
H5 H 0.1512 0.31293 0.14164 0.0
Co6 Co 0.09508 0.28526 0.13345 0.0
C7 C 0.07363 0.23857 0.16224 0.0
O8 O 0.05513 0.25323 0.17248 0.0
N9 N 0.0586 0.29269 0.13708 0.0
C10 C 0.01997 0.30794 0.14995 0.0
C11 C 0.04601 0.30595 0.15618 0.0
C12 C 0.03928 0.28652 0.11978 0.0
N13 N 0.01563 0.29709 0.12611 0.0
O14 O 0.09011 0.27415 0.09808 0.0
H15 H 0.05464 0.31301 0.17418 0.0
H16 H 0.04266 0.27351 0.10358 0.0
O17 O 0.09005 0.24926 0.1465 0.0
C18 C 0.09093 0.29312 0.08184 0.0
O19 O 0.08679 0.31705 0.09056 0.0
N20 N 0.10272 0.29818 0.16722 0.0
C21 C 0.13246 0.32264 0.20684 0.0
C22 C 0.12644 0.29557 0.20781 0.0
C23 C 0.1127 0.28358 0.18731 0.0
C24 C 0.10437 0.32483 0.16816 0.0
C25 C 0.11802 0.33742 0.18835 0.0
H26 H 0.11207 0.26246 0.18694 0.0
H27 H 0.09621 0.33637 0.1523 0.0
H28 H 0.12814 0.23984 0.11153 0.0
H29 H 0.19412 0.28648 0.12769 0.0
H30 H 0.00523 0.31639 0.16267 0.0
H31 H 0.13289 0.28307 0.22363 0.0
H32 H 0.11753 0.35858 0.18856 0.0
C33 C 0.71059 0.15113 0.12308 0.0
C34 C 0.72511 0.17199 0.1133 0.0
N35 N 0.75037 0.16433 0.11186 0.0
N36 N 0.7269 0.13077 0.12786 0.0
C37 C 0.75087 0.13961 0.12085 0.0
H38 H 0.68955 0.15066 0.12594 0.0
Co39 Co 0.72172 0.09586 0.13762 0.0
C40 C 0.75706 0.09053 0.18405 0.0
O41 O 0.7385 0.07768 0.1964 0.0
N42 N 0.71795 0.05951 0.14729 0.0
C43 C 0.70575 0.02095 0.16447 0.0
C44 C 0.70372 0.04776 0.16653 0.0
C45 C 0.72923 0.03897 0.13467 0.0
N46 N 0.72133 0.0156 0.14394 0.0
O47 O 0.7418 0.08681 0.10712 0.0
H48 H 0.6922 0.05766 0.18127 0.0
H49 H 0.74205 0.04065 0.1179 0.0
O50 O 0.75335 0.09818 0.16036 0.0
C51 C 0.72728 0.08072 0.08755 0.0
O52 O 0.70656 0.06591 0.09178 0.0
N53 N 0.69883 0.10655 0.16446 0.0
C54 C 0.66054 0.12127 0.20039 0.0
C55 C 0.68623 0.13071 0.20273 0.0
C56 C 0.705 0.12345 0.18428 0.0
C57 C 0.6733 0.09933 0.16048 0.0
C58 C 0.6539 0.10568 0.17878 0.0
H59 H 0.72428 0.13159 0.18592 0.0
H60 H 0.66824 0.08756 0.14353 0.0
H61 H 0.76857 0.12789 0.12183 0.0
H62 H 0.71776 0.19107 0.10754 0.0
H63 H 0.69501 0.00653 0.17578 0.0
H64 H 0.69174 0.14348 0.21884 0.0
H65 H 0.63406 0.0985 0.17618 0.0
C66 C 0.84745 0.71149 0.12247 0.0
C67 C 0.82447 0.72415 0.11564 0.0
N68 N 0.82959 0.75003 0.11447 0.0
N69 N 0.86658 0.72954 0.12573 0.0
C70 C 0.85508 0.7528 0.12062 0.0
H71 H 0.8502 0.69052 0.1244 0.0
Co72 Co 0.90211 0.72472 0.13219 0.0
C73 C 0.9179 0.77445 0.15937 0.0
O74 O 0.94016 0.7771 0.14669 0.0
N75 N 0.93892 0.72052 0.13799 0.0
C76 C 0.97907 0.7152 0.15507 0.0
C77 C 0.95244 0.71335 0.15976 0.0
C78 C 0.95804 0.72661 0.12048 0.0
N79 N 0.9823 0.72359 0.13033 0.0
O80 O 0.90899 0.74395 0.10082 0.0
H81 H 0.94378 0.70735 0.17813 0.0
H82 H 0.95476 0.73369 0.10083 0.0
O83 O 0.90232 0.75571 0.15391 0.0
C84 C 0.9068 0.7276 0.08204 0.0
O85 O 0.90223 0.7029 0.08801 0.0
N86 N 0.89359 0.70439 0.16189 0.0
C87 C 0.87603 0.67247 0.20265 0.0
C88 C 0.86764 0.69849 0.20074 0.0
C89 C 0.87647 0.71406 0.18017 0.0
C90 C 0.90133 0.67876 0.16293 0.0
C91 C 0.89324 0.66253 0.18361 0.0
H92 H 0.86878 0.73374 0.17857 0.0
H93 H 0.91379 0.67089 0.14764 0.0
H94 H 0.86535 0.77141 0.12062 0.0
H95 H 0.80572 0.71514 0.11128 0.0
H96 H 0.99479 0.71086 0.1687 0.0
H97 H 0.85403 0.70663 0.21491 0.0
H98 H 0.89984 0.64234 0.18444 0.0
C99 C 0.29286 0.85549 0.13102 0.0
C100 C 0.28058 0.83176 0.12666 0.0
N101 N 0.25531 0.8367 0.12077 0.0
N102 N 0.27508 0.87498 0.12841 0.0
C103 C 0.25257 0.86286 0.12167 0.0
H104 H 0.31322 0.85833 0.1364 0.0
Co105 Co 0.27942 0.9109 0.13259 0.0
C106 C 0.23724 0.92501 0.1713 0.0
O107 O 0.25438 0.93949 0.18386 0.0
N108 N 0.28399 0.94805 0.13595 0.0
C109 C 0.29339 0.98851 0.15005 0.0
C110 C 0.29363 0.96236 0.15625 0.0
C111 C 0.27885 0.96639 0.11731 0.0
N112 N 0.28423 0.99095 0.1255 0.0
O113 O 0.26344 0.91548 0.09873 0.0
H114 H 0.30036 0.95466 0.1748 0.0
H115 H 0.27178 0.96213 0.09779 0.0
O116 O 0.24469 0.91277 0.15058 0.0
C117 C 0.28062 0.91061 0.08118 0.0
O118 O 0.30483 0.90606 0.08889 0.0
N119 N 0.29718 0.90448 0.1643 0.0
C120 C 0.32862 0.88852 0.20599 0.0
C121 C 0.3019 0.88216 0.20545 0.0
C122 C 0.28655 0.89001 0.18423 0.0
C123 C 0.3234 0.9101 0.16418 0.0
C124 C 0.3394 0.90293 0.18525 0.0
H125 H 0.26652 0.88314 0.18319 0.0
H126 H 0.33194 0.91999 0.14745 0.0
H127 H 0.23443 0.87294 0.1176 0.0
H128 H 0.2892 0.81242 0.12844 0.0
H129 H 0.30037 0.0045 0.16221 0.0
H130 H 0.29322 0.8704 0.22089 0.0
H131 H 0.36013 0.9077 0.18494 0.0
C132 C 0.16374 0.70656 0.8713 0.0
C133 C 0.18479 0.72117 0.88032 0.0
N134 N 0.1754 0.74418 0.88923 0.0
N135 N 0.14147 0.72064 0.87438 0.0
C136 C 0.14932 0.74337 0.88544 0.0
H137 H 0.16456 0.68682 0.86355 0.0
Co138 Co 0.10655 0.71139 0.86927 0.0
C139 C 0.08442 0.75303 0.83507 0.0
O140 O 0.07069 0.73449 0.82351 0.0
N141 N 0.07058 0.70248 0.86554 0.0
C142 C 0.03152 0.68309 0.86109 0.0
C143 C 0.05792 0.68126 0.85565 0.0
C144 C 0.05121 0.71687 0.87676 0.0
N145 N 0.02752 0.70547 0.87437 0.0
O146 O 0.09995 0.72267 0.90441 0.0
H147 H 0.06686 0.66481 0.84588 0.0
H148 H 0.05449 0.73505 0.88726 0.0
O149 O 0.09938 0.74662 0.85433 0.0
C150 C 0.0989 0.70319 0.92007 0.0
O151 O 0.09592 0.67952 0.91024 0.0
N152 N 0.11539 0.69801 0.836 0.0
C153 C 0.13709 0.6732 0.7923 0.0
C154 C 0.13789 0.70058 0.79464 0.0
C155 C 0.12712 0.71262 0.81677 0.0
C156 C 0.11604 0.67129 0.83468 0.0
C157 C 0.1258 0.65848 0.81255 0.0
H158 H 0.1299 0.73348 0.81908 0.0
H159 H 0.10997 0.65978 0.85143 0.0
H160 H 0.13607 0.75883 0.89142 0.0
H161 H 0.20524 0.71539 0.88048 0.0
H162 H 0.01652 0.66876 0.85644 0.0
H163 H 0.14743 0.71247 0.77982 0.0
H164 H 0.12569 0.63723 0.81179 0.0
C165 C 0.29744 0.15338 0.88332 0.0
C166 C 0.28452 0.17561 0.89208 0.0
N167 N 0.25892 0.16959 0.8945 0.0
N168 N 0.27979 0.13384 0.87999 0.0
C169 C 0.25664 0.14436 0.88726 0.0
H170 H 0.31824 0.15166 0.87946 0.0
Co171 Co 0.28399 0.09893 0.86988 0.0
C172 C 0.24746 0.09308 0.82497 0.0
O173 O 0.266 0.0805 0.81226 0.0
N174 N 0.28758 0.06253 0.86037 0.0
C175 C 0.30098 0.02367 0.84477 0.0
C176 C 0.3031 0.05048 0.84235 0.0
C177 C 0.27545 0.04217 0.87259 0.0
N178 N 0.28373 0.01864 0.86396 0.0
O179 O 0.26412 0.08988 0.9001 0.0
H180 H 0.31552 0.0601 0.82821 0.0
H181 H 0.26158 0.04414 0.88848 0.0
O182 O 0.2517 0.10101 0.84844 0.0
C183 C 0.27781 0.08437 0.92027 0.0
O184 O 0.29844 0.06914 0.9174 0.0
N185 N 0.30564 0.11006 0.8421 0.0
C186 C 0.34165 0.13061 0.80653 0.0
C187 C 0.31525 0.13809 0.80555 0.0
C188 C 0.29763 0.12791 0.82375 0.0
C189 C 0.3317 0.10424 0.84459 0.0
C190 C 0.34998 0.11354 0.82637 0.0
H191 H 0.27782 0.13521 0.82361 0.0
H192 H 0.33821 0.09193 0.86062 0.0
H193 H 0.23818 0.13381 0.88688 0.0
H194 H 0.29303 0.19474 0.89572 0.0
H195 H 0.3121 0.00902 0.83414 0.0
H196 H 0.30839 0.15193 0.79094 0.0
H197 H 0.37041 0.10783 0.82796 0.0
C198 C 0.84834 0.28107 0.8675 0.0
C199 C 0.82632 0.26753 0.87593 0.0
N200 N 0.83406 0.24358 0.88396 0.0
N201 N 0.86968 0.2656 0.87041 0.0
C202 C 0.86018 0.24291 0.88035 0.0
H203 H 0.84886 0.30111 0.86053 0.0
Co204 Co 0.90566 0.27173 0.86546 0.0
C205 C 0.92412 0.22118 0.84142 0.0
O206 O 0.94597 0.21854 0.85482 0.0
N207 N 0.9425 0.27626 0.86062 0.0
C208 C 0.98244 0.27898 0.84256 0.0
C209 C 0.9558 0.2802 0.83791 0.0
C210 C 0.96172 0.27209 0.87855 0.0
N211 N 0.9859 0.27382 0.86815 0.0
O212 O 0.91098 0.25632 0.89903 0.0
H213 H 0.94687 0.28263 0.81882 0.0
H214 H 0.95852 0.26701 0.89884 0.0
O215 O 0.90804 0.23954 0.84657 0.0
C216 C 0.91076 0.27526 0.91548 0.0
O217 O 0.91679 0.29891 0.90706 0.0
N218 N 0.89842 0.28923 0.834 0.0
C219 C 0.88125 0.32007 0.79238 0.0
C220 C 0.87506 0.29331 0.79337 0.0
C221 C 0.88393 0.27814 0.81431 0.0
C222 C 0.90472 0.31524 0.8333 0.0
C223 C 0.89687 0.33095 0.81226 0.0
H224 H 0.87774 0.25789 0.8154 0.0
H225 H 0.91544 0.32391 0.84946 0.0
H226 H 0.87236 0.22642 0.88588 0.0
H227 H 0.80641 0.27489 0.87683 0.0
H228 H 0.99801 0.28102 0.82826 0.0
H229 H 0.8628 0.2844 0.77844 0.0
H230 H 0.90191 0.3516 0.81206 0.0
C231 C 0.72152 0.8492 0.86147 0.0
C232 C 0.73817 0.82863 0.86735 0.0
N233 N 0.76163 0.83875 0.87422 0.0
N234 N 0.73463 0.87203 0.86447 0.0
C235 C 0.75904 0.86493 0.87202 0.0
H236 H 0.7009 0.84767 0.85662 0.0
Co237 Co 0.72223 0.90656 0.86372 0.0
C238 C 0.76161 0.93573 0.83029 0.0
O239 O 0.74998 0.95863 0.83139 0.0
N240 N 0.71026 0.94225 0.8639 0.0
C241 C 0.69324 0.98171 0.85467 0.0
C242 C 0.69537 0.95594 0.84657 0.0
C243 C 0.71688 0.9605 0.88223 0.0
N244 N 0.7069 0.98437 0.87704 0.0
O245 O 0.73799 0.91161 0.8975 0.0
H246 H 0.68737 0.94832 0.8285 0.0
H247 H 0.72933 0.95692 0.89901 0.0
O248 O 0.75387 0.91654 0.84451 0.0
C249 C 0.72129 0.90254 0.9138 0.0
O250 O 0.69887 0.89358 0.90466 0.0
N251 N 0.70488 0.89906 0.83186 0.0
C252 C 0.67758 0.87817 0.78924 0.0
C253 C 0.70498 0.87886 0.78932 0.0
C254 C 0.71827 0.88899 0.81092 0.0
C255 C 0.67807 0.8979 0.83241 0.0
C256 C 0.66392 0.88787 0.81102 0.0
H257 H 0.7393 0.88676 0.81149 0.0
H258 H 0.66768 0.90417 0.84982 0.0
H259 H 0.77429 0.87879 0.87724 0.0
H260 H 0.733 0.80804 0.86826 0.0
H261 H 0.68282 0.99736 0.84476 0.0
H262 H 0.71603 0.87028 0.77333 0.0
H263 H 0.6427 0.88686 0.81182 0.0
C264 C 0.12948 0.15715 0.27618 0.0
C265 C 0.12006 0.1778 0.26138 0.0
N266 N 0.11678 0.16926 0.23657 0.0
N267 N 0.1324 0.13597 0.26055 0.0
C268 C 0.12461 0.14404 0.23657 0.0
H269 H 0.13302 0.15727 0.29711 0.0
Co270 Co 0.14061 0.10144 0.26939 0.0
C271 C 0.17147 0.08111 0.2228 0.0
O272 O 0.16175 0.0573 0.22406 0.0
N273 N 0.14826 0.06576 0.2778 0.0
C274 C 0.16881 0.02764 0.2846 0.0
C275 C 0.17148 0.05451 0.28419 0.0
C276 C 0.13168 0.04504 0.27531 0.0
N277 N 0.14368 0.02178 0.27906 0.0
O278 O 0.10928 0.09083 0.25104 0.0
H279 H 0.18945 0.06491 0.28824 0.0
H280 H 0.1113 0.04652 0.2699 0.0
O281 O 0.16322 0.09896 0.23835 0.0
C282 C 0.09055 0.0944 0.26733 0.0
O283 O 0.09672 0.10082 0.29156 0.0
N284 N 0.16958 0.11362 0.28899 0.0
C285 C 0.20979 0.13529 0.31904 0.0
C286 C 0.20753 0.14129 0.29241 0.0
C287 C 0.18706 0.13065 0.27784 0.0
C288 C 0.17087 0.10831 0.31523 0.0
C289 C 0.19114 0.11877 0.33068 0.0
H290 H 0.1851 0.13648 0.25755 0.0
H291 H 0.15609 0.09597 0.32419 0.0
H292 H 0.12371 0.13135 0.21956 0.0
H293 H 0.11472 0.1971 0.26847 0.0
H294 H 0.18404 0.01346 0.28892 0.0
H295 H 0.22133 0.15449 0.28301 0.0
H296 H 0.19212 0.11426 0.35142 0.0
C297 C 0.85393 0.13258 0.29656 0.0
C298 C 0.82999 0.12546 0.2859 0.0
N299 N 0.83397 0.1195 0.2605 0.0
N300 N 0.87249 0.13151 0.27766 0.0
C301 C 0.85964 0.12331 0.25604 0.0
H302 H 0.85761 0.13792 0.31678 0.0
Co303 Co 0.90873 0.13599 0.27977 0.0
C304 C 0.92152 0.17415 0.23795 0.0
O305 O 0.93765 0.18536 0.25464 0.0
N306 N 0.94623 0.13929 0.28144 0.0
C307 C 0.98801 0.14962 0.29037 0.0
C308 C 0.96216 0.15582 0.29502 0.0
C309 C 0.96334 0.12351 0.26841 0.0
N310 N 0.98858 0.12931 0.27366 0.0
O311 O 0.91226 0.1024 0.26371 0.0
H312 H 0.95593 0.17186 0.30729 0.0
H313 H 0.95777 0.10756 0.2556 0.0
O314 O 0.90862 0.15391 0.24547 0.0
C315 C 0.90933 0.08494 0.28129 0.0
O316 O 0.90751 0.09284 0.3058 0.0
N317 N 0.90313 0.16773 0.29788 0.0
C318 C 0.88525 0.2079 0.33056 0.0
C319 C 0.87823 0.20726 0.30398 0.0
C320 C 0.88733 0.18704 0.28797 0.0
C321 C 0.9093 0.16755 0.32394 0.0
C322 C 0.90162 0.18811 0.34039 0.0
H323 H 0.87992 0.18592 0.26815 0.0
H324 H 0.91989 0.15107 0.33212 0.0
H325 H 0.86898 0.11956 0.23744 0.0
H326 H 0.81126 0.12466 0.29588 0.0
H327 H 0.0051 0.15888 0.299 0.0
H328 H 0.86502 0.22182 0.29586 0.0
H329 H 0.90713 0.18778 0.36092 0.0
C330 C 0.88616 0.85364 0.28875 0.0
C331 C 0.89608 0.83294 0.27445 0.0
N332 N 0.88764 0.83534 0.2495 0.0
N333 N 0.87189 0.86912 0.27273 0.0
C334 C 0.87268 0.85712 0.24911 0.0
H335 H 0.89113 0.85845 0.30881 0.0
Co336 Co 0.8642 0.90414 0.27896 0.0
C337 C 0.8406 0.92098 0.22723 0.0
O338 O 0.85446 0.94252 0.22435 0.0
N339 N 0.85719 0.94057 0.28468 0.0
C340 C 0.83977 0.97994 0.29368 0.0
C341 C 0.8356 0.95316 0.29389 0.0
C342 C 0.87388 0.96043 0.27871 0.0
N343 N 0.86391 0.98415 0.2841 0.0
O344 O 0.89685 0.91245 0.26246 0.0
H345 H 0.81764 0.94379 0.30013 0.0
H346 H 0.89307 0.95821 0.27011 0.0
O347 O 0.84436 0.90602 0.24683 0.0
C348 C 0.91408 0.91339 0.28064 0.0
O349 O 0.90589 0.91001 0.30487 0.0
N350 N 0.83364 0.89403 0.29689 0.0
C351 C 0.79082 0.87621 0.32569 0.0
C352 C 0.79315 0.87009 0.29907 0.0
C353 C 0.81488 0.87889 0.28507 0.0
C354 C 0.83226 0.89921 0.32313 0.0
C355 C 0.81059 0.89098 0.33787 0.0
H356 H 0.81677 0.87293 0.26483 0.0
H357 H 0.84793 0.91004 0.33255 0.0
H358 H 0.86486 0.86547 0.23123 0.0
H359 H 0.90976 0.81823 0.28137 0.0
H360 H 0.82625 0.99507 0.3 0.0
H361 H 0.77844 0.85824 0.28927 0.0
H362 H 0.80946 0.89566 0.35857 0.0
C363 C 0.15354 0.86824 0.28591 0.0
C364 C 0.17606 0.8757 0.27257 0.0
N365 N 0.16891 0.88348 0.24836 0.0
N366 N 0.13262 0.87154 0.26995 0.0
C367 C 0.14277 0.88071 0.24731 0.0
H368 H 0.15239 0.86177 0.30609 0.0
Co369 Co 0.09654 0.8688 0.27486 0.0
C370 C 0.07864 0.84872 0.22211 0.0
O371 O 0.05793 0.86383 0.21951 0.0
N372 N 0.05955 0.86619 0.27837 0.0
C373 C 0.0187 0.85021 0.27949 0.0
C374 C 0.04499 0.84397 0.27999 0.0
C375 C 0.04145 0.88558 0.27646 0.0
N376 N 0.01672 0.87636 0.27718 0.0
O377 O 0.09388 0.90342 0.26051 0.0
H378 H 0.05284 0.82426 0.28047 0.0
H379 H 0.0459 0.90614 0.27391 0.0
O380 O 0.09396 0.85129 0.24162 0.0
C381 C 0.09557 0.91924 0.27993 0.0
O382 O 0.08987 0.91021 0.30342 0.0
N383 N 0.1011 0.83629 0.29133 0.0
C384 C 0.11197 0.79157 0.32052 0.0
C385 C 0.11839 0.79262 0.29386 0.0
C386 C 0.11296 0.81529 0.27957 0.0
C387 C 0.0946 0.83551 0.31728 0.0
C388 C 0.09954 0.81309 0.33224 0.0
H389 H 0.11939 0.81625 0.2594 0.0
H390 H 0.08594 0.85259 0.32645 0.0
H391 H 0.13104 0.8865 0.23059 0.0
H392 H 0.19589 0.87614 0.28022 0.0
H393 H 0.00233 0.83666 0.28017 0.0
H394 H 0.1284 0.77639 0.28444 0.0
H395 H 0.09465 0.81286 0.35292 0.0
C396 C 0.12847 0.84064 0.71857 0.0
C397 C 0.12136 0.81846 0.73245 0.0
N398 N 0.11555 0.82588 0.75709 0.0
N399 N 0.12726 0.86172 0.73461 0.0
C400 C 0.11932 0.852 0.75792 0.0
H401 H 0.13333 0.84147 0.69793 0.0
Co402 Co 0.1307 0.89721 0.72609 0.0
C403 C 0.166 0.91929 0.76678 0.0
O404 O 0.17574 0.93466 0.74854 0.0
N405 N 0.13304 0.93369 0.71774 0.0
C406 C 0.14087 0.97338 0.70074 0.0
C407 C 0.14652 0.94705 0.69905 0.0
C408 C 0.11949 0.95274 0.73054 0.0
N409 N 0.1239 0.97679 0.72053 0.0
O410 O 0.096 0.90284 0.73933 0.0
H411 H 0.15982 0.93884 0.68488 0.0
H412 H 0.10642 0.9492 0.74688 0.0
O413 O 0.14708 0.90385 0.76052 0.0
C414 C 0.07994 0.89605 0.72138 0.0
O415 O 0.08959 0.88836 0.69872 0.0
N416 N 0.16342 0.88969 0.71084 0.0
C417 C 0.20715 0.87201 0.68329 0.0
C418 C 0.20639 0.87036 0.71069 0.0
C419 C 0.18415 0.87896 0.72412 0.0
C420 C 0.16328 0.88975 0.68408 0.0
C421 C 0.18536 0.88202 0.6699 0.0
H422 H 0.18315 0.87551 0.74496 0.0
H423 H 0.14576 0.8958 0.67369 0.0
H424 H 0.11518 0.86395 0.77491 0.0
H425 H 0.11989 0.79863 0.72494 0.0
H426 H 0.14825 0.98881 0.68813 0.0
H427 H 0.22253 0.86168 0.7215 0.0
H428 H 0.18503 0.88278 0.64866 0.0
C429 C 0.14849 0.13073 0.71405 0.0
C430 C 0.17194 0.12428 0.726 0.0
N431 N 0.16682 0.11877 0.75129 0.0
N432 N 0.129 0.12963 0.73199 0.0
C433 C 0.14086 0.12213 0.75442 0.0
H434 H 0.14577 0.13549 0.69355 0.0
Co435 Co 0.09306 0.13336 0.72688 0.0
C436 C 0.07491 0.17033 0.76828 0.0
O437 O 0.05761 0.17942 0.75149 0.0
N438 N 0.05606 0.13597 0.72174 0.0
C439 C 0.01526 0.14508 0.70834 0.0
C440 C 0.04146 0.15078 0.7051 0.0
C441 C 0.03793 0.12157 0.73492 0.0
N442 N 0.01324 0.12675 0.72707 0.0
O443 O 0.08847 0.0995 0.74281 0.0
H444 H 0.04879 0.16515 0.69147 0.0
H445 H 0.04247 0.10721 0.74983 0.0
O446 O 0.08987 0.15139 0.76104 0.0
C447 C 0.09288 0.08149 0.72606 0.0
O448 O 0.09758 0.08843 0.70167 0.0
N449 N 0.09961 0.16538 0.70941 0.0
C450 C 0.11746 0.20738 0.67925 0.0
C451 C 0.12023 0.2077 0.70653 0.0
C452 C 0.11166 0.18629 0.72123 0.0
C453 C 0.09767 0.16443 0.6827 0.0
C454 C 0.10583 0.18557 0.66723 0.0
H455 H 0.11647 0.18598 0.74181 0.0
H456 H 0.09014 0.1469 0.67335 0.0
H457 H 0.13063 0.11846 0.77257 0.0
H458 H 0.19114 0.12354 0.71694 0.0
H459 H 0.99899 0.15322 0.69735 0.0
H460 H 0.13008 0.22386 0.71625 0.0
H461 H 0.10411 0.18447 0.64607 0.0
C462 C 0.87846 0.15501 0.70878 0.0
C463 C 0.88975 0.17675 0.7208 0.0
N464 N 0.89137 0.1717 0.7467 0.0
N465 N 0.87272 0.13696 0.72733 0.0
C466 C 0.88079 0.14787 0.74997 0.0
H467 H 0.8751 0.15238 0.68799 0.0
Co468 Co 0.86084 0.10234 0.72687 0.0
C469 C 0.83895 0.09941 0.78084 0.0
O470 O 0.85297 0.0783 0.78555 0.0
N471 N 0.84959 0.06754 0.72765 0.0
C472 C 0.82722 0.03087 0.73566 0.0
C473 C 0.82578 0.05786 0.73431 0.0
C474 C 0.86494 0.04623 0.7246 0.0
N475 N 0.85196 0.02387 0.72972 0.0
O476 O 0.89158 0.09305 0.74681 0.0
H477 H 0.80869 0.06971 0.73863 0.0
H478 H 0.88537 0.0469 0.71909 0.0
O479 O 0.84016 0.10949 0.75803 0.0
C480 C 0.9111 0.09198 0.73124 0.0
O481 O 0.9064 0.09404 0.70594 0.0
N482 N 0.83204 0.11164 0.70574 0.0
C483 C 0.7898 0.12424 0.6735 0.0
C484 C 0.79504 0.13906 0.69599 0.0
C485 C 0.81636 0.13249 0.71182 0.0
C486 C 0.82773 0.09756 0.68334 0.0
C487 C 0.80635 0.10328 0.66707 0.0
H488 H 0.82058 0.1445 0.72866 0.0
H489 H 0.84079 0.08164 0.67816 0.0
H490 H 0.87935 0.13828 0.76885 0.0
H491 H 0.89637 0.19459 0.71137 0.0
H492 H 0.81151 0.01745 0.74066 0.0
H493 H 0.78276 0.15562 0.70121 0.0
H494 H 0.80287 0.09167 0.64961 0.0
C495 C 0.83546 0.87903 0.70577 0.0
C496 C 0.81387 0.88672 0.72014 0.0
N497 N 0.82103 0.89124 0.74546 0.0
N498 N 0.8567 0.87996 0.72131 0.0
C499 C 0.84746 0.88858 0.74464 0.0
H500 H 0.83582 0.87416 0.68511 0.0
Co501 Co 0.89232 0.87288 0.71538 0.0
C502 C 0.89605 0.85124 0.77065 0.0
O503 O 0.9026 0.87307 0.7827 0.0
N504 N 0.92864 0.8657 0.7115 0.0
C505 C 0.96666 0.84384 0.71144 0.0
C506 C 0.93976 0.8416 0.70994 0.0
C507 C 0.94937 0.88215 0.71449 0.0
N508 N 0.9725 0.86937 0.71429 0.0
O509 O 0.89968 0.90458 0.73375 0.0
H510 H 0.92902 0.8233 0.70912 0.0
H511 H 0.94791 0.90299 0.71802 0.0
O512 O 0.89261 0.85089 0.74601 0.0
C513 C 0.90011 0.92302 0.71676 0.0
O514 O 0.90629 0.9171 0.69241 0.0
N515 N 0.88358 0.84337 0.6949 0.0
C516 C 0.86912 0.80174 0.6626 0.0
C517 C 0.86018 0.80307 0.68846 0.0
C518 C 0.86763 0.82399 0.70425 0.0
C519 C 0.89208 0.84273 0.66949 0.0
C520 C 0.88546 0.82171 0.65303 0.0
H521 H 0.85987 0.82486 0.72376 0.0
H522 H 0.90416 0.85854 0.66206 0.0
H523 H 0.8604 0.89384 0.76051 0.0
H524 H 0.79486 0.89005 0.71147 0.0
H525 H 0.98077 0.82796 0.71151 0.0
H526 H 0.84734 0.78805 0.69634 0.0
H527 H 0.89263 0.8212 0.63303 0.0
C528 C 0.29936 0.1222 0.1438 0.0
C529 C 0.28685 0.11005 0.16459 0.0
N530 N 0.2608 0.1101 0.15976 0.0
N531 N 0.28116 0.12963 0.12607 0.0
C532 C 0.25807 0.12169 0.13628 0.0
H533 H 0.32032 0.12457 0.1413 0.0
Co534 Co 0.28466 0.14129 0.09187 0.0
C535 C 0.2441 0.18276 0.08769 0.0
O536 O 0.26151 0.19766 0.07598 0.0
N537 N 0.28721 0.15228 0.05591 0.0
C538 C 0.29629 0.17133 0.01736 0.0
C539 C 0.29887 0.1732 0.0442 0.0
C540 C 0.27723 0.13856 0.03541 0.0
N541 N 0.28323 0.14906 0.01205 0.0
O542 O 0.26889 0.10876 0.08199 0.0
H543 H 0.30878 0.18905 0.05417 0.0
H544 H 0.26636 0.12046 0.03703 0.0
O545 O 0.25021 0.1593 0.09439 0.0
C546 C 0.28591 0.09165 0.07521 0.0
O547 O 0.30785 0.09969 0.06426 0.0
N548 N 0.30311 0.17096 0.10399 0.0
C549 C 0.33537 0.20936 0.12574 0.0
C550 C 0.30921 0.20702 0.13367 0.0
C551 C 0.29356 0.18733 0.12296 0.0
C552 C 0.32905 0.17198 0.0973 0.0
C553 C 0.34544 0.19157 0.10739 0.0
H554 H 0.27407 0.18475 0.13063 0.0
H555 H 0.33702 0.15751 0.08395 0.0
H556 H 0.23948 0.12322 0.1261 0.0
H557 H 0.2961 0.10172 0.18181 0.0
H558 H 0.30477 0.18433 0.00286 0.0
H559 H 0.30115 0.21998 0.14848 0.0
H560 H 0.36581 0.19252 0.10138 0.0
C561 C 0.28634 0.86415 0.84298 0.0
C562 C 0.27176 0.87301 0.82183 0.0
N563 N 0.24769 0.8794 0.83068 0.0
N564 N 0.27123 0.86474 0.86474 0.0
C565 C 0.24783 0.87391 0.85646 0.0
H566 H 0.30694 0.85897 0.84277 0.0
Co567 Co 0.28066 0.86172 0.89994 0.0
C568 C 0.24124 0.8264 0.92347 0.0
O569 O 0.26038 0.81646 0.93759 0.0
N570 N 0.2897 0.86029 0.93642 0.0
C571 C 0.30695 0.85452 0.97641 0.0
C572 C 0.30835 0.84735 0.95039 0.0
C573 C 0.27716 0.87492 0.95487 0.0
N574 N 0.28734 0.87186 0.97904 0.0
O575 O 0.26692 0.89648 0.90513 0.0
H576 H 0.32229 0.83344 0.94284 0.0
H577 H 0.26083 0.88787 0.95088 0.0
O578 O 0.24655 0.84539 0.90782 0.0
C579 C 0.28324 0.91376 0.89744 0.0
O580 O 0.30649 0.9059 0.88947 0.0
N581 N 0.29575 0.82839 0.89246 0.0
C582 C 0.3212 0.78353 0.87309 0.0
C583 C 0.29398 0.78662 0.87033 0.0
C584 C 0.28165 0.80907 0.88017 0.0
C585 C 0.32243 0.82642 0.89375 0.0
C586 C 0.33537 0.80358 0.88562 0.0
H587 H 0.26097 0.81157 0.87625 0.0
H588 H 0.33388 0.8429 0.90071 0.0
H589 H 0.23153 0.87795 0.86936 0.0
H590 H 0.27854 0.87562 0.80188 0.0
H591 H 0.31969 0.84796 0.99211 0.0
H592 H 0.28239 0.77209 0.85997 0.0
H593 H 0.35651 0.80229 0.88764 0.0
C594 C 0.12823 0.2917 0.84682 0.0
C595 C 0.11829 0.27916 0.82479 0.0
N596 N 0.11445 0.25376 0.83099 0.0
N597 N 0.13078 0.27401 0.86639 0.0
C598 C 0.1223 0.25122 0.856 0.0
H599 H 0.13245 0.31242 0.84871 0.0
Co600 Co 0.13867 0.27774 0.90197 0.0
C601 C 0.16226 0.22452 0.91128 0.0
O602 O 0.14367 0.21626 0.92712 0.0
N603 N 0.14628 0.2805 0.93775 0.0
C604 C 0.1658 0.27594 0.97656 0.0
C605 C 0.16932 0.27512 0.9498 0.0
C606 C 0.12928 0.28513 0.95751 0.0
N607 N 0.14057 0.28214 0.9812 0.0
O608 O 0.10724 0.25848 0.90984 0.0
H609 H 0.18732 0.27002 0.93977 0.0
H610 H 0.10882 0.28982 0.9548 0.0
O611 O 0.1605 0.2469 0.90043 0.0
C612 C 0.08826 0.27463 0.90761 0.0
O613 O 0.0941 0.29949 0.90373 0.0
N614 N 0.168 0.29826 0.8939 0.0
C615 C 0.21063 0.33062 0.88369 0.0
C616 C 0.20915 0.30564 0.8724 0.0
C617 C 0.18751 0.28974 0.87761 0.0
C618 C 0.16883 0.32284 0.90451 0.0
C619 C 0.19023 0.33935 0.89987 0.0
H620 H 0.18635 0.27071 0.8683 0.0
H621 H 0.15289 0.32954 0.91682 0.0
H622 H 0.12084 0.23311 0.86693 0.0
H623 H 0.11357 0.28804 0.80609 0.0
H624 H 0.18041 0.27191 0.99147 0.0
H625 H 0.22452 0.2986 0.85951 0.0
H626 H 0.19082 0.35872 0.90861 0.0
C627 C 0.70883 0.11088 0.86128 0.0
C628 C 0.72334 0.10434 0.83935 0.0
N629 N 0.74511 0.11927 0.83935 0.0
N630 N 0.72176 0.12948 0.87511 0.0
C631 C 0.74322 0.13475 0.8606 0.0
H632 H 0.69145 0.10076 0.86805 0.0
Co633 Co 0.71687 0.13691 0.9107 0.0
C634 C 0.76217 0.17105 0.92663 0.0
O635 O 0.74589 0.1844 0.9414 0.0
N636 N 0.71184 0.14338 0.94743 0.0
C637 C 0.70219 0.1602 0.98679 0.0
C638 C 0.69972 0.16342 0.96012 0.0
C639 C 0.72107 0.12812 0.96723 0.0
N640 N 0.71531 0.13777 0.99115 0.0
O641 O 0.7292 0.10201 0.91805 0.0
H642 H 0.69048 0.18011 0.95098 0.0
H643 H 0.73191 0.1101 0.96451 0.0
O644 O 0.75313 0.15163 0.91333 0.0
C645 C 0.7102 0.08588 0.92079 0.0
O646 O 0.68633 0.09569 0.92031 0.0
N647 N 0.70236 0.16952 0.9014 0.0
C648 C 0.67438 0.21222 0.88166 0.0
C649 C 0.7017 0.21084 0.87875 0.0
C650 C 0.71536 0.18916 0.88855 0.0
C651 C 0.67567 0.17021 0.90358 0.0
C652 C 0.66134 0.19176 0.89456 0.0
H653 H 0.7361 0.18776 0.8846 0.0
H654 H 0.66546 0.1538 0.91239 0.0
H655 H 0.75835 0.14822 0.86632 0.0
H656 H 0.71952 0.08828 0.82596 0.0
H657 H 0.69434 0.17294 0.00188 0.0
H658 H 0.71227 0.22604 0.86829 0.0
H659 H 0.64019 0.19203 0.89675 0.0
C660 C 0.87601 0.71595 0.84311 0.0
C661 C 0.88142 0.72974 0.82041 0.0
N662 N 0.88745 0.75451 0.82733 0.0
N663 N 0.87819 0.73235 0.86383 0.0
C664 C 0.88566 0.75545 0.85354 0.0
H665 H 0.86997 0.69563 0.84435 0.0
Co666 Co 0.87206 0.72659 0.89909 0.0
C667 C 0.83757 0.77004 0.9162 0.0
O668 O 0.82534 0.75265 0.93077 0.0
N669 N 0.86695 0.72089 0.93569 0.0
C670 C 0.85555 0.70735 0.97581 0.0
C671 C 0.85071 0.70481 0.94938 0.0
C672 C 0.88117 0.73312 0.9546 0.0
N673 N 0.87471 0.72513 0.97887 0.0
O674 O 0.90678 0.73897 0.90591 0.0
H675 H 0.83607 0.69191 0.94129 0.0
H676 H 0.89645 0.74738 0.9509 0.0
O677 O 0.85722 0.76235 0.90252 0.0
C678 C 0.92316 0.72026 0.90383 0.0
O679 O 0.91404 0.6965 0.8995 0.0
N680 N 0.83901 0.71254 0.89023 0.0
C681 C 0.79537 0.68696 0.86932 0.0
C682 C 0.79858 0.71403 0.86599 0.0
C683 C 0.82065 0.72643 0.87638 0.0
C684 C 0.83689 0.68592 0.8922 0.0
C685 C 0.81471 0.67283 0.88282 0.0
H686 H 0.82367 0.74686 0.87169 0.0
H687 H 0.85273 0.67475 0.90088 0.0
H688 H 0.88913 0.77296 0.86493 0.0
H689 H 0.87988 0.7226 0.80046 0.0
H690 H 0.8464 0.69637 0.99153 0.0
H691 H 0.78448 0.72534 0.85479 0.0
H692 H 0.81315 0.65175 0.88508 0.0
C693 C 0.71143 0.89786 0.14595 0.0
C694 C 0.72713 0.90727 0.16576 0.0
N695 N 0.74999 0.89411 0.16508 0.0
N696 N 0.72423 0.87884 0.13268 0.0
C697 C 0.74764 0.87673 0.14522 0.0
H698 H 0.69293 0.90628 0.14003 0.0
Co699 Co 0.71665 0.87079 0.09756 0.0
C700 C 0.75864 0.83138 0.08181 0.0
O701 O 0.74886 0.82696 0.05837 0.0
N702 N 0.70936 0.86441 0.06187 0.0
C703 C 0.68732 0.85933 0.02446 0.0
C704 C 0.68653 0.856 0.05127 0.0
C705 C 0.7236 0.87286 0.04106 0.0
N706 N 0.71052 0.87033 0.01822 0.0
O707 O 0.73645 0.90162 0.08895 0.0
H708 H 0.6696 0.84971 0.06241 0.0
H709 H 0.74243 0.88257 0.04277 0.0
O710 O 0.74822 0.84867 0.09666 0.0
C711 C 0.72456 0.92218 0.08105 0.0
O712 O 0.70604 0.91997 0.06328 0.0
N713 N 0.69559 0.84146 0.10788 0.0
C714 C 0.66696 0.80005 0.12943 0.0
C715 C 0.68474 0.79551 0.10909 0.0
C716 C 0.69857 0.81653 0.09832 0.0
C717 C 0.6764 0.84635 0.12597 0.0
C718 C 0.66216 0.82586 0.1374 0.0
H719 H 0.71164 0.81242 0.08244 0.0
H720 H 0.67228 0.86616 0.13205 0.0
H721 H 0.76389 0.86495 0.13835 0.0
H722 H 0.72288 0.92374 0.17849 0.0
H723 H 0.67128 0.85612 0.01088 0.0
H724 H 0.68832 0.77578 0.102 0.0
H725 H 0.64799 0.83004 0.15267 0.0
C726 C 0.11295 0.71142 0.15815 0.0
C727 C 0.10356 0.72718 0.17825 0.0
N728 N 0.10582 0.75242 0.17065 0.0
N729 N 0.12181 0.72688 0.13852 0.0
C730 C 0.11695 0.75157 0.14677 0.0
H731 H 0.11293 0.69019 0.15769 0.0
Co732 Co 0.13364 0.7202 0.10426 0.0
C733 C 0.18211 0.75407 0.10936 0.0
O734 O 0.19766 0.73359 0.10866 0.0
N735 N 0.14412 0.7153 0.06869 0.0
C736 C 0.1635 0.71958 0.02961 0.0
C737 C 0.16679 0.72154 0.05623 0.0
C738 C 0.12764 0.70877 0.04883 0.0
N739 N 0.13879 0.71182 0.02504 0.0
O740 O 0.10422 0.74069 0.09235 0.0
H741 H 0.18467 0.72794 0.06518 0.0
H742 H 0.10753 0.70283 0.05149 0.0
O743 O 0.15709 0.75162 0.10696 0.0
C744 C 0.0846 0.72512 0.0938 0.0
O745 O 0.08936 0.70029 0.09907 0.0
N746 N 0.16064 0.69724 0.11696 0.0
C747 C 0.2025 0.66587 0.13296 0.0
C748 C 0.19306 0.68569 0.14929 0.0
C749 C 0.17185 0.70085 0.14116 0.0
C750 C 0.16795 0.67602 0.10216 0.0
C751 C 0.18929 0.66037 0.10954 0.0
H752 H 0.16588 0.71671 0.15371 0.0
H753 H 0.15775 0.67133 0.08418 0.0
H754 H 0.12076 0.76888 0.13507 0.0
H755 H 0.09512 0.72065 0.19661 0.0
H756 H 0.17794 0.72405 0.01467 0.0
H757 H 0.20267 0.69007 0.16775 0.0
H758 H 0.19579 0.64459 0.09686 0.0
C759 C 0.86088 0.28649 0.15264 0.0
C760 C 0.86995 0.27499 0.17555 0.0
N761 N 0.88103 0.25189 0.16911 0.0
N762 N 0.86636 0.27047 0.13221 0.0
C763 C 0.87848 0.24961 0.14304 0.0
H764 H 0.85106 0.30524 0.15099 0.0
Co765 Co 0.86062 0.27283 0.09622 0.0
C766 C 0.8449 0.21743 0.08321 0.0
O767 O 0.86103 0.21402 0.06342 0.0
N768 N 0.85475 0.2737 0.05969 0.0
C769 C 0.83524 0.26747 0.02099 0.0
C770 C 0.83148 0.26914 0.04764 0.0
C771 C 0.87233 0.27477 0.03982 0.0
N772 N 0.86095 0.27087 0.01631 0.0
O773 O 0.89619 0.26114 0.09132 0.0
H774 H 0.81301 0.266 0.05761 0.0
H775 H 0.89321 0.27758 0.04224 0.0
O776 O 0.84568 0.23833 0.09681 0.0
C777 C 0.90927 0.28257 0.09132 0.0
O778 O 0.8963 0.30461 0.08771 0.0
N779 N 0.82742 0.28709 0.10231 0.0
C780 C 0.78264 0.31477 0.11606 0.0
C781 C 0.78517 0.28831 0.1229 0.0
C782 C 0.80791 0.27475 0.11599 0.0
C783 C 0.82491 0.31268 0.09495 0.0
C784 C 0.8025 0.32695 0.10154 0.0
H785 H 0.8103 0.25485 0.12289 0.0
H786 H 0.84084 0.32227 0.08471 0.0
H787 H 0.88543 0.23288 0.13196 0.0
H788 H 0.86833 0.28274 0.19526 0.0
H789 H 0.82042 0.26371 0.00623 0.0
H790 H 0.77026 0.27863 0.13456 0.0
H791 H 0.80113 0.34752 0.09636 0.0
C792 C 0.64904 0.79064 0.62768 0.0
C793 C 0.67109 0.77723 0.61927 0.0
N794 N 0.66363 0.75266 0.61308 0.0
N795 N 0.62814 0.77432 0.62693 0.0
C796 C 0.6378 0.75138 0.61809 0.0
H797 H 0.6481 0.81126 0.63265 0.0
Co798 Co 0.59253 0.78171 0.6299 0.0
C799 C 0.57042 0.73953 0.66389 0.0
O800 O 0.55393 0.75686 0.6735 0.0
N801 N 0.55619 0.78883 0.63156 0.0
C802 C 0.51612 0.80615 0.63495 0.0
C803 C 0.54224 0.80917 0.64143 0.0
C804 C 0.53796 0.77373 0.61937 0.0
N805 N 0.51364 0.78382 0.62115 0.0
O806 O 0.58774 0.76772 0.59522 0.0
H807 H 0.5502 0.82569 0.65198 0.0
H808 H 0.54244 0.75595 0.60867 0.0
O809 O 0.58665 0.74705 0.64617 0.0
C810 C 0.59494 0.78441 0.57807 0.0
O811 O 0.60212 0.80782 0.58624 0.0
N812 N 0.59932 0.79755 0.66276 0.0
C813 C 0.6267 0.8253 0.70217 0.0
C814 C 0.6213 0.7982 0.70447 0.0
C815 C 0.60901 0.78458 0.68411 0.0
C816 C 0.6009 0.82421 0.66182 0.0
C817 C 0.61321 0.83845 0.68182 0.0
H818 H 0.60942 0.7635 0.68498 0.0
H819 H 0.594 0.8345 0.64458 0.0
H820 H 0.62589 0.7344 0.61385 0.0
H821 H 0.69069 0.78508 0.61686 0.0
H822 H 0.50034 0.81975 0.63913 0.0
H823 H 0.62735 0.78687 0.72131 0.0
H824 H 0.61229 0.85952 0.68045 0.0
C825 C 0.20295 0.64396 0.60266 0.0
C826 C 0.21729 0.66568 0.59521 0.0
N827 N 0.2418 0.66291 0.60469 0.0
N828 N 0.21852 0.62758 0.61642 0.0
C829 C 0.24184 0.64013 0.61794 0.0
H830 H 0.18317 0.6394 0.59657 0.0
Co831 Co 0.2121 0.59204 0.62145 0.0
C832 C 0.26016 0.57121 0.64675 0.0
O833 O 0.24493 0.5567 0.66168 0.0
N834 N 0.20616 0.5557 0.62524 0.0
C835 C 0.19197 0.51497 0.6326 0.0
C836 C 0.18813 0.54114 0.63826 0.0
C837 C 0.22058 0.53784 0.61187 0.0
N838 N 0.21241 0.51319 0.61608 0.0
O839 O 0.21792 0.58738 0.58476 0.0
H840 H 0.17271 0.54859 0.65066 0.0
H841 H 0.23667 0.54282 0.59893 0.0
O842 O 0.24938 0.58612 0.62962 0.0
C843 C 0.19775 0.58193 0.5709 0.0
O844 O 0.17671 0.5724 0.58237 0.0
N845 N 0.20379 0.59901 0.65658 0.0
C846 C 0.18355 0.62056 0.70261 0.0
C847 C 0.21057 0.62144 0.69751 0.0
C848 C 0.22034 0.61064 0.67427 0.0
C849 C 0.17742 0.59871 0.66105 0.0
C850 C 0.16696 0.60843 0.68436 0.0
H851 H 0.24083 0.6135 0.66982 0.0
H852 H 0.16423 0.59214 0.64576 0.0
H853 H 0.25926 0.63208 0.6268 0.0
H854 H 0.21079 0.68141 0.5825 0.0
H855 H 0.18036 0.49858 0.63954 0.0
H856 H 0.22381 0.63141 0.71085 0.0
H857 H 0.1459 0.60806 0.68735 0.0
C858 C 0.36238 0.21239 0.65533 0.0
C859 C 0.33851 0.22408 0.64973 0.0
N860 N 0.34342 0.24811 0.63992 0.0
N861 N 0.38188 0.22925 0.64914 0.0
C862 C 0.36959 0.25072 0.63979 0.0
H863 H 0.36533 0.19265 0.66249 0.0
Co864 Co 0.41802 0.22538 0.64785 0.0
C865 C 0.43857 0.27052 0.67839 0.0
O866 O 0.45781 0.25532 0.68636 0.0
N867 N 0.45504 0.22236 0.64514 0.0
C868 C 0.49703 0.20996 0.64475 0.0
C869 C 0.47282 0.20583 0.65599 0.0
C870 C 0.46936 0.23678 0.62797 0.0
N871 N 0.49465 0.22937 0.62712 0.0
O872 O 0.41609 0.23718 0.61237 0.0
H873 H 0.46884 0.19097 0.67046 0.0
H874 H 0.46128 0.25169 0.61524 0.0
O875 O 0.42194 0.26116 0.66197 0.0
C876 C 0.41474 0.21758 0.59687 0.0
O877 O 0.42171 0.19435 0.60567 0.0
N878 N 0.41732 0.21088 0.68173 0.0
C879 C 0.4013 0.18181 0.72517 0.0
C880 C 0.39835 0.20912 0.72483 0.0
C881 C 0.40629 0.22332 0.70282 0.0
C882 C 0.42041 0.18429 0.68196 0.0
C883 C 0.4135 0.16946 0.7039 0.0
H884 H 0.40088 0.24373 0.70186 0.0
H885 H 0.42666 0.17429 0.66431 0.0
H886 H 0.37963 0.26753 0.63164 0.0
H887 H 0.31921 0.21554 0.65216 0.0
H888 H 0.51466 0.19855 0.64808 0.0
H889 H 0.38828 0.21913 0.74066 0.0
H890 H 0.41548 0.1483 0.70332 0.0
C891 C 0.79194 0.34913 0.62996 0.0
C892 C 0.77811 0.32752 0.62127 0.0
N893 N 0.75258 0.33424 0.61931 0.0
N894 N 0.77516 0.36933 0.6331 0.0
C895 C 0.7514 0.35954 0.62676 0.0
H896 H 0.81304 0.35058 0.63193 0.0
Co897 Co 0.78302 0.40466 0.63578 0.0
C898 C 0.74331 0.42701 0.672 0.0
O899 O 0.76183 0.4422 0.68157 0.0
N900 N 0.79057 0.441 0.63718 0.0
C901 C 0.80823 0.48093 0.64053 0.0
C902 C 0.81113 0.45486 0.64686 0.0
C903 C 0.77543 0.45934 0.62528 0.0
N904 N 0.78578 0.48354 0.62701 0.0
O905 O 0.76761 0.40879 0.60191 0.0
H906 H 0.82772 0.44701 0.65731 0.0
H907 H 0.75742 0.45502 0.61486 0.0
O908 O 0.74926 0.41114 0.65339 0.0
C909 C 0.78413 0.41037 0.58324 0.0
O910 O 0.80841 0.41728 0.58861 0.0
N911 N 0.79995 0.39792 0.66784 0.0
C912 C 0.82938 0.37711 0.70901 0.0
C913 C 0.80191 0.3765 0.70977 0.0
C914 C 0.78753 0.38676 0.68886 0.0
C915 C 0.82669 0.39768 0.66645 0.0
C916 C 0.84184 0.38835 0.68728 0.0
H917 H 0.76657 0.38378 0.68888 0.0
H918 H 0.83633 0.40378 0.64856 0.0
H919 H 0.73393 0.37133 0.6251 0.0
H920 H 0.78627 0.30869 0.61575 0.0
H921 H 0.82195 0.49663 0.64468 0.0
H922 H 0.7917 0.36713 0.72589 0.0
H923 H 0.86306 0.38845 0.68577 0.0
C924 C 0.64645 0.20346 0.35431 0.0
C925 C 0.66903 0.2185 0.35641 0.0
N926 N 0.6618 0.24292 0.36341 0.0
N927 N 0.62548 0.21867 0.35996 0.0
C928 C 0.63561 0.24251 0.36538 0.0
H929 H 0.6454 0.18288 0.34917 0.0
Co930 Co 0.58959 0.21246 0.36186 0.0
C931 C 0.56864 0.26446 0.34234 0.0
O932 O 0.54965 0.26732 0.3595 0.0
N933 N 0.55257 0.20767 0.36422 0.0
C934 C 0.50988 0.20369 0.35461 0.0
C935 C 0.53508 0.20219 0.3449 0.0
C936 C 0.53723 0.21262 0.3854 0.0
N937 N 0.51149 0.21037 0.38002 0.0
O938 O 0.59067 0.22873 0.39559 0.0
H939 H 0.54002 0.19809 0.32472 0.0
H940 H 0.54437 0.21854 0.40443 0.0
O941 O 0.58382 0.24473 0.34334 0.0
C942 C 0.59546 0.21051 0.41211 0.0
O943 O 0.59107 0.18611 0.40492 0.0
N944 N 0.59105 0.19458 0.32976 0.0
C945 C 0.60315 0.16393 0.28631 0.0
C946 C 0.60897 0.19074 0.28648 0.0
C947 C 0.60287 0.20571 0.30842 0.0
C948 C 0.58472 0.16855 0.32973 0.0
C949 C 0.58997 0.15291 0.30779 0.0
H950 H 0.6095 0.22584 0.30887 0.0
H951 H 0.57638 0.15973 0.34714 0.0
H952 H 0.62398 0.25942 0.37089 0.0
H953 H 0.68902 0.21209 0.35316 0.0
H954 H 0.49181 0.20071 0.34382 0.0
H955 H 0.61942 0.19974 0.2703 0.0
H956 H 0.58538 0.13216 0.30822 0.0
C957 C 0.7914 0.63681 0.3925 0.0
C958 C 0.77749 0.65829 0.40127 0.0
N959 N 0.75573 0.66049 0.38648 0.0
N960 N 0.77812 0.62522 0.37272 0.0
C961 C 0.75694 0.64069 0.36897 0.0
H962 H 0.80859 0.62861 0.40176 0.0
Co963 Co 0.78229 0.58998 0.36382 0.0
C964 C 0.73727 0.57516 0.32955 0.0
O965 O 0.75345 0.56014 0.31635 0.0
N966 N 0.78656 0.5535 0.35587 0.0
C967 C 0.79739 0.51482 0.33835 0.0
C968 C 0.80031 0.54153 0.33646 0.0
C969 C 0.77554 0.53322 0.36919 0.0
N970 N 0.78231 0.50965 0.35935 0.0
O971 O 0.76946 0.58212 0.39819 0.0
H972 H 0.81145 0.55116 0.3213 0.0
H973 H 0.76332 0.53542 0.38637 0.0
O974 O 0.74627 0.5886 0.34888 0.0
C975 C 0.78585 0.57436 0.41549 0.0
O976 O 0.80654 0.56096 0.40794 0.0
N977 N 0.79715 0.60019 0.33178 0.0
C978 C 0.8256 0.62021 0.28962 0.0
C979 C 0.79824 0.62296 0.29057 0.0
C980 C 0.78435 0.61309 0.31204 0.0
C981 C 0.82389 0.59852 0.33168 0.0
C982 C 0.83847 0.60767 0.31039 0.0
H983 H 0.76357 0.61695 0.31317 0.0
H984 H 0.83388 0.58979 0.34826 0.0
H985 H 0.74153 0.63647 0.35521 0.0
H986 H 0.78194 0.67013 0.41835 0.0
H987 H 0.80691 0.50021 0.3262 0.0
H988 H 0.78783 0.63328 0.27517 0.0
H989 H 0.85965 0.60571 0.31048 0.0
C990 C 0.3406 0.80025 0.36542 0.0
C991 C 0.31672 0.78903 0.37174 0.0
N992 N 0.32143 0.76491 0.38144 0.0
N993 N 0.36 0.7829 0.37063 0.0
C994 C 0.34762 0.76223 0.38159 0.0
H995 H 0.3435 0.81935 0.35664 0.0
Co996 Co 0.39639 0.78481 0.36555 0.0
C997 C 0.38394 0.733 0.33611 0.0
O998 O 0.35846 0.73301 0.33926 0.0
N999 N 0.43351 0.78586 0.36118 0.0
C1000 C 0.47365 0.78531 0.34341 0.0
C1001 C 0.44736 0.78938 0.33873 0.0
C1002 C 0.45207 0.77905 0.37903 0.0
N1003 N 0.4764 0.77881 0.36876 0.0
O1004 O 0.39991 0.76828 0.39894 0.0
H1005 H 0.43904 0.79385 0.31976 0.0
H1006 H 0.44819 0.77369 0.39914 0.0
O1007 O 0.39816 0.75128 0.34587 0.0
C1008 C 0.40068 0.78652 0.41613 0.0
O1009 O 0.40806 0.81007 0.40856 0.0
N1010 N 0.39113 0.80377 0.33423 0.0
C1011 C 0.3782 0.8367 0.29262 0.0
C1012 C 0.36825 0.81119 0.29377 0.0
C1013 C 0.37471 0.79514 0.31485 0.0
C1014 C 0.40069 0.82881 0.33362 0.0
C1015 C 0.39493 0.84552 0.3126 0.0
H1016 H 0.36534 0.77631 0.31611 0.0
H1017 H 0.41255 0.83595 0.34973 0.0
H1018 H 0.35751 0.74446 0.38779 0.0
H1019 H 0.29746 0.79712 0.36786 0.0
H1020 H 0.48948 0.78652 0.32928 0.0
H1021 H 0.35487 0.80401 0.27885 0.0
H1022 H 0.40266 0.86532 0.31235 0.0
C1023 C 0.22158 0.34376 0.37361 0.0
C1024 C 0.23626 0.32301 0.38325 0.0
N1025 N 0.25997 0.33243 0.39017 0.0
N1026 N 0.2363 0.36581 0.37442 0.0
C1027 C 0.25951 0.35812 0.38451 0.0
H1028 H 0.2012 0.34306 0.36768 0.0
Co1029 Co 0.22745 0.40085 0.37037 0.0
C1030 C 0.26805 0.42299 0.33505 0.0
O1031 O 0.2494 0.43743 0.32464 0.0
N1032 N 0.2193 0.43706 0.3677 0.0
C1033 C 0.20178 0.47674 0.36185 0.0
C1034 C 0.19907 0.45033 0.3567 0.0
C1035 C 0.23395 0.45603 0.37936 0.0
N1036 N 0.22376 0.48016 0.37602 0.0
O1037 O 0.24065 0.40618 0.40511 0.0
H1038 H 0.18289 0.44177 0.3461 0.0
H1039 H 0.25154 0.45224 0.39066 0.0
O1040 O 0.26201 0.40778 0.35422 0.0
C1041 C 0.22273 0.40748 0.42249 0.0
O1042 O 0.19927 0.41556 0.41539 0.0
N1043 N 0.21244 0.39286 0.33735 0.0
C1044 C 0.18668 0.37218 0.29363 0.0
C1045 C 0.21409 0.37235 0.29491 0.0
C1046 C 0.22657 0.38206 0.31722 0.0
C1047 C 0.18564 0.39179 0.33679 0.0
C1048 C 0.17229 0.38195 0.31486 0.0
H1049 H 0.24746 0.37915 0.3188 0.0
H1050 H 0.17457 0.39767 0.35391 0.0
H1051 H 0.27535 0.37143 0.38926 0.0
H1052 H 0.22984 0.30292 0.38577 0.0
H1053 H 0.18819 0.49215 0.35646 0.0
H1054 H 0.22571 0.36382 0.27927 0.0
H1055 H 0.15103 0.38114 0.31483 0.0
C1056 C 0.62448 0.6621 0.78304 0.0
C1057 C 0.61485 0.68272 0.76829 0.0
N1058 N 0.60824 0.67325 0.74454 0.0
N1059 N 0.62415 0.64002 0.76835 0.0
C1060 C 0.61407 0.64754 0.74506 0.0
H1061 H 0.63058 0.66298 0.80335 0.0
Co1062 Co 0.63072 0.60548 0.77816 0.0
C1063 C 0.66755 0.58452 0.73826 0.0
O1064 O 0.67899 0.57132 0.75722 0.0
N1065 N 0.63601 0.56987 0.78771 0.0
C1066 C 0.64365 0.5313 0.80707 0.0
C1067 C 0.64765 0.55798 0.80849 0.0
C1068 C 0.62533 0.54971 0.77398 0.0
N1069 N 0.62962 0.52631 0.78536 0.0
O1070 O 0.59691 0.59645 0.76491 0.0
H1071 H 0.65781 0.56756 0.82433 0.0
H1072 H 0.61386 0.55208 0.75626 0.0
O1073 O 0.64758 0.59879 0.74394 0.0
C1074 C 0.57918 0.60048 0.78198 0.0
O1075 O 0.58658 0.60806 0.80552 0.0
N1076 N 0.6628 0.61629 0.79298 0.0
C1077 C 0.7057 0.63809 0.81902 0.0
C1078 C 0.70405 0.6391 0.79162 0.0
C1079 C 0.68227 0.62834 0.77895 0.0
C1080 C 0.66325 0.61704 0.81972 0.0
C1081 C 0.685 0.62686 0.83317 0.0
H1082 H 0.68058 0.63101 0.75803 0.0
H1083 H 0.64637 0.61031 0.83069 0.0
H1084 H 0.61004 0.63424 0.72906 0.0
H1085 H 0.61237 0.70286 0.77458 0.0
H1086 H 0.64956 0.5168 0.82144 0.0
H1087 H 0.71923 0.64863 0.78017 0.0
H1088 H 0.68527 0.62657 0.85442 0.0
C1089 C 0.34211 0.64789 0.73993 0.0
C1090 C 0.32329 0.63861 0.723 0.0
N1091 N 0.33492 0.62165 0.70668 0.0
N1092 N 0.36579 0.63691 0.73432 0.0
C1093 C 0.36031 0.62079 0.71385 0.0
H1094 H 0.33772 0.6605 0.75631 0.0
Co1095 Co 0.39904 0.63957 0.75195 0.0
C1096 C 0.42154 0.63142 0.70012 0.0
O1097 O 0.43526 0.61663 0.68406 0.0
N1098 N 0.4316 0.64146 0.76888 0.0
C1099 C 0.46839 0.65584 0.78765 0.0
C1100 C 0.44254 0.66171 0.78213 0.0
C1101 C 0.45098 0.62343 0.76698 0.0
N1102 N 0.4735 0.63185 0.77793 0.0
O1103 O 0.39342 0.60494 0.7678 0.0
H1104 H 0.43293 0.6802 0.78613 0.0
H1105 H 0.44911 0.60503 0.75651 0.0
O1106 O 0.41619 0.62256 0.72294 0.0
C1107 C 0.37312 0.59305 0.7765 0.0
O1108 O 0.3509 0.6058 0.77931 0.0
N1109 N 0.38388 0.6585 0.77966 0.0
C1110 C 0.36617 0.69567 0.81589 0.0
C1111 C 0.36856 0.70191 0.78924 0.0
C1112 C 0.37849 0.68347 0.7718 0.0
C1113 C 0.38238 0.65188 0.80559 0.0
C1114 C 0.37369 0.67039 0.82417 0.0
H1115 H 0.38117 0.68876 0.75146 0.0
H1116 H 0.38893 0.63282 0.81212 0.0
H1117 H 0.37414 0.60751 0.70494 0.0
H1118 H 0.30247 0.64288 0.72346 0.0
H1119 H 0.48266 0.66862 0.79686 0.0
H1120 H 0.36343 0.72125 0.78202 0.0
H1121 H 0.37304 0.66513 0.84475 0.0
C1122 C 0.38898 0.34992 0.80035 0.0
C1123 C 0.4008 0.32887 0.78783 0.0
N1124 N 0.40333 0.33504 0.76229 0.0
N1125 N 0.38343 0.36877 0.7825 0.0
C1126 C 0.39307 0.35919 0.75974 0.0
H1127 H 0.38487 0.35145 0.82112 0.0
Co1128 Co 0.37044 0.40334 0.78661 0.0
C1129 C 0.33427 0.38203 0.7422 0.0
O1130 O 0.34267 0.3578 0.743 0.0
N1131 N 0.35845 0.43837 0.78976 0.0
C1132 C 0.33251 0.47345 0.78641 0.0
C1133 C 0.3334 0.44647 0.78625 0.0
C1134 C 0.37237 0.4609 0.79242 0.0
N1135 N 0.35703 0.48243 0.79018 0.0
O1136 O 0.39905 0.41483 0.7647 0.0
H1137 H 0.31687 0.43358 0.78282 0.0
H1138 H 0.39347 0.46173 0.7944 0.0
O1139 O 0.34477 0.39962 0.7569 0.0
C1140 C 0.41866 0.41577 0.78036 0.0
O1141 O 0.41373 0.41308 0.80557 0.0
N1142 N 0.34428 0.39187 0.81046 0.0
C1143 C 0.30337 0.37787 0.84374 0.0
C1144 C 0.30971 0.3622 0.82223 0.0
C1145 C 0.33047 0.36938 0.80606 0.0
C1146 C 0.33985 0.40606 0.83283 0.0
C1147 C 0.31906 0.39963 0.84962 0.0
H1148 H 0.33561 0.35659 0.79017 0.0
H1149 H 0.35194 0.42291 0.83737 0.0
H1150 H 0.39218 0.36963 0.74128 0.0
H1151 H 0.40712 0.31063 0.79669 0.0
H1152 H 0.31541 0.48559 0.78297 0.0
H1153 H 0.29844 0.34471 0.81777 0.0
H1154 H 0.31495 0.41174 0.8666 0.0
C1155 C 0.65791 0.37274 0.78673 0.0
C1156 C 0.68051 0.38179 0.77471 0.0
N1157 N 0.67369 0.39148 0.75115 0.0
N1158 N 0.63723 0.37618 0.7704 0.0
C1159 C 0.64762 0.38826 0.74924 0.0
H1160 H 0.65662 0.36454 0.80627 0.0
Co1161 Co 0.601 0.37123 0.77641 0.0
C1162 C 0.6088 0.34039 0.72534 0.0
O1163 O 0.6341 0.34429 0.72366 0.0
N1164 N 0.56411 0.36745 0.78195 0.0
C1165 C 0.52346 0.35152 0.78703 0.0
C1166 C 0.54992 0.34576 0.78798 0.0
C1167 C 0.54551 0.3859 0.77698 0.0
N1168 N 0.52091 0.37678 0.78002 0.0
O1169 O 0.59495 0.40416 0.75916 0.0
H1170 H 0.55804 0.32663 0.79217 0.0
H1171 H 0.54941 0.40565 0.77048 0.0
O1172 O 0.5955 0.35055 0.74403 0.0
C1173 C 0.59934 0.42176 0.77644 0.0
O1174 O 0.60522 0.41409 0.80037 0.0
N1175 N 0.60837 0.34023 0.79569 0.0
C1176 C 0.62463 0.29901 0.82795 0.0
C1177 C 0.63206 0.29989 0.80159 0.0
C1178 C 0.62388 0.32066 0.78588 0.0
C1179 C 0.6013 0.33992 0.82155 0.0
C1180 C 0.60873 0.31912 0.83795 0.0
H1181 H 0.6314 0.32152 0.76628 0.0
H1182 H 0.59011 0.35609 0.82957 0.0
H1183 H 0.63636 0.39398 0.73221 0.0
H1184 H 0.70026 0.38138 0.78256 0.0
H1185 H 0.50738 0.33817 0.79083 0.0
H1186 H 0.64472 0.28491 0.79336 0.0
H1187 H 0.60285 0.31912 0.85837 0.0
C1188 C 0.60202 0.34772 0.21535 0.0
C1189 C 0.58841 0.32868 0.22901 0.0
N1190 N 0.59527 0.33018 0.25454 0.0
N1191 N 0.61723 0.36136 0.23221 0.0
C1192 C 0.61224 0.35046 0.25587 0.0
H1193 H 0.59962 0.35248 0.1948 0.0
Co1194 Co 0.63215 0.39468 0.22664 0.0
C1195 C 0.67202 0.37176 0.26626 0.0
O1196 O 0.66536 0.34706 0.26337 0.0
N1197 N 0.64558 0.42917 0.22253 0.0
C1198 C 0.66909 0.46561 0.22888 0.0
C1199 C 0.66935 0.43857 0.22988 0.0
C1200 C 0.63164 0.45092 0.21633 0.0
N1201 N 0.64524 0.47317 0.22051 0.0
O1202 O 0.6052 0.40824 0.24933 0.0
H1203 H 0.68557 0.4267 0.23672 0.0
H1204 H 0.6114 0.45092 0.2101 0.0
O1205 O 0.65898 0.38996 0.25472 0.0
C1206 C 0.58652 0.4112 0.23274 0.0
O1207 O 0.59199 0.40652 0.20792 0.0
N1208 N 0.65653 0.38112 0.2015 0.0
C1209 C 0.69424 0.36323 0.16617 0.0
C1210 C 0.68477 0.34675 0.18578 0.0
C1211 C 0.66572 0.35594 0.20304 0.0
C1212 C 0.66366 0.39637 0.18053 0.0
C1213 C 0.683 0.38802 0.16292 0.0
H1214 H 0.6588 0.34254 0.2177 0.0
H1215 H 0.65479 0.41534 0.17737 0.0
H1216 H 0.61952 0.35843 0.27416 0.0
H1217 H 0.57406 0.31522 0.22095 0.0
H1218 H 0.6848 0.47872 0.23467 0.0
H1219 H 0.69265 0.32715 0.18827 0.0
H1220 H 0.6895 0.40093 0.14735 0.0
C1221 C 0.65793 0.63514 0.21667 0.0
C1222 C 0.67894 0.62843 0.23253 0.0
N1223 N 0.66926 0.61792 0.25473 0.0
N1224 N 0.63537 0.62881 0.22908 0.0
C1225 C 0.64305 0.61835 0.25214 0.0
H1226 H 0.65909 0.64299 0.19699 0.0
Co1227 Co 0.60076 0.62849 0.21757 0.0
C1228 C 0.57196 0.65861 0.25857 0.0
O1229 O 0.55648 0.66774 0.24007 0.0
N1230 N 0.56535 0.62678 0.20658 0.0
C1231 C 0.52728 0.62597 0.18491 0.0
C1232 C 0.55301 0.63433 0.18428 0.0
C1233 C 0.54663 0.61375 0.22026 0.0
N1234 N 0.52347 0.6131 0.20757 0.0
O1235 O 0.59879 0.59274 0.22881 0.0
H1236 H 0.56187 0.64453 0.16804 0.0
H1237 H 0.55002 0.60444 0.23904 0.0
O1238 O 0.58972 0.64196 0.25209 0.0
C1239 C 0.60243 0.57704 0.20968 0.0
O1240 O 0.60091 0.58627 0.18564 0.0
N1241 N 0.6052 0.6628 0.20433 0.0
C1242 C 0.62159 0.70913 0.18025 0.0
C1243 C 0.61897 0.70785 0.20753 0.0
C1244 C 0.61144 0.68427 0.21926 0.0
C1245 C 0.60851 0.66367 0.17779 0.0
C1246 C 0.61621 0.68679 0.16525 0.0
H1247 H 0.61262 0.68301 0.24031 0.0
H1248 H 0.60649 0.64588 0.16638 0.0
H1249 H 0.62975 0.60959 0.26616 0.0
H1250 H 0.69958 0.6301 0.22777 0.0
H1251 H 0.51267 0.62856 0.1697 0.0
H1252 H 0.62419 0.72449 0.21972 0.0
H1253 H 0.61912 0.68689 0.1442 0.0
C1254 C 0.40185 0.63693 0.21752 0.0
C1255 C 0.40952 0.6581 0.23238 0.0
N1256 N 0.39247 0.66065 0.25236 0.0
N1257 N 0.3805 0.62573 0.2285 0.0
C1258 C 0.37477 0.64117 0.24924 0.0
H1259 H 0.41247 0.62895 0.20099 0.0
Co1260 Co 0.37056 0.59145 0.22092 0.0
C1261 C 0.33213 0.57438 0.26152 0.0
O1262 O 0.31983 0.56176 0.24277 0.0
N1263 N 0.36186 0.55591 0.21281 0.0
C1264 C 0.34372 0.51834 0.19926 0.0
C1265 C 0.34305 0.54524 0.19723 0.0
C1266 C 0.37396 0.53476 0.22345 0.0
N1267 N 0.36356 0.51189 0.21538 0.0
O1268 O 0.4035 0.58061 0.23552 0.0
H1269 H 0.32869 0.55589 0.18594 0.0
H1270 H 0.39015 0.53574 0.23712 0.0
O1271 O 0.35279 0.58769 0.25568 0.0
C1272 C 0.42126 0.57643 0.21843 0.0
O1273 O 0.41421 0.57603 0.1936 0.0
N1274 N 0.33986 0.60413 0.20495 0.0
C1275 C 0.29716 0.62334 0.17695 0.0
C1276 C 0.29787 0.62538 0.2043 0.0
C1277 C 0.31971 0.61617 0.21795 0.0
C1278 C 0.34035 0.60393 0.17818 0.0
C1279 C 0.31882 0.61285 0.16372 0.0
H1280 H 0.3204 0.61921 0.23886 0.0
H1281 H 0.35724 0.59595 0.16808 0.0
H1282 H 0.35906 0.63736 0.26284 0.0
H1283 H 0.42688 0.67003 0.22946 0.0
H1284 H 0.33111 0.50453 0.18913 0.0
H1285 H 0.28178 0.63432 0.21495 0.0
H1286 H 0.31905 0.61164 0.1425 0.0
C1287 C 0.35274 0.3692 0.21894 0.0
C1288 C 0.33017 0.37861 0.2309 0.0
N1289 N 0.33601 0.38392 0.25614 0.0
N1290 N 0.37232 0.3686 0.23681 0.0
C1291 C 0.36133 0.37748 0.25916 0.0
H1292 H 0.35498 0.36419 0.19843 0.0
Co1293 Co 0.40835 0.36337 0.23488 0.0
C1294 C 0.4205 0.34072 0.28819 0.0
O1295 O 0.44136 0.35519 0.29265 0.0
N1296 N 0.44573 0.35875 0.23456 0.0
C1297 C 0.48712 0.34543 0.22843 0.0
C1298 C 0.46097 0.33889 0.22555 0.0
C1299 C 0.46341 0.37641 0.24389 0.0
N1300 N 0.48836 0.36906 0.24002 0.0
O1301 O 0.41165 0.39696 0.25081 0.0
H1302 H 0.45386 0.32092 0.21684 0.0
H1303 H 0.45857 0.39501 0.25276 0.0
O1304 O 0.40692 0.34402 0.26749 0.0
C1305 C 0.4152 0.41357 0.23239 0.0
O1306 O 0.42798 0.40585 0.21134 0.0
N1307 N 0.4028 0.33217 0.21628 0.0
C1308 C 0.38735 0.2916 0.18315 0.0
C1309 C 0.37951 0.29182 0.20944 0.0
C1310 C 0.38714 0.31249 0.22563 0.0
C1311 C 0.41033 0.33241 0.19059 0.0
C1312 C 0.40331 0.31192 0.17374 0.0
H1313 H 0.37921 0.31328 0.24526 0.0
H1314 H 0.42138 0.3489 0.18305 0.0
H1315 H 0.37205 0.3803 0.27731 0.0
H1316 H 0.31132 0.38205 0.22171 0.0
H1317 H 0.50384 0.33435 0.22142 0.0
H1318 H 0.36669 0.27667 0.21708 0.0
H1319 H 0.40928 0.31245 0.15336 0.0
C1320 C 0.78209 0.63485 0.65029 0.0
C1321 C 0.76917 0.62691 0.67277 0.0
N1322 N 0.74446 0.62043 0.66603 0.0
N1323 N 0.76536 0.63364 0.62975 0.0
C1324 C 0.74262 0.62488 0.64009 0.0
H1325 H 0.80261 0.64014 0.64885 0.0
Co1326 Co 0.77251 0.63711 0.59399 0.0
C1327 C 0.7314 0.674 0.57429 0.0
O1328 O 0.74891 0.68477 0.55886 0.0
N1329 N 0.77991 0.63955 0.55713 0.0
C1330 C 0.79424 0.6512 0.51731 0.0
C1331 C 0.79287 0.65826 0.54326 0.0
C1332 C 0.77382 0.62126 0.53869 0.0
N1333 N 0.78231 0.6279 0.51459 0.0
O1334 O 0.75688 0.60342 0.58879 0.0
H1335 H 0.80051 0.67643 0.551 0.0
H1336 H 0.76378 0.603 0.54254 0.0
O1337 O 0.73848 0.65488 0.58904 0.0
C1338 C 0.77419 0.58616 0.59395 0.0
O1339 O 0.79805 0.59411 0.59978 0.0
N1340 N 0.78979 0.66885 0.60099 0.0
C1341 C 0.82016 0.71168 0.61603 0.0
C1342 C 0.79298 0.71169 0.6202 0.0
C1343 C 0.77812 0.68992 0.61278 0.0
C1344 C 0.81641 0.66802 0.59808 0.0
C1345 C 0.83192 0.68964 0.60462 0.0
H1346 H 0.75749 0.68961 0.61763 0.0
H1347 H 0.82558 0.65049 0.59036 0.0
H1348 H 0.72533 0.62055 0.62864 0.0
H1349 H 0.77742 0.62512 0.69227 0.0
H1350 H 0.80389 0.66194 0.50172 0.0
H1351 H 0.78346 0.72816 0.62971 0.0
H1352 H 0.85296 0.68886 0.60161 0.0
C1353 C 0.7988 0.36403 0.35201 0.0
C1354 C 0.78997 0.37166 0.32747 0.0
N1355 N 0.76425 0.37758 0.32944 0.0
N1356 N 0.77868 0.36538 0.36925 0.0
C1357 C 0.75844 0.37478 0.35492 0.0
H1358 H 0.81843 0.3575 0.35663 0.0
Co1359 Co 0.77417 0.35827 0.40525 0.0
C1360 C 0.73353 0.32576 0.37809 0.0
O1361 O 0.7506 0.32102 0.35932 0.0
N1362 N 0.76872 0.35223 0.44145 0.0
C1363 C 0.75861 0.33389 0.47998 0.0
C1364 C 0.76071 0.32985 0.45334 0.0
C1365 C 0.77109 0.36959 0.46146 0.0
N1366 N 0.76514 0.35894 0.48482 0.0
O1367 O 0.75766 0.39187 0.40736 0.0
H1368 H 0.75665 0.31157 0.44352 0.0
H1369 H 0.77723 0.38972 0.45949 0.0
O1370 O 0.7403 0.34017 0.39764 0.0
C1371 C 0.77622 0.40859 0.40975 0.0
O1372 O 0.79862 0.4003 0.41954 0.0
N1373 N 0.7938 0.32686 0.40269 0.0
C1374 C 0.82916 0.2877 0.38859 0.0
C1375 C 0.80241 0.282 0.39145 0.0
C1376 C 0.78515 0.30166 0.39945 0.0
C1377 C 0.82009 0.33191 0.40308 0.0
C1378 C 0.83825 0.3125 0.3963 0.0
H1379 H 0.76487 0.29643 0.40201 0.0
H1380 H 0.82688 0.35166 0.40697 0.0
H1381 H 0.7389 0.37777 0.36274 0.0
H1382 H 0.80102 0.37106 0.30933 0.0
H1383 H 0.75339 0.31949 0.4947 0.0
H1384 H 0.79478 0.26271 0.38674 0.0
H1385 H 0.85893 0.31734 0.3952 0.0
C1386 C 0.62057 0.77916 0.33737 0.0
C1387 C 0.60954 0.76561 0.31657 0.0
N1388 N 0.60307 0.74151 0.32514 0.0
N1389 N 0.62161 0.7633 0.35862 0.0
C1390 C 0.61029 0.74073 0.35048 0.0
H1391 H 0.62692 0.79942 0.33715 0.0
Co1392 Co 0.62981 0.77148 0.39377 0.0
C1393 C 0.66394 0.72223 0.38492 0.0
O1394 O 0.65822 0.71942 0.36008 0.0
N1395 N 0.63694 0.7791 0.42968 0.0
C1396 C 0.65677 0.78597 0.46828 0.0
C1397 C 0.66018 0.78455 0.44149 0.0
C1398 C 0.61991 0.77691 0.44999 0.0
N1399 N 0.63139 0.78112 0.47336 0.0
O1400 O 0.59834 0.75312 0.40378 0.0
H1401 H 0.67869 0.78697 0.43149 0.0
H1402 H 0.59959 0.77136 0.44823 0.0
O1403 O 0.65324 0.74048 0.39852 0.0
C1404 C 0.58041 0.77036 0.40029 0.0
O1405 O 0.58781 0.79425 0.39386 0.0
N1406 N 0.65861 0.79214 0.38276 0.0
C1407 C 0.69961 0.82497 0.36765 0.0
C1408 C 0.6978 0.79947 0.35772 0.0
C1409 C 0.67694 0.78348 0.36524 0.0
C1410 C 0.65907 0.81764 0.39109 0.0
C1411 C 0.67983 0.83427 0.38429 0.0
H1412 H 0.67558 0.76425 0.35674 0.0
H1413 H 0.64355 0.82494 0.40361 0.0
H1414 H 0.60772 0.72369 0.36286 0.0
H1415 H 0.60657 0.77277 0.29679 0.0
H1416 H 0.67173 0.78974 0.4829 0.0
H1417 H 0.71248 0.79196 0.34429 0.0
H1418 H 0.68046 0.85413 0.39187 0.0
C1419 C 0.20872 0.61682 0.33754 0.0
C1420 C 0.22458 0.60832 0.31725 0.0
N1421 N 0.24977 0.60969 0.32533 0.0
N1422 N 0.22401 0.62421 0.35788 0.0
C1423 C 0.2488 0.6196 0.34977 0.0
H1424 H 0.18748 0.61668 0.33784 0.0
Co1425 Co 0.21572 0.63323 0.39247 0.0
C1426 C 0.246 0.68402 0.39324 0.0
O1427 O 0.22431 0.69756 0.39631 0.0
N1428 N 0.20854 0.64077 0.42816 0.0
C1429 C 0.21048 0.65447 0.46973 0.0
C1430 C 0.21506 0.6611 0.44407 0.0
C1431 C 0.19925 0.62238 0.44488 0.0
N1432 N 0.20092 0.63001 0.4701 0.0
O1433 O 0.23819 0.60457 0.40374 0.0
H1434 H 0.2241 0.67916 0.43843 0.0
H1435 H 0.19245 0.60328 0.43888 0.0
O1436 O 0.24554 0.65881 0.39227 0.0
C1437 C 0.22529 0.58322 0.40097 0.0
O1438 O 0.2008 0.58469 0.39297 0.0
N1439 N 0.19137 0.65941 0.38067 0.0
C1440 C 0.15704 0.69928 0.36558 0.0
C1441 C 0.17894 0.69334 0.35032 0.0
C1442 C 0.19562 0.67315 0.35797 0.0
C1443 C 0.16867 0.66355 0.39446 0.0
C1444 C 0.15141 0.6838 0.38752 0.0
H1445 H 0.21267 0.6696 0.34614 0.0
H1446 H 0.16389 0.65153 0.41124 0.0
H1447 H 0.2659 0.62217 0.36212 0.0
H1448 H 0.21812 0.60013 0.29873 0.0
H1449 H 0.21533 0.66602 0.4869 0.0
H1450 H 0.18357 0.7048 0.33302 0.0
H1451 H 0.13422 0.68767 0.3994 0.0
C1452 C 0.39381 0.2129 0.37152 0.0
C1453 C 0.40414 0.22683 0.35077 0.0
N1454 N 0.39189 0.2502 0.34961 0.0
N1455 N 0.37561 0.22772 0.38384 0.0
C1456 C 0.37415 0.24982 0.36924 0.0
H1457 H 0.40104 0.19428 0.37863 0.0
Co1458 Co 0.36529 0.22348 0.419 0.0
C1459 C 0.34738 0.27812 0.43328 0.0
O1460 O 0.36074 0.28034 0.45516 0.0
N1461 N 0.35544 0.21968 0.45468 0.0
C1462 C 0.33421 0.22452 0.49275 0.0
C1463 C 0.33174 0.22432 0.46579 0.0
C1464 C 0.37173 0.21649 0.47546 0.0
N1465 N 0.35947 0.21971 0.49858 0.0
O1466 O 0.39906 0.23686 0.42895 0.0
H1467 H 0.31404 0.22908 0.45517 0.0
H1468 H 0.39257 0.21325 0.47422 0.0
O1469 O 0.34964 0.25784 0.41889 0.0
C1470 C 0.41521 0.21775 0.43031 0.0
O1471 O 0.40545 0.19388 0.42871 0.0
N1472 N 0.33355 0.20855 0.4076 0.0
C1473 C 0.29454 0.18471 0.37668 0.0
C1474 C 0.29074 0.20971 0.38807 0.0
C1475 C 0.31077 0.22167 0.40245 0.0
C1476 C 0.33567 0.18274 0.40124 0.0
C1477 C 0.31609 0.17025 0.38657 0.0
H1478 H 0.30779 0.24163 0.40885 0.0
H1479 H 0.35326 0.17209 0.40656 0.0
H1480 H 0.36224 0.26652 0.3742 0.0
H1481 H 0.42066 0.22107 0.33871 0.0
H1482 H 0.31899 0.22894 0.50691 0.0
H1483 H 0.27272 0.22061 0.38584 0.0
H1484 H 0.31848 0.14952 0.383 0.0
C1485 C 0.20821 0.38116 0.65304 0.0
C1486 C 0.2195 0.38992 0.67612 0.0
N1487 N 0.24578 0.38979 0.67301 0.0
N1488 N 0.22743 0.37517 0.63583 0.0
C1489 C 0.24992 0.38154 0.6483 0.0
H1490 H 0.18747 0.37837 0.64937 0.0
Co1491 Co 0.22536 0.36221 0.60153 0.0
C1492 C 0.26324 0.31731 0.60516 0.0
O1493 O 0.2451 0.30127 0.59654 0.0
N1494 N 0.22392 0.35031 0.56559 0.0
C1495 C 0.2198 0.32829 0.52769 0.0
C1496 C 0.21815 0.32671 0.55462 0.0
C1497 C 0.22847 0.36583 0.5444 0.0
N1498 N 0.22596 0.35311 0.52141 0.0
O1499 O 0.24422 0.39269 0.59099 0.0
H1500 H 0.21183 0.30943 0.56507 0.0
H1501 H 0.23322 0.38638 0.54523 0.0
O1502 O 0.2585 0.34198 0.60723 0.0
C1503 C 0.22688 0.41062 0.58898 0.0
O1504 O 0.20207 0.40382 0.5914 0.0
N1505 N 0.20416 0.33403 0.61334 0.0
C1506 C 0.17073 0.29463 0.63117 0.0
C1507 C 0.19426 0.2999 0.64426 0.0
C1508 C 0.21047 0.31998 0.63532 0.0
C1509 C 0.18024 0.33055 0.60171 0.0
C1510 C 0.16344 0.31039 0.60987 0.0
H1511 H 0.22823 0.32411 0.64601 0.0
H1512 H 0.17436 0.34314 0.58567 0.0
H1513 H 0.26925 0.37905 0.63984 0.0
H1514 H 0.20938 0.3943 0.69428 0.0
H1515 H 0.21541 0.31284 0.51377 0.0
H1516 H 0.20009 0.28846 0.66121 0.0
H1517 H 0.14503 0.30713 0.59974 0.0
C1518 C 0.59927 0.21618 0.63583 0.0
C1519 C 0.5894 0.23097 0.65623 0.0
N1520 N 0.60469 0.25234 0.65908 0.0
N1521 N 0.62027 0.22856 0.62541 0.0
C1522 C 0.62336 0.25021 0.64047 0.0
H1523 H 0.59024 0.1988 0.62766 0.0
Co1524 Co 0.63353 0.22308 0.59146 0.0
C1525 C 0.66646 0.27097 0.58087 0.0
O1526 O 0.65778 0.27325 0.55671 0.0
N1527 N 0.646 0.21817 0.55653 0.0
C1528 C 0.67095 0.21756 0.52044 0.0
C1529 C 0.67101 0.21743 0.54749 0.0
C1530 C 0.63127 0.21767 0.5344 0.0
N1531 N 0.64583 0.21769 0.51243 0.0
O1532 O 0.60518 0.24458 0.57897 0.0
H1533 H 0.68831 0.2174 0.55961 0.0
H1534 H 0.61016 0.218 0.53378 0.0
O1535 O 0.65745 0.25285 0.59562 0.0
C1536 C 0.58574 0.22917 0.57529 0.0
O1537 O 0.59027 0.20378 0.57683 0.0
N1538 N 0.65965 0.20055 0.60485 0.0
C1539 C 0.69924 0.16783 0.62337 0.0
C1540 C 0.69391 0.19161 0.6359 0.0
C1541 C 0.67392 0.20763 0.62644 0.0
C1542 C 0.66338 0.17652 0.59355 0.0
C1543 C 0.68358 0.15999 0.60217 0.0
H1544 H 0.67069 0.22627 0.63595 0.0
H1545 H 0.65115 0.17044 0.57728 0.0
H1546 H 0.6375 0.26556 0.63657 0.0
H1547 H 0.5716 0.2271 0.66718 0.0
H1548 H 0.68793 0.21762 0.50766 0.0
H1549 H 0.70565 0.19809 0.65242 0.0
H1550 H 0.68712 0.1415 0.59231 0.0
C1551 C 0.39678 0.77213 0.64431 0.0
C1552 C 0.40636 0.75321 0.66101 0.0
N1553 N 0.38963 0.73271 0.66093 0.0
N1554 N 0.37451 0.76328 0.63302 0.0
C1555 C 0.36989 0.73994 0.64486 0.0
H1556 H 0.40729 0.78952 0.63823 0.0
Co1557 Co 0.36401 0.77269 0.59895 0.0
C1558 C 0.3328 0.72573 0.58054 0.0
O1559 O 0.34339 0.72515 0.5571 0.0
N1560 N 0.35392 0.78129 0.56365 0.0
C1561 C 0.33065 0.78899 0.52719 0.0
C1562 C 0.33003 0.78823 0.55418 0.0
C1563 C 0.3687 0.7785 0.54164 0.0
N1564 N 0.35511 0.78298 0.51944 0.0
O1565 O 0.39433 0.75389 0.58642 0.0
H1566 H 0.31299 0.79261 0.56589 0.0
H1567 H 0.38892 0.77244 0.54128 0.0
O1568 O 0.34061 0.74245 0.59741 0.0
C1569 C 0.41274 0.77093 0.58495 0.0
O1570 O 0.40629 0.79581 0.58742 0.0
N1571 N 0.33655 0.7928 0.61295 0.0
C1572 C 0.29686 0.82373 0.634 0.0
C1573 C 0.29947 0.79747 0.64147 0.0
C1574 C 0.31951 0.78236 0.63081 0.0
C1575 C 0.33543 0.81886 0.60684 0.0
C1576 C 0.31519 0.83463 0.61663 0.0
H1577 H 0.32098 0.76209 0.63674 0.0
H1578 H 0.34985 0.82723 0.59369 0.0
H1579 H 0.35408 0.72681 0.63955 0.0
H1580 H 0.42533 0.75349 0.6706 0.0
H1581 H 0.31455 0.79399 0.51425 0.0
H1582 H 0.28577 0.78859 0.6551 0.0
H1583 H 0.31379 0.85499 0.61072 0.0
C1584 C 0.10817 0.26654 0.01386 0.0
C1585 C 0.12805 0.28452 0.00637 0.0
C1586 C 0.12615 0.30504 0.04956 0.0
C1587 C 0.10381 0.28948 0.05596 0.0
N1588 N 0.07162 0.25723 0.0429 0.0
N1589 N 0.15247 0.32394 0.0149 0.0
C1590 C 0.09429 0.27062 0.03777 0.0
C1591 C 0.13602 0.30465 0.02361 0.0
N1592 N 0.10331 0.24508 0.99856 0.0
N1593 N 0.13898 0.31906 0.06852 0.0
H1594 H 0.15962 0.32449 0.99572 0.0
H1595 H 0.15685 0.34066 0.02584 0.0
H1596 H 0.13352 0.31895 0.08819 0.0
H1597 H 0.15689 0.32841 0.06527 0.0
H1598 H 0.09084 0.22987 0.00414 0.0
H1599 H 0.11364 0.24131 0.98129 0.0
H1600 H 0.06226 0.24531 0.02916 0.0
H1601 H 0.061 0.25965 0.0602 0.0
C1602 C 0.74795 0.10202 0.04749 0.0
C1603 C 0.72611 0.09849 0.06441 0.0
C1604 C 0.69744 0.11961 0.03228 0.0
C1605 C 0.7193 0.12491 0.01606 0.0
N1606 N 0.76623 0.12619 0.01064 0.0
N1607 N 0.68251 0.11305 0.07658 0.0
C1608 C 0.74491 0.11758 0.02438 0.0
C1609 C 0.70163 0.11021 0.05798 0.0
N1610 N 0.77122 0.08991 0.05297 0.0
N1611 N 0.67251 0.12199 0.02268 0.0
H1612 H 0.68523 0.10785 0.09617 0.0
H1613 H 0.66526 0.12355 0.07319 0.0
H1614 H 0.66854 0.12675 0.0032 0.0
H1615 H 0.65599 0.11606 0.0332 0.0
H1616 H 0.78699 0.08954 0.03997 0.0
H1617 H 0.77415 0.07871 0.06985 0.0
H1618 H 0.78549 0.12356 0.01699 0.0
H1619 H 0.76451 0.13832 0.99424 0.0
C1620 C 0.91897 0.7157 0.03674 0.0
C1621 C 0.90833 0.7348 0.05383 0.0
C1622 C 0.88248 0.75306 0.0177 0.0
C1623 C 0.8888 0.73055 0.00267 0.0
N1624 N 0.91418 0.69134 0.99617 0.0
N1625 N 0.88938 0.77788 0.05804 0.0
C1626 C 0.90792 0.71245 0.01146 0.0
C1627 C 0.89319 0.75572 0.04346 0.0
N1628 N 0.93964 0.70079 0.04508 0.0
N1629 N 0.86525 0.77096 0.00765 0.0
H1630 H 0.89858 0.78089 0.07603 0.0
H1631 H 0.87925 0.79432 0.05147 0.0
H1632 H 0.85745 0.76918 0.98879 0.0
H1633 H 0.85811 0.78709 0.01789 0.0
H1634 H 0.94979 0.68767 0.03316 0.0
H1635 H 0.94819 0.70361 0.06349 0.0
H1636 H 0.92591 0.67583 0.00243 0.0
H1637 H 0.90642 0.68866 0.97743 0.0
C1638 C 0.25914 0.87905 0.0179 0.0
C1639 C 0.2809 0.88658 0.00232 0.0
C1640 C 0.29358 0.91937 0.03509 0.0
C1641 C 0.27478 0.90866 0.05256 0.0
N1642 N 0.23351 0.88611 0.05763 0.0
N1643 N 0.31713 0.91542 0.99377 0.0
C1644 C 0.2554 0.89104 0.04298 0.0
C1645 C 0.29732 0.90761 0.01006 0.0
N1646 N 0.24295 0.85958 0.00904 0.0
N1647 N 0.30752 0.94101 0.04269 0.0
H1648 H 0.31958 0.9076 0.97501 0.0
H1649 H 0.33157 0.92893 0.99885 0.0
H1650 H 0.30414 0.95028 0.06066 0.0
H1651 H 0.32065 0.95106 0.03073 0.0
H1652 H 0.22749 0.85165 0.01971 0.0
H1653 H 0.24552 0.85067 0.99079 0.0
H1654 H 0.21798 0.87435 0.05152 0.0
H1655 H 0.22952 0.89596 0.07505 0.0
C1656 C 0.13775 0.69008 0.98214 0.0
C1657 C 0.12696 0.70867 0.99958 0.0
C1658 C 0.09567 0.72246 0.96559 0.0
C1659 C 0.10856 0.70583 0.94737 0.0
N1660 N 0.14637 0.6789 0.93703 0.0
N1661 N 0.09867 0.74583 0.00698 0.0
C1662 C 0.13084 0.69097 0.95528 0.0
C1663 C 0.10661 0.72574 0.99113 0.0
N1664 N 0.15433 0.67121 0.99148 0.0
N1665 N 0.07274 0.73457 0.95875 0.0
H1666 H 0.10675 0.74917 0.02548 0.0
H1667 H 0.08578 0.76049 0.00091 0.0
H1668 H 0.06426 0.73257 0.94021 0.0
H1669 H 0.06107 0.74478 0.97207 0.0
H1670 H 0.16093 0.65553 0.98012 0.0
H1671 H 0.15923 0.66976 0.01132 0.0
H1672 H 0.16427 0.67015 0.94167 0.0
H1673 H 0.14304 0.68013 0.9169 0.0
C1674 C 0.25508 0.10835 0.95725 0.0
C1675 C 0.27804 0.10341 0.94228 0.0
C1676 C 0.30427 0.12872 0.97339 0.0
C1677 C 0.28124 0.13539 0.9874 0.0
N1678 N 0.23414 0.136 0.98999 0.0
N1679 N 0.32219 0.11737 0.93124 0.0
C1680 C 0.25639 0.12649 0.97849 0.0
C1681 C 0.30192 0.11627 0.94877 0.0
N1682 N 0.23239 0.0951 0.95184 0.0
N1683 N 0.3285 0.13247 0.98427 0.0
H1684 H 0.3209 0.10996 0.91221 0.0
H1685 H 0.33901 0.12859 0.9345 0.0
H1686 H 0.33129 0.13939 0.00329 0.0
H1687 H 0.3457 0.12559 0.97556 0.0
H1688 H 0.21582 0.09593 0.96377 0.0
H1689 H 0.23074 0.08175 0.93642 0.0
H1690 H 0.21532 0.13223 0.98291 0.0
H1691 H 0.23473 0.14986 0.00507 0.0
C1692 C 0.868 0.29228 0.97388 0.0
C1693 C 0.87351 0.2714 0.99111 0.0
C1694 C 0.90468 0.25296 0.9594 0.0
C1695 C 0.89733 0.27271 0.94118 0.0
N1696 N 0.86619 0.30672 0.92903 0.0
N1697 N 0.89339 0.22945 0.99929 0.0
C1698 C 0.87738 0.29117 0.94782 0.0
C1699 C 0.89081 0.25098 0.98358 0.0
N1700 N 0.85437 0.31361 0.9827 0.0
N1701 N 0.92549 0.23688 0.95415 0.0
H1702 H 0.88329 0.22757 0.01698 0.0
H1703 H 0.90369 0.21267 0.99379 0.0
H1704 H 0.93631 0.23799 0.93682 0.0
H1705 H 0.93337 0.22391 0.96784 0.0
H1706 H 0.85216 0.33074 0.97176 0.0
H1707 H 0.84758 0.3152 0.00195 0.0
H1708 H 0.84972 0.31833 0.93252 0.0
H1709 H 0.87116 0.30583 0.90926 0.0
C1710 C 0.7019 0.90428 0.98465 0.0
C1711 C 0.71713 0.8828 0.99368 0.0
C1712 C 0.74406 0.88521 0.95384 0.0
C1713 C 0.72522 0.90231 0.94265 0.0
N1714 N 0.68837 0.93132 0.94783 0.0
N1715 N 0.75346 0.85327 0.988 0.0
C1716 C 0.70505 0.91316 0.95843 0.0
C1717 C 0.73882 0.87373 0.9788 0.0
N1718 N 0.68476 0.91634 0.00135 0.0
N1719 N 0.7667 0.87995 0.94056 0.0
H1720 H 0.74959 0.84412 0.00588 0.0
H1721 H 0.76845 0.84434 0.97742 0.0
H1722 H 0.77122 0.88904 0.92284 0.0
H1723 H 0.78213 0.86897 0.94823 0.0
H1724 H 0.67478 0.9336 0.99694 0.0
H1725 H 0.68203 0.91022 0.02064 0.0
H1726 H 0.67116 0.93767 0.95681 0.0
H1727 H 0.69157 0.93959 0.92937 0.0
C1728 C 0.05199 0.11074 0.24086 0.0
C1729 C 0.06213 0.09366 0.26038 0.0
C1730 C 0.01986 0.09383 0.28325 0.0
C1731 C 0.01143 0.11433 0.26658 0.0
N1732 N 0.01611 0.13956 0.22725 0.0
N1733 N 0.05324 0.06128 0.29333 0.0
C1734 C 0.02638 0.12165 0.24434 0.0
C1735 C 0.045 0.08252 0.27922 0.0
N1736 N 0.0669 0.11646 0.21937 0.0
N1737 N 0.00439 0.08646 0.30387 0.0
H1738 H 0.07156 0.05273 0.29018 0.0
H1739 H 0.0414 0.05081 0.30625 0.0
H1740 H 0.98568 0.09419 0.3069 0.0
H1741 H 0.01029 0.07357 0.31856 0.0
H1742 H 0.06147 0.12943 0.20461 0.0
H1743 H 0.0842 0.10641 0.21528 0.0
H1744 H 0.02575 0.14669 0.21076 0.0
H1745 H 0.99733 0.14739 0.2297 0.0
C1746 C 0.87323 0.02402 0.25825 0.0
C1747 C 0.87754 0.00863 0.28097 0.0
C1748 C 0.91235 0.03849 0.29494 0.0
C1749 C 0.90431 0.05666 0.27552 0.0
N1750 N 0.88166 0.06449 0.23456 0.0
N1751 N 0.90103 0.00037 0.321 0.0
C1752 C 0.88633 0.04866 0.25565 0.0
C1753 C 0.89735 0.01546 0.29916 0.0
N1754 N 0.85709 0.01453 0.23902 0.0
N1755 N 0.9347 0.04332 0.30898 0.0
H1756 H 0.89014 0.98341 0.32464 0.0
H1757 H 0.9134 0.00564 0.3364 0.0
H1758 H 0.94647 0.05969 0.30525 0.0
H1759 H 0.94297 0.02998 0.32206 0.0
H1760 H 0.85441 0.02338 0.22084 0.0
H1761 H 0.8471 0.99674 0.24087 0.0
H1762 H 0.86618 0.06192 0.22149 0.0
H1763 H 0.89404 0.07986 0.22938 0.0
C1764 C 0.97834 0.89232 0.25213 0.0
C1765 C 0.99299 0.89153 0.27579 0.0
C1766 C 0.95985 0.9186 0.29733 0.0
C1767 C 0.94296 0.91439 0.27566 0.0
N1768 N 0.94183 0.91202 0.22862 0.0
N1769 N 0.99881 0.9046 0.32077 0.0
C1770 C 0.95381 0.90567 0.25169 0.0
C1771 C 0.98436 0.90545 0.29821 0.0
N1772 N 0.98751 0.87954 0.23047 0.0
N1773 N 0.95263 0.93598 0.3164 0.0
H1774 H 0.0168 0.8949 0.32201 0.0
H1775 H 0.99222 0.91196 0.33865 0.0
H1776 H 0.93551 0.94716 0.3148 0.0
H1777 H 0.96479 0.94154 0.33187 0.0
H1778 H 0.97641 0.87681 0.21351 0.0
H1779 H 0.00584 0.87044 0.23011 0.0
H1780 H 0.94999 0.90814 0.2103 0.0
H1781 H 0.92539 0.92419 0.22792 0.0
C1782 C 0.12727 0.95248 0.29768 0.0
C1783 C 0.10901 0.94518 0.27781 0.0
C1784 C 0.11736 0.98734 0.25612 0.0
C1785 C 0.13179 0.996 0.27841 0.0
N1786 N 0.14415 0.98841 0.32341 0.0
N1787 N 0.08367 0.95794 0.23978 0.0
C1788 C 0.1349 0.97903 0.30008 0.0
C1789 C 0.10323 0.9632 0.25735 0.0
N1790 N 0.13854 0.93401 0.31351 0.0
N1791 N 0.11794 0.0016 0.23349 0.0
H1792 H 0.07235 0.94091 0.24045 0.0
H1793 H 0.07707 0.97165 0.22611 0.0
H1794 H 0.12901 0.01867 0.23158 0.0
H1795 H 0.10976 0.99498 0.21594 0.0
H1796 H 0.15355 0.93847 0.32672 0.0
H1797 H 0.13558 0.91394 0.31105 0.0
H1798 H 0.14465 0.97704 0.34042 0.0
H1799 H 0.14822 0.00822 0.32654 0.0
C1800 C 0.01011 0.89575 0.69899 0.0
C1801 C 0.99812 0.88048 0.71875 0.0
C1802 C 0.0384 0.88208 0.7452 0.0
C1803 C 0.05089 0.89619 0.72459 0.0
N1804 N 0.04619 0.92433 0.68698 0.0
N1805 N 0.99753 0.86521 0.76321 0.0
C1806 C 0.03581 0.90566 0.70317 0.0
C1807 C 0.01129 0.87562 0.74273 0.0
N1808 N 0.99747 0.89951 0.67565 0.0
N1809 N 0.05247 0.87393 0.76649 0.0
H1810 H 0.97763 0.86077 0.76166 0.0
H1811 H 0.00497 0.86315 0.78212 0.0
H1812 H 0.07154 0.88003 0.77029 0.0
H1813 H 0.04543 0.86067 0.78033 0.0
H1814 H 0.00631 0.90807 0.65934 0.0
H1815 H 0.97868 0.89224 0.67196 0.0
H1816 H 0.0355 0.93376 0.67233 0.0
H1817 H 0.06481 0.93229 0.69012 0.0
C1818 C 0.08015 0.03571 0.71538 0.0
C1819 C 0.09345 0.05301 0.73262 0.0
C1820 C 0.12156 0.01692 0.74759 0.0
C1821 C 0.11107 0.001 0.72736 0.0
N1822 N 0.07947 0.99343 0.69329 0.0
N1823 N 0.11967 0.05816 0.77162 0.0
C1824 C 0.08963 0.00972 0.71201 0.0
C1825 C 0.11185 0.04297 0.75098 0.0
N1826 N 0.05828 0.04445 0.70255 0.0
N1827 N 0.1417 0.00736 0.7625 0.0
H1828 H 0.11134 0.07637 0.77553 0.0
H1829 H 0.13227 0.05189 0.7864 0.0
H1830 H 0.1487 0.98824 0.76038 0.0
H1831 H 0.15207 0.0183 0.77627 0.0
H1832 H 0.04636 0.03279 0.69075 0.0
H1833 H 0.05081 0.06326 0.7057 0.0
H1834 H 0.06547 0.99903 0.67953 0.0
H1835 H 0.08592 0.97416 0.69094 0.0
C1836 C 0.97425 0.12126 0.75531 0.0
C1837 C 0.98982 0.11263 0.73399 0.0
C1838 C 0.95708 0.07939 0.72318 0.0
C1839 C 0.93905 0.09216 0.73994 0.0
N1840 N 0.93212 0.11954 0.77786 0.0
N1841 N 0.99735 0.08292 0.69817 0.0
C1842 C 0.94826 0.11111 0.75824 0.0
C1843 C 0.98186 0.09108 0.71844 0.0
N1844 N 0.98446 0.13931 0.77232 0.0
N1845 N 0.95002 0.05629 0.71157 0.0
H1846 H 0.0156 0.09132 0.69424 0.0
H1847 H 0.99152 0.06904 0.68434 0.0
H1848 H 0.93197 0.04743 0.71552 0.0
H1849 H 0.96278 0.04481 0.70048 0.0
H1850 H 0.97495 0.1461 0.78904 0.0
H1851 H 0.00334 0.14694 0.77002 0.0
H1852 H 0.93617 0.1353 0.79018 0.0
H1853 H 0.91484 0.10972 0.78263 0.0
C1854 C 0.88032 0.98872 0.74721 0.0
C1855 C 0.86253 0.99784 0.7279 0.0
C1856 C 0.86596 0.95634 0.70443 0.0
C1857 C 0.8864 0.94825 0.72183 0.0
N1858 N 0.91484 0.95783 0.7585 0.0
N1859 N 0.84156 0.9927 0.68607 0.0
C1860 C 0.89395 0.96463 0.74309 0.0
C1861 C 0.85616 0.98226 0.706 0.0
N1862 N 0.88384 0.00308 0.76956 0.0
N1863 N 0.85506 0.93908 0.68699 0.0
H1864 H 0.83406 0.01174 0.68662 0.0
H1865 H 0.83889 0.98338 0.66805 0.0
H1866 H 0.86111 0.91973 0.68495 0.0
H1867 H 0.83812 0.94319 0.67629 0.0
H1868 H 0.89463 0.99652 0.78563 0.0
H1869 H 0.87407 0.02079 0.77281 0.0
H1870 H 0.92296 0.97021 0.77259 0.0
H1871 H 0.92541 0.94051 0.75588 0.0
C1872 C 0.262 0.04927 0.08537 0.0
C1873 C 0.28505 0.06494 0.08685 0.0
C1874 C 0.30829 0.02853 0.10763 0.0
C1875 C 0.28449 0.01464 0.11013 0.0
N1876 N 0.2376 0.013 0.1044 0.0
N1877 N 0.32783 0.07134 0.10716 0.0
C1878 C 0.26097 0.02523 0.09967 0.0
C1879 C 0.30766 0.05511 0.10002 0.0
N1880 N 0.24139 0.05704 0.07008 0.0
N1881 N 0.3316 0.01619 0.11236 0.0
H1882 H 0.32742 0.09162 0.1047 0.0
H1883 H 0.34347 0.06506 0.11878 0.0
H1884 H 0.33269 0.99624 0.11688 0.0
H1885 H 0.34972 0.025 0.10872 0.0
H1886 H 0.22507 0.04525 0.0665 0.0
H1887 H 0.2417 0.07429 0.05906 0.0
H1888 H 0.21951 0.0211 0.09939 0.0
H1889 H 0.23623 0.99576 0.11532 0.0
C1890 C 0.25835 0.97784 0.8701 0.0
C1891 C 0.28 0.99385 0.87693 0.0
C1892 C 0.29669 0.95971 0.90633 0.0
C1893 C 0.27729 0.94235 0.89657 0.0
N1894 N 0.23443 0.93714 0.87719 0.0
N1895 N 0.31872 0.00188 0.90266 0.0
C1896 C 0.25631 0.95214 0.881 0.0
C1897 C 0.29862 0.98546 0.89581 0.0
N1898 N 0.24042 0.98712 0.85243 0.0
N1899 N 0.31284 0.95138 0.92608 0.0
H1900 H 0.32006 0.02112 0.89583 0.0
H1901 H 0.33457 0.99641 0.9143 0.0
H1902 H 0.31084 0.93283 0.93456 0.0
H1903 H 0.32654 0.96318 0.93558 0.0
H1904 H 0.22507 0.9761 0.84471 0.0
H1905 H 0.24158 0.00602 0.84463 0.0
H1906 H 0.21803 0.94312 0.86662 0.0
H1907 H 0.23142 0.91961 0.88714 0.0
C1908 C 0.04167 0.28561 0.91487 0.0
C1909 C 0.06006 0.26689 0.90581 0.0
C1910 C 0.02609 0.24801 0.87728 0.0
C1911 C 0.01033 0.27048 0.88195 0.0
N1912 N 0.00308 0.31127 0.90462 0.0
N1913 N 0.06807 0.22609 0.88319 0.0
C1914 C 0.01786 0.2892 0.901 0.0
C1915 C 0.05166 0.24651 0.8887 0.0
N1916 N 0.04729 0.30001 0.93676 0.0
N1917 N 0.01621 0.22803 0.86237 0.0
H1918 H 0.08462 0.22206 0.89446 0.0
H1919 H 0.06499 0.21269 0.86809 0.0
H1920 H 0.99754 0.22884 0.85403 0.0
H1921 H 0.02561 0.21017 0.85939 0.0
H1922 H 0.0339 0.31259 0.94571 0.0
H1923 H 0.06444 0.29693 0.94752 0.0
H1924 H 0.009 0.32694 0.91635 0.0
H1925 H 0.98592 0.31497 0.8941 0.0
C1926 C 0.73393 0.02193 0.89225 0.0
C1927 C 0.70994 0.00777 0.89272 0.0
C1928 C 0.69145 0.04023 0.923 0.0
C1929 C 0.7135 0.05666 0.91841 0.0
N1930 N 0.7603 0.0563 0.91215 0.0
N1931 N 0.6668 0.00128 0.91047 0.0
C1932 C 0.7363 0.04553 0.90707 0.0
C1933 C 0.68907 0.01615 0.90901 0.0
N1934 N 0.75399 0.01339 0.87672 0.0
N1935 N 0.67381 0.0471 0.94197 0.0
H1936 H 0.66525 0.98294 0.90148 0.0
H1937 H 0.6496 0.00741 0.91962 0.0
H1938 H 0.67685 0.06332 0.95414 0.0
H1939 H 0.65805 0.03545 0.94771 0.0
H1940 H 0.77105 0.02413 0.87342 0.0
H1941 H 0.75278 0.99618 0.86576 0.0
H1942 H 0.77791 0.04776 0.90626 0.0
H1943 H 0.76277 0.07161 0.9255 0.0
C1944 C 0.9943 0.70166 0.90924 0.0
C1945 C 0.0033 0.71394 0.88607 0.0
C1946 C 0.96363 0.74093 0.88475 0.0
C1947 C 0.95209 0.72422 0.90373 0.0
N1948 N 0.9573 0.69194 0.9377 0.0
N1949 N 0.99712 0.74492 0.85122 0.0
C1950 C 0.96793 0.7058 0.91739 0.0
C1951 C 0.98832 0.73388 0.87394 0.0
N1952 N 0.0111 0.68611 0.92317 0.0
N1953 N 0.95131 0.76349 0.87728 0.0
H1954 H 0.01483 0.73933 0.84266 0.0
H1955 H 0.98606 0.7579 0.83995 0.0
H1956 H 0.93396 0.76995 0.88589 0.0
H1957 H 0.96006 0.77746 0.8652 0.0
H1958 H 0.00663 0.67787 0.9413 0.0
H1959 H 0.0305 0.68301 0.91733 0.0
H1960 H 0.96647 0.67617 0.94688 0.0
H1961 H 0.93872 0.69629 0.94511 0.0
C1962 C 0.74793 0.9579 0.10633 0.0
C1963 C 0.7242 0.94561 0.09832 0.0
C1964 C 0.69904 0.98106 0.11846 0.0
C1965 C 0.72235 0.99145 0.12937 0.0
N1966 N 0.76871 0.98776 0.13718 0.0
N1967 N 0.67702 0.94177 0.10454 0.0
C1968 C 0.74678 0.97919 0.1244 0.0
C1969 C 0.69967 0.95604 0.10666 0.0
N1970 N 0.77133 0.9502 0.09578 0.0
N1971 N 0.67649 0.99557 0.1181 0.0
H1972 H 0.67653 0.92228 0.09834 0.0
H1973 H 0.65923 0.94808 0.11245 0.0
H1974 H 0.67555 0.01485 0.12486 0.0
H1975 H 0.65964 0.98956 0.10814 0.0
H1976 H 0.78888 0.9602 0.09905 0.0
H1977 H 0.77286 0.93504 0.08211 0.0
H1978 H 0.78668 0.97803 0.13628 0.0
H1979 H 0.76818 0.00332 0.15051 0.0
C1980 C 0.04767 0.75302 0.11169 0.0
C1981 C 0.05659 0.73356 0.09388 0.0
C1982 C 0.01441 0.71082 0.09648 0.0
C1983 C 0.0066 0.72819 0.11666 0.0
N1984 N 0.01156 0.7697 0.13833 0.0
N1985 N 0.04482 0.70221 0.06088 0.0
C1986 C 0.02195 0.75065 0.12261 0.0
C1987 C 0.03848 0.71535 0.08332 0.0
N1988 N 0.06386 0.77327 0.11841 0.0
N1989 N 0.9996 0.68913 0.09104 0.0
H1990 H 0.06222 0.70614 0.05082 0.0
H1991 H 0.03186 0.68991 0.05091 0.0
H1992 H 0.98215 0.68491 0.10086 0.0
H1993 H 0.00557 0.67433 0.07827 0.0
H1994 H 0.06009 0.78647 0.13351 0.0
H1995 H 0.08103 0.7773 0.1081 0.0
H1996 H 0.02059 0.78761 0.14216 0.0
H1997 H 0.99286 0.76806 0.14652 0.0
C1998 C 0.96975 0.31261 0.12125 0.0
C1999 C 0.99023 0.29616 0.11252 0.0
C2000 C 0.95772 0.27088 0.0869 0.0
C2001 C 0.93717 0.28449 0.09999 0.0
N2002 N 0.92471 0.31502 0.13433 0.0
N2003 N 0.00323 0.27293 0.07353 0.0
C2004 C 0.94353 0.30439 0.11849 0.0
C2005 C 0.98443 0.27833 0.09175 0.0
N2006 N 0.97522 0.33751 0.12946 0.0
N2007 N 0.95186 0.25143 0.06941 0.0
H2008 H 0.01967 0.28496 0.07164 0.0
H2009 H 0.00026 0.2609 0.05728 0.0
H2010 H 0.93269 0.24657 0.06416 0.0
H2011 H 0.96598 0.23893 0.06153 0.0
H2012 H 0.96064 0.35117 0.13396 0.0
H2013 H 0.99408 0.34544 0.128 0.0
H2014 H 0.92918 0.32792 0.1496 0.0
H2015 H 0.9053 0.30871 0.13425 0.0
C2016 C 0.59007 0.79873 0.53179 0.0
C2017 C 0.5972 0.77845 0.54948 0.0
C2018 C 0.62218 0.75686 0.51427 0.0
C2019 C 0.6189 0.77958 0.49861 0.0
N2020 N 0.6002 0.82225 0.49169 0.0
N2021 N 0.61591 0.7354 0.55631 0.0
C2022 C 0.60261 0.80037 0.507 0.0
C2023 C 0.61173 0.75642 0.54025 0.0
N2024 N 0.5709 0.81613 0.53879 0.0
N2025 N 0.63488 0.73565 0.50385 0.0
H2026 H 0.60519 0.73228 0.57335 0.0
H2027 H 0.6294 0.72056 0.55254 0.0
H2028 H 0.64256 0.73571 0.48488 0.0
H2029 H 0.63663 0.71756 0.51311 0.0
H2030 H 0.56306 0.83008 0.5261 0.0
H2031 H 0.56096 0.81471 0.55663 0.0
H2032 H 0.59087 0.83936 0.49779 0.0
H2033 H 0.60926 0.82395 0.47341 0.0
C2034 C 0.17544 0.61685 0.5085 0.0
C2035 C 0.19815 0.61406 0.49309 0.0
C2036 C 0.21729 0.58464 0.52588 0.0
C2037 C 0.19643 0.59087 0.54324 0.0
N2038 N 0.15697 0.6164 0.55197 0.0
N2039 N 0.24196 0.59746 0.48729 0.0
C2040 C 0.17556 0.60758 0.53473 0.0
C2041 C 0.21939 0.59834 0.50171 0.0
N2042 N 0.15387 0.62879 0.49797 0.0
N2043 N 0.23467 0.56523 0.53224 0.0
H2044 H 0.2439 0.60698 0.46928 0.0
H2045 H 0.25922 0.58876 0.49394 0.0
H2046 H 0.23317 0.5543 0.54948 0.0
H2047 H 0.24887 0.55821 0.51932 0.0
H2048 H 0.13561 0.62915 0.50715 0.0
H2049 H 0.15374 0.63617 0.47885 0.0
H2050 H 0.14339 0.63095 0.5473 0.0
H2051 H 0.15632 0.61134 0.57171 0.0
C2052 C 0.3665 0.20054 0.54242 0.0
C2053 C 0.37188 0.22044 0.52397 0.0
C2054 C 0.40632 0.23819 0.55266 0.0
C2055 C 0.39963 0.21935 0.572 0.0
N2056 N 0.36813 0.18736 0.58783 0.0
N2057 N 0.39252 0.26158 0.51365 0.0
C2058 C 0.37826 0.2018 0.56762 0.0
C2059 C 0.39051 0.24032 0.52976 0.0
N2060 N 0.35084 0.17989 0.53553 0.0
N2061 N 0.42835 0.25323 0.55555 0.0
H2062 H 0.38063 0.26385 0.4972 0.0
H2063 H 0.40393 0.27799 0.51801 0.0
H2064 H 0.44072 0.25184 0.5718 0.0
H2065 H 0.43566 0.26534 0.5408 0.0
H2066 H 0.34851 0.16327 0.54721 0.0
H2067 H 0.34207 0.17834 0.5171 0.0
H2068 H 0.35093 0.17641 0.5862 0.0
H2069 H 0.37502 0.18862 0.60702 0.0
C2070 C 0.79461 0.37544 0.55019 0.0
C2071 C 0.77848 0.39688 0.55806 0.0
C2072 C 0.75107 0.39031 0.51898 0.0
C2073 C 0.769 0.3711 0.50996 0.0
N2074 N 0.81025 0.34867 0.51425 0.0
N2075 N 0.74274 0.42652 0.54887 0.0
C2076 C 0.79143 0.36458 0.52483 0.0
C2077 C 0.75693 0.40476 0.54222 0.0
N2078 N 0.81214 0.36449 0.56732 0.0
N2079 N 0.72829 0.39428 0.50543 0.0
H2080 H 0.74666 0.43762 0.56563 0.0
H2081 H 0.7284 0.43476 0.53686 0.0
H2082 H 0.72383 0.38395 0.4883 0.0
H2083 H 0.71307 0.40615 0.51212 0.0
H2084 H 0.82204 0.347 0.56351 0.0
H2085 H 0.81495 0.37117 0.5864 0.0
H2086 H 0.82851 0.34561 0.52296 0.0
H2087 H 0.8086 0.34045 0.49558 0.0
C2088 C 0.61833 0.23834 0.47813 0.0
C2089 C 0.63577 0.2181 0.48601 0.0
C2090 C 0.63202 0.19837 0.44263 0.0
C2091 C 0.61069 0.2154 0.43657 0.0
N2092 N 0.58185 0.25055 0.45018 0.0
N2093 N 0.6555 0.17606 0.47716 0.0
C2094 C 0.60349 0.23536 0.45463 0.0
C2095 C 0.64176 0.19742 0.4686 0.0
N2096 N 0.61639 0.26059 0.49292 0.0
N2097 N 0.64366 0.18367 0.42348 0.0
H2098 H 0.66192 0.17397 0.49646 0.0
H2099 H 0.65804 0.15924 0.46579 0.0
H2100 H 0.63823 0.18476 0.40383 0.0
H2101 H 0.66077 0.17288 0.42663 0.0
H2102 H 0.60572 0.27702 0.48706 0.0
H2103 H 0.62775 0.26358 0.5097 0.0
H2104 H 0.57423 0.26343 0.46411 0.0
H2105 H 0.57016 0.24876 0.4335 0.0
C2106 C 0.80829 0.5946 0.45501 0.0
C2107 C 0.78482 0.58565 0.44249 0.0
C2108 C 0.75908 0.60517 0.47829 0.0
C2109 C 0.78264 0.61164 0.49151 0.0
N2110 N 0.82901 0.60482 0.49645 0.0
N2111 N 0.73823 0.57708 0.44607 0.0
C2112 C 0.80701 0.60365 0.48119 0.0
C2113 C 0.76025 0.58931 0.4553 0.0
N2114 N 0.83144 0.59689 0.44161 0.0
N2115 N 0.73577 0.61494 0.48713 0.0
H2116 H 0.73856 0.56416 0.43019 0.0
H2117 H 0.7203 0.57748 0.4559 0.0
H2118 H 0.73445 0.62674 0.50381 0.0
H2119 H 0.71825 0.61315 0.47671 0.0
H2120 H 0.84813 0.60547 0.44981 0.0
H2121 H 0.83339 0.59394 0.42153 0.0
H2122 H 0.84699 0.59702 0.49055 0.0
H2123 H 0.82845 0.61082 0.51603 0.0
C2124 C 0.36265 0.80528 0.47707 0.0
C2125 C 0.36538 0.78278 0.49301 0.0
C2126 C 0.39236 0.76208 0.45877 0.0
C2127 C 0.38734 0.7837 0.44196 0.0
N2128 N 0.35939 0.82116 0.43278 0.0
N2129 N 0.37742 0.73718 0.49641 0.0
C2130 C 0.36995 0.80389 0.45036 0.0
C2131 C 0.37866 0.76035 0.48308 0.0
N2132 N 0.35436 0.82848 0.48761 0.0
N2133 N 0.41084 0.74382 0.45219 0.0
H2134 H 0.36655 0.73507 0.51356 0.0
H2135 H 0.38474 0.71959 0.48897 0.0
H2136 H 0.42166 0.74468 0.43486 0.0
H2137 H 0.41705 0.72917 0.46503 0.0
H2138 H 0.35431 0.84601 0.47706 0.0
H2139 H 0.35059 0.83086 0.50757 0.0
H2140 H 0.34491 0.83468 0.43793 0.0
H2141 H 0.36249 0.81984 0.41263 0.0
C2142 C 0.20393 0.36356 0.47937 0.0
C2143 C 0.22633 0.36506 0.49572 0.0
C2144 C 0.24701 0.39526 0.46428 0.0
C2145 C 0.22533 0.39191 0.44708 0.0
N2146 N 0.18843 0.36446 0.43478 0.0
N2147 N 0.27165 0.3773 0.50093 0.0
C2148 C 0.20536 0.37351 0.45353 0.0
C2149 C 0.24868 0.37941 0.48729 0.0
N2150 N 0.18076 0.35398 0.48884 0.0
N2151 N 0.2654 0.41411 0.45929 0.0
H2152 H 0.27355 0.36515 0.5173 0.0
H2153 H 0.28928 0.38541 0.49449 0.0
H2154 H 0.2646 0.4263 0.44287 0.0
H2155 H 0.28016 0.4191 0.47254 0.0
H2156 H 0.16332 0.35472 0.47813 0.0
H2157 H 0.17822 0.34828 0.5083 0.0
H2158 H 0.17505 0.34938 0.43834 0.0
H2159 H 0.19002 0.36945 0.41501 0.0
C2160 C 0.50692 0.60221 0.79629 0.0
C2161 C 0.49876 0.61941 0.77614 0.0
C2162 C 0.54075 0.61348 0.75336 0.0
C2163 C 0.55055 0.60021 0.77581 0.0
N2164 N 0.54137 0.57425 0.81404 0.0
N2165 N 0.50698 0.64196 0.7356 0.0
C2166 C 0.53297 0.5921 0.79586 0.0
C2167 C 0.51532 0.62491 0.7545 0.0
N2168 N 0.48995 0.59668 0.8163 0.0
N2169 N 0.55516 0.61437 0.73078 0.0
H2170 H 0.48836 0.65031 0.73587 0.0
H2171 H 0.51889 0.64922 0.72068 0.0
H2172 H 0.57229 0.6036 0.72816 0.0
H2173 H 0.5485 0.62264 0.71335 0.0
H2174 H 0.49482 0.5859 0.83291 0.0
H2175 H 0.4707 0.6037 0.81657 0.0
H2176 H 0.52969 0.56633 0.82875 0.0
H2177 H 0.55999 0.5658 0.81305 0.0
C2178 C 0.37862 0.5464 0.76014 0.0
C2179 C 0.3736 0.56409 0.78125 0.0
C2180 C 0.36035 0.52695 0.80915 0.0
C2181 C 0.36508 0.50952 0.78804 0.0
N2182 N 0.38205 0.50134 0.74485 0.0
N2183 N 0.36497 0.57089 0.8272 0.0
C2184 C 0.37547 0.51889 0.76405 0.0
C2185 C 0.36601 0.55422 0.8062 0.0
N2186 N 0.38475 0.55592 0.73584 0.0
N2187 N 0.34984 0.51727 0.83182 0.0
H2188 H 0.36948 0.5908 0.82573 0.0
H2189 H 0.3618 0.56481 0.84643 0.0
H2190 H 0.34683 0.49722 0.8348 0.0
H2191 H 0.34301 0.52894 0.84712 0.0
H2192 H 0.38471 0.54464 0.71881 0.0
H2193 H 0.38867 0.57555 0.7322 0.0
H2194 H 0.39278 0.50622 0.72818 0.0
H2195 H 0.37815 0.48132 0.74625 0.0
C2196 C 0.48124 0.38638 0.75349 0.0
C2197 C 0.49688 0.39122 0.77602 0.0
C2198 C 0.46536 0.4243 0.79057 0.0
C2199 C 0.44689 0.4147 0.77212 0.0
N2200 N 0.43943 0.39237 0.73112 0.0
N2201 N 0.50453 0.41519 0.81595 0.0
C2202 C 0.45558 0.39769 0.75179 0.0
C2203 C 0.48941 0.41075 0.79426 0.0
N2204 N 0.49135 0.37139 0.73371 0.0
N2205 N 0.45949 0.44632 0.80466 0.0
H2206 H 0.52201 0.40514 0.81949 0.0
H2207 H 0.4988 0.42732 0.83137 0.0
H2208 H 0.44207 0.45669 0.80154 0.0
H2209 H 0.47277 0.45566 0.81709 0.0
H2210 H 0.48197 0.36802 0.71589 0.0
H2211 H 0.51014 0.36329 0.73469 0.0
H2212 H 0.44273 0.37751 0.71752 0.0
H2213 H 0.42281 0.4036 0.72719 0.0
C2214 C 0.61659 0.46131 0.75272 0.0
C2215 C 0.5988 0.45044 0.77111 0.0
C2216 C 0.59534 0.49316 0.79299 0.0
C2217 C 0.61743 0.50178 0.77857 0.0
N2218 N 0.64886 0.49539 0.74412 0.0
N2219 N 0.5674 0.45672 0.80578 0.0
C2220 C 0.62776 0.48637 0.75793 0.0
C2221 C 0.58661 0.46684 0.79004 0.0
N2222 N 0.62238 0.44792 0.73029 0.0
N2223 N 0.58296 0.51028 0.80949 0.0
H2224 H 0.55952 0.43807 0.80269 0.0
H2225 H 0.55958 0.46633 0.82201 0.0
H2226 H 0.58945 0.52951 0.81212 0.0
H2227 H 0.56545 0.50623 0.81917 0.0
H2228 H 0.63447 0.4552 0.71553 0.0
H2229 H 0.61221 0.43102 0.72495 0.0
H2230 H 0.65903 0.48423 0.73036 0.0
H2231 H 0.65716 0.51377 0.74769 0.0
C2232 C 0.54033 0.41662 0.21883 0.0
C2233 C 0.5582 0.41348 0.2398 0.0
C2234 C 0.52487 0.38982 0.26466 0.0
C2235 C 0.51059 0.38643 0.24098 0.0
N2236 N 0.50191 0.39972 0.19645 0.0
N2237 N 0.56155 0.41185 0.28652 0.0
C2238 C 0.51717 0.40127 0.21844 0.0
C2239 C 0.54861 0.40475 0.2642 0.0
N2240 N 0.54582 0.43442 0.1996 0.0
N2241 N 0.51609 0.37802 0.28702 0.0
H2242 H 0.57796 0.42413 0.28589 0.0
H2243 H 0.55479 0.40773 0.30533 0.0
H2244 H 0.49878 0.36706 0.28743 0.0
H2245 H 0.52603 0.37861 0.30483 0.0
H2246 H 0.53292 0.43913 0.18446 0.0
H2247 H 0.56245 0.44639 0.20065 0.0
H2248 H 0.50719 0.40787 0.17849 0.0
H2249 H 0.48438 0.38916 0.19586 0.0
C2250 C 0.64611 0.51726 0.2006 0.0
C2251 C 0.6352 0.49956 0.21889 0.0
C2252 C 0.60178 0.53217 0.23083 0.0
C2253 C 0.61404 0.55063 0.21399 0.0
N2254 N 0.65239 0.56263 0.18854 0.0
N2255 N 0.60651 0.49178 0.25558 0.0
C2256 C 0.63751 0.54373 0.20044 0.0
C2257 C 0.61412 0.5075 0.23527 0.0
N2258 N 0.66407 0.50854 0.18273 0.0
N2259 N 0.57788 0.53767 0.24169 0.0
H2260 H 0.6158 0.47404 0.25984 0.0
H2261 H 0.59287 0.49752 0.26969 0.0
H2262 H 0.56802 0.55533 0.23853 0.0
H2263 H 0.5668 0.52386 0.25191 0.0
H2264 H 0.6707 0.51994 0.16711 0.0
H2265 H 0.67041 0.48909 0.18204 0.0
H2266 H 0.67086 0.5589 0.18057 0.0
H2267 H 0.64799 0.58258 0.18952 0.0
C2268 C 0.4591 0.59897 0.24077 0.0
C2269 C 0.44987 0.57829 0.2246 0.0
C2270 C 0.49355 0.57516 0.20444 0.0
C2271 C 0.49992 0.59979 0.21561 0.0
N2272 N 0.48924 0.63559 0.24437 0.0
N2273 N 0.45977 0.54246 0.19563 0.0
C2274 C 0.48299 0.61165 0.23411 0.0
C2275 C 0.46782 0.56479 0.2081 0.0
N2276 N 0.44559 0.6059 0.26278 0.0
N2277 N 0.51218 0.56203 0.19035 0.0
H2278 H 0.44175 0.53362 0.1999 0.0
H2279 H 0.47056 0.53281 0.18124 0.0
H2280 H 0.53107 0.5695 0.18764 0.0
H2281 H 0.50967 0.54322 0.1828 0.0
H2282 H 0.45227 0.61998 0.27604 0.0
H2283 H 0.42989 0.59483 0.26978 0.0
H2284 H 0.47631 0.64661 0.25575 0.0
H2285 H 0.5067 0.64524 0.23976 0.0
C2286 C 0.37937 0.47812 0.24678 0.0
C2287 C 0.37392 0.48611 0.22064 0.0
C2288 C 0.38719 0.44304 0.20518 0.0
C2289 C 0.39839 0.43729 0.23007 0.0
N2290 N 0.40662 0.45099 0.27477 0.0
N2291 N 0.37962 0.47774 0.17428 0.0
C2292 C 0.39471 0.45515 0.25114 0.0
C2293 C 0.37963 0.46899 0.19959 0.0
N2294 N 0.36935 0.49205 0.26732 0.0
N2295 N 0.38297 0.42374 0.18705 0.0
H2296 H 0.37697 0.49738 0.16929 0.0
H2297 H 0.3857 0.46601 0.15863 0.0
H2298 H 0.38614 0.40392 0.19102 0.0
H2299 H 0.3731 0.42719 0.16945 0.0
H2300 H 0.3708 0.48582 0.28674 0.0
H2301 H 0.35717 0.50826 0.26459 0.0
H2302 H 0.40648 0.46484 0.28983 0.0
H2303 H 0.41847 0.43477 0.27859 0.0
C2304 C 0.75667 0.52214 0.62432 0.0
C2305 C 0.77711 0.50675 0.6136 0.0
C2306 C 0.787 0.54087 0.58145 0.0
C2307 C 0.76879 0.55755 0.59429 0.0
N2308 N 0.72945 0.56109 0.62019 0.0
N2309 N 0.80622 0.49728 0.57789 0.0
C2310 C 0.75118 0.54713 0.61313 0.0
C2311 C 0.79037 0.51476 0.59061 0.0
N2312 N 0.74343 0.5132 0.64583 0.0
N2313 N 0.80168 0.55057 0.56121 0.0
H2314 H 0.80871 0.47804 0.58446 0.0
H2315 H 0.81536 0.501 0.56003 0.0
H2316 H 0.79819 0.5691 0.55319 0.0
H2317 H 0.81735 0.54071 0.5526 0.0
H2318 H 0.72961 0.52413 0.65612 0.0
H2319 H 0.74718 0.49485 0.65408 0.0
H2320 H 0.71518 0.55426 0.6331 0.0
H2321 H 0.72413 0.57834 0.61066 0.0
C2322 C 0.75336 0.45045 0.39379 0.0
C2323 C 0.77605 0.43419 0.39544 0.0
C2324 C 0.80252 0.46984 0.37754 0.0
C2325 C 0.77973 0.48459 0.37224 0.0
N2326 N 0.73253 0.48674 0.37085 0.0
N2327 N 0.81983 0.42629 0.37779 0.0
C2328 C 0.75476 0.47426 0.37903 0.0
C2329 C 0.79995 0.44318 0.38402 0.0
N2330 N 0.73097 0.444 0.407 0.0
N2331 N 0.82671 0.48138 0.37728 0.0
H2332 H 0.81805 0.40599 0.37899 0.0
H2333 H 0.83665 0.43238 0.36783 0.0
H2334 H 0.82928 0.50154 0.37489 0.0
H2335 H 0.84369 0.47137 0.38287 0.0
H2336 H 0.7148 0.45647 0.40814 0.0
H2337 H 0.72945 0.42748 0.41894 0.0
H2338 H 0.71382 0.47878 0.37317 0.0
H2339 H 0.7331 0.50379 0.35954 0.0
C2340 C 0.5359 0.78575 0.41173 0.0
C2341 C 0.55164 0.76515 0.40166 0.0
C2342 C 0.51383 0.74894 0.37654 0.0
C2343 C 0.50053 0.77273 0.38213 0.0
N2344 N 0.49833 0.81403 0.40486 0.0
N2345 N 0.55399 0.72327 0.37996 0.0
C2346 C 0.51111 0.79092 0.40021 0.0
C2347 C 0.53997 0.74525 0.38601 0.0
N2348 N 0.5451 0.80055 0.4321 0.0
N2349 N 0.50114 0.73002 0.36238 0.0
H2350 H 0.57118 0.71838 0.38986 0.0
H2351 H 0.54835 0.70947 0.36601 0.0
H2352 H 0.48189 0.73242 0.35576 0.0
H2353 H 0.50883 0.71155 0.35832 0.0
H2354 H 0.53386 0.81451 0.44193 0.0
H2355 H 0.56324 0.79684 0.44083 0.0
H2356 H 0.5064 0.82943 0.41561 0.0
H2357 H 0.48032 0.81866 0.3963 0.0
C2358 C 0.2182 0.51273 0.41128 0.0
C2359 C 0.23181 0.50413 0.38867 0.0
C2360 C 0.25424 0.54664 0.38565 0.0
C2361 C 0.23655 0.55655 0.40459 0.0
N2362 N 0.21115 0.54776 0.44296 0.0
N2363 N 0.26686 0.5097 0.3578 0.0
C2364 C 0.22174 0.53894 0.42004 0.0
C2365 C 0.25158 0.52001 0.37723 0.0
N2366 N 0.20109 0.49607 0.42343 0.0
N2367 N 0.27307 0.56289 0.37579 0.0
H2368 H 0.26483 0.4903 0.35159 0.0
H2369 H 0.28159 0.5199 0.34805 0.0
H2370 H 0.27593 0.58167 0.38338 0.0
H2371 H 0.28692 0.55744 0.36184 0.0
H2372 H 0.18849 0.50165 0.4385 0.0
H2373 H 0.19911 0.47646 0.41783 0.0
H2374 H 0.20093 0.53604 0.45619 0.0
H2375 H 0.21517 0.56663 0.44979 0.0
C2376 C 0.4828 0.19492 0.41575 0.0
C2377 C 0.49011 0.21487 0.39787 0.0
C2378 C 0.45481 0.24294 0.41452 0.0
C2379 C 0.44422 0.22098 0.42765 0.0
N2380 N 0.45414 0.18173 0.45159 0.0
N2381 N 0.4841 0.25833 0.3804 0.0
C2382 C 0.4603 0.19869 0.43179 0.0
C2383 C 0.47665 0.23923 0.3976 0.0
N2384 N 0.49645 0.17186 0.41609 0.0
N2385 N 0.44526 0.26737 0.41973 0.0
H2386 H 0.50026 0.25619 0.36805 0.0
H2387 H 0.47324 0.27537 0.37723 0.0
H2388 H 0.43098 0.27056 0.43405 0.0
H2389 H 0.45377 0.28448 0.41248 0.0
H2390 H 0.49071 0.15541 0.42673 0.0
H2391 H 0.51299 0.1687 0.40444 0.0
H2392 H 0.46574 0.16584 0.45705 0.0
H2393 H 0.4385 0.18542 0.46434 0.0
C2394 C 0.20898 0.48018 0.58109 0.0
C2395 C 0.22203 0.48988 0.60357 0.0
C2396 C 0.25018 0.45099 0.60474 0.0
C2397 C 0.23301 0.43897 0.58651 0.0
N2398 N 0.2035 0.44408 0.55022 0.0
N2399 N 0.25688 0.48728 0.63507 0.0
C2400 C 0.21498 0.45449 0.57211 0.0
C2401 C 0.24365 0.47631 0.61452 0.0
N2402 N 0.19016 0.49525 0.56935 0.0
N2403 N 0.27252 0.43833 0.61236 0.0
H2404 H 0.25207 0.50575 0.64241 0.0
H2405 H 0.27185 0.47801 0.64536 0.0
H2406 H 0.2784 0.42064 0.60399 0.0
H2407 H 0.28672 0.4466 0.62449 0.0
H2408 H 0.17847 0.48911 0.55379 0.0
H2409 H 0.18607 0.51435 0.57552 0.0
H2410 H 0.19046 0.45405 0.5381 0.0
H2411 H 0.20858 0.42549 0.54329 0.0
C2412 C 0.53854 0.21919 0.56929 0.0
C2413 C 0.55792 0.238 0.5756 0.0
C2414 C 0.52925 0.25765 0.60822 0.0
C2415 C 0.51301 0.23517 0.60654 0.0
N2416 N 0.4977 0.19788 0.58198 0.0
N2417 N 0.56347 0.28318 0.58689 0.0
C2418 C 0.5159 0.21726 0.58545 0.0
C2419 C 0.55072 0.26001 0.59062 0.0
N2420 N 0.54251 0.20317 0.54819 0.0
N2421 N 0.52507 0.27573 0.62748 0.0
H2422 H 0.57843 0.28499 0.573 0.0
H2423 H 0.55729 0.30072 0.59541 0.0
H2424 H 0.50923 0.27435 0.6404 0.0
H2425 H 0.53795 0.29119 0.63123 0.0
H2426 H 0.5292 0.18913 0.54166 0.0
H2427 H 0.55892 0.2055 0.53611 0.0
H2428 H 0.49933 0.18292 0.56819 0.0
H2429 H 0.48063 0.1968 0.59323 0.0
C2430 C 0.48376 0.7871 0.58322 0.0
C2431 C 0.49064 0.77504 0.60728 0.0
C2432 C 0.45118 0.74778 0.6049 0.0
C2433 C 0.44128 0.76446 0.58508 0.0
N2434 N 0.44983 0.79524 0.55054 0.0
N2435 N 0.48223 0.74295 0.64073 0.0
C2436 C 0.45847 0.78228 0.57235 0.0
C2437 C 0.47492 0.75473 0.61783 0.0
N2438 N 0.5014 0.80333 0.57122 0.0
N2439 N 0.4382 0.72517 0.61074 0.0
H2440 H 0.49972 0.74766 0.65031 0.0
H2441 H 0.47031 0.72984 0.65092 0.0
H2442 H 0.42268 0.71868 0.59912 0.0
H2443 H 0.4449 0.71144 0.62432 0.0
H2444 H 0.4986 0.81178 0.55286 0.0
H2445 H 0.51983 0.80725 0.57926 0.0
H2446 H 0.45992 0.81041 0.54135 0.0
H2447 H 0.43199 0.7905 0.54162 0.0
C2448 C 0.16531 0.37523 0.24929 0.0
C2449 C 0.1736 0.35966 0.27079 0.0
C2450 C 0.16618 0.32019 0.24448 0.0
C2451 C 0.15202 0.33529 0.22581 0.0
N2452 N 0.16012 0.37554 0.20235 0.0
N2453 N 0.1813 0.31665 0.28923 0.0
C2454 C 0.1574 0.36269 0.22566 0.0
C2455 C 0.17385 0.33192 0.26851 0.0
N2456 N 0.16523 0.40196 0.25119 0.0
N2457 N 0.1766 0.29657 0.2374 0.0
H2458 H 0.1871 0.32444 0.30726 0.0
H2459 H 0.17949 0.29625 0.28901 0.0
H2460 H 0.17601 0.28999 0.21799 0.0
H2461 H 0.1891 0.2858 0.2495 0.0
H2462 H 0.1569 0.41397 0.23686 0.0
H2463 H 0.17166 0.41194 0.26789 0.0
H2464 H 0.1663 0.39499 0.20092 0.0
H2465 H 0.16037 0.36541 0.18453 0.0
C2466 C 0.60465 0.15309 0.23852 0.0
C2467 C 0.61329 0.14765 0.26441 0.0
C2468 C 0.64621 0.11744 0.2469 0.0
C2469 C 0.64131 0.12726 0.22138 0.0
N2470 N 0.61668 0.15581 0.19265 0.0
N2471 N 0.6447 0.12663 0.29331 0.0
C2472 C 0.62043 0.14515 0.21696 0.0
C2473 C 0.63443 0.12997 0.26874 0.0
N2474 N 0.58149 0.16606 0.23469 0.0
N2475 N 0.66235 0.09627 0.25022 0.0
H2476 H 0.63742 0.13598 0.30995 0.0
H2477 H 0.66201 0.11632 0.29685 0.0
H2478 H 0.67112 0.08655 0.23446 0.0
H2479 H 0.66478 0.0868 0.26818 0.0
H2480 H 0.57301 0.16866 0.21627 0.0
H2481 H 0.56951 0.17191 0.25025 0.0
H2482 H 0.60368 0.17117 0.18904 0.0
H2483 H 0.62793 0.15067 0.17636 0.0
C2484 C 0.84787 0.63562 0.22006 0.0
C2485 C 0.86618 0.65613 0.22471 0.0
C2486 C 0.85779 0.6533 0.27193 0.0
C2487 C 0.84075 0.63168 0.26747 0.0
N2488 N 0.8245 0.59829 0.23806 0.0
N2489 N 0.89346 0.67992 0.25521 0.0
C2490 C 0.83736 0.62156 0.24174 0.0
C2491 C 0.87275 0.66343 0.25075 0.0
N2492 N 0.83937 0.63046 0.19514 0.0
N2493 N 0.85862 0.66516 0.29599 0.0
H2494 H 0.90505 0.68743 0.24008 0.0
H2495 H 0.90071 0.68399 0.27389 0.0
H2496 H 0.84737 0.65895 0.31191 0.0
H2497 H 0.86855 0.68269 0.29949 0.0
H2498 H 0.82385 0.61779 0.191 0.0
H2499 H 0.8463 0.64044 0.17868 0.0
H2500 H 0.8237 0.58869 0.22003 0.0
H2501 H 0.81681 0.58732 0.25354 0.0
C2502 C 0.37763 0.84756 0.24489 0.0
C2503 C 0.36981 0.85401 0.27077 0.0
C2504 C 0.341 0.88839 0.25351 0.0
C2505 C 0.34525 0.87868 0.22779 0.0
N2506 N 0.36563 0.84697 0.19896 0.0
N2507 N 0.34204 0.87897 0.30002 0.0
C2508 C 0.36332 0.85792 0.22335 0.0
C2509 C 0.35121 0.87427 0.27525 0.0
N2510 N 0.39872 0.83144 0.24098 0.0
N2511 N 0.32726 0.91115 0.25707 0.0
H2512 H 0.34882 0.86902 0.31655 0.0
H2513 H 0.32624 0.89133 0.30396 0.0
H2514 H 0.31965 0.922 0.24144 0.0
H2515 H 0.32563 0.92054 0.27515 0.0
H2516 H 0.40688 0.82792 0.22258 0.0
H2517 H 0.40964 0.82364 0.25647 0.0
H2518 H 0.37624 0.82988 0.19533 0.0
H2519 H 0.3552 0.85359 0.18266 0.0
C2520 C 0.14008 0.66528 0.74365 0.0
C2521 C 0.14933 0.65992 0.76935 0.0
C2522 C 0.17942 0.62686 0.75155 0.0
C2523 C 0.17225 0.6344 0.72572 0.0
N2524 N 0.15085 0.66601 0.69751 0.0
N2525 N 0.18264 0.64034 0.79693 0.0
C2526 C 0.15406 0.65517 0.72183 0.0
C2527 C 0.17043 0.64206 0.77311 0.0
N2528 N 0.11744 0.67921 0.73999 0.0
N2529 N 0.19401 0.60474 0.75564 0.0
H2530 H 0.17746 0.65198 0.81295 0.0
H2531 H 0.19969 0.62943 0.79993 0.0
H2532 H 0.20041 0.59266 0.74041 0.0
H2533 H 0.19753 0.59704 0.77425 0.0
H2534 H 0.1086 0.6814 0.72168 0.0
H2535 H 0.10606 0.68624 0.75548 0.0
H2536 H 0.13962 0.6828 0.69424 0.0
H2537 H 0.16166 0.66009 0.68118 0.0
C2538 C 0.36705 0.14931 0.73968 0.0
C2539 C 0.38839 0.16612 0.7461 0.0
C2540 C 0.38009 0.15887 0.7929 0.0
C2541 C 0.36002 0.14067 0.78628 0.0
N2542 N 0.33976 0.11306 0.7536 0.0
N2543 N 0.41911 0.182 0.77845 0.0
C2544 C 0.35534 0.13404 0.75971 0.0
C2545 C 0.39619 0.1693 0.77264 0.0
N2546 N 0.35669 0.14914 0.71493 0.0
N2547 N 0.38291 0.16729 0.81821 0.0
H2548 H 0.43148 0.18958 0.764 0.0
H2549 H 0.42701 0.18275 0.79729 0.0
H2550 H 0.37127 0.16048 0.83359 0.0
H2551 H 0.39532 0.18265 0.82357 0.0
H2552 H 0.33942 0.13924 0.71014 0.0
H2553 H 0.36356 0.16102 0.69979 0.0
H2554 H 0.33768 0.10591 0.73454 0.0
H2555 H 0.33117 0.10114 0.76787 0.0
C2556 C 0.84227 0.37295 0.7564 0.0
C2557 C 0.8448 0.36413 0.73013 0.0
C2558 C 0.87608 0.33062 0.74458 0.0
C2559 C 0.87016 0.33666 0.77109 0.0
N2560 N 0.84333 0.36059 0.80214 0.0
N2561 N 0.86019 0.33082 0.69994 0.0
C2562 C 0.85219 0.35713 0.77706 0.0
C2563 C 0.86076 0.34201 0.72432 0.0
N2564 N 0.83075 0.3966 0.76162 0.0
N2565 N 0.89654 0.3143 0.73873 0.0
H2566 H 0.84827 0.33761 0.68476 0.0
H2567 H 0.86948 0.31311 0.69562 0.0
H2568 H 0.90858 0.30607 0.75311 0.0
H2569 H 0.90316 0.3112 0.71963 0.0
H2570 H 0.83063 0.40503 0.78026 0.0
H2571 H 0.82374 0.40898 0.7469 0.0
H2572 H 0.8282 0.37351 0.8069 0.0
H2573 H 0.8491 0.34876 0.81779 0.0
C2574 C 0.66567 0.83731 0.76492 0.0
C2575 C 0.66405 0.86499 0.76703 0.0
C2576 C 0.64858 0.86701 0.72156 0.0
C2577 C 0.64484 0.83934 0.72162 0.0
N2578 N 0.67092 0.80192 0.73419 0.0
N2579 N 0.65358 0.90669 0.74721 0.0
C2580 C 0.65924 0.8251 0.74079 0.0
C2581 C 0.6552 0.88001 0.74536 0.0
N2582 N 0.6734 0.82255 0.78591 0.0
N2583 N 0.65156 0.87994 0.69833 0.0
H2584 H 0.65898 0.91698 0.76407 0.0
H2585 H 0.64491 0.91819 0.73267 0.0
H2586 H 0.65371 0.86974 0.68068 0.0
H2587 H 0.6565 0.89975 0.69706 0.0
H2588 H 0.67264 0.80209 0.78581 0.0
H2589 H 0.67828 0.83074 0.80405 0.0
H2590 H 0.68368 0.79189 0.74666 0.0
H2591 H 0.67089 0.79499 0.7149 0.0
C2592 C 0.25542 0.13378 0.33753 0.0
C2593 C 0.23144 0.14752 0.33424 0.0
C2594 C 0.25334 0.18806 0.34758 0.0
C2595 C 0.27519 0.17334 0.35673 0.0
N2596 N 0.30238 0.13891 0.33911 0.0
N2597 N 0.20708 0.18804 0.33735 0.0
C2598 C 0.27806 0.14771 0.34605 0.0
C2599 C 0.23023 0.17474 0.33974 0.0
N2600 N 0.2568 0.10756 0.33215 0.0
N2601 N 0.25628 0.21398 0.34157 0.0
H2602 H 0.18961 0.17895 0.33165 0.0
H2603 H 0.20497 0.20751 0.34333 0.0
H2604 H 0.27469 0.22303 0.3418 0.0
H2605 H 0.24162 0.22509 0.33259 0.0
H2606 H 0.27323 0.09624 0.33671 0.0
H2607 H 0.24086 0.09681 0.32505 0.0
H2608 H 0.30554 0.12135 0.32909 0.0
H2609 H 0.31875 0.15126 0.3395 0.0
C2610 C 0.86061 0.27444 0.35253 0.0
C2611 C 0.84693 0.26813 0.37603 0.0
C2612 C 0.85836 0.22187 0.37001 0.0
C2613 C 0.87409 0.22861 0.34796 0.0
N2614 N 0.89631 0.26263 0.32361 0.0
N2615 N 0.8397 0.23699 0.41096 0.0
C2616 C 0.8773 0.25537 0.34105 0.0
C2617 C 0.84816 0.2422 0.38608 0.0
N2618 N 0.85636 0.29776 0.33998 0.0
N2619 N 0.85153 0.19637 0.37471 0.0
H2620 H 0.83283 0.25164 0.42352 0.0
H2621 H 0.84222 0.21877 0.41991 0.0
H2622 H 0.85693 0.18087 0.36252 0.0
H2623 H 0.83805 0.19102 0.38914 0.0
H2624 H 0.86411 0.30192 0.32151 0.0
H2625 H 0.84286 0.3117 0.34638 0.0
H2626 H 0.90078 0.28221 0.31964 0.0
H2627 H 0.90943 0.24922 0.3154 0.0
C2628 C 0.71979 0.86229 0.3423 0.0
C2629 C 0.72256 0.84146 0.36056 0.0
C2630 C 0.77046 0.8451 0.35821 0.0
C2631 C 0.7677 0.86637 0.34044 0.0
N2632 N 0.74028 0.89943 0.32067 0.0
N2633 N 0.74973 0.81757 0.39102 0.0
C2634 C 0.74246 0.87638 0.33421 0.0
C2635 C 0.7477 0.8344 0.37023 0.0
N2636 N 0.69577 0.8677 0.3316 0.0
N2637 N 0.79457 0.8341 0.36246 0.0
H2638 H 0.73337 0.80953 0.40037 0.0
H2639 H 0.76737 0.8136 0.40057 0.0
H2640 H 0.81178 0.84123 0.354 0.0
H2641 H 0.79728 0.81666 0.37275 0.0
H2642 H 0.69309 0.88058 0.31596 0.0
H2643 H 0.67866 0.85785 0.33698 0.0
H2644 H 0.72249 0.90904 0.31764 0.0
H2645 H 0.75659 0.91025 0.3146 0.0
C2646 C 0.15189 0.74782 0.36594 0.0
C2647 C 0.14149 0.72296 0.35908 0.0
C2648 C 0.10718 0.74422 0.33296 0.0
C2649 C 0.12027 0.76858 0.3363 0.0
N2650 N 0.15642 0.7936 0.35418 0.0
N2651 N 0.10976 0.69672 0.33582 0.0
C2652 C 0.14278 0.77052 0.35264 0.0
C2653 C 0.11901 0.72092 0.34279 0.0
N2654 N 0.17059 0.74961 0.38512 0.0
N2655 N 0.08339 0.74351 0.32054 0.0
H2656 H 0.11748 0.67933 0.34341 0.0
H2657 H 0.09543 0.69375 0.32155 0.0
H2658 H 0.07431 0.76033 0.31318 0.0
H2659 H 0.07167 0.72681 0.31949 0.0
H2660 H 0.17716 0.76737 0.39283 0.0
H2661 H 0.17774 0.73324 0.39513 0.0
H2662 H 0.17469 0.79532 0.3632 0.0
H2663 H 0.15054 0.81076 0.34472 0.0
C2664 C 0.24847 0.83044 0.63704 0.0
C2665 C 0.27408 0.83896 0.64382 0.0
C2666 C 0.2552 0.87292 0.67208 0.0
C2667 C 0.23002 0.86145 0.66865 0.0
N2668 N 0.20357 0.8259 0.65146 0.0
N2669 N 0.30224 0.86623 0.67055 0.0
C2670 C 0.2268 0.83936 0.65196 0.0
C2671 C 0.27763 0.8598 0.66196 0.0
N2672 N 0.24486 0.814 0.61614 0.0
N2673 N 0.25762 0.89654 0.68457 0.0
H2674 H 0.31918 0.85694 0.66383 0.0
H2675 H 0.30565 0.87928 0.68592 0.0
H2676 H 0.24154 0.90691 0.69185 0.0
H2677 H 0.27519 0.90699 0.68541 0.0
H2678 H 0.22636 0.80904 0.60891 0.0
H2679 H 0.26033 0.80759 0.60435 0.0
H2680 H 0.20122 0.80811 0.64164 0.0
H2681 H 0.18744 0.83095 0.66298 0.0
C2682 C 0.15261 0.22505 0.64947 0.0
C2683 C 0.12885 0.22907 0.66347 0.0
C2684 C 0.13116 0.27631 0.65452 0.0
C2685 C 0.1544 0.27209 0.63977 0.0
N2686 N 0.18353 0.24212 0.61763 0.0
N2687 N 0.09238 0.2571 0.67445 0.0
C2688 C 0.16387 0.24629 0.63541 0.0
C2689 C 0.1171 0.2543 0.66438 0.0
N2690 N 0.16524 0.20141 0.65082 0.0
N2691 N 0.12325 0.30131 0.6602 0.0
H2692 H 0.08158 0.24131 0.68176 0.0
H2693 H 0.08171 0.2745 0.67338 0.0
H2694 H 0.13292 0.31792 0.65317 0.0
H2695 H 0.10825 0.30563 0.67339 0.0
H2696 H 0.18411 0.19835 0.64355 0.0
H2697 H 0.1579 0.18533 0.66112 0.0
H2698 H 0.18951 0.2235 0.61168 0.0
H2699 H 0.19215 0.2573 0.6069 0.0
C2700 C 0.74141 0.12252 0.66457 0.0
C2701 C 0.76683 0.13108 0.65695 0.0
C2702 C 0.74774 0.16006 0.62364 0.0
C2703 C 0.72231 0.15229 0.63198 0.0
N2704 N 0.6944 0.12285 0.65617 0.0
N2705 N 0.79493 0.15356 0.6263 0.0
C2706 C 0.719 0.1323 0.65104 0.0
C2707 C 0.77021 0.14835 0.63539 0.0
N2708 N 0.7388 0.10581 0.68542 0.0
N2709 N 0.75029 0.17945 0.60524 0.0
H2710 H 0.81183 0.1459 0.63496 0.0
H2711 H 0.79882 0.1639 0.60914 0.0
H2712 H 0.7343 0.18742 0.59522 0.0
H2713 H 0.76798 0.18852 0.60057 0.0
H2714 H 0.72095 0.10111 0.69413 0.0
H2715 H 0.75485 0.09728 0.69487 0.0
H2716 H 0.69063 0.10671 0.66808 0.0
H2717 H 0.6776 0.13006 0.64694 0.0
C2718 C 0.8544 0.73147 0.64577 0.0
C2719 C 0.83621 0.73439 0.62484 0.0
C2720 C 0.84219 0.7821 0.62599 0.0
C2721 C 0.86102 0.779 0.64628 0.0
N2722 N 0.89058 0.7507 0.66993 0.0
N2723 N 0.81835 0.76144 0.59035 0.0
C2724 C 0.86904 0.75359 0.6542 0.0
C2725 C 0.83196 0.75941 0.61338 0.0
N2726 N 0.85646 0.70812 0.65883 0.0
N2727 N 0.83288 0.80647 0.61978 0.0
H2728 H 0.81091 0.74511 0.58044 0.0
H2729 H 0.81673 0.77889 0.57983 0.0
H2730 H 0.83976 0.82363 0.62855 0.0
H2731 H 0.81694 0.80951 0.60733 0.0
H2732 H 0.86736 0.70587 0.67599 0.0
H2733 H 0.84539 0.69158 0.65409 0.0
H2734 H 0.89876 0.73251 0.67444 0.0
H2735 H 0.90183 0.76666 0.67621 0.0
C2736 C 0.3854 0.24458 0.1689 0.0
C2737 C 0.3771 0.27091 0.16538 0.0
C2738 C 0.34672 0.2568 0.13086 0.0
C2739 C 0.352 0.23028 0.13736 0.0
N2740 N 0.37447 0.19852 0.16441 0.0
N2741 N 0.34743 0.30202 0.1453 0.0
C2742 C 0.37105 0.22399 0.1567 0.0
C2743 C 0.35729 0.2771 0.14676 0.0
N2744 N 0.40714 0.23935 0.18375 0.0
N2745 N 0.33174 0.26253 0.10935 0.0
H2746 H 0.35428 0.3175 0.15681 0.0
H2747 H 0.33093 0.30691 0.13425 0.0
H2748 H 0.32378 0.24805 0.09722 0.0
H2749 H 0.32933 0.2815 0.10211 0.0
H2750 H 0.41567 0.22082 0.18502 0.0
H2751 H 0.41811 0.25407 0.19287 0.0
H2752 H 0.38584 0.19311 0.18051 0.0
H2753 H 0.36435 0.18284 0.156 0.0
C2754 C 0.32578 0.73439 0.86651 0.0
C2755 C 0.33477 0.76028 0.86112 0.0
C2756 C 0.36954 0.74148 0.83379 0.0
C2757 C 0.35709 0.71656 0.83452 0.0
N2758 N 0.31999 0.69063 0.84904 0.0
N2759 N 0.36202 0.78812 0.83377 0.0
C2760 C 0.33437 0.71322 0.85037 0.0
C2761 C 0.35595 0.7638 0.8433 0.0
N2762 N 0.30946 0.72985 0.88727 0.0
N2763 N 0.39437 0.74387 0.82397 0.0
H2764 H 0.35111 0.80487 0.83806 0.0
H2765 H 0.37591 0.79102 0.81903 0.0
H2766 H 0.40532 0.7277 0.81777 0.0
H2767 H 0.40495 0.76138 0.82487 0.0
H2768 H 0.30414 0.71102 0.89326 0.0
H2769 H 0.30369 0.74466 0.90019 0.0
H2770 H 0.30188 0.68849 0.85831 0.0
H2771 H 0.32475 0.67505 0.8367 0.0
C2772 C 0.28132 0.35283 0.87983 0.0
C2773 C 0.27964 0.37133 0.85915 0.0
C2774 C 0.23182 0.36676 0.85787 0.0
C2775 C 0.23357 0.34752 0.87791 0.0
N2776 N 0.25826 0.32687 0.9125 0.0
N2777 N 0.25376 0.40103 0.83307 0.0
C2778 C 0.25784 0.34216 0.89046 0.0
C2779 C 0.25494 0.38011 0.84983 0.0
N2780 N 0.30541 0.34464 0.88839 0.0
N2781 N 0.20838 0.37114 0.84552 0.0
H2782 H 0.27049 0.41096 0.82663 0.0
H2783 H 0.23631 0.41001 0.82738 0.0
H2784 H 0.19091 0.3621 0.8512 0.0
H2785 H 0.20639 0.38252 0.82869 0.0
H2786 H 0.30818 0.32893 0.90113 0.0
H2787 H 0.32291 0.35297 0.88173 0.0
H2788 H 0.27493 0.32398 0.92396 0.0
H2789 H 0.24128 0.31879 0.92062 0.0
C2790 C 0.62713 0.25103 0.8383 0.0
C2791 C 0.63444 0.27713 0.84466 0.0
C2792 C 0.66356 0.26036 0.87916 0.0
C2793 C 0.65942 0.23442 0.86988 0.0
N2794 N 0.64037 0.20548 0.83742 0.0
N2795 N 0.66273 0.30669 0.86875 0.0
C2796 C 0.64188 0.22979 0.84869 0.0
C2797 C 0.65336 0.28189 0.86462 0.0
N2798 N 0.60593 0.24656 0.82246 0.0
N2799 N 0.67686 0.26443 0.90211 0.0
H2800 H 0.65622 0.323 0.85827 0.0
H2801 H 0.67862 0.31074 0.88099 0.0
H2802 H 0.68431 0.24909 0.91345 0.0
H2803 H 0.67824 0.28273 0.91113 0.0
H2804 H 0.59819 0.22791 0.81914 0.0
H2805 H 0.59447 0.26171 0.81481 0.0
H2806 H 0.63 0.20179 0.82018 0.0
H2807 H 0.65149 0.1895 0.84372 0.0
C2808 C 0.77621 0.65421 0.83756 0.0
C2809 C 0.77242 0.67343 0.85738 0.0
C2810 C 0.72493 0.67127 0.85029 0.0
C2811 C 0.72859 0.64987 0.83281 0.0
N2812 N 0.75757 0.61704 0.81465 0.0
N2813 N 0.74277 0.6958 0.88683 0.0
C2814 C 0.75421 0.64011 0.82791 0.0
C2815 C 0.74663 0.68061 0.86506 0.0
N2816 N 0.80054 0.65025 0.82695 0.0
N2817 N 0.70114 0.68356 0.85191 0.0
H2818 H 0.75816 0.70244 0.89861 0.0
H2819 H 0.72423 0.69949 0.89465 0.0
H2820 H 0.68497 0.67815 0.84058 0.0
H2821 H 0.69826 0.70086 0.86246 0.0
H2822 H 0.80373 0.6383 0.81066 0.0
H2823 H 0.81707 0.66095 0.83257 0.0
H2824 H 0.77576 0.60786 0.81278 0.0
H2825 H 0.7419 0.60571 0.80788 0.0
C2826 C 0.62802 0.77097 0.1386 0.0
C2827 C 0.65469 0.77755 0.14328 0.0
C2828 C 0.65999 0.73838 0.17062 0.0
C2829 C 0.63282 0.7329 0.16768 0.0
N2830 N 0.58994 0.74586 0.15242 0.0
N2831 N 0.69469 0.77075 0.16774 0.0
C2832 C 0.6165 0.74976 0.15267 0.0
C2833 C 0.67028 0.76219 0.1605 0.0
N2834 N 0.61399 0.78442 0.1201 0.0
N2835 N 0.67618 0.72036 0.1822 0.0
H2836 H 0.70285 0.78823 0.16089 0.0
H2837 H 0.70585 0.76183 0.18236 0.0
H2838 H 0.66951 0.70253 0.18973 0.0
H2839 H 0.69657 0.72199 0.18227 0.0
H2840 H 0.59541 0.77875 0.11371 0.0
H2841 H 0.62174 0.8002 0.10961 0.0
H2842 H 0.57669 0.75904 0.14414 0.0
H2843 H 0.58089 0.73042 0.16238 0.0
C2844 C 0.27447 0.65654 0.14819 0.0
C2845 C 0.27372 0.63269 0.16245 0.0
C2846 C 0.22639 0.62861 0.15461 0.0
C2847 C 0.22721 0.65233 0.14008 0.0
N2848 N 0.25226 0.68576 0.11787 0.0
N2849 N 0.25197 0.59367 0.17542 0.0
C2850 C 0.25141 0.66525 0.13515 0.0
C2851 C 0.25033 0.61796 0.16435 0.0
N2852 N 0.29675 0.67152 0.1483 0.0
N2853 N 0.20274 0.61709 0.15994 0.0
H2854 H 0.23654 0.58028 0.17652 0.0
H2855 H 0.23654 0.58028 0.17652 0.0
H2856 H 0.18507 0.62401 0.15223 0.0
H2857 H 0.20027 0.60166 0.17306 0.0
H2858 H 0.29764 0.69049 0.14079 0.0
H2859 H 0.314 0.66577 0.15773 0.0
H2860 H 0.26963 0.69442 0.11148 0.0
H2861 H 0.23566 0.69264 0.10804 0.0
C2862 C 0.76408 0.34403 0.15077 0.0
C2863 C 0.76058 0.33033 0.12676 0.0
C2864 C 0.71366 0.34091 0.12678 0.0
C2865 C 0.71726 0.3548 0.15064 0.0
N2866 N 0.74605 0.3744 0.18269 0.0
N2867 N 0.7339 0.31952 0.08927 0.0
C2868 C 0.7426 0.35797 0.16171 0.0
C2869 C 0.7359 0.33003 0.11388 0.0
N2870 N 0.7876 0.34269 0.1637 0.0
N2871 N 0.68888 0.33732 0.11709 0.0
H2872 H 0.74984 0.31112 0.07951 0.0
H2873 H 0.71711 0.32084 0.0777 0.0
H2874 H 0.67232 0.34586 0.12561 0.0
H2875 H 0.68447 0.32487 0.10151 0.0
H2876 H 0.79045 0.34946 0.18277 0.0
H2877 H 0.80406 0.33318 0.1561 0.0
H2878 H 0.76438 0.37969 0.19004 0.0
H2879 H 0.73063 0.3846 0.19149 0.0
C2880 C 0.07688 0.18916 0.21712 0.0
C2881 C 0.10395 0.18269 0.21524 0.0
C2882 C 0.10517 0.20124 0.17098 0.0
C2883 C 0.0805 0.21315 0.17556 0.0
N2884 N 0.03821 0.20704 0.19547 0.0
N2885 N 0.14412 0.1821 0.19036 0.0
C2886 C 0.06481 0.20371 0.19651 0.0
C2887 C 0.11808 0.1882 0.19194 0.0
N2888 N 0.06295 0.18152 0.2387 0.0
N2889 N 0.11515 0.20078 0.14619 0.0
H2890 H 0.15438 0.17328 0.20571 0.0
H2891 H 0.15596 0.18758 0.17465 0.0
H2892 H 0.10387 0.20685 0.1302 0.0
H2893 H 0.13241 0.19108 0.14109 0.0
H2894 H 0.04416 0.1882 0.24308 0.0
H2895 H 0.0705 0.16865 0.25269 0.0
H2896 H 0.02512 0.19962 0.20926 0.0
H2897 H 0.02897 0.21476 0.17889 0.0
C2898 C 0.80964 0.08561 0.23604 0.0
C2899 C 0.81491 0.11237 0.24098 0.0
C2900 C 0.78591 0.12529 0.20491 0.0
C2901 C 0.78065 0.09833 0.19962 0.0
N2902 N 0.79175 0.0529 0.20631 0.0
N2903 N 0.81038 0.1578 0.22992 0.0
C2904 C 0.79384 0.0785 0.21412 0.0
C2905 C 0.80364 0.13222 0.22534 0.0
N2906 N 0.81919 0.06714 0.25293 0.0
N2907 N 0.77335 0.14435 0.19103 0.0
H2908 H 0.82281 0.16343 0.2452 0.0
H2909 H 0.80454 0.17344 0.21823 0.0
H2910 H 0.76433 0.14073 0.17316 0.0
H2911 H 0.77158 0.16368 0.19736 0.0
H2912 H 0.81378 0.04744 0.2524 0.0
H2913 H 0.83117 0.07199 0.26884 0.0
H2914 H 0.80251 0.03762 0.21454 0.0
H2915 H 0.78095 0.04731 0.1898 0.0
C2916 C 0.91234 0.81841 0.1817 0.0
C2917 C 0.91224 0.79064 0.18296 0.0
C2918 C 0.89386 0.7927 0.2273 0.0
C2919 C 0.8963 0.8203 0.22711 0.0
N2920 N 0.91532 0.85858 0.20673 0.0
N2921 N 0.91178 0.75228 0.21083 0.0
C2922 C 0.90768 0.833 0.20502 0.0
C2923 C 0.90556 0.77799 0.2069 0.0
N2924 N 0.91603 0.83093 0.1583 0.0
N2925 N 0.87966 0.78051 0.24645 0.0
H2926 H 0.92231 0.74147 0.19711 0.0
H2927 H 0.90921 0.7428 0.22878 0.0
H2928 H 0.86975 0.79083 0.26107 0.0
H2929 H 0.87547 0.76047 0.24602 0.0
H2930 H 0.91364 0.85112 0.15605 0.0
H2931 H 0.91911 0.82094 0.14071 0.0
H2932 H 0.92567 0.86813 0.19191 0.0
H2933 H 0.91411 0.86914 0.22417 0.0
C2934 C 0.20417 0.93376 0.2071 0.0
C2935 C 0.21274 0.9176 0.18598 0.0
C2936 C 0.19084 0.87976 0.20562 0.0
C2937 C 0.18466 0.89498 0.22797 0.0
N2938 N 0.17993 0.93724 0.24826 0.0
N2939 N 0.20047 0.88082 0.15919 0.0
C2940 C 0.18962 0.92236 0.22816 0.0
C2941 C 0.20207 0.89211 0.18336 0.0
N2942 N 0.20956 0.96002 0.20644 0.0
N2943 N 0.18603 0.85344 0.20584 0.0
H2944 H 0.20379 0.89186 0.14231 0.0
H2945 H 0.19171 0.86266 0.15572 0.0
H2946 H 0.17769 0.84393 0.22195 0.0
H2947 H 0.19192 0.84094 0.1908 0.0
H2948 H 0.20616 0.97297 0.22184 0.0
H2949 H 0.21703 0.96905 0.18963 0.0
H2950 H 0.1813 0.95756 0.24937 0.0
H2951 H 0.1695 0.92907 0.26386 0.0
C2952 C 0.07046 0.78577 0.80016 0.0
C2953 C 0.08837 0.77836 0.82036 0.0
C2954 C 0.12296 0.80365 0.79919 0.0
C2955 C 0.106 0.80979 0.77824 0.0
N2956 N 0.06251 0.81106 0.76021 0.0
N2957 N 0.12529 0.79409 0.84534 0.0
C2958 C 0.07925 0.80223 0.7792 0.0
C2959 C 0.1128 0.7914 0.82187 0.0
N2960 N 0.04501 0.77757 0.80166 0.0
N2961 N 0.14913 0.80846 0.797 0.0
H2962 H 0.1163 0.78881 0.86293 0.0
H2963 H 0.14197 0.80575 0.84751 0.0
H2964 H 0.15735 0.81752 0.78056 0.0
H2965 H 0.16257 0.80084 0.81039 0.0
H2966 H 0.03118 0.7798 0.78682 0.0
H2967 H 0.03762 0.76908 0.81871 0.0
H2968 H 0.04238 0.80767 0.76004 0.0
H2969 H 0.06878 0.82303 0.74483 0.0
C2970 C 0.19602 0.13223 0.78713 0.0
C2971 C 0.18526 0.11206 0.77152 0.0
C2972 C 0.21048 0.07907 0.79576 0.0
C2973 C 0.22284 0.09947 0.81033 0.0
N2974 N 0.22196 0.14489 0.82456 0.0
N2975 N 0.18251 0.06685 0.75898 0.0
C2976 C 0.21397 0.12587 0.80752 0.0
C2977 C 0.19237 0.08556 0.77548 0.0
N2978 N 0.19021 0.15776 0.78121 0.0
N2979 N 0.21525 0.05348 0.80233 0.0
H2980 H 0.16877 0.0712 0.74442 0.0
H2981 H 0.18895 0.04748 0.75855 0.0
H2982 H 0.2274 0.04822 0.81797 0.0
H2983 H 0.20546 0.03755 0.79411 0.0
H2984 H 0.20012 0.17382 0.78906 0.0
H2985 H 0.17662 0.16296 0.7668 0.0
H2986 H 0.21287 0.1631 0.82587 0.0
H2987 H 0.2358 0.14201 0.83912 0.0
C2988 C 0.9276 0.19299 0.77173 0.0
C2989 C 0.90052 0.18767 0.76814 0.0
C2990 C 0.89253 0.19666 0.81423 0.0
C2991 C 0.91855 0.2056 0.81747 0.0
N2992 N 0.96021 0.21662 0.79715 0.0
N2993 N 0.85657 0.19333 0.7838 0.0
C2994 C 0.9361 0.20497 0.79564 0.0
C2995 C 0.88282 0.19242 0.78877 0.0
N2996 N 0.94516 0.18601 0.75278 0.0
N2997 N 0.87728 0.19134 0.83553 0.0
H2998 H 0.84927 0.19192 0.76469 0.0
H2999 H 0.8428 0.19833 0.79811 0.0
H3000 H 0.88428 0.19316 0.8547 0.0
H3001 H 0.85934 0.18167 0.83373 0.0
H3002 H 0.96542 0.18746 0.75521 0.0
H3003 H 0.93945 0.17709 0.73527 0.0
H3004 H 0.97246 0.21896 0.78095 0.0
H3005 H 0.96721 0.22577 0.81401 0.0
C3006 C 0.80396 0.91982 0.81225 0.0
C3007 C 0.77835 0.92905 0.80745 0.0
C3008 C 0.77837 0.90705 0.76472 0.0
C3009 C 0.80518 0.90017 0.76793 0.0
N3010 N 0.83575 0.88682 0.80183 0.0
N3011 N 0.74277 0.93587 0.77673 0.0
C3012 C 0.8163 0.90321 0.79358 0.0
C3013 C 0.76633 0.92454 0.78272 0.0
N3014 N 0.81655 0.92698 0.83483 0.0
N3015 N 0.76301 0.89302 0.74788 0.0
H3016 H 0.73255 0.94801 0.78958 0.0
H3017 H 0.73457 0.93495 0.758 0.0
H3018 H 0.76908 0.8748 0.74077 0.0
H3019 H 0.74305 0.89652 0.74513 0.0
H3020 H 0.83637 0.92318 0.83825 0.0
H3021 H 0.80782 0.93913 0.84883 0.0
H3022 H 0.84307 0.88652 0.82092 0.0
H3023 H 0.8412 0.87048 0.79108 0.0
C3024 C 0.23749 0.10893 0.20237 0.0
C3025 C 0.2396 0.10062 0.17602 0.0
C3026 C 0.19609 0.07994 0.17944 0.0
C3027 C 0.19532 0.08629 0.20654 0.0
N3028 N 0.22143 0.0966 0.24476 0.0
N3029 N 0.22411 0.07179 0.14187 0.0
C3030 C 0.2178 0.09783 0.21835 0.0
C3031 C 0.21981 0.08415 0.16522 0.0
N3032 N 0.25333 0.12826 0.21203 0.0
N3033 N 0.17417 0.07075 0.16704 0.0
H3034 H 0.24197 0.07321 0.13199 0.0
H3035 H 0.21124 0.05795 0.13403 0.0
H3036 H 0.15633 0.06793 0.17666 0.0
H3037 H 0.17314 0.0682 0.14677 0.0
H3038 H 0.25079 0.13614 0.23076 0.0
H3039 H 0.26675 0.13847 0.20047 0.0
H3040 H 0.23864 0.10291 0.25393 0.0
H3041 H 0.20865 0.0863 0.25678 0.0
C3042 C 0.91944 0.23114 0.19006 0.0
C3043 C 0.89195 0.23209 0.18594 0.0
C3044 C 0.88735 0.18838 0.20491 0.0
C3045 C 0.91354 0.18963 0.21416 0.0
N3046 N 0.95683 0.20774 0.20869 0.0
N3047 N 0.84924 0.21297 0.19096 0.0
C3048 C 0.93039 0.20979 0.20458 0.0
C3049 C 0.87577 0.21111 0.19394 0.0
N3050 N 0.93476 0.25066 0.17986 0.0
N3051 N 0.8745 0.16494 0.20411 0.0
H3052 H 0.84019 0.22924 0.18242 0.0
H3053 H 0.83628 0.19925 0.19874 0.0
H3054 H 0.88451 0.14734 0.20688 0.0
H3055 H 0.85581 0.16264 0.19611 0.0
H3056 H 0.95511 0.25132 0.18111 0.0
H3057 H 0.92681 0.26653 0.16964 0.0
H3058 H 0.97049 0.22214 0.20395 0.0
H3059 H 0.96532 0.19062 0.21607 0.0
C3060 C 0.79684 0.90835 0.16745 0.0
C3061 C 0.77322 0.90045 0.18009 0.0
C3062 C 0.79248 0.91176 0.22245 0.0
C3063 C 0.8173 0.91575 0.21037 0.0
N3064 N 0.84397 0.91399 0.1713 0.0
N3065 N 0.7507 0.88942 0.22005 0.0
C3066 C 0.81977 0.91301 0.1828 0.0
C3067 C 0.77172 0.90059 0.20775 0.0
N3068 N 0.7971 0.9127 0.14105 0.0
N3069 N 0.78822 0.91997 0.24758 0.0
H3070 H 0.73556 0.88021 0.20977 0.0
H3071 H 0.74981 0.88686 0.24033 0.0
H3072 H 0.80242 0.92998 0.25831 0.0
H3073 H 0.76983 0.91949 0.25653 0.0
H3074 H 0.81306 0.92094 0.13127 0.0
H3075 H 0.78047 0.91066 0.12936 0.0
H3076 H 0.84712 0.90937 0.15163 0.0
H3077 H 0.8612 0.91723 0.18191 0.0
C3078 C 0.06476 0.80412 0.205 0.0
C3079 C 0.0829 0.82541 0.20513 0.0
C3080 C 0.11659 0.7967 0.18681 0.0
C3081 C 0.09804 0.77619 0.18408 0.0
N3082 N 0.05281 0.76228 0.18563 0.0
N3083 N 0.1235 0.84353 0.18922 0.0
C3084 C 0.07159 0.78039 0.19179 0.0
C3085 C 0.10801 0.82216 0.19378 0.0
N3086 N 0.04154 0.80603 0.21825 0.0
N3087 N 0.14268 0.79146 0.18403 0.0
H3088 H 0.11721 0.8626 0.19324 0.0
H3089 H 0.1409 0.84246 0.17852 0.0
H3090 H 0.14956 0.7724 0.18127 0.0
H3091 H 0.15733 0.80526 0.18773 0.0
H3092 H 0.02919 0.79005 0.22149 0.0
H3093 H 0.03536 0.8231 0.2276 0.0
H3094 H 0.03286 0.76526 0.18895 0.0
H3095 H 0.05681 0.74538 0.17484 0.0
C3096 C 0.18007 0.88928 0.80354 0.0
C3097 C 0.18279 0.91353 0.79038 0.0
C3098 C 0.22732 0.91792 0.80882 0.0
C3099 C 0.22617 0.89122 0.81664 0.0
N3100 N 0.20252 0.85069 0.81928 0.0
N3101 N 0.20433 0.95549 0.78999 0.0
C3102 C 0.20274 0.87678 0.81359 0.0
C3103 C 0.20519 0.92933 0.79582 0.0
N3104 N 0.1557 0.87922 0.80813 0.0
N3105 N 0.24955 0.93208 0.81384 0.0
H3106 H 0.18706 0.96449 0.78361 0.0
H3107 H 0.21951 0.96869 0.79344 0.0
H3108 H 0.26517 0.92452 0.8247 0.0
H3109 H 0.25289 0.95106 0.80718 0.0
H3110 H 0.15249 0.86233 0.8192 0.0
H3111 H 0.13879 0.89015 0.80438 0.0
H3112 H 0.18651 0.83878 0.81521 0.0
H3113 H 0.21914 0.84065 0.82583 0.0
C3114 C 0.10875 0.18798 0.79975 0.0
C3115 C 0.08246 0.18776 0.79088 0.0
C3116 C 0.07593 0.23105 0.81161 0.0
C3117 C 0.10347 0.23287 0.81541 0.0
N3118 N 0.1465 0.21504 0.80879 0.0
N3119 N 0.0388 0.20492 0.79611 0.0
C3120 C 0.11996 0.21187 0.80819 0.0
C3121 C 0.06527 0.20825 0.79907 0.0
N3122 N 0.12226 0.16508 0.80239 0.0
N3123 N 0.06027 0.25108 0.8201 0.0
H3124 H 0.03078 0.18704 0.79013 0.0
H3125 H 0.02469 0.21881 0.80102 0.0
H3126 H 0.06769 0.26732 0.83012 0.0
H3127 H 0.0401 0.25203 0.81725 0.0
H3128 H 0.14115 0.16415 0.81023 0.0
H3129 H 0.1127 0.14703 0.80118 0.0
H3130 H 0.15939 0.20101 0.80133 0.0
H3131 H 0.15525 0.23275 0.81427 0.0
C3132 C 0.81301 0.09472 0.8234 0.0
C3133 C 0.81797 0.10848 0.7997 0.0
C3134 C 0.77562 0.13121 0.80411 0.0
C3135 C 0.76913 0.1147 0.82527 0.0
N3136 N 0.781 0.08072 0.85573 0.0
N3137 N 0.81042 0.14989 0.7782 0.0
C3138 C 0.78772 0.09648 0.83517 0.0
C3139 C 0.80104 0.12965 0.79289 0.0
N3140 N 0.8332 0.08251 0.83615 0.0
N3141 N 0.75722 0.14818 0.79455 0.0
H3142 H 0.83018 0.15119 0.77336 0.0
H3143 H 0.79987 0.16696 0.77428 0.0
H3144 H 0.73858 0.14995 0.80287 0.0
H3145 H 0.75971 0.15881 0.77727 0.0
H3146 H 0.83139 0.0736 0.85443 0.0
H3147 H 0.85271 0.08486 0.83048 0.0
H3148 H 0.79247 0.06507 0.86208 0.0
H3149 H 0.76301 0.0822 0.86532 0.0
C3150 C 0.9165 0.81382 0.79529 0.0
C3151 C 0.89361 0.82613 0.78524 0.0
C3152 C 0.8667 0.78972 0.80189 0.0
C3153 C 0.88971 0.77712 0.8108 0.0
N3154 N 0.93692 0.77615 0.81429 0.0
N3155 N 0.84752 0.82254 0.77384 0.0
C3156 C 0.91457 0.78874 0.80691 0.0
C3157 C 0.86887 0.81311 0.78697 0.0
N3158 N 0.94047 0.82561 0.79316 0.0
N3159 N 0.84268 0.77992 0.80878 0.0
H3160 H 0.84799 0.83961 0.7628 0.0
H3161 H 0.82995 0.81225 0.7719 0.0
H3162 H 0.84038 0.76269 0.81955 0.0
H3163 H 0.8251 0.78988 0.80566 0.0
H3164 H 0.95768 0.81696 0.8002 0.0
H3165 H 0.94303 0.84404 0.78473 0.0
H3166 H 0.93711 0.75732 0.82238 0.0
H3167 H 0.93711 0.75732 0.82238 0.0
C3168 C 0.19424 0.21935 0.12879 0.0
C3169 C 0.18278 0.23488 0.10891 0.0
C3170 C 0.20486 0.20897 0.07501 0.0
C3171 C 0.21868 0.19525 0.09497 0.0
N3172 N 0.22096 0.182 0.1405 0.0
N3173 N 0.17547 0.24495 0.06356 0.0
C3174 C 0.2116 0.19869 0.12179 0.0
C3175 C 0.18724 0.2295 0.08206 0.0
N3176 N 0.18919 0.22526 0.15448 0.0
N3177 N 0.2085 0.20184 0.04938 0.0
H3178 H 0.16252 0.26003 0.0685 0.0
H3179 H 0.1791 0.24377 0.04352 0.0
H3180 H 0.22058 0.18617 0.04404 0.0
H3181 H 0.19834 0.20986 0.03361 0.0
H3182 H 0.19942 0.2174 0.17031 0.0
H3183 H 0.1752 0.2391 0.16012 0.0
H3184 H 0.21469 0.18174 0.15991 0.0
H3185 H 0.23336 0.16657 0.13622 0.0
C3186 C 0.20379 0.81147 0.89515 0.0
C3187 C 0.21711 0.80996 0.91938 0.0
C3188 C 0.19691 0.76661 0.92661 0.0
C3189 C 0.18983 0.76603 0.89973 0.0
N3190 N 0.18912 0.7869 0.85754 0.0
N3191 N 0.21988 0.78946 0.96185 0.0
C3192 C 0.1939 0.78823 0.88379 0.0
C3193 C 0.21157 0.78848 0.9364 0.0
N3194 N 0.19872 0.83522 0.88402 0.0
N3195 N 0.18921 0.74647 0.94254 0.0
H3196 H 0.22722 0.80671 0.97013 0.0
H3197 H 0.21906 0.77371 0.9748 0.0
H3198 H 0.17864 0.7304 0.93546 0.0
H3199 H 0.1921 0.74606 0.96274 0.0
H3200 H 0.1869 0.83719 0.86743 0.0
H3201 H 0.20247 0.85271 0.894 0.0
H3202 H 0.19462 0.8019 0.84481 0.0
H3203 H 0.18189 0.77 0.84847 0.0
C3204 C 0.22337 0.19743 0.87822 0.0
C3205 C 0.23714 0.18673 0.89961 0.0
C3206 C 0.20274 0.20193 0.92961 0.0
C3207 C 0.18721 0.20967 0.90767 0.0
N3208 N 0.18123 0.20961 0.86069 0.0
N3209 N 0.24128 0.18085 0.94631 0.0
C3210 C 0.19725 0.20628 0.88185 0.0
C3211 C 0.22722 0.18942 0.92533 0.0
N3212 N 0.23552 0.19941 0.85444 0.0
N3213 N 0.1947 0.20682 0.9547 0.0
H3214 H 0.25984 0.17232 0.94468 0.0
H3215 H 0.25984 0.17232 0.94468 0.0
H3216 H 0.17765 0.21712 0.95928 0.0
H3217 H 0.20574 0.2012 0.97102 0.0
H3218 H 0.22763 0.20981 0.8387 0.0
H3219 H 0.25456 0.19257 0.85126 0.0
H3220 H 0.18689 0.20488 0.84165 0.0
H3221 H 0.16137 0.21391 0.86259 0.0
C3222 C 0.79711 0.20516 0.93555 0.0
C3223 C 0.78797 0.18382 0.92001 0.0
C3224 C 0.81219 0.20041 0.88232 0.0
C3225 C 0.81863 0.22341 0.89646 0.0
N3226 N 0.82131 0.24651 0.93744 0.0
N3227 N 0.80187 0.1543 0.886 0.0
C3228 C 0.81252 0.22532 0.92356 0.0
C3229 C 0.79999 0.17921 0.8955 0.0
N3230 N 0.7919 0.20519 0.96185 0.0
N3231 N 0.81666 0.19928 0.85599 0.0
H3232 H 0.79553 0.13813 0.89687 0.0
H3233 H 0.81228 0.14966 0.86899 0.0
H3234 H 0.82507 0.21486 0.84569 0.0
H3235 H 0.81 0.18379 0.84434 0.0
H3236 H 0.79755 0.21988 0.97483 0.0
H3237 H 0.78327 0.18905 0.97108 0.0
H3238 H 0.81719 0.25004 0.95709 0.0
H3239 H 0.83291 0.26105 0.92894 0.0
C3240 C 0.77998 0.8159 0.91291 0.0
C3241 C 0.78306 0.82529 0.88689 0.0
C3242 C 0.82843 0.80915 0.88647 0.0
C3243 C 0.82331 0.79512 0.90993 0.0
N3244 N 0.80064 0.7963 0.95119 0.0
N3245 N 0.81018 0.83221 0.84892 0.0
C3246 C 0.80091 0.8019 0.92498 0.0
C3247 C 0.80746 0.82263 0.87379 0.0
N3248 N 0.75684 0.82001 0.92581 0.0
N3249 N 0.8536 0.81133 0.87768 0.0
H3250 H 0.79507 0.84208 0.83924 0.0
H3251 H 0.82668 0.82898 0.83731 0.0
H3252 H 0.86941 0.80539 0.88925 0.0
H3253 H 0.85905 0.82227 0.86131 0.0
H3254 H 0.75187 0.81085 0.94336 0.0
H3255 H 0.74207 0.83213 0.91847 0.0
H3256 H 0.78563 0.80167 0.96393 0.0
H3257 H 0.8171 0.78868 0.96074 0.0
C3258 C 0.79524 0.78197 0.1257 0.0
C3259 C 0.81203 0.77069 0.10687 0.0
C3260 C 0.79851 0.80355 0.0747 0.0
C3261 C 0.77883 0.81281 0.09221 0.0
N3262 N 0.75587 0.80663 0.13389 0.0
N3263 N 0.82819 0.76953 0.06237 0.0
C3264 C 0.7766 0.80118 0.11776 0.0
C3265 C 0.81318 0.78099 0.08121 0.0
N3266 N 0.79737 0.77447 0.15134 0.0
N3267 N 0.8034 0.81621 0.05158 0.0
H3268 H 0.83894 0.75234 0.06536 0.0
H3269 H 0.83894 0.75234 0.06536 0.0
H3270 H 0.79489 0.8342 0.04675 0.0
H3271 H 0.81743 0.80957 0.03821 0.0
H3272 H 0.78796 0.78421 0.16667 0.0
H3273 H 0.8104 0.75991 0.1575 0.0
H3274 H 0.75196 0.79604 0.15093 0.0
H3275 H 0.74109 0.81991 0.12971 0.0
C3276 C 0.20216 0.79472 0.09135 0.0
C3277 C 0.19486 0.77974 0.11357 0.0
C3278 C 0.22439 0.80591 0.14118 0.0
C3279 C 0.23433 0.81807 0.11837 0.0
N3280 N 0.23512 0.8229 0.07159 0.0
N3281 N 0.19975 0.76975 0.15955 0.0
C3282 C 0.22364 0.81243 0.0934 0.0
C3283 C 0.20598 0.78519 0.13857 0.0
N3284 N 0.18877 0.79168 0.06832 0.0
N3285 N 0.23258 0.81437 0.16529 0.0
H3286 H 0.18529 0.75539 0.15856 0.0
H3287 H 0.20953 0.77037 0.17747 0.0
H3288 H 0.24587 0.82977 0.16766 0.0
H3289 H 0.22482 0.80761 0.18292 0.0
H3290 H 0.19179 0.80345 0.0519 0.0
H3291 H 0.17286 0.7789 0.06652 0.0
H3292 H 0.2303 0.81726 0.05256 0.0
H3293 H 0.25111 0.83567 0.07271 0.0
C3294 C 0.79224 0.18534 0.1226 0.0
C3295 C 0.77319 0.17887 0.10362 0.0
C3296 C 0.80236 0.19544 0.06906 0.0
C3297 C 0.8224 0.19954 0.08823 0.0
N3298 N 0.83837 0.19072 0.13179 0.0
N3299 N 0.76107 0.17383 0.05838 0.0
C3300 C 0.81791 0.19202 0.11456 0.0
C3301 C 0.77854 0.18273 0.07665 0.0
N3302 N 0.7853 0.1863 0.14838 0.0
N3303 N 0.80543 0.20456 0.04405 0.0
H3304 H 0.74343 0.16479 0.06354 0.0
H3305 H 0.76481 0.1739 0.0383 0.0
H3306 H 0.82269 0.21309 0.03727 0.0
H3307 H 0.79026 0.20501 0.03034 0.0
H3308 H 0.79794 0.1929 0.16307 0.0
H3309 H 0.76589 0.1835 0.15429 0.0
H3310 H 0.83647 0.18241 0.15037 0.0
H3311 H 0.85766 0.19473 0.1262 0.0
C3312 C 0.60091 0.70306 0.67772 0.0
C3313 C 0.57609 0.71534 0.67981 0.0
C3314 C 0.57004 0.6939 0.72253 0.0
C3315 C 0.59703 0.68722 0.72274 0.0
N3316 N 0.63899 0.68787 0.7014 0.0
N3317 N 0.53341 0.71403 0.70051 0.0
C3318 C 0.61265 0.69229 0.70047 0.0
C3319 C 0.55954 0.70821 0.70112 0.0
N3320 N 0.61222 0.69975 0.65374 0.0
N3321 N 0.55385 0.68683 0.74253 0.0
H3322 H 0.52432 0.72152 0.68377 0.0
H3323 H 0.52077 0.70951 0.716 0.0
H3324 H 0.55993 0.67584 0.75871 0.0
H3325 H 0.55993 0.67584 0.75871 0.0
H3326 H 0.62954 0.68918 0.65103 0.0
H3327 H 0.6019 0.70377 0.63652 0.0
H3328 H 0.65155 0.69418 0.6866 0.0
H3329 H 0.64834 0.68022 0.71795 0.0
C3330 C 0.31326 0.57968 0.69619 0.0
C3331 C 0.32192 0.60487 0.6882 0.0
C3332 C 0.30137 0.5985 0.64539 0.0
C3333 C 0.28759 0.5768 0.65576 0.0
N3334 N 0.29159 0.53907 0.6837 0.0
N3335 N 0.32514 0.63847 0.65526 0.0
C3336 C 0.29712 0.56483 0.67896 0.0
C3337 C 0.31674 0.61412 0.66255 0.0
N3338 N 0.31917 0.57083 0.72078 0.0
N3339 N 0.3008 0.60318 0.61907 0.0
H3340 H 0.33647 0.65027 0.66762 0.0
H3341 H 0.31956 0.64744 0.63775 0.0
H3342 H 0.29099 0.59064 0.60614 0.0
H3343 H 0.31244 0.61737 0.61007 0.0
H3344 H 0.31124 0.55387 0.72894 0.0
H3345 H 0.33107 0.58135 0.73368 0.0
H3346 H 0.29923 0.52847 0.6994 0.0
H3347 H 0.28183 0.52755 0.66988 0.0
C3348 C 0.40485 0.30135 0.69736 0.0
C3349 C 0.43145 0.29371 0.69524 0.0
C3350 C 0.44057 0.31632 0.73707 0.0
C3351 C 0.41317 0.31925 0.74097 0.0
N3352 N 0.36921 0.30906 0.72746 0.0
N3353 N 0.47601 0.30259 0.70792 0.0
C3354 C 0.39532 0.31026 0.72178 0.0
C3355 C 0.44986 0.3037 0.71375 0.0
N3356 N 0.38922 0.30201 0.67568 0.0
N3357 N 0.45742 0.3251 0.75596 0.0
H3358 H 0.4827 0.29603 0.6897 0.0
H3359 H 0.49085 0.3102 0.7197 0.0
H3360 H 0.45098 0.33521 0.77256 0.0
H3361 H 0.47752 0.32161 0.75589 0.0
H3362 H 0.3699 0.30877 0.67608 0.0
H3363 H 0.39714 0.30014 0.65691 0.0
H3364 H 0.35544 0.3009 0.7147 0.0
H3365 H 0.36214 0.31317 0.74623 0.0
C3366 C 0.70547 0.39833 0.68557 0.0
C3367 C 0.7192 0.4223 0.68828 0.0
C3368 C 0.69852 0.42825 0.73137 0.0
C3369 C 0.69028 0.40171 0.73079 0.0
N3370 N 0.68928 0.36019 0.70842 0.0
N3371 N 0.72097 0.46421 0.71054 0.0
C3372 C 0.69466 0.38638 0.70812 0.0
C3373 C 0.71345 0.43851 0.71026 0.0
N3374 N 0.70081 0.38818 0.6613 0.0
N3375 N 0.69228 0.44428 0.75179 0.0
H3376 H 0.72891 0.47341 0.69407 0.0
H3377 H 0.71744 0.47654 0.72653 0.0
H3378 H 0.68104 0.43832 0.76785 0.0
H3379 H 0.68104 0.43832 0.76785 0.0
H3380 H 0.68955 0.37136 0.65823 0.0
H3381 H 0.70469 0.39908 0.64439 0.0
H3382 H 0.69387 0.34778 0.6928 0.0
H3383 H 0.68311 0.35065 0.72545 0.0
C3384 C 0.57545 0.3097 0.32316 0.0
C3385 C 0.57138 0.28247 0.3196 0.0
C3386 C 0.58461 0.28647 0.27365 0.0
C3387 C 0.58606 0.31413 0.27623 0.0
N3388 N 0.57502 0.3521 0.30225 0.0
N3389 N 0.56291 0.24735 0.28896 0.0
C3390 C 0.57918 0.32579 0.30069 0.0
C3391 C 0.57301 0.27162 0.29402 0.0
N3392 N 0.57668 0.32016 0.34781 0.0
N3393 N 0.59589 0.27402 0.2528 0.0
H3394 H 0.55293 0.2366 0.3032 0.0
H3395 H 0.562 0.23944 0.2701 0.0
H3396 H 0.60712 0.2838 0.23881 0.0
H3397 H 0.59696 0.25362 0.25144 0.0
H3398 H 0.58244 0.33947 0.35138 0.0
H3399 H 0.5742 0.30902 0.36477 0.0
H3400 H 0.56843 0.36143 0.31921 0.0
H3401 H 0.57499 0.36382 0.28561 0.0
C3402 C 0.70299 0.56614 0.2953 0.0
C3403 C 0.71176 0.58182 0.31659 0.0
C3404 C 0.68875 0.61967 0.29888 0.0
C3405 C 0.68338 0.60542 0.27571 0.0
N3406 N 0.6822 0.56454 0.25226 0.0
N3407 N 0.698 0.61649 0.34528 0.0
C3408 C 0.6892 0.57825 0.2742 0.0
C3409 C 0.70014 0.6066 0.32056 0.0
N3410 N 0.70709 0.53966 0.29612 0.0
N3411 N 0.684 0.64596 0.2997 0.0
H3412 H 0.70376 0.60561 0.36166 0.0
H3413 H 0.68776 0.63368 0.34954 0.0
H3414 H 0.67632 0.65603 0.28361 0.0
H3415 H 0.68977 0.65779 0.31538 0.0
H3416 H 0.70062 0.5265 0.28191 0.0
H3417 H 0.71517 0.5306 0.31265 0.0
H3418 H 0.68713 0.54505 0.24875 0.0
H3419 H 0.67196 0.57324 0.23685 0.0
C3420 C 0.3939 0.6874 0.32135 0.0
C3421 C 0.3946 0.71464 0.31629 0.0
C3422 C 0.39512 0.70613 0.26907 0.0
C3423 C 0.39452 0.67879 0.274 0.0
N3424 N 0.39984 0.64373 0.30593 0.0
N3425 N 0.40657 0.7489 0.28601 0.0
C3426 C 0.39603 0.66951 0.30028 0.0
C3427 C 0.39871 0.72371 0.29034 0.0
N3428 N 0.39162 0.67841 0.34647 0.0
N3429 N 0.39063 0.71544 0.24435 0.0
H3430 H 0.41174 0.76127 0.30137 0.0
H3431 H 0.41151 0.75609 0.26752 0.0
H3432 H 0.38642 0.70321 0.2285 0.0
H3433 H 0.38832 0.73534 0.24021 0.0
H3434 H 0.39051 0.65842 0.35088 0.0
H3435 H 0.39106 0.69101 0.36263 0.0
H3436 H 0.40294 0.62932 0.29174 0.0
H3437 H 0.40294 0.62932 0.29174 0.0
C3438 C 0.29792 0.43326 0.29636 0.0
C3439 C 0.29212 0.41762 0.31882 0.0
C3440 C 0.31578 0.3808 0.2996 0.0
C3441 C 0.31997 0.39533 0.2764 0.0
N3442 N 0.32203 0.43743 0.25523 0.0
N3443 N 0.30999 0.38378 0.34646 0.0
C3444 C 0.31305 0.42228 0.27544 0.0
C3445 C 0.30544 0.39351 0.32198 0.0
N3446 N 0.28961 0.45872 0.29553 0.0
N3447 N 0.32131 0.35464 0.3001 0.0
H3448 H 0.30587 0.39475 0.36325 0.0
H3449 H 0.32163 0.3673 0.34979 0.0
H3450 H 0.32824 0.34448 0.28372 0.0
H3451 H 0.31642 0.34277 0.31593 0.0
H3452 H 0.29006 0.47034 0.27875 0.0
H3453 H 0.28253 0.46832 0.31217 0.0
H3454 H 0.31964 0.45768 0.25417 0.0
H3455 H 0.33358 0.42989 0.24012 0.0
C3456 C 0.67945 0.61295 0.69951 0.0
C3457 C 0.6829 0.58925 0.71352 0.0
C3458 C 0.72532 0.58337 0.69129 0.0
C3459 C 0.72407 0.60968 0.68236 0.0
N3460 N 0.7013 0.65084 0.6816 0.0
N3461 N 0.70595 0.54781 0.71559 0.0
C3462 C 0.70143 0.62478 0.68736 0.0
C3463 C 0.70493 0.57324 0.7073 0.0
N3464 N 0.65497 0.62302 0.6958 0.0
N3465 N 0.74567 0.5674 0.68473 0.0
H3466 H 0.69001 0.53867 0.72462 0.0
H3467 H 0.72198 0.53562 0.71179 0.0
H3468 H 0.76109 0.57304 0.67248 0.0
H3469 H 0.76109 0.57304 0.67248 0.0
H3470 H 0.65148 0.63921 0.6838 0.0
H3471 H 0.63818 0.61242 0.70076 0.0
H3472 H 0.68631 0.66316 0.68798 0.0
H3473 H 0.71732 0.66032 0.67302 0.0
C3474 C 0.39771 0.65879 0.66667 0.0
C3475 C 0.41158 0.65727 0.69077 0.0
C3476 C 0.4051 0.70442 0.69706 0.0
C3477 C 0.39499 0.70676 0.67129 0.0
N3478 N 0.38804 0.68557 0.629 0.0
N3479 N 0.43581 0.68069 0.72388 0.0
C3480 C 0.3928 0.68379 0.65532 0.0
C3481 C 0.41715 0.68062 0.70479 0.0
N3482 N 0.38918 0.63644 0.65449 0.0
N3483 N 0.40324 0.72494 0.71417 0.0
H3484 H 0.44737 0.66427 0.7274 0.0
H3485 H 0.44213 0.69774 0.73329 0.0
H3486 H 0.39312 0.74213 0.70956 0.0
H3487 H 0.40921 0.72366 0.7337 0.0
H3488 H 0.37706 0.63665 0.638 0.0
H3489 H 0.39193 0.61771 0.66223 0.0
H3490 H 0.38908 0.6695 0.61638 0.0
H3491 H 0.38621 0.70314 0.61892 0.0
C3492 C 0.30766 0.40827 0.70893 0.0
C3493 C 0.30953 0.38729 0.72725 0.0
C3494 C 0.26806 0.36905 0.71058 0.0
C3495 C 0.26562 0.39044 0.69317 0.0
N3496 N 0.27952 0.43311 0.67936 0.0
N3497 N 0.28661 0.35285 0.75076 0.0
C3498 C 0.28432 0.41099 0.69359 0.0
C3499 C 0.28821 0.36929 0.72969 0.0
N3500 N 0.32854 0.42465 0.70504 0.0
N3501 N 0.25202 0.34768 0.70802 0.0
H3502 H 0.30029 0.35286 0.76579 0.0
H3503 H 0.27012 0.34145 0.75485 0.0
H3504 H 0.23737 0.34626 0.69383 0.0
H3505 H 0.25504 0.3302 0.7182 0.0
H3506 H 0.32927 0.43851 0.69005 0.0
H3507 H 0.34606 0.42312 0.7155 0.0
H3508 H 0.29107 0.44995 0.68052 0.0
H3509 H 0.26242 0.43527 0.66826 0.0
C3510 C 0.59831 0.30038 0.66434 0.0
C3511 C 0.59998 0.27491 0.67562 0.0
C3512 C 0.59337 0.29433 0.71903 0.0
C3513 C 0.59769 0.31963 0.70829 0.0
N3514 N 0.60341 0.34732 0.67058 0.0
N3515 N 0.60226 0.24795 0.71441 0.0
C3516 C 0.59956 0.32283 0.6808 0.0
C3517 C 0.59792 0.27188 0.70317 0.0
N3518 N 0.59507 0.30302 0.63793 0.0
N3519 N 0.58512 0.2917 0.74433 0.0
H3520 H 0.60715 0.23131 0.70357 0.0
H3521 H 0.6037 0.24522 0.73462 0.0
H3522 H 0.58028 0.30782 0.75586 0.0
H3523 H 0.57994 0.27374 0.75262 0.0
H3524 H 0.59144 0.32089 0.6287 0.0
H3525 H 0.59347 0.28688 0.62559 0.0
H3526 H 0.6084 0.35073 0.65106 0.0
H3527 H 0.60263 0.36424 0.68212 0.0
C3528 C 0.72589 0.40042 0.31072 0.0
C3529 C 0.74452 0.37976 0.30921 0.0
C3530 C 0.71938 0.36061 0.27328 0.0
C3531 C 0.69789 0.3775 0.27889 0.0
N3532 N 0.68044 0.4133 0.30472 0.0
N3533 N 0.7551 0.33655 0.29233 0.0
C3534 C 0.70115 0.39774 0.29782 0.0
C3535 C 0.74051 0.359 0.29114 0.0
N3536 N 0.73187 0.42235 0.32492 0.0
N3537 N 0.71992 0.34625 0.25069 0.0
H3538 H 0.76945 0.33306 0.3064 0.0
H3539 H 0.75071 0.31999 0.28111 0.0
H3540 H 0.70556 0.34801 0.23633 0.0
H3541 H 0.73625 0.33534 0.2449 0.0
H3542 H 0.72009 0.43906 0.32526 0.0
H3543 H 0.75 0.4246 0.33426 0.0
H3544 H 0.68114 0.42652 0.32031 0.0
H3545 H 0.66187 0.41158 0.29634 0.0
C3546 C 0.55739 0.69523 0.28927 0.0
C3547 C 0.5754 0.67475 0.28307 0.0
C3548 C 0.61043 0.69838 0.30523 0.0
C3549 C 0.59337 0.71957 0.3102 0.0
N3550 N 0.54948 0.73649 0.31247 0.0
N3551 N 0.61292 0.65146 0.29986 0.0
C3552 C 0.56634 0.71747 0.30395 0.0
C3553 C 0.60006 0.67452 0.29575 0.0
N3554 N 0.53182 0.69295 0.28158 0.0
N3555 N 0.63678 0.70148 0.30845 0.0
H3556 H 0.60388 0.63346 0.2961 0.0
H3557 H 0.63032 0.65029 0.31058 0.0
H3558 H 0.64509 0.71966 0.31291 0.0
H3559 H 0.65022 0.68695 0.30355 0.0
H3560 H 0.51807 0.70799 0.28284 0.0
H3561 H 0.52433 0.67532 0.27431 0.0
H3562 H 0.52921 0.73569 0.3102 0.0
H3563 H 0.55592 0.75274 0.32317 0.0
C3564 C 0.29542 0.61456 0.30933 0.0
C3565 C 0.27279 0.59872 0.31293 0.0
C3566 C 0.29576 0.56168 0.29232 0.0
C3567 C 0.31698 0.57877 0.28633 0.0
N3568 N 0.34252 0.61426 0.30377 0.0
N3569 N 0.25382 0.55541 0.31443 0.0
C3570 C 0.31867 0.60305 0.29942 0.0
C3571 C 0.27369 0.57158 0.30646 0.0
N3572 N 0.29435 0.64089 0.31394 0.0
N3573 N 0.29738 0.53594 0.28494 0.0
H3574 H 0.23902 0.56157 0.32712 0.0
H3575 H 0.25255 0.53554 0.31002 0.0
H3576 H 0.3147 0.52805 0.27735 0.0
H3577 H 0.28229 0.52232 0.28671 0.0
H3578 H 0.30982 0.65356 0.30953 0.0
H3579 H 0.27706 0.65027 0.31944 0.0
H3580 H 0.34493 0.63125 0.31494 0.0
H3581 H 0.35988 0.60443 0.29918 0.0
C3582 C 0.41135 0.31961 0.33211 0.0
C3583 C 0.41501 0.31727 0.30468 0.0
C3584 C 0.40159 0.2711 0.30685 0.0
C3585 C 0.39999 0.2728 0.33447 0.0
N3586 N 0.41198 0.29673 0.37354 0.0
N3587 N 0.42275 0.2881 0.2681 0.0
C3588 C 0.40734 0.29653 0.34722 0.0
C3589 C 0.41277 0.29221 0.2926 0.0
N3590 N 0.41087 0.34376 0.34374 0.0
N3591 N 0.3918 0.24967 0.2941 0.0
H3592 H 0.4329 0.3026 0.25786 0.0
H3593 H 0.4235 0.26962 0.25933 0.0
H3594 H 0.38266 0.23423 0.30395 0.0
H3595 H 0.39042 0.24861 0.27371 0.0
H3596 H 0.4056 0.34649 0.36331 0.0
H3597 H 0.41342 0.36117 0.33329 0.0
H3598 H 0.41984 0.31289 0.38335 0.0
H3599 H 0.41047 0.27993 0.38504 0.0
C3600 C 0.6997 0.71079 0.56374 0.0
C3601 C 0.70706 0.68946 0.58022 0.0
C3602 C 0.68427 0.7095 0.61704 0.0
C3603 C 0.67896 0.7319 0.60174 0.0
N3604 N 0.67753 0.75313 0.5597 0.0
N3605 N 0.69175 0.66285 0.616 0.0
C3606 C 0.68537 0.7323 0.57466 0.0
C3607 C 0.69502 0.68699 0.60502 0.0
N3608 N 0.70545 0.70957 0.53759 0.0
N3609 N 0.67986 0.71009 0.64337 0.0
H3610 H 0.69577 0.64575 0.60548 0.0
H3611 H 0.68101 0.65991 0.63315 0.0
H3612 H 0.67213 0.72647 0.65294 0.0
H3613 H 0.68642 0.69524 0.65572 0.0
H3614 H 0.70174 0.72445 0.52415 0.0
H3615 H 0.71276 0.69247 0.52898 0.0
H3616 H 0.68147 0.75527 0.53982 0.0
H3617 H 0.66645 0.76855 0.56735 0.0
C3618 C 0.68677 0.27104 0.39374 0.0
C3619 C 0.67792 0.26557 0.36798 0.0
C3620 C 0.69674 0.30685 0.35228 0.0
C3621 C 0.70851 0.3106 0.37723 0.0
N3622 N 0.70522 0.30306 0.42378 0.0
N3623 N 0.67232 0.27808 0.32294 0.0
C3624 C 0.70071 0.29474 0.39873 0.0
C3625 C 0.68199 0.28368 0.34734 0.0
N3626 N 0.68214 0.25318 0.41319 0.0
N3627 N 0.69924 0.32611 0.3338 0.0
H3628 H 0.6613 0.26124 0.31908 0.0
H3629 H 0.67599 0.28926 0.30628 0.0
H3630 H 0.70861 0.34385 0.33801 0.0
H3631 H 0.69037 0.32575 0.31543 0.0
H3632 H 0.6902 0.25441 0.43193 0.0
H3633 H 0.6714 0.23602 0.41003 0.0
H3634 H 0.69903 0.29302 0.44044 0.0
H3635 H 0.71186 0.32191 0.42794 0.0
C3636 C 0.73476 0.70417 0.39003 0.0
C3637 C 0.73304 0.67656 0.39187 0.0
C3638 C 0.68527 0.67959 0.39694 0.0
C3639 C 0.68697 0.70725 0.3948 0.0
N3640 N 0.71403 0.74577 0.39944 0.0
N3641 N 0.70834 0.63898 0.40627 0.0
C3642 C 0.712 0.71953 0.39476 0.0
C3643 C 0.70875 0.66454 0.39828 0.0
N3644 N 0.75775 0.71565 0.38241 0.0
N3645 N 0.66124 0.6677 0.39697 0.0
H3646 H 0.69149 0.62966 0.41316 0.0
H3647 H 0.72546 0.62795 0.40851 0.0
H3648 H 0.64375 0.67838 0.39748 0.0
H3649 H 0.65876 0.64746 0.39535 0.0
H3650 H 0.75938 0.73556 0.37803 0.0
H3651 H 0.77463 0.70485 0.37828 0.0
H3652 H 0.7319 0.75554 0.40137 0.0
H3653 H 0.69784 0.7569 0.40481 0.0
C3654 C 0.29885 0.73259 0.40938 0.0
C3655 C 0.30333 0.74342 0.38418 0.0
C3656 C 0.27573 0.70947 0.36416 0.0
C3657 C 0.27044 0.69925 0.38945 0.0
N3658 N 0.28121 0.69643 0.43516 0.0
N3659 N 0.30055 0.73968 0.3371 0.0
C3660 C 0.28346 0.70937 0.41181 0.0
C3661 C 0.29303 0.73114 0.36139 0.0
N3662 N 0.30882 0.74513 0.4309 0.0
N3663 N 0.2636 0.69867 0.34287 0.0
H3664 H 0.3128 0.75577 0.33419 0.0
H3665 H 0.29619 0.7299 0.31971 0.0
H3666 H 0.25372 0.68086 0.3441 0.0
H3667 H 0.26313 0.70717 0.32431 0.0
H3668 H 0.30483 0.73971 0.45017 0.0
H3669 H 0.32 0.76225 0.42944 0.0
H3670 H 0.29126 0.70163 0.45216 0.0
H3671 H 0.27096 0.67876 0.43676 0.0
C3672 C 0.30489 0.31559 0.38763 0.0
C3673 C 0.28164 0.31898 0.4022 0.0
C3674 C 0.30296 0.29921 0.44055 0.0
C3675 C 0.32669 0.29723 0.42594 0.0
N3676 N 0.35211 0.31291 0.38959 0.0
N3677 N 0.25992 0.31961 0.44407 0.0
C3678 C 0.3282 0.30837 0.40068 0.0
C3679 C 0.28106 0.3125 0.42923 0.0
N3680 N 0.30443 0.31822 0.36106 0.0
N3681 N 0.30097 0.28771 0.46465 0.0
H3682 H 0.24369 0.32924 0.43612 0.0
H3683 H 0.25942 0.31783 0.46443 0.0
H3684 H 0.31684 0.27896 0.47409 0.0
H3685 H 0.28327 0.28585 0.47472 0.0
H3686 H 0.32029 0.31269 0.34937 0.0
H3687 H 0.28738 0.32324 0.35084 0.0
H3688 H 0.35444 0.32284 0.37184 0.0
H3689 H 0.36946 0.30907 0.39978 0.0
C3690 C 0.31272 0.28398 0.64942 0.0
C3691 C 0.32501 0.26746 0.6309 0.0
C3692 C 0.30235 0.28989 0.59482 0.0
C3693 C 0.28846 0.3052 0.61353 0.0
N3694 N 0.2843 0.32101 0.65795 0.0
N3695 N 0.334 0.25498 0.58643 0.0
C3696 C 0.29495 0.30363 0.64064 0.0
C3697 C 0.32074 0.27074 0.60362 0.0
N3698 N 0.31759 0.28012 0.67553 0.0
N3699 N 0.29758 0.2938 0.56867 0.0
H3700 H 0.34677 0.24031 0.59273 0.0
H3701 H 0.33257 0.256 0.56612 0.0
H3702 H 0.2853 0.30875 0.5619 0.0
H3703 H 0.30607 0.2831 0.55354 0.0
H3704 H 0.30736 0.28924 0.69065 0.0
H3705 H 0.33141 0.26662 0.68231 0.0
H3706 H 0.29018 0.32295 0.67738 0.0
H3707 H 0.27087 0.33513 0.65231 0.0
C3708 C 0.72702 0.293 0.61911 0.0
C3709 C 0.73123 0.31852 0.60923 0.0
C3710 C 0.69083 0.3145 0.58331 0.0
C3711 C 0.6889 0.28754 0.59025 0.0
N3712 N 0.71271 0.24992 0.60705 0.0
N3713 N 0.72102 0.35028 0.57556 0.0
C3714 C 0.70905 0.27636 0.60609 0.0
C3715 C 0.71425 0.32842 0.58944 0.0
N3716 N 0.73969 0.28465 0.64117 0.0
N3717 N 0.67022 0.32722 0.57184 0.0
H3718 H 0.73908 0.3596 0.57794 0.0
H3719 H 0.71019 0.357 0.55954 0.0
H3720 H 0.65204 0.31838 0.56867 0.0
H3721 H 0.67033 0.34739 0.56839 0.0
H3722 H 0.73556 0.26663 0.64998 0.0
H3723 H 0.75187 0.29687 0.6522 0.0
H3724 H 0.72841 0.24125 0.61694 0.0
H3725 H 0.70252 0.23719 0.59486 0.0
C3726 C 0.26546 0.705 0.60617 0.0
C3727 C 0.26447 0.67854 0.59829 0.0
C3728 C 0.3094 0.68191 0.5813 0.0
C3729 C 0.30926 0.70929 0.58647 0.0
N3730 N 0.28299 0.7476 0.59643 0.0
N3731 N 0.28278 0.64355 0.57228 0.0
C3732 C 0.28617 0.72108 0.597 0.0
C3733 C 0.28569 0.66741 0.5841 0.0
N3734 N 0.24681 0.71474 0.62275 0.0
N3735 N 0.33222 0.66952 0.57465 0.0
H3736 H 0.26522 0.63302 0.57286 0.0
H3737 H 0.29683 0.63557 0.55975 0.0
H3738 H 0.35017 0.67928 0.57329 0.0
H3739 H 0.33374 0.64917 0.57312 0.0
H3740 H 0.24808 0.73337 0.63113 0.0
H3741 H 0.23151 0.70325 0.63005 0.0
H3742 H 0.26553 0.75691 0.60166 0.0
H3743 H 0.2966 0.75991 0.5877 0.0
loop_
_geom_bond_atom_site_label_1
_geom_bond_atom_site_label_2
_geom_bond_distance
_geom_bond_site_symmetry_2
_ccdc_geom_bond_type
C0 C1 1.351 . S
C0 N3 1.368 . S
C0 H5 0.931 . S
C1 C0 1.351 . S
C1 N2 1.373 . S
C1 H29 0.930 . S
N2 C1 1.373 . S
N2 C4 1.340 . S
N3 C0 1.368 . S
N3 C4 1.321 . S
N3 Co6 2.135 . S
C4 N2 1.340 . S
C4 N3 1.321 . S
C4 H28 0.930 . S
H5 C0 0.931 . S
Co6 N3 2.135 . S
Co6 N9 2.121 . S
Co6 O14 2.055 . S
Co6 O17 2.039 . S
Co6 N20 2.140 . S
C7 O8 1.227 . S
C7 O17 1.265 . S
O8 C7 1.227 . S
N9 Co6 2.121 . S
N9 C11 1.375 . S
N9 C12 1.313 . S
C10 C11 1.338 . S
C10 N13 1.377 . S
C10 H30 0.930 . S
C11 N9 1.375 . S
C11 C10 1.338 . S
C11 H15 0.931 . S
C12 N9 1.313 . S
C12 N13 1.344 . S
C12 H16 0.930 . S
N13 C10 1.377 . S
N13 C12 1.344 . S
O14 Co6 2.055 . S
O14 C18 1.253 . S
H15 C11 0.931 . S
H16 C12 0.930 . S
O17 Co6 2.039 . S
O17 C7 1.265 . S
C18 O14 1.253 . S
C18 O19 1.227 . S
O19 C18 1.227 . S
N20 Co6 2.140 . S
N20 C23 1.346 . S
N20 C24 1.345 . S
C21 C22 1.387 . S
C21 C25 1.391 . S
C22 C21 1.387 . S
C22 C23 1.369 . S
C22 H31 0.929 . S
C23 N20 1.346 . S
C23 C22 1.369 . S
C23 H26 0.928 . S
C24 N20 1.345 . S
C24 C25 1.371 . S
C24 H27 0.931 . S
C25 C21 1.391 . S
C25 C24 1.371 . S
C25 H32 0.930 . S
H26 C23 0.928 . S
H27 C24 0.931 . S
H28 C4 0.930 . S
H29 C1 0.930 . S
H30 C10 0.930 . S
H31 C22 0.929 . S
H32 C25 0.930 . S
C33 C34 1.351 . S
C33 N36 1.368 . S
C33 H38 0.931 . S
C34 C33 1.351 . S
C34 N35 1.373 . S
C34 H62 0.930 . S
N35 C34 1.373 . S
N35 C37 1.340 . S
N36 C33 1.368 . S
N36 C37 1.321 . S
N36 Co39 2.135 . S
C37 N35 1.340 . S
C37 N36 1.321 . S
C37 H61 0.930 . S
H38 C33 0.931 . S
Co39 N36 2.135 . S
Co39 N42 2.121 . S
Co39 O47 2.055 . S
Co39 O50 2.039 . S
Co39 N53 2.140 . S
C40 O41 1.227 . S
C40 O50 1.265 . S
O41 C40 1.227 . S
N42 Co39 2.121 . S
N42 C44 1.375 . S
N42 C45 1.313 . S
C43 C44 1.338 . S
C43 N46 1.377 . S
C43 H63 0.930 . S
C44 N42 1.375 . S
C44 C43 1.338 . S
C44 H48 0.931 . S
C45 N42 1.313 . S
C45 N46 1.344 . S
C45 H49 0.930 . S
N46 C43 1.377 . S
N46 C45 1.344 . S
O47 Co39 2.055 . S
O47 C51 1.253 . S
H48 C44 0.931 . S
H49 C45 0.930 . S
O50 Co39 2.039 . S
O50 C40 1.265 . S
C51 O47 1.253 . S
C51 O52 1.227 . S
O52 C51 1.227 . S
N53 Co39 2.140 . S
N53 C56 1.346 . S
N53 C57 1.345 . S
C54 C55 1.387 . S
C54 C58 1.391 . S
C55 C54 1.387 . S
C55 C56 1.369 . S
C55 H64 0.929 . S
C56 N53 1.346 . S
C56 C55 1.369 . S
C56 H59 0.928 . S
C57 N53 1.345 . S
C57 C58 1.371 . S
C57 H60 0.931 . S
C58 C54 1.391 . S
C58 C57 1.371 . S
C58 H65 0.930 . S
H59 C56 0.928 . S
H60 C57 0.931 . S
H61 C37 0.930 . S
H62 C34 0.930 . S
H63 C43 0.930 . S
H64 C55 0.929 . S
H65 C58 0.930 . S
C66 C67 1.351 . S
C66 N69 1.368 . S
C66 H71 0.931 . S
C67 C66 1.351 . S
C67 N68 1.373 . S
C67 H95 0.930 . S
N68 C67 1.373 . S
N68 C70 1.340 . S
N69 C66 1.368 . S
N69 C70 1.321 . S
N69 Co72 2.135 . S
C70 N68 1.340 . S
C70 N69 1.321 . S
C70 H94 0.930 . S
H71 C66 0.931 . S
Co72 N69 2.135 . S
Co72 N75 2.121 . S
Co72 O80 2.055 . S
Co72 O83 2.039 . S
Co72 N86 2.140 . S
C73 O74 1.227 . S
C73 O83 1.265 . S
O74 C73 1.227 . S
N75 Co72 2.121 . S
N75 C77 1.375 . S
N75 C78 1.313 . S
C76 C77 1.338 . S
C76 N79 1.377 . S
C76 H96 0.930 . S
C77 N75 1.375 . S
C77 C76 1.338 . S
C77 H81 0.931 . S
C78 N75 1.313 . S
C78 N79 1.344 . S
C78 H82 0.930 . S
N79 C76 1.377 . S
N79 C78 1.344 . S
O80 Co72 2.055 . S
O80 C84 1.253 . S
H81 C77 0.931 . S
H82 C78 0.930 . S
O83 Co72 2.039 . S
O83 C73 1.265 . S
C84 O80 1.253 . S
C84 O85 1.227 . S
O85 C84 1.227 . S
N86 Co72 2.140 . S
N86 C89 1.346 . S
N86 C90 1.345 . S
C87 C88 1.387 . S
C87 C91 1.391 . S
C88 C87 1.387 . S
C88 C89 1.369 . S
C88 H97 0.929 . S
C89 N86 1.346 . S
C89 C88 1.369 . S
C89 H92 0.928 . S
C90 N86 1.345 . S
C90 C91 1.371 . S
C90 H93 0.931 . S
C91 C87 1.391 . S
C91 C90 1.371 . S
C91 H98 0.930 . S
H92 C89 0.928 . S
H93 C90 0.931 . S
H94 C70 0.930 . S
H95 C67 0.930 . S
H96 C76 0.930 . S
H97 C88 0.929 . S
H98 C91 0.930 . S
C99 C100 1.351 . S
C99 N102 1.368 . S
C99 H104 0.931 . S
C100 C99 1.351 . S
C100 N101 1.373 . S
C100 H128 0.930 . S
N101 C100 1.373 . S
N101 C103 1.340 . S
N102 C99 1.368 . S
N102 C103 1.321 . S
N102 Co105 2.135 . S
C103 N101 1.340 . S
C103 N102 1.321 . S
C103 H127 0.930 . S
H104 C99 0.931 . S
Co105 N102 2.135 . S
Co105 N108 2.121 . S
Co105 O113 2.055 . S
Co105 O116 2.039 . S
Co105 N119 2.140 . S
C106 O107 1.227 . S
C106 O116 1.265 . S
O107 C106 1.227 . S
N108 Co105 2.121 . S
N108 C110 1.375 . S
N108 C111 1.313 . S
C109 C110 1.338 . S
C109 N112 1.377 . S
C109 H129 0.930 . S
C110 N108 1.375 . S
C110 C109 1.338 . S
C110 H114 0.931 . S
C111 N108 1.313 . S
C111 N112 1.344 . S
C111 H115 0.930 . S
N112 C109 1.377 . S
N112 C111 1.344 . S
O113 Co105 2.055 . S
O113 C117 1.253 . S
H114 C110 0.931 . S
H115 C111 0.930 . S
O116 Co105 2.039 . S
O116 C106 1.265 . S
C117 O113 1.253 . S
C117 O118 1.227 . S
O118 C117 1.227 . S
N119 Co105 2.140 . S
N119 C122 1.346 . S
N119 C123 1.345 . S
C120 C121 1.387 . S
C120 C124 1.391 . S
C121 C120 1.387 . S
C121 C122 1.369 . S
C121 H130 0.929 . S
C122 N119 1.346 . S
C122 C121 1.369 . S
C122 H125 0.928 . S
C123 N119 1.345 . S
C123 C124 1.371 . S
C123 H126 0.931 . S
C124 C120 1.391 . S
C124 C123 1.371 . S
C124 H131 0.930 . S
H125 C122 0.928 . S
H126 C123 0.931 . S
H127 C103 0.930 . S
H128 C100 0.930 . S
H129 C109 0.930 . S
H130 C121 0.929 . S
H131 C124 0.930 . S
C132 C133 1.351 . S
C132 N135 1.368 . S
C132 H137 0.931 . S
C133 C132 1.351 . S
C133 N134 1.373 . S
C133 H161 0.930 . S
N134 C133 1.373 . S
N134 C136 1.340 . S
N135 C132 1.368 . S
N135 C136 1.321 . S
N135 Co138 2.135 . S
C136 N134 1.340 . S
C136 N135 1.321 . S
C136 H160 0.930 . S
H137 C132 0.931 . S
Co138 N135 2.135 . S
Co138 N141 2.121 . S
Co138 O146 2.055 . S
Co138 O149 2.039 . S
Co138 N152 2.140 . S
C139 O140 1.227 . S
C139 O149 1.265 . S
O140 C139 1.227 . S
N141 Co138 2.121 . S
N141 C143 1.375 . S
N141 C144 1.313 . S
C142 C143 1.338 . S
C142 N145 1.377 . S
C142 H162 0.930 . S
C143 N141 1.375 . S
C143 C142 1.338 . S
C143 H147 0.931 . S
C144 N141 1.313 . S
C144 N145 1.344 . S
C144 H148 0.930 . S
N145 C142 1.377 . S
N145 C144 1.344 . S
O146 Co138 2.055 . S
O146 C150 1.253 . S
H147 C143 0.931 . S
H148 C144 0.930 . S
O149 Co138 2.039 . S
O149 C139 1.265 . S
C150 O146 1.253 . S
C150 O151 1.227 . S
O151 C150 1.227 . S
N152 Co138 2.140 . S
N152 C155 1.346 . S
N152 C156 1.345 . S
C153 C154 1.387 . S
C153 C157 1.391 . S
C154 C153 1.387 . S
C154 C155 1.369 . S
C154 H163 0.929 . S
C155 N152 1.346 . S
C155 C154 1.369 . S
C155 H158 0.928 . S
C156 N152 1.345 . S
C156 C157 1.371 . S
C156 H159 0.931 . S
C157 C153 1.391 . S
C157 C156 1.371 . S
C157 H164 0.930 . S
H158 C155 0.928 . S
H159 C156 0.931 . S
H160 C136 0.930 . S
H161 C133 0.930 . S
H162 C142 0.930 . S
H163 C154 0.929 . S
H164 C157 0.930 . S
C165 C166 1.351 . S
C165 N168 1.368 . S
C165 H170 0.931 . S
C166 C165 1.351 . S
C166 N167 1.373 . S
C166 H194 0.930 . S
N167 C166 1.373 . S
N167 C169 1.340 . S
N168 C165 1.368 . S
N168 C169 1.321 . S
N168 Co171 2.135 . S
C169 N167 1.340 . S
C169 N168 1.321 . S
C169 H193 0.930 . S
H170 C165 0.931 . S
Co171 N168 2.135 . S
Co171 N174 2.121 . S
Co171 O179 2.055 . S
Co171 O182 2.039 . S
Co171 N185 2.140 . S
C172 O173 1.227 . S
C172 O182 1.265 . S
O173 C172 1.227 . S
N174 Co171 2.121 . S
N174 C176 1.375 . S
N174 C177 1.313 . S
C175 C176 1.338 . S
C175 N178 1.377 . S
C175 H195 0.930 . S
C176 N174 1.375 . S
C176 C175 1.338 . S
C176 H180 0.931 . S
C177 N174 1.313 . S
C177 N178 1.344 . S
C177 H181 0.930 . S
N178 C175 1.377 . S
N178 C177 1.344 . S
O179 Co171 2.055 . S
O179 C183 1.253 . S
H180 C176 0.931 . S
H181 C177 0.930 . S
O182 Co171 2.039 . S
O182 C172 1.265 . S
C183 O179 1.253 . S
C183 O184 1.227 . S
O184 C183 1.227 . S
N185 Co171 2.140 . S
N185 C188 1.346 . S
N185 C189 1.345 . S
C186 C187 1.387 . S
C186 C190 1.391 . S
C187 C186 1.387 . S
C187 C188 1.369 . S
C187 H196 0.929 . S
C188 N185 1.346 . S
C188 C187 1.369 . S
C188 H191 0.928 . S
C189 N185 1.345 . S
C189 C190 1.371 . S
C189 H192 0.931 . S
C190 C186 1.391 . S
C190 C189 1.371 . S
C190 H197 0.930 . S
H191 C188 0.928 . S
H192 C189 0.931 . S
H193 C169 0.930 . S
H194 C166 0.930 . S
H195 C175 0.930 . S
H196 C187 0.929 . S
H197 C190 0.930 . S
C198 C199 1.351 . S
C198 N201 1.368 . S
C198 H203 0.931 . S
C199 C198 1.351 . S
C199 N200 1.373 . S
C199 H227 0.930 . S
N200 C199 1.373 . S
N200 C202 1.340 . S
N201 C198 1.368 . S
N201 C202 1.321 . S
N201 Co204 2.135 . S
C202 N200 1.340 . S
C202 N201 1.321 . S
C202 H226 0.930 . S
H203 C198 0.931 . S
Co204 N201 2.135 . S
Co204 N207 2.121 . S
Co204 O212 2.055 . S
Co204 O215 2.039 . S
Co204 N218 2.140 . S
C205 O206 1.227 . S
C205 O215 1.265 . S
O206 C205 1.227 . S
N207 Co204 2.121 . S
N207 C209 1.375 . S
N207 C210 1.313 . S
C208 C209 1.338 . S
C208 N211 1.377 . S
C208 H228 0.930 . S
C209 N207 1.375 . S
C209 C208 1.338 . S
C209 H213 0.931 . S
C210 N207 1.313 . S
C210 N211 1.344 . S
C210 H214 0.930 . S
N211 C208 1.377 . S
N211 C210 1.344 . S
O212 Co204 2.055 . S
O212 C216 1.253 . S
H213 C209 0.931 . S
H214 C210 0.930 . S
O215 Co204 2.039 . S
O215 C205 1.265 . S
C216 O212 1.253 . S
C216 O217 1.227 . S
O217 C216 1.227 . S
N218 Co204 2.140 . S
N218 C221 1.346 . S
N218 C222 1.345 . S
C219 C220 1.387 . S
C219 C223 1.391 . S
C220 C219 1.387 . S
C220 C221 1.369 . S
C220 H229 0.929 . S
C221 N218 1.346 . S
C221 C220 1.369 . S
C221 H224 0.928 . S
C222 N218 1.345 . S
C222 C223 1.371 . S
C222 H225 0.931 . S
C223 C219 1.391 . S
C223 C222 1.371 . S
C223 H230 0.930 . S
H224 C221 0.928 . S
H225 C222 0.931 . S
H226 C202 0.930 . S
H227 C199 0.930 . S
H228 C208 0.930 . S
H229 C220 0.929 . S
H230 C223 0.930 . S
C231 C232 1.351 . S
C231 N234 1.368 . S
C231 H236 0.931 . S
C232 C231 1.351 . S
C232 N233 1.373 . S
C232 H260 0.930 . S
N233 C232 1.373 . S
N233 C235 1.340 . S
N234 C231 1.368 . S
N234 C235 1.321 . S
N234 Co237 2.135 . S
C235 N233 1.340 . S
C235 N234 1.321 . S
C235 H259 0.930 . S
H236 C231 0.931 . S
Co237 N234 2.135 . S
Co237 N240 2.121 . S
Co237 O245 2.055 . S
Co237 O248 2.039 . S
Co237 N251 2.140 . S
C238 O239 1.227 . S
C238 O248 1.265 . S
O239 C238 1.227 . S
N240 Co237 2.121 . S
N240 C242 1.375 . S
N240 C243 1.313 . S
C241 C242 1.338 . S
C241 N244 1.377 . S
C241 H261 0.930 . S
C242 N240 1.375 . S
C242 C241 1.338 . S
C242 H246 0.931 . S
C243 N240 1.313 . S
C243 N244 1.344 . S
C243 H247 0.930 . S
N244 C241 1.377 . S
N244 C243 1.344 . S
O245 Co237 2.055 . S
O245 C249 1.253 . S
H246 C242 0.931 . S
H247 C243 0.930 . S
O248 Co237 2.039 . S
O248 C238 1.265 . S
C249 O245 1.253 . S
C249 O250 1.227 . S
O250 C249 1.227 . S
N251 Co237 2.140 . S
N251 C254 1.346 . S
N251 C255 1.345 . S
C252 C253 1.387 . S
C252 C256 1.391 . S
C253 C252 1.387 . S
C253 C254 1.369 . S
C253 H262 0.929 . S
C254 N251 1.346 . S
C254 C253 1.369 . S
C254 H257 0.928 . S
C255 N251 1.345 . S
C255 C256 1.371 . S
C255 H258 0.931 . S
C256 C252 1.391 . S
C256 C255 1.371 . S
C256 H263 0.930 . S
H257 C254 0.928 . S
H258 C255 0.931 . S
H259 C235 0.930 . S
H260 C232 0.930 . S
H261 C241 0.930 . S
H262 C253 0.929 . S
H263 C256 0.930 . S
C264 C265 1.351 . S
C264 N267 1.368 . S
C264 H269 0.931 . S
C265 C264 1.351 . S
C265 N266 1.373 . S
C265 H293 0.930 . S
N266 C265 1.373 . S
N266 C268 1.340 . S
N267 C264 1.368 . S
N267 C268 1.321 . S
N267 Co270 2.135 . S
C268 N266 1.340 . S
C268 N267 1.321 . S
C268 H292 0.930 . S
H269 C264 0.931 . S
Co270 N267 2.135 . S
Co270 N273 2.121 . S
Co270 O278 2.055 . S
Co270 O281 2.039 . S
Co270 N284 2.140 . S
C271 O272 1.227 . S
C271 O281 1.265 . S
O272 C271 1.227 . S
N273 Co270 2.121 . S
N273 C275 1.375 . S
N273 C276 1.313 . S
C274 C275 1.338 . S
C274 N277 1.377 . S
C274 H294 0.930 . S
C275 N273 1.375 . S
C275 C274 1.338 . S
C275 H279 0.931 . S
C276 N273 1.313 . S
C276 N277 1.344 . S
C276 H280 0.930 . S
N277 C274 1.377 . S
N277 C276 1.344 . S
O278 Co270 2.055 . S
O278 C282 1.253 . S
H279 C275 0.931 . S
H280 C276 0.930 . S
O281 Co270 2.039 . S
O281 C271 1.265 . S
C282 O278 1.253 . S
C282 O283 1.227 . S
O283 C282 1.227 . S
N284 Co270 2.140 . S
N284 C287 1.346 . S
N284 C288 1.345 . S
C285 C286 1.387 . S
C285 C289 1.391 . S
C286 C285 1.387 . S
C286 C287 1.369 . S
C286 H295 0.929 . S
C287 N284 1.346 . S
C287 C286 1.369 . S
C287 H290 0.928 . S
C288 N284 1.345 . S
C288 C289 1.371 . S
C288 H291 0.931 . S
C289 C285 1.391 . S
C289 C288 1.371 . S
C289 H296 0.930 . S
H290 C287 0.928 . S
H291 C288 0.931 . S
H292 C268 0.930 . S
H293 C265 0.930 . S
H294 C274 0.930 . S
H295 C286 0.929 . S
H296 C289 0.930 . S
C297 C298 1.351 . S
C297 N300 1.368 . S
C297 H302 0.931 . S
C298 C297 1.351 . S
C298 N299 1.373 . S
C298 H326 0.930 . S
N299 C298 1.373 . S
N299 C301 1.340 . S
N300 C297 1.368 . S
N300 C301 1.321 . S
N300 Co303 2.135 . S
C301 N299 1.340 . S
C301 N300 1.321 . S
C301 H325 0.930 . S
H302 C297 0.931 . S
Co303 N300 2.135 . S
Co303 N306 2.121 . S
Co303 O311 2.055 . S
Co303 O314 2.039 . S
Co303 N317 2.140 . S
C304 O305 1.227 . S
C304 O314 1.265 . S
O305 C304 1.227 . S
N306 Co303 2.121 . S
N306 C308 1.375 . S
N306 C309 1.313 . S
C307 C308 1.338 . S
C307 N310 1.377 . S
C307 H327 0.930 . S
C308 N306 1.375 . S
C308 C307 1.338 . S
C308 H312 0.931 . S
C309 N306 1.313 . S
C309 N310 1.344 . S
C309 H313 0.930 . S
N310 C307 1.377 . S
N310 C309 1.344 . S
O311 Co303 2.055 . S
O311 C315 1.253 . S
H312 C308 0.931 . S
H313 C309 0.930 . S
O314 Co303 2.039 . S
O314 C304 1.265 . S
C315 O311 1.253 . S
C315 O316 1.227 . S
O316 C315 1.227 . S
N317 Co303 2.140 . S
N317 C320 1.346 . S
N317 C321 1.345 . S
C318 C319 1.387 . S
C318 C322 1.391 . S
C319 C318 1.387 . S
C319 C320 1.369 . S
C319 H328 0.929 . S
C320 N317 1.346 . S
C320 C319 1.369 . S
C320 H323 0.928 . S
C321 N317 1.345 . S
C321 C322 1.371 . S
C321 H324 0.931 . S
C322 C318 1.391 . S
C322 C321 1.371 . S
C322 H329 0.930 . S
H323 C320 0.928 . S
H324 C321 0.931 . S
H325 C301 0.930 . S
H326 C298 0.930 . S
H327 C307 0.930 . S
H328 C319 0.929 . S
H329 C322 0.930 . S
C330 C331 1.351 . S
C330 N333 1.368 . S
C330 H335 0.931 . S
C331 C330 1.351 . S
C331 N332 1.373 . S
C331 H359 0.930 . S
N332 C331 1.373 . S
N332 C334 1.340 . S
N333 C330 1.368 . S
N333 C334 1.321 . S
N333 Co336 2.135 . S
C334 N332 1.340 . S
C334 N333 1.321 . S
C334 H358 0.930 . S
H335 C330 0.931 . S
Co336 N333 2.135 . S
Co336 N339 2.121 . S
Co336 O344 2.055 . S
Co336 O347 2.039 . S
Co336 N350 2.140 . S
C337 O338 1.227 . S
C337 O347 1.265 . S
O338 C337 1.227 . S
N339 Co336 2.121 . S
N339 C341 1.375 . S
N339 C342 1.313 . S
C340 C341 1.338 . S
C340 N343 1.377 . S
C340 H360 0.930 . S
C341 N339 1.375 . S
C341 C340 1.338 . S
C341 H345 0.931 . S
C342 N339 1.313 . S
C342 N343 1.344 . S
C342 H346 0.930 . S
N343 C340 1.377 . S
N343 C342 1.344 . S
O344 Co336 2.055 . S
O344 C348 1.253 . S
H345 C341 0.931 . S
H346 C342 0.930 . S
O347 Co336 2.039 . S
O347 C337 1.265 . S
C348 O344 1.253 . S
C348 O349 1.227 . S
O349 C348 1.227 . S
N350 Co336 2.140 . S
N350 C353 1.346 . S
N350 C354 1.345 . S
C351 C352 1.387 . S
C351 C355 1.391 . S
C352 C351 1.387 . S
C352 C353 1.369 . S
C352 H361 0.929 . S
C353 N350 1.346 . S
C353 C352 1.369 . S
C353 H356 0.928 . S
C354 N350 1.345 . S
C354 C355 1.371 . S
C354 H357 0.931 . S
C355 C351 1.391 . S
C355 C354 1.371 . S
C355 H362 0.930 . S
H356 C353 0.928 . S
H357 C354 0.931 . S
H358 C334 0.930 . S
H359 C331 0.930 . S
H360 C340 0.930 . S
H361 C352 0.929 . S
H362 C355 0.930 . S
C363 C364 1.351 . S
C363 N366 1.368 . S
C363 H368 0.931 . S
C364 C363 1.351 . S
C364 N365 1.373 . S
C364 H392 0.930 . S
N365 C364 1.373 . S
N365 C367 1.340 . S
N366 C363 1.368 . S
N366 C367 1.321 . S
N366 Co369 2.135 . S
C367 N365 1.340 . S
C367 N366 1.321 . S
C367 H391 0.930 . S
H368 C363 0.931 . S
Co369 N366 2.135 . S
Co369 N372 2.121 . S
Co369 O377 2.055 . S
Co369 O380 2.039 . S
Co369 N383 2.140 . S
C370 O371 1.227 . S
C370 O380 1.265 . S
O371 C370 1.227 . S
N372 Co369 2.121 . S
N372 C374 1.375 . S
N372 C375 1.313 . S
C373 C374 1.338 . S
C373 N376 1.377 . S
C373 H393 0.930 . S
C374 N372 1.375 . S
C374 C373 1.338 . S
C374 H378 0.931 . S
C375 N372 1.313 . S
C375 N376 1.344 . S
C375 H379 0.930 . S
N376 C373 1.377 . S
N376 C375 1.344 . S
O377 Co369 2.055 . S
O377 C381 1.253 . S
H378 C374 0.931 . S
H379 C375 0.930 . S
O380 Co369 2.039 . S
O380 C370 1.265 . S
C381 O377 1.253 . S
C381 O382 1.227 . S
O382 C381 1.227 . S
N383 Co369 2.140 . S
N383 C386 1.346 . S
N383 C387 1.345 . S
C384 C385 1.387 . S
C384 C388 1.391 . S
C385 C384 1.387 . S
C385 C386 1.369 . S
C385 H394 0.929 . S
C386 N383 1.346 . S
C386 C385 1.369 . S
C386 H389 0.928 . S
C387 N383 1.345 . S
C387 C388 1.371 . S
C387 H390 0.931 . S
C388 C384 1.391 . S
C388 C387 1.371 . S
C388 H395 0.930 . S
H389 C386 0.928 . S
H390 C387 0.931 . S
H391 C367 0.930 . S
H392 C364 0.930 . S
H393 C373 0.930 . S
H394 C385 0.929 . S
H395 C388 0.930 . S
C396 C397 1.351 . S
C396 N399 1.368 . S
C396 H401 0.931 . S
C397 C396 1.351 . S
C397 N398 1.373 . S
C397 H425 0.930 . S
N398 C397 1.373 . S
N398 C400 1.340 . S
N399 C396 1.368 . S
N399 C400 1.321 . S
N399 Co402 2.135 . S
C400 N398 1.340 . S
C400 N399 1.321 . S
C400 H424 0.930 . S
H401 C396 0.931 . S
Co402 N399 2.135 . S
Co402 N405 2.121 . S
Co402 O410 2.055 . S
Co402 O413 2.039 . S
Co402 N416 2.140 . S
C403 O404 1.227 . S
C403 O413 1.265 . S
O404 C403 1.227 . S
N405 Co402 2.121 . S
N405 C407 1.375 . S
N405 C408 1.313 . S
C406 C407 1.338 . S
C406 N409 1.377 . S
C406 H426 0.930 . S
C407 N405 1.375 . S
C407 C406 1.338 . S
C407 H411 0.931 . S
C408 N405 1.313 . S
C408 N409 1.344 . S
C408 H412 0.930 . S
N409 C406 1.377 . S
N409 C408 1.344 . S
O410 Co402 2.055 . S
O410 C414 1.253 . S
H411 C407 0.931 . S
H412 C408 0.930 . S
O413 Co402 2.039 . S
O413 C403 1.265 . S
C414 O410 1.253 . S
C414 O415 1.227 . S
O415 C414 1.227 . S
N416 Co402 2.140 . S
N416 C419 1.346 . S
N416 C420 1.345 . S
C417 C418 1.387 . S
C417 C421 1.391 . S
C418 C417 1.387 . S
C418 C419 1.369 . S
C418 H427 0.929 . S
C419 N416 1.346 . S
C419 C418 1.369 . S
C419 H422 0.928 . S
C420 N416 1.345 . S
C420 C421 1.371 . S
C420 H423 0.931 . S
C421 C417 1.391 . S
C421 C420 1.371 . S
C421 H428 0.930 . S
H422 C419 0.928 . S
H423 C420 0.931 . S
H424 C400 0.930 . S
H425 C397 0.930 . S
H426 C406 0.930 . S
H427 C418 0.929 . S
H428 C421 0.930 . S
C429 C430 1.351 . S
C429 N432 1.368 . S
C429 H434 0.931 . S
C430 C429 1.351 . S
C430 N431 1.373 . S
C430 H458 0.930 . S
N431 C430 1.373 . S
N431 C433 1.340 . S
N432 C429 1.368 . S
N432 C433 1.321 . S
N432 Co435 2.135 . S
C433 N431 1.340 . S
C433 N432 1.321 . S
C433 H457 0.930 . S
H434 C429 0.931 . S
Co435 N432 2.135 . S
Co435 N438 2.121 . S
Co435 O443 2.055 . S
Co435 O446 2.039 . S
Co435 N449 2.140 . S
C436 O437 1.227 . S
C436 O446 1.265 . S
O437 C436 1.227 . S
N438 Co435 2.121 . S
N438 C440 1.375 . S
N438 C441 1.313 . S
C439 C440 1.338 . S
C439 N442 1.377 . S
C439 H459 0.930 . S
C440 N438 1.375 . S
C440 C439 1.338 . S
C440 H444 0.931 . S
C441 N438 1.313 . S
C441 N442 1.344 . S
C441 H445 0.930 . S
N442 C439 1.377 . S
N442 C441 1.344 . S
O443 Co435 2.055 . S
O443 C447 1.253 . S
H444 C440 0.931 . S
H445 C441 0.930 . S
O446 Co435 2.039 . S
O446 C436 1.265 . S
C447 O443 1.253 . S
C447 O448 1.227 . S
O448 C447 1.227 . S
N449 Co435 2.140 . S
N449 C452 1.346 . S
N449 C453 1.345 . S
C450 C451 1.387 . S
C450 C454 1.391 . S
C451 C450 1.387 . S
C451 C452 1.369 . S
C451 H460 0.929 . S
C452 N449 1.346 . S
C452 C451 1.369 . S
C452 H455 0.928 . S
C453 N449 1.345 . S
C453 C454 1.371 . S
C453 H456 0.931 . S
C454 C450 1.391 . S
C454 C453 1.371 . S
C454 H461 0.930 . S
H455 C452 0.928 . S
H456 C453 0.931 . S
H457 C433 0.930 . S
H458 C430 0.930 . S
H459 C439 0.930 . S
H460 C451 0.929 . S
H461 C454 0.930 . S
C462 C463 1.351 . S
C462 N465 1.368 . S
C462 H467 0.931 . S
C463 C462 1.351 . S
C463 N464 1.373 . S
C463 H491 0.930 . S
N464 C463 1.373 . S
N464 C466 1.340 . S
N465 C462 1.368 . S
N465 C466 1.321 . S
N465 Co468 2.135 . S
C466 N464 1.340 . S
C466 N465 1.321 . S
C466 H490 0.930 . S
H467 C462 0.931 . S
Co468 N465 2.135 . S
Co468 N471 2.121 . S
Co468 O476 2.055 . S
Co468 O479 2.039 . S
Co468 N482 2.140 . S
C469 O470 1.227 . S
C469 O479 1.265 . S
O470 C469 1.227 . S
N471 Co468 2.121 . S
N471 C473 1.375 . S
N471 C474 1.313 . S
C472 C473 1.338 . S
C472 N475 1.377 . S
C472 H492 0.930 . S
C473 N471 1.375 . S
C473 C472 1.338 . S
C473 H477 0.931 . S
C474 N471 1.313 . S
C474 N475 1.344 . S
C474 H478 0.930 . S
N475 C472 1.377 . S
N475 C474 1.344 . S
O476 Co468 2.055 . S
O476 C480 1.253 . S
H477 C473 0.931 . S
H478 C474 0.930 . S
O479 Co468 2.039 . S
O479 C469 1.265 . S
C480 O476 1.253 . S
C480 O481 1.227 . S
O481 C480 1.227 . S
N482 Co468 2.140 . S
N482 C485 1.346 . S
N482 C486 1.345 . S
C483 C484 1.387 . S
C483 C487 1.391 . S
C484 C483 1.387 . S
C484 C485 1.369 . S
C484 H493 0.929 . S
C485 N482 1.346 . S
C485 C484 1.369 . S
C485 H488 0.928 . S
C486 N482 1.345 . S
C486 C487 1.371 . S
C486 H489 0.931 . S
C487 C483 1.391 . S
C487 C486 1.371 . S
C487 H494 0.930 . S
H488 C485 0.928 . S
H489 C486 0.931 . S
H490 C466 0.930 . S
H491 C463 0.930 . S
H492 C472 0.930 . S
H493 C484 0.929 . S
H494 C487 0.930 . S
C495 C496 1.351 . S
C495 N498 1.368 . S
C495 H500 0.931 . S
C496 C495 1.351 . S
C496 N497 1.373 . S
C496 H524 0.930 . S
N497 C496 1.373 . S
N497 C499 1.340 . S
N498 C495 1.368 . S
N498 C499 1.321 . S
N498 Co501 2.135 . S
C499 N497 1.340 . S
C499 N498 1.321 . S
C499 H523 0.930 . S
H500 C495 0.931 . S
Co501 N498 2.135 . S
Co501 N504 2.121 . S
Co501 O509 2.055 . S
Co501 O512 2.039 . S
Co501 N515 2.140 . S
C502 O503 1.227 . S
C502 O512 1.265 . S
O503 C502 1.227 . S
N504 Co501 2.121 . S
N504 C506 1.375 . S
N504 C507 1.313 . S
C505 C506 1.338 . S
C505 N508 1.377 . S
C505 H525 0.930 . S
C506 N504 1.375 . S
C506 C505 1.338 . S
C506 H510 0.931 . S
C507 N504 1.313 . S
C507 N508 1.344 . S
C507 H511 0.930 . S
N508 C505 1.377 . S
N508 C507 1.344 . S
O509 Co501 2.055 . S
O509 C513 1.253 . S
H510 C506 0.931 . S
H511 C507 0.930 . S
O512 Co501 2.039 . S
O512 C502 1.265 . S
C513 O509 1.253 . S
C513 O514 1.227 . S
O514 C513 1.227 . S
N515 Co501 2.140 . S
N515 C518 1.346 . S
N515 C519 1.345 . S
C516 C517 1.387 . S
C516 C520 1.391 . S
C517 C516 1.387 . S
C517 C518 1.369 . S
C517 H526 0.929 . S
C518 N515 1.346 . S
C518 C517 1.369 . S
C518 H521 0.928 . S
C519 N515 1.345 . S
C519 C520 1.371 . S
C519 H522 0.931 . S
C520 C516 1.391 . S
C520 C519 1.371 . S
C520 H527 0.930 . S
H521 C518 0.928 . S
H522 C519 0.931 . S
H523 C499 0.930 . S
H524 C496 0.930 . S
H525 C505 0.930 . S
H526 C517 0.929 . S
H527 C520 0.930 . S
C528 C529 1.351 . S
C528 N531 1.368 . S
C528 H533 0.931 . S
C529 C528 1.351 . S
C529 N530 1.373 . S
C529 H557 0.930 . S
N530 C529 1.373 . S
N530 C532 1.340 . S
N531 C528 1.368 . S
N531 C532 1.321 . S
N531 Co534 2.135 . S
C532 N530 1.340 . S
C532 N531 1.321 . S
C532 H556 0.930 . S
H533 C528 0.931 . S
Co534 N531 2.135 . S
Co534 N537 2.121 . S
Co534 O542 2.055 . S
Co534 O545 2.039 . S
Co534 N548 2.140 . S
C535 O536 1.227 . S
C535 O545 1.265 . S
O536 C535 1.227 . S
N537 Co534 2.121 . S
N537 C539 1.375 . S
N537 C540 1.313 . S
C538 C539 1.338 . S
C538 N541 1.377 . S
C538 H558 0.930 . S
C539 N537 1.375 . S
C539 C538 1.338 . S
C539 H543 0.931 . S
C540 N537 1.313 . S
C540 N541 1.344 . S
C540 H544 0.930 . S
N541 C538 1.377 . S
N541 C540 1.344 . S
O542 Co534 2.055 . S
O542 C546 1.253 . S
H543 C539 0.931 . S
H544 C540 0.930 . S
O545 Co534 2.039 . S
O545 C535 1.265 . S
C546 O542 1.253 . S
C546 O547 1.227 . S
O547 C546 1.227 . S
N548 Co534 2.140 . S
N548 C551 1.346 . S
N548 C552 1.345 . S
C549 C550 1.387 . S
C549 C553 1.391 . S
C550 C549 1.387 . S
C550 C551 1.369 . S
C550 H559 0.929 . S
C551 N548 1.346 . S
C551 C550 1.369 . S
C551 H554 0.928 . S
C552 N548 1.345 . S
C552 C553 1.371 . S
C552 H555 0.931 . S
C553 C549 1.391 . S
C553 C552 1.371 . S
C553 H560 0.930 . S
H554 C551 0.928 . S
H555 C552 0.931 . S
H556 C532 0.930 . S
H557 C529 0.930 . S
H558 C538 0.930 . S
H559 C550 0.929 . S
H560 C553 0.930 . S
C561 C562 1.351 . S
C561 N564 1.368 . S
C561 H566 0.931 . S
C562 C561 1.351 . S
C562 N563 1.373 . S
C562 H590 0.930 . S
N563 C562 1.373 . S
N563 C565 1.340 . S
N564 C561 1.368 . S
N564 C565 1.321 . S
N564 Co567 2.135 . S
C565 N563 1.340 . S
C565 N564 1.321 . S
C565 H589 0.930 . S
H566 C561 0.931 . S
Co567 N564 2.135 . S
Co567 N570 2.121 . S
Co567 O575 2.055 . S
Co567 O578 2.039 . S
Co567 N581 2.140 . S
C568 O569 1.227 . S
C568 O578 1.265 . S
O569 C568 1.227 . S
N570 Co567 2.121 . S
N570 C572 1.375 . S
N570 C573 1.313 . S
C571 C572 1.338 . S
C571 N574 1.377 . S
C571 H591 0.930 . S
C572 N570 1.375 . S
C572 C571 1.338 . S
C572 H576 0.931 . S
C573 N570 1.313 . S
C573 N574 1.344 . S
C573 H577 0.930 . S
N574 C571 1.377 . S
N574 C573 1.344 . S
O575 Co567 2.055 . S
O575 C579 1.253 . S
H576 C572 0.931 . S
H577 C573 0.930 . S
O578 Co567 2.039 . S
O578 C568 1.265 . S
C579 O575 1.253 . S
C579 O580 1.227 . S
O580 C579 1.227 . S
N581 Co567 2.140 . S
N581 C584 1.346 . S
N581 C585 1.345 . S
C582 C583 1.387 . S
C582 C586 1.391 . S
C583 C582 1.387 . S
C583 C584 1.369 . S
C583 H592 0.929 . S
C584 N581 1.346 . S
C584 C583 1.369 . S
C584 H587 0.928 . S
C585 N581 1.345 . S
C585 C586 1.371 . S
C585 H588 0.931 . S
C586 C582 1.391 . S
C586 C585 1.371 . S
C586 H593 0.930 . S
H587 C584 0.928 . S
H588 C585 0.931 . S
H589 C565 0.930 . S
H590 C562 0.930 . S
H591 C571 0.930 . S
H592 C583 0.929 . S
H593 C586 0.930 . S
C594 C595 1.351 . S
C594 N597 1.368 . S
C594 H599 0.931 . S
C595 C594 1.351 . S
C595 N596 1.373 . S
C595 H623 0.930 . S
N596 C595 1.373 . S
N596 C598 1.340 . S
N597 C594 1.368 . S
N597 C598 1.321 . S
N597 Co600 2.135 . S
C598 N596 1.340 . S
C598 N597 1.321 . S
C598 H622 0.930 . S
H599 C594 0.931 . S
Co600 N597 2.135 . S
Co600 N603 2.121 . S
Co600 O608 2.055 . S
Co600 O611 2.039 . S
Co600 N614 2.140 . S
C601 O602 1.227 . S
C601 O611 1.265 . S
O602 C601 1.227 . S
N603 Co600 2.121 . S
N603 C605 1.375 . S
N603 C606 1.313 . S
C604 C605 1.338 . S
C604 N607 1.377 . S
C604 H624 0.930 . S
C605 N603 1.375 . S
C605 C604 1.338 . S
C605 H609 0.931 . S
C606 N603 1.313 . S
C606 N607 1.344 . S
C606 H610 0.930 . S
N607 C604 1.377 . S
N607 C606 1.344 . S
O608 Co600 2.055 . S
O608 C612 1.253 . S
H609 C605 0.931 . S
H610 C606 0.930 . S
O611 Co600 2.039 . S
O611 C601 1.265 . S
C612 O608 1.253 . S
C612 O613 1.227 . S
O613 C612 1.227 . S
N614 Co600 2.140 . S
N614 C617 1.346 . S
N614 C618 1.345 . S
C615 C616 1.387 . S
C615 C619 1.391 . S
C616 C615 1.387 . S
C616 C617 1.369 . S
C616 H625 0.929 . S
C617 N614 1.346 . S
C617 C616 1.369 . S
C617 H620 0.928 . S
C618 N614 1.345 . S
C618 C619 1.371 . S
C618 H621 0.931 . S
C619 C615 1.391 . S
C619 C618 1.371 . S
C619 H626 0.930 . S
H620 C617 0.928 . S
H621 C618 0.931 . S
H622 C598 0.930 . S
H623 C595 0.930 . S
H624 C604 0.930 . S
H625 C616 0.929 . S
H626 C619 0.930 . S
C627 C628 1.351 . S
C627 N630 1.368 . S
C627 H632 0.931 . S
C628 C627 1.351 . S
C628 N629 1.373 . S
C628 H656 0.930 . S
N629 C628 1.373 . S
N629 C631 1.340 . S
N630 C627 1.368 . S
N630 C631 1.321 . S
N630 Co633 2.135 . S
C631 N629 1.340 . S
C631 N630 1.321 . S
C631 H655 0.930 . S
H632 C627 0.931 . S
Co633 N630 2.135 . S
Co633 N636 2.121 . S
Co633 O641 2.055 . S
Co633 O644 2.039 . S
Co633 N647 2.140 . S
C634 O635 1.227 . S
C634 O644 1.265 . S
O635 C634 1.227 . S
N636 Co633 2.121 . S
N636 C638 1.375 . S
N636 C639 1.313 . S
C637 C638 1.338 . S
C637 N640 1.377 . S
C637 H657 0.930 . S
C638 N636 1.375 . S
C638 C637 1.338 . S
C638 H642 0.931 . S
C639 N636 1.313 . S
C639 N640 1.344 . S
C639 H643 0.930 . S
N640 C637 1.377 . S
N640 C639 1.344 . S
O641 Co633 2.055 . S
O641 C645 1.253 . S
H642 C638 0.931 . S
H643 C639 0.930 . S
O644 Co633 2.039 . S
O644 C634 1.265 . S
C645 O641 1.253 . S
C645 O646 1.227 . S
O646 C645 1.227 . S
N647 Co633 2.140 . S
N647 C650 1.346 . S
N647 C651 1.345 . S
C648 C649 1.387 . S
C648 C652 1.391 . S
C649 C648 1.387 . S
C649 C650 1.369 . S
C649 H658 0.929 . S
C650 N647 1.346 . S
C650 C649 1.369 . S
C650 H653 0.928 . S
C651 N647 1.345 . S
C651 C652 1.371 . S
C651 H654 0.931 . S
C652 C648 1.391 . S
C652 C651 1.371 . S
C652 H659 0.930 . S
H653 C650 0.928 . S
H654 C651 0.931 . S
H655 C631 0.930 . S
H656 C628 0.930 . S
H657 C637 0.930 . S
H658 C649 0.929 . S
H659 C652 0.930 . S
C660 C661 1.351 . S
C660 N663 1.368 . S
C660 H665 0.931 . S
C661 C660 1.351 . S
C661 N662 1.373 . S
C661 H689 0.930 . S
N662 C661 1.373 . S
N662 C664 1.340 . S
N663 C660 1.368 . S
N663 C664 1.321 . S
N663 Co666 2.135 . S
C664 N662 1.340 . S
C664 N663 1.321 . S
C664 H688 0.930 . S
H665 C660 0.931 . S
Co666 N663 2.135 . S
Co666 N669 2.121 . S
Co666 O674 2.055 . S
Co666 O677 2.039 . S
Co666 N680 2.140 . S
C667 O668 1.227 . S
C667 O677 1.265 . S
O668 C667 1.227 . S
N669 Co666 2.121 . S
N669 C671 1.375 . S
N669 C672 1.313 . S
C670 C671 1.338 . S
C670 N673 1.377 . S
C670 H690 0.930 . S
C671 N669 1.375 . S
C671 C670 1.338 . S
C671 H675 0.931 . S
C672 N669 1.313 . S
C672 N673 1.344 . S
C672 H676 0.930 . S
N673 C670 1.377 . S
N673 C672 1.344 . S
O674 Co666 2.055 . S
O674 C678 1.253 . S
H675 C671 0.931 . S
H676 C672 0.930 . S
O677 Co666 2.039 . S
O677 C667 1.265 . S
C678 O674 1.253 . S
C678 O679 1.227 . S
O679 C678 1.227 . S
N680 Co666 2.140 . S
N680 C683 1.346 . S
N680 C684 1.345 . S
C681 C682 1.387 . S
C681 C685 1.391 . S
C682 C681 1.387 . S
C682 C683 1.369 . S
C682 H691 0.929 . S
C683 N680 1.346 . S
C683 C682 1.369 . S
C683 H686 0.928 . S
C684 N680 1.345 . S
C684 C685 1.371 . S
C684 H687 0.931 . S
C685 C681 1.391 . S
C685 C684 1.371 . S
C685 H692 0.930 . S
H686 C683 0.928 . S
H687 C684 0.931 . S
H688 C664 0.930 . S
H689 C661 0.930 . S
H690 C670 0.930 . S
H691 C682 0.929 . S
H692 C685 0.930 . S
C693 C694 1.351 . S
C693 N696 1.368 . S
C693 H698 0.931 . S
C694 C693 1.351 . S
C694 N695 1.373 . S
C694 H722 0.930 . S
N695 C694 1.373 . S
N695 C697 1.340 . S
N696 C693 1.368 . S
N696 C697 1.321 . S
N696 Co699 2.135 . S
C697 N695 1.340 . S
C697 N696 1.321 . S
C697 H721 0.930 . S
H698 C693 0.931 . S
Co699 N696 2.135 . S
Co699 N702 2.121 . S
Co699 O707 2.055 . S
Co699 O710 2.039 . S
Co699 N713 2.140 . S
C700 O701 1.227 . S
C700 O710 1.265 . S
O701 C700 1.227 . S
N702 Co699 2.121 . S
N702 C704 1.375 . S
N702 C705 1.313 . S
C703 C704 1.338 . S
C703 N706 1.377 . S
C703 H723 0.930 . S
C704 N702 1.375 . S
C704 C703 1.338 . S
C704 H708 0.931 . S
C705 N702 1.313 . S
C705 N706 1.344 . S
C705 H709 0.930 . S
N706 C703 1.377 . S
N706 C705 1.344 . S
O707 Co699 2.055 . S
O707 C711 1.253 . S
H708 C704 0.931 . S
H709 C705 0.930 . S
O710 Co699 2.039 . S
O710 C700 1.265 . S
C711 O707 1.253 . S
C711 O712 1.227 . S
O712 C711 1.227 . S
N713 Co699 2.140 . S
N713 C716 1.346 . S
N713 C717 1.345 . S
C714 C715 1.387 . S
C714 C718 1.391 . S
C715 C714 1.387 . S
C715 C716 1.369 . S
C715 H724 0.929 . S
C716 N713 1.346 . S
C716 C715 1.369 . S
C716 H719 0.928 . S
C717 N713 1.345 . S
C717 C718 1.371 . S
C717 H720 0.931 . S
C718 C714 1.391 . S
C718 C717 1.371 . S
C718 H725 0.930 . S
H719 C716 0.928 . S
H720 C717 0.931 . S
H721 C697 0.930 . S
H722 C694 0.930 . S
H723 C703 0.930 . S
H724 C715 0.929 . S
H725 C718 0.930 . S
C726 C727 1.351 . S
C726 N729 1.368 . S
C726 H731 0.931 . S
C727 C726 1.351 . S
C727 N728 1.373 . S
C727 H755 0.930 . S
N728 C727 1.373 . S
N728 C730 1.340 . S
N729 C726 1.368 . S
N729 C730 1.321 . S
N729 Co732 2.135 . S
C730 N728 1.340 . S
C730 N729 1.321 . S
C730 H754 0.930 . S
H731 C726 0.931 . S
Co732 N729 2.135 . S
Co732 N735 2.121 . S
Co732 O740 2.055 . S
Co732 O743 2.039 . S
Co732 N746 2.140 . S
C733 O734 1.227 . S
C733 O743 1.265 . S
O734 C733 1.227 . S
N735 Co732 2.121 . S
N735 C737 1.375 . S
N735 C738 1.313 . S
C736 C737 1.338 . S
C736 N739 1.377 . S
C736 H756 0.930 . S
C737 N735 1.375 . S
C737 C736 1.338 . S
C737 H741 0.931 . S
C738 N735 1.313 . S
C738 N739 1.344 . S
C738 H742 0.930 . S
N739 C736 1.377 . S
N739 C738 1.344 . S
O740 Co732 2.055 . S
O740 C744 1.253 . S
H741 C737 0.931 . S
H742 C738 0.930 . S
O743 Co732 2.039 . S
O743 C733 1.265 . S
C744 O740 1.253 . S
C744 O745 1.227 . S
O745 C744 1.227 . S
N746 Co732 2.140 . S
N746 C749 1.346 . S
N746 C750 1.345 . S
C747 C748 1.387 . S
C747 C751 1.391 . S
C748 C747 1.387 . S
C748 C749 1.369 . S
C748 H757 0.929 . S
C749 N746 1.346 . S
C749 C748 1.369 . S
C749 H752 0.928 . S
C750 N746 1.345 . S
C750 C751 1.371 . S
C750 H753 0.931 . S
C751 C747 1.391 . S
C751 C750 1.371 . S
C751 H758 0.930 . S
H752 C749 0.928 . S
H753 C750 0.931 . S
H754 C730 0.930 . S
H755 C727 0.930 . S
H756 C736 0.930 . S
H757 C748 0.929 . S
H758 C751 0.930 . S
C759 C760 1.351 . S
C759 N762 1.368 . S
C759 H764 0.931 . S
C760 C759 1.351 . S
C760 N761 1.373 . S
C760 H788 0.930 . S
N761 C760 1.373 . S
N761 C763 1.340 . S
N762 C759 1.368 . S
N762 C763 1.321 . S
N762 Co765 2.135 . S
C763 N761 1.340 . S
C763 N762 1.321 . S
C763 H787 0.930 . S
H764 C759 0.931 . S
Co765 N762 2.135 . S
Co765 N768 2.121 . S
Co765 O773 2.055 . S
Co765 O776 2.039 . S
Co765 N779 2.140 . S
C766 O767 1.227 . S
C766 O776 1.265 . S
O767 C766 1.227 . S
N768 Co765 2.121 . S
N768 C770 1.375 . S
N768 C771 1.313 . S
C769 C770 1.338 . S
C769 N772 1.377 . S
C769 H789 0.930 . S
C770 N768 1.375 . S
C770 C769 1.338 . S
C770 H774 0.931 . S
C771 N768 1.313 . S
C771 N772 1.344 . S
C771 H775 0.930 . S
N772 C769 1.377 . S
N772 C771 1.344 . S
O773 Co765 2.055 . S
O773 C777 1.253 . S
H774 C770 0.931 . S
H775 C771 0.930 . S
O776 Co765 2.039 . S
O776 C766 1.265 . S
C777 O773 1.253 . S
C777 O778 1.227 . S
O778 C777 1.227 . S
N779 Co765 2.140 . S
N779 C782 1.346 . S
N779 C783 1.345 . S
C780 C781 1.387 . S
C780 C784 1.391 . S
C781 C780 1.387 . S
C781 C782 1.369 . S
C781 H790 0.929 . S
C782 N779 1.346 . S
C782 C781 1.369 . S
C782 H785 0.928 . S
C783 N779 1.345 . S
C783 C784 1.371 . S
C783 H786 0.931 . S
C784 C780 1.391 . S
C784 C783 1.371 . S
C784 H791 0.930 . S
H785 C782 0.928 . S
H786 C783 0.931 . S
H787 C763 0.930 . S
H788 C760 0.930 . S
H789 C769 0.930 . S
H790 C781 0.929 . S
H791 C784 0.930 . S
C792 C793 1.351 . S
C792 N795 1.368 . S
C792 H797 0.931 . S
C793 C792 1.351 . S
C793 N794 1.373 . S
C793 H821 0.930 . S
N794 C793 1.373 . S
N794 C796 1.340 . S
N795 C792 1.368 . S
N795 C796 1.321 . S
N795 Co798 2.135 . S
C796 N794 1.340 . S
C796 N795 1.321 . S
C796 H820 0.930 . S
H797 C792 0.931 . S
Co798 N795 2.135 . S
Co798 N801 2.121 . S
Co798 O806 2.055 . S
Co798 O809 2.039 . S
Co798 N812 2.140 . S
C799 O800 1.227 . S
C799 O809 1.265 . S
O800 C799 1.227 . S
N801 Co798 2.121 . S
N801 C803 1.375 . S
N801 C804 1.313 . S
C802 C803 1.338 . S
C802 N805 1.377 . S
C802 H822 0.930 . S
C803 N801 1.375 . S
C803 C802 1.338 . S
C803 H807 0.931 . S
C804 N801 1.313 . S
C804 N805 1.344 . S
C804 H808 0.930 . S
N805 C802 1.377 . S
N805 C804 1.344 . S
O806 Co798 2.055 . S
O806 C810 1.253 . S
H807 C803 0.931 . S
H808 C804 0.930 . S
O809 Co798 2.039 . S
O809 C799 1.265 . S
C810 O806 1.253 . S
C810 O811 1.227 . S
O811 C810 1.227 . S
N812 Co798 2.140 . S
N812 C815 1.346 . S
N812 C816 1.345 . S
C813 C814 1.387 . S
C813 C817 1.391 . S
C814 C813 1.387 . S
C814 C815 1.369 . S
C814 H823 0.929 . S
C815 N812 1.346 . S
C815 C814 1.369 . S
C815 H818 0.928 . S
C816 N812 1.345 . S
C816 C817 1.371 . S
C816 H819 0.931 . S
C817 C813 1.391 . S
C817 C816 1.371 . S
C817 H824 0.930 . S
H818 C815 0.928 . S
H819 C816 0.931 . S
H820 C796 0.930 . S
H821 C793 0.930 . S
H822 C802 0.930 . S
H823 C814 0.929 . S
H824 C817 0.930 . S
C825 C826 1.351 . S
C825 N828 1.368 . S
C825 H830 0.931 . S
C826 C825 1.351 . S
C826 N827 1.373 . S
C826 H854 0.930 . S
N827 C826 1.373 . S
N827 C829 1.340 . S
N828 C825 1.368 . S
N828 C829 1.321 . S
N828 Co831 2.135 . S
C829 N827 1.340 . S
C829 N828 1.321 . S
C829 H853 0.930 . S
H830 C825 0.931 . S
Co831 N828 2.135 . S
Co831 N834 2.121 . S
Co831 O839 2.055 . S
Co831 O842 2.039 . S
Co831 N845 2.140 . S
C832 O833 1.227 . S
C832 O842 1.265 . S
O833 C832 1.227 . S
N834 Co831 2.121 . S
N834 C836 1.375 . S
N834 C837 1.313 . S
C835 C836 1.338 . S
C835 N838 1.377 . S
C835 H855 0.930 . S
C836 N834 1.375 . S
C836 C835 1.338 . S
C836 H840 0.931 . S
C837 N834 1.313 . S
C837 N838 1.344 . S
C837 H841 0.930 . S
N838 C835 1.377 . S
N838 C837 1.344 . S
O839 Co831 2.055 . S
O839 C843 1.253 . S
H840 C836 0.931 . S
H841 C837 0.930 . S
O842 Co831 2.039 . S
O842 C832 1.265 . S
C843 O839 1.253 . S
C843 O844 1.227 . S
O844 C843 1.227 . S
N845 Co831 2.140 . S
N845 C848 1.346 . S
N845 C849 1.345 . S
C846 C847 1.387 . S
C846 C850 1.391 . S
C847 C846 1.387 . S
C847 C848 1.369 . S
C847 H856 0.929 . S
C848 N845 1.346 . S
C848 C847 1.369 . S
C848 H851 0.928 . S
C849 N845 1.345 . S
C849 C850 1.371 . S
C849 H852 0.931 . S
C850 C846 1.391 . S
C850 C849 1.371 . S
C850 H857 0.930 . S
H851 C848 0.928 . S
H852 C849 0.931 . S
H853 C829 0.930 . S
H854 C826 0.930 . S
H855 C835 0.930 . S
H856 C847 0.929 . S
H857 C850 0.930 . S
C858 C859 1.351 . S
C858 N861 1.368 . S
C858 H863 0.931 . S
C859 C858 1.351 . S
C859 N860 1.373 . S
C859 H887 0.930 . S
N860 C859 1.373 . S
N860 C862 1.340 . S
N861 C858 1.368 . S
N861 C862 1.321 . S
N861 Co864 2.135 . S
C862 N860 1.340 . S
C862 N861 1.321 . S
C862 H886 0.930 . S
H863 C858 0.931 . S
Co864 N861 2.135 . S
Co864 N867 2.121 . S
Co864 O872 2.055 . S
Co864 O875 2.039 . S
Co864 N878 2.140 . S
C865 O866 1.227 . S
C865 O875 1.265 . S
O866 C865 1.227 . S
N867 Co864 2.121 . S
N867 C869 1.375 . S
N867 C870 1.313 . S
C868 C869 1.338 . S
C868 N871 1.377 . S
C868 H888 0.930 . S
C869 N867 1.375 . S
C869 C868 1.338 . S
C869 H873 0.931 . S
C870 N867 1.313 . S
C870 N871 1.344 . S
C870 H874 0.930 . S
N871 C868 1.377 . S
N871 C870 1.344 . S
O872 Co864 2.055 . S
O872 C876 1.253 . S
H873 C869 0.931 . S
H874 C870 0.930 . S
O875 Co864 2.039 . S
O875 C865 1.265 . S
C876 O872 1.253 . S
C876 O877 1.227 . S
O877 C876 1.227 . S
N878 Co864 2.140 . S
N878 C881 1.346 . S
N878 C882 1.345 . S
C879 C880 1.387 . S
C879 C883 1.391 . S
C880 C879 1.387 . S
C880 C881 1.369 . S
C880 H889 0.929 . S
C881 N878 1.346 . S
C881 C880 1.369 . S
C881 H884 0.928 . S
C882 N878 1.345 . S
C882 C883 1.371 . S
C882 H885 0.931 . S
C883 C879 1.391 . S
C883 C882 1.371 . S
C883 H890 0.930 . S
H884 C881 0.928 . S
H885 C882 0.931 . S
H886 C862 0.930 . S
H887 C859 0.930 . S
H888 C868 0.930 . S
H889 C880 0.929 . S
H890 C883 0.930 . S
C891 C892 1.351 . S
C891 N894 1.368 . S
C891 H896 0.931 . S
C892 C891 1.351 . S
C892 N893 1.373 . S
C892 H920 0.930 . S
N893 C892 1.373 . S
N893 C895 1.340 . S
N894 C891 1.368 . S
N894 C895 1.321 . S
N894 Co897 2.135 . S
C895 N893 1.340 . S
C895 N894 1.321 . S
C895 H919 0.930 . S
H896 C891 0.931 . S
Co897 N894 2.135 . S
Co897 N900 2.121 . S
Co897 O905 2.055 . S
Co897 O908 2.039 . S
Co897 N911 2.140 . S
C898 O899 1.227 . S
C898 O908 1.265 . S
O899 C898 1.227 . S
N900 Co897 2.121 . S
N900 C902 1.375 . S
N900 C903 1.313 . S
C901 C902 1.338 . S
C901 N904 1.377 . S
C901 H921 0.930 . S
C902 N900 1.375 . S
C902 C901 1.338 . S
C902 H906 0.931 . S
C903 N900 1.313 . S
C903 N904 1.344 . S
C903 H907 0.930 . S
N904 C901 1.377 . S
N904 C903 1.344 . S
O905 Co897 2.055 . S
O905 C909 1.253 . S
H906 C902 0.931 . S
H907 C903 0.930 . S
O908 Co897 2.039 . S
O908 C898 1.265 . S
C909 O905 1.253 . S
C909 O910 1.227 . S
O910 C909 1.227 . S
N911 Co897 2.140 . S
N911 C914 1.346 . S
N911 C915 1.345 . S
C912 C913 1.387 . S
C912 C916 1.391 . S
C913 C912 1.387 . S
C913 C914 1.369 . S
C913 H922 0.929 . S
C914 N911 1.346 . S
C914 C913 1.369 . S
C914 H917 0.928 . S
C915 N911 1.345 . S
C915 C916 1.371 . S
C915 H918 0.931 . S
C916 C912 1.391 . S
C916 C915 1.371 . S
C916 H923 0.930 . S
H917 C914 0.928 . S
H918 C915 0.931 . S
H919 C895 0.930 . S
H920 C892 0.930 . S
H921 C901 0.930 . S
H922 C913 0.929 . S
H923 C916 0.930 . S
C924 C925 1.351 . S
C924 N927 1.368 . S
C924 H929 0.931 . S
C925 C924 1.351 . S
C925 N926 1.373 . S
C925 H953 0.930 . S
N926 C925 1.373 . S
N926 C928 1.340 . S
N927 C924 1.368 . S
N927 C928 1.321 . S
N927 Co930 2.135 . S
C928 N926 1.340 . S
C928 N927 1.321 . S
C928 H952 0.930 . S
H929 C924 0.931 . S
Co930 N927 2.135 . S
Co930 N933 2.121 . S
Co930 O938 2.055 . S
Co930 O941 2.039 . S
Co930 N944 2.140 . S
C931 O932 1.227 . S
C931 O941 1.265 . S
O932 C931 1.227 . S
N933 Co930 2.121 . S
N933 C935 1.375 . S
N933 C936 1.313 . S
C934 C935 1.338 . S
C934 N937 1.377 . S
C934 H954 0.930 . S
C935 N933 1.375 . S
C935 C934 1.338 . S
C935 H939 0.931 . S
C936 N933 1.313 . S
C936 N937 1.344 . S
C936 H940 0.930 . S
N937 C934 1.377 . S
N937 C936 1.344 . S
O938 Co930 2.055 . S
O938 C942 1.253 . S
H939 C935 0.931 . S
H940 C936 0.930 . S
O941 Co930 2.039 . S
O941 C931 1.265 . S
C942 O938 1.253 . S
C942 O943 1.227 . S
O943 C942 1.227 . S
N944 Co930 2.140 . S
N944 C947 1.346 . S
N944 C948 1.345 . S
C945 C946 1.387 . S
C945 C949 1.391 . S
C946 C945 1.387 . S
C946 C947 1.369 . S
C946 H955 0.929 . S
C947 N944 1.346 . S
C947 C946 1.369 . S
C947 H950 0.928 . S
C948 N944 1.345 . S
C948 C949 1.371 . S
C948 H951 0.931 . S
C949 C945 1.391 . S
C949 C948 1.371 . S
C949 H956 0.930 . S
H950 C947 0.928 . S
H951 C948 0.931 . S
H952 C928 0.930 . S
H953 C925 0.930 . S
H954 C934 0.930 . S
H955 C946 0.929 . S
H956 C949 0.930 . S
C957 C958 1.351 . S
C957 N960 1.368 . S
C957 H962 0.931 . S
C958 C957 1.351 . S
C958 N959 1.373 . S
C958 H986 0.930 . S
N959 C958 1.373 . S
N959 C961 1.340 . S
N960 C957 1.368 . S
N960 C961 1.321 . S
N960 Co963 2.135 . S
C961 N959 1.340 . S
C961 N960 1.321 . S
C961 H985 0.930 . S
H962 C957 0.931 . S
Co963 N960 2.135 . S
Co963 N966 2.121 . S
Co963 O971 2.055 . S
Co963 O974 2.039 . S
Co963 N977 2.140 . S
C964 O965 1.227 . S
C964 O974 1.265 . S
O965 C964 1.227 . S
N966 Co963 2.121 . S
N966 C968 1.375 . S
N966 C969 1.313 . S
C967 C968 1.338 . S
C967 N970 1.377 . S
C967 H987 0.930 . S
C968 N966 1.375 . S
C968 C967 1.338 . S
C968 H972 0.931 . S
C969 N966 1.313 . S
C969 N970 1.344 . S
C969 H973 0.930 . S
N970 C967 1.377 . S
N970 C969 1.344 . S
O971 Co963 2.055 . S
O971 C975 1.253 . S
H972 C968 0.931 . S
H973 C969 0.930 . S
O974 Co963 2.039 . S
O974 C964 1.265 . S
C975 O971 1.253 . S
C975 O976 1.227 . S
O976 C975 1.227 . S
N977 Co963 2.140 . S
N977 C980 1.346 . S
N977 C981 1.345 . S
C978 C979 1.387 . S
C978 C982 1.391 . S
C979 C978 1.387 . S
C979 C980 1.369 . S
C979 H988 0.929 . S
C980 N977 1.346 . S
C980 C979 1.369 . S
C980 H983 0.928 . S
C981 N977 1.345 . S
C981 C982 1.371 . S
C981 H984 0.931 . S
C982 C978 1.391 . S
C982 C981 1.371 . S
C982 H989 0.930 . S
H983 C980 0.928 . S
H984 C981 0.931 . S
H985 C961 0.930 . S
H986 C958 0.930 . S
H987 C967 0.930 . S
H988 C979 0.929 . S
H989 C982 0.930 . S
C990 C991 1.351 . S
C990 N993 1.368 . S
C990 H995 0.931 . S
C991 C990 1.351 . S
C991 N992 1.373 . S
C991 H1019 0.930 . S
N992 C991 1.373 . S
N992 C994 1.340 . S
N993 C990 1.368 . S
N993 C994 1.321 . S
N993 Co996 2.135 . S
C994 N992 1.340 . S
C994 N993 1.321 . S
C994 H1018 0.930 . S
H995 C990 0.931 . S
Co996 N993 2.135 . S
Co996 N999 2.121 . S
Co996 O1004 2.055 . S
Co996 O1007 2.039 . S
Co996 N1010 2.140 . S
C997 O998 1.227 . S
C997 O1007 1.265 . S
O998 C997 1.227 . S
N999 Co996 2.121 . S
N999 C1001 1.375 . S
N999 C1002 1.313 . S
C1000 C1001 1.338 . S
C1000 N1003 1.377 . S
C1000 H1020 0.930 . S
C1001 N999 1.375 . S
C1001 C1000 1.338 . S
C1001 H1005 0.931 . S
C1002 N999 1.313 . S
C1002 N1003 1.344 . S
C1002 H1006 0.930 . S
N1003 C1000 1.377 . S
N1003 C1002 1.344 . S
O1004 Co996 2.055 . S
O1004 C1008 1.253 . S
H1005 C1001 0.931 . S
H1006 C1002 0.930 . S
O1007 Co996 2.039 . S
O1007 C997 1.265 . S
C1008 O1004 1.253 . S
C1008 O1009 1.227 . S
O1009 C1008 1.227 . S
N1010 Co996 2.140 . S
N1010 C1013 1.346 . S
N1010 C1014 1.345 . S
C1011 C1012 1.387 . S
C1011 C1015 1.391 . S
C1012 C1011 1.387 . S
C1012 C1013 1.369 . S
C1012 H1021 0.929 . S
C1013 N1010 1.346 . S
C1013 C1012 1.369 . S
C1013 H1016 0.928 . S
C1014 N1010 1.345 . S
C1014 C1015 1.371 . S
C1014 H1017 0.931 . S
C1015 C1011 1.391 . S
C1015 C1014 1.371 . S
C1015 H1022 0.930 . S
H1016 C1013 0.928 . S
H1017 C1014 0.931 . S
H1018 C994 0.930 . S
H1019 C991 0.930 . S
H1020 C1000 0.930 . S
H1021 C1012 0.929 . S
H1022 C1015 0.930 . S
C1023 C1024 1.351 . S
C1023 N1026 1.368 . S
C1023 H1028 0.931 . S
C1024 C1023 1.351 . S
C1024 N1025 1.373 . S
C1024 H1052 0.930 . S
N1025 C1024 1.373 . S
N1025 C1027 1.340 . S
N1026 C1023 1.368 . S
N1026 C1027 1.321 . S
N1026 Co1029 2.135 . S
C1027 N1025 1.340 . S
C1027 N1026 1.321 . S
C1027 H1051 0.930 . S
H1028 C1023 0.931 . S
Co1029 N1026 2.135 . S
Co1029 N1032 2.121 . S
Co1029 O1037 2.055 . S
Co1029 O1040 2.039 . S
Co1029 N1043 2.140 . S
C1030 O1031 1.227 . S
C1030 O1040 1.265 . S
O1031 C1030 1.227 . S
N1032 Co1029 2.121 . S
N1032 C1034 1.375 . S
N1032 C1035 1.313 . S
C1033 C1034 1.338 . S
C1033 N1036 1.377 . S
C1033 H1053 0.930 . S
C1034 N1032 1.375 . S
C1034 C1033 1.338 . S
C1034 H1038 0.931 . S
C1035 N1032 1.313 . S
C1035 N1036 1.344 . S
C1035 H1039 0.930 . S
N1036 C1033 1.377 . S
N1036 C1035 1.344 . S
O1037 Co1029 2.055 . S
O1037 C1041 1.253 . S
H1038 C1034 0.931 . S
H1039 C1035 0.930 . S
O1040 Co1029 2.039 . S
O1040 C1030 1.265 . S
C1041 O1037 1.253 . S
C1041 O1042 1.227 . S
O1042 C1041 1.227 . S
N1043 Co1029 2.140 . S
N1043 C1046 1.346 . S
N1043 C1047 1.345 . S
C1044 C1045 1.387 . S
C1044 C1048 1.391 . S
C1045 C1044 1.387 . S
C1045 C1046 1.369 . S
C1045 H1054 0.929 . S
C1046 N1043 1.346 . S
C1046 C1045 1.369 . S
C1046 H1049 0.928 . S
C1047 N1043 1.345 . S
C1047 C1048 1.371 . S
C1047 H1050 0.931 . S
C1048 C1044 1.391 . S
C1048 C1047 1.371 . S
C1048 H1055 0.930 . S
H1049 C1046 0.928 . S
H1050 C1047 0.931 . S
H1051 C1027 0.930 . S
H1052 C1024 0.930 . S
H1053 C1033 0.930 . S
H1054 C1045 0.929 . S
H1055 C1048 0.930 . S
C1056 C1057 1.351 . S
C1056 N1059 1.368 . S
C1056 H1061 0.931 . S
C1057 C1056 1.351 . S
C1057 N1058 1.373 . S
C1057 H1085 0.930 . S
N1058 C1057 1.373 . S
N1058 C1060 1.340 . S
N1059 C1056 1.368 . S
N1059 C1060 1.321 . S
N1059 Co1062 2.135 . S
C1060 N1058 1.340 . S
C1060 N1059 1.321 . S
C1060 H1084 0.930 . S
H1061 C1056 0.931 . S
Co1062 N1059 2.135 . S
Co1062 N1065 2.121 . S
Co1062 O1070 2.055 . S
Co1062 O1073 2.039 . S
Co1062 N1076 2.140 . S
C1063 O1064 1.227 . S
C1063 O1073 1.265 . S
O1064 C1063 1.227 . S
N1065 Co1062 2.121 . S
N1065 C1067 1.375 . S
N1065 C1068 1.313 . S
C1066 C1067 1.338 . S
C1066 N1069 1.377 . S
C1066 H1086 0.930 . S
C1067 N1065 1.375 . S
C1067 C1066 1.338 . S
C1067 H1071 0.931 . S
C1068 N1065 1.313 . S
C1068 N1069 1.344 . S
C1068 H1072 0.930 . S
N1069 C1066 1.377 . S
N1069 C1068 1.344 . S
O1070 Co1062 2.055 . S
O1070 C1074 1.253 . S
H1071 C1067 0.931 . S
H1072 C1068 0.930 . S
O1073 Co1062 2.039 . S
O1073 C1063 1.265 . S
C1074 O1070 1.253 . S
C1074 O1075 1.227 . S
O1075 C1074 1.227 . S
N1076 Co1062 2.140 . S
N1076 C1079 1.346 . S
N1076 C1080 1.345 . S
C1077 C1078 1.387 . S
C1077 C1081 1.391 . S
C1078 C1077 1.387 . S
C1078 C1079 1.369 . S
C1078 H1087 0.929 . S
C1079 N1076 1.346 . S
C1079 C1078 1.369 . S
C1079 H1082 0.928 . S
C1080 N1076 1.345 . S
C1080 C1081 1.371 . S
C1080 H1083 0.931 . S
C1081 C1077 1.391 . S
C1081 C1080 1.371 . S
C1081 H1088 0.930 . S
H1082 C1079 0.928 . S
H1083 C1080 0.931 . S
H1084 C1060 0.930 . S
H1085 C1057 0.930 . S
H1086 C1066 0.930 . S
H1087 C1078 0.929 . S
H1088 C1081 0.930 . S
C1089 C1090 1.351 . S
C1089 N1092 1.368 . S
C1089 H1094 0.931 . S
C1090 C1089 1.351 . S
C1090 N1091 1.373 . S
C1090 H1118 0.930 . S
N1091 C1090 1.373 . S
N1091 C1093 1.340 . S
N1092 C1089 1.368 . S
N1092 C1093 1.321 . S
N1092 Co1095 2.135 . S
C1093 N1091 1.340 . S
C1093 N1092 1.321 . S
C1093 H1117 0.930 . S
H1094 C1089 0.931 . S
Co1095 N1092 2.135 . S
Co1095 N1098 2.121 . S
Co1095 O1103 2.055 . S
Co1095 O1106 2.039 . S
Co1095 N1109 2.140 . S
C1096 O1097 1.227 . S
C1096 O1106 1.265 . S
O1097 C1096 1.227 . S
N1098 Co1095 2.121 . S
N1098 C1100 1.375 . S
N1098 C1101 1.313 . S
C1099 C1100 1.338 . S
C1099 N1102 1.377 . S
C1099 H1119 0.930 . S
C1100 N1098 1.375 . S
C1100 C1099 1.338 . S
C1100 H1104 0.931 . S
C1101 N1098 1.313 . S
C1101 N1102 1.344 . S
C1101 H1105 0.930 . S
N1102 C1099 1.377 . S
N1102 C1101 1.344 . S
O1103 Co1095 2.055 . S
O1103 C1107 1.253 . S
H1104 C1100 0.931 . S
H1105 C1101 0.930 . S
O1106 Co1095 2.039 . S
O1106 C1096 1.265 . S
C1107 O1103 1.253 . S
C1107 O1108 1.227 . S
O1108 C1107 1.227 . S
N1109 Co1095 2.140 . S
N1109 C1112 1.346 . S
N1109 C1113 1.345 . S
C1110 C1111 1.387 . S
C1110 C1114 1.391 . S
C1111 C1110 1.387 . S
C1111 C1112 1.369 . S
C1111 H1120 0.929 . S
C1112 N1109 1.346 . S
C1112 C1111 1.369 . S
C1112 H1115 0.928 . S
C1113 N1109 1.345 . S
C1113 C1114 1.371 . S
C1113 H1116 0.931 . S
C1114 C1110 1.391 . S
C1114 C1113 1.371 . S
C1114 H1121 0.930 . S
H1115 C1112 0.928 . S
H1116 C1113 0.931 . S
H1117 C1093 0.930 . S
H1118 C1090 0.930 . S
H1119 C1099 0.930 . S
H1120 C1111 0.929 . S
H1121 C1114 0.930 . S
C1122 C1123 1.351 . S
C1122 N1125 1.368 . S
C1122 H1127 0.931 . S
C1123 C1122 1.351 . S
C1123 N1124 1.373 . S
C1123 H1151 0.930 . S
N1124 C1123 1.373 . S
N1124 C1126 1.340 . S
N1125 C1122 1.368 . S
N1125 C1126 1.321 . S
N1125 Co1128 2.135 . S
C1126 N1124 1.340 . S
C1126 N1125 1.321 . S
C1126 H1150 0.930 . S
H1127 C1122 0.931 . S
Co1128 N1125 2.135 . S
Co1128 N1131 2.121 . S
Co1128 O1136 2.055 . S
Co1128 O1139 2.039 . S
Co1128 N1142 2.140 . S
C1129 O1130 1.227 . S
C1129 O1139 1.265 . S
O1130 C1129 1.227 . S
N1131 Co1128 2.121 . S
N1131 C1133 1.375 . S
N1131 C1134 1.313 . S
C1132 C1133 1.338 . S
C1132 N1135 1.377 . S
C1132 H1152 0.930 . S
C1133 N1131 1.375 . S
C1133 C1132 1.338 . S
C1133 H1137 0.931 . S
C1134 N1131 1.313 . S
C1134 N1135 1.344 . S
C1134 H1138 0.930 . S
N1135 C1132 1.377 . S
N1135 C1134 1.344 . S
O1136 Co1128 2.055 . S
O1136 C1140 1.253 . S
H1137 C1133 0.931 . S
H1138 C1134 0.930 . S
O1139 Co1128 2.039 . S
O1139 C1129 1.265 . S
C1140 O1136 1.253 . S
C1140 O1141 1.227 . S
O1141 C1140 1.227 . S
N1142 Co1128 2.140 . S
N1142 C1145 1.346 . S
N1142 C1146 1.345 . S
C1143 C1144 1.387 . S
C1143 C1147 1.391 . S
C1144 C1143 1.387 . S
C1144 C1145 1.369 . S
C1144 H1153 0.929 . S
C1145 N1142 1.346 . S
C1145 C1144 1.369 . S
C1145 H1148 0.928 . S
C1146 N1142 1.345 . S
C1146 C1147 1.371 . S
C1146 H1149 0.931 . S
C1147 C1143 1.391 . S
C1147 C1146 1.371 . S
C1147 H1154 0.930 . S
H1148 C1145 0.928 . S
H1149 C1146 0.931 . S
H1150 C1126 0.930 . S
H1151 C1123 0.930 . S
H1152 C1132 0.930 . S
H1153 C1144 0.929 . S
H1154 C1147 0.930 . S
C1155 C1156 1.351 . S
C1155 N1158 1.368 . S
C1155 H1160 0.931 . S
C1156 C1155 1.351 . S
C1156 N1157 1.373 . S
C1156 H1184 0.930 . S
N1157 C1156 1.373 . S
N1157 C1159 1.340 . S
N1158 C1155 1.368 . S
N1158 C1159 1.321 . S
N1158 Co1161 2.135 . S
C1159 N1157 1.340 . S
C1159 N1158 1.321 . S
C1159 H1183 0.930 . S
H1160 C1155 0.931 . S
Co1161 N1158 2.135 . S
Co1161 N1164 2.121 . S
Co1161 O1169 2.055 . S
Co1161 O1172 2.039 . S
Co1161 N1175 2.140 . S
C1162 O1163 1.227 . S
C1162 O1172 1.265 . S
O1163 C1162 1.227 . S
N1164 Co1161 2.121 . S
N1164 C1166 1.375 . S
N1164 C1167 1.313 . S
C1165 C1166 1.338 . S
C1165 N1168 1.377 . S
C1165 H1185 0.930 . S
C1166 N1164 1.375 . S
C1166 C1165 1.338 . S
C1166 H1170 0.931 . S
C1167 N1164 1.313 . S
C1167 N1168 1.344 . S
C1167 H1171 0.930 . S
N1168 C1165 1.377 . S
N1168 C1167 1.344 . S
O1169 Co1161 2.055 . S
O1169 C1173 1.253 . S
H1170 C1166 0.931 . S
H1171 C1167 0.930 . S
O1172 Co1161 2.039 . S
O1172 C1162 1.265 . S
C1173 O1169 1.253 . S
C1173 O1174 1.227 . S
O1174 C1173 1.227 . S
N1175 Co1161 2.140 . S
N1175 C1178 1.346 . S
N1175 C1179 1.345 . S
C1176 C1177 1.387 . S
C1176 C1180 1.391 . S
C1177 C1176 1.387 . S
C1177 C1178 1.369 . S
C1177 H1186 0.929 . S
C1178 N1175 1.346 . S
C1178 C1177 1.369 . S
C1178 H1181 0.928 . S
C1179 N1175 1.345 . S
C1179 C1180 1.371 . S
C1179 H1182 0.931 . S
C1180 C1176 1.391 . S
C1180 C1179 1.371 . S
C1180 H1187 0.930 . S
H1181 C1178 0.928 . S
H1182 C1179 0.931 . S
H1183 C1159 0.930 . S
H1184 C1156 0.930 . S
H1185 C1165 0.930 . S
H1186 C1177 0.929 . S
H1187 C1180 0.930 . S
C1188 C1189 1.351 . S
C1188 N1191 1.368 . S
C1188 H1193 0.931 . S
C1189 C1188 1.351 . S
C1189 N1190 1.373 . S
C1189 H1217 0.930 . S
N1190 C1189 1.373 . S
N1190 C1192 1.340 . S
N1191 C1188 1.368 . S
N1191 C1192 1.321 . S
N1191 Co1194 2.135 . S
C1192 N1190 1.340 . S
C1192 N1191 1.321 . S
C1192 H1216 0.930 . S
H1193 C1188 0.931 . S
Co1194 N1191 2.135 . S
Co1194 N1197 2.121 . S
Co1194 O1202 2.055 . S
Co1194 O1205 2.039 . S
Co1194 N1208 2.140 . S
C1195 O1196 1.227 . S
C1195 O1205 1.265 . S
O1196 C1195 1.227 . S
N1197 Co1194 2.121 . S
N1197 C1199 1.375 . S
N1197 C1200 1.313 . S
C1198 C1199 1.338 . S
C1198 N1201 1.377 . S
C1198 H1218 0.930 . S
C1199 N1197 1.375 . S
C1199 C1198 1.338 . S
C1199 H1203 0.931 . S
C1200 N1197 1.313 . S
C1200 N1201 1.344 . S
C1200 H1204 0.930 . S
N1201 C1198 1.377 . S
N1201 C1200 1.344 . S
O1202 Co1194 2.055 . S
O1202 C1206 1.253 . S
H1203 C1199 0.931 . S
H1204 C1200 0.930 . S
O1205 Co1194 2.039 . S
O1205 C1195 1.265 . S
C1206 O1202 1.253 . S
C1206 O1207 1.227 . S
O1207 C1206 1.227 . S
N1208 Co1194 2.140 . S
N1208 C1211 1.346 . S
N1208 C1212 1.345 . S
C1209 C1210 1.387 . S
C1209 C1213 1.391 . S
C1210 C1209 1.387 . S
C1210 C1211 1.369 . S
C1210 H1219 0.929 . S
C1211 N1208 1.346 . S
C1211 C1210 1.369 . S
C1211 H1214 0.928 . S
C1212 N1208 1.345 . S
C1212 C1213 1.371 . S
C1212 H1215 0.931 . S
C1213 C1209 1.391 . S
C1213 C1212 1.371 . S
C1213 H1220 0.930 . S
H1214 C1211 0.928 . S
H1215 C1212 0.931 . S
H1216 C1192 0.930 . S
H1217 C1189 0.930 . S
H1218 C1198 0.930 . S
H1219 C1210 0.929 . S
H1220 C1213 0.930 . S
C1221 C1222 1.351 . S
C1221 N1224 1.368 . S
C1221 H1226 0.931 . S
C1222 C1221 1.351 . S
C1222 N1223 1.373 . S
C1222 H1250 0.930 . S
N1223 C1222 1.373 . S
N1223 C1225 1.340 . S
N1224 C1221 1.368 . S
N1224 C1225 1.321 . S
N1224 Co1227 2.135 . S
C1225 N1223 1.340 . S
C1225 N1224 1.321 . S
C1225 H1249 0.930 . S
H1226 C1221 0.931 . S
Co1227 N1224 2.135 . S
Co1227 N1230 2.121 . S
Co1227 O1235 2.055 . S
Co1227 O1238 2.039 . S
Co1227 N1241 2.140 . S
C1228 O1229 1.227 . S
C1228 O1238 1.265 . S
O1229 C1228 1.227 . S
N1230 Co1227 2.121 . S
N1230 C1232 1.375 . S
N1230 C1233 1.313 . S
C1231 C1232 1.338 . S
C1231 N1234 1.377 . S
C1231 H1251 0.930 . S
C1232 N1230 1.375 . S
C1232 C1231 1.338 . S
C1232 H1236 0.931 . S
C1233 N1230 1.313 . S
C1233 N1234 1.344 . S
C1233 H1237 0.930 . S
N1234 C1231 1.377 . S
N1234 C1233 1.344 . S
O1235 Co1227 2.055 . S
O1235 C1239 1.253 . S
H1236 C1232 0.931 . S
H1237 C1233 0.930 . S
O1238 Co1227 2.039 . S
O1238 C1228 1.265 . S
C1239 O1235 1.253 . S
C1239 O1240 1.227 . S
O1240 C1239 1.227 . S
N1241 Co1227 2.140 . S
N1241 C1244 1.346 . S
N1241 C1245 1.345 . S
C1242 C1243 1.387 . S
C1242 C1246 1.391 . S
C1243 C1242 1.387 . S
C1243 C1244 1.369 . S
C1243 H1252 0.929 . S
C1244 N1241 1.346 . S
C1244 C1243 1.369 . S
C1244 H1247 0.928 . S
C1245 N1241 1.345 . S
C1245 C1246 1.371 . S
C1245 H1248 0.931 . S
C1246 C1242 1.391 . S
C1246 C1245 1.371 . S
C1246 H1253 0.930 . S
H1247 C1244 0.928 . S
H1248 C1245 0.931 . S
H1249 C1225 0.930 . S
H1250 C1222 0.930 . S
H1251 C1231 0.930 . S
H1252 C1243 0.929 . S
H1253 C1246 0.930 . S
C1254 C1255 1.351 . S
C1254 N1257 1.368 . S
C1254 H1259 0.931 . S
C1255 C1254 1.351 . S
C1255 N1256 1.373 . S
C1255 H1283 0.930 . S
N1256 C1255 1.373 . S
N1256 C1258 1.340 . S
N1257 C1254 1.368 . S
N1257 C1258 1.321 . S
N1257 Co1260 2.135 . S
C1258 N1256 1.340 . S
C1258 N1257 1.321 . S
C1258 H1282 0.930 . S
H1259 C1254 0.931 . S
Co1260 N1257 2.135 . S
Co1260 N1263 2.121 . S
Co1260 O1268 2.055 . S
Co1260 O1271 2.039 . S
Co1260 N1274 2.140 . S
C1261 O1262 1.227 . S
C1261 O1271 1.265 . S
O1262 C1261 1.227 . S
N1263 Co1260 2.121 . S
N1263 C1265 1.375 . S
N1263 C1266 1.313 . S
C1264 C1265 1.338 . S
C1264 N1267 1.377 . S
C1264 H1284 0.930 . S
C1265 N1263 1.375 . S
C1265 C1264 1.338 . S
C1265 H1269 0.931 . S
C1266 N1263 1.313 . S
C1266 N1267 1.344 . S
C1266 H1270 0.930 . S
N1267 C1264 1.377 . S
N1267 C1266 1.344 . S
O1268 Co1260 2.055 . S
O1268 C1272 1.253 . S
H1269 C1265 0.931 . S
H1270 C1266 0.930 . S
O1271 Co1260 2.039 . S
O1271 C1261 1.265 . S
C1272 O1268 1.253 . S
C1272 O1273 1.227 . S
O1273 C1272 1.227 . S
N1274 Co1260 2.140 . S
N1274 C1277 1.346 . S
N1274 C1278 1.345 . S
C1275 C1276 1.387 . S
C1275 C1279 1.391 . S
C1276 C1275 1.387 . S
C1276 C1277 1.369 . S
C1276 H1285 0.929 . S
C1277 N1274 1.346 . S
C1277 C1276 1.369 . S
C1277 H1280 0.928 . S
C1278 N1274 1.345 . S
C1278 C1279 1.371 . S
C1278 H1281 0.931 . S
C1279 C1275 1.391 . S
C1279 C1278 1.371 . S
C1279 H1286 0.930 . S
H1280 C1277 0.928 . S
H1281 C1278 0.931 . S
H1282 C1258 0.930 . S
H1283 C1255 0.930 . S
H1284 C1264 0.930 . S
H1285 C1276 0.929 . S
H1286 C1279 0.930 . S
C1287 C1288 1.351 . S
C1287 N1290 1.368 . S
C1287 H1292 0.931 . S
C1288 C1287 1.351 . S
C1288 N1289 1.373 . S
C1288 H1316 0.930 . S
N1289 C1288 1.373 . S
N1289 C1291 1.340 . S
N1290 C1287 1.368 . S
N1290 C1291 1.321 . S
N1290 Co1293 2.135 . S
C1291 N1289 1.340 . S
C1291 N1290 1.321 . S
C1291 H1315 0.930 . S
H1292 C1287 0.931 . S
Co1293 N1290 2.135 . S
Co1293 N1296 2.121 . S
Co1293 O1301 2.055 . S
Co1293 O1304 2.039 . S
Co1293 N1307 2.140 . S
C1294 O1295 1.227 . S
C1294 O1304 1.265 . S
O1295 C1294 1.227 . S
N1296 Co1293 2.121 . S
N1296 C1298 1.375 . S
N1296 C1299 1.313 . S
C1297 C1298 1.338 . S
C1297 N1300 1.377 . S
C1297 H1317 0.930 . S
C1298 N1296 1.375 . S
C1298 C1297 1.338 . S
C1298 H1302 0.931 . S
C1299 N1296 1.313 . S
C1299 N1300 1.344 . S
C1299 H1303 0.930 . S
N1300 C1297 1.377 . S
N1300 C1299 1.344 . S
O1301 Co1293 2.055 . S
O1301 C1305 1.253 . S
H1302 C1298 0.931 . S
H1303 C1299 0.930 . S
O1304 Co1293 2.039 . S
O1304 C1294 1.265 . S
C1305 O1301 1.253 . S
C1305 O1306 1.227 . S
O1306 C1305 1.227 . S
N1307 Co1293 2.140 . S
N1307 C1310 1.346 . S
N1307 C1311 1.345 . S
C1308 C1309 1.387 . S
C1308 C1312 1.391 . S
C1309 C1308 1.387 . S
C1309 C1310 1.369 . S
C1309 H1318 0.929 . S
C1310 N1307 1.346 . S
C1310 C1309 1.369 . S
C1310 H1313 0.928 . S
C1311 N1307 1.345 . S
C1311 C1312 1.371 . S
C1311 H1314 0.931 . S
C1312 C1308 1.391 . S
C1312 C1311 1.371 . S
C1312 H1319 0.930 . S
H1313 C1310 0.928 . S
H1314 C1311 0.931 . S
H1315 C1291 0.930 . S
H1316 C1288 0.930 . S
H1317 C1297 0.930 . S
H1318 C1309 0.929 . S
H1319 C1312 0.930 . S
C1320 C1321 1.351 . S
C1320 N1323 1.368 . S
C1320 H1325 0.931 . S
C1321 C1320 1.351 . S
C1321 N1322 1.373 . S
C1321 H1349 0.930 . S
N1322 C1321 1.373 . S
N1322 C1324 1.340 . S
N1323 C1320 1.368 . S
N1323 C1324 1.321 . S
N1323 Co1326 2.135 . S
C1324 N1322 1.340 . S
C1324 N1323 1.321 . S
C1324 H1348 0.930 . S
H1325 C1320 0.931 . S
Co1326 N1323 2.135 . S
Co1326 N1329 2.121 . S
Co1326 O1334 2.055 . S
Co1326 O1337 2.039 . S
Co1326 N1340 2.140 . S
C1327 O1328 1.227 . S
C1327 O1337 1.265 . S
O1328 C1327 1.227 . S
N1329 Co1326 2.121 . S
N1329 C1331 1.375 . S
N1329 C1332 1.313 . S
C1330 C1331 1.338 . S
C1330 N1333 1.377 . S
C1330 H1350 0.930 . S
C1331 N1329 1.375 . S
C1331 C1330 1.338 . S
C1331 H1335 0.931 . S
C1332 N1329 1.313 . S
C1332 N1333 1.344 . S
C1332 H1336 0.930 . S
N1333 C1330 1.377 . S
N1333 C1332 1.344 . S
O1334 Co1326 2.055 . S
O1334 C1338 1.253 . S
H1335 C1331 0.931 . S
H1336 C1332 0.930 . S
O1337 Co1326 2.039 . S
O1337 C1327 1.265 . S
C1338 O1334 1.253 . S
C1338 O1339 1.227 . S
O1339 C1338 1.227 . S
N1340 Co1326 2.140 . S
N1340 C1343 1.346 . S
N1340 C1344 1.345 . S
C1341 C1342 1.387 . S
C1341 C1345 1.391 . S
C1342 C1341 1.387 . S
C1342 C1343 1.369 . S
C1342 H1351 0.929 . S
C1343 N1340 1.346 . S
C1343 C1342 1.369 . S
C1343 H1346 0.928 . S
C1344 N1340 1.345 . S
C1344 C1345 1.371 . S
C1344 H1347 0.931 . S
C1345 C1341 1.391 . S
C1345 C1344 1.371 . S
C1345 H1352 0.930 . S
H1346 C1343 0.928 . S
H1347 C1344 0.931 . S
H1348 C1324 0.930 . S
H1349 C1321 0.930 . S
H1350 C1330 0.930 . S
H1351 C1342 0.929 . S
H1352 C1345 0.930 . S
C1353 C1354 1.351 . S
C1353 N1356 1.368 . S
C1353 H1358 0.931 . S
C1354 C1353 1.351 . S
C1354 N1355 1.373 . S
C1354 H1382 0.930 . S
N1355 C1354 1.373 . S
N1355 C1357 1.340 . S
N1356 C1353 1.368 . S
N1356 C1357 1.321 . S
N1356 Co1359 2.135 . S
C1357 N1355 1.340 . S
C1357 N1356 1.321 . S
C1357 H1381 0.930 . S
H1358 C1353 0.931 . S
Co1359 N1356 2.135 . S
Co1359 N1362 2.121 . S
Co1359 O1367 2.055 . S
Co1359 O1370 2.039 . S
Co1359 N1373 2.140 . S
C1360 O1361 1.227 . S
C1360 O1370 1.265 . S
O1361 C1360 1.227 . S
N1362 Co1359 2.121 . S
N1362 C1364 1.375 . S
N1362 C1365 1.313 . S
C1363 C1364 1.338 . S
C1363 N1366 1.377 . S
C1363 H1383 0.930 . S
C1364 N1362 1.375 . S
C1364 C1363 1.338 . S
C1364 H1368 0.931 . S
C1365 N1362 1.313 . S
C1365 N1366 1.344 . S
C1365 H1369 0.930 . S
N1366 C1363 1.377 . S
N1366 C1365 1.344 . S
O1367 Co1359 2.055 . S
O1367 C1371 1.253 . S
H1368 C1364 0.931 . S
H1369 C1365 0.930 . S
O1370 Co1359 2.039 . S
O1370 C1360 1.265 . S
C1371 O1367 1.253 . S
C1371 O1372 1.227 . S
O1372 C1371 1.227 . S
N1373 Co1359 2.140 . S
N1373 C1376 1.346 . S
N1373 C1377 1.345 . S
C1374 C1375 1.387 . S
C1374 C1378 1.391 . S
C1375 C1374 1.387 . S
C1375 C1376 1.369 . S
C1375 H1384 0.929 . S
C1376 N1373 1.346 . S
C1376 C1375 1.369 . S
C1376 H1379 0.928 . S
C1377 N1373 1.345 . S
C1377 C1378 1.371 . S
C1377 H1380 0.931 . S
C1378 C1374 1.391 . S
C1378 C1377 1.371 . S
C1378 H1385 0.930 . S
H1379 C1376 0.928 . S
H1380 C1377 0.931 . S
H1381 C1357 0.930 . S
H1382 C1354 0.930 . S
H1383 C1363 0.930 . S
H1384 C1375 0.929 . S
H1385 C1378 0.930 . S
C1386 C1387 1.351 . S
C1386 N1389 1.368 . S
C1386 H1391 0.931 . S
C1387 C1386 1.351 . S
C1387 N1388 1.373 . S
C1387 H1415 0.930 . S
N1388 C1387 1.373 . S
N1388 C1390 1.340 . S
N1389 C1386 1.368 . S
N1389 C1390 1.321 . S
N1389 Co1392 2.135 . S
C1390 N1388 1.340 . S
C1390 N1389 1.321 . S
C1390 H1414 0.930 . S
H1391 C1386 0.931 . S
Co1392 N1389 2.135 . S
Co1392 N1395 2.121 . S
Co1392 O1400 2.055 . S
Co1392 O1403 2.039 . S
Co1392 N1406 2.140 . S
C1393 O1394 1.227 . S
C1393 O1403 1.265 . S
O1394 C1393 1.227 . S
N1395 Co1392 2.121 . S
N1395 C1397 1.375 . S
N1395 C1398 1.313 . S
C1396 C1397 1.338 . S
C1396 N1399 1.377 . S
C1396 H1416 0.930 . S
C1397 N1395 1.375 . S
C1397 C1396 1.338 . S
C1397 H1401 0.931 . S
C1398 N1395 1.313 . S
C1398 N1399 1.344 . S
C1398 H1402 0.930 . S
N1399 C1396 1.377 . S
N1399 C1398 1.344 . S
O1400 Co1392 2.055 . S
O1400 C1404 1.253 . S
H1401 C1397 0.931 . S
H1402 C1398 0.930 . S
O1403 Co1392 2.039 . S
O1403 C1393 1.265 . S
C1404 O1400 1.253 . S
C1404 O1405 1.227 . S
O1405 C1404 1.227 . S
N1406 Co1392 2.140 . S
N1406 C1409 1.346 . S
N1406 C1410 1.345 . S
C1407 C1408 1.387 . S
C1407 C1411 1.391 . S
C1408 C1407 1.387 . S
C1408 C1409 1.369 . S
C1408 H1417 0.929 . S
C1409 N1406 1.346 . S
C1409 C1408 1.369 . S
C1409 H1412 0.928 . S
C1410 N1406 1.345 . S
C1410 C1411 1.371 . S
C1410 H1413 0.931 . S
C1411 C1407 1.391 . S
C1411 C1410 1.371 . S
C1411 H1418 0.930 . S
H1412 C1409 0.928 . S
H1413 C1410 0.931 . S
H1414 C1390 0.930 . S
H1415 C1387 0.930 . S
H1416 C1396 0.930 . S
H1417 C1408 0.929 . S
H1418 C1411 0.930 . S
C1419 C1420 1.351 . S
C1419 N1422 1.368 . S
C1419 H1424 0.931 . S
C1420 C1419 1.351 . S
C1420 N1421 1.373 . S
C1420 H1448 0.930 . S
N1421 C1420 1.373 . S
N1421 C1423 1.340 . S
N1422 C1419 1.368 . S
N1422 C1423 1.321 . S
N1422 Co1425 2.135 . S
C1423 N1421 1.340 . S
C1423 N1422 1.321 . S
C1423 H1447 0.930 . S
H1424 C1419 0.931 . S
Co1425 N1422 2.135 . S
Co1425 N1428 2.121 . S
Co1425 O1433 2.055 . S
Co1425 O1436 2.039 . S
Co1425 N1439 2.140 . S
C1426 O1427 1.227 . S
C1426 O1436 1.265 . S
O1427 C1426 1.227 . S
N1428 Co1425 2.121 . S
N1428 C1430 1.375 . S
N1428 C1431 1.313 . S
C1429 C1430 1.338 . S
C1429 N1432 1.377 . S
C1429 H1449 0.930 . S
C1430 N1428 1.375 . S
C1430 C1429 1.338 . S
C1430 H1434 0.931 . S
C1431 N1428 1.313 . S
C1431 N1432 1.344 . S
C1431 H1435 0.930 . S
N1432 C1429 1.377 . S
N1432 C1431 1.344 . S
O1433 Co1425 2.055 . S
O1433 C1437 1.253 . S
H1434 C1430 0.931 . S
H1435 C1431 0.930 . S
O1436 Co1425 2.039 . S
O1436 C1426 1.265 . S
C1437 O1433 1.253 . S
C1437 O1438 1.227 . S
O1438 C1437 1.227 . S
N1439 Co1425 2.140 . S
N1439 C1442 1.346 . S
N1439 C1443 1.345 . S
C1440 C1441 1.387 . S
C1440 C1444 1.391 . S
C1441 C1440 1.387 . S
C1441 C1442 1.369 . S
C1441 H1450 0.929 . S
C1442 N1439 1.346 . S
C1442 C1441 1.369 . S
C1442 H1445 0.928 . S
C1443 N1439 1.345 . S
C1443 C1444 1.371 . S
C1443 H1446 0.931 . S
C1444 C1440 1.391 . S
C1444 C1443 1.371 . S
C1444 H1451 0.930 . S
H1445 C1442 0.928 . S
H1446 C1443 0.931 . S
H1447 C1423 0.930 . S
H1448 C1420 0.930 . S
H1449 C1429 0.930 . S
H1450 C1441 0.929 . S
H1451 C1444 0.930 . S
C1452 C1453 1.351 . S
C1452 N1455 1.368 . S
C1452 H1457 0.931 . S
C1453 C1452 1.351 . S
C1453 N1454 1.373 . S
C1453 H1481 0.930 . S
N1454 C1453 1.373 . S
N1454 C1456 1.340 . S
N1455 C1452 1.368 . S
N1455 C1456 1.321 . S
N1455 Co1458 2.135 . S
C1456 N1454 1.340 . S
C1456 N1455 1.321 . S
C1456 H1480 0.930 . S
H1457 C1452 0.931 . S
Co1458 N1455 2.135 . S
Co1458 N1461 2.121 . S
Co1458 O1466 2.055 . S
Co1458 O1469 2.039 . S
Co1458 N1472 2.140 . S
C1459 O1460 1.227 . S
C1459 O1469 1.265 . S
O1460 C1459 1.227 . S
N1461 Co1458 2.121 . S
N1461 C1463 1.375 . S
N1461 C1464 1.313 . S
C1462 C1463 1.338 . S
C1462 N1465 1.377 . S
C1462 H1482 0.930 . S
C1463 N1461 1.375 . S
C1463 C1462 1.338 . S
C1463 H1467 0.931 . S
C1464 N1461 1.313 . S
C1464 N1465 1.344 . S
C1464 H1468 0.930 . S
N1465 C1462 1.377 . S
N1465 C1464 1.344 . S
O1466 Co1458 2.055 . S
O1466 C1470 1.253 . S
H1467 C1463 0.931 . S
H1468 C1464 0.930 . S
O1469 Co1458 2.039 . S
O1469 C1459 1.265 . S
C1470 O1466 1.253 . S
C1470 O1471 1.227 . S
O1471 C1470 1.227 . S
N1472 Co1458 2.140 . S
N1472 C1475 1.346 . S
N1472 C1476 1.345 . S
C1473 C1474 1.387 . S
C1473 C1477 1.391 . S
C1474 C1473 1.387 . S
C1474 C1475 1.369 . S
C1474 H1483 0.929 . S
C1475 N1472 1.346 . S
C1475 C1474 1.369 . S
C1475 H1478 0.928 . S
C1476 N1472 1.345 . S
C1476 C1477 1.371 . S
C1476 H1479 0.931 . S
C1477 C1473 1.391 . S
C1477 C1476 1.371 . S
C1477 H1484 0.930 . S
H1478 C1475 0.928 . S
H1479 C1476 0.931 . S
H1480 C1456 0.930 . S
H1481 C1453 0.930 . S
H1482 C1462 0.930 . S
H1483 C1474 0.929 . S
H1484 C1477 0.930 . S
C1485 C1486 1.351 . S
C1485 N1488 1.368 . S
C1485 H1490 0.931 . S
C1486 C1485 1.351 . S
C1486 N1487 1.373 . S
C1486 H1514 0.930 . S
N1487 C1486 1.373 . S
N1487 C1489 1.340 . S
N1488 C1485 1.368 . S
N1488 C1489 1.321 . S
N1488 Co1491 2.135 . S
C1489 N1487 1.340 . S
C1489 N1488 1.321 . S
C1489 H1513 0.930 . S
H1490 C1485 0.931 . S
Co1491 N1488 2.135 . S
Co1491 N1494 2.121 . S
Co1491 O1499 2.055 . S
Co1491 O1502 2.039 . S
Co1491 N1505 2.140 . S
C1492 O1493 1.227 . S
C1492 O1502 1.265 . S
O1493 C1492 1.227 . S
N1494 Co1491 2.121 . S
N1494 C1496 1.375 . S
N1494 C1497 1.313 . S
C1495 C1496 1.338 . S
C1495 N1498 1.377 . S
C1495 H1515 0.930 . S
C1496 N1494 1.375 . S
C1496 C1495 1.338 . S
C1496 H1500 0.931 . S
C1497 N1494 1.313 . S
C1497 N1498 1.344 . S
C1497 H1501 0.930 . S
N1498 C1495 1.377 . S
N1498 C1497 1.344 . S
O1499 Co1491 2.055 . S
O1499 C1503 1.253 . S
H1500 C1496 0.931 . S
H1501 C1497 0.930 . S
O1502 Co1491 2.039 . S
O1502 C1492 1.265 . S
C1503 O1499 1.253 . S
C1503 O1504 1.227 . S
O1504 C1503 1.227 . S
N1505 Co1491 2.140 . S
N1505 C1508 1.346 . S
N1505 C1509 1.345 . S
C1506 C1507 1.387 . S
C1506 C1510 1.391 . S
C1507 C1506 1.387 . S
C1507 C1508 1.369 . S
C1507 H1516 0.929 . S
C1508 N1505 1.346 . S
C1508 C1507 1.369 . S
C1508 H1511 0.928 . S
C1509 N1505 1.345 . S
C1509 C1510 1.371 . S
C1509 H1512 0.931 . S
C1510 C1506 1.391 . S
C1510 C1509 1.371 . S
C1510 H1517 0.930 . S
H1511 C1508 0.928 . S
H1512 C1509 0.931 . S
H1513 C1489 0.930 . S
H1514 C1486 0.930 . S
H1515 C1495 0.930 . S
H1516 C1507 0.929 . S
H1517 C1510 0.930 . S
C1518 C1519 1.351 . S
C1518 N1521 1.368 . S
C1518 H1523 0.931 . S
C1519 C1518 1.351 . S
C1519 N1520 1.373 . S
C1519 H1547 0.930 . S
N1520 C1519 1.373 . S
N1520 C1522 1.340 . S
N1521 C1518 1.368 . S
N1521 C1522 1.321 . S
N1521 Co1524 2.135 . S
C1522 N1520 1.340 . S
C1522 N1521 1.321 . S
C1522 H1546 0.930 . S
H1523 C1518 0.931 . S
Co1524 N1521 2.135 . S
Co1524 N1527 2.121 . S
Co1524 O1532 2.055 . S
Co1524 O1535 2.039 . S
Co1524 N1538 2.140 . S
C1525 O1526 1.227 . S
C1525 O1535 1.265 . S
O1526 C1525 1.227 . S
N1527 Co1524 2.121 . S
N1527 C1529 1.375 . S
N1527 C1530 1.313 . S
C1528 C1529 1.338 . S
C1528 N1531 1.377 . S
C1528 H1548 0.930 . S
C1529 N1527 1.375 . S
C1529 C1528 1.338 . S
C1529 H1533 0.931 . S
C1530 N1527 1.313 . S
C1530 N1531 1.344 . S
C1530 H1534 0.930 . S
N1531 C1528 1.377 . S
N1531 C1530 1.344 . S
O1532 Co1524 2.055 . S
O1532 C1536 1.253 . S
H1533 C1529 0.931 . S
H1534 C1530 0.930 . S
O1535 Co1524 2.039 . S
O1535 C1525 1.265 . S
C1536 O1532 1.253 . S
C1536 O1537 1.227 . S
O1537 C1536 1.227 . S
N1538 Co1524 2.140 . S
N1538 C1541 1.346 . S
N1538 C1542 1.345 . S
C1539 C1540 1.387 . S
C1539 C1543 1.391 . S
C1540 C1539 1.387 . S
C1540 C1541 1.369 . S
C1540 H1549 0.929 . S
C1541 N1538 1.346 . S
C1541 C1540 1.369 . S
C1541 H1544 0.928 . S
C1542 N1538 1.345 . S
C1542 C1543 1.371 . S
C1542 H1545 0.931 . S
C1543 C1539 1.391 . S
C1543 C1542 1.371 . S
C1543 H1550 0.930 . S
H1544 C1541 0.928 . S
H1545 C1542 0.931 . S
H1546 C1522 0.930 . S
H1547 C1519 0.930 . S
H1548 C1528 0.930 . S
H1549 C1540 0.929 . S
H1550 C1543 0.930 . S
C1551 C1552 1.351 . S
C1551 N1554 1.368 . S
C1551 H1556 0.931 . S
C1552 C1551 1.351 . S
C1552 N1553 1.373 . S
C1552 H1580 0.930 . S
N1553 C1552 1.373 . S
N1553 C1555 1.340 . S
N1554 C1551 1.368 . S
N1554 C1555 1.321 . S
N1554 Co1557 2.135 . S
C1555 N1553 1.340 . S
C1555 N1554 1.321 . S
C1555 H1579 0.930 . S
H1556 C1551 0.931 . S
Co1557 N1554 2.135 . S
Co1557 N1560 2.121 . S
Co1557 O1565 2.055 . S
Co1557 O1568 2.039 . S
Co1557 N1571 2.140 . S
C1558 O1559 1.227 . S
C1558 O1568 1.265 . S
O1559 C1558 1.227 . S
N1560 Co1557 2.121 . S
N1560 C1562 1.375 . S
N1560 C1563 1.313 . S
C1561 C1562 1.338 . S
C1561 N1564 1.377 . S
C1561 H1581 0.930 . S
C1562 N1560 1.375 . S
C1562 C1561 1.338 . S
C1562 H1566 0.931 . S
C1563 N1560 1.313 . S
C1563 N1564 1.344 . S
C1563 H1567 0.930 . S
N1564 C1561 1.377 . S
N1564 C1563 1.344 . S
O1565 Co1557 2.055 . S
O1565 C1569 1.253 . S
H1566 C1562 0.931 . S
H1567 C1563 0.930 . S
O1568 Co1557 2.039 . S
O1568 C1558 1.265 . S
C1569 O1565 1.253 . S
C1569 O1570 1.227 . S
O1570 C1569 1.227 . S
N1571 Co1557 2.140 . S
N1571 C1574 1.346 . S
N1571 C1575 1.345 . S
C1572 C1573 1.387 . S
C1572 C1576 1.391 . S
C1573 C1572 1.387 . S
C1573 C1574 1.369 . S
C1573 H1582 0.929 . S
C1574 N1571 1.346 . S
C1574 C1573 1.369 . S
C1574 H1577 0.928 . S
C1575 N1571 1.345 . S
C1575 C1576 1.371 . S
C1575 H1578 0.931 . S
C1576 C1572 1.391 . S
C1576 C1575 1.371 . S
C1576 H1583 0.930 . S
H1577 C1574 0.928 . S
H1578 C1575 0.931 . S
H1579 C1555 0.930 . S
H1580 C1552 0.930 . S
H1581 C1561 0.930 . S
H1582 C1573 0.929 . S
H1583 C1576 0.930 . S
C1584 C1585 1.363 . S
C1584 C1590 1.379 . S
C1584 N1592 1.356 1_554 S
C1585 C1584 1.363 . S
C1585 C1591 1.363 . S
C1586 C1587 1.363 . S
C1586 C1591 1.379 . S
C1586 N1593 1.356 . S
C1587 C1586 1.363 . S
C1587 C1590 1.363 . S
N1588 C1590 1.356 . S
N1588 H1600 0.984 . S
N1588 H1601 0.985 . S
N1589 C1591 1.356 . S
N1589 H1594 0.984 1_554 S
N1589 H1595 0.985 . S
C1590 C1584 1.379 . S
C1590 C1587 1.363 . S
C1590 N1588 1.356 . S
C1591 C1585 1.363 . S
C1591 C1586 1.379 . S
C1591 N1589 1.356 . S
N1592 C1584 1.356 1_556 S
N1592 H1598 0.984 . S
N1592 H1599 0.984 . S
N1593 C1586 1.356 . S
N1593 H1596 0.984 . S
N1593 H1597 0.985 . S
H1594 N1589 0.984 1_556 S
H1595 N1589 0.985 . S
H1596 N1593 0.984 . S
H1597 N1593 0.985 . S
H1598 N1592 0.984 . S
H1599 N1592 0.984 . S
H1600 N1588 0.984 . S
H1601 N1588 0.985 . S
C1602 C1603 1.363 . S
C1602 C1608 1.379 . S
C1602 N1610 1.356 . S
C1603 C1602 1.363 . S
C1603 C1609 1.363 . S
C1604 C1605 1.363 . S
C1604 C1609 1.379 . S
C1604 N1611 1.356 . S
C1605 C1604 1.363 . S
C1605 C1608 1.363 . S
N1606 C1608 1.356 1_556 S
N1606 H1618 0.984 . S
N1606 H1619 0.985 . S
N1607 C1609 1.356 . S
N1607 H1612 0.984 . S
N1607 H1613 0.985 . S
C1608 C1602 1.379 . S
C1608 C1605 1.363 . S
C1608 N1606 1.356 1_554 S
C1609 C1603 1.363 . S
C1609 C1604 1.379 . S
C1609 N1607 1.356 . S
N1610 C1602 1.356 . S
N1610 H1616 0.984 . S
N1610 H1617 0.984 . S
N1611 C1604 1.356 . S
N1611 H1614 0.984 1_554 S
N1611 H1615 0.985 . S
H1612 N1607 0.984 . S
H1613 N1607 0.985 . S
H1614 N1611 0.984 1_556 S
H1615 N1611 0.985 . S
H1616 N1610 0.984 . S
H1617 N1610 0.984 . S
H1618 N1606 0.984 . S
H1619 N1606 0.985 . S
C1620 C1621 1.363 . S
C1620 C1626 1.379 . S
C1620 N1628 1.356 . S
C1621 C1620 1.363 . S
C1621 C1627 1.363 . S
C1622 C1623 1.363 . S
C1622 C1627 1.379 . S
C1622 N1629 1.382 . S
C1623 C1622 1.363 . S
C1623 C1626 1.363 . S
N1624 C1626 1.356 1_556 S
N1624 H1636 0.984 . S
N1624 H1637 0.985 . S
N1625 C1627 1.356 . S
N1625 H1630 0.984 . S
N1625 H1631 0.985 . S
C1626 C1620 1.379 . S
C1626 C1623 1.363 . S
C1626 N1624 1.356 1_554 S
C1627 C1621 1.363 . S
C1627 C1622 1.379 . S
C1627 N1625 1.356 . S
N1628 C1620 1.356 . S
N1628 H1634 0.984 . S
N1628 H1635 0.984 . S
N1629 C1622 1.382 . S
N1629 H1632 0.948 1_554 S
N1629 H1633 0.997 . S
H1630 N1625 0.984 . S
H1631 N1625 0.985 . S
H1632 N1629 0.948 1_556 S
H1633 N1629 0.997 . S
H1634 N1628 0.984 . S
H1635 N1628 0.984 . S
H1636 N1624 0.984 . S
H1637 N1624 0.985 . S
C1638 C1639 1.363 . S
C1638 C1644 1.379 . S
C1638 N1646 1.356 . S
C1639 C1638 1.363 . S
C1639 C1645 1.363 . S
C1640 C1641 1.363 . S
C1640 C1645 1.379 . S
C1640 N1647 1.356 . S
C1641 C1640 1.363 . S
C1641 C1644 1.363 . S
N1642 C1644 1.356 . S
N1642 H1654 0.984 . S
N1642 H1655 0.985 . S
N1643 C1645 1.356 1_556 S
N1643 H1648 0.984 . S
N1643 H1649 0.985 . S
C1644 C1638 1.379 . S
C1644 C1641 1.363 . S
C1644 N1642 1.356 . S
C1645 C1639 1.363 . S
C1645 C1640 1.379 . S
C1645 N1643 1.356 1_554 S
N1646 C1638 1.356 . S
N1646 H1652 0.984 . S
N1646 H1653 0.984 1_554 S
N1647 C1640 1.356 . S
N1647 H1650 0.984 . S
N1647 H1651 0.985 . S
H1648 N1643 0.984 . S
H1649 N1643 0.985 . S
H1650 N1647 0.984 . S
H1651 N1647 0.985 . S
H1652 N1646 0.984 . S
H1653 N1646 0.984 1_556 S
H1654 N1642 0.984 . S
H1655 N1642 0.985 . S
C1656 C1657 1.363 . S
C1656 C1662 1.379 . S
C1656 N1664 1.356 . S
C1657 C1656 1.363 . S
C1657 C1663 1.363 . S
C1658 C1659 1.363 . S
C1658 C1663 1.379 . S
C1658 N1665 1.356 . S
C1659 C1658 1.363 . S
C1659 C1662 1.363 . S
N1660 C1662 1.356 . S
N1660 H1672 0.984 . S
N1660 H1673 0.985 . S
N1661 C1663 1.356 1_554 S
N1661 H1666 0.984 . S
N1661 H1667 0.985 . S
C1662 C1656 1.379 . S
C1662 C1659 1.363 . S
C1662 N1660 1.356 . S
C1663 C1657 1.363 . S
C1663 C1658 1.379 . S
C1663 N1661 1.356 1_556 S
N1664 C1656 1.356 . S
N1664 H1670 0.984 . S
N1664 H1671 0.984 1_556 S
N1665 C1658 1.356 . S
N1665 H1668 0.984 . S
N1665 H1669 0.985 . S
H1666 N1661 0.984 . S
H1667 N1661 0.985 . S
H1668 N1665 0.984 . S
H1669 N1665 0.985 . S
H1670 N1664 0.984 . S
H1671 N1664 0.984 1_554 S
H1672 N1660 0.984 . S
H1673 N1660 0.985 . S
C1674 C1675 1.363 . S
C1674 C1680 1.379 . S
C1674 N1682 1.356 . S
C1675 C1674 1.363 . S
C1675 C1681 1.363 . S
C1676 C1677 1.363 . S
C1676 C1681 1.379 . S
C1676 N1683 1.356 . S
C1677 C1676 1.363 . S
C1677 C1680 1.363 . S
N1678 C1680 1.356 1_554 S
N1678 H1690 0.984 . S
N1678 H1691 0.985 . S
N1679 C1681 1.356 . S
N1679 H1684 0.984 . S
N1679 H1685 0.985 . S
C1680 C1674 1.379 . S
C1680 C1677 1.363 . S
C1680 N1678 1.356 1_556 S
C1681 C1675 1.363 . S
C1681 C1676 1.379 . S
C1681 N1679 1.356 . S
N1682 C1674 1.356 . S
N1682 H1688 0.984 . S
N1682 H1689 0.984 . S
N1683 C1676 1.356 . S
N1683 H1686 0.984 1_556 S
N1683 H1687 0.985 . S
H1684 N1679 0.984 . S
H1685 N1679 0.985 . S
H1686 N1683 0.984 1_554 S
H1687 N1683 0.985 . S
H1688 N1682 0.984 . S
H1689 N1682 0.984 . S
H1690 N1678 0.984 . S
H1691 N1678 0.985 . S
C1692 C1693 1.363 . S
C1692 C1698 1.379 . S
C1692 N1700 1.356 . S
C1693 C1692 1.363 . S
C1693 C1699 1.363 . S
C1694 C1695 1.363 . S
C1694 C1699 1.379 . S
C1694 N1701 1.356 . S
C1695 C1694 1.363 . S
C1695 C1698 1.363 . S
N1696 C1698 1.356 . S
N1696 H1708 0.984 . S
N1696 H1709 0.985 . S
N1697 C1699 1.356 1_554 S
N1697 H1702 0.984 . S
N1697 H1703 0.985 . S
C1698 C1692 1.379 . S
C1698 C1695 1.363 . S
C1698 N1696 1.356 . S
C1699 C1693 1.363 . S
C1699 C1694 1.379 . S
C1699 N1697 1.356 1_556 S
N1700 C1692 1.356 . S
N1700 H1706 0.984 . S
N1700 H1707 0.984 1_556 S
N1701 C1694 1.356 . S
N1701 H1704 0.984 . S
N1701 H1705 0.985 . S
H1702 N1697 0.984 . S
H1703 N1697 0.985 . S
H1704 N1701 0.984 . S
H1705 N1701 0.985 . S
H1706 N1700 0.984 . S
H1707 N1700 0.984 1_554 S
H1708 N1696 0.984 . S
H1709 N1696 0.985 . S
C1710 C1711 1.363 . S
C1710 C1716 1.379 . S
C1710 N1718 1.356 1_556 S
C1711 C1710 1.363 . S
C1711 C1717 1.363 . S
C1712 C1713 1.363 . S
C1712 C1717 1.379 . S
C1712 N1719 1.356 . S
C1713 C1712 1.363 . S
C1713 C1716 1.363 . S
N1714 C1716 1.356 . S
N1714 H1726 0.984 . S
N1714 H1727 0.985 . S
N1715 C1717 1.356 . S
N1715 H1720 0.984 1_556 S
N1715 H1721 0.985 . S
C1716 C1710 1.379 . S
C1716 C1713 1.363 . S
C1716 N1714 1.356 . S
C1717 C1711 1.363 . S
C1717 C1712 1.379 . S
C1717 N1715 1.356 . S
N1718 C1710 1.356 1_554 S
N1718 H1724 0.984 . S
N1718 H1725 0.984 . S
N1719 C1712 1.356 . S
N1719 H1722 0.984 . S
N1719 H1723 0.985 . S
H1720 N1715 0.984 1_554 S
H1721 N1715 0.985 . S
H1722 N1719 0.984 . S
H1723 N1719 0.985 . S
H1724 N1718 0.984 . S
H1725 N1718 0.984 . S
H1726 N1714 0.984 . S
H1727 N1714 0.985 . S
C1728 C1729 1.363 . S
C1728 C1734 1.379 . S
C1728 N1736 1.356 . S
C1729 C1728 1.363 . S
C1729 C1735 1.363 . S
C1730 C1731 1.363 . S
C1730 C1735 1.379 . S
C1730 N1737 1.356 1_455 S
C1731 C1730 1.363 . S
C1731 C1734 1.363 . S
N1732 C1734 1.356 . S
N1732 H1744 0.984 . S
N1732 H1745 0.985 1_455 S
N1733 C1735 1.356 . S
N1733 H1738 0.984 . S
N1733 H1739 0.985 . S
C1734 C1728 1.379 . S
C1734 C1731 1.363 . S
C1734 N1732 1.356 . S
C1735 C1729 1.363 . S
C1735 C1730 1.379 . S
C1735 N1733 1.356 . S
N1736 C1728 1.356 . S
N1736 H1742 0.984 . S
N1736 H1743 0.984 . S
N1737 C1730 1.356 1_655 S
N1737 H1740 0.984 . S
N1737 H1741 0.985 . S
H1738 N1733 0.984 . S
H1739 N1733 0.985 . S
H1740 N1737 0.984 . S
H1741 N1737 0.985 . S
H1742 N1736 0.984 . S
H1743 N1736 0.984 . S
H1744 N1732 0.984 . S
H1745 N1732 0.985 1_655 S
C1746 C1747 1.363 . S
C1746 C1752 1.379 . S
C1746 N1754 1.356 . S
C1747 C1746 1.363 . S
C1747 C1753 1.363 . S
C1748 C1749 1.363 . S
C1748 C1753 1.379 . S
C1748 N1755 1.356 . S
C1749 C1748 1.363 . S
C1749 C1752 1.363 . S
N1750 C1752 1.356 . S
N1750 H1762 0.984 . S
N1750 H1763 0.985 . S
N1751 C1753 1.356 1_565 S
N1751 H1756 0.984 . S
N1751 H1757 0.985 . S
C1752 C1746 1.379 . S
C1752 C1749 1.363 . S
C1752 N1750 1.356 . S
C1753 C1747 1.363 . S
C1753 C1748 1.379 . S
C1753 N1751 1.356 1_545 S
N1754 C1746 1.356 . S
N1754 H1760 0.984 . S
N1754 H1761 0.984 1_545 S
N1755 C1748 1.356 . S
N1755 H1758 0.984 . S
N1755 H1759 0.985 . S
H1756 N1751 0.984 . S
H1757 N1751 0.985 . S
H1758 N1755 0.984 . S
H1759 N1755 0.985 . S
H1760 N1754 0.984 . S
H1761 N1754 0.984 1_565 S
H1762 N1750 0.984 . S
H1763 N1750 0.985 . S
C1764 C1765 1.363 . S
C1764 C1770 1.379 . S
C1764 N1772 1.356 1_655 S
C1765 C1764 1.363 . S
C1765 C1771 1.363 . S
C1766 C1767 1.363 . S
C1766 C1771 1.379 . S
C1766 N1773 1.356 . S
C1767 C1766 1.363 . S
C1767 C1770 1.363 . S
N1768 C1770 1.356 . S
N1768 H1780 0.984 . S
N1768 H1781 0.985 . S
N1769 C1771 1.356 . S
N1769 H1774 0.984 1_655 S
N1769 H1775 0.985 . S
C1770 C1764 1.379 . S
C1770 C1767 1.363 . S
C1770 N1768 1.356 . S
C1771 C1765 1.363 . S
C1771 C1766 1.379 . S
C1771 N1769 1.356 . S
N1772 C1764 1.356 1_455 S
N1772 H1778 0.984 . S
N1772 H1779 0.984 . S
N1773 C1766 1.356 . S
N1773 H1776 0.984 . S
N1773 H1777 0.985 . S
H1774 N1769 0.984 1_455 S
H1775 N1769 0.985 . S
H1776 N1773 0.984 . S
H1777 N1773 0.985 . S
H1778 N1772 0.984 . S
H1779 N1772 0.984 . S
H1780 N1768 0.984 . S
H1781 N1768 0.985 . S
C1782 C1783 1.363 . S
C1782 C1788 1.379 . S
C1782 N1790 1.356 . S
C1783 C1782 1.363 . S
C1783 C1789 1.363 . S
C1784 C1785 1.363 . S
C1784 C1789 1.379 . S
C1784 N1791 1.356 1_565 S
C1785 C1784 1.363 . S
C1785 C1788 1.363 . S
N1786 C1788 1.356 . S
N1786 H1798 0.984 . S
N1786 H1799 0.985 1_565 S
N1787 C1789 1.356 . S
N1787 H1792 0.984 . S
N1787 H1793 0.985 . S
C1788 C1782 1.379 . S
C1788 C1785 1.363 . S
C1788 N1786 1.356 . S
C1789 C1783 1.363 . S
C1789 C1784 1.379 . S
C1789 N1787 1.356 . S
N1790 C1782 1.356 . S
N1790 H1796 0.984 . S
N1790 H1797 0.984 . S
N1791 C1784 1.356 1_545 S
N1791 H1794 0.984 . S
N1791 H1795 0.985 . S
H1792 N1787 0.984 . S
H1793 N1787 0.985 . S
H1794 N1791 0.984 . S
H1795 N1791 0.985 . S
H1796 N1790 0.984 . S
H1797 N1790 0.984 . S
H1798 N1786 0.984 . S
H1799 N1786 0.985 1_545 S
C1800 C1801 1.363 . S
C1800 C1806 1.379 . S
C1800 N1808 1.356 . S
C1801 C1800 1.363 . S
C1801 C1807 1.363 . S
C1802 C1803 1.363 . S
C1802 C1807 1.379 . S
C1802 N1809 1.356 . S
C1803 C1802 1.363 . S
C1803 C1806 1.363 . S
N1804 C1806 1.356 . S
N1804 H1816 0.984 . S
N1804 H1817 0.985 . S
N1805 C1807 1.356 1_655 S
N1805 H1810 0.984 . S
N1805 H1811 0.985 . S
C1806 C1800 1.379 . S
C1806 C1803 1.363 . S
C1806 N1804 1.356 . S
C1807 C1801 1.363 . S
C1807 C1802 1.379 . S
C1807 N1805 1.356 1_455 S
N1808 C1800 1.356 . S
N1808 H1814 0.984 . S
N1808 H1815 0.984 1_455 S
N1809 C1802 1.356 . S
N1809 H1812 0.984 . S
N1809 H1813 0.985 . S
H1810 N1805 0.984 . S
H1811 N1805 0.985 . S
H1812 N1809 0.984 . S
H1813 N1809 0.985 . S
H1814 N1808 0.984 . S
H1815 N1808 0.984 1_655 S
H1816 N1804 0.984 . S
H1817 N1804 0.985 . S
C1818 C1819 1.363 . S
C1818 C1824 1.379 . S
C1818 N1826 1.356 . S
C1819 C1818 1.363 . S
C1819 C1825 1.363 . S
C1820 C1821 1.363 . S
C1820 C1825 1.379 . S
C1820 N1827 1.364 . S
C1821 C1820 1.363 . S
C1821 C1824 1.363 . S
N1822 C1824 1.356 1_565 S
N1822 H1834 0.984 . S
N1822 H1835 0.985 . S
N1823 C1825 1.356 . S
N1823 H1828 0.984 . S
N1823 H1829 0.985 . S
C1824 C1818 1.379 . S
C1824 C1821 1.363 . S
C1824 N1822 1.356 1_545 S
C1825 C1819 1.363 . S
C1825 C1820 1.379 . S
C1825 N1823 1.356 . S
N1826 C1818 1.356 . S
N1826 H1832 0.984 . S
N1826 H1833 0.984 . S
N1827 C1820 1.364 . S
N1827 H1830 0.974 1_545 S
N1827 H1831 0.988 . S
H1828 N1823 0.984 . S
H1829 N1823 0.985 . S
H1830 N1827 0.974 1_565 S
H1831 N1827 0.988 . S
H1832 N1826 0.984 . S
H1833 N1826 0.984 . S
H1834 N1822 0.984 . S
H1835 N1822 0.985 . S
C1836 C1837 1.363 . S
C1836 C1842 1.379 . S
C1836 N1844 1.356 1_655 S
C1837 C1836 1.363 . S
C1837 C1843 1.363 . S
C1838 C1839 1.363 . S
C1838 C1843 1.379 . S
C1838 N1845 1.356 . S
C1839 C1838 1.363 . S
C1839 C1842 1.363 . S
N1840 C1842 1.356 . S
N1840 H1852 0.984 . S
N1840 H1853 0.985 . S
N1841 C1843 1.356 . S
N1841 H1846 0.984 1_655 S
N1841 H1847 0.985 . S
C1842 C1836 1.379 . S
C1842 C1839 1.363 . S
C1842 N1840 1.356 . S
C1843 C1837 1.363 . S
C1843 C1838 1.379 . S
C1843 N1841 1.356 . S
N1844 C1836 1.356 1_455 S
N1844 H1850 0.984 . S
N1844 H1851 0.984 . S
N1845 C1838 1.356 . S
N1845 H1848 0.984 . S
N1845 H1849 0.985 . S
H1846 N1841 0.984 1_455 S
H1847 N1841 0.985 . S
H1848 N1845 0.984 . S
H1849 N1845 0.985 . S
H1850 N1844 0.984 . S
H1851 N1844 0.984 . S
H1852 N1840 0.984 . S
H1853 N1840 0.985 . S
C1854 C1855 1.363 . S
C1854 C1860 1.379 . S
C1854 N1862 1.356 1_565 S
C1855 C1854 1.363 . S
C1855 C1861 1.363 . S
C1856 C1857 1.363 . S
C1856 C1861 1.379 . S
C1856 N1863 1.356 . S
C1857 C1856 1.363 . S
C1857 C1860 1.363 . S
N1858 C1860 1.356 . S
N1858 H1870 0.984 . S
N1858 H1871 0.985 . S
N1859 C1861 1.356 . S
N1859 H1864 0.984 1_565 S
N1859 H1865 0.985 . S
C1860 C1854 1.379 . S
C1860 C1857 1.363 . S
C1860 N1858 1.356 . S
C1861 C1855 1.363 . S
C1861 C1856 1.379 . S
C1861 N1859 1.356 . S
N1862 C1854 1.356 1_545 S
N1862 H1868 0.984 . S
N1862 H1869 0.984 . S
N1863 C1856 1.356 . S
N1863 H1866 0.984 . S
N1863 H1867 0.985 . S
H1864 N1859 0.984 1_545 S
H1865 N1859 0.985 . S
H1866 N1863 0.984 . S
H1867 N1863 0.985 . S
H1868 N1862 0.984 . S
H1869 N1862 0.984 . S
H1870 N1858 0.984 . S
H1871 N1858 0.985 . S
C1872 C1873 1.363 . S
C1872 C1878 1.379 . S
C1872 N1880 1.356 . S
C1873 C1872 1.363 . S
C1873 C1879 1.363 . S
C1874 C1875 1.363 . S
C1874 C1879 1.379 . S
C1874 N1881 1.356 . S
C1875 C1874 1.363 . S
C1875 C1878 1.363 . S
N1876 C1878 1.356 1_565 S
N1876 H1888 0.984 . S
N1876 H1889 0.985 . S
N1877 C1879 1.356 . S
N1877 H1882 0.984 . S
N1877 H1883 0.985 . S
C1878 C1872 1.379 . S
C1878 C1875 1.363 . S
C1878 N1876 1.356 1_545 S
C1879 C1873 1.363 . S
C1879 C1874 1.379 . S
C1879 N1877 1.356 . S
N1880 C1872 1.356 . S
N1880 H1886 0.984 . S
N1880 H1887 0.984 . S
N1881 C1874 1.356 . S
N1881 H1884 0.984 1_545 S
N1881 H1885 0.985 . S
H1882 N1877 0.984 . S
H1883 N1877 0.985 . S
H1884 N1881 0.984 1_565 S
H1885 N1881 0.985 . S
H1886 N1880 0.984 . S
H1887 N1880 0.984 . S
H1888 N1876 0.984 . S
H1889 N1876 0.985 . S
C1890 C1891 1.363 . S
C1890 C1896 1.379 . S
C1890 N1898 1.356 1_565 S
C1891 C1890 1.363 . S
C1891 C1897 1.363 . S
C1892 C1893 1.363 . S
C1892 C1897 1.379 . S
C1892 N1899 1.356 . S
C1893 C1892 1.363 . S
C1893 C1896 1.363 . S
N1894 C1896 1.356 . S
N1894 H1906 0.984 . S
N1894 H1907 0.985 . S
N1895 C1897 1.356 1_545 S
N1895 H1900 0.984 . S
N1895 H1901 0.985 1_545 S
C1896 C1890 1.379 . S
C1896 C1893 1.363 . S
C1896 N1894 1.356 . S
C1897 C1891 1.363 . S
C1897 C1892 1.379 . S
C1897 N1895 1.356 1_565 S
N1898 C1890 1.356 1_545 S
N1898 H1904 0.984 1_545 S
N1898 H1905 0.984 . S
N1899 C1892 1.356 . S
N1899 H1902 0.984 . S
N1899 H1903 0.985 . S
H1900 N1895 0.984 . S
H1901 N1895 0.985 1_565 S
H1902 N1899 0.984 . S
H1903 N1899 0.985 . S
H1904 N1898 0.984 1_565 S
H1905 N1898 0.984 . S
H1906 N1894 0.984 . S
H1907 N1894 0.985 . S
C1908 C1909 1.363 . S
C1908 C1914 1.379 . S
C1908 N1916 1.356 . S
C1909 C1908 1.363 . S
C1909 C1915 1.363 . S
C1910 C1911 1.363 . S
C1910 C1915 1.379 . S
C1910 N1917 1.356 1_455 S
C1911 C1910 1.363 . S
C1911 C1914 1.363 . S
N1912 C1914 1.356 1_655 S
N1912 H1924 0.986 . S
N1912 H1925 0.985 . S
N1913 C1915 1.356 . S
N1913 H1918 0.984 . S
N1913 H1919 0.985 . S
C1914 C1908 1.379 . S
C1914 C1911 1.363 . S
C1914 N1912 1.356 1_455 S
C1915 C1909 1.363 . S
C1915 C1910 1.379 . S
C1915 N1913 1.356 . S
N1916 C1908 1.356 . S
N1916 H1922 0.984 . S
N1916 H1923 0.984 . S
N1917 C1910 1.356 1_655 S
N1917 H1920 0.984 . S
N1917 H1921 0.985 1_655 S
H1918 N1913 0.984 . S
H1919 N1913 0.985 . S
H1920 N1917 0.984 . S
H1921 N1917 0.985 1_455 S
H1922 N1916 0.984 . S
H1923 N1916 0.984 . S
H1924 N1912 0.986 . S
H1925 N1912 0.985 . S
C1926 C1927 1.363 . S
C1926 C1932 1.379 . S
C1926 N1934 1.356 . S
C1927 C1926 1.363 . S
C1927 C1933 1.363 . S
C1928 C1929 1.363 . S
C1928 C1933 1.379 . S
C1928 N1935 1.356 . S
C1929 C1928 1.363 . S
C1929 C1932 1.363 . S
N1930 C1932 1.356 . S
N1930 H1942 0.984 . S
N1930 H1943 0.985 . S
N1931 C1933 1.356 1_565 S
N1931 H1936 0.984 . S
N1931 H1937 0.985 . S
C1932 C1926 1.379 . S
C1932 C1929 1.363 . S
C1932 N1930 1.356 . S
C1933 C1927 1.363 . S
C1933 C1928 1.379 . S
C1933 N1931 1.356 1_545 S
N1934 C1926 1.356 . S
N1934 H1940 0.984 . S
N1934 H1941 0.984 1_545 S
N1935 C1928 1.356 . S
N1935 H1938 0.984 . S
N1935 H1939 0.985 . S
H1936 N1931 0.984 . S
H1937 N1931 0.985 . S
H1938 N1935 0.984 . S
H1939 N1935 0.985 . S
H1940 N1934 0.984 . S
H1941 N1934 0.984 1_565 S
H1942 N1930 0.984 . S
H1943 N1930 0.985 . S
C1944 C1945 1.363 . S
C1944 C1950 1.379 . S
C1944 N1952 1.356 . S
C1945 C1944 1.363 . S
C1945 C1951 1.363 . S
C1946 C1947 1.363 . S
C1946 C1951 1.379 . S
C1946 N1953 1.356 . S
C1947 C1946 1.363 . S
C1947 C1950 1.363 . S
N1948 C1950 1.356 . S
N1948 H1960 0.984 . S
N1948 H1961 0.985 . S
N1949 C1951 1.356 1_455 S
N1949 H1954 0.984 . S
N1949 H1955 0.985 . S
C1950 C1944 1.379 . S
C1950 C1947 1.363 . S
C1950 N1948 1.356 . S
C1951 C1945 1.363 . S
C1951 C1946 1.379 . S
C1951 N1949 1.356 1_655 S
N1952 C1944 1.356 . S
N1952 H1958 0.984 . S
N1952 H1959 0.984 1_655 S
N1953 C1946 1.356 . S
N1953 H1956 0.984 . S
N1953 H1957 0.985 . S
H1954 N1949 0.984 . S
H1955 N1949 0.985 . S
H1956 N1953 0.984 . S
H1957 N1953 0.985 . S
H1958 N1952 0.984 . S
H1959 N1952 0.984 1_455 S
H1960 N1948 0.984 . S
H1961 N1948 0.985 . S
C1962 C1963 1.363 . S
C1962 C1968 1.379 . S
C1962 N1970 1.356 . S
C1963 C1962 1.363 . S
C1963 C1969 1.363 . S
C1964 C1965 1.363 . S
C1964 C1969 1.379 . S
C1964 N1971 1.356 . S
C1965 C1964 1.363 . S
C1965 C1968 1.363 . S
N1966 C1968 1.356 1_545 S
N1966 H1978 0.984 . S
N1966 H1979 0.985 . S
N1967 C1969 1.356 . S
N1967 H1972 0.984 . S
N1967 H1973 0.985 . S
C1968 C1962 1.379 . S
C1968 C1965 1.363 . S
C1968 N1966 1.356 1_565 S
C1969 C1963 1.363 . S
C1969 C1964 1.379 . S
C1969 N1967 1.356 . S
N1970 C1962 1.356 . S
N1970 H1976 0.984 . S
N1970 H1977 0.984 . S
N1971 C1964 1.356 . S
N1971 H1974 0.984 1_565 S
N1971 H1975 0.985 . S
H1972 N1967 0.984 . S
H1973 N1967 0.985 . S
H1974 N1971 0.984 1_545 S
H1975 N1971 0.985 . S
H1976 N1970 0.984 . S
H1977 N1970 0.984 . S
H1978 N1966 0.984 . S
H1979 N1966 0.985 . S
C1980 C1981 1.363 . S
C1980 C1986 1.379 . S
C1980 N1988 1.356 . S
C1981 C1980 1.363 . S
C1981 C1987 1.363 . S
C1982 C1983 1.363 . S
C1982 C1987 1.379 . S
C1982 N1989 1.356 1_455 S
C1983 C1982 1.363 . S
C1983 C1986 1.363 . S
N1984 C1986 1.356 . S
N1984 H1996 0.984 . S
N1984 H1997 0.985 1_455 S
N1985 C1987 1.356 . S
N1985 H1990 0.984 . S
N1985 H1991 0.985 . S
C1986 C1980 1.379 . S
C1986 C1983 1.363 . S
C1986 N1984 1.356 . S
C1987 C1981 1.363 . S
C1987 C1982 1.379 . S
C1987 N1985 1.356 . S
N1988 C1980 1.356 . S
N1988 H1994 0.984 . S
N1988 H1995 0.984 . S
N1989 C1982 1.356 1_655 S
N1989 H1992 0.984 . S
N1989 H1993 0.985 . S
H1990 N1985 0.984 . S
H1991 N1985 0.985 . S
H1992 N1989 0.984 . S
H1993 N1989 0.985 . S
H1994 N1988 0.984 . S
H1995 N1988 0.984 . S
H1996 N1984 0.984 . S
H1997 N1984 0.985 1_655 S
C1998 C1999 1.363 . S
C1998 C2004 1.379 . S
C1998 N2006 1.356 . S
C1999 C1998 1.363 . S
C1999 C2005 1.363 . S
C2000 C2001 1.363 . S
C2000 C2005 1.379 . S
C2000 N2007 1.356 . S
C2001 C2000 1.363 . S
C2001 C2004 1.363 . S
N2002 C2004 1.356 . S
N2002 H2014 0.984 . S
N2002 H2015 0.985 . S
N2003 C2005 1.356 1_455 S
N2003 H2008 0.984 . S
N2003 H2009 0.985 . S
C2004 C1998 1.379 . S
C2004 C2001 1.363 . S
C2004 N2002 1.356 . S
C2005 C1999 1.363 . S
C2005 C2000 1.379 . S
C2005 N2003 1.356 1_655 S
N2006 C1998 1.356 . S
N2006 H2012 0.984 . S
N2006 H2013 0.984 1_655 S
N2007 C2000 1.356 . S
N2007 H2010 0.984 . S
N2007 H2011 0.985 . S
H2008 N2003 0.984 . S
H2009 N2003 0.985 . S
H2010 N2007 0.984 . S
H2011 N2007 0.985 . S
H2012 N2006 0.984 . S
H2013 N2006 0.984 1_455 S
H2014 N2002 0.984 . S
H2015 N2002 0.985 . S
C2016 C2017 1.363 . S
C2016 C2022 1.379 . S
C2016 N2024 1.356 . S
C2017 C2016 1.363 . S
C2017 C2023 1.363 . S
C2018 C2019 1.363 . S
C2018 C2023 1.379 . S
C2018 N2025 1.356 . S
C2019 C2018 1.363 . S
C2019 C2022 1.363 . S
N2020 C2022 1.356 . S
N2020 H2032 0.984 . S
N2020 H2033 0.985 . S
N2021 C2023 1.356 . S
N2021 H2026 0.984 . S
N2021 H2027 0.985 . S
C2022 C2016 1.379 . S
C2022 C2019 1.363 . S
C2022 N2020 1.356 . S
C2023 C2017 1.363 . S
C2023 C2018 1.379 . S
C2023 N2021 1.356 . S
N2024 C2016 1.356 . S
N2024 H2030 0.984 . S
N2024 H2031 0.984 . S
N2025 C2018 1.356 . S
N2025 H2028 0.984 . S
N2025 H2029 0.985 . S
H2026 N2021 0.984 . S
H2027 N2021 0.985 . S
H2028 N2025 0.984 . S
H2029 N2025 0.985 . S
H2030 N2024 0.984 . S
H2031 N2024 0.984 . S
H2032 N2020 0.984 . S
H2033 N2020 0.985 . S
C2034 C2035 1.363 . S
C2034 C2040 1.379 . S
C2034 N2042 1.356 . S
C2035 C2034 1.363 . S
C2035 C2041 1.363 . S
C2036 C2037 1.363 . S
C2036 C2041 1.379 . S
C2036 N2043 1.356 . S
C2037 C2036 1.363 . S
C2037 C2040 1.363 . S
N2038 C2040 1.356 . S
N2038 H2050 0.984 . S
N2038 H2051 0.985 . S
N2039 C2041 1.356 . S
N2039 H2044 0.984 . S
N2039 H2045 0.985 . S
C2040 C2034 1.379 . S
C2040 C2037 1.363 . S
C2040 N2038 1.356 . S
C2041 C2035 1.363 . S
C2041 C2036 1.379 . S
C2041 N2039 1.356 . S
N2042 C2034 1.356 . S
N2042 H2048 0.984 . S
N2042 H2049 0.984 . S
N2043 C2036 1.356 . S
N2043 H2046 0.984 . S
N2043 H2047 0.985 . S
H2044 N2039 0.984 . S
H2045 N2039 0.985 . S
H2046 N2043 0.984 . S
H2047 N2043 0.985 . S
H2048 N2042 0.984 . S
H2049 N2042 0.984 . S
H2050 N2038 0.984 . S
H2051 N2038 0.985 . S
C2052 C2053 1.363 . S
C2052 C2058 1.379 . S
C2052 N2060 1.356 . S
C2053 C2052 1.363 . S
C2053 C2059 1.363 . S
C2054 C2055 1.363 . S
C2054 C2059 1.379 . S
C2054 N2061 1.356 . S
C2055 C2054 1.363 . S
C2055 C2058 1.363 . S
N2056 C2058 1.356 . S
N2056 H2068 0.984 . S
N2056 H2069 0.985 . S
N2057 C2059 1.356 . S
N2057 H2062 0.984 . S
N2057 H2063 0.985 . S
C2058 C2052 1.379 . S
C2058 C2055 1.363 . S
C2058 N2056 1.356 . S
C2059 C2053 1.363 . S
C2059 C2054 1.379 . S
C2059 N2057 1.356 . S
N2060 C2052 1.356 . S
N2060 H2066 0.984 . S
N2060 H2067 0.984 . S
N2061 C2054 1.356 . S
N2061 H2064 0.984 . S
N2061 H2065 0.985 . S
H2062 N2057 0.984 . S
H2063 N2057 0.985 . S
H2064 N2061 0.984 . S
H2065 N2061 0.985 . S
H2066 N2060 0.984 . S
H2067 N2060 0.984 . S
H2068 N2056 0.984 . S
H2069 N2056 0.985 . S
C2070 C2071 1.363 . S
C2070 C2076 1.379 . S
C2070 N2078 1.356 . S
C2071 C2070 1.363 . S
C2071 C2077 1.363 . S
C2072 C2073 1.363 . S
C2072 C2077 1.379 . S
C2072 N2079 1.356 . S
C2073 C2072 1.363 . S
C2073 C2076 1.363 . S
N2074 C2076 1.356 . S
N2074 H2086 0.984 . S
N2074 H2087 0.985 . S
N2075 C2077 1.356 . S
N2075 H2080 0.984 . S
N2075 H2081 0.985 . S
C2076 C2070 1.379 . S
C2076 C2073 1.363 . S
C2076 N2074 1.356 . S
C2077 C2071 1.363 . S
C2077 C2072 1.379 . S
C2077 N2075 1.356 . S
N2078 C2070 1.356 . S
N2078 H2084 0.984 . S
N2078 H2085 0.984 . S
N2079 C2072 1.356 . S
N2079 H2082 0.984 . S
N2079 H2083 0.985 . S
H2080 N2075 0.984 . S
H2081 N2075 0.985 . S
H2082 N2079 0.984 . S
H2083 N2079 0.985 . S
H2084 N2078 0.984 . S
H2085 N2078 0.984 . S
H2086 N2074 0.984 . S
H2087 N2074 0.985 . S
C2088 C2089 1.363 . S
C2088 C2094 1.379 . S
C2088 N2096 1.356 . S
C2089 C2088 1.363 . S
C2089 C2095 1.363 . S
C2090 C2091 1.363 . S
C2090 C2095 1.379 . S
C2090 N2097 1.356 . S
C2091 C2090 1.363 . S
C2091 C2094 1.363 . S
N2092 C2094 1.356 . S
N2092 H2104 0.984 . S
N2092 H2105 0.985 . S
N2093 C2095 1.356 . S
N2093 H2098 0.984 . S
N2093 H2099 0.985 . S
C2094 C2088 1.379 . S
C2094 C2091 1.363 . S
C2094 N2092 1.356 . S
C2095 C2089 1.363 . S
C2095 C2090 1.379 . S
C2095 N2093 1.356 . S
N2096 C2088 1.356 . S
N2096 H2102 0.984 . S
N2096 H2103 0.984 . S
N2097 C2090 1.356 . S
N2097 H2100 0.984 . S
N2097 H2101 0.985 . S
H2098 N2093 0.984 . S
H2099 N2093 0.985 . S
H2100 N2097 0.984 . S
H2101 N2097 0.985 . S
H2102 N2096 0.984 . S
H2103 N2096 0.984 . S
H2104 N2092 0.984 . S
H2105 N2092 0.985 . S
C2106 C2107 1.363 . S
C2106 C2112 1.379 . S
C2106 N2114 1.356 . S
C2107 C2106 1.363 . S
C2107 C2113 1.363 . S
C2108 C2109 1.363 . S
C2108 C2113 1.379 . S
C2108 N2115 1.356 . S
C2109 C2108 1.363 . S
C2109 C2112 1.363 . S
N2110 C2112 1.356 . S
N2110 H2122 0.984 . S
N2110 H2123 0.985 . S
N2111 C2113 1.356 . S
N2111 H2116 0.984 . S
N2111 H2117 0.985 . S
C2112 C2106 1.379 . S
C2112 C2109 1.363 . S
C2112 N2110 1.356 . S
C2113 C2107 1.363 . S
C2113 C2108 1.379 . S
C2113 N2111 1.356 . S
N2114 C2106 1.356 . S
N2114 H2120 0.984 . S
N2114 H2121 0.984 . S
N2115 C2108 1.356 . S
N2115 H2118 0.984 . S
N2115 H2119 0.985 . S
H2116 N2111 0.984 . S
H2117 N2111 0.985 . S
H2118 N2115 0.984 . S
H2119 N2115 0.985 . S
H2120 N2114 0.984 . S
H2121 N2114 0.984 . S
H2122 N2110 0.984 . S
H2123 N2110 0.985 . S
C2124 C2125 1.363 . S
C2124 C2130 1.379 . S
C2124 N2132 1.356 . S
C2125 C2124 1.363 . S
C2125 C2131 1.363 . S
C2126 C2127 1.363 . S
C2126 C2131 1.379 . S
C2126 N2133 1.356 . S
C2127 C2126 1.363 . S
C2127 C2130 1.363 . S
N2128 C2130 1.356 . S
N2128 H2140 0.984 . S
N2128 H2141 0.985 . S
N2129 C2131 1.356 . S
N2129 H2134 0.984 . S
N2129 H2135 0.985 . S
C2130 C2124 1.379 . S
C2130 C2127 1.363 . S
C2130 N2128 1.356 . S
C2131 C2125 1.363 . S
C2131 C2126 1.379 . S
C2131 N2129 1.356 . S
N2132 C2124 1.356 . S
N2132 H2138 0.984 . S
N2132 H2139 0.984 . S
N2133 C2126 1.356 . S
N2133 H2136 0.984 . S
N2133 H2137 0.985 . S
H2134 N2129 0.984 . S
H2135 N2129 0.985 . S
H2136 N2133 0.984 . S
H2137 N2133 0.985 . S
H2138 N2132 0.984 . S
H2139 N2132 0.984 . S
H2140 N2128 0.984 . S
H2141 N2128 0.985 . S
C2142 C2143 1.363 . S
C2142 C2148 1.379 . S
C2142 N2150 1.356 . S
C2143 C2142 1.363 . S
C2143 C2149 1.363 . S
C2144 C2145 1.363 . S
C2144 C2149 1.379 . S
C2144 N2151 1.356 . S
C2145 C2144 1.363 . S
C2145 C2148 1.363 . S
N2146 C2148 1.356 . S
N2146 H2158 0.984 . S
N2146 H2159 0.985 . S
N2147 C2149 1.356 . S
N2147 H2152 0.984 . S
N2147 H2153 0.985 . S
C2148 C2142 1.379 . S
C2148 C2145 1.363 . S
C2148 N2146 1.356 . S
C2149 C2143 1.363 . S
C2149 C2144 1.379 . S
C2149 N2147 1.356 . S
N2150 C2142 1.356 . S
N2150 H2156 0.984 . S
N2150 H2157 0.984 . S
N2151 C2144 1.356 . S
N2151 H2154 0.984 . S
N2151 H2155 0.985 . S
H2152 N2147 0.984 . S
H2153 N2147 0.985 . S
H2154 N2151 0.984 . S
H2155 N2151 0.985 . S
H2156 N2150 0.984 . S
H2157 N2150 0.984 . S
H2158 N2146 0.984 . S
H2159 N2146 0.985 . S
C2160 C2161 1.363 . S
C2160 C2166 1.379 . S
C2160 N2168 1.356 . S
C2161 C2160 1.363 . S
C2161 C2167 1.363 . S
C2162 C2163 1.363 . S
C2162 C2167 1.379 . S
C2162 N2169 1.356 . S
C2163 C2162 1.363 . S
C2163 C2166 1.363 . S
N2164 C2166 1.356 . S
N2164 H2176 0.984 . S
N2164 H2177 0.985 . S
N2165 C2167 1.356 . S
N2165 H2170 0.984 . S
N2165 H2171 0.985 . S
C2166 C2160 1.379 . S
C2166 C2163 1.363 . S
C2166 N2164 1.356 . S
C2167 C2161 1.363 . S
C2167 C2162 1.379 . S
C2167 N2165 1.356 . S
N2168 C2160 1.356 . S
N2168 H2174 0.984 . S
N2168 H2175 0.984 . S
N2169 C2162 1.356 . S
N2169 H2172 0.984 . S
N2169 H2173 0.985 . S
H2170 N2165 0.984 . S
H2171 N2165 0.985 . S
H2172 N2169 0.984 . S
H2173 N2169 0.985 . S
H2174 N2168 0.984 . S
H2175 N2168 0.984 . S
H2176 N2164 0.984 . S
H2177 N2164 0.985 . S
C2178 C2179 1.363 . S
C2178 C2184 1.379 . S
C2178 N2186 1.356 . S
C2179 C2178 1.363 . S
C2179 C2185 1.363 . S
C2180 C2181 1.363 . S
C2180 C2185 1.379 . S
C2180 N2187 1.356 . S
C2181 C2180 1.363 . S
C2181 C2184 1.363 . S
N2182 C2184 1.356 . S
N2182 H2194 0.984 . S
N2182 H2195 0.985 . S
N2183 C2185 1.356 . S
N2183 H2188 0.984 . S
N2183 H2189 0.985 . S
C2184 C2178 1.379 . S
C2184 C2181 1.363 . S
C2184 N2182 1.356 . S
C2185 C2179 1.363 . S
C2185 C2180 1.379 . S
C2185 N2183 1.356 . S
N2186 C2178 1.356 . S
N2186 H2192 0.984 . S
N2186 H2193 0.984 . S
N2187 C2180 1.356 . S
N2187 H2190 0.984 . S
N2187 H2191 0.985 . S
H2188 N2183 0.984 . S
H2189 N2183 0.985 . S
H2190 N2187 0.984 . S
H2191 N2187 0.985 . S
H2192 N2186 0.984 . S
H2193 N2186 0.984 . S
H2194 N2182 0.984 . S
H2195 N2182 0.985 . S
C2196 C2197 1.363 . S
C2196 C2202 1.379 . S
C2196 N2204 1.356 . S
C2197 C2196 1.363 . S
C2197 C2203 1.363 . S
C2198 C2199 1.363 . S
C2198 C2203 1.379 . S
C2198 N2205 1.356 . S
C2199 C2198 1.363 . S
C2199 C2202 1.363 . S
N2200 C2202 1.356 . S
N2200 H2212 0.984 . S
N2200 H2213 0.985 . S
N2201 C2203 1.356 . S
N2201 H2206 0.984 . S
N2201 H2207 0.985 . S
C2202 C2196 1.379 . S
C2202 C2199 1.363 . S
C2202 N2200 1.356 . S
C2203 C2197 1.363 . S
C2203 C2198 1.379 . S
C2203 N2201 1.356 . S
N2204 C2196 1.356 . S
N2204 H2210 0.984 . S
N2204 H2211 0.984 . S
N2205 C2198 1.356 . S
N2205 H2208 0.984 . S
N2205 H2209 0.985 . S
H2206 N2201 0.984 . S
H2207 N2201 0.985 . S
H2208 N2205 0.984 . S
H2209 N2205 0.985 . S
H2210 N2204 0.984 . S
H2211 N2204 0.984 . S
H2212 N2200 0.984 . S
H2213 N2200 0.985 . S
C2214 C2215 1.363 . S
C2214 C2220 1.379 . S
C2214 N2222 1.356 . S
C2215 C2214 1.363 . S
C2215 C2221 1.363 . S
C2216 C2217 1.363 . S
C2216 C2221 1.379 . S
C2216 N2223 1.356 . S
C2217 C2216 1.363 . S
C2217 C2220 1.363 . S
N2218 C2220 1.356 . S
N2218 H2230 0.984 . S
N2218 H2231 0.985 . S
N2219 C2221 1.356 . S
N2219 H2224 0.984 . S
N2219 H2225 0.985 . S
C2220 C2214 1.379 . S
C2220 C2217 1.363 . S
C2220 N2218 1.356 . S
C2221 C2215 1.363 . S
C2221 C2216 1.379 . S
C2221 N2219 1.356 . S
N2222 C2214 1.356 . S
N2222 H2228 0.984 . S
N2222 H2229 0.984 . S
N2223 C2216 1.356 . S
N2223 H2226 0.984 . S
N2223 H2227 0.985 . S
H2224 N2219 0.984 . S
H2225 N2219 0.985 . S
H2226 N2223 0.984 . S
H2227 N2223 0.985 . S
H2228 N2222 0.984 . S
H2229 N2222 0.984 . S
H2230 N2218 0.984 . S
H2231 N2218 0.985 . S
C2232 C2233 1.363 . S
C2232 C2238 1.379 . S
C2232 N2240 1.356 . S
C2233 C2232 1.363 . S
C2233 C2239 1.363 . S
C2234 C2235 1.363 . S
C2234 C2239 1.379 . S
C2234 N2241 1.356 . S
C2235 C2234 1.363 . S
C2235 C2238 1.363 . S
N2236 C2238 1.356 . S
N2236 H2248 0.984 . S
N2236 H2249 0.985 . S
N2237 C2239 1.356 . S
N2237 H2242 0.984 . S
N2237 H2243 0.985 . S
C2238 C2232 1.379 . S
C2238 C2235 1.363 . S
C2238 N2236 1.356 . S
C2239 C2233 1.363 . S
C2239 C2234 1.379 . S
C2239 N2237 1.356 . S
N2240 C2232 1.356 . S
N2240 H2246 0.984 . S
N2240 H2247 0.984 . S
N2241 C2234 1.356 . S
N2241 H2244 0.984 . S
N2241 H2245 0.985 . S
H2242 N2237 0.984 . S
H2243 N2237 0.985 . S
H2244 N2241 0.984 . S
H2245 N2241 0.985 . S
H2246 N2240 0.984 . S
H2247 N2240 0.984 . S
H2248 N2236 0.984 . S
H2249 N2236 0.985 . S
C2250 C2251 1.363 . S
C2250 C2256 1.379 . S
C2250 N2258 1.356 . S
C2251 C2250 1.363 . S
C2251 C2257 1.363 . S
C2252 C2253 1.363 . S
C2252 C2257 1.379 . S
C2252 N2259 1.356 . S
C2253 C2252 1.363 . S
C2253 C2256 1.363 . S
N2254 C2256 1.356 . S
N2254 H2266 0.984 . S
N2254 H2267 0.985 . S
N2255 C2257 1.356 . S
N2255 H2260 0.984 . S
N2255 H2261 0.985 . S
C2256 C2250 1.379 . S
C2256 C2253 1.363 . S
C2256 N2254 1.356 . S
C2257 C2251 1.363 . S
C2257 C2252 1.379 . S
C2257 N2255 1.356 . S
N2258 C2250 1.356 . S
N2258 H2264 0.984 . S
N2258 H2265 0.984 . S
N2259 C2252 1.356 . S
N2259 H2262 0.984 . S
N2259 H2263 0.985 . S
H2260 N2255 0.984 . S
H2261 N2255 0.985 . S
H2262 N2259 0.984 . S
H2263 N2259 0.985 . S
H2264 N2258 0.984 . S
H2265 N2258 0.984 . S
H2266 N2254 0.984 . S
H2267 N2254 0.985 . S
C2268 C2269 1.363 . S
C2268 C2274 1.379 . S
C2268 N2276 1.356 . S
C2269 C2268 1.363 . S
C2269 C2275 1.363 . S
C2270 C2271 1.363 . S
C2270 C2275 1.379 . S
C2270 N2277 1.356 . S
C2271 C2270 1.363 . S
C2271 C2274 1.363 . S
N2272 C2274 1.356 . S
N2272 H2284 0.984 . S
N2272 H2285 0.985 . S
N2273 C2275 1.356 . S
N2273 H2278 0.984 . S
N2273 H2279 0.985 . S
C2274 C2268 1.379 . S
C2274 C2271 1.363 . S
C2274 N2272 1.356 . S
C2275 C2269 1.363 . S
C2275 C2270 1.379 . S
C2275 N2273 1.356 . S
N2276 C2268 1.356 . S
N2276 H2282 0.984 . S
N2276 H2283 0.984 . S
N2277 C2270 1.356 . S
N2277 H2280 0.984 . S
N2277 H2281 0.985 . S
H2278 N2273 0.984 . S
H2279 N2273 0.985 . S
H2280 N2277 0.984 . S
H2281 N2277 0.985 . S
H2282 N2276 0.984 . S
H2283 N2276 0.984 . S
H2284 N2272 0.984 . S
H2285 N2272 0.985 . S
C2286 C2287 1.363 . S
C2286 C2292 1.379 . S
C2286 N2294 1.356 . S
C2287 C2286 1.363 . S
C2287 C2293 1.363 . S
C2288 C2289 1.363 . S
C2288 C2293 1.379 . S
C2288 N2295 1.356 . S
C2289 C2288 1.363 . S
C2289 C2292 1.363 . S
N2290 C2292 1.356 . S
N2290 H2302 0.984 . S
N2290 H2303 0.985 . S
N2291 C2293 1.356 . S
N2291 H2296 0.984 . S
N2291 H2297 0.985 . S
C2292 C2286 1.379 . S
C2292 C2289 1.363 . S
C2292 N2290 1.356 . S
C2293 C2287 1.363 . S
C2293 C2288 1.379 . S
C2293 N2291 1.356 . S
N2294 C2286 1.356 . S
N2294 H2300 0.984 . S
N2294 H2301 0.984 . S
N2295 C2288 1.356 . S
N2295 H2298 0.984 . S
N2295 H2299 0.985 . S
H2296 N2291 0.984 . S
H2297 N2291 0.985 . S
H2298 N2295 0.984 . S
H2299 N2295 0.985 . S
H2300 N2294 0.984 . S
H2301 N2294 0.984 . S
H2302 N2290 0.984 . S
H2303 N2290 0.985 . S
C2304 C2305 1.363 . S
C2304 C2310 1.379 . S
C2304 N2312 1.356 . S
C2305 C2304 1.363 . S
C2305 C2311 1.363 . S
C2306 C2307 1.363 . S
C2306 C2311 1.379 . S
C2306 N2313 1.356 . S
C2307 C2306 1.363 . S
C2307 C2310 1.363 . S
N2308 C2310 1.356 . S
N2308 H2320 0.984 . S
N2308 H2321 0.985 . S
N2309 C2311 1.356 . S
N2309 H2314 0.984 . S
N2309 H2315 0.985 . S
C2310 C2304 1.379 . S
C2310 C2307 1.363 . S
C2310 N2308 1.356 . S
C2311 C2305 1.363 . S
C2311 C2306 1.379 . S
C2311 N2309 1.356 . S
N2312 C2304 1.356 . S
N2312 H2318 0.984 . S
N2312 H2319 0.984 . S
N2313 C2306 1.356 . S
N2313 H2316 0.984 . S
N2313 H2317 0.985 . S
H2314 N2309 0.984 . S
H2315 N2309 0.985 . S
H2316 N2313 0.984 . S
H2317 N2313 0.985 . S
H2318 N2312 0.984 . S
H2319 N2312 0.984 . S
H2320 N2308 0.984 . S
H2321 N2308 0.985 . S
C2322 C2323 1.363 . S
C2322 C2328 1.379 . S
C2322 N2330 1.356 . S
C2323 C2322 1.363 . S
C2323 C2329 1.363 . S
C2324 C2325 1.363 . S
C2324 C2329 1.379 . S
C2324 N2331 1.356 . S
C2325 C2324 1.363 . S
C2325 C2328 1.363 . S
N2326 C2328 1.356 . S
N2326 H2338 0.984 . S
N2326 H2339 0.985 . S
N2327 C2329 1.356 . S
N2327 H2332 0.984 . S
N2327 H2333 0.985 . S
C2328 C2322 1.379 . S
C2328 C2325 1.363 . S
C2328 N2326 1.356 . S
C2329 C2323 1.363 . S
C2329 C2324 1.379 . S
C2329 N2327 1.356 . S
N2330 C2322 1.356 . S
N2330 H2336 0.984 . S
N2330 H2337 0.984 . S
N2331 C2324 1.356 . S
N2331 H2334 0.984 . S
N2331 H2335 0.985 . S
H2332 N2327 0.984 . S
H2333 N2327 0.985 . S
H2334 N2331 0.984 . S
H2335 N2331 0.985 . S
H2336 N2330 0.984 . S
H2337 N2330 0.984 . S
H2338 N2326 0.984 . S
H2339 N2326 0.985 . S
C2340 C2341 1.363 . S
C2340 C2346 1.379 . S
C2340 N2348 1.356 . S
C2341 C2340 1.363 . S
C2341 C2347 1.363 . S
C2342 C2343 1.363 . S
C2342 C2347 1.379 . S
C2342 N2349 1.356 . S
C2343 C2342 1.363 . S
C2343 C2346 1.363 . S
N2344 C2346 1.356 . S
N2344 H2356 0.984 . S
N2344 H2357 0.985 . S
N2345 C2347 1.356 . S
N2345 H2350 0.984 . S
N2345 H2351 0.985 . S
C2346 C2340 1.379 . S
C2346 C2343 1.363 . S
C2346 N2344 1.356 . S
C2347 C2341 1.363 . S
C2347 C2342 1.379 . S
C2347 N2345 1.356 . S
N2348 C2340 1.356 . S
N2348 H2354 0.984 . S
N2348 H2355 0.984 . S
N2349 C2342 1.356 . S
N2349 H2352 0.984 . S
N2349 H2353 0.985 . S
H2350 N2345 0.984 . S
H2351 N2345 0.985 . S
H2352 N2349 0.984 . S
H2353 N2349 0.985 . S
H2354 N2348 0.984 . S
H2355 N2348 0.984 . S
H2356 N2344 0.984 . S
H2357 N2344 0.985 . S
C2358 C2359 1.363 . S
C2358 C2364 1.379 . S
C2358 N2366 1.356 . S
C2359 C2358 1.363 . S
C2359 C2365 1.363 . S
C2360 C2361 1.363 . S
C2360 C2365 1.379 . S
C2360 N2367 1.356 . S
C2361 C2360 1.363 . S
C2361 C2364 1.363 . S
N2362 C2364 1.356 . S
N2362 H2374 0.984 . S
N2362 H2375 0.985 . S
N2363 C2365 1.356 . S
N2363 H2368 0.984 . S
N2363 H2369 0.985 . S
C2364 C2358 1.379 . S
C2364 C2361 1.363 . S
C2364 N2362 1.356 . S
C2365 C2359 1.363 . S
C2365 C2360 1.379 . S
C2365 N2363 1.356 . S
N2366 C2358 1.356 . S
N2366 H2372 0.984 . S
N2366 H2373 0.984 . S
N2367 C2360 1.356 . S
N2367 H2370 0.984 . S
N2367 H2371 0.985 . S
H2368 N2363 0.984 . S
H2369 N2363 0.985 . S
H2370 N2367 0.984 . S
H2371 N2367 0.985 . S
H2372 N2366 0.984 . S
H2373 N2366 0.984 . S
H2374 N2362 0.984 . S
H2375 N2362 0.985 . S
C2376 C2377 1.363 . S
C2376 C2382 1.379 . S
C2376 N2384 1.356 . S
C2377 C2376 1.363 . S
C2377 C2383 1.363 . S
C2378 C2379 1.363 . S
C2378 C2383 1.379 . S
C2378 N2385 1.356 . S
C2379 C2378 1.363 . S
C2379 C2382 1.363 . S
N2380 C2382 1.356 . S
N2380 H2392 0.984 . S
N2380 H2393 0.985 . S
N2381 C2383 1.356 . S
N2381 H2386 0.984 . S
N2381 H2387 0.985 . S
C2382 C2376 1.379 . S
C2382 C2379 1.363 . S
C2382 N2380 1.356 . S
C2383 C2377 1.363 . S
C2383 C2378 1.379 . S
C2383 N2381 1.356 . S
N2384 C2376 1.356 . S
N2384 H2390 0.984 . S
N2384 H2391 0.984 . S
N2385 C2378 1.356 . S
N2385 H2388 0.984 . S
N2385 H2389 0.985 . S
H2386 N2381 0.984 . S
H2387 N2381 0.985 . S
H2388 N2385 0.984 . S
H2389 N2385 0.985 . S
H2390 N2384 0.984 . S
H2391 N2384 0.984 . S
H2392 N2380 0.984 . S
H2393 N2380 0.985 . S
C2394 C2395 1.363 . S
C2394 C2400 1.379 . S
C2394 N2402 1.356 . S
C2395 C2394 1.363 . S
C2395 C2401 1.363 . S
C2396 C2397 1.363 . S
C2396 C2401 1.379 . S
C2396 N2403 1.356 . S
C2397 C2396 1.363 . S
C2397 C2400 1.363 . S
N2398 C2400 1.356 . S
N2398 H2410 0.984 . S
N2398 H2411 0.985 . S
N2399 C2401 1.356 . S
N2399 H2404 0.984 . S
N2399 H2405 0.985 . S
C2400 C2394 1.379 . S
C2400 C2397 1.363 . S
C2400 N2398 1.356 . S
C2401 C2395 1.363 . S
C2401 C2396 1.379 . S
C2401 N2399 1.356 . S
N2402 C2394 1.356 . S
N2402 H2408 0.984 . S
N2402 H2409 0.984 . S
N2403 C2396 1.356 . S
N2403 H2406 0.984 . S
N2403 H2407 0.985 . S
H2404 N2399 0.984 . S
H2405 N2399 0.985 . S
H2406 N2403 0.984 . S
H2407 N2403 0.985 . S
H2408 N2402 0.984 . S
H2409 N2402 0.984 . S
H2410 N2398 0.984 . S
H2411 N2398 0.985 . S
C2412 C2413 1.363 . S
C2412 C2418 1.379 . S
C2412 N2420 1.356 . S
C2413 C2412 1.363 . S
C2413 C2419 1.363 . S
C2414 C2415 1.363 . S
C2414 C2419 1.379 . S
C2414 N2421 1.356 . S
C2415 C2414 1.363 . S
C2415 C2418 1.363 . S
N2416 C2418 1.356 . S
N2416 H2428 0.984 . S
N2416 H2429 0.985 . S
N2417 C2419 1.356 . S
N2417 H2422 0.984 . S
N2417 H2423 0.985 . S
C2418 C2412 1.379 . S
C2418 C2415 1.363 . S
C2418 N2416 1.356 . S
C2419 C2413 1.363 . S
C2419 C2414 1.379 . S
C2419 N2417 1.356 . S
N2420 C2412 1.356 . S
N2420 H2426 0.984 . S
N2420 H2427 0.984 . S
N2421 C2414 1.356 . S
N2421 H2424 0.984 . S
N2421 H2425 0.985 . S
H2422 N2417 0.984 . S
H2423 N2417 0.985 . S
H2424 N2421 0.984 . S
H2425 N2421 0.985 . S
H2426 N2420 0.984 . S
H2427 N2420 0.984 . S
H2428 N2416 0.984 . S
H2429 N2416 0.985 . S
C2430 C2431 1.363 . S
C2430 C2436 1.379 . S
C2430 N2438 1.356 . S
C2431 C2430 1.363 . S
C2431 C2437 1.363 . S
C2432 C2433 1.363 . S
C2432 C2437 1.379 . S
C2432 N2439 1.356 . S
C2433 C2432 1.363 . S
C2433 C2436 1.363 . S
N2434 C2436 1.356 . S
N2434 H2446 0.984 . S
N2434 H2447 0.985 . S
N2435 C2437 1.356 . S
N2435 H2440 0.984 . S
N2435 H2441 0.985 . S
C2436 C2430 1.379 . S
C2436 C2433 1.363 . S
C2436 N2434 1.356 . S
C2437 C2431 1.363 . S
C2437 C2432 1.379 . S
C2437 N2435 1.356 . S
N2438 C2430 1.356 . S
N2438 H2444 0.984 . S
N2438 H2445 0.984 . S
N2439 C2432 1.356 . S
N2439 H2442 0.984 . S
N2439 H2443 0.985 . S
H2440 N2435 0.984 . S
H2441 N2435 0.985 . S
H2442 N2439 0.984 . S
H2443 N2439 0.985 . S
H2444 N2438 0.984 . S
H2445 N2438 0.984 . S
H2446 N2434 0.984 . S
H2447 N2434 0.985 . S
C2448 C2449 1.363 . S
C2448 C2454 1.379 . S
C2448 N2456 1.356 . S
C2449 C2448 1.363 . S
C2449 C2455 1.363 . S
C2450 C2451 1.363 . S
C2450 C2455 1.379 . S
C2450 N2457 1.356 . S
C2451 C2450 1.363 . S
C2451 C2454 1.363 . S
N2452 C2454 1.356 . S
N2452 H2464 0.984 . S
N2452 H2465 0.985 . S
N2453 C2455 1.356 . S
N2453 H2458 0.984 . S
N2453 H2459 0.985 . S
C2454 C2448 1.379 . S
C2454 C2451 1.363 . S
C2454 N2452 1.356 . S
C2455 C2449 1.363 . S
C2455 C2450 1.379 . S
C2455 N2453 1.356 . S
N2456 C2448 1.356 . S
N2456 H2462 0.984 . S
N2456 H2463 0.984 . S
N2457 C2450 1.356 . S
N2457 H2460 0.984 . S
N2457 H2461 0.985 . S
H2458 N2453 0.984 . S
H2459 N2453 0.985 . S
H2460 N2457 0.984 . S
H2461 N2457 0.985 . S
H2462 N2456 0.984 . S
H2463 N2456 0.984 . S
H2464 N2452 0.984 . S
H2465 N2452 0.985 . S
C2466 C2467 1.363 . S
C2466 C2472 1.379 . S
C2466 N2474 1.356 . S
C2467 C2466 1.363 . S
C2467 C2473 1.363 . S
C2468 C2469 1.363 . S
C2468 C2473 1.379 . S
C2468 N2475 1.356 . S
C2469 C2468 1.363 . S
C2469 C2472 1.363 . S
N2470 C2472 1.356 . S
N2470 H2482 0.984 . S
N2470 H2483 0.985 . S
N2471 C2473 1.356 . S
N2471 H2476 0.984 . S
N2471 H2477 0.985 . S
C2472 C2466 1.379 . S
C2472 C2469 1.363 . S
C2472 N2470 1.356 . S
C2473 C2467 1.363 . S
C2473 C2468 1.379 . S
C2473 N2471 1.356 . S
N2474 C2466 1.356 . S
N2474 H2480 0.984 . S
N2474 H2481 0.984 . S
N2475 C2468 1.356 . S
N2475 H2478 0.984 . S
N2475 H2479 0.985 . S
H2476 N2471 0.984 . S
H2477 N2471 0.985 . S
H2478 N2475 0.984 . S
H2479 N2475 0.985 . S
H2480 N2474 0.984 . S
H2481 N2474 0.984 . S
H2482 N2470 0.984 . S
H2483 N2470 0.985 . S
C2484 C2485 1.363 . S
C2484 C2490 1.379 . S
C2484 N2492 1.356 . S
C2485 C2484 1.363 . S
C2485 C2491 1.363 . S
C2486 C2487 1.363 . S
C2486 C2491 1.379 . S
C2486 N2493 1.356 . S
C2487 C2486 1.363 . S
C2487 C2490 1.363 . S
N2488 C2490 1.356 . S
N2488 H2500 0.984 . S
N2488 H2501 0.985 . S
N2489 C2491 1.356 . S
N2489 H2494 0.984 . S
N2489 H2495 0.985 . S
C2490 C2484 1.379 . S
C2490 C2487 1.363 . S
C2490 N2488 1.356 . S
C2491 C2485 1.363 . S
C2491 C2486 1.379 . S
C2491 N2489 1.356 . S
N2492 C2484 1.356 . S
N2492 H2498 0.984 . S
N2492 H2499 0.984 . S
N2493 C2486 1.356 . S
N2493 H2496 0.984 . S
N2493 H2497 0.985 . S
H2494 N2489 0.984 . S
H2495 N2489 0.985 . S
H2496 N2493 0.984 . S
H2497 N2493 0.985 . S
H2498 N2492 0.984 . S
H2499 N2492 0.984 . S
H2500 N2488 0.984 . S
H2501 N2488 0.985 . S
C2502 C2503 1.363 . S
C2502 C2508 1.379 . S
C2502 N2510 1.356 . S
C2503 C2502 1.363 . S
C2503 C2509 1.363 . S
C2504 C2505 1.363 . S
C2504 C2509 1.379 . S
C2504 N2511 1.356 . S
C2505 C2504 1.363 . S
C2505 C2508 1.363 . S
N2506 C2508 1.356 . S
N2506 H2518 0.984 . S
N2506 H2519 0.985 . S
N2507 C2509 1.356 . S
N2507 H2512 0.984 . S
N2507 H2513 0.985 . S
C2508 C2502 1.379 . S
C2508 C2505 1.363 . S
C2508 N2506 1.356 . S
C2509 C2503 1.363 . S
C2509 C2504 1.379 . S
C2509 N2507 1.356 . S
N2510 C2502 1.356 . S
N2510 H2516 0.984 . S
N2510 H2517 0.984 . S
N2511 C2504 1.356 . S
N2511 H2514 0.984 . S
N2511 H2515 0.985 . S
H2512 N2507 0.984 . S
H2513 N2507 0.985 . S
H2514 N2511 0.984 . S
H2515 N2511 0.985 . S
H2516 N2510 0.984 . S
H2517 N2510 0.984 . S
H2518 N2506 0.984 . S
H2519 N2506 0.985 . S
C2520 C2521 1.363 . S
C2520 C2526 1.379 . S
C2520 N2528 1.356 . S
C2521 C2520 1.363 . S
C2521 C2527 1.363 . S
C2522 C2523 1.363 . S
C2522 C2527 1.379 . S
C2522 N2529 1.356 . S
C2523 C2522 1.363 . S
C2523 C2526 1.363 . S
N2524 C2526 1.356 . S
N2524 H2536 0.984 . S
N2524 H2537 0.985 . S
N2525 C2527 1.356 . S
N2525 H2530 0.984 . S
N2525 H2531 0.985 . S
C2526 C2520 1.379 . S
C2526 C2523 1.363 . S
C2526 N2524 1.356 . S
C2527 C2521 1.363 . S
C2527 C2522 1.379 . S
C2527 N2525 1.356 . S
N2528 C2520 1.356 . S
N2528 H2534 0.984 . S
N2528 H2535 0.984 . S
N2529 C2522 1.356 . S
N2529 H2532 0.984 . S
N2529 H2533 0.985 . S
H2530 N2525 0.984 . S
H2531 N2525 0.985 . S
H2532 N2529 0.984 . S
H2533 N2529 0.985 . S
H2534 N2528 0.984 . S
H2535 N2528 0.984 . S
H2536 N2524 0.984 . S
H2537 N2524 0.985 . S
C2538 C2539 1.363 . S
C2538 C2544 1.379 . S
C2538 N2546 1.356 . S
C2539 C2538 1.363 . S
C2539 C2545 1.363 . S
C2540 C2541 1.363 . S
C2540 C2545 1.379 . S
C2540 N2547 1.356 . S
C2541 C2540 1.363 . S
C2541 C2544 1.363 . S
N2542 C2544 1.356 . S
N2542 H2554 0.984 . S
N2542 H2555 0.985 . S
N2543 C2545 1.356 . S
N2543 H2548 0.984 . S
N2543 H2549 0.985 . S
C2544 C2538 1.379 . S
C2544 C2541 1.363 . S
C2544 N2542 1.356 . S
C2545 C2539 1.363 . S
C2545 C2540 1.379 . S
C2545 N2543 1.356 . S
N2546 C2538 1.356 . S
N2546 H2552 0.984 . S
N2546 H2553 0.984 . S
N2547 C2540 1.356 . S
N2547 H2550 0.984 . S
N2547 H2551 0.985 . S
H2548 N2543 0.984 . S
H2549 N2543 0.985 . S
H2550 N2547 0.984 . S
H2551 N2547 0.985 . S
H2552 N2546 0.984 . S
H2553 N2546 0.984 . S
H2554 N2542 0.984 . S
H2555 N2542 0.985 . S
C2556 C2557 1.363 . S
C2556 C2562 1.379 . S
C2556 N2564 1.356 . S
C2557 C2556 1.363 . S
C2557 C2563 1.363 . S
C2558 C2559 1.363 . S
C2558 C2563 1.379 . S
C2558 N2565 1.356 . S
C2559 C2558 1.363 . S
C2559 C2562 1.363 . S
N2560 C2562 1.356 . S
N2560 H2572 0.984 . S
N2560 H2573 0.985 . S
N2561 C2563 1.356 . S
N2561 H2566 0.984 . S
N2561 H2567 0.985 . S
C2562 C2556 1.379 . S
C2562 C2559 1.363 . S
C2562 N2560 1.356 . S
C2563 C2557 1.363 . S
C2563 C2558 1.379 . S
C2563 N2561 1.356 . S
N2564 C2556 1.356 . S
N2564 H2570 0.984 . S
N2564 H2571 0.984 . S
N2565 C2558 1.356 . S
N2565 H2568 0.984 . S
N2565 H2569 0.985 . S
H2566 N2561 0.984 . S
H2567 N2561 0.985 . S
H2568 N2565 0.984 . S
H2569 N2565 0.985 . S
H2570 N2564 0.984 . S
H2571 N2564 0.984 . S
H2572 N2560 0.984 . S
H2573 N2560 0.985 . S
C2574 C2575 1.363 . S
C2574 C2580 1.379 . S
C2574 N2582 1.356 . S
C2575 C2574 1.363 . S
C2575 C2581 1.363 . S
C2576 C2577 1.363 . S
C2576 C2581 1.379 . S
C2576 N2583 1.356 . S
C2577 C2576 1.363 . S
C2577 C2580 1.363 . S
N2578 C2580 1.356 . S
N2578 H2590 0.984 . S
N2578 H2591 0.985 . S
N2579 C2581 1.356 . S
N2579 H2584 0.984 . S
N2579 H2585 0.985 . S
C2580 C2574 1.379 . S
C2580 C2577 1.363 . S
C2580 N2578 1.356 . S
C2581 C2575 1.363 . S
C2581 C2576 1.379 . S
C2581 N2579 1.356 . S
N2582 C2574 1.356 . S
N2582 H2588 0.984 . S
N2582 H2589 0.984 . S
N2583 C2576 1.356 . S
N2583 H2586 0.984 . S
N2583 H2587 0.985 . S
H2584 N2579 0.984 . S
H2585 N2579 0.985 . S
H2586 N2583 0.984 . S
H2587 N2583 0.985 . S
H2588 N2582 0.984 . S
H2589 N2582 0.984 . S
H2590 N2578 0.984 . S
H2591 N2578 0.985 . S
C2592 C2593 1.363 . S
C2592 C2598 1.379 . S
C2592 N2600 1.356 . S
C2593 C2592 1.363 . S
C2593 C2599 1.363 . S
C2594 C2595 1.363 . S
C2594 C2599 1.379 . S
C2594 N2601 1.356 . S
C2595 C2594 1.363 . S
C2595 C2598 1.363 . S
N2596 C2598 1.356 . S
N2596 H2608 0.984 . S
N2596 H2609 0.985 . S
N2597 C2599 1.356 . S
N2597 H2602 0.984 . S
N2597 H2603 0.985 . S
C2598 C2592 1.379 . S
C2598 C2595 1.363 . S
C2598 N2596 1.356 . S
C2599 C2593 1.363 . S
C2599 C2594 1.379 . S
C2599 N2597 1.356 . S
N2600 C2592 1.356 . S
N2600 H2606 0.984 . S
N2600 H2607 0.984 . S
N2601 C2594 1.356 . S
N2601 H2604 0.984 . S
N2601 H2605 0.985 . S
H2602 N2597 0.984 . S
H2603 N2597 0.985 . S
H2604 N2601 0.984 . S
H2605 N2601 0.985 . S
H2606 N2600 0.984 . S
H2607 N2600 0.984 . S
H2608 N2596 0.984 . S
H2609 N2596 0.985 . S
C2610 C2611 1.363 . S
C2610 C2616 1.379 . S
C2610 N2618 1.356 . S
C2611 C2610 1.363 . S
C2611 C2617 1.363 . S
C2612 C2613 1.363 . S
C2612 C2617 1.379 . S
C2612 N2619 1.356 . S
C2613 C2612 1.363 . S
C2613 C2616 1.363 . S
N2614 C2616 1.356 . S
N2614 H2626 0.984 . S
N2614 H2627 0.985 . S
N2615 C2617 1.356 . S
N2615 H2620 0.984 . S
N2615 H2621 0.985 . S
C2616 C2610 1.379 . S
C2616 C2613 1.363 . S
C2616 N2614 1.356 . S
C2617 C2611 1.363 . S
C2617 C2612 1.379 . S
C2617 N2615 1.356 . S
N2618 C2610 1.356 . S
N2618 H2624 0.984 . S
N2618 H2625 0.984 . S
N2619 C2612 1.356 . S
N2619 H2622 0.984 . S
N2619 H2623 0.985 . S
H2620 N2615 0.984 . S
H2621 N2615 0.985 . S
H2622 N2619 0.984 . S
H2623 N2619 0.985 . S
H2624 N2618 0.984 . S
H2625 N2618 0.984 . S
H2626 N2614 0.984 . S
H2627 N2614 0.985 . S
C2628 C2629 1.363 . S
C2628 C2634 1.379 . S
C2628 N2636 1.356 . S
C2629 C2628 1.363 . S
C2629 C2635 1.363 . S
C2630 C2631 1.363 . S
C2630 C2635 1.379 . S
C2630 N2637 1.356 . S
C2631 C2630 1.363 . S
C2631 C2634 1.363 . S
N2632 C2634 1.356 . S
N2632 H2644 0.984 . S
N2632 H2645 0.985 . S
N2633 C2635 1.356 . S
N2633 H2638 0.984 . S
N2633 H2639 0.985 . S
C2634 C2628 1.379 . S
C2634 C2631 1.363 . S
C2634 N2632 1.356 . S
C2635 C2629 1.363 . S
C2635 C2630 1.379 . S
C2635 N2633 1.356 . S
N2636 C2628 1.356 . S
N2636 H2642 0.984 . S
N2636 H2643 0.984 . S
N2637 C2630 1.356 . S
N2637 H2640 0.984 . S
N2637 H2641 0.985 . S
H2638 N2633 0.984 . S
H2639 N2633 0.985 . S
H2640 N2637 0.984 . S
H2641 N2637 0.985 . S
H2642 N2636 0.984 . S
H2643 N2636 0.984 . S
H2644 N2632 0.984 . S
H2645 N2632 0.985 . S
C2646 C2647 1.363 . S
C2646 C2652 1.379 . S
C2646 N2654 1.356 . S
C2647 C2646 1.363 . S
C2647 C2653 1.363 . S
C2648 C2649 1.363 . S
C2648 C2653 1.379 . S
C2648 N2655 1.356 . S
C2649 C2648 1.363 . S
C2649 C2652 1.363 . S
N2650 C2652 1.356 . S
N2650 H2662 0.984 . S
N2650 H2663 0.985 . S
N2651 C2653 1.356 . S
N2651 H2656 0.984 . S
N2651 H2657 0.985 . S
C2652 C2646 1.379 . S
C2652 C2649 1.363 . S
C2652 N2650 1.356 . S
C2653 C2647 1.363 . S
C2653 C2648 1.379 . S
C2653 N2651 1.356 . S
N2654 C2646 1.356 . S
N2654 H2660 0.984 . S
N2654 H2661 0.984 . S
N2655 C2648 1.356 . S
N2655 H2658 0.984 . S
N2655 H2659 0.985 . S
H2656 N2651 0.984 . S
H2657 N2651 0.985 . S
H2658 N2655 0.984 . S
H2659 N2655 0.985 . S
H2660 N2654 0.984 . S
H2661 N2654 0.984 . S
H2662 N2650 0.984 . S
H2663 N2650 0.985 . S
C2664 C2665 1.363 . S
C2664 C2670 1.379 . S
C2664 N2672 1.356 . S
C2665 C2664 1.363 . S
C2665 C2671 1.363 . S
C2666 C2667 1.363 . S
C2666 C2671 1.379 . S
C2666 N2673 1.356 . S
C2667 C2666 1.363 . S
C2667 C2670 1.363 . S
N2668 C2670 1.356 . S
N2668 H2680 0.984 . S
N2668 H2681 0.985 . S
N2669 C2671 1.356 . S
N2669 H2674 0.984 . S
N2669 H2675 0.985 . S
C2670 C2664 1.379 . S
C2670 C2667 1.363 . S
C2670 N2668 1.356 . S
C2671 C2665 1.363 . S
C2671 C2666 1.379 . S
C2671 N2669 1.356 . S
N2672 C2664 1.356 . S
N2672 H2678 0.984 . S
N2672 H2679 0.984 . S
N2673 C2666 1.356 . S
N2673 H2676 0.984 . S
N2673 H2677 0.985 . S
H2674 N2669 0.984 . S
H2675 N2669 0.985 . S
H2676 N2673 0.984 . S
H2677 N2673 0.985 . S
H2678 N2672 0.984 . S
H2679 N2672 0.984 . S
H2680 N2668 0.984 . S
H2681 N2668 0.985 . S
C2682 C2683 1.363 . S
C2682 C2688 1.379 . S
C2682 N2690 1.356 . S
C2683 C2682 1.363 . S
C2683 C2689 1.363 . S
C2684 C2685 1.363 . S
C2684 C2689 1.379 . S
C2684 N2691 1.356 . S
C2685 C2684 1.363 . S
C2685 C2688 1.363 . S
N2686 C2688 1.356 . S
N2686 H2698 0.984 . S
N2686 H2699 0.985 . S
N2687 C2689 1.356 . S
N2687 H2692 0.984 . S
N2687 H2693 0.985 . S
C2688 C2682 1.379 . S
C2688 C2685 1.363 . S
C2688 N2686 1.356 . S
C2689 C2683 1.363 . S
C2689 C2684 1.379 . S
C2689 N2687 1.356 . S
N2690 C2682 1.356 . S
N2690 H2696 0.984 . S
N2690 H2697 0.984 . S
N2691 C2684 1.356 . S
N2691 H2694 0.984 . S
N2691 H2695 0.985 . S
H2692 N2687 0.984 . S
H2693 N2687 0.985 . S
H2694 N2691 0.984 . S
H2695 N2691 0.985 . S
H2696 N2690 0.984 . S
H2697 N2690 0.984 . S
H2698 N2686 0.984 . S
H2699 N2686 0.985 . S
C2700 C2701 1.363 . S
C2700 C2706 1.379 . S
C2700 N2708 1.356 . S
C2701 C2700 1.363 . S
C2701 C2707 1.363 . S
C2702 C2703 1.363 . S
C2702 C2707 1.379 . S
C2702 N2709 1.356 . S
C2703 C2702 1.363 . S
C2703 C2706 1.363 . S
N2704 C2706 1.356 . S
N2704 H2716 0.984 . S
N2704 H2717 0.985 . S
N2705 C2707 1.356 . S
N2705 H2710 0.984 . S
N2705 H2711 0.985 . S
C2706 C2700 1.379 . S
C2706 C2703 1.363 . S
C2706 N2704 1.356 . S
C2707 C2701 1.363 . S
C2707 C2702 1.379 . S
C2707 N2705 1.356 . S
N2708 C2700 1.356 . S
N2708 H2714 0.984 . S
N2708 H2715 0.984 . S
N2709 C2702 1.356 . S
N2709 H2712 0.984 . S
N2709 H2713 0.985 . S
H2710 N2705 0.984 . S
H2711 N2705 0.985 . S
H2712 N2709 0.984 . S
H2713 N2709 0.985 . S
H2714 N2708 0.984 . S
H2715 N2708 0.984 . S
H2716 N2704 0.984 . S
H2717 N2704 0.985 . S
C2718 C2719 1.363 . S
C2718 C2724 1.379 . S
C2718 N2726 1.356 . S
C2719 C2718 1.363 . S
C2719 C2725 1.363 . S
C2720 C2721 1.363 . S
C2720 C2725 1.379 . S
C2720 N2727 1.356 . S
C2721 C2720 1.363 . S
C2721 C2724 1.363 . S
N2722 C2724 1.356 . S
N2722 H2734 0.984 . S
N2722 H2735 0.985 . S
N2723 C2725 1.356 . S
N2723 H2728 0.984 . S
N2723 H2729 0.985 . S
C2724 C2718 1.379 . S
C2724 C2721 1.363 . S
C2724 N2722 1.356 . S
C2725 C2719 1.363 . S
C2725 C2720 1.379 . S
C2725 N2723 1.356 . S
N2726 C2718 1.356 . S
N2726 H2732 0.984 . S
N2726 H2733 0.984 . S
N2727 C2720 1.356 . S
N2727 H2730 0.984 . S
N2727 H2731 0.985 . S
H2728 N2723 0.984 . S
H2729 N2723 0.985 . S
H2730 N2727 0.984 . S
H2731 N2727 0.985 . S
H2732 N2726 0.984 . S
H2733 N2726 0.984 . S
H2734 N2722 0.984 . S
H2735 N2722 0.985 . S
C2736 C2737 1.363 . S
C2736 C2742 1.379 . S
C2736 N2744 1.356 . S
C2737 C2736 1.363 . S
C2737 C2743 1.363 . S
C2738 C2739 1.363 . S
C2738 C2743 1.379 . S
C2738 N2745 1.356 . S
C2739 C2738 1.363 . S
C2739 C2742 1.363 . S
N2740 C2742 1.356 . S
N2740 H2752 0.984 . S
N2740 H2753 0.985 . S
N2741 C2743 1.356 . S
N2741 H2746 0.984 . S
N2741 H2747 0.985 . S
C2742 C2736 1.379 . S
C2742 C2739 1.363 . S
C2742 N2740 1.356 . S
C2743 C2737 1.363 . S
C2743 C2738 1.379 . S
C2743 N2741 1.356 . S
N2744 C2736 1.356 . S
N2744 H2750 0.984 . S
N2744 H2751 0.984 . S
N2745 C2738 1.356 . S
N2745 H2748 0.984 . S
N2745 H2749 0.985 . S
H2746 N2741 0.984 . S
H2747 N2741 0.985 . S
H2748 N2745 0.984 . S
H2749 N2745 0.985 . S
H2750 N2744 0.984 . S
H2751 N2744 0.984 . S
H2752 N2740 0.984 . S
H2753 N2740 0.985 . S
C2754 C2755 1.363 . S
C2754 C2760 1.379 . S
C2754 N2762 1.356 . S
C2755 C2754 1.363 . S
C2755 C2761 1.363 . S
C2756 C2757 1.363 . S
C2756 C2761 1.379 . S
C2756 N2763 1.356 . S
C2757 C2756 1.363 . S
C2757 C2760 1.363 . S
N2758 C2760 1.356 . S
N2758 H2770 0.984 . S
N2758 H2771 0.985 . S
N2759 C2761 1.356 . S
N2759 H2764 0.984 . S
N2759 H2765 0.985 . S
C2760 C2754 1.379 . S
C2760 C2757 1.363 . S
C2760 N2758 1.356 . S
C2761 C2755 1.363 . S
C2761 C2756 1.379 . S
C2761 N2759 1.356 . S
N2762 C2754 1.356 . S
N2762 H2768 0.984 . S
N2762 H2769 0.984 . S
N2763 C2756 1.356 . S
N2763 H2766 0.984 . S
N2763 H2767 0.985 . S
H2764 N2759 0.984 . S
H2765 N2759 0.985 . S
H2766 N2763 0.984 . S
H2767 N2763 0.985 . S
H2768 N2762 0.984 . S
H2769 N2762 0.984 . S
H2770 N2758 0.984 . S
H2771 N2758 0.985 . S
C2772 C2773 1.363 . S
C2772 C2778 1.379 . S
C2772 N2780 1.356 . S
C2773 C2772 1.363 . S
C2773 C2779 1.363 . S
C2774 C2775 1.363 . S
C2774 C2779 1.379 . S
C2774 N2781 1.356 . S
C2775 C2774 1.363 . S
C2775 C2778 1.363 . S
N2776 C2778 1.356 . S
N2776 H2788 0.984 . S
N2776 H2789 0.985 . S
N2777 C2779 1.356 . S
N2777 H2782 0.984 . S
N2777 H2783 0.985 . S
C2778 C2772 1.379 . S
C2778 C2775 1.363 . S
C2778 N2776 1.356 . S
C2779 C2773 1.363 . S
C2779 C2774 1.379 . S
C2779 N2777 1.356 . S
N2780 C2772 1.356 . S
N2780 H2786 0.984 . S
N2780 H2787 0.984 . S
N2781 C2774 1.356 . S
N2781 H2784 0.984 . S
N2781 H2785 0.985 . S
H2782 N2777 0.984 . S
H2783 N2777 0.985 . S
H2784 N2781 0.984 . S
H2785 N2781 0.985 . S
H2786 N2780 0.984 . S
H2787 N2780 0.984 . S
H2788 N2776 0.984 . S
H2789 N2776 0.985 . S
C2790 C2791 1.363 . S
C2790 C2796 1.379 . S
C2790 N2798 1.356 . S
C2791 C2790 1.363 . S
C2791 C2797 1.363 . S
C2792 C2793 1.363 . S
C2792 C2797 1.379 . S
C2792 N2799 1.356 . S
C2793 C2792 1.363 . S
C2793 C2796 1.363 . S
N2794 C2796 1.356 . S
N2794 H2806 0.984 . S
N2794 H2807 0.985 . S
N2795 C2797 1.356 . S
N2795 H2800 0.984 . S
N2795 H2801 0.985 . S
C2796 C2790 1.379 . S
C2796 C2793 1.363 . S
C2796 N2794 1.356 . S
C2797 C2791 1.363 . S
C2797 C2792 1.379 . S
C2797 N2795 1.356 . S
N2798 C2790 1.356 . S
N2798 H2804 0.984 . S
N2798 H2805 0.984 . S
N2799 C2792 1.356 . S
N2799 H2802 0.984 . S
N2799 H2803 0.985 . S
H2800 N2795 0.984 . S
H2801 N2795 0.985 . S
H2802 N2799 0.984 . S
H2803 N2799 0.985 . S
H2804 N2798 0.984 . S
H2805 N2798 0.984 . S
H2806 N2794 0.984 . S
H2807 N2794 0.985 . S
C2808 C2809 1.363 . S
C2808 C2814 1.379 . S
C2808 N2816 1.356 . S
C2809 C2808 1.363 . S
C2809 C2815 1.363 . S
C2810 C2811 1.363 . S
C2810 C2815 1.379 . S
C2810 N2817 1.356 . S
C2811 C2810 1.363 . S
C2811 C2814 1.363 . S
N2812 C2814 1.356 . S
N2812 H2824 0.984 . S
N2812 H2825 0.985 . S
N2813 C2815 1.356 . S
N2813 H2818 0.984 . S
N2813 H2819 0.985 . S
C2814 C2808 1.379 . S
C2814 C2811 1.363 . S
C2814 N2812 1.356 . S
C2815 C2809 1.363 . S
C2815 C2810 1.379 . S
C2815 N2813 1.356 . S
N2816 C2808 1.356 . S
N2816 H2822 0.984 . S
N2816 H2823 0.984 . S
N2817 C2810 1.356 . S
N2817 H2820 0.984 . S
N2817 H2821 0.985 . S
H2818 N2813 0.984 . S
H2819 N2813 0.985 . S
H2820 N2817 0.984 . S
H2821 N2817 0.985 . S
H2822 N2816 0.984 . S
H2823 N2816 0.984 . S
H2824 N2812 0.984 . S
H2825 N2812 0.985 . S
C2826 C2827 1.363 . S
C2826 C2832 1.379 . S
C2826 N2834 1.356 . S
C2827 C2826 1.363 . S
C2827 C2833 1.363 . S
C2828 C2829 1.363 . S
C2828 C2833 1.379 . S
C2828 N2835 1.356 . S
C2829 C2828 1.363 . S
C2829 C2832 1.363 . S
N2830 C2832 1.356 . S
N2830 H2842 0.984 . S
N2830 H2843 0.985 . S
N2831 C2833 1.356 . S
N2831 H2836 0.984 . S
N2831 H2837 0.985 . S
C2832 C2826 1.379 . S
C2832 C2829 1.363 . S
C2832 N2830 1.356 . S
C2833 C2827 1.363 . S
C2833 C2828 1.379 . S
C2833 N2831 1.356 . S
N2834 C2826 1.356 . S
N2834 H2840 0.984 . S
N2834 H2841 0.984 . S
N2835 C2828 1.356 . S
N2835 H2838 0.984 . S
N2835 H2839 0.985 . S
H2836 N2831 0.984 . S
H2837 N2831 0.985 . S
H2838 N2835 0.984 . S
H2839 N2835 0.985 . S
H2840 N2834 0.984 . S
H2841 N2834 0.984 . S
H2842 N2830 0.984 . S
H2843 N2830 0.985 . S
C2844 C2845 1.363 . S
C2844 C2850 1.379 . S
C2844 N2852 1.356 . S
C2845 C2844 1.363 . S
C2845 C2851 1.363 . S
C2846 C2847 1.363 . S
C2846 C2851 1.379 . S
C2846 N2853 1.356 . S
C2847 C2846 1.363 . S
C2847 C2850 1.363 . S
N2848 C2850 1.356 . S
N2848 H2860 0.984 . S
N2848 H2861 0.985 . S
N2849 C2851 1.356 . S
N2849 H2854 0.984 . S
N2849 H2855 0.985 . S
C2850 C2844 1.379 . S
C2850 C2847 1.363 . S
C2850 N2848 1.356 . S
C2851 C2845 1.363 . S
C2851 C2846 1.379 . S
C2851 N2849 1.356 . S
N2852 C2844 1.356 . S
N2852 H2858 0.984 . S
N2852 H2859 0.984 . S
N2853 C2846 1.356 . S
N2853 H2856 0.984 . S
N2853 H2857 0.985 . S
H2854 N2849 0.984 . S
H2855 N2849 0.985 . S
H2856 N2853 0.984 . S
H2857 N2853 0.985 . S
H2858 N2852 0.984 . S
H2859 N2852 0.984 . S
H2860 N2848 0.984 . S
H2861 N2848 0.985 . S
C2862 C2863 1.363 . S
C2862 C2868 1.379 . S
C2862 N2870 1.356 . S
C2863 C2862 1.363 . S
C2863 C2869 1.363 . S
C2864 C2865 1.363 . S
C2864 C2869 1.379 . S
C2864 N2871 1.356 . S
C2865 C2864 1.363 . S
C2865 C2868 1.363 . S
N2866 C2868 1.356 . S
N2866 H2878 0.984 . S
N2866 H2879 0.985 . S
N2867 C2869 1.356 . S
N2867 H2872 0.984 . S
N2867 H2873 0.985 . S
C2868 C2862 1.379 . S
C2868 C2865 1.363 . S
C2868 N2866 1.356 . S
C2869 C2863 1.363 . S
C2869 C2864 1.379 . S
C2869 N2867 1.356 . S
N2870 C2862 1.356 . S
N2870 H2876 0.984 . S
N2870 H2877 0.984 . S
N2871 C2864 1.356 . S
N2871 H2874 0.984 . S
N2871 H2875 0.985 . S
H2872 N2867 0.984 . S
H2873 N2867 0.985 . S
H2874 N2871 0.984 . S
H2875 N2871 0.985 . S
H2876 N2870 0.984 . S
H2877 N2870 0.984 . S
H2878 N2866 0.984 . S
H2879 N2866 0.985 . S
C2880 C2881 1.363 . S
C2880 C2886 1.379 . S
C2880 N2888 1.356 . S
C2881 C2880 1.363 . S
C2881 C2887 1.363 . S
C2882 C2883 1.363 . S
C2882 C2887 1.379 . S
C2882 N2889 1.356 . S
C2883 C2882 1.363 . S
C2883 C2886 1.363 . S
N2884 C2886 1.356 . S
N2884 H2896 0.984 . S
N2884 H2897 0.985 . S
N2885 C2887 1.356 . S
N2885 H2890 0.984 . S
N2885 H2891 0.985 . S
C2886 C2880 1.379 . S
C2886 C2883 1.363 . S
C2886 N2884 1.356 . S
C2887 C2881 1.363 . S
C2887 C2882 1.379 . S
C2887 N2885 1.356 . S
N2888 C2880 1.356 . S
N2888 H2894 0.984 . S
N2888 H2895 0.984 . S
N2889 C2882 1.356 . S
N2889 H2892 0.984 . S
N2889 H2893 0.985 . S
H2890 N2885 0.984 . S
H2891 N2885 0.985 . S
H2892 N2889 0.984 . S
H2893 N2889 0.985 . S
H2894 N2888 0.984 . S
H2895 N2888 0.984 . S
H2896 N2884 0.984 . S
H2897 N2884 0.985 . S
C2898 C2899 1.363 . S
C2898 C2904 1.379 . S
C2898 N2906 1.356 . S
C2899 C2898 1.363 . S
C2899 C2905 1.363 . S
C2900 C2901 1.363 . S
C2900 C2905 1.379 . S
C2900 N2907 1.356 . S
C2901 C2900 1.363 . S
C2901 C2904 1.363 . S
N2902 C2904 1.356 . S
N2902 H2914 0.984 . S
N2902 H2915 0.985 . S
N2903 C2905 1.356 . S
N2903 H2908 0.984 . S
N2903 H2909 0.985 . S
C2904 C2898 1.379 . S
C2904 C2901 1.363 . S
C2904 N2902 1.356 . S
C2905 C2899 1.363 . S
C2905 C2900 1.379 . S
C2905 N2903 1.356 . S
N2906 C2898 1.356 . S
N2906 H2912 0.984 . S
N2906 H2913 0.984 . S
N2907 C2900 1.356 . S
N2907 H2910 0.984 . S
N2907 H2911 0.985 . S
H2908 N2903 0.984 . S
H2909 N2903 0.985 . S
H2910 N2907 0.984 . S
H2911 N2907 0.985 . S
H2912 N2906 0.984 . S
H2913 N2906 0.984 . S
H2914 N2902 0.984 . S
H2915 N2902 0.985 . S
C2916 C2917 1.363 . S
C2916 C2922 1.379 . S
C2916 N2924 1.356 . S
C2917 C2916 1.363 . S
C2917 C2923 1.363 . S
C2918 C2919 1.363 . S
C2918 C2923 1.379 . S
C2918 N2925 1.356 . S
C2919 C2918 1.363 . S
C2919 C2922 1.363 . S
N2920 C2922 1.356 . S
N2920 H2932 0.984 . S
N2920 H2933 0.985 . S
N2921 C2923 1.356 . S
N2921 H2926 0.984 . S
N2921 H2927 0.985 . S
C2922 C2916 1.379 . S
C2922 C2919 1.363 . S
C2922 N2920 1.356 . S
C2923 C2917 1.363 . S
C2923 C2918 1.379 . S
C2923 N2921 1.356 . S
N2924 C2916 1.356 . S
N2924 H2930 0.984 . S
N2924 H2931 0.984 . S
N2925 C2918 1.356 . S
N2925 H2928 0.984 . S
N2925 H2929 0.985 . S
H2926 N2921 0.984 . S
H2927 N2921 0.985 . S
H2928 N2925 0.984 . S
H2929 N2925 0.985 . S
H2930 N2924 0.984 . S
H2931 N2924 0.984 . S
H2932 N2920 0.984 . S
H2933 N2920 0.985 . S
C2934 C2935 1.363 . S
C2934 C2940 1.379 . S
C2934 N2942 1.356 . S
C2935 C2934 1.363 . S
C2935 C2941 1.363 . S
C2936 C2937 1.363 . S
C2936 C2941 1.379 . S
C2936 N2943 1.356 . S
C2937 C2936 1.363 . S
C2937 C2940 1.363 . S
N2938 C2940 1.356 . S
N2938 H2950 0.984 . S
N2938 H2951 0.985 . S
N2939 C2941 1.356 . S
N2939 H2944 0.984 . S
N2939 H2945 0.985 . S
C2940 C2934 1.379 . S
C2940 C2937 1.363 . S
C2940 N2938 1.356 . S
C2941 C2935 1.363 . S
C2941 C2936 1.379 . S
C2941 N2939 1.356 . S
N2942 C2934 1.356 . S
N2942 H2948 0.984 . S
N2942 H2949 0.984 . S
N2943 C2936 1.356 . S
N2943 H2946 0.984 . S
N2943 H2947 0.985 . S
H2944 N2939 0.984 . S
H2945 N2939 0.985 . S
H2946 N2943 0.984 . S
H2947 N2943 0.985 . S
H2948 N2942 0.984 . S
H2949 N2942 0.984 . S
H2950 N2938 0.984 . S
H2951 N2938 0.985 . S
C2952 C2953 1.363 . S
C2952 C2958 1.379 . S
C2952 N2960 1.356 . S
C2953 C2952 1.363 . S
C2953 C2959 1.363 . S
C2954 C2955 1.363 . S
C2954 C2959 1.379 . S
C2954 N2961 1.356 . S
C2955 C2954 1.363 . S
C2955 C2958 1.363 . S
N2956 C2958 1.356 . S
N2956 H2968 0.984 . S
N2956 H2969 0.985 . S
N2957 C2959 1.356 . S
N2957 H2962 0.984 . S
N2957 H2963 0.985 . S
C2958 C2952 1.379 . S
C2958 C2955 1.363 . S
C2958 N2956 1.356 . S
C2959 C2953 1.363 . S
C2959 C2954 1.379 . S
C2959 N2957 1.356 . S
N2960 C2952 1.356 . S
N2960 H2966 0.984 . S
N2960 H2967 0.984 . S
N2961 C2954 1.356 . S
N2961 H2964 0.984 . S
N2961 H2965 0.985 . S
H2962 N2957 0.984 . S
H2963 N2957 0.985 . S
H2964 N2961 0.984 . S
H2965 N2961 0.985 . S
H2966 N2960 0.984 . S
H2967 N2960 0.984 . S
H2968 N2956 0.984 . S
H2969 N2956 0.985 . S
C2970 C2971 1.363 . S
C2970 C2976 1.379 . S
C2970 N2978 1.356 . S
C2971 C2970 1.363 . S
C2971 C2977 1.363 . S
C2972 C2973 1.363 . S
C2972 C2977 1.379 . S
C2972 N2979 1.356 . S
C2973 C2972 1.363 . S
C2973 C2976 1.363 . S
N2974 C2976 1.356 . S
N2974 H2986 0.984 . S
N2974 H2987 0.985 . S
N2975 C2977 1.356 . S
N2975 H2980 0.984 . S
N2975 H2981 0.985 . S
C2976 C2970 1.379 . S
C2976 C2973 1.363 . S
C2976 N2974 1.356 . S
C2977 C2971 1.363 . S
C2977 C2972 1.379 . S
C2977 N2975 1.356 . S
N2978 C2970 1.356 . S
N2978 H2984 0.984 . S
N2978 H2985 0.984 . S
N2979 C2972 1.356 . S
N2979 H2982 0.984 . S
N2979 H2983 0.985 . S
H2980 N2975 0.984 . S
H2981 N2975 0.985 . S
H2982 N2979 0.984 . S
H2983 N2979 0.985 . S
H2984 N2978 0.984 . S
H2985 N2978 0.984 . S
H2986 N2974 0.984 . S
H2987 N2974 0.985 . S
C2988 C2989 1.363 . S
C2988 C2994 1.379 . S
C2988 N2996 1.356 . S
C2989 C2988 1.363 . S
C2989 C2995 1.363 . S
C2990 C2991 1.363 . S
C2990 C2995 1.379 . S
C2990 N2997 1.356 . S
C2991 C2990 1.363 . S
C2991 C2994 1.363 . S
N2992 C2994 1.356 . S
N2992 H3004 0.984 . S
N2992 H3005 0.985 . S
N2993 C2995 1.356 . S
N2993 H2998 0.984 . S
N2993 H2999 0.985 . S
C2994 C2988 1.379 . S
C2994 C2991 1.363 . S
C2994 N2992 1.356 . S
C2995 C2989 1.363 . S
C2995 C2990 1.379 . S
C2995 N2993 1.356 . S
N2996 C2988 1.356 . S
N2996 H3002 0.984 . S
N2996 H3003 0.984 . S
N2997 C2990 1.356 . S
N2997 H3000 0.984 . S
N2997 H3001 0.985 . S
H2998 N2993 0.984 . S
H2999 N2993 0.985 . S
H3000 N2997 0.984 . S
H3001 N2997 0.985 . S
H3002 N2996 0.984 . S
H3003 N2996 0.984 . S
H3004 N2992 0.984 . S
H3005 N2992 0.985 . S
C3006 C3007 1.363 . S
C3006 C3012 1.379 . S
C3006 N3014 1.356 . S
C3007 C3006 1.363 . S
C3007 C3013 1.363 . S
C3008 C3009 1.363 . S
C3008 C3013 1.379 . S
C3008 N3015 1.356 . S
C3009 C3008 1.363 . S
C3009 C3012 1.363 . S
N3010 C3012 1.356 . S
N3010 H3022 0.984 . S
N3010 H3023 0.985 . S
N3011 C3013 1.356 . S
N3011 H3016 0.984 . S
N3011 H3017 0.985 . S
C3012 C3006 1.379 . S
C3012 C3009 1.363 . S
C3012 N3010 1.356 . S
C3013 C3007 1.363 . S
C3013 C3008 1.379 . S
C3013 N3011 1.356 . S
N3014 C3006 1.356 . S
N3014 H3020 0.984 . S
N3014 H3021 0.984 . S
N3015 C3008 1.356 . S
N3015 H3018 0.984 . S
N3015 H3019 0.985 . S
H3016 N3011 0.984 . S
H3017 N3011 0.985 . S
H3018 N3015 0.984 . S
H3019 N3015 0.985 . S
H3020 N3014 0.984 . S
H3021 N3014 0.984 . S
H3022 N3010 0.984 . S
H3023 N3010 0.985 . S
C3024 C3025 1.363 . S
C3024 C3030 1.379 . S
C3024 N3032 1.356 . S
C3025 C3024 1.363 . S
C3025 C3031 1.363 . S
C3026 C3027 1.363 . S
C3026 C3031 1.379 . S
C3026 N3033 1.356 . S
C3027 C3026 1.363 . S
C3027 C3030 1.363 . S
N3028 C3030 1.356 . S
N3028 H3040 0.984 . S
N3028 H3041 0.985 . S
N3029 C3031 1.356 . S
N3029 H3034 0.984 . S
N3029 H3035 0.985 . S
C3030 C3024 1.379 . S
C3030 C3027 1.363 . S
C3030 N3028 1.356 . S
C3031 C3025 1.363 . S
C3031 C3026 1.379 . S
C3031 N3029 1.356 . S
N3032 C3024 1.356 . S
N3032 H3038 0.984 . S
N3032 H3039 0.984 . S
N3033 C3026 1.356 . S
N3033 H3036 0.984 . S
N3033 H3037 0.985 . S
H3034 N3029 0.984 . S
H3035 N3029 0.985 . S
H3036 N3033 0.984 . S
H3037 N3033 0.985 . S
H3038 N3032 0.984 . S
H3039 N3032 0.984 . S
H3040 N3028 0.984 . S
H3041 N3028 0.985 . S
C3042 C3043 1.363 . S
C3042 C3048 1.379 . S
C3042 N3050 1.356 . S
C3043 C3042 1.363 . S
C3043 C3049 1.363 . S
C3044 C3045 1.363 . S
C3044 C3049 1.379 . S
C3044 N3051 1.356 . S
C3045 C3044 1.363 . S
C3045 C3048 1.363 . S
N3046 C3048 1.356 . S
N3046 H3058 0.984 . S
N3046 H3059 0.985 . S
N3047 C3049 1.356 . S
N3047 H3052 0.984 . S
N3047 H3053 0.985 . S
C3048 C3042 1.379 . S
C3048 C3045 1.363 . S
C3048 N3046 1.356 . S
C3049 C3043 1.363 . S
C3049 C3044 1.379 . S
C3049 N3047 1.356 . S
N3050 C3042 1.356 . S
N3050 H3056 0.984 . S
N3050 H3057 0.984 . S
N3051 C3044 1.356 . S
N3051 H3054 0.984 . S
N3051 H3055 0.985 . S
H3052 N3047 0.984 . S
H3053 N3047 0.985 . S
H3054 N3051 0.984 . S
H3055 N3051 0.985 . S
H3056 N3050 0.984 . S
H3057 N3050 0.984 . S
H3058 N3046 0.984 . S
H3059 N3046 0.985 . S
C3060 C3061 1.363 . S
C3060 C3066 1.379 . S
C3060 N3068 1.356 . S
C3061 C3060 1.363 . S
C3061 C3067 1.363 . S
C3062 C3063 1.363 . S
C3062 C3067 1.379 . S
C3062 N3069 1.356 . S
C3063 C3062 1.363 . S
C3063 C3066 1.363 . S
N3064 C3066 1.356 . S
N3064 H3076 0.984 . S
N3064 H3077 0.985 . S
N3065 C3067 1.356 . S
N3065 H3070 0.984 . S
N3065 H3071 0.985 . S
C3066 C3060 1.379 . S
C3066 C3063 1.363 . S
C3066 N3064 1.356 . S
C3067 C3061 1.363 . S
C3067 C3062 1.379 . S
C3067 N3065 1.356 . S
N3068 C3060 1.356 . S
N3068 H3074 0.984 . S
N3068 H3075 0.984 . S
N3069 C3062 1.356 . S
N3069 H3072 0.984 . S
N3069 H3073 0.985 . S
H3070 N3065 0.984 . S
H3071 N3065 0.985 . S
H3072 N3069 0.984 . S
H3073 N3069 0.985 . S
H3074 N3068 0.984 . S
H3075 N3068 0.984 . S
H3076 N3064 0.984 . S
H3077 N3064 0.985 . S
C3078 C3079 1.363 . S
C3078 C3084 1.379 . S
C3078 N3086 1.356 . S
C3079 C3078 1.363 . S
C3079 C3085 1.363 . S
C3080 C3081 1.363 . S
C3080 C3085 1.379 . S
C3080 N3087 1.356 . S
C3081 C3080 1.363 . S
C3081 C3084 1.363 . S
N3082 C3084 1.356 . S
N3082 H3094 0.984 . S
N3082 H3095 0.985 . S
N3083 C3085 1.356 . S
N3083 H3088 0.984 . S
N3083 H3089 0.985 . S
C3084 C3078 1.379 . S
C3084 C3081 1.363 . S
C3084 N3082 1.356 . S
C3085 C3079 1.363 . S
C3085 C3080 1.379 . S
C3085 N3083 1.356 . S
N3086 C3078 1.356 . S
N3086 H3092 0.984 . S
N3086 H3093 0.984 . S
N3087 C3080 1.356 . S
N3087 H3090 0.984 . S
N3087 H3091 0.985 . S
H3088 N3083 0.984 . S
H3089 N3083 0.985 . S
H3090 N3087 0.984 . S
H3091 N3087 0.985 . S
H3092 N3086 0.984 . S
H3093 N3086 0.984 . S
H3094 N3082 0.984 . S
H3095 N3082 0.985 . S
C3096 C3097 1.363 . S
C3096 C3102 1.379 . S
C3096 N3104 1.356 . S
C3097 C3096 1.363 . S
C3097 C3103 1.363 . S
C3098 C3099 1.363 . S
C3098 C3103 1.379 . S
C3098 N3105 1.356 . S
C3099 C3098 1.363 . S
C3099 C3102 1.363 . S
N3100 C3102 1.356 . S
N3100 H3112 0.984 . S
N3100 H3113 0.985 . S
N3101 C3103 1.356 . S
N3101 H3106 0.984 . S
N3101 H3107 0.985 . S
C3102 C3096 1.379 . S
C3102 C3099 1.363 . S
C3102 N3100 1.356 . S
C3103 C3097 1.363 . S
C3103 C3098 1.379 . S
C3103 N3101 1.356 . S
N3104 C3096 1.356 . S
N3104 H3110 0.984 . S
N3104 H3111 0.984 . S
N3105 C3098 1.356 . S
N3105 H3108 0.984 . S
N3105 H3109 0.985 . S
H3106 N3101 0.984 . S
H3107 N3101 0.985 . S
H3108 N3105 0.984 . S
H3109 N3105 0.985 . S
H3110 N3104 0.984 . S
H3111 N3104 0.984 . S
H3112 N3100 0.984 . S
H3113 N3100 0.985 . S
C3114 C3115 1.363 . S
C3114 C3120 1.379 . S
C3114 N3122 1.356 . S
C3115 C3114 1.363 . S
C3115 C3121 1.363 . S
C3116 C3117 1.363 . S
C3116 C3121 1.379 . S
C3116 N3123 1.356 . S
C3117 C3116 1.363 . S
C3117 C3120 1.363 . S
N3118 C3120 1.356 . S
N3118 H3130 0.984 . S
N3118 H3131 0.985 . S
N3119 C3121 1.356 . S
N3119 H3124 0.984 . S
N3119 H3125 0.985 . S
C3120 C3114 1.379 . S
C3120 C3117 1.363 . S
C3120 N3118 1.356 . S
C3121 C3115 1.363 . S
C3121 C3116 1.379 . S
C3121 N3119 1.356 . S
N3122 C3114 1.356 . S
N3122 H3128 0.984 . S
N3122 H3129 0.984 . S
N3123 C3116 1.356 . S
N3123 H3126 0.984 . S
N3123 H3127 0.985 . S
H3124 N3119 0.984 . S
H3125 N3119 0.985 . S
H3126 N3123 0.984 . S
H3127 N3123 0.985 . S
H3128 N3122 0.984 . S
H3129 N3122 0.984 . S
H3130 N3118 0.984 . S
H3131 N3118 0.985 . S
C3132 C3133 1.363 . S
C3132 C3138 1.379 . S
C3132 N3140 1.356 . S
C3133 C3132 1.363 . S
C3133 C3139 1.363 . S
C3134 C3135 1.363 . S
C3134 C3139 1.379 . S
C3134 N3141 1.356 . S
C3135 C3134 1.363 . S
C3135 C3138 1.363 . S
N3136 C3138 1.356 . S
N3136 H3148 0.984 . S
N3136 H3149 0.985 . S
N3137 C3139 1.356 . S
N3137 H3142 0.984 . S
N3137 H3143 0.985 . S
C3138 C3132 1.379 . S
C3138 C3135 1.363 . S
C3138 N3136 1.356 . S
C3139 C3133 1.363 . S
C3139 C3134 1.379 . S
C3139 N3137 1.356 . S
N3140 C3132 1.356 . S
N3140 H3146 0.984 . S
N3140 H3147 0.984 . S
N3141 C3134 1.356 . S
N3141 H3144 0.984 . S
N3141 H3145 0.985 . S
H3142 N3137 0.984 . S
H3143 N3137 0.985 . S
H3144 N3141 0.984 . S
H3145 N3141 0.985 . S
H3146 N3140 0.984 . S
H3147 N3140 0.984 . S
H3148 N3136 0.984 . S
H3149 N3136 0.985 . S
C3150 C3151 1.363 . S
C3150 C3156 1.379 . S
C3150 N3158 1.356 . S
C3151 C3150 1.363 . S
C3151 C3157 1.363 . S
C3152 C3153 1.363 . S
C3152 C3157 1.379 . S
C3152 N3159 1.356 . S
C3153 C3152 1.363 . S
C3153 C3156 1.363 . S
N3154 C3156 1.356 . S
N3154 H3166 0.984 . S
N3154 H3167 0.985 . S
N3155 C3157 1.356 . S
N3155 H3160 0.984 . S
N3155 H3161 0.985 . S
C3156 C3150 1.379 . S
C3156 C3153 1.363 . S
C3156 N3154 1.356 . S
C3157 C3151 1.363 . S
C3157 C3152 1.379 . S
C3157 N3155 1.356 . S
N3158 C3150 1.356 . S
N3158 H3164 0.984 . S
N3158 H3165 0.984 . S
N3159 C3152 1.356 . S
N3159 H3162 0.984 . S
N3159 H3163 0.985 . S
H3160 N3155 0.984 . S
H3161 N3155 0.985 . S
H3162 N3159 0.984 . S
H3163 N3159 0.985 . S
H3164 N3158 0.984 . S
H3165 N3158 0.984 . S
H3166 N3154 0.984 . S
H3167 N3154 0.985 . S
C3168 C3169 1.363 . S
C3168 C3174 1.379 . S
C3168 N3176 1.356 . S
C3169 C3168 1.363 . S
C3169 C3175 1.363 . S
C3170 C3171 1.363 . S
C3170 C3175 1.379 . S
C3170 N3177 1.356 . S
C3171 C3170 1.363 . S
C3171 C3174 1.363 . S
N3172 C3174 1.356 . S
N3172 H3184 0.984 . S
N3172 H3185 0.985 . S
N3173 C3175 1.356 . S
N3173 H3178 0.984 . S
N3173 H3179 0.985 . S
C3174 C3168 1.379 . S
C3174 C3171 1.363 . S
C3174 N3172 1.356 . S
C3175 C3169 1.363 . S
C3175 C3170 1.379 . S
C3175 N3173 1.356 . S
N3176 C3168 1.356 . S
N3176 H3182 0.984 . S
N3176 H3183 0.984 . S
N3177 C3170 1.356 . S
N3177 H3180 0.984 . S
N3177 H3181 0.985 . S
H3178 N3173 0.984 . S
H3179 N3173 0.985 . S
H3180 N3177 0.984 . S
H3181 N3177 0.985 . S
H3182 N3176 0.984 . S
H3183 N3176 0.984 . S
H3184 N3172 0.984 . S
H3185 N3172 0.985 . S
C3186 C3187 1.363 . S
C3186 C3192 1.379 . S
C3186 N3194 1.356 . S
C3187 C3186 1.363 . S
C3187 C3193 1.363 . S
C3188 C3189 1.363 . S
C3188 C3193 1.379 . S
C3188 N3195 1.356 . S
C3189 C3188 1.363 . S
C3189 C3192 1.363 . S
N3190 C3192 1.356 . S
N3190 H3202 0.984 . S
N3190 H3203 0.985 . S
N3191 C3193 1.356 . S
N3191 H3196 0.984 . S
N3191 H3197 0.985 . S
C3192 C3186 1.379 . S
C3192 C3189 1.363 . S
C3192 N3190 1.356 . S
C3193 C3187 1.363 . S
C3193 C3188 1.379 . S
C3193 N3191 1.356 . S
N3194 C3186 1.356 . S
N3194 H3200 0.984 . S
N3194 H3201 0.984 . S
N3195 C3188 1.356 . S
N3195 H3198 0.984 . S
N3195 H3199 0.985 . S
H3196 N3191 0.984 . S
H3197 N3191 0.985 . S
H3198 N3195 0.984 . S
H3199 N3195 0.985 . S
H3200 N3194 0.984 . S
H3201 N3194 0.984 . S
H3202 N3190 0.984 . S
H3203 N3190 0.985 . S
C3204 C3205 1.363 . S
C3204 C3210 1.379 . S
C3204 N3212 1.356 . S
C3205 C3204 1.363 . S
C3205 C3211 1.363 . S
C3206 C3207 1.363 . S
C3206 C3211 1.379 . S
C3206 N3213 1.356 . S
C3207 C3206 1.363 . S
C3207 C3210 1.363 . S
N3208 C3210 1.356 . S
N3208 H3220 0.984 . S
N3208 H3221 0.985 . S
N3209 C3211 1.356 . S
N3209 H3214 0.984 . S
N3209 H3215 0.985 . S
C3210 C3204 1.379 . S
C3210 C3207 1.363 . S
C3210 N3208 1.356 . S
C3211 C3205 1.363 . S
C3211 C3206 1.379 . S
C3211 N3209 1.356 . S
N3212 C3204 1.356 . S
N3212 H3218 0.984 . S
N3212 H3219 0.984 . S
N3213 C3206 1.356 . S
N3213 H3216 0.984 . S
N3213 H3217 0.985 . S
H3214 N3209 0.984 . S
H3215 N3209 0.985 . S
H3216 N3213 0.984 . S
H3217 N3213 0.985 . S
H3218 N3212 0.984 . S
H3219 N3212 0.984 . S
H3220 N3208 0.984 . S
H3221 N3208 0.985 . S
C3222 C3223 1.363 . S
C3222 C3228 1.379 . S
C3222 N3230 1.356 . S
C3223 C3222 1.363 . S
C3223 C3229 1.363 . S
C3224 C3225 1.363 . S
C3224 C3229 1.379 . S
C3224 N3231 1.356 . S
C3225 C3224 1.363 . S
C3225 C3228 1.363 . S
N3226 C3228 1.356 . S
N3226 H3238 0.984 . S
N3226 H3239 0.985 . S
N3227 C3229 1.356 . S
N3227 H3232 0.984 . S
N3227 H3233 0.985 . S
C3228 C3222 1.379 . S
C3228 C3225 1.363 . S
C3228 N3226 1.356 . S
C3229 C3223 1.363 . S
C3229 C3224 1.379 . S
C3229 N3227 1.356 . S
N3230 C3222 1.356 . S
N3230 H3236 0.984 . S
N3230 H3237 0.984 . S
N3231 C3224 1.356 . S
N3231 H3234 0.984 . S
N3231 H3235 0.985 . S
H3232 N3227 0.984 . S
H3233 N3227 0.985 . S
H3234 N3231 0.984 . S
H3235 N3231 0.985 . S
H3236 N3230 0.984 . S
H3237 N3230 0.984 . S
H3238 N3226 0.984 . S
H3239 N3226 0.985 . S
C3240 C3241 1.363 . S
C3240 C3246 1.379 . S
C3240 N3248 1.356 . S
C3241 C3240 1.363 . S
C3241 C3247 1.363 . S
C3242 C3243 1.363 . S
C3242 C3247 1.379 . S
C3242 N3249 1.356 . S
C3243 C3242 1.363 . S
C3243 C3246 1.363 . S
N3244 C3246 1.356 . S
N3244 H3256 0.984 . S
N3244 H3257 0.985 . S
N3245 C3247 1.356 . S
N3245 H3250 0.984 . S
N3245 H3251 0.985 . S
C3246 C3240 1.379 . S
C3246 C3243 1.363 . S
C3246 N3244 1.356 . S
C3247 C3241 1.363 . S
C3247 C3242 1.379 . S
C3247 N3245 1.356 . S
N3248 C3240 1.356 . S
N3248 H3254 0.984 . S
N3248 H3255 0.984 . S
N3249 C3242 1.356 . S
N3249 H3252 0.984 . S
N3249 H3253 0.985 . S
H3250 N3245 0.984 . S
H3251 N3245 0.985 . S
H3252 N3249 0.984 . S
H3253 N3249 0.985 . S
H3254 N3248 0.984 . S
H3255 N3248 0.984 . S
H3256 N3244 0.984 . S
H3257 N3244 0.985 . S
C3258 C3259 1.363 . S
C3258 C3264 1.379 . S
C3258 N3266 1.356 . S
C3259 C3258 1.363 . S
C3259 C3265 1.363 . S
C3260 C3261 1.363 . S
C3260 C3265 1.379 . S
C3260 N3267 1.356 . S
C3261 C3260 1.363 . S
C3261 C3264 1.363 . S
N3262 C3264 1.356 . S
N3262 H3274 0.984 . S
N3262 H3275 0.985 . S
N3263 C3265 1.356 . S
N3263 H3268 0.984 . S
N3263 H3269 0.985 . S
C3264 C3258 1.379 . S
C3264 C3261 1.363 . S
C3264 N3262 1.356 . S
C3265 C3259 1.363 . S
C3265 C3260 1.379 . S
C3265 N3263 1.356 . S
N3266 C3258 1.356 . S
N3266 H3272 0.984 . S
N3266 H3273 0.984 . S
N3267 C3260 1.356 . S
N3267 H3270 0.984 . S
N3267 H3271 0.985 . S
H3268 N3263 0.984 . S
H3269 N3263 0.985 . S
H3270 N3267 0.984 . S
H3271 N3267 0.985 . S
H3272 N3266 0.984 . S
H3273 N3266 0.984 . S
H3274 N3262 0.984 . S
H3275 N3262 0.985 . S
C3276 C3277 1.363 . S
C3276 C3282 1.379 . S
C3276 N3284 1.356 . S
C3277 C3276 1.363 . S
C3277 C3283 1.363 . S
C3278 C3279 1.363 . S
C3278 C3283 1.379 . S
C3278 N3285 1.356 . S
C3279 C3278 1.363 . S
C3279 C3282 1.363 . S
N3280 C3282 1.356 . S
N3280 H3292 0.984 . S
N3280 H3293 0.985 . S
N3281 C3283 1.356 . S
N3281 H3286 0.984 . S
N3281 H3287 0.985 . S
C3282 C3276 1.379 . S
C3282 C3279 1.363 . S
C3282 N3280 1.356 . S
C3283 C3277 1.363 . S
C3283 C3278 1.379 . S
C3283 N3281 1.356 . S
N3284 C3276 1.356 . S
N3284 H3290 0.984 . S
N3284 H3291 0.984 . S
N3285 C3278 1.356 . S
N3285 H3288 0.984 . S
N3285 H3289 0.985 . S
H3286 N3281 0.984 . S
H3287 N3281 0.985 . S
H3288 N3285 0.984 . S
H3289 N3285 0.985 . S
H3290 N3284 0.984 . S
H3291 N3284 0.984 . S
H3292 N3280 0.984 . S
H3293 N3280 0.985 . S
C3294 C3295 1.363 . S
C3294 C3300 1.379 . S
C3294 N3302 1.356 . S
C3295 C3294 1.363 . S
C3295 C3301 1.363 . S
C3296 C3297 1.363 . S
C3296 C3301 1.379 . S
C3296 N3303 1.356 . S
C3297 C3296 1.363 . S
C3297 C3300 1.363 . S
N3298 C3300 1.356 . S
N3298 H3310 0.984 . S
N3298 H3311 0.985 . S
N3299 C3301 1.356 . S
N3299 H3304 0.984 . S
N3299 H3305 0.985 . S
C3300 C3294 1.379 . S
C3300 C3297 1.363 . S
C3300 N3298 1.356 . S
C3301 C3295 1.363 . S
C3301 C3296 1.379 . S
C3301 N3299 1.356 . S
N3302 C3294 1.356 . S
N3302 H3308 0.984 . S
N3302 H3309 0.984 . S
N3303 C3296 1.356 . S
N3303 H3306 0.984 . S
N3303 H3307 0.985 . S
H3304 N3299 0.984 . S
H3305 N3299 0.985 . S
H3306 N3303 0.984 . S
H3307 N3303 0.985 . S
H3308 N3302 0.984 . S
H3309 N3302 0.984 . S
H3310 N3298 0.984 . S
H3311 N3298 0.985 . S
C3312 C3313 1.363 . S
C3312 C3318 1.379 . S
C3312 N3320 1.356 . S
C3313 C3312 1.363 . S
C3313 C3319 1.363 . S
C3314 C3315 1.363 . S
C3314 C3319 1.379 . S
C3314 N3321 1.356 . S
C3315 C3314 1.363 . S
C3315 C3318 1.363 . S
N3316 C3318 1.356 . S
N3316 H3328 0.984 . S
N3316 H3329 0.985 . S
N3317 C3319 1.356 . S
N3317 H3322 0.984 . S
N3317 H3323 0.985 . S
C3318 C3312 1.379 . S
C3318 C3315 1.363 . S
C3318 N3316 1.356 . S
C3319 C3313 1.363 . S
C3319 C3314 1.379 . S
C3319 N3317 1.356 . S
N3320 C3312 1.356 . S
N3320 H3326 0.984 . S
N3320 H3327 0.984 . S
N3321 C3314 1.356 . S
N3321 H3324 0.984 . S
N3321 H3325 0.985 . S
H3322 N3317 0.984 . S
H3323 N3317 0.985 . S
H3324 N3321 0.984 . S
H3325 N3321 0.985 . S
H3326 N3320 0.984 . S
H3327 N3320 0.984 . S
H3328 N3316 0.984 . S
H3329 N3316 0.985 . S
C3330 C3331 1.363 . S
C3330 C3336 1.379 . S
C3330 N3338 1.356 . S
C3331 C3330 1.363 . S
C3331 C3337 1.363 . S
C3332 C3333 1.363 . S
C3332 C3337 1.379 . S
C3332 N3339 1.356 . S
C3333 C3332 1.363 . S
C3333 C3336 1.363 . S
N3334 C3336 1.356 . S
N3334 H3346 0.984 . S
N3334 H3347 0.985 . S
N3335 C3337 1.356 . S
N3335 H3340 0.984 . S
N3335 H3341 0.985 . S
C3336 C3330 1.379 . S
C3336 C3333 1.363 . S
C3336 N3334 1.356 . S
C3337 C3331 1.363 . S
C3337 C3332 1.379 . S
C3337 N3335 1.356 . S
N3338 C3330 1.356 . S
N3338 H3344 0.984 . S
N3338 H3345 0.984 . S
N3339 C3332 1.356 . S
N3339 H3342 0.984 . S
N3339 H3343 0.985 . S
H3340 N3335 0.984 . S
H3341 N3335 0.985 . S
H3342 N3339 0.984 . S
H3343 N3339 0.985 . S
H3344 N3338 0.984 . S
H3345 N3338 0.984 . S
H3346 N3334 0.984 . S
H3347 N3334 0.985 . S
C3348 C3349 1.363 . S
C3348 C3354 1.379 . S
C3348 N3356 1.356 . S
C3349 C3348 1.363 . S
C3349 C3355 1.363 . S
C3350 C3351 1.363 . S
C3350 C3355 1.379 . S
C3350 N3357 1.356 . S
C3351 C3350 1.363 . S
C3351 C3354 1.363 . S
N3352 C3354 1.356 . S
N3352 H3364 0.984 . S
N3352 H3365 0.985 . S
N3353 C3355 1.356 . S
N3353 H3358 0.984 . S
N3353 H3359 0.985 . S
C3354 C3348 1.379 . S
C3354 C3351 1.363 . S
C3354 N3352 1.356 . S
C3355 C3349 1.363 . S
C3355 C3350 1.379 . S
C3355 N3353 1.356 . S
N3356 C3348 1.356 . S
N3356 H3362 0.984 . S
N3356 H3363 0.984 . S
N3357 C3350 1.356 . S
N3357 H3360 0.984 . S
N3357 H3361 0.985 . S
H3358 N3353 0.984 . S
H3359 N3353 0.985 . S
H3360 N3357 0.984 . S
H3361 N3357 0.985 . S
H3362 N3356 0.984 . S
H3363 N3356 0.984 . S
H3364 N3352 0.984 . S
H3365 N3352 0.985 . S
C3366 C3367 1.363 . S
C3366 C3372 1.379 . S
C3366 N3374 1.356 . S
C3367 C3366 1.363 . S
C3367 C3373 1.363 . S
C3368 C3369 1.363 . S
C3368 C3373 1.379 . S
C3368 N3375 1.356 . S
C3369 C3368 1.363 . S
C3369 C3372 1.363 . S
N3370 C3372 1.356 . S
N3370 H3382 0.984 . S
N3370 H3383 0.985 . S
N3371 C3373 1.356 . S
N3371 H3376 0.984 . S
N3371 H3377 0.985 . S
C3372 C3366 1.379 . S
C3372 C3369 1.363 . S
C3372 N3370 1.356 . S
C3373 C3367 1.363 . S
C3373 C3368 1.379 . S
C3373 N3371 1.356 . S
N3374 C3366 1.356 . S
N3374 H3380 0.984 . S
N3374 H3381 0.984 . S
N3375 C3368 1.356 . S
N3375 H3378 0.984 . S
N3375 H3379 0.985 . S
H3376 N3371 0.984 . S
H3377 N3371 0.985 . S
H3378 N3375 0.984 . S
H3379 N3375 0.985 . S
H3380 N3374 0.984 . S
H3381 N3374 0.984 . S
H3382 N3370 0.984 . S
H3383 N3370 0.985 . S
C3384 C3385 1.363 . S
C3384 C3390 1.379 . S
C3384 N3392 1.356 . S
C3385 C3384 1.363 . S
C3385 C3391 1.363 . S
C3386 C3387 1.363 . S
C3386 C3391 1.379 . S
C3386 N3393 1.356 . S
C3387 C3386 1.363 . S
C3387 C3390 1.363 . S
N3388 C3390 1.356 . S
N3388 H3400 0.984 . S
N3388 H3401 0.985 . S
N3389 C3391 1.356 . S
N3389 H3394 0.984 . S
N3389 H3395 0.985 . S
C3390 C3384 1.379 . S
C3390 C3387 1.363 . S
C3390 N3388 1.356 . S
C3391 C3385 1.363 . S
C3391 C3386 1.379 . S
C3391 N3389 1.356 . S
N3392 C3384 1.356 . S
N3392 H3398 0.984 . S
N3392 H3399 0.984 . S
N3393 C3386 1.356 . S
N3393 H3396 0.984 . S
N3393 H3397 0.985 . S
H3394 N3389 0.984 . S
H3395 N3389 0.985 . S
H3396 N3393 0.984 . S
H3397 N3393 0.985 . S
H3398 N3392 0.984 . S
H3399 N3392 0.984 . S
H3400 N3388 0.984 . S
H3401 N3388 0.985 . S
C3402 C3403 1.363 . S
C3402 C3408 1.379 . S
C3402 N3410 1.356 . S
C3403 C3402 1.363 . S
C3403 C3409 1.363 . S
C3404 C3405 1.363 . S
C3404 C3409 1.379 . S
C3404 N3411 1.356 . S
C3405 C3404 1.363 . S
C3405 C3408 1.363 . S
N3406 C3408 1.356 . S
N3406 H3418 0.984 . S
N3406 H3419 0.985 . S
N3407 C3409 1.356 . S
N3407 H3412 0.984 . S
N3407 H3413 0.985 . S
C3408 C3402 1.379 . S
C3408 C3405 1.363 . S
C3408 N3406 1.356 . S
C3409 C3403 1.363 . S
C3409 C3404 1.379 . S
C3409 N3407 1.356 . S
N3410 C3402 1.356 . S
N3410 H3416 0.984 . S
N3410 H3417 0.984 . S
N3411 C3404 1.356 . S
N3411 H3414 0.984 . S
N3411 H3415 0.985 . S
H3412 N3407 0.984 . S
H3413 N3407 0.985 . S
H3414 N3411 0.984 . S
H3415 N3411 0.985 . S
H3416 N3410 0.984 . S
H3417 N3410 0.984 . S
H3418 N3406 0.984 . S
H3419 N3406 0.985 . S
C3420 C3421 1.363 . S
C3420 C3426 1.379 . S
C3420 N3428 1.356 . S
C3421 C3420 1.363 . S
C3421 C3427 1.363 . S
C3422 C3423 1.363 . S
C3422 C3427 1.379 . S
C3422 N3429 1.356 . S
C3423 C3422 1.363 . S
C3423 C3426 1.363 . S
N3424 C3426 1.356 . S
N3424 H3436 0.984 . S
N3424 H3437 0.985 . S
N3425 C3427 1.356 . S
N3425 H3430 0.984 . S
N3425 H3431 0.985 . S
C3426 C3420 1.379 . S
C3426 C3423 1.363 . S
C3426 N3424 1.356 . S
C3427 C3421 1.363 . S
C3427 C3422 1.379 . S
C3427 N3425 1.356 . S
N3428 C3420 1.356 . S
N3428 H3434 0.984 . S
N3428 H3435 0.984 . S
N3429 C3422 1.356 . S
N3429 H3432 0.984 . S
N3429 H3433 0.985 . S
H3430 N3425 0.984 . S
H3431 N3425 0.985 . S
H3432 N3429 0.984 . S
H3433 N3429 0.985 . S
H3434 N3428 0.984 . S
H3435 N3428 0.984 . S
H3436 N3424 0.984 . S
H3437 N3424 0.985 . S
C3438 C3439 1.363 . S
C3438 C3444 1.379 . S
C3438 N3446 1.356 . S
C3439 C3438 1.363 . S
C3439 C3445 1.363 . S
C3440 C3441 1.363 . S
C3440 C3445 1.379 . S
C3440 N3447 1.356 . S
C3441 C3440 1.363 . S
C3441 C3444 1.363 . S
N3442 C3444 1.356 . S
N3442 H3454 0.984 . S
N3442 H3455 0.985 . S
N3443 C3445 1.356 . S
N3443 H3448 0.984 . S
N3443 H3449 0.985 . S
C3444 C3438 1.379 . S
C3444 C3441 1.363 . S
C3444 N3442 1.356 . S
C3445 C3439 1.363 . S
C3445 C3440 1.379 . S
C3445 N3443 1.356 . S
N3446 C3438 1.356 . S
N3446 H3452 0.984 . S
N3446 H3453 0.984 . S
N3447 C3440 1.356 . S
N3447 H3450 0.984 . S
N3447 H3451 0.985 . S
H3448 N3443 0.984 . S
H3449 N3443 0.985 . S
H3450 N3447 0.984 . S
H3451 N3447 0.985 . S
H3452 N3446 0.984 . S
H3453 N3446 0.984 . S
H3454 N3442 0.984 . S
H3455 N3442 0.985 . S
C3456 C3457 1.363 . S
C3456 C3462 1.379 . S
C3456 N3464 1.356 . S
C3457 C3456 1.363 . S
C3457 C3463 1.363 . S
C3458 C3459 1.363 . S
C3458 C3463 1.379 . S
C3458 N3465 1.356 . S
C3459 C3458 1.363 . S
C3459 C3462 1.363 . S
N3460 C3462 1.356 . S
N3460 H3472 0.984 . S
N3460 H3473 0.985 . S
N3461 C3463 1.356 . S
N3461 H3466 0.984 . S
N3461 H3467 0.985 . S
C3462 C3456 1.379 . S
C3462 C3459 1.363 . S
C3462 N3460 1.356 . S
C3463 C3457 1.363 . S
C3463 C3458 1.379 . S
C3463 N3461 1.356 . S
N3464 C3456 1.356 . S
N3464 H3470 0.984 . S
N3464 H3471 0.984 . S
N3465 C3458 1.356 . S
N3465 H3468 0.984 . S
N3465 H3469 0.985 . S
H3466 N3461 0.984 . S
H3467 N3461 0.985 . S
H3468 N3465 0.984 . S
H3469 N3465 0.985 . S
H3470 N3464 0.984 . S
H3471 N3464 0.984 . S
H3472 N3460 0.984 . S
H3473 N3460 0.985 . S
C3474 C3475 1.363 . S
C3474 C3480 1.379 . S
C3474 N3482 1.356 . S
C3475 C3474 1.363 . S
C3475 C3481 1.363 . S
C3476 C3477 1.363 . S
C3476 C3481 1.379 . S
C3476 N3483 1.356 . S
C3477 C3476 1.363 . S
C3477 C3480 1.363 . S
N3478 C3480 1.356 . S
N3478 H3490 0.984 . S
N3478 H3491 0.985 . S
N3479 C3481 1.356 . S
N3479 H3484 0.984 . S
N3479 H3485 0.985 . S
C3480 C3474 1.379 . S
C3480 C3477 1.363 . S
C3480 N3478 1.356 . S
C3481 C3475 1.363 . S
C3481 C3476 1.379 . S
C3481 N3479 1.356 . S
N3482 C3474 1.356 . S
N3482 H3488 0.984 . S
N3482 H3489 0.984 . S
N3483 C3476 1.356 . S
N3483 H3486 0.984 . S
N3483 H3487 0.985 . S
H3484 N3479 0.984 . S
H3485 N3479 0.985 . S
H3486 N3483 0.984 . S
H3487 N3483 0.985 . S
H3488 N3482 0.984 . S
H3489 N3482 0.984 . S
H3490 N3478 0.984 . S
H3491 N3478 0.985 . S
C3492 C3493 1.363 . S
C3492 C3498 1.379 . S
C3492 N3500 1.356 . S
C3493 C3492 1.363 . S
C3493 C3499 1.363 . S
C3494 C3495 1.363 . S
C3494 C3499 1.379 . S
C3494 N3501 1.356 . S
C3495 C3494 1.363 . S
C3495 C3498 1.363 . S
N3496 C3498 1.356 . S
N3496 H3508 0.984 . S
N3496 H3509 0.985 . S
N3497 C3499 1.356 . S
N3497 H3502 0.984 . S
N3497 H3503 0.985 . S
C3498 C3492 1.379 . S
C3498 C3495 1.363 . S
C3498 N3496 1.356 . S
C3499 C3493 1.363 . S
C3499 C3494 1.379 . S
C3499 N3497 1.356 . S
N3500 C3492 1.356 . S
N3500 H3506 0.984 . S
N3500 H3507 0.984 . S
N3501 C3494 1.356 . S
N3501 H3504 0.984 . S
N3501 H3505 0.985 . S
H3502 N3497 0.984 . S
H3503 N3497 0.985 . S
H3504 N3501 0.984 . S
H3505 N3501 0.985 . S
H3506 N3500 0.984 . S
H3507 N3500 0.984 . S
H3508 N3496 0.984 . S
H3509 N3496 0.985 . S
C3510 C3511 1.363 . S
C3510 C3516 1.379 . S
C3510 N3518 1.356 . S
C3511 C3510 1.363 . S
C3511 C3517 1.363 . S
C3512 C3513 1.363 . S
C3512 C3517 1.379 . S
C3512 N3519 1.356 . S
C3513 C3512 1.363 . S
C3513 C3516 1.363 . S
N3514 C3516 1.356 . S
N3514 H3526 0.984 . S
N3514 H3527 0.985 . S
N3515 C3517 1.356 . S
N3515 H3520 0.984 . S
N3515 H3521 0.985 . S
C3516 C3510 1.379 . S
C3516 C3513 1.363 . S
C3516 N3514 1.356 . S
C3517 C3511 1.363 . S
C3517 C3512 1.379 . S
C3517 N3515 1.356 . S
N3518 C3510 1.356 . S
N3518 H3524 0.984 . S
N3518 H3525 0.984 . S
N3519 C3512 1.356 . S
N3519 H3522 0.984 . S
N3519 H3523 0.985 . S
H3520 N3515 0.984 . S
H3521 N3515 0.985 . S
H3522 N3519 0.984 . S
H3523 N3519 0.985 . S
H3524 N3518 0.984 . S
H3525 N3518 0.984 . S
H3526 N3514 0.984 . S
H3527 N3514 0.985 . S
C3528 C3529 1.363 . S
C3528 C3534 1.379 . S
C3528 N3536 1.356 . S
C3529 C3528 1.363 . S
C3529 C3535 1.363 . S
C3530 C3531 1.363 . S
C3530 C3535 1.379 . S
C3530 N3537 1.356 . S
C3531 C3530 1.363 . S
C3531 C3534 1.363 . S
N3532 C3534 1.356 . S
N3532 H3544 0.984 . S
N3532 H3545 0.985 . S
N3533 C3535 1.356 . S
N3533 H3538 0.984 . S
N3533 H3539 0.985 . S
C3534 C3528 1.379 . S
C3534 C3531 1.363 . S
C3534 N3532 1.356 . S
C3535 C3529 1.363 . S
C3535 C3530 1.379 . S
C3535 N3533 1.356 . S
N3536 C3528 1.356 . S
N3536 H3542 0.984 . S
N3536 H3543 0.984 . S
N3537 C3530 1.356 . S
N3537 H3540 0.984 . S
N3537 H3541 0.985 . S
H3538 N3533 0.984 . S
H3539 N3533 0.985 . S
H3540 N3537 0.984 . S
H3541 N3537 0.985 . S
H3542 N3536 0.984 . S
H3543 N3536 0.984 . S
H3544 N3532 0.984 . S
H3545 N3532 0.985 . S
C3546 C3547 1.363 . S
C3546 C3552 1.379 . S
C3546 N3554 1.356 . S
C3547 C3546 1.363 . S
C3547 C3553 1.363 . S
C3548 C3549 1.363 . S
C3548 C3553 1.379 . S
C3548 N3555 1.356 . S
C3549 C3548 1.363 . S
C3549 C3552 1.363 . S
N3550 C3552 1.356 . S
N3550 H3562 0.984 . S
N3550 H3563 0.985 . S
N3551 C3553 1.356 . S
N3551 H3556 0.984 . S
N3551 H3557 0.985 . S
C3552 C3546 1.379 . S
C3552 C3549 1.363 . S
C3552 N3550 1.356 . S
C3553 C3547 1.363 . S
C3553 C3548 1.379 . S
C3553 N3551 1.356 . S
N3554 C3546 1.356 . S
N3554 H3560 0.984 . S
N3554 H3561 0.984 . S
N3555 C3548 1.356 . S
N3555 H3558 0.984 . S
N3555 H3559 0.985 . S
H3556 N3551 0.984 . S
H3557 N3551 0.985 . S
H3558 N3555 0.984 . S
H3559 N3555 0.985 . S
H3560 N3554 0.984 . S
H3561 N3554 0.984 . S
H3562 N3550 0.984 . S
H3563 N3550 0.985 . S
C3564 C3565 1.363 . S
C3564 C3570 1.379 . S
C3564 N3572 1.356 . S
C3565 C3564 1.363 . S
C3565 C3571 1.363 . S
C3566 C3567 1.363 . S
C3566 C3571 1.379 . S
C3566 N3573 1.356 . S
C3567 C3566 1.363 . S
C3567 C3570 1.363 . S
N3568 C3570 1.356 . S
N3568 H3580 0.984 . S
N3568 H3581 0.985 . S
N3569 C3571 1.356 . S
N3569 H3574 0.984 . S
N3569 H3575 0.985 . S
C3570 C3564 1.379 . S
C3570 C3567 1.363 . S
C3570 N3568 1.356 . S
C3571 C3565 1.363 . S
C3571 C3566 1.379 . S
C3571 N3569 1.356 . S
N3572 C3564 1.356 . S
N3572 H3578 0.984 . S
N3572 H3579 0.984 . S
N3573 C3566 1.356 . S
N3573 H3576 0.984 . S
N3573 H3577 0.985 . S
H3574 N3569 0.984 . S
H3575 N3569 0.985 . S
H3576 N3573 0.984 . S
H3577 N3573 0.985 . S
H3578 N3572 0.984 . S
H3579 N3572 0.984 . S
H3580 N3568 0.984 . S
H3581 N3568 0.985 . S
C3582 C3583 1.363 . S
C3582 C3588 1.379 . S
C3582 N3590 1.356 . S
C3583 C3582 1.363 . S
C3583 C3589 1.363 . S
C3584 C3585 1.363 . S
C3584 C3589 1.379 . S
C3584 N3591 1.356 . S
C3585 C3584 1.363 . S
C3585 C3588 1.363 . S
N3586 C3588 1.356 . S
N3586 H3598 0.984 . S
N3586 H3599 0.985 . S
N3587 C3589 1.356 . S
N3587 H3592 0.984 . S
N3587 H3593 0.985 . S
C3588 C3582 1.379 . S
C3588 C3585 1.363 . S
C3588 N3586 1.356 . S
C3589 C3583 1.363 . S
C3589 C3584 1.379 . S
C3589 N3587 1.356 . S
N3590 C3582 1.356 . S
N3590 H3596 0.984 . S
N3590 H3597 0.984 . S
N3591 C3584 1.356 . S
N3591 H3594 0.984 . S
N3591 H3595 0.985 . S
H3592 N3587 0.984 . S
H3593 N3587 0.985 . S
H3594 N3591 0.984 . S
H3595 N3591 0.985 . S
H3596 N3590 0.984 . S
H3597 N3590 0.984 . S
H3598 N3586 0.984 . S
H3599 N3586 0.985 . S
C3600 C3601 1.363 . S
C3600 C3606 1.379 . S
C3600 N3608 1.356 . S
C3601 C3600 1.363 . S
C3601 C3607 1.363 . S
C3602 C3603 1.363 . S
C3602 C3607 1.379 . S
C3602 N3609 1.356 . S
C3603 C3602 1.363 . S
C3603 C3606 1.363 . S
N3604 C3606 1.356 . S
N3604 H3616 0.984 . S
N3604 H3617 0.985 . S
N3605 C3607 1.356 . S
N3605 H3610 0.984 . S
N3605 H3611 0.985 . S
C3606 C3600 1.379 . S
C3606 C3603 1.363 . S
C3606 N3604 1.356 . S
C3607 C3601 1.363 . S
C3607 C3602 1.379 . S
C3607 N3605 1.356 . S
N3608 C3600 1.356 . S
N3608 H3614 0.984 . S
N3608 H3615 0.984 . S
N3609 C3602 1.356 . S
N3609 H3612 0.984 . S
N3609 H3613 0.985 . S
H3610 N3605 0.984 . S
H3611 N3605 0.985 . S
H3612 N3609 0.984 . S
H3613 N3609 0.985 . S
H3614 N3608 0.984 . S
H3615 N3608 0.984 . S
H3616 N3604 0.984 . S
H3617 N3604 0.985 . S
C3618 C3619 1.363 . S
C3618 C3624 1.379 . S
C3618 N3626 1.356 . S
C3619 C3618 1.363 . S
C3619 C3625 1.363 . S
C3620 C3621 1.363 . S
C3620 C3625 1.379 . S
C3620 N3627 1.356 . S
C3621 C3620 1.363 . S
C3621 C3624 1.363 . S
N3622 C3624 1.356 . S
N3622 H3634 0.984 . S
N3622 H3635 0.985 . S
N3623 C3625 1.356 . S
N3623 H3628 0.984 . S
N3623 H3629 0.985 . S
C3624 C3618 1.379 . S
C3624 C3621 1.363 . S
C3624 N3622 1.356 . S
C3625 C3619 1.363 . S
C3625 C3620 1.379 . S
C3625 N3623 1.356 . S
N3626 C3618 1.356 . S
N3626 H3632 0.984 . S
N3626 H3633 0.984 . S
N3627 C3620 1.356 . S
N3627 H3630 0.984 . S
N3627 H3631 0.985 . S
H3628 N3623 0.984 . S
H3629 N3623 0.985 . S
H3630 N3627 0.984 . S
H3631 N3627 0.985 . S
H3632 N3626 0.984 . S
H3633 N3626 0.984 . S
H3634 N3622 0.984 . S
H3635 N3622 0.985 . S
C3636 C3637 1.363 . S
C3636 C3642 1.379 . S
C3636 N3644 1.356 . S
C3637 C3636 1.363 . S
C3637 C3643 1.363 . S
C3638 C3639 1.363 . S
C3638 C3643 1.379 . S
C3638 N3645 1.356 . S
C3639 C3638 1.363 . S
C3639 C3642 1.363 . S
N3640 C3642 1.356 . S
N3640 H3652 0.984 . S
N3640 H3653 0.985 . S
N3641 C3643 1.356 . S
N3641 H3646 0.984 . S
N3641 H3647 0.985 . S
C3642 C3636 1.379 . S
C3642 C3639 1.363 . S
C3642 N3640 1.356 . S
C3643 C3637 1.363 . S
C3643 C3638 1.379 . S
C3643 N3641 1.356 . S
N3644 C3636 1.356 . S
N3644 H3650 0.984 . S
N3644 H3651 0.984 . S
N3645 C3638 1.356 . S
N3645 H3648 0.984 . S
N3645 H3649 0.985 . S
H3646 N3641 0.984 . S
H3647 N3641 0.985 . S
H3648 N3645 0.984 . S
H3649 N3645 0.985 . S
H3650 N3644 0.984 . S
H3651 N3644 0.984 . S
H3652 N3640 0.984 . S
H3653 N3640 0.985 . S
C3654 C3655 1.363 . S
C3654 C3660 1.379 . S
C3654 N3662 1.356 . S
C3655 C3654 1.363 . S
C3655 C3661 1.363 . S
C3656 C3657 1.363 . S
C3656 C3661 1.379 . S
C3656 N3663 1.356 . S
C3657 C3656 1.363 . S
C3657 C3660 1.363 . S
N3658 C3660 1.356 . S
N3658 H3670 0.984 . S
N3658 H3671 0.985 . S
N3659 C3661 1.356 . S
N3659 H3664 0.984 . S
N3659 H3665 0.985 . S
C3660 C3654 1.379 . S
C3660 C3657 1.363 . S
C3660 N3658 1.356 . S
C3661 C3655 1.363 . S
C3661 C3656 1.379 . S
C3661 N3659 1.356 . S
N3662 C3654 1.356 . S
N3662 H3668 0.984 . S
N3662 H3669 0.984 . S
N3663 C3656 1.356 . S
N3663 H3666 0.984 . S
N3663 H3667 0.985 . S
H3664 N3659 0.984 . S
H3665 N3659 0.985 . S
H3666 N3663 0.984 . S
H3667 N3663 0.985 . S
H3668 N3662 0.984 . S
H3669 N3662 0.984 . S
H3670 N3658 0.984 . S
H3671 N3658 0.985 . S
C3672 C3673 1.363 . S
C3672 C3678 1.379 . S
C3672 N3680 1.356 . S
C3673 C3672 1.363 . S
C3673 C3679 1.363 . S
C3674 C3675 1.363 . S
C3674 C3679 1.379 . S
C3674 N3681 1.356 . S
C3675 C3674 1.363 . S
C3675 C3678 1.363 . S
N3676 C3678 1.356 . S
N3676 H3688 0.984 . S
N3676 H3689 0.985 . S
N3677 C3679 1.356 . S
N3677 H3682 0.984 . S
N3677 H3683 0.985 . S
C3678 C3672 1.379 . S
C3678 C3675 1.363 . S
C3678 N3676 1.356 . S
C3679 C3673 1.363 . S
C3679 C3674 1.379 . S
C3679 N3677 1.356 . S
N3680 C3672 1.356 . S
N3680 H3686 0.984 . S
N3680 H3687 0.984 . S
N3681 C3674 1.356 . S
N3681 H3684 0.984 . S
N3681 H3685 0.985 . S
H3682 N3677 0.984 . S
H3683 N3677 0.985 . S
H3684 N3681 0.984 . S
H3685 N3681 0.985 . S
H3686 N3680 0.984 . S
H3687 N3680 0.984 . S
H3688 N3676 0.984 . S
H3689 N3676 0.985 . S
C3690 C3691 1.363 . S
C3690 C3696 1.379 . S
C3690 N3698 1.356 . S
C3691 C3690 1.363 . S
C3691 C3697 1.363 . S
C3692 C3693 1.363 . S
C3692 C3697 1.379 . S
C3692 N3699 1.356 . S
C3693 C3692 1.363 . S
C3693 C3696 1.363 . S
N3694 C3696 1.356 . S
N3694 H3706 0.984 . S
N3694 H3707 0.985 . S
N3695 C3697 1.356 . S
N3695 H3700 0.984 . S
N3695 H3701 0.985 . S
C3696 C3690 1.379 . S
C3696 C3693 1.363 . S
C3696 N3694 1.356 . S
C3697 C3691 1.363 . S
C3697 C3692 1.379 . S
C3697 N3695 1.356 . S
N3698 C3690 1.356 . S
N3698 H3704 0.984 . S
N3698 H3705 0.984 . S
N3699 C3692 1.356 . S
N3699 H3702 0.984 . S
N3699 H3703 0.985 . S
H3700 N3695 0.984 . S
H3701 N3695 0.985 . S
H3702 N3699 0.984 . S
H3703 N3699 0.985 . S
H3704 N3698 0.984 . S
H3705 N3698 0.984 . S
H3706 N3694 0.984 . S
H3707 N3694 0.985 . S
C3708 C3709 1.363 . S
C3708 C3714 1.379 . S
C3708 N3716 1.356 . S
C3709 C3708 1.363 . S
C3709 C3715 1.363 . S
C3710 C3711 1.363 . S
C3710 C3715 1.379 . S
C3710 N3717 1.356 . S
C3711 C3710 1.363 . S
C3711 C3714 1.363 . S
N3712 C3714 1.356 . S
N3712 H3724 0.984 . S
N3712 H3725 0.985 . S
N3713 C3715 1.356 . S
N3713 H3718 0.984 . S
N3713 H3719 0.985 . S
C3714 C3708 1.379 . S
C3714 C3711 1.363 . S
C3714 N3712 1.356 . S
C3715 C3709 1.363 . S
C3715 C3710 1.379 . S
C3715 N3713 1.356 . S
N3716 C3708 1.356 . S
N3716 H3722 0.984 . S
N3716 H3723 0.984 . S
N3717 C3710 1.356 . S
N3717 H3720 0.984 . S
N3717 H3721 0.985 . S
H3718 N3713 0.984 . S
H3719 N3713 0.985 . S
H3720 N3717 0.984 . S
H3721 N3717 0.985 . S
H3722 N3716 0.984 . S
H3723 N3716 0.984 . S
H3724 N3712 0.984 . S
H3725 N3712 0.985 . S
C3726 C3727 1.363 . S
C3726 C3732 1.379 . S
C3726 N3734 1.356 . S
C3727 C3726 1.363 . S
C3727 C3733 1.363 . S
C3728 C3729 1.363 . S
C3728 C3733 1.379 . S
C3728 N3735 1.356 . S
C3729 C3728 1.363 . S
C3729 C3732 1.363 . S
N3730 C3732 1.356 . S
N3730 H3742 0.984 . S
N3730 H3743 0.985 . S
N3731 C3733 1.356 . S
N3731 H3736 0.984 . S
N3731 H3737 0.985 . S
C3732 C3726 1.379 . S
C3732 C3729 1.363 . S
C3732 N3730 1.356 . S
C3733 C3727 1.363 . S
C3733 C3728 1.379 . S
C3733 N3731 1.356 . S
N3734 C3726 1.356 . S
N3734 H3740 0.984 . S
N3734 H3741 0.984 . S
N3735 C3728 1.356 . S
N3735 H3738 0.984 . S
N3735 H3739 0.985 . S
H3736 N3731 0.984 . S
H3737 N3731 0.985 . S
H3738 N3735 0.984 . S
H3739 N3735 0.985 . S
H3740 N3734 0.984 . S
H3741 N3734 0.984 . S
H3742 N3730 0.984 . S
H3743 N3730 0.985 . S
C1585 N607 1.550 1_554 S
C1587 C18 1.582 . S
C1603 C51 1.582 . S
C1605 N640 1.550 1_554 S
C1621 C84 1.582 . S
C1623 N673 1.550 1_554 S
C1639 N574 1.550 1_554 S
C1641 C117 1.582 . S
C1657 N739 1.550 1_556 S
C1659 C150 1.582 . S
C1675 C183 1.582 . S
C1677 N541 1.550 1_556 S
C1693 N772 1.550 1_556 S
C1695 C216 1.582 . S
C1711 N706 1.550 1_556 S
C1713 C249 1.582 . S
C1729 C282 1.582 . S
C1731 N310 1.550 1_455 S
C1747 N343 1.550 1_545 S
C1749 C315 1.582 . S
C1765 N376 1.550 1_655 S
C1767 C348 1.582 . S
C1783 C381 1.582 . S
C1785 N277 1.550 1_565 S
C1801 N508 1.550 1_455 S
C1803 C414 1.582 . S
C1819 C447 1.582 . S
C1821 N409 1.550 1_545 S
C1837 N442 1.550 1_655 S
C1839 C480 1.582 . S
C1855 N475 1.550 1_565 S
C1857 C513 1.582 . S
C1873 C546 1.582 . S
C1875 N112 1.550 1_545 S
C1891 N178 1.550 1_565 S
C1893 C579 1.582 . S
C1909 C612 1.582 . S
C1911 N211 1.550 1_455 S
C1927 N244 1.550 1_545 S
C1929 C645 1.582 . S
C1945 N145 1.550 1_655 S
C1947 C678 1.582 . S
C1963 C711 1.582 . S
C1965 N46 1.550 1_565 S
C1981 C744 1.582 . S
C1983 N79 1.550 1_455 S
C1999 N13 1.550 1_655 S
C2001 C777 1.582 . S
C2017 C810 1.582 . S
C2019 N1399 1.550 . S
C2035 N1432 1.550 . S
C2037 C843 1.582 . S
C2053 N1465 1.550 . S
C2055 C876 1.582 . S
C2071 C909 1.582 . S
C2073 N1366 1.550 . S
C2089 N1531 1.550 . S
C2091 C942 1.582 . S
C2107 C975 1.582 . S
C2109 N1333 1.550 . S
C2125 N1564 1.550 . S
C2127 C1008 1.582 . S
C2143 N1498 1.550 . S
C2145 C1041 1.582 . S
C2161 N1102 1.550 . S
C2163 C1074 1.582 . S
C2179 C1107 1.582 . S
C2181 N1135 1.550 . S
C2197 N1168 1.550 . S
C2199 C1140 1.582 . S
C2215 C1173 1.582 . S
C2217 N1069 1.550 . S
C2233 C1206 1.582 . S
C2235 N1300 1.550 . S
C2251 N1201 1.550 . S
C2253 C1239 1.582 . S
C2269 C1272 1.582 . S
C2271 N1234 1.550 . S
C2287 N1267 1.550 . S
C2289 C1305 1.582 . S
C2305 N904 1.550 . S
C2307 C1338 1.582 . S
C2323 C1371 1.582 . S
C2325 N970 1.550 . S
C2341 C1404 1.582 . S
C2343 N1003 1.550 . S
C2359 N1036 1.550 . S
C2361 C1437 1.582 . S
C2377 N937 1.550 . S
C2379 C1470 1.582 . S
C2395 N838 1.550 . S
C2397 C1503 1.582 . S
C2413 C1536 1.582 . S
C2415 N871 1.550 . S
C2431 N805 1.550 . S
C2433 C1569 1.582 . S
C2449 C1044 1.689 . S
C2451 C21 1.689 . S
C2467 C945 1.689 . S
C2469 C54 1.689 . S
C2485 C87 1.689 . S
C2487 C978 1.689 . S
C2503 C1011 1.689 . S
C2505 C120 1.689 . S
C2521 C153 1.689 . S
C2523 C846 1.689 . S
C2539 C879 1.689 . S
C2541 C186 1.689 . S
C2557 C912 1.689 . S
C2559 C219 1.689 . S
C2575 C252 1.689 . S
C2577 C813 1.689 . S
C2593 C285 1.689 . S
C2595 C1473 1.689 . S
C2611 C1374 1.689 . S
C2613 C318 1.689 . S
C2629 C1407 1.689 . S
C2631 C351 1.689 . S
C2647 C1440 1.689 . S
C2649 C384 1.689 . S
C2665 C1572 1.689 . S
C2667 C417 1.689 . S
C2683 C450 1.689 . S
C2685 C1506 1.689 . S
C2701 C483 1.689 . S
C2703 C1539 1.689 . S
C2719 C1341 1.689 . S
C2721 C516 1.689 . S
C2737 C1308 1.689 . S
C2739 C549 1.689 . S
C2755 C582 1.689 . S
C2757 C1110 1.689 . S
C2773 C1143 1.689 . S
C2775 C615 1.689 . S
C2791 C1176 1.689 . S
C2793 C648 1.689 . S
C2809 C681 1.689 . S
C2811 C1077 1.689 . S
C2827 C714 1.689 . S
C2829 C1242 1.689 . S
C2845 C1275 1.689 . S
C2847 C747 1.689 . S
C2863 C780 1.689 . S
C2865 C1209 1.689 . S
C2881 N266 1.345 . S
C2883 C7 1.337 . S
C2899 N299 1.345 . S
C2901 C40 1.337 . S
C2917 C73 1.337 . S
C2919 N332 1.345 . S
C2935 C106 1.337 . S
C2937 N365 1.345 . S
C2953 C139 1.337 . S
C2955 N398 1.345 . S
C2971 N431 1.345 . S
C2973 C172 1.337 . S
C2989 N464 1.345 . S
C2991 C205 1.337 . S
C3007 C238 1.337 . S
C3009 N497 1.345 . S
C3025 N530 1.345 . S
C3027 C271 1.337 . S
C3043 N761 1.345 . S
C3045 C304 1.337 . S
C3061 N695 1.345 . S
C3063 C337 1.337 . S
C3079 C370 1.337 . S
C3081 N728 1.345 . S
C3097 C403 1.337 . S
C3099 N563 1.345 . S
C3115 C436 1.337 . S
C3117 N596 1.345 . S
C3133 C469 1.337 . S
C3135 N629 1.345 . S
C3151 C502 1.337 . S
C3153 N662 1.345 . S
C3169 N2 1.345 . S
C3171 C535 1.337 . S
C3187 C568 1.337 . S
C3189 N134 1.345 . S
C3205 N167 1.345 . S
C3207 C601 1.337 . S
C3223 C634 1.337 . S
C3225 N200 1.345 . S
C3241 N233 1.345 . S
C3243 C667 1.337 . S
C3259 N68 1.345 . S
C3261 C700 1.337 . S
C3277 C733 1.337 . S
C3279 N101 1.345 . S
C3295 N35 1.345 . S
C3297 C766 1.337 . S
C3313 C799 1.337 . S
C3315 N1058 1.345 . S
C3331 N1091 1.345 . S
C3333 C832 1.337 . S
C3349 C865 1.337 . S
C3351 N1124 1.345 . S
C3367 C898 1.337 . S
C3369 N1157 1.345 . S
C3385 C931 1.337 . S
C3387 N1190 1.345 . S
C3403 C964 1.337 . S
C3405 N1223 1.345 . S
C3421 C997 1.337 . S
C3423 N1256 1.345 . S
C3439 C1030 1.337 . S
C3441 N1289 1.345 . S
C3457 C1063 1.337 . S
C3459 N1322 1.345 . S
C3475 C1096 1.337 . S
C3477 N1553 1.345 . S
C3493 C1129 1.337 . S
C3495 N1487 1.345 . S
C3511 N1520 1.345 . S
C3513 C1162 1.337 . S
C3529 N1355 1.345 . S
C3531 C1195 1.337 . S
C3547 C1228 1.337 . S
C3549 N1388 1.345 . S
C3565 N1421 1.345 . S
C3567 C1261 1.337 . S
C3583 C1294 1.337 . S
C3585 N1454 1.345 . S
C3601 C1327 1.337 . S
C3603 N794 1.345 . S
C3619 N926 1.345 . S
C3621 C1360 1.337 . S
C3637 N959 1.345 . S
C3639 C1393 1.337 . S
C3655 N992 1.345 . S
C3657 C1426 1.337 . S
C3673 N1025 1.345 . S
C3675 C1459 1.337 . S
C3691 N860 1.345 . S
C3693 C1492 1.337 . S
C3709 N893 1.345 . S
C3711 C1525 1.337 . S
C3727 N827 1.345 . S
C3729 C1558 1.337 . S
