# Generated by pormake.
# Topology upa, (4)-cn, num edge types: 1
# Building blocks:
#     Node 0, Type 0, BuildingBlock: GALJAG_clean_sbu_0, # of connection points: 4
#     Node 1, Type 0, BuildingBlock: GALJAG_clean_sbu_0, # of connection points: 4
#     Node 2, Type 0, BuildingBlock: GALJAG_clean_sbu_0, # of connection points: 4
#     Node 3, Type 0, BuildingBlock: GALJAG_clean_sbu_0, # of connection points: 4
#     Node 4, Type 0, BuildingBlock: GALJAG_clean_sbu_0, # of connection points: 4
#     Node 5, Type 0, BuildingBlock: GALJAG_clean_sbu_0, # of connection points: 4
#     Node 6, Type 0, BuildingBlock: GALJAG_clean_sbu_0, # of connection points: 4
#     Node 7, Type 0, BuildingBlock: GALJAG_clean_sbu_0, # of connection points: 4
#     Edge 8, Type (0, 0), BuildingBlock: OJICUG_clean_linker_0, # of connection points: 2
#     Edge 9, Type (0, 0), BuildingBlock: OJICUG_clean_linker_0, # of connection points: 2
#     Edge 10, Type (0, 0), BuildingBlock: OJICUG_clean_linker_0, # of connection points: 2
#     Edge 11, Type (0, 0), BuildingBlock: OJICUG_clean_linker_0, # of connection points: 2
#     Edge 12, Type (0, 0), BuildingBlock: OJICUG_clean_linker_0, # of connection points: 2
#     Edge 13, Type (0, 0), BuildingBlock: OJICUG_clean_linker_0, # of connection points: 2
#     Edge 14, Type (0, 0), BuildingBlock: OJICUG_clean_linker_0, # of connection points: 2
#     Edge 15, Type (0, 0), BuildingBlock: OJICUG_clean_linker_0, # of connection points: 2
#     Edge 16, Type (0, 0), BuildingBlock: OJICUG_clean_linker_0, # of connection points: 2
#     Edge 17, Type (0, 0), BuildingBlock: OJICUG_clean_linker_0, # of connection points: 2
#     Edge 18, Type (0, 0), BuildingBlock: OJICUG_clean_linker_0, # of connection points: 2
#     Edge 19, Type (0, 0), BuildingBlock: OJICUG_clean_linker_0, # of connection points: 2
#     Edge 20, Type (0, 0), BuildingBlock: OJICUG_clean_linker_0, # of connection points: 2
#     Edge 21, Type (0, 0), BuildingBlock: OJICUG_clean_linker_0, # of connection points: 2
#     Edge 22, Type (0, 0), BuildingBlock: OJICUG_clean_linker_0, # of connection points: 2
#     Edge 23, Type (0, 0), BuildingBlock: OJICUG_clean_linker_0, # of connection points: 2
# Relax obj value: 0.230
# Max RMSD: 0.125
# Mean RMSD: 0.125
data_MOF--net-upa--node1-GALJAG_clean_sbu_0--edge1-OJICUG_clean_linker_0
_symmetry_space_group_name_H-M    P1
_symmetry_Int_Tables_number       1
_symmetry_cell_setting            triclinic
loop_
_symmetry_equiv_pos_as_xyz
'x, y, z'
_cell_length_a     19.49207
_cell_length_b     19.488188
_cell_length_c     31.087926
_cell_angle_alpha  89.976958
_cell_angle_beta   89.99561
_cell_angle_gamma 90.017624
loop_
_atom_site_label
_atom_site_type_symbol
_atom_site_fract_x
_atom_site_fract_y
_atom_site_fract_z
_atom_type_partial_charge
In0 In 0.20636 0.20482 0.33055 0.0
O1 O 0.20321 0.27351 0.39004 0.0
O2 O 0.2559 0.1777 0.39438 0.0
C3 C 0.10682 0.26328 0.28209 0.0
C4 C 0.33276 0.21418 0.29462 0.0
C5 C 0.12598 0.09383 0.3396 0.0
O6 O 0.12409 0.28817 0.31808 0.0
O7 O 0.14479 0.21529 0.26917 0.0
O8 O 0.16696 0.10037 0.30838 0.0
O9 O 0.13012 0.13997 0.36779 0.0
C10 C 0.23669 0.23184 0.41329 0.0
O11 O 0.30292 0.15742 0.30041 0.0
O12 O 0.29816 0.26607 0.30576 0.0
In13 In 0.29849 0.69683 0.83073 0.0
O14 O 0.34317 0.78707 0.79227 0.0
O15 O 0.23733 0.79002 0.80856 0.0
C16 C 0.41684 0.62729 0.82597 0.0
C17 C 0.27312 0.72939 0.91329 0.0
C18 C 0.2299 0.58498 0.80235 0.0
O19 O 0.38113 0.64031 0.79313 0.0
O20 O 0.39702 0.65632 0.85999 0.0
O21 O 0.25272 0.59099 0.84006 0.0
O22 O 0.23474 0.63877 0.77976 0.0
C23 C 0.28773 0.8205 0.79158 0.0
O24 O 0.22983 0.69769 0.89037 0.0
O25 O 0.32782 0.74586 0.89416 0.0
In26 In 0.80952 0.80616 0.32799 0.0
O27 O 0.71359 0.85438 0.2977 0.0
O28 O 0.71735 0.74569 0.30372 0.0
C29 C 0.891 0.91627 0.33759 0.0
C30 C 0.77731 0.77855 0.41007 0.0
C31 C 0.90792 0.74512 0.2803 0.0
O32 O 0.8516 0.90954 0.30561 0.0
O33 O 0.88481 0.8708 0.36607 0.0
O34 O 0.89097 0.72207 0.31682 0.0
O35 O 0.8701 0.79268 0.26654 0.0
C36 C 0.68315 0.79779 0.29252 0.0
O37 O 0.81152 0.73708 0.38714 0.0
O38 O 0.75862 0.83292 0.39119 0.0
In39 In 0.70138 0.30775 0.8286 0.0
O40 O 0.65306 0.20587 0.80804 0.0
O41 O 0.75554 0.22608 0.7881 0.0
C42 C 0.59304 0.39153 0.83688 0.0
C43 C 0.73355 0.27474 0.91033 0.0
C44 C 0.7578 0.40877 0.78114 0.0
O45 O 0.59506 0.34513 0.80851 0.0
O46 O 0.64211 0.3907 0.86319 0.0
O47 O 0.78502 0.38913 0.81607 0.0
O48 O 0.70833 0.37223 0.76855 0.0
C49 C 0.7052 0.18512 0.78782 0.0
O50 O 0.77542 0.30584 0.88598 0.0
O51 O 0.67735 0.25866 0.89286 0.0
In52 In 0.70645 0.30499 0.17744 0.0
O53 O 0.80312 0.35255 0.20741 0.0
O54 O 0.79814 0.24386 0.20245 0.0
C55 C 0.62621 0.41603 0.1683 0.0
C56 C 0.7367 0.27723 0.09478 0.0
C57 C 0.60677 0.24668 0.22591 0.0
O58 O 0.66701 0.40941 0.19959 0.0
O59 O 0.6305 0.36996 0.14007 0.0
O60 O 0.62399 0.22179 0.18992 0.0
O61 O 0.64482 0.29462 0.23884 0.0
C62 C 0.83285 0.2958 0.2134 0.0
O63 O 0.70331 0.23573 0.11822 0.0
O64 O 0.75584 0.3316 0.11347 0.0
In65 In 0.20168 0.19797 0.6794 0.0
O66 O 0.15301 0.29952 0.70019 0.0
O67 O 0.25572 0.27981 0.71985 0.0
C68 C 0.09362 0.11372 0.67128 0.0
C69 C 0.23342 0.2318 0.59774 0.0
C70 C 0.25876 0.09708 0.72661 0.0
O71 O 0.09561 0.16008 0.69968 0.0
O72 O 0.14256 0.11481 0.64487 0.0
O73 O 0.28537 0.11652 0.69145 0.0
O74 O 0.20964 0.13379 0.73952 0.0
C75 C 0.20519 0.32051 0.72027 0.0
O76 O 0.27559 0.20088 0.62196 0.0
O77 O 0.1771 0.24719 0.61529 0.0
In78 In 0.30959 0.70343 0.17955 0.0
O79 O 0.21367 0.65536 0.20998 0.0
O80 O 0.2174 0.76402 0.20362 0.0
C81 C 0.39121 0.59344 0.17009 0.0
C82 C 0.27731 0.73029 0.0974 0.0
C83 C 0.40786 0.76471 0.22722 0.0
O84 O 0.35163 0.60008 0.20199 0.0
O85 O 0.38515 0.63895 0.14162 0.0
O86 O 0.39096 0.78765 0.19067 0.0
O87 O 0.37002 0.71716 0.24101 0.0
C88 C 0.1832 0.71198 0.21498 0.0
O89 O 0.31156 0.77199 0.12016 0.0
O90 O 0.2586 0.6761 0.11649 0.0
In91 In 0.79841 0.80896 0.67686 0.0
O92 O 0.84289 0.7184 0.71506 0.0
O93 O 0.73695 0.71588 0.69903 0.0
C94 C 0.91704 0.87809 0.68186 0.0
C95 C 0.77288 0.77716 0.5942 0.0
C96 C 0.73018 0.92088 0.70545 0.0
O97 O 0.88113 0.86513 0.71463 0.0
O98 O 0.89722 0.84922 0.64778 0.0
O99 O 0.75314 0.91504 0.66777 0.0
O100 O 0.73473 0.86693 0.72791 0.0
C101 C 0.78731 0.68517 0.71587 0.0
O102 O 0.72971 0.80875 0.61725 0.0
O103 O 0.82751 0.76033 0.61327 0.0
C104 C 0.03717 0.02532 0.37805 0.0
C105 C 0.06872 0.0448 0.33934 0.0
H106 H 0.95548 0.96888 0.40778 0.0
C107 C 0.03965 0.02424 0.30009 0.0
H108 H 0.05822 0.04146 0.40867 0.0
C109 C 0.97954 0.98526 0.29956 0.0
C110 C 0.9485 0.965 0.33828 0.0
H111 H 0.06226 0.03992 0.2698 0.0
H112 H 0.95842 0.96943 0.26889 0.0
C113 C 0.9781 0.98474 0.37753 0.0
C114 C 0.46811 0.52224 0.79344 0.0
C115 C 0.4666 0.57051 0.82701 0.0
H116 H 0.50774 0.4263 0.77086 0.0
C117 C 0.50527 0.55826 0.86431 0.0
H118 H 0.43774 0.52973 0.76464 0.0
C119 C 0.54462 0.49878 0.86804 0.0
C120 C 0.54547 0.45009 0.83475 0.0
H121 H 0.50429 0.59415 0.89091 0.0
H122 H 0.57458 0.49105 0.89699 0.0
C123 C 0.507 0.46238 0.79736 0.0
C124 C 0.53976 0.48554 0.20773 0.0
C125 C 0.56895 0.46502 0.1685 0.0
H126 H 0.45843 0.54029 0.23886 0.0
C127 C 0.53751 0.48451 0.12977 0.0
H128 H 0.56228 0.46986 0.23804 0.0
C129 C 0.47844 0.52505 0.13024 0.0
C130 C 0.44872 0.54475 0.16946 0.0
H131 H 0.55865 0.46841 0.09916 0.0
H132 H 0.45591 0.54092 0.09997 0.0
C133 C 0.47964 0.52449 0.20821 0.0
C134 C 0.00764 0.04268 0.71077 0.0
C135 C 0.04612 0.05507 0.67339 0.0
H136 H 0.93822 0.97531 0.74338 0.0
C137 C 0.04523 0.00647 0.64004 0.0
H138 H 0.00842 0.07867 0.73731 0.0
C139 C 0.00576 0.94703 0.64369 0.0
C140 C 0.967 0.93473 0.68095 0.0
H141 H 0.07521 0.01428 0.6111 0.0
H142 H 0.00472 0.91126 0.61703 0.0
C143 C 0.96863 0.98285 0.71459 0.0
C144 C 0.20294 0.28679 0.48281 0.0
C145 C 0.24519 0.24092 0.46023 0.0
H146 H 0.16619 0.31975 0.54437 0.0
C147 C 0.29019 0.19839 0.48346 0.0
H148 H 0.1677 0.32012 0.4658 0.0
C149 C 0.29015 0.19897 0.5285 0.0
C150 C 0.24419 0.24121 0.55103 0.0
H151 H 0.32354 0.16268 0.46686 0.0
H152 H 0.32304 0.16339 0.54556 0.0
C153 C 0.202 0.28648 0.52779 0.0
C154 C 0.2191 0.69767 0.98339 0.0
C155 C 0.26497 0.73894 0.96008 0.0
H156 H 0.18728 0.66247 0.04556 0.0
C157 C 0.3088 0.78371 0.98246 0.0
H158 H 0.18485 0.66261 0.96695 0.0
C159 C 0.3095 0.78437 0.02741 0.0
C160 C 0.26726 0.73937 0.0507 0.0
H161 H 0.3445 0.81629 0.96523 0.0
H162 H 0.34593 0.8172 0.04381 0.0
C163 C 0.22066 0.69744 0.02834 0.0
C164 C 0.80848 0.72362 0.52477 0.0
C165 C 0.76475 0.76821 0.54735 0.0
H166 H 0.84561 0.69082 0.46327 0.0
C167 C 0.71906 0.80991 0.52423 0.0
H168 H 0.84404 0.69072 0.54185 0.0
C169 C 0.72071 0.81072 0.47927 0.0
C170 C 0.76721 0.76896 0.45673 0.0
H171 H 0.6849 0.84485 0.54082 0.0
H172 H 0.68747 0.846 0.46222 0.0
C173 C 0.80926 0.72355 0.47982 0.0
C174 C 0.70249 0.22075 0.98056 0.0
C175 C 0.74438 0.26601 0.95708 0.0
H176 H 0.66835 0.18771 0.04272 0.0
C177 C 0.79 0.30892 0.9794 0.0
H178 H 0.66693 0.18697 0.96416 0.0
C179 C 0.78999 0.31015 0.02443 0.0
C180 C 0.74526 0.2676 0.04789 0.0
H181 H 0.82266 0.34452 0.96215 0.0
H182 H 0.82306 0.34634 0.04084 0.0
C183 C 0.70337 0.22109 0.02554 0.0
C184 C 0.50034 0.17462 0.23666 0.0
C185 C 0.53952 0.23308 0.24658 0.0
H186 H 0.40409 0.12206 0.24479 0.0
C187 C 0.51052 0.28391 0.27308 0.0
H188 H 0.52105 0.13502 0.21597 0.0
C189 C 0.44338 0.27766 0.28823 0.0
C190 C 0.40392 0.21966 0.27819 0.0
H191 H 0.53881 0.33015 0.28084 0.0
H192 H 0.42233 0.31843 0.3079 0.0
C193 C 0.43341 0.16746 0.25293 0.0
C194 C 0.22857 0.93369 0.78898 0.0
C195 C 0.28302 0.89189 0.77548 0.0
H196 H 0.17994 0.03153 0.7854 0.0
C197 C 0.33316 0.91977 0.74796 0.0
H198 H 0.18961 0.91404 0.81058 0.0
C199 C 0.32731 0.98758 0.73299 0.0
C200 C 0.27218 0.02902 0.74623 0.0
H201 H 0.37599 0.88874 0.73728 0.0
H202 H 0.36509 0.00711 0.71056 0.0
C203 C 0.22359 1.00148 0.77492 0.0
C204 C 0.58198 0.84395 0.25123 0.0
C205 C 0.61152 0.79266 0.27716 0.0
H206 H 0.49377 0.87536 0.2145 0.0
C207 C 0.57168 0.73579 0.28901 0.0
H208 H 0.61163 0.88849 0.24179 0.0
C209 C 0.5041 0.72957 0.2748 0.0
C210 C 0.4751 0.77922 0.24745 0.0
H211 H 0.59282 0.69584 0.30931 0.0
H212 H 0.47556 0.68408 0.28383 0.0
C213 C 0.51456 0.83673 0.23589 0.0
C214 C 0.74844 0.10992 0.72889 0.0
C215 C 0.70722 0.11819 0.76547 0.0
H216 H 0.78567 0.04154 0.68051 0.0
C217 C 0.66923 0.0618 0.78077 0.0
H218 H 0.77801 0.15254 0.71634 0.0
C219 C 0.67482 0.9974 0.76081 0.0
C220 C 0.71641 0.98923 0.72429 0.0
H221 H 0.63716 0.06692 0.80905 0.0
H222 H 0.64737 0.95399 0.77415 0.0
C223 C 0.75217 0.04646 0.70816 0.0
C224 C 0.01048 0.22598 0.23503 0.0
C225 C 0.03959 0.2769 0.26143 0.0
H226 H 0.92221 0.1914 0.20031 0.0
C227 C 1.00052 0.33545 0.27125 0.0
H228 H 0.03867 0.17967 0.22735 0.0
C229 C 0.93359 0.34263 0.25498 0.0
C230 C 0.904 0.29035 0.22982 0.0
H231 H 0.02131 0.37513 0.29187 0.0
H232 H 0.90436 0.3881 0.26304 0.0
C233 C 0.94334 0.23224 0.21989 0.0
C234 C 0.16888 0.4437 0.72731 0.0
C235 C 0.20709 0.38747 0.74259 0.0
H236 H 0.1468 0.55146 0.73387 0.0
C237 C 0.24846 0.39596 0.77908 0.0
H238 H 0.13669 0.43841 0.69911 0.0
C239 C 0.25213 0.45947 0.79974 0.0
C240 C 0.21615 0.51655 0.78363 0.0
H241 H 0.27823 0.35346 0.7916 0.0
H242 H 0.28576 0.46458 0.82731 0.0
C243 C 0.1744 0.50816 0.7472 0.0
C244 C 0.08199 0.66588 0.25629 0.0
C245 C 0.11158 0.71715 0.23035 0.0
H246 H 0.99375 0.63449 0.29302 0.0
C247 C 0.07178 0.77403 0.21849 0.0
H248 H 0.1116 0.62133 0.26573 0.0
C249 C 0.00421 0.78027 0.23271 0.0
C250 C 0.97516 0.73063 0.26007 0.0
H251 H 0.09295 0.81397 0.19819 0.0
H252 H 0.97569 0.82576 0.22368 0.0
C253 C 0.01457 0.67312 0.27163 0.0
C254 C 0.82693 0.51784 0.77414 0.0
C255 C 0.77115 0.47681 0.76146 0.0
H256 H 0.87631 0.61629 0.76933 0.0
C257 C 0.72203 0.50471 0.73328 0.0
H258 H 0.86514 0.49802 0.79617 0.0
C259 C 0.72722 0.57245 0.71914 0.0
C260 C 0.78236 0.61384 0.73205 0.0
H261 H 0.67787 0.47498 0.72326 0.0
H262 H 0.68786 0.59238 0.69793 0.0
C263 C 0.83295 0.58559 0.75909 0.0
loop_
_geom_bond_atom_site_label_1
_geom_bond_atom_site_label_2
_geom_bond_distance
_geom_bond_site_symmetry_2
_ccdc_geom_bond_type
In0 O1 2.294 . S
In0 O2 2.326 . S
In0 O6 2.266 . S
In0 O7 2.326 . S
In0 O8 2.266 . S
In0 O9 2.326 . S
In0 O11 2.294 . S
In0 O12 2.326 . S
O1 In0 2.294 . S
O1 C10 1.240 . S
O2 In0 2.326 . S
O2 C10 1.252 . S
C3 O6 1.252 . S
C3 O7 1.260 . S
C4 O11 1.240 . S
C4 O12 1.252 . S
C5 O8 1.252 . S
C5 O9 1.260 . S
O6 In0 2.266 . S
O6 C3 1.252 . S
O7 In0 2.326 . S
O7 C3 1.260 . S
O8 In0 2.266 . S
O8 C5 1.252 . S
O9 In0 2.326 . S
O9 C5 1.260 . S
C10 O1 1.240 . S
C10 O2 1.252 . S
O11 In0 2.294 . S
O11 C4 1.240 . S
O12 In0 2.326 . S
O12 C4 1.252 . S
In13 O14 2.294 . S
In13 O15 2.326 . S
In13 O19 2.266 . S
In13 O20 2.326 . S
In13 O21 2.266 . S
In13 O22 2.326 . S
In13 O24 2.294 . S
In13 O25 2.326 . S
O14 In13 2.294 . S
O14 C23 1.240 . S
O15 In13 2.326 . S
O15 C23 1.252 . S
C16 O19 1.252 . S
C16 O20 1.260 . S
C17 O24 1.240 . S
C17 O25 1.252 . S
C18 O21 1.252 . S
C18 O22 1.260 . S
O19 In13 2.266 . S
O19 C16 1.252 . S
O20 In13 2.326 . S
O20 C16 1.260 . S
O21 In13 2.266 . S
O21 C18 1.252 . S
O22 In13 2.326 . S
O22 C18 1.260 . S
C23 O14 1.240 . S
C23 O15 1.252 . S
O24 In13 2.294 . S
O24 C17 1.240 . S
O25 In13 2.326 . S
O25 C17 1.252 . S
In26 O27 2.294 . S
In26 O28 2.326 . S
In26 O32 2.266 . S
In26 O33 2.326 . S
In26 O34 2.266 . S
In26 O35 2.326 . S
In26 O37 2.294 . S
In26 O38 2.326 . S
O27 In26 2.294 . S
O27 C36 1.240 . S
O28 In26 2.326 . S
O28 C36 1.252 . S
C29 O32 1.252 . S
C29 O33 1.260 . S
C30 O37 1.240 . S
C30 O38 1.252 . S
C31 O34 1.252 . S
C31 O35 1.260 . S
O32 In26 2.266 . S
O32 C29 1.252 . S
O33 In26 2.326 . S
O33 C29 1.260 . S
O34 In26 2.266 . S
O34 C31 1.252 . S
O35 In26 2.326 . S
O35 C31 1.260 . S
C36 O27 1.240 . S
C36 O28 1.252 . S
O37 In26 2.294 . S
O37 C30 1.240 . S
O38 In26 2.326 . S
O38 C30 1.252 . S
In39 O40 2.294 . S
In39 O41 2.326 . S
In39 O45 2.266 . S
In39 O46 2.326 . S
In39 O47 2.266 . S
In39 O48 2.326 . S
In39 O50 2.294 . S
In39 O51 2.326 . S
O40 In39 2.294 . S
O40 C49 1.240 . S
O41 In39 2.326 . S
O41 C49 1.252 . S
C42 O45 1.252 . S
C42 O46 1.260 . S
C43 O50 1.240 . S
C43 O51 1.252 . S
C44 O47 1.252 . S
C44 O48 1.260 . S
O45 In39 2.266 . S
O45 C42 1.252 . S
O46 In39 2.326 . S
O46 C42 1.260 . S
O47 In39 2.266 . S
O47 C44 1.252 . S
O48 In39 2.326 . S
O48 C44 1.260 . S
C49 O40 1.240 . S
C49 O41 1.252 . S
O50 In39 2.294 . S
O50 C43 1.240 . S
O51 In39 2.326 . S
O51 C43 1.252 . S
In52 O53 2.294 . S
In52 O54 2.326 . S
In52 O58 2.266 . S
In52 O59 2.326 . S
In52 O60 2.266 . S
In52 O61 2.326 . S
In52 O63 2.294 . S
In52 O64 2.326 . S
O53 In52 2.294 . S
O53 C62 1.240 . S
O54 In52 2.326 . S
O54 C62 1.252 . S
C55 O58 1.252 . S
C55 O59 1.260 . S
C56 O63 1.240 . S
C56 O64 1.252 . S
C57 O60 1.252 . S
C57 O61 1.260 . S
O58 In52 2.266 . S
O58 C55 1.252 . S
O59 In52 2.326 . S
O59 C55 1.260 . S
O60 In52 2.266 . S
O60 C57 1.252 . S
O61 In52 2.326 . S
O61 C57 1.260 . S
C62 O53 1.240 . S
C62 O54 1.252 . S
O63 In52 2.294 . S
O63 C56 1.240 . S
O64 In52 2.326 . S
O64 C56 1.252 . S
In65 O66 2.294 . S
In65 O67 2.326 . S
In65 O71 2.266 . S
In65 O72 2.326 . S
In65 O73 2.266 . S
In65 O74 2.326 . S
In65 O76 2.294 . S
In65 O77 2.326 . S
O66 In65 2.294 . S
O66 C75 1.240 . S
O67 In65 2.326 . S
O67 C75 1.252 . S
C68 O71 1.252 . S
C68 O72 1.260 . S
C69 O76 1.240 . S
C69 O77 1.252 . S
C70 O73 1.252 . S
C70 O74 1.260 . S
O71 In65 2.266 . S
O71 C68 1.252 . S
O72 In65 2.326 . S
O72 C68 1.260 . S
O73 In65 2.266 . S
O73 C70 1.252 . S
O74 In65 2.326 . S
O74 C70 1.260 . S
C75 O66 1.240 . S
C75 O67 1.252 . S
O76 In65 2.294 . S
O76 C69 1.240 . S
O77 In65 2.326 . S
O77 C69 1.252 . S
In78 O79 2.294 . S
In78 O80 2.326 . S
In78 O84 2.266 . S
In78 O85 2.326 . S
In78 O86 2.266 . S
In78 O87 2.326 . S
In78 O89 2.294 . S
In78 O90 2.326 . S
O79 In78 2.294 . S
O79 C88 1.240 . S
O80 In78 2.326 . S
O80 C88 1.252 . S
C81 O84 1.252 . S
C81 O85 1.260 . S
C82 O89 1.240 . S
C82 O90 1.252 . S
C83 O86 1.252 . S
C83 O87 1.260 . S
O84 In78 2.266 . S
O84 C81 1.252 . S
O85 In78 2.326 . S
O85 C81 1.260 . S
O86 In78 2.266 . S
O86 C83 1.252 . S
O87 In78 2.326 . S
O87 C83 1.260 . S
C88 O79 1.240 . S
C88 O80 1.252 . S
O89 In78 2.294 . S
O89 C82 1.240 . S
O90 In78 2.326 . S
O90 C82 1.252 . S
In91 O92 2.294 . S
In91 O93 2.326 . S
In91 O97 2.266 . S
In91 O98 2.326 . S
In91 O99 2.266 . S
In91 O100 2.326 . S
In91 O102 2.294 . S
In91 O103 2.326 . S
O92 In91 2.294 . S
O92 C101 1.240 . S
O93 In91 2.326 . S
O93 C101 1.252 . S
C94 O97 1.252 . S
C94 O98 1.260 . S
C95 O102 1.240 . S
C95 O103 1.252 . S
C96 O99 1.252 . S
C96 O100 1.260 . S
O97 In91 2.266 . S
O97 C94 1.252 . S
O98 In91 2.326 . S
O98 C94 1.260 . S
O99 In91 2.266 . S
O99 C96 1.252 . S
O100 In91 2.326 . S
O100 C96 1.260 . S
C101 O92 1.240 . S
C101 O93 1.252 . S
O102 In91 2.294 . S
O102 C95 1.240 . S
O103 In91 2.326 . S
O103 C95 1.252 . S
C104 C105 1.387 . S
C104 H108 0.950 . S
C104 C113 1.390 1_445 S
C105 C104 1.387 . S
C105 C107 1.387 . S
H106 C113 0.950 . S
C107 C105 1.387 . S
C107 C109 1.390 1_445 S
C107 H111 0.950 . S
H108 C104 0.950 . S
C109 C107 1.390 1_665 S
C109 C110 1.387 . S
C109 H112 0.950 . S
C110 C109 1.387 . S
C110 C113 1.387 . S
H111 C107 0.950 . S
H112 C109 0.950 . S
C113 C104 1.390 1_665 S
C113 H106 0.950 . S
C113 C110 1.387 . S
C114 C115 1.387 . S
C114 H118 0.950 . S
C114 C123 1.390 . S
C115 C114 1.387 . S
C115 C117 1.387 . S
H116 C123 0.950 . S
C117 C115 1.387 . S
C117 C119 1.390 . S
C117 H121 0.950 . S
H118 C114 0.950 . S
C119 C117 1.390 . S
C119 C120 1.387 . S
C119 H122 0.950 . S
C120 C119 1.387 . S
C120 C123 1.387 . S
H121 C117 0.950 . S
H122 C119 0.950 . S
C123 C114 1.390 . S
C123 H116 0.950 . S
C123 C120 1.387 . S
C124 C125 1.387 . S
C124 H128 0.950 . S
C124 C133 1.390 . S
C125 C124 1.387 . S
C125 C127 1.387 . S
H126 C133 0.950 . S
C127 C125 1.387 . S
C127 C129 1.390 . S
C127 H131 0.950 . S
H128 C124 0.950 . S
C129 C127 1.390 . S
C129 C130 1.387 . S
C129 H132 0.950 . S
C130 C129 1.387 . S
C130 C133 1.387 . S
H131 C127 0.950 . S
H132 C129 0.950 . S
C133 C124 1.390 . S
C133 H126 0.950 . S
C133 C130 1.387 . S
C134 C135 1.387 . S
C134 H138 0.950 . S
C134 C143 1.390 1_445 S
C135 C134 1.387 . S
C135 C137 1.387 . S
H136 C143 0.950 . S
C137 C135 1.387 . S
C137 C139 1.390 1_445 S
C137 H141 0.950 . S
H138 C134 0.950 . S
C139 C137 1.390 1_665 S
C139 C140 1.387 . S
C139 H142 0.950 . S
C140 C139 1.387 . S
C140 C143 1.387 . S
H141 C137 0.950 . S
H142 C139 0.950 . S
C143 C134 1.390 1_665 S
C143 H136 0.950 . S
C143 C140 1.387 . S
C144 C145 1.387 . S
C144 H148 0.950 . S
C144 C153 1.390 . S
C145 C144 1.387 . S
C145 C147 1.387 . S
H146 C153 0.950 . S
C147 C145 1.387 . S
C147 C149 1.390 . S
C147 H151 0.950 . S
H148 C144 0.950 . S
C149 C147 1.390 . S
C149 C150 1.387 . S
C149 H152 0.950 . S
C150 C149 1.387 . S
C150 C153 1.387 . S
H151 C147 0.950 . S
H152 C149 0.950 . S
C153 C144 1.390 . S
C153 H146 0.950 . S
C153 C150 1.387 . S
C154 C155 1.387 . S
C154 H158 0.950 . S
C154 C163 1.390 1_556 S
C155 C154 1.387 . S
C155 C157 1.387 . S
H156 C163 0.950 . S
C157 C155 1.387 . S
C157 C159 1.390 1_556 S
C157 H161 0.950 . S
H158 C154 0.950 . S
C159 C157 1.390 1_554 S
C159 C160 1.387 . S
C159 H162 0.950 . S
C160 C159 1.387 . S
C160 C163 1.387 . S
H161 C157 0.950 . S
H162 C159 0.950 . S
C163 C154 1.390 1_554 S
C163 H156 0.950 . S
C163 C160 1.387 . S
C164 C165 1.387 . S
C164 H168 0.950 . S
C164 C173 1.390 . S
C165 C164 1.387 . S
C165 C167 1.387 . S
H166 C173 0.950 . S
C167 C165 1.387 . S
C167 C169 1.390 . S
C167 H171 0.950 . S
H168 C164 0.950 . S
C169 C167 1.390 . S
C169 C170 1.387 . S
C169 H172 0.950 . S
C170 C169 1.387 . S
C170 C173 1.387 . S
H171 C167 0.950 . S
H172 C169 0.950 . S
C173 C164 1.390 . S
C173 H166 0.950 . S
C173 C170 1.387 . S
C174 C175 1.387 . S
C174 H178 0.950 . S
C174 C183 1.390 1_556 S
C175 C174 1.387 . S
C175 C177 1.387 . S
H176 C183 0.950 . S
C177 C175 1.387 . S
C177 C179 1.390 1_556 S
C177 H181 0.950 . S
H178 C174 0.950 . S
C179 C177 1.390 1_554 S
C179 C180 1.387 . S
C179 H182 0.950 . S
C180 C179 1.387 . S
C180 C183 1.387 . S
H181 C177 0.950 . S
H182 C179 0.950 . S
C183 C174 1.390 1_554 S
C183 H176 0.950 . S
C183 C180 1.387 . S
C184 C185 1.387 . S
C184 H188 0.950 . S
C184 C193 1.390 . S
C185 C184 1.387 . S
C185 C187 1.387 . S
H186 C193 0.950 . S
C187 C185 1.387 . S
C187 C189 1.390 . S
C187 H191 0.950 . S
H188 C184 0.950 . S
C189 C187 1.390 . S
C189 C190 1.387 . S
C189 H192 0.950 . S
C190 C189 1.387 . S
C190 C193 1.387 . S
H191 C187 0.950 . S
H192 C189 0.950 . S
C193 C184 1.390 . S
C193 H186 0.950 . S
C193 C190 1.387 . S
C194 C195 1.387 . S
C194 H198 0.950 . S
C194 C203 1.390 . S
C195 C194 1.387 . S
C195 C197 1.387 . S
H196 C203 0.950 . S
C197 C195 1.387 . S
C197 C199 1.390 . S
C197 H201 0.950 . S
H198 C194 0.950 . S
C199 C197 1.390 . S
C199 C200 1.387 . S
C199 H202 0.950 . S
C200 C199 1.387 . S
C200 C203 1.387 . S
H201 C197 0.950 . S
H202 C199 0.950 . S
C203 C194 1.390 . S
C203 H196 0.950 . S
C203 C200 1.387 . S
C204 C205 1.387 . S
C204 H208 0.950 . S
C204 C213 1.390 . S
C205 C204 1.387 . S
C205 C207 1.387 . S
H206 C213 0.950 . S
C207 C205 1.387 . S
C207 C209 1.390 . S
C207 H211 0.950 . S
H208 C204 0.950 . S
C209 C207 1.390 . S
C209 C210 1.387 . S
C209 H212 0.950 . S
C210 C209 1.387 . S
C210 C213 1.387 . S
H211 C207 0.950 . S
H212 C209 0.950 . S
C213 C204 1.390 . S
C213 H206 0.950 . S
C213 C210 1.387 . S
C214 C215 1.387 . S
C214 H218 0.950 . S
C214 C223 1.390 . S
C215 C214 1.387 . S
C215 C217 1.387 . S
H216 C223 0.950 . S
C217 C215 1.387 . S
C217 C219 1.390 . S
C217 H221 0.950 . S
H218 C214 0.950 . S
C219 C217 1.390 . S
C219 C220 1.387 . S
C219 H222 0.950 . S
C220 C219 1.387 . S
C220 C223 1.387 . S
H221 C217 0.950 . S
H222 C219 0.950 . S
C223 C214 1.390 . S
C223 H216 0.950 . S
C223 C220 1.387 . S
C224 C225 1.387 . S
C224 H228 0.950 . S
C224 C233 1.390 . S
C225 C224 1.387 . S
C225 C227 1.387 . S
H226 C233 0.950 . S
C227 C225 1.387 . S
C227 C229 1.390 . S
C227 H231 0.950 . S
H228 C224 0.950 . S
C229 C227 1.390 . S
C229 C230 1.387 . S
C229 H232 0.950 . S
C230 C229 1.387 . S
C230 C233 1.387 . S
H231 C227 0.950 . S
H232 C229 0.950 . S
C233 C224 1.390 . S
C233 H226 0.950 . S
C233 C230 1.387 . S
C234 C235 1.387 . S
C234 H238 0.950 . S
C234 C243 1.390 . S
C235 C234 1.387 . S
C235 C237 1.387 . S
H236 C243 0.950 . S
C237 C235 1.387 . S
C237 C239 1.390 . S
C237 H241 0.950 . S
H238 C234 0.950 . S
C239 C237 1.390 . S
C239 C240 1.387 . S
C239 H242 0.950 . S
C240 C239 1.387 . S
C240 C243 1.387 . S
H241 C237 0.950 . S
H242 C239 0.950 . S
C243 C234 1.390 . S
C243 H236 0.950 . S
C243 C240 1.387 . S
C244 C245 1.387 . S
C244 H248 0.950 . S
C244 C253 1.390 . S
C245 C244 1.387 . S
C245 C247 1.387 . S
H246 C253 0.950 . S
C247 C245 1.387 . S
C247 C249 1.390 . S
C247 H251 0.950 . S
H248 C244 0.950 . S
C249 C247 1.390 . S
C249 C250 1.387 . S
C249 H252 0.950 . S
C250 C249 1.387 . S
C250 C253 1.387 . S
H251 C247 0.950 . S
H252 C249 0.950 . S
C253 C244 1.390 . S
C253 H246 0.950 . S
C253 C250 1.387 . S
C254 C255 1.387 . S
C254 H258 0.950 . S
C254 C263 1.390 . S
C255 C254 1.387 . S
C255 C257 1.387 . S
H256 C263 0.950 . S
C257 C255 1.387 . S
C257 C259 1.390 . S
C257 H261 0.950 . S
H258 C254 0.950 . S
C259 C257 1.390 . S
C259 C260 1.387 . S
C259 H262 0.950 . S
C260 C259 1.387 . S
C260 C263 1.387 . S
H261 C257 0.950 . S
H262 C259 0.950 . S
C263 C254 1.390 . S
C263 H256 0.950 . S
C263 C260 1.387 . S
C105 C5 1.014 . S
C110 C29 1.014 . S
C115 C16 1.013 . S
C120 C42 1.013 . S
C125 C55 1.013 . S
C130 C81 1.013 . S
C135 C68 1.013 . S
C140 C94 1.013 . S
C145 C10 1.553 . S
C150 C69 1.551 . S
C155 C17 1.553 . S
C160 C82 1.552 . S
C165 C95 1.551 . S
C170 C30 1.552 . S
C175 C43 1.552 . S
C180 C56 1.552 . S
C185 C57 1.729 . S
C190 C4 1.771 . S
C195 C23 1.773 . S
C200 C70 1.731 1_565 S
C205 C36 1.772 . S
C210 C83 1.730 . S
C215 C49 1.770 . S
C220 C96 1.728 1_545 S
C225 C3 1.729 1_655 S
C230 C62 1.771 . S
C235 C75 1.772 . S
C240 C18 1.731 . S
C245 C88 1.772 . S
C250 C31 1.730 1_455 S
C255 C44 1.730 . S
C260 C101 1.772 . S
