# Generated by pormake.
# Topology pcb, (4)-cn, num edge types: 1
# Building blocks:
#     Node 0, Type 0, BuildingBlock: GALJAG_clean_sbu_0, # of connection points: 4
#     Node 1, Type 0, BuildingBlock: GALJAG_clean_sbu_0, # of connection points: 4
#     Node 2, Type 0, BuildingBlock: GALJAG_clean_sbu_0, # of connection points: 4
#     Node 3, Type 0, BuildingBlock: GALJAG_clean_sbu_0, # of connection points: 4
#     Node 4, Type 0, BuildingBlock: GALJAG_clean_sbu_0, # of connection points: 4
#     Node 5, Type 0, BuildingBlock: GALJAG_clean_sbu_0, # of connection points: 4
#     Node 6, Type 0, BuildingBlock: GALJAG_clean_sbu_0, # of connection points: 4
#     Node 7, Type 0, BuildingBlock: GALJAG_clean_sbu_0, # of connection points: 4
#     Node 8, Type 0, BuildingBlock: GALJAG_clean_sbu_0, # of connection points: 4
#     Node 9, Type 0, BuildingBlock: GALJAG_clean_sbu_0, # of connection points: 4
#     Node 10, Type 0, BuildingBlock: GALJAG_clean_sbu_0, # of connection points: 4
#     Node 11, Type 0, BuildingBlock: GALJAG_clean_sbu_0, # of connection points: 4
#     Node 12, Type 0, BuildingBlock: GALJAG_clean_sbu_0, # of connection points: 4
#     Node 13, Type 0, BuildingBlock: GALJAG_clean_sbu_0, # of connection points: 4
#     Node 14, Type 0, BuildingBlock: GALJAG_clean_sbu_0, # of connection points: 4
#     Node 15, Type 0, BuildingBlock: GALJAG_clean_sbu_0, # of connection points: 4
#     Edge 16, Type (0, 0), BuildingBlock: ZUJKAS_clean_linker_0, # of connection points: 2
#     Edge 17, Type (0, 0), BuildingBlock: ZUJKAS_clean_linker_0, # of connection points: 2
#     Edge 18, Type (0, 0), BuildingBlock: ZUJKAS_clean_linker_0, # of connection points: 2
#     Edge 19, Type (0, 0), BuildingBlock: ZUJKAS_clean_linker_0, # of connection points: 2
#     Edge 20, Type (0, 0), BuildingBlock: ZUJKAS_clean_linker_0, # of connection points: 2
#     Edge 21, Type (0, 0), BuildingBlock: ZUJKAS_clean_linker_0, # of connection points: 2
#     Edge 22, Type (0, 0), BuildingBlock: ZUJKAS_clean_linker_0, # of connection points: 2
#     Edge 23, Type (0, 0), BuildingBlock: ZUJKAS_clean_linker_0, # of connection points: 2
#     Edge 24, Type (0, 0), BuildingBlock: ZUJKAS_clean_linker_0, # of connection points: 2
#     Edge 25, Type (0, 0), BuildingBlock: ZUJKAS_clean_linker_0, # of connection points: 2
#     Edge 26, Type (0, 0), BuildingBlock: ZUJKAS_clean_linker_0, # of connection points: 2
#     Edge 27, Type (0, 0), BuildingBlock: ZUJKAS_clean_linker_0, # of connection points: 2
#     Edge 28, Type (0, 0), BuildingBlock: ZUJKAS_clean_linker_0, # of connection points: 2
#     Edge 29, Type (0, 0), BuildingBlock: ZUJKAS_clean_linker_0, # of connection points: 2
#     Edge 30, Type (0, 0), BuildingBlock: ZUJKAS_clean_linker_0, # of connection points: 2
#     Edge 31, Type (0, 0), BuildingBlock: ZUJKAS_clean_linker_0, # of connection points: 2
#     Edge 32, Type (0, 0), BuildingBlock: ZUJKAS_clean_linker_0, # of connection points: 2
#     Edge 33, Type (0, 0), BuildingBlock: ZUJKAS_clean_linker_0, # of connection points: 2
#     Edge 34, Type (0, 0), BuildingBlock: ZUJKAS_clean_linker_0, # of connection points: 2
#     Edge 35, Type (0, 0), BuildingBlock: ZUJKAS_clean_linker_0, # of connection points: 2
#     Edge 36, Type (0, 0), BuildingBlock: ZUJKAS_clean_linker_0, # of connection points: 2
#     Edge 37, Type (0, 0), BuildingBlock: ZUJKAS_clean_linker_0, # of connection points: 2
#     Edge 38, Type (0, 0), BuildingBlock: ZUJKAS_clean_linker_0, # of connection points: 2
#     Edge 39, Type (0, 0), BuildingBlock: ZUJKAS_clean_linker_0, # of connection points: 2
#     Edge 40, Type (0, 0), BuildingBlock: ZUJKAS_clean_linker_0, # of connection points: 2
#     Edge 41, Type (0, 0), BuildingBlock: ZUJKAS_clean_linker_0, # of connection points: 2
#     Edge 42, Type (0, 0), BuildingBlock: ZUJKAS_clean_linker_0, # of connection points: 2
#     Edge 43, Type (0, 0), BuildingBlock: ZUJKAS_clean_linker_0, # of connection points: 2
#     Edge 44, Type (0, 0), BuildingBlock: ZUJKAS_clean_linker_0, # of connection points: 2
#     Edge 45, Type (0, 0), BuildingBlock: ZUJKAS_clean_linker_0, # of connection points: 2
#     Edge 46, Type (0, 0), BuildingBlock: ZUJKAS_clean_linker_0, # of connection points: 2
#     Edge 47, Type (0, 0), BuildingBlock: ZUJKAS_clean_linker_0, # of connection points: 2
# Relax obj value: 0.356
# Max RMSD: 0.193
# Mean RMSD: 0.171
data_MOF--net-pcb--node1-GALJAG_clean_sbu_0--edge1-ZUJKAS_clean_linker_0
_symmetry_space_group_name_H-M    P1
_symmetry_Int_Tables_number       1
_symmetry_cell_setting            triclinic
loop_
_symmetry_equiv_pos_as_xyz
'x, y, z'
_cell_length_a     49.177958
_cell_length_b     61.988792
_cell_length_c     61.978338
_cell_angle_alpha  99.183361
_cell_angle_beta   95.934832
_cell_angle_gamma 95.926689
loop_
_atom_site_label
_atom_site_type_symbol
_atom_site_fract_x
_atom_site_fract_y
_atom_site_fract_z
_atom_type_partial_charge
In0 In 0.26667 0.14132 0.12404 0.0
O1 O 0.28803 0.15655 0.15822 0.0
O2 O 0.28361 0.17747 0.13449 0.0
C3 C 0.27917 0.10047 0.12661 0.0
C4 C 0.21393 0.1411 0.13291 0.0
C5 C 0.27637 0.14958 0.08397 0.0
O6 O 0.29669 0.11729 0.13297 0.0
O7 O 0.25586 0.10438 0.11873 0.0
O8 O 0.25767 0.15733 0.09413 0.0
O9 O 0.29078 0.13782 0.09418 0.0
C10 C 0.29074 0.17594 0.15426 0.0
O11 O 0.22002 0.13616 0.11359 0.0
O12 O 0.2343 0.14558 0.14761 0.0
In13 In 0.87886 0.15661 0.17324 0.0
O14 O 0.87656 0.18678 0.19953 0.0
O15 O 0.84343 0.16082 0.19326 0.0
C16 C 0.9332 0.15825 0.16972 0.0
C17 C 0.86988 0.11474 0.17965 0.0
C18 C 0.8553 0.17109 0.1379 0.0
O19 O 0.92434 0.16631 0.18732 0.0
O20 O 0.91473 0.14975 0.15419 0.0
O21 O 0.8472 0.15276 0.14292 0.0
O22 O 0.87535 0.1821 0.15067 0.0
C23 C 0.85321 0.17947 0.204 0.0
O24 O 0.86369 0.12039 0.16123 0.0
O25 O 0.88095 0.1302 0.19478 0.0
In26 In 0.79338 0.84749 0.14669 0.0
O27 O 0.77879 0.83659 0.17746 0.0
O28 O 0.77513 0.8126 0.14844 0.0
C29 C 0.79519 0.88873 0.16919 0.0
C30 C 0.84654 0.84278 0.14199 0.0
C31 C 0.76433 0.84394 0.10661 0.0
O32 O 0.77764 0.88105 0.15271 0.0
O33 O 0.81109 0.87534 0.17475 0.0
O34 O 0.78984 0.84265 0.10937 0.0
O35 O 0.75321 0.84687 0.12414 0.0
C36 C 0.77172 0.81681 0.16848 0.0
O37 O 0.8305 0.82808 0.14773 0.0
O38 O 0.83562 0.85954 0.13825 0.0
In39 In 0.19395 0.84718 0.14574 0.0
O40 O 0.1537 0.86241 0.14686 0.0
O41 O 0.15138 0.82764 0.1432 0.0
C42 C 0.22744 0.88547 0.15559 0.0
C43 C 0.21159 0.8268 0.17884 0.0
C44 C 0.19724 0.83441 0.10251 0.0
O45 O 0.20249 0.88378 0.15894 0.0
O46 O 0.23585 0.8676 0.1478 0.0
O47 O 0.1986 0.82119 0.116 0.0
O48 O 0.19438 0.85381 0.11087 0.0
C49 C 0.13859 0.84431 0.14473 0.0
O50 O 0.21635 0.82085 0.15928 0.0
O51 O 0.19835 0.84317 0.18167 0.0
In52 In 0.1145 0.81559 0.83205 0.0
O53 O 0.12801 0.78164 0.82203 0.0
O54 O 0.12877 0.80333 0.79888 0.0
C55 C 0.05971 0.81539 0.83342 0.0
C56 C 0.13588 0.81199 0.87292 0.0
C57 C 0.13493 0.85355 0.82065 0.0
O58 O 0.06927 0.80333 0.81835 0.0
O59 O 0.07767 0.82709 0.84761 0.0
O60 O 0.14969 0.84233 0.8313 0.0
O61 O 0.1099 0.84568 0.81597 0.0
C62 C 0.13405 0.78504 0.8035 0.0
O63 O 0.13877 0.8298 0.8655 0.0
O64 O 0.12219 0.79603 0.85973 0.0
In65 In 0.1853 0.11482 0.81186 0.0
O66 O 0.1394 0.10677 0.81364 0.0
O67 O 0.15718 0.14004 0.82391 0.0
C68 C 0.19019 0.07262 0.79533 0.0
C69 C 0.20178 0.13744 0.78081 0.0
C70 C 0.21072 0.12276 0.85352 0.0
O71 O 0.16791 0.08085 0.79283 0.0
O72 O 0.21028 0.08591 0.8055 0.0
O73 O 0.2146 0.13589 0.84023 0.0
O74 O 0.19414 0.10573 0.84576 0.0
C75 C 0.1358 0.1263 0.82109 0.0
O76 O 0.21841 0.13291 0.79584 0.0
O77 O 0.17701 0.13008 0.78113 0.0
In78 In 0.81689 0.18208 0.8791 0.0
O79 O 0.86359 0.18692 0.88801 0.0
O80 O 0.84759 0.17255 0.85514 0.0
C81 C 0.80688 0.19893 0.92 0.0
C82 C 0.79719 0.20713 0.85065 0.0
C83 C 0.79744 0.1395 0.87756 0.0
O84 O 0.82979 0.20286 0.91306 0.0
O85 O 0.7886 0.18727 0.90595 0.0
O86 O 0.78331 0.15272 0.86932 0.0
O87 O 0.82119 0.1478 0.88655 0.0
C88 C 0.86861 0.17875 0.86908 0.0
O89 O 0.79217 0.18645 0.84735 0.0
O90 O 0.81171 0.21535 0.86862 0.0
In91 In 0.72757 0.86293 0.85221 0.0
O92 O 0.70703 0.831 0.83045 0.0
O93 O 0.71095 0.85974 0.81603 0.0
C94 C 0.70387 0.84946 0.88591 0.0
C95 C 0.78034 0.85573 0.84886 0.0
C96 C 0.73011 0.90712 0.86067 0.0
O97 O 0.69485 0.86409 0.87607 0.0
O98 O 0.72386 0.84118 0.87811 0.0
O99 O 0.74896 0.89683 0.86783 0.0
O100 O 0.70957 0.89508 0.84944 0.0
C101 C 0.70426 0.83923 0.81313 0.0
O102 O 0.76506 0.86127 0.83361 0.0
O103 O 0.76928 0.85437 0.86616 0.0
In104 In 0.76271 0.64057 0.6341 0.0
O105 O 0.78704 0.66726 0.661 0.0
O106 O 0.76515 0.67712 0.63362 0.0
C107 C 0.78369 0.60629 0.64909 0.0
C108 C 0.71025 0.64148 0.64283 0.0
C109 C 0.76769 0.63304 0.59084 0.0
O110 O 0.79765 0.61913 0.6394 0.0
O111 O 0.75991 0.61116 0.65164 0.0
O112 O 0.74756 0.62437 0.59888 0.0
O113 O 0.78561 0.64542 0.60471 0.0
C114 C 0.77919 0.68296 0.6522 0.0
O115 O 0.71627 0.636 0.62354 0.0
O116 O 0.73059 0.64591 0.65762 0.0
In117 In 0.3733 0.65734 0.672 0.0
O118 O 0.33269 0.6593 0.68519 0.0
O119 O 0.36479 0.68505 0.69897 0.0
C120 C 0.42815 0.66051 0.67135 0.0
C121 C 0.36443 0.6163 0.68066 0.0
C122 C 0.35636 0.67214 0.63501 0.0
O123 O 0.41771 0.66961 0.68777 0.0
O124 O 0.41097 0.65022 0.65564 0.0
O125 O 0.35176 0.65217 0.63701 0.0
O126 O 0.36958 0.68465 0.6517 0.0
C127 C 0.34002 0.67692 0.69865 0.0
O128 O 0.35558 0.62137 0.66248 0.0
O129 O 0.37831 0.63187 0.69429 0.0
In130 In 0.29919 0.35284 0.65754 0.0
O131 O 0.33747 0.35314 0.63956 0.0
O132 O 0.34175 0.34753 0.67258 0.0
C133 C 0.27219 0.35113 0.61712 0.0
C134 C 0.27876 0.31686 0.67249 0.0
C135 C 0.29599 0.39306 0.68115 0.0
O136 O 0.29573 0.36179 0.62336 0.0
O137 O 0.2622 0.34115 0.63128 0.0
O138 O 0.31417 0.38122 0.68606 0.0
O139 O 0.27868 0.38424 0.66495 0.0
C140 C 0.35327 0.34961 0.65566 0.0
O141 O 0.27342 0.3359 0.68008 0.0
O142 O 0.294 0.31608 0.65731 0.0
In143 In 0.69758 0.34467 0.64538 0.0
O144 O 0.71225 0.31449 0.65768 0.0
O145 O 0.71604 0.34438 0.68053 0.0
C146 C 0.69776 0.32229 0.60426 0.0
C147 C 0.64415 0.3485 0.64988 0.0
C148 C 0.72547 0.38518 0.649 0.0
O149 O 0.71543 0.33844 0.61269 0.0
O150 O 0.68074 0.31689 0.61689 0.0
O151 O 0.69969 0.38188 0.64875 0.0
O152 O 0.73737 0.36801 0.64757 0.0
C153 C 0.71956 0.32432 0.67718 0.0
O154 O 0.65541 0.35361 0.63373 0.0
O155 O 0.65996 0.34177 0.66405 0.0
In156 In 0.62683 0.32421 0.33585 0.0
O157 O 0.64074 0.3355 0.37237 0.0
O158 O 0.62597 0.30158 0.36136 0.0
C159 C 0.64133 0.36094 0.31972 0.0
C160 C 0.66173 0.29896 0.31661 0.0
C161 C 0.57165 0.32294 0.33214 0.0
O162 O 0.64816 0.35915 0.33951 0.0
O163 O 0.62709 0.34421 0.30809 0.0
O164 O 0.58311 0.30777 0.32182 0.0
O165 O 0.588 0.3383 0.34397 0.0
C166 C 0.63569 0.31662 0.37734 0.0
O167 O 0.63611 0.29574 0.31025 0.0
O168 O 0.66922 0.3146 0.33246 0.0
In169 In 0.68333 0.62179 0.32078 0.0
O170 O 0.70729 0.65384 0.31618 0.0
O171 O 0.69009 0.63118 0.28744 0.0
C172 C 0.7074 0.62269 0.36207 0.0
C173 C 0.63258 0.63301 0.32654 0.0
C174 C 0.68779 0.58059 0.30084 0.0
O175 O 0.72043 0.62949 0.34747 0.0
O176 O 0.68241 0.61556 0.35581 0.0
O177 O 0.66734 0.59047 0.29628 0.0
O178 O 0.70641 0.59176 0.31494 0.0
C179 C 0.70354 0.64965 0.29544 0.0
O180 O 0.63725 0.61332 0.32165 0.0
O181 O 0.65348 0.64708 0.32845 0.0
In182 In 0.30566 0.67402 0.37128 0.0
O183 O 0.34819 0.66434 0.38089 0.0
O184 O 0.34422 0.68398 0.3559 0.0
C185 C 0.30226 0.68934 0.41409 0.0
C186 C 0.28218 0.69764 0.34311 0.0
C187 C 0.28055 0.63231 0.36061 0.0
O188 O 0.31871 0.69873 0.4032 0.0
O189 O 0.28722 0.67264 0.40326 0.0
O190 O 0.26766 0.6484 0.36651 0.0
O191 O 0.3059 0.63733 0.35985 0.0
C192 C 0.35983 0.67409 0.36732 0.0
O193 O 0.28904 0.6788 0.33702 0.0
O194 O 0.28672 0.70453 0.36358 0.0
In195 In 0.23927 0.36276 0.3547 0.0
O196 O 0.28291 0.37148 0.3465 0.0
O197 O 0.27254 0.33988 0.35465 0.0
C198 C 0.23092 0.40524 0.35692 0.0
C199 C 0.21706 0.33621 0.31706 0.0
C200 C 0.2268 0.35491 0.39427 0.0
O201 O 0.25289 0.39929 0.36511 0.0
O202 O 0.21278 0.38967 0.34765 0.0
O203 O 0.20821 0.35493 0.37859 0.0
O204 O 0.25104 0.35888 0.38984 0.0
C205 C 0.29052 0.35306 0.34886 0.0
O206 O 0.21512 0.33084 0.3357 0.0
O207 O 0.22798 0.35564 0.31767 0.0
H208 H 0.20803 0.29153 0.31323 0.0
H209 H 0.22006 0.26507 0.28314 0.0
H210 H 0.23353 0.31694 0.24523 0.0
H211 H 0.22193 0.34361 0.27538 0.0
H212 H 0.20453 0.2519 0.23692 0.0
H213 H 0.3104 0.29668 0.25754 0.0
H214 H 0.28363 0.30125 0.27499 0.0
H215 H 0.28404 0.31324 0.25046 0.0
C216 C 0.21259 0.29719 0.29819 0.0
C217 C 0.21456 0.31969 0.29679 0.0
C218 C 0.21961 0.28206 0.28106 0.0
C219 C 0.22851 0.28926 0.26234 0.0
C220 C 0.22736 0.31124 0.25984 0.0
H221 H 0.29147 0.21912 0.15003 0.0
H222 H 0.27967 0.2484 0.17763 0.0
C223 C 0.22048 0.32639 0.27698 0.0
C224 C 0.24173 0.27437 0.24672 0.0
H225 H 0.3036 0.26665 0.22798 0.0
C226 C 0.22614 0.25513 0.23491 0.0
C227 C 0.27007 0.27857 0.24441 0.0
C228 C 0.28815 0.29844 0.25764 0.0
C229 C 0.2381 0.24005 0.22057 0.0
C230 C 0.26635 0.24432 0.21823 0.0
C231 C 0.28195 0.26356 0.22992 0.0
C232 C 0.27973 0.22878 0.2035 0.0
C233 C 0.22051 0.21965 0.20792 0.0
C234 C 0.28535 0.2087 0.20951 0.0
C235 C 0.29234 0.19202 0.19388 0.0
C236 C 0.29347 0.19521 0.17202 0.0
C237 C 0.29066 0.21617 0.16673 0.0
C238 C 0.28378 0.23287 0.18241 0.0
H239 H 0.19825 0.22025 0.20932 0.0
H240 H 0.22357 0.21748 0.19023 0.0
H241 H 0.22681 0.20498 0.21438 0.0
H242 H 0.28251 0.20543 0.22584 0.0
H243 H 0.29444 0.17607 0.19846 0.0
H244 H 0.71621 0.30132 0.33067 0.0
H245 H 0.75055 0.28131 0.31313 0.0
H246 H 0.68764 0.24733 0.26183 0.0
H247 H 0.65292 0.26744 0.27933 0.0
H248 H 0.75114 0.23453 0.30267 0.0
H249 H 0.74865 0.27589 0.22928 0.0
H250 H 0.73487 0.28686 0.25409 0.0
H251 H 0.71582 0.26407 0.23513 0.0
C252 C 0.70962 0.28957 0.31567 0.0
C253 C 0.68191 0.28599 0.30628 0.0
C254 C 0.72927 0.27815 0.30571 0.0
C255 C 0.72163 0.26309 0.28611 0.0
C256 C 0.69392 0.25915 0.27684 0.0
H257 H 0.80714 0.16408 0.21997 0.0
H258 H 0.77753 0.18528 0.24205 0.0
C259 C 0.67413 0.27053 0.28687 0.0
C260 C 0.74286 0.25159 0.27549 0.0
H261 H 0.77583 0.24649 0.22948 0.0
C262 C 0.75661 0.23715 0.28669 0.0
C263 C 0.75021 0.25542 0.25486 0.0
C264 C 0.73683 0.27153 0.24264 0.0
C265 C 0.77714 0.22593 0.27748 0.0
C266 C 0.78384 0.2292 0.25652 0.0
C267 C 0.77057 0.24406 0.24556 0.0
C268 C 0.80329 0.21633 0.24501 0.0
C269 C 0.79152 0.21069 0.2902 0.0
C270 C 0.82761 0.22684 0.23943 0.0
C271 C 0.84469 0.21472 0.22683 0.0
C272 C 0.83735 0.19204 0.2194 0.0
C273 C 0.81331 0.18155 0.22548 0.0
C274 C 0.79643 0.19359 0.23817 0.0
H275 H 0.78921 0.21428 0.30802 0.0
H276 H 0.78237 0.19345 0.28375 0.0
H277 H 0.8138 0.21197 0.28828 0.0
H278 H 0.83308 0.24443 0.2445 0.0
H279 H 0.86303 0.22321 0.22226 0.0
H280 H 0.75295 0.77378 0.15207 0.0
H281 H 0.73947 0.7448 0.17283 0.0
H282 H 0.75595 0.79192 0.23328 0.0
H283 H 0.76884 0.82105 0.2126 0.0
H284 H 0.77184 0.7304 0.2047 0.0
H285 H 0.68064 0.76156 0.2387 0.0
H286 H 0.6957 0.77221 0.2166 0.0
H287 H 0.71078 0.78145 0.2447 0.0
C288 C 0.75333 0.778 0.16976 0.0
C289 C 0.76183 0.79966 0.18074 0.0
C290 C 0.74568 0.76144 0.18158 0.0
C291 C 0.74637 0.76628 0.20454 0.0
C292 C 0.75465 0.78794 0.21551 0.0
H293 H 0.72817 0.69171 0.3093 0.0
H294 H 0.73949 0.71938 0.28648 0.0
C295 C 0.76215 0.80453 0.2037 0.0
C296 C 0.73995 0.74845 0.21715 0.0
H297 H 0.69903 0.73266 0.25449 0.0
C298 C 0.75576 0.73077 0.21544 0.0
C299 C 0.71896 0.74902 0.23113 0.0
C300 C 0.70036 0.76697 0.23276 0.0
C301 C 0.75157 0.71389 0.22778 0.0
C302 C 0.73095 0.71471 0.24204 0.0
C303 C 0.71496 0.73223 0.24361 0.0
C304 C 0.72562 0.69756 0.25557 0.0
C305 C 0.76958 0.69556 0.22591 0.0
C306 C 0.71424 0.67617 0.24563 0.0
C307 C 0.70769 0.66035 0.2586 0.0
C308 C 0.71245 0.66574 0.28168 0.0
C309 C 0.72437 0.68708 0.29155 0.0
C310 C 0.73077 0.70289 0.27858 0.0
H311 H 0.78785 0.69953 0.21745 0.0
H312 H 0.77673 0.6921 0.24246 0.0
H313 H 0.75746 0.68033 0.21631 0.0
H314 H 0.70983 0.67187 0.22788 0.0
H315 H 0.69843 0.64405 0.25057 0.0
H316 H 0.26627 0.73878 0.35203 0.0
H317 H 0.2512 0.76167 0.32534 0.0
H318 H 0.25977 0.7098 0.27202 0.0
H319 H 0.27424 0.68676 0.29847 0.0
H320 H 0.28096 0.7762 0.2943 0.0
H321 H 0.18408 0.72597 0.25374 0.0
H322 H 0.20124 0.7216 0.27959 0.0
H323 H 0.21286 0.71041 0.25401 0.0
C324 C 0.26454 0.73217 0.33461 0.0
C325 C 0.27131 0.71097 0.3273 0.0
C326 C 0.25599 0.74525 0.31941 0.0
C327 C 0.25399 0.73729 0.29673 0.0
C328 C 0.26053 0.71606 0.28944 0.0
H329 H 0.23407 0.78816 0.17576 0.0
H330 H 0.24469 0.7674 0.20543 0.0
C331 C 0.26896 0.70296 0.30458 0.0
C332 C 0.24676 0.75157 0.28059 0.0
H333 H 0.20303 0.7536 0.23466 0.0
C334 C 0.26372 0.77142 0.28142 0.0
C335 C 0.22424 0.74525 0.26383 0.0
C336 C 0.2044 0.72475 0.26284 0.0
C337 C 0.2593 0.78477 0.26545 0.0
C338 C 0.23732 0.77808 0.24836 0.0
C339 C 0.22002 0.7585 0.24775 0.0
C340 C 0.23202 0.79113 0.2308 0.0
C341 C 0.27854 0.80561 0.26652 0.0
C342 C 0.22146 0.81128 0.2354 0.0
C343 C 0.21527 0.8231 0.21852 0.0
C344 C 0.21963 0.81493 0.19682 0.0
C345 C 0.23061 0.79487 0.19235 0.0
C346 C 0.23661 0.78299 0.20922 0.0
H347 H 0.29699 0.80672 0.2788 0.0
H348 H 0.28539 0.80657 0.25014 0.0
H349 H 0.26749 0.82006 0.27117 0.0
H350 H 0.21757 0.81766 0.25197 0.0
H351 H 0.20678 0.8385 0.22243 0.0
H352 H 0.34476 0.71917 0.72146 0.0
H353 H 0.30885 0.73681 0.73993 0.0
H354 H 0.25501 0.67549 0.72413 0.0
H355 H 0.2903 0.65802 0.70544 0.0
H356 H 0.23057 0.71019 0.71192 0.0
H357 H 0.28007 0.73062 0.79861 0.0
H358 H 0.30018 0.74064 0.77885 0.0
H359 H 0.2927 0.7115 0.77796 0.0
C360 C 0.3254 0.70944 0.72227 0.0
C361 C 0.32024 0.68729 0.71198 0.0
C362 C 0.30497 0.71948 0.73284 0.0
C363 C 0.27935 0.70738 0.73346 0.0
C364 C 0.27461 0.68511 0.72378 0.0
H365 H 0.15099 0.74631 0.81172 0.0
H366 H 0.18457 0.72601 0.7932 0.0
C367 C 0.29482 0.67516 0.71314 0.0
C368 C 0.25669 0.71801 0.74294 0.0
H369 H 0.23769 0.7445 0.79057 0.0
C370 C 0.23208 0.71767 0.72914 0.0
C371 C 0.25869 0.7275 0.76542 0.0
C372 C 0.28422 0.72747 0.78117 0.0
C373 C 0.20937 0.72668 0.7372 0.0
C374 C 0.21158 0.73663 0.75955 0.0
C375 C 0.23613 0.73686 0.7734 0.0
C376 C 0.18886 0.74725 0.76893 0.0
C377 C 0.18311 0.72514 0.72181 0.0
C378 C 0.17972 0.76557 0.76104 0.0
C379 C 0.1604 0.77707 0.77146 0.0
C380 C 0.15016 0.77056 0.79008 0.0
C381 C 0.15846 0.75165 0.79736 0.0
C382 C 0.17773 0.74012 0.78689 0.0
H383 H 0.18226 0.71192 0.70727 0.0
H384 H 0.16475 0.72192 0.73038 0.0
H385 H 0.18205 0.74098 0.71576 0.0
H386 H 0.18839 0.77154 0.74742 0.0
H387 H 0.15454 0.79168 0.76559 0.0
H388 H 0.16846 0.15447 0.75169 0.0
H389 H 0.18191 0.18261 0.73009 0.0
H390 H 0.26736 0.18163 0.75374 0.0
H391 H 0.25396 0.15385 0.77588 0.0
H392 H 0.25291 0.22259 0.75963 0.0
H393 H 0.21698 0.1814 0.67388 0.0
H394 H 0.19035 0.18043 0.69155 0.0
H395 H 0.22008 0.16644 0.69655 0.0
C396 C 0.19015 0.15994 0.75196 0.0
C397 C 0.21018 0.15204 0.76549 0.0
C398 C 0.19781 0.17593 0.7395 0.0
C399 C 0.22565 0.18402 0.74012 0.0
C400 C 0.24577 0.17553 0.75299 0.0
H401 H 0.2917 0.27531 0.66086 0.0
H402 H 0.27835 0.24295 0.67705 0.0
C403 C 0.2381 0.15966 0.76559 0.0
C404 C 0.23353 0.20279 0.72908 0.0
H405 H 0.22786 0.2206 0.67966 0.0
C406 C 0.24763 0.2221 0.7421 0.0
C407 C 0.22677 0.20204 0.70621 0.0
C408 C 0.21295 0.18139 0.69119 0.0
C409 C 0.25482 0.24083 0.73296 0.0
C410 C 0.24704 0.24039 0.71027 0.0
C411 C 0.2334 0.22096 0.69713 0.0
C412 C 0.2537 0.25975 0.69976 0.0
C413 C 0.27104 0.26078 0.74762 0.0
C414 C 0.24373 0.27978 0.70686 0.0
C415 C 0.25149 0.29836 0.69776 0.0
C416 C 0.26907 0.29708 0.68125 0.0
C417 C 0.27819 0.2768 0.67362 0.0
C418 C 0.27056 0.25829 0.68282 0.0
H419 H 0.28154 0.25646 0.76283 0.0
H420 H 0.28678 0.26876 0.73886 0.0
H421 H 0.25681 0.27292 0.75263 0.0
H422 H 0.23019 0.28109 0.7196 0.0
H423 H 0.24399 0.31375 0.70381 0.0
H424 H 0.80522 0.25189 0.8539 0.0
H425 H 0.79297 0.27342 0.82517 0.0
H426 H 0.75729 0.21382 0.78129 0.0
H427 H 0.76939 0.1922 0.80982 0.0
H428 H 0.79759 0.24346 0.76432 0.0
H429 H 0.71371 0.28508 0.80069 0.0
H430 H 0.74535 0.28593 0.81839 0.0
H431 H 0.72431 0.26012 0.80863 0.0
C432 C 0.7945 0.24342 0.83821 0.0
C433 C 0.78821 0.22039 0.83409 0.0
C434 C 0.7875 0.25572 0.82187 0.0
C435 C 0.77413 0.24515 0.80123 0.0
C436 C 0.76756 0.22222 0.79717 0.0
H437 H 0.72177 0.2803 0.67549 0.0
H438 H 0.73667 0.26162 0.70575 0.0
C439 C 0.77443 0.20993 0.81349 0.0
C440 C 0.76787 0.25784 0.78349 0.0
H441 H 0.72636 0.29464 0.76747 0.0
C442 C 0.78205 0.25469 0.76496 0.0
C443 C 0.74775 0.27253 0.78458 0.0
C444 C 0.7317 0.27612 0.80404 0.0
C445 C 0.77666 0.26594 0.74737 0.0
C446 C 0.75604 0.28026 0.74817 0.0
C447 C 0.74213 0.28362 0.76689 0.0
C448 C 0.74809 0.2916 0.72961 0.0
C449 C 0.79341 0.26263 0.72829 0.0
C450 C 0.74902 0.3146 0.73309 0.0
C451 C 0.74016 0.32527 0.71592 0.0
C452 C 0.73023 0.31311 0.69496 0.0
C453 C 0.72957 0.2901 0.69143 0.0
C454 C 0.73823 0.27942 0.70866 0.0
H455 H 0.81344 0.25686 0.73317 0.0
H456 H 0.78184 0.24989 0.71497 0.0
H457 H 0.79748 0.27807 0.7216 0.0
H458 H 0.75644 0.32428 0.74916 0.0
H459 H 0.74087 0.34303 0.71911 0.0
H460 H 0.71052 0.85296 0.77412 0.0
H461 H 0.72069 0.8302 0.74064 0.0
H462 H 0.70337 0.77187 0.76899 0.0
H463 H 0.69333 0.7945 0.8026 0.0
H464 H 0.76561 0.80392 0.7459 0.0
H465 H 0.66907 0.75406 0.70323 0.0
H466 H 0.66928 0.77982 0.7217 0.0
H467 H 0.67424 0.75512 0.73254 0.0
C468 C 0.70783 0.83523 0.77292 0.0
C469 C 0.70138 0.82551 0.79106 0.0
C470 C 0.7138 0.82228 0.75382 0.0
C471 C 0.71288 0.79942 0.75243 0.0
C472 C 0.70394 0.78949 0.76969 0.0
H473 H 0.79874 0.69812 0.69547 0.0
H474 H 0.78599 0.73062 0.71826 0.0
C475 C 0.69818 0.80244 0.78888 0.0
C476 C 0.72517 0.78637 0.7347 0.0
H477 H 0.71136 0.74162 0.69373 0.0
C478 C 0.75372 0.79052 0.73422 0.0
C479 C 0.70957 0.76896 0.71957 0.0
C480 C 0.67879 0.76426 0.71908 0.0
C481 C 0.76728 0.77704 0.71954 0.0
C482 C 0.75184 0.75904 0.70508 0.0
C483 C 0.72313 0.75547 0.70491 0.0
C484 C 0.76505 0.7427 0.69098 0.0
C485 C 0.79801 0.78187 0.71985 0.0
C486 C 0.75849 0.73932 0.66806 0.0
C487 C 0.76592 0.72088 0.655 0.0
C488 C 0.77962 0.70536 0.66474 0.0
C489 C 0.78828 0.70982 0.6875 0.0
C490 C 0.78096 0.72836 0.70055 0.0
H491 H 0.80578 0.79901 0.72797 0.0
H492 H 0.80838 0.77048 0.72912 0.0
H493 H 0.80382 0.77924 0.70286 0.0
H494 H 0.74622 0.75024 0.66043 0.0
H495 H 0.759 0.71793 0.6375 0.0
H496 H 0.20704 0.09576 0.8839 0.0
H497 H 0.22505 0.10418 0.92293 0.0
H498 H 0.26098 0.16832 0.91458 0.0
H499 H 0.24327 0.15992 0.87528 0.0
H500 H 0.29542 0.14576 0.94252 0.0
H501 H 0.18953 0.14857 0.9654 0.0
H502 H 0.1939 0.12362 0.94763 0.0
H503 H 0.19753 0.14938 0.93775 0.0
C504 C 0.21896 0.1116 0.89031 0.0
C505 C 0.2235 0.12729 0.87663 0.0
C506 C 0.2292 0.11638 0.91259 0.0
C507 C 0.24395 0.13697 0.92162 0.0
C508 C 0.24954 0.15236 0.90787 0.0
H509 H 0.25568 0.18027 0.06244 0.0
H510 H 0.25272 0.18098 0.02299 0.0
C511 C 0.23936 0.14756 0.88549 0.0
C512 C 0.25205 0.14273 0.94565 0.0
H513 H 0.22492 0.14795 0.99433 0.0
C514 C 0.2801 0.14647 0.95393 0.0
C515 C 0.23196 0.14402 0.96038 0.0
C516 C 0.20154 0.1414 0.95239 0.0
C517 C 0.28858 0.15067 0.97672 0.0
C518 C 0.26842 0.15079 0.99144 0.0
C519 C 0.2404 0.14777 0.98306 0.0
C520 C 0.27541 0.15313 0.0156 0.0
C521 C 0.31896 0.15498 0.9848 0.0
C522 C 0.28997 0.1377 0.02467 0.0
C523 C 0.29198 0.13744 0.04731 0.0
C524 C 0.279 0.15235 0.06108 0.0
C525 C 0.26574 0.1685 0.05215 0.0
C526 C 0.26406 0.16894 0.02963 0.0
H527 H 0.33091 0.1613 0.97237 0.0
H528 H 0.32313 0.16703 0.00041 0.0
H529 H 0.32648 0.13933 0.98783 0.0
H530 H 0.29836 0.12503 0.01414 0.0
H531 H 0.30218 0.12474 0.05377 0.0
H532 H 0.84409 0.22221 0.95337 0.0
H533 H 0.84254 0.22303 0.9928 0.0
H534 H 0.76058 0.18797 0.97934 0.0
H535 H 0.76194 0.18699 0.93982 0.0
H536 H 0.80178 0.23503 0.02547 0.0
H537 H 0.81417 0.14599 0.0045 0.0
H538 H 0.82081 0.16498 0.98589 0.0
H539 H 0.78603 0.15575 0.98946 0.0
C540 C 0.82542 0.21524 0.95883 0.0
C541 C 0.80331 0.20422 0.94352 0.0
C542 C 0.82454 0.21579 0.98136 0.0
C543 C 0.80159 0.20532 0.98885 0.0
C544 C 0.77851 0.19603 0.97377 0.0
H545 H 0.80796 0.15329 0.11146 0.0
H546 H 0.78988 0.16378 0.07686 0.0
C547 C 0.77935 0.1955 0.95123 0.0
C548 C 0.80369 0.20116 0.01172 0.0
H549 H 0.8157 0.16084 0.04172 0.0
C550 C 0.80448 0.21879 0.02912 0.0
C551 C 0.80723 0.17994 0.0163 0.0
C552 C 0.80721 0.16053 -0.00187 0.0
C553 C 0.80907 0.21576 0.05114 0.0
C554 C 0.8137 0.19468 0.05571 0.0
C555 C 0.81207 0.17697 0.03823 0.0
C556 C 0.8222 0.19066 0.07823 0.0
C557 C 0.80892 0.23515 0.06923 0.0
C558 C 0.8462 0.20243 0.09064 0.0
C559 C 0.85641 0.19658 0.11051 0.0
C560 C 0.84309 0.17859 0.11808 0.0
C561 C 0.81871 0.16717 0.10595 0.0
C562 C 0.80833 0.17319 0.08623 0.0
H563 H 0.79584 0.24727 0.06364 0.0
H564 H 0.80133 0.22988 0.08406 0.0
H565 H 0.8302 0.24364 0.0739 0.0
H566 H 0.85773 0.21553 0.08453 0.0
H567 H 0.87533 0.2056 0.11948 0.0
H568 H 0.66864 0.87079 0.91085 0.0
H569 H 0.66336 0.86864 0.94942 0.0
H570 H 0.71501 0.81635 0.94721 0.0
H571 H 0.71993 0.81811 0.90879 0.0
H572 H 0.67249 0.81179 0.97428 0.0
H573 H 0.73243 0.89543 0.99225 0.0
H574 H 0.69999 0.89225 0.97511 0.0
H575 H 0.72803 0.87877 0.9652 0.0
C576 C 0.67816 0.8584 0.91842 0.0
C577 C 0.6951 0.84488 0.90697 0.0
C578 C 0.67524 0.85727 0.94046 0.0
C579 C 0.6893 0.84267 0.95126 0.0
C580 C 0.70407 0.8278 0.93921 0.0
H581 H 0.78521 0.83947 0.0675 0.0
H582 H 0.76105 0.83956 0.03109 0.0
C583 C 0.70696 0.82889 0.91725 0.0
C584 C 0.69225 0.8447 0.97554 0.0
H585 H 0.72746 0.87696 0.02183 0.0
C586 C 0.68387 0.82624 0.98483 0.0
C587 C 0.70741 0.86353 0.98917 0.0
C588 C 0.71769 0.88361 0.98003 0.0
C589 C 0.69152 0.8257 0.0072 0.0
C590 C 0.70785 0.84407 0.02044 0.0
C591 C 0.71483 0.86297 0.0115 0.0
C592 C 0.72137 0.8429 0.04255 0.0
C593 C 0.68375 0.80506 0.01627 0.0
C594 C 0.70691 0.84466 0.06097 0.0
C595 C 0.72073 0.84467 0.0819 0.0
C596 C 0.74914 0.84292 0.08458 0.0
C597 C 0.76334 0.84084 0.06598 0.0
C598 C 0.74959 0.8409 0.04518 0.0
H599 H 0.67115 0.79207 0.00373 0.0
H600 H 0.70267 0.79849 0.02247 0.0
H601 H 0.67191 0.80898 0.0304 0.0
H602 H 0.68513 0.84636 0.05919 0.0
H603 H 0.70928 0.84633 0.09598 0.0
H604 H 0.19177 0.79265 0.07875 0.0
H605 H 0.18806 0.78226 0.03849 0.0
H606 H 0.19969 0.85088 0.03251 0.0
H607 H 0.20326 0.86133 0.07244 0.0
H608 H 0.14672 0.79674 0.00959 0.0
H609 H 0.25203 0.82209 0.99132 0.0
H610 H 0.24479 0.8168 0.01814 0.0
H611 H 0.23899 0.84267 0.00997 0.0
C612 C 0.19399 0.80546 0.06882 0.0
C613 C 0.19771 0.82778 0.07865 0.0
C614 C 0.19188 0.79951 0.0459 0.0
C615 C 0.19399 0.81581 0.03263 0.0
C616 C 0.19855 0.83806 0.04251 0.0
H617 H 0.16057 0.84503 0.90554 0.0
H618 H 0.1764 0.84229 0.9436 0.0
C619 C 0.20037 0.844 0.0653 0.0
C620 C 0.1886 0.81004 0.0084 0.0
H621 H 0.21552 0.81891 0.96158 0.0
C622 C 0.16186 0.80109 -0.00103 0.0
C623 C 0.20846 0.81583 0.99474 0.0
C624 C 0.23776 0.8247 0.00402 0.0
C625 C 0.15387 0.79919 0.97629 0.0
C626 C 0.1734 0.80598 0.96272 0.0
C627 C 0.20057 0.81381 0.97204 0.0
C628 C 0.16542 0.80701 0.93927 0.0
C629 C 0.12417 0.79127 0.96732 0.0
C630 C 0.15449 0.78801 0.92414 0.0
C631 C 0.14515 0.78957 0.90243 0.0
C632 C 0.14696 0.81012 0.89549 0.0
C633 C 0.15884 0.82899 0.91046 0.0
C634 C 0.16796 0.82744 0.93217 0.0
H635 H 0.11068 0.79108 0.98062 0.0
H636 H 0.11622 0.80186 0.95586 0.0
H637 H 0.12267 0.77424 0.95806 0.0
H638 H 0.15288 0.77203 0.92918 0.0
H639 H 0.13633 0.77472 0.89115 0.0
H640 H 0.16642 0.13093 0.10439 0.0
H641 H 0.11935 0.13465 0.11287 0.0
H642 H 0.15011 0.1581 0.18122 0.0
H643 H 0.19717 0.15457 0.17289 0.0
H644 H 0.09056 0.11436 0.14395 0.0
H645 H 0.10294 0.20584 0.16413 0.0
H646 H 0.12674 0.19088 0.14918 0.0
H647 H 0.12813 0.19244 0.17845 0.0
C648 C 0.16313 0.13685 0.12122 0.0
C649 C 0.18543 0.14248 0.13797 0.0
C650 C 0.13628 0.13897 0.12603 0.0
C651 C 0.13137 0.14693 0.1476 0.0
C652 C 0.15355 0.15228 0.1644 0.0
H653 H 0.9775 0.17189 0.20144 0.0
H654 H 0.02625 0.16911 0.19735 0.0
C655 C 0.18038 0.1501 0.15964 0.0
C656 C 0.10293 0.14928 0.15253 0.0
H657 H 0.06025 0.18716 0.16906 0.0
C658 C 0.0839 0.13026 0.14945 0.0
C659 C 0.09447 0.17004 0.15989 0.0
C660 C 0.11402 0.19103 0.16298 0.0
C661 C 0.05652 0.13143 0.15347 0.0
C662 C 0.04783 0.15225 0.16028 0.0
C663 C 0.067 0.17124 0.16381 0.0
C664 C 0.01863 0.15465 0.16279 0.0
C665 C 0.03718 0.11035 0.15056 0.0
C666 C -0.00159 0.14795 0.1446 0.0
C667 C 0.97073 0.14947 0.14689 0.0
C668 C 0.96274 0.15791 0.16739 0.0
C669 C 0.98308 0.16526 0.18547 0.0
C670 C 0.01087 0.16368 0.18317 0.0
H671 H 0.04858 0.09593 0.15172 0.0
H672 H 0.02257 0.11125 0.1631 0.0
H673 H 0.02507 0.10754 0.13402 0.0
H674 H 0.00404 0.14144 0.12862 0.0
H675 H 0.95557 0.14385 0.1326 0.0
H676 H 0.83526 0.90962 0.20167 0.0
H677 H 0.84789 0.94938 0.21263 0.0
H678 H 0.7783 0.96076 0.16936 0.0
H679 H 0.76544 0.92108 0.15845 0.0
H680 H 0.86193 0.97422 0.18136 0.0
H681 H 0.77777 0.00779 0.22378 0.0
H682 H 0.78298 0.97907 0.22087 0.0
H683 H 0.76541 0.9894 0.19845 0.0
C684 C 0.82219 0.9206 0.19498 0.0
C685 C 0.79947 0.91228 0.17908 0.0
C686 C 0.82945 0.94329 0.20126 0.0
C687 C 0.81394 0.95799 0.19192 0.0
C688 C 0.79025 0.94971 0.17709 0.0
H689 H 0.85187 0.07831 0.14877 0.0
H690 H 0.84048 0.04058 0.15489 0.0
C691 C 0.78302 0.92702 0.17076 0.0
C692 C 0.82465 0.98159 0.19494 0.0
H693 H 0.80642 0.03335 0.2076 0.0
C694 C 0.85005 0.98717 0.18752 0.0
C695 C 0.80918 -0.00156 0.20306 0.0
C696 C 0.78244 0.99341 0.2122 0.0
C697 C 0.85964 0.00909 0.18684 0.0
C698 C 0.84332 0.02576 0.19363 0.0
C699 C 0.8187 0.0204 0.20222 0.0
C700 C 0.85056 0.04856 0.19027 0.0
C701 C 0.88673 0.01427 0.17824 0.0
C702 C 0.85987 0.06541 0.20821 0.0
C703 C 0.86662 0.08696 0.20476 0.0
C704 C 0.86376 0.09192 0.18333 0.0
C705 C 0.85431 0.07496 0.16544 0.0
C706 C 0.84782 0.05344 0.16889 0.0
H707 H 0.89945 0.00045 0.17808 0.0
H708 H 0.88271 0.01741 0.16113 0.0
H709 H 0.89865 0.02933 0.18838 0.0
H710 H 0.86202 0.06186 0.22482 0.0
H711 H 0.87374 0.09976 0.21886 0.0
H712 H 0.87439 0.80759 0.14713 0.0
H713 H 0.92407 0.80592 0.1472 0.0
H714 H 0.93488 0.87249 0.13457 0.0
H715 H 0.8854 0.8743 0.13435 0.0
H716 H 0.95927 0.8161 0.11149 0.0
H717 H 0.9873 0.87028 0.19311 0.0
H718 H 0.95331 0.85547 0.18445 0.0
H719 H 0.96364 0.87985 0.17368 0.0
C720 C 0.88735 0.82181 0.14423 0.0
C721 C 0.87608 0.8411 0.1408 0.0
C722 C 0.91564 0.82082 0.14427 0.0
C723 C 0.93301 0.83916 0.14112 0.0
C724 C 0.92174 0.85826 0.13724 0.0
H725 H 0.10666 0.87771 0.14474 0.0
H726 H 0.05653 0.87519 0.14336 0.0
C727 C 0.8935 0.85922 0.13705 0.0
C728 C 0.96305 0.83862 0.14218 0.0
H729 H 0.0239 0.86112 0.17284 0.0
C730 C 0.97348 0.82578 0.12494 0.0
C731 C 0.98134 0.85133 0.15976 0.0
C732 C 0.97096 0.86493 0.17893 0.0
C733 C 0.00198 0.82586 0.12448 0.0
C734 C 0.02034 0.83875 0.14201 0.0
C735 C 0.00978 0.8513 0.15941 0.0
C736 C 0.05063 0.83994 0.14241 0.0
C737 C 0.01215 0.81276 0.1049 0.0
C738 C 0.06393 0.82099 0.14255 0.0
C739 C 0.09256 0.82237 0.1432 0.0
C740 C 0.10836 0.84278 0.144 0.0
C741 C 0.09502 0.86176 0.14411 0.0
C742 C 0.0664 0.86034 0.14333 0.0
H743 H 0.99594 0.80854 0.09051 0.0
H744 H 0.0304 0.82199 0.09996 0.0
H745 H 0.01827 0.79714 0.10933 0.0
H746 H 0.05221 0.80516 0.14236 0.0
H747 H 0.10233 0.80749 0.14325 0.0
H748 H 0.2447 0.06267 0.11259 0.0
H749 H 0.25117 0.02596 0.11982 0.0
H750 H 0.33228 0.05038 0.15367 0.0
H751 H 0.32574 0.08757 0.14671 0.0
H752 H 0.29156 -0.00162 0.1092 0.0
H753 H 0.29214 0.02276 0.19984 0.0
H754 H 0.28129 0.04026 0.18078 0.0
H755 H 0.31715 0.03752 0.18661 0.0
C756 C 0.26403 0.06026 0.12142 0.0
C757 C 0.28463 0.07802 0.12926 0.0
C758 C 0.26774 0.03924 0.12548 0.0
C759 C 0.29207 0.03552 0.13748 0.0
C760 C 0.3132 0.05301 0.14464 0.0
H761 H 0.28032 0.89408 0.14618 0.0
H762 H 0.30483 0.93028 0.14474 0.0
C763 C 0.30949 0.07417 0.14056 0.0
C764 C 0.29402 0.01341 0.1432 0.0
H765 H 0.28727 0.98509 0.18565 0.0
C766 C 0.29132 0.99539 0.12595 0.0
C767 C 0.29366 0.00969 0.16511 0.0
C768 C 0.29607 0.0285 0.18423 0.0
C769 C 0.28607 0.97374 0.12978 0.0
C770 C 0.28407 0.97007 0.15157 0.0
C771 C 0.28891 0.98801 0.16901 0.0
C772 C 0.27224 0.94849 0.15599 0.0
C773 C 0.28045 0.95518 0.1103 0.0
C774 C 0.24654 0.94689 0.16394 0.0
C775 C 0.23269 0.92637 0.16499 0.0
C776 C 0.24427 0.90705 0.15806 0.0
C777 C 0.27083 0.90872 0.15147 0.0
C778 C 0.28478 0.92934 0.15053 0.0
H779 H 0.27892 0.96126 0.09435 0.0
H780 H 0.29742 0.94471 0.11061 0.0
H781 H 0.26097 0.94469 0.11106 0.0
H782 H 0.23651 0.96147 0.16829 0.0
H783 H 0.21234 0.92563 0.17026 0.0
H784 H 0.80746 0.85716 0.81287 0.0
H785 H 0.85372 0.84756 0.80806 0.0
H786 H 0.8632 0.83299 0.874 0.0
H787 H 0.81678 0.84237 0.87888 0.0
H788 H 0.90312 0.86692 0.8328 0.0
H789 H 0.88473 0.77782 0.8365 0.0
H790 H 0.85706 0.79426 0.83212 0.0
H791 H 0.87434 0.79539 0.85936 0.0
C792 C 0.81938 0.85188 0.82634 0.0
C793 C 0.80853 0.8505 0.84625 0.0
C794 C 0.84575 0.84636 0.82354 0.0
C795 C 0.86165 0.83923 0.84053 0.0
C796 C 0.85099 0.83801 0.86052 0.0
H797 H 0.03611 0.84053 0.86451 0.0
H798 H 0.98747 0.84514 0.86478 0.0
C799 C 0.8246 0.84355 0.86334 0.0
C800 C 0.88989 0.83402 0.83769 0.0
H801 H 0.93164 0.79336 0.83865 0.0
C802 C 0.90931 0.8508 0.83391 0.0
C803 C 0.89776 0.81288 0.83883 0.0
C804 C 0.87734 0.79396 0.84171 0.0
C805 C 0.93669 0.8472 0.83199 0.0
C806 C 0.94487 0.82638 0.83418 0.0
C807 C 0.92528 0.80936 0.83718 0.0
C808 C 0.974 0.82241 0.83438 0.0
C809 C 0.9567 0.86575 0.82773 0.0
C810 C 0.98234 0.80755 0.8175 0.0
C811 C 0.01024 0.80483 0.8173 0.0
C812 C 0.03003 0.81684 0.83407 0.0
C813 C 0.02138 0.83115 0.85128 0.0
C814 C 0.99362 0.83387 0.85144 0.0
H815 H 0.9459 0.87853 0.82092 0.0
H816 H 0.96921 0.8737 0.84346 0.0
H817 H 0.97095 0.8595 0.81608 0.0
H818 H 0.96738 0.79848 0.80426 0.0
H819 H 0.01634 0.79365 0.80387 0.0
H820 H 0.18841 0.87263 0.82678 0.0
H821 H 0.20621 0.90771 0.81695 0.0
H822 H 0.12424 0.91629 0.7903 0.0
H823 H 0.1064 0.88113 0.79968 0.0
H824 H 0.16544 0.92733 0.76385 0.0
H825 H 0.19277 0.96686 0.85175 0.0
H826 H 0.20786 0.94218 0.84328 0.0
H827 H 0.17125 0.94085 0.84361 0.0
C828 C 0.17422 0.88197 0.81875 0.0
C829 C 0.14598 0.87429 0.81419 0.0
C830 C 0.18442 0.90199 0.81318 0.0
C831 C 0.16647 0.91467 0.80316 0.0
C832 C 0.13841 0.90672 0.79804 0.0
H833 H 0.14886 0.04084 0.7754 0.0
H834 H 0.14823 0.00118 0.77345 0.0
C835 C 0.12824 0.8867 0.8035 0.0
C836 C 0.17641 0.93676 0.79892 0.0
H837 H 0.19992 0.989 0.82511 0.0
C838 C 0.1733 0.9408 0.77719 0.0
C839 C 0.18675 0.95422 0.81637 0.0
C840 C 0.18972 0.95097 0.84009 0.0
C841 C 0.17953 0.96205 0.77252 0.0
C842 C 0.18869 0.97967 0.79008 0.0
C843 C 0.193 0.97542 0.81167 0.0
C844 C 0.19095 0.00295 0.78701 0.0
C845 C 0.17583 0.96551 0.74891 0.0
C846 C 0.21528 0.01711 0.79499 0.0
C847 C 0.21563 0.03985 0.79627 0.0
C848 C 0.19156 0.04875 0.78977 0.0
C849 C 0.16773 0.03445 0.7805 0.0
C850 C 0.1674 0.01174 0.77922 0.0
H851 H 0.17805 0.95026 0.73742 0.0
H852 H 0.1548 0.96988 0.74489 0.0
H853 H 0.19097 0.97905 0.7461 0.0
H854 H 0.23361 0.01065 0.80122 0.0
H855 H 0.2343 0.05049 0.80349 0.0
H856 H 0.08714 0.09954 0.81608 0.0
H857 H 0.0421 0.11002 0.82406 0.0
H858 H 0.0782 0.17746 0.84553 0.0
H859 H 0.12326 0.16717 0.83736 0.0
H860 H 0.02708 0.12955 0.86434 0.0
H861 H 0.01255 0.18216 0.80041 0.0
H862 H 0.03812 0.16324 0.8002 0.0
H863 H 0.04432 0.1893 0.81848 0.0
C864 C 0.08546 0.11662 0.82243 0.0
C865 C 0.10867 0.13257 0.82602 0.0
C866 C 0.05975 0.12256 0.82699 0.0
C867 C 0.05679 0.14454 0.83509 0.0
C868 C 0.07997 0.16047 0.83889 0.0
H869 H 0.91666 0.18933 0.89684 0.0
H870 H 0.96284 0.18188 0.88879 0.0
C871 C 0.10571 0.15455 0.83433 0.0
C872 C 0.02951 0.15065 0.84 0.0
H873 H 0.97962 0.182 0.82578 0.0
C874 C 0.01668 0.14101 0.85593 0.0
C875 C 0.01593 0.16543 0.82881 0.0
C876 C 0.02826 0.17552 0.81087 0.0
C877 C 0.99064 0.14589 0.8611 0.0
C878 C 0.97734 0.16105 0.85026 0.0
C879 C 0.99005 0.17056 0.8342 0.0
C880 C 0.94977 0.16668 0.85488 0.0
C881 C 0.97734 0.13443 0.87776 0.0
C882 C 0.92735 0.16124 0.83826 0.0
C883 C 0.90101 0.16557 0.84277 0.0
C884 C 0.89671 0.17552 0.86395 0.0
C885 C 0.91934 0.18155 0.88039 0.0
C886 C 0.94569 0.1772 0.87587 0.0
H887 H 0.98726 0.11967 0.88071 0.0
H888 H 0.97932 0.14595 0.89365 0.0
H889 H 0.95506 0.12929 0.87227 0.0
H890 H 0.93015 0.1532 0.82193 0.0
H891 H 0.88397 0.16079 0.82976 0.0
H892 H 0.77269 0.93567 0.88392 0.0
H893 H 0.77941 0.97569 0.88706 0.0
H894 H 0.701 0.97353 0.84803 0.0
H895 H 0.69398 0.93333 0.84491 0.0
H896 H 0.7805 -0.00284 0.84955 0.0
H897 H 0.70002 0.02333 0.90161 0.0
H898 H 0.71221 0.99672 0.90057 0.0
H899 H 0.68906 0.00192 0.87817 0.0
C900 C 0.75668 0.94371 0.87624 0.0
C901 C 0.73283 0.93139 0.86412 0.0
C902 C 0.76057 0.96656 0.87805 0.0
C903 C 0.74062 0.97752 0.86791 0.0
C904 C 0.71643 0.96536 0.85625 0.0
H905 H 0.74781 0.11731 0.8579 0.0
H906 H 0.7324 0.07787 0.85475 0.0
C907 C 0.71252 0.94243 0.85441 0.0
C908 C 0.74633 0.00146 0.86826 0.0
H909 H 0.72665 0.05124 0.88839 0.0
C910 C 0.7687 0.009 0.858 0.0
C911 C 0.73068 0.01675 0.8791 0.0
C912 C 0.70673 0.0094 0.89064 0.0
C913 C 0.77612 0.03151 0.85852 0.0
C914 C 0.76107 0.04688 0.86998 0.0
C915 C 0.73819 0.03936 0.87972 0.0
C916 C 0.76962 0.07083 0.87272 0.0
C917 C 0.79999 0.03866 0.84676 0.0
C918 C 0.79535 0.07989 0.88425 0.0
C919 C 0.8042 0.10228 0.88603 0.0
C920 C 0.78737 0.11604 0.87641 0.0
C921 C 0.76125 0.10706 0.86539 0.0
C922 C 0.7524 0.08459 0.86361 0.0
H923 H 0.80431 0.02516 0.83396 0.0
H924 H 0.79594 0.05307 0.83885 0.0
H925 H 0.81875 0.04349 0.85886 0.0
H926 H 0.80871 0.06958 0.89174 0.0
H927 H 0.82434 0.10876 0.89476 0.0
H928 H 0.68389 0.60595 0.3946 0.0
H929 H 0.70423 0.60704 0.43247 0.0
H930 H 0.77994 0.64092 0.41881 0.0
H931 H 0.75966 0.63992 0.38068 0.0
H932 H 0.75611 0.59044 0.44772 0.0
H933 H 0.75487 0.68077 0.47313 0.0
H934 H 0.73375 0.66537 0.4489 0.0
H935 H 0.77018 0.67132 0.44872 0.0
C936 C 0.70489 0.61361 0.39961 0.0
C937 C 0.72015 0.62297 0.38474 0.0
C938 C 0.71649 0.61414 0.42121 0.0
C939 C 0.74347 0.62417 0.42839 0.0
C940 C 0.75899 0.63327 0.41355 0.0
H941 H 0.80689 0.65202 0.5691 0.0
H942 H 0.80698 0.6487 0.52913 0.0
C943 C 0.74741 0.63265 0.39183 0.0
C944 C 0.75472 0.62543 0.45165 0.0
H945 H 0.76684 0.66057 0.50083 0.0
C946 C 0.7589 0.6058 0.45933 0.0
C947 C 0.75855 0.64554 0.46662 0.0
C948 C 0.75404 0.66701 0.4591 0.0
C949 C 0.76573 0.60561 0.48182 0.0
C950 C 0.76778 0.62551 0.49699 0.0
C951 C 0.76516 0.64533 0.48916 0.0
C952 C 0.76957 0.62587 0.52103 0.0
C953 C 0.77016 0.58405 0.48917 0.0
C954 C 0.74853 0.61415 0.52967 0.0
C955 C 0.74842 0.61602 0.55238 0.0
C956 C 0.76924 0.6298 0.56691 0.0
C957 C 0.79062 0.64123 0.55828 0.0
C958 C 0.7907 0.63935 0.53549 0.0
H959 H 0.77736 0.57249 0.47595 0.0
H960 H 0.78541 0.58652 0.50413 0.0
H961 H 0.75033 0.5762 0.49302 0.0
H962 H 0.73164 0.6041 0.51884 0.0
H963 H 0.73161 0.60709 0.55854 0.0
H964 H 0.32449 0.64897 0.59848 0.0
H965 H 0.31237 0.6614 0.5636 0.0
H966 H 0.35641 0.72551 0.59014 0.0
H967 H 0.36861 0.71323 0.62524 0.0
H968 H 0.28532 0.70257 0.5555 0.0
H969 H 0.39198 0.6987 0.53315 0.0
H970 H 0.37911 0.68364 0.55339 0.0
H971 H 0.38726 0.71298 0.55993 0.0
C972 C 0.33142 0.66577 0.59697 0.0
C973 C 0.34766 0.68009 0.6145 0.0
C974 C 0.32438 0.67285 0.5771 0.0
C975 C 0.33361 0.6943 0.57439 0.0
C976 C 0.3492 0.70887 0.592 0.0
H977 H 0.33305 0.72441 0.4413 0.0
H978 H 0.3382 0.73168 0.48164 0.0
C979 C 0.35614 0.70183 0.61197 0.0
C980 C 0.32828 0.7007 0.55256 0.0
H981 H 0.3582 0.7044 0.50591 0.0
C982 C 0.30128 0.70336 0.54471 0.0
C983 C 0.34927 0.70195 0.53874 0.0
C984 C 0.37858 0.69912 0.54655 0.0
C985 C 0.29447 0.70637 0.52292 0.0
C986 C 0.31508 0.70602 0.50857 0.0
C987 C 0.34239 0.70464 0.51689 0.0
C988 C 0.30845 0.70429 0.48444 0.0
C989 C 0.26518 0.70949 0.51545 0.0
C990 C 0.28968 0.68674 0.47262 0.0
C991 C 0.28657 0.68267 0.44967 0.0
C992 C 0.30252 0.69585 0.43807 0.0
C993 C 0.3205 0.71397 0.44983 0.0
C994 C 0.32345 0.71814 0.47285 0.0
H995 H 0.25539 0.71787 0.52931 0.0
H996 H 0.26409 0.71928 0.50193 0.0
H997 H 0.25302 0.69314 0.50947 0.0
H998 H 0.27846 0.67542 0.48113 0.0
H999 H 0.27265 0.66852 0.44105 0.0
H1000 H 0.17737 0.353 0.41147 0.0
H1001 H 0.17004 0.34858 0.44935 0.0
H1002 H 0.25651 0.34342 0.46419 0.0
H1003 H 0.26396 0.34779 0.42685 0.0
H1004 H 0.21724 0.31091 0.4791 0.0
H1005 H 0.20151 0.39888 0.50381 0.0
H1006 H 0.18163 0.38256 0.47953 0.0
H1007 H 0.21784 0.39008 0.47968 0.0
C1008 C 0.19469 0.35073 0.42282 0.0
C1009 C 0.22126 0.35089 0.41631 0.0
C1010 C 0.19049 0.34825 0.44438 0.0
C1011 C 0.21279 0.34576 0.45948 0.0
C1012 C 0.23906 0.34527 0.45272 0.0
H1013 H 0.28942 0.37251 0.58507 0.0
H1014 H 0.26698 0.37001 0.54762 0.0
C1015 C 0.24328 0.34787 0.43141 0.0
C1016 C 0.20989 0.34483 0.4828 0.0
H1017 H 0.21229 0.37898 0.53206 0.0
C1018 C 0.21528 0.32555 0.49074 0.0
C1019 C 0.20746 0.36405 0.49778 0.0
C1020 C 0.20183 0.38516 0.48995 0.0
C1021 C 0.2205 0.32546 0.51341 0.0
C1022 C 0.22008 0.34515 0.52838 0.0
C1023 C 0.21255 0.36394 0.52046 0.0
C1024 C 0.23188 0.34757 0.55167 0.0
C1025 C 0.22869 0.30488 0.52111 0.0
C1026 C 0.21936 0.33595 0.56642 0.0
C1027 C 0.23225 0.33729 0.5879 0.0
C1028 C 0.25778 0.35028 0.59485 0.0
C1029 C 0.26984 0.3623 0.58017 0.0
C1030 C 0.25697 0.36097 0.5588 0.0
H1031 H 0.23054 0.29163 0.50717 0.0
H1032 H 0.24869 0.30863 0.53186 0.0
H1033 H 0.21298 0.2986 0.53094 0.0
H1034 H 0.19988 0.32567 0.56123 0.0
H1035 H 0.22243 0.32795 0.59894 0.0
H1036 H 0.63269 0.2769 0.39132 0.0
H1037 H 0.64231 0.27023 0.4292 0.0
H1038 H 0.66054 0.34014 0.45231 0.0
H1039 H 0.65116 0.34696 0.41461 0.0
H1040 H 0.69466 0.28657 0.45995 0.0
H1041 H 0.59987 0.31608 0.48936 0.0
H1042 H 0.60272 0.30705 0.46057 0.0
H1043 H 0.6183 0.33392 0.47416 0.0
C1044 C 0.63868 0.29083 0.4045 0.0
C1045 C 0.64111 0.31246 0.40007 0.0
C1046 C 0.64422 0.28698 0.42606 0.0
C1047 C 0.65189 0.30471 0.44344 0.0
C1048 C 0.65438 0.32628 0.43906 0.0
H1049 H 0.73016 0.33297 0.57347 0.0
H1050 H 0.71943 0.32298 0.53353 0.0
C1051 C 0.64907 0.33014 0.41754 0.0
C1052 C 0.65761 0.30093 0.46629 0.0
H1053 H 0.63592 0.31248 0.51685 0.0
C1054 C 0.68166 0.29189 0.4724 0.0
C1055 C 0.64035 0.3076 0.48231 0.0
C1056 C 0.61371 0.31654 0.47632 0.0
C1057 C 0.68971 0.29052 0.49449 0.0
C1058 C 0.67336 0.29855 0.51074 0.0
C1059 C 0.64851 0.30641 0.50437 0.0
C1060 C 0.68261 0.30097 0.53458 0.0
C1061 C 0.71586 0.28087 0.50031 0.0
C1062 C 0.66571 0.29164 0.54843 0.0
C1063 C 0.67174 0.29741 0.57128 0.0
C1064 C 0.69463 0.31277 0.58062 0.0
C1065 C 0.71243 0.32105 0.56674 0.0
C1066 C 0.70641 0.31525 0.5439 0.0
H1067 H 0.72101 0.26935 0.48607 0.0
H1068 H 0.73315 0.29436 0.50502 0.0
H1069 H 0.71415 0.27198 0.51441 0.0
H1070 H 0.64717 0.28069 0.54154 0.0
H1071 H 0.65764 0.29077 0.58157 0.0
H1072 H 0.66292 0.63162 0.61416 0.0
H1073 H 0.61595 0.6363 0.62228 0.0
H1074 H 0.64643 0.66062 0.69052 0.0
H1075 H 0.69344 0.65608 0.68256 0.0
H1076 H 0.58696 0.61685 0.65429 0.0
H1077 H 0.59997 0.70852 0.67153 0.0
H1078 H 0.62345 0.69301 0.65676 0.0
H1079 H 0.625 0.69514 0.68609 0.0
C1080 C 0.6596 0.63794 0.6309 0.0
C1081 C 0.68181 0.6435 0.64773 0.0
C1082 C 0.63281 0.64062 0.63549 0.0
C1083 C 0.62787 0.64907 0.65692 0.0
C1084 C 0.64994 0.65441 0.67381 0.0
H1085 H 0.47037 0.67598 0.7046 0.0
H1086 H 0.51977 0.67359 0.70304 0.0
C1087 C 0.67672 0.65166 0.66926 0.0
C1088 C 0.59944 0.6518 0.66159 0.0
H1089 H 0.55656 0.6904 0.67539 0.0
C1090 C 0.58031 0.63291 0.65898 0.0
C1091 C 0.59102 0.67279 0.66794 0.0
C1092 C 0.61081 0.69359 0.67064 0.0
C1093 C 0.55276 0.63443 0.66226 0.0
C1094 C 0.54404 0.65545 0.6678 0.0
C1095 C 0.56335 0.67434 0.67108 0.0
C1096 C 0.51461 0.65807 0.66878 0.0
C1097 C 0.53322 0.6135 0.65975 0.0
C1098 C 0.49563 0.65076 0.6499 0.0
C1099 C 0.46764 0.65203 0.65077 0.0
C1100 C 0.45807 0.66087 0.67049 0.0
C1101 C 0.47719 0.66903 0.68922 0.0
C1102 C 0.50534 0.66766 0.68835 0.0
H1103 H 0.54442 0.59922 0.66215 0.0
H1104 H 0.51789 0.6151 0.67168 0.0
H1105 H 0.52197 0.60993 0.64286 0.0
H1106 H 0.50246 0.64381 0.6345 0.0
H1107 H 0.45346 0.64582 0.63598 0.0
H1108 H 0.38306 0.60093 0.71772 0.0
H1109 H 0.37073 0.56434 0.72683 0.0
H1110 H 0.31823 0.54547 0.66508 0.0
H1111 H 0.33048 0.58185 0.65577 0.0
H1112 H 0.29612 0.53696 0.70923 0.0
H1113 H 0.3946 0.505 0.69049 0.0
H1114 H 0.39544 0.53206 0.70654 0.0
H1115 H 0.38222 0.52706 0.67792 0.0
C1116 C 0.36896 0.58895 0.70607 0.0
C1117 C 0.35781 0.59416 0.68599 0.0
C1118 C 0.36192 0.56814 0.71133 0.0
C1119 C 0.34357 0.55237 0.69661 0.0
C1120 C 0.33235 0.55755 0.67663 0.0
H1121 H 0.26488 0.42349 0.6679 0.0
H1122 H 0.27514 0.46334 0.67785 0.0
C1123 C 0.33949 0.57826 0.67131 0.0
C1124 C 0.33644 0.53017 0.7016 0.0
H1125 H 0.35932 0.47988 0.6979 0.0
C1126 C 0.31001 0.52449 0.70712 0.0
C1127 C 0.35479 0.51416 0.69907 0.0
C1128 C 0.38338 0.51968 0.69313 0.0
C1129 C 0.30104 0.50281 0.70935 0.0
C1130 C 0.31876 0.4864 0.70535 0.0
C1131 C 0.34572 0.49244 0.70098 0.0
C1132 C 0.30903 0.46261 0.70291 0.0
C1133 C 0.27257 0.49768 0.71565 0.0
C1134 C 0.32439 0.44885 0.71387 0.0
C1135 C 0.31881 0.42598 0.70793 0.0
C1136 C 0.29778 0.41654 0.69093 0.0
C1137 C 0.28113 0.43029 0.68114 0.0
C1138 C 0.28687 0.45313 0.68694 0.0
H1139 H 0.26636 0.51217 0.72616 0.0
H1140 H 0.25755 0.49359 0.70052 0.0
H1141 H 0.27134 0.48352 0.7246 0.0
H1142 H 0.34164 0.45581 0.72618 0.0
H1143 H 0.33195 0.41576 0.71578 0.0
H1144 H 0.60618 0.36047 0.62025 0.0
H1145 H 0.55676 0.36067 0.62219 0.0
H1146 H 0.56573 0.33859 0.68481 0.0
H1147 H 0.61527 0.33846 0.68307 0.0
H1148 H 0.51863 0.32364 0.62591 0.0
H1149 H 0.52298 0.39277 0.69593 0.0
H1150 H 0.55175 0.38835 0.68054 0.0
H1151 H 0.544 0.37153 0.70069 0.0
C1152 C 0.59768 0.35584 0.63453 0.0
C1153 C 0.61458 0.34952 0.65156 0.0
C1154 C 0.56947 0.35592 0.63558 0.0
C1155 C 0.55771 0.34985 0.65373 0.0
C1156 C 0.57453 0.34365 0.67083 0.0
H1157 H 0.39045 0.34042 0.68769 0.0
H1158 H 0.43997 0.33942 0.68686 0.0
C1159 C 0.60277 0.34351 0.66977 0.0
C1160 C 0.52768 0.34931 0.65435 0.0
H1161 H 0.4792 0.37299 0.68246 0.0
C1162 C 0.50995 0.33444 0.63822 0.0
C1163 C 0.51655 0.36336 0.67052 0.0
C1164 C 0.53473 0.38005 0.68783 0.0
C1165 C 0.48126 0.33309 0.63796 0.0
C1166 C 0.47008 0.34733 0.65398 0.0
C1167 C 0.48785 0.3621 0.67019 0.0
C1168 C 0.43999 0.34734 0.6541 0.0
C1169 C 0.46324 0.31613 0.6208 0.0
C1170 C 0.42366 0.35227 0.63601 0.0
C1171 C 0.39537 0.35273 0.63638 0.0
C1172 C 0.383 0.34851 0.65497 0.0
C1173 C 0.39942 0.34369 0.67311 0.0
C1174 C 0.42768 0.34314 0.67269 0.0
H1175 H 0.47482 0.30268 0.61396 0.0
H1176 H 0.44523 0.30881 0.62773 0.0
H1177 H 0.45549 0.32415 0.60699 0.0
H1178 H 0.43286 0.35605 0.6217 0.0
H1179 H 0.38326 0.35666 0.62223 0.0
H1180 H 0.76314 0.58222 0.67782 0.0
H1181 H 0.7694 0.54421 0.68044 0.0
H1182 H 0.82913 0.54476 0.63416 0.0
H1183 H 0.82296 0.58311 0.63153 0.0
H1184 H 0.7842 0.51275 0.62085 0.0
H1185 H 0.82679 0.50901 0.70601 0.0
H1186 H 0.79948 0.52607 0.7055 0.0
H1187 H 0.8307 0.53395 0.69437 0.0
C1188 C 0.77828 0.57449 0.66875 0.0
C1189 C 0.79246 0.58552 0.65439 0.0
C1190 C 0.78201 0.5528 0.6704 0.0
C1191 C 0.79993 0.54171 0.65766 0.0
C1192 C 0.81543 0.55313 0.6443 0.0
H1193 H 0.78122 0.39722 0.65301 0.0
H1194 H 0.80522 0.43433 0.65433 0.0
C1195 C 0.81192 0.57501 0.64284 0.0
C1196 C 0.7984 0.51748 0.65556 0.0
H1197 H 0.79656 0.47653 0.68644 0.0
C1198 C 0.78772 0.50474 0.63506 0.0
C1199 C 0.80307 0.50703 0.67406 0.0
C1200 C 0.81592 0.51974 0.69617 0.0
C1201 C 0.77936 0.48213 0.633 0.0
C1202 C 0.78172 0.4721 0.65191 0.0
C1203 C 0.79453 0.48439 0.67202 0.0
C1204 C 0.76784 0.44976 0.65157 0.0
C1205 C 0.76663 0.46932 0.61087 0.0
C1206 C 0.73902 0.44639 0.6499 0.0
C1207 C 0.72535 0.42542 0.64931 0.0
C1208 C 0.74027 0.4074 0.65029 0.0
C1209 C 0.76922 0.41082 0.65217 0.0
C1210 C 0.78294 0.43194 0.65294 0.0
H1211 H 0.77215 0.47787 0.5972 0.0
H1212 H 0.77329 0.45261 0.60819 0.0
H1213 H 0.74387 0.4674 0.61035 0.0
H1214 H 0.72709 0.46005 0.64901 0.0
H1215 H 0.70306 0.4233 0.64787 0.0
H1216 H 0.3101 0.31388 0.35143 0.0
H1217 H 0.35599 0.30415 0.34526 0.0
H1218 H 0.379 0.36894 0.33098 0.0
H1219 H 0.333 0.37874 0.33688 0.0
H1220 H 0.39559 0.33334 0.3013 0.0
H1221 H 0.42504 0.3291 0.38956 0.0
H1222 H 0.39377 0.31244 0.37658 0.0
H1223 H 0.39563 0.34191 0.3804 0.0
C1224 C 0.32493 0.32605 0.34696 0.0
C1225 C 0.3181 0.34716 0.34486 0.0
C1226 C 0.35111 0.32047 0.34345 0.0
C1227 C 0.37091 0.33591 0.3379 0.0
C1228 C 0.36395 0.35681 0.33528 0.0
H1229 H 0.54456 0.35426 0.3532 0.0
H1230 H 0.49504 0.35467 0.3526 0.0
C1231 C 0.33775 0.36242 0.33876 0.0
C1232 C 0.39925 0.33068 0.33566 0.0
H1233 H 0.45797 0.32143 0.36538 0.0
C1234 C 0.40922 0.33053 0.31522 0.0
C1235 C 0.41689 0.32711 0.35393 0.0
C1236 C 0.40748 0.32778 0.37643 0.0
C1237 C 0.43667 0.32736 0.31269 0.0
C1238 C 0.45438 0.32415 0.33105 0.0
C1239 C 0.44419 0.32375 0.35132 0.0
C1240 C 0.48427 0.32362 0.33036 0.0
C1241 C 0.44689 0.32838 0.29071 0.0
C1242 C 0.4946 0.30597 0.31796 0.0
C1243 C 0.52311 0.30567 0.31827 0.0
C1244 C 0.54152 0.32299 0.33101 0.0
C1245 C 0.53095 0.34064 0.34323 0.0
C1246 C 0.50265 0.34092 0.34293 0.0
H1247 H 0.43151 0.33382 0.27895 0.0
H1248 H 0.46626 0.33983 0.29284 0.0
H1249 H 0.45148 0.31181 0.2834 0.0
H1250 H 0.48067 0.29235 0.30835 0.0
H1251 H 0.53071 0.29185 0.30874 0.0
H1252 H 0.6752 0.39743 0.34065 0.0
H1253 H 0.68532 0.43206 0.32717 0.0
H1254 H 0.63447 0.40516 0.26596 0.0
H1255 H 0.62431 0.37031 0.27925 0.0
H1256 H 0.70568 0.43899 0.28125 0.0
H1257 H 0.60291 0.46314 0.29885 0.0
H1258 H 0.61893 0.44357 0.31306 0.0
H1259 H 0.60543 0.43584 0.28457 0.0
C1260 C 0.66638 0.3988 0.32423 0.0
C1261 C 0.64882 0.38126 0.31104 0.0
C1262 C 0.6723 0.41851 0.31654 0.0
C1263 C 0.66062 0.42103 0.29563 0.0
C1264 C 0.64368 0.4034 0.28214 0.0
H1265 H 0.65213 0.55382 0.26854 0.0
H1266 H 0.64738 0.51357 0.26038 0.0
C1267 C 0.63787 0.38359 0.28977 0.0
C1268 C 0.66453 0.44277 0.28888 0.0
H1269 H 0.63466 0.48999 0.28983 0.0
C1270 C 0.69006 0.45011 0.28273 0.0
C1271 C 0.64395 0.45699 0.2906 0.0
C1272 C 0.61621 0.44967 0.29716 0.0
C1273 C 0.69594 0.47179 0.27907 0.0
C1274 C 0.67602 0.48654 0.28233 0.0
C1275 C 0.64995 0.47872 0.28731 0.0
C1276 C 0.68251 0.51061 0.28337 0.0
C1277 C 0.72353 0.47869 0.27206 0.0
C1278 C 0.70435 0.52236 0.29847 0.0
C1279 C 0.70728 0.54533 0.30294 0.0
C1280 C 0.68809 0.55693 0.29273 0.0
C1281 C 0.66717 0.54527 0.2767 0.0
C1282 C 0.66445 0.52228 0.27203 0.0
H1283 H 0.73118 0.46458 0.26204 0.0
H1284 H 0.72251 0.49223 0.26235 0.0
H1285 H 0.73874 0.4844 0.28691 0.0
H1286 H 0.7181 0.51381 0.30791 0.0
H1287 H 0.72351 0.55388 0.31546 0.0
H1288 H 0.58519 0.60534 0.3244 0.0
H1289 H 0.53958 0.6153 0.3311 0.0
H1290 H 0.57185 0.68411 0.34347 0.0
H1291 H 0.61769 0.67426 0.33707 0.0
H1292 H 0.53933 0.67215 0.37499 0.0
H1293 H 0.48659 0.64204 0.29042 0.0
H1294 H 0.50421 0.62174 0.30187 0.0
H1295 H 0.52363 0.64619 0.29666 0.0
C1296 C 0.58254 0.6226 0.32844 0.0
C1297 C 0.60495 0.63904 0.33013 0.0
C1298 C 0.55646 0.62826 0.33214 0.0
C1299 C 0.55229 0.65044 0.33744 0.0
C1300 C 0.57465 0.66689 0.33927 0.0
H1301 H 0.38871 0.69281 0.33833 0.0
H1302 H 0.43648 0.68936 0.3319 0.0
C1303 C 0.60078 0.66125 0.33559 0.0
C1304 C 0.52472 0.65638 0.34168 0.0
H1305 H 0.45778 0.65051 0.31853 0.0
C1306 C 0.52151 0.6676 0.36261 0.0
C1307 C 0.50164 0.65068 0.32538 0.0
C1308 C 0.50415 0.63969 0.30225 0.0
C1309 C 0.49557 0.67264 0.36793 0.0
C1310 C 0.47228 0.66599 0.35196 0.0
C1311 C 0.47566 0.65541 0.33081 0.0
C1312 C 0.44408 0.66932 0.35694 0.0
C1313 C 0.49335 0.6851 0.39054 0.0
C1314 C 0.43257 0.65919 0.37315 0.0
C1315 C 0.40533 0.66114 0.37687 0.0
C1316 C 0.38909 0.67314 0.36433 0.0
C1317 C 0.40075 0.68349 0.34828 0.0
C1318 C 0.428 0.68153 0.34457 0.0
H1319 H 0.51345 0.69429 0.3984 0.0
H1320 H 0.4779 0.69691 0.38979 0.0
H1321 H 0.48671 0.67326 0.40119 0.0
H1322 H 0.44445 0.64931 0.38255 0.0
H1323 H 0.39684 0.6529 0.38927 0.0
H1324 H 0.26455 0.44067 0.38004 0.0
H1325 H 0.26126 0.47947 0.37883 0.0
H1326 H 0.18673 0.46176 0.33345 0.0
H1327 H 0.18988 0.42265 0.33458 0.0
H1328 H 0.22779 0.49058 0.31977 0.0
H1329 H 0.2081 0.52092 0.40496 0.0
H1330 H 0.23611 0.50451 0.40401 0.0
H1331 H 0.20187 0.49213 0.39261 0.0
C1332 C 0.24724 0.44502 0.37001 0.0
C1333 C 0.22746 0.42866 0.3574 0.0
C1334 C 0.2453 0.4672 0.36947 0.0
C1335 C 0.22355 0.47346 0.35631 0.0
C1336 C 0.20352 0.45721 0.34387 0.0
H1337 H 0.2279 0.61684 0.36579 0.0
H1338 H 0.20803 0.57822 0.3617 0.0
C1339 C 0.20533 0.43494 0.34454 0.0
C1340 C 0.22339 0.4969 0.35436 0.0
H1341 H 0.22866 0.54802 0.38559 0.0
C1342 C 0.22736 0.50316 0.33403 0.0
C1343 C 0.22242 0.51324 0.37289 0.0
C1344 C 0.2166 0.50737 0.39481 0.0
C1345 C 0.23247 0.52543 0.33215 0.0
C1346 C 0.23392 0.54172 0.35115 0.0
C1347 C 0.22785 0.53549 0.37108 0.0
C1348 C 0.24452 0.56497 0.35132 0.0
C1349 C 0.23709 0.53129 0.31 0.0
C1350 C 0.27156 0.57025 0.34683 0.0
C1351 C 0.28294 0.59218 0.34921 0.0
C1352 C 0.26752 0.60926 0.35625 0.0
C1353 C 0.24021 0.60399 0.36026 0.0
C1354 C 0.22885 0.58198 0.35794 0.0
H1355 H 0.22656 0.51833 0.29637 0.0
H1356 H 0.22961 0.54725 0.30803 0.0
H1357 H 0.25948 0.53273 0.30851 0.0
H1358 H 0.28422 0.55738 0.3422 0.0
H1359 H 0.30406 0.59573 0.34608 0.0
loop_
_geom_bond_atom_site_label_1
_geom_bond_atom_site_label_2
_geom_bond_distance
_geom_bond_site_symmetry_2
_ccdc_geom_bond_type
In0 O1 2.294 . S
In0 O2 2.326 . S
In0 O6 2.266 . S
In0 O7 2.326 . S
In0 O8 2.266 . S
In0 O9 2.326 . S
In0 O11 2.294 . S
In0 O12 2.326 . S
O1 In0 2.294 . S
O1 C10 1.240 . S
O2 In0 2.326 . S
O2 C10 1.252 . S
C3 O6 1.252 . S
C3 O7 1.260 . S
C4 O11 1.240 . S
C4 O12 1.252 . S
C5 O8 1.252 . S
C5 O9 1.260 . S
O6 In0 2.266 . S
O6 C3 1.252 . S
O7 In0 2.326 . S
O7 C3 1.260 . S
O8 In0 2.266 . S
O8 C5 1.252 . S
O9 In0 2.326 . S
O9 C5 1.260 . S
C10 O1 1.240 . S
C10 O2 1.252 . S
O11 In0 2.294 . S
O11 C4 1.240 . S
O12 In0 2.326 . S
O12 C4 1.252 . S
In13 O14 2.294 . S
In13 O15 2.326 . S
In13 O19 2.266 . S
In13 O20 2.326 . S
In13 O21 2.266 . S
In13 O22 2.326 . S
In13 O24 2.294 . S
In13 O25 2.326 . S
O14 In13 2.294 . S
O14 C23 1.240 . S
O15 In13 2.326 . S
O15 C23 1.252 . S
C16 O19 1.252 . S
C16 O20 1.260 . S
C17 O24 1.240 . S
C17 O25 1.252 . S
C18 O21 1.252 . S
C18 O22 1.260 . S
O19 In13 2.266 . S
O19 C16 1.252 . S
O20 In13 2.326 . S
O20 C16 1.260 . S
O21 In13 2.266 . S
O21 C18 1.252 . S
O22 In13 2.326 . S
O22 C18 1.260 . S
C23 O14 1.240 . S
C23 O15 1.252 . S
O24 In13 2.294 . S
O24 C17 1.240 . S
O25 In13 2.326 . S
O25 C17 1.252 . S
In26 O27 2.294 . S
In26 O28 2.326 . S
In26 O32 2.266 . S
In26 O33 2.326 . S
In26 O34 2.266 . S
In26 O35 2.326 . S
In26 O37 2.294 . S
In26 O38 2.326 . S
O27 In26 2.294 . S
O27 C36 1.240 . S
O28 In26 2.326 . S
O28 C36 1.252 . S
C29 O32 1.252 . S
C29 O33 1.260 . S
C30 O37 1.240 . S
C30 O38 1.252 . S
C31 O34 1.252 . S
C31 O35 1.260 . S
O32 In26 2.266 . S
O32 C29 1.252 . S
O33 In26 2.326 . S
O33 C29 1.260 . S
O34 In26 2.266 . S
O34 C31 1.252 . S
O35 In26 2.326 . S
O35 C31 1.260 . S
C36 O27 1.240 . S
C36 O28 1.252 . S
O37 In26 2.294 . S
O37 C30 1.240 . S
O38 In26 2.326 . S
O38 C30 1.252 . S
In39 O40 2.294 . S
In39 O41 2.326 . S
In39 O45 2.266 . S
In39 O46 2.326 . S
In39 O47 2.266 . S
In39 O48 2.326 . S
In39 O50 2.294 . S
In39 O51 2.326 . S
O40 In39 2.294 . S
O40 C49 1.240 . S
O41 In39 2.326 . S
O41 C49 1.252 . S
C42 O45 1.252 . S
C42 O46 1.260 . S
C43 O50 1.240 . S
C43 O51 1.252 . S
C44 O47 1.252 . S
C44 O48 1.260 . S
O45 In39 2.266 . S
O45 C42 1.252 . S
O46 In39 2.326 . S
O46 C42 1.260 . S
O47 In39 2.266 . S
O47 C44 1.252 . S
O48 In39 2.326 . S
O48 C44 1.260 . S
C49 O40 1.240 . S
C49 O41 1.252 . S
O50 In39 2.294 . S
O50 C43 1.240 . S
O51 In39 2.326 . S
O51 C43 1.252 . S
In52 O53 2.294 . S
In52 O54 2.326 . S
In52 O58 2.266 . S
In52 O59 2.326 . S
In52 O60 2.266 . S
In52 O61 2.326 . S
In52 O63 2.294 . S
In52 O64 2.326 . S
O53 In52 2.294 . S
O53 C62 1.240 . S
O54 In52 2.326 . S
O54 C62 1.252 . S
C55 O58 1.252 . S
C55 O59 1.260 . S
C56 O63 1.240 . S
C56 O64 1.252 . S
C57 O60 1.252 . S
C57 O61 1.260 . S
O58 In52 2.266 . S
O58 C55 1.252 . S
O59 In52 2.326 . S
O59 C55 1.260 . S
O60 In52 2.266 . S
O60 C57 1.252 . S
O61 In52 2.326 . S
O61 C57 1.260 . S
C62 O53 1.240 . S
C62 O54 1.252 . S
O63 In52 2.294 . S
O63 C56 1.240 . S
O64 In52 2.326 . S
O64 C56 1.252 . S
In65 O66 2.294 . S
In65 O67 2.326 . S
In65 O71 2.266 . S
In65 O72 2.326 . S
In65 O73 2.266 . S
In65 O74 2.326 . S
In65 O76 2.294 . S
In65 O77 2.326 . S
O66 In65 2.294 . S
O66 C75 1.240 . S
O67 In65 2.326 . S
O67 C75 1.252 . S
C68 O71 1.252 . S
C68 O72 1.260 . S
C69 O76 1.240 . S
C69 O77 1.252 . S
C70 O73 1.252 . S
C70 O74 1.260 . S
O71 In65 2.266 . S
O71 C68 1.252 . S
O72 In65 2.326 . S
O72 C68 1.260 . S
O73 In65 2.266 . S
O73 C70 1.252 . S
O74 In65 2.326 . S
O74 C70 1.260 . S
C75 O66 1.240 . S
C75 O67 1.252 . S
O76 In65 2.294 . S
O76 C69 1.240 . S
O77 In65 2.326 . S
O77 C69 1.252 . S
In78 O79 2.294 . S
In78 O80 2.326 . S
In78 O84 2.266 . S
In78 O85 2.326 . S
In78 O86 2.266 . S
In78 O87 2.326 . S
In78 O89 2.294 . S
In78 O90 2.326 . S
O79 In78 2.294 . S
O79 C88 1.240 . S
O80 In78 2.326 . S
O80 C88 1.252 . S
C81 O84 1.252 . S
C81 O85 1.260 . S
C82 O89 1.240 . S
C82 O90 1.252 . S
C83 O86 1.252 . S
C83 O87 1.260 . S
O84 In78 2.266 . S
O84 C81 1.252 . S
O85 In78 2.326 . S
O85 C81 1.260 . S
O86 In78 2.266 . S
O86 C83 1.252 . S
O87 In78 2.326 . S
O87 C83 1.260 . S
C88 O79 1.240 . S
C88 O80 1.252 . S
O89 In78 2.294 . S
O89 C82 1.240 . S
O90 In78 2.326 . S
O90 C82 1.252 . S
In91 O92 2.294 . S
In91 O93 2.326 . S
In91 O97 2.266 . S
In91 O98 2.326 . S
In91 O99 2.266 . S
In91 O100 2.326 . S
In91 O102 2.294 . S
In91 O103 2.326 . S
O92 In91 2.294 . S
O92 C101 1.240 . S
O93 In91 2.326 . S
O93 C101 1.252 . S
C94 O97 1.252 . S
C94 O98 1.260 . S
C95 O102 1.240 . S
C95 O103 1.252 . S
C96 O99 1.252 . S
C96 O100 1.260 . S
O97 In91 2.266 . S
O97 C94 1.252 . S
O98 In91 2.326 . S
O98 C94 1.260 . S
O99 In91 2.266 . S
O99 C96 1.252 . S
O100 In91 2.326 . S
O100 C96 1.260 . S
C101 O92 1.240 . S
C101 O93 1.252 . S
O102 In91 2.294 . S
O102 C95 1.240 . S
O103 In91 2.326 . S
O103 C95 1.252 . S
In104 O105 2.294 . S
In104 O106 2.326 . S
In104 O110 2.266 . S
In104 O111 2.326 . S
In104 O112 2.266 . S
In104 O113 2.326 . S
In104 O115 2.294 . S
In104 O116 2.326 . S
O105 In104 2.294 . S
O105 C114 1.240 . S
O106 In104 2.326 . S
O106 C114 1.252 . S
C107 O110 1.252 . S
C107 O111 1.260 . S
C108 O115 1.240 . S
C108 O116 1.252 . S
C109 O112 1.252 . S
C109 O113 1.260 . S
O110 In104 2.266 . S
O110 C107 1.252 . S
O111 In104 2.326 . S
O111 C107 1.260 . S
O112 In104 2.266 . S
O112 C109 1.252 . S
O113 In104 2.326 . S
O113 C109 1.260 . S
C114 O105 1.240 . S
C114 O106 1.252 . S
O115 In104 2.294 . S
O115 C108 1.240 . S
O116 In104 2.326 . S
O116 C108 1.252 . S
In117 O118 2.294 . S
In117 O119 2.326 . S
In117 O123 2.266 . S
In117 O124 2.326 . S
In117 O125 2.266 . S
In117 O126 2.326 . S
In117 O128 2.294 . S
In117 O129 2.326 . S
O118 In117 2.294 . S
O118 C127 1.240 . S
O119 In117 2.326 . S
O119 C127 1.252 . S
C120 O123 1.252 . S
C120 O124 1.260 . S
C121 O128 1.240 . S
C121 O129 1.252 . S
C122 O125 1.252 . S
C122 O126 1.260 . S
O123 In117 2.266 . S
O123 C120 1.252 . S
O124 In117 2.326 . S
O124 C120 1.260 . S
O125 In117 2.266 . S
O125 C122 1.252 . S
O126 In117 2.326 . S
O126 C122 1.260 . S
C127 O118 1.240 . S
C127 O119 1.252 . S
O128 In117 2.294 . S
O128 C121 1.240 . S
O129 In117 2.326 . S
O129 C121 1.252 . S
In130 O131 2.294 . S
In130 O132 2.326 . S
In130 O136 2.266 . S
In130 O137 2.326 . S
In130 O138 2.266 . S
In130 O139 2.326 . S
In130 O141 2.294 . S
In130 O142 2.326 . S
O131 In130 2.294 . S
O131 C140 1.240 . S
O132 In130 2.326 . S
O132 C140 1.252 . S
C133 O136 1.252 . S
C133 O137 1.260 . S
C134 O141 1.240 . S
C134 O142 1.252 . S
C135 O138 1.252 . S
C135 O139 1.260 . S
O136 In130 2.266 . S
O136 C133 1.252 . S
O137 In130 2.326 . S
O137 C133 1.260 . S
O138 In130 2.266 . S
O138 C135 1.252 . S
O139 In130 2.326 . S
O139 C135 1.260 . S
C140 O131 1.240 . S
C140 O132 1.252 . S
O141 In130 2.294 . S
O141 C134 1.240 . S
O142 In130 2.326 . S
O142 C134 1.252 . S
In143 O144 2.294 . S
In143 O145 2.326 . S
In143 O149 2.266 . S
In143 O150 2.326 . S
In143 O151 2.266 . S
In143 O152 2.326 . S
In143 O154 2.294 . S
In143 O155 2.326 . S
O144 In143 2.294 . S
O144 C153 1.240 . S
O145 In143 2.326 . S
O145 C153 1.252 . S
C146 O149 1.252 . S
C146 O150 1.260 . S
C147 O154 1.240 . S
C147 O155 1.252 . S
C148 O151 1.252 . S
C148 O152 1.260 . S
O149 In143 2.266 . S
O149 C146 1.252 . S
O150 In143 2.326 . S
O150 C146 1.260 . S
O151 In143 2.266 . S
O151 C148 1.252 . S
O152 In143 2.326 . S
O152 C148 1.260 . S
C153 O144 1.240 . S
C153 O145 1.252 . S
O154 In143 2.294 . S
O154 C147 1.240 . S
O155 In143 2.326 . S
O155 C147 1.252 . S
In156 O157 2.294 . S
In156 O158 2.326 . S
In156 O162 2.266 . S
In156 O163 2.326 . S
In156 O164 2.266 . S
In156 O165 2.326 . S
In156 O167 2.294 . S
In156 O168 2.326 . S
O157 In156 2.294 . S
O157 C166 1.240 . S
O158 In156 2.326 . S
O158 C166 1.252 . S
C159 O162 1.252 . S
C159 O163 1.260 . S
C160 O167 1.240 . S
C160 O168 1.252 . S
C161 O164 1.252 . S
C161 O165 1.260 . S
O162 In156 2.266 . S
O162 C159 1.252 . S
O163 In156 2.326 . S
O163 C159 1.260 . S
O164 In156 2.266 . S
O164 C161 1.252 . S
O165 In156 2.326 . S
O165 C161 1.260 . S
C166 O157 1.240 . S
C166 O158 1.252 . S
O167 In156 2.294 . S
O167 C160 1.240 . S
O168 In156 2.326 . S
O168 C160 1.252 . S
In169 O170 2.294 . S
In169 O171 2.326 . S
In169 O175 2.266 . S
In169 O176 2.326 . S
In169 O177 2.266 . S
In169 O178 2.326 . S
In169 O180 2.294 . S
In169 O181 2.326 . S
O170 In169 2.294 . S
O170 C179 1.240 . S
O171 In169 2.326 . S
O171 C179 1.252 . S
C172 O175 1.252 . S
C172 O176 1.260 . S
C173 O180 1.240 . S
C173 O181 1.252 . S
C174 O177 1.252 . S
C174 O178 1.260 . S
O175 In169 2.266 . S
O175 C172 1.252 . S
O176 In169 2.326 . S
O176 C172 1.260 . S
O177 In169 2.266 . S
O177 C174 1.252 . S
O178 In169 2.326 . S
O178 C174 1.260 . S
C179 O170 1.240 . S
C179 O171 1.252 . S
O180 In169 2.294 . S
O180 C173 1.240 . S
O181 In169 2.326 . S
O181 C173 1.252 . S
In182 O183 2.294 . S
In182 O184 2.326 . S
In182 O188 2.266 . S
In182 O189 2.326 . S
In182 O190 2.266 . S
In182 O191 2.326 . S
In182 O193 2.294 . S
In182 O194 2.326 . S
O183 In182 2.294 . S
O183 C192 1.240 . S
O184 In182 2.326 . S
O184 C192 1.252 . S
C185 O188 1.252 . S
C185 O189 1.260 . S
C186 O193 1.240 . S
C186 O194 1.252 . S
C187 O190 1.252 . S
C187 O191 1.260 . S
O188 In182 2.266 . S
O188 C185 1.252 . S
O189 In182 2.326 . S
O189 C185 1.260 . S
O190 In182 2.266 . S
O190 C187 1.252 . S
O191 In182 2.326 . S
O191 C187 1.260 . S
C192 O183 1.240 . S
C192 O184 1.252 . S
O193 In182 2.294 . S
O193 C186 1.240 . S
O194 In182 2.326 . S
O194 C186 1.252 . S
In195 O196 2.294 . S
In195 O197 2.326 . S
In195 O201 2.266 . S
In195 O202 2.326 . S
In195 O203 2.266 . S
In195 O204 2.326 . S
In195 O206 2.294 . S
In195 O207 2.326 . S
O196 In195 2.294 . S
O196 C205 1.240 . S
O197 In195 2.326 . S
O197 C205 1.252 . S
C198 O201 1.252 . S
C198 O202 1.260 . S
C199 O206 1.240 . S
C199 O207 1.252 . S
C200 O203 1.252 . S
C200 O204 1.260 . S
O201 In195 2.266 . S
O201 C198 1.252 . S
O202 In195 2.326 . S
O202 C198 1.260 . S
O203 In195 2.266 . S
O203 C200 1.252 . S
O204 In195 2.326 . S
O204 C200 1.260 . S
C205 O196 1.240 . S
C205 O197 1.252 . S
O206 In195 2.294 . S
O206 C199 1.240 . S
O207 In195 2.326 . S
O207 C199 1.252 . S
H208 C216 0.929 . S
H209 C218 0.930 . S
H210 C220 0.930 . S
H211 C223 0.929 . S
H212 C226 0.930 . S
H213 C228 0.960 . S
H214 C228 0.960 . S
H215 C228 0.960 . S
C216 H208 0.929 . S
C216 C217 1.377 . S
C216 C218 1.384 . S
C217 C216 1.377 . S
C217 C223 1.390 . S
C218 H209 0.930 . S
C218 C216 1.384 . S
C218 C219 1.372 . S
C219 C218 1.372 . S
C219 C220 1.400 . S
C219 C224 1.490 . S
C220 H210 0.930 . S
C220 C219 1.400 . S
C220 C223 1.386 . S
H221 C237 0.930 . S
H222 C238 0.931 . S
C223 H211 0.929 . S
C223 C217 1.390 . S
C223 C220 1.386 . S
C224 C219 1.490 . S
C224 C226 1.395 . S
C224 C227 1.403 . S
H225 C231 0.930 . S
C226 H212 0.930 . S
C226 C224 1.395 . S
C226 C229 1.403 . S
C227 C224 1.403 . S
C227 C228 1.524 . S
C227 C231 1.400 . S
C228 H213 0.960 . S
C228 H214 0.960 . S
C228 H215 0.960 . S
C228 C227 1.524 . S
C229 C226 1.403 . S
C229 C230 1.392 . S
C229 C233 1.495 . S
C230 C229 1.392 . S
C230 C231 1.385 . S
C230 C232 1.478 . S
C231 H225 0.930 . S
C231 C227 1.400 . S
C231 C230 1.385 . S
C232 C230 1.478 . S
C232 C234 1.381 . S
C232 C238 1.383 . S
C233 C229 1.495 . S
C233 H239 0.959 . S
C233 H240 0.961 . S
C233 H241 0.960 . S
C234 C232 1.381 . S
C234 C235 1.394 . S
C234 H242 0.930 . S
C235 C234 1.394 . S
C235 C236 1.383 . S
C235 H243 0.929 . S
C236 C235 1.383 . S
C236 C237 1.377 . S
C237 H221 0.930 . S
C237 C236 1.377 . S
C237 C238 1.379 . S
C238 H222 0.931 . S
C238 C232 1.383 . S
C238 C237 1.379 . S
H239 C233 0.959 . S
H240 C233 0.961 . S
H241 C233 0.960 . S
H242 C234 0.930 . S
H243 C235 0.929 . S
H244 C252 0.929 . S
H245 C254 0.930 . S
H246 C256 0.930 . S
H247 C259 0.929 . S
H248 C262 0.930 . S
H249 C264 0.960 . S
H250 C264 0.960 . S
H251 C264 0.960 . S
C252 H244 0.929 . S
C252 C253 1.377 . S
C252 C254 1.384 . S
C253 C252 1.377 . S
C253 C259 1.390 . S
C254 H245 0.930 . S
C254 C252 1.384 . S
C254 C255 1.372 . S
C255 C254 1.372 . S
C255 C256 1.400 . S
C255 C260 1.490 . S
C256 H246 0.930 . S
C256 C255 1.400 . S
C256 C259 1.386 . S
H257 C273 0.930 . S
H258 C274 0.931 . S
C259 H247 0.929 . S
C259 C253 1.390 . S
C259 C256 1.386 . S
C260 C255 1.490 . S
C260 C262 1.395 . S
C260 C263 1.403 . S
H261 C267 0.930 . S
C262 H248 0.930 . S
C262 C260 1.395 . S
C262 C265 1.403 . S
C263 C260 1.403 . S
C263 C264 1.524 . S
C263 C267 1.400 . S
C264 H249 0.960 . S
C264 H250 0.960 . S
C264 H251 0.960 . S
C264 C263 1.524 . S
C265 C262 1.403 . S
C265 C266 1.392 . S
C265 C269 1.495 . S
C266 C265 1.392 . S
C266 C267 1.385 . S
C266 C268 1.478 . S
C267 H261 0.930 . S
C267 C263 1.400 . S
C267 C266 1.385 . S
C268 C266 1.478 . S
C268 C270 1.381 . S
C268 C274 1.383 . S
C269 C265 1.495 . S
C269 H275 0.959 . S
C269 H276 0.961 . S
C269 H277 0.960 . S
C270 C268 1.381 . S
C270 C271 1.394 . S
C270 H278 0.930 . S
C271 C270 1.394 . S
C271 C272 1.383 . S
C271 H279 0.929 . S
C272 C271 1.383 . S
C272 C273 1.377 . S
C273 H257 0.930 . S
C273 C272 1.377 . S
C273 C274 1.379 . S
C274 H258 0.931 . S
C274 C268 1.383 . S
C274 C273 1.379 . S
H275 C269 0.959 . S
H276 C269 0.961 . S
H277 C269 0.960 . S
H278 C270 0.930 . S
H279 C271 0.929 . S
H280 C288 0.929 . S
H281 C290 0.930 . S
H282 C292 0.930 . S
H283 C295 0.929 . S
H284 C298 0.930 . S
H285 C300 0.960 . S
H286 C300 0.960 . S
H287 C300 0.960 . S
C288 H280 0.929 . S
C288 C289 1.377 . S
C288 C290 1.384 . S
C289 C288 1.377 . S
C289 C295 1.390 . S
C290 H281 0.930 . S
C290 C288 1.384 . S
C290 C291 1.372 . S
C291 C290 1.372 . S
C291 C292 1.400 . S
C291 C296 1.490 . S
C292 H282 0.930 . S
C292 C291 1.400 . S
C292 C295 1.386 . S
H293 C309 0.930 . S
H294 C310 0.931 . S
C295 H283 0.929 . S
C295 C289 1.390 . S
C295 C292 1.386 . S
C296 C291 1.490 . S
C296 C298 1.395 . S
C296 C299 1.403 . S
H297 C303 0.930 . S
C298 H284 0.930 . S
C298 C296 1.395 . S
C298 C301 1.403 . S
C299 C296 1.403 . S
C299 C300 1.524 . S
C299 C303 1.400 . S
C300 H285 0.960 . S
C300 H286 0.960 . S
C300 H287 0.960 . S
C300 C299 1.524 . S
C301 C298 1.403 . S
C301 C302 1.392 . S
C301 C305 1.495 . S
C302 C301 1.392 . S
C302 C303 1.385 . S
C302 C304 1.478 . S
C303 H297 0.930 . S
C303 C299 1.400 . S
C303 C302 1.385 . S
C304 C302 1.478 . S
C304 C306 1.381 . S
C304 C310 1.383 . S
C305 C301 1.495 . S
C305 H311 0.959 . S
C305 H312 0.961 . S
C305 H313 0.960 . S
C306 C304 1.381 . S
C306 C307 1.394 . S
C306 H314 0.930 . S
C307 C306 1.394 . S
C307 C308 1.383 . S
C307 H315 0.929 . S
C308 C307 1.383 . S
C308 C309 1.377 . S
C309 H293 0.930 . S
C309 C308 1.377 . S
C309 C310 1.379 . S
C310 H294 0.931 . S
C310 C304 1.383 . S
C310 C309 1.379 . S
H311 C305 0.959 . S
H312 C305 0.961 . S
H313 C305 0.960 . S
H314 C306 0.930 . S
H315 C307 0.929 . S
H316 C324 0.929 . S
H317 C326 0.930 . S
H318 C328 0.930 . S
H319 C331 0.929 . S
H320 C334 0.930 . S
H321 C336 0.960 . S
H322 C336 0.960 . S
H323 C336 0.960 . S
C324 H316 0.929 . S
C324 C325 1.377 . S
C324 C326 1.384 . S
C325 C324 1.377 . S
C325 C331 1.390 . S
C326 H317 0.930 . S
C326 C324 1.384 . S
C326 C327 1.372 . S
C327 C326 1.372 . S
C327 C328 1.400 . S
C327 C332 1.490 . S
C328 H318 0.930 . S
C328 C327 1.400 . S
C328 C331 1.386 . S
H329 C345 0.930 . S
H330 C346 0.931 . S
C331 H319 0.929 . S
C331 C325 1.390 . S
C331 C328 1.386 . S
C332 C327 1.490 . S
C332 C334 1.395 . S
C332 C335 1.403 . S
H333 C339 0.930 . S
C334 H320 0.930 . S
C334 C332 1.395 . S
C334 C337 1.403 . S
C335 C332 1.403 . S
C335 C336 1.524 . S
C335 C339 1.400 . S
C336 H321 0.960 . S
C336 H322 0.960 . S
C336 H323 0.960 . S
C336 C335 1.524 . S
C337 C334 1.403 . S
C337 C338 1.392 . S
C337 C341 1.495 . S
C338 C337 1.392 . S
C338 C339 1.385 . S
C338 C340 1.478 . S
C339 H333 0.930 . S
C339 C335 1.400 . S
C339 C338 1.385 . S
C340 C338 1.478 . S
C340 C342 1.381 . S
C340 C346 1.383 . S
C341 C337 1.495 . S
C341 H347 0.959 . S
C341 H348 0.961 . S
C341 H349 0.960 . S
C342 C340 1.381 . S
C342 C343 1.394 . S
C342 H350 0.930 . S
C343 C342 1.394 . S
C343 C344 1.383 . S
C343 H351 0.929 . S
C344 C343 1.383 . S
C344 C345 1.377 . S
C345 H329 0.930 . S
C345 C344 1.377 . S
C345 C346 1.379 . S
C346 H330 0.931 . S
C346 C340 1.383 . S
C346 C345 1.379 . S
H347 C341 0.959 . S
H348 C341 0.961 . S
H349 C341 0.960 . S
H350 C342 0.930 . S
H351 C343 0.929 . S
H352 C360 0.929 . S
H353 C362 0.930 . S
H354 C364 0.930 . S
H355 C367 0.929 . S
H356 C370 0.930 . S
H357 C372 0.960 . S
H358 C372 0.960 . S
H359 C372 0.960 . S
C360 H352 0.929 . S
C360 C361 1.377 . S
C360 C362 1.384 . S
C361 C360 1.377 . S
C361 C367 1.390 . S
C362 H353 0.930 . S
C362 C360 1.384 . S
C362 C363 1.372 . S
C363 C362 1.372 . S
C363 C364 1.400 . S
C363 C368 1.490 . S
C364 H354 0.930 . S
C364 C363 1.400 . S
C364 C367 1.386 . S
H365 C381 0.930 . S
H366 C382 0.931 . S
C367 H355 0.929 . S
C367 C361 1.390 . S
C367 C364 1.386 . S
C368 C363 1.490 . S
C368 C370 1.395 . S
C368 C371 1.403 . S
H369 C375 0.930 . S
C370 H356 0.930 . S
C370 C368 1.395 . S
C370 C373 1.403 . S
C371 C368 1.403 . S
C371 C372 1.524 . S
C371 C375 1.400 . S
C372 H357 0.960 . S
C372 H358 0.960 . S
C372 H359 0.960 . S
C372 C371 1.524 . S
C373 C370 1.403 . S
C373 C374 1.392 . S
C373 C377 1.495 . S
C374 C373 1.392 . S
C374 C375 1.385 . S
C374 C376 1.478 . S
C375 H369 0.930 . S
C375 C371 1.400 . S
C375 C374 1.385 . S
C376 C374 1.478 . S
C376 C378 1.381 . S
C376 C382 1.383 . S
C377 C373 1.495 . S
C377 H383 0.959 . S
C377 H384 0.961 . S
C377 H385 0.960 . S
C378 C376 1.381 . S
C378 C379 1.394 . S
C378 H386 0.930 . S
C379 C378 1.394 . S
C379 C380 1.383 . S
C379 H387 0.929 . S
C380 C379 1.383 . S
C380 C381 1.377 . S
C381 H365 0.930 . S
C381 C380 1.377 . S
C381 C382 1.379 . S
C382 H366 0.931 . S
C382 C376 1.383 . S
C382 C381 1.379 . S
H383 C377 0.959 . S
H384 C377 0.961 . S
H385 C377 0.960 . S
H386 C378 0.930 . S
H387 C379 0.929 . S
H388 C396 0.929 . S
H389 C398 0.930 . S
H390 C400 0.930 . S
H391 C403 0.929 . S
H392 C406 0.930 . S
H393 C408 0.960 . S
H394 C408 0.960 . S
H395 C408 0.960 . S
C396 H388 0.929 . S
C396 C397 1.377 . S
C396 C398 1.384 . S
C397 C396 1.377 . S
C397 C403 1.390 . S
C398 H389 0.930 . S
C398 C396 1.384 . S
C398 C399 1.372 . S
C399 C398 1.372 . S
C399 C400 1.400 . S
C399 C404 1.490 . S
C400 H390 0.930 . S
C400 C399 1.400 . S
C400 C403 1.386 . S
H401 C417 0.930 . S
H402 C418 0.931 . S
C403 H391 0.929 . S
C403 C397 1.390 . S
C403 C400 1.386 . S
C404 C399 1.490 . S
C404 C406 1.395 . S
C404 C407 1.403 . S
H405 C411 0.930 . S
C406 H392 0.930 . S
C406 C404 1.395 . S
C406 C409 1.403 . S
C407 C404 1.403 . S
C407 C408 1.524 . S
C407 C411 1.400 . S
C408 H393 0.960 . S
C408 H394 0.960 . S
C408 H395 0.960 . S
C408 C407 1.524 . S
C409 C406 1.403 . S
C409 C410 1.392 . S
C409 C413 1.495 . S
C410 C409 1.392 . S
C410 C411 1.385 . S
C410 C412 1.478 . S
C411 H405 0.930 . S
C411 C407 1.400 . S
C411 C410 1.385 . S
C412 C410 1.478 . S
C412 C414 1.381 . S
C412 C418 1.383 . S
C413 C409 1.495 . S
C413 H419 0.959 . S
C413 H420 0.961 . S
C413 H421 0.960 . S
C414 C412 1.381 . S
C414 C415 1.394 . S
C414 H422 0.930 . S
C415 C414 1.394 . S
C415 C416 1.383 . S
C415 H423 0.929 . S
C416 C415 1.383 . S
C416 C417 1.377 . S
C417 H401 0.930 . S
C417 C416 1.377 . S
C417 C418 1.379 . S
C418 H402 0.931 . S
C418 C412 1.383 . S
C418 C417 1.379 . S
H419 C413 0.959 . S
H420 C413 0.961 . S
H421 C413 0.960 . S
H422 C414 0.930 . S
H423 C415 0.929 . S
H424 C432 0.929 . S
H425 C434 0.930 . S
H426 C436 0.930 . S
H427 C439 0.929 . S
H428 C442 0.930 . S
H429 C444 0.960 . S
H430 C444 0.960 . S
H431 C444 0.960 . S
C432 H424 0.929 . S
C432 C433 1.377 . S
C432 C434 1.384 . S
C433 C432 1.377 . S
C433 C439 1.390 . S
C434 H425 0.930 . S
C434 C432 1.384 . S
C434 C435 1.372 . S
C435 C434 1.372 . S
C435 C436 1.400 . S
C435 C440 1.490 . S
C436 H426 0.930 . S
C436 C435 1.400 . S
C436 C439 1.386 . S
H437 C453 0.930 . S
H438 C454 0.931 . S
C439 H427 0.929 . S
C439 C433 1.390 . S
C439 C436 1.386 . S
C440 C435 1.490 . S
C440 C442 1.395 . S
C440 C443 1.403 . S
H441 C447 0.930 . S
C442 H428 0.930 . S
C442 C440 1.395 . S
C442 C445 1.403 . S
C443 C440 1.403 . S
C443 C444 1.524 . S
C443 C447 1.400 . S
C444 H429 0.960 . S
C444 H430 0.960 . S
C444 H431 0.960 . S
C444 C443 1.524 . S
C445 C442 1.403 . S
C445 C446 1.392 . S
C445 C449 1.495 . S
C446 C445 1.392 . S
C446 C447 1.385 . S
C446 C448 1.478 . S
C447 H441 0.930 . S
C447 C443 1.400 . S
C447 C446 1.385 . S
C448 C446 1.478 . S
C448 C450 1.381 . S
C448 C454 1.383 . S
C449 C445 1.495 . S
C449 H455 0.959 . S
C449 H456 0.961 . S
C449 H457 0.960 . S
C450 C448 1.381 . S
C450 C451 1.394 . S
C450 H458 0.930 . S
C451 C450 1.394 . S
C451 C452 1.383 . S
C451 H459 0.929 . S
C452 C451 1.383 . S
C452 C453 1.377 . S
C453 H437 0.930 . S
C453 C452 1.377 . S
C453 C454 1.379 . S
C454 H438 0.931 . S
C454 C448 1.383 . S
C454 C453 1.379 . S
H455 C449 0.959 . S
H456 C449 0.961 . S
H457 C449 0.960 . S
H458 C450 0.930 . S
H459 C451 0.929 . S
H460 C468 0.929 . S
H461 C470 0.930 . S
H462 C472 0.930 . S
H463 C475 0.929 . S
H464 C478 0.930 . S
H465 C480 0.960 . S
H466 C480 0.960 . S
H467 C480 0.960 . S
C468 H460 0.929 . S
C468 C469 1.377 . S
C468 C470 1.384 . S
C469 C468 1.377 . S
C469 C475 1.390 . S
C470 H461 0.930 . S
C470 C468 1.384 . S
C470 C471 1.372 . S
C471 C470 1.372 . S
C471 C472 1.400 . S
C471 C476 1.490 . S
C472 H462 0.930 . S
C472 C471 1.400 . S
C472 C475 1.386 . S
H473 C489 0.930 . S
H474 C490 0.931 . S
C475 H463 0.929 . S
C475 C469 1.390 . S
C475 C472 1.386 . S
C476 C471 1.490 . S
C476 C478 1.395 . S
C476 C479 1.403 . S
H477 C483 0.930 . S
C478 H464 0.930 . S
C478 C476 1.395 . S
C478 C481 1.403 . S
C479 C476 1.403 . S
C479 C480 1.524 . S
C479 C483 1.400 . S
C480 H465 0.960 . S
C480 H466 0.960 . S
C480 H467 0.960 . S
C480 C479 1.524 . S
C481 C478 1.403 . S
C481 C482 1.392 . S
C481 C485 1.495 . S
C482 C481 1.392 . S
C482 C483 1.385 . S
C482 C484 1.478 . S
C483 H477 0.930 . S
C483 C479 1.400 . S
C483 C482 1.385 . S
C484 C482 1.478 . S
C484 C486 1.381 . S
C484 C490 1.383 . S
C485 C481 1.495 . S
C485 H491 0.959 . S
C485 H492 0.961 . S
C485 H493 0.960 . S
C486 C484 1.381 . S
C486 C487 1.394 . S
C486 H494 0.930 . S
C487 C486 1.394 . S
C487 C488 1.383 . S
C487 H495 0.929 . S
C488 C487 1.383 . S
C488 C489 1.377 . S
C489 H473 0.930 . S
C489 C488 1.377 . S
C489 C490 1.379 . S
C490 H474 0.931 . S
C490 C484 1.383 . S
C490 C489 1.379 . S
H491 C485 0.959 . S
H492 C485 0.961 . S
H493 C485 0.960 . S
H494 C486 0.930 . S
H495 C487 0.929 . S
H496 C504 0.929 . S
H497 C506 0.930 . S
H498 C508 0.930 . S
H499 C511 0.929 . S
H500 C514 0.930 . S
H501 C516 0.960 . S
H502 C516 0.960 . S
H503 C516 0.960 . S
C504 H496 0.929 . S
C504 C505 1.377 . S
C504 C506 1.384 . S
C505 C504 1.377 . S
C505 C511 1.390 . S
C506 H497 0.930 . S
C506 C504 1.384 . S
C506 C507 1.372 . S
C507 C506 1.372 . S
C507 C508 1.400 . S
C507 C512 1.490 . S
C508 H498 0.930 . S
C508 C507 1.400 . S
C508 C511 1.386 . S
H509 C525 0.930 . S
H510 C526 0.931 . S
C511 H499 0.929 . S
C511 C505 1.390 . S
C511 C508 1.386 . S
C512 C507 1.490 . S
C512 C514 1.395 . S
C512 C515 1.403 . S
H513 C519 0.930 . S
C514 H500 0.930 . S
C514 C512 1.395 . S
C514 C517 1.403 . S
C515 C512 1.403 . S
C515 C516 1.524 . S
C515 C519 1.400 . S
C516 H501 0.960 . S
C516 H502 0.960 . S
C516 H503 0.960 . S
C516 C515 1.524 . S
C517 C514 1.403 . S
C517 C518 1.392 . S
C517 C521 1.495 . S
C518 C517 1.392 . S
C518 C519 1.385 . S
C518 C520 1.478 1_556 S
C519 H513 0.930 . S
C519 C515 1.400 . S
C519 C518 1.385 . S
C520 C518 1.478 1_554 S
C520 C522 1.381 . S
C520 C526 1.383 . S
C521 C517 1.495 . S
C521 H527 0.959 . S
C521 H528 0.961 . S
C521 H529 0.960 . S
C522 C520 1.381 . S
C522 C523 1.394 . S
C522 H530 0.930 . S
C523 C522 1.394 . S
C523 C524 1.383 . S
C523 H531 0.929 . S
C524 C523 1.383 . S
C524 C525 1.377 . S
C525 H509 0.930 . S
C525 C524 1.377 . S
C525 C526 1.379 . S
C526 H510 0.931 . S
C526 C520 1.383 . S
C526 C525 1.379 . S
H527 C521 0.959 . S
H528 C521 0.961 . S
H529 C521 0.960 . S
H530 C522 0.930 . S
H531 C523 0.929 . S
H532 C540 0.929 . S
H533 C542 0.930 . S
H534 C544 0.930 . S
H535 C547 0.929 . S
H536 C550 0.930 . S
H537 C552 0.960 1_554 S
H538 C552 0.960 . S
H539 C552 0.960 . S
C540 H532 0.929 . S
C540 C541 1.377 . S
C540 C542 1.384 . S
C541 C540 1.377 . S
C541 C547 1.390 . S
C542 H533 0.930 . S
C542 C540 1.384 . S
C542 C543 1.372 . S
C543 C542 1.372 . S
C543 C544 1.400 . S
C543 C548 1.490 1_556 S
C544 H534 0.930 . S
C544 C543 1.400 . S
C544 C547 1.386 . S
H545 C561 0.930 . S
H546 C562 0.931 . S
C547 H535 0.929 . S
C547 C541 1.390 . S
C547 C544 1.386 . S
C548 C543 1.490 1_554 S
C548 C550 1.395 . S
C548 C551 1.403 . S
H549 C555 0.930 . S
C550 H536 0.930 . S
C550 C548 1.395 . S
C550 C553 1.403 . S
C551 C548 1.403 . S
C551 C552 1.524 1_554 S
C551 C555 1.400 . S
C552 H537 0.960 1_556 S
C552 H538 0.960 . S
C552 H539 0.960 . S
C552 C551 1.524 1_556 S
C553 C550 1.403 . S
C553 C554 1.392 . S
C553 C557 1.495 . S
C554 C553 1.392 . S
C554 C555 1.385 . S
C554 C556 1.478 . S
C555 H549 0.930 . S
C555 C551 1.400 . S
C555 C554 1.385 . S
C556 C554 1.478 . S
C556 C558 1.381 . S
C556 C562 1.383 . S
C557 C553 1.495 . S
C557 H563 0.959 . S
C557 H564 0.961 . S
C557 H565 0.960 . S
C558 C556 1.381 . S
C558 C559 1.394 . S
C558 H566 0.930 . S
C559 C558 1.394 . S
C559 C560 1.383 . S
C559 H567 0.929 . S
C560 C559 1.383 . S
C560 C561 1.377 . S
C561 H545 0.930 . S
C561 C560 1.377 . S
C561 C562 1.379 . S
C562 H546 0.931 . S
C562 C556 1.383 . S
C562 C561 1.379 . S
H563 C557 0.959 . S
H564 C557 0.961 . S
H565 C557 0.960 . S
H566 C558 0.930 . S
H567 C559 0.929 . S
H568 C576 0.929 . S
H569 C578 0.930 . S
H570 C580 0.930 . S
H571 C583 0.929 . S
H572 C586 0.905 1_556 S
H573 C588 0.960 . S
H574 C588 0.960 . S
H575 C588 0.960 1_556 S
C576 H568 0.929 . S
C576 C577 1.377 . S
C576 C578 1.384 . S
C577 C576 1.377 . S
C577 C583 1.390 . S
C578 H569 0.930 . S
C578 C576 1.384 . S
C578 C579 1.372 . S
C579 C578 1.372 . S
C579 C580 1.400 . S
C579 C584 1.491 1_556 S
C580 H570 0.930 . S
C580 C579 1.400 . S
C580 C583 1.386 . S
H581 C597 0.930 . S
H582 C598 0.931 . S
C583 H571 0.929 . S
C583 C577 1.390 . S
C583 C580 1.386 . S
C584 C579 1.491 1_554 S
C584 C586 1.394 . S
C584 C587 1.402 . S
H585 C591 0.930 . S
C586 H572 0.905 1_554 S
C586 C584 1.394 . S
C586 C589 1.403 . S
C587 C584 1.402 . S
C587 C588 1.524 . S
C587 C591 1.400 . S
C588 H573 0.960 . S
C588 H574 0.960 . S
C588 H575 0.960 1_554 S
C588 C587 1.524 . S
C589 C586 1.403 . S
C589 C590 1.392 . S
C589 C593 1.495 . S
C590 C589 1.392 . S
C590 C591 1.385 . S
C590 C592 1.478 . S
C591 H585 0.930 . S
C591 C587 1.400 . S
C591 C590 1.385 . S
C592 C590 1.478 . S
C592 C594 1.381 . S
C592 C598 1.383 . S
C593 C589 1.495 . S
C593 H599 0.959 . S
C593 H600 0.961 . S
C593 H601 0.960 . S
C594 C592 1.381 . S
C594 C595 1.394 . S
C594 H602 0.930 . S
C595 C594 1.394 . S
C595 C596 1.383 . S
C595 H603 0.929 . S
C596 C595 1.383 . S
C596 C597 1.377 . S
C597 H581 0.930 . S
C597 C596 1.377 . S
C597 C598 1.379 . S
C598 H582 0.931 . S
C598 C592 1.383 . S
C598 C597 1.379 . S
H599 C593 0.959 . S
H600 C593 0.961 . S
H601 C593 0.960 . S
H602 C594 0.930 . S
H603 C595 0.929 . S
H604 C612 0.929 . S
H605 C614 0.930 . S
H606 C616 0.930 . S
H607 C619 0.929 . S
H608 C622 0.930 1_554 S
H609 C624 0.960 1_556 S
H610 C624 0.960 . S
H611 C624 0.960 . S
C612 H604 0.929 . S
C612 C613 1.377 . S
C612 C614 1.384 . S
C613 C612 1.377 . S
C613 C619 1.390 . S
C614 H605 0.930 . S
C614 C612 1.384 . S
C614 C615 1.372 . S
C615 C614 1.372 . S
C615 C616 1.400 . S
C615 C620 1.490 . S
C616 H606 0.930 . S
C616 C615 1.400 . S
C616 C619 1.386 . S
H617 C633 0.930 . S
H618 C634 0.931 . S
C619 H607 0.929 . S
C619 C613 1.390 . S
C619 C616 1.386 . S
C620 C615 1.490 . S
C620 C622 1.395 1_554 S
C620 C623 1.403 1_554 S
H621 C627 0.930 . S
C622 H608 0.930 1_556 S
C622 C620 1.395 1_556 S
C622 C625 1.403 . S
C623 C620 1.403 1_556 S
C623 C624 1.524 1_556 S
C623 C627 1.400 . S
C624 H609 0.960 1_554 S
C624 H610 0.960 . S
C624 H611 0.960 . S
C624 C623 1.524 1_554 S
C625 C622 1.403 . S
C625 C626 1.392 . S
C625 C629 1.495 . S
C626 C625 1.392 . S
C626 C627 1.385 . S
C626 C628 1.478 . S
C627 H621 0.930 . S
C627 C623 1.400 . S
C627 C626 1.385 . S
C628 C626 1.478 . S
C628 C630 1.381 . S
C628 C634 1.383 . S
C629 C625 1.495 . S
C629 H635 0.959 . S
C629 H636 0.961 . S
C629 H637 0.960 . S
C630 C628 1.381 . S
C630 C631 1.394 . S
C630 H638 0.930 . S
C631 C630 1.394 . S
C631 C632 1.383 . S
C631 H639 0.929 . S
C632 C631 1.383 . S
C632 C633 1.377 . S
C633 H617 0.930 . S
C633 C632 1.377 . S
C633 C634 1.379 . S
C634 H618 0.931 . S
C634 C628 1.383 . S
C634 C633 1.379 . S
H635 C629 0.959 . S
H636 C629 0.961 . S
H637 C629 0.960 . S
H638 C630 0.930 . S
H639 C631 0.929 . S
H640 C648 0.929 . S
H641 C650 0.930 . S
H642 C652 0.930 . S
H643 C655 0.929 . S
H644 C658 0.930 . S
H645 C660 0.960 . S
H646 C660 0.960 . S
H647 C660 0.960 . S
C648 H640 0.929 . S
C648 C649 1.377 . S
C648 C650 1.384 . S
C649 C648 1.377 . S
C649 C655 1.390 . S
C650 H641 0.930 . S
C650 C648 1.384 . S
C650 C651 1.372 . S
C651 C650 1.372 . S
C651 C652 1.400 . S
C651 C656 1.490 . S
C652 H642 0.930 . S
C652 C651 1.400 . S
C652 C655 1.386 . S
H653 C669 0.930 . S
H654 C670 0.931 1_455 S
C655 H643 0.929 . S
C655 C649 1.390 . S
C655 C652 1.386 . S
C656 C651 1.490 . S
C656 C658 1.395 . S
C656 C659 1.403 . S
H657 C663 0.930 . S
C658 H644 0.930 . S
C658 C656 1.395 . S
C658 C661 1.403 . S
C659 C656 1.403 . S
C659 C660 1.524 . S
C659 C663 1.400 . S
C660 H645 0.960 . S
C660 H646 0.960 . S
C660 H647 0.960 . S
C660 C659 1.524 . S
C661 C658 1.403 . S
C661 C662 1.392 . S
C661 C665 1.495 . S
C662 C661 1.392 . S
C662 C663 1.385 . S
C662 C664 1.478 . S
C663 H657 0.930 . S
C663 C659 1.400 . S
C663 C662 1.385 . S
C664 C662 1.478 . S
C664 C666 1.381 1_455 S
C664 C670 1.383 1_455 S
C665 C661 1.495 . S
C665 H671 0.959 . S
C665 H672 0.961 . S
C665 H673 0.960 . S
C666 C664 1.381 1_655 S
C666 C667 1.394 . S
C666 H674 0.930 . S
C667 C666 1.394 . S
C667 C668 1.383 . S
C667 H675 0.929 . S
C668 C667 1.383 . S
C668 C669 1.377 . S
C669 H653 0.930 . S
C669 C668 1.377 . S
C669 C670 1.379 . S
C670 H654 0.931 1_655 S
C670 C664 1.383 1_655 S
C670 C669 1.379 . S
H671 C665 0.959 . S
H672 C665 0.961 . S
H673 C665 0.960 . S
H674 C666 0.930 . S
H675 C667 0.929 . S
H676 C684 0.929 . S
H677 C686 0.930 . S
H678 C688 0.930 . S
H679 C691 0.929 . S
H680 C694 0.930 1_565 S
H681 C696 0.960 . S
H682 C696 0.960 1_565 S
H683 C696 0.960 1_565 S
C684 H676 0.929 . S
C684 C685 1.377 . S
C684 C686 1.384 . S
C685 C684 1.377 . S
C685 C691 1.390 . S
C686 H677 0.930 . S
C686 C684 1.384 . S
C686 C687 1.372 . S
C687 C686 1.372 . S
C687 C688 1.400 . S
C687 C692 1.490 . S
C688 H678 0.930 . S
C688 C687 1.400 . S
C688 C691 1.386 . S
H689 C705 0.930 . S
H690 C706 0.931 . S
C691 H679 0.929 . S
C691 C685 1.390 . S
C691 C688 1.386 . S
C692 C687 1.490 . S
C692 C694 1.395 1_565 S
C692 C695 1.403 1_565 S
H693 C699 0.930 . S
C694 H680 0.930 1_545 S
C694 C692 1.395 1_545 S
C694 C697 1.403 . S
C695 C692 1.403 1_545 S
C695 C696 1.524 . S
C695 C699 1.400 . S
C696 H681 0.960 . S
C696 H682 0.960 1_545 S
C696 H683 0.960 1_545 S
C696 C695 1.524 . S
C697 C694 1.403 . S
C697 C698 1.392 . S
C697 C701 1.495 . S
C698 C697 1.392 . S
C698 C699 1.385 . S
C698 C700 1.478 . S
C699 H693 0.930 . S
C699 C695 1.400 . S
C699 C698 1.385 . S
C700 C698 1.478 . S
C700 C702 1.381 . S
C700 C706 1.383 . S
C701 C697 1.495 . S
C701 H707 0.959 . S
C701 H708 0.961 . S
C701 H709 0.960 . S
C702 C700 1.381 . S
C702 C703 1.394 . S
C702 H710 0.930 . S
C703 C702 1.394 . S
C703 C704 1.383 . S
C703 H711 0.929 . S
C704 C703 1.383 . S
C704 C705 1.377 . S
C705 H689 0.930 . S
C705 C704 1.377 . S
C705 C706 1.379 . S
C706 H690 0.931 . S
C706 C700 1.383 . S
C706 C705 1.379 . S
H707 C701 0.959 . S
H708 C701 0.961 . S
H709 C701 0.960 . S
H710 C702 0.930 . S
H711 C703 0.929 . S
H712 C720 0.929 . S
H713 C722 0.930 . S
H714 C724 0.930 . S
H715 C727 0.929 . S
H716 C730 0.930 . S
H717 C732 0.960 1_455 S
H718 C732 0.960 . S
H719 C732 0.960 . S
C720 H712 0.929 . S
C720 C721 1.377 . S
C720 C722 1.384 . S
C721 C720 1.377 . S
C721 C727 1.390 . S
C722 H713 0.930 . S
C722 C720 1.384 . S
C722 C723 1.372 . S
C723 C722 1.372 . S
C723 C724 1.400 . S
C723 C728 1.490 . S
C724 H714 0.930 . S
C724 C723 1.400 . S
C724 C727 1.386 . S
H725 C741 0.930 . S
H726 C742 0.931 . S
C727 H715 0.929 . S
C727 C721 1.390 . S
C727 C724 1.386 . S
C728 C723 1.490 . S
C728 C730 1.395 . S
C728 C731 1.403 . S
H729 C735 0.930 . S
C730 H716 0.930 . S
C730 C728 1.395 . S
C730 C733 1.369 1_655 S
C731 C728 1.403 . S
C731 C732 1.524 . S
C731 C735 1.400 1_655 S
C732 H717 0.960 1_655 S
C732 H718 0.960 . S
C732 H719 0.960 . S
C732 C731 1.524 . S
C733 C730 1.369 1_455 S
C733 C734 1.419 . S
C733 C737 1.502 . S
C734 C733 1.419 . S
C734 C735 1.385 . S
C734 C736 1.478 . S
C735 H729 0.930 . S
C735 C731 1.400 1_455 S
C735 C734 1.385 . S
C736 C734 1.478 . S
C736 C738 1.381 . S
C736 C742 1.383 . S
C737 C733 1.502 . S
C737 H743 0.959 1_455 S
C737 H744 0.961 . S
C737 H745 0.960 . S
C738 C736 1.381 . S
C738 C739 1.394 . S
C738 H746 0.930 . S
C739 C738 1.394 . S
C739 C740 1.383 . S
C739 H747 0.929 . S
C740 C739 1.383 . S
C740 C741 1.377 . S
C741 H725 0.930 . S
C741 C740 1.377 . S
C741 C742 1.379 . S
C742 H726 0.931 . S
C742 C736 1.383 . S
C742 C741 1.379 . S
H743 C737 0.959 1_655 S
H744 C737 0.961 . S
H745 C737 0.960 . S
H746 C738 0.930 . S
H747 C739 0.929 . S
H748 C756 0.929 . S
H749 C758 0.930 . S
H750 C760 0.930 . S
H751 C763 0.929 . S
H752 C766 0.930 . S
H753 C768 0.960 1_565 S
H754 C768 0.960 . S
H755 C768 0.960 . S
C756 H748 0.929 . S
C756 C757 1.377 . S
C756 C758 1.384 . S
C757 C756 1.377 . S
C757 C763 1.390 . S
C758 H749 0.930 . S
C758 C756 1.384 . S
C758 C759 1.372 . S
C759 C758 1.372 . S
C759 C760 1.400 . S
C759 C764 1.476 1_545 S
C760 H750 0.930 . S
C760 C759 1.400 . S
C760 C763 1.386 . S
H761 C777 0.930 . S
H762 C778 0.931 . S
C763 H751 0.929 . S
C763 C757 1.390 . S
C763 C760 1.386 . S
C764 C759 1.476 1_565 S
C764 C766 1.402 . S
C764 C767 1.409 . S
H765 C771 0.930 . S
C766 H752 0.930 . S
C766 C764 1.402 . S
C766 C769 1.403 . S
C767 C764 1.409 . S
C767 C768 1.524 1_565 S
C767 C771 1.400 . S
C768 H753 0.960 1_545 S
C768 H754 0.960 . S
C768 H755 0.960 . S
C768 C767 1.524 1_545 S
C769 C766 1.403 . S
C769 C770 1.392 . S
C769 C773 1.495 . S
C770 C769 1.392 . S
C770 C771 1.385 . S
C770 C772 1.478 . S
C771 H765 0.930 . S
C771 C767 1.400 . S
C771 C770 1.385 . S
C772 C770 1.478 . S
C772 C774 1.381 . S
C772 C778 1.383 . S
C773 C769 1.495 . S
C773 H779 0.959 . S
C773 H780 0.961 . S
C773 H781 0.960 . S
C774 C772 1.381 . S
C774 C775 1.394 . S
C774 H782 0.930 . S
C775 C774 1.394 . S
C775 C776 1.383 . S
C775 H783 0.929 . S
C776 C775 1.383 . S
C776 C777 1.377 . S
C777 H761 0.930 . S
C777 C776 1.377 . S
C777 C778 1.379 . S
C778 H762 0.931 . S
C778 C772 1.383 . S
C778 C777 1.379 . S
H779 C773 0.959 . S
H780 C773 0.961 . S
H781 C773 0.960 . S
H782 C774 0.930 . S
H783 C775 0.929 . S
H784 C792 0.929 . S
H785 C794 0.930 . S
H786 C796 0.930 . S
H787 C799 0.929 . S
H788 C802 0.930 . S
H789 C804 0.960 . S
H790 C804 0.960 . S
H791 C804 0.960 . S
C792 H784 0.929 . S
C792 C793 1.377 . S
C792 C794 1.384 . S
C793 C792 1.377 . S
C793 C799 1.390 . S
C794 H785 0.930 . S
C794 C792 1.384 . S
C794 C795 1.372 . S
C795 C794 1.372 . S
C795 C796 1.400 . S
C795 C800 1.490 . S
C796 H786 0.930 . S
C796 C795 1.400 . S
C796 C799 1.386 . S
H797 C813 0.930 . S
H798 C814 0.931 . S
C799 H787 0.929 . S
C799 C793 1.390 . S
C799 C796 1.386 . S
C800 C795 1.490 . S
C800 C802 1.395 . S
C800 C803 1.403 . S
H801 C807 0.930 . S
C802 H788 0.930 . S
C802 C800 1.395 . S
C802 C805 1.403 . S
C803 C800 1.403 . S
C803 C804 1.524 . S
C803 C807 1.400 . S
C804 H789 0.960 . S
C804 H790 0.960 . S
C804 H791 0.960 . S
C804 C803 1.524 . S
C805 C802 1.403 . S
C805 C806 1.392 . S
C805 C809 1.495 . S
C806 C805 1.392 . S
C806 C807 1.385 . S
C806 C808 1.478 . S
C807 H801 0.930 . S
C807 C803 1.400 . S
C807 C806 1.385 . S
C808 C806 1.478 . S
C808 C810 1.381 1_655 S
C808 C814 1.383 1_655 S
C809 C805 1.495 . S
C809 H815 0.959 . S
C809 H816 0.961 . S
C809 H817 0.960 . S
C810 C808 1.381 1_455 S
C810 C811 1.394 . S
C810 H818 0.930 . S
C811 C810 1.394 . S
C811 C812 1.383 . S
C811 H819 0.929 . S
C812 C811 1.383 . S
C812 C813 1.377 . S
C813 H797 0.930 . S
C813 C812 1.377 . S
C813 C814 1.379 . S
C814 H798 0.931 . S
C814 C808 1.383 1_455 S
C814 C813 1.379 . S
H815 C809 0.959 . S
H816 C809 0.961 . S
H817 C809 0.960 . S
H818 C810 0.930 . S
H819 C811 0.929 . S
H820 C828 0.929 . S
H821 C830 0.930 . S
H822 C832 0.930 . S
H823 C835 0.929 . S
H824 C838 0.930 . S
H825 C840 0.960 . S
H826 C840 0.960 . S
H827 C840 0.960 . S
C828 H820 0.929 . S
C828 C829 1.377 . S
C828 C830 1.384 . S
C829 C828 1.377 . S
C829 C835 1.390 . S
C830 H821 0.930 . S
C830 C828 1.384 . S
C830 C831 1.372 . S
C831 C830 1.372 . S
C831 C832 1.400 . S
C831 C836 1.490 . S
C832 H822 0.930 . S
C832 C831 1.400 . S
C832 C835 1.386 . S
H833 C849 0.930 . S
H834 C850 0.931 . S
C835 H823 0.929 . S
C835 C829 1.390 . S
C835 C832 1.386 . S
C836 C831 1.490 . S
C836 C838 1.395 . S
C836 C839 1.403 . S
H837 C843 0.930 1_545 S
C838 H824 0.930 . S
C838 C836 1.395 . S
C838 C841 1.403 . S
C839 C836 1.403 . S
C839 C840 1.524 . S
C839 C843 1.400 . S
C840 H825 0.960 . S
C840 H826 0.960 . S
C840 H827 0.960 . S
C840 C839 1.524 . S
C841 C838 1.403 . S
C841 C842 1.392 . S
C841 C845 1.495 . S
C842 C841 1.392 . S
C842 C843 1.385 . S
C842 C844 1.478 1_565 S
C843 H837 0.930 1_565 S
C843 C839 1.400 . S
C843 C842 1.385 . S
C844 C842 1.478 1_545 S
C844 C846 1.381 . S
C844 C850 1.383 . S
C845 C841 1.495 . S
C845 H851 0.959 . S
C845 H852 0.961 . S
C845 H853 0.960 . S
C846 C844 1.381 . S
C846 C847 1.394 . S
C846 H854 0.930 . S
C847 C846 1.394 . S
C847 C848 1.383 . S
C847 H855 0.929 . S
C848 C847 1.383 . S
C848 C849 1.377 . S
C849 H833 0.930 . S
C849 C848 1.377 . S
C849 C850 1.379 . S
C850 H834 0.931 . S
C850 C844 1.383 . S
C850 C849 1.379 . S
H851 C845 0.959 . S
H852 C845 0.961 . S
H853 C845 0.960 . S
H854 C846 0.930 . S
H855 C847 0.929 . S
H856 C864 0.929 . S
H857 C866 0.930 . S
H858 C868 0.930 . S
H859 C871 0.929 . S
H860 C874 0.930 . S
H861 C876 0.960 . S
H862 C876 0.960 . S
H863 C876 0.960 . S
C864 H856 0.929 . S
C864 C865 1.377 . S
C864 C866 1.384 . S
C865 C864 1.377 . S
C865 C871 1.390 . S
C866 H857 0.930 . S
C866 C864 1.384 . S
C866 C867 1.372 . S
C867 C866 1.372 . S
C867 C868 1.400 . S
C867 C872 1.490 . S
C868 H858 0.930 . S
C868 C867 1.400 . S
C868 C871 1.386 . S
H869 C885 0.930 . S
H870 C886 0.931 . S
C871 H859 0.929 . S
C871 C865 1.390 . S
C871 C868 1.386 . S
C872 C867 1.490 . S
C872 C874 1.395 . S
C872 C875 1.403 . S
H873 C879 0.930 . S
C874 H860 0.930 . S
C874 C872 1.395 . S
C874 C877 1.403 1_455 S
C875 C872 1.403 . S
C875 C876 1.524 . S
C875 C879 1.400 1_455 S
C876 H861 0.960 . S
C876 H862 0.960 . S
C876 H863 0.960 . S
C876 C875 1.524 . S
C877 C874 1.403 1_655 S
C877 C878 1.392 . S
C877 C881 1.495 . S
C878 C877 1.392 . S
C878 C879 1.385 . S
C878 C880 1.478 . S
C879 H873 0.930 . S
C879 C875 1.400 1_655 S
C879 C878 1.385 . S
C880 C878 1.478 . S
C880 C882 1.381 . S
C880 C886 1.383 . S
C881 C877 1.495 . S
C881 H887 0.959 . S
C881 H888 0.961 . S
C881 H889 0.960 . S
C882 C880 1.381 . S
C882 C883 1.394 . S
C882 H890 0.930 . S
C883 C882 1.394 . S
C883 C884 1.383 . S
C883 H891 0.929 . S
C884 C883 1.383 . S
C884 C885 1.377 . S
C885 H869 0.930 . S
C885 C884 1.377 . S
C885 C886 1.379 . S
C886 H870 0.931 . S
C886 C880 1.383 . S
C886 C885 1.379 . S
H887 C881 0.959 . S
H888 C881 0.961 . S
H889 C881 0.960 . S
H890 C882 0.930 . S
H891 C883 0.929 . S
H892 C900 0.929 . S
H893 C902 0.930 . S
H894 C904 0.930 . S
H895 C907 0.929 . S
H896 C910 0.930 . S
H897 C912 0.960 . S
H898 C912 0.960 . S
H899 C912 0.960 . S
C900 H892 0.929 . S
C900 C901 1.377 . S
C900 C902 1.384 . S
C901 C900 1.377 . S
C901 C907 1.390 . S
C902 H893 0.930 . S
C902 C900 1.384 . S
C902 C903 1.372 . S
C903 C902 1.372 . S
C903 C904 1.400 . S
C903 C908 1.490 1_565 S
C904 H894 0.930 . S
C904 C903 1.400 . S
C904 C907 1.386 . S
H905 C921 0.930 . S
H906 C922 0.931 . S
C907 H895 0.929 . S
C907 C901 1.390 . S
C907 C904 1.386 . S
C908 C903 1.490 1_545 S
C908 C910 1.395 . S
C908 C911 1.403 . S
H909 C915 0.930 . S
C910 H896 0.930 . S
C910 C908 1.395 . S
C910 C913 1.403 . S
C911 C908 1.403 . S
C911 C912 1.524 . S
C911 C915 1.400 . S
C912 H897 0.960 . S
C912 H898 0.960 . S
C912 H899 0.960 . S
C912 C911 1.524 . S
C913 C910 1.403 . S
C913 C914 1.392 . S
C913 C917 1.495 . S
C914 C913 1.392 . S
C914 C915 1.385 . S
C914 C916 1.478 . S
C915 H909 0.930 . S
C915 C911 1.400 . S
C915 C914 1.385 . S
C916 C914 1.478 . S
C916 C918 1.381 . S
C916 C922 1.383 . S
C917 C913 1.495 . S
C917 H923 0.959 . S
C917 H924 0.961 . S
C917 H925 0.960 . S
C918 C916 1.381 . S
C918 C919 1.394 . S
C918 H926 0.930 . S
C919 C918 1.394 . S
C919 C920 1.383 . S
C919 H927 0.929 . S
C920 C919 1.383 . S
C920 C921 1.377 . S
C921 H905 0.930 . S
C921 C920 1.377 . S
C921 C922 1.379 . S
C922 H906 0.931 . S
C922 C916 1.383 . S
C922 C921 1.379 . S
H923 C917 0.959 . S
H924 C917 0.961 . S
H925 C917 0.960 . S
H926 C918 0.930 . S
H927 C919 0.929 . S
H928 C936 0.929 . S
H929 C938 0.930 . S
H930 C940 0.930 . S
H931 C943 0.929 . S
H932 C946 0.930 . S
H933 C948 0.960 . S
H934 C948 0.960 . S
H935 C948 0.960 . S
C936 H928 0.929 . S
C936 C937 1.377 . S
C936 C938 1.384 . S
C937 C936 1.377 . S
C937 C943 1.390 . S
C938 H929 0.930 . S
C938 C936 1.384 . S
C938 C939 1.372 . S
C939 C938 1.372 . S
C939 C940 1.400 . S
C939 C944 1.490 . S
C940 H930 0.930 . S
C940 C939 1.400 . S
C940 C943 1.386 . S
H941 C957 0.930 . S
H942 C958 0.931 . S
C943 H931 0.929 . S
C943 C937 1.390 . S
C943 C940 1.386 . S
C944 C939 1.490 . S
C944 C946 1.395 . S
C944 C947 1.403 . S
H945 C951 0.930 . S
C946 H932 0.930 . S
C946 C944 1.395 . S
C946 C949 1.403 . S
C947 C944 1.403 . S
C947 C948 1.524 . S
C947 C951 1.400 . S
C948 H933 0.960 . S
C948 H934 0.960 . S
C948 H935 0.960 . S
C948 C947 1.524 . S
C949 C946 1.403 . S
C949 C950 1.392 . S
C949 C953 1.495 . S
C950 C949 1.392 . S
C950 C951 1.385 . S
C950 C952 1.478 . S
C951 H945 0.930 . S
C951 C947 1.400 . S
C951 C950 1.385 . S
C952 C950 1.478 . S
C952 C954 1.381 . S
C952 C958 1.383 . S
C953 C949 1.495 . S
C953 H959 0.959 . S
C953 H960 0.961 . S
C953 H961 0.960 . S
C954 C952 1.381 . S
C954 C955 1.394 . S
C954 H962 0.930 . S
C955 C954 1.394 . S
C955 C956 1.383 . S
C955 H963 0.929 . S
C956 C955 1.383 . S
C956 C957 1.377 . S
C957 H941 0.930 . S
C957 C956 1.377 . S
C957 C958 1.379 . S
C958 H942 0.931 . S
C958 C952 1.383 . S
C958 C957 1.379 . S
H959 C953 0.959 . S
H960 C953 0.961 . S
H961 C953 0.960 . S
H962 C954 0.930 . S
H963 C955 0.929 . S
H964 C972 0.929 . S
H965 C974 0.930 . S
H966 C976 0.930 . S
H967 C979 0.929 . S
H968 C982 0.930 . S
H969 C984 0.960 . S
H970 C984 0.960 . S
H971 C984 0.960 . S
C972 H964 0.929 . S
C972 C973 1.377 . S
C972 C974 1.384 . S
C973 C972 1.377 . S
C973 C979 1.390 . S
C974 H965 0.930 . S
C974 C972 1.384 . S
C974 C975 1.372 . S
C975 C974 1.372 . S
C975 C976 1.400 . S
C975 C980 1.490 . S
C976 H966 0.930 . S
C976 C975 1.400 . S
C976 C979 1.386 . S
H977 C993 0.930 . S
H978 C994 0.931 . S
C979 H967 0.929 . S
C979 C973 1.390 . S
C979 C976 1.386 . S
C980 C975 1.490 . S
C980 C982 1.395 . S
C980 C983 1.403 . S
H981 C987 0.930 . S
C982 H968 0.930 . S
C982 C980 1.395 . S
C982 C985 1.403 . S
C983 C980 1.403 . S
C983 C984 1.524 . S
C983 C987 1.400 . S
C984 H969 0.960 . S
C984 H970 0.960 . S
C984 H971 0.960 . S
C984 C983 1.524 . S
C985 C982 1.403 . S
C985 C986 1.392 . S
C985 C989 1.495 . S
C986 C985 1.392 . S
C986 C987 1.385 . S
C986 C988 1.478 . S
C987 H981 0.930 . S
C987 C983 1.400 . S
C987 C986 1.385 . S
C988 C986 1.478 . S
C988 C990 1.381 . S
C988 C994 1.383 . S
C989 C985 1.495 . S
C989 H995 0.959 . S
C989 H996 0.961 . S
C989 H997 0.960 . S
C990 C988 1.381 . S
C990 C991 1.394 . S
C990 H998 0.930 . S
C991 C990 1.394 . S
C991 C992 1.383 . S
C991 H999 0.929 . S
C992 C991 1.383 . S
C992 C993 1.377 . S
C993 H977 0.930 . S
C993 C992 1.377 . S
C993 C994 1.379 . S
C994 H978 0.931 . S
C994 C988 1.383 . S
C994 C993 1.379 . S
H995 C989 0.959 . S
H996 C989 0.961 . S
H997 C989 0.960 . S
H998 C990 0.930 . S
H999 C991 0.929 . S
H1000 C1008 0.929 . S
H1001 C1010 0.930 . S
H1002 C1012 0.930 . S
H1003 C1015 0.929 . S
H1004 C1018 0.930 . S
H1005 C1020 0.960 . S
H1006 C1020 0.960 . S
H1007 C1020 0.960 . S
C1008 H1000 0.929 . S
C1008 C1009 1.377 . S
C1008 C1010 1.384 . S
C1009 C1008 1.377 . S
C1009 C1015 1.390 . S
C1010 H1001 0.930 . S
C1010 C1008 1.384 . S
C1010 C1011 1.372 . S
C1011 C1010 1.372 . S
C1011 C1012 1.400 . S
C1011 C1016 1.490 . S
C1012 H1002 0.930 . S
C1012 C1011 1.400 . S
C1012 C1015 1.386 . S
H1013 C1029 0.930 . S
H1014 C1030 0.931 . S
C1015 H1003 0.929 . S
C1015 C1009 1.390 . S
C1015 C1012 1.386 . S
C1016 C1011 1.490 . S
C1016 C1018 1.395 . S
C1016 C1019 1.403 . S
H1017 C1023 0.930 . S
C1018 H1004 0.930 . S
C1018 C1016 1.395 . S
C1018 C1021 1.403 . S
C1019 C1016 1.403 . S
C1019 C1020 1.524 . S
C1019 C1023 1.400 . S
C1020 H1005 0.960 . S
C1020 H1006 0.960 . S
C1020 H1007 0.960 . S
C1020 C1019 1.524 . S
C1021 C1018 1.403 . S
C1021 C1022 1.392 . S
C1021 C1025 1.495 . S
C1022 C1021 1.392 . S
C1022 C1023 1.385 . S
C1022 C1024 1.478 . S
C1023 H1017 0.930 . S
C1023 C1019 1.400 . S
C1023 C1022 1.385 . S
C1024 C1022 1.478 . S
C1024 C1026 1.381 . S
C1024 C1030 1.383 . S
C1025 C1021 1.495 . S
C1025 H1031 0.959 . S
C1025 H1032 0.961 . S
C1025 H1033 0.960 . S
C1026 C1024 1.381 . S
C1026 C1027 1.394 . S
C1026 H1034 0.930 . S
C1027 C1026 1.394 . S
C1027 C1028 1.383 . S
C1027 H1035 0.929 . S
C1028 C1027 1.383 . S
C1028 C1029 1.377 . S
C1029 H1013 0.930 . S
C1029 C1028 1.377 . S
C1029 C1030 1.379 . S
C1030 H1014 0.931 . S
C1030 C1024 1.383 . S
C1030 C1029 1.379 . S
H1031 C1025 0.959 . S
H1032 C1025 0.961 . S
H1033 C1025 0.960 . S
H1034 C1026 0.930 . S
H1035 C1027 0.929 . S
H1036 C1044 0.929 . S
H1037 C1046 0.930 . S
H1038 C1048 0.930 . S
H1039 C1051 0.929 . S
H1040 C1054 0.930 . S
H1041 C1056 0.960 . S
H1042 C1056 0.960 . S
H1043 C1056 0.960 . S
C1044 H1036 0.929 . S
C1044 C1045 1.377 . S
C1044 C1046 1.384 . S
C1045 C1044 1.377 . S
C1045 C1051 1.390 . S
C1046 H1037 0.930 . S
C1046 C1044 1.384 . S
C1046 C1047 1.372 . S
C1047 C1046 1.372 . S
C1047 C1048 1.400 . S
C1047 C1052 1.490 . S
C1048 H1038 0.930 . S
C1048 C1047 1.400 . S
C1048 C1051 1.386 . S
H1049 C1065 0.930 . S
H1050 C1066 0.931 . S
C1051 H1039 0.929 . S
C1051 C1045 1.390 . S
C1051 C1048 1.386 . S
C1052 C1047 1.490 . S
C1052 C1054 1.395 . S
C1052 C1055 1.403 . S
H1053 C1059 0.930 . S
C1054 H1040 0.930 . S
C1054 C1052 1.395 . S
C1054 C1057 1.403 . S
C1055 C1052 1.403 . S
C1055 C1056 1.524 . S
C1055 C1059 1.400 . S
C1056 H1041 0.960 . S
C1056 H1042 0.960 . S
C1056 H1043 0.960 . S
C1056 C1055 1.524 . S
C1057 C1054 1.403 . S
C1057 C1058 1.392 . S
C1057 C1061 1.495 . S
C1058 C1057 1.392 . S
C1058 C1059 1.385 . S
C1058 C1060 1.478 . S
C1059 H1053 0.930 . S
C1059 C1055 1.400 . S
C1059 C1058 1.385 . S
C1060 C1058 1.478 . S
C1060 C1062 1.381 . S
C1060 C1066 1.383 . S
C1061 C1057 1.495 . S
C1061 H1067 0.959 . S
C1061 H1068 0.961 . S
C1061 H1069 0.960 . S
C1062 C1060 1.381 . S
C1062 C1063 1.394 . S
C1062 H1070 0.930 . S
C1063 C1062 1.394 . S
C1063 C1064 1.383 . S
C1063 H1071 0.929 . S
C1064 C1063 1.383 . S
C1064 C1065 1.377 . S
C1065 H1049 0.930 . S
C1065 C1064 1.377 . S
C1065 C1066 1.379 . S
C1066 H1050 0.931 . S
C1066 C1060 1.383 . S
C1066 C1065 1.379 . S
H1067 C1061 0.959 . S
H1068 C1061 0.961 . S
H1069 C1061 0.960 . S
H1070 C1062 0.930 . S
H1071 C1063 0.929 . S
H1072 C1080 0.929 . S
H1073 C1082 0.930 . S
H1074 C1084 0.930 . S
H1075 C1087 0.929 . S
H1076 C1090 0.930 . S
H1077 C1092 0.960 . S
H1078 C1092 0.960 . S
H1079 C1092 0.960 . S
C1080 H1072 0.929 . S
C1080 C1081 1.377 . S
C1080 C1082 1.384 . S
C1081 C1080 1.377 . S
C1081 C1087 1.390 . S
C1082 H1073 0.930 . S
C1082 C1080 1.384 . S
C1082 C1083 1.372 . S
C1083 C1082 1.372 . S
C1083 C1084 1.400 . S
C1083 C1088 1.490 . S
C1084 H1074 0.930 . S
C1084 C1083 1.400 . S
C1084 C1087 1.386 . S
H1085 C1101 0.930 . S
H1086 C1102 0.931 . S
C1087 H1075 0.929 . S
C1087 C1081 1.390 . S
C1087 C1084 1.386 . S
C1088 C1083 1.490 . S
C1088 C1090 1.395 . S
C1088 C1091 1.403 . S
H1089 C1095 0.930 . S
C1090 H1076 0.930 . S
C1090 C1088 1.395 . S
C1090 C1093 1.403 . S
C1091 C1088 1.403 . S
C1091 C1092 1.524 . S
C1091 C1095 1.400 . S
C1092 H1077 0.960 . S
C1092 H1078 0.960 . S
C1092 H1079 0.960 . S
C1092 C1091 1.524 . S
C1093 C1090 1.403 . S
C1093 C1094 1.392 . S
C1093 C1097 1.495 . S
C1094 C1093 1.392 . S
C1094 C1095 1.385 . S
C1094 C1096 1.478 . S
C1095 H1089 0.930 . S
C1095 C1091 1.400 . S
C1095 C1094 1.385 . S
C1096 C1094 1.478 . S
C1096 C1098 1.381 . S
C1096 C1102 1.383 . S
C1097 C1093 1.495 . S
C1097 H1103 0.959 . S
C1097 H1104 0.961 . S
C1097 H1105 0.960 . S
C1098 C1096 1.381 . S
C1098 C1099 1.394 . S
C1098 H1106 0.930 . S
C1099 C1098 1.394 . S
C1099 C1100 1.383 . S
C1099 H1107 0.929 . S
C1100 C1099 1.383 . S
C1100 C1101 1.377 . S
C1101 H1085 0.930 . S
C1101 C1100 1.377 . S
C1101 C1102 1.379 . S
C1102 H1086 0.931 . S
C1102 C1096 1.383 . S
C1102 C1101 1.379 . S
H1103 C1097 0.959 . S
H1104 C1097 0.961 . S
H1105 C1097 0.960 . S
H1106 C1098 0.930 . S
H1107 C1099 0.929 . S
H1108 C1116 0.929 . S
H1109 C1118 0.930 . S
H1110 C1120 0.930 . S
H1111 C1123 0.929 . S
H1112 C1126 0.930 . S
H1113 C1128 0.960 . S
H1114 C1128 0.960 . S
H1115 C1128 0.960 . S
C1116 H1108 0.929 . S
C1116 C1117 1.377 . S
C1116 C1118 1.384 . S
C1117 C1116 1.377 . S
C1117 C1123 1.390 . S
C1118 H1109 0.930 . S
C1118 C1116 1.384 . S
C1118 C1119 1.372 . S
C1119 C1118 1.372 . S
C1119 C1120 1.400 . S
C1119 C1124 1.490 . S
C1120 H1110 0.930 . S
C1120 C1119 1.400 . S
C1120 C1123 1.386 . S
H1121 C1137 0.930 . S
H1122 C1138 0.931 . S
C1123 H1111 0.929 . S
C1123 C1117 1.390 . S
C1123 C1120 1.386 . S
C1124 C1119 1.490 . S
C1124 C1126 1.395 . S
C1124 C1127 1.403 . S
H1125 C1131 0.930 . S
C1126 H1112 0.930 . S
C1126 C1124 1.395 . S
C1126 C1129 1.403 . S
C1127 C1124 1.403 . S
C1127 C1128 1.524 . S
C1127 C1131 1.400 . S
C1128 H1113 0.960 . S
C1128 H1114 0.960 . S
C1128 H1115 0.960 . S
C1128 C1127 1.524 . S
C1129 C1126 1.403 . S
C1129 C1130 1.392 . S
C1129 C1133 1.495 . S
C1130 C1129 1.392 . S
C1130 C1131 1.385 . S
C1130 C1132 1.478 . S
C1131 H1125 0.930 . S
C1131 C1127 1.400 . S
C1131 C1130 1.385 . S
C1132 C1130 1.478 . S
C1132 C1134 1.381 . S
C1132 C1138 1.383 . S
C1133 C1129 1.495 . S
C1133 H1139 0.959 . S
C1133 H1140 0.961 . S
C1133 H1141 0.960 . S
C1134 C1132 1.381 . S
C1134 C1135 1.394 . S
C1134 H1142 0.930 . S
C1135 C1134 1.394 . S
C1135 C1136 1.383 . S
C1135 H1143 0.929 . S
C1136 C1135 1.383 . S
C1136 C1137 1.377 . S
C1137 H1121 0.930 . S
C1137 C1136 1.377 . S
C1137 C1138 1.379 . S
C1138 H1122 0.931 . S
C1138 C1132 1.383 . S
C1138 C1137 1.379 . S
H1139 C1133 0.959 . S
H1140 C1133 0.961 . S
H1141 C1133 0.960 . S
H1142 C1134 0.930 . S
H1143 C1135 0.929 . S
H1144 C1152 0.929 . S
H1145 C1154 0.930 . S
H1146 C1156 0.930 . S
H1147 C1159 0.929 . S
H1148 C1162 0.930 . S
H1149 C1164 0.960 . S
H1150 C1164 0.960 . S
H1151 C1164 0.960 . S
C1152 H1144 0.929 . S
C1152 C1153 1.377 . S
C1152 C1154 1.384 . S
C1153 C1152 1.377 . S
C1153 C1159 1.390 . S
C1154 H1145 0.930 . S
C1154 C1152 1.384 . S
C1154 C1155 1.372 . S
C1155 C1154 1.372 . S
C1155 C1156 1.400 . S
C1155 C1160 1.490 . S
C1156 H1146 0.930 . S
C1156 C1155 1.400 . S
C1156 C1159 1.386 . S
H1157 C1173 0.930 . S
H1158 C1174 0.931 . S
C1159 H1147 0.929 . S
C1159 C1153 1.390 . S
C1159 C1156 1.386 . S
C1160 C1155 1.490 . S
C1160 C1162 1.395 . S
C1160 C1163 1.403 . S
H1161 C1167 0.930 . S
C1162 H1148 0.930 . S
C1162 C1160 1.395 . S
C1162 C1165 1.403 . S
C1163 C1160 1.403 . S
C1163 C1164 1.524 . S
C1163 C1167 1.400 . S
C1164 H1149 0.960 . S
C1164 H1150 0.960 . S
C1164 H1151 0.960 . S
C1164 C1163 1.524 . S
C1165 C1162 1.403 . S
C1165 C1166 1.392 . S
C1165 C1169 1.495 . S
C1166 C1165 1.392 . S
C1166 C1167 1.385 . S
C1166 C1168 1.478 . S
C1167 H1161 0.930 . S
C1167 C1163 1.400 . S
C1167 C1166 1.385 . S
C1168 C1166 1.478 . S
C1168 C1170 1.381 . S
C1168 C1174 1.383 . S
C1169 C1165 1.495 . S
C1169 H1175 0.959 . S
C1169 H1176 0.961 . S
C1169 H1177 0.960 . S
C1170 C1168 1.381 . S
C1170 C1171 1.394 . S
C1170 H1178 0.930 . S
C1171 C1170 1.394 . S
C1171 C1172 1.383 . S
C1171 H1179 0.929 . S
C1172 C1171 1.383 . S
C1172 C1173 1.377 . S
C1173 H1157 0.930 . S
C1173 C1172 1.377 . S
C1173 C1174 1.379 . S
C1174 H1158 0.931 . S
C1174 C1168 1.383 . S
C1174 C1173 1.379 . S
H1175 C1169 0.959 . S
H1176 C1169 0.961 . S
H1177 C1169 0.960 . S
H1178 C1170 0.930 . S
H1179 C1171 0.929 . S
H1180 C1188 0.929 . S
H1181 C1190 0.930 . S
H1182 C1192 0.930 . S
H1183 C1195 0.929 . S
H1184 C1198 0.930 . S
H1185 C1200 0.960 . S
H1186 C1200 0.960 . S
H1187 C1200 0.960 . S
C1188 H1180 0.929 . S
C1188 C1189 1.377 . S
C1188 C1190 1.384 . S
C1189 C1188 1.377 . S
C1189 C1195 1.390 . S
C1190 H1181 0.930 . S
C1190 C1188 1.384 . S
C1190 C1191 1.372 . S
C1191 C1190 1.372 . S
C1191 C1192 1.400 . S
C1191 C1196 1.490 . S
C1192 H1182 0.930 . S
C1192 C1191 1.400 . S
C1192 C1195 1.386 . S
H1193 C1209 0.930 . S
H1194 C1210 0.931 . S
C1195 H1183 0.929 . S
C1195 C1189 1.390 . S
C1195 C1192 1.386 . S
C1196 C1191 1.490 . S
C1196 C1198 1.395 . S
C1196 C1199 1.403 . S
H1197 C1203 0.930 . S
C1198 H1184 0.930 . S
C1198 C1196 1.395 . S
C1198 C1201 1.403 . S
C1199 C1196 1.403 . S
C1199 C1200 1.524 . S
C1199 C1203 1.400 . S
C1200 H1185 0.960 . S
C1200 H1186 0.960 . S
C1200 H1187 0.960 . S
C1200 C1199 1.524 . S
C1201 C1198 1.403 . S
C1201 C1202 1.392 . S
C1201 C1205 1.495 . S
C1202 C1201 1.392 . S
C1202 C1203 1.385 . S
C1202 C1204 1.478 . S
C1203 H1197 0.930 . S
C1203 C1199 1.400 . S
C1203 C1202 1.385 . S
C1204 C1202 1.478 . S
C1204 C1206 1.381 . S
C1204 C1210 1.383 . S
C1205 C1201 1.495 . S
C1205 H1211 0.959 . S
C1205 H1212 0.961 . S
C1205 H1213 0.960 . S
C1206 C1204 1.381 . S
C1206 C1207 1.394 . S
C1206 H1214 0.930 . S
C1207 C1206 1.394 . S
C1207 C1208 1.383 . S
C1207 H1215 0.929 . S
C1208 C1207 1.383 . S
C1208 C1209 1.377 . S
C1209 H1193 0.930 . S
C1209 C1208 1.377 . S
C1209 C1210 1.379 . S
C1210 H1194 0.931 . S
C1210 C1204 1.383 . S
C1210 C1209 1.379 . S
H1211 C1205 0.959 . S
H1212 C1205 0.961 . S
H1213 C1205 0.960 . S
H1214 C1206 0.930 . S
H1215 C1207 0.929 . S
H1216 C1224 0.929 . S
H1217 C1226 0.930 . S
H1218 C1228 0.930 . S
H1219 C1231 0.929 . S
H1220 C1234 0.930 . S
H1221 C1236 0.960 . S
H1222 C1236 0.960 . S
H1223 C1236 0.960 . S
C1224 H1216 0.929 . S
C1224 C1225 1.377 . S
C1224 C1226 1.384 . S
C1225 C1224 1.377 . S
C1225 C1231 1.390 . S
C1226 H1217 0.930 . S
C1226 C1224 1.384 . S
C1226 C1227 1.372 . S
C1227 C1226 1.372 . S
C1227 C1228 1.400 . S
C1227 C1232 1.490 . S
C1228 H1218 0.930 . S
C1228 C1227 1.400 . S
C1228 C1231 1.386 . S
H1229 C1245 0.930 . S
H1230 C1246 0.931 . S
C1231 H1219 0.929 . S
C1231 C1225 1.390 . S
C1231 C1228 1.386 . S
C1232 C1227 1.490 . S
C1232 C1234 1.395 . S
C1232 C1235 1.403 . S
H1233 C1239 0.930 . S
C1234 H1220 0.930 . S
C1234 C1232 1.395 . S
C1234 C1237 1.403 . S
C1235 C1232 1.403 . S
C1235 C1236 1.524 . S
C1235 C1239 1.400 . S
C1236 H1221 0.960 . S
C1236 H1222 0.960 . S
C1236 H1223 0.960 . S
C1236 C1235 1.524 . S
C1237 C1234 1.403 . S
C1237 C1238 1.392 . S
C1237 C1241 1.495 . S
C1238 C1237 1.392 . S
C1238 C1239 1.385 . S
C1238 C1240 1.478 . S
C1239 H1233 0.930 . S
C1239 C1235 1.400 . S
C1239 C1238 1.385 . S
C1240 C1238 1.478 . S
C1240 C1242 1.381 . S
C1240 C1246 1.383 . S
C1241 C1237 1.495 . S
C1241 H1247 0.959 . S
C1241 H1248 0.961 . S
C1241 H1249 0.960 . S
C1242 C1240 1.381 . S
C1242 C1243 1.394 . S
C1242 H1250 0.930 . S
C1243 C1242 1.394 . S
C1243 C1244 1.383 . S
C1243 H1251 0.929 . S
C1244 C1243 1.383 . S
C1244 C1245 1.377 . S
C1245 H1229 0.930 . S
C1245 C1244 1.377 . S
C1245 C1246 1.379 . S
C1246 H1230 0.931 . S
C1246 C1240 1.383 . S
C1246 C1245 1.379 . S
H1247 C1241 0.959 . S
H1248 C1241 0.961 . S
H1249 C1241 0.960 . S
H1250 C1242 0.930 . S
H1251 C1243 0.929 . S
H1252 C1260 0.929 . S
H1253 C1262 0.930 . S
H1254 C1264 0.930 . S
H1255 C1267 0.929 . S
H1256 C1270 0.930 . S
H1257 C1272 0.960 . S
H1258 C1272 0.960 . S
H1259 C1272 0.960 . S
C1260 H1252 0.929 . S
C1260 C1261 1.377 . S
C1260 C1262 1.384 . S
C1261 C1260 1.377 . S
C1261 C1267 1.390 . S
C1262 H1253 0.930 . S
C1262 C1260 1.384 . S
C1262 C1263 1.372 . S
C1263 C1262 1.372 . S
C1263 C1264 1.400 . S
C1263 C1268 1.490 . S
C1264 H1254 0.930 . S
C1264 C1263 1.400 . S
C1264 C1267 1.386 . S
H1265 C1281 0.930 . S
H1266 C1282 0.931 . S
C1267 H1255 0.929 . S
C1267 C1261 1.390 . S
C1267 C1264 1.386 . S
C1268 C1263 1.490 . S
C1268 C1270 1.395 . S
C1268 C1271 1.403 . S
H1269 C1275 0.930 . S
C1270 H1256 0.930 . S
C1270 C1268 1.395 . S
C1270 C1273 1.403 . S
C1271 C1268 1.403 . S
C1271 C1272 1.524 . S
C1271 C1275 1.400 . S
C1272 H1257 0.960 . S
C1272 H1258 0.960 . S
C1272 H1259 0.960 . S
C1272 C1271 1.524 . S
C1273 C1270 1.403 . S
C1273 C1274 1.392 . S
C1273 C1277 1.495 . S
C1274 C1273 1.392 . S
C1274 C1275 1.385 . S
C1274 C1276 1.478 . S
C1275 H1269 0.930 . S
C1275 C1271 1.400 . S
C1275 C1274 1.385 . S
C1276 C1274 1.478 . S
C1276 C1278 1.381 . S
C1276 C1282 1.383 . S
C1277 C1273 1.495 . S
C1277 H1283 0.959 . S
C1277 H1284 0.961 . S
C1277 H1285 0.960 . S
C1278 C1276 1.381 . S
C1278 C1279 1.394 . S
C1278 H1286 0.930 . S
C1279 C1278 1.394 . S
C1279 C1280 1.383 . S
C1279 H1287 0.929 . S
C1280 C1279 1.383 . S
C1280 C1281 1.377 . S
C1281 H1265 0.930 . S
C1281 C1280 1.377 . S
C1281 C1282 1.379 . S
C1282 H1266 0.931 . S
C1282 C1276 1.383 . S
C1282 C1281 1.379 . S
H1283 C1277 0.959 . S
H1284 C1277 0.961 . S
H1285 C1277 0.960 . S
H1286 C1278 0.930 . S
H1287 C1279 0.929 . S
H1288 C1296 0.929 . S
H1289 C1298 0.930 . S
H1290 C1300 0.930 . S
H1291 C1303 0.929 . S
H1292 C1306 0.930 . S
H1293 C1308 0.960 . S
H1294 C1308 0.960 . S
H1295 C1308 0.960 . S
C1296 H1288 0.929 . S
C1296 C1297 1.377 . S
C1296 C1298 1.384 . S
C1297 C1296 1.377 . S
C1297 C1303 1.390 . S
C1298 H1289 0.930 . S
C1298 C1296 1.384 . S
C1298 C1299 1.372 . S
C1299 C1298 1.372 . S
C1299 C1300 1.400 . S
C1299 C1304 1.490 . S
C1300 H1290 0.930 . S
C1300 C1299 1.400 . S
C1300 C1303 1.386 . S
H1301 C1317 0.930 . S
H1302 C1318 0.931 . S
C1303 H1291 0.929 . S
C1303 C1297 1.390 . S
C1303 C1300 1.386 . S
C1304 C1299 1.490 . S
C1304 C1306 1.395 . S
C1304 C1307 1.403 . S
H1305 C1311 0.930 . S
C1306 H1292 0.930 . S
C1306 C1304 1.395 . S
C1306 C1309 1.403 . S
C1307 C1304 1.403 . S
C1307 C1308 1.524 . S
C1307 C1311 1.400 . S
C1308 H1293 0.960 . S
C1308 H1294 0.960 . S
C1308 H1295 0.960 . S
C1308 C1307 1.524 . S
C1309 C1306 1.403 . S
C1309 C1310 1.392 . S
C1309 C1313 1.495 . S
C1310 C1309 1.392 . S
C1310 C1311 1.385 . S
C1310 C1312 1.478 . S
C1311 H1305 0.930 . S
C1311 C1307 1.400 . S
C1311 C1310 1.385 . S
C1312 C1310 1.478 . S
C1312 C1314 1.381 . S
C1312 C1318 1.383 . S
C1313 C1309 1.495 . S
C1313 H1319 0.959 . S
C1313 H1320 0.961 . S
C1313 H1321 0.960 . S
C1314 C1312 1.381 . S
C1314 C1315 1.394 . S
C1314 H1322 0.930 . S
C1315 C1314 1.394 . S
C1315 C1316 1.383 . S
C1315 H1323 0.929 . S
C1316 C1315 1.383 . S
C1316 C1317 1.377 . S
C1317 H1301 0.930 . S
C1317 C1316 1.377 . S
C1317 C1318 1.379 . S
C1318 H1302 0.931 . S
C1318 C1312 1.383 . S
C1318 C1317 1.379 . S
H1319 C1313 0.959 . S
H1320 C1313 0.961 . S
H1321 C1313 0.960 . S
H1322 C1314 0.930 . S
H1323 C1315 0.929 . S
H1324 C1332 0.929 . S
H1325 C1334 0.930 . S
H1326 C1336 0.930 . S
H1327 C1339 0.929 . S
H1328 C1342 0.930 . S
H1329 C1344 0.960 . S
H1330 C1344 0.960 . S
H1331 C1344 0.960 . S
C1332 H1324 0.929 . S
C1332 C1333 1.377 . S
C1332 C1334 1.384 . S
C1333 C1332 1.377 . S
C1333 C1339 1.390 . S
C1334 H1325 0.930 . S
C1334 C1332 1.384 . S
C1334 C1335 1.372 . S
C1335 C1334 1.372 . S
C1335 C1336 1.400 . S
C1335 C1340 1.490 . S
C1336 H1326 0.930 . S
C1336 C1335 1.400 . S
C1336 C1339 1.386 . S
H1337 C1353 0.930 . S
H1338 C1354 0.931 . S
C1339 H1327 0.929 . S
C1339 C1333 1.390 . S
C1339 C1336 1.386 . S
C1340 C1335 1.490 . S
C1340 C1342 1.395 . S
C1340 C1343 1.403 . S
H1341 C1347 0.930 . S
C1342 H1328 0.930 . S
C1342 C1340 1.395 . S
C1342 C1345 1.403 . S
C1343 C1340 1.403 . S
C1343 C1344 1.524 . S
C1343 C1347 1.400 . S
C1344 H1329 0.960 . S
C1344 H1330 0.960 . S
C1344 H1331 0.960 . S
C1344 C1343 1.524 . S
C1345 C1342 1.403 . S
C1345 C1346 1.392 . S
C1345 C1349 1.495 . S
C1346 C1345 1.392 . S
C1346 C1347 1.385 . S
C1346 C1348 1.478 . S
C1347 H1341 0.930 . S
C1347 C1343 1.400 . S
C1347 C1346 1.385 . S
C1348 C1346 1.478 . S
C1348 C1350 1.381 . S
C1348 C1354 1.383 . S
C1349 C1345 1.495 . S
C1349 H1355 0.959 . S
C1349 H1356 0.961 . S
C1349 H1357 0.960 . S
C1350 C1348 1.381 . S
C1350 C1351 1.394 . S
C1350 H1358 0.930 . S
C1351 C1350 1.394 . S
C1351 C1352 1.383 . S
C1351 H1359 0.929 . S
C1352 C1351 1.383 . S
C1352 C1353 1.377 . S
C1353 H1337 0.930 . S
C1353 C1352 1.377 . S
C1353 C1354 1.379 . S
C1354 H1338 0.931 . S
C1354 C1348 1.383 . S
C1354 C1353 1.379 . S
H1355 C1349 0.959 . S
H1356 C1349 0.961 . S
H1357 C1349 0.960 . S
H1358 C1350 0.930 . S
H1359 C1351 0.929 . S
C217 C199 1.289 . S
C236 C10 1.259 . S
C253 C160 0.742 . S
C272 C23 0.751 . S
C289 C36 0.993 . S
C308 C179 1.001 . S
C325 C186 0.976 . S
C344 C43 0.989 . S
C361 C127 0.743 . S
C380 C62 0.747 . S
C397 C69 0.979 . S
C416 C134 1.000 . S
C433 C82 0.980 . S
C452 C153 1.001 . S
C469 C101 1.300 . S
C488 C114 1.311 . S
C505 C70 1.735 . S
C524 C5 1.686 . S
C541 C81 1.396 . S
C560 C18 1.461 . S
C577 C94 1.716 . S
C596 C31 1.700 . S
C613 C44 1.277 . S
C632 C56 1.258 . S
C649 C4 1.406 . S
C668 C16 1.392 . S
C685 C29 1.276 . S
C704 C17 1.238 . S
C721 C30 1.818 . S
C740 C49 1.819 . S
C757 C3 1.713 . S
C776 C42 1.686 . S
C793 C95 1.408 . S
C812 C55 1.396 . S
C829 C57 1.452 . S
C848 C68 1.423 . S
C865 C75 1.507 . S
C884 C88 1.486 . S
C901 C96 1.665 . S
C920 C83 1.727 . S
C937 C172 1.735 . S
C956 C109 1.676 . S
C973 C122 1.454 . S
C992 C185 1.400 . S
C1009 C200 1.718 . S
C1028 C133 1.683 . S
C1045 C166 1.259 . S
C1064 C146 1.284 . S
C1081 C108 1.406 . S
C1100 C120 1.392 . S
C1117 C121 1.261 . S
C1136 C135 1.284 . S
C1153 C147 1.811 . S
C1172 C140 1.795 . S
C1189 C107 1.715 . S
C1208 C148 1.659 . S
C1225 C205 1.410 . S
C1244 C161 1.416 . S
C1261 C159 1.454 . S
C1280 C174 1.402 . S
C1297 C173 1.503 . S
C1316 C192 1.495 . S
C1333 C198 1.669 . S
C1352 C187 1.728 . S
