# Generated by pormake.
# Topology irl, (4)-cn, num edge types: 1
# Building blocks:
#     Node 0, Type 0, BuildingBlock: KUFVIS_clean_sbu_0, # of connection points: 4
#     Node 1, Type 0, BuildingBlock: KUFVIS_clean_sbu_0, # of connection points: 4
#     Node 2, Type 0, BuildingBlock: KUFVIS_clean_sbu_0, # of connection points: 4
#     Node 3, Type 0, BuildingBlock: KUFVIS_clean_sbu_0, # of connection points: 4
#     Node 4, Type 0, BuildingBlock: KUFVIS_clean_sbu_0, # of connection points: 4
#     Node 5, Type 0, BuildingBlock: KUFVIS_clean_sbu_0, # of connection points: 4
#     Node 6, Type 0, BuildingBlock: KUFVIS_clean_sbu_0, # of connection points: 4
#     Node 7, Type 0, BuildingBlock: KUFVIS_clean_sbu_0, # of connection points: 4
#     Edge 8, Type (0, 0), BuildingBlock: XIVTED_clean_linker_0, # of connection points: 2
#     Edge 9, Type (0, 0), BuildingBlock: XIVTED_clean_linker_0, # of connection points: 2
#     Edge 10, Type (0, 0), BuildingBlock: XIVTED_clean_linker_0, # of connection points: 2
#     Edge 11, Type (0, 0), BuildingBlock: XIVTED_clean_linker_0, # of connection points: 2
#     Edge 12, Type (0, 0), BuildingBlock: XIVTED_clean_linker_0, # of connection points: 2
#     Edge 13, Type (0, 0), BuildingBlock: XIVTED_clean_linker_0, # of connection points: 2
#     Edge 14, Type (0, 0), BuildingBlock: XIVTED_clean_linker_0, # of connection points: 2
#     Edge 15, Type (0, 0), BuildingBlock: XIVTED_clean_linker_0, # of connection points: 2
#     Edge 16, Type (0, 0), BuildingBlock: XIVTED_clean_linker_0, # of connection points: 2
#     Edge 17, Type (0, 0), BuildingBlock: XIVTED_clean_linker_0, # of connection points: 2
#     Edge 18, Type (0, 0), BuildingBlock: XIVTED_clean_linker_0, # of connection points: 2
#     Edge 19, Type (0, 0), BuildingBlock: XIVTED_clean_linker_0, # of connection points: 2
#     Edge 20, Type (0, 0), BuildingBlock: XIVTED_clean_linker_0, # of connection points: 2
#     Edge 21, Type (0, 0), BuildingBlock: XIVTED_clean_linker_0, # of connection points: 2
#     Edge 22, Type (0, 0), BuildingBlock: XIVTED_clean_linker_0, # of connection points: 2
#     Edge 23, Type (0, 0), BuildingBlock: XIVTED_clean_linker_0, # of connection points: 2
# Relax obj value: 0.101
# Max RMSD: 0.151
# Mean RMSD: 0.151
data_MOF--net-irl--node1-KUFVIS_clean_sbu_0--edge1-XIVTED_clean_linker_0
_symmetry_space_group_name_H-M    P1
_symmetry_Int_Tables_number       1
_symmetry_cell_setting            triclinic
loop_
_symmetry_equiv_pos_as_xyz
'x, y, z'
_cell_length_a     34.379486
_cell_length_b     44.95988
_cell_length_c     27.768345
_cell_angle_alpha  90.038202
_cell_angle_beta   89.934828
_cell_angle_gamma 89.929946
loop_
_atom_site_label
_atom_site_type_symbol
_atom_site_fract_x
_atom_site_fract_y
_atom_site_fract_z
_atom_type_partial_charge
Mn0 Mn 0.05848 0.15547 0.00742 0.0
Mn1 Mn 0.02843 0.22654 0.0199 0.0
C2 C 0.04465 0.17369 0.08282 0.0
C3 C 0.04097 0.1063 -0.00893 0.0
C4 C 0.11288 0.20893 0.00294 0.0
O5 O 0.04578 0.16809 0.93945 0.0
O6 O 0.01891 0.2132 0.9525 0.0
C7 C 0.94394 0.21672 0.0074 0.0
N8 N 0.97408 0.22706 0.03439 0.0
C9 C 0.9306 0.24273 0.09747 0.0
C10 C 0.89904 0.23258 0.07009 0.0
C11 C 0.90577 0.21944 0.02491 0.0
C12 C 0.96797 0.23959 0.078 0.0
H13 H 0.94902 0.20634 0.97289 0.0
C14 C 0.02855 0.19151 0.92501 0.0
O15 O 0.07648 0.11543 0.98447 0.0
O16 O 0.01609 0.1257 0.00654 0.0
N17 N 0.03543 0.24244 0.08328 0.0
C18 C 0.06913 0.24994 0.10604 0.0
C19 C 0.06753 0.26271 0.15218 0.0
C20 C 0.03135 0.26784 0.17424 0.0
C21 C 0.99707 0.26032 0.14985 0.0
C22 C 0.00045 0.24796 0.10373 0.0
H23 H 0.09702 0.24604 0.08928 0.0
O24 O 0.06512 0.14963 0.07793 0.0
O25 O 0.03156 0.18565 0.04342 0.0
O26 O 0.10814 0.18071 0.00458 0.0
O27 O 0.08491 0.22765 0.00649 0.0
C28 C 0.9597 0.26417 0.1698 0.0
C29 C 0.9265 0.25531 0.14369 0.0
H30 H 0.86957 0.23447 0.08361 0.0
H31 H 0.88159 0.21133 0.00374 0.0
H32 H 0.09412 0.26849 0.17077 0.0
H33 H 0.03023 0.27749 0.20994 0.0
H34 H 0.95616 0.27362 0.20538 0.0
H35 H 0.89796 0.25802 0.15968 0.0
Mn36 Mn 0.93762 0.84397 0.0024 0.0
Mn37 Mn 0.96328 0.77165 0.01136 0.0
C38 C 0.94773 0.82332 0.07667 0.0
C39 C 0.95706 0.8932 -0.00932 0.0
C40 C 0.8807 0.79215 -0.00847 0.0
O41 O 0.95401 0.8332 0.9351 0.0
O42 O 0.97459 0.78596 0.94488 0.0
C43 C 0.0485 0.77834 0.00093 0.0
N44 N 0.01728 0.76893 0.02699 0.0
C45 C 0.05868 0.75063 0.09022 0.0
C46 C 0.09129 0.75992 0.06388 0.0
C47 C 0.08616 0.77388 0.01908 0.0
C48 C 0.02187 0.75546 0.07012 0.0
H49 H 0.04466 0.78924 0.96661 0.0
C50 C 0.96917 0.80929 0.91922 0.0
O51 O 0.92174 0.88473 0.9811 0.0
O52 O 0.98071 0.87314 0.00693 0.0
N53 N 0.95425 0.75501 0.07383 0.0
C54 C 0.91974 0.74889 0.09589 0.0
C55 C 0.91976 0.73579 0.1418 0.0
C56 C 0.95519 0.72892 0.16437 0.0
C57 C 0.99032 0.73509 0.14071 0.0
C58 C 0.98849 0.74795 0.09484 0.0
H59 H 0.89242 0.75421 0.07879 0.0
O60 O 0.92779 0.84772 0.07257 0.0
O61 O 0.96199 0.81218 0.03719 0.0
O62 O 0.88714 0.82013 -0.00611 0.0
O63 O 0.90724 0.77246 -0.00347 0.0
C64 C 0.02707 0.72951 0.16122 0.0
C65 C 0.06122 0.73731 0.13604 0.0
H66 H 0.12038 0.7567 0.07791 0.0
H67 H 0.11118 0.78126 -0.00133 0.0
H68 H 0.89253 0.73111 0.15983 0.0
H69 H 0.9551 0.71909 0.19998 0.0
H70 H 0.02941 0.71955 0.19657 0.0
H71 H 0.08929 0.73329 0.15249 0.0
Mn72 Mn 0.05689 0.84599 0.48284 0.0
Mn73 Mn 0.02949 0.77402 0.47365 0.0
C74 C 0.04159 0.82664 0.40904 0.0
C75 C 0.03909 0.89525 0.49862 0.0
C76 C 0.11356 0.79335 0.48456 0.0
O77 O 0.04553 0.8343 0.5513 0.0
O78 O 0.02381 0.78744 0.54167 0.0
C79 C 0.94569 0.78209 0.49445 0.0
N80 N 0.97445 0.77241 0.46452 0.0
C81 C 0.9278 0.75557 0.40604 0.0
C82 C 0.89766 0.76515 0.4364 0.0
C83 C 0.90666 0.77851 0.48076 0.0
C84 C 0.96613 0.75957 0.42173 0.0
H85 H 0.9525 0.79252 0.52846 0.0
C86 C 0.0316 0.81016 0.56781 0.0
O87 O 0.07481 0.88629 0.50404 0.0
O88 O 0.01408 0.87564 0.48432 0.0
N89 N 0.03314 0.75787 0.41001 0.0
C90 C 0.0656 0.75074 0.38424 0.0
C91 C 0.06164 0.73769 0.33853 0.0
C92 C 0.02442 0.73185 0.32004 0.0
C93 C 0.99147 0.7389 0.34756 0.0
C94 C 0.99721 0.75162 0.39305 0.0
H95 H 0.09429 0.75518 0.39827 0.0
O96 O 0.06179 0.85092 0.41216 0.0
O97 O 0.02976 0.81492 0.44928 0.0
O98 O 0.10742 0.82145 0.48463 0.0
O99 O 0.08645 0.77399 0.48158 0.0
C100 C 0.95314 0.73427 0.33131 0.0
C101 C 0.92133 0.74265 0.36049 0.0
H102 H 0.86753 0.76258 0.42586 0.0
H103 H 0.88357 0.78611 0.50427 0.0
H104 H 0.08722 0.73225 0.31754 0.0
H105 H 0.02146 0.722 0.28466 0.0
H106 H 0.9478 0.7246 0.29619 0.0
H107 H 0.892 0.73929 0.34737 0.0
Mn108 Mn 0.93732 0.15761 0.49202 0.0
Mn109 Mn 0.96832 0.22846 0.48053 0.0
C110 C 0.95184 0.17597 0.41699 0.0
C111 C 0.95403 0.10813 0.50766 0.0
C112 C 0.88349 0.21163 0.49599 0.0
O113 O 0.94981 0.1698 0.56025 0.0
O114 O 0.9767 0.21493 0.54807 0.0
C115 C 0.05247 0.21776 0.49483 0.0
N116 N 0.02287 0.22841 0.46722 0.0
C117 C 0.06746 0.24366 0.40516 0.0
C118 C 0.09848 0.23319 0.4332 0.0
C119 C 0.09093 0.2201 0.47817 0.0
C120 C 0.02978 0.24088 0.42378 0.0
H121 H 0.04676 0.20742 0.52918 0.0
C122 C 0.96686 0.19316 0.57519 0.0
O123 O 0.91864 0.11763 0.51423 0.0
O124 O 0.97927 0.12738 0.49279 0.0
N125 N 0.96245 0.24453 0.41712 0.0
C126 C 0.92921 0.25249 0.39372 0.0
C127 C 0.93165 0.26532 0.34772 0.0
C128 C 0.96821 0.27005 0.32645 0.0
C129 C 0.00202 0.26205 0.35146 0.0
C130 C 0.9978 0.24964 0.39741 0.0
H131 H 0.90103 0.24891 0.40989 0.0
O132 O 0.93098 0.15212 0.42144 0.0
O133 O 0.96492 0.18766 0.45662 0.0
O134 O 0.88799 0.18337 0.49471 0.0
O135 O 0.91166 0.23014 0.4927 0.0
C136 C 0.03972 0.26552 0.33235 0.0
C137 C 0.07241 0.25627 0.35911 0.0
H138 H 0.12817 0.2348 0.42034 0.0
H139 H 0.11468 0.21174 0.49985 0.0
H140 H 0.90542 0.27148 0.32864 0.0
H141 H 0.97 0.27982 0.2909 0.0
H142 H 0.0439 0.27502 0.29692 0.0
H143 H 0.10121 0.25872 0.34377 0.0
Mn144 Mn 0.55472 0.66072 0.01574 0.0
Mn145 Mn 0.52822 0.73263 0.02971 0.0
C146 C 0.5523 0.68129 0.09111 0.0
C147 C 0.53626 0.61104 0.00777 0.0
C148 C 0.60896 0.7139 -0.00166 0.0
O149 O 0.53047 0.67092 0.95199 0.0
O150 O 0.51314 0.71866 0.96425 0.0
C151 C 0.443 0.72334 0.02839 0.0
N152 N 0.47539 0.73357 0.05119 0.0
C153 C 0.43767 0.74968 0.11947 0.0
C154 C 0.40387 0.73953 0.09655 0.0
C155 C 0.40657 0.72627 0.05084 0.0
C156 C 0.47313 0.74634 0.09519 0.0
H157 H 0.44497 0.71295 -0.0066 0.0
C158 C 0.51532 0.69525 0.93805 0.0
O159 O 0.56944 0.62033 -0.00894 0.0
O160 O 0.51405 0.63049 0.02847 0.0
N161 N 0.54064 0.74931 0.09127 0.0
C162 C 0.57611 0.75712 0.10909 0.0
C163 C 0.57856 0.7702 0.15494 0.0
C164 C 0.54455 0.77531 0.18181 0.0
C165 C 0.50833 0.76758 0.16234 0.0
C166 C 0.50766 0.7549 0.11625 0.0
H167 H 0.60235 0.75316 0.08866 0.0
O168 O 0.5726 0.65737 0.08355 0.0
O169 O 0.53336 0.69203 0.05453 0.0
O170 O 0.60284 0.68581 -0.00129 0.0
O171 O 0.58303 0.73322 0.00907 0.0
C172 C 0.47293 0.77151 0.18715 0.0
C173 C 0.43764 0.76252 0.16578 0.0
H174 H 0.37575 0.74159 0.11386 0.0
H175 H 0.38065 0.71822 0.03304 0.0
H176 H 0.60662 0.77616 0.16967 0.0
H177 H 0.5466 0.78506 0.2174 0.0
H178 H 0.47251 0.78116 0.22287 0.0
H179 H 0.41066 0.76537 0.18545 0.0
Mn180 Mn 0.43606 0.34815 0.01742 0.0
Mn181 Mn 0.46544 0.27669 0.0267 0.0
C182 C 0.44502 0.32725 0.09187 0.0
C183 C 0.45262 0.39819 0.0091 0.0
C184 C 0.38219 0.29428 0.00507 0.0
O185 O 0.45558 0.33876 0.95072 0.0
O186 O 0.47552 0.29137 0.96007 0.0
C187 C 0.55002 0.28699 0.01592 0.0
N188 N 0.5196 0.27631 0.04215 0.0
C189 C 0.56236 0.26049 0.10576 0.0
C190 C 0.59418 0.27111 0.07926 0.0
C191 C 0.58796 0.28444 0.03417 0.0
C192 C 0.52525 0.2634 0.08555 0.0
H193 H 0.54536 0.29745 0.98141 0.0
C194 C 0.47054 0.31483 0.93459 0.0
O195 O 0.41859 0.38861 -0.00415 0.0
O196 O 0.47679 0.37881 0.02618 0.0
N197 N 0.45781 0.25963 0.08916 0.0
C198 C 0.42388 0.2517 0.11108 0.0
C199 C 0.42495 0.23874 0.15707 0.0
C200 C 0.46084 0.2339 0.1799 0.0
C201 C 0.49539 0.24185 0.15634 0.0
C202 C 0.49254 0.2544 0.11032 0.0
H203 H 0.3962 0.25551 0.0938 0.0
O204 O 0.42339 0.35075 0.08714 0.0
O205 O 0.46122 0.31701 0.05289 0.0
O206 O 0.38745 0.32247 0.00557 0.0
O207 O 0.4094 0.27539 0.01224 0.0
C208 C 0.53249 0.23833 0.17708 0.0
C209 C 0.56594 0.24767 0.15185 0.0
H210 H 0.62346 0.2694 0.09336 0.0
H211 H 0.61235 0.29285 0.01362 0.0
H212 H 0.39816 0.23266 0.17501 0.0
H213 H 0.46153 0.22421 0.21559 0.0
H214 H 0.53561 0.22876 0.21264 0.0
H215 H 0.59426 0.24516 0.16842 0.0
Mn216 Mn 0.5583 0.35113 0.49594 0.0
Mn217 Mn 0.52939 0.27948 0.48919 0.0
C218 C 0.54373 0.33076 0.42253 0.0
C219 C 0.54088 0.40075 0.50899 0.0
C220 C 0.61379 0.29786 0.50125 0.0
O221 O 0.5456 0.34075 0.56469 0.0
O222 O 0.52288 0.29407 0.55658 0.0
C223 C 0.44546 0.28903 0.50736 0.0
N224 N 0.47449 0.27855 0.47856 0.0
C225 C 0.42851 0.26223 0.41888 0.0
C226 C 0.39809 0.27263 0.44808 0.0
C227 C 0.40662 0.28613 0.49248 0.0
C228 C 0.46662 0.26556 0.43575 0.0
H229 H 0.45191 0.29962 0.54134 0.0
C230 C 0.5308 0.31712 0.58193 0.0
O231 O 0.57642 0.3917 0.51572 0.0
O232 O 0.51591 0.38103 0.49501 0.0
N233 N 0.53376 0.26235 0.42626 0.0
C234 C 0.56649 0.2543 0.40174 0.0
C235 C 0.56303 0.24093 0.35622 0.0
C236 C 0.52601 0.23578 0.33656 0.0
C237 C 0.49276 0.24382 0.36281 0.0
C238 C 0.498 0.25674 0.40825 0.0
H239 H 0.59502 0.25826 0.4166 0.0
O240 O 0.5644 0.35482 0.42514 0.0
O241 O 0.53108 0.31988 0.46302 0.0
O242 O 0.60835 0.32603 0.49994 0.0
O243 O 0.58622 0.27884 0.49861 0.0
C244 C 0.45464 0.23994 0.34534 0.0
C245 C 0.42254 0.24917 0.37332 0.0
H246 H 0.36811 0.2706 0.4366 0.0
H247 H 0.38331 0.29437 0.51509 0.0
H248 H 0.58883 0.23474 0.33621 0.0
H249 H 0.52345 0.22572 0.30128 0.0
H250 H 0.44969 0.23015 0.31022 0.0
H251 H 0.39339 0.24636 0.35929 0.0
Mn252 Mn 0.44489 0.6648 0.49672 0.0
Mn253 Mn 0.47341 0.73663 0.49241 0.0
C254 C 0.46411 0.68503 0.42511 0.0
C255 C 0.46163 0.61522 0.51128 0.0
C256 C 0.38873 0.71786 0.49505 0.0
O257 O 0.45248 0.67536 0.56637 0.0
O258 O 0.4741 0.72246 0.56043 0.0
C259 C 0.55531 0.72728 0.52147 0.0
N260 N 0.52891 0.73751 0.48888 0.0
C261 C 0.57979 0.75326 0.43509 0.0
C262 C 0.60752 0.7431 0.46824 0.0
C263 C 0.59521 0.73002 0.51159 0.0
C264 C 0.54044 0.75007 0.44703 0.0
H265 H 0.54597 0.71702 0.55468 0.0
C266 C 0.46485 0.6994 0.58501 0.0
O267 O 0.42571 0.62417 0.5145 0.0
O268 O 0.48738 0.63506 0.50021 0.0
N269 N 0.47447 0.75347 0.4291 0.0
C270 C 0.44403 0.7617 0.40064 0.0
C271 C 0.45141 0.77483 0.35566 0.0
C272 C 0.48992 0.77965 0.34067 0.0
C273 C 0.52073 0.77153 0.37097 0.0
C274 C 0.51161 0.7588 0.41559 0.0
H275 H 0.41438 0.75802 0.41197 0.0
O276 O 0.4436 0.66084 0.42579 0.0
O277 O 0.47405 0.69612 0.46658 0.0
O278 O 0.39463 0.68972 0.49547 0.0
O279 O 0.41608 0.73713 0.49449 0.0
C280 C 0.56014 0.77522 0.35839 0.0
C281 C 0.58965 0.76605 0.39039 0.0
H282 H 0.63833 0.74504 0.46065 0.0
H283 H 0.61643 0.72198 0.53724 0.0
H284 H 0.42747 0.78113 0.33252 0.0
H285 H 0.49554 0.78961 0.30587 0.0
H286 H 0.56807 0.78484 0.324 0.0
H287 H 0.61985 0.76876 0.38014 0.0
H288 H 0.03121 0.91457 -0.00395 0.0
H289 H 0.96715 0.08475 0.98576 0.0
H290 H 0.91288 0.94269 0.97111 0.0
H291 H 0.08713 0.05674 0.97942 0.0
H292 H 0.94687 0.03292 0.97999 0.0
H293 H 0.05237 0.96626 -0.01006 0.0
C294 C 0.00965 0.93162 0.98909 0.0
C295 C 0.97013 0.92431 0.98437 0.0
C296 C 0.97764 0.03805 0.97945 0.0
C297 C 0.99425 0.98365 0.97755 0.0
C298 C 0.98928 0.06767 0.98284 0.0
C299 C 0.02894 0.07507 0.98333 0.0
C300 C 0.00582 0.01549 0.97713 0.0
C301 C 0.05627 0.05201 0.97917 0.0
C302 C 0.02182 0.96114 0.98546 0.0
C303 C 0.9436 0.94732 0.9751 0.0
N304 N 0.0442 0.02321 0.97673 0.0
N305 N 0.9561 0.97598 0.97239 0.0
H306 H 0.08531 0.94378 0.51678 0.0
H307 H 0.90695 0.0593 0.52068 0.0
H308 H 0.96532 0.91783 0.49951 0.0
H309 H 0.02742 0.08529 0.5097 0.0
H310 H 0.92754 0.00705 0.52452 0.0
H311 H 0.06431 0.99561 0.52559 0.0
C312 C 0.05456 0.94894 0.51517 0.0
C313 C 0.02708 0.92648 0.50703 0.0
C314 C 0.94944 0.02424 0.52158 0.0
C315 C 0.00279 0.98568 0.51715 0.0
C316 C 0.93769 0.05405 0.51958 0.0
C317 C 0.96547 0.07665 0.51451 0.0
C318 C 0.98924 0.01707 0.51882 0.0
C319 C 0.00495 0.06858 0.51321 0.0
C320 C 0.04257 0.97853 0.5201 0.0
C321 C 0.98757 0.93446 0.50536 0.0
N322 N 0.01562 0.03951 0.51518 0.0
N323 N 0.97663 0.96338 0.51023 0.0
H324 H 0.54938 0.57061 0.9352 0.0
H325 H 0.49173 0.42879 0.07724 0.0
H326 H 0.4955 0.5803 0.07466 0.0
H327 H 0.43883 0.43915 0.93753 0.0
H328 H 0.51163 0.48116 0.07498 0.0
H329 H 0.5267 0.51846 0.93263 0.0
C330 C 0.53302 0.5617 0.96525 0.0
C331 C 0.52424 0.5796 0.00523 0.0
C332 C 0.49572 0.47187 0.04486 0.0
C333 C 0.4992 0.52057 0.00282 0.0
C334 C 0.48442 0.44214 0.04605 0.0
C335 C 0.46343 0.42987 0.00764 0.0
C336 C 0.48717 0.48913 0.00428 0.0
C337 C 0.45466 0.44802 0.968 0.0
C338 C 0.51992 0.53221 0.96357 0.0
C339 C 0.50273 0.5672 0.04316 0.0
N340 N 0.46704 0.47683 0.96698 0.0
N341 N 0.49143 0.53829 0.04138 0.0
H342 H 0.46721 0.42325 0.50753 0.0
H343 H 0.53517 0.59279 0.51736 0.0
H344 H 0.58695 0.44972 0.52536 0.0
H345 H 0.4147 0.56599 0.51988 0.0
H346 H 0.55458 0.54068 0.52223 0.0
H347 H 0.44744 0.47522 0.51374 0.0
C348 C 0.48939 0.44001 0.51297 0.0
C349 C 0.52888 0.43212 0.51566 0.0
C350 C 0.5239 0.54614 0.52207 0.0
C351 C 0.50632 0.49187 0.5226 0.0
C352 C 0.51274 0.57593 0.51922 0.0
C353 C 0.47319 0.58377 0.51794 0.0
C354 C 0.49535 0.52388 0.52322 0.0
C355 C 0.44549 0.56096 0.52071 0.0
C356 C 0.47802 0.46971 0.51661 0.0
C357 C 0.55623 0.4548 0.523 0.0
N358 N 0.4571 0.53202 0.52283 0.0
N359 N 0.54445 0.48367 0.52586 0.0
H360 H 0.08963 0.18599 0.16036 0.0
H361 H 0.90743 0.18875 0.33925 0.0
H362 H 0.97044 0.17858 0.11437 0.0
H363 H 0.02632 0.18016 0.386 0.0
H364 H 0.93025 0.19589 0.25637 0.0
H365 H 0.06719 0.19442 0.24316 0.0
C366 C 0.0587 0.1867 0.16783 0.0
C367 C 0.03166 0.1825 0.13086 0.0
C368 C 0.95141 0.19295 0.28484 0.0
C369 C 0.00585 0.19109 0.22486 0.0
C370 C 0.9384 0.18898 0.33193 0.0
C371 C 0.96522 0.18471 0.36911 0.0
C372 C 0.99146 0.1917 0.27497 0.0
C373 C 0.00495 0.18433 0.35819 0.0
C374 C 0.04591 0.19144 0.21486 0.0
C375 C 0.99199 0.18272 0.14198 0.0
N376 N 0.01694 0.18768 0.31194 0.0
N377 N 0.9802 0.18689 0.18813 0.0
H378 H 0.96656 0.81964 0.38206 0.0
H379 H 0.02217 0.81592 0.10482 0.0
H380 H 0.08427 0.81524 0.32926 0.0
H381 H 0.90407 0.81343 0.15656 0.0
H382 H 0.04543 0.80815 0.18687 0.0
H383 H 0.94268 0.81031 0.30043 0.0
C384 C 0.98727 0.81593 0.35324 0.0
C385 C 0.02727 0.81729 0.36201 0.0
C386 C 0.01439 0.80873 0.18037 0.0
C387 C 0.00057 0.80795 0.26879 0.0
C388 C 0.00119 0.81287 0.13354 0.0
C389 C 0.96128 0.81438 0.12428 0.0
C390 C 0.98737 0.80717 0.21826 0.0
C391 C 0.93511 0.81183 0.16261 0.0
C392 C 0.97375 0.81082 0.30672 0.0
C393 C 0.05317 0.81377 0.32361 0.0
N394 N 0.94863 0.80847 0.20818 0.0
N395 N 0.03936 0.8093 0.27848 0.0
H396 H 0.01065 0.76143 0.62172 0.0
H397 H 0.98128 0.85687 0.86065 0.0
H398 H 0.03504 0.85548 0.633 0.0
H399 H 0.98403 0.76079 0.86177 0.0
H400 H 0.99801 0.85628 0.77571 0.0
H401 H 0.99766 0.76023 0.70843 0.0
C402 C 0.0133 0.78179 0.64232 0.0
C403 C 0.02386 0.80861 0.61999 0.0
C404 C 0.99514 0.83529 0.79448 0.0
C405 C 0.00906 0.80733 0.71877 0.0
C406 C 0.98543 0.8356 0.843 0.0
C407 C 0.98103 0.80881 0.86826 0.0
C408 C 0.00018 0.80801 0.77073 0.0
C409 C 0.98717 0.78195 0.84359 0.0
C410 C 0.00605 0.78104 0.69177 0.0
C411 C 0.02701 0.83427 0.64852 0.0
N412 N 0.99619 0.78221 0.79593 0.0
N413 N 0.01948 0.83299 0.69632 0.0
H414 H 0.07553 0.17598 0.85058 0.0
H415 H 0.91955 0.17723 0.64905 0.0
H416 H 0.96228 0.21238 0.88277 0.0
H417 H 0.03288 0.21373 0.61827 0.0
H418 H 0.93432 0.17963 0.7355 0.0
H419 H 0.06057 0.17926 0.76427 0.0
C420 C 0.04752 0.18459 0.83935 0.0
C421 C 0.01997 0.19389 0.87343 0.0
C422 C 0.95575 0.18722 0.70965 0.0
C423 C 0.00268 0.19709 0.77582 0.0
C424 C 0.94752 0.1857 0.66062 0.0
C425 C 0.97516 0.19525 0.62688 0.0
C426 C 0.99225 0.19743 0.72462 0.0
C427 C 0.01087 0.20624 0.64338 0.0
C428 C 0.03919 0.18662 0.7904 0.0
C429 C 0.98421 0.20508 0.85737 0.0
N430 N 0.01873 0.20659 0.69131 0.0
N431 N 0.97626 0.20595 0.80947 0.0
H432 H 0.60273 0.69486 0.16345 0.0
H433 H 0.54036 0.69027 0.4021 0.0
H434 H 0.48105 0.68496 0.13054 0.0
H435 H 0.42477 0.69898 0.3443 0.0
H436 H 0.56717 0.69679 0.3216 0.0
H437 H 0.58589 0.70504 0.24745 0.0
C438 C 0.57243 0.69505 0.17424 0.0
C439 C 0.54307 0.68983 0.14049 0.0
C440 C 0.53603 0.69827 0.32617 0.0
C441 C 0.52338 0.69983 0.23634 0.0
C442 C 0.52081 0.69462 0.37233 0.0
C443 C 0.48054 0.69484 0.37942 0.0
C444 C 0.51047 0.70153 0.28696 0.0
C445 C 0.45608 0.69917 0.33997 0.0
C446 C 0.56271 0.70064 0.22222 0.0
C447 C 0.50434 0.68972 0.15562 0.0
N448 N 0.47144 0.70224 0.29534 0.0
N449 N 0.49562 0.69461 0.20248 0.0
H450 H 0.58667 0.31691 0.34393 0.0
H451 H 0.40114 0.31479 0.17088 0.0
H452 H 0.46869 0.32553 0.39443 0.0
H453 H 0.51944 0.32379 0.12181 0.0
H454 H 0.42511 0.30752 0.25337 0.0
H455 H 0.56222 0.3079 0.26235 0.0
C456 C 0.55557 0.31631 0.33772 0.0
C457 C 0.52947 0.32112 0.37557 0.0
C458 C 0.44583 0.31055 0.22439 0.0
C459 C 0.50135 0.312 0.28289 0.0
C460 C 0.43218 0.31464 0.17758 0.0
C461 C 0.45856 0.31901 0.13988 0.0
C462 C 0.48603 0.31167 0.2333 0.0
C463 C 0.49839 0.31949 0.14999 0.0
C464 C 0.54162 0.31126 0.29139 0.0
C465 C 0.48952 0.32098 0.36608 0.0
N466 N 0.51098 0.31592 0.19584 0.0
N467 N 0.47658 0.31661 0.32048 0.0
H468 H 0.48766 0.26619 0.87844 0.0
H469 H 0.5312 0.36392 0.64461 0.0
H470 H 0.4793 0.36205 0.87386 0.0
H471 H 0.51178 0.26904 0.63838 0.0
H472 H 0.51865 0.3628 0.73073 0.0
H473 H 0.50332 0.26608 0.79236 0.0
C474 C 0.48933 0.2872 0.85947 0.0
C475 C 0.48197 0.31417 0.88335 0.0
C476 C 0.51707 0.34221 0.71056 0.0
C477 C 0.49982 0.31413 0.78523 0.0
C478 C 0.52432 0.3428 0.66132 0.0
C479 C 0.52253 0.31651 0.63412 0.0
C480 C 0.50816 0.31514 0.73306 0.0
C481 C 0.51333 0.28986 0.65789 0.0
C482 C 0.49806 0.28708 0.81035 0.0
C483 C 0.48445 0.3407 0.85694 0.0
N484 N 0.50657 0.28983 0.70613 0.0
N485 N 0.49317 0.33999 0.80935 0.0
H486 H 0.49513 0.64891 0.8801 0.0
H487 H 0.48481 0.74701 0.64211 0.0
H488 H 0.50388 0.74473 0.88216 0.0
H489 H 0.45328 0.65405 0.64872 0.0
H490 H 0.49177 0.74725 0.72979 0.0
H491 H 0.47875 0.65094 0.79501 0.0
C492 C 0.49334 0.67043 0.86267 0.0
C493 C 0.50122 0.69668 0.88808 0.0
C494 C 0.48308 0.7269 0.71193 0.0
C495 C 0.48282 0.69916 0.79046 0.0
C496 C 0.47928 0.7267 0.66189 0.0
C497 C 0.46869 0.70043 0.63791 0.0
C498 C 0.47651 0.70061 0.73795 0.0
C499 C 0.46166 0.67482 0.66547 0.0
C500 C 0.48391 0.67158 0.81407 0.0
C501 C 0.49805 0.72396 0.86382 0.0
N502 N 0.46592 0.67554 0.71392 0.0
N503 N 0.48952 0.72448 0.81607 0.0
H504 H 0.31339 0.32533 -0.00346 0.0
H505 H 0.18197 0.17819 -0.00382 0.0
H506 H 0.35983 0.23599 -0.00156 0.0
H507 H 0.13509 0.2674 -0.00147 0.0
H508 H 0.24743 0.19907 -0.00848 0.0
H509 H 0.2478 0.30459 -0.0086 0.0
C510 C 0.30991 0.3014 -0.00448 0.0
C511 C 0.34231 0.28244 -0.00177 0.0
C512 C 0.22277 0.21406 -0.00714 0.0
C513 C 0.26723 0.25854 -0.00743 0.0
C514 C 0.18534 0.20214 -0.00448 0.0
C515 C 0.15282 0.221 -0.00201 0.0
C516 C 0.22783 0.24509 -0.00729 0.0
C517 C 0.15917 0.2519 -0.00313 0.0
C518 C 0.27241 0.28956 -0.00732 0.0
C519 C 0.33585 0.25157 -0.00329 0.0
N520 N 0.19587 0.26294 -0.0055 0.0
N521 N 0.29913 0.24063 -0.00578 0.0
H522 H 0.67571 0.68152 0.98217 0.0
H523 H 0.81329 0.82509 0.98563 0.0
H524 H 0.63305 0.77179 -0.00868 0.0
H525 H 0.85583 0.73465 0.98151 0.0
H526 H 0.74683 0.80618 0.97963 0.0
H527 H 0.74174 0.70082 0.97338 0.0
C528 C 0.68009 0.70537 0.98187 0.0
C529 C 0.64868 0.72499 0.98797 0.0
C530 C 0.77077 0.79051 0.97974 0.0
C531 C 0.72431 0.74725 0.97822 0.0
C532 C 0.80876 0.80131 0.98314 0.0
C533 C 0.84031 0.78148 0.98451 0.0
C534 C 0.76425 0.75967 0.97773 0.0
C535 C 0.83252 0.75085 0.98097 0.0
C536 C 0.71785 0.71639 0.97696 0.0
C537 C 0.65628 0.75572 0.98714 0.0
N538 N 0.79534 0.74092 0.97804 0.0
N539 N 0.69329 0.76586 0.98275 0.0
H540 H 0.13818 0.73541 0.48546 0.0
H541 H 0.36432 0.7759 0.49385 0.0
H542 H 0.18163 0.82552 0.48972 0.0
H543 H 0.32045 0.68587 0.49499 0.0
H544 H 0.29778 0.79439 0.49221 0.0
H545 H 0.20468 0.71704 0.48883 0.0
C546 C 0.16165 0.75142 0.48721 0.0
C547 C 0.1541 0.78217 0.48734 0.0
C548 C 0.30267 0.77059 0.4929 0.0
C549 C 0.23071 0.76104 0.4911 0.0
C550 C 0.34075 0.75994 0.49385 0.0
C551 C 0.34818 0.72917 0.49461 0.0
C552 C 0.27158 0.75043 0.49262 0.0
C553 C 0.31625 0.70973 0.49446 0.0
C554 C 0.19972 0.74083 0.48912 0.0
C555 C 0.18592 0.80167 0.48957 0.0
N556 N 0.27938 0.7207 0.49343 0.0
N557 N 0.22282 0.79076 0.4913 0.0
H558 H 0.68293 0.3289 0.50264 0.0
H559 H 0.81427 0.18137 0.50396 0.0
H560 H 0.63664 0.23963 0.50689 0.0
H561 H 0.86151 0.2703 0.49771 0.0
H562 H 0.74895 0.20258 0.50841 0.0
H563 H 0.74874 0.30809 0.50429 0.0
C564 C 0.68651 0.30499 0.50415 0.0
C565 C 0.65404 0.28606 0.50448 0.0
C566 C 0.77364 0.21745 0.5062 0.0
C567 C 0.72933 0.26209 0.50624 0.0
C568 C 0.81101 0.20533 0.50367 0.0
C569 C 0.8436 0.224 0.50033 0.0
C570 C 0.7687 0.24849 0.50534 0.0
C571 C 0.83737 0.25494 0.50018 0.0
C572 C 0.72411 0.29311 0.50503 0.0
C573 C 0.66063 0.2552 0.50644 0.0
N574 N 0.80072 0.26618 0.50251 0.0
N575 N 0.69742 0.24423 0.50711 0.0
loop_
_geom_bond_atom_site_label_1
_geom_bond_atom_site_label_2
_geom_bond_distance
_geom_bond_site_symmetry_2
_ccdc_geom_bond_type
Mn0 O5 2.095 1_554 S
Mn0 O15 2.162 . S
Mn0 O16 2.297 . S
Mn0 O24 2.385 . S
Mn0 O25 2.209 . S
Mn0 O26 2.094 . S
Mn1 O6 2.121 1_554 S
Mn1 N8 2.257 1_455 S
Mn1 N17 2.282 . S
Mn1 O25 2.215 . S
Mn1 O27 2.117 . S
C2 O24 1.234 . S
C2 O25 1.283 . S
C3 O15 1.281 . S
C3 O16 1.236 . S
C4 O26 1.240 . S
C4 O27 1.264 . S
O5 Mn0 2.095 1_556 S
O5 C14 1.250 . S
O6 Mn1 2.121 1_556 S
O6 C14 1.258 . S
C7 N8 1.326 . S
C7 C11 1.460 . S
C7 H13 0.929 1_554 S
N8 Mn1 2.257 1_655 S
N8 C7 1.326 . S
N8 C12 1.362 . S
C9 C10 1.258 . S
C9 C12 1.431 . S
C9 C29 1.449 . S
C10 C9 1.258 . S
C10 C11 1.477 . S
C10 H30 0.931 . S
C11 C7 1.460 . S
C11 C10 1.477 . S
C11 H31 0.930 . S
C12 N8 1.362 . S
C12 C9 1.431 . S
C12 C22 1.476 1_655 S
H13 C7 0.929 1_556 S
C14 O5 1.250 . S
C14 O6 1.258 . S
O15 Mn0 2.162 . S
O15 C3 1.281 . S
O16 Mn0 2.297 . S
O16 C3 1.236 . S
N17 Mn1 2.282 . S
N17 C18 1.328 . S
N17 C22 1.318 . S
C18 N17 1.328 . S
C18 C19 1.457 . S
C18 H23 0.929 . S
C19 C18 1.457 . S
C19 C20 1.291 . S
C19 H32 0.931 . S
C20 C19 1.291 . S
C20 C21 1.373 . S
C20 H33 0.929 . S
C21 C20 1.373 . S
C21 C22 1.396 . S
C21 C28 1.403 1_455 S
C22 C12 1.476 1_455 S
C22 N17 1.318 . S
C22 C21 1.396 . S
H23 C18 0.929 . S
O24 Mn0 2.385 . S
O24 C2 1.234 . S
O25 Mn0 2.209 . S
O25 Mn1 2.215 . S
O25 C2 1.283 . S
O26 Mn0 2.094 . S
O26 C4 1.240 . S
O27 Mn1 2.117 . S
O27 C4 1.264 . S
C28 C21 1.403 1_655 S
C28 C29 1.399 . S
C28 H34 0.929 . S
C29 C9 1.449 . S
C29 C28 1.399 . S
C29 H35 0.930 . S
H30 C10 0.931 . S
H31 C11 0.930 . S
H32 C19 0.931 . S
H33 C20 0.929 . S
H34 C28 0.929 . S
H35 C29 0.930 . S
Mn36 O41 2.095 1_554 S
Mn36 O51 2.162 . S
Mn36 O52 2.297 . S
Mn36 O60 2.385 . S
Mn36 O61 2.209 . S
Mn36 O62 2.094 . S
Mn37 O42 2.121 1_554 S
Mn37 N44 2.257 1_655 S
Mn37 N53 2.282 . S
Mn37 O61 2.215 . S
Mn37 O63 2.117 . S
C38 O60 1.234 . S
C38 O61 1.283 . S
C39 O51 1.281 . S
C39 O52 1.236 . S
C40 O62 1.240 . S
C40 O63 1.264 . S
O41 Mn36 2.095 1_556 S
O41 C50 1.250 . S
O42 Mn37 2.121 1_556 S
O42 C50 1.258 . S
C43 N44 1.326 . S
C43 C47 1.460 . S
C43 H49 0.929 1_554 S
N44 Mn37 2.257 1_455 S
N44 C43 1.326 . S
N44 C48 1.362 . S
C45 C46 1.258 . S
C45 C48 1.431 . S
C45 C65 1.449 . S
C46 C45 1.258 . S
C46 C47 1.477 . S
C46 H66 0.931 . S
C47 C43 1.460 . S
C47 C46 1.477 . S
C47 H67 0.930 . S
C48 N44 1.362 . S
C48 C45 1.431 . S
C48 C58 1.476 1_455 S
H49 C43 0.929 1_556 S
C50 O41 1.250 . S
C50 O42 1.258 . S
O51 Mn36 2.162 . S
O51 C39 1.281 . S
O52 Mn36 2.297 . S
O52 C39 1.236 . S
N53 Mn37 2.282 . S
N53 C54 1.328 . S
N53 C58 1.318 . S
C54 N53 1.328 . S
C54 C55 1.457 . S
C54 H59 0.929 . S
C55 C54 1.457 . S
C55 C56 1.291 . S
C55 H68 0.931 . S
C56 C55 1.291 . S
C56 C57 1.373 . S
C56 H69 0.929 . S
C57 C56 1.373 . S
C57 C58 1.396 . S
C57 C64 1.403 1_655 S
C58 C48 1.476 1_655 S
C58 N53 1.318 . S
C58 C57 1.396 . S
H59 C54 0.929 . S
O60 Mn36 2.385 . S
O60 C38 1.234 . S
O61 Mn36 2.209 . S
O61 Mn37 2.215 . S
O61 C38 1.283 . S
O62 Mn36 2.094 . S
O62 C40 1.240 . S
O63 Mn37 2.117 . S
O63 C40 1.264 . S
C64 C57 1.403 1_455 S
C64 C65 1.399 . S
C64 H70 0.929 . S
C65 C45 1.449 . S
C65 C64 1.399 . S
C65 H71 0.930 . S
H66 C46 0.931 . S
H67 C47 0.930 . S
H68 C55 0.931 . S
H69 C56 0.929 . S
H70 C64 0.929 . S
H71 C65 0.930 . S
Mn72 O77 2.095 . S
Mn72 O87 2.162 . S
Mn72 O88 2.297 . S
Mn72 O96 2.385 . S
Mn72 O97 2.209 . S
Mn72 O98 2.094 . S
Mn73 O78 2.121 . S
Mn73 N80 2.257 1_455 S
Mn73 N89 2.282 . S
Mn73 O97 2.215 . S
Mn73 O99 2.117 . S
C74 O96 1.234 . S
C74 O97 1.283 . S
C75 O87 1.281 . S
C75 O88 1.236 . S
C76 O98 1.240 . S
C76 O99 1.264 . S
O77 Mn72 2.095 . S
O77 C86 1.250 . S
O78 Mn73 2.121 . S
O78 C86 1.258 . S
C79 N80 1.326 . S
C79 C83 1.460 . S
C79 H85 0.929 . S
N80 Mn73 2.257 1_655 S
N80 C79 1.326 . S
N80 C84 1.362 . S
C81 C82 1.258 . S
C81 C84 1.431 . S
C81 C101 1.449 . S
C82 C81 1.258 . S
C82 C83 1.477 . S
C82 H102 0.931 . S
C83 C79 1.460 . S
C83 C82 1.477 . S
C83 H103 0.930 . S
C84 N80 1.362 . S
C84 C81 1.431 . S
C84 C94 1.476 1_655 S
H85 C79 0.929 . S
C86 O77 1.250 . S
C86 O78 1.258 . S
O87 Mn72 2.162 . S
O87 C75 1.281 . S
O88 Mn72 2.297 . S
O88 C75 1.236 . S
N89 Mn73 2.282 . S
N89 C90 1.328 . S
N89 C94 1.318 . S
C90 N89 1.328 . S
C90 C91 1.457 . S
C90 H95 0.929 . S
C91 C90 1.457 . S
C91 C92 1.291 . S
C91 H104 0.931 . S
C92 C91 1.291 . S
C92 C93 1.373 . S
C92 H105 0.929 . S
C93 C92 1.373 . S
C93 C94 1.396 . S
C93 C100 1.403 1_455 S
C94 C84 1.476 1_455 S
C94 N89 1.318 . S
C94 C93 1.396 . S
H95 C90 0.929 . S
O96 Mn72 2.385 . S
O96 C74 1.234 . S
O97 Mn72 2.209 . S
O97 Mn73 2.215 . S
O97 C74 1.283 . S
O98 Mn72 2.094 . S
O98 C76 1.240 . S
O99 Mn73 2.117 . S
O99 C76 1.264 . S
C100 C93 1.403 1_655 S
C100 C101 1.399 . S
C100 H106 0.929 . S
C101 C81 1.449 . S
C101 C100 1.399 . S
C101 H107 0.930 . S
H102 C82 0.931 . S
H103 C83 0.930 . S
H104 C91 0.931 . S
H105 C92 0.929 . S
H106 C100 0.929 . S
H107 C101 0.930 . S
Mn108 O113 2.095 . S
Mn108 O123 2.162 . S
Mn108 O124 2.297 . S
Mn108 O132 2.385 . S
Mn108 O133 2.209 . S
Mn108 O134 2.094 . S
Mn109 O114 2.121 . S
Mn109 N116 2.257 1_655 S
Mn109 N125 2.282 . S
Mn109 O133 2.215 . S
Mn109 O135 2.117 . S
C110 O132 1.234 . S
C110 O133 1.283 . S
C111 O123 1.281 . S
C111 O124 1.236 . S
C112 O134 1.240 . S
C112 O135 1.264 . S
O113 Mn108 2.095 . S
O113 C122 1.250 . S
O114 Mn109 2.121 . S
O114 C122 1.258 . S
C115 N116 1.326 . S
C115 C119 1.460 . S
C115 H121 0.929 . S
N116 Mn109 2.257 1_455 S
N116 C115 1.326 . S
N116 C120 1.362 . S
C117 C118 1.258 . S
C117 C120 1.431 . S
C117 C137 1.449 . S
C118 C117 1.258 . S
C118 C119 1.477 . S
C118 H138 0.931 . S
C119 C115 1.460 . S
C119 C118 1.477 . S
C119 H139 0.930 . S
C120 N116 1.362 . S
C120 C117 1.431 . S
C120 C130 1.476 1_455 S
H121 C115 0.929 . S
C122 O113 1.250 . S
C122 O114 1.258 . S
O123 Mn108 2.162 . S
O123 C111 1.281 . S
O124 Mn108 2.297 . S
O124 C111 1.236 . S
N125 Mn109 2.282 . S
N125 C126 1.328 . S
N125 C130 1.318 . S
C126 N125 1.328 . S
C126 C127 1.457 . S
C126 H131 0.929 . S
C127 C126 1.457 . S
C127 C128 1.291 . S
C127 H140 0.931 . S
C128 C127 1.291 . S
C128 C129 1.373 . S
C128 H141 0.929 . S
C129 C128 1.373 . S
C129 C130 1.396 . S
C129 C136 1.403 1_655 S
C130 C120 1.476 1_655 S
C130 N125 1.318 . S
C130 C129 1.396 . S
H131 C126 0.929 . S
O132 Mn108 2.385 . S
O132 C110 1.234 . S
O133 Mn108 2.209 . S
O133 Mn109 2.215 . S
O133 C110 1.283 . S
O134 Mn108 2.094 . S
O134 C112 1.240 . S
O135 Mn109 2.117 . S
O135 C112 1.264 . S
C136 C129 1.403 1_455 S
C136 C137 1.399 . S
C136 H142 0.929 . S
C137 C117 1.449 . S
C137 C136 1.399 . S
C137 H143 0.930 . S
H138 C118 0.931 . S
H139 C119 0.930 . S
H140 C127 0.931 . S
H141 C128 0.929 . S
H142 C136 0.929 . S
H143 C137 0.930 . S
Mn144 O149 2.095 1_554 S
Mn144 O159 2.162 . S
Mn144 O160 2.297 . S
Mn144 O168 2.385 . S
Mn144 O169 2.209 . S
Mn144 O170 2.094 . S
Mn145 O150 2.121 1_554 S
Mn145 N152 2.257 . S
Mn145 N161 2.282 . S
Mn145 O169 2.215 . S
Mn145 O171 2.117 . S
C146 O168 1.234 . S
C146 O169 1.283 . S
C147 O159 1.281 . S
C147 O160 1.236 . S
C148 O170 1.240 . S
C148 O171 1.264 . S
O149 Mn144 2.095 1_556 S
O149 C158 1.250 . S
O150 Mn145 2.121 1_556 S
O150 C158 1.258 . S
C151 N152 1.326 . S
C151 C155 1.460 . S
C151 H157 0.929 1_554 S
N152 Mn145 2.257 . S
N152 C151 1.326 . S
N152 C156 1.362 . S
C153 C154 1.258 . S
C153 C156 1.431 . S
C153 C173 1.449 . S
C154 C153 1.258 . S
C154 C155 1.477 . S
C154 H174 0.931 . S
C155 C151 1.460 . S
C155 C154 1.477 . S
C155 H175 0.930 . S
C156 N152 1.362 . S
C156 C153 1.431 . S
C156 C166 1.476 . S
H157 C151 0.929 1_556 S
C158 O149 1.250 . S
C158 O150 1.258 . S
O159 Mn144 2.162 . S
O159 C147 1.281 . S
O160 Mn144 2.297 . S
O160 C147 1.236 . S
N161 Mn145 2.282 . S
N161 C162 1.328 . S
N161 C166 1.318 . S
C162 N161 1.328 . S
C162 C163 1.457 . S
C162 H167 0.929 . S
C163 C162 1.457 . S
C163 C164 1.291 . S
C163 H176 0.931 . S
C164 C163 1.291 . S
C164 C165 1.373 . S
C164 H177 0.929 . S
C165 C164 1.373 . S
C165 C166 1.396 . S
C165 C172 1.403 . S
C166 C156 1.476 . S
C166 N161 1.318 . S
C166 C165 1.396 . S
H167 C162 0.929 . S
O168 Mn144 2.385 . S
O168 C146 1.234 . S
O169 Mn144 2.209 . S
O169 Mn145 2.215 . S
O169 C146 1.283 . S
O170 Mn144 2.094 . S
O170 C148 1.240 . S
O171 Mn145 2.117 . S
O171 C148 1.264 . S
C172 C165 1.403 . S
C172 C173 1.399 . S
C172 H178 0.929 . S
C173 C153 1.449 . S
C173 C172 1.399 . S
C173 H179 0.930 . S
H174 C154 0.931 . S
H175 C155 0.930 . S
H176 C163 0.931 . S
H177 C164 0.929 . S
H178 C172 0.929 . S
H179 C173 0.930 . S
Mn180 O185 2.095 1_554 S
Mn180 O195 2.162 . S
Mn180 O196 2.297 . S
Mn180 O204 2.385 . S
Mn180 O205 2.209 . S
Mn180 O206 2.094 . S
Mn181 O186 2.121 1_554 S
Mn181 N188 2.257 . S
Mn181 N197 2.282 . S
Mn181 O205 2.215 . S
Mn181 O207 2.117 . S
C182 O204 1.234 . S
C182 O205 1.283 . S
C183 O195 1.281 . S
C183 O196 1.236 . S
C184 O206 1.240 . S
C184 O207 1.264 . S
O185 Mn180 2.095 1_556 S
O185 C194 1.250 . S
O186 Mn181 2.121 1_556 S
O186 C194 1.258 . S
C187 N188 1.326 . S
C187 C191 1.460 . S
C187 H193 0.929 1_554 S
N188 Mn181 2.257 . S
N188 C187 1.326 . S
N188 C192 1.362 . S
C189 C190 1.258 . S
C189 C192 1.431 . S
C189 C209 1.449 . S
C190 C189 1.258 . S
C190 C191 1.477 . S
C190 H210 0.931 . S
C191 C187 1.460 . S
C191 C190 1.477 . S
C191 H211 0.930 . S
C192 N188 1.362 . S
C192 C189 1.431 . S
C192 C202 1.476 . S
H193 C187 0.929 1_556 S
C194 O185 1.250 . S
C194 O186 1.258 . S
O195 Mn180 2.162 . S
O195 C183 1.281 . S
O196 Mn180 2.297 . S
O196 C183 1.236 . S
N197 Mn181 2.282 . S
N197 C198 1.328 . S
N197 C202 1.318 . S
C198 N197 1.328 . S
C198 C199 1.457 . S
C198 H203 0.929 . S
C199 C198 1.457 . S
C199 C200 1.291 . S
C199 H212 0.931 . S
C200 C199 1.291 . S
C200 C201 1.373 . S
C200 H213 0.929 . S
C201 C200 1.373 . S
C201 C202 1.396 . S
C201 C208 1.403 . S
C202 C192 1.476 . S
C202 N197 1.318 . S
C202 C201 1.396 . S
H203 C198 0.929 . S
O204 Mn180 2.385 . S
O204 C182 1.234 . S
O205 Mn180 2.209 . S
O205 Mn181 2.215 . S
O205 C182 1.283 . S
O206 Mn180 2.094 . S
O206 C184 1.240 . S
O207 Mn181 2.117 . S
O207 C184 1.264 . S
C208 C201 1.403 . S
C208 C209 1.399 . S
C208 H214 0.929 . S
C209 C189 1.449 . S
C209 C208 1.399 . S
C209 H215 0.930 . S
H210 C190 0.931 . S
H211 C191 0.930 . S
H212 C199 0.931 . S
H213 C200 0.929 . S
H214 C208 0.929 . S
H215 C209 0.930 . S
Mn216 O221 2.095 . S
Mn216 O231 2.162 . S
Mn216 O232 2.297 . S
Mn216 O240 2.385 . S
Mn216 O241 2.209 . S
Mn216 O242 2.094 . S
Mn217 O222 2.121 . S
Mn217 N224 2.257 . S
Mn217 N233 2.282 . S
Mn217 O241 2.215 . S
Mn217 O243 2.117 . S
C218 O240 1.234 . S
C218 O241 1.283 . S
C219 O231 1.281 . S
C219 O232 1.236 . S
C220 O242 1.240 . S
C220 O243 1.264 . S
O221 Mn216 2.095 . S
O221 C230 1.250 . S
O222 Mn217 2.121 . S
O222 C230 1.258 . S
C223 N224 1.326 . S
C223 C227 1.460 . S
C223 H229 0.929 . S
N224 Mn217 2.257 . S
N224 C223 1.326 . S
N224 C228 1.362 . S
C225 C226 1.258 . S
C225 C228 1.431 . S
C225 C245 1.449 . S
C226 C225 1.258 . S
C226 C227 1.477 . S
C226 H246 0.931 . S
C227 C223 1.460 . S
C227 C226 1.477 . S
C227 H247 0.930 . S
C228 N224 1.362 . S
C228 C225 1.431 . S
C228 C238 1.476 . S
H229 C223 0.929 . S
C230 O221 1.250 . S
C230 O222 1.258 . S
O231 Mn216 2.162 . S
O231 C219 1.281 . S
O232 Mn216 2.297 . S
O232 C219 1.236 . S
N233 Mn217 2.282 . S
N233 C234 1.328 . S
N233 C238 1.318 . S
C234 N233 1.328 . S
C234 C235 1.457 . S
C234 H239 0.929 . S
C235 C234 1.457 . S
C235 C236 1.291 . S
C235 H248 0.931 . S
C236 C235 1.291 . S
C236 C237 1.373 . S
C236 H249 0.929 . S
C237 C236 1.373 . S
C237 C238 1.396 . S
C237 C244 1.403 . S
C238 C228 1.476 . S
C238 N233 1.318 . S
C238 C237 1.396 . S
H239 C234 0.929 . S
O240 Mn216 2.385 . S
O240 C218 1.234 . S
O241 Mn216 2.209 . S
O241 Mn217 2.215 . S
O241 C218 1.283 . S
O242 Mn216 2.094 . S
O242 C220 1.240 . S
O243 Mn217 2.117 . S
O243 C220 1.264 . S
C244 C237 1.403 . S
C244 C245 1.399 . S
C244 H250 0.929 . S
C245 C225 1.449 . S
C245 C244 1.399 . S
C245 H251 0.930 . S
H246 C226 0.931 . S
H247 C227 0.930 . S
H248 C235 0.931 . S
H249 C236 0.929 . S
H250 C244 0.929 . S
H251 C245 0.930 . S
Mn252 O257 2.095 . S
Mn252 O267 2.162 . S
Mn252 O268 2.297 . S
Mn252 O276 2.385 . S
Mn252 O277 2.209 . S
Mn252 O278 2.094 . S
Mn253 O258 2.121 . S
Mn253 N260 2.257 . S
Mn253 N269 2.282 . S
Mn253 O277 2.215 . S
Mn253 O279 2.117 . S
C254 O276 1.234 . S
C254 O277 1.283 . S
C255 O267 1.281 . S
C255 O268 1.236 . S
C256 O278 1.240 . S
C256 O279 1.264 . S
O257 Mn252 2.095 . S
O257 C266 1.250 . S
O258 Mn253 2.121 . S
O258 C266 1.258 . S
C259 N260 1.326 . S
C259 C263 1.460 . S
C259 H265 0.929 . S
N260 Mn253 2.257 . S
N260 C259 1.326 . S
N260 C264 1.362 . S
C261 C262 1.258 . S
C261 C264 1.431 . S
C261 C281 1.449 . S
C262 C261 1.258 . S
C262 C263 1.477 . S
C262 H282 0.931 . S
C263 C259 1.460 . S
C263 C262 1.477 . S
C263 H283 0.930 . S
C264 N260 1.362 . S
C264 C261 1.431 . S
C264 C274 1.476 . S
H265 C259 0.929 . S
C266 O257 1.250 . S
C266 O258 1.258 . S
O267 Mn252 2.162 . S
O267 C255 1.281 . S
O268 Mn252 2.297 . S
O268 C255 1.236 . S
N269 Mn253 2.282 . S
N269 C270 1.328 . S
N269 C274 1.318 . S
C270 N269 1.328 . S
C270 C271 1.457 . S
C270 H275 0.929 . S
C271 C270 1.457 . S
C271 C272 1.291 . S
C271 H284 0.931 . S
C272 C271 1.291 . S
C272 C273 1.373 . S
C272 H285 0.929 . S
C273 C272 1.373 . S
C273 C274 1.396 . S
C273 C280 1.403 . S
C274 C264 1.476 . S
C274 N269 1.318 . S
C274 C273 1.396 . S
H275 C270 0.929 . S
O276 Mn252 2.385 . S
O276 C254 1.234 . S
O277 Mn252 2.209 . S
O277 Mn253 2.215 . S
O277 C254 1.283 . S
O278 Mn252 2.094 . S
O278 C256 1.240 . S
O279 Mn253 2.117 . S
O279 C256 1.264 . S
C280 C273 1.403 . S
C280 C281 1.399 . S
C280 H286 0.929 . S
C281 C261 1.449 . S
C281 C280 1.399 . S
C281 H287 0.930 . S
H282 C262 0.931 . S
H283 C263 0.930 . S
H284 C271 0.931 . S
H285 C272 0.929 . S
H286 C280 0.929 . S
H287 C281 0.930 . S
H288 C294 0.930 1_455 S
H289 C298 0.930 1_655 S
H290 C303 0.929 . S
H291 C301 0.929 . S
H292 C296 0.929 . S
H293 C302 0.929 . S
C294 H288 0.930 1_655 S
C294 C295 1.367 1_556 S
C294 C302 1.378 1_655 S
C295 C294 1.367 1_554 S
C295 C303 1.433 . S
C296 H292 0.929 . S
C296 C298 1.378 1_655 S
C296 C300 1.350 1_655 S
C297 C300 1.463 1_665 S
C297 C302 1.350 1_654 S
C297 N305 1.427 . S
C298 H289 0.930 1_455 S
C298 C296 1.378 1_455 S
C298 C299 1.367 . S
C299 C298 1.367 . S
C299 C301 1.433 1_554 S
C300 C296 1.350 1_455 S
C300 C297 1.463 1_445 S
C300 N304 1.427 1_554 S
C301 H291 0.929 . S
C301 C299 1.433 1_556 S
C301 N304 1.384 . S
C302 H293 0.929 . S
C302 C294 1.378 1_455 S
C302 C297 1.350 1_456 S
C303 H290 0.929 . S
C303 C295 1.433 . S
C303 N305 1.384 . S
N304 C300 1.427 1_556 S
N304 C301 1.384 . S
N305 C297 1.427 . S
N305 C303 1.384 . S
H306 C312 0.930 . S
H307 C316 0.930 . S
H308 C321 0.929 . S
H309 C319 0.929 . S
H310 C314 0.929 . S
H311 C320 0.929 . S
C312 H306 0.930 . S
C312 C313 1.367 . S
C312 C320 1.378 . S
C313 C312 1.367 . S
C313 C321 1.433 1_455 S
C314 H310 0.929 . S
C314 C316 1.378 . S
C314 C318 1.350 . S
C315 C318 1.463 1_465 S
C315 C320 1.350 . S
C315 N323 1.427 1_455 S
C316 H307 0.930 . S
C316 C314 1.378 . S
C316 C317 1.367 . S
C317 C316 1.367 . S
C317 C319 1.433 1_655 S
C318 C314 1.350 . S
C318 C315 1.463 1_645 S
C318 N322 1.427 1_655 S
C319 H309 0.929 . S
C319 C317 1.433 1_455 S
C319 N322 1.384 . S
C320 H311 0.929 . S
C320 C312 1.378 . S
C320 C315 1.350 . S
C321 H308 0.929 . S
C321 C313 1.433 1_655 S
C321 N323 1.384 . S
N322 C318 1.427 1_455 S
N322 C319 1.384 . S
N323 C315 1.427 1_655 S
N323 C321 1.384 . S
H324 C330 0.930 . S
H325 C334 0.930 . S
H326 C339 0.929 . S
H327 C337 0.929 . S
H328 C332 0.929 . S
H329 C338 0.929 . S
C330 H324 0.930 . S
C330 C331 1.367 1_556 S
C330 C338 1.378 . S
C331 C330 1.367 1_554 S
C331 C339 1.433 . S
C332 H328 0.929 . S
C332 C334 1.378 . S
C332 C336 1.350 . S
C333 C336 1.463 . S
C333 C338 1.350 1_554 S
C333 N341 1.427 . S
C334 H325 0.930 . S
C334 C332 1.378 . S
C334 C335 1.367 . S
C335 C334 1.367 . S
C335 C337 1.433 1_554 S
C336 C332 1.350 . S
C336 C333 1.463 . S
C336 N340 1.427 1_554 S
C337 H327 0.929 . S
C337 C335 1.433 1_556 S
C337 N340 1.384 . S
C338 H329 0.929 . S
C338 C330 1.378 . S
C338 C333 1.350 1_556 S
C339 H326 0.929 . S
C339 C331 1.433 . S
C339 N341 1.384 . S
N340 C336 1.427 1_556 S
N340 C337 1.384 . S
N341 C333 1.427 . S
N341 C339 1.384 . S
H342 C348 0.930 . S
H343 C352 0.930 . S
H344 C357 0.929 . S
H345 C355 0.929 . S
H346 C350 0.929 . S
H347 C356 0.929 . S
C348 H342 0.930 . S
C348 C349 1.367 . S
C348 C356 1.378 . S
C349 C348 1.367 . S
C349 C357 1.433 . S
C350 H346 0.929 . S
C350 C352 1.378 . S
C350 C354 1.350 . S
C351 C354 1.463 . S
C351 C356 1.350 . S
C351 N359 1.427 . S
C352 H343 0.930 . S
C352 C350 1.378 . S
C352 C353 1.367 . S
C353 C352 1.367 . S
C353 C355 1.433 . S
C354 C350 1.350 . S
C354 C351 1.463 . S
C354 N358 1.427 . S
C355 H345 0.929 . S
C355 C353 1.433 . S
C355 N358 1.384 . S
C356 H347 0.929 . S
C356 C348 1.378 . S
C356 C351 1.350 . S
C357 H344 0.929 . S
C357 C349 1.433 . S
C357 N359 1.384 . S
N358 C354 1.427 . S
N358 C355 1.384 . S
N359 C351 1.427 . S
N359 C357 1.384 . S
H360 C366 0.930 . S
H361 C370 0.930 . S
H362 C375 0.929 . S
H363 C373 0.929 . S
H364 C368 0.929 . S
H365 C374 0.929 . S
C366 H360 0.930 . S
C366 C367 1.367 . S
C366 C374 1.378 . S
C367 C366 1.367 . S
C367 C375 1.433 1_455 S
C368 H364 0.929 . S
C368 C370 1.378 . S
C368 C372 1.350 . S
C369 C372 1.463 1_455 S
C369 C374 1.350 . S
C369 N377 1.427 1_455 S
C370 H361 0.930 . S
C370 C368 1.378 . S
C370 C371 1.367 . S
C371 C370 1.367 . S
C371 C373 1.433 1_655 S
C372 C368 1.350 . S
C372 C369 1.463 1_655 S
C372 N376 1.427 1_655 S
C373 H363 0.929 . S
C373 C371 1.433 1_455 S
C373 N376 1.384 . S
C374 H365 0.929 . S
C374 C366 1.378 . S
C374 C369 1.350 . S
C375 H362 0.929 . S
C375 C367 1.433 1_655 S
C375 N377 1.384 . S
N376 C372 1.427 1_455 S
N376 C373 1.384 . S
N377 C369 1.427 1_655 S
N377 C375 1.384 . S
H378 C384 0.930 . S
H379 C388 0.930 . S
H380 C393 0.929 . S
H381 C391 0.929 . S
H382 C386 0.929 . S
H383 C392 0.929 . S
C384 H378 0.930 . S
C384 C385 1.367 1_655 S
C384 C392 1.378 . S
C385 C384 1.367 1_455 S
C385 C393 1.433 . S
C386 H382 0.929 . S
C386 C388 1.378 . S
C386 C390 1.331 1_455 S
C387 C390 1.462 1_455 S
C387 C392 1.332 1_455 S
C387 N395 1.448 . S
C388 H379 0.930 . S
C388 C386 1.378 . S
C388 C389 1.367 1_455 S
C389 C388 1.367 1_655 S
C389 C391 1.433 . S
C390 C386 1.331 1_655 S
C390 C387 1.462 1_655 S
C390 N394 1.448 . S
C391 H381 0.929 . S
C391 C389 1.433 . S
C391 N394 1.384 . S
C392 H383 0.929 . S
C392 C384 1.378 . S
C392 C387 1.332 1_655 S
C393 H380 0.929 . S
C393 C385 1.433 . S
C393 N395 1.384 . S
N394 C390 1.448 . S
N394 C391 1.384 . S
N395 C387 1.448 . S
N395 C393 1.384 . S
H396 C402 0.930 . S
H397 C406 0.930 . S
H398 C411 0.929 . S
H399 C409 0.929 . S
H400 C404 0.929 . S
H401 C410 0.929 . S
C402 H396 0.930 . S
C402 C403 1.367 . S
C402 C410 1.378 . S
C403 C402 1.367 . S
C403 C411 1.433 1_455 S
C404 H400 0.929 . S
C404 C406 1.378 . S
C404 C408 1.350 . S
C405 C408 1.463 1_455 S
C405 C410 1.350 . S
C405 N413 1.427 1_455 S
C406 H397 0.930 . S
C406 C404 1.378 . S
C406 C407 1.367 . S
C407 C406 1.367 . S
C407 C409 1.433 1_655 S
C408 C404 1.350 . S
C408 C405 1.463 1_655 S
C408 N412 1.427 1_655 S
C409 H399 0.929 . S
C409 C407 1.433 1_455 S
C409 N412 1.384 . S
C410 H401 0.929 . S
C410 C402 1.378 . S
C410 C405 1.350 . S
C411 H398 0.929 . S
C411 C403 1.433 1_655 S
C411 N413 1.384 . S
N412 C408 1.427 1_455 S
N412 C409 1.384 . S
N413 C405 1.427 1_655 S
N413 C411 1.384 . S
H414 C420 0.930 . S
H415 C424 0.930 . S
H416 C429 0.929 . S
H417 C427 0.929 . S
H418 C422 0.929 . S
H419 C428 0.929 . S
C420 H414 0.930 . S
C420 C421 1.367 . S
C420 C428 1.378 . S
C421 C420 1.367 . S
C421 C429 1.433 1_455 S
C422 H418 0.929 . S
C422 C424 1.378 . S
C422 C426 1.350 . S
C423 C426 1.463 1_455 S
C423 C428 1.350 . S
C423 N431 1.427 1_455 S
C424 H415 0.930 . S
C424 C422 1.378 . S
C424 C425 1.367 . S
C425 C424 1.367 . S
C425 C427 1.433 1_655 S
C426 C422 1.350 . S
C426 C423 1.463 1_655 S
C426 N430 1.427 1_655 S
C427 H417 0.929 . S
C427 C425 1.433 1_455 S
C427 N430 1.384 . S
C428 H419 0.929 . S
C428 C420 1.378 . S
C428 C423 1.350 . S
C429 H416 0.929 . S
C429 C421 1.433 1_655 S
C429 N431 1.384 . S
N430 C426 1.427 1_455 S
N430 C427 1.384 . S
N431 C423 1.427 1_655 S
N431 C429 1.384 . S
H432 C438 0.930 . S
H433 C442 0.930 . S
H434 C447 0.929 . S
H435 C445 0.929 . S
H436 C440 0.929 . S
H437 C446 0.929 . S
C438 H432 0.930 . S
C438 C439 1.367 . S
C438 C446 1.378 . S
C439 C438 1.367 . S
C439 C447 1.433 . S
C440 H436 0.929 . S
C440 C442 1.378 . S
C440 C444 1.350 . S
C441 C444 1.463 . S
C441 C446 1.350 . S
C441 N449 1.427 . S
C442 H433 0.930 . S
C442 C440 1.378 . S
C442 C443 1.367 . S
C443 C442 1.367 . S
C443 C445 1.433 . S
C444 C440 1.350 . S
C444 C441 1.463 . S
C444 N448 1.427 . S
C445 H435 0.929 . S
C445 C443 1.433 . S
C445 N448 1.384 . S
C446 H437 0.929 . S
C446 C438 1.378 . S
C446 C441 1.350 . S
C447 H434 0.929 . S
C447 C439 1.433 . S
C447 N449 1.384 . S
N448 C444 1.427 . S
N448 C445 1.384 . S
N449 C441 1.427 . S
N449 C447 1.384 . S
H450 C456 0.930 . S
H451 C460 0.930 . S
H452 C465 0.929 . S
H453 C463 0.929 . S
H454 C458 0.929 . S
H455 C464 0.929 . S
C456 H450 0.930 . S
C456 C457 1.367 . S
C456 C464 1.378 . S
C457 C456 1.367 . S
C457 C465 1.433 . S
C458 H454 0.929 . S
C458 C460 1.378 . S
C458 C462 1.350 . S
C459 C462 1.463 . S
C459 C464 1.350 . S
C459 N467 1.427 . S
C460 H451 0.930 . S
C460 C458 1.378 . S
C460 C461 1.367 . S
C461 C460 1.367 . S
C461 C463 1.433 . S
C462 C458 1.350 . S
C462 C459 1.463 . S
C462 N466 1.427 . S
C463 H453 0.929 . S
C463 C461 1.433 . S
C463 N466 1.384 . S
C464 H455 0.929 . S
C464 C456 1.378 . S
C464 C459 1.350 . S
C465 H452 0.929 . S
C465 C457 1.433 . S
C465 N467 1.384 . S
N466 C462 1.427 . S
N466 C463 1.384 . S
N467 C459 1.427 . S
N467 C465 1.384 . S
H468 C474 0.930 . S
H469 C478 0.930 . S
H470 C483 0.929 . S
H471 C481 0.929 . S
H472 C476 0.929 . S
H473 C482 0.929 . S
C474 H468 0.930 . S
C474 C475 1.367 . S
C474 C482 1.378 . S
C475 C474 1.367 . S
C475 C483 1.433 . S
C476 H472 0.929 . S
C476 C478 1.378 . S
C476 C480 1.350 . S
C477 C480 1.463 . S
C477 C482 1.350 . S
C477 N485 1.427 . S
C478 H469 0.930 . S
C478 C476 1.378 . S
C478 C479 1.367 . S
C479 C478 1.367 . S
C479 C481 1.433 . S
C480 C476 1.350 . S
C480 C477 1.463 . S
C480 N484 1.427 . S
C481 H471 0.929 . S
C481 C479 1.433 . S
C481 N484 1.384 . S
C482 H473 0.929 . S
C482 C474 1.378 . S
C482 C477 1.350 . S
C483 H470 0.929 . S
C483 C475 1.433 . S
C483 N485 1.384 . S
N484 C480 1.427 . S
N484 C481 1.384 . S
N485 C477 1.427 . S
N485 C483 1.384 . S
H486 C492 0.930 . S
H487 C496 0.930 . S
H488 C501 0.929 . S
H489 C499 0.929 . S
H490 C494 0.929 . S
H491 C500 0.929 . S
C492 H486 0.930 . S
C492 C493 1.367 . S
C492 C500 1.378 . S
C493 C492 1.367 . S
C493 C501 1.433 . S
C494 H490 0.929 . S
C494 C496 1.378 . S
C494 C498 1.350 . S
C495 C498 1.463 . S
C495 C500 1.350 . S
C495 N503 1.427 . S
C496 H487 0.930 . S
C496 C494 1.378 . S
C496 C497 1.367 . S
C497 C496 1.367 . S
C497 C499 1.433 . S
C498 C494 1.350 . S
C498 C495 1.463 . S
C498 N502 1.427 . S
C499 H489 0.929 . S
C499 C497 1.433 . S
C499 N502 1.384 . S
C500 H491 0.929 . S
C500 C492 1.378 . S
C500 C495 1.350 . S
C501 H488 0.929 . S
C501 C493 1.433 . S
C501 N503 1.384 . S
N502 C498 1.427 . S
N502 C499 1.384 . S
N503 C495 1.427 . S
N503 C501 1.384 . S
H504 C510 0.930 . S
H505 C514 0.930 . S
H506 C519 0.929 . S
H507 C517 0.929 . S
H508 C512 0.929 . S
H509 C518 0.929 . S
C510 H504 0.930 . S
C510 C511 1.367 . S
C510 C518 1.378 . S
C511 C510 1.367 . S
C511 C519 1.433 1_554 S
C512 H508 0.929 . S
C512 C514 1.378 . S
C512 C516 1.350 1_556 S
C513 C516 1.463 . S
C513 C518 1.350 . S
C513 N521 1.427 1_554 S
C514 H505 0.930 . S
C514 C512 1.378 . S
C514 C515 1.367 1_556 S
C515 C514 1.367 1_554 S
C515 C517 1.433 . S
C516 C512 1.350 1_554 S
C516 C513 1.463 . S
C516 N520 1.427 . S
C517 H507 0.929 . S
C517 C515 1.433 . S
C517 N520 1.384 . S
C518 H509 0.929 . S
C518 C510 1.378 . S
C518 C513 1.350 . S
C519 H506 0.929 . S
C519 C511 1.433 1_556 S
C519 N521 1.384 . S
N520 C516 1.427 . S
N520 C517 1.384 . S
N521 C513 1.427 1_556 S
N521 C519 1.384 . S
H522 C528 0.930 . S
H523 C532 0.930 . S
H524 C537 0.929 . S
H525 C535 0.929 . S
H526 C530 0.929 . S
H527 C536 0.929 . S
C528 H522 0.930 . S
C528 C529 1.367 . S
C528 C536 1.378 . S
C529 C528 1.367 . S
C529 C537 1.433 . S
C530 H526 0.929 . S
C530 C532 1.378 . S
C530 C534 1.350 . S
C531 C534 1.463 . S
C531 C536 1.350 . S
C531 N539 1.427 . S
C532 H523 0.930 . S
C532 C530 1.378 . S
C532 C533 1.367 . S
C533 C532 1.367 . S
C533 C535 1.433 . S
C534 C530 1.350 . S
C534 C531 1.463 . S
C534 N538 1.427 . S
C535 H525 0.929 . S
C535 C533 1.433 . S
C535 N538 1.384 . S
C536 H527 0.929 . S
C536 C528 1.378 . S
C536 C531 1.350 . S
C537 H524 0.929 . S
C537 C529 1.433 . S
C537 N539 1.384 . S
N538 C534 1.427 . S
N538 C535 1.384 . S
N539 C531 1.427 . S
N539 C537 1.384 . S
H540 C546 0.930 . S
H541 C550 0.930 . S
H542 C555 0.929 . S
H543 C553 0.929 . S
H544 C548 0.929 . S
H545 C554 0.929 . S
C546 H540 0.930 . S
C546 C547 1.367 . S
C546 C554 1.378 . S
C547 C546 1.367 . S
C547 C555 1.433 . S
C548 H544 0.929 . S
C548 C550 1.378 . S
C548 C552 1.350 . S
C549 C552 1.463 . S
C549 C554 1.350 . S
C549 N557 1.427 . S
C550 H541 0.930 . S
C550 C548 1.378 . S
C550 C551 1.367 . S
C551 C550 1.367 . S
C551 C553 1.433 . S
C552 C548 1.350 . S
C552 C549 1.463 . S
C552 N556 1.427 . S
C553 H543 0.929 . S
C553 C551 1.433 . S
C553 N556 1.384 . S
C554 H545 0.929 . S
C554 C546 1.378 . S
C554 C549 1.350 . S
C555 H542 0.929 . S
C555 C547 1.433 . S
C555 N557 1.384 . S
N556 C552 1.427 . S
N556 C553 1.384 . S
N557 C549 1.427 . S
N557 C555 1.384 . S
H558 C564 0.930 . S
H559 C568 0.930 . S
H560 C573 0.929 . S
H561 C571 0.929 . S
H562 C566 0.929 . S
H563 C572 0.929 . S
C564 H558 0.930 . S
C564 C565 1.367 . S
C564 C572 1.378 . S
C565 C564 1.367 . S
C565 C573 1.433 . S
C566 H562 0.929 . S
C566 C568 1.378 . S
C566 C570 1.350 . S
C567 C570 1.463 . S
C567 C572 1.350 . S
C567 N575 1.427 . S
C568 H559 0.930 . S
C568 C566 1.378 . S
C568 C569 1.367 . S
C569 C568 1.367 . S
C569 C571 1.433 . S
C570 C566 1.350 . S
C570 C567 1.463 . S
C570 N574 1.427 . S
C571 H561 0.929 . S
C571 C569 1.433 . S
C571 N574 1.384 . S
C572 H563 0.929 . S
C572 C564 1.378 . S
C572 C567 1.350 . S
C573 H560 0.929 . S
C573 C565 1.433 . S
C573 N575 1.384 . S
N574 C570 1.427 . S
N574 C571 1.384 . S
N575 C567 1.427 . S
N575 C573 1.384 . S
C295 C39 1.507 . S
C299 C3 1.509 . S
C313 C75 1.508 . S
C317 C111 1.509 . S
C331 C147 1.507 . S
C335 C183 1.509 . S
C349 C219 1.508 . S
C353 C255 1.507 . S
C367 C2 1.157 . S
C371 C110 1.166 . S
C385 C74 1.175 . S
C389 C38 1.178 . S
C403 C86 1.253 . S
C407 C50 1.260 . S
C421 C14 1.254 . S
C425 C122 1.252 . S
C439 C146 1.162 . S
C443 C254 1.175 . S
C457 C218 1.158 . S
C461 C182 1.169 . S
C475 C194 1.252 . S
C479 C230 1.259 . S
C493 C158 1.265 . S
C497 C266 1.260 . S
C511 C184 1.513 . S
C515 C4 1.515 . S
C529 C148 1.515 . S
C533 C40 1.515 . S
C547 C76 1.512 . S
C551 C256 1.514 . S
C565 C220 1.515 . S
C569 C112 1.515 . S
