# Generated by pormake.
# Topology ukj, (4)-cn, num edge types: 1
# Building blocks:
#     Node 0, Type 0, BuildingBlock: MUDLON_clean_sbu_0, # of connection points: 4
#     Node 1, Type 0, BuildingBlock: MUDLON_clean_sbu_0, # of connection points: 4
#     Node 2, Type 0, BuildingBlock: MUDLON_clean_sbu_0, # of connection points: 4
#     Node 3, Type 0, BuildingBlock: MUDLON_clean_sbu_0, # of connection points: 4
#     Node 4, Type 0, BuildingBlock: MUDLON_clean_sbu_0, # of connection points: 4
#     Node 5, Type 0, BuildingBlock: MUDLON_clean_sbu_0, # of connection points: 4
#     Node 6, Type 0, BuildingBlock: MUDLON_clean_sbu_0, # of connection points: 4
#     Node 7, Type 0, BuildingBlock: MUDLON_clean_sbu_0, # of connection points: 4
#     Node 8, Type 0, BuildingBlock: MUDLON_clean_sbu_0, # of connection points: 4
#     Node 9, Type 0, BuildingBlock: MUDLON_clean_sbu_0, # of connection points: 4
#     Node 10, Type 0, BuildingBlock: MUDLON_clean_sbu_0, # of connection points: 4
#     Node 11, Type 0, BuildingBlock: MUDLON_clean_sbu_0, # of connection points: 4
#     Node 12, Type 0, BuildingBlock: MUDLON_clean_sbu_0, # of connection points: 4
#     Node 13, Type 0, BuildingBlock: MUDLON_clean_sbu_0, # of connection points: 4
#     Node 14, Type 0, BuildingBlock: MUDLON_clean_sbu_0, # of connection points: 4
#     Node 15, Type 0, BuildingBlock: MUDLON_clean_sbu_0, # of connection points: 4
#     Node 16, Type 0, BuildingBlock: MUDLON_clean_sbu_0, # of connection points: 4
#     Node 17, Type 0, BuildingBlock: MUDLON_clean_sbu_0, # of connection points: 4
#     Node 18, Type 0, BuildingBlock: MUDLON_clean_sbu_0, # of connection points: 4
#     Node 19, Type 0, BuildingBlock: MUDLON_clean_sbu_0, # of connection points: 4
#     Node 20, Type 0, BuildingBlock: MUDLON_clean_sbu_0, # of connection points: 4
#     Node 21, Type 0, BuildingBlock: MUDLON_clean_sbu_0, # of connection points: 4
#     Node 22, Type 0, BuildingBlock: MUDLON_clean_sbu_0, # of connection points: 4
#     Node 23, Type 0, BuildingBlock: MUDLON_clean_sbu_0, # of connection points: 4
#     Node 24, Type 0, BuildingBlock: MUDLON_clean_sbu_0, # of connection points: 4
#     Node 25, Type 0, BuildingBlock: MUDLON_clean_sbu_0, # of connection points: 4
#     Node 26, Type 0, BuildingBlock: MUDLON_clean_sbu_0, # of connection points: 4
#     Node 27, Type 0, BuildingBlock: MUDLON_clean_sbu_0, # of connection points: 4
#     Node 28, Type 0, BuildingBlock: MUDLON_clean_sbu_0, # of connection points: 4
#     Node 29, Type 0, BuildingBlock: MUDLON_clean_sbu_0, # of connection points: 4
#     Node 30, Type 0, BuildingBlock: MUDLON_clean_sbu_0, # of connection points: 4
#     Node 31, Type 0, BuildingBlock: MUDLON_clean_sbu_0, # of connection points: 4
#     Edge 32, Type (0, 0), BuildingBlock: AJUNOK_clean_linker_0, # of connection points: 2
#     Edge 33, Type (0, 0), BuildingBlock: AJUNOK_clean_linker_0, # of connection points: 2
#     Edge 34, Type (0, 0), BuildingBlock: AJUNOK_clean_linker_0, # of connection points: 2
#     Edge 35, Type (0, 0), BuildingBlock: AJUNOK_clean_linker_0, # of connection points: 2
#     Edge 36, Type (0, 0), BuildingBlock: AJUNOK_clean_linker_0, # of connection points: 2
#     Edge 37, Type (0, 0), BuildingBlock: AJUNOK_clean_linker_0, # of connection points: 2
#     Edge 38, Type (0, 0), BuildingBlock: AJUNOK_clean_linker_0, # of connection points: 2
#     Edge 39, Type (0, 0), BuildingBlock: AJUNOK_clean_linker_0, # of connection points: 2
#     Edge 40, Type (0, 0), BuildingBlock: AJUNOK_clean_linker_0, # of connection points: 2
#     Edge 41, Type (0, 0), BuildingBlock: AJUNOK_clean_linker_0, # of connection points: 2
#     Edge 42, Type (0, 0), BuildingBlock: AJUNOK_clean_linker_0, # of connection points: 2
#     Edge 43, Type (0, 0), BuildingBlock: AJUNOK_clean_linker_0, # of connection points: 2
#     Edge 44, Type (0, 0), BuildingBlock: AJUNOK_clean_linker_0, # of connection points: 2
#     Edge 45, Type (0, 0), BuildingBlock: AJUNOK_clean_linker_0, # of connection points: 2
#     Edge 46, Type (0, 0), BuildingBlock: AJUNOK_clean_linker_0, # of connection points: 2
#     Edge 47, Type (0, 0), BuildingBlock: AJUNOK_clean_linker_0, # of connection points: 2
#     Edge 48, Type (0, 0), BuildingBlock: AJUNOK_clean_linker_0, # of connection points: 2
#     Edge 49, Type (0, 0), BuildingBlock: AJUNOK_clean_linker_0, # of connection points: 2
#     Edge 50, Type (0, 0), BuildingBlock: AJUNOK_clean_linker_0, # of connection points: 2
#     Edge 51, Type (0, 0), BuildingBlock: AJUNOK_clean_linker_0, # of connection points: 2
#     Edge 52, Type (0, 0), BuildingBlock: AJUNOK_clean_linker_0, # of connection points: 2
#     Edge 53, Type (0, 0), BuildingBlock: AJUNOK_clean_linker_0, # of connection points: 2
#     Edge 54, Type (0, 0), BuildingBlock: AJUNOK_clean_linker_0, # of connection points: 2
#     Edge 55, Type (0, 0), BuildingBlock: AJUNOK_clean_linker_0, # of connection points: 2
#     Edge 56, Type (0, 0), BuildingBlock: AJUNOK_clean_linker_0, # of connection points: 2
#     Edge 57, Type (0, 0), BuildingBlock: AJUNOK_clean_linker_0, # of connection points: 2
#     Edge 58, Type (0, 0), BuildingBlock: AJUNOK_clean_linker_0, # of connection points: 2
#     Edge 59, Type (0, 0), BuildingBlock: AJUNOK_clean_linker_0, # of connection points: 2
#     Edge 60, Type (0, 0), BuildingBlock: AJUNOK_clean_linker_0, # of connection points: 2
#     Edge 61, Type (0, 0), BuildingBlock: AJUNOK_clean_linker_0, # of connection points: 2
#     Edge 62, Type (0, 0), BuildingBlock: AJUNOK_clean_linker_0, # of connection points: 2
#     Edge 63, Type (0, 0), BuildingBlock: AJUNOK_clean_linker_0, # of connection points: 2
#     Edge 64, Type (0, 0), BuildingBlock: AJUNOK_clean_linker_0, # of connection points: 2
#     Edge 65, Type (0, 0), BuildingBlock: AJUNOK_clean_linker_0, # of connection points: 2
#     Edge 66, Type (0, 0), BuildingBlock: AJUNOK_clean_linker_0, # of connection points: 2
#     Edge 67, Type (0, 0), BuildingBlock: AJUNOK_clean_linker_0, # of connection points: 2
#     Edge 68, Type (0, 0), BuildingBlock: AJUNOK_clean_linker_0, # of connection points: 2
#     Edge 69, Type (0, 0), BuildingBlock: AJUNOK_clean_linker_0, # of connection points: 2
#     Edge 70, Type (0, 0), BuildingBlock: AJUNOK_clean_linker_0, # of connection points: 2
#     Edge 71, Type (0, 0), BuildingBlock: AJUNOK_clean_linker_0, # of connection points: 2
#     Edge 72, Type (0, 0), BuildingBlock: AJUNOK_clean_linker_0, # of connection points: 2
#     Edge 73, Type (0, 0), BuildingBlock: AJUNOK_clean_linker_0, # of connection points: 2
#     Edge 74, Type (0, 0), BuildingBlock: AJUNOK_clean_linker_0, # of connection points: 2
#     Edge 75, Type (0, 0), BuildingBlock: AJUNOK_clean_linker_0, # of connection points: 2
#     Edge 76, Type (0, 0), BuildingBlock: AJUNOK_clean_linker_0, # of connection points: 2
#     Edge 77, Type (0, 0), BuildingBlock: AJUNOK_clean_linker_0, # of connection points: 2
#     Edge 78, Type (0, 0), BuildingBlock: AJUNOK_clean_linker_0, # of connection points: 2
#     Edge 79, Type (0, 0), BuildingBlock: AJUNOK_clean_linker_0, # of connection points: 2
#     Edge 80, Type (0, 0), BuildingBlock: AJUNOK_clean_linker_0, # of connection points: 2
#     Edge 81, Type (0, 0), BuildingBlock: AJUNOK_clean_linker_0, # of connection points: 2
#     Edge 82, Type (0, 0), BuildingBlock: AJUNOK_clean_linker_0, # of connection points: 2
#     Edge 83, Type (0, 0), BuildingBlock: AJUNOK_clean_linker_0, # of connection points: 2
#     Edge 84, Type (0, 0), BuildingBlock: AJUNOK_clean_linker_0, # of connection points: 2
#     Edge 85, Type (0, 0), BuildingBlock: AJUNOK_clean_linker_0, # of connection points: 2
#     Edge 86, Type (0, 0), BuildingBlock: AJUNOK_clean_linker_0, # of connection points: 2
#     Edge 87, Type (0, 0), BuildingBlock: AJUNOK_clean_linker_0, # of connection points: 2
#     Edge 88, Type (0, 0), BuildingBlock: AJUNOK_clean_linker_0, # of connection points: 2
#     Edge 89, Type (0, 0), BuildingBlock: AJUNOK_clean_linker_0, # of connection points: 2
#     Edge 90, Type (0, 0), BuildingBlock: AJUNOK_clean_linker_0, # of connection points: 2
#     Edge 91, Type (0, 0), BuildingBlock: AJUNOK_clean_linker_0, # of connection points: 2
#     Edge 92, Type (0, 0), BuildingBlock: AJUNOK_clean_linker_0, # of connection points: 2
#     Edge 93, Type (0, 0), BuildingBlock: AJUNOK_clean_linker_0, # of connection points: 2
#     Edge 94, Type (0, 0), BuildingBlock: AJUNOK_clean_linker_0, # of connection points: 2
#     Edge 95, Type (0, 0), BuildingBlock: AJUNOK_clean_linker_0, # of connection points: 2
# Relax obj value: 0.028
# Max RMSD: 0.218
# Mean RMSD: 0.216
data_MOF--net-ukj--node1-MUDLON_clean_sbu_0--edge1-AJUNOK_clean_linker_0
_symmetry_space_group_name_H-M    P1
_symmetry_Int_Tables_number       1
_symmetry_cell_setting            triclinic
loop_
_symmetry_equiv_pos_as_xyz
'x, y, z'
_cell_length_a     25.593027
_cell_length_b     43.523373
_cell_length_c     44.407119
_cell_angle_alpha  89.925247
_cell_angle_beta   89.956741
_cell_angle_gamma 89.888735
loop_
_atom_site_label
_atom_site_type_symbol
_atom_site_fract_x
_atom_site_fract_y
_atom_site_fract_z
_atom_type_partial_charge
Mg0 Mg 0.16932 0.35831 0.26773 0.0
C1 C 0.17646 0.3865 0.20629 0.0
O2 O 0.22604 0.38222 0.21262 0.0
C3 C 0.14491 0.36013 0.33213 0.0
O4 O 0.16205 0.33201 0.32776 0.0
C5 C 0.08747 0.31147 0.26754 0.0
O6 O 0.06231 0.33782 0.26816 0.0
O7 O 0.13723 0.312 0.26677 0.0
O8 O 0.14264 0.38037 0.22646 0.0
O9 O 0.25388 0.36355 0.26985 0.0
C10 C 0.28849 0.34285 0.27284 0.0
O11 O 0.27394 0.31399 0.2749 0.0
O12 O 0.1413 0.378 0.30951 0.0
Mg13 Mg 0.1254 0.90492 0.26925 0.0
C14 C 0.11529 0.883 0.20573 0.0
O15 O 0.06894 0.89501 0.21055 0.0
C16 C 0.14607 0.89916 0.33342 0.0
O17 O 0.13476 0.92832 0.32928 0.0
C18 C 0.18864 0.96082 0.24865 0.0
O19 O 0.17906 0.94969 0.22174 0.0
O20 O 0.16787 0.94825 0.27156 0.0
O21 O 0.14801 0.88249 0.22732 0.0
O22 O 0.04019 0.90689 0.27112 0.0
C23 C 1.01855 0.88067 0.27378 0.0
O24 O 0.04878 0.8563 0.27535 0.0
O25 O 0.14717 0.88157 0.31054 0.0
Mg26 Mg 0.18121 0.90249 1.01873 0.0
C27 C 0.18505 0.87742 0.08182 0.0
O28 O 0.23491 0.88258 0.07704 0.0
C29 C 0.15598 0.90018 0.95452 0.0
O30 O 0.17331 0.92826 0.95868 0.0
C31 C 0.09914 0.94918 1.02028 0.0
O32 O 0.07474 0.92264 1.02108 0.0
O33 O 0.14894 0.94897 1.01943 0.0
O34 O 0.15314 0.88152 0.06021 0.0
O35 O 0.26575 0.89614 1.01618 0.0
C36 C 0.30126 0.91489 0.02384 0.0
O37 O 0.28781 0.94215 0.03393 0.0
O38 O 0.15243 0.88248 0.97726 0.0
Mg39 Mg 0.12025 0.35182 1.02183 0.0
C40 C 0.11106 0.3851 0.08165 0.0
O41 O 0.06111 0.38258 0.07542 0.0
C42 C 0.14873 0.35309 0.95765 0.0
O43 O 0.13593 0.32424 0.96227 0.0
C44 C 0.20943 0.31013 1.0231 0.0
O45 O 0.22908 0.33789 1.02073 0.0
O46 O 0.15989 0.30746 0.02463 0.0
O47 O 0.14435 0.37628 0.06219 0.0
O48 O 0.03509 0.35318 1.01844 0.0
C49 C 1.00271 0.33739 0.03363 0.0
O50 O 1.02042 0.31662 0.05255 0.0
O51 O 0.14746 0.37155 0.97985 0.0
Mg52 Mg 0.86748 0.65796 0.77097 0.0
C53 C 0.86249 0.63504 0.8347 0.0
O54 O 0.81472 0.64545 0.83099 0.0
C55 C 0.88925 0.65392 0.70599 0.0
O56 O 0.87583 0.6828 0.70988 0.0
C57 C 0.95458 0.70246 0.77009 0.0
O58 O 0.97834 0.67566 0.76997 0.0
O59 O 0.90482 0.70291 0.77086 0.0
O60 O 0.89359 0.63553 0.8123 0.0
O61 O 0.78218 0.65804 0.77035 0.0
C62 C 0.7608 0.63169 0.76851 0.0
O63 O 0.79119 0.60739 0.76687 0.0
O64 O 0.89109 0.63643 0.72898 0.0
Mg65 Mg 0.92884 0.103 0.77285 0.0
C66 C 0.87328 0.12993 0.82795 0.0
O67 O 0.83128 0.1235 0.81222 0.0
C68 C 0.91003 0.10927 0.70861 0.0
O69 O 0.92377 0.08044 0.71259 0.0
C70 C 0.83574 0.06218 0.76691 0.0
O71 O 0.81743 0.08873 0.75757 0.0
O72 O 0.88369 0.06047 0.77452 0.0
O73 O 0.91774 0.12618 0.81579 0.0
O74 O 1.01311 0.09783 0.76909 0.0
C75 C 0.03756 0.12327 0.76791 0.0
O76 O 1.01026 0.14885 0.76892 0.0
O77 O 0.90653 0.1265 0.73168 0.0
Mg78 Mg 0.87688 0.10125 1.01976 0.0
C79 C 0.85257 0.12201 0.9574 0.0
O80 O 0.80917 0.10842 0.96575 0.0
C81 C 0.90168 0.10784 0.08354 0.0
O82 O 0.89099 0.07853 0.08009 0.0
C83 C 0.97037 0.06047 1.01837 0.0
O84 O 0.99098 0.08809 1.01823 0.0
O85 O 0.92072 0.05815 1.01876 0.0
O86 O 0.88973 0.12401 0.97638 0.0
O87 O 0.79244 0.09721 0.02545 0.0
C88 C 0.76845 0.12258 0.02944 0.0
O89 O 0.79617 0.14792 0.03095 0.0
O90 O 0.90159 0.12499 0.06029 0.0
Mg91 Mg 0.92454 0.65407 1.02193 0.0
C92 C 0.93401 0.63198 0.95821 0.0
O93 O 0.9809 0.64317 0.9629 0.0
C94 C 0.90662 0.64887 0.08678 0.0
O95 O 0.91864 0.67787 0.08245 0.0
C96 C 0.83223 0.69295 0.03244 0.0
O97 O 0.81677 0.66519 0.03982 0.0
O98 O 0.87887 0.69671 1.02302 0.0
O99 O 0.90167 0.63158 0.98004 0.0
O100 O 1.00997 0.65662 1.02302 0.0
C101 C 0.03205 0.63045 0.02565 0.0
O102 O 1.00214 0.60603 0.02758 0.0
O103 O 0.90507 0.63107 0.06404 0.0
Mg104 Mg 0.17257 0.85554 0.76586 0.0
C105 C 0.17526 0.89046 0.70703 0.0
O106 O 0.22513 0.89125 0.7138 0.0
C107 C 0.14851 0.85667 0.83099 0.0
O108 O 0.15594 0.82731 0.82565 0.0
C109 C 0.08346 0.81325 0.76554 0.0
O110 O 0.06254 0.84081 0.76672 0.0
O111 O 0.13312 0.81115 0.76458 0.0
O112 O 0.14339 0.87958 0.72629 0.0
O113 O 0.25786 0.85522 0.76224 0.0
C114 C 0.28325 0.87502 0.77742 0.0
O115 O 0.25784 0.89232 0.79674 0.0
O116 O 0.1518 0.87549 0.8091 0.0
Mg117 Mg 0.11763 0.40213 0.77238 0.0
C118 C 0.11308 0.40305 0.70892 0.0
O119 O 0.08219 0.42455 0.71972 0.0
C120 C 0.15039 0.39726 0.83467 0.0
O121 O 0.1365 0.42607 0.83087 0.0
C122 C 0.20285 0.44574 0.77035 0.0
O123 O 0.22359 0.41828 0.76734 0.0
O124 O 0.15334 0.44765 0.77297 0.0
O125 O 0.13665 0.38562 0.72754 0.0
O126 O 0.03317 0.39721 0.77583 0.0
C127 C 0.99815 0.41769 0.77868 0.0
O128 O 1.01204 0.44669 0.78021 0.0
O129 O 0.14839 0.37927 0.8121 0.0
Mg130 Mg 0.17465 0.41 0.5181 0.0
C131 C 0.1632 0.41029 0.58178 0.0
O132 O 0.18377 0.43669 0.57373 0.0
C133 C 0.14404 0.40513 0.45492 0.0
O134 O 0.15327 0.43451 0.45893 0.0
C135 C 0.08685 0.45378 0.51945 0.0
O136 O 0.0644 0.42676 0.52185 0.0
O137 O 0.13647 0.45481 0.51753 0.0
O138 O 0.15346 0.39054 0.56148 0.0
O139 O 0.25958 0.41018 0.5168 0.0
C140 C 0.28069 0.38403 0.52118 0.0
O141 O 0.25007 0.36034 0.52599 0.0
O142 O 0.14879 0.38708 0.47736 0.0
Mg143 Mg 0.11516 0.85631 0.5215 0.0
C144 C 0.10727 0.88306 0.58314 0.0
O145 O 0.05979 0.87246 0.57906 0.0
C146 C 0.14184 0.85571 0.45713 0.0
O147 O 0.12953 0.827 0.46284 0.0
C148 C 0.20219 0.8131 0.52612 0.0
O149 O 0.22387 0.84043 0.52578 0.0
O150 O 0.15254 0.8115 0.52496 0.0
O151 O 0.13966 0.88132 0.56145 0.0
O152 O 0.03013 0.85719 0.51989 0.0
C153 C 1.01043 0.883 0.51244 0.0
O154 O 0.04227 0.90563 0.50565 0.0
O155 O 0.14099 0.87492 0.47872 0.0
Mg156 Mg 0.87359 0.15638 0.2711 0.0
C157 C 0.86577 0.13234 0.33428 0.0
O158 O 0.81832 0.14299 0.33005 0.0
C159 C 0.8967 0.15422 0.20633 0.0
O160 O 0.88458 0.18311 0.21132 0.0
C161 C 0.96328 0.19888 0.27119 0.0
O162 O 0.98502 0.17153 0.27016 0.0
O163 O 0.91358 0.20054 0.27214 0.0
O164 O 0.89785 0.13303 0.31235 0.0
O165 O 0.78838 0.15857 0.27012 0.0
C166 C 0.76415 0.13317 0.2674 0.0
O167 O 0.7917 0.10776 0.26523 0.0
O168 O 0.89675 0.13569 0.22857 0.0
Mg169 Mg 0.9243 0.59712 0.27441 0.0
C170 C 0.8644 0.62418 0.32801 0.0
O171 O 0.82355 0.61635 0.31189 0.0
C172 C 0.90688 0.6025 0.2096 0.0
O173 O 0.92153 0.57383 0.21366 0.0
C174 C 0.83453 0.55331 0.26768 0.0
O175 O 0.8136 0.57901 0.25783 0.0
O176 O 0.88216 0.55354 0.27604 0.0
O177 O 0.90962 0.62094 0.31665 0.0
O178 O 1.00901 0.59317 0.27238 0.0
C179 C 0.03321 0.61871 0.27278 0.0
O180 O 1.00557 0.64415 0.2742 0.0
O181 O 0.90242 0.6197 0.23264 0.0
Mg182 Mg 0.8606 0.60282 0.52011 0.0
C183 C 0.83755 0.62224 0.45735 0.0
O184 O 0.79417 0.60861 0.46571 0.0
C185 C 0.89079 0.60744 0.58333 0.0
O186 O 0.88057 0.57819 0.57915 0.0
C187 C 0.9526 0.56253 0.51671 0.0
O188 O 0.972 0.59044 0.51579 0.0
O189 O 0.90317 0.55954 0.51828 0.0
O190 O 0.87404 0.62515 0.47663 0.0
O191 O 0.77633 0.59986 0.52631 0.0
C192 C 0.75436 0.62591 0.52976 0.0
O193 O 0.78405 0.65049 0.53021 0.0
O194 O 0.8877 0.62551 0.5608 0.0
Mg195 Mg 0.93259 0.15715 0.5206 0.0
C196 C 0.93935 0.13326 0.45734 0.0
O197 O 0.98654 0.14451 0.46088 0.0
C198 C 0.90882 0.15473 0.58536 0.0
O199 O 0.91754 0.184 0.58024 0.0
C200 C 0.84086 0.19763 0.51884 0.0
O201 O 0.82136 0.16973 0.51845 0.0
O202 O 0.89035 0.20058 0.51942 0.0
O203 O 0.90845 0.13324 0.47982 0.0
O204 O 1.01752 0.16047 0.5213 0.0
C205 C 0.04207 0.13524 0.52487 0.0
O206 O 1.01483 0.10983 0.52766 0.0
O207 O 0.9111 0.13614 0.56326 0.0
Mg208 Mg 0.67365 0.35586 0.77345 0.0
C209 C 0.68076 0.37926 0.71043 0.0
O210 O 0.72893 0.37014 0.71536 0.0
C211 C 0.64816 0.35865 0.83755 0.0
O212 O 0.66254 0.32999 0.83323 0.0
C213 C 0.58964 0.31001 0.77278 0.0
O214 O 0.56521 0.3366 0.77264 0.0
O215 O 0.63942 0.31004 0.77274 0.0
O216 O 0.64797 0.37774 0.73195 0.0
O217 O 0.75864 0.35909 0.77562 0.0
C218 C 0.77598 0.38619 0.77971 0.0
O219 O 0.74206 0.40871 0.78258 0.0
O220 O 0.64652 0.37659 0.81493 0.0
Mg221 Mg 0.61789 0.90834 0.77517 0.0
C222 C 0.62119 0.86602 0.71843 0.0
O223 O 0.57639 0.85489 0.72784 0.0
C224 C 0.64623 0.90623 0.83973 0.0
O225 O 0.63158 0.93493 0.83597 0.0
C226 C 0.70339 0.95306 0.77413 0.0
O227 O 0.72666 0.92625 0.77679 0.0
O228 O 0.65366 0.95368 0.77291 0.0
O229 O 0.64539 0.88559 0.73446 0.0
O230 O 0.53264 0.90688 0.77826 0.0
C231 C 0.50178 0.90605 0.75582 0.0
O232 O 0.52068 0.90984 0.72857 0.0
O233 O 0.64603 0.88843 0.817 0.0
Mg234 Mg 0.67021 0.89648 0.53046 0.0
C235 C 0.6793 0.87604 0.59326 0.0
O236 O 0.72296 0.8908 0.58775 0.0
C237 C 0.64638 0.89615 0.4658 0.0
O238 O 0.65838 0.92488 0.47148 0.0
C239 C 0.58706 0.94331 0.53143 0.0
O240 O 0.56153 0.91714 0.53097 0.0
O241 O 0.63679 0.94249 0.53207 0.0
O242 O 0.64633 0.87333 0.57195 0.0
O243 O 0.75508 0.89314 0.52924 0.0
C244 C 0.78653 0.90936 0.5139 0.0
O245 O 0.76829 0.93233 0.49779 0.0
O246 O 0.64543 0.87716 0.48767 0.0
Mg247 Mg 0.61705 0.34915 0.52472 0.0
C248 C 0.60975 0.37588 0.58701 0.0
O249 O 0.56087 0.36786 0.58274 0.0
C250 C 0.63945 0.35373 0.46009 0.0
O251 O 0.62869 0.32449 0.46402 0.0
C252 C 0.70652 0.3062 0.52457 0.0
O253 O 0.72889 0.33334 0.52529 0.0
O254 O 0.65682 0.30494 0.52467 0.0
O255 O 0.64208 0.37247 0.56549 0.0
O256 O 0.53209 0.34685 0.52428 0.0
C257 C 0.50815 0.37174 0.51808 0.0
O258 O 0.53598 0.39631 0.51194 0.0
O259 O 0.63927 0.37129 0.48297 0.0
Mg260 Mg 0.36755 0.6544 0.27628 0.0
C261 C 0.35954 0.63031 0.33917 0.0
O262 O 0.31216 0.64112 0.33496 0.0
C263 C 0.39234 0.65141 0.21188 0.0
O264 O 0.38175 0.68057 0.21646 0.0
C265 C 0.45791 0.69545 0.27934 0.0
O266 O 0.47769 0.66759 0.28007 0.0
O267 O 0.4084 0.69827 0.27784 0.0
O268 O 0.39143 0.63069 0.31718 0.0
O269 O 0.28237 0.65552 0.27493 0.0
C270 C 0.26098 0.62939 0.27113 0.0
O271 O 0.29142 0.60527 0.26801 0.0
O272 O 0.39117 0.63317 0.23429 0.0
Mg273 Mg 0.42867 0.10084 0.27232 0.0
C274 C 0.43897 0.12406 0.33567 0.0
O275 O 0.48615 0.1133 0.33076 0.0
C276 C 0.4154 0.10594 0.20747 0.0
O277 O 0.43048 0.07748 0.21223 0.0
C278 C 0.33797 0.0608 0.25983 0.0
O279 O 0.3228 0.08773 0.24968 0.0
O280 O 0.38346 0.0582 0.27127 0.0
O281 O 0.40607 0.1237 0.31414 0.0
O282 O 0.51391 0.09769 0.27134 0.0
C283 C 0.5361 0.12368 0.26794 0.0
O284 O 0.5063 0.14813 0.26515 0.0
O285 O 0.41008 0.12367 0.23008 0.0
Mg286 Mg 0.37704 0.1004 0.52364 0.0
C287 C 0.37031 0.12266 0.45978 0.0
O288 O 0.32276 0.11221 0.46404 0.0
C289 C 0.3995 0.10534 0.58843 0.0
O290 O 0.38729 0.07626 0.58485 0.0
C291 C 0.46531 0.05691 0.52468 0.0
O292 O 0.48772 0.08404 0.52441 0.0
O293 O 0.41558 0.05575 0.52417 0.0
O294 O 0.40197 0.12246 0.48189 0.0
O295 O 0.29187 0.0997 0.52455 0.0
C296 C 0.27001 0.12593 0.52672 0.0
O297 O 0.29994 0.15033 0.52861 0.0
O298 O 0.40034 0.12264 0.56528 0.0
Mg299 Mg 0.41741 0.65705 0.52524 0.0
C300 C 0.42821 0.63083 0.46301 0.0
O301 O 0.47643 0.63959 0.46817 0.0
C302 C 0.39369 0.65348 0.5896 0.0
O303 O 0.40474 0.68259 0.58511 0.0
C304 C 0.32891 0.70128 0.5244 0.0
O305 O 0.30491 0.67461 0.52411 0.0
O306 O 0.37865 0.70155 0.52441 0.0
O307 O 0.39462 0.63366 0.48399 0.0
O308 O 0.50221 0.65964 0.52719 0.0
C309 C 0.52661 0.63462 0.53216 0.0
O310 O 0.49938 0.60932 0.53585 0.0
O311 O 0.39406 0.63543 0.56707 0.0
Mg312 Mg 0.68164 0.84714 0.27801 0.0
C313 C 0.65996 0.84887 0.21434 0.0
O314 O 0.6736 0.82043 0.22043 0.0
C315 C 0.65676 0.85235 0.34229 0.0
O316 O 0.66696 0.82302 0.33846 0.0
C317 C 0.5918 0.8042 0.27766 0.0
O318 O 0.56939 0.83131 0.27556 0.0
O319 O 0.64147 0.80295 0.27904 0.0
O320 O 0.65888 0.86842 0.23559 0.0
O321 O 0.76664 0.84482 0.2777 0.0
C322 C 0.79066 0.87042 0.27695 0.0
O323 O 0.7629 0.89585 0.27671 0.0
O324 O 0.65874 0.87003 0.31944 0.0
Mg325 Mg 0.61468 0.40123 0.27278 0.0
C326 C 0.60967 0.3764 0.21026 0.0
O327 O 0.56173 0.38654 0.21391 0.0
C328 C 0.63932 0.39957 0.33723 0.0
O329 O 0.62731 0.42848 0.33223 0.0
C330 C 0.70285 0.44371 0.27292 0.0
O331 O 0.72341 0.41618 0.2758 0.0
O332 O 0.65331 0.44585 0.27068 0.0
O333 O 0.64089 0.37749 0.23251 0.0
O334 O 0.52949 0.39965 0.27349 0.0
C335 C 0.51117 0.37268 0.27702 0.0
O336 O 0.54433 0.34982 0.28031 0.0
O337 O 0.639 0.381 0.31512 0.0
Mg338 Mg 0.68063 0.40196 0.02501 0.0
C339 C 0.68407 0.37967 0.08796 0.0
O340 O 0.72985 0.39282 0.08467 0.0
C341 C 0.65065 0.40187 0.96102 0.0
O342 O 0.66196 0.4308 0.96622 0.0
C343 C 0.59605 0.44736 0.02845 0.0
O344 O 0.5727 0.4205 0.0293 0.0
O345 O 0.64583 0.44784 0.0272 0.0
O346 O 0.65333 0.37877 0.06546 0.0
O347 O 0.76581 0.39676 0.02441 0.0
C348 C 0.7808 0.36888 0.02672 0.0
O349 O 0.74501 0.34733 0.02809 0.0
O350 O 0.65356 0.38283 0.98275 0.0
Mg351 Mg 0.62507 0.85144 0.02417 0.0
C352 C 0.60767 0.85993 0.08831 0.0
O353 O 0.56828 0.84346 0.07846 0.0
C354 C 0.65673 0.85863 0.96161 0.0
O355 O 0.64629 0.82928 0.96484 0.0
C356 C 0.68381 0.79359 0.04497 0.0
O357 O 0.67712 0.80612 0.07156 0.0
O358 O 0.66338 0.80628 1.02195 0.0
O359 O 0.64096 0.86953 0.06915 0.0
O360 O 0.54009 0.85414 1.01928 0.0
C361 C 0.52292 0.88154 1.02182 0.0
O362 O 0.55695 0.90368 0.02614 0.0
O363 O 0.6535 0.87591 0.98468 0.0
Mg364 Mg 0.37151 0.15687 0.77432 0.0
C365 C 0.34969 0.1364 0.83696 0.0
O366 O 0.30568 0.14957 0.82889 0.0
C367 C 0.40011 0.15254 0.71083 0.0
O368 O 0.38832 0.1816 0.71503 0.0
C369 C 0.46231 0.19858 0.77604 0.0
O370 O 0.4834 0.17104 0.77592 0.0
O371 O 0.41264 0.20068 0.77583 0.0
O372 O 0.38629 0.13434 0.81758 0.0
O373 O 0.2869 0.15896 0.76878 0.0
C374 C 0.26528 0.1329 0.76492 0.0
O375 O 0.29535 0.10845 0.76352 0.0
O376 O 0.39862 0.13449 0.73343 0.0
Mg377 Mg 0.42372 0.5987 0.7756 0.0
C378 C 0.43355 0.62362 0.83845 0.0
O379 O 0.4821 0.61537 0.83332 0.0
C380 C 0.39876 0.60479 0.71141 0.0
O381 O 0.4097 0.57545 0.71455 0.0
C382 C 0.33393 0.55553 0.77613 0.0
O383 O 0.3109 0.58249 0.77779 0.0
O384 O 0.38367 0.55459 0.77528 0.0
O385 O 0.40035 0.62103 0.81729 0.0
O386 O 0.50884 0.59615 0.77374 0.0
C387 C 0.53291 0.62135 0.76926 0.0
O388 O 0.5052 0.64656 0.76584 0.0
O389 O 0.39982 0.62183 0.73466 0.0
Mg390 Mg 0.37005 0.59747 0.02521 0.0
C391 C 0.36266 0.62105 0.96196 0.0
O392 O 0.3154 0.61004 0.96586 0.0
C393 C 0.39223 0.60335 0.0898 0.0
O394 O 0.38276 0.5739 0.08641 0.0
C395 C 0.46289 0.55685 0.02447 0.0
O396 O 0.48265 0.58465 0.02318 0.0
O397 O 0.41331 0.5541 0.02541 0.0
O398 O 0.39413 0.62074 0.98412 0.0
O399 O 0.28469 0.59471 0.02568 0.0
C400 C 0.26022 0.62012 0.02836 0.0
O401 O 0.28763 0.64548 0.03096 0.0
O402 O 0.3913 0.62052 0.0666 0.0
Mg403 Mg 0.43471 0.15825 1.02046 0.0
C404 C 0.37627 0.13115 0.96624 0.0
O405 O 0.33486 0.13692 0.9828 0.0
C406 C 0.41449 0.15213 0.08466 0.0
O407 O 0.42872 0.18088 0.08093 0.0
C408 C 0.34461 0.20163 0.02698 0.0
O409 O 0.32391 0.17543 0.03553 0.0
O410 O 0.39269 0.20202 1.01944 0.0
O411 O 0.42121 0.13565 0.97748 0.0
O412 O 0.51949 0.16036 0.02408 0.0
C413 C 0.54081 0.13394 0.02605 0.0
O414 O 0.51036 0.10968 0.02598 0.0
O415 O 0.4109 0.13508 0.06148 0.0
C416 C 0.10688 0.39065 0.1668 0.0
C417 C 0.16003 0.39247 0.17469 0.0
C418 C 0.09111 0.3904 0.13657 0.0
C419 C 0.12785 0.3918 0.11298 0.0
H420 H 0.07724 0.38785 0.18401 0.0
H421 H 0.04995 0.38735 0.13179 0.0
S422 S 0.27092 0.40251 0.12147 0.0
N423 N 0.24883 0.40005 0.15632 0.0
N424 N 0.21911 0.39927 0.09961 0.0
C425 C 0.18069 0.3961 0.12054 0.0
C426 C 0.19678 0.39653 0.15135 0.0
C427 C 0.20194 0.87271 0.13717 0.0
C428 C 0.16595 0.87278 0.11315 0.0
C429 C 0.18521 0.87404 0.16722 0.0
C430 C 0.13178 0.87556 0.1745 0.0
H431 H 0.24358 0.8731 0.13281 0.0
H432 H 0.21456 0.87555 0.18471 0.0
S433 S 1.0214 0.87095 0.12042 0.0
N434 N 0.07416 0.87048 0.09902 0.0
N435 N 0.04278 0.87295 0.15542 0.0
C436 C 0.09531 0.87322 0.15087 0.0
C437 C 0.11235 0.87181 0.12024 0.0
C438 C 0.84572 0.62823 0.88985 0.0
C439 C 0.88139 0.62796 0.86564 0.0
C440 C 0.86283 0.62726 0.91983 0.0
C441 C 0.91637 0.62615 0.92686 0.0
H442 H 0.8042 0.63062 0.88574 0.0
H443 H 0.8339 0.62921 0.93755 0.0
S444 S 0.02539 0.61959 0.87197 0.0
N445 N 0.97252 0.62244 0.85087 0.0
N446 N 1.00464 0.62069 0.90716 0.0
C447 C 0.95223 0.62339 0.90292 0.0
C448 C 0.93478 0.62424 0.87234 0.0
C449 C 0.81501 0.13086 0.90632 0.0
C450 C 0.8592 0.13054 0.9252 0.0
C451 C 0.81986 0.13296 0.87499 0.0
C452 C 0.86916 0.13469 0.86108 0.0
H453 H 0.77619 0.12811 0.91568 0.0
H454 H 0.78461 0.13156 0.86158 0.0
S455 S 0.99687 0.1398 0.90059 0.0
N456 N 0.95363 0.13596 0.92794 0.0
N457 N 0.96294 0.13996 0.86898 0.0
C458 C 0.91353 0.13697 0.87981 0.0
C459 C 0.90851 0.13489 0.91187 0.0
C460 C 0.10485 0.89168 0.668 0.0
C461 C 0.15789 0.89538 0.67542 0.0
C462 C 0.08853 0.8898 0.63797 0.0
C463 C 0.12455 0.89143 0.61402 0.0
H464 H 0.07581 0.88866 0.68552 0.0
H465 H 0.04755 0.88549 0.63367 0.0
S466 S 0.26689 0.90616 0.62105 0.0
N467 N 0.24565 0.90458 0.65612 0.0
N468 N 0.21492 0.90084 0.59971 0.0
C469 C 0.17712 0.89765 0.621 0.0
C470 C 0.19378 0.89969 0.65167 0.0
C471 C 0.12656 0.43127 0.62888 0.0
C472 C 0.14739 0.40596 0.61342 0.0
C473 C 0.11468 0.42954 0.65948 0.0
C474 C 0.12415 0.4026 0.67618 0.0
H475 H 0.1196 0.45279 0.61723 0.0
H476 H 0.09917 0.44993 0.67025 0.0
S477 S 0.17758 0.32956 0.646 0.0
N478 N 0.17585 0.35278 0.61652 0.0
N479 N 0.15473 0.34964 0.67473 0.0
C480 C 0.14452 0.37687 0.66095 0.0
C481 C 0.15569 0.37849 0.62937 0.0
C482 C 0.93777 0.12708 0.37214 0.0
C483 C 0.88412 0.12584 0.36541 0.0
C484 C 0.95541 0.12744 0.40203 0.0
C485 C 0.9202 0.12641 0.42644 0.0
H486 H 0.96632 0.12963 0.3543 0.0
H487 H 0.99694 0.13003 0.40594 0.0
S488 S 0.77626 0.11736 0.42081 0.0
N489 N 0.79634 0.11938 0.38553 0.0
N490 N 0.82946 0.12 0.44164 0.0
C491 C 0.86677 0.12249 0.41998 0.0
C492 C 0.84877 0.12226 0.3895 0.0
C493 C 0.80852 0.62861 0.37401 0.0
C494 C 0.85842 0.63035 0.36082 0.0
C495 C 0.80218 0.62807 0.40532 0.0
C496 C 0.84539 0.62933 0.4249 0.0
H497 H 0.77403 0.62606 0.36012 0.0
H498 H 0.76302 0.62523 0.41417 0.0
S499 S 0.98387 0.63919 0.40206 0.0
N500 N 0.95154 0.63728 0.36995 0.0
N501 N 0.93942 0.63616 0.42885 0.0
C502 C 0.89517 0.63366 0.41215 0.0
C503 C 0.90172 0.63418 0.38012 0.0
C504 C 0.59244 0.38233 0.6421 0.0
C505 C 0.62815 0.38314 0.61793 0.0
C506 C 0.60948 0.38327 0.67206 0.0
C507 C 0.66297 0.38499 0.6791 0.0
H508 H 0.55104 0.37941 0.63798 0.0
H509 H 0.58061 0.38086 0.68975 0.0
S510 S 0.7717 0.3936 0.6243 0.0
N511 N 0.719 0.39011 0.60319 0.0
N512 N 0.75099 0.3919 0.65947 0.0
C513 C 0.69874 0.38845 0.65522 0.0
C514 C 0.68136 0.38753 0.62466 0.0
C515 C 0.60049 0.85838 0.66382 0.0
C516 C 0.63797 0.86167 0.68679 0.0
C517 C 0.61448 0.86115 0.63331 0.0
C518 C 0.66648 0.86714 0.62475 0.0
H519 H 0.55955 0.85568 0.66943 0.0
H520 H 0.58387 0.8603 0.6165 0.0
S521 S 0.78066 0.87156 0.67628 0.0
N522 N 0.72999 0.86701 0.69885 0.0
N523 N 0.75664 0.87164 0.64179 0.0
C524 C 0.70487 0.86776 0.64751 0.0
C525 C 0.69053 0.86518 0.67845 0.0
C526 C 0.34144 0.62487 0.39423 0.0
C527 C 0.3776 0.62369 0.37032 0.0
C528 C 0.35793 0.62494 0.42431 0.0
C529 C 0.41132 0.62395 0.43174 0.0
H530 H 0.30003 0.62729 0.38977 0.0
H531 H 0.32861 0.62758 0.44172 0.0
S532 S 0.52138 0.61498 0.37783 0.0
N533 N 0.46895 0.61728 0.35632 0.0
N534 N 0.49996 0.61738 0.41282 0.0
C535 C 0.44766 0.6201 0.40817 0.0
C536 C 0.43081 0.61995 0.37748 0.0
C537 C 0.35216 0.12852 0.4047 0.0
C538 C 0.38836 0.12937 0.4286 0.0
C539 C 0.36856 0.12906 0.37457 0.0
C540 C 0.42191 0.13033 0.36707 0.0
H541 H 0.31079 0.12598 0.40919 0.0
H542 H 0.33928 0.12666 0.35713 0.0
S543 S 0.53201 0.13843 0.42094 0.0
N544 N 0.47968 0.13564 0.44252 0.0
N545 N 0.51049 0.13662 0.38595 0.0
C546 C 0.45825 0.1337 0.39066 0.0
C547 C 0.44151 0.13327 0.42139 0.0
C548 C 0.60461 0.83716 0.17045 0.0
C549 C 0.64208 0.85627 0.1837 0.0
C550 C 0.59208 0.83984 0.13996 0.0
C551 C 0.61758 0.86124 0.12121 0.0
H552 H 0.58577 0.81935 0.18363 0.0
H553 H 0.56379 0.82389 0.13084 0.0
S554 S 0.71707 0.91783 0.1457 0.0
N555 N 0.7027 0.8985 0.17667 0.0
N556 N 0.68034 0.90311 0.11874 0.0
C557 C 0.65404 0.88127 0.13446 0.0
C558 C 0.66598 0.87891 0.16589 0.0
C559 C 0.61187 0.37206 0.12512 0.0
C560 C 0.66559 0.37166 0.11858 0.0
C561 C 0.59398 0.37134 0.15494 0.0
C562 C 0.6291 0.37005 0.17936 0.0
H563 H 0.58346 0.37496 0.10726 0.0
H564 H 0.55234 0.37348 0.15883 0.0
S565 S 0.77329 0.36213 0.17377 0.0
N566 N 0.75341 0.36518 0.13854 0.0
N567 N 0.71988 0.36373 0.19459 0.0
C568 C 0.68268 0.36668 0.17294 0.0
C569 C 0.70088 0.36756 0.14255 0.0
C570 C 0.31443 0.12887 0.88883 0.0
C571 C 0.35775 0.12863 0.86924 0.0
C572 C 0.32069 0.12748 0.92012 0.0
C573 C 0.37061 0.12592 0.93327 0.0
H574 H 0.2752 0.13151 0.88003 0.0
H575 H 0.28607 0.12926 0.93405 0.0
S576 S 0.49649 0.11956 0.89187 0.0
N577 N 0.45203 0.12291 0.86514 0.0
N578 N 0.46399 0.12023 0.924 0.0
C579 C 0.41411 0.12313 0.91389 0.0
C580 C 0.40765 0.1245 0.88189 0.0
C581 C 0.36242 0.62779 0.87691 0.0
C582 C 0.41589 0.62959 0.86978 0.0
C583 C 0.3454 0.62706 0.90689 0.0
C584 C 0.38107 0.62822 0.931 0.0
H585 H 0.33352 0.62515 0.8593 0.0
H586 H 0.30402 0.62407 0.91108 0.0
S587 S 0.52459 0.63881 0.9244 0.0
N588 N 0.50389 0.63683 0.88926 0.0
N589 N 0.47189 0.63546 0.94559 0.0
C590 C 0.43425 0.63272 0.92419 0.0
C591 C 0.45164 0.63337 0.89359 0.0
C592 C 0.97245 0.25622 0.26943 0.0
C593 C 0.99618 0.22707 0.27048 0.0
C594 C 1.0024 0.28315 0.26838 0.0
C595 C 0.05747 0.2822 0.26834 0.0
H596 H 0.93028 0.25838 0.26932 0.0
H597 H 0.98189 0.30492 0.26758 0.0
S598 S 0.13923 0.21172 0.27121 0.0
N599 N 0.07858 0.19891 0.27165 0.0
N600 N 0.13458 0.24952 0.26967 0.0
C601 C 0.08184 0.25323 0.26944 0.0
C602 C 0.05131 0.22572 0.27052 0.0
C603 C 0.23231 0.00833 0.22953 0.0
C604 C 0.22669 0.98618 0.25235 0.0
C605 C 0.2687 0.03223 0.23217 0.0
C606 C 0.30199 0.03436 0.2573 0.0
H607 H 0.20789 0.00746 0.20963 0.0
H608 H 0.27106 0.04908 0.21424 0.0
S609 S 0.30425 0.98161 0.32287 0.0
N610 N 0.25793 0.96773 0.30089 0.0
N611 N 0.32749 0.01214 0.30529 0.0
C612 C 0.29757 0.01206 0.28003 0.0
C613 C 0.25956 0.98814 0.27772 0.0
C614 C 1.01311 0.97669 1.02148 0.0
C615 C 0.06809 0.97818 1.01988 0.0
C616 C 0.98207 1.00327 1.02087 0.0
C617 C 1.0045 0.03265 1.01866 0.0
H618 H 0.9935 0.95473 0.02323 0.0
H619 H 0.94005 1.00065 1.02224 0.0
S620 S 0.14672 0.04947 1.01357 0.0
N621 N 0.14369 0.01166 1.01582 0.0
N622 N 0.08562 0.06164 1.01468 0.0
C623 C 0.05953 0.03457 1.01701 0.0
C624 C 0.09119 0.00739 1.01763 0.0
C625 C 0.25728 0.22758 0.03119 0.0
C626 C 0.31148 0.22979 0.02581 0.0
C627 C 0.22462 0.25351 0.03013 0.0
C628 C 0.24472 0.28286 0.0238 0.0
H629 H 0.23961 0.20557 0.0362 0.0
H630 H 0.18329 0.25047 0.03446 0.0
S631 S 0.38394 0.30131 1.00783 0.0
N632 N 0.38368 0.26388 1.01374 0.0
N633 N 0.3227 0.31255 1.01181 0.0
C634 C 0.29891 0.28544 1.01834 0.0
C635 C 0.33213 0.25898 1.01932 0.0
C636 C 0.04103 0.72948 0.76913 0.0
C637 C 0.98599 0.73121 0.7689 0.0
C638 C 0.07211 0.75598 0.76785 0.0
C639 C 0.04959 0.78544 0.7663 0.0
H640 H 0.06058 0.70743 0.77037 0.0
H641 H 0.11418 0.75327 0.76825 0.0
S642 S 0.9072 0.80279 0.76449 0.0
N643 N 0.91029 0.76498 0.76662 0.0
N644 N 0.96837 0.81471 0.76421 0.0
C645 C 0.99452 0.78755 0.76591 0.0
C646 C 0.96287 0.76051 0.76722 0.0
C647 C 0.79003 0.9796 0.77653 0.0
C648 C 0.73547 0.98151 0.7725 0.0
C649 C 0.82194 0.0057 0.7748 0.0
C650 C 0.80082 0.03491 0.76878 0.0
H651 H 0.80858 0.9577 0.7811 0.0
H652 H 0.86362 1.00282 0.77803 0.0
S653 S 0.66013 0.05272 0.75687 0.0
N654 N 0.66163 0.01525 0.76255 0.0
N655 N 0.72138 0.06428 0.75918 0.0
C656 C 0.74623 0.03725 0.76481 0.0
C657 C 0.71366 0.01061 0.76671 0.0
C658 C 0.75224 0.76474 1.01589 0.0
C659 C 0.7201 0.7672 0.04158 0.0
C660 C 0.78987 0.74126 1.01339 0.0
C661 C 0.79561 0.71901 0.03612 0.0
H662 H 0.74911 0.78146 0.99789 0.0
H663 H 0.81382 0.74013 0.99329 0.0
S664 S 0.72116 0.71504 0.10772 0.0
N665 N 0.69718 0.74549 0.09027 0.0
N666 N 0.76638 0.70089 0.08507 0.0
C667 C 0.76345 0.72106 0.06172 0.0
C668 C 0.72611 0.74528 0.06459 0.0
C669 C 0.24699 0.52897 0.77766 0.0
C670 C 0.30179 0.52708 0.7747 0.0
C671 C 0.21534 0.5027 0.77612 0.0
C672 C 0.23705 0.47338 0.77151 0.0
H673 H 0.22813 0.55095 0.78126 0.0
H674 H 0.17349 0.50548 0.77865 0.0
S675 S 0.37846 0.45577 0.76191 0.0
N676 N 0.37631 0.49334 0.76667 0.0
N677 N 0.31724 0.44409 0.76371 0.0
C678 C 0.29186 0.47114 0.76841 0.0
C679 C 0.32407 0.49791 0.77003 0.0
C680 C 0.96699 0.50561 0.52012 0.0
C681 C 0.98789 0.53529 0.5169 0.0
C682 C 0.99936 0.4796 0.52094 0.0
C683 C 0.05412 0.48206 0.51857 0.0
H684 H 0.92519 0.50234 0.52217 0.0
H685 H 0.98102 0.45735 0.52352 0.0
S686 S 0.12888 0.55448 0.50938 0.0
N687 N 0.06726 0.56559 0.51103 0.0
N688 N 0.12784 0.51671 0.5126 0.0
C689 C 0.07566 0.51158 0.51522 0.0
C690 C 0.04266 0.53814 0.51438 0.0
C691 C 0.24312 0.72907 0.52204 0.0
C692 C 0.2979 0.73022 0.52513 0.0
C693 C 0.21251 0.75584 0.52269 0.0
C694 C 0.23532 0.78495 0.52649 0.0
H695 H 0.22347 0.70729 0.5189 0.0
H696 H 0.17064 0.75363 0.51993 0.0
S697 S 0.377 0.80062 0.53682 0.0
N698 N 0.37355 0.76299 0.53292 0.0
N699 N 0.31631 0.81321 0.53423 0.0
C700 C 0.29007 0.78644 0.52994 0.0
C701 C 0.32124 0.75915 0.52923 0.0
C702 C 0.74823 0.52644 0.26309 0.0
C703 C 0.8022 0.52493 0.26937 0.0
C704 C 0.71639 0.50025 0.26453 0.0
C705 C 0.73714 0.47132 0.27214 0.0
H706 H 0.73012 0.54809 0.25704 0.0
H707 H 0.67523 0.50272 0.25941 0.0
S708 S 0.876 0.45479 0.29102 0.0
N709 N 0.87484 0.49198 0.2838 0.0
N710 N 0.81538 0.44283 0.28645 0.0
C711 C 0.79108 0.46946 0.27858 0.0
C712 C 0.82345 0.49619 0.27723 0.0
C713 C 0.79408 0.28039 0.52547 0.0
C714 C 0.73933 0.27798 0.52305 0.0
C715 C 0.82649 0.25442 0.52386 0.0
C716 C 0.80562 0.22486 0.51975 0.0
H717 H 0.81235 0.30256 0.52876 0.0
H718 H 0.86828 0.25762 0.52606 0.0
S719 S 0.66475 0.20592 0.51119 0.0
N720 N 0.66571 0.24354 0.51575 0.0
N721 N 0.72637 0.19478 0.51266 0.0
C722 C 0.75088 0.22208 0.51708 0.0
C723 C 0.71785 0.24858 0.51875 0.0
C724 C 0.47308 0.25582 0.7736 0.0
C725 C 0.49596 0.22648 0.77552 0.0
C726 C 0.50378 0.28246 0.77263 0.0
C727 C 0.5588 0.28103 0.77355 0.0
H728 H 0.431 0.25835 0.77271 0.0
H729 H 0.4839 0.3044 0.77112 0.0
S730 S 0.63849 0.20988 0.77897 0.0
N731 N 0.57751 0.19762 0.77857 0.0
N732 N 0.63493 0.24768 0.77675 0.0
C733 C 0.58233 0.25186 0.77555 0.0
C734 C 0.55103 0.22465 0.77654 0.0
C735 C 0.4732 0.99963 0.52931 0.0
C736 C 0.49753 0.02842 0.5263 0.0
C737 C 0.50257 0.97246 0.53117 0.0
C738 C 0.55762 0.97281 0.53011 0.0
H739 H 0.43101 0.99796 0.53031 0.0
H740 H 0.48166 0.95097 0.53344 0.0
S741 S 0.64076 0.04214 0.52195 0.0
N742 N 0.58042 0.05557 0.52207 0.0
N743 N 0.63535 0.00454 0.52558 0.0
C744 C 0.58257 1.00143 0.5271 0.0
C745 C 0.55264 0.02917 0.52518 0.0
C746 C 0.50433 0.77844 0.27538 0.0
C747 C 0.55903 0.77597 0.27838 0.0
C748 C 0.47203 0.75243 0.27591 0.0
C749 C 0.49296 0.72275 0.27945 0.0
H750 H 0.48602 0.80071 0.27248 0.0
H751 H 0.43031 0.7557 0.27334 0.0
S752 S 0.63373 0.70354 0.28889 0.0
N753 N 0.63262 0.74129 0.28544 0.0
N754 N 0.57224 0.69246 0.2865 0.0
C755 C 0.54764 0.7199 0.28266 0.0
C756 C 0.58054 0.74644 0.28211 0.0
C757 C 0.50909 0.47385 0.03099 0.0
C758 C 0.56383 0.47594 0.02786 0.0
C759 C 0.47695 0.49997 0.02979 0.0
C760 C 0.49801 0.52946 0.0254 0.0
H761 H 0.49055 0.45176 0.03439 0.0
H762 H 0.43519 0.49694 0.03239 0.0
S763 S 0.63896 0.54771 1.01548 0.0
N764 N 0.63764 0.51006 1.01992 0.0
N765 N 0.57755 0.55916 1.01764 0.0
C766 C 0.55277 0.53196 1.02223 0.0
C767 C 0.58554 0.50526 0.02347 0.0
C768 C 0.14555 0.36216 0.41756 0.0
C769 C 0.13579 0.39324 0.42403 0.0
C770 C 0.14603 0.35147 0.38781 0.0
C771 C 0.13663 0.37138 0.36333 0.0
H772 H 0.15527 0.3462 0.43545 0.0
H773 H 0.15579 0.32755 0.38403 0.0
S774 S 0.10091 0.45391 0.36859 0.0
N775 N 0.1105 0.44312 0.40381 0.0
N776 N 0.11149 0.42301 0.34795 0.0
C777 C 0.12336 0.40208 0.36965 0.0
C778 C 0.12295 0.41299 0.39996 0.0
C779 C 0.1507 0.9079 0.38891 0.0
C780 C 0.15183 0.88718 0.36456 0.0
C781 C 0.14984 0.89755 0.41877 0.0
C782 C 0.14991 0.86601 0.42559 0.0
H783 H 0.14897 0.93245 0.38499 0.0
H784 H 0.14717 0.91449 0.43656 0.0
S785 S 0.15894 0.80219 0.37026 0.0
N786 N 0.15753 0.83359 0.3494 0.0
N787 N 0.15606 0.81405 0.40551 0.0
C788 C 0.15387 0.845 0.40153 0.0
C789 C 0.15483 0.85559 0.37104 0.0
C790 C 0.15154 0.89889 0.86911 0.0
C791 C 0.14315 0.86773 0.86245 0.0
C792 C 0.15346 0.90925 0.89894 0.0
C793 C 0.14691 0.88893 0.92339 0.0
H794 H 0.15873 0.91531 0.85123 0.0
H795 H 0.16177 0.93332 0.90277 0.0
S796 S 0.11696 0.80569 0.91799 0.0
N797 N 0.12312 0.81708 0.8827 0.0
N798 N 0.12679 0.83658 0.93873 0.0
C799 C 0.13549 0.85801 0.91702 0.0
C800 C 0.13365 0.84741 0.88658 0.0
C801 C 0.15187 0.35434 0.8722 0.0
C802 C 0.15954 0.38558 0.86557 0.0
C803 C 0.15095 0.34386 0.90205 0.0
C804 C 0.15775 0.36418 0.92644 0.0
H805 H 0.14384 0.33809 0.85435 0.0
H806 H 0.14265 0.31979 0.90597 0.0
S807 S 0.18826 0.44734 0.92078 0.0
N808 N 0.18076 0.43609 0.88557 0.0
N809 N 0.17894 0.41639 0.94161 0.0
C810 C 0.16928 0.39507 0.91999 0.0
C811 C 0.17018 0.40576 0.88958 0.0
C812 C 0.89023 0.66175 0.65012 0.0
C813 C 0.8966 0.64186 0.67495 0.0
C814 C 0.89103 0.65072 0.62047 0.0
C815 C 0.89809 0.6193 0.61439 0.0
H816 H 0.88289 0.68601 0.65352 0.0
H817 H 0.8839 0.66681 0.6023 0.0
S818 S 0.92347 0.55811 0.67102 0.0
N819 N 0.91522 0.58957 0.69119 0.0
N820 N 0.91686 0.56883 0.63555 0.0
C821 C 0.90747 0.59939 0.63888 0.0
C822 C 0.90671 0.61065 0.66911 0.0
C823 C 0.90884 0.1012 0.65288 0.0
C824 C 0.90354 0.12137 0.67752 0.0
C825 C 0.90831 0.112 0.62315 0.0
C826 C 0.90264 0.14346 0.61675 0.0
H827 H 0.91485 0.07683 0.65648 0.0
H828 H 0.91423 0.0956 0.60513 0.0
S829 S 0.88141 0.20555 0.67289 0.0
N830 N 0.88812 0.17409 0.69334 0.0
N831 N 0.88702 0.19445 0.6375 0.0
C832 C 0.89474 0.16375 0.64108 0.0
C833 C 0.89518 0.15271 0.67143 0.0
C834 C 0.90538 0.11146 0.16894 0.0
C835 C 0.90454 0.14315 0.17499 0.0
C836 C 0.90663 0.10041 0.13932 0.0
C837 C 0.90723 0.12055 0.11443 0.0
H838 H 0.90325 0.09494 0.18717 0.0
H839 H 0.9056 0.07577 0.13601 0.0
S840 S 0.91149 0.20572 0.118 0.0
N841 N 0.90899 0.19466 0.15355 0.0
N842 N 0.91116 0.17382 0.09796 0.0
C843 C 0.90917 0.1523 0.12015 0.0
C844 C 0.90783 0.1636 0.15037 0.0
C845 C 0.90787 0.60573 0.12409 0.0
C846 C 0.9 0.63705 0.11788 0.0
C847 C 0.90826 0.59474 0.15378 0.0
C848 C 0.90053 0.61458 0.17849 0.0
H849 H 0.91581 0.58971 0.10599 0.0
H850 H 0.91614 0.57055 0.15731 0.0
S851 S 0.87116 0.69803 0.17399 0.0
N852 N 0.87917 0.68734 0.13863 0.0
N853 N 0.8799 0.66669 0.19438 0.0
C854 C 0.88977 0.64569 0.17247 0.0
C855 C 0.88954 0.65691 0.1422 0.0
C856 C 0.64545 0.35975 0.92291 0.0
C857 C 0.64196 0.39121 0.92971 0.0
C858 C 0.64497 0.34943 0.89306 0.0
C859 C 0.64083 0.37013 0.86874 0.0
H860 H 0.65081 0.34295 0.94067 0.0
H861 H 0.64971 0.32504 0.88909 0.0
S862 S 0.62304 0.45459 0.87458 0.0
N863 N 0.62854 0.4428 0.90978 0.0
N864 N 0.62778 0.42337 0.85369 0.0
C865 C 0.63394 0.40149 0.87527 0.0
C866 C 0.63451 0.41203 0.90573 0.0
C867 C 0.65196 0.90254 0.92518 0.0
C868 C 0.66317 0.87145 0.93086 0.0
C869 C 0.64881 0.91381 0.89563 0.0
C870 C 0.65682 0.89447 0.87058 0.0
H871 H 0.643 0.91799 0.94358 0.0
H872 H 0.63798 0.93767 0.8925 0.0
S873 S 0.69566 0.81229 0.87353 0.0
N874 N 0.68847 0.82229 0.90914 0.0
N875 N 0.68246 0.84345 0.85371 0.0
C876 C 0.67155 0.86381 0.87604 0.0
C877 C 0.67473 0.85233 0.90613 0.0
C878 C 0.64365 0.85404 0.42747 0.0
C879 C 0.64175 0.88558 0.43411 0.0
C880 C 0.64663 0.84364 0.39767 0.0
C881 C 0.64769 0.86431 0.3732 0.0
H882 H 0.64484 0.83718 0.44542 0.0
H883 H 0.64958 0.81911 0.39393 0.0
S884 S 0.63712 0.94921 0.37822 0.0
N885 N 0.63626 0.93742 0.41356 0.0
N886 N 0.64201 0.9178 0.35762 0.0
C887 C 0.64295 0.89586 0.37942 0.0
C888 C 0.63996 0.9065 0.40983 0.0
C889 C 0.6434 0.34579 0.40441 0.0
C890 C 0.64609 0.366 0.42912 0.0
C891 C 0.64362 0.35673 0.37474 0.0
C892 C 0.64639 0.38836 0.36852 0.0
H893 H 0.63951 0.32127 0.4079 0.0
H894 H 0.6396 0.34026 0.35662 0.0
S895 S 0.66075 0.45076 0.42494 0.0
N896 N 0.65644 0.41906 0.44523 0.0
N897 N 0.65695 0.43965 0.38949 0.0
C898 C 0.65195 0.40875 0.39294 0.0
C899 C 0.65181 0.39758 0.42321 0.0
C900 C 0.39626 0.60793 0.17512 0.0
C901 C 0.39895 0.63967 0.18073 0.0
C902 C 0.396 0.59646 0.14567 0.0
C903 C 0.39853 0.61622 0.12054 0.0
H904 H 0.39248 0.59177 0.19357 0.0
H905 H 0.39229 0.57187 0.14267 0.0
S906 S 0.41247 0.70108 0.12301 0.0
N907 N 0.40894 0.6906 0.15869 0.0
N908 N 0.40832 0.66901 0.10337 0.0
C909 C 0.40396 0.64792 0.12583 0.0
C910 C 0.40418 0.65964 0.15588 0.0
C911 C 0.41108 0.14893 0.17008 0.0
C912 C 0.40875 0.1173 0.17621 0.0
C913 C 0.41098 0.15992 0.1404 0.0
C914 C 0.40818 0.13975 0.11563 0.0
H915 H 0.415 0.16533 0.18827 0.0
H916 H 0.4145 0.18447 0.13694 0.0
S917 S 0.39484 0.05494 0.1197 0.0
N918 N 0.39877 0.06601 0.15517 0.0
N919 N 0.39853 0.08669 0.09945 0.0
C920 C 0.40298 0.10815 0.1215 0.0
C921 C 0.40334 0.09693 0.15175 0.0
C922 C 0.40292 0.10911 0.67389 0.0
C923 C 0.40754 0.14071 0.67975 0.0
C924 C 0.40239 0.09789 0.64431 0.0
C925 C 0.4066 0.11778 0.61933 0.0
H926 H 0.39754 0.09295 0.6922 0.0
H927 H 0.39699 0.07344 0.6411 0.0
S928 S 0.42652 0.20217 0.62259 0.0
N929 N 0.42161 0.19151 0.65816 0.0
N930 N 0.42048 0.1704 0.60266 0.0
C931 C 0.41425 0.14925 0.62492 0.0
C932 C 0.41473 0.1607 0.65507 0.0
C933 C 0.39287 0.59814 0.65561 0.0
C934 C 0.39083 0.61777 0.6808 0.0
C935 C 0.39137 0.60976 0.6262 0.0
C936 C 0.3879 0.64152 0.62072 0.0
H937 H 0.39723 0.57356 0.6585 0.0
H938 H 0.39493 0.59373 0.60766 0.0
S939 S 0.3749 0.70255 0.67871 0.0
N940 N 0.3804 0.67041 0.69823 0.0
N941 N 0.37747 0.69228 0.64298 0.0
C942 C 0.383 0.66132 0.64566 0.0
C943 C 0.38446 0.64946 0.67567 0.0
C944 C 0.38312 0.32838 0.27706 0.0
C945 C 0.34484 0.3514 0.274 0.0
C946 C 0.43643 0.33564 0.27817 0.0
C947 C 0.45404 0.36626 0.27624 0.0
H948 H 0.37198 0.30443 0.27856 0.0
H949 H 0.46404 0.31689 0.28043 0.0
S950 S 0.36996 0.43538 0.26831 0.0
N951 N 0.32851 0.4064 0.26924 0.0
N952 N 0.42864 0.41988 0.27132 0.0
C953 C 0.41628 0.38959 0.27326 0.0
C954 C 0.36181 0.38221 0.27214 0.0
C955 C 0.87373 0.90095 0.2763 0.0
C956 C 0.8488 0.87208 0.27621 0.0
C957 C 0.92837 0.90352 0.27547 0.0
C958 C 0.96061 0.87733 0.27458 0.0
H959 H 0.85091 0.92192 0.27702 0.0
H960 H 0.94538 0.92629 0.27562 0.0
S961 S 0.91517 0.79619 0.27344 0.0
N962 N 0.8609 0.81667 0.27481 0.0
N963 N 0.9633 0.82137 0.27329 0.0
C964 C 0.93625 0.84826 0.27442 0.0
C965 C 0.88053 0.84566 0.27522 0.0
C966 C 0.39654 0.92723 0.0287 0.0
C967 C 0.35734 0.90559 1.0224 0.0
C968 C 0.44959 0.91915 0.02815 0.0
C969 C 0.46606 0.88899 1.02143 0.0
H970 H 0.38633 0.95073 0.03419 0.0
H971 H 0.47788 0.93684 0.03333 0.0
S972 S 0.37931 0.82344 1.00296 0.0
N973 N 0.33891 0.85244 1.00888 0.0
N974 N 0.4386 0.83736 1.00801 0.0
C975 C 0.42739 0.86706 1.01493 0.0
C976 C 0.37317 0.87532 1.01535 0.0
C977 C 0.92895 0.37254 1.01894 0.0
C978 C 0.94584 0.34454 0.03175 0.0
C979 C 0.87573 0.38046 1.01771 0.0
C980 C 0.83709 0.36051 0.02881 0.0
H981 H 0.95709 0.38875 1.01006 0.0
H982 H 0.8648 0.40224 1.00769 0.0
S983 S 0.8603 0.28452 0.06482 0.0
N984 N 0.91925 0.29697 0.05603 0.0
N985 N 0.81954 0.31158 0.05346 0.0
C986 C 0.85337 0.3324 0.04162 0.0
C987 C 0.90759 0.3245 0.04317 0.0
C988 C 0.67057 0.65435 0.76675 0.0
C989 C 0.70288 0.62825 0.76867 0.0
C990 C 0.61593 0.65176 0.76679 0.0
C991 C 0.59105 0.62296 0.76892 0.0
H992 H 0.68752 0.67708 0.76508 0.0
H993 H 0.59308 0.67268 0.76526 0.0
S994 S 0.65762 0.54731 0.77477 0.0
N995 N 0.70573 0.57244 0.77292 0.0
N996 N 0.60326 0.56769 0.7731 0.0
C997 C 0.62284 0.59662 0.77092 0.0
C998 C 0.67859 0.59923 0.77076 0.0
C999 C 0.12079 0.15346 0.76791 0.0
C1000 C 0.09559 0.12473 0.76616 0.0
C1001 C 0.17539 0.15589 0.76706 0.0
C1002 C 0.20735 0.12973 0.76433 0.0
H1003 H 0.09825 0.1744 0.77028 0.0
H1004 H 0.19259 0.17854 0.76885 0.0
S1005 S 0.16102 0.04903 0.75779 0.0
N1006 N 0.10697 0.06954 0.76079 0.0
N1007 N 0.20944 0.07399 0.75907 0.0
C1008 C 0.18269 0.10082 0.76206 0.0
C1009 C 0.12695 0.09836 0.76302 0.0
C1010 C 0.63104 0.15627 0.02925 0.0
C1011 C 0.59864 0.13026 0.02783 0.0
C1012 C 0.68563 0.15342 0.0303 0.0
C1013 C 0.71034 0.12443 0.02983 0.0
H1014 H 0.61423 0.17913 0.0294 0.0
H1015 H 0.70857 0.17428 0.03109 0.0
S1016 S 0.64348 0.04888 0.02705 0.0
N1017 N 0.59554 0.07429 0.02668 0.0
N1018 N 0.6979 0.06909 0.02852 0.0
C1019 C 0.67846 0.09817 0.02879 0.0
C1020 C 0.62277 0.10105 0.02782 0.0
C1021 C 0.17686 0.65066 0.02866 0.0
C1022 C 0.20201 0.62179 0.02769 0.0
C1023 C 0.12217 0.65327 0.02785 0.0
C1024 C 0.09008 0.62714 0.02618 0.0
H1025 H 0.19953 0.67159 0.03 0.0
H1026 H 0.105 0.67602 0.0287 0.0
S1027 S 0.1361 0.54606 1.02268 0.0
N1028 N 0.19025 0.56647 0.02466 0.0
N1029 N 0.08782 0.57124 0.02322 0.0
C1030 C 0.11468 0.59808 0.02513 0.0
C1031 C 0.17044 0.59544 0.02586 0.0
C1032 C 0.42201 0.90378 0.78845 0.0
C1033 C 0.44593 0.89804 0.76047 0.0
C1034 C 0.36973 0.89578 0.79378 0.0
C1035 C 0.33948 0.88109 0.77161 0.0
H1036 H 0.44366 0.91489 0.80632 0.0
H1037 H 0.35291 0.90118 0.81554 0.0
S1038 S 0.38403 0.85994 0.69478 0.0
N1039 N 0.43548 0.87629 0.71038 0.0
N1040 N 0.33764 0.86073 0.72063 0.0
C1041 C 0.36315 0.87468 0.74368 0.0
C1042 C 0.41618 0.88335 0.73805 0.0
C1043 C 0.84984 0.4238 0.78239 0.0
C1044 C 0.83297 0.39308 0.78004 0.0
C1045 C 0.90305 0.43145 0.78211 0.0
C1046 C 0.94194 0.40873 0.77953 0.0
H1047 H 0.82172 0.44233 0.78426 0.0
H1048 H 0.91362 0.45547 0.7838 0.0
S1049 S 0.91884 0.32458 0.77342 0.0
N1050 N 0.85974 0.33966 0.77551 0.0
N1051 N 0.95962 0.35386 0.77504 0.0
C1052 C 0.92569 0.3778 0.77745 0.0
C1053 C 0.87136 0.37003 0.77769 0.0
C1054 C 0.37083 0.40508 0.5131 0.0
C1055 C 0.3385 0.38011 0.52056 0.0
C1056 C 0.42537 0.40199 0.51219 0.0
C1057 C 0.45009 0.3738 0.51877 0.0
H1058 H 0.35399 0.42729 0.50782 0.0
H1059 H 0.44825 0.42203 0.50632 0.0
S1060 S 0.38345 0.30118 0.53989 0.0
N1061 N 0.33548 0.32605 0.53483 0.0
N1062 N 0.43778 0.32035 0.53313 0.0
C1063 C 0.4183 0.34859 0.52628 0.0
C1064 C 0.36265 0.35171 0.52718 0.0
C1065 C 0.93308 0.91656 0.50165 0.0
C1066 C 0.95302 0.88844 0.51253 0.0
C1067 C 0.8794 0.92303 0.5021 0.0
C1068 C 0.84325 0.9018 0.51368 0.0
H1069 H 0.95913 0.9339 0.49269 0.0
H1070 H 0.86629 0.94505 0.49352 0.0
S1071 S 0.87474 0.82443 0.5444 0.0
N1072 N 0.93195 0.8389 0.5348 0.0
N1073 N 0.8312 0.85105 0.53583 0.0
C1074 C 0.86253 0.87347 0.52452 0.0
C1075 C 0.91727 0.86679 0.52386 0.0
C1076 C 0.6261 0.10047 0.26761 0.0
C1077 C 0.59409 0.12677 0.26781 0.0
C1078 C 0.6808 0.10286 0.26737 0.0
C1079 C 0.70599 0.13166 0.26747 0.0
H1080 H 0.60887 0.07776 0.26752 0.0
H1081 H 0.70346 0.08182 0.2672 0.0
S1082 S 0.64026 0.20778 0.26834 0.0
N1083 N 0.59191 0.18276 0.2683 0.0
N1084 N 0.69437 0.18712 0.26794 0.0
C1085 C 0.67448 0.15818 0.26778 0.0
C1086 C 0.61873 0.15577 0.26792 0.0
C1087 C 0.11612 0.64925 0.27388 0.0
C1088 C 0.09132 0.62041 0.27201 0.0
C1089 C 0.17072 0.65192 0.27348 0.0
C1090 C 0.20308 0.62588 0.27112 0.0
H1091 H 0.09325 0.67012 0.27579 0.0
H1092 H 0.1876 0.67466 0.27508 0.0
S1093 S 0.15799 0.54488 0.26543 0.0
N1094 N 0.1036 0.56518 0.2676 0.0
N1095 N 0.20603 0.57008 0.26678 0.0
C1096 C 0.17885 0.59684 0.26911 0.0
C1097 C 0.12313 0.59413 0.26958 0.0
C1098 C 0.66496 0.60245 0.53214 0.0
C1099 C 0.69648 0.62888 0.53138 0.0
C1100 C 0.61028 0.60463 0.53273 0.0
C1101 C 0.58468 0.63333 0.53239 0.0
H1102 H 0.68256 0.57979 0.53213 0.0
H1103 H 0.58798 0.58351 0.53309 0.0
S1104 S 0.64897 0.70971 0.53115 0.0
N1105 N 0.69776 0.68487 0.53091 0.0
N1106 N 0.59523 0.68884 0.53186 0.0
C1107 C 0.61566 0.65998 0.53191 0.0
C1108 C 0.67141 0.65779 0.53146 0.0
C1109 C 0.1256 0.10513 0.52629 0.0
C1110 C 0.10019 0.13389 0.52537 0.0
C1111 C 0.18026 0.10281 0.52671 0.0
C1112 C 0.21205 0.12913 0.52637 0.0
H1113 H 0.10316 0.08406 0.52658 0.0
H1114 H 0.19764 0.0801 0.52736 0.0
S1115 S 0.16523 0.21006 0.52409 0.0
N1116 N 0.11128 0.18936 0.52417 0.0
N1117 N 0.21382 0.1851 0.52505 0.0
C1118 C 0.18721 0.1581 0.52553 0.0
C1119 C 0.13144 0.16045 0.52499 0.0
loop_
_geom_bond_atom_site_label_1
_geom_bond_atom_site_label_2
_geom_bond_distance
_geom_bond_site_symmetry_2
_ccdc_geom_bond_type
Mg0 O7 2.141 . S
Mg0 O8 2.048 . S
Mg0 O9 2.048 . S
Mg0 O12 2.141 . S
C1 O2 1.313 . S
C1 O8 1.195 . S
O2 C1 1.313 . S
C3 O4 1.245 . S
C3 O12 1.289 . S
O4 C3 1.245 . S
C5 O6 1.245 . S
C5 O7 1.289 . S
O6 C5 1.245 . S
O7 Mg0 2.141 . S
O7 C5 1.289 . S
O8 Mg0 2.048 . S
O8 C1 1.195 . S
O9 Mg0 2.048 . S
O9 C10 1.195 . S
C10 O9 1.195 . S
C10 O11 1.313 . S
O11 C10 1.313 . S
O12 Mg0 2.141 . S
O12 C3 1.289 . S
Mg13 O20 2.141 . S
Mg13 O21 2.048 . S
Mg13 O22 2.048 . S
Mg13 O25 2.141 . S
C14 O15 1.313 . S
C14 O21 1.195 . S
O15 C14 1.313 . S
C16 O17 1.245 . S
C16 O25 1.289 . S
O17 C16 1.245 . S
C18 O19 1.245 . S
C18 O20 1.289 . S
O19 C18 1.245 . S
O20 Mg13 2.141 . S
O20 C18 1.289 . S
O21 Mg13 2.048 . S
O21 C14 1.195 . S
O22 Mg13 2.048 . S
O22 C23 1.196 . S
C23 O22 1.196 . S
C23 O24 1.313 1_455 S
O24 C23 1.313 1_655 S
O25 Mg13 2.141 . S
O25 C16 1.289 . S
Mg26 O33 2.141 1_554 S
Mg26 O34 2.052 . S
Mg26 O35 2.048 . S
Mg26 O38 2.137 1_554 S
C27 O28 1.313 . S
C27 O34 1.195 . S
O28 C27 1.313 . S
C29 O30 1.245 . S
C29 O38 1.289 . S
O30 C29 1.245 . S
C31 O32 1.245 . S
C31 O33 1.289 . S
O32 C31 1.245 . S
O33 Mg26 2.141 1_556 S
O33 C31 1.289 . S
O34 Mg26 2.052 . S
O34 C27 1.195 . S
O35 Mg26 2.048 . S
O35 C36 1.195 . S
C36 O35 1.195 . S
C36 O37 1.313 . S
O37 C36 1.313 . S
O38 Mg26 2.137 1_556 S
O38 C29 1.289 . S
Mg39 O46 2.141 1_554 S
Mg39 O47 2.052 . S
Mg39 O48 2.048 . S
Mg39 O51 2.137 1_554 S
C40 O41 1.313 . S
C40 O47 1.195 . S
O41 C40 1.313 . S
C42 O43 1.245 . S
C42 O51 1.289 . S
O43 C42 1.245 . S
C44 O45 1.245 . S
C44 O46 1.289 . S
O45 C44 1.245 . S
O46 Mg39 2.141 1_556 S
O46 C44 1.289 . S
O47 Mg39 2.052 . S
O47 C40 1.195 . S
O48 Mg39 2.048 . S
O48 C49 1.195 1_455 S
C49 O48 1.195 1_655 S
C49 O50 1.313 . S
O50 C49 1.313 . S
O51 Mg39 2.137 1_556 S
O51 C42 1.289 . S
Mg52 O59 2.141 . S
Mg52 O60 2.048 . S
Mg52 O61 2.048 . S
Mg52 O64 2.141 . S
C53 O54 1.313 . S
C53 O60 1.195 . S
O54 C53 1.313 . S
C55 O56 1.245 . S
C55 O64 1.289 . S
O56 C55 1.245 . S
C57 O58 1.245 . S
C57 O59 1.289 . S
O58 C57 1.245 . S
O59 Mg52 2.141 . S
O59 C57 1.289 . S
O60 Mg52 2.048 . S
O60 C53 1.195 . S
O61 Mg52 2.048 . S
O61 C62 1.195 . S
C62 O61 1.195 . S
C62 O63 1.313 . S
O63 C62 1.313 . S
O64 Mg52 2.141 . S
O64 C55 1.289 . S
Mg65 O72 2.141 . S
Mg65 O73 2.048 . S
Mg65 O74 2.048 . S
Mg65 O77 2.141 . S
C66 O67 1.313 . S
C66 O73 1.195 . S
O67 C66 1.313 . S
C68 O69 1.245 . S
C68 O77 1.289 . S
O69 C68 1.245 . S
C70 O71 1.245 . S
C70 O72 1.289 . S
O71 C70 1.245 . S
O72 Mg65 2.141 . S
O72 C70 1.289 . S
O73 Mg65 2.048 . S
O73 C66 1.195 . S
O74 Mg65 2.048 . S
O74 C75 1.195 . S
C75 O74 1.195 . S
C75 O76 1.313 . S
O76 C75 1.313 . S
O77 Mg65 2.141 . S
O77 C68 1.289 . S
Mg78 O85 2.141 . S
Mg78 O86 2.048 1_554 S
Mg78 O87 2.048 . S
Mg78 O90 2.141 . S
C79 O80 1.313 . S
C79 O86 1.195 . S
O80 C79 1.313 . S
C81 O82 1.245 . S
C81 O90 1.289 . S
O82 C81 1.245 . S
C83 O84 1.245 1_554 S
C83 O85 1.289 . S
O84 C83 1.245 1_556 S
O85 Mg78 2.141 . S
O85 C83 1.289 . S
O86 Mg78 2.048 1_556 S
O86 C79 1.195 . S
O87 Mg78 2.048 . S
O87 C88 1.190 1_554 S
C88 O87 1.190 1_556 S
C88 O89 1.313 . S
O89 C88 1.313 . S
O90 Mg78 2.141 . S
O90 C81 1.289 . S
Mg91 O98 2.141 . S
Mg91 O99 2.048 1_554 S
Mg91 O100 2.048 . S
Mg91 O103 2.141 . S
C92 O93 1.313 . S
C92 O99 1.195 . S
O93 C92 1.313 . S
C94 O95 1.245 . S
C94 O103 1.289 . S
O95 C94 1.245 . S
C96 O97 1.245 1_554 S
C96 O98 1.289 . S
O97 C96 1.245 1_556 S
O98 Mg91 2.141 . S
O98 C96 1.289 . S
O99 Mg91 2.048 1_556 S
O99 C92 1.195 . S
O100 Mg91 2.048 . S
O100 C101 1.190 1_554 S
C101 O100 1.190 1_556 S
C101 O102 1.313 . S
O102 C101 1.313 . S
O103 Mg91 2.141 . S
O103 C94 1.289 . S
Mg104 O111 2.141 . S
Mg104 O112 2.048 . S
Mg104 O113 2.048 . S
Mg104 O116 2.141 . S
C105 O106 1.313 . S
C105 O112 1.195 . S
O106 C105 1.313 . S
C107 O108 1.245 . S
C107 O116 1.289 . S
O108 C107 1.245 . S
C109 O110 1.245 . S
C109 O111 1.289 . S
O110 C109 1.245 . S
O111 Mg104 2.141 . S
O111 C109 1.289 . S
O112 Mg104 2.048 . S
O112 C105 1.195 . S
O113 Mg104 2.048 . S
O113 C114 1.195 . S
C114 O113 1.195 . S
C114 O115 1.313 . S
O115 C114 1.313 . S
O116 Mg104 2.141 . S
O116 C107 1.289 . S
Mg117 O124 2.141 . S
Mg117 O125 2.048 . S
Mg117 O126 2.048 . S
Mg117 O129 2.141 . S
C118 O119 1.313 . S
C118 O125 1.195 . S
O119 C118 1.313 . S
C120 O121 1.245 . S
C120 O129 1.289 . S
O121 C120 1.245 . S
C122 O123 1.245 . S
C122 O124 1.289 . S
O123 C122 1.245 . S
O124 Mg117 2.141 . S
O124 C122 1.289 . S
O125 Mg117 2.048 . S
O125 C118 1.195 . S
O126 Mg117 2.048 . S
O126 C127 1.198 1_455 S
C127 O126 1.198 1_655 S
C127 O128 1.312 . S
O128 C127 1.312 . S
O129 Mg117 2.141 . S
O129 C120 1.289 . S
Mg130 O137 2.141 . S
Mg130 O138 2.048 . S
Mg130 O139 2.048 . S
Mg130 O142 2.141 . S
C131 O132 1.313 . S
C131 O138 1.195 . S
O132 C131 1.313 . S
C133 O134 1.245 . S
C133 O142 1.289 . S
O134 C133 1.245 . S
C135 O136 1.245 . S
C135 O137 1.289 . S
O136 C135 1.245 . S
O137 Mg130 2.141 . S
O137 C135 1.289 . S
O138 Mg130 2.048 . S
O138 C131 1.195 . S
O139 Mg130 2.048 . S
O139 C140 1.195 . S
C140 O139 1.195 . S
C140 O141 1.313 . S
O141 C140 1.313 . S
O142 Mg130 2.141 . S
O142 C133 1.289 . S
Mg143 O150 2.141 . S
Mg143 O151 2.048 . S
Mg143 O152 2.048 . S
Mg143 O155 2.141 . S
C144 O145 1.313 . S
C144 O151 1.195 . S
O145 C144 1.313 . S
C146 O147 1.245 . S
C146 O155 1.289 . S
O147 C146 1.245 . S
C148 O149 1.245 . S
C148 O150 1.289 . S
O149 C148 1.245 . S
O150 Mg143 2.141 . S
O150 C148 1.289 . S
O151 Mg143 2.048 . S
O151 C144 1.195 . S
O152 Mg143 2.048 . S
O152 C153 1.195 1_455 S
C153 O152 1.195 1_655 S
C153 O154 1.313 . S
O154 C153 1.313 . S
O155 Mg143 2.141 . S
O155 C146 1.289 . S
Mg156 O163 2.141 . S
Mg156 O164 2.048 . S
Mg156 O165 2.048 . S
Mg156 O168 2.141 . S
C157 O158 1.313 . S
C157 O164 1.195 . S
O158 C157 1.313 . S
C159 O160 1.245 . S
C159 O168 1.289 . S
O160 C159 1.245 . S
C161 O162 1.245 . S
C161 O163 1.289 . S
O162 C161 1.245 . S
O163 Mg156 2.141 . S
O163 C161 1.289 . S
O164 Mg156 2.048 . S
O164 C157 1.195 . S
O165 Mg156 2.048 . S
O165 C166 1.195 . S
C166 O165 1.195 . S
C166 O167 1.313 . S
O167 C166 1.313 . S
O168 Mg156 2.141 . S
O168 C159 1.289 . S
Mg169 O176 2.141 . S
Mg169 O177 2.048 . S
Mg169 O178 2.048 . S
Mg169 O181 2.141 . S
C170 O171 1.313 . S
C170 O177 1.195 . S
O171 C170 1.313 . S
C172 O173 1.245 . S
C172 O181 1.289 . S
O173 C172 1.245 . S
C174 O175 1.245 . S
C174 O176 1.289 . S
O175 C174 1.245 . S
O176 Mg169 2.141 . S
O176 C174 1.289 . S
O177 Mg169 2.048 . S
O177 C170 1.195 . S
O178 Mg169 2.048 . S
O178 C179 1.195 . S
C179 O178 1.195 . S
C179 O180 1.313 . S
O180 C179 1.313 . S
O181 Mg169 2.141 . S
O181 C172 1.289 . S
Mg182 O189 2.141 . S
Mg182 O190 2.048 . S
Mg182 O191 2.048 . S
Mg182 O194 2.141 . S
C183 O184 1.313 . S
C183 O190 1.195 . S
O184 C183 1.313 . S
C185 O186 1.245 . S
C185 O194 1.289 . S
O186 C185 1.245 . S
C187 O188 1.245 . S
C187 O189 1.289 . S
O188 C187 1.245 . S
O189 Mg182 2.141 . S
O189 C187 1.289 . S
O190 Mg182 2.048 . S
O190 C183 1.195 . S
O191 Mg182 2.048 . S
O191 C192 1.195 . S
C192 O191 1.195 . S
C192 O193 1.313 . S
O193 C192 1.313 . S
O194 Mg182 2.141 . S
O194 C185 1.289 . S
Mg195 O202 2.141 . S
Mg195 O203 2.048 . S
Mg195 O204 2.048 . S
Mg195 O207 2.141 . S
C196 O197 1.313 . S
C196 O203 1.195 . S
O197 C196 1.313 . S
C198 O199 1.245 . S
C198 O207 1.289 . S
O199 C198 1.245 . S
C200 O201 1.245 . S
C200 O202 1.289 . S
O201 C200 1.245 . S
O202 Mg195 2.141 . S
O202 C200 1.289 . S
O203 Mg195 2.048 . S
O203 C196 1.195 . S
O204 Mg195 2.048 . S
O204 C205 1.195 . S
C205 O204 1.195 . S
C205 O206 1.313 . S
O206 C205 1.313 . S
O207 Mg195 2.141 . S
O207 C198 1.289 . S
Mg208 O215 2.141 . S
Mg208 O216 2.048 . S
Mg208 O217 2.048 . S
Mg208 O220 2.141 . S
C209 O210 1.313 . S
C209 O216 1.195 . S
O210 C209 1.313 . S
C211 O212 1.245 . S
C211 O220 1.289 . S
O212 C211 1.245 . S
C213 O214 1.245 . S
C213 O215 1.289 . S
O214 C213 1.245 . S
O215 Mg208 2.141 . S
O215 C213 1.289 . S
O216 Mg208 2.048 . S
O216 C209 1.195 . S
O217 Mg208 2.048 . S
O217 C218 1.195 . S
C218 O217 1.195 . S
C218 O219 1.313 . S
O219 C218 1.313 . S
O220 Mg208 2.141 . S
O220 C211 1.289 . S
Mg221 O228 2.141 . S
Mg221 O229 2.048 . S
Mg221 O230 2.048 . S
Mg221 O233 2.141 . S
C222 O223 1.313 . S
C222 O229 1.195 . S
O223 C222 1.313 . S
C224 O225 1.245 . S
C224 O233 1.289 . S
O225 C224 1.245 . S
C226 O227 1.245 . S
C226 O228 1.289 . S
O227 C226 1.245 . S
O228 Mg221 2.141 . S
O228 C226 1.289 . S
O229 Mg221 2.048 . S
O229 C222 1.195 . S
O230 Mg221 2.048 . S
O230 C231 1.195 . S
C231 O230 1.195 . S
C231 O232 1.313 . S
O232 C231 1.313 . S
O233 Mg221 2.141 . S
O233 C224 1.289 . S
Mg234 O241 2.141 . S
Mg234 O242 2.048 . S
Mg234 O243 2.048 . S
Mg234 O246 2.141 . S
C235 O236 1.313 . S
C235 O242 1.195 . S
O236 C235 1.313 . S
C237 O238 1.245 . S
C237 O246 1.289 . S
O238 C237 1.245 . S
C239 O240 1.245 . S
C239 O241 1.289 . S
O240 C239 1.245 . S
O241 Mg234 2.141 . S
O241 C239 1.289 . S
O242 Mg234 2.048 . S
O242 C235 1.195 . S
O243 Mg234 2.048 . S
O243 C244 1.195 . S
C244 O243 1.195 . S
C244 O245 1.313 . S
O245 C244 1.313 . S
O246 Mg234 2.141 . S
O246 C237 1.289 . S
Mg247 O254 2.141 . S
Mg247 O255 2.048 . S
Mg247 O256 2.048 . S
Mg247 O259 2.141 . S
C248 O249 1.313 . S
C248 O255 1.195 . S
O249 C248 1.313 . S
C250 O251 1.245 . S
C250 O259 1.289 . S
O251 C250 1.245 . S
C252 O253 1.245 . S
C252 O254 1.289 . S
O253 C252 1.245 . S
O254 Mg247 2.141 . S
O254 C252 1.289 . S
O255 Mg247 2.048 . S
O255 C248 1.195 . S
O256 Mg247 2.048 . S
O256 C257 1.195 . S
C257 O256 1.195 . S
C257 O258 1.313 . S
O258 C257 1.313 . S
O259 Mg247 2.141 . S
O259 C250 1.289 . S
Mg260 O267 2.141 . S
Mg260 O268 2.048 . S
Mg260 O269 2.048 . S
Mg260 O272 2.141 . S
C261 O262 1.313 . S
C261 O268 1.195 . S
O262 C261 1.313 . S
C263 O264 1.245 . S
C263 O272 1.289 . S
O264 C263 1.245 . S
C265 O266 1.245 . S
C265 O267 1.289 . S
O266 C265 1.245 . S
O267 Mg260 2.141 . S
O267 C265 1.289 . S
O268 Mg260 2.048 . S
O268 C261 1.195 . S
O269 Mg260 2.048 . S
O269 C270 1.195 . S
C270 O269 1.195 . S
C270 O271 1.313 . S
O271 C270 1.313 . S
O272 Mg260 2.141 . S
O272 C263 1.289 . S
Mg273 O280 2.141 . S
Mg273 O281 2.048 . S
Mg273 O282 2.048 . S
Mg273 O285 2.141 . S
C274 O275 1.313 . S
C274 O281 1.195 . S
O275 C274 1.313 . S
C276 O277 1.245 . S
C276 O285 1.289 . S
O277 C276 1.245 . S
C278 O279 1.245 . S
C278 O280 1.289 . S
O279 C278 1.245 . S
O280 Mg273 2.141 . S
O280 C278 1.289 . S
O281 Mg273 2.048 . S
O281 C274 1.195 . S
O282 Mg273 2.048 . S
O282 C283 1.195 . S
C283 O282 1.195 . S
C283 O284 1.313 . S
O284 C283 1.313 . S
O285 Mg273 2.141 . S
O285 C276 1.289 . S
Mg286 O293 2.141 . S
Mg286 O294 2.048 . S
Mg286 O295 2.048 . S
Mg286 O298 2.141 . S
C287 O288 1.313 . S
C287 O294 1.195 . S
O288 C287 1.313 . S
C289 O290 1.245 . S
C289 O298 1.289 . S
O290 C289 1.245 . S
C291 O292 1.245 . S
C291 O293 1.289 . S
O292 C291 1.245 . S
O293 Mg286 2.141 . S
O293 C291 1.289 . S
O294 Mg286 2.048 . S
O294 C287 1.195 . S
O295 Mg286 2.048 . S
O295 C296 1.195 . S
C296 O295 1.195 . S
C296 O297 1.313 . S
O297 C296 1.313 . S
O298 Mg286 2.141 . S
O298 C289 1.289 . S
Mg299 O306 2.141 . S
Mg299 O307 2.048 . S
Mg299 O308 2.048 . S
Mg299 O311 2.141 . S
C300 O301 1.313 . S
C300 O307 1.195 . S
O301 C300 1.313 . S
C302 O303 1.245 . S
C302 O311 1.289 . S
O303 C302 1.245 . S
C304 O305 1.245 . S
C304 O306 1.289 . S
O305 C304 1.245 . S
O306 Mg299 2.141 . S
O306 C304 1.289 . S
O307 Mg299 2.048 . S
O307 C300 1.195 . S
O308 Mg299 2.048 . S
O308 C309 1.195 . S
C309 O308 1.195 . S
C309 O310 1.313 . S
O310 C309 1.313 . S
O311 Mg299 2.141 . S
O311 C302 1.289 . S
Mg312 O319 2.141 . S
Mg312 O320 2.048 . S
Mg312 O321 2.048 . S
Mg312 O324 2.141 . S
C313 O314 1.313 . S
C313 O320 1.195 . S
O314 C313 1.313 . S
C315 O316 1.245 . S
C315 O324 1.289 . S
O316 C315 1.245 . S
C317 O318 1.245 . S
C317 O319 1.289 . S
O318 C317 1.245 . S
O319 Mg312 2.141 . S
O319 C317 1.289 . S
O320 Mg312 2.048 . S
O320 C313 1.195 . S
O321 Mg312 2.048 . S
O321 C322 1.195 . S
C322 O321 1.195 . S
C322 O323 1.313 . S
O323 C322 1.313 . S
O324 Mg312 2.141 . S
O324 C315 1.289 . S
Mg325 O332 2.141 . S
Mg325 O333 2.048 . S
Mg325 O334 2.048 . S
Mg325 O337 2.141 . S
C326 O327 1.313 . S
C326 O333 1.195 . S
O327 C326 1.313 . S
C328 O329 1.245 . S
C328 O337 1.289 . S
O329 C328 1.245 . S
C330 O331 1.245 . S
C330 O332 1.289 . S
O331 C330 1.245 . S
O332 Mg325 2.141 . S
O332 C330 1.289 . S
O333 Mg325 2.048 . S
O333 C326 1.195 . S
O334 Mg325 2.048 . S
O334 C335 1.195 . S
C335 O334 1.195 . S
C335 O336 1.313 . S
O336 C335 1.313 . S
O337 Mg325 2.141 . S
O337 C328 1.289 . S
Mg338 O345 2.141 1_554 S
Mg338 O346 2.052 . S
Mg338 O347 2.048 . S
Mg338 O350 2.137 1_554 S
C339 O340 1.313 . S
C339 O346 1.195 . S
O340 C339 1.313 . S
C341 O342 1.245 . S
C341 O350 1.289 . S
O342 C341 1.245 . S
C343 O344 1.245 . S
C343 O345 1.289 . S
O344 C343 1.245 . S
O345 Mg338 2.141 1_556 S
O345 C343 1.289 . S
O346 Mg338 2.052 . S
O346 C339 1.195 . S
O347 Mg338 2.048 . S
O347 C348 1.195 . S
C348 O347 1.195 . S
C348 O349 1.313 . S
O349 C348 1.313 . S
O350 Mg338 2.137 1_556 S
O350 C341 1.289 . S
Mg351 O358 2.141 1_554 S
Mg351 O359 2.052 . S
Mg351 O360 2.048 . S
Mg351 O363 2.137 1_554 S
C352 O353 1.313 . S
C352 O359 1.195 . S
O353 C352 1.313 . S
C354 O355 1.245 . S
C354 O363 1.289 . S
O355 C354 1.245 . S
C356 O357 1.245 . S
C356 O358 1.289 . S
O357 C356 1.245 . S
O358 Mg351 2.141 1_556 S
O358 C356 1.289 . S
O359 Mg351 2.052 . S
O359 C352 1.195 . S
O360 Mg351 2.048 . S
O360 C361 1.195 . S
C361 O360 1.195 . S
C361 O362 1.313 . S
O362 C361 1.313 . S
O363 Mg351 2.137 1_556 S
O363 C354 1.289 . S
Mg364 O371 2.141 . S
Mg364 O372 2.048 . S
Mg364 O373 2.048 . S
Mg364 O376 2.141 . S
C365 O366 1.313 . S
C365 O372 1.195 . S
O366 C365 1.313 . S
C367 O368 1.245 . S
C367 O376 1.289 . S
O368 C367 1.245 . S
C369 O370 1.245 . S
C369 O371 1.289 . S
O370 C369 1.245 . S
O371 Mg364 2.141 . S
O371 C369 1.289 . S
O372 Mg364 2.048 . S
O372 C365 1.195 . S
O373 Mg364 2.048 . S
O373 C374 1.195 . S
C374 O373 1.195 . S
C374 O375 1.313 . S
O375 C374 1.313 . S
O376 Mg364 2.141 . S
O376 C367 1.289 . S
Mg377 O384 2.141 . S
Mg377 O385 2.048 . S
Mg377 O386 2.048 . S
Mg377 O389 2.141 . S
C378 O379 1.313 . S
C378 O385 1.195 . S
O379 C378 1.313 . S
C380 O381 1.245 . S
C380 O389 1.289 . S
O381 C380 1.245 . S
C382 O383 1.245 . S
C382 O384 1.289 . S
O383 C382 1.245 . S
O384 Mg377 2.141 . S
O384 C382 1.289 . S
O385 Mg377 2.048 . S
O385 C378 1.195 . S
O386 Mg377 2.048 . S
O386 C387 1.195 . S
C387 O386 1.195 . S
C387 O388 1.313 . S
O388 C387 1.313 . S
O389 Mg377 2.141 . S
O389 C380 1.289 . S
Mg390 O397 2.141 . S
Mg390 O398 2.048 1_554 S
Mg390 O399 2.048 . S
Mg390 O402 2.141 . S
C391 O392 1.313 . S
C391 O398 1.195 . S
O392 C391 1.313 . S
C393 O394 1.245 . S
C393 O402 1.289 . S
O394 C393 1.245 . S
C395 O396 1.245 1_554 S
C395 O397 1.289 . S
O396 C395 1.245 1_556 S
O397 Mg390 2.141 . S
O397 C395 1.289 . S
O398 Mg390 2.048 1_556 S
O398 C391 1.195 . S
O399 Mg390 2.048 . S
O399 C400 1.190 1_554 S
C400 O399 1.190 1_556 S
C400 O401 1.313 . S
O401 C400 1.313 . S
O402 Mg390 2.141 . S
O402 C393 1.289 . S
Mg403 O410 2.141 . S
Mg403 O411 2.048 1_554 S
Mg403 O412 2.048 . S
Mg403 O415 2.141 . S
C404 O405 1.313 . S
C404 O411 1.195 . S
O405 C404 1.313 . S
C406 O407 1.245 . S
C406 O415 1.289 . S
O407 C406 1.245 . S
C408 O409 1.245 1_554 S
C408 O410 1.289 . S
O409 C408 1.245 1_556 S
O410 Mg403 2.141 . S
O410 C408 1.289 . S
O411 Mg403 2.048 1_556 S
O411 C404 1.195 . S
O412 Mg403 2.048 . S
O412 C413 1.190 1_554 S
C413 O412 1.190 1_556 S
C413 O414 1.313 . S
O414 C413 1.313 . S
O415 Mg403 2.141 . S
O415 C406 1.289 . S
C416 C417 1.369 . S
C416 C418 1.419 . S
C416 H420 0.930 . S
C417 C416 1.369 . S
C417 C426 1.429 . S
C418 C416 1.419 . S
C418 C419 1.363 . S
C418 H421 0.929 . S
C419 C418 1.363 . S
C419 C425 1.428 . S
H420 C416 0.930 . S
H421 C418 0.929 . S
S422 N423 1.613 . S
S422 N424 1.610 . S
N423 S422 1.613 . S
N423 C426 1.350 . S
N424 S422 1.610 . S
N424 C425 1.351 . S
C425 C419 1.428 . S
C425 N424 1.351 . S
C425 C426 1.434 . S
C426 C417 1.429 . S
C426 N423 1.350 . S
C426 C425 1.434 . S
C427 C428 1.369 . S
C427 C429 1.419 . S
C427 H431 0.930 . S
C428 C427 1.369 . S
C428 C437 1.429 . S
C429 C427 1.419 . S
C429 C430 1.363 . S
C429 H432 0.929 . S
C430 C429 1.363 . S
C430 C436 1.428 . S
H431 C427 0.930 . S
H432 C429 0.929 . S
S433 N434 1.613 . S
S433 N435 1.610 . S
N434 S433 1.613 . S
N434 C437 1.350 . S
N435 S433 1.610 . S
N435 C436 1.351 . S
C436 C430 1.428 . S
C436 N435 1.351 . S
C436 C437 1.434 . S
C437 C428 1.429 . S
C437 N434 1.350 . S
C437 C436 1.434 . S
C438 C439 1.369 . S
C438 C440 1.419 . S
C438 H442 0.930 . S
C439 C438 1.369 . S
C439 C448 1.429 . S
C440 C438 1.419 . S
C440 C441 1.363 . S
C440 H443 0.929 . S
C441 C440 1.363 . S
C441 C447 1.428 . S
H442 C438 0.930 . S
H443 C440 0.929 . S
S444 N445 1.613 . S
S444 N446 1.610 . S
N445 S444 1.613 . S
N445 C448 1.350 . S
N446 S444 1.610 . S
N446 C447 1.351 . S
C447 C441 1.428 . S
C447 N446 1.351 . S
C447 C448 1.434 . S
C448 C439 1.429 . S
C448 N445 1.350 . S
C448 C447 1.434 . S
C449 C450 1.369 . S
C449 C451 1.419 . S
C449 H453 0.930 . S
C450 C449 1.369 . S
C450 C459 1.429 . S
C451 C449 1.419 . S
C451 C452 1.363 . S
C451 H454 0.929 . S
C452 C451 1.363 . S
C452 C458 1.428 . S
H453 C449 0.930 . S
H454 C451 0.929 . S
S455 N456 1.613 . S
S455 N457 1.610 . S
N456 S455 1.613 . S
N456 C459 1.350 . S
N457 S455 1.610 . S
N457 C458 1.351 . S
C458 C452 1.428 . S
C458 N457 1.351 . S
C458 C459 1.434 . S
C459 C450 1.429 . S
C459 N456 1.350 . S
C459 C458 1.434 . S
C460 C461 1.369 . S
C460 C462 1.419 . S
C460 H464 0.930 . S
C461 C460 1.369 . S
C461 C470 1.429 . S
C462 C460 1.419 . S
C462 C463 1.363 . S
C462 H465 0.929 . S
C463 C462 1.363 . S
C463 C469 1.428 . S
H464 C460 0.930 . S
H465 C462 0.929 . S
S466 N467 1.613 . S
S466 N468 1.610 . S
N467 S466 1.613 . S
N467 C470 1.350 . S
N468 S466 1.610 . S
N468 C469 1.351 . S
C469 C463 1.428 . S
C469 N468 1.351 . S
C469 C470 1.434 . S
C470 C461 1.429 . S
C470 N467 1.350 . S
C470 C469 1.434 . S
C471 C472 1.369 . S
C471 C473 1.419 . S
C471 H475 0.930 . S
C472 C471 1.369 . S
C472 C481 1.429 . S
C473 C471 1.419 . S
C473 C474 1.363 . S
C473 H476 0.929 . S
C474 C473 1.363 . S
C474 C480 1.428 . S
H475 C471 0.930 . S
H476 C473 0.929 . S
S477 N478 1.613 . S
S477 N479 1.610 . S
N478 S477 1.613 . S
N478 C481 1.350 . S
N479 S477 1.610 . S
N479 C480 1.351 . S
C480 C474 1.428 . S
C480 N479 1.351 . S
C480 C481 1.434 . S
C481 C472 1.429 . S
C481 N478 1.350 . S
C481 C480 1.434 . S
C482 C483 1.369 . S
C482 C484 1.419 . S
C482 H486 0.930 . S
C483 C482 1.369 . S
C483 C492 1.429 . S
C484 C482 1.419 . S
C484 C485 1.363 . S
C484 H487 0.929 . S
C485 C484 1.363 . S
C485 C491 1.428 . S
H486 C482 0.930 . S
H487 C484 0.929 . S
S488 N489 1.613 . S
S488 N490 1.610 . S
N489 S488 1.613 . S
N489 C492 1.350 . S
N490 S488 1.610 . S
N490 C491 1.351 . S
C491 C485 1.428 . S
C491 N490 1.351 . S
C491 C492 1.434 . S
C492 C483 1.429 . S
C492 N489 1.350 . S
C492 C491 1.434 . S
C493 C494 1.369 . S
C493 C495 1.419 . S
C493 H497 0.930 . S
C494 C493 1.369 . S
C494 C503 1.429 . S
C495 C493 1.419 . S
C495 C496 1.363 . S
C495 H498 0.929 . S
C496 C495 1.363 . S
C496 C502 1.428 . S
H497 C493 0.930 . S
H498 C495 0.929 . S
S499 N500 1.613 . S
S499 N501 1.610 . S
N500 S499 1.613 . S
N500 C503 1.350 . S
N501 S499 1.610 . S
N501 C502 1.351 . S
C502 C496 1.428 . S
C502 N501 1.351 . S
C502 C503 1.434 . S
C503 C494 1.429 . S
C503 N500 1.350 . S
C503 C502 1.434 . S
C504 C505 1.369 . S
C504 C506 1.419 . S
C504 H508 0.930 . S
C505 C504 1.369 . S
C505 C514 1.429 . S
C506 C504 1.419 . S
C506 C507 1.363 . S
C506 H509 0.929 . S
C507 C506 1.363 . S
C507 C513 1.428 . S
H508 C504 0.930 . S
H509 C506 0.929 . S
S510 N511 1.613 . S
S510 N512 1.610 . S
N511 S510 1.613 . S
N511 C514 1.350 . S
N512 S510 1.610 . S
N512 C513 1.351 . S
C513 C507 1.428 . S
C513 N512 1.351 . S
C513 C514 1.434 . S
C514 C505 1.429 . S
C514 N511 1.350 . S
C514 C513 1.434 . S
C515 C516 1.369 . S
C515 C517 1.419 . S
C515 H519 0.930 . S
C516 C515 1.369 . S
C516 C525 1.429 . S
C517 C515 1.419 . S
C517 C518 1.363 . S
C517 H520 0.929 . S
C518 C517 1.363 . S
C518 C524 1.428 . S
H519 C515 0.930 . S
H520 C517 0.929 . S
S521 N522 1.613 . S
S521 N523 1.610 . S
N522 S521 1.613 . S
N522 C525 1.350 . S
N523 S521 1.610 . S
N523 C524 1.351 . S
C524 C518 1.428 . S
C524 N523 1.351 . S
C524 C525 1.434 . S
C525 C516 1.429 . S
C525 N522 1.350 . S
C525 C524 1.434 . S
C526 C527 1.369 . S
C526 C528 1.419 . S
C526 H530 0.930 . S
C527 C526 1.369 . S
C527 C536 1.429 . S
C528 C526 1.419 . S
C528 C529 1.363 . S
C528 H531 0.929 . S
C529 C528 1.363 . S
C529 C535 1.428 . S
H530 C526 0.930 . S
H531 C528 0.929 . S
S532 N533 1.613 . S
S532 N534 1.610 . S
N533 S532 1.613 . S
N533 C536 1.350 . S
N534 S532 1.610 . S
N534 C535 1.351 . S
C535 C529 1.428 . S
C535 N534 1.351 . S
C535 C536 1.434 . S
C536 C527 1.429 . S
C536 N533 1.350 . S
C536 C535 1.434 . S
C537 C538 1.369 . S
C537 C539 1.419 . S
C537 H541 0.930 . S
C538 C537 1.369 . S
C538 C547 1.429 . S
C539 C537 1.419 . S
C539 C540 1.363 . S
C539 H542 0.929 . S
C540 C539 1.363 . S
C540 C546 1.428 . S
H541 C537 0.930 . S
H542 C539 0.929 . S
S543 N544 1.613 . S
S543 N545 1.610 . S
N544 S543 1.613 . S
N544 C547 1.350 . S
N545 S543 1.610 . S
N545 C546 1.351 . S
C546 C540 1.428 . S
C546 N545 1.351 . S
C546 C547 1.434 . S
C547 C538 1.429 . S
C547 N544 1.350 . S
C547 C546 1.434 . S
C548 C549 1.369 . S
C548 C550 1.419 . S
C548 H552 0.930 . S
C549 C548 1.369 . S
C549 C558 1.429 . S
C550 C548 1.419 . S
C550 C551 1.363 . S
C550 H553 0.929 . S
C551 C550 1.363 . S
C551 C557 1.428 . S
H552 C548 0.930 . S
H553 C550 0.929 . S
S554 N555 1.613 . S
S554 N556 1.610 . S
N555 S554 1.613 . S
N555 C558 1.350 . S
N556 S554 1.610 . S
N556 C557 1.351 . S
C557 C551 1.428 . S
C557 N556 1.351 . S
C557 C558 1.434 . S
C558 C549 1.429 . S
C558 N555 1.350 . S
C558 C557 1.434 . S
C559 C560 1.369 . S
C559 C561 1.419 . S
C559 H563 0.930 . S
C560 C559 1.369 . S
C560 C569 1.429 . S
C561 C559 1.419 . S
C561 C562 1.363 . S
C561 H564 0.929 . S
C562 C561 1.363 . S
C562 C568 1.428 . S
H563 C559 0.930 . S
H564 C561 0.929 . S
S565 N566 1.613 . S
S565 N567 1.610 . S
N566 S565 1.613 . S
N566 C569 1.350 . S
N567 S565 1.610 . S
N567 C568 1.351 . S
C568 C562 1.428 . S
C568 N567 1.351 . S
C568 C569 1.434 . S
C569 C560 1.429 . S
C569 N566 1.350 . S
C569 C568 1.434 . S
C570 C571 1.369 . S
C570 C572 1.419 . S
C570 H574 0.930 . S
C571 C570 1.369 . S
C571 C580 1.429 . S
C572 C570 1.419 . S
C572 C573 1.363 . S
C572 H575 0.929 . S
C573 C572 1.363 . S
C573 C579 1.428 . S
H574 C570 0.930 . S
H575 C572 0.929 . S
S576 N577 1.613 . S
S576 N578 1.610 . S
N577 S576 1.613 . S
N577 C580 1.350 . S
N578 S576 1.610 . S
N578 C579 1.351 . S
C579 C573 1.428 . S
C579 N578 1.351 . S
C579 C580 1.434 . S
C580 C571 1.429 . S
C580 N577 1.350 . S
C580 C579 1.434 . S
C581 C582 1.369 . S
C581 C583 1.419 . S
C581 H585 0.930 . S
C582 C581 1.369 . S
C582 C591 1.429 . S
C583 C581 1.419 . S
C583 C584 1.363 . S
C583 H586 0.929 . S
C584 C583 1.363 . S
C584 C590 1.428 . S
H585 C581 0.930 . S
H586 C583 0.929 . S
S587 N588 1.613 . S
S587 N589 1.610 . S
N588 S587 1.613 . S
N588 C591 1.350 . S
N589 S587 1.610 . S
N589 C590 1.351 . S
C590 C584 1.428 . S
C590 N589 1.351 . S
C590 C591 1.434 . S
C591 C582 1.429 . S
C591 N588 1.350 . S
C591 C590 1.434 . S
C592 C593 1.369 . S
C592 C594 1.419 . S
C592 H596 0.930 . S
C593 C592 1.369 . S
C593 C602 1.429 1_655 S
C594 C592 1.419 . S
C594 C595 1.363 1_655 S
C594 H597 0.929 . S
C595 C594 1.363 1_455 S
C595 C601 1.428 . S
H596 C592 0.930 . S
H597 C594 0.929 . S
S598 N599 1.613 . S
S598 N600 1.610 . S
N599 S598 1.613 . S
N599 C602 1.350 . S
N600 S598 1.610 . S
N600 C601 1.351 . S
C601 C595 1.428 . S
C601 N600 1.351 . S
C601 C602 1.434 . S
C602 C593 1.429 1_455 S
C602 N599 1.350 . S
C602 C601 1.434 . S
C603 C604 1.369 . S
C603 C605 1.419 1_565 S
C603 H607 0.930 . S
C604 C603 1.369 . S
C604 C613 1.429 . S
C605 C603 1.419 1_545 S
C605 C606 1.363 . S
C605 H608 0.929 . S
C606 C605 1.363 . S
C606 C612 1.428 . S
H607 C603 0.930 . S
H608 C605 0.929 . S
S609 N610 1.613 . S
S609 N611 1.610 1_565 S
N610 S609 1.613 . S
N610 C613 1.350 . S
N611 S609 1.610 1_545 S
N611 C612 1.351 . S
C612 C606 1.428 . S
C612 N611 1.351 . S
C612 C613 1.434 1_545 S
C613 C604 1.429 . S
C613 N610 1.350 . S
C613 C612 1.434 1_565 S
C614 C615 1.369 1_654 S
C614 C616 1.419 1_565 S
C614 H618 0.930 . S
C615 C614 1.369 1_456 S
C615 C624 1.429 . S
C616 C614 1.419 1_545 S
C616 C617 1.389 . S
C616 H619 0.929 . S
C617 C616 1.389 . S
C617 C623 1.401 1_654 S
H618 C614 0.930 . S
H619 C616 0.929 . S
S620 N621 1.613 1_545 S
S620 N622 1.610 . S
N621 S620 1.613 1_565 S
N621 C624 1.350 . S
N622 S620 1.610 . S
N622 C623 1.351 . S
C623 C617 1.401 1_456 S
C623 N622 1.351 . S
C623 C624 1.434 1_545 S
C624 C615 1.429 . S
C624 N621 1.350 . S
C624 C623 1.434 1_565 S
C625 C626 1.369 1_556 S
C625 C627 1.419 . S
C625 H629 0.930 . S
C626 C625 1.369 1_554 S
C626 C635 1.429 . S
C627 C625 1.419 . S
C627 C628 1.380 . S
C627 H630 0.929 . S
C628 C627 1.380 . S
C628 C634 1.410 1_556 S
H629 C625 0.930 . S
H630 C627 0.929 . S
S631 N632 1.613 . S
S631 N633 1.610 . S
N632 S631 1.613 . S
N632 C635 1.350 . S
N633 S631 1.610 . S
N633 C634 1.351 . S
C634 C628 1.410 1_554 S
C634 N633 1.351 . S
C634 C635 1.434 . S
C635 C626 1.429 . S
C635 N632 1.350 . S
C635 C634 1.434 . S
C636 C637 1.369 1_455 S
C636 C638 1.419 . S
C636 H640 0.930 . S
C637 C636 1.369 1_655 S
C637 C646 1.429 . S
C638 C636 1.419 . S
C638 C639 1.363 . S
C638 H641 0.929 . S
C639 C638 1.363 . S
C639 C645 1.428 1_455 S
H640 C636 0.930 . S
H641 C638 0.929 . S
S642 N643 1.613 . S
S642 N644 1.610 . S
N643 S642 1.613 . S
N643 C646 1.350 . S
N644 S642 1.610 . S
N644 C645 1.351 . S
C645 C639 1.428 1_655 S
C645 N644 1.351 . S
C645 C646 1.434 . S
C646 C637 1.429 . S
C646 N643 1.350 . S
C646 C645 1.434 . S
C647 C648 1.369 . S
C647 C649 1.419 1_565 S
C647 H651 0.930 . S
C648 C647 1.369 . S
C648 C657 1.429 . S
C649 C647 1.419 1_545 S
C649 C650 1.363 . S
C649 H652 0.929 . S
C650 C649 1.363 . S
C650 C656 1.428 . S
H651 C647 0.930 . S
H652 C649 0.929 . S
S653 N654 1.613 1_545 S
S653 N655 1.610 . S
N654 S653 1.613 1_565 S
N654 C657 1.350 . S
N655 S653 1.610 . S
N655 C656 1.351 . S
C656 C650 1.428 . S
C656 N655 1.351 . S
C656 C657 1.434 1_545 S
C657 C648 1.429 . S
C657 N654 1.350 . S
C657 C656 1.434 1_565 S
C658 C659 1.369 . S
C658 C660 1.419 . S
C658 H662 0.930 . S
C659 C658 1.369 . S
C659 C668 1.429 1_556 S
C660 C658 1.419 . S
C660 C661 1.362 1_556 S
C660 H663 0.929 . S
C661 C660 1.362 1_554 S
C661 C667 1.428 . S
H662 C658 0.930 . S
H663 C660 0.929 . S
S664 N665 1.613 . S
S664 N666 1.610 . S
N665 S664 1.613 . S
N665 C668 1.350 . S
N666 S664 1.610 . S
N666 C667 1.351 . S
C667 C661 1.428 . S
C667 N666 1.351 . S
C667 C668 1.434 . S
C668 C659 1.429 1_554 S
C668 N665 1.350 . S
C668 C667 1.434 . S
C669 C670 1.369 . S
C669 C671 1.419 . S
C669 H673 0.930 . S
C670 C669 1.369 . S
C670 C679 1.429 . S
C671 C669 1.419 . S
C671 C672 1.363 . S
C671 H674 0.929 . S
C672 C671 1.363 . S
C672 C678 1.428 . S
H673 C669 0.930 . S
H674 C671 0.929 . S
S675 N676 1.613 . S
S675 N677 1.610 . S
N676 S675 1.613 . S
N676 C679 1.350 . S
N677 S675 1.610 . S
N677 C678 1.351 . S
C678 C672 1.428 . S
C678 N677 1.351 . S
C678 C679 1.434 . S
C679 C670 1.429 . S
C679 N676 1.350 . S
C679 C678 1.434 . S
C680 C681 1.369 . S
C680 C682 1.419 . S
C680 H684 0.930 . S
C681 C680 1.369 . S
C681 C690 1.429 1_655 S
C682 C680 1.419 . S
C682 C683 1.363 1_655 S
C682 H685 0.929 . S
C683 C682 1.363 1_455 S
C683 C689 1.428 . S
H684 C680 0.930 . S
H685 C682 0.929 . S
S686 N687 1.613 . S
S686 N688 1.610 . S
N687 S686 1.613 . S
N687 C690 1.350 . S
N688 S686 1.610 . S
N688 C689 1.351 . S
C689 C683 1.428 . S
C689 N688 1.351 . S
C689 C690 1.434 . S
C690 C681 1.429 1_455 S
C690 N687 1.350 . S
C690 C689 1.434 . S
C691 C692 1.369 . S
C691 C693 1.419 . S
C691 H695 0.930 . S
C692 C691 1.369 . S
C692 C701 1.429 . S
C693 C691 1.419 . S
C693 C694 1.363 . S
C693 H696 0.929 . S
C694 C693 1.363 . S
C694 C700 1.428 . S
H695 C691 0.930 . S
H696 C693 0.929 . S
S697 N698 1.613 . S
S697 N699 1.610 . S
N698 S697 1.613 . S
N698 C701 1.350 . S
N699 S697 1.610 . S
N699 C700 1.351 . S
C700 C694 1.428 . S
C700 N699 1.351 . S
C700 C701 1.434 . S
C701 C692 1.429 . S
C701 N698 1.350 . S
C701 C700 1.434 . S
C702 C703 1.369 . S
C702 C704 1.419 . S
C702 H706 0.930 . S
C703 C702 1.369 . S
C703 C712 1.429 . S
C704 C702 1.419 . S
C704 C705 1.363 . S
C704 H707 0.929 . S
C705 C704 1.363 . S
C705 C711 1.428 . S
H706 C702 0.930 . S
H707 C704 0.929 . S
S708 N709 1.613 . S
S708 N710 1.610 . S
N709 S708 1.613 . S
N709 C712 1.350 . S
N710 S708 1.610 . S
N710 C711 1.351 . S
C711 C705 1.428 . S
C711 N710 1.351 . S
C711 C712 1.434 . S
C712 C703 1.429 . S
C712 N709 1.350 . S
C712 C711 1.434 . S
C713 C714 1.369 . S
C713 C715 1.419 . S
C713 H717 0.930 . S
C714 C713 1.369 . S
C714 C723 1.429 . S
C715 C713 1.419 . S
C715 C716 1.363 . S
C715 H718 0.929 . S
C716 C715 1.363 . S
C716 C722 1.428 . S
H717 C713 0.930 . S
H718 C715 0.929 . S
S719 N720 1.613 . S
S719 N721 1.610 . S
N720 S719 1.613 . S
N720 C723 1.350 . S
N721 S719 1.610 . S
N721 C722 1.351 . S
C722 C716 1.428 . S
C722 N721 1.351 . S
C722 C723 1.434 . S
C723 C714 1.429 . S
C723 N720 1.350 . S
C723 C722 1.434 . S
C724 C725 1.369 . S
C724 C726 1.419 . S
C724 H728 0.930 . S
C725 C724 1.369 . S
C725 C734 1.429 . S
C726 C724 1.419 . S
C726 C727 1.363 . S
C726 H729 0.929 . S
C727 C726 1.363 . S
C727 C733 1.428 . S
H728 C724 0.930 . S
H729 C726 0.929 . S
S730 N731 1.613 . S
S730 N732 1.610 . S
N731 S730 1.613 . S
N731 C734 1.350 . S
N732 S730 1.610 . S
N732 C733 1.351 . S
C733 C727 1.428 . S
C733 N732 1.351 . S
C733 C734 1.434 . S
C734 C725 1.429 . S
C734 N731 1.350 . S
C734 C733 1.434 . S
C735 C736 1.369 . S
C735 C737 1.419 1_545 S
C735 H739 0.930 . S
C736 C735 1.369 . S
C736 C745 1.429 . S
C737 C735 1.419 1_565 S
C737 C738 1.363 . S
C737 H740 0.929 . S
C738 C737 1.363 . S
C738 C744 1.428 . S
H739 C735 0.930 . S
H740 C737 0.929 . S
S741 N742 1.613 . S
S741 N743 1.610 1_545 S
N742 S741 1.613 . S
N742 C745 1.350 . S
N743 S741 1.610 1_565 S
N743 C744 1.351 . S
C744 C738 1.428 . S
C744 N743 1.351 . S
C744 C745 1.434 1_565 S
C745 C736 1.429 . S
C745 N742 1.350 . S
C745 C744 1.434 1_545 S
C746 C747 1.369 . S
C746 C748 1.419 . S
C746 H750 0.930 . S
C747 C746 1.369 . S
C747 C756 1.429 . S
C748 C746 1.419 . S
C748 C749 1.363 . S
C748 H751 0.929 . S
C749 C748 1.363 . S
C749 C755 1.428 . S
H750 C746 0.930 . S
H751 C748 0.929 . S
S752 N753 1.613 . S
S752 N754 1.610 . S
N753 S752 1.613 . S
N753 C756 1.350 . S
N754 S752 1.610 . S
N754 C755 1.351 . S
C755 C749 1.428 . S
C755 N754 1.351 . S
C755 C756 1.434 . S
C756 C747 1.429 . S
C756 N753 1.350 . S
C756 C755 1.434 . S
C757 C758 1.369 1_554 S
C757 C759 1.419 . S
C757 H761 0.930 . S
C758 C757 1.369 1_556 S
C758 C767 1.429 . S
C759 C757 1.419 . S
C759 C760 1.386 . S
C759 H762 0.929 . S
C760 C759 1.386 . S
C760 C766 1.403 1_554 S
H761 C757 0.930 . S
H762 C759 0.929 . S
S763 N764 1.613 . S
S763 N765 1.610 . S
N764 S763 1.613 . S
N764 C767 1.350 . S
N765 S763 1.610 . S
N765 C766 1.351 . S
C766 C760 1.403 1_556 S
C766 N765 1.351 . S
C766 C767 1.434 . S
C767 C758 1.429 . S
C767 N764 1.350 . S
C767 C766 1.434 . S
C768 C769 1.369 . S
C768 C770 1.419 . S
C768 H772 0.930 . S
C769 C768 1.369 . S
C769 C778 1.429 . S
C770 C768 1.419 . S
C770 C771 1.363 . S
C770 H773 0.929 . S
C771 C770 1.363 . S
C771 C777 1.428 . S
H772 C768 0.930 . S
H773 C770 0.929 . S
S774 N775 1.613 . S
S774 N776 1.610 . S
N775 S774 1.613 . S
N775 C778 1.350 . S
N776 S774 1.610 . S
N776 C777 1.351 . S
C777 C771 1.428 . S
C777 N776 1.351 . S
C777 C778 1.434 . S
C778 C769 1.429 . S
C778 N775 1.350 . S
C778 C777 1.434 . S
C779 C780 1.369 . S
C779 C781 1.419 . S
C779 H783 0.930 . S
C780 C779 1.369 . S
C780 C789 1.429 . S
C781 C779 1.419 . S
C781 C782 1.363 . S
C781 H784 0.929 . S
C782 C781 1.363 . S
C782 C788 1.428 . S
H783 C779 0.930 . S
H784 C781 0.929 . S
S785 N786 1.613 . S
S785 N787 1.610 . S
N786 S785 1.613 . S
N786 C789 1.350 . S
N787 S785 1.610 . S
N787 C788 1.351 . S
C788 C782 1.428 . S
C788 N787 1.351 . S
C788 C789 1.434 . S
C789 C780 1.429 . S
C789 N786 1.350 . S
C789 C788 1.434 . S
C790 C791 1.369 . S
C790 C792 1.419 . S
C790 H794 0.930 . S
C791 C790 1.369 . S
C791 C800 1.429 . S
C792 C790 1.419 . S
C792 C793 1.363 . S
C792 H795 0.929 . S
C793 C792 1.363 . S
C793 C799 1.428 . S
H794 C790 0.930 . S
H795 C792 0.929 . S
S796 N797 1.613 . S
S796 N798 1.610 . S
N797 S796 1.613 . S
N797 C800 1.350 . S
N798 S796 1.610 . S
N798 C799 1.351 . S
C799 C793 1.428 . S
C799 N798 1.351 . S
C799 C800 1.434 . S
C800 C791 1.429 . S
C800 N797 1.350 . S
C800 C799 1.434 . S
C801 C802 1.369 . S
C801 C803 1.419 . S
C801 H805 0.930 . S
C802 C801 1.369 . S
C802 C811 1.429 . S
C803 C801 1.419 . S
C803 C804 1.363 . S
C803 H806 0.929 . S
C804 C803 1.363 . S
C804 C810 1.428 . S
H805 C801 0.930 . S
H806 C803 0.929 . S
S807 N808 1.615 . S
S807 N809 1.616 . S
N808 S807 1.615 . S
N808 C811 1.348 1_655 S
N809 S807 1.616 . S
N809 C810 1.342 1_655 S
C810 C804 1.428 . S
C810 N809 1.342 1_455 S
C810 C811 1.434 . S
C811 C802 1.429 . S
C811 N808 1.348 1_455 S
C811 C810 1.434 . S
C812 C813 1.369 . S
C812 C814 1.419 . S
C812 H816 0.930 . S
C813 C812 1.369 . S
C813 C822 1.429 . S
C814 C812 1.419 . S
C814 C815 1.363 . S
C814 H817 0.929 . S
C815 C814 1.363 . S
C815 C821 1.428 . S
H816 C812 0.930 . S
H817 C814 0.929 . S
S818 N819 1.613 . S
S818 N820 1.610 . S
N819 S818 1.613 . S
N819 C822 1.350 . S
N820 S818 1.610 . S
N820 C821 1.351 . S
C821 C815 1.428 . S
C821 N820 1.351 . S
C821 C822 1.434 . S
C822 C813 1.429 . S
C822 N819 1.350 . S
C822 C821 1.434 . S
C823 C824 1.369 . S
C823 C825 1.419 . S
C823 H827 0.930 . S
C824 C823 1.369 . S
C824 C833 1.429 . S
C825 C823 1.419 . S
C825 C826 1.363 . S
C825 H828 0.929 . S
C826 C825 1.363 . S
C826 C832 1.428 . S
H827 C823 0.930 . S
H828 C825 0.929 . S
S829 N830 1.613 . S
S829 N831 1.610 . S
N830 S829 1.613 . S
N830 C833 1.350 . S
N831 S829 1.610 . S
N831 C832 1.351 . S
C832 C826 1.428 . S
C832 N831 1.351 . S
C832 C833 1.434 . S
C833 C824 1.429 . S
C833 N830 1.350 . S
C833 C832 1.434 . S
C834 C835 1.369 . S
C834 C836 1.419 . S
C834 H838 0.930 . S
C835 C834 1.369 . S
C835 C844 1.429 . S
C836 C834 1.419 . S
C836 C837 1.363 . S
C836 H839 0.929 . S
C837 C836 1.363 . S
C837 C843 1.428 . S
H838 C834 0.930 . S
H839 C836 0.929 . S
S840 N841 1.613 . S
S840 N842 1.610 . S
N841 S840 1.613 . S
N841 C844 1.350 . S
N842 S840 1.610 . S
N842 C843 1.351 . S
C843 C837 1.428 . S
C843 N842 1.351 . S
C843 C844 1.434 . S
C844 C835 1.429 . S
C844 N841 1.350 . S
C844 C843 1.434 . S
C845 C846 1.369 . S
C845 C847 1.419 . S
C845 H849 0.930 . S
C846 C845 1.369 . S
C846 C855 1.429 . S
C847 C845 1.419 . S
C847 C848 1.363 . S
C847 H850 0.929 . S
C848 C847 1.363 . S
C848 C854 1.428 . S
H849 C845 0.930 . S
H850 C847 0.929 . S
S851 N852 1.613 1_455 S
S851 N853 1.610 1_455 S
N852 S851 1.613 1_655 S
N852 C855 1.350 . S
N853 S851 1.610 1_655 S
N853 C854 1.351 . S
C854 C848 1.428 . S
C854 N853 1.351 . S
C854 C855 1.434 . S
C855 C846 1.429 . S
C855 N852 1.350 . S
C855 C854 1.434 . S
C856 C857 1.369 . S
C856 C858 1.419 . S
C856 H860 0.930 . S
C857 C856 1.369 . S
C857 C866 1.429 . S
C858 C856 1.419 . S
C858 C859 1.363 . S
C858 H861 0.929 . S
C859 C858 1.363 . S
C859 C865 1.428 . S
H860 C856 0.930 . S
H861 C858 0.929 . S
S862 N863 1.613 . S
S862 N864 1.610 . S
N863 S862 1.613 . S
N863 C866 1.350 . S
N864 S862 1.610 . S
N864 C865 1.351 . S
C865 C859 1.428 . S
C865 N864 1.351 . S
C865 C866 1.434 . S
C866 C857 1.429 . S
C866 N863 1.350 . S
C866 C865 1.434 . S
C867 C868 1.369 . S
C867 C869 1.419 . S
C867 H871 0.930 . S
C868 C867 1.369 . S
C868 C877 1.429 . S
C869 C867 1.419 . S
C869 C870 1.363 . S
C869 H872 0.929 . S
C870 C869 1.363 . S
C870 C876 1.428 . S
H871 C867 0.930 . S
H872 C869 0.929 . S
S873 N874 1.613 . S
S873 N875 1.610 . S
N874 S873 1.613 . S
N874 C877 1.350 . S
N875 S873 1.610 . S
N875 C876 1.351 . S
C876 C870 1.428 . S
C876 N875 1.351 . S
C876 C877 1.434 . S
C877 C868 1.429 . S
C877 N874 1.350 . S
C877 C876 1.434 . S
C878 C879 1.369 . S
C878 C880 1.419 . S
C878 H882 0.930 . S
C879 C878 1.369 . S
C879 C888 1.429 . S
C880 C878 1.419 . S
C880 C881 1.363 . S
C880 H883 0.929 . S
C881 C880 1.363 . S
C881 C887 1.428 . S
H882 C878 0.930 . S
H883 C880 0.929 . S
S884 N885 1.613 . S
S884 N886 1.610 . S
N885 S884 1.613 . S
N885 C888 1.350 . S
N886 S884 1.610 . S
N886 C887 1.351 . S
C887 C881 1.428 . S
C887 N886 1.351 . S
C887 C888 1.434 . S
C888 C879 1.429 . S
C888 N885 1.350 . S
C888 C887 1.434 . S
C889 C890 1.369 . S
C889 C891 1.419 . S
C889 H893 0.930 . S
C890 C889 1.369 . S
C890 C899 1.429 . S
C891 C889 1.419 . S
C891 C892 1.363 . S
C891 H894 0.929 . S
C892 C891 1.363 . S
C892 C898 1.428 . S
H893 C889 0.930 . S
H894 C891 0.929 . S
S895 N896 1.613 . S
S895 N897 1.610 . S
N896 S895 1.613 . S
N896 C899 1.350 . S
N897 S895 1.610 . S
N897 C898 1.351 . S
C898 C892 1.428 . S
C898 N897 1.351 . S
C898 C899 1.434 . S
C899 C890 1.429 . S
C899 N896 1.350 . S
C899 C898 1.434 . S
C900 C901 1.369 . S
C900 C902 1.419 . S
C900 H904 0.930 . S
C901 C900 1.369 . S
C901 C910 1.429 . S
C902 C900 1.419 . S
C902 C903 1.363 . S
C902 H905 0.929 . S
C903 C902 1.363 . S
C903 C909 1.428 . S
H904 C900 0.930 . S
H905 C902 0.929 . S
S906 N907 1.613 . S
S906 N908 1.610 . S
N907 S906 1.613 . S
N907 C910 1.350 . S
N908 S906 1.610 . S
N908 C909 1.351 . S
C909 C903 1.428 . S
C909 N908 1.351 . S
C909 C910 1.434 . S
C910 C901 1.429 . S
C910 N907 1.350 . S
C910 C909 1.434 . S
C911 C912 1.369 . S
C911 C913 1.419 . S
C911 H915 0.930 . S
C912 C911 1.369 . S
C912 C921 1.429 . S
C913 C911 1.419 . S
C913 C914 1.363 . S
C913 H916 0.929 . S
C914 C913 1.363 . S
C914 C920 1.428 . S
H915 C911 0.930 . S
H916 C913 0.929 . S
S917 N918 1.613 . S
S917 N919 1.610 . S
N918 S917 1.613 . S
N918 C921 1.350 . S
N919 S917 1.610 . S
N919 C920 1.351 . S
C920 C914 1.428 . S
C920 N919 1.351 . S
C920 C921 1.434 . S
C921 C912 1.429 . S
C921 N918 1.350 . S
C921 C920 1.434 . S
C922 C923 1.369 . S
C922 C924 1.419 . S
C922 H926 0.930 . S
C923 C922 1.369 . S
C923 C932 1.429 . S
C924 C922 1.419 . S
C924 C925 1.363 . S
C924 H927 0.929 . S
C925 C924 1.363 . S
C925 C931 1.428 . S
H926 C922 0.930 . S
H927 C924 0.929 . S
S928 N929 1.613 . S
S928 N930 1.610 . S
N929 S928 1.613 . S
N929 C932 1.350 . S
N930 S928 1.610 . S
N930 C931 1.351 . S
C931 C925 1.428 . S
C931 N930 1.351 . S
C931 C932 1.434 . S
C932 C923 1.429 . S
C932 N929 1.350 . S
C932 C931 1.434 . S
C933 C934 1.369 . S
C933 C935 1.419 . S
C933 H937 0.930 . S
C934 C933 1.369 . S
C934 C943 1.429 . S
C935 C933 1.419 . S
C935 C936 1.363 . S
C935 H938 0.929 . S
C936 C935 1.363 . S
C936 C942 1.428 . S
H937 C933 0.930 . S
H938 C935 0.929 . S
S939 N940 1.613 . S
S939 N941 1.610 . S
N940 S939 1.613 . S
N940 C943 1.350 . S
N941 S939 1.610 . S
N941 C942 1.351 . S
C942 C936 1.428 . S
C942 N941 1.351 . S
C942 C943 1.434 . S
C943 C934 1.429 . S
C943 N940 1.350 . S
C943 C942 1.434 . S
C944 C945 1.369 . S
C944 C946 1.419 . S
C944 H948 0.930 . S
C945 C944 1.369 . S
C945 C954 1.429 . S
C946 C944 1.419 . S
C946 C947 1.363 . S
C946 H949 0.929 . S
C947 C946 1.363 . S
C947 C953 1.428 . S
H948 C944 0.930 . S
H949 C946 0.929 . S
S950 N951 1.613 . S
S950 N952 1.610 . S
N951 S950 1.613 . S
N951 C954 1.350 . S
N952 S950 1.610 . S
N952 C953 1.351 . S
C953 C947 1.428 . S
C953 N952 1.351 . S
C953 C954 1.434 . S
C954 C945 1.429 . S
C954 N951 1.350 . S
C954 C953 1.434 . S
C955 C956 1.369 . S
C955 C957 1.419 . S
C955 H959 0.930 . S
C956 C955 1.369 . S
C956 C965 1.429 . S
C957 C955 1.419 . S
C957 C958 1.363 . S
C957 H960 0.929 . S
C958 C957 1.363 . S
C958 C964 1.428 . S
H959 C955 0.930 . S
H960 C957 0.929 . S
S961 N962 1.613 . S
S961 N963 1.610 . S
N962 S961 1.613 . S
N962 C965 1.350 . S
N963 S961 1.610 . S
N963 C964 1.351 . S
C964 C958 1.428 . S
C964 N963 1.351 . S
C964 C965 1.434 . S
C965 C956 1.429 . S
C965 N962 1.350 . S
C965 C964 1.434 . S
C966 C967 1.369 . S
C966 C968 1.419 . S
C966 H970 0.930 . S
C967 C966 1.369 . S
C967 C976 1.429 1_554 S
C968 C966 1.419 . S
C968 C969 1.363 . S
C968 H971 0.929 . S
C969 C968 1.363 . S
C969 C975 1.428 1_554 S
H970 C966 0.930 . S
H971 C968 0.929 . S
S972 N973 1.613 . S
S972 N974 1.610 . S
N973 S972 1.613 . S
N973 C976 1.350 . S
N974 S972 1.610 . S
N974 C975 1.351 . S
C975 C969 1.428 1_556 S
C975 N974 1.351 . S
C975 C976 1.434 . S
C976 C967 1.429 1_556 S
C976 N973 1.350 . S
C976 C975 1.434 . S
C977 C978 1.369 1_556 S
C977 C979 1.419 . S
C977 H981 0.930 . S
C978 C977 1.369 1_554 S
C978 C987 1.429 . S
C979 C977 1.419 . S
C979 C980 1.363 1_556 S
C979 H982 0.929 . S
C980 C979 1.363 1_554 S
C980 C986 1.428 . S
H981 C977 0.930 . S
H982 C979 0.929 . S
S983 N984 1.613 . S
S983 N985 1.610 . S
N984 S983 1.613 . S
N984 C987 1.350 . S
N985 S983 1.610 . S
N985 C986 1.351 . S
C986 C980 1.428 . S
C986 N985 1.351 . S
C986 C987 1.434 . S
C987 C978 1.429 . S
C987 N984 1.350 . S
C987 C986 1.434 . S
C988 C989 1.369 . S
C988 C990 1.419 . S
C988 H992 0.930 . S
C989 C988 1.369 . S
C989 C998 1.429 . S
C990 C988 1.419 . S
C990 C991 1.363 . S
C990 H993 0.929 . S
C991 C990 1.363 . S
C991 C997 1.428 . S
H992 C988 0.930 . S
H993 C990 0.929 . S
S994 N995 1.613 . S
S994 N996 1.610 . S
N995 S994 1.613 . S
N995 C998 1.350 . S
N996 S994 1.610 . S
N996 C997 1.351 . S
C997 C991 1.428 . S
C997 N996 1.351 . S
C997 C998 1.434 . S
C998 C989 1.429 . S
C998 N995 1.350 . S
C998 C997 1.434 . S
C999 C1000 1.369 . S
C999 C1001 1.419 . S
C999 H1003 0.930 . S
C1000 C999 1.369 . S
C1000 C1009 1.429 . S
C1001 C999 1.419 . S
C1001 C1002 1.363 . S
C1001 H1004 0.929 . S
C1002 C1001 1.363 . S
C1002 C1008 1.428 . S
H1003 C999 0.930 . S
H1004 C1001 0.929 . S
S1005 N1006 1.613 . S
S1005 N1007 1.610 . S
N1006 S1005 1.613 . S
N1006 C1009 1.350 . S
N1007 S1005 1.610 . S
N1007 C1008 1.351 . S
C1008 C1002 1.428 . S
C1008 N1007 1.351 . S
C1008 C1009 1.434 . S
C1009 C1000 1.429 . S
C1009 N1006 1.350 . S
C1009 C1008 1.434 . S
C1010 C1011 1.369 1_554 S
C1010 C1012 1.419 . S
C1010 H1014 0.930 . S
C1011 C1010 1.369 1_556 S
C1011 C1020 1.429 . S
C1012 C1010 1.419 . S
C1012 C1013 1.363 1_554 S
C1012 H1015 0.929 . S
C1013 C1012 1.363 1_556 S
C1013 C1019 1.428 . S
H1014 C1010 0.930 . S
H1015 C1012 0.929 . S
S1016 N1017 1.613 . S
S1016 N1018 1.610 . S
N1017 S1016 1.613 . S
N1017 C1020 1.350 . S
N1018 S1016 1.610 . S
N1018 C1019 1.351 . S
C1019 C1013 1.428 . S
C1019 N1018 1.351 . S
C1019 C1020 1.434 . S
C1020 C1011 1.429 . S
C1020 N1017 1.350 . S
C1020 C1019 1.434 . S
C1021 C1022 1.369 1_554 S
C1021 C1023 1.419 . S
C1021 H1025 0.930 . S
C1022 C1021 1.369 1_556 S
C1022 C1031 1.429 . S
C1023 C1021 1.419 . S
C1023 C1024 1.363 1_554 S
C1023 H1026 0.929 . S
C1024 C1023 1.363 1_556 S
C1024 C1030 1.428 . S
H1025 C1021 0.930 . S
H1026 C1023 0.929 . S
S1027 N1028 1.613 . S
S1027 N1029 1.610 . S
N1028 S1027 1.613 . S
N1028 C1031 1.350 . S
N1029 S1027 1.610 . S
N1029 C1030 1.351 . S
C1030 C1024 1.428 . S
C1030 N1029 1.351 . S
C1030 C1031 1.434 . S
C1031 C1022 1.429 . S
C1031 N1028 1.350 . S
C1031 C1030 1.434 . S
C1032 C1033 1.369 . S
C1032 C1034 1.419 . S
C1032 H1036 0.930 . S
C1033 C1032 1.369 . S
C1033 C1042 1.429 . S
C1034 C1032 1.419 . S
C1034 C1035 1.363 . S
C1034 H1037 0.929 . S
C1035 C1034 1.363 . S
C1035 C1041 1.428 . S
H1036 C1032 0.930 . S
H1037 C1034 0.929 . S
S1038 N1039 1.613 . S
S1038 N1040 1.610 . S
N1039 S1038 1.613 . S
N1039 C1042 1.350 . S
N1040 S1038 1.610 . S
N1040 C1041 1.351 . S
C1041 C1035 1.428 . S
C1041 N1040 1.351 . S
C1041 C1042 1.434 . S
C1042 C1033 1.429 . S
C1042 N1039 1.350 . S
C1042 C1041 1.434 . S
C1043 C1044 1.369 . S
C1043 C1045 1.419 . S
C1043 H1047 0.930 . S
C1044 C1043 1.369 . S
C1044 C1053 1.429 . S
C1045 C1043 1.419 . S
C1045 C1046 1.363 . S
C1045 H1048 0.929 . S
C1046 C1045 1.363 . S
C1046 C1052 1.428 . S
H1047 C1043 0.930 . S
H1048 C1045 0.929 . S
S1049 N1050 1.613 . S
S1049 N1051 1.610 . S
N1050 S1049 1.613 . S
N1050 C1053 1.350 . S
N1051 S1049 1.610 . S
N1051 C1052 1.351 . S
C1052 C1046 1.428 . S
C1052 N1051 1.351 . S
C1052 C1053 1.434 . S
C1053 C1044 1.429 . S
C1053 N1050 1.350 . S
C1053 C1052 1.434 . S
C1054 C1055 1.369 . S
C1054 C1056 1.419 . S
C1054 H1058 0.930 . S
C1055 C1054 1.369 . S
C1055 C1064 1.429 . S
C1056 C1054 1.419 . S
C1056 C1057 1.363 . S
C1056 H1059 0.929 . S
C1057 C1056 1.363 . S
C1057 C1063 1.428 . S
H1058 C1054 0.930 . S
H1059 C1056 0.929 . S
S1060 N1061 1.613 . S
S1060 N1062 1.610 . S
N1061 S1060 1.613 . S
N1061 C1064 1.350 . S
N1062 S1060 1.610 . S
N1062 C1063 1.351 . S
C1063 C1057 1.428 . S
C1063 N1062 1.351 . S
C1063 C1064 1.434 . S
C1064 C1055 1.429 . S
C1064 N1061 1.350 . S
C1064 C1063 1.434 . S
C1065 C1066 1.369 . S
C1065 C1067 1.419 . S
C1065 H1069 0.930 . S
C1066 C1065 1.369 . S
C1066 C1075 1.429 . S
C1067 C1065 1.419 . S
C1067 C1068 1.363 . S
C1067 H1070 0.929 . S
C1068 C1067 1.363 . S
C1068 C1074 1.428 . S
H1069 C1065 0.930 . S
H1070 C1067 0.929 . S
S1071 N1072 1.613 . S
S1071 N1073 1.610 . S
N1072 S1071 1.613 . S
N1072 C1075 1.350 . S
N1073 S1071 1.610 . S
N1073 C1074 1.351 . S
C1074 C1068 1.428 . S
C1074 N1073 1.351 . S
C1074 C1075 1.434 . S
C1075 C1066 1.429 . S
C1075 N1072 1.350 . S
C1075 C1074 1.434 . S
C1076 C1077 1.369 . S
C1076 C1078 1.419 . S
C1076 H1080 0.930 . S
C1077 C1076 1.369 . S
C1077 C1086 1.429 . S
C1078 C1076 1.419 . S
C1078 C1079 1.363 . S
C1078 H1081 0.929 . S
C1079 C1078 1.363 . S
C1079 C1085 1.428 . S
H1080 C1076 0.930 . S
H1081 C1078 0.929 . S
S1082 N1083 1.613 . S
S1082 N1084 1.610 . S
N1083 S1082 1.613 . S
N1083 C1086 1.350 . S
N1084 S1082 1.610 . S
N1084 C1085 1.351 . S
C1085 C1079 1.428 . S
C1085 N1084 1.351 . S
C1085 C1086 1.434 . S
C1086 C1077 1.429 . S
C1086 N1083 1.350 . S
C1086 C1085 1.434 . S
C1087 C1088 1.369 . S
C1087 C1089 1.419 . S
C1087 H1091 0.930 . S
C1088 C1087 1.369 . S
C1088 C1097 1.429 . S
C1089 C1087 1.419 . S
C1089 C1090 1.363 . S
C1089 H1092 0.929 . S
C1090 C1089 1.363 . S
C1090 C1096 1.428 . S
H1091 C1087 0.930 . S
H1092 C1089 0.929 . S
S1093 N1094 1.613 . S
S1093 N1095 1.610 . S
N1094 S1093 1.613 . S
N1094 C1097 1.350 . S
N1095 S1093 1.610 . S
N1095 C1096 1.351 . S
C1096 C1090 1.428 . S
C1096 N1095 1.351 . S
C1096 C1097 1.434 . S
C1097 C1088 1.429 . S
C1097 N1094 1.350 . S
C1097 C1096 1.434 . S
C1098 C1099 1.369 . S
C1098 C1100 1.419 . S
C1098 H1102 0.930 . S
C1099 C1098 1.369 . S
C1099 C1108 1.429 . S
C1100 C1098 1.419 . S
C1100 C1101 1.363 . S
C1100 H1103 0.929 . S
C1101 C1100 1.363 . S
C1101 C1107 1.428 . S
H1102 C1098 0.930 . S
H1103 C1100 0.929 . S
S1104 N1105 1.613 . S
S1104 N1106 1.610 . S
N1105 S1104 1.613 . S
N1105 C1108 1.350 . S
N1106 S1104 1.610 . S
N1106 C1107 1.351 . S
C1107 C1101 1.428 . S
C1107 N1106 1.351 . S
C1107 C1108 1.434 . S
C1108 C1099 1.429 . S
C1108 N1105 1.350 . S
C1108 C1107 1.434 . S
C1109 C1110 1.369 . S
C1109 C1111 1.419 . S
C1109 H1113 0.930 . S
C1110 C1109 1.369 . S
C1110 C1119 1.429 . S
C1111 C1109 1.419 . S
C1111 C1112 1.363 . S
C1111 H1114 0.929 . S
C1112 C1111 1.363 . S
C1112 C1118 1.428 . S
H1113 C1109 0.930 . S
H1114 C1111 0.929 . S
S1115 N1116 1.613 . S
S1115 N1117 1.610 . S
N1116 S1115 1.613 . S
N1116 C1119 1.350 . S
N1117 S1115 1.610 . S
N1117 C1118 1.351 . S
C1118 C1112 1.428 . S
C1118 N1117 1.351 . S
C1118 C1119 1.434 . S
C1119 C1110 1.429 . S
C1119 N1116 1.350 . S
C1119 C1118 1.434 . S
C417 C1 1.539 . S
C419 C40 1.541 . S
C428 C27 1.537 . S
C430 C14 1.543 . S
C439 C53 1.506 . S
C441 C92 1.511 . S
C450 C79 1.507 . S
C452 C66 1.517 . S
C461 C105 1.506 . S
C463 C144 1.504 . S
C472 C131 1.506 . S
C474 C118 1.505 . S
C483 C157 1.480 . S
C485 C196 1.474 . S
C494 C170 1.480 . S
C496 C183 1.476 . S
C505 C248 1.504 . S
C507 C209 1.505 . S
C516 C222 1.504 . S
C518 C235 1.506 . S
C527 C261 1.473 . S
C529 C300 1.478 . S
C538 C287 1.472 . S
C540 C274 1.477 . S
C549 C313 1.537 . S
C551 C352 1.543 . S
C560 C339 1.538 . S
C562 C326 1.541 . S
C571 C365 1.509 . S
C573 C404 1.515 . S
C582 C378 1.507 . S
C584 C391 1.511 . S
C593 C161 1.905 . S
C595 C5 1.743 . S
C604 C18 1.747 . S
C606 C278 1.903 . S
C615 C31 1.702 . S
C617 C83 1.859 . S
C626 C408 1.855 . S
C628 C44 1.710 . S
C637 C57 1.900 . S
C639 C109 1.750 . S
C648 C226 1.740 . S
C650 C70 1.906 . S
C659 C356 1.700 . S
C661 C96 1.859 . S
C670 C382 1.905 . S
C672 C122 1.744 . S
C681 C187 1.864 . S
C683 C135 1.705 . S
C692 C304 1.858 . S
C694 C148 1.714 . S
C703 C174 1.901 . S
C705 C330 1.749 . S
C714 C252 1.704 . S
C716 C200 1.863 . S
C725 C369 1.903 . S
C727 C213 1.746 . S
C736 C291 1.862 . S
C738 C239 1.708 . S
C747 C317 1.739 . S
C749 C265 1.906 . S
C758 C343 1.705 . S
C760 C395 1.857 . S
C769 C133 1.678 . S
C771 C3 1.677 . S
C780 C16 1.677 . S
C782 C146 1.678 . S
C791 C107 1.651 . S
C793 C29 1.646 . S
C802 C120 1.650 . S
C804 C42 1.645 . S
C813 C55 1.631 . S
C815 C185 1.623 . S
C824 C68 1.631 . S
C826 C198 1.623 . S
C835 C159 1.596 . S
C837 C81 1.596 . S
C846 C94 1.595 . S
C848 C172 1.598 . S
C857 C341 1.650 . S
C859 C211 1.646 . S
C868 C354 1.650 . S
C870 C224 1.646 . S
C879 C237 1.678 . S
C881 C315 1.677 . S
C890 C250 1.677 . S
C892 C328 1.678 . S
C901 C263 1.595 . S
C903 C393 1.596 . S
C912 C276 1.599 . S
C914 C406 1.595 . S
C923 C367 1.624 . S
C925 C289 1.629 . S
C934 C380 1.624 . S
C936 C302 1.628 . S
C945 C10 1.936 . S
C947 C335 1.928 . S
C956 C322 1.935 . S
C958 C23 1.927 1_655 S
C967 C36 1.892 . S
C969 C361 1.889 . S
C978 C49 1.885 . S
C980 C348 1.894 . S
C989 C62 2.049 . S
C991 C387 2.051 . S
C1000 C75 2.047 1_455 S
C1002 C374 2.053 . S
C1011 C413 2.006 . S
C1013 C88 2.002 . S
C1022 C400 2.002 . S
C1024 C101 2.005 1_455 S
C1033 C231 1.922 . S
C1035 C114 1.931 . S
C1044 C218 1.922 . S
C1046 C127 1.928 . S
C1055 C140 1.887 . S
C1057 C257 1.896 . S
C1066 C153 1.887 . S
C1068 C244 1.896 . S
C1077 C283 2.046 . S
C1079 C166 2.045 . S
C1088 C179 2.042 1_455 S
C1090 C270 2.048 . S
C1099 C192 2.005 . S
C1101 C309 2.007 . S
C1110 C205 2.003 1_455 S
C1112 C296 2.009 . S
