# Generated by pormake.
# Topology usf, (4)-cn, num edge types: 1
# Building blocks:
#     Node 0, Type 0, BuildingBlock: NAWXER_clean_sbu_0, # of connection points: 4
#     Node 1, Type 0, BuildingBlock: NAWXER_clean_sbu_0, # of connection points: 4
#     Node 2, Type 0, BuildingBlock: NAWXER_clean_sbu_0, # of connection points: 4
#     Node 3, Type 0, BuildingBlock: NAWXER_clean_sbu_0, # of connection points: 4
#     Node 4, Type 0, BuildingBlock: NAWXER_clean_sbu_0, # of connection points: 4
#     Node 5, Type 0, BuildingBlock: NAWXER_clean_sbu_0, # of connection points: 4
#     Node 6, Type 0, BuildingBlock: NAWXER_clean_sbu_0, # of connection points: 4
#     Node 7, Type 0, BuildingBlock: NAWXER_clean_sbu_0, # of connection points: 4
#     Node 8, Type 0, BuildingBlock: NAWXER_clean_sbu_0, # of connection points: 4
#     Node 9, Type 0, BuildingBlock: NAWXER_clean_sbu_0, # of connection points: 4
#     Node 10, Type 0, BuildingBlock: NAWXER_clean_sbu_0, # of connection points: 4
#     Node 11, Type 0, BuildingBlock: NAWXER_clean_sbu_0, # of connection points: 4
#     Node 12, Type 0, BuildingBlock: NAWXER_clean_sbu_0, # of connection points: 4
#     Node 13, Type 0, BuildingBlock: NAWXER_clean_sbu_0, # of connection points: 4
#     Node 14, Type 0, BuildingBlock: NAWXER_clean_sbu_0, # of connection points: 4
#     Node 15, Type 0, BuildingBlock: NAWXER_clean_sbu_0, # of connection points: 4
#     Node 16, Type 0, BuildingBlock: NAWXER_clean_sbu_0, # of connection points: 4
#     Node 17, Type 0, BuildingBlock: NAWXER_clean_sbu_0, # of connection points: 4
#     Edge 18, Type (0, 0), BuildingBlock: CIFDUS_clean_linker_0, # of connection points: 2
#     Edge 19, Type (0, 0), BuildingBlock: CIFDUS_clean_linker_0, # of connection points: 2
#     Edge 20, Type (0, 0), BuildingBlock: CIFDUS_clean_linker_0, # of connection points: 2
#     Edge 21, Type (0, 0), BuildingBlock: CIFDUS_clean_linker_0, # of connection points: 2
#     Edge 22, Type (0, 0), BuildingBlock: CIFDUS_clean_linker_0, # of connection points: 2
#     Edge 23, Type (0, 0), BuildingBlock: CIFDUS_clean_linker_0, # of connection points: 2
#     Edge 24, Type (0, 0), BuildingBlock: CIFDUS_clean_linker_0, # of connection points: 2
#     Edge 25, Type (0, 0), BuildingBlock: CIFDUS_clean_linker_0, # of connection points: 2
#     Edge 26, Type (0, 0), BuildingBlock: CIFDUS_clean_linker_0, # of connection points: 2
#     Edge 27, Type (0, 0), BuildingBlock: CIFDUS_clean_linker_0, # of connection points: 2
#     Edge 28, Type (0, 0), BuildingBlock: CIFDUS_clean_linker_0, # of connection points: 2
#     Edge 29, Type (0, 0), BuildingBlock: CIFDUS_clean_linker_0, # of connection points: 2
#     Edge 30, Type (0, 0), BuildingBlock: CIFDUS_clean_linker_0, # of connection points: 2
#     Edge 31, Type (0, 0), BuildingBlock: CIFDUS_clean_linker_0, # of connection points: 2
#     Edge 32, Type (0, 0), BuildingBlock: CIFDUS_clean_linker_0, # of connection points: 2
#     Edge 33, Type (0, 0), BuildingBlock: CIFDUS_clean_linker_0, # of connection points: 2
#     Edge 34, Type (0, 0), BuildingBlock: CIFDUS_clean_linker_0, # of connection points: 2
#     Edge 35, Type (0, 0), BuildingBlock: CIFDUS_clean_linker_0, # of connection points: 2
#     Edge 36, Type (0, 0), BuildingBlock: CIFDUS_clean_linker_0, # of connection points: 2
#     Edge 37, Type (0, 0), BuildingBlock: CIFDUS_clean_linker_0, # of connection points: 2
#     Edge 38, Type (0, 0), BuildingBlock: CIFDUS_clean_linker_0, # of connection points: 2
#     Edge 39, Type (0, 0), BuildingBlock: CIFDUS_clean_linker_0, # of connection points: 2
#     Edge 40, Type (0, 0), BuildingBlock: CIFDUS_clean_linker_0, # of connection points: 2
#     Edge 41, Type (0, 0), BuildingBlock: CIFDUS_clean_linker_0, # of connection points: 2
#     Edge 42, Type (0, 0), BuildingBlock: CIFDUS_clean_linker_0, # of connection points: 2
#     Edge 43, Type (0, 0), BuildingBlock: CIFDUS_clean_linker_0, # of connection points: 2
#     Edge 44, Type (0, 0), BuildingBlock: CIFDUS_clean_linker_0, # of connection points: 2
#     Edge 45, Type (0, 0), BuildingBlock: CIFDUS_clean_linker_0, # of connection points: 2
#     Edge 46, Type (0, 0), BuildingBlock: CIFDUS_clean_linker_0, # of connection points: 2
#     Edge 47, Type (0, 0), BuildingBlock: CIFDUS_clean_linker_0, # of connection points: 2
#     Edge 48, Type (0, 0), BuildingBlock: CIFDUS_clean_linker_0, # of connection points: 2
#     Edge 49, Type (0, 0), BuildingBlock: CIFDUS_clean_linker_0, # of connection points: 2
#     Edge 50, Type (0, 0), BuildingBlock: CIFDUS_clean_linker_0, # of connection points: 2
#     Edge 51, Type (0, 0), BuildingBlock: CIFDUS_clean_linker_0, # of connection points: 2
#     Edge 52, Type (0, 0), BuildingBlock: CIFDUS_clean_linker_0, # of connection points: 2
#     Edge 53, Type (0, 0), BuildingBlock: CIFDUS_clean_linker_0, # of connection points: 2
# Relax obj value: 0.054
# Max RMSD: 0.096
# Mean RMSD: 0.096
data_MOF--net-usf--node1-NAWXER_clean_sbu_0--edge1-CIFDUS_clean_linker_0
_symmetry_space_group_name_H-M    P1
_symmetry_Int_Tables_number       1
_symmetry_cell_setting            triclinic
loop_
_symmetry_equiv_pos_as_xyz
'x, y, z'
_cell_length_a     41.63216
_cell_length_b     41.662127
_cell_length_c     24.967126
_cell_angle_alpha  90.23873
_cell_angle_beta   89.809365
_cell_angle_gamma 119.62757
loop_
_atom_site_label
_atom_site_type_symbol
_atom_site_fract_x
_atom_site_fract_y
_atom_site_fract_z
_atom_type_partial_charge
C0 C 0.04645 0.57354 0.92117 0.0
C1 C 0.04646 0.5468 0.1127 0.0
O2 O 0.07309 0.59271 0.95306 0.0
Zn3 Zn 0.0521 0.56049 0.01559 0.0
O4 O 1.01918 0.54304 0.93709 0.0
Zn5 Zn 0.9997 0.50986 0.00658 0.0
O6 O 0.95347 0.51144 0.01727 0.0
O7 O 1.00383 0.56551 0.02814 0.0
O8 O 1.01912 0.52217 0.08615 0.0
O9 O 0.07327 0.57322 0.08793 0.0
O10 O 0.05851 0.51453 0.99347 0.0
O11 O 1.00344 0.46542 0.98746 0.0
C12 C 0.96854 0.54589 0.02823 0.0
C13 C 0.03844 0.47997 0.98372 0.0
C14 C 0.52997 0.53157 0.09888 0.0
C15 C 0.52383 0.4966 0.9101 0.0
O16 O 0.50599 0.53031 0.06602 0.0
Zn17 Zn 0.52676 0.52002 1.00169 0.0
O18 O 0.55785 0.52957 0.08157 0.0
Zn19 Zn 0.57925 0.52003 0.0104 0.0
O20 O 0.6246 0.56825 0.99475 0.0
O21 O 0.57366 0.5708 0.98195 0.0
O22 O 0.55315 0.50239 0.93477 0.0
O23 O 0.50078 0.50377 0.93342 0.0
O24 O 0.52246 0.46977 0.02689 0.0
O25 O 0.57685 0.47321 0.03421 0.0
C26 C 0.60895 0.58648 0.98025 0.0
C27 C 0.54165 0.45461 0.03888 0.0
C28 C 0.51173 0.99221 0.09278 0.0
C29 C 0.54379 0.99137 0.90435 0.0
O30 O 0.50959 0.96473 0.06722 0.0
Zn31 Zn 0.52372 0.98817 0.99701 0.0
O32 O 0.51845 0.02151 0.06742 0.0
Zn33 Zn 0.53008 0.0425 0.98805 0.0
O34 O 0.48578 0.04514 0.96516 0.0
O35 O 0.4759 0.98817 0.96811 0.0
O36 O 0.54315 0.02059 0.91892 0.0
O37 O 0.53401 0.96472 0.93704 0.0
O38 O 0.57786 0.03331 0.01313 0.0
O39 O 0.57831 0.08603 1.00107 0.0
C40 C 0.46441 1.01077 0.9572 0.0
C41 C 0.59528 0.06868 0.01378 0.0
C42 C 0.56566 0.02375 0.59587 0.0
C43 C 0.5419 0.03227 0.40637 0.0
O44 O 0.58953 0.04472 0.56171 0.0
Zn45 Zn 0.55516 0.03267 0.5022 0.0
O46 O 0.53152 1.0052 0.58279 0.0
Zn47 Zn 0.49715 0.99626 0.51484 0.0
O48 O 0.47496 0.94294 0.50701 0.0
O49 O 0.53549 0.9745 0.49275 0.0
O50 O 0.51251 1.01201 0.43333 0.0
O51 O 0.57264 0.05068 0.43045 0.0
O52 O 0.52644 0.06085 0.52493 0.0
O53 O 0.46809 0.019 0.53759 0.0
C54 C 0.50515 0.94372 0.49534 0.0
C55 C 0.49355 0.05259 0.53818 0.0
C56 C 1.00426 0.55773 0.61472 0.0
C57 C 0.99655 0.52319 0.42443 0.0
O58 O 0.97728 0.55128 0.58405 0.0
Zn59 Zn 0.99461 0.53567 0.52112 0.0
O60 O 0.02996 0.5519 0.5978 0.0
Zn61 Zn 0.04567 0.53398 0.52836 0.0
O62 O 0.09289 0.57755 0.51286 0.0
O63 O 0.04433 0.58522 0.50276 0.0
O64 O 1.02371 0.52459 0.4501 0.0
O65 O 0.97136 0.52591 0.44985 0.0
O66 O 0.98671 0.48365 0.54574 0.0
O67 O 0.04128 0.48729 0.54981 0.0
C68 C 0.07926 0.59794 0.49984 0.0
C69 C 1.00638 0.46858 0.55567 0.0
C70 C 0.51646 0.48566 0.4101 0.0
C71 C 0.49324 0.46196 0.60231 0.0
O72 O 0.51246 0.45719 0.43467 0.0
Zn73 Zn 0.5082 0.47232 0.50727 0.0
O74 O 0.51797 0.51262 0.43677 0.0
Zn75 Zn 0.51441 0.52692 0.51681 0.0
O76 O 0.5643 0.56658 0.53406 0.0
O77 O 0.56274 0.51316 0.5272 0.0
O78 O 0.49982 0.49392 0.58703 0.0
O79 O 0.49591 0.43989 0.56943 0.0
O80 O 0.45892 0.47586 0.50214 0.0
O81 O 0.47118 0.5338 0.51108 0.0
C82 C 0.58084 0.54782 0.53687 0.0
C83 C 0.44796 0.49964 0.50421 0.0
C84 C 0.67438 0.85454 0.42615 0.0
C85 C 0.66275 0.88276 0.24085 0.0
O86 O 0.69571 0.88406 0.40104 0.0
Zn87 Zn 0.67109 0.86903 0.33267 0.0
O88 O 0.6483 0.82719 0.40116 0.0
Zn89 Zn 0.6262 0.81427 0.32183 0.0
O90 O 0.63729 0.7768 0.29711 0.0
O91 O 0.68761 0.83108 0.30357 0.0
O92 O 0.63956 0.84951 0.25411 0.0
O93 O 0.68656 0.9043 0.27458 0.0
O94 O 0.61669 0.86007 0.35251 0.0
O95 O 0.5754 0.80174 0.33496 0.0
C96 C 0.67205 0.79676 0.2914 0.0
C97 C 0.58309 0.83364 0.35165 0.0
C98 C 0.23087 0.91062 0.26663 0.0
C99 C 0.16314 0.78425 0.33273 0.0
O100 O 0.25086 0.89517 0.27122 0.0
Zn101 Zn 0.24491 0.84306 0.29458 0.0
O102 O 0.19683 0.89271 0.27902 0.0
Zn103 Zn 0.19547 0.84687 0.29778 0.0
O104 O 0.22638 0.86017 0.37097 0.0
O105 O 0.27529 0.8534 0.35856 0.0
O106 O 0.14968 0.80507 0.3221 0.0
O107 O 0.19718 0.7953 0.32277 0.0
O108 O 0.25682 0.82538 0.22945 0.0
O109 O 0.20506 0.82741 0.22284 0.0
C110 C 0.25529 0.86065 0.38941 0.0
C111 C 0.22906 0.82032 0.20186 0.0
C112 C 0.15975 0.31857 0.47955 0.0
C113 C 0.20017 0.31407 0.29548 0.0
O114 O 0.16606 0.29395 0.46006 0.0
Zn115 Zn 0.18144 0.31541 0.38861 0.0
O116 O 0.16391 0.34538 0.44978 0.0
Zn117 Zn 0.17954 0.36451 0.36953 0.0
O118 O 0.13527 0.36061 0.33931 0.0
O119 O 0.13095 0.30642 0.35382 0.0
O120 O 0.19594 0.3419 0.30551 0.0
O121 O 0.1955 0.29134 0.3327 0.0
O122 O 0.23127 0.36705 0.4046 0.0
O123 O 0.22226 0.41271 0.37865 0.0
C124 C 0.11706 0.32558 0.33571 0.0
C125 C 0.24309 0.40179 0.39908 0.0
C126 C 0.2461 0.34008 0.84071 0.0
C127 C 0.16856 0.39511 0.89711 0.0
O128 O 0.2135 0.31746 0.85757 0.0
Zn129 Zn 0.16491 0.31595 0.88934 0.0
O130 O 0.25746 0.37464 0.84288 0.0
Zn131 Zn 0.21036 0.36992 0.87118 0.0
O132 O 0.20932 0.35203 0.95127 0.0
O133 O 0.16188 0.29603 0.96135 0.0
O134 O 0.20208 0.41195 0.88134 0.0
O135 O 0.15195 0.3598 0.90139 0.0
O136 O 0.13086 0.286 0.83258 0.0
O137 O 0.17426 0.34113 0.80576 0.0
C138 C 0.19016 0.32383 0.98097 0.0
C139 C 0.146 0.30969 0.79537 0.0
C140 C 0.72141 0.92216 0.82045 0.0
C141 C 0.6732 0.79007 0.86838 0.0
O142 O 0.74124 0.9075 0.83139 0.0
Zn143 Zn 0.70044 0.85715 0.84554 0.0
O144 O 0.68615 0.90226 0.82182 0.0
Zn145 Zn 0.6445 0.8464 0.83661 0.0
O146 O 0.61856 0.85177 0.89686 0.0
O147 O 0.6761 0.86633 0.9155 0.0
O148 O 0.64904 0.79963 0.85783 0.0
O149 O 0.70728 0.81452 0.8668 0.0
O150 O 0.67824 0.84343 0.76626 0.0
O151 O 0.62046 0.83212 0.76795 0.0
C152 C 0.64518 0.86343 0.92993 0.0
C153 C 0.648 0.8349 0.74185 0.0
C154 C 0.19279 0.79182 0.89019 0.0
C155 C 0.22462 0.81621 0.69937 0.0
O156 O 0.20093 0.77262 0.85906 0.0
Zn157 Zn 0.20607 0.80068 0.79381 0.0
O158 O 0.19095 0.81949 0.87175 0.0
Zn159 Zn 0.19983 0.84892 0.79857 0.0
O160 O 0.15069 0.84202 0.78322 0.0
O161 O 0.15075 0.78935 0.77674 0.0
O162 O 0.21712 0.83943 0.72197 0.0
O163 O 0.2215 0.78887 0.72617 0.0
O164 O 0.25463 0.85117 0.81436 0.0
O165 O 0.24294 0.89721 0.81954 0.0
C166 C 0.13325 0.80742 0.77376 0.0
C167 C 0.26583 0.88538 0.82347 0.0
C168 C 0.35727 0.16474 0.78675 0.0
C169 C 0.35611 0.19055 0.59641 0.0
O170 O 0.38615 0.19375 0.77021 0.0
Zn171 Zn 0.40712 0.22635 0.69975 0.0
O172 O 0.32958 0.14758 0.75577 0.0
Zn173 Zn 0.35183 0.17847 0.69319 0.0
O174 O 0.39627 0.16813 0.68037 0.0
O175 O 0.45034 0.21945 0.68638 0.0
O176 O 0.32873 0.16613 0.62277 0.0
O177 O 0.38524 0.21409 0.62112 0.0
O178 O 0.40885 0.27371 0.72009 0.0
O179 O 0.35199 0.2274 0.71496 0.0
C180 C 0.43153 0.18461 0.67835 0.0
C181 C 0.37422 0.26156 0.72453 0.0
C182 C 0.9166 0.21485 0.75881 0.0
C183 C 0.88924 0.18718 0.56683 0.0
O184 O 0.88502 0.20925 0.7432 0.0
Zn185 Zn 0.85086 0.19367 0.67476 0.0
O186 O 0.9375 0.20986 0.72637 0.0
Zn187 Zn 0.90471 0.1967 0.66368 0.0
O188 O 0.90377 0.24648 0.65327 0.0
O189 O 0.84808 0.23946 0.66549 0.0
O190 O 0.91752 0.18967 0.59043 0.0
O191 O 0.86346 0.18746 0.59449 0.0
O192 O 0.80992 0.14425 0.69607 0.0
O193 O 0.86233 0.1441 0.68565 0.0
C194 C 0.8823 0.26021 0.65433 0.0
C195 C 0.828 0.12693 0.69763 0.0
C196 C 0.92032 0.67755 0.68752 0.0
C197 C 0.78636 0.60986 0.63712 0.0
O198 O 0.90438 0.69709 0.68577 0.0
Zn199 Zn 0.85174 0.6912 0.6696 0.0
O200 O 0.90147 0.64317 0.67669 0.0
Zn201 Zn 0.85262 0.63895 0.6624 0.0
O202 O 0.86026 0.66761 0.59038 0.0
O203 O 0.85929 0.71963 0.60322 0.0
O204 O 0.80569 0.59382 0.64142 0.0
O205 O 0.80129 0.64433 0.64741 0.0
O206 O 0.8362 0.70159 0.73911 0.0
O207 O 0.83612 0.64859 0.73757 0.0
C208 C 0.86097 0.6964 0.5715 0.0
C209 C 0.82997 0.67187 0.76251 0.0
C210 C 0.81979 0.65964 0.25895 0.0
C211 C 0.79047 0.66272 0.06939 0.0
O212 O 0.84339 0.68797 0.23304 0.0
Zn213 Zn 0.85393 0.70984 0.15499 0.0
O214 O 0.79302 0.63317 0.2341 0.0
Zn215 Zn 0.80377 0.65574 0.16289 0.0
O216 O 0.85012 0.65215 0.13798 0.0
O217 O 0.89861 0.70776 0.13241 0.0
O218 O 0.77177 0.63521 0.10006 0.0
O219 O 0.82044 0.69033 0.08603 0.0
O220 O 0.85027 0.75473 0.16943 0.0
O221 O 0.79774 0.70236 0.17861 0.0
C222 C 0.88434 0.67287 0.12717 0.0
C223 C 0.81576 0.73764 0.18048 0.0
C224 C 0.39838 0.25504 0.1556 0.0
C225 C 0.31499 0.12305 0.19577 0.0
O226 O 0.41482 0.23672 0.16561 0.0
Zn227 Zn 0.40195 0.18288 0.18752 0.0
O228 O 0.3633 0.23913 0.15972 0.0
Zn229 Zn 0.35318 0.18933 0.17889 0.0
O230 O 0.37258 0.19454 0.25793 0.0
O231 O 0.42252 0.18881 0.25964 0.0
O232 O 0.30351 0.14592 0.18756 0.0
O233 O 0.34973 0.13444 0.19662 0.0
O234 O 0.42047 0.16875 0.12458 0.0
O235 O 0.37052 0.17324 0.10903 0.0
C236 C 0.39828 0.19345 0.28431 0.0
C237 C 0.39535 0.16595 0.09261 0.0
C238 C 0.88801 0.23091 0.06525 0.0
C239 C 0.85564 0.20558 0.25618 0.0
O240 O 0.88298 0.19977 0.08206 0.0
Zn241 Zn 0.86601 0.1665 0.15194 0.0
O242 O 0.88092 0.25116 0.09598 0.0
Zn243 Zn 0.86629 0.21899 0.15892 0.0
O244 O 0.91646 0.21996 0.17512 0.0
O245 O 0.91151 0.16479 0.16724 0.0
O246 O 0.85699 0.23267 0.23063 0.0
O247 O 0.85741 0.1799 0.23049 0.0
O248 O 0.8186 0.12387 0.13084 0.0
O249 O 0.81513 0.17488 0.13461 0.0
C250 C 0.93093 0.19919 0.17807 0.0
C251 C 0.79994 0.14031 0.12475 0.0
H252 H 0.05852 0.55301 0.36486 0.0
H253 H 0.9397 0.49638 0.35117 0.0
H254 H 0.94523 0.49816 0.25306 0.0
H255 H 0.984 0.51571 0.17201 0.0
H256 H 0.10283 0.57601 0.1862 0.0
H257 H 0.09717 0.57294 0.28414 0.0
C258 C 0.03373 0.54073 0.34046 0.0
C259 C 0.99863 0.52393 0.36519 0.0
C260 C 0.03724 0.54263 0.28452 0.0
C261 C 0.96691 0.50917 0.33306 0.0
C262 C 0.97014 0.5102 0.2771 0.0
C263 C 1.00873 0.52798 0.1965 0.0
C264 C 0.0439 0.54562 0.17191 0.0
C265 C 1.00517 0.52676 0.25251 0.0
C266 C 0.07557 0.56216 0.20416 0.0
C267 C 0.07228 0.56035 0.26005 0.0
H268 H 0.49984 0.52838 0.34734 0.0
H269 H 0.53718 0.44846 0.34031 0.0
H270 H 0.54387 0.4558 0.243 0.0
H271 H 0.54132 0.48642 0.16128 0.0
H272 H 0.50135 0.56415 0.16599 0.0
H273 H 0.49317 0.55607 0.2637 0.0
C274 C 0.50947 0.51257 0.32449 0.0
C275 C 0.51853 0.48823 0.35102 0.0
C276 C 0.51281 0.51665 0.2686 0.0
C277 C 0.53019 0.46739 0.32086 0.0
C278 C 0.5341 0.47168 0.26534 0.0
C279 C 0.53096 0.50179 0.18373 0.0
C280 C 0.52269 0.52651 0.15695 0.0
C281 C 0.52591 0.49652 0.23906 0.0
C282 C 0.50819 0.54529 0.18601 0.0
C283 C 0.50362 0.54067 0.24168 0.0
H284 H 0.55185 0.05129 0.15549 0.0
H285 H 0.47246 0.935 0.16241 0.0
H286 H 0.47379 0.93781 0.26074 0.0
H287 H 0.49819 0.97352 0.3443 0.0
H288 H 0.58195 0.08837 0.33646 0.0
H289 H 0.57833 0.08609 0.23841 0.0
C290 C 0.53455 0.0266 0.17855 0.0
C291 C 0.51157 0.99306 0.15194 0.0
C292 C 0.53639 0.02827 0.23463 0.0
C293 C 0.49013 0.9611 0.18214 0.0
C294 C 0.49091 0.96276 0.23822 0.0
C295 C 0.51543 0.9981 0.32102 0.0
C296 C 0.53995 0.03127 0.34733 0.0
C297 C 0.51397 0.99621 0.26482 0.0
C298 C 0.56282 0.06267 0.31694 0.0
C299 C 0.5607 0.06133 0.26102 0.0
H300 H 0.06569 0.59741 0.67379 0.0
H301 H 0.94675 0.54308 0.68259 0.0
H302 H 0.95015 0.54853 0.78044 0.0
H303 H 0.9865 0.55907 0.86266 0.0
H304 H 0.10535 0.61207 0.8539 0.0
H305 H 0.10258 0.61733 0.75642 0.0
C306 C 0.04052 0.58743 0.69711 0.0
C307 C 1.00594 0.56916 0.67124 0.0
C308 C 0.04275 0.59003 0.75315 0.0
C309 C 0.97361 0.55706 0.70163 0.0
C310 C 0.97559 0.5599 0.75756 0.0
C311 C 1.01186 0.57239 0.83946 0.0
C312 C 0.04609 0.58452 0.86508 0.0
C313 C 1.00992 0.5748 0.78366 0.0
C314 C 0.07875 0.60241 0.83496 0.0
C315 C 0.07709 0.60515 0.77927 0.0
H316 H 0.53363 0.4491 0.67387 0.0
H317 H 0.43647 0.45977 0.65756 0.0
H318 H 0.43471 0.46794 0.75443 0.0
H319 H 0.46713 0.48252 0.84118 0.0
H320 H 0.56702 0.47577 0.85514 0.0
H321 H 0.56153 0.45591 0.76249 0.0
C322 C 0.51126 0.45163 0.69203 0.0
C323 C 0.48497 0.45336 0.65925 0.0
C324 C 0.51165 0.45833 0.74727 0.0
C325 C 0.45665 0.45781 0.68258 0.0
C326 C 0.45598 0.46304 0.73778 0.0
C327 C 0.48743 0.47632 0.82409 0.0
C328 C 0.51781 0.48147 0.85492 0.0
C329 C 0.4844 0.46516 0.77018 0.0
C330 C 0.54364 0.47279 0.83223 0.0
C331 C 0.54051 0.4612 0.77914 0.0
H332 H 0.59291 0.04667 0.84179 0.0
H333 H 0.51456 0.92999 0.84078 0.0
H334 H 0.51879 0.92883 0.743 0.0
H335 H 0.53696 0.96325 0.65812 0.0
H336 H 0.6156 0.07981 0.65895 0.0
H337 H 0.61974 0.07881 0.7568 0.0
C338 C 0.57743 0.02084 0.82014 0.0
C339 C 0.553 0.98855 0.84808 0.0
C340 C 0.57986 0.02052 0.7641 0.0
C341 C 0.53349 0.95514 0.81999 0.0
C342 C 0.5357 0.95457 0.76412 0.0
C343 C 0.55567 0.98822 0.67977 0.0
C344 C 0.57556 0.02169 0.65183 0.0
C345 C 0.5576 0.9874 0.73577 0.0
C346 C 0.60009 0.05379 0.67981 0.0
C347 C 0.60217 0.05324 0.7357 0.0
H348 H 0.7058 0.86802 0.67405 0.0
H349 H 0.58762 0.79605 0.67793 0.0
H350 H 0.5861 0.794 0.57986 0.0
H351 H 0.61809 0.81465 0.49367 0.0
H352 H 0.73539 0.89093 0.48981 0.0
H353 H 0.73769 0.88928 0.5878 0.0
C354 C 0.67976 0.85151 0.65341 0.0
C355 C 0.64687 0.83189 0.68298 0.0
C356 C 0.67902 0.8514 0.59731 0.0
C357 C 0.61324 0.81128 0.65588 0.0
C358 C 0.6124 0.81012 0.59994 0.0
C359 C 0.64425 0.83056 0.51428 0.0
C360 C 0.67665 0.85259 0.48479 0.0
C361 C 0.64508 0.83031 0.57035 0.0
C362 C 0.71019 0.87374 0.51185 0.0
C363 C 0.71146 0.87277 0.56772 0.0
H364 H 0.23701 0.87375 0.63546 0.0
H365 H 0.23911 0.77121 0.63464 0.0
H366 H 0.25501 0.77921 0.53925 0.0
H367 H 0.26258 0.81265 0.45414 0.0
H368 H 0.25585 0.91257 0.45533 0.0
H369 H 0.24846 0.90887 0.55272 0.0
C370 C 0.24117 0.85318 0.61468 0.0
C371 C 0.23646 0.8217 0.64227 0.0
C372 C 0.24989 0.85777 0.55985 0.0
C373 C 0.24229 0.79558 0.61447 0.0
C374 C 0.25146 0.80018 0.55988 0.0
C375 C 0.26077 0.83422 0.47613 0.0
C376 C 0.26052 0.8633 0.44797 0.0
C377 C 0.25474 0.83089 0.53193 0.0
C378 C 0.25677 0.89036 0.47644 0.0
C379 C 0.25213 0.888 0.53198 0.0
H380 H 0.13994 0.2635 0.55462 0.0
H381 H 0.15851 0.37435 0.53413 0.0
H382 H 0.15037 0.37911 0.62952 0.0
H383 H 0.14522 0.35507 0.71998 0.0
H384 H 0.12584 0.24453 0.74324 0.0
H385 H 0.12608 0.23602 0.6459 0.0
C386 C 0.14177 0.28849 0.57101 0.0
C387 C 0.15044 0.31869 0.53706 0.0
C388 C 0.1368 0.29113 0.62651 0.0
C389 C 0.15219 0.3507 0.55902 0.0
C390 C 0.14754 0.35355 0.61377 0.0
C391 C 0.14004 0.32876 0.70363 0.0
C392 C 0.13557 0.30051 0.73854 0.0
C393 C 0.14079 0.32436 0.648 0.0
C394 C 0.12889 0.26653 0.71705 0.0
C395 C 0.12955 0.26188 0.66141 0.0
H396 H 0.60537 0.85693 0.17242 0.0
H397 H 0.72275 0.93167 0.1829 0.0
H398 H 0.72684 0.93594 0.08512 0.0
H399 H 0.69857 0.91005 0.99772 0.0
H400 H 0.58121 0.83488 0.98758 0.0
H401 H 0.57542 0.83939 0.08445 0.0
C402 C 0.63169 0.87483 0.15324 0.0
C403 C 0.66383 0.89345 0.18447 0.0
C404 C 0.63387 0.87657 0.09726 0.0
C405 C 0.69768 0.91704 0.15953 0.0
C406 C 0.70006 0.91917 0.10367 0.0
C407 C 0.67165 0.89513 0.01669 0.0
C408 C 0.64046 0.87151 0.98598 0.0
C409 C 0.66861 0.89773 0.07226 0.0
C410 C 0.60561 0.85298 0.01058 0.0
C411 C 0.60233 0.85543 0.06593 0.0
H412 H 0.2404 0.78543 0.95768 0.0
H413 H 0.13822 0.78794 0.95305 0.0
H414 H 0.13877 0.79353 0.05055 0.0
H415 H 0.1719 0.80529 0.13525 0.0
H416 H 0.27648 0.80729 0.14062 0.0
H417 H 0.27147 0.79235 0.045 0.0
C418 C 0.21773 0.78599 0.97839 0.0
C419 C 0.18902 0.78577 0.94855 0.0
C420 C 0.21912 0.79087 0.03444 0.0
C421 C 0.16032 0.78764 0.97544 0.0
C422 C 0.16083 0.79118 0.03108 0.0
C423 C 0.19351 0.80213 0.11578 0.0
C424 C 0.22474 0.80785 0.14513 0.0
C425 C 0.19071 0.79411 0.06074 0.0
C426 C 0.25225 0.80331 0.11905 0.0
C427 C 0.24939 0.79475 0.06429 0.0
H428 H 0.16443 0.26739 0.05496 0.0
H429 H 0.24002 0.38418 0.03596 0.0
H430 H 0.25453 0.38993 0.13073 0.0
H431 H 0.24073 0.36389 0.22066 0.0
H432 H 0.16575 0.24774 0.24264 0.0
H433 H 0.15695 0.23942 0.14536 0.0
C434 C 0.1843 0.29398 0.07154 0.0
C435 C 0.20058 0.32537 0.03823 0.0
C436 C 0.19289 0.29723 0.12669 0.0
C437 C 0.22673 0.35953 0.06038 0.0
C438 C 0.23517 0.36294 0.11476 0.0
C439 C 0.22335 0.33654 0.20398 0.0
C440 C 0.20398 0.3065 0.23861 0.0
C441 C 0.21781 0.33224 0.14845 0.0
C442 C 0.18141 0.27121 0.21669 0.0
C443 C 0.17591 0.26659 0.1611 0.0
H444 H 0.33504 0.12875 0.03143 0.0
H445 H 0.45406 0.1839 0.02561 0.0
H446 H 0.45204 0.18385 0.92743 0.0
H447 H 0.41675 0.17752 0.84549 0.0
H448 H 0.29775 0.12437 0.85198 0.0
H449 H 0.2993 0.11392 0.94818 0.0
C450 C 0.36052 0.14 0.00855 0.0
C451 C 0.39471 0.15687 0.0354 0.0
C452 C 0.35907 0.14078 0.95259 0.0
C453 C 0.42749 0.1708 0.00567 0.0
C454 C 0.4263 0.17113 0.94966 0.0
C455 C 0.3911 0.16323 0.86787 0.0
C456 C 0.35717 0.15249 0.84214 0.0
C457 C 0.39231 0.15775 0.923 0.0
C458 C 0.32414 0.13317 0.8711 0.0
C459 C 0.32507 0.12733 0.92605 0.0
H460 H 0.89951 0.25834 0.81807 0.0
H461 H 0.95389 0.1933 0.82689 0.0
H462 H 0.95413 0.19708 0.925 0.0
H463 H 0.92959 0.21026 0.007 0.0
H464 H 0.87407 0.27427 0.9978 0.0
H465 H 0.88396 0.28002 0.9007 0.0
C466 C 0.91221 0.24573 0.84153 0.0
C467 C 0.92623 0.22511 0.81556 0.0
C468 C 0.91153 0.24745 0.8976 0.0
C469 C 0.94303 0.20933 0.84606 0.0
C470 C 0.94278 0.21119 0.9021 0.0
C471 C 0.9202 0.22601 0.98382 0.0
C472 C 0.90045 0.24124 0.00925 0.0
C473 C 0.92566 0.2288 0.92815 0.0
C474 C 0.88913 0.26219 0.97908 0.0
C475 C 0.89461 0.26526 0.92358 0.0
H476 H 0.78027 0.61118 0.99605 0.0
H477 H 0.78515 0.71614 0.0158 0.0
H478 H 0.7948 0.72769 0.91948 0.0
H479 H 0.81271 0.71243 0.83249 0.0
H480 H 0.81146 0.60852 0.816 0.0
H481 H 0.79006 0.59241 0.90738 0.0
C482 C 0.78184 0.63577 0.97875 0.0
C483 C 0.78175 0.66262 0.01246 0.0
C484 C 0.78951 0.64312 0.92395 0.0
C485 C 0.7848 0.69494 0.99011 0.0
C486 C 0.7909 0.7018 0.93523 0.0
C487 C 0.80745 0.68619 0.84881 0.0
C488 C 0.8146 0.66227 0.81753 0.0
C489 C 0.79525 0.67693 0.90216 0.0
C490 C 0.80702 0.62801 0.8392 0.0
C491 C 0.79449 0.6185 0.8916 0.0
H492 H 0.33815 0.17452 0.34558 0.0
H493 H 0.45553 0.21525 0.3555 0.0
H494 H 0.45251 0.21905 0.45333 0.0
H495 H 0.41647 0.21097 0.53521 0.0
H496 H 0.29847 0.16628 0.52561 0.0
H497 H 0.30172 0.16394 0.42762 0.0
C498 C 0.36317 0.18443 0.36909 0.0
C499 C 0.39718 0.19508 0.34339 0.0
C500 C 0.36103 0.18588 0.425 0.0
C501 C 0.42914 0.20704 0.37441 0.0
C502 C 0.42739 0.20928 0.4302 0.0
C503 C 0.39147 0.20105 0.51163 0.0
C504 C 0.35728 0.1894 0.53737 0.0
C505 C 0.39351 0.19892 0.45578 0.0
C506 C 0.32503 0.17563 0.50656 0.0
C507 C 0.32694 0.17429 0.45069 0.0
H508 H 0.8906 0.17796 0.31433 0.0
H509 H 0.82724 0.23387 0.33066 0.0
H510 H 0.83163 0.23211 0.42866 0.0
H511 H 0.85325 0.21424 0.50896 0.0
H512 H 0.92039 0.16237 0.49193 0.0
H513 H 0.91483 0.16301 0.39418 0.0
C514 C 0.87744 0.18952 0.33932 0.0
C515 C 0.85795 0.20543 0.31538 0.0
C516 C 0.88088 0.18914 0.39517 0.0
C517 C 0.84207 0.22126 0.34818 0.0
C518 C 0.8446 0.2202 0.40408 0.0
C519 C 0.8665 0.20283 0.48388 0.0
C520 C 0.88677 0.1877 0.50766 0.0
C521 C 0.86382 0.20408 0.42792 0.0
C522 C 0.90453 0.17393 0.47462 0.0
C523 C 0.90128 0.17428 0.41883 0.0
H524 H 0.8251 0.63759 0.50739 0.0
H525 H 0.88536 0.75672 0.50453 0.0
H526 H 0.87774 0.75532 0.40667 0.0
H527 H 0.85483 0.71983 0.32273 0.0
H528 H 0.79194 0.60073 0.32756 0.0
H529 H 0.79974 0.60249 0.42495 0.0
C530 C 0.83691 0.66338 0.48541 0.0
C531 C 0.85651 0.69732 0.5129 0.0
C532 C 0.83186 0.66222 0.42993 0.0
C533 C 0.87052 0.73037 0.48413 0.0
C534 C 0.86616 0.72948 0.42835 0.0
C535 C 0.84294 0.69419 0.34505 0.0
C536 C 0.82322 0.66005 0.31792 0.0
C537 C 0.84709 0.69552 0.40091 0.0
C538 C 0.8073 0.62722 0.34747 0.0
C539 C 0.81183 0.62827 0.40303 0.0
H540 H 0.11087 0.50616 0.95767 0.0
H541 H 1.00743 0.40442 0.97283 0.0
H542 H 0.03821 0.36935 0.94752 0.0
H543 H 0.09498 0.36754 0.92175 0.0
H544 H 0.1977 0.46997 0.90484 0.0
H545 H 0.16671 0.50453 0.93001 0.0
C546 C 0.0949 0.47628 0.95558 0.0
C547 C 0.05671 0.45809 0.96758 0.0
C548 C 0.11276 0.4563 0.94057 0.0
C549 C 0.03673 0.41931 0.96399 0.0
C550 C 0.0544 0.3992 0.94952 0.0
C551 C 0.11065 0.39744 0.9235 0.0
C552 C 0.14889 0.41597 0.9114 0.0
C553 C 0.09247 0.41737 0.93781 0.0
C554 C 0.16842 0.45479 0.91376 0.0
C555 C 0.15066 0.47466 0.92829 0.0
H556 H 0.70939 0.75705 0.9196 0.0
H557 H 0.60583 0.73296 0.84633 0.0
H558 H 0.57855 0.66904 0.87248 0.0
H559 H 0.58165 0.62026 0.91939 0.0
H560 H 0.68312 0.63985 0.99358 0.0
H561 H 0.71352 0.70461 0.96342 0.0
C562 C 0.68102 0.73768 0.90898 0.0
C563 C 0.65972 0.75038 0.88147 0.0
C564 C 0.66489 0.70002 0.92455 0.0
C565 C 0.62296 0.72459 0.86804 0.0
C566 C 0.60715 0.68774 0.88292 0.0
C567 C 0.61049 0.63853 0.92919 0.0
C568 C 0.62978 0.62515 0.95953 0.0
C569 C 0.62752 0.67531 0.91189 0.0
C570 C 0.6674 0.64932 0.97057 0.0
C571 C 0.68476 0.68644 0.9534 0.0
H572 H 0.2998 0.9536 0.87593 0.0
H573 H 0.32116 0.87071 0.8066 0.0
H574 H 0.38378 0.90285 0.84015 0.0
H575 H 0.43155 0.95143 0.89351 0.0
H576 H 0.41448 0.03672 0.96267 0.0
H577 H 0.35163 1.0071 0.9247 0.0
C578 C 0.31837 0.94295 0.86762 0.0
C579 C 0.30527 0.90931 0.83927 0.0
C580 C 0.35513 0.9618 0.88743 0.0
C581 C 0.32994 0.89608 0.82887 0.0
C582 C 0.36598 0.91447 0.84806 0.0
C583 C 0.41416 0.9637 0.90037 0.0
C584 C 0.42747 0.99587 0.93166 0.0
C585 C 0.37859 0.94679 0.87827 0.0
C586 C 0.40484 1.01182 0.93895 0.0
C587 C 0.36886 0.99479 0.91732 0.0
H588 H 0.45225 0.04947 0.62376 0.0
H589 H 0.5214 0.1224 0.49933 0.0
H590 H 0.51252 0.17237 0.53533 0.0
H591 H 0.48205 0.19424 0.60041 0.0
H592 H 0.41526 0.12106 0.72649 0.0
H593 H 0.42715 0.07286 0.69301 0.0
C594 C 0.46509 0.07625 0.60437 0.0
C595 C 0.48665 0.08208 0.55831 0.0
C596 C 0.46094 0.1051 0.62639 0.0
C597 C 0.50417 0.11719 0.53444 0.0
C598 C 0.49931 0.14581 0.55522 0.0
C599 C 0.47127 0.1682 0.62145 0.0
C600 C 0.44818 0.1613 0.66618 0.0
C601 C 0.47764 0.14011 0.60121 0.0
C602 C 0.43347 0.12707 0.69231 0.0
C603 C 0.43986 0.09932 0.67282 0.0
H604 H 0.95467 0.3087 0.64163 0.0
H605 H 0.84745 0.30096 0.63416 0.0
H606 H 0.87673 0.36525 0.60304 0.0
H607 H 0.93285 0.42261 0.57509 0.0
H608 H 0.0391 0.42788 0.58149 0.0
H609 H 1.00969 0.36489 0.61543 0.0
C610 C 0.93741 0.32084 0.63338 0.0
C611 C 0.89874 0.29982 0.64002 0.0
C612 C 0.95426 0.35721 0.61484 0.0
C613 C 0.87719 0.31645 0.62953 0.0
C614 C 0.89395 0.35312 0.61147 0.0
C615 C 0.94961 0.40998 0.58382 0.0
C616 C 0.98824 0.43002 0.57546 0.0
C617 C 0.93246 0.37359 0.60341 0.0
C618 C 1.00943 0.4132 0.58727 0.0
C619 C 0.99262 0.37719 0.60682 0.0
H620 H 0.74484 0.64193 0.61833 0.0
H621 H 0.73995 0.536 0.61161 0.0
H622 H 0.67603 0.5077 0.57868 0.0
H623 H 0.62168 0.51352 0.55264 0.0
H624 H 0.62854 0.62038 0.56005 0.0
H625 H 0.69211 0.64795 0.59179 0.0
C626 C 0.73003 0.61253 0.60994 0.0
C627 C 0.74737 0.59109 0.61787 0.0
C628 C 0.69371 0.59673 0.59092 0.0
C629 C 0.72741 0.55316 0.60618 0.0
C630 C 0.69088 0.53704 0.58727 0.0
C631 C 0.6371 0.5429 0.56093 0.0
C632 C 0.62016 0.56486 0.55383 0.0
C633 C 0.67377 0.55862 0.57952 0.0
C634 C 0.64068 0.60282 0.565 0.0
C635 C 0.67706 0.61859 0.58328 0.0
H636 H 0.85773 0.60044 0.10214 0.0
H637 H 0.95907 0.70514 0.10731 0.0
H638 H 0.9934 0.67497 0.07569 0.0
H639 H 0.99469 0.61892 0.04826 0.0
H640 H 0.89333 0.51423 0.04299 0.0
H641 H 0.85883 0.54463 0.07276 0.0
C642 C 0.88737 0.61683 0.0965 0.0
C643 C 0.90579 0.65518 0.10754 0.0
C644 C 0.90685 0.5993 0.07816 0.0
C645 C 0.94415 0.67573 0.09938 0.0
C646 C 0.96377 0.65844 0.08127 0.0
C647 C 0.96499 0.60259 0.05339 0.0
C648 C 0.94668 0.56411 0.0434 0.0
C649 C 0.94541 0.62024 0.07074 0.0
C650 C 0.90819 0.54373 0.05021 0.0
C651 C 0.88847 0.56114 0.06741 0.0
H652 H 0.47274 0.29357 0.13678 0.0
H653 H 0.37425 0.30338 0.12978 0.0
H654 H 0.41039 0.3655 0.09303 0.0
H655 H 0.46879 0.41589 0.06167 0.0
H656 H 0.56817 0.40771 0.06782 0.0
H657 H 0.53245 0.34549 0.10619 0.0
C658 C 0.45912 0.30932 0.12753 0.0
C659 C 0.42063 0.29366 0.13615 0.0
C660 C 0.4801 0.34502 0.10599 0.0
C661 C 0.40365 0.31459 0.12372 0.0
C662 C 0.42432 0.35009 0.10255 0.0
C663 C 0.48297 0.40069 0.07106 0.0
C664 C 0.52131 0.41657 0.06131 0.0
C665 C 0.46241 0.36537 0.0932 0.0
C666 C 0.53881 0.39623 0.07451 0.0
C667 C 0.51834 0.3607 0.09655 0.0
H668 H 0.75827 0.17112 0.09658 0.0
H669 H 0.75493 0.06603 0.10616 0.0
H670 H 0.69168 0.03507 0.07142 0.0
H671 H 0.63755 0.03794 0.03922 0.0
H672 H 0.6411 0.14313 0.02919 0.0
H673 H 0.70454 0.1741 0.06304 0.0
C674 C 0.74378 0.14139 0.0913 0.0
C675 C 0.76139 0.12089 0.10433 0.0
C676 C 0.70761 0.12389 0.07102 0.0
C677 C 0.74212 0.08246 0.09667 0.0
C678 C 0.70596 0.06478 0.07674 0.0
C679 C 0.65213 0.0677 0.04421 0.0
C680 C 0.63443 0.08818 0.03165 0.0
C681 C 0.68848 0.08524 0.06385 0.0
C682 C 0.65396 0.12669 0.03837 0.0
C683 C 0.69021 0.14438 0.05788 0.0
H684 H 0.48499 0.90395 0.40381 0.0
H685 H 0.53307 0.91186 0.55912 0.0
H686 H 0.55708 0.87175 0.52947 0.0
H687 H 0.57466 0.84538 0.45453 0.0
H688 H 0.52975 0.83983 0.29756 0.0
H689 H 0.49378 0.86765 0.33222 0.0
C690 C 0.49921 0.89532 0.43164 0.0
C691 C 0.50687 0.91012 0.4837 0.0
C692 C 0.51416 0.87343 0.41351 0.0
C693 C 0.52637 0.90004 0.51921 0.0
C694 C 0.54048 0.87756 0.50203 0.0
C695 C 0.55595 0.84917 0.42852 0.0
C696 C 0.55452 0.84069 0.37388 0.0
C697 C 0.53609 0.86568 0.44859 0.0
C698 C 0.53077 0.84593 0.33995 0.0
C699 C 0.51051 0.86207 0.35971 0.0
H700 H 0.05491 0.64309 0.46381 0.0
H701 H 0.15375 0.63437 0.47771 0.0
H702 H 0.18805 0.69121 0.42572 0.0
H703 H 0.18897 0.74142 0.37402 0.0
H704 H 0.08961 0.74913 0.35909 0.0
H705 H 0.05597 0.69346 0.4134 0.0
C706 C 0.08406 0.65362 0.45598 0.0
C707 C 0.10178 0.63444 0.47465 0.0
C708 C 0.10318 0.68556 0.42521 0.0
C709 C 0.13952 0.64865 0.46402 0.0
C710 C 0.15901 0.68094 0.43399 0.0
C711 C 0.15985 0.73086 0.38217 0.0
C712 C 0.14168 0.74924 0.36207 0.0
C713 C 0.14091 0.69922 0.41376 0.0
C714 C 0.10412 0.73536 0.37369 0.0
C715 C 0.08498 0.7037 0.40496 0.0
H716 H 0.27885 0.39404 0.48292 0.0
H717 H 0.29103 0.46976 0.35716 0.0
H718 H 0.35551 0.51086 0.38361 0.0
H719 H 0.41043 0.52125 0.4368 0.0
H720 H 0.39623 0.44432 0.56199 0.0
H721 H 0.33041 0.40824 0.54258 0.0
C722 C 0.29557 0.4197 0.46157 0.0
C723 C 0.28063 0.42861 0.41762 0.0
C724 C 0.33222 0.44311 0.47725 0.0
C725 C 0.30218 0.46227 0.39096 0.0
C726 C 0.33901 0.48572 0.40605 0.0
C727 C 0.39255 0.4973 0.4608 0.0
C728 C 0.40791 0.48535 0.50075 0.0
C729 C 0.35462 0.47601 0.44845 0.0
C730 C 0.38478 0.45394 0.53111 0.0
C731 C 0.34726 0.43314 0.51977 0.0
H732 H 0.74222 0.70609 0.19404 0.0
H733 H 0.84245 0.81134 0.20648 0.0
H734 H 0.80655 0.83914 0.24188 0.0
H735 H 0.74659 0.83241 0.27194 0.0
H736 H 0.64779 0.72572 0.26026 0.0
H737 H 0.68369 0.69948 0.22234 0.0
C738 C 0.75653 0.73522 0.20431 0.0
C739 C 0.79516 0.75657 0.19779 0.0
C740 C 0.73596 0.75061 0.22522 0.0
C741 C 0.81281 0.79428 0.21096 0.0
C742 C 0.79228 0.81008 0.23145 0.0
C743 C 0.73292 0.80339 0.26119 0.0
C744 C 0.69443 0.78103 0.26923 0.0
C745 C 0.75384 0.78834 0.23929 0.0
C746 C 0.67724 0.74355 0.2548 0.0
C747 C 0.69776 0.72852 0.23297 0.0
H748 H 0.33058 0.06952 0.17427 0.0
H749 H 0.24355 0.08681 0.23638 0.0
H750 H 0.20801 0.02113 0.26149 0.0
H751 H 0.2049 0.95997 0.27233 0.0
H752 H 0.29529 0.9468 0.21257 0.0
H753 H 0.32645 1.00991 0.18052 0.0
C754 C 0.30371 0.05903 0.19312 0.0
C755 C 0.28991 0.08306 0.20414 0.0
C756 C 0.28427 0.02202 0.20843 0.0
C757 C 0.25475 0.06881 0.22749 0.0
C758 C 0.23464 0.03137 0.24219 0.0
C759 C 0.23129 0.97095 0.25199 0.0
C760 C 0.24792 0.94873 0.2455 0.0
C761 C 0.24959 1.00787 0.23398 0.0
C762 C 0.28207 0.96331 0.21889 0.0
C763 C 0.29991 0.99941 0.20027 0.0
H764 H 0.07473 0.25188 0.31582 0.0
H765 H 0.08201 0.35729 0.28467 0.0
H766 H 0.02789 0.32713 0.22699 0.0
H767 H 0.97856 0.27168 0.18722 0.0
H768 H 0.96732 0.16512 0.22167 0.0
H769 H 1.02447 0.19537 0.27466 0.0
C770 C 0.06433 0.26827 0.29676 0.0
C771 C 0.08227 0.30685 0.30494 0.0
C772 C 0.03319 0.25074 0.26348 0.0
C773 C 0.06859 0.32761 0.27955 0.0
C774 C 0.03784 0.31043 0.24621 0.0
C775 C 0.98857 0.25484 0.20595 0.0
C776 C 0.96856 0.21611 0.20079 0.0
C777 C 1.02006 0.27213 0.23798 0.0
C778 C 0.98233 0.19496 0.22473 0.0
C779 C 1.01468 0.21223 0.25556 0.0
H780 H 0.30213 0.2416 0.72801 0.0
H781 H 0.40966 0.33394 0.76336 0.0
H782 H 0.38029 0.3681 0.80033 0.0
H783 H 0.32253 0.36973 0.82733 0.0
H784 H 0.21673 0.27416 0.79196 0.0
H785 H 0.24702 0.24361 0.75077 0.0
C786 C 0.31948 0.26927 0.74356 0.0
C787 C 0.35818 0.2849 0.74308 0.0
C788 C 0.30251 0.28823 0.76538 0.0
C789 C 0.37981 0.32104 0.76315 0.0
C790 C 0.36295 0.34053 0.78453 0.0
C791 C 0.30627 0.34234 0.81034 0.0
C792 C 0.26722 0.32421 0.81369 0.0
C793 C 0.32411 0.32417 0.78664 0.0
C794 C 0.24668 0.2887 0.79115 0.0
C795 C 0.26397 0.27109 0.76719 0.0
H796 H 0.76098 0.08328 0.74748 0.0
H797 H 0.85854 0.08262 0.68982 0.0
H798 H 0.83588 0.02091 0.72523 0.0
H799 H 0.78844 0.96635 0.77297 0.0
H800 H 0.69001 0.96573 0.82873 0.0
H801 H 0.71296 0.02813 0.79458 0.0
C802 C 0.77709 0.0695 0.74226 0.0
C803 C 0.81146 0.08788 0.7159 0.0
C804 C 0.76393 0.03362 0.76307 0.0
C805 C 0.83201 0.06945 0.70995 0.0
C806 C 0.81915 0.03402 0.73039 0.0
C807 C 0.77226 0.98007 0.7782 0.0
C808 C 0.73768 0.96138 0.8037 0.0
C809 C 0.78528 0.01585 0.75739 0.0
C810 C 0.71679 0.97942 0.8093 0.0
C811 C 0.72983 0.01515 0.78959 0.0
H812 H 0.08823 0.73389 0.74973 0.0
H813 H 0.08767 0.83696 0.76378 0.0
H814 H 1.02259 0.80592 0.73848 0.0
H815 H 0.96585 0.75001 0.7121 0.0
H816 H 0.96524 0.64643 0.69767 0.0
H817 H 0.0306 0.67718 0.72332 0.0
C818 C 0.07392 0.74962 0.74733 0.0
C819 C 0.09319 0.78795 0.75878 0.0
C820 C 0.03619 0.73149 0.73257 0.0
C821 C 0.07388 0.80762 0.75533 0.0
C822 C 0.03653 0.78983 0.74078 0.0
C823 C 0.97986 0.73397 0.71444 0.0
C824 C 0.96032 0.69576 0.70274 0.0
C825 C 1.01742 0.75184 0.72925 0.0
C826 C 0.97932 0.67577 0.70624 0.0
C827 C 1.0168 0.69341 0.72098 0.0
loop_
_geom_bond_atom_site_label_1
_geom_bond_atom_site_label_2
_geom_bond_distance
_geom_bond_site_symmetry_2
_ccdc_geom_bond_type
C0 O2 1.247 1_655 S
C0 O4 1.258 . S
C1 O8 1.247 1_455 S
C1 O9 1.258 . S
O2 C0 1.247 1_455 S
O2 Zn3 2.026 1_556 S
Zn3 O2 2.026 1_554 S
Zn3 O7 2.026 1_455 S
Zn3 O9 2.037 . S
Zn3 O10 2.028 1_554 S
O4 C0 1.258 . S
O4 Zn5 2.016 1_556 S
Zn5 O4 2.016 1_554 S
Zn5 O6 2.031 . S
Zn5 O8 2.047 . S
Zn5 O11 2.014 1_654 S
O6 Zn5 2.031 . S
O6 C12 1.247 . S
O7 Zn3 2.026 1_655 S
O7 C12 1.267 . S
O8 C1 1.247 1_655 S
O8 Zn5 2.047 . S
O9 C1 1.258 . S
O9 Zn3 2.037 . S
O10 Zn3 2.028 1_556 S
O10 C13 1.247 . S
O11 Zn5 2.014 1_456 S
O11 C13 1.274 . S
C12 O6 1.247 . S
C12 O7 1.267 . S
C13 O10 1.247 . S
C13 O11 1.274 . S
C14 O16 1.247 . S
C14 O18 1.258 . S
C15 O22 1.247 . S
C15 O23 1.258 . S
O16 C14 1.247 . S
O16 Zn17 2.046 . S
Zn17 O16 2.046 . S
Zn17 O21 2.032 1_554 S
Zn17 O23 2.017 1_554 S
Zn17 O24 2.031 . S
O18 C14 1.258 . S
O18 Zn19 2.037 . S
Zn19 O18 2.037 . S
Zn19 O20 2.028 1_554 S
Zn19 O22 2.026 1_554 S
Zn19 O25 2.036 . S
O20 Zn19 2.028 1_556 S
O20 C26 1.247 . S
O21 Zn17 2.032 1_556 S
O21 C26 1.258 . S
O22 C15 1.247 . S
O22 Zn19 2.026 1_556 S
O23 C15 1.258 . S
O23 Zn17 2.017 1_556 S
O24 Zn17 2.031 . S
O24 C27 1.247 . S
O25 Zn19 2.036 . S
O25 C27 1.258 . S
C26 O20 1.247 . S
C26 O21 1.258 . S
C27 O24 1.247 . S
C27 O25 1.258 . S
C28 O30 1.247 . S
C28 O32 1.258 1_565 S
C29 O36 1.247 . S
C29 O37 1.258 1_545 S
O30 C28 1.247 . S
O30 Zn31 2.046 . S
Zn31 O30 2.046 . S
Zn31 O35 2.032 1_554 S
Zn31 O37 2.017 1_554 S
Zn31 O38 2.031 1_565 S
O32 C28 1.258 1_545 S
O32 Zn33 2.037 . S
Zn33 O32 2.037 . S
Zn33 O34 2.030 1_554 S
Zn33 O36 2.027 1_554 S
Zn33 O39 2.035 . S
O34 Zn33 2.030 1_556 S
O34 C40 1.235 1_545 S
O35 Zn31 2.032 1_556 S
O35 C40 1.258 . S
O36 C29 1.247 . S
O36 Zn33 2.027 1_556 S
O37 C29 1.258 1_565 S
O37 Zn31 2.017 1_556 S
O38 Zn31 2.031 1_545 S
O38 C41 1.247 . S
O39 Zn33 2.035 . S
O39 C41 1.258 . S
C40 O34 1.235 1_565 S
C40 O35 1.258 . S
C41 O38 1.247 . S
C41 O39 1.258 . S
C42 O44 1.247 1_565 S
C42 O46 1.258 . S
C43 O50 1.247 1_545 S
C43 O51 1.258 . S
O44 C42 1.247 1_545 S
O44 Zn45 2.028 . S
Zn45 O44 2.028 . S
Zn45 O49 2.051 . S
Zn45 O51 2.035 . S
Zn45 O52 2.028 . S
O46 C42 1.258 . S
O46 Zn47 2.035 . S
Zn47 O46 2.035 . S
Zn47 O48 2.028 . S
Zn47 O50 2.028 . S
Zn47 O53 2.035 1_565 S
O48 Zn47 2.028 . S
O48 C54 1.247 . S
O49 Zn45 2.051 . S
O49 C54 1.244 1_545 S
O50 C43 1.247 1_565 S
O50 Zn47 2.028 . S
O51 C43 1.258 . S
O51 Zn45 2.035 . S
O52 Zn45 2.028 . S
O52 C55 1.247 . S
O53 Zn47 2.035 1_545 S
O53 C55 1.258 . S
C54 O48 1.247 . S
C54 O49 1.244 1_565 S
C55 O52 1.247 . S
C55 O53 1.258 . S
C56 O58 1.247 1_455 S
C56 O60 1.258 . S
C57 O64 1.247 1_655 S
C57 O65 1.258 . S
O58 C56 1.247 1_655 S
O58 Zn59 2.028 . S
Zn59 O58 2.028 . S
Zn59 O63 2.032 1_655 S
Zn59 O65 2.035 . S
Zn59 O66 2.028 . S
O60 C56 1.258 . S
O60 Zn61 2.035 . S
Zn61 O60 2.035 . S
Zn61 O62 2.028 . S
Zn61 O64 2.028 . S
Zn61 O67 2.033 1_455 S
O62 Zn61 2.028 . S
O62 C68 1.247 . S
O63 Zn59 2.032 1_455 S
O63 C68 1.275 . S
O64 C57 1.247 1_455 S
O64 Zn61 2.028 . S
O65 C57 1.258 . S
O65 Zn59 2.035 . S
O66 Zn59 2.028 . S
O66 C69 1.247 . S
O67 Zn61 2.033 1_655 S
O67 C69 1.268 . S
C68 O62 1.247 . S
C68 O63 1.275 . S
C69 O66 1.247 . S
C69 O67 1.268 . S
C70 O72 1.247 . S
C70 O74 1.258 . S
C71 O78 1.247 . S
C71 O79 1.258 . S
O72 C70 1.247 . S
O72 Zn73 2.028 . S
Zn73 O72 2.028 . S
Zn73 O77 2.035 . S
Zn73 O79 2.035 . S
Zn73 O80 2.028 . S
O74 C70 1.258 . S
O74 Zn75 2.035 . S
Zn75 O74 2.035 . S
Zn75 O76 2.028 . S
Zn75 O78 2.028 . S
Zn75 O81 2.035 . S
O76 Zn75 2.028 . S
O76 C82 1.247 . S
O77 Zn73 2.035 . S
O77 C82 1.258 . S
O78 C71 1.247 . S
O78 Zn75 2.028 . S
O79 C71 1.258 . S
O79 Zn73 2.035 . S
O80 Zn73 2.028 . S
O80 C83 1.247 . S
O81 Zn75 2.035 . S
O81 C83 1.258 . S
C82 O76 1.247 . S
C82 O77 1.258 . S
C83 O80 1.247 . S
C83 O81 1.258 . S
C84 O86 1.247 . S
C84 O88 1.258 . S
C85 O92 1.247 . S
C85 O93 1.258 . S
O86 C84 1.247 . S
O86 Zn87 2.028 . S
Zn87 O86 2.028 . S
Zn87 O91 2.035 . S
Zn87 O93 2.035 . S
Zn87 O94 2.028 . S
O88 C84 1.258 . S
O88 Zn89 2.035 . S
Zn89 O88 2.035 . S
Zn89 O90 2.028 . S
Zn89 O92 2.028 . S
Zn89 O95 2.035 . S
O90 Zn89 2.028 . S
O90 C96 1.247 . S
O91 Zn87 2.035 . S
O91 C96 1.258 . S
O92 C85 1.247 . S
O92 Zn89 2.028 . S
O93 C85 1.258 . S
O93 Zn87 2.035 . S
O94 Zn87 2.028 . S
O94 C97 1.247 . S
O95 Zn89 2.035 . S
O95 C97 1.258 . S
C96 O90 1.247 . S
C96 O91 1.258 . S
C97 O94 1.247 . S
C97 O95 1.258 . S
C98 O100 1.247 . S
C98 O102 1.258 . S
C99 O106 1.247 . S
C99 O107 1.258 . S
O100 C98 1.247 . S
O100 Zn101 2.028 . S
Zn101 O100 2.028 . S
Zn101 O105 2.035 . S
Zn101 O107 2.035 . S
Zn101 O108 2.028 . S
O102 C98 1.258 . S
O102 Zn103 2.035 . S
Zn103 O102 2.035 . S
Zn103 O104 2.028 . S
Zn103 O106 2.028 . S
Zn103 O109 2.035 . S
O104 Zn103 2.028 . S
O104 C110 1.247 . S
O105 Zn101 2.035 . S
O105 C110 1.258 . S
O106 C99 1.247 . S
O106 Zn103 2.028 . S
O107 C99 1.258 . S
O107 Zn101 2.035 . S
O108 Zn101 2.028 . S
O108 C111 1.247 . S
O109 Zn103 2.035 . S
O109 C111 1.258 . S
C110 O104 1.247 . S
C110 O105 1.258 . S
C111 O108 1.247 . S
C111 O109 1.258 . S
C112 O114 1.247 . S
C112 O116 1.258 . S
C113 O120 1.247 . S
C113 O121 1.258 . S
O114 C112 1.247 . S
O114 Zn115 2.028 . S
Zn115 O114 2.028 . S
Zn115 O119 2.035 . S
Zn115 O121 2.035 . S
Zn115 O122 2.028 . S
O116 C112 1.258 . S
O116 Zn117 2.035 . S
Zn117 O116 2.035 . S
Zn117 O118 2.028 . S
Zn117 O120 2.028 . S
Zn117 O123 2.035 . S
O118 Zn117 2.028 . S
O118 C124 1.247 . S
O119 Zn115 2.035 . S
O119 C124 1.258 . S
O120 C113 1.247 . S
O120 Zn117 2.028 . S
O121 C113 1.258 . S
O121 Zn115 2.035 . S
O122 Zn115 2.028 . S
O122 C125 1.247 . S
O123 Zn117 2.035 . S
O123 C125 1.258 . S
C124 O118 1.247 . S
C124 O119 1.258 . S
C125 O122 1.247 . S
C125 O123 1.258 . S
C126 O128 1.247 . S
C126 O130 1.258 . S
C127 O134 1.247 . S
C127 O135 1.258 . S
O128 C126 1.247 . S
O128 Zn129 2.028 . S
Zn129 O128 2.028 . S
Zn129 O133 2.035 . S
Zn129 O135 2.035 . S
Zn129 O136 2.028 . S
O130 C126 1.258 . S
O130 Zn131 2.035 . S
Zn131 O130 2.035 . S
Zn131 O132 2.028 . S
Zn131 O134 2.028 . S
Zn131 O137 2.035 . S
O132 Zn131 2.028 . S
O132 C138 1.247 . S
O133 Zn129 2.035 . S
O133 C138 1.258 . S
O134 C127 1.247 . S
O134 Zn131 2.028 . S
O135 C127 1.258 . S
O135 Zn129 2.035 . S
O136 Zn129 2.028 . S
O136 C139 1.247 . S
O137 Zn131 2.035 . S
O137 C139 1.258 . S
C138 O132 1.247 . S
C138 O133 1.258 . S
C139 O136 1.247 . S
C139 O137 1.258 . S
C140 O142 1.247 . S
C140 O144 1.258 . S
C141 O148 1.247 . S
C141 O149 1.258 . S
O142 C140 1.247 . S
O142 Zn143 2.028 . S
Zn143 O142 2.028 . S
Zn143 O147 2.035 . S
Zn143 O149 2.035 . S
Zn143 O150 2.028 . S
O144 C140 1.258 . S
O144 Zn145 2.035 . S
Zn145 O144 2.035 . S
Zn145 O146 2.028 . S
Zn145 O148 2.028 . S
Zn145 O151 2.035 . S
O146 Zn145 2.028 . S
O146 C152 1.247 . S
O147 Zn143 2.035 . S
O147 C152 1.258 . S
O148 C141 1.247 . S
O148 Zn145 2.028 . S
O149 C141 1.258 . S
O149 Zn143 2.035 . S
O150 Zn143 2.028 . S
O150 C153 1.247 . S
O151 Zn145 2.035 . S
O151 C153 1.258 . S
C152 O146 1.247 . S
C152 O147 1.258 . S
C153 O150 1.247 . S
C153 O151 1.258 . S
C154 O156 1.247 . S
C154 O158 1.258 . S
C155 O162 1.247 . S
C155 O163 1.258 . S
O156 C154 1.247 . S
O156 Zn157 2.028 . S
Zn157 O156 2.028 . S
Zn157 O161 2.035 . S
Zn157 O163 2.035 . S
Zn157 O164 2.028 . S
O158 C154 1.258 . S
O158 Zn159 2.035 . S
Zn159 O158 2.035 . S
Zn159 O160 2.028 . S
Zn159 O162 2.028 . S
Zn159 O165 2.035 . S
O160 Zn159 2.028 . S
O160 C166 1.247 . S
O161 Zn157 2.035 . S
O161 C166 1.258 . S
O162 C155 1.247 . S
O162 Zn159 2.028 . S
O163 C155 1.258 . S
O163 Zn157 2.035 . S
O164 Zn157 2.028 . S
O164 C167 1.247 . S
O165 Zn159 2.035 . S
O165 C167 1.258 . S
C166 O160 1.247 . S
C166 O161 1.258 . S
C167 O164 1.247 . S
C167 O165 1.258 . S
C168 O170 1.247 . S
C168 O172 1.258 . S
C169 O176 1.247 . S
C169 O177 1.258 . S
O170 C168 1.247 . S
O170 Zn171 2.028 . S
Zn171 O170 2.028 . S
Zn171 O175 2.035 . S
Zn171 O177 2.035 . S
Zn171 O178 2.028 . S
O172 C168 1.258 . S
O172 Zn173 2.035 . S
Zn173 O172 2.035 . S
Zn173 O174 2.028 . S
Zn173 O176 2.028 . S
Zn173 O179 2.035 . S
O174 Zn173 2.028 . S
O174 C180 1.247 . S
O175 Zn171 2.035 . S
O175 C180 1.258 . S
O176 C169 1.247 . S
O176 Zn173 2.028 . S
O177 C169 1.258 . S
O177 Zn171 2.035 . S
O178 Zn171 2.028 . S
O178 C181 1.247 . S
O179 Zn173 2.035 . S
O179 C181 1.258 . S
C180 O174 1.247 . S
C180 O175 1.258 . S
C181 O178 1.247 . S
C181 O179 1.258 . S
C182 O184 1.247 . S
C182 O186 1.258 . S
C183 O190 1.247 . S
C183 O191 1.258 . S
O184 C182 1.247 . S
O184 Zn185 2.028 . S
Zn185 O184 2.028 . S
Zn185 O189 2.035 . S
Zn185 O191 2.035 . S
Zn185 O192 2.028 . S
O186 C182 1.258 . S
O186 Zn187 2.035 . S
Zn187 O186 2.035 . S
Zn187 O188 2.028 . S
Zn187 O190 2.028 . S
Zn187 O193 2.035 . S
O188 Zn187 2.028 . S
O188 C194 1.247 . S
O189 Zn185 2.035 . S
O189 C194 1.258 . S
O190 C183 1.247 . S
O190 Zn187 2.028 . S
O191 C183 1.258 . S
O191 Zn185 2.035 . S
O192 Zn185 2.028 . S
O192 C195 1.247 . S
O193 Zn187 2.035 . S
O193 C195 1.258 . S
C194 O188 1.247 . S
C194 O189 1.258 . S
C195 O192 1.247 . S
C195 O193 1.258 . S
C196 O198 1.247 . S
C196 O200 1.258 . S
C197 O204 1.247 . S
C197 O205 1.258 . S
O198 C196 1.247 . S
O198 Zn199 2.028 . S
Zn199 O198 2.028 . S
Zn199 O203 2.035 . S
Zn199 O205 2.035 . S
Zn199 O206 2.028 . S
O200 C196 1.258 . S
O200 Zn201 2.035 . S
Zn201 O200 2.035 . S
Zn201 O202 2.028 . S
Zn201 O204 2.028 . S
Zn201 O207 2.035 . S
O202 Zn201 2.028 . S
O202 C208 1.247 . S
O203 Zn199 2.035 . S
O203 C208 1.258 . S
O204 C197 1.247 . S
O204 Zn201 2.028 . S
O205 C197 1.258 . S
O205 Zn199 2.035 . S
O206 Zn199 2.028 . S
O206 C209 1.247 . S
O207 Zn201 2.035 . S
O207 C209 1.258 . S
C208 O202 1.247 . S
C208 O203 1.258 . S
C209 O206 1.247 . S
C209 O207 1.258 . S
C210 O212 1.247 . S
C210 O214 1.258 . S
C211 O218 1.247 . S
C211 O219 1.258 . S
O212 C210 1.247 . S
O212 Zn213 2.028 . S
Zn213 O212 2.028 . S
Zn213 O217 2.035 . S
Zn213 O219 2.035 . S
Zn213 O220 2.028 . S
O214 C210 1.258 . S
O214 Zn215 2.035 . S
Zn215 O214 2.035 . S
Zn215 O216 2.028 . S
Zn215 O218 2.028 . S
Zn215 O221 2.035 . S
O216 Zn215 2.028 . S
O216 C222 1.247 . S
O217 Zn213 2.035 . S
O217 C222 1.258 . S
O218 C211 1.247 . S
O218 Zn215 2.028 . S
O219 C211 1.258 . S
O219 Zn213 2.035 . S
O220 Zn213 2.028 . S
O220 C223 1.247 . S
O221 Zn215 2.035 . S
O221 C223 1.258 . S
C222 O216 1.247 . S
C222 O217 1.258 . S
C223 O220 1.247 . S
C223 O221 1.258 . S
C224 O226 1.247 . S
C224 O228 1.258 . S
C225 O232 1.247 . S
C225 O233 1.258 . S
O226 C224 1.247 . S
O226 Zn227 2.028 . S
Zn227 O226 2.028 . S
Zn227 O231 2.035 . S
Zn227 O233 2.035 . S
Zn227 O234 2.028 . S
O228 C224 1.258 . S
O228 Zn229 2.035 . S
Zn229 O228 2.035 . S
Zn229 O230 2.028 . S
Zn229 O232 2.028 . S
Zn229 O235 2.035 . S
O230 Zn229 2.028 . S
O230 C236 1.247 . S
O231 Zn227 2.035 . S
O231 C236 1.258 . S
O232 C225 1.247 . S
O232 Zn229 2.028 . S
O233 C225 1.258 . S
O233 Zn227 2.035 . S
O234 Zn227 2.028 . S
O234 C237 1.247 . S
O235 Zn229 2.035 . S
O235 C237 1.258 . S
C236 O230 1.247 . S
C236 O231 1.258 . S
C237 O234 1.247 . S
C237 O235 1.258 . S
C238 O240 1.247 . S
C238 O242 1.258 . S
C239 O246 1.247 . S
C239 O247 1.258 . S
O240 C238 1.247 . S
O240 Zn241 2.028 . S
Zn241 O240 2.028 . S
Zn241 O245 2.035 . S
Zn241 O247 2.035 . S
Zn241 O248 2.028 . S
O242 C238 1.258 . S
O242 Zn243 2.035 . S
Zn243 O242 2.035 . S
Zn243 O244 2.028 . S
Zn243 O246 2.028 . S
Zn243 O249 2.035 . S
O244 Zn243 2.028 . S
O244 C250 1.247 . S
O245 Zn241 2.035 . S
O245 C250 1.258 . S
O246 C239 1.247 . S
O246 Zn243 2.028 . S
O247 C239 1.258 . S
O247 Zn241 2.035 . S
O248 Zn241 2.028 . S
O248 C251 1.247 . S
O249 Zn243 2.035 . S
O249 C251 1.258 . S
C250 O244 1.247 . S
C250 O245 1.258 . S
C251 O248 1.247 . S
C251 O249 1.258 . S
H252 C258 0.930 . S
H253 C261 0.930 . S
H254 C262 0.930 . S
H255 C263 0.930 . S
H256 C266 0.930 . S
H257 C267 0.930 . S
C258 H252 0.930 . S
C258 C259 1.355 1_455 S
C258 C260 1.415 . S
C259 C258 1.355 1_655 S
C259 C261 1.419 . S
C260 C258 1.415 . S
C260 C265 1.425 1_455 S
C260 C267 1.409 . S
C261 H253 0.930 . S
C261 C259 1.419 . S
C261 C262 1.362 . S
C262 H254 0.930 . S
C262 C261 1.362 . S
C262 C265 1.409 . S
C263 H255 0.930 . S
C263 C264 1.355 1_655 S
C263 C265 1.415 . S
C264 C263 1.355 1_455 S
C264 C266 1.419 . S
C265 C260 1.425 1_655 S
C265 C262 1.409 . S
C265 C263 1.415 . S
C266 H256 0.930 . S
C266 C264 1.419 . S
C266 C267 1.362 . S
C267 H257 0.930 . S
C267 C260 1.409 . S
C267 C266 1.362 . S
H268 C274 0.930 . S
H269 C277 0.930 . S
H270 C278 0.930 . S
H271 C279 0.930 . S
H272 C282 0.930 . S
H273 C283 0.930 . S
C274 H268 0.930 . S
C274 C275 1.355 . S
C274 C276 1.415 . S
C275 C274 1.355 . S
C275 C277 1.419 . S
C276 C274 1.415 . S
C276 C281 1.425 . S
C276 C283 1.409 . S
C277 H269 0.930 . S
C277 C275 1.419 . S
C277 C278 1.362 . S
C278 H270 0.930 . S
C278 C277 1.362 . S
C278 C281 1.409 . S
C279 H271 0.930 . S
C279 C280 1.355 . S
C279 C281 1.415 . S
C280 C279 1.355 . S
C280 C282 1.419 . S
C281 C276 1.425 . S
C281 C278 1.409 . S
C281 C279 1.415 . S
C282 H272 0.930 . S
C282 C280 1.419 . S
C282 C283 1.362 . S
C283 H273 0.930 . S
C283 C276 1.409 . S
C283 C282 1.362 . S
H284 C290 0.930 . S
H285 C293 0.930 . S
H286 C294 0.930 . S
H287 C295 0.930 . S
H288 C298 0.930 . S
H289 C299 0.930 . S
C290 H284 0.930 . S
C290 C291 1.355 1_545 S
C290 C292 1.415 . S
C291 C290 1.355 1_565 S
C291 C293 1.419 . S
C292 C290 1.415 . S
C292 C297 1.425 1_545 S
C292 C299 1.409 . S
C293 H285 0.930 . S
C293 C291 1.419 . S
C293 C294 1.362 . S
C294 H286 0.930 . S
C294 C293 1.362 . S
C294 C297 1.409 . S
C295 H287 0.930 . S
C295 C296 1.355 1_565 S
C295 C297 1.415 . S
C296 C295 1.355 1_545 S
C296 C298 1.419 . S
C297 C292 1.425 1_565 S
C297 C294 1.409 . S
C297 C295 1.415 . S
C298 H288 0.930 . S
C298 C296 1.419 . S
C298 C299 1.362 . S
C299 H289 0.930 . S
C299 C292 1.409 . S
C299 C298 1.362 . S
H300 C306 0.930 . S
H301 C309 0.930 . S
H302 C310 0.930 . S
H303 C311 0.930 . S
H304 C314 0.930 . S
H305 C315 0.930 . S
C306 H300 0.930 . S
C306 C307 1.355 . S
C306 C308 1.415 . S
C307 C306 1.355 . S
C307 C309 1.419 1_455 S
C308 C306 1.415 . S
C308 C313 1.425 1_455 S
C308 C315 1.409 . S
C309 H301 0.930 . S
C309 C307 1.419 1_655 S
C309 C310 1.362 . S
C310 H302 0.930 . S
C310 C309 1.362 . S
C310 C313 1.409 . S
C311 H303 0.930 . S
C311 C312 1.355 . S
C311 C313 1.415 . S
C312 C311 1.355 . S
C312 C314 1.419 1_655 S
C313 C308 1.425 1_655 S
C313 C310 1.409 . S
C313 C311 1.415 . S
C314 H304 0.930 . S
C314 C312 1.419 1_455 S
C314 C315 1.362 . S
C315 H305 0.930 . S
C315 C308 1.409 . S
C315 C314 1.362 . S
H316 C322 0.930 . S
H317 C325 0.930 . S
H318 C326 0.930 . S
H319 C327 0.930 . S
H320 C330 0.930 . S
H321 C331 0.930 . S
C322 H316 0.930 . S
C322 C323 1.355 . S
C322 C324 1.415 . S
C323 C322 1.355 . S
C323 C325 1.419 . S
C324 C322 1.415 . S
C324 C329 1.425 . S
C324 C331 1.409 . S
C325 H317 0.930 . S
C325 C323 1.419 . S
C325 C326 1.362 . S
C326 H318 0.930 . S
C326 C325 1.362 . S
C326 C329 1.409 . S
C327 H319 0.930 . S
C327 C328 1.355 . S
C327 C329 1.415 . S
C328 C327 1.355 . S
C328 C330 1.419 . S
C329 C324 1.425 . S
C329 C326 1.409 . S
C329 C327 1.415 . S
C330 H320 0.930 . S
C330 C328 1.419 . S
C330 C331 1.362 . S
C331 H321 0.930 . S
C331 C324 1.409 . S
C331 C330 1.362 . S
H332 C338 0.930 . S
H333 C341 0.930 . S
H334 C342 0.930 . S
H335 C343 0.930 . S
H336 C346 0.930 . S
H337 C347 0.930 . S
C338 H332 0.930 . S
C338 C339 1.355 . S
C338 C340 1.415 . S
C339 C338 1.355 . S
C339 C341 1.419 1_545 S
C340 C338 1.415 . S
C340 C345 1.425 1_545 S
C340 C347 1.409 . S
C341 H333 0.930 . S
C341 C339 1.419 1_565 S
C341 C342 1.362 . S
C342 H334 0.930 . S
C342 C341 1.362 . S
C342 C345 1.409 . S
C343 H335 0.930 . S
C343 C344 1.336 1_565 S
C343 C345 1.415 . S
C344 C343 1.336 1_545 S
C344 C346 1.445 . S
C345 C340 1.425 1_565 S
C345 C342 1.409 . S
C345 C343 1.415 . S
C346 H336 0.930 . S
C346 C344 1.445 . S
C346 C347 1.362 . S
C347 H337 0.930 . S
C347 C340 1.409 . S
C347 C346 1.362 . S
H348 C354 0.930 . S
H349 C357 0.930 . S
H350 C358 0.930 . S
H351 C359 0.930 . S
H352 C362 0.930 . S
H353 C363 0.930 . S
C354 H348 0.930 . S
C354 C355 1.355 . S
C354 C356 1.415 . S
C355 C354 1.355 . S
C355 C357 1.419 . S
C356 C354 1.415 . S
C356 C361 1.425 . S
C356 C363 1.409 . S
C357 H349 0.930 . S
C357 C355 1.419 . S
C357 C358 1.362 . S
C358 H350 0.930 . S
C358 C357 1.362 . S
C358 C361 1.409 . S
C359 H351 0.930 . S
C359 C360 1.355 . S
C359 C361 1.415 . S
C360 C359 1.355 . S
C360 C362 1.419 . S
C361 C356 1.425 . S
C361 C358 1.409 . S
C361 C359 1.415 . S
C362 H352 0.930 . S
C362 C360 1.419 . S
C362 C363 1.362 . S
C363 H353 0.930 . S
C363 C356 1.409 . S
C363 C362 1.362 . S
H364 C370 0.930 . S
H365 C373 0.930 . S
H366 C374 0.930 . S
H367 C375 0.930 . S
H368 C378 0.930 . S
H369 C379 0.930 . S
C370 H364 0.930 . S
C370 C371 1.355 . S
C370 C372 1.415 . S
C371 C370 1.355 . S
C371 C373 1.419 . S
C372 C370 1.415 . S
C372 C377 1.425 . S
C372 C379 1.409 . S
C373 H365 0.930 . S
C373 C371 1.419 . S
C373 C374 1.362 . S
C374 H366 0.930 . S
C374 C373 1.362 . S
C374 C377 1.409 . S
C375 H367 0.930 . S
C375 C376 1.355 . S
C375 C377 1.415 . S
C376 C375 1.355 . S
C376 C378 1.419 . S
C377 C372 1.425 . S
C377 C374 1.409 . S
C377 C375 1.415 . S
C378 H368 0.930 . S
C378 C376 1.419 . S
C378 C379 1.362 . S
C379 H369 0.930 . S
C379 C372 1.409 . S
C379 C378 1.362 . S
H380 C386 0.930 . S
H381 C389 0.930 . S
H382 C390 0.930 . S
H383 C391 0.930 . S
H384 C394 0.930 . S
H385 C395 0.930 . S
C386 H380 0.930 . S
C386 C387 1.355 . S
C386 C388 1.415 . S
C387 C386 1.355 . S
C387 C389 1.419 . S
C388 C386 1.415 . S
C388 C393 1.425 . S
C388 C395 1.409 . S
C389 H381 0.930 . S
C389 C387 1.419 . S
C389 C390 1.362 . S
C390 H382 0.930 . S
C390 C389 1.362 . S
C390 C393 1.409 . S
C391 H383 0.930 . S
C391 C392 1.355 . S
C391 C393 1.415 . S
C392 C391 1.355 . S
C392 C394 1.419 . S
C393 C388 1.425 . S
C393 C390 1.409 . S
C393 C391 1.415 . S
C394 H384 0.930 . S
C394 C392 1.419 . S
C394 C395 1.362 . S
C395 H385 0.930 . S
C395 C388 1.409 . S
C395 C394 1.362 . S
H396 C402 0.930 . S
H397 C405 0.930 . S
H398 C406 0.930 . S
H399 C407 0.930 . S
H400 C410 0.930 . S
H401 C411 0.930 . S
C402 H396 0.930 . S
C402 C403 1.355 . S
C402 C404 1.415 . S
C403 C402 1.355 . S
C403 C405 1.419 . S
C404 C402 1.415 . S
C404 C409 1.425 . S
C404 C411 1.409 . S
C405 H397 0.930 . S
C405 C403 1.419 . S
C405 C406 1.362 . S
C406 H398 0.930 . S
C406 C405 1.362 . S
C406 C409 1.409 . S
C407 H399 0.930 . S
C407 C408 1.355 1_554 S
C407 C409 1.415 . S
C408 C407 1.355 1_556 S
C408 C410 1.419 . S
C409 C404 1.425 . S
C409 C406 1.409 . S
C409 C407 1.415 . S
C410 H400 0.930 . S
C410 C408 1.419 . S
C410 C411 1.362 1_556 S
C411 H401 0.930 . S
C411 C404 1.409 . S
C411 C410 1.362 1_554 S
H412 C418 0.930 . S
H413 C421 0.930 1_556 S
H414 C422 0.930 . S
H415 C423 0.930 . S
H416 C426 0.930 . S
H417 C427 0.930 . S
C418 H412 0.930 . S
C418 C419 1.355 1_554 S
C418 C420 1.415 . S
C419 C418 1.355 1_556 S
C419 C421 1.419 1_556 S
C420 C418 1.415 . S
C420 C425 1.425 . S
C420 C427 1.409 . S
C421 H413 0.930 1_554 S
C421 C419 1.419 1_554 S
C421 C422 1.362 . S
C422 H414 0.930 . S
C422 C421 1.362 . S
C422 C425 1.409 . S
C423 H415 0.930 . S
C423 C424 1.355 . S
C423 C425 1.415 . S
C424 C423 1.355 . S
C424 C426 1.419 . S
C425 C420 1.425 . S
C425 C422 1.409 . S
C425 C423 1.415 . S
C426 H416 0.930 . S
C426 C424 1.419 . S
C426 C427 1.362 . S
C427 H417 0.930 . S
C427 C420 1.409 . S
C427 C426 1.362 . S
H428 C434 0.930 . S
H429 C437 0.930 1_556 S
H430 C438 0.930 . S
H431 C439 0.930 . S
H432 C442 0.930 . S
H433 C443 0.930 . S
C434 H428 0.930 . S
C434 C435 1.355 1_554 S
C434 C436 1.415 . S
C435 C434 1.355 1_556 S
C435 C437 1.419 1_556 S
C436 C434 1.415 . S
C436 C441 1.425 . S
C436 C443 1.409 . S
C437 H429 0.930 1_554 S
C437 C435 1.419 1_554 S
C437 C438 1.362 . S
C438 H430 0.930 . S
C438 C437 1.362 . S
C438 C441 1.409 . S
C439 H431 0.930 . S
C439 C440 1.355 . S
C439 C441 1.415 . S
C440 C439 1.355 . S
C440 C442 1.419 . S
C441 C436 1.425 . S
C441 C438 1.409 . S
C441 C439 1.415 . S
C442 H432 0.930 . S
C442 C440 1.419 . S
C442 C443 1.362 . S
C443 H433 0.930 . S
C443 C436 1.409 . S
C443 C442 1.362 . S
H444 C450 0.930 . S
H445 C453 0.930 1_554 S
H446 C454 0.930 . S
H447 C455 0.930 . S
H448 C458 0.930 . S
H449 C459 0.930 . S
C450 H444 0.930 . S
C450 C451 1.355 1_556 S
C450 C452 1.415 . S
C451 C450 1.355 1_554 S
C451 C453 1.419 1_554 S
C452 C450 1.415 . S
C452 C457 1.425 . S
C452 C459 1.409 . S
C453 H445 0.930 1_556 S
C453 C451 1.419 1_556 S
C453 C454 1.362 . S
C454 H446 0.930 . S
C454 C453 1.362 . S
C454 C457 1.409 . S
C455 H447 0.930 . S
C455 C456 1.355 . S
C455 C457 1.415 . S
C456 C455 1.355 . S
C456 C458 1.419 . S
C457 C452 1.425 . S
C457 C454 1.409 . S
C457 C455 1.415 . S
C458 H448 0.930 . S
C458 C456 1.419 . S
C458 C459 1.362 . S
C459 H449 0.930 . S
C459 C452 1.409 . S
C459 C458 1.362 . S
H460 C466 0.930 . S
H461 C469 0.930 . S
H462 C470 0.930 . S
H463 C471 0.930 . S
H464 C474 0.945 . S
H465 C475 0.930 . S
C466 H460 0.930 . S
C466 C467 1.355 . S
C466 C468 1.415 . S
C467 C466 1.355 . S
C467 C469 1.419 . S
C468 C466 1.415 . S
C468 C473 1.425 . S
C468 C475 1.409 . S
C469 H461 0.930 . S
C469 C467 1.419 . S
C469 C470 1.362 . S
C470 H462 0.930 . S
C470 C469 1.362 . S
C470 C473 1.409 . S
C471 H463 0.930 . S
C471 C472 1.355 1_556 S
C471 C473 1.415 . S
C472 C471 1.355 1_554 S
C472 C474 1.426 . S
C473 C468 1.425 . S
C473 C470 1.409 . S
C473 C471 1.415 . S
C474 H464 0.945 . S
C474 C472 1.426 . S
C474 C475 1.341 1_554 S
C475 H465 0.930 . S
C475 C468 1.409 . S
C475 C474 1.341 1_556 S
H476 C482 0.930 . S
H477 C485 0.930 1_554 S
H478 C486 0.930 . S
H479 C487 0.930 . S
H480 C490 0.930 . S
H481 C491 0.930 . S
C482 H476 0.930 . S
C482 C483 1.355 1_556 S
C482 C484 1.415 . S
C483 C482 1.355 1_554 S
C483 C485 1.419 1_554 S
C484 C482 1.415 . S
C484 C489 1.425 . S
C484 C491 1.409 . S
C485 H477 0.930 1_556 S
C485 C483 1.419 1_556 S
C485 C486 1.362 . S
C486 H478 0.930 . S
C486 C485 1.362 . S
C486 C489 1.409 . S
C487 H479 0.930 . S
C487 C488 1.355 . S
C487 C489 1.415 . S
C488 C487 1.355 . S
C488 C490 1.419 . S
C489 C484 1.425 . S
C489 C486 1.409 . S
C489 C487 1.415 . S
C490 H480 0.930 . S
C490 C488 1.419 . S
C490 C491 1.362 . S
C491 H481 0.930 . S
C491 C484 1.409 . S
C491 C490 1.362 . S
H492 C498 0.930 . S
H493 C501 0.930 . S
H494 C502 0.930 . S
H495 C503 0.930 . S
H496 C506 0.930 . S
H497 C507 0.930 . S
C498 H492 0.930 . S
C498 C499 1.355 . S
C498 C500 1.415 . S
C499 C498 1.355 . S
C499 C501 1.419 . S
C500 C498 1.415 . S
C500 C505 1.425 . S
C500 C507 1.409 . S
C501 H493 0.930 . S
C501 C499 1.419 . S
C501 C502 1.362 . S
C502 H494 0.930 . S
C502 C501 1.362 . S
C502 C505 1.409 . S
C503 H495 0.930 . S
C503 C504 1.355 . S
C503 C505 1.415 . S
C504 C503 1.355 . S
C504 C506 1.419 . S
C505 C500 1.425 . S
C505 C502 1.409 . S
C505 C503 1.415 . S
C506 H496 0.930 . S
C506 C504 1.419 . S
C506 C507 1.362 . S
C507 H497 0.930 . S
C507 C500 1.409 . S
C507 C506 1.362 . S
H508 C514 0.930 . S
H509 C517 0.930 . S
H510 C518 0.930 . S
H511 C519 0.930 . S
H512 C522 0.930 . S
H513 C523 0.930 . S
C514 H508 0.930 . S
C514 C515 1.355 . S
C514 C516 1.415 . S
C515 C514 1.355 . S
C515 C517 1.419 . S
C516 C514 1.415 . S
C516 C521 1.425 . S
C516 C523 1.409 . S
C517 H509 0.930 . S
C517 C515 1.419 . S
C517 C518 1.362 . S
C518 H510 0.930 . S
C518 C517 1.362 . S
C518 C521 1.409 . S
C519 H511 0.930 . S
C519 C520 1.355 . S
C519 C521 1.415 . S
C520 C519 1.355 . S
C520 C522 1.419 . S
C521 C516 1.425 . S
C521 C518 1.409 . S
C521 C519 1.415 . S
C522 H512 0.930 . S
C522 C520 1.419 . S
C522 C523 1.362 . S
C523 H513 0.930 . S
C523 C516 1.409 . S
C523 C522 1.362 . S
H524 C530 0.930 . S
H525 C533 0.930 . S
H526 C534 0.930 . S
H527 C535 0.930 . S
H528 C538 0.930 . S
H529 C539 0.930 . S
C530 H524 0.930 . S
C530 C531 1.355 . S
C530 C532 1.415 . S
C531 C530 1.355 . S
C531 C533 1.419 . S
C532 C530 1.415 . S
C532 C537 1.425 . S
C532 C539 1.409 . S
C533 H525 0.930 . S
C533 C531 1.419 . S
C533 C534 1.362 . S
C534 H526 0.930 . S
C534 C533 1.362 . S
C534 C537 1.409 . S
C535 H527 0.930 . S
C535 C536 1.355 . S
C535 C537 1.415 . S
C536 C535 1.355 . S
C536 C538 1.419 . S
C537 C532 1.425 . S
C537 C534 1.409 . S
C537 C535 1.415 . S
C538 H528 0.930 . S
C538 C536 1.419 . S
C538 C539 1.362 . S
C539 H529 0.930 . S
C539 C532 1.409 . S
C539 C538 1.362 . S
H540 C546 0.930 . S
H541 C549 0.955 . S
H542 C550 0.930 . S
H543 C551 0.930 . S
H544 C554 0.930 . S
H545 C555 0.930 . S
C546 H540 0.930 . S
C546 C547 1.355 . S
C546 C548 1.415 . S
C547 C546 1.355 . S
C547 C549 1.419 . S
C548 C546 1.415 . S
C548 C553 1.425 . S
C548 C555 1.409 . S
C549 H541 0.955 . S
C549 C547 1.419 . S
C549 C550 1.362 . S
C550 H542 0.930 . S
C550 C549 1.362 . S
C550 C553 1.409 . S
C551 H543 0.930 . S
C551 C552 1.355 . S
C551 C553 1.415 . S
C552 C551 1.355 . S
C552 C554 1.419 . S
C553 C548 1.425 . S
C553 C550 1.409 . S
C553 C551 1.415 . S
C554 H544 0.930 . S
C554 C552 1.419 . S
C554 C555 1.362 . S
C555 H545 0.930 . S
C555 C548 1.409 . S
C555 C554 1.362 . S
H556 C562 0.930 . S
H557 C565 0.930 . S
H558 C566 0.930 . S
H559 C567 0.930 . S
H560 C570 0.930 1_554 S
H561 C571 0.930 . S
C562 H556 0.930 . S
C562 C563 1.355 . S
C562 C564 1.415 . S
C563 C562 1.355 . S
C563 C565 1.419 . S
C564 C562 1.415 . S
C564 C569 1.425 . S
C564 C571 1.409 . S
C565 H557 0.930 . S
C565 C563 1.419 . S
C565 C566 1.362 . S
C566 H558 0.930 . S
C566 C565 1.362 . S
C566 C569 1.409 . S
C567 H559 0.930 . S
C567 C568 1.355 . S
C567 C569 1.415 . S
C568 C567 1.355 . S
C568 C570 1.419 . S
C569 C564 1.425 . S
C569 C566 1.409 . S
C569 C567 1.415 . S
C570 H560 0.930 1_556 S
C570 C568 1.419 . S
C570 C571 1.362 . S
C571 H561 0.930 . S
C571 C564 1.409 . S
C571 C570 1.362 . S
H572 C578 0.930 . S
H573 C581 0.930 . S
H574 C582 0.930 . S
H575 C583 0.930 . S
H576 C586 0.942 . S
H577 C587 0.930 . S
C578 H572 0.930 . S
C578 C579 1.355 . S
C578 C580 1.415 . S
C579 C578 1.355 . S
C579 C581 1.419 . S
C580 C578 1.415 . S
C580 C585 1.425 . S
C580 C587 1.409 . S
C581 H573 0.930 . S
C581 C579 1.419 . S
C581 C582 1.362 . S
C582 H574 0.930 . S
C582 C581 1.362 . S
C582 C585 1.409 . S
C583 H575 0.930 . S
C583 C584 1.355 . S
C583 C585 1.415 . S
C584 C583 1.355 . S
C584 C586 1.419 . S
C585 C580 1.425 . S
C585 C582 1.409 . S
C585 C583 1.415 . S
C586 H576 0.942 . S
C586 C584 1.419 . S
C586 C587 1.362 . S
C587 H577 0.930 . S
C587 C580 1.409 . S
C587 C586 1.362 . S
H588 C594 0.930 . S
H589 C597 0.930 . S
H590 C598 0.930 . S
H591 C599 0.930 . S
H592 C602 0.930 . S
H593 C603 0.930 . S
C594 H588 0.930 . S
C594 C595 1.355 . S
C594 C596 1.415 . S
C595 C594 1.355 . S
C595 C597 1.419 . S
C596 C594 1.415 . S
C596 C601 1.425 . S
C596 C603 1.409 . S
C597 H589 0.930 . S
C597 C595 1.419 . S
C597 C598 1.362 . S
C598 H590 0.930 . S
C598 C597 1.362 . S
C598 C601 1.409 . S
C599 H591 0.930 . S
C599 C600 1.355 . S
C599 C601 1.415 . S
C600 C599 1.355 . S
C600 C602 1.419 . S
C601 C596 1.425 . S
C601 C598 1.409 . S
C601 C599 1.415 . S
C602 H592 0.930 . S
C602 C600 1.419 . S
C602 C603 1.362 . S
C603 H593 0.930 . S
C603 C596 1.409 . S
C603 C602 1.362 . S
H604 C610 0.930 . S
H605 C613 0.930 . S
H606 C614 0.930 . S
H607 C615 0.930 . S
H608 C618 0.930 . S
H609 C619 0.930 . S
C610 H604 0.930 . S
C610 C611 1.355 . S
C610 C612 1.415 . S
C611 C610 1.355 . S
C611 C613 1.419 . S
C612 C610 1.415 . S
C612 C617 1.425 . S
C612 C619 1.409 . S
C613 H605 0.930 . S
C613 C611 1.419 . S
C613 C614 1.362 . S
C614 H606 0.930 . S
C614 C613 1.362 . S
C614 C617 1.409 . S
C615 H607 0.930 . S
C615 C616 1.355 . S
C615 C617 1.415 . S
C616 C615 1.355 . S
C616 C618 1.419 . S
C617 C612 1.425 . S
C617 C614 1.409 . S
C617 C615 1.415 . S
C618 H608 0.930 . S
C618 C616 1.419 . S
C618 C619 1.362 . S
C619 H609 0.930 . S
C619 C612 1.409 . S
C619 C618 1.362 . S
H620 C626 0.930 . S
H621 C629 0.930 . S
H622 C630 0.930 . S
H623 C631 0.930 . S
H624 C634 0.930 . S
H625 C635 0.930 . S
C626 H620 0.930 . S
C626 C627 1.355 . S
C626 C628 1.415 . S
C627 C626 1.355 . S
C627 C629 1.419 . S
C628 C626 1.415 . S
C628 C633 1.425 . S
C628 C635 1.409 . S
C629 H621 0.930 . S
C629 C627 1.419 . S
C629 C630 1.362 . S
C630 H622 0.930 . S
C630 C629 1.362 . S
C630 C633 1.409 . S
C631 H623 0.930 . S
C631 C632 1.355 . S
C631 C633 1.415 . S
C632 C631 1.355 . S
C632 C634 1.419 . S
C633 C628 1.425 . S
C633 C630 1.409 . S
C633 C631 1.415 . S
C634 H624 0.930 . S
C634 C632 1.419 . S
C634 C635 1.362 . S
C635 H625 0.930 . S
C635 C628 1.409 . S
C635 C634 1.362 . S
H636 C642 0.930 . S
H637 C645 0.930 . S
H638 C646 0.930 . S
H639 C647 0.930 . S
H640 C650 0.930 1_556 S
H641 C651 0.930 1_556 S
C642 H636 0.930 . S
C642 C643 1.355 . S
C642 C644 1.415 . S
C643 C642 1.355 . S
C643 C645 1.419 . S
C644 C642 1.415 . S
C644 C649 1.425 . S
C644 C651 1.409 . S
C645 H637 0.930 . S
C645 C643 1.419 . S
C645 C646 1.362 . S
C646 H638 0.930 . S
C646 C645 1.362 . S
C646 C649 1.409 . S
C647 H639 0.930 . S
C647 C648 1.355 . S
C647 C649 1.415 . S
C648 C647 1.355 . S
C648 C650 1.419 . S
C649 C644 1.425 . S
C649 C646 1.409 . S
C649 C647 1.415 . S
C650 H640 0.930 1_554 S
C650 C648 1.419 . S
C650 C651 1.362 . S
C651 H641 0.930 1_554 S
C651 C644 1.409 . S
C651 C650 1.362 . S
H652 C658 0.930 . S
H653 C661 0.930 . S
H654 C662 0.930 . S
H655 C663 0.930 . S
H656 C666 0.930 . S
H657 C667 0.930 . S
C658 H652 0.930 . S
C658 C659 1.355 . S
C658 C660 1.415 . S
C659 C658 1.355 . S
C659 C661 1.419 . S
C660 C658 1.415 . S
C660 C665 1.425 . S
C660 C667 1.409 . S
C661 H653 0.930 . S
C661 C659 1.419 . S
C661 C662 1.362 . S
C662 H654 0.930 . S
C662 C661 1.362 . S
C662 C665 1.409 . S
C663 H655 0.930 . S
C663 C664 1.355 . S
C663 C665 1.415 . S
C664 C663 1.355 . S
C664 C666 1.419 . S
C665 C660 1.425 . S
C665 C662 1.409 . S
C665 C663 1.415 . S
C666 H656 0.930 . S
C666 C664 1.419 . S
C666 C667 1.362 . S
C667 H657 0.930 . S
C667 C660 1.409 . S
C667 C666 1.362 . S
H668 C674 0.930 . S
H669 C677 0.930 . S
H670 C678 0.930 . S
H671 C679 0.930 . S
H672 C682 0.930 . S
H673 C683 0.930 . S
C674 H668 0.930 . S
C674 C675 1.355 . S
C674 C676 1.415 . S
C675 C674 1.355 . S
C675 C677 1.419 . S
C676 C674 1.415 . S
C676 C681 1.425 . S
C676 C683 1.409 . S
C677 H669 0.930 . S
C677 C675 1.419 . S
C677 C678 1.362 . S
C678 H670 0.930 . S
C678 C677 1.362 . S
C678 C681 1.409 . S
C679 H671 0.930 . S
C679 C680 1.355 . S
C679 C681 1.415 . S
C680 C679 1.355 . S
C680 C682 1.419 . S
C681 C676 1.425 . S
C681 C678 1.409 . S
C681 C679 1.415 . S
C682 H672 0.930 . S
C682 C680 1.419 . S
C682 C683 1.362 . S
C683 H673 0.930 . S
C683 C676 1.409 . S
C683 C682 1.362 . S
H684 C690 0.930 . S
H685 C693 0.930 . S
H686 C694 0.930 . S
H687 C695 0.930 . S
H688 C698 0.930 . S
H689 C699 0.930 . S
C690 H684 0.930 . S
C690 C691 1.355 . S
C690 C692 1.415 . S
C691 C690 1.355 . S
C691 C693 1.419 . S
C692 C690 1.415 . S
C692 C697 1.425 . S
C692 C699 1.409 . S
C693 H685 0.930 . S
C693 C691 1.419 . S
C693 C694 1.362 . S
C694 H686 0.930 . S
C694 C693 1.362 . S
C694 C697 1.409 . S
C695 H687 0.930 . S
C695 C696 1.355 . S
C695 C697 1.415 . S
C696 C695 1.355 . S
C696 C698 1.419 . S
C697 C692 1.425 . S
C697 C694 1.409 . S
C697 C695 1.415 . S
C698 H688 0.930 . S
C698 C696 1.419 . S
C698 C699 1.362 . S
C699 H689 0.930 . S
C699 C692 1.409 . S
C699 C698 1.362 . S
H700 C706 0.930 . S
H701 C709 0.930 . S
H702 C710 0.930 . S
H703 C711 0.930 . S
H704 C714 0.930 . S
H705 C715 0.930 . S
C706 H700 0.930 . S
C706 C707 1.355 . S
C706 C708 1.415 . S
C707 C706 1.355 . S
C707 C709 1.419 . S
C708 C706 1.415 . S
C708 C713 1.425 . S
C708 C715 1.409 . S
C709 H701 0.930 . S
C709 C707 1.419 . S
C709 C710 1.362 . S
C710 H702 0.930 . S
C710 C709 1.362 . S
C710 C713 1.409 . S
C711 H703 0.930 . S
C711 C712 1.355 . S
C711 C713 1.415 . S
C712 C711 1.355 . S
C712 C714 1.419 . S
C713 C708 1.425 . S
C713 C710 1.409 . S
C713 C711 1.415 . S
C714 H704 0.930 . S
C714 C712 1.419 . S
C714 C715 1.362 . S
C715 H705 0.930 . S
C715 C708 1.409 . S
C715 C714 1.362 . S
H716 C722 0.930 . S
H717 C725 0.930 . S
H718 C726 0.930 . S
H719 C727 0.930 . S
H720 C730 0.930 . S
H721 C731 0.930 . S
C722 H716 0.930 . S
C722 C723 1.355 . S
C722 C724 1.415 . S
C723 C722 1.355 . S
C723 C725 1.419 . S
C724 C722 1.415 . S
C724 C729 1.425 . S
C724 C731 1.409 . S
C725 H717 0.930 . S
C725 C723 1.419 . S
C725 C726 1.362 . S
C726 H718 0.930 . S
C726 C725 1.362 . S
C726 C729 1.409 . S
C727 H719 0.930 . S
C727 C728 1.355 . S
C727 C729 1.415 . S
C728 C727 1.355 . S
C728 C730 1.419 . S
C729 C724 1.425 . S
C729 C726 1.409 . S
C729 C727 1.415 . S
C730 H720 0.930 . S
C730 C728 1.419 . S
C730 C731 1.362 . S
C731 H721 0.930 . S
C731 C724 1.409 . S
C731 C730 1.362 . S
H732 C738 0.930 . S
H733 C741 0.930 . S
H734 C742 0.930 . S
H735 C743 0.930 . S
H736 C746 0.930 . S
H737 C747 0.930 . S
C738 H732 0.930 . S
C738 C739 1.355 . S
C738 C740 1.415 . S
C739 C738 1.355 . S
C739 C741 1.419 . S
C740 C738 1.415 . S
C740 C745 1.425 . S
C740 C747 1.409 . S
C741 H733 0.930 . S
C741 C739 1.419 . S
C741 C742 1.362 . S
C742 H734 0.930 . S
C742 C741 1.362 . S
C742 C745 1.409 . S
C743 H735 0.930 . S
C743 C744 1.355 . S
C743 C745 1.415 . S
C744 C743 1.355 . S
C744 C746 1.419 . S
C745 C740 1.425 . S
C745 C742 1.409 . S
C745 C743 1.415 . S
C746 H736 0.930 . S
C746 C744 1.419 . S
C746 C747 1.362 . S
C747 H737 0.930 . S
C747 C740 1.409 . S
C747 C746 1.362 . S
H748 C754 0.930 . S
H749 C757 0.930 . S
H750 C758 0.930 . S
H751 C759 0.930 . S
H752 C762 0.930 . S
H753 C763 0.930 . S
C754 H748 0.930 . S
C754 C755 1.355 . S
C754 C756 1.387 1_545 S
C755 C754 1.355 . S
C755 C757 1.419 . S
C756 C754 1.387 1_565 S
C756 C761 1.420 1_565 S
C756 C763 1.443 . S
C757 H749 0.930 . S
C757 C755 1.419 . S
C757 C758 1.362 . S
C758 H750 0.930 . S
C758 C757 1.362 . S
C758 C761 1.409 . S
C759 H751 0.930 . S
C759 C760 1.355 . S
C759 C761 1.415 1_565 S
C760 C759 1.355 . S
C760 C762 1.419 . S
C761 C756 1.420 1_545 S
C761 C758 1.409 . S
C761 C759 1.415 1_545 S
C762 H752 0.930 . S
C762 C760 1.419 . S
C762 C763 1.362 . S
C763 H753 0.930 . S
C763 C756 1.443 . S
C763 C762 1.362 . S
H764 C770 0.930 . S
H765 C773 0.930 . S
H766 C774 0.930 1_655 S
H767 C775 0.930 . S
H768 C778 0.930 . S
H769 C779 0.930 1_455 S
C770 H764 0.930 . S
C770 C771 1.355 . S
C770 C772 1.415 . S
C771 C770 1.355 . S
C771 C773 1.419 . S
C772 C770 1.415 . S
C772 C777 1.425 1_455 S
C772 C779 1.409 1_455 S
C773 H765 0.930 . S
C773 C771 1.419 . S
C773 C774 1.362 . S
C774 H766 0.930 1_455 S
C774 C773 1.362 . S
C774 C777 1.409 1_455 S
C775 H767 0.930 . S
C775 C776 1.355 . S
C775 C777 1.415 . S
C776 C775 1.355 . S
C776 C778 1.419 . S
C777 C772 1.425 1_655 S
C777 C774 1.409 1_655 S
C777 C775 1.415 . S
C778 H768 0.930 . S
C778 C776 1.419 . S
C778 C779 1.362 . S
C779 H769 0.930 1_655 S
C779 C772 1.409 1_655 S
C779 C778 1.362 . S
H780 C786 0.930 . S
H781 C789 0.930 . S
H782 C790 0.930 . S
H783 C791 0.930 . S
H784 C794 0.930 . S
H785 C795 0.930 . S
C786 H780 0.930 . S
C786 C787 1.355 . S
C786 C788 1.415 . S
C787 C786 1.355 . S
C787 C789 1.419 . S
C788 C786 1.415 . S
C788 C793 1.425 . S
C788 C795 1.409 . S
C789 H781 0.930 . S
C789 C787 1.419 . S
C789 C790 1.362 . S
C790 H782 0.930 . S
C790 C789 1.362 . S
C790 C793 1.409 . S
C791 H783 0.930 . S
C791 C792 1.355 . S
C791 C793 1.415 . S
C792 C791 1.355 . S
C792 C794 1.419 . S
C793 C788 1.425 . S
C793 C790 1.409 . S
C793 C791 1.415 . S
C794 H784 0.930 . S
C794 C792 1.419 . S
C794 C795 1.362 . S
C795 H785 0.930 . S
C795 C788 1.409 . S
C795 C794 1.362 . S
H796 C802 0.930 . S
H797 C805 0.930 . S
H798 C806 0.930 . S
H799 C807 0.930 . S
H800 C810 0.930 . S
H801 C811 0.930 . S
C802 H796 0.930 . S
C802 C803 1.355 . S
C802 C804 1.398 1_545 S
C803 C802 1.355 . S
C803 C805 1.419 . S
C804 C802 1.398 1_565 S
C804 C809 1.428 1_565 S
C804 C811 1.424 . S
C805 H797 0.930 . S
C805 C803 1.419 . S
C805 C806 1.362 . S
C806 H798 0.930 . S
C806 C805 1.362 . S
C806 C809 1.409 . S
C807 H799 0.930 . S
C807 C808 1.355 . S
C807 C809 1.415 1_565 S
C808 C807 1.355 . S
C808 C810 1.419 . S
C809 C804 1.428 1_545 S
C809 C806 1.409 . S
C809 C807 1.415 1_545 S
C810 H800 0.930 . S
C810 C808 1.419 . S
C810 C811 1.362 . S
C811 H801 0.930 . S
C811 C804 1.424 . S
C811 C810 1.362 . S
H812 C818 0.930 . S
H813 C821 0.930 . S
H814 C822 0.930 1_655 S
H815 C823 0.930 . S
H816 C826 0.930 . S
H817 C827 0.914 1_455 S
C818 H812 0.930 . S
C818 C819 1.355 . S
C818 C820 1.415 . S
C819 C818 1.355 . S
C819 C821 1.419 . S
C820 C818 1.415 . S
C820 C825 1.425 1_455 S
C820 C827 1.407 1_455 S
C821 H813 0.930 . S
C821 C819 1.419 . S
C821 C822 1.362 . S
C822 H814 0.930 1_455 S
C822 C821 1.362 . S
C822 C825 1.409 1_455 S
C823 H815 0.930 . S
C823 C824 1.355 . S
C823 C825 1.415 . S
C824 C823 1.355 . S
C824 C826 1.419 . S
C825 C820 1.425 1_655 S
C825 C822 1.409 1_655 S
C825 C823 1.415 . S
C826 H816 0.930 . S
C826 C824 1.419 . S
C826 C827 1.381 . S
C827 H817 0.914 1_655 S
C827 C820 1.407 1_655 S
C827 C826 1.381 . S
C259 C57 1.255 . S
C264 C1 1.255 . S
C275 C70 1.258 . S
C280 C14 1.257 . S
C291 C28 1.259 . S
C296 C43 1.259 . S
C307 C56 1.253 . S
C312 C0 1.253 . S
C323 C71 1.258 . S
C328 C15 1.258 . S
C339 C29 1.251 . S
C344 C42 1.248 1_545 S
C355 C153 1.259 . S
C360 C84 1.258 . S
C371 C155 1.259 . S
C376 C110 1.258 . S
C387 C112 1.252 . S
C392 C139 1.251 . S
C403 C85 1.251 . S
C408 C152 1.250 . S
C419 C154 1.259 . S
C424 C111 1.259 . S
C435 C138 1.251 . S
C440 C113 1.251 . S
C451 C237 1.255 . S
C456 C168 1.254 . S
C467 C182 1.252 . S
C472 C238 1.251 . S
C483 C211 1.257 . S
C488 C209 1.257 . S
C499 C236 1.259 . S
C504 C169 1.259 . S
C515 C239 1.257 . S
C520 C183 1.258 . S
C531 C208 1.258 . S
C536 C210 1.258 . S
C547 C13 1.521 . S
C552 C127 1.517 . S
C563 C141 1.529 . S
C568 C26 1.529 . S
C579 C167 1.521 . S
C584 C40 1.521 . S
C595 C55 1.526 . S
C600 C180 1.526 . S
C611 C194 1.529 . S
C616 C69 1.529 . S
C627 C197 1.520 . S
C632 C82 1.520 . S
C643 C222 1.529 . S
C648 C12 1.533 . S
C659 C224 1.518 . S
C664 C27 1.518 . S
C675 C251 1.525 . S
C680 C41 1.526 . S
C691 C54 1.528 . S
C696 C97 1.528 . S
C707 C68 1.526 . S
C712 C99 1.526 . S
C723 C125 1.516 . S
C728 C83 1.516 . S
C739 C223 1.523 . S
C744 C96 1.523 . S
C755 C225 1.516 . S
C760 C98 1.516 . S
C771 C124 1.523 . S
C776 C250 1.524 . S
C787 C181 1.516 . S
C792 C126 1.516 . S
C803 C195 1.516 . S
C808 C140 1.516 . S
C819 C166 1.527 . S
C824 C196 1.527 . S
