# Generated by pormake.
# Topology uov, (4)-cn, num edge types: 1
# Building blocks:
#     Node 0, Type 0, BuildingBlock: KUFVIS_clean_sbu_0, # of connection points: 4
#     Node 1, Type 0, BuildingBlock: KUFVIS_clean_sbu_0, # of connection points: 4
#     Node 2, Type 0, BuildingBlock: KUFVIS_clean_sbu_0, # of connection points: 4
#     Node 3, Type 0, BuildingBlock: KUFVIS_clean_sbu_0, # of connection points: 4
#     Node 4, Type 0, BuildingBlock: KUFVIS_clean_sbu_0, # of connection points: 4
#     Node 5, Type 0, BuildingBlock: KUFVIS_clean_sbu_0, # of connection points: 4
#     Node 6, Type 0, BuildingBlock: KUFVIS_clean_sbu_0, # of connection points: 4
#     Node 7, Type 0, BuildingBlock: KUFVIS_clean_sbu_0, # of connection points: 4
#     Edge 8, Type (0, 0), BuildingBlock: AJUNOK_clean_linker_0, # of connection points: 2
#     Edge 9, Type (0, 0), BuildingBlock: AJUNOK_clean_linker_0, # of connection points: 2
#     Edge 10, Type (0, 0), BuildingBlock: AJUNOK_clean_linker_0, # of connection points: 2
#     Edge 11, Type (0, 0), BuildingBlock: AJUNOK_clean_linker_0, # of connection points: 2
#     Edge 12, Type (0, 0), BuildingBlock: AJUNOK_clean_linker_0, # of connection points: 2
#     Edge 13, Type (0, 0), BuildingBlock: AJUNOK_clean_linker_0, # of connection points: 2
#     Edge 14, Type (0, 0), BuildingBlock: AJUNOK_clean_linker_0, # of connection points: 2
#     Edge 15, Type (0, 0), BuildingBlock: AJUNOK_clean_linker_0, # of connection points: 2
#     Edge 16, Type (0, 0), BuildingBlock: AJUNOK_clean_linker_0, # of connection points: 2
#     Edge 17, Type (0, 0), BuildingBlock: AJUNOK_clean_linker_0, # of connection points: 2
#     Edge 18, Type (0, 0), BuildingBlock: AJUNOK_clean_linker_0, # of connection points: 2
#     Edge 19, Type (0, 0), BuildingBlock: AJUNOK_clean_linker_0, # of connection points: 2
#     Edge 20, Type (0, 0), BuildingBlock: AJUNOK_clean_linker_0, # of connection points: 2
#     Edge 21, Type (0, 0), BuildingBlock: AJUNOK_clean_linker_0, # of connection points: 2
#     Edge 22, Type (0, 0), BuildingBlock: AJUNOK_clean_linker_0, # of connection points: 2
#     Edge 23, Type (0, 0), BuildingBlock: AJUNOK_clean_linker_0, # of connection points: 2
# Relax obj value: 0.168
# Max RMSD: 0.188
# Mean RMSD: 0.181
data_MOF--net-uov--node1-KUFVIS_clean_sbu_0--edge1-AJUNOK_clean_linker_0
_symmetry_space_group_name_H-M    P1
_symmetry_Int_Tables_number       1
_symmetry_cell_setting            triclinic
loop_
_symmetry_equiv_pos_as_xyz
'x, y, z'
_cell_length_a     21.353604
_cell_length_b     22.241668
_cell_length_c     30.692441
_cell_angle_alpha  89.96826
_cell_angle_beta   90.093184
_cell_angle_gamma 91.649435
loop_
_atom_site_label
_atom_site_type_symbol
_atom_site_fract_x
_atom_site_fract_y
_atom_site_fract_z
_atom_type_partial_charge
Mn0 Mn 0.05922 0.26073 0.60219 0.0
Mn1 Mn 0.93951 0.26207 0.67326 0.0
C2 C 0.95888 0.26568 0.575 0.0
C3 C 0.12838 0.2071 0.56003 0.0
C4 C 0.0162 0.37367 0.6496 0.0
O5 O 0.09923 0.23161 0.65743 0.0
O6 O 0.0183 0.2372 0.70364 0.0
C7 C 0.93051 0.13188 0.6942 0.0
N8 N 0.90342 0.18274 0.67931 0.0
C9 C 0.80283 0.13167 0.67384 0.0
C10 C 0.82963 0.07887 0.68922 0.0
C11 C 0.89376 0.07899 0.69941 0.0
C12 C 0.84162 0.18324 0.66985 0.0
H13 H 0.97968 0.13163 0.70234 0.0
C14 C 0.07532 0.22507 0.69499 0.0
O15 O 0.14221 0.26204 0.57174 0.0
O16 O 0.07602 0.1833 0.57359 0.0
N17 N 0.86017 0.28312 0.64957 0.0
C18 C 0.84236 0.33665 0.63265 0.0
C19 C 0.77993 0.34333 0.61948 0.0
C20 C 0.73652 0.29507 0.62409 0.0
C21 C 0.75606 0.24031 0.64121 0.0
C22 C 0.81872 0.23638 0.65404 0.0
H23 H 0.87555 0.37392 0.62925 0.0
O24 O 0.00772 0.28363 0.55307 0.0
O25 O 0.97034 0.24339 0.61388 0.0
O26 O 0.05518 0.34776 0.62482 0.0
O27 O 0.9716 0.34587 0.66938 0.0
C28 C 0.71596 0.18921 0.64544 0.0
C29 C 0.73932 0.13495 0.6618 0.0
H30 H 0.80148 0.03796 0.69315 0.0
H31 H 0.91478 0.03843 0.71137 0.0
H32 H 0.76521 0.38564 0.60602 0.0
H33 H 0.68829 0.30037 0.61438 0.0
H34 H 0.66724 0.19097 0.63575 0.0
H35 H 0.70818 0.09581 0.66454 0.0
Mn36 Mn 0.25212 0.93594 0.41816 0.0
Mn37 Mn 0.33107 0.80818 0.41006 0.0
C38 C 0.21555 0.85219 0.45658 0.0
C39 C 0.23832 0.02803 0.45287 0.0
C40 C 0.24447 0.85334 0.33901 0.0
O41 O 0.33569 0.96409 0.39343 0.0
O42 O 0.38835 0.87848 0.39729 0.0
C43 C 0.41678 0.8279 0.48503 0.0
N44 N 0.37246 0.79328 0.46414 0.0
C45 C 0.37353 0.71892 0.52109 0.0
C46 C 0.41947 0.75356 0.54307 0.0
C47 C 0.44096 0.80843 0.52504 0.0
C48 C 0.35043 0.74112 0.4817 0.0
H49 H 0.43337 0.87017 0.47136 0.0
C50 C 0.38604 0.9352 0.39031 0.0
O51 O 0.21851 0.01863 0.4133 0.0
O52 O 0.26785 0.98477 0.47124 0.0
N53 N 0.28325 0.73596 0.42191 0.0
C54 C 0.24169 0.70607 0.39528 0.0
C55 C 0.21717 0.64939 0.40785 0.0
C56 C 0.23635 0.62355 0.44727 0.0
C57 C 0.28086 0.65411 0.47335 0.0
C58 C 0.30413 0.7102 0.45892 0.0
H59 H 0.22733 0.7251 0.36463 0.0
O60 O 0.17914 0.89574 0.4465 0.0
O61 O 0.27314 0.8587 0.44278 0.0
O62 O 0.22561 0.89873 0.36008 0.0
O63 O 0.28698 0.81899 0.35333 0.0
C64 C 0.30372 0.63069 0.51274 0.0
C65 C 0.3499 0.66314 0.53665 0.0
H66 H 0.43848 0.73852 0.57381 0.0
H67 H 0.47619 0.83557 0.5419 0.0
H68 H 0.18362 0.62567 0.38718 0.0
H69 H 0.21717 0.57995 0.45693 0.0
H70 H 0.28635 0.58761 0.52485 0.0
H71 H 0.36726 0.64454 0.56681 0.0
Mn72 Mn 0.95561 0.74847 0.60665 0.0
Mn73 Mn 0.0693 0.74638 0.68267 0.0
C74 C 0.05828 0.7543 0.58447 0.0
C75 C 0.88573 0.80531 0.56695 0.0
C76 C 0.99937 0.63386 0.6506 0.0
O77 O 0.90914 0.76484 0.66244 0.0
O78 O 0.98853 0.76999 0.71058 0.0
C79 C 0.07754 0.87507 0.70778 0.0
N80 N 0.10518 0.82518 0.69183 0.0
C81 C 0.20533 0.87734 0.68786 0.0
C82 C 0.17798 0.92911 0.70442 0.0
C83 C 0.11375 0.92804 0.71421 0.0
C84 C 0.16701 0.8257 0.68241 0.0
H85 H 0.02826 0.87454 0.71562 0.0
C86 C 0.93071 0.77601 0.7003 0.0
O87 O 0.87572 0.74776 0.57202 0.0
O88 O 0.93497 0.82921 0.58526 0.0
N89 N 0.14952 0.7267 0.65977 0.0
C90 C 0.16785 0.67433 0.64133 0.0
C91 C 0.23001 0.66933 0.62723 0.0
C92 C 0.27271 0.71802 0.63246 0.0
C93 C 0.25278 0.77146 0.65141 0.0
C94 C 0.19028 0.77386 0.66486 0.0
H95 H 0.13521 0.63681 0.63714 0.0
O96 O 0.01359 0.73804 0.558 0.0
O97 O 0.04112 0.76914 0.62391 0.0
O98 O 0.96494 0.65929 0.62236 0.0
O99 O 0.03736 0.66255 0.67575 0.0
C100 C 0.29233 0.8227 0.65695 0.0
C101 C 0.26869 0.87553 0.67532 0.0
H102 H 0.20569 0.97011 0.70912 0.0
H103 H 0.09222 0.96799 0.72668 0.0
H104 H 0.245 0.62803 0.6124 0.0
H105 H 0.32068 0.71405 0.62177 0.0
H106 H 0.34088 0.82212 0.64681 0.0
H107 H 0.29937 0.91485 0.67898 0.0
Mn108 Mn 0.75781 0.07068 0.41835 0.0
Mn109 Mn 0.67989 0.1988 0.40482 0.0
C110 C 0.79841 0.15873 0.44897 0.0
C111 C 0.77348 0.98282 0.45791 0.0
C112 C 0.76476 0.14769 0.33562 0.0
O113 O 0.67253 0.04031 0.39787 0.0
O114 O 0.62334 0.12761 0.39357 0.0
C115 C 0.5949 0.18101 0.48025 0.0
N116 N 0.63913 0.21503 0.45884 0.0
C117 C 0.63929 0.29033 0.5151 0.0
C118 C 0.59363 0.2562 0.53768 0.0
C119 C 0.5716 0.20114 0.52027 0.0
C120 C 0.66207 0.26714 0.47599 0.0
H121 H 0.57765 0.13872 0.467 0.0
C122 C 0.62364 0.07022 0.39098 0.0
O123 O 0.7899 0.98706 0.41722 0.0
O124 O 0.74635 0.02862 0.47478 0.0
N125 N 0.7259 0.27259 0.41463 0.0
C126 C 0.7599 0.30523 0.38484 0.0
C127 C 0.78161 0.36365 0.39535 0.0
C128 C 0.76703 0.38849 0.436 0.0
C129 C 0.7282 0.35584 0.46481 0.0
C130 C 0.7072 0.29813 0.45223 0.0
H131 H 0.77036 0.28696 0.35319 0.0
O132 O 0.83336 0.11315 0.44174 0.0
O133 O 0.73954 0.15108 0.43835 0.0
O134 O 0.77998 0.10144 0.35744 0.0
O135 O 0.7248 0.18543 0.34893 0.0
C136 C 0.70644 0.37981 0.50425 0.0
C137 C 0.66214 0.34701 0.52943 0.0
H138 H 0.57494 0.27197 0.56827 0.0
H139 H 0.53644 0.17448 0.53753 0.0
H140 H 0.80965 0.38938 0.37222 0.0
H141 H 0.78394 0.43352 0.44403 0.0
H142 H 0.72219 0.42413 0.51495 0.0
H143 H 0.64477 0.36652 0.55922 0.0
Mn144 Mn 0.93679 0.26205 0.09384 0.0
Mn145 Mn 0.05712 0.25788 0.16422 0.0
C146 C 0.03869 0.25784 0.0686 0.0
C147 C 0.86552 0.21011 0.04959 0.0
C148 C 0.989 0.37196 0.14269 0.0
O149 O 0.89317 0.23796 0.15094 0.0
O150 O 0.9781 0.23207 0.19432 0.0
C151 C 0.05696 0.12552 0.17523 0.0
N152 N 0.08794 0.1779 0.16468 0.0
C153 C 0.18019 0.12468 0.1447 0.0
C154 C 0.14996 0.07047 0.15687 0.0
C155 C 0.08795 0.07088 0.17198 0.0
C156 C 0.14733 0.17792 0.14942 0.0
H157 H 0.00857 0.12524 0.18518 0.0
C158 C 0.91886 0.22619 0.18757 0.0
O159 O 0.85559 0.26546 0.06068 0.0
O160 O 0.91319 0.18456 0.06679 0.0
N161 N 0.13583 0.28054 0.13824 0.0
C162 C 0.15601 0.33569 0.12375 0.0
C163 C 0.21573 0.34237 0.105 0.0
C164 C 0.25398 0.29234 0.10122 0.0
C165 C 0.23226 0.23607 0.11641 0.0
C166 C 0.17268 0.23227 0.13541 0.0
H167 H 0.12655 0.37419 0.12607 0.0
O168 O 0.99505 0.27861 0.04391 0.0
O169 O 0.02093 0.24148 0.10732 0.0
O170 O 0.95063 0.3484 0.11519 0.0
O171 O 0.02932 0.34221 0.164 0.0
C172 C 0.26676 0.18332 0.1124 0.0
C173 C 0.24075 0.12767 0.12653 0.0
H174 H 0.17336 0.02812 0.15374 0.0
H175 H 0.06378 0.02907 0.18047 0.0
H176 H 0.232 0.38587 0.0931 0.0
H177 H 0.29966 0.29752 0.08615 0.0
H178 H 0.31291 0.18487 0.09776 0.0
H179 H 0.26722 0.08724 0.12244 0.0
Mn180 Mn 0.25583 0.06307 0.91427 0.0
Mn181 Mn 0.24459 0.95339 0.83904 0.0
C182 C 0.25256 0.96374 0.93578 0.0
C183 C 0.20668 0.12923 0.96055 0.0
C184 C 0.36685 0.01807 0.86202 0.0
O185 O 0.22691 0.10786 0.86058 0.0
O186 O 0.21976 0.03158 0.81252 0.0
C187 C 0.10692 0.95154 0.82566 0.0
N188 N 0.15986 0.92283 0.83752 0.0
C189 C 0.10074 0.8315 0.8528 0.0
C190 C 0.04576 0.86001 0.84053 0.0
C191 C 0.04888 0.92021 0.82677 0.0
C192 C 0.15739 0.86466 0.8504 0.0
H193 H 0.10885 0.99794 0.81531 0.0
C194 C 0.213 0.08693 0.82305 0.0
O195 O 0.26419 0.13993 0.94828 0.0
O196 O 0.17794 0.08207 0.94482 0.0
N197 N 0.26505 0.87583 0.86118 0.0
C198 C 0.32183 0.85568 0.87414 0.0
C199 C 0.32626 0.79681 0.89014 0.0
C200 C 0.27241 0.75923 0.89257 0.0
C201 C 0.21456 0.78083 0.87888 0.0
C202 C 0.21302 0.83981 0.86297 0.0
H203 H 0.36334 0.88447 0.8728 0.0
O204 O 0.27605 0.00516 0.96121 0.0
O205 O 0.23131 0.98219 0.89843 0.0
O206 O 0.34409 0.05419 0.88975 0.0
O207 O 0.3338 0.98035 0.83978 0.0
C208 C 0.15818 0.7465 0.88118 0.0
C209 C 0.10133 0.77177 0.86807 0.0
H210 H 1.00085 0.8363 0.84198 0.0
H211 H 0.00656 0.94235 0.81722 0.0
H212 H 0.37103 0.78057 0.90086 0.0
H213 H 0.27594 0.71402 0.9053 0.0
H214 H 0.15792 0.70078 0.89338 0.0
H215 H 0.0582 0.7451 0.87033 0.0
Mn216 Mn 0.06898 0.74179 0.09618 0.0
Mn217 Mn 0.95238 0.74695 0.1693 0.0
C218 C 0.96619 0.74836 0.07315 0.0
C219 C 0.13961 0.7929 0.05111 0.0
C220 C 0.01627 0.63182 0.14462 0.0
O221 O 0.11588 0.76341 0.1525 0.0
O222 O 0.03352 0.77005 0.19804 0.0
C223 C 0.95618 0.8787 0.18391 0.0
N224 N 0.92388 0.82769 0.17176 0.0
C225 C 0.8327 0.88405 0.15402 0.0
C226 C 0.86463 0.93696 0.16717 0.0
C227 C 0.92668 0.93426 0.1821 0.0
C228 C 0.8642 0.82982 0.15716 0.0
H229 H 0.00432 0.87716 0.1944 0.0
C230 C 0.09248 0.77443 0.18991 0.0
O231 O 0.14846 0.73705 0.06141 0.0
O232 O 0.09343 0.8193 0.06945 0.0
N233 N 0.87189 0.72705 0.14476 0.0
C234 C 0.84922 0.67271 0.13033 0.0
C235 C 0.78858 0.66816 0.11265 0.0
C236 C 0.75198 0.71948 0.10987 0.0
C237 C 0.77621 0.77487 0.12507 0.0
C238 C 0.83664 0.77652 0.14293 0.0
H239 H 0.87738 0.63322 0.13187 0.0
O240 O 0.00832 0.72744 0.0474 0.0
O241 O 0.98593 0.76408 0.11165 0.0
O242 O 0.05398 0.65529 0.11676 0.0
O243 O 0.97774 0.66185 0.16719 0.0
C244 C 0.74329 0.82872 0.12229 0.0
C245 C 0.7715 0.88327 0.13676 0.0
H246 H 0.8423 0.98002 0.16531 0.0
H247 H 0.95191 0.97502 0.19177 0.0
H248 H 0.77034 0.62532 0.10079 0.0
H249 H 0.70555 0.71594 0.09566 0.0
H250 H 0.69655 0.82884 0.10851 0.0
H251 H 0.74606 0.92452 0.13385 0.0
Mn252 Mn 0.74705 0.93838 0.91658 0.0
Mn253 Mn 0.75648 0.04562 0.83932 0.0
C254 C 0.74973 0.03839 0.93609 0.0
C255 C 0.79611 0.87448 0.96499 0.0
C256 C 0.6349 0.98176 0.86387 0.0
O257 O 0.77727 0.89203 0.86406 0.0
O258 O 0.77812 0.96603 0.81388 0.0
C259 C 0.89282 0.0445 0.82125 0.0
N260 N 0.84169 0.07421 0.83533 0.0
C261 C 0.90358 0.16488 0.84708 0.0
C262 C 0.95679 0.13515 0.83282 0.0
C263 C 0.95134 0.07484 0.81966 0.0
C264 C 0.84627 0.13266 0.84728 0.0
H265 H 0.8891 0.99812 0.81104 0.0
C266 C 0.78701 0.91146 0.82553 0.0
O267 O 0.73894 0.86284 0.95225 0.0
O268 O 0.8247 0.92118 0.94847 0.0
N269 N 0.73898 0.1244 0.86039 0.0
C270 C 0.68337 0.14634 0.87399 0.0
C271 C 0.6812 0.20582 0.88909 0.0
C272 C 0.73607 0.24218 0.88986 0.0
C273 C 0.79266 0.21876 0.87542 0.0
C274 C 0.79198 0.15916 0.86068 0.0
H275 H 0.64114 0.11845 0.87389 0.0
O276 O 0.72576 0.99783 0.96202 0.0
O277 O 0.77132 0.01885 0.89917 0.0
O278 O 0.65863 0.94527 0.89106 0.0
O279 O 0.66712 0.02051 0.8421 0.0
C280 C 0.84987 0.25196 0.87564 0.0
C281 C 0.90524 0.22512 0.86131 0.0
H282 H 1.00208 0.15807 0.83183 0.0
H283 H 0.9922 0.05191 0.80827 0.0
H284 H 0.63741 0.22349 0.90036 0.0
H285 H 0.73426 0.28792 0.90179 0.0
H286 H 0.85184 0.29812 0.8869 0.0
H287 H 0.94892 0.2511 0.86164 0.0
C288 C 0.00834 0.5356 0.61212 0.0
C289 C 1.00129 0.5674 0.65134 0.0
C290 C 0.01654 0.47315 0.61208 0.0
C291 C 0.01661 0.44013 0.65119 0.0
H292 H 0.00882 0.55935 0.58128 0.0
H293 H 0.02099 0.45028 0.58112 0.0
S294 S 0.99941 0.50202 0.76248 0.0
N295 N 0.99608 0.56142 0.73028 0.0
N296 N 0.00838 0.44364 0.73003 0.0
C297 C 0.00908 0.4713 0.69055 0.0
C298 C 1.00238 0.53505 0.69067 0.0
C299 C 0.56065 0.97329 0.38739 0.0
C300 C 0.56313 0.03649 0.38377 0.0
C301 C 0.50348 0.94075 0.38707 0.0
C302 C 0.44599 0.96982 0.3831 0.0
H303 H 0.60307 0.94857 0.39229 0.0
H304 H 0.50453 0.89253 0.39182 0.0
S305 S 0.42665 0.13391 0.36654 0.0
N306 N 0.50295 0.12637 0.37155 0.0
N307 N 0.39571 0.06536 0.37088 0.0
C308 C 0.44792 0.03266 0.37664 0.0
C309 C 0.50629 0.06587 0.377 0.0
C310 C 0.99443 0.47147 0.10627 0.0
C311 C 0.9932 0.43817 0.14521 0.0
C312 C 1.00367 0.53397 0.10667 0.0
C313 C 0.01051 0.56567 0.14606 0.0
H314 H 0.98977 0.44886 0.07512 0.0
H315 H 0.0044 0.55784 0.07587 0.0
S316 S 0.00929 0.49981 0.25695 0.0
N317 N 0.99992 0.44122 0.22422 0.0
N318 N 0.01427 0.55965 0.22503 0.0
C319 C 0.00822 0.53322 0.18531 0.0
C320 C 1.00054 0.46916 0.18486 0.0
C321 C 0.4693 0.00685 0.82291 0.0
C322 C 0.4354 0.01095 0.862 0.0
C323 C 0.53401 0.99633 0.82339 0.0
C324 C 0.56603 0.98682 0.86285 0.0
H325 H 0.44584 0.01258 0.79193 0.0
H326 H 0.55911 0.99537 0.79276 0.0
S327 S 0.49752 0.99026 0.97381 0.0
N328 N 0.43819 1.00356 0.94098 0.0
N329 N 0.55872 0.98191 0.94181 0.0
C330 C 0.53212 0.98948 0.90197 0.0
C331 C 0.46706 1.00194 0.90155 0.0
C332 C 0.17699 0.12148 0.46093 0.0
C333 C 0.22123 0.08206 0.47804 0.0
C334 C 0.15045 0.16565 0.48712 0.0
C335 C 0.16806 0.17255 0.53094 0.0
H336 H 0.15981 0.11594 0.42791 0.0
H337 H 0.11342 0.19238 0.47367 0.0
S338 S 0.2857 0.08556 0.59066 0.0
N339 N 0.28492 0.05657 0.54112 0.0
N340 N 0.23446 0.13978 0.58987 0.0
C341 C 0.21479 0.13634 0.54779 0.0
C342 C 0.24172 0.09112 0.52136 0.0
C343 C 0.17375 0.76038 0.49473 0.0
C344 C 0.19856 0.81921 0.49696 0.0
C345 C 0.13772 0.73556 0.52867 0.0
C346 C 0.11891 0.77099 0.56406 0.0
H347 H 0.17562 0.73558 0.46481 0.0
H348 H 0.1169 0.69099 0.52398 0.0
S349 S 0.16564 0.93069 0.58293 0.0
N350 N 0.20472 0.91159 0.53899 0.0
N351 N 0.12516 0.86969 0.59764 0.0
C352 C 0.14405 0.8298 0.56724 0.0
C353 C 0.18606 0.85292 0.53469 0.0
C354 C 0.80195 0.94277 0.53056 0.0
C355 C 0.79203 0.93213 0.48585 0.0
C356 C 0.82907 0.89962 0.55717 0.0
C357 C 0.84524 0.84342 0.54054 0.0
H358 H 0.79231 0.98617 0.5447 0.0
H359 H 0.83987 0.91131 0.59066 0.0
S360 S 0.82343 0.79062 0.42696 0.0
N361 N 0.79711 0.85978 0.42665 0.0
N362 N 0.84606 0.77751 0.47753 0.0
C363 C 0.83194 0.83045 0.49669 0.0
C364 C 0.80583 0.87517 0.4691 0.0
C365 C 0.8203 0.17863 0.52652 0.0
C366 C 0.8204 0.20034 0.48343 0.0
C367 C 0.86219 0.20248 0.55781 0.0
C368 C 0.90114 0.25288 0.54871 0.0
H369 H 0.79379 0.13781 0.53451 0.0
H370 H 0.86897 0.1769 0.58711 0.0
S371 S 0.92018 0.32558 0.44054 0.0
N372 N 0.86926 0.26957 0.4322 0.0
N373 N 0.9337 0.32595 0.49342 0.0
C374 C 0.8965 0.27875 0.50672 0.0
C375 C 0.85981 0.24971 0.47354 0.0
C376 C 0.83824 0.10744 0.95425 0.0
C377 C 0.77359 0.0947 0.95598 0.0
C378 C 0.8665 0.14869 0.98292 0.0
C379 C 0.8312 0.17865 0.01439 0.0
H380 H 0.86804 0.08188 0.93305 0.0
H381 H 0.91706 0.15463 0.9821 0.0
S382 S 0.65945 0.16582 0.02916 0.0
N383 N 0.67414 0.11845 0.98921 0.0
N384 N 0.7277 0.19727 0.04305 0.0
C385 C 0.76596 0.16996 0.01436 0.0
C386 C 0.73707 0.12728 0.98529 0.0
C387 C 0.13774 0.1359 0.02449 0.0
C388 C 0.17464 0.16587 0.99299 0.0
C389 C 0.09719 0.16727 0.05115 0.0
C390 C 0.09212 0.22982 0.0474 0.0
H391 H 0.13823 0.08733 0.02731 0.0
H392 H 0.06688 0.14177 0.0731 0.0
S393 S 0.1805 0.32968 0.97135 0.0
N394 N 0.20613 0.26179 0.96076 0.0
N395 N 0.12833 0.32112 1.01078 0.0
C396 C 0.13037 0.2608 0.01718 0.0
C397 C 0.17251 0.22875 0.99021 0.0
C398 C 0.1369 0.85398 0.98432 0.0
C399 C 0.17301 0.82406 0.01544 0.0
C400 C 0.16444 0.89511 0.95527 0.0
C401 C 0.22916 0.90772 0.95625 0.0
H402 H 0.08632 0.84811 0.98407 0.0
H403 H 0.13413 0.92064 0.93432 0.0
S404 S 0.34511 0.83696 0.02849 0.0
N405 N 0.27722 0.80556 0.04314 0.0
N406 N 0.32943 0.88416 0.98857 0.0
C407 C 0.26641 0.87531 0.98529 0.0
C408 C 0.23825 0.83275 0.01476 0.0
C409 C 0.86587 0.86954 0.02904 0.0
C410 C 0.82818 0.83884 0.99823 0.0
C411 C 0.90672 0.83871 0.05603 0.0
C412 C 0.9115 0.77605 0.05311 0.0
H413 H 0.86587 0.91821 0.03094 0.0
H414 H 0.93773 0.86462 0.07732 0.0
S415 S 0.82014 0.67429 0.97993 0.0
N416 N 0.79483 0.74202 0.96832 0.0
N417 N 0.8735 0.68384 0.01857 0.0
C418 C 0.87212 0.74439 0.02389 0.0
C419 C 0.82954 0.77584 0.99676 0.0
C420 C 0.14992 0.14573 0.7157 0.0
C421 C 0.11347 0.19451 0.72835 0.0
C422 C 0.18321 0.11244 0.74633 0.0
C423 C 0.18257 0.12711 0.79091 0.0
H424 H 0.15119 0.13183 0.68188 0.0
H425 H 0.20922 0.07446 0.73495 0.0
S426 S 0.09909 0.2548 0.84031 0.0
N427 N 0.08123 0.25811 0.78798 0.0
N428 N 0.14498 0.19671 0.84574 0.0
C429 C 0.1482 0.17747 0.80379 0.0
C430 C 0.11323 0.21071 0.77254 0.0
C431 C 0.10989 0.83202 0.25905 0.0
C432 C 0.1344 0.79575 0.22596 0.0
C433 C 0.14675 0.85213 0.29417 0.0
C434 C 0.20971 0.83593 0.29856 0.0
H435 H 0.06144 0.84502 0.25808 0.0
H436 H 0.12478 0.8791 0.31889 0.0
S437 S 0.29732 0.74227 0.2208 0.0
N438 N 0.22651 0.74556 0.19931 0.0
N439 N 0.29548 0.78196 0.26624 0.0
C440 C 0.23525 0.8 0.26564 0.0
C441 C 0.19781 0.78041 0.22916 0.0
C442 C 0.89866 0.79923 0.77729 0.0
C443 C 0.88819 0.80446 0.73219 0.0
C444 C 0.8631 0.83135 0.80748 0.0
C445 C 0.8167 0.871 0.79366 0.0
H446 H 0.93538 0.77097 0.78932 0.0
H447 H 0.87413 0.82724 0.8418 0.0
S448 S 0.76886 0.89926 0.67951 0.0
N449 N 0.82554 0.85066 0.67548 0.0
N450 N 0.76035 0.91169 0.73214 0.0
C451 C 0.80465 0.87547 0.74883 0.0
C452 C 0.83987 0.84201 0.71816 0.0
C453 C 0.77687 0.19553 0.26128 0.0
C454 C 0.80233 0.16298 0.29613 0.0
C455 C 0.81425 0.21459 0.22575 0.0
C456 C 0.87895 0.20347 0.22437 0.0
H457 H 0.72782 0.20664 0.26157 0.0
H458 H 0.79258 0.2396 0.19976 0.0
S459 S 0.96873 0.1214 0.30849 0.0
N460 N 0.8963 0.12062 0.32702 0.0
N461 N 0.96642 0.15777 0.26173 0.0
C462 C 0.90476 0.17101 0.25925 0.0
C463 C 0.86655 0.15047 0.29467 0.0
loop_
_geom_bond_atom_site_label_1
_geom_bond_atom_site_label_2
_geom_bond_distance
_geom_bond_site_symmetry_2
_ccdc_geom_bond_type
Mn0 O5 2.095 . S
Mn0 O15 2.162 . S
Mn0 O16 2.297 . S
Mn0 O24 2.385 . S
Mn0 O25 2.209 . S
Mn0 O26 2.094 . S
Mn1 O6 2.121 1_655 S
Mn1 N8 2.257 . S
Mn1 N17 2.282 . S
Mn1 O25 2.215 1_655 S
Mn1 O27 2.117 1_655 S
C2 O24 1.234 1_655 S
C2 O25 1.283 1_655 S
C3 O15 1.281 . S
C3 O16 1.236 . S
C4 O26 1.240 . S
C4 O27 1.264 . S
O5 Mn0 2.095 . S
O5 C14 1.250 . S
O6 Mn1 2.121 1_455 S
O6 C14 1.258 . S
C7 N8 1.326 . S
C7 C11 1.460 . S
C7 H13 0.929 . S
N8 Mn1 2.257 . S
N8 C7 1.326 . S
N8 C12 1.362 . S
C9 C10 1.258 . S
C9 C12 1.431 . S
C9 C29 1.449 . S
C10 C9 1.258 . S
C10 C11 1.477 . S
C10 H30 0.931 . S
C11 C7 1.460 . S
C11 C10 1.477 . S
C11 H31 0.930 . S
C12 N8 1.362 . S
C12 C9 1.431 . S
C12 C22 1.476 . S
H13 C7 0.929 . S
C14 O5 1.250 . S
C14 O6 1.258 . S
O15 Mn0 2.162 . S
O15 C3 1.281 . S
O16 Mn0 2.297 . S
O16 C3 1.236 . S
N17 Mn1 2.282 . S
N17 C18 1.328 . S
N17 C22 1.318 . S
C18 N17 1.328 . S
C18 C19 1.457 . S
C18 H23 0.929 . S
C19 C18 1.457 . S
C19 C20 1.291 . S
C19 H32 0.931 . S
C20 C19 1.291 . S
C20 C21 1.373 . S
C20 H33 0.929 . S
C21 C20 1.373 . S
C21 C22 1.396 . S
C21 C28 1.403 . S
C22 C12 1.476 . S
C22 N17 1.318 . S
C22 C21 1.396 . S
H23 C18 0.929 . S
O24 Mn0 2.385 . S
O24 C2 1.234 1_455 S
O25 Mn0 2.209 . S
O25 Mn1 2.215 1_455 S
O25 C2 1.283 1_455 S
O26 Mn0 2.094 . S
O26 C4 1.240 . S
O27 Mn1 2.117 1_455 S
O27 C4 1.264 . S
C28 C21 1.403 . S
C28 C29 1.399 . S
C28 H34 0.929 . S
C29 C9 1.449 . S
C29 C28 1.399 . S
C29 H35 0.930 . S
H30 C10 0.931 . S
H31 C11 0.930 . S
H32 C19 0.931 . S
H33 C20 0.929 . S
H34 C28 0.929 . S
H35 C29 0.930 . S
Mn36 O41 2.095 . S
Mn36 O51 2.162 1_565 S
Mn36 O52 2.297 . S
Mn36 O60 2.385 . S
Mn36 O61 2.209 . S
Mn36 O62 2.094 . S
Mn37 O42 2.121 . S
Mn37 N44 2.257 . S
Mn37 N53 2.282 . S
Mn37 O61 2.215 . S
Mn37 O63 2.117 . S
C38 O60 1.234 . S
C38 O61 1.283 . S
C39 O51 1.281 . S
C39 O52 1.236 1_545 S
C40 O62 1.240 . S
C40 O63 1.264 . S
O41 Mn36 2.095 . S
O41 C50 1.250 . S
O42 Mn37 2.121 . S
O42 C50 1.258 . S
C43 N44 1.326 . S
C43 C47 1.460 . S
C43 H49 0.929 . S
N44 Mn37 2.257 . S
N44 C43 1.326 . S
N44 C48 1.362 . S
C45 C46 1.258 . S
C45 C48 1.431 . S
C45 C65 1.449 . S
C46 C45 1.258 . S
C46 C47 1.477 . S
C46 H66 0.931 . S
C47 C43 1.460 . S
C47 C46 1.477 . S
C47 H67 0.930 . S
C48 N44 1.362 . S
C48 C45 1.431 . S
C48 C58 1.476 . S
H49 C43 0.929 . S
C50 O41 1.250 . S
C50 O42 1.258 . S
O51 Mn36 2.162 1_545 S
O51 C39 1.281 . S
O52 Mn36 2.297 . S
O52 C39 1.236 1_565 S
N53 Mn37 2.282 . S
N53 C54 1.328 . S
N53 C58 1.318 . S
C54 N53 1.328 . S
C54 C55 1.457 . S
C54 H59 0.929 . S
C55 C54 1.457 . S
C55 C56 1.291 . S
C55 H68 0.931 . S
C56 C55 1.291 . S
C56 C57 1.373 . S
C56 H69 0.929 . S
C57 C56 1.373 . S
C57 C58 1.396 . S
C57 C64 1.403 . S
C58 C48 1.476 . S
C58 N53 1.318 . S
C58 C57 1.396 . S
H59 C54 0.929 . S
O60 Mn36 2.385 . S
O60 C38 1.234 . S
O61 Mn36 2.209 . S
O61 Mn37 2.215 . S
O61 C38 1.283 . S
O62 Mn36 2.094 . S
O62 C40 1.240 . S
O63 Mn37 2.117 . S
O63 C40 1.264 . S
C64 C57 1.403 . S
C64 C65 1.399 . S
C64 H70 0.929 . S
C65 C45 1.449 . S
C65 C64 1.399 . S
C65 H71 0.930 . S
H66 C46 0.931 . S
H67 C47 0.930 . S
H68 C55 0.931 . S
H69 C56 0.929 . S
H70 C64 0.929 . S
H71 C65 0.930 . S
Mn72 O77 2.095 . S
Mn72 O87 2.162 . S
Mn72 O88 2.297 . S
Mn72 O96 2.385 . S
Mn72 O97 2.209 . S
Mn72 O98 2.094 . S
Mn73 O78 2.121 1_455 S
Mn73 N80 2.257 . S
Mn73 N89 2.282 . S
Mn73 O97 2.215 1_455 S
Mn73 O99 2.117 1_455 S
C74 O96 1.234 1_455 S
C74 O97 1.283 1_455 S
C75 O87 1.281 . S
C75 O88 1.236 . S
C76 O98 1.240 . S
C76 O99 1.264 . S
O77 Mn72 2.095 . S
O77 C86 1.250 . S
O78 Mn73 2.121 1_655 S
O78 C86 1.258 . S
C79 N80 1.326 . S
C79 C83 1.460 . S
C79 H85 0.929 . S
N80 Mn73 2.257 . S
N80 C79 1.326 . S
N80 C84 1.362 . S
C81 C82 1.258 . S
C81 C84 1.431 . S
C81 C101 1.449 . S
C82 C81 1.258 . S
C82 C83 1.477 . S
C82 H102 0.931 . S
C83 C79 1.460 . S
C83 C82 1.477 . S
C83 H103 0.930 . S
C84 N80 1.362 . S
C84 C81 1.431 . S
C84 C94 1.476 . S
H85 C79 0.929 . S
C86 O77 1.250 . S
C86 O78 1.258 . S
O87 Mn72 2.162 . S
O87 C75 1.281 . S
O88 Mn72 2.297 . S
O88 C75 1.236 . S
N89 Mn73 2.282 . S
N89 C90 1.328 . S
N89 C94 1.318 . S
C90 N89 1.328 . S
C90 C91 1.457 . S
C90 H95 0.929 . S
C91 C90 1.457 . S
C91 C92 1.291 . S
C91 H104 0.931 . S
C92 C91 1.291 . S
C92 C93 1.373 . S
C92 H105 0.929 . S
C93 C92 1.373 . S
C93 C94 1.396 . S
C93 C100 1.403 . S
C94 C84 1.476 . S
C94 N89 1.318 . S
C94 C93 1.396 . S
H95 C90 0.929 . S
O96 Mn72 2.385 . S
O96 C74 1.234 1_655 S
O97 Mn72 2.209 . S
O97 Mn73 2.215 1_655 S
O97 C74 1.283 1_655 S
O98 Mn72 2.094 . S
O98 C76 1.240 . S
O99 Mn73 2.117 1_655 S
O99 C76 1.264 . S
C100 C93 1.403 . S
C100 C101 1.399 . S
C100 H106 0.929 . S
C101 C81 1.449 . S
C101 C100 1.399 . S
C101 H107 0.930 . S
H102 C82 0.931 . S
H103 C83 0.930 . S
H104 C91 0.931 . S
H105 C92 0.929 . S
H106 C100 0.929 . S
H107 C101 0.930 . S
Mn108 O113 2.095 . S
Mn108 O123 2.162 1_545 S
Mn108 O124 2.297 . S
Mn108 O132 2.385 . S
Mn108 O133 2.209 . S
Mn108 O134 2.094 . S
Mn109 O114 2.121 . S
Mn109 N116 2.257 . S
Mn109 N125 2.282 . S
Mn109 O133 2.215 . S
Mn109 O135 2.117 . S
C110 O132 1.234 . S
C110 O133 1.283 . S
C111 O123 1.281 . S
C111 O124 1.236 1_565 S
C112 O134 1.240 . S
C112 O135 1.264 . S
O113 Mn108 2.095 . S
O113 C122 1.250 . S
O114 Mn109 2.121 . S
O114 C122 1.258 . S
C115 N116 1.326 . S
C115 C119 1.460 . S
C115 H121 0.929 . S
N116 Mn109 2.257 . S
N116 C115 1.326 . S
N116 C120 1.362 . S
C117 C118 1.258 . S
C117 C120 1.431 . S
C117 C137 1.449 . S
C118 C117 1.258 . S
C118 C119 1.477 . S
C118 H138 0.931 . S
C119 C115 1.460 . S
C119 C118 1.477 . S
C119 H139 0.930 . S
C120 N116 1.362 . S
C120 C117 1.431 . S
C120 C130 1.476 . S
H121 C115 0.929 . S
C122 O113 1.250 . S
C122 O114 1.258 . S
O123 Mn108 2.162 1_565 S
O123 C111 1.281 . S
O124 Mn108 2.297 . S
O124 C111 1.236 1_545 S
N125 Mn109 2.282 . S
N125 C126 1.328 . S
N125 C130 1.318 . S
C126 N125 1.328 . S
C126 C127 1.457 . S
C126 H131 0.929 . S
C127 C126 1.457 . S
C127 C128 1.291 . S
C127 H140 0.931 . S
C128 C127 1.291 . S
C128 C129 1.373 . S
C128 H141 0.929 . S
C129 C128 1.373 . S
C129 C130 1.396 . S
C129 C136 1.403 . S
C130 C120 1.476 . S
C130 N125 1.318 . S
C130 C129 1.396 . S
H131 C126 0.929 . S
O132 Mn108 2.385 . S
O132 C110 1.234 . S
O133 Mn108 2.209 . S
O133 Mn109 2.215 . S
O133 C110 1.283 . S
O134 Mn108 2.094 . S
O134 C112 1.240 . S
O135 Mn109 2.117 . S
O135 C112 1.264 . S
C136 C129 1.403 . S
C136 C137 1.399 . S
C136 H142 0.929 . S
C137 C117 1.449 . S
C137 C136 1.399 . S
C137 H143 0.930 . S
H138 C118 0.931 . S
H139 C119 0.930 . S
H140 C127 0.931 . S
H141 C128 0.929 . S
H142 C136 0.929 . S
H143 C137 0.930 . S
Mn144 O149 2.095 . S
Mn144 O159 2.162 . S
Mn144 O160 2.297 . S
Mn144 O168 2.385 . S
Mn144 O169 2.209 . S
Mn144 O170 2.094 . S
Mn145 O150 2.121 1_455 S
Mn145 N152 2.257 . S
Mn145 N161 2.282 . S
Mn145 O169 2.215 1_455 S
Mn145 O171 2.117 1_455 S
C146 O168 1.233 . S
C146 O169 1.283 . S
C147 O159 1.281 . S
C147 O160 1.236 . S
C148 O170 1.240 . S
C148 O171 1.264 . S
O149 Mn144 2.095 . S
O149 C158 1.250 . S
O150 Mn145 2.121 1_655 S
O150 C158 1.258 . S
C151 N152 1.326 . S
C151 C155 1.460 . S
C151 H157 0.929 . S
N152 Mn145 2.257 . S
N152 C151 1.326 . S
N152 C156 1.362 . S
C153 C154 1.258 . S
C153 C156 1.431 . S
C153 C173 1.449 . S
C154 C153 1.258 . S
C154 C155 1.477 . S
C154 H174 0.931 . S
C155 C151 1.460 . S
C155 C154 1.477 . S
C155 H175 0.930 . S
C156 N152 1.362 . S
C156 C153 1.431 . S
C156 C166 1.476 . S
H157 C151 0.929 . S
C158 O149 1.250 . S
C158 O150 1.258 . S
O159 Mn144 2.162 . S
O159 C147 1.281 . S
O160 Mn144 2.297 . S
O160 C147 1.236 . S
N161 Mn145 2.282 . S
N161 C162 1.328 . S
N161 C166 1.318 . S
C162 N161 1.328 . S
C162 C163 1.457 . S
C162 H167 0.929 . S
C163 C162 1.457 . S
C163 C164 1.291 . S
C163 H176 0.931 . S
C164 C163 1.291 . S
C164 C165 1.373 . S
C164 H177 0.929 . S
C165 C164 1.373 . S
C165 C166 1.396 . S
C165 C172 1.403 . S
C166 C156 1.476 . S
C166 N161 1.318 . S
C166 C165 1.396 . S
H167 C162 0.929 . S
O168 Mn144 2.385 . S
O168 C146 1.233 . S
O169 Mn144 2.209 . S
O169 Mn145 2.215 1_655 S
O169 C146 1.283 . S
O170 Mn144 2.094 . S
O170 C148 1.240 . S
O171 Mn145 2.117 1_655 S
O171 C148 1.264 . S
C172 C165 1.403 . S
C172 C173 1.399 . S
C172 H178 0.929 . S
C173 C153 1.449 . S
C173 C172 1.399 . S
C173 H179 0.930 . S
H174 C154 0.931 . S
H175 C155 0.930 . S
H176 C163 0.931 . S
H177 C164 0.929 . S
H178 C172 0.929 . S
H179 C173 0.930 . S
Mn180 O185 2.095 . S
Mn180 O195 2.162 . S
Mn180 O196 2.297 . S
Mn180 O204 2.385 . S
Mn180 O205 2.209 . S
Mn180 O206 2.094 . S
Mn181 O186 2.121 1_565 S
Mn181 N188 2.257 . S
Mn181 N197 2.282 . S
Mn181 O205 2.215 1_565 S
Mn181 O207 2.117 1_565 S
C182 O204 1.234 . S
C182 O205 1.283 . S
C183 O195 1.281 . S
C183 O196 1.236 . S
C184 O206 1.240 . S
C184 O207 1.264 . S
O185 Mn180 2.095 . S
O185 C194 1.250 . S
O186 Mn181 2.121 1_545 S
O186 C194 1.258 . S
C187 N188 1.326 . S
C187 C191 1.460 . S
C187 H193 0.929 . S
N188 Mn181 2.257 . S
N188 C187 1.326 . S
N188 C192 1.362 . S
C189 C190 1.258 . S
C189 C192 1.431 . S
C189 C209 1.449 . S
C190 C189 1.258 . S
C190 C191 1.477 . S
C190 H210 0.931 . S
C191 C187 1.460 . S
C191 C190 1.477 . S
C191 H211 0.930 . S
C192 N188 1.362 . S
C192 C189 1.431 . S
C192 C202 1.476 . S
H193 C187 0.929 . S
C194 O185 1.250 . S
C194 O186 1.258 . S
O195 Mn180 2.162 . S
O195 C183 1.281 . S
O196 Mn180 2.297 . S
O196 C183 1.236 . S
N197 Mn181 2.282 . S
N197 C198 1.328 . S
N197 C202 1.318 . S
C198 N197 1.328 . S
C198 C199 1.457 . S
C198 H203 0.929 . S
C199 C198 1.457 . S
C199 C200 1.291 . S
C199 H212 0.931 . S
C200 C199 1.291 . S
C200 C201 1.373 . S
C200 H213 0.929 . S
C201 C200 1.373 . S
C201 C202 1.396 . S
C201 C208 1.403 . S
C202 C192 1.476 . S
C202 N197 1.318 . S
C202 C201 1.396 . S
H203 C198 0.929 . S
O204 Mn180 2.385 . S
O204 C182 1.234 . S
O205 Mn180 2.209 . S
O205 Mn181 2.215 1_545 S
O205 C182 1.283 . S
O206 Mn180 2.094 . S
O206 C184 1.240 . S
O207 Mn181 2.117 1_545 S
O207 C184 1.264 . S
C208 C201 1.403 . S
C208 C209 1.399 . S
C208 H214 0.929 . S
C209 C189 1.449 . S
C209 C208 1.399 . S
C209 H215 0.930 . S
H210 C190 0.931 . S
H211 C191 0.930 . S
H212 C199 0.931 . S
H213 C200 0.929 . S
H214 C208 0.929 . S
H215 C209 0.930 . S
Mn216 O221 2.095 . S
Mn216 O231 2.162 . S
Mn216 O232 2.297 . S
Mn216 O240 2.385 . S
Mn216 O241 2.209 . S
Mn216 O242 2.094 . S
Mn217 O222 2.121 1_655 S
Mn217 N224 2.257 . S
Mn217 N233 2.282 . S
Mn217 O241 2.215 1_655 S
Mn217 O243 2.117 1_655 S
C218 O240 1.233 . S
C218 O241 1.283 . S
C219 O231 1.281 . S
C219 O232 1.236 . S
C220 O242 1.240 . S
C220 O243 1.264 . S
O221 Mn216 2.095 . S
O221 C230 1.250 . S
O222 Mn217 2.121 1_455 S
O222 C230 1.258 . S
C223 N224 1.326 . S
C223 C227 1.460 . S
C223 H229 0.929 . S
N224 Mn217 2.257 . S
N224 C223 1.326 . S
N224 C228 1.362 . S
C225 C226 1.258 . S
C225 C228 1.431 . S
C225 C245 1.449 . S
C226 C225 1.258 . S
C226 C227 1.477 . S
C226 H246 0.931 . S
C227 C223 1.460 . S
C227 C226 1.477 . S
C227 H247 0.930 . S
C228 N224 1.362 . S
C228 C225 1.431 . S
C228 C238 1.476 . S
H229 C223 0.929 . S
C230 O221 1.250 . S
C230 O222 1.258 . S
O231 Mn216 2.162 . S
O231 C219 1.281 . S
O232 Mn216 2.297 . S
O232 C219 1.236 . S
N233 Mn217 2.282 . S
N233 C234 1.328 . S
N233 C238 1.318 . S
C234 N233 1.328 . S
C234 C235 1.457 . S
C234 H239 0.929 . S
C235 C234 1.457 . S
C235 C236 1.291 . S
C235 H248 0.931 . S
C236 C235 1.291 . S
C236 C237 1.373 . S
C236 H249 0.929 . S
C237 C236 1.373 . S
C237 C238 1.396 . S
C237 C244 1.403 . S
C238 C228 1.476 . S
C238 N233 1.318 . S
C238 C237 1.396 . S
H239 C234 0.929 . S
O240 Mn216 2.385 . S
O240 C218 1.233 . S
O241 Mn216 2.209 . S
O241 Mn217 2.215 1_455 S
O241 C218 1.283 . S
O242 Mn216 2.094 . S
O242 C220 1.240 . S
O243 Mn217 2.117 1_455 S
O243 C220 1.264 . S
C244 C237 1.403 . S
C244 C245 1.399 . S
C244 H250 0.929 . S
C245 C225 1.449 . S
C245 C244 1.399 . S
C245 H251 0.930 . S
H246 C226 0.931 . S
H247 C227 0.930 . S
H248 C235 0.931 . S
H249 C236 0.929 . S
H250 C244 0.929 . S
H251 C245 0.930 . S
Mn252 O257 2.095 . S
Mn252 O267 2.162 . S
Mn252 O268 2.297 . S
Mn252 O276 2.385 . S
Mn252 O277 2.209 . S
Mn252 O278 2.094 . S
Mn253 O258 2.121 1_545 S
Mn253 N260 2.257 . S
Mn253 N269 2.282 . S
Mn253 O277 2.215 1_545 S
Mn253 O279 2.117 1_545 S
C254 O276 1.234 . S
C254 O277 1.283 . S
C255 O267 1.281 . S
C255 O268 1.236 . S
C256 O278 1.240 . S
C256 O279 1.264 . S
O257 Mn252 2.095 . S
O257 C266 1.250 . S
O258 Mn253 2.121 1_565 S
O258 C266 1.258 . S
C259 N260 1.326 . S
C259 C263 1.460 . S
C259 H265 0.929 . S
N260 Mn253 2.257 . S
N260 C259 1.326 . S
N260 C264 1.362 . S
C261 C262 1.258 . S
C261 C264 1.431 . S
C261 C281 1.449 . S
C262 C261 1.258 . S
C262 C263 1.477 . S
C262 H282 0.931 . S
C263 C259 1.460 . S
C263 C262 1.477 . S
C263 H283 0.930 . S
C264 N260 1.362 . S
C264 C261 1.431 . S
C264 C274 1.476 . S
H265 C259 0.929 . S
C266 O257 1.250 . S
C266 O258 1.258 . S
O267 Mn252 2.162 . S
O267 C255 1.281 . S
O268 Mn252 2.297 . S
O268 C255 1.236 . S
N269 Mn253 2.282 . S
N269 C270 1.328 . S
N269 C274 1.318 . S
C270 N269 1.328 . S
C270 C271 1.457 . S
C270 H275 0.929 . S
C271 C270 1.457 . S
C271 C272 1.291 . S
C271 H284 0.931 . S
C272 C271 1.291 . S
C272 C273 1.373 . S
C272 H285 0.929 . S
C273 C272 1.373 . S
C273 C274 1.396 . S
C273 C280 1.403 . S
C274 C264 1.476 . S
C274 N269 1.318 . S
C274 C273 1.396 . S
H275 C270 0.929 . S
O276 Mn252 2.385 . S
O276 C254 1.234 . S
O277 Mn252 2.209 . S
O277 Mn253 2.215 1_565 S
O277 C254 1.283 . S
O278 Mn252 2.094 . S
O278 C256 1.240 . S
O279 Mn253 2.117 1_565 S
O279 C256 1.264 . S
C280 C273 1.403 . S
C280 C281 1.399 . S
C280 H286 0.929 . S
C281 C261 1.449 . S
C281 C280 1.399 . S
C281 H287 0.930 . S
H282 C262 0.931 . S
H283 C263 0.930 . S
H284 C271 0.931 . S
H285 C272 0.929 . S
H286 C280 0.929 . S
H287 C281 0.930 . S
C288 C289 1.369 . S
C288 C290 1.419 1_655 S
C288 H292 0.930 . S
C289 C288 1.369 . S
C289 C298 1.429 . S
C290 C288 1.419 1_455 S
C290 C291 1.363 . S
C290 H293 0.929 . S
C291 C290 1.363 . S
C291 C297 1.428 . S
H292 C288 0.930 . S
H293 C290 0.929 . S
S294 N295 1.613 . S
S294 N296 1.610 1_655 S
N295 S294 1.613 . S
N295 C298 1.350 . S
N296 S294 1.610 1_455 S
N296 C297 1.351 . S
C297 C291 1.428 . S
C297 N296 1.351 . S
C297 C298 1.434 1_455 S
C298 C289 1.429 . S
C298 N295 1.350 . S
C298 C297 1.434 1_655 S
C299 C300 1.369 1_565 S
C299 C301 1.419 . S
C299 H303 0.930 . S
C300 C299 1.369 1_545 S
C300 C309 1.429 . S
C301 C299 1.419 . S
C301 C302 1.363 . S
C301 H304 0.929 . S
C302 C301 1.363 . S
C302 C308 1.428 1_565 S
H303 C299 0.930 . S
H304 C301 0.929 . S
S305 N306 1.613 . S
S305 N307 1.610 . S
N306 S305 1.613 . S
N306 C309 1.350 . S
N307 S305 1.610 . S
N307 C308 1.351 . S
C308 C302 1.428 1_545 S
C308 N307 1.351 . S
C308 C309 1.434 . S
C309 C300 1.429 . S
C309 N306 1.350 . S
C309 C308 1.434 . S
C310 C311 1.369 . S
C310 C312 1.419 . S
C310 H314 0.930 . S
C311 C310 1.369 . S
C311 C320 1.429 1_655 S
C312 C310 1.419 . S
C312 C313 1.363 1_655 S
C312 H315 0.929 . S
C313 C312 1.363 1_455 S
C313 C319 1.428 . S
H314 C310 0.930 . S
H315 C312 0.929 . S
S316 N317 1.613 . S
S316 N318 1.610 . S
N317 S316 1.613 . S
N317 C320 1.350 . S
N318 S316 1.610 . S
N318 C319 1.351 . S
C319 C313 1.428 . S
C319 N318 1.351 . S
C319 C320 1.434 . S
C320 C311 1.429 1_455 S
C320 N317 1.350 . S
C320 C319 1.434 . S
C321 C322 1.369 1_565 S
C321 C323 1.419 . S
C321 H325 0.930 . S
C322 C321 1.369 1_545 S
C322 C331 1.429 . S
C323 C321 1.419 . S
C323 C324 1.363 . S
C323 H326 0.929 . S
C324 C323 1.363 . S
C324 C330 1.428 1_565 S
H325 C321 0.930 . S
H326 C323 0.929 . S
S327 N328 1.613 . S
S327 N329 1.610 . S
N328 S327 1.613 . S
N328 C331 1.350 . S
N329 S327 1.610 . S
N329 C330 1.351 . S
C330 C324 1.428 1_545 S
C330 N329 1.351 . S
C330 C331 1.434 . S
C331 C322 1.429 . S
C331 N328 1.350 . S
C331 C330 1.434 . S
C332 C333 1.369 . S
C332 C334 1.419 . S
C332 H336 0.930 . S
C333 C332 1.369 . S
C333 C342 1.429 . S
C334 C332 1.419 . S
C334 C335 1.363 . S
C334 H337 0.929 . S
C335 C334 1.363 . S
C335 C341 1.428 . S
H336 C332 0.930 . S
H337 C334 0.929 . S
S338 N339 1.613 . S
S338 N340 1.610 . S
N339 S338 1.613 . S
N339 C342 1.350 . S
N340 S338 1.610 . S
N340 C341 1.351 . S
C341 C335 1.428 . S
C341 N340 1.351 . S
C341 C342 1.434 . S
C342 C333 1.429 . S
C342 N339 1.350 . S
C342 C341 1.434 . S
C343 C344 1.369 . S
C343 C345 1.419 . S
C343 H347 0.930 . S
C344 C343 1.369 . S
C344 C353 1.429 . S
C345 C343 1.419 . S
C345 C346 1.363 . S
C345 H348 0.929 . S
C346 C345 1.363 . S
C346 C352 1.428 . S
H347 C343 0.930 . S
H348 C345 0.929 . S
S349 N350 1.613 . S
S349 N351 1.610 . S
N350 S349 1.613 . S
N350 C353 1.350 . S
N351 S349 1.610 . S
N351 C352 1.351 . S
C352 C346 1.428 . S
C352 N351 1.351 . S
C352 C353 1.434 . S
C353 C344 1.429 . S
C353 N350 1.350 . S
C353 C352 1.434 . S
C354 C355 1.369 . S
C354 C356 1.419 . S
C354 H358 0.930 . S
C355 C354 1.369 . S
C355 C364 1.429 . S
C356 C354 1.419 . S
C356 C357 1.363 . S
C356 H359 0.929 . S
C357 C356 1.363 . S
C357 C363 1.428 . S
H358 C354 0.930 . S
H359 C356 0.929 . S
S360 N361 1.613 . S
S360 N362 1.610 . S
N361 S360 1.613 . S
N361 C364 1.350 . S
N362 S360 1.610 . S
N362 C363 1.351 . S
C363 C357 1.428 . S
C363 N362 1.351 . S
C363 C364 1.434 . S
C364 C355 1.429 . S
C364 N361 1.350 . S
C364 C363 1.434 . S
C365 C366 1.369 . S
C365 C367 1.419 . S
C365 H369 0.930 . S
C366 C365 1.369 . S
C366 C375 1.429 . S
C367 C365 1.419 . S
C367 C368 1.363 . S
C367 H370 0.929 . S
C368 C367 1.363 . S
C368 C374 1.428 . S
H369 C365 0.930 . S
H370 C367 0.929 . S
S371 N372 1.613 . S
S371 N373 1.610 . S
N372 S371 1.613 . S
N372 C375 1.350 . S
N373 S371 1.610 . S
N373 C374 1.351 . S
C374 C368 1.428 . S
C374 N373 1.351 . S
C374 C375 1.434 . S
C375 C366 1.429 . S
C375 N372 1.350 . S
C375 C374 1.434 . S
C376 C377 1.369 . S
C376 C378 1.419 . S
C376 H380 0.930 . S
C377 C376 1.369 . S
C377 C386 1.429 1_556 S
C378 C376 1.419 . S
C378 C379 1.363 1_556 S
C378 H381 0.929 . S
C379 C378 1.363 1_554 S
C379 C385 1.428 . S
H380 C376 0.930 . S
H381 C378 0.929 . S
S382 N383 1.613 1_545 S
S382 N384 1.610 . S
N383 S382 1.613 1_565 S
N383 C386 1.350 1_565 S
N384 S382 1.610 . S
N384 C385 1.351 . S
C385 C379 1.428 . S
C385 N384 1.351 . S
C385 C386 1.434 . S
C386 C377 1.429 1_554 S
C386 N383 1.350 1_545 S
C386 C385 1.434 . S
C387 C388 1.369 1_554 S
C387 C389 1.419 . S
C387 H391 0.930 . S
C388 C387 1.369 1_556 S
C388 C397 1.429 . S
C389 C387 1.419 . S
C389 C390 1.363 . S
C389 H392 0.929 . S
C390 C389 1.363 . S
C390 C396 1.428 1_554 S
H391 C387 0.930 . S
H392 C389 0.929 . S
S393 N394 1.613 . S
S393 N395 1.610 1_455 S
N394 S393 1.613 . S
N394 C397 1.350 . S
N395 S393 1.610 1_655 S
N395 C396 1.351 1_655 S
C396 C390 1.428 1_556 S
C396 N395 1.351 1_455 S
C396 C397 1.434 . S
C397 C388 1.429 . S
C397 N394 1.350 . S
C397 C396 1.434 . S
C398 C399 1.369 . S
C398 C400 1.419 1_554 S
C398 H402 0.930 . S
C399 C398 1.369 . S
C399 C408 1.429 1_554 S
C400 C398 1.419 1_556 S
C400 C401 1.363 . S
C400 H403 0.929 . S
C401 C400 1.363 . S
C401 C407 1.428 . S
H402 C398 0.930 . S
H403 C400 0.929 . S
S404 N405 1.613 . S
S404 N406 1.610 . S
N405 S404 1.613 . S
N405 C408 1.350 . S
N406 S404 1.610 . S
N406 C407 1.351 . S
C407 C401 1.428 . S
C407 N406 1.351 . S
C407 C408 1.434 . S
C408 C399 1.429 1_556 S
C408 N405 1.350 . S
C408 C407 1.434 . S
C409 C410 1.369 1_554 S
C409 C411 1.419 . S
C409 H413 0.930 . S
C410 C409 1.369 1_556 S
C410 C419 1.429 . S
C411 C409 1.419 . S
C411 C412 1.363 . S
C411 H414 0.929 . S
C412 C411 1.363 . S
C412 C418 1.428 1_554 S
H413 C409 0.930 . S
H414 C411 0.929 . S
S415 N416 1.613 . S
S415 N417 1.610 1_655 S
N416 S415 1.613 . S
N416 C419 1.350 . S
N417 S415 1.610 1_455 S
N417 C418 1.351 1_455 S
C418 C412 1.428 1_556 S
C418 N417 1.351 1_655 S
C418 C419 1.434 . S
C419 C410 1.429 . S
C419 N416 1.350 . S
C419 C418 1.434 . S
C420 C421 1.369 . S
C420 C422 1.419 . S
C420 H424 0.930 . S
C421 C420 1.369 . S
C421 C430 1.429 . S
C422 C420 1.419 . S
C422 C423 1.363 . S
C422 H425 0.929 . S
C423 C422 1.363 . S
C423 C429 1.428 . S
H424 C420 0.930 . S
H425 C422 0.929 . S
S426 N427 1.613 . S
S426 N428 1.610 . S
N427 S426 1.613 . S
N427 C430 1.350 . S
N428 S426 1.610 . S
N428 C429 1.351 . S
C429 C423 1.428 . S
C429 N428 1.351 . S
C429 C430 1.434 . S
C430 C421 1.429 . S
C430 N427 1.350 . S
C430 C429 1.434 . S
C431 C432 1.369 . S
C431 C433 1.419 . S
C431 H435 0.930 . S
C432 C431 1.369 . S
C432 C441 1.429 . S
C433 C431 1.419 . S
C433 C434 1.363 . S
C433 H436 0.929 . S
C434 C433 1.363 . S
C434 C440 1.428 . S
H435 C431 0.930 . S
H436 C433 0.929 . S
S437 N438 1.613 . S
S437 N439 1.610 . S
N438 S437 1.613 . S
N438 C441 1.350 . S
N439 S437 1.610 . S
N439 C440 1.351 . S
C440 C434 1.428 . S
C440 N439 1.351 . S
C440 C441 1.434 . S
C441 C432 1.429 . S
C441 N438 1.350 . S
C441 C440 1.434 . S
C442 C443 1.369 . S
C442 C444 1.419 . S
C442 H446 0.930 . S
C443 C442 1.369 . S
C443 C452 1.429 . S
C444 C442 1.419 . S
C444 C445 1.363 . S
C444 H447 0.929 . S
C445 C444 1.363 . S
C445 C451 1.428 . S
H446 C442 0.930 . S
H447 C444 0.929 . S
S448 N449 1.613 . S
S448 N450 1.610 . S
N449 S448 1.613 . S
N449 C452 1.350 . S
N450 S448 1.610 . S
N450 C451 1.351 . S
C451 C445 1.428 . S
C451 N450 1.351 . S
C451 C452 1.434 . S
C452 C443 1.429 . S
C452 N449 1.350 . S
C452 C451 1.434 . S
C453 C454 1.369 . S
C453 C455 1.419 . S
C453 H457 0.930 . S
C454 C453 1.369 . S
C454 C463 1.429 . S
C455 C453 1.419 . S
C455 C456 1.363 . S
C455 H458 0.929 . S
C456 C455 1.363 . S
C456 C462 1.428 . S
H457 C453 0.930 . S
H458 C455 0.929 . S
S459 N460 1.613 . S
S459 N461 1.610 . S
N460 S459 1.613 . S
N460 C463 1.350 . S
N461 S459 1.610 . S
N461 C462 1.351 . S
C462 C456 1.428 . S
C462 N461 1.351 . S
C462 C463 1.434 . S
C463 C454 1.429 . S
C463 N460 1.350 . S
C463 C462 1.434 . S
C289 C76 1.455 . S
C291 C4 1.458 . S
C300 C122 1.705 . S
C302 C50 1.702 . S
C311 C148 1.481 . S
C313 C220 1.491 . S
C322 C184 1.528 . S
C324 C256 1.516 . S
C333 C39 1.147 . S
C335 C3 1.129 . S
C344 C38 1.252 . S
C346 C74 1.318 . S
C355 C111 1.149 . S
C357 C75 1.126 . S
C366 C110 1.255 . S
C368 C2 1.315 . S
C377 C254 1.255 1_545 S
C379 C147 1.252 . S
C388 C183 1.185 . S
C390 C146 1.186 1_455 S
C399 C219 1.258 . S
C401 C182 1.257 1_565 S
C410 C255 1.186 . S
C412 C218 1.186 1_655 S
C421 C14 1.692 . S
C423 C194 1.688 . S
C432 C230 1.648 . S
C434 C40 1.633 . S
C443 C86 1.694 . S
C445 C266 1.688 . S
C454 C112 1.636 . S
C456 C158 1.650 . S
