# Generated by pormake.
# Topology why, (6)-cn, num edge types: 1
# Building blocks:
#     Node 0, Type 0, BuildingBlock: KUMBOL_clean_sbu_0, # of connection points: 6
#     Node 1, Type 0, BuildingBlock: KUMBOL_clean_sbu_0, # of connection points: 6
#     Node 2, Type 0, BuildingBlock: KUMBOL_clean_sbu_0, # of connection points: 6
#     Node 3, Type 0, BuildingBlock: KUMBOL_clean_sbu_0, # of connection points: 6
#     Node 4, Type 0, BuildingBlock: KUMBOL_clean_sbu_0, # of connection points: 6
#     Node 5, Type 0, BuildingBlock: KUMBOL_clean_sbu_0, # of connection points: 6
#     Node 6, Type 0, BuildingBlock: KUMBOL_clean_sbu_0, # of connection points: 6
#     Node 7, Type 0, BuildingBlock: KUMBOL_clean_sbu_0, # of connection points: 6
#     Node 8, Type 0, BuildingBlock: KUMBOL_clean_sbu_0, # of connection points: 6
#     Node 9, Type 0, BuildingBlock: KUMBOL_clean_sbu_0, # of connection points: 6
#     Node 10, Type 0, BuildingBlock: KUMBOL_clean_sbu_0, # of connection points: 6
#     Node 11, Type 0, BuildingBlock: KUMBOL_clean_sbu_0, # of connection points: 6
#     Node 12, Type 0, BuildingBlock: KUMBOL_clean_sbu_0, # of connection points: 6
#     Node 13, Type 0, BuildingBlock: KUMBOL_clean_sbu_0, # of connection points: 6
#     Node 14, Type 0, BuildingBlock: KUMBOL_clean_sbu_0, # of connection points: 6
#     Node 15, Type 0, BuildingBlock: KUMBOL_clean_sbu_0, # of connection points: 6
#     Edge 16, Type (0, 0), BuildingBlock: TEMPAE_clean_linker_10, # of connection points: 2
#     Edge 17, Type (0, 0), BuildingBlock: TEMPAE_clean_linker_10, # of connection points: 2
#     Edge 18, Type (0, 0), BuildingBlock: TEMPAE_clean_linker_10, # of connection points: 2
#     Edge 19, Type (0, 0), BuildingBlock: TEMPAE_clean_linker_10, # of connection points: 2
#     Edge 20, Type (0, 0), BuildingBlock: TEMPAE_clean_linker_10, # of connection points: 2
#     Edge 21, Type (0, 0), BuildingBlock: TEMPAE_clean_linker_10, # of connection points: 2
#     Edge 22, Type (0, 0), BuildingBlock: TEMPAE_clean_linker_10, # of connection points: 2
#     Edge 23, Type (0, 0), BuildingBlock: TEMPAE_clean_linker_10, # of connection points: 2
#     Edge 24, Type (0, 0), BuildingBlock: TEMPAE_clean_linker_10, # of connection points: 2
#     Edge 25, Type (0, 0), BuildingBlock: TEMPAE_clean_linker_10, # of connection points: 2
#     Edge 26, Type (0, 0), BuildingBlock: TEMPAE_clean_linker_10, # of connection points: 2
#     Edge 27, Type (0, 0), BuildingBlock: TEMPAE_clean_linker_10, # of connection points: 2
#     Edge 28, Type (0, 0), BuildingBlock: TEMPAE_clean_linker_10, # of connection points: 2
#     Edge 29, Type (0, 0), BuildingBlock: TEMPAE_clean_linker_10, # of connection points: 2
#     Edge 30, Type (0, 0), BuildingBlock: TEMPAE_clean_linker_10, # of connection points: 2
#     Edge 31, Type (0, 0), BuildingBlock: TEMPAE_clean_linker_10, # of connection points: 2
#     Edge 32, Type (0, 0), BuildingBlock: TEMPAE_clean_linker_10, # of connection points: 2
#     Edge 33, Type (0, 0), BuildingBlock: TEMPAE_clean_linker_10, # of connection points: 2
#     Edge 34, Type (0, 0), BuildingBlock: TEMPAE_clean_linker_10, # of connection points: 2
#     Edge 35, Type (0, 0), BuildingBlock: TEMPAE_clean_linker_10, # of connection points: 2
#     Edge 36, Type (0, 0), BuildingBlock: TEMPAE_clean_linker_10, # of connection points: 2
#     Edge 37, Type (0, 0), BuildingBlock: TEMPAE_clean_linker_10, # of connection points: 2
#     Edge 38, Type (0, 0), BuildingBlock: TEMPAE_clean_linker_10, # of connection points: 2
#     Edge 39, Type (0, 0), BuildingBlock: TEMPAE_clean_linker_10, # of connection points: 2
#     Edge 40, Type (0, 0), BuildingBlock: TEMPAE_clean_linker_10, # of connection points: 2
#     Edge 41, Type (0, 0), BuildingBlock: TEMPAE_clean_linker_10, # of connection points: 2
#     Edge 42, Type (0, 0), BuildingBlock: TEMPAE_clean_linker_10, # of connection points: 2
#     Edge 43, Type (0, 0), BuildingBlock: TEMPAE_clean_linker_10, # of connection points: 2
#     Edge 44, Type (0, 0), BuildingBlock: TEMPAE_clean_linker_10, # of connection points: 2
#     Edge 45, Type (0, 0), BuildingBlock: TEMPAE_clean_linker_10, # of connection points: 2
#     Edge 46, Type (0, 0), BuildingBlock: TEMPAE_clean_linker_10, # of connection points: 2
#     Edge 47, Type (0, 0), BuildingBlock: TEMPAE_clean_linker_10, # of connection points: 2
#     Edge 48, Type (0, 0), BuildingBlock: TEMPAE_clean_linker_10, # of connection points: 2
#     Edge 49, Type (0, 0), BuildingBlock: TEMPAE_clean_linker_10, # of connection points: 2
#     Edge 50, Type (0, 0), BuildingBlock: TEMPAE_clean_linker_10, # of connection points: 2
#     Edge 51, Type (0, 0), BuildingBlock: TEMPAE_clean_linker_10, # of connection points: 2
#     Edge 52, Type (0, 0), BuildingBlock: TEMPAE_clean_linker_10, # of connection points: 2
#     Edge 53, Type (0, 0), BuildingBlock: TEMPAE_clean_linker_10, # of connection points: 2
#     Edge 54, Type (0, 0), BuildingBlock: TEMPAE_clean_linker_10, # of connection points: 2
#     Edge 55, Type (0, 0), BuildingBlock: TEMPAE_clean_linker_10, # of connection points: 2
#     Edge 56, Type (0, 0), BuildingBlock: TEMPAE_clean_linker_10, # of connection points: 2
#     Edge 57, Type (0, 0), BuildingBlock: TEMPAE_clean_linker_10, # of connection points: 2
#     Edge 58, Type (0, 0), BuildingBlock: TEMPAE_clean_linker_10, # of connection points: 2
#     Edge 59, Type (0, 0), BuildingBlock: TEMPAE_clean_linker_10, # of connection points: 2
#     Edge 60, Type (0, 0), BuildingBlock: TEMPAE_clean_linker_10, # of connection points: 2
#     Edge 61, Type (0, 0), BuildingBlock: TEMPAE_clean_linker_10, # of connection points: 2
#     Edge 62, Type (0, 0), BuildingBlock: TEMPAE_clean_linker_10, # of connection points: 2
#     Edge 63, Type (0, 0), BuildingBlock: TEMPAE_clean_linker_10, # of connection points: 2
# Relax obj value: 0.274
# Max RMSD: 0.228
# Mean RMSD: 0.228
data_MOF--net-why--node1-KUMBOL_clean_sbu_0--edge1-TEMPAE_clean_linker_10
_symmetry_space_group_name_H-M    P1
_symmetry_Int_Tables_number       1
_symmetry_cell_setting            triclinic
loop_
_symmetry_equiv_pos_as_xyz
'x, y, z'
_cell_length_a     47.947357
_cell_length_b     47.593862
_cell_length_c     40.831746
_cell_angle_alpha  90.417583
_cell_angle_beta   90.001777
_cell_angle_gamma 90.014695
loop_
_atom_site_label
_atom_site_type_symbol
_atom_site_fract_x
_atom_site_fract_y
_atom_site_fract_z
_atom_type_partial_charge
Gd0 Gd 0.43165 0.22487 0.09621 0.0
Gd1 Gd 0.46249 0.18491 0.03716 0.0
C2 C 0.4425 0.15792 0.93212 0.0
C3 C 0.41035 0.11922 0.94009 0.0
C4 C 0.42861 0.14511 0.98722 0.0
C5 C 0.44399 0.16199 0.96639 0.0
C6 C 0.41206 0.12312 0.97413 0.0
C7 C 0.42532 0.13674 0.91913 0.0
C8 C 0.45879 0.17489 0.91185 0.0
C9 C 0.47681 0.19455 0.92583 0.0
N10 N 0.46121 0.18168 0.97958 0.0
C11 C 0.47829 0.19721 0.95987 0.0
H12 H 0.49299 0.21191 0.97029 0.0
C13 C 0.41432 0.13378 0.0409 0.0
N14 N 0.4299 0.14999 0.02011 0.0
C15 C 0.3986 0.11112 0.02912 0.0
C16 C 0.39757 0.10566 0.99561 0.0
H17 H 0.41279 0.13847 0.06657 0.0
H18 H 0.42388 0.1334 0.8929 0.0
H19 H 0.4865 0.18918 0.1305 0.0
H20 H 0.45802 0.17258 0.88545 0.0
H21 H 0.48974 0.20751 0.91041 0.0
H22 H 0.39749 0.10268 0.92972 0.0
H23 H 0.40218 0.28801 0.0822 0.0
H24 H 0.53871 0.2487 0.179 0.0
H25 H 0.52703 0.19958 0.16478 0.0
H26 H 0.49822 0.33728 0.15238 0.0
H27 H 0.38663 0.09838 0.04587 0.0
H28 H 0.3849 0.08844 0.98651 0.0
H29 H 0.52827 0.29978 0.1735 0.0
H30 H 0.41289 0.33813 0.09161 0.0
N31 N 0.47382 0.23192 0.12574 0.0
C32 C 0.52039 0.24425 0.1643 0.0
C33 C 0.51391 0.21653 0.15628 0.0
C34 C 0.50351 0.26597 0.15276 0.0
C35 C 0.47981 0.25912 0.13367 0.0
C36 C 0.49059 0.2107 0.13688 0.0
N37 N 0.4395 0.27336 0.10463 0.0
C38 C 0.46264 0.28038 0.12208 0.0
C39 C 0.42716 0.32214 0.10009 0.0
C40 C 0.45124 0.32973 0.11714 0.0
C41 C 0.42137 0.29377 0.09444 0.0
C42 C 0.4691 0.30881 0.12878 0.0
H43 H 0.45559 0.35175 0.12169 0.0
O44 O 0.40736 0.24841 0.13228 0.0
O45 O 0.41856 0.19434 0.05542 0.0
O46 O 0.44703 0.22264 1.00911 0.0
O47 O 0.42961 0.25212 0.05032 0.0
O48 O 0.39319 0.22847 0.06344 0.0
O49 O 0.40687 0.20319 0.13273 0.0
O50 O 0.50016 0.17067 0.06169 0.0
O51 O 0.47437 0.21912 0.0742 0.0
O52 O 0.4365 0.18079 0.12065 0.0
O53 O 0.45745 0.15352 0.08118 0.0
O54 O 0.48981 0.22405 0.02785 0.0
O55 O 0.49084 0.15635 1.01251 0.0
C56 C 0.39585 0.2067 0.04438 0.0
C57 C 0.49293 0.31557 0.14714 0.0
C58 C 0.50998 0.29422 0.15926 0.0
C59 C 0.40157 0.22613 0.14911 0.0
C60 C 0.41096 0.22677 0.18353 0.0
C61 C 0.43559 0.21295 0.19276 0.0
C62 C 0.39699 0.24348 0.20665 0.0
C63 C 0.40799 0.24714 0.23848 0.0
C64 C 0.44631 0.21598 0.22422 0.0
C65 C 0.43286 0.2332 0.24687 0.0
C66 C 0.43609 0.24678 0.01923 0.0
C67 C 0.48978 0.23589 0.05645 0.0
C68 C 0.50961 0.15812 0.03545 0.0
C69 C 0.53819 0.16554 0.02503 0.0
C70 C 0.55895 0.17104 0.04849 0.0
C71 C 0.54484 0.16775 0.99159 0.0
C72 C 0.57159 0.17605 0.98154 0.0
C73 C 0.5857 0.17896 0.03868 0.0
C74 C 0.59203 0.18155 1.00544 0.0
C75 C 0.44682 0.156 0.11135 0.0
H76 H 0.44702 0.20018 0.17561 0.0
H77 H 0.37787 0.25392 0.19953 0.0
H78 H 0.46551 0.20546 0.23081 0.0
H79 H 0.44243 0.2361 0.27066 0.0
H80 H 0.55443 0.1694 0.07441 0.0
H81 H 0.52921 0.16299 0.9732 0.0
H82 H 0.60153 0.18336 0.05691 0.0
H83 H 0.61276 0.1883 0.99846 0.0
Gd84 Gd 0.66121 0.68172 0.34442 0.0
Gd85 Gd 0.69854 0.71761 0.29039 0.0
C86 C 0.72735 0.71273 0.18377 0.0
C87 C 0.76529 0.6791 0.18653 0.0
C88 C 0.7386 0.69077 0.23562 0.0
C89 C 0.72231 0.70911 0.21758 0.0
C90 C 0.76011 0.67534 0.22004 0.0
C91 C 0.7489 0.69767 0.16843 0.0
C92 C 0.71078 0.73162 0.16635 0.0
C93 C 0.69003 0.74667 0.18266 0.0
N94 N 0.70181 0.72371 0.23312 0.0
C95 C 0.68595 0.74265 0.21617 0.0
H96 H 0.67036 0.75525 0.22825 0.0
C97 C 0.74716 0.66741 0.28557 0.0
N98 N 0.73265 0.68696 0.26791 0.0
C99 C 0.76857 0.65174 0.27113 0.0
C100 C 0.77527 0.65589 0.23834 0.0
H101 H 0.74216 0.66323 0.31082 0.0
H102 H 0.75306 0.70023 0.14253 0.0
H103 H 0.68683 0.74018 0.38386 0.0
H104 H 0.71404 0.73498 0.14041 0.0
H105 H 0.6774 0.76171 0.16953 0.0
H106 H 0.78168 0.66741 0.17426 0.0
H107 H 0.60602 0.64079 0.32865 0.0
H108 H 0.62333 0.77031 0.44833 0.0
H109 H 0.67107 0.77354 0.42596 0.0
H110 H 0.54598 0.70949 0.42688 0.0
H111 H 0.77985 0.63636 0.28534 0.0
H112 H 0.79178 0.64357 0.2272 0.0
H113 H 0.57706 0.74609 0.44885 0.0
H114 H 0.55728 0.63596 0.34714 0.0
N115 N 0.64834 0.7176 0.38191 0.0
C116 C 0.63012 0.75539 0.42981 0.0
C117 C 0.65708 0.75728 0.41726 0.0
C118 C 0.61217 0.7344 0.41824 0.0
C119 C 0.62192 0.71557 0.39391 0.0
C120 C 0.66598 0.73805 0.39345 0.0
N121 N 0.614 0.67704 0.35801 0.0
C122 C 0.60417 0.69499 0.38133 0.0
C123 C 0.57016 0.65278 0.35673 0.0
C124 C 0.55953 0.67131 0.38026 0.0
C125 C 0.5977 0.65575 0.3461 0.0
C126 C 0.57661 0.69256 0.39309 0.0
H127 H 0.53825 0.6688 0.38867 0.0
O128 O 0.68684 0.64638 0.36026 0.0
O129 O 0.69039 0.67123 0.30161 0.0
O130 O 0.66093 0.70436 0.26083 0.0
O131 O 0.63133 0.68544 0.30074 0.0
O132 O 0.65373 0.64842 0.30569 0.0
O133 O 0.64929 0.65753 0.38657 0.0
O134 O 0.71011 0.75431 0.31967 0.0
O135 O 0.66401 0.72714 0.32781 0.0
O136 O 0.70217 0.6926 0.37325 0.0
O137 O 0.73069 0.70818 0.33245 0.0
O138 O 0.66033 0.74562 0.28302 0.0
O139 O 0.72932 0.74687 0.2725 0.0
C140 C 0.67586 0.65068 0.28769 0.0
C141 C 0.56706 0.71108 0.41752 0.0
C142 C 0.58481 0.73187 0.43012 0.0
C143 C 0.66854 0.63871 0.38204 0.0
C144 C 0.65827 0.60955 0.38117 0.0
C145 C 0.6675 0.58957 0.35807 0.0
C146 C 0.63686 0.6024 0.40276 0.0
C147 C 0.62359 0.5763 0.40073 0.0
C148 C 0.65508 0.56292 0.3568 0.0
C149 C 0.63312 0.55624 0.37801 0.0
C150 C 0.63661 0.69386 0.27028 0.0
C151 C 0.64754 0.74384 0.31076 0.0
C152 C 0.72431 0.76517 0.2956 0.0
C153 C 0.71567 0.79332 0.28443 0.0
C154 C 0.70368 0.81281 0.30625 0.0
C155 C 0.71678 0.79973 0.25092 0.0
C156 C 0.70476 0.82436 0.23881 0.0
C157 C 0.69233 0.83784 0.29449 0.0
C158 C 0.69256 0.8435 0.26093 0.0
C159 C 0.72753 0.70037 0.36353 0.0
H160 H 0.68389 0.59459 0.34083 0.0
H161 H 0.62991 0.61765 0.42089 0.0
H162 H 0.66217 0.5476 0.33893 0.0
H163 H 0.62328 0.5358 0.37627 0.0
H164 H 0.70247 0.80839 0.3322 0.0
H165 H 0.72588 0.78485 0.23381 0.0
H166 H 0.68285 0.85265 0.31137 0.0
H167 H 0.68335 0.86288 0.25234 0.0
Gd168 Gd 0.19947 0.91496 0.59497 0.0
Gd169 Gd 0.166 0.95752 0.54035 0.0
C170 C 0.19073 0.97363 0.43367 0.0
C171 C 0.22564 1.0103 0.43948 0.0
C172 C 0.20296 0.99099 0.48769 0.0
C173 C 0.18715 0.97354 0.46798 0.0
C174 C 0.22158 1.01042 0.47354 0.0
C175 C 0.2105 0.99166 0.41961 0.0
C176 C 0.17401 0.95594 0.41448 0.0
C177 C 0.15313 0.94009 0.42934 0.0
N178 N 0.1677 0.95702 0.4823 0.0
C179 C 0.14971 0.94148 0.46331 0.0
H180 H 0.13349 0.92911 0.47452 0.0
C181 C 0.21306 1.00825 0.54072 0.0
N182 N 0.19943 0.98969 0.52062 0.0
C183 C 0.2308 1.02869 0.52775 0.0
C184 C 0.23528 1.02964 0.49401 0.0
H185 H 0.21052 1.00749 0.56686 0.0
H186 H 0.21367 0.99189 0.39334 0.0
H187 H 0.14778 0.94205 0.64365 0.0
H188 H 0.17655 0.95498 0.38814 0.0
H189 H 0.13954 0.92694 0.41464 0.0
H190 H 0.24025 1.02469 0.42825 0.0
H191 H 0.2359 0.85755 0.57334 0.0
H192 H 0.10197 0.87343 0.6832 0.0
H193 H 0.1103 0.92447 0.67867 0.0
H194 H 0.14724 0.79231 0.63852 0.0
H195 H 0.24142 1.04335 0.54385 0.0
H196 H 0.24944 1.04514 0.48407 0.0
H197 H 0.11528 0.82443 0.66726 0.0
H198 H 0.23109 0.80593 0.57669 0.0
N199 N 0.16178 0.90138 0.6287 0.0
C200 C 0.11892 0.88099 0.66808 0.0
C201 C 0.12357 0.90981 0.66559 0.0
C202 C 0.13613 0.86225 0.65098 0.0
C203 C 0.15792 0.87313 0.63155 0.0
C204 C 0.14515 0.91971 0.64576 0.0
N205 N 0.19776 0.86577 0.59828 0.0
C206 C 0.17605 0.85489 0.6154 0.0
C207 C 0.21537 0.81944 0.58746 0.0
C208 C 0.19242 0.80783 0.60348 0.0
C209 C 0.21799 0.84862 0.58554 0.0
C210 C 0.17271 0.82554 0.61824 0.0
H211 H 0.19053 0.7852 0.60508 0.0
O212 O 0.22067 0.89425 0.63487 0.0
O213 O 0.21093 0.94668 0.55533 0.0
O214 O 0.18289 0.92286 0.50992 0.0
O215 O 0.19478 0.88853 0.54769 0.0
O216 O 0.2348 0.91045 0.55834 0.0
O217 O 0.23379 0.93577 0.62011 0.0
O218 O 0.14801 0.99898 0.54863 0.0
O219 O 0.15556 0.92393 0.57851 0.0
O220 O 0.19284 0.9568 0.62485 0.0
O221 O 0.16995 0.98489 0.58818 0.0
O222 O 0.13484 0.92101 0.5349 0.0
O223 O 0.12345 0.96642 0.52571 0.0
C224 C 0.2326 0.9336 0.54207 0.0
C225 C 0.15032 0.81478 0.6364 0.0
C226 C 0.13215 0.83307 0.65282 0.0
C227 C 0.23946 0.91378 0.63768 0.0
C228 C 0.26844 0.90383 0.63845 0.0
C229 C 0.28905 0.91386 0.61702 0.0
C230 C 0.27518 0.88285 0.66081 0.0
C231 C 0.30203 0.87135 0.66182 0.0
C232 C 0.3161 0.90288 0.61834 0.0
C233 C 0.32266 0.88172 0.6407 0.0
C234 C 0.18993 0.89695 0.51724 0.0
C235 C 0.13751 0.90828 0.56239 0.0
C236 C 0.12521 0.99301 0.53284 0.0
C237 C 0.11638 1.01313 0.50748 0.0
C238 C 0.11606 1.04205 0.51454 0.0
C239 C 0.10753 1.00373 0.47646 0.0
C240 C 0.09826 1.02285 0.45287 0.0
C241 C 0.1069 1.06119 0.49105 0.0
C242 C 0.09786 1.05167 0.46039 0.0
C243 C 0.18161 0.98164 0.61757 0.0
H244 H 0.2843 0.92996 0.59925 0.0
H245 H 0.25931 0.87538 0.67759 0.0
H246 H 0.33196 0.91064 0.60185 0.0
H247 H 0.34361 0.87323 0.6412 0.0
H248 H 0.12268 1.04982 0.53831 0.0
H249 H 0.107 0.98148 0.4708 0.0
H250 H 0.1066 0.08344 0.49673 0.0
H251 H 0.09057 1.06673 0.44256 0.0
Gd252 Gd 0.97036 0.45615 0.8399 0.0
Gd253 Gd 0.9303 0.42021 0.78607 0.0
C254 C 0.91169 0.4388 0.67874 0.0
C255 C 0.87539 0.47416 0.68297 0.0
C256 C 0.89632 0.45492 0.73239 0.0
C257 C 0.91319 0.43762 0.71326 0.0
C258 C 0.8764 0.47246 0.71725 0.0
C259 C 0.89324 0.45764 0.66378 0.0
C260 C 0.92817 0.4204 0.66017 0.0
C261 C 0.94443 0.40036 0.67595 0.0
N262 N 0.92989 0.41858 0.72828 0.0
C263 C 0.94446 0.39924 0.7101 0.0
H264 H 0.95684 0.38334 0.72192 0.0
C265 C 0.88033 0.46877 0.7849 0.0
N266 N 0.89836 0.45366 0.76563 0.0
C267 C 0.85951 0.4854 0.77092 0.0
C268 C 0.85764 0.48741 0.73696 0.0
H269 H 0.88188 0.46866 0.81114 0.0
H270 H 0.89195 0.45892 0.63733 0.0
H271 H 0.94086 0.40388 0.88616 0.0
H272 H 0.92785 0.42093 0.63364 0.0
H273 H 0.95679 0.38559 0.66185 0.0
H274 H 0.8606 0.48792 0.67104 0.0
H275 H 1.02854 0.49214 0.82236 0.0
H276 H 1.00646 0.35923 0.933 0.0
H277 H 0.95623 0.36695 0.92321 0.0
H278 H 0.08926 0.40466 0.89546 0.0
H279 H 0.84532 0.49718 0.7864 0.0
H280 H 0.84182 0.50074 0.72622 0.0
H281 H 1.05584 0.3727 0.9215 0.0
H282 H 0.07943 0.48747 0.83033 0.0
N283 N 0.98187 0.41891 0.87577 0.0
C284 C 0.99983 0.37613 0.91716 0.0
C285 C 0.97147 0.38045 0.91173 0.0
C286 C 1.01933 0.39348 0.90185 0.0
C287 C 1.00965 0.41524 0.88139 0.0
C288 C 0.96281 0.40189 0.89085 0.0
N289 N 1.01882 0.45482 0.8484 0.0
C290 C 1.0286 0.43337 0.86686 0.0
C291 C 1.0654 0.47203 0.84058 0.0
C292 C 0.07592 0.44949 0.85841 0.0
C293 C 1.03663 0.47458 0.83606 0.0
C294 C 1.05751 0.43003 0.87218 0.0
H295 H 0.09824 0.44759 0.86193 0.0
O296 O 0.98957 0.48304 0.87675 0.0
O297 O 0.9398 0.46644 0.79824 0.0
O298 O 0.96885 0.43002 0.75674 0.0
O299 O 0.99855 0.45099 0.79499 0.0
O300 O 0.9773 0.48811 0.79994 0.0
O301 O 0.94653 0.4896 0.86297 0.0
O302 O 0.91467 0.38254 0.81039 0.0
O303 O 0.964 0.4111 0.82386 0.0
O304 O 0.92833 0.45009 0.86882 0.0
O305 O 0.901 0.42691 0.83133 0.0
O306 O 0.96684 0.38919 0.78039 0.0
O307 O 0.89653 0.39637 0.7648 0.0
C308 C 0.95438 0.48621 0.78336 0.0
C309 C 1.06713 0.40775 0.89145 0.0
C310 C 1.0481 0.38959 0.90634 0.0
C311 C 0.96825 0.49989 0.87797 0.0
C312 C 0.97454 0.52974 0.8725 0.0
C313 C 0.96411 0.54419 0.84521 0.0
C314 C 0.99339 0.54319 0.89348 0.0
C315 C 1.00319 0.57037 0.88669 0.0
C316 C 0.97311 0.57148 0.83871 0.0
C317 C 0.99275 0.58446 0.85908 0.0
C318 C 0.99325 0.44071 0.76531 0.0
C319 C 0.97954 0.39261 0.80812 0.0
C320 C 0.89661 0.37723 0.78737 0.0
C321 C 0.89376 0.34809 0.77584 0.0
C322 C 0.87812 0.32881 0.79397 0.0
C323 C 0.90344 0.34048 0.74475 0.0
C324 C 0.89579 0.31485 0.73021 0.0
C325 C 0.87167 0.30248 0.78055 0.0
C326 C 0.88005 0.29563 0.74865 0.0
C327 C 0.90378 0.43867 0.86084 0.0
H328 H 0.94943 0.53432 0.8286 0.0
H329 H 1.0008 0.53204 0.91484 0.0
H330 H 0.96529 0.58239 0.81742 0.0
H331 H 1.00012 0.60523 0.85278 0.0
H332 H 0.87026 0.3344 0.81803 0.0
H333 H 0.91606 0.35515 0.73133 0.0
H334 H 0.85931 0.28774 0.79446 0.0
H335 H 0.87351 0.27572 0.73822 0.0
Gd336 Gd 0.67353 0.96012 0.99161 0.0
Gd337 Gd 0.70532 0.9173 0.93634 0.0
C338 C 0.63894 0.86746 0.88029 0.0
C339 C 0.65269 0.81935 0.89133 0.0
C340 C 0.67991 0.85831 0.91341 0.0
C341 C 0.6616 0.87734 0.89929 0.0
C342 C 0.67578 0.82913 0.90922 0.0
C343 C 0.63441 0.83846 0.87679 0.0
C344 C 0.62132 0.88701 0.86547 0.0
C345 C 0.62629 0.91563 0.86993 0.0
N346 N 0.66592 0.90538 0.90397 0.0
C347 C 0.64868 0.92451 0.88933 0.0
H348 H 0.65131 0.94671 0.89325 0.0
C349 C 0.72208 0.85025 0.94208 0.0
N350 N 0.70227 0.86825 0.9303 0.0
C351 C 0.71867 0.82121 0.93881 0.0
C352 C 0.69527 0.81058 0.92261 0.0
H353 H 0.74035 0.85841 0.95441 0.0
H354 H 0.6169 0.83058 0.86268 0.0
H355 H 0.64141 0.9354 0.05902 0.0
H356 H 0.60372 0.88023 0.85076 0.0
H357 H 0.61261 0.93092 0.8588 0.0
H358 H 0.64907 0.79702 0.88812 0.0
H359 H 0.72407 1.00498 0.96128 0.0
H360 H 0.68308 0.96846 0.14335 0.0
H361 H 0.64729 0.9375 0.11886 0.0
H362 H 0.74786 1.03414 0.09862 0.0
H363 H 0.73414 0.80705 0.9487 0.0
H364 H 0.69275 0.78805 0.91998 0.0
H365 H 0.72026 1.00463 0.13557 0.0
H366 H 0.7543 1.04194 0.98228 0.0
N367 N 0.67547 0.9629 0.04924 0.0
C368 C 0.68102 0.9672 0.11695 0.0
C369 C 0.66067 0.94984 0.10326 0.0
C370 C 0.69803 0.98327 0.09648 0.0
C371 C 0.69495 0.98046 0.06219 0.0
C372 C 0.65759 0.94855 0.06928 0.0
N373 N 0.70836 0.99282 1.00821 0.0
C374 C 0.71119 0.99645 0.04119 0.0
C375 C 0.74212 1.02948 0.99913 0.0
C376 C 0.745 1.0335 0.03275 0.0
C377 C 0.72421 1.00859 0.98726 0.0
C378 C 0.72999 1.01651 0.05425 0.0
H379 H 0.75935 1.04932 0.04186 0.0
O380 O 0.63629 0.97652 0.96809 0.0
O381 O 0.66194 0.92511 0.95528 0.0
O382 O 0.6976 0.95945 0.90729 0.0
O383 O 0.68008 0.98957 0.94638 0.0
O384 O 0.64402 0.92253 1.00066 0.0
O385 O 0.6475 0.99061 0.01677 0.0
O386 O 0.72845 0.89603 0.89775 0.0
O387 O 0.71798 0.94858 0.97637 0.0
O388 O 0.68658 0.92342 0.02132 0.0
O389 O 0.70321 0.89068 0.98336 0.0
O390 O 0.74105 0.91208 0.97238 0.0
O391 O 0.73608 0.94008 0.90813 0.0
C392 C 0.64504 0.90955 0.97278 0.0
C393 C 0.73325 1.01912 0.0883 0.0
C394 C 0.71757 1.00231 0.10934 0.0
C395 C 0.62815 0.9898 0.99446 0.0
C396 C 0.59939 0.98412 1.00578 0.0
C397 C 0.57797 0.97975 0.98286 0.0
C398 C 0.59321 0.98229 0.03943 0.0
C399 C 0.56624 0.97521 0.05016 0.0
C400 C 0.55108 0.97307 0.9933 0.0
C401 C 0.54523 0.97061 0.02666 0.0
C402 C 0.68898 0.98528 0.91575 0.0
C403 C 0.7393 0.93506 0.98944 0.0
C404 C 0.74361 0.91797 0.89142 0.0
C405 C 0.77353 0.91306 0.88739 0.0
C406 C 0.79292 0.91852 0.91241 0.0
C407 C 0.7826 0.902 0.85753 0.0
C408 C 0.81084 0.89601 0.85223 0.0
C409 C 0.82119 0.9126 0.90732 0.0
C410 C 0.83017 0.9012 0.87742 0.0
C411 C 0.6964 0.89839 0.01372 0.0
H412 H 0.58209 0.9812 0.95684 0.0
H413 H 0.60938 0.98635 0.05737 0.0
H414 H 0.53476 0.96943 0.97545 0.0
H415 H 0.52436 0.96465 0.03398 0.0
H416 H 0.78627 0.92715 0.93573 0.0
H417 H 0.76738 0.89734 0.83858 0.0
H418 H 0.83613 0.91668 0.92665 0.0
H419 H 0.85208 0.8965 0.87394 0.0
Gd420 Gd 0.43927 0.4241 0.73935 0.0
Gd421 Gd 0.47691 0.45877 0.68177 0.0
C422 C 0.5273 0.39395 0.62397 0.0
C423 C 0.57478 0.40965 0.63402 0.0
C424 C 0.53564 0.43588 0.65672 0.0
C425 C 0.5171 0.41653 0.64315 0.0
C426 C 0.5646 0.43293 0.65162 0.0
C427 C 0.55618 0.39028 0.62013 0.0
C428 C 0.50818 0.37573 0.60905 0.0
C429 C 0.47967 0.38028 0.61323 0.0
N430 N 0.4892 0.42008 0.64805 0.0
C431 C 0.47048 0.40268 0.63275 0.0
H432 H 0.44842 0.40534 0.63614 0.0
C433 C 0.54246 0.47983 0.68313 0.0
N434 N 0.52531 0.45839 0.67336 0.0
C435 C 0.57131 0.47767 0.67893 0.0
C436 C 0.58247 0.4539 0.66357 0.0
H437 H 0.53377 0.49839 0.69465 0.0
H438 H 0.56433 0.37276 0.60599 0.0
H439 H 0.46876 0.3958 0.80588 0.0
H440 H 0.51521 0.35815 0.59418 0.0
H441 H 0.46473 0.36634 0.60168 0.0
H442 H 0.59698 0.40683 0.63027 0.0
H443 H 0.39103 0.46965 0.71057 0.0
H444 H 0.43161 0.43184 0.89161 0.0
H445 H 0.46595 0.39973 0.86601 0.0
H446 H 0.35949 0.49032 0.84812 0.0
H447 H 0.58488 0.49437 0.68743 0.0
H448 H 0.60484 0.45235 0.66018 0.0
H449 H 0.39161 0.46524 0.8847 0.0
H450 H 0.35157 0.49697 0.73143 0.0
N451 N 0.43781 0.42697 0.79722 0.0
C452 C 0.43315 0.4306 0.86516 0.0
C453 C 0.45252 0.41245 0.85083 0.0
C454 C 0.41531 0.44617 0.84518 0.0
C455 C 0.41836 0.44402 0.81086 0.0
C456 C 0.4541 0.41038 0.81672 0.0
N457 N 0.40512 0.45663 0.75757 0.0
C458 C 0.40093 0.45869 0.79038 0.0
C459 C 0.36524 0.48626 0.74833 0.0
C460 C 0.36082 0.4886 0.78199 0.0
C461 C 0.3877 0.47039 0.73654 0.0
C462 C 0.37902 0.47511 0.80352 0.0
H463 H 0.34363 0.50119 0.79108 0.0
O464 O 0.40142 0.4009 0.72735 0.0
O465 O 0.47132 0.41397 0.69921 0.0
O466 O 0.43409 0.45198 0.65569 0.0
O467 O 0.41007 0.42505 0.69242 0.0
O468 O 0.47702 0.39479 0.74354 0.0
O469 O 0.43195 0.38273 0.7595 0.0
O470 O 0.45342 0.49145 0.65725 0.0
O471 O 0.44765 0.46958 0.72437 0.0
O472 O 0.47667 0.44063 0.76726 0.0
O473 O 0.50603 0.45658 0.7258 0.0
O474 O 0.48236 0.49471 0.71833 0.0
O475 O 0.49473 0.48033 0.64013 0.0
C476 C 0.48819 0.39695 0.71504 0.0
C477 C 0.37596 0.47754 0.83762 0.0
C478 C 0.39425 0.4633 0.85843 0.0
C479 C 0.40671 0.38107 0.74819 0.0
C480 C 0.38448 0.37401 0.77189 0.0
C481 C 0.35624 0.37687 0.76329 0.0
C482 C 0.39129 0.36374 0.80309 0.0
C483 C 0.37033 0.35625 0.82539 0.0
C484 C 0.3353 0.3696 0.78548 0.0
C485 C 0.34224 0.35919 0.81633 0.0
C486 C 0.4109 0.43829 0.66359 0.0
C487 C 0.46065 0.49164 0.73691 0.0
C488 C 0.47365 0.49722 0.63716 0.0
C489 C 0.48049 0.52678 0.63176 0.0
C490 C 0.47718 0.54757 0.65601 0.0
C491 C 0.49156 0.5339 0.60135 0.0
C492 C 0.49969 0.56153 0.59469 0.0
C493 C 0.48511 0.57528 0.64953 0.0
C494 C 0.49649 0.58228 0.61907 0.0
C495 C 0.50108 0.45007 0.75681 0.0
H496 H 0.35035 0.38458 0.73937 0.0
H497 H 0.41295 0.36083 0.80989 0.0
H498 H 0.3136 0.37183 0.77864 0.0
H499 H 0.32573 0.35345 0.83311 0.0
H500 H 0.46875 0.5424 0.67983 0.0
H501 H 0.49467 0.51752 0.58308 0.0
H502 H 0.48267 0.59132 0.66825 0.0
H503 H 0.50277 0.60377 0.61456 0.0
Gd504 Gd 0.96755 0.18846 0.48814 0.0
Gd505 Gd 0.93596 0.22922 0.43063 0.0
C506 C 1.00776 0.27017 0.37457 0.0
C507 C 0.99773 0.3198 0.38193 0.0
C508 C 0.96717 0.28464 0.40598 0.0
C509 C 0.98399 0.26334 0.39341 0.0
C510 C 0.97394 0.31308 0.40028 0.0
C511 C 1.01452 0.29843 0.36902 0.0
C512 C 1.02446 0.24843 0.36236 0.0
C513 C 1.01766 0.22067 0.36937 0.0
N514 N 0.97771 0.2361 0.40037 0.0
C515 C 0.99423 0.21483 0.38846 0.0
H516 H 0.98993 0.19324 0.39414 0.0
C517 C 0.92659 0.29815 0.43519 0.0
N518 N 0.94421 0.27767 0.42366 0.0
C519 C 0.93264 0.32652 0.43038 0.0
C520 C 0.95652 0.33404 0.41304 0.0
H521 H 0.9077 0.29246 0.44805 0.0
H522 H 1.03283 0.30398 0.35491 0.0
H523 H 1.00826 0.21157 0.55015 0.0
H524 H 1.04286 0.25287 0.34788 0.0
H525 H 1.03063 0.2037 0.36031 0.0
H526 H 1.00325 0.34151 0.37743 0.0
H527 H 0.91272 0.14597 0.4656 0.0
H528 H 0.97384 0.1828 0.64019 0.0
H529 H 1.00961 0.20964 0.6101 0.0
H530 H 0.89654 0.12604 0.60657 0.0
H531 H 0.91878 0.34257 0.43988 0.0
H532 H 0.96112 0.35607 0.40926 0.0
H533 H 0.93192 0.15153 0.6386 0.0
H534 H 0.87772 0.11664 0.49201 0.0
N535 N 0.97116 0.18703 0.54566 0.0
C536 C 0.97293 0.18377 0.61371 0.0
C537 C 0.9931 0.19901 0.59684 0.0
C538 C 0.95217 0.16949 0.59619 0.0
C539 C 0.95186 0.17141 0.56167 0.0
C540 C 0.99205 0.20024 0.56269 0.0
N541 N 0.93237 0.15899 0.51027 0.0
C542 C 0.93207 0.15684 0.5435 0.0
C543 C 0.89296 0.12772 0.5068 0.0
C544 C 0.89218 0.12573 0.54078 0.0
C545 C 0.9133 0.14429 0.49187 0.0
C546 C 0.91191 0.14022 0.55959 0.0
H547 H 0.87629 0.11295 0.55225 0.0
O548 O 1.0039 0.17355 0.46129 0.0
O549 O 0.97896 0.22292 0.45152 0.0
O550 O 0.94123 0.18502 0.40517 0.0
O551 O 0.95799 0.1564 0.44567 0.0
O552 O 0.99694 0.22643 0.49667 0.0
O553 O 0.99332 0.15551 0.50816 0.0
O554 O 0.9113 0.25323 0.39579 0.0
O555 O 0.92382 0.19887 0.47087 0.0
O556 O 0.95516 0.22648 0.51715 0.0
O557 O 0.93539 0.25582 0.47746 0.0
O558 O 0.89768 0.23248 0.4645 0.0
O559 O 0.91002 0.20801 0.39452 0.0
C560 C 0.99568 0.23906 0.46883 0.0
C561 C 0.91195 0.13858 0.5939 0.0
C562 C 0.93206 0.15312 0.61214 0.0
C563 C 1.01248 0.15839 0.4858 0.0
C564 C 1.04095 0.16425 0.49781 0.0
C565 C 1.06183 0.17355 0.47631 0.0
C566 C 1.0466 0.16333 0.53153 0.0
C567 C 0.07184 0.1735 0.54404 0.0
C568 C 0.0875 0.18276 0.48858 0.0
C569 C 0.09238 0.18316 0.52232 0.0
C570 C 0.94913 0.15949 0.41493 0.0
C571 C 0.90144 0.21092 0.48323 0.0
C572 C 0.90461 0.23108 0.37881 0.0
C573 C 0.913 0.23159 0.34407 0.0
C574 C 0.93757 0.21808 0.33385 0.0
C575 C 0.89808 0.2478 0.32157 0.0
C576 C 0.90808 0.25128 0.28933 0.0
C577 C 0.94733 0.22092 0.30199 0.0
C578 C 0.93294 0.23766 0.27993 0.0
C579 C 0.94384 0.25042 0.50774 0.0
H580 H 1.05806 0.1744 0.45018 0.0
H581 H 1.03079 0.15611 0.54846 0.0
H582 H 0.1034 0.19019 0.47194 0.0
H583 H 0.11217 0.19093 0.53145 0.0
H584 H 0.94966 0.20572 0.35056 0.0
H585 H 0.879 0.25797 0.32948 0.0
H586 H 0.9665 0.21066 0.29462 0.0
H587 H 0.94178 0.24046 0.25578 0.0
Gd588 Gd 0.20517 0.71906 0.23714 0.0
Gd589 Gd 0.16588 0.68428 0.18083 0.0
C590 C 0.12401 0.75315 0.12081 0.0
C591 C 0.07489 0.74307 0.12923 0.0
C592 C 0.11033 0.71363 0.15447 0.0
C593 C 0.13118 0.73025 0.14099 0.0
C594 C 0.08198 0.71985 0.1485 0.0
C595 C 0.09583 0.75957 0.11528 0.0
C596 C 0.14535 0.76925 0.10709 0.0
C597 C 0.17305 0.76258 0.11373 0.0
N598 N 0.15835 0.72438 0.14793 0.0
C599 C 0.17923 0.74001 0.13416 0.0
H600 H 0.20075 0.73577 0.13939 0.0
C601 C 0.09767 0.67333 0.18477 0.0
N602 N 0.11765 0.69117 0.17294 0.0
C603 C 1.06939 0.67886 0.17974 0.0
C604 C 1.06149 0.70236 0.16177 0.0
H605 H 0.10367 0.65477 0.1982 0.0
H606 H 0.09002 0.77732 0.10027 0.0
H607 H 0.18065 0.75967 0.29878 0.0
H608 H 0.14065 0.78698 0.09153 0.0
H609 H 0.18972 0.77498 0.10331 0.0
H610 H 1.05325 0.74826 0.12463 0.0
H611 H 0.24916 0.66536 0.21498 0.0
H612 H 0.20993 0.72634 0.38922 0.0
H613 H 0.1824 0.76147 0.35885 0.0
H614 H 0.26829 0.64975 0.35625 0.0
H615 H 1.05371 0.6649 0.18955 0.0
H616 H 1.03954 0.70654 0.1578 0.0
H617 H 0.242 0.68489 0.38798 0.0
H618 H 0.27902 0.63086 0.24173 0.0
N619 N 0.20622 0.72313 0.29465 0.0
C620 C 0.2091 0.72529 0.36272 0.0
C621 C 0.19349 0.74511 0.34569 0.0
C622 C 0.22388 0.70467 0.34536 0.0
C623 C 0.22213 0.70415 0.31082 0.0
C624 C 0.19243 0.74386 0.31152 0.0
N625 N 0.23524 0.6846 0.25952 0.0
C626 C 0.23715 0.68447 0.2928 0.0
C627 C 0.26744 0.64588 0.2564 0.0
C628 C 0.26913 0.64517 0.29043 0.0
C629 C 0.25056 0.66589 0.24128 0.0
C630 C 0.25408 0.66467 0.30908 0.0
H631 H 0.28219 0.62956 0.30205 0.0
O632 O 0.21972 0.75574 0.21066 0.0
O633 O 0.17127 0.72885 0.1992 0.0
O634 O 0.21037 0.68797 0.15664 0.0
O635 O 0.23712 0.71129 0.19457 0.0
O636 O 0.16695 0.74794 0.24406 0.0
O637 O 0.23707 0.74581 0.25808 0.0
O638 O 0.14294 0.65846 0.1456 0.0
O639 O 0.1959 0.67391 0.22193 0.0
O640 O 0.16742 0.70724 0.26628 0.0
O641 O 0.13896 0.68496 0.22733 0.0
O642 O 0.1623 0.64736 0.21636 0.0
O643 O 0.18781 0.65666 0.14703 0.0
C644 C 0.15488 0.74584 0.21588 0.0
C645 C 0.25552 0.6649 0.34342 0.0
C646 C 0.24053 0.68488 0.3615 0.0
C647 C 0.23423 0.76487 0.23558 0.0
C648 C 0.22766 0.79352 0.24726 0.0
C649 C 0.21903 0.81435 0.22526 0.0
C650 C 0.22704 0.7993 0.281 0.0
C651 C 0.21583 0.82447 0.29296 0.0
C652 C 0.20894 0.84006 0.23702 0.0
C653 C 0.2069 0.84499 0.27072 0.0
C654 C 0.2349 0.69918 0.16515 0.0
C655 C 0.1837 0.6519 0.23508 0.0
C656 C 0.16546 0.65105 0.13013 0.0
C657 C 0.16636 0.65815 0.09496 0.0
C658 C 0.18417 0.6794 0.08339 0.0
C659 C 0.14758 0.6454 0.07314 0.0
C660 C 0.14588 0.6543 0.04031 0.0
C661 C 0.18285 0.68809 0.05098 0.0
C662 C 0.16366 0.67592 0.02962 0.0
C663 C 0.14395 0.69483 0.25732 0.0
H664 H 0.21937 0.81047 0.19908 0.0
H665 H 0.23381 0.78354 0.29827 0.0
H666 H 0.20204 0.85593 0.21998 0.0
H667 H 0.1984 0.86477 0.2794 0.0
H668 H 0.19885 0.68987 0.09925 0.0
H669 H 0.13414 0.62878 0.08196 0.0
H670 H 0.1964 0.70474 0.04254 0.0
H671 H 0.16246 0.6839 1.00491 0.0
Gd672 Gd 0.93006 0.72425 0.59283 0.0
Gd673 Gd 0.96347 0.68518 0.53575 0.0
C674 C 0.94518 0.66396 0.42864 0.0
C675 C 0.91126 0.62636 0.43321 0.0
C676 C 0.92936 0.6493 0.48242 0.0
C677 C 0.94591 0.66653 0.46313 0.0
C678 C 0.91258 0.62839 0.46748 0.0
C679 C 0.92732 0.64427 0.41384 0.0
C680 C 0.96313 0.68058 0.40996 0.0
C681 C 0.98203 0.69839 0.42565 0.0
N682 N 0.96391 0.6846 0.47802 0.0
C683 C 0.98248 0.69978 0.45982 0.0
H684 H 0.99763 0.71324 0.47155 0.0
C685 C 0.91532 0.63433 0.53504 0.0
N686 N 0.93047 0.65213 0.51564 0.0
C687 C 0.89941 0.61263 0.52128 0.0
C688 C 0.89796 0.60969 0.48737 0.0
H689 H 0.9145 0.63687 0.56118 0.0
H690 H 0.92641 0.64214 0.38742 0.0
H691 H 0.98483 0.69606 0.63569 0.0
H692 H 0.96312 0.67924 0.38345 0.0
H693 H 0.9965 0.71081 0.41146 0.0
H694 H 0.89816 0.61072 0.42144 0.0
H695 H 0.89003 0.7808 0.58115 0.0
H696 H 1.02971 0.76378 0.67983 0.0
H697 H 1.023 0.7129 0.67048 0.0
H698 H 0.97924 0.84552 0.64717 0.0
H699 H 0.88767 0.59865 0.53689 0.0
H700 H 0.8852 0.59316 0.47679 0.0
H701 H 1.01395 0.81306 0.66988 0.0
H702 H 0.89264 0.83218 0.59035 0.0
N703 N 0.9686 0.73697 0.62604 0.0
C704 C 1.0124 0.75652 0.66495 0.0
C705 C 1.00865 0.72778 0.65977 0.0
C706 C 0.99381 0.77558 0.65085 0.0
C707 C 0.97158 0.76508 0.63162 0.0
C708 C 0.98661 0.7183 0.64018 0.0
N709 N 0.92987 0.77288 0.60198 0.0
C710 C 0.95196 0.78352 0.6188 0.0
C711 C 0.90958 0.81878 0.59818 0.0
C712 C 0.93285 0.83034 0.61383 0.0
C713 C 0.90822 0.78978 0.59286 0.0
C714 C 0.95415 0.81266 0.6249 0.0
H715 H 0.93378 0.85282 0.61809 0.0
O716 O 0.89467 0.7022 0.61399 0.0
O717 O 0.91836 0.69408 0.55079 0.0
O718 O 0.95053 0.72415 0.50793 0.0
O719 O 0.93294 0.75357 0.54909 0.0
O720 O 0.89569 0.73096 0.55544 0.0
O721 O 0.9097 0.74073 0.6361 0.0
O722 O 1.00129 0.66956 0.55947 0.0
O723 O 0.97408 0.71847 0.57421 0.0
O724 O 0.93872 0.68232 0.62049 0.0
O725 O 0.95654 0.6542 0.57982 0.0
O726 O 0.99289 0.72308 0.52941 0.0
O727 O 0.98868 0.65344 0.51204 0.0
C728 C 0.89759 0.7084 0.53763 0.0
C729 C 0.97701 0.82317 0.64265 0.0
C730 C 0.99674 0.80467 0.65565 0.0
C731 C 0.8897 0.72233 0.63495 0.0
C732 C 0.86134 0.73411 0.63615 0.0
C733 C 0.83996 0.72512 0.61495 0.0
C734 C 0.85615 0.75608 0.6582 0.0
C735 C 0.83033 0.76974 0.65883 0.0
C736 C 0.81382 0.73818 0.61606 0.0
C737 C 0.80894 0.76044 0.63791 0.0
C738 C 0.94038 0.74861 0.51824 0.0
C739 C 0.99113 0.73495 0.55793 0.0
C740 C 1.00756 0.65317 0.53487 0.0
C741 C 1.0368 0.65195 0.52393 0.0
C742 C 1.05646 0.63804 0.54329 0.0
C743 C 1.04448 0.6613 0.49267 0.0
C744 C 0.07098 0.65519 0.47956 0.0
C745 C 0.08318 0.63279 0.53115 0.0
C746 C 0.0903 0.64083 0.49939 0.0
C747 C 0.94758 0.65714 0.61065 0.0
H748 H 0.84345 0.70829 0.59743 0.0
H749 H 0.87252 0.76277 0.67489 0.0
H750 H 0.7974 0.73123 0.59972 0.0
H751 H 0.78873 0.77059 0.63817 0.0
H752 H 1.05088 0.63048 0.56738 0.0
H753 H 1.02944 0.67265 0.47831 0.0
H754 H 0.09815 0.62162 0.54603 0.0
H755 H 0.11069 0.63504 0.49023 0.0
Gd756 Gd 0.16041 0.18599 0.84818 0.0
Gd757 Gd 0.20231 0.21739 0.79235 0.0
C758 C 0.22738 0.19909 0.68637 0.0
C759 C 0.2637 0.16407 0.69271 0.0
C760 C 0.23983 0.18301 0.7408 0.0
C761 C 0.22381 0.20003 0.72072 0.0
C762 C 0.26048 0.16538 0.72685 0.0
C763 C 0.24702 0.18068 0.67251 0.0
C764 C 0.21164 0.21721 0.66689 0.0
C765 C 0.19363 0.23644 0.68171 0.0
N766 N 0.20558 0.21834 0.73473 0.0
C767 C 0.19115 0.23703 0.71578 0.0
H768 H 0.17765 0.25255 0.72673 0.0
C769 C 0.25184 0.16776 0.79394 0.0
N770 N 0.23581 0.18411 0.77381 0.0
C771 C 0.27329 0.15103 0.78127 0.0
C772 C 0.27758 0.14975 0.74759 0.0
H773 H 0.24798 0.16651 0.81979 0.0
H774 H 0.24994 0.17962 0.64621 0.0
H775 H 0.19494 0.24072 0.88552 0.0
H776 H 0.21374 0.21701 0.64047 0.0
H777 H 0.18187 0.25104 0.66692 0.0
H778 H 0.2792 0.15041 0.68168 0.0
H779 H 0.09825 0.15736 0.82844 0.0
H780 H 0.13445 0.29292 0.93218 0.0
H781 H 0.18359 0.28131 0.92012 0.0
H782 H 1.04738 0.2525 0.90015 0.0
H783 H 0.28591 0.1384 0.79749 0.0
H784 H 0.29383 0.13627 0.73781 0.0
H785 H 0.08393 0.28237 0.92409 0.0
H786 H 1.04827 0.16821 0.83552 0.0
N787 N 0.15266 0.22811 0.87836 0.0
C788 C 0.13929 0.27462 0.9173 0.0
C789 C 0.16704 0.26818 0.91049 0.0
C790 C 0.11809 0.25772 0.90433 0.0
C791 C 0.12544 0.23409 0.88501 0.0
C792 C 0.17339 0.24486 0.89091 0.0
N793 N 0.11214 0.1941 0.85375 0.0
C794 C 0.10468 0.21706 0.87169 0.0
C795 C 1.0639 0.18219 0.84566 0.0
C796 C 1.05589 0.20601 0.86337 0.0
C797 C 0.09221 0.1763 0.84143 0.0
C798 C 0.07629 0.22358 0.87699 0.0
H799 H 1.03391 0.21044 0.86679 0.0
O800 O 0.13563 0.16207 0.88307 0.0
O801 O 0.19183 0.17277 0.80894 0.0
O802 O 0.16727 0.20183 0.76175 0.0
O803 O 0.13519 0.18484 0.79989 0.0
O804 O 0.1574 0.14744 0.81497 0.0
O805 O 0.18047 0.15998 0.88475 0.0
O806 O 0.21541 0.2549 0.81887 0.0
O807 O 0.16698 0.22905 0.82761 0.0
O808 O 0.20385 0.19091 0.87481 0.0
O809 O 0.23263 0.2106 0.83646 0.0
O810 O 0.16389 0.24543 0.78177 0.0
O811 O 0.2329 0.24533 0.77121 0.0
C812 C 0.17965 0.14991 0.79713 0.0
C813 C 1.06906 0.24723 0.89586 0.0
C814 C 0.08988 0.26417 0.9096 0.0
C815 C 0.15729 0.15523 0.90034 0.0
C816 C 0.15659 0.16425 0.93499 0.0
C817 C 0.17059 0.18877 0.94504 0.0
C818 C 0.14011 0.14984 0.95767 0.0
C819 C 0.13712 0.1602 0.98996 0.0
C820 C 0.16811 0.1989 0.97692 0.0
C821 C 0.15129 0.18492 0.99922 0.0
C822 C 0.14284 0.19103 0.7694 0.0
C823 C 0.15095 0.24486 0.80948 0.0
C824 C 0.22936 0.26442 0.79387 0.0
C825 C 0.22168 0.29276 0.7825 0.0
C826 C 0.21293 0.31348 0.80493 0.0
C827 C 0.22089 0.29857 0.74884 0.0
C828 C 0.21029 0.3241 0.73743 0.0
C829 C 0.20289 0.33924 0.79374 0.0
C830 C 0.20131 0.34448 0.76016 0.0
C831 C 0.2291 0.20041 0.86647 0.0
H832 H 0.18317 0.20052 0.92828 0.0
H833 H 0.12943 0.13085 0.94997 0.0
H834 H 0.17882 0.21799 0.98415 0.0
H835 H 0.1489 0.19394 0.02348 0.0
H836 H 0.21333 0.30955 0.83103 0.0
H837 H 0.22755 0.28282 0.73123 0.0
H838 H 0.19598 0.35504 0.81112 0.0
H839 H 0.19328 0.36451 0.75198 0.0
Gd840 Gd 0.70247 0.41362 0.09046 0.0
Gd841 Gd 0.66724 0.45358 0.03502 0.0
C842 C 0.68761 0.4797 0.92998 0.0
C843 C 0.72202 0.51648 0.9384 0.0
C844 C 0.70201 0.49209 0.98506 0.0
C845 C 0.68543 0.47643 0.96421 0.0
C846 C 0.72065 0.51223 0.97235 0.0
C847 C 0.70566 0.50011 0.91722 0.0
C848 C 0.67215 0.46186 0.90957 0.0
C849 C 0.65399 0.44235 0.92337 0.0
N850 N 0.6684 0.4568 0.9773 0.0
C851 C 0.65188 0.44054 0.95741 0.0
H852 H 0.6376 0.4255 0.96788 0.0
C853 C 0.718 0.50088 0.03882 0.0
N854 N 0.70114 0.48641 0.01755 0.0
C855 C 0.73658 0.52123 0.02745 0.0
C856 C 0.73789 0.527 0.99406 0.0
H857 H 0.71776 0.49644 0.06462 0.0
H858 H 0.70747 0.50305 0.89102 0.0
H859 H 0.6503 0.44109 0.13821 0.0
H860 H 0.67394 0.46314 0.88319 0.0
H861 H 0.64159 0.42871 0.90784 0.0
H862 H 0.73619 0.53185 0.92821 0.0
H863 H 0.74012 0.35631 0.07181 0.0
H864 H 0.60682 0.37318 0.18252 0.0
H865 H 0.61369 0.42413 0.17474 0.0
H866 H 0.65428 0.29153 0.14255 0.0
H867 H 0.75 0.53236 0.04447 0.0
H868 H 0.75251 0.54259 0.98528 0.0
H869 H 0.62138 0.32392 0.16936 0.0
H870 H 0.73698 0.30485 0.07848 0.0
N871 N 0.66564 0.40027 0.12587 0.0
C872 C 0.62349 0.38051 0.16684 0.0
C873 C 0.62733 0.40928 0.16253 0.0
C874 C 0.64116 0.36154 0.1508 0.0
C875 C 0.66262 0.37216 0.13063 0.0
C876 C 0.64849 0.41884 0.14186 0.0
N877 N 0.70249 0.36464 0.09779 0.0
C878 C 0.68128 0.35384 0.11574 0.0
C879 C 0.7211 0.31836 0.08894 0.0
C880 C 0.69882 0.30682 0.10625 0.0
C881 C 0.72279 0.34747 0.08519 0.0
C882 C 0.67878 0.32457 0.12028 0.0
H883 H 0.69759 0.28424 0.10918 0.0
O884 O 0.73005 0.39529 0.12673 0.0
O885 O 0.71253 0.44302 0.04788 0.0
O886 O 0.68144 0.41632 1.00554 0.0
O887 O 0.69805 0.38546 0.0452 0.0
O888 O 0.73731 0.40806 0.05308 0.0
O889 O 0.73188 0.43988 0.11683 0.0
O890 O 0.64585 0.49233 0.04864 0.0
O891 O 0.65793 0.42078 0.07437 0.0
O892 O 0.69514 0.45594 0.11884 0.0
O893 O 0.67038 0.48229 0.08208 0.0
O894 O 0.63712 0.41637 0.03076 0.0
O895 O 0.6256 0.46207 0.01715 0.0
C896 C 0.73382 0.42962 0.03442 0.0
C897 C 0.65673 0.31395 0.13913 0.0
C898 C 0.63802 0.3324 0.15444 0.0
C899 C 0.74397 0.41856 0.13071 0.0
C900 C 0.77442 0.41639 0.12692 0.0
C901 C 0.78912 0.43286 0.1043 0.0
C902 C 0.7887 0.39614 0.14495 0.0
C903 C 0.81716 0.39083 0.13934 0.0
C904 C 0.81754 0.42827 0.0991 0.0
C905 C 0.83146 0.40714 0.11613 0.0
C906 C 0.69043 0.3914 0.01479 0.0
C907 C 0.64008 0.40452 0.05875 0.0
C908 C 0.6249 0.48738 0.02921 0.0
C909 C 0.61663 0.51014 1.00679 0.0
C910 C 0.61559 0.53806 0.01806 0.0
C911 C 0.60863 0.50408 0.9744 0.0
C912 C 0.59938 0.52543 0.95356 0.0
C913 C 0.60653 0.55943 0.99732 0.0
C914 C 0.59823 0.5532 0.96525 0.0
C915 C 0.68262 0.48007 0.11133 0.0
H916 H 0.77861 0.4488 0.09007 0.0
H917 H 0.77733 0.38432 0.16319 0.0
H918 H 0.82868 0.4407 0.08125 0.0
H919 H 0.85325 0.4034 0.11075 0.0
H920 H 0.62149 0.54329 0.04299 0.0
H921 H 0.60866 0.48257 0.96552 0.0
H922 H 0.60565 0.58081 1.00633 0.0
H923 H 0.5909 0.56997 0.94965 0.0
Gd924 Gd 0.46732 0.95944 0.3459 0.0
Gd925 Gd 0.42782 0.9235 0.29239 0.0
C926 C 0.40365 0.93564 0.18524 0.0
C927 C 0.36722 0.97088 0.18904 0.0
C928 C 0.391 0.95509 0.23838 0.0
C929 C 0.40718 0.93695 0.21958 0.0
C930 C 0.37032 0.97171 0.22321 0.0
C931 C 0.38399 0.95308 0.17008 0.0
C932 C 0.41936 0.9162 0.16716 0.0
C933 C 0.43726 0.89793 0.18339 0.0
N934 N 0.42532 0.91954 0.23492 0.0
C935 C 0.43967 0.89959 0.21744 0.0
H936 H 0.45292 0.88465 0.22959 0.0
C937 C 0.37841 0.97309 0.29048 0.0
N938 N 0.39481 0.95591 0.27144 0.0
C939 C 0.35704 0.98905 0.2766 0.0
C940 C 0.35301 0.98843 0.24282 0.0
H941 H 0.38193 0.97551 0.31636 0.0
H942 H 0.3811 0.95242 0.14376 0.0
H943 H 0.44306 0.90179 0.38674 0.0
H944 H 0.41724 0.91462 0.14079 0.0
H945 H 0.44893 0.88227 0.16976 0.0
H946 H 0.35168 0.98375 0.17704 0.0
H947 H 0.52107 1.00188 0.32987 0.0
H948 H 0.50977 0.8703 0.44513 0.0
H949 H 0.46082 0.86778 0.42646 0.0
H950 H 0.58564 0.93227 0.42189 0.0
H951 H 0.34417 1.00242 0.29192 0.0
H952 H 0.33676 1.00123 0.2321 0.0
H953 H 0.55597 0.89463 0.44359 0.0
H954 H 0.57021 1.00743 0.34652 0.0
N955 N 0.48174 0.92368 0.38209 0.0
C956 C 0.50215 0.88539 0.42752 0.0
C957 C 0.4745 0.88393 0.41709 0.0
C958 C 0.51959 0.90642 0.41534 0.0
C959 C 0.50875 0.92546 0.39223 0.0
C960 C 0.46448 0.90349 0.39462 0.0
N961 N 0.51482 0.96473 0.35761 0.0
C962 C 0.52575 0.94648 0.37959 0.0
C963 C 0.55803 0.99006 0.35577 0.0
C964 C 0.56981 0.97121 0.37783 0.0
C965 C 0.53025 0.98669 0.34614 0.0
C966 C 0.55362 0.94925 0.39027 0.0
H967 H 0.59126 0.97406 0.38552 0.0
O968 O 0.44402 0.99678 0.36104 0.0
O969 O 0.43743 0.96945 0.30376 0.0
O970 O 0.46649 0.93429 0.2634 0.0
O971 O 0.49714 0.95332 0.30248 0.0
O972 O 0.4749 0.99123 0.3058 0.0
O973 O 0.47902 0.98231 0.38957 0.0
O974 O 0.41317 0.88801 0.32098 0.0
O975 O 0.46239 0.91416 0.32932 0.0
O976 O 0.42656 0.94905 0.37569 0.0
O977 O 0.39715 0.93269 0.33581 0.0
O978 O 0.46438 0.89295 0.28565 0.0
O979 O 0.39683 0.89524 0.27236 0.0
C980 C 0.45223 0.98893 0.28874 0.0
C981 C 0.5643 0.93044 0.4134 0.0
C982 C 0.54738 0.90903 0.42581 0.0
C983 C 0.46164 1.0027 0.38438 0.0
C984 C 0.47412 1.03099 0.38545 0.0
C985 C 0.46701 1.05211 0.36307 0.0
C986 C 0.49505 1.03622 0.40858 0.0
C987 C 0.50976 1.06161 0.40891 0.0
C988 C 0.48096 0.07796 0.36398 0.0
C989 C 0.50233 0.08274 0.38675 0.0
C990 C 0.49138 0.9439 0.27237 0.0
C991 C 0.47788 0.89597 0.31285 0.0
C992 C 0.3997 0.8773 0.29609 0.0
C993 C 0.40767 0.84851 0.28621 0.0
C994 C 0.41721 0.82906 0.3094 0.0
C995 C 0.40894 0.84146 0.25284 0.0
C996 C 0.42135 0.81641 0.24233 0.0
C997 C 0.42877 0.80351 0.29911 0.0
C998 C 0.43128 0.79735 0.2657 0.0
C999 C 0.40098 0.94105 0.36668 0.0
H1000 H 0.45101 1.04861 0.34477 0.0
H1001 H 0.50026 1.02013 0.42625 0.0
H1002 H 0.47547 0.09418 0.3467 0.0
H1003 H 0.51328 0.10264 0.38668 0.0
H1004 H 0.4165 0.83396 0.33533 0.0
H1005 H 0.40164 0.85619 0.23465 0.0
H1006 H 0.43646 0.78877 0.31704 0.0
H1007 H 0.44086 0.77774 0.25815 0.0
Gd1008 Gd 0.17293 0.46117 0.48933 0.0
Gd1009 Gd 0.20622 0.41782 0.43664 0.0
C1010 C 0.14227 0.36889 0.37553 0.0
C1011 C 0.15475 0.32056 0.38734 0.0
C1012 C 0.18134 0.35912 0.41138 0.0
C1013 C 0.16403 0.37839 0.39619 0.0
C1014 C 0.17701 0.33 0.40684 0.0
C1015 C 0.13752 0.33995 0.37159 0.0
C1016 C 0.12574 0.38872 0.35957 0.0
C1017 C 0.13077 0.41725 0.36472 0.0
N1018 N 0.16845 0.40633 0.40144 0.0
C1019 C 0.15214 0.42573 0.38587 0.0
H1020 H 0.15475 0.44784 0.39025 0.0
C1021 C 0.22156 0.35045 0.44337 0.0
N1022 N 0.20285 0.36877 0.42989 0.0
C1023 C 0.21797 0.32146 0.43975 0.0
C1024 C 0.19545 0.31117 0.42165 0.0
H1025 H 0.23915 0.35832 0.45724 0.0
H1026 H 0.12062 0.33234 0.35629 0.0
H1027 H 0.14237 0.43744 0.55826 0.0
H1028 H 0.10888 0.38224 0.34354 0.0
H1029 H 0.11787 0.43278 0.35278 0.0
H1030 H 0.15095 0.29829 0.38386 0.0
H1031 H 0.22703 0.4999 0.45689 0.0
H1032 H 0.17953 0.4796 0.64003 0.0
H1033 H 0.1472 0.44384 0.61774 0.0
H1034 H 0.24514 0.54211 0.59108 0.0
H1035 H 0.23261 0.30708 0.45086 0.0
H1036 H 0.19276 0.28868 0.41879 0.0
H1037 H 0.21514 0.51689 0.6297 0.0
H1038 H 0.26006 0.53553 0.47559 0.0
N1039 N 0.17412 0.46705 0.5466 0.0
C1040 C 0.17802 0.47647 0.61378 0.0
C1041 C 0.15956 0.45645 0.60135 0.0
C1042 C 0.19447 0.49206 0.59223 0.0
C1043 C 0.19234 0.4866 0.55826 0.0
C1044 C 0.15714 0.45266 0.56757 0.0
N1045 N 0.20852 0.49361 0.50388 0.0
C1046 C 0.20949 0.50071 0.53627 0.0
C1047 C 0.24582 0.52608 0.49288 0.0
C1048 C 0.2469 0.53365 0.52585 0.0
C1049 C 0.22654 0.50598 0.48228 0.0
C1050 C 0.22889 0.52077 0.54806 0.0
H1051 H 0.26209 0.54904 0.534 0.0
O1052 O 0.13448 0.47649 0.46651 0.0
O1053 O 0.16199 0.42591 0.45311 0.0
O1054 O 0.20117 0.46 0.40688 0.0
O1055 O 0.17875 0.48938 0.44304 0.0
O1056 O 0.1427 0.42422 0.49806 0.0
O1057 O 0.14927 0.4946 0.51198 0.0
O1058 O 0.23349 0.39619 0.40218 0.0
O1059 O 0.21828 0.44889 0.47737 0.0
O1060 O 0.18428 0.42468 0.52064 0.0
O1061 O 0.20159 0.39159 0.48351 0.0
O1062 O 0.24026 0.41172 0.47458 0.0
O1063 O 0.23634 0.44131 0.40832 0.0
C1064 C 0.14439 0.41084 0.47035 0.0
C1065 C 0.23037 0.52679 0.58172 0.0
C1066 C 0.21331 0.51241 0.60373 0.0
C1067 C 0.12973 0.4945 0.49002 0.0
C1068 C 0.1011 0.49803 0.50235 0.0
C1069 C 0.08356 0.51718 0.48667 0.0
C1070 C 0.09277 0.48621 0.53224 0.0
C1071 C 1.06805 0.49511 0.54805 0.0
C1072 C 1.05854 0.52533 0.50126 0.0
C1073 C 1.05109 0.51495 0.53195 0.0
C1074 C 0.19015 0.48523 0.41365 0.0
C1075 C 0.23858 0.43462 0.49174 0.0
C1076 C 0.24801 0.41874 0.39646 0.0
C1077 C 0.27833 0.41613 0.40095 0.0
C1078 C 0.29297 0.43286 0.42367 0.0
C1079 C 0.29251 0.39517 0.38359 0.0
C1080 C 0.3208 0.38957 0.38981 0.0
C1081 C 0.32124 0.42793 0.4295 0.0
C1082 C 0.33506 0.40622 0.41301 0.0
C1083 C 0.19396 0.39944 0.5135 0.0
H1084 H 0.08976 0.52669 0.46375 0.0
H1085 H 0.10611 0.47077 0.5434 0.0
H1086 H 1.04536 0.54064 0.48934 0.0
H1087 H 1.0324 0.52327 0.54321 0.0
H1088 H 0.28251 0.44928 0.43746 0.0
H1089 H 0.28119 0.38306 0.36535 0.0
H1090 H 0.33232 0.44059 0.44738 0.0
H1091 H 0.35674 0.40227 0.41879 0.0
Gd1092 Gd 0.93626 0.92186 0.24039 0.0
Gd1093 Gd 0.97401 0.95732 0.18354 0.0
C1094 C 1.02687 0.89709 0.12163 0.0
C1095 C 0.07353 0.91548 0.13066 0.0
C1096 C 1.03341 0.93865 0.15543 0.0
C1097 C 1.0158 0.91862 0.14179 0.0
C1098 C 1.0624 0.93757 0.1495 0.0
C1099 C 1.0558 0.89533 0.11671 0.0
C1100 C 1.00855 0.87804 0.10678 0.0
C1101 C 0.97997 0.88063 0.11219 0.0
N1102 N 0.98789 0.92047 0.14762 0.0
C1103 C 0.96995 0.9019 0.13283 0.0
H1104 H 0.94791 0.90254 0.13757 0.0
C1105 C 1.03837 0.98157 0.18452 0.0
N1106 N 1.02214 0.95986 0.17341 0.0
C1107 C 1.06717 0.98133 0.17936 0.0
C1108 C 0.07931 0.95905 0.16212 0.0
H1109 H 1.02901 0.99898 0.19761 0.0
H1110 H 1.06465 0.87867 0.10175 0.0
H1111 H 0.96531 0.89164 0.30596 0.0
H1112 H 1.01625 0.86126 0.09114 0.0
H1113 H 0.96563 0.86587 0.10095 0.0
H1114 H 0.09576 0.91411 0.12618 0.0
H1115 H 0.88753 0.96779 0.21316 0.0
H1116 H 0.9322 0.92978 0.3928 0.0
H1117 H 0.96442 0.89604 0.36617 0.0
H1118 H 0.86005 0.98946 0.3517 0.0
H1119 H 0.07998 0.99835 0.18864 0.0
H1120 H 0.10164 0.95894 0.15808 0.0
H1121 H 0.89274 0.96399 0.38722 0.0
H1122 H 0.84883 0.9954 0.23532 0.0
N1123 N 0.93541 0.924 0.2983 0.0
C1124 C 0.93281 0.92816 0.36634 0.0
C1125 C 0.951 0.90913 0.35141 0.0
C1126 C 0.91483 0.9441 0.34695 0.0
C1127 C 0.91687 0.94171 0.31256 0.0
C1128 C 0.95148 0.90677 0.31727 0.0
N1129 N 0.90263 0.95453 0.25974 0.0
C1130 C 0.89929 0.95676 0.29265 0.0
C1131 C 0.86282 0.98459 0.25178 0.0
C1132 C 0.85937 0.98716 0.28557 0.0
C1133 C 0.88484 0.96848 0.23926 0.0
C1134 C 0.87802 0.9736 0.30649 0.0
H1135 H 0.84258 1.00002 0.29522 0.0
O1136 O 0.89783 0.89967 0.22813 0.0
O1137 O 0.96816 0.91239 0.19993 0.0
O1138 O 0.93281 0.94786 0.15515 0.0
O1139 O 0.90686 0.92509 0.19398 0.0
O1140 O 0.97345 0.89177 0.24339 0.0
O1141 O 0.92872 0.87988 0.25844 0.0
O1142 O 0.94641 0.9881 0.16189 0.0
O1143 O 0.94499 0.96742 0.2267 0.0
O1144 O 0.97431 0.93689 0.26829 0.0
O1145 O 1.00369 0.95279 0.22683 0.0
O1146 O 0.9806 0.99136 0.22222 0.0
O1147 O 0.98936 0.9852 0.14573 0.0
C1148 C 0.98475 0.89463 0.21504 0.0
C1149 C 0.87598 0.9763 0.34067 0.0
C1150 C 0.89459 0.96183 0.36088 0.0
C1151 C 0.90329 0.87889 0.24759 0.0
C1152 C 0.88142 0.871 0.27131 0.0
C1153 C 0.85311 0.87206 0.26254 0.0
C1154 C 0.88873 0.86161 0.30269 0.0
C1155 C 0.86822 0.85316 0.32501 0.0
C1156 C 0.83256 0.86377 0.28478 0.0
C1157 C 0.84004 0.85416 0.31584 0.0
C1158 C 0.90875 0.93626 0.16406 0.0
C1159 C 0.95862 0.98856 0.24028 0.0
C1160 C 0.96669 1.0003 0.14623 0.0
C1161 C 0.97074 1.0305 0.15265 0.0
C1162 C 0.95741 1.04437 0.17888 0.0
C1163 C 0.99053 1.04491 0.13418 0.0
C1164 C 0.99845 1.07244 0.14259 0.0
C1165 C 0.9645 1.07207 0.18679 0.0
C1166 C 0.98509 0.08602 0.16898 0.0
C1167 C 0.9989 0.94576 0.25774 0.0
H1168 H 0.84688 0.8791 0.23845 0.0
H1169 H 0.91048 0.86005 0.30965 0.0
H1170 H 0.81079 0.86455 0.27782 0.0
H1171 H 0.8239 0.84753 0.33267 0.0
H1172 H 0.94201 1.03373 0.1937 0.0
H1173 H 1.00026 1.03425 0.1136 0.0
H1174 H 0.95444 0.08252 0.20725 0.0
H1175 H 0.9909 0.10715 0.17625 0.0
Gd1176 Gd 0.47145 0.68409 0.9908 0.0
Gd1177 Gd 0.43832 0.72772 0.93834 0.0
C1178 C 0.50353 0.77815 0.88196 0.0
C1179 C 0.49038 0.82614 0.89537 0.0
C1180 C 0.46369 0.78698 0.91719 0.0
C1181 C 0.4814 0.76809 0.90151 0.0
C1182 C 0.46792 0.8162 0.91403 0.0
C1183 C 0.50805 0.80718 0.87926 0.0
C1184 C 0.52067 0.75874 0.86582 0.0
C1185 C 0.51577 0.73008 0.86955 0.0
N1186 N 0.47711 0.74002 0.9054 0.0
C1187 C 0.49389 0.72103 0.88948 0.0
H1188 H 0.49128 0.69878 0.89274 0.0
C1189 C 0.42279 0.79481 0.94847 0.0
N1190 N 0.44189 0.77688 0.93477 0.0
C1191 C 0.42634 0.82388 0.94631 0.0
C1192 C 0.44914 0.83463 0.92926 0.0
H1193 H 0.40491 0.78657 0.96138 0.0
H1194 H 0.52511 0.81518 0.86464 0.0
H1195 H 0.50686 0.70933 0.05674 0.0
H1196 H 0.53787 0.76566 0.85067 0.0
H1197 H 0.52909 0.7149 0.8574 0.0
H1198 H 0.49401 0.84849 0.89282 0.0
H1199 H 0.41599 0.6439 0.96443 0.0
H1200 H 0.47718 0.66725 0.14175 0.0
H1201 H 0.50805 0.70237 0.11616 0.0
H1202 H 0.40932 0.60293 0.09994 0.0
H1203 H 0.41143 0.83796 0.95767 0.0
H1204 H 0.45177 0.85718 0.92746 0.0
H1205 H 0.44144 0.62948 0.13528 0.0
H1206 H 0.38536 0.60779 0.98656 0.0
N1207 N 0.47464 0.6792 0.04819 0.0
C1208 C 0.47646 0.67026 0.11549 0.0
C1209 C 0.4938 0.69019 0.10118 0.0
C1210 C 0.45853 0.65429 0.09579 0.0
C1211 C 0.45793 0.65934 0.06174 0.0
C1212 C 0.49289 0.69418 0.06735 0.0
N1213 N 0.43803 0.65107 1.00933 0.0
C1214 C 0.43974 0.64433 0.04165 0.0
C1215 C 0.40068 0.61774 1.00228 0.0
C1216 C 0.40243 0.61044 0.03516 0.0
C1217 C 0.41856 0.63819 0.98974 0.0
C1218 C 0.4218 0.62397 0.05539 0.0
H1219 H 0.38827 0.59482 0.04485 0.0
O1220 O 0.50928 0.67162 0.96437 0.0
O1221 O 0.48199 0.71988 0.95571 0.0
O1222 O 0.44543 0.68599 0.90777 0.0
O1223 O 0.46151 0.65496 0.94609 0.0
O1224 O 0.50092 0.72175 1.00062 0.0
O1225 O 0.49649 0.6495 1.0079 0.0
O1226 O 0.41383 0.75051 0.90251 0.0
O1227 O 0.42634 0.69562 0.97725 0.0
O1228 O 0.45803 0.719 0.02347 0.0
O1229 O 0.44105 0.75255 0.98704 0.0
O1230 O 0.40244 0.73156 0.97445 0.0
O1231 O 0.40873 0.70551 0.90758 0.0
C1232 C 0.49902 0.73533 0.97338 0.0
C1233 C 0.42294 0.61846 0.08908 0.0
C1234 C 0.44115 0.63366 0.10923 0.0
C1235 C 0.51571 0.65253 0.98579 0.0
C1236 C 0.5448 0.65115 0.99745 0.0
C1237 C 0.56593 0.64213 0.97619 0.0
C1238 C 0.55113 0.656 0.03056 0.0
C1239 C 0.57781 0.65036 0.0433 0.0
C1240 C 0.59282 0.63747 0.98811 0.0
C1241 C 0.59869 0.64108 0.02145 0.0
C1242 C 0.45303 0.65983 0.91564 0.0
C1243 C 0.40486 0.70861 0.99107 0.0
C1244 C 0.40009 0.72827 0.89334 0.0
C1245 C 0.36999 0.73156 0.88909 0.0
C1246 C 0.35065 0.72298 0.91278 0.0
C1247 C 0.36063 0.74368 0.86014 0.0
C1248 C 0.3321 0.74761 0.85447 0.0
C1249 C 0.32211 0.72716 0.90752 0.0
C1250 C 0.31279 0.73959 0.87853 0.0
C1251 C 0.44795 0.74412 0.017 0.0
H1252 H 0.56147 0.63806 0.95057 0.0
H1253 H 0.53495 0.66367 0.0465 0.0
H1254 H 0.60899 0.63015 0.97164 0.0
H1255 H 0.6194 0.6359 0.03 0.0
H1256 H 0.35759 0.7131 0.9351 0.0
H1257 H 0.37575 0.75048 0.84206 0.0
H1258 H 0.3072 0.72072 0.92591 0.0
H1259 H 0.29065 0.74266 0.87474 0.0
Gd1260 Gd 0.70867 0.22037 0.73583 0.0
Gd1261 Gd 0.66667 0.18504 0.68331 0.0
C1262 C 0.61645 0.24854 0.62435 0.0
C1263 C 0.56887 0.23494 0.63718 0.0
C1264 C 0.60788 0.20875 0.65983 0.0
C1265 C 0.62656 0.22672 0.6444 0.0
C1266 C 0.57887 0.21241 0.6558 0.0
C1267 C 0.58759 0.25287 0.62139 0.0
C1268 C 0.63561 0.2654 0.60775 0.0
C1269 C 0.66408 0.26038 0.6113 0.0
N1270 N 0.65449 0.22259 0.64841 0.0
C1271 C 0.67322 0.23882 0.63173 0.0
H1272 H 0.6953 0.23597 0.63471 0.0
C1273 C 0.60048 0.16685 0.68961 0.0
N1274 N 0.61802 0.18689 0.67741 0.0
C1275 C 0.57161 0.16979 0.68651 0.0
C1276 C 0.56074 0.19287 0.66992 0.0
H1277 H 0.60887 0.14887 0.70231 0.0
H1278 H 0.57954 0.26982 0.60656 0.0
H1279 H 0.6859 0.25729 0.80142 0.0
H1280 H 0.62864 0.28235 0.59217 0.0
H1281 H 0.67907 0.27336 0.59859 0.0
H1282 H 0.54666 0.23828 0.63419 0.0
H1283 H 0.7549 0.17096 0.70781 0.0
H1284 H 0.71371 0.21568 0.88788 0.0
H1285 H 0.68708 0.25384 0.86159 0.0
H1286 H 0.77541 0.145 0.84657 0.0
H1287 H 0.55777 0.15422 0.69683 0.0
H1288 H 0.53834 0.19502 0.6674 0.0
H1289 H 0.74646 0.17502 0.88201 0.0
H1290 H 0.78961 0.13914 0.73073 0.0
N1291 N 0.70998 0.22029 0.79349 0.0
C1292 C 0.71287 0.21681 0.8614 0.0
C1293 C 0.69789 0.23842 0.84669 0.0
C1294 C 0.72758 0.19763 0.84183 0.0
C1295 C 0.72562 0.19979 0.80741 0.0
C1296 C 0.6972 0.24025 0.81259 0.0
N1297 N 0.73921 0.18479 0.75414 0.0
C1298 C 0.74126 0.18214 0.78727 0.0
C1299 C 0.77611 0.15106 0.74691 0.0
C1300 C 0.77795 0.14763 0.78069 0.0
C1301 C 0.75636 0.1695 0.73397 0.0
C1302 C 0.76019 0.16292 0.80132 0.0
H1303 H 0.79312 0.13312 0.79059 0.0
O1304 O 0.72629 0.25793 0.71309 0.0
O1305 O 0.67464 0.23016 0.6985 0.0
O1306 O 0.70869 0.18992 0.65367 0.0
O1307 O 0.73672 0.2144 0.68928 0.0
O1308 O 0.67301 0.25248 0.74185 0.0
O1309 O 0.74267 0.24269 0.75895 0.0
O1310 O 0.64669 0.16243 0.64343 0.0
O1311 O 0.69776 0.17441 0.72401 0.0
O1312 O 0.67005 0.21222 0.76551 0.0
O1313 O 0.6392 0.19096 0.7287 0.0
O1314 O 0.66017 0.15284 0.72352 0.0
O1315 O 0.68715 0.14904 0.66082 0.0
C1316 C 0.65986 0.24927 0.71433 0.0
C1317 C 0.76138 0.16003 0.83548 0.0
C1318 C 0.7449 0.17713 0.85566 0.0
C1319 C 0.74394 0.26214 0.73684 0.0
C1320 C 0.74834 0.29106 0.74879 0.0
C1321 C 0.76427 0.3097 0.73013 0.0
C1322 C 0.73987 0.29903 0.78035 0.0
C1323 C 0.74862 0.32461 0.79444 0.0
C1324 C 0.77222 0.33567 0.74328 0.0
C1325 C 0.76484 0.34298 0.77536 0.0
C1326 C 0.73331 0.20188 0.66027 0.0
C1327 C 0.6834 0.15486 0.73957 0.0
C1328 C 0.66627 0.1437 0.64138 0.0
C1329 C 0.65697 0.1145 0.63812 0.0
C1330 C 0.6592 0.09504 0.66364 0.0
C1331 C 0.64468 0.10643 0.60852 0.0
C1332 C 0.63434 0.07914 0.60394 0.0
C1333 C 0.64905 1.0677 0.65926 0.0
C1334 C 0.63653 1.05975 0.62961 0.0
C1335 C 0.64531 0.2018 0.75788 0.0
H1336 H 0.77124 0.30384 0.70577 0.0
H1337 H 0.72706 0.28487 0.79423 0.0
H1338 H 0.78486 0.34984 0.72892 0.0
H1339 H 0.77245 0.36266 0.78534 0.0
H1340 H 0.6685 0.10098 0.68685 0.0
H1341 H 0.64245 0.12184 0.58924 0.0
H1342 H 0.6507 1.05269 0.67896 0.0
H1343 H 0.62863 1.03856 0.62674 0.0
C1344 C 0.50857 0.28726 0.04722 0.0
C1345 C 0.51034 0.26142 0.06451 0.0
C1346 C 0.52932 0.30951 0.04905 0.0
C1347 C 0.5542 0.30732 0.06852 0.0
C1348 C 0.55616 0.28128 0.08614 0.0
C1349 C 0.53521 0.25912 0.08343 0.0
C1350 C 0.52479 0.33553 0.02898 0.0
C1351 C 0.58103 0.27643 0.10787 0.0
C1352 C 0.6217 0.35373 0.04586 0.0
C1353 C 0.6216 0.37763 0.06714 0.0
C1354 C 0.60113 0.33129 0.04661 0.0
C1355 C 0.57809 0.33126 0.06908 0.0
C1356 C 0.57788 0.35519 0.09093 0.0
C1357 C 0.59858 0.37767 0.08924 0.0
C1358 C 0.6037 0.30771 0.02201 0.0
C1359 C 0.55511 0.35745 0.11616 0.0
H1360 H 0.49075 0.29 0.03123 0.0
H1361 H 0.53884 0.2394 0.09575 0.0
H1362 H 0.52531 0.35442 0.04504 0.0
H1363 H 0.54194 0.3377 1.01092 0.0
H1364 H 0.5046 0.33508 0.01564 0.0
H1365 H 0.57919 0.25666 0.122 0.0
H1366 H 0.60026 0.27546 0.09278 0.0
H1367 H 0.58347 0.29428 0.12529 0.0
H1368 H 0.63782 0.35292 0.02728 0.0
H1369 H 0.59594 0.39602 0.1047 0.0
H1370 H 0.58517 0.30758 1.00571 0.0
H1371 H 0.60417 0.28721 0.03477 0.0
H1372 H 0.62275 0.30958 1.0067 0.0
H1373 H 0.53452 0.35867 0.10385 0.0
H1374 H 0.55769 0.37615 0.13231 0.0
H1375 H 0.55497 0.33832 0.13154 0.0
C1376 C 0.62332 0.79265 0.30141 0.0
C1377 C 0.62362 0.76665 0.31874 0.0
C1378 C 0.60075 0.81306 0.30212 0.0
C1379 C 0.57603 0.80949 0.32172 0.0
C1380 C 0.57615 0.78333 0.33963 0.0
C1381 C 0.59869 0.76268 0.33713 0.0
C1382 C 0.60384 0.83833 0.28036 0.0
C1383 C 0.55225 0.77616 0.36197 0.0
C1384 C 0.52961 0.88064 0.33288 0.0
C1385 C 0.50239 0.87411 0.32102 0.0
C1386 C 0.55255 0.86041 0.33453 0.0
C1387 C 0.55042 0.83188 0.3222 0.0
C1388 C 0.52326 0.82565 0.30893 0.0
C1389 C 0.50057 0.84592 0.30896 0.0
C1390 C 0.57954 0.87066 0.34915 0.0
C1391 C 0.51763 0.79746 0.29318 0.0
H1392 H 0.64104 0.79705 0.28577 0.0
H1393 H 0.5957 0.74274 0.34868 0.0
H1394 H 0.58355 0.84819 0.2743 0.0
H1395 H 0.61723 0.85409 0.2929 0.0
H1396 H 0.61447 0.83248 0.25711 0.0
H1397 H 0.56048 0.76951 0.38606 0.0
H1398 H 0.5377 0.79391 0.36614 0.0
H1399 H 0.54058 0.75805 0.35153 0.0
H1400 H 0.53382 0.90216 0.33957 0.0
H1401 H 0.48095 0.8396 0.298 0.0
H1402 H 0.59037 0.88416 0.33112 0.0
H1403 H 0.59361 0.85328 0.35636 0.0
H1404 H 0.57535 0.88386 0.37105 0.0
H1405 H 0.53686 0.7876 0.28329 0.0
H1406 H 0.50228 0.79937 0.27293 0.0
H1407 H 0.50843 0.78325 0.31169 0.0
C1408 C 0.12029 0.85669 0.54957 0.0
C1409 C 0.11889 0.88112 0.56996 0.0
C1410 C 0.10027 0.83367 0.55018 0.0
C1411 C 0.07631 0.83357 0.57139 0.0
C1412 C 0.0747 0.85815 0.59218 0.0
C1413 C 0.09497 0.88109 0.59077 0.0
C1414 C 0.10451 0.80941 0.52683 0.0
C1415 C 1.05086 0.86057 0.61601 0.0
C1416 C 1.00869 0.78677 0.54793 0.0
C1417 C 1.01018 0.76164 0.5667 0.0
C1418 C 1.02886 0.80964 0.54976 0.0
C1419 C 1.05299 0.8089 0.57067 0.0
C1420 C 1.0547 0.78358 0.58977 0.0
C1421 C 1.0343 0.76082 0.58714 0.0
C1422 C 1.02456 0.83471 0.52806 0.0
C1423 C 0.07874 0.7802 0.6131 0.0
H1424 H 0.13712 0.85581 0.53191 0.0
H1425 H 0.09143 0.89967 0.60562 0.0
H1426 H 0.10473 0.78935 0.54049 0.0
H1427 H 0.08684 0.80839 0.5093 0.0
H1428 H 0.12427 0.81123 0.51278 0.0
H1429 H 1.05236 0.87979 0.63151 0.0
H1430 H 1.03079 0.86091 0.6025 0.0
H1431 H 1.05051 0.84191 0.63214 0.0
H1432 H 0.99164 0.78841 0.53065 0.0
H1433 H 1.03793 0.74169 0.60065 0.0
H1434 H 1.04224 0.83644 0.51064 0.0
H1435 H 1.02429 0.85424 0.54306 0.0
H1436 H 1.00482 0.83337 0.51391 0.0
H1437 H 0.09876 0.78138 0.59955 0.0
H1438 H 0.07786 0.75998 0.62647 0.0
H1439 H 0.07859 0.7977 0.63121 0.0
C1440 C 1.03037 0.37472 0.79515 0.0
C1441 C 1.00667 0.37442 0.81628 0.0
C1442 C 1.05316 0.35457 0.79636 0.0
C1443 C 1.05375 0.33163 0.81905 0.0
C1444 C 1.02994 0.33115 0.84062 0.0
C1445 C 1.00721 0.35152 0.8386 0.0
C1446 C 0.07662 0.3575 0.7721 0.0
C1447 C 1.02808 0.3084 0.8659 0.0
C1448 C 0.09962 0.26257 0.79844 0.0
C1449 C 0.12492 0.26504 0.81658 0.0
C1450 C 0.07696 0.2829 0.79962 0.0
C1451 C 0.07817 0.30817 0.81912 0.0
C1452 C 0.10371 0.31089 0.83752 0.0
C1453 C 0.12622 0.29026 0.8356 0.0
C1454 C 1.05153 0.27742 0.7789 0.0
C1455 C 0.10761 0.33627 0.85924 0.0
H1456 H 1.03085 0.39072 0.77644 0.0
H1457 H 0.9891 0.34871 0.85404 0.0
H1458 H 0.09689 0.3585 0.78517 0.0
H1459 H 0.07721 0.33874 0.75581 0.0
H1460 H 0.07442 0.37655 0.75675 0.0
H1461 H 1.00921 0.3105 0.8815 0.0
H1462 H 1.02776 0.28751 0.85365 0.0
H1463 H 1.04682 0.3091 0.88183 0.0
H1464 H 0.09762 0.2445 0.78234 0.0
H1465 H 0.14544 0.29442 0.84868 0.0
H1466 H 1.04922 0.29438 0.76059 0.0
H1467 H 1.03256 0.27773 0.79447 0.0
H1468 H 1.05261 0.2569 0.76581 0.0
H1469 H 0.1079 0.35554 0.84411 0.0
H1470 H 0.12727 0.33524 0.87358 0.0
H1471 H 0.0898 0.3382 0.87646 0.0
C1472 C 0.60174 0.88265 0.94516 0.0
C1473 C 0.6258 0.88264 0.96569 0.0
C1474 C 0.58148 0.85971 0.94351 0.0
C1475 C 0.58341 0.83497 0.96359 0.0
C1476 C 0.6075 0.83506 0.98458 0.0
C1477 C 0.62739 0.85819 0.98559 0.0
C1478 C 0.55738 0.86227 0.92014 0.0
C1479 C 0.61213 0.81061 1.00713 0.0
C1480 C 0.51672 0.78687 0.9864 0.0
C1481 C 0.51818 0.76223 0.96638 0.0
C1482 C 0.53655 0.81005 0.98515 0.0
C1483 C 0.56037 0.81003 0.96371 0.0
C1484 C 0.56208 0.78516 0.94342 0.0
C1485 C 0.54193 0.76217 0.94532 0.0
C1486 C 0.53214 0.83471 1.00787 0.0
C1487 C 0.58582 0.78254 0.9195 0.0
H1488 H 0.59807 0.90128 0.93074 0.0
H1489 H 0.64433 0.85729 1.00303 0.0
H1490 H 0.55811 0.84473 0.90213 0.0
H1491 H 0.53739 0.86053 0.93366 0.0
H1492 H 0.55767 0.88245 0.90665 0.0
H1493 H 0.63198 0.81245 0.02101 0.0
H1494 H 0.59461 0.80925 0.02482 0.0
H1495 H 0.61239 0.7907 0.99283 0.0
H1496 H 0.49989 0.78793 1.00404 0.0
H1497 H 0.54537 0.7435 0.93059 0.0
H1498 H 0.53163 0.85448 0.99365 0.0
H1499 H 0.54989 0.8363 0.02524 0.0
H1500 H 0.51248 0.83294 0.0221 0.0
H1501 H 0.58487 0.80008 0.90179 0.0
H1502 H 0.58528 0.76236 0.90569 0.0
H1503 H 0.60602 0.78425 0.93263 0.0
C1504 C 0.5399 0.38002 0.72443 0.0
C1505 C 0.51466 0.37787 0.70604 0.0
C1506 C 0.56256 0.35965 0.72316 0.0
C1507 C 0.5615 0.3346 0.70328 0.0
C1508 C 0.53614 0.33226 0.68444 0.0
C1509 C 0.51357 0.3529 0.6865 0.0
C1510 C 0.58774 0.36472 0.74444 0.0
C1511 C 0.53244 0.30722 0.66215 0.0
C1512 C 0.63278 0.2913 0.68463 0.0
C1513 C 0.6329 0.26796 0.7064 0.0
C1514 C 0.61009 0.31175 0.68246 0.0
C1515 C 0.58589 0.31101 0.70341 0.0
C1516 C 0.58609 0.28768 0.72562 0.0
C1517 C 0.60882 0.2674 0.72691 0.0
C1518 C 0.6124 0.33487 0.65766 0.0
C1519 C 0.56224 0.28443 0.74928 0.0
H1520 H 0.54176 0.39776 0.74107 0.0
H1521 H 0.49442 0.34882 0.67326 0.0
H1522 H 0.58958 0.34761 0.76264 0.0
H1523 H 0.60694 0.36431 0.72928 0.0
H1524 H 0.58667 0.38515 0.75769 0.0
H1525 H 0.51279 0.30832 0.64781 0.0
H1526 H 0.55028 0.30578 0.64491 0.0
H1527 H 0.53235 0.28767 0.67679 0.0
H1528 H 0.65111 0.29425 0.66958 0.0
H1529 H 0.6079 0.25105 0.74515 0.0
H1530 H 0.61329 0.35554 0.67036 0.0
H1531 H 0.5936 0.33495 0.64182 0.0
H1532 H 0.63117 0.33254 0.64193 0.0
H1533 H 0.56122 0.30309 0.76569 0.0
H1534 H 0.56431 0.2653 0.76453 0.0
H1535 H 0.54223 0.28335 0.73569 0.0
C1536 C 1.01242 0.29155 0.47785 0.0
C1537 C 1.01552 0.2653 0.46117 0.0
C1538 C 1.03276 0.31429 0.47698 0.0
C1539 C 1.05868 0.31225 0.45933 0.0
C1540 C 1.06197 0.28582 0.4423 0.0
C1541 C 1.04131 0.26326 0.44387 0.0
C1542 C 1.02659 0.34073 0.49609 0.0
C1543 C 0.08802 0.28097 0.42249 0.0
C1544 C 0.10341 0.38259 0.4394 0.0
C1545 C 0.12516 0.3839 0.46319 0.0
C1546 C 0.08294 0.35984 0.43719 0.0
C1547 C 0.08215 0.33678 0.45992 0.0
C1548 C 0.10388 0.33823 0.48416 0.0
C1549 C 0.12408 0.36107 0.48562 0.0
C1550 C 1.06147 0.36087 0.41036 0.0
C1551 C 0.1055 0.31564 0.50972 0.0
H1552 H 0.99382 0.29428 0.49258 0.0
H1553 H 1.04589 0.24341 0.43191 0.0
H1554 H 1.04261 0.34375 0.51541 0.0
H1555 H 1.02766 0.35918 0.47969 0.0
H1556 H 1.00569 0.3402 0.50782 0.0
H1557 H 0.08776 0.26038 0.40951 0.0
H1558 H 0.0904 0.29791 0.40416 0.0
H1559 H 0.10655 0.28186 0.43875 0.0
H1560 H 0.10157 0.40012 0.42285 0.0
H1561 H 0.13907 0.3613 0.50543 0.0
H1562 H 1.0403 0.36226 0.42122 0.0
H1563 H 1.06231 0.3412 0.39563 0.0
H1564 H 1.06464 0.37901 0.39382 0.0
H1565 H 0.12393 0.31819 0.52598 0.0
H1566 H 0.10651 0.29465 0.49777 0.0
H1567 H 0.08635 0.3161 0.52498 0.0
C1568 C 0.13036 0.79008 0.18759 0.0
C1569 C 0.12883 0.76549 0.20729 0.0
C1570 C 0.10802 0.81087 0.18511 0.0
C1571 C 0.0825 0.80908 0.20368 0.0
C1572 C 0.08103 0.78443 0.22377 0.0
C1573 C 0.10344 0.76384 0.22536 0.0
C1574 C 0.1122 0.8355 0.16273 0.0
C1575 C 1.05565 0.77998 0.2448 0.0
C1576 C 1.03575 0.87701 0.22658 0.0
C1577 C 1.01168 0.87629 0.20601 0.0
C1578 C 1.05833 0.85658 0.22546 0.0
C1579 C 1.05837 0.83291 0.20341 0.0
C1580 C 1.03427 0.83204 0.18228 0.0
C1581 C 1.0117 0.85268 0.18426 0.0
C1582 C 0.08212 0.85999 0.24925 0.0
C1583 C 1.03183 0.8085 0.15764 0.0
H1584 H 0.14963 0.79368 0.17446 0.0
H1585 H 0.10117 0.74626 0.24183 0.0
H1586 H 0.09367 0.83822 0.14676 0.0
H1587 H 0.11447 0.855 0.17756 0.0
H1588 H 0.13098 0.83297 0.14707 0.0
H1589 H 1.05668 0.76005 0.25875 0.0
H1590 H 1.05346 0.79773 0.26239 0.0
H1591 H 1.03664 0.77969 0.2293 0.0
H1592 H 1.03663 0.89355 0.24493 0.0
H1593 H 0.9933 0.84945 0.16939 0.0
H1594 H 0.10224 0.86027 0.23585 0.0
H1595 H 0.08264 0.84177 0.26605 0.0
H1596 H 0.08036 0.87957 0.26408 0.0
H1597 H 1.05108 0.80731 0.14258 0.0
H1598 H 1.01363 0.81121 0.14114 0.0
H1599 H 1.02974 0.78819 0.17057 0.0
C1600 C 0.25108 0.19478 0.92578 0.0
C1601 C 0.25442 0.19975 0.89167 0.0
C1602 C 0.27393 0.19485 0.9491 0.0
C1603 C 0.30237 0.19932 0.93943 0.0
C1604 C 0.30599 0.20368 0.9049 0.0
C1605 C 0.28267 0.20408 0.88221 0.0
C1606 C 0.26738 0.19009 0.9847 0.0
C1607 C 0.33492 0.20707 0.89114 0.0
C1608 C 0.35898 0.22693 1.00396 0.0
C1609 C 0.37456 0.20307 0.01451 0.0
C1610 C 0.33643 0.22599 0.98044 0.0
C1611 C 0.3276 0.20037 0.96512 0.0
C1612 C 0.34305 0.17607 0.97536 0.0
C1613 C 0.36528 0.17763 0.99964 0.0
C1614 C 0.32112 0.25285 0.97305 0.0
C1615 C 0.336 0.14787 0.9606 0.0
H1616 H 0.23025 0.191 0.93472 0.0
H1617 H 0.28686 0.20751 0.85647 0.0
H1618 H 0.27898 0.17148 0.99364 0.0
H1619 H 0.2744 0.20845 0.99945 0.0
H1620 H 0.24475 0.18677 0.98906 0.0
H1621 H 0.33466 0.21906 0.8679 0.0
H1622 H 0.34908 0.21769 0.90874 0.0
H1623 H 0.34365 0.18592 0.88589 0.0
H1624 H 0.36393 0.24703 0.01507 0.0
H1625 H 0.37427 0.15846 1.00796 0.0
H1626 H 0.30036 0.25234 0.98503 0.0
H1627 H 0.31756 0.25496 0.94634 0.0
H1628 H 0.33254 0.27165 0.98214 0.0
H1629 H 0.34551 0.13033 0.97441 0.0
H1630 H 0.34384 0.14709 0.93503 0.0
H1631 H 0.31308 0.14469 0.95971 0.0
C1632 C 0.69845 0.50571 0.16612 0.0
C1633 C 0.68277 0.50574 0.13651 0.0
C1634 C 0.69922 0.52913 0.1891 0.0
C1635 C 0.68368 0.55454 0.18406 0.0
C1636 C 0.668 0.55479 0.15399 0.0
C1637 C 0.66779 0.53113 0.13132 0.0
C1638 C 0.71728 0.52665 0.21913 0.0
C1639 C 0.65034 0.57985 0.14546 0.0
C1640 C 0.66377 0.60206 0.26168 0.0
C1641 C 0.68107 0.62653 0.2609 0.0
C1642 C 0.66427 0.57961 0.23766 0.0
C1643 C 0.68302 0.57963 0.21047 0.0
C1644 C 0.70077 0.60403 0.20922 0.0
C1645 C 0.69937 0.62665 0.2335 0.0
C1646 C 0.6436 0.55595 0.24098 0.0
C1647 C 0.72121 0.60659 0.18145 0.0
H1648 H 0.71061 0.48713 0.17148 0.0
H1649 H 0.65539 0.53266 0.10922 0.0
H1650 H 0.73159 0.54495 0.22082 0.0
H1651 H 0.70405 0.52693 0.24141 0.0
H1652 H 0.72985 0.50705 0.21901 0.0
H1653 H 0.62874 0.57597 0.15403 0.0
H1654 H 0.65801 0.59954 0.15703 0.0
H1655 H 0.64948 0.58285 0.11852 0.0
H1656 H 0.64883 0.6004 0.28147 0.0
H1657 H 0.71223 0.6447 0.23012 0.0
H1658 H 0.65476 0.53568 0.24352 0.0
H1659 H 0.63065 0.55449 0.21848 0.0
H1660 H 0.62959 0.55879 0.26242 0.0
H1661 H 0.73541 0.62481 0.18467 0.0
H1662 H 0.70967 0.60907 0.15809 0.0
H1663 H 0.73387 0.58714 0.17934 0.0
C1664 C 0.37895 0.94149 0.42643 0.0
C1665 C 0.37556 0.94156 0.39179 0.0
C1666 C 0.35581 0.9414 0.44945 0.0
C1667 C 0.32717 0.94239 0.43907 0.0
C1668 C 0.32366 0.94308 0.40413 0.0
C1669 C 0.34714 0.94219 0.38164 0.0
C1670 C 0.36222 0.93969 0.48549 0.0
C1671 C 0.29469 0.94466 0.38997 0.0
C1672 C 0.26562 0.91465 0.49647 0.0
C1673 C 0.25392 0.93854 0.51274 0.0
C1674 C 0.2881 0.9157 0.47294 0.0
C1675 C 0.30149 0.94145 0.46423 0.0
C1676 C 0.29025 0.96581 0.48077 0.0
C1677 C 0.26769 0.96399 0.50466 0.0
C1678 C 0.29807 0.88851 0.45783 0.0
C1679 C 0.30202 0.99433 0.47308 0.0
H1680 H 0.40005 0.94088 0.43587 0.0
H1681 H 0.343 0.94239 0.35556 0.0
H1682 H 0.35378 0.95843 0.49839 0.0
H1683 H 0.35184 0.92097 0.49604 0.0
H1684 H 0.38497 0.93833 0.49038 0.0
H1685 H 0.28518 0.92342 0.39009 0.0
H1686 H 0.28119 0.95879 0.40481 0.0
H1687 H 0.29494 0.95221 0.36429 0.0
H1688 H 0.25731 0.89423 0.50274 0.0
H1689 H 0.26195 0.98253 0.51825 0.0
H1690 H 0.32071 0.88581 0.46253 0.0
H1691 H 0.29512 0.88909 0.43092 0.0
H1692 H 0.28674 0.86997 0.4675 0.0
H1693 H 0.29494 1.01062 0.49081 0.0
H1694 H 0.29513 1.00047 0.44819 0.0
H1695 H 0.32514 0.99385 0.47296 0.0
C1696 C 0.94987 0.60275 0.62484 0.0
C1697 C 0.94712 0.63127 0.63515 0.0
C1698 C 0.94889 0.57903 0.64704 0.0
C1699 C 0.94565 0.58247 0.68184 0.0
C1700 C 0.94322 0.61123 0.69239 0.0
C1701 C 0.94356 0.6345 0.6696 0.0
C1702 C 0.95155 0.54986 0.63286 0.0
C1703 C 0.94082 0.61765 0.72846 0.0
C1704 C 0.92408 0.52079 0.7445 0.0
C1705 C 0.9496 0.50869 0.75502 0.0
C1706 C 0.92224 0.54343 0.72067 0.0
C1707 C 0.94658 0.55673 0.70695 0.0
C1708 C 0.97232 0.54546 0.71861 0.0
C1709 C 0.97337 0.52229 0.74125 0.0
C1710 C 0.89372 0.55283 0.70993 0.0
C1711 C 0.99945 0.55837 0.70772 0.0
H1712 H 0.95256 0.59871 0.59889 0.0
H1713 H 0.94146 0.65568 0.67917 0.0
H1714 H 0.9727 0.54164 0.63812 0.0
H1715 H 0.93622 0.53545 0.6443 0.0
H1716 H 0.94843 0.54958 0.6059 0.0
H1717 H 0.93984 0.64058 0.7336 0.0
H1718 H 0.92182 0.60759 0.73853 0.0
H1719 H 0.95899 0.60869 0.74162 0.0
H1720 H 0.90533 0.51359 0.75592 0.0
H1721 H 0.99368 0.51538 0.74922 0.0
H1722 H 0.89288 0.57588 0.70635 0.0
H1723 H 0.87738 0.54676 0.72781 0.0
H1724 H 0.8888 0.54266 0.68607 0.0
H1725 H 0.99793 0.58162 0.70691 0.0
H1726 H 1.00449 0.55076 0.68268 0.0
H1727 H 1.01692 0.55274 0.72424 0.0
C1728 C 0.77503 0.96376 0.02842 0.0
C1729 C 0.76035 0.93896 0.01935 0.0
C1730 C 0.79756 0.96445 0.05244 0.0
C1731 C 0.80797 0.93945 0.06816 0.0
C1732 C 0.79359 0.91433 0.05846 0.0
C1733 C 0.77099 0.91451 0.03502 0.0
C1734 C 0.8103 0.99265 0.0601 0.0
C1735 C 0.80221 0.88637 0.07231 0.0
C1736 C 0.88561 0.94161 0.10546 0.0
C1737 C 0.88286 0.93651 0.13962 0.0
C1738 C 0.8623 0.94232 0.08277 0.0
C1739 C 0.83383 0.93904 0.09322 0.0
C1740 C 0.83089 0.93436 0.12788 0.0
C1741 C 0.85472 0.93274 0.14982 0.0
C1742 C 0.86857 0.94645 0.04698 0.0
C1743 C 0.80233 0.93118 0.14282 0.0
H1744 H 0.77013 0.98274 0.01554 0.0
H1745 H 0.76185 0.89449 0.02818 0.0
H1746 H 0.82427 0.99234 0.08173 0.0
H1747 H 0.82228 0.99992 0.0385 0.0
H1748 H 0.79361 1.00833 0.06465 0.0
H1749 H 0.79637 0.86872 0.05572 0.0
H1750 H 0.825 0.88541 0.07688 0.0
H1751 H 0.79124 0.88315 0.09589 0.0
H1752 H 0.90648 0.94474 0.09599 0.0
H1753 H 0.85099 0.92903 0.17561 0.0
H1754 H 0.86447 0.96864 0.04048 0.0
H1755 H 0.85502 0.93291 0.03144 0.0
H1756 H 0.89071 0.94173 0.04115 0.0
H1757 H 0.80149 0.94176 0.16714 0.0
H1758 H 0.7981 0.90855 0.14685 0.0
H1759 H 0.78557 0.93993 0.12717 0.0
C1760 C 0.44899 0.63867 0.85536 0.0
C1761 C 0.45197 0.63476 0.8897 0.0
C1762 C 0.44856 0.61574 0.83167 0.0
C1763 C 0.45093 0.58678 0.8411 0.0
C1764 C 0.45322 0.58272 0.87583 0.0
C1765 C 0.45391 0.60602 0.89891 0.0
C1766 C 0.44538 0.62272 0.79595 0.0
C1767 C 0.45396 0.55341 0.88951 0.0
C1768 C 0.4305 0.52317 0.77969 0.0
C1769 C 0.45615 0.51357 0.7662 0.0
C1770 C 0.42841 0.54584 0.80382 0.0
C1771 C 0.45233 0.56144 0.8151 0.0
C1772 C 0.47807 0.55245 0.80082 0.0
C1773 C 0.47954 0.52945 0.77758 0.0
C1774 C 0.40009 0.55339 0.81707 0.0
C1775 C 0.50455 0.568 0.80911 0.0
H1776 H 0.44724 0.66004 0.84665 0.0
H1777 H 0.45568 0.60144 0.92478 0.0
H1778 H 0.46469 0.61691 0.78258 0.0
H1779 H 0.42805 0.6103 0.78507 0.0
H1780 H 0.44121 0.64541 0.79205 0.0
H1781 H 0.43236 0.547 0.89576 0.0
H1782 H 0.46237 0.53784 0.87177 0.0
H1783 H 0.46655 0.55269 0.91233 0.0
H1784 H 0.41168 0.51406 0.77031 0.0
H1785 H 0.49974 0.52441 0.7673 0.0
H1786 H 0.39695 0.57648 0.81663 0.0
H1787 H 0.39872 0.54663 0.84298 0.0
H1788 H 0.38302 0.54314 0.80304 0.0
H1789 H 0.50444 0.58868 0.79677 0.0
H1790 H 0.52336 0.55636 0.80094 0.0
H1791 H 0.50605 0.57205 0.83584 0.0
C1792 C 0.77608 0.22503 0.62957 0.0
C1793 C 0.7582 0.20161 0.63437 0.0
C1794 C 0.79864 0.22562 0.60584 0.0
C1795 C 0.80638 0.20151 0.58625 0.0
C1796 C 0.78869 0.17745 0.59171 0.0
C1797 C 0.76515 0.17806 0.61428 0.0
C1798 C 0.81345 0.25318 0.60172 0.0
C1799 C 0.79434 0.15021 0.57392 0.0
C1800 C 0.85003 0.20191 0.50185 0.0
C1801 C 0.87881 0.20336 0.5104 0.0
C1802 C 0.82722 0.2013 0.52522 0.0
C1803 C 0.83165 0.20172 0.56004 0.0
C1804 C 0.86076 0.20311 0.56902 0.0
C1805 C 0.88317 0.20478 0.54489 0.0
C1806 C 0.79799 0.20104 0.51165 0.0
C1807 C 0.86864 0.20332 0.60467 0.0
H1808 H 0.7719 0.24382 0.6439 0.0
H1809 H 0.75252 0.15932 0.61679 0.0
H1810 H 0.82741 0.25667 0.62303 0.0
H1811 H 0.8257 0.25402 0.57877 0.0
H1812 H 0.79819 0.27074 0.60164 0.0
H1813 H 0.78987 0.13204 0.59003 0.0
H1814 H 0.78014 0.14854 0.55254 0.0
H1815 H 0.8162 0.14856 0.56521 0.0
H1816 H 0.84499 0.20217 0.47598 0.0
H1817 H 0.90427 0.20814 0.55343 0.0
H1818 H 0.78274 0.21072 0.52876 0.0
H1819 H 0.79167 0.17898 0.50685 0.0
H1820 H 0.79697 0.21236 0.48799 0.0
H1821 H 0.8661 0.22486 0.6147 0.0
H1822 H 0.89069 0.19704 0.60825 0.0
H1823 H 0.85503 0.189 0.61889 0.0
C1824 C 0.1679 0.52858 0.38283 0.0
C1825 C 0.19076 0.51006 0.38771 0.0
C1826 C 0.16773 0.5511 0.35901 0.0
C1827 C 0.19176 0.55808 0.33941 0.0
C1828 C 0.21526 0.53979 0.34502 0.0
C1829 C 0.2142 0.51633 0.36767 0.0
C1830 C 0.1407 0.56667 0.35478 0.0
C1831 C 0.24239 0.54469 0.32737 0.0
C1832 C 0.19271 0.6006 0.25449 0.0
C1833 C 0.19135 0.62971 0.26261 0.0
C1834 C 0.19282 0.57804 0.27817 0.0
C1835 C 0.19202 0.58311 0.31292 0.0
C1836 C 0.19075 0.6126 0.32146 0.0
C1837 C 0.18956 0.63474 0.29697 0.0
C1838 C 0.19283 0.54839 0.26495 0.0
C1839 C 0.19003 0.62124 0.35697 0.0
H1840 H 0.14924 0.52493 0.39716 0.0
H1841 H 0.23251 0.5032 0.3703 0.0
H1842 H 0.13747 0.58076 0.37622 0.0
H1843 H 0.1401 0.57916 0.33201 0.0
H1844 H 0.12295 0.55166 0.35433 0.0
H1845 H 0.26032 0.54029 0.34378 0.0
H1846 H 0.24387 0.52986 0.30636 0.0
H1847 H 0.2444 0.56648 0.31819 0.0
H1848 H 0.19264 0.59508 0.22869 0.0
H1849 H 0.18619 0.65616 0.30508 0.0
H1850 H 0.18352 0.53321 0.28231 0.0
H1851 H 0.21463 0.54198 0.25977 0.0
H1852 H 0.18115 0.54706 0.24148 0.0
H1853 H 0.16836 0.61962 0.36616 0.0
H1854 H 0.19683 0.64335 0.36039 0.0
H1855 H 0.20346 0.6074 0.37202 0.0
C1856 C 0.74992 0.69733 0.42285 0.0
C1857 C 0.75315 0.70023 0.38837 0.0
C1858 C 0.77302 0.69728 0.44587 0.0
C1859 C 0.80157 0.69981 0.4356 0.0
C1860 C 0.805 0.70234 0.40076 0.0
C1861 C 0.78149 0.70266 0.3783 0.0
C1862 C 0.76667 0.69446 0.48182 0.0
C1863 C 0.83393 0.70382 0.38652 0.0
C1864 C 0.86041 0.72796 0.49713 0.0
C1865 C 0.87519 0.70403 0.509 0.0
C1866 C 0.83726 0.72682 0.47441 0.0
C1867 C 0.82716 0.70093 0.46091 0.0
C1868 C 0.84172 0.67653 0.47261 0.0
C1869 C 0.8644 0.67833 0.49636 0.0
C1870 C 0.82267 0.75383 0.4659 0.0
C1871 C 0.83324 0.64797 0.46006 0.0
H1872 H 0.72889 0.6953 0.43224 0.0
H1873 H 0.78556 0.70451 0.35231 0.0
H1874 H 0.77433 0.71329 0.49525 0.0
H1875 H 0.744 0.69203 0.48662 0.0
H1876 H 0.77782 0.676 0.49188 0.0
H1877 H 0.84207 0.68213 0.38348 0.0
H1878 H 0.83391 0.71402 0.36213 0.0
H1879 H 0.84846 0.71534 0.40291 0.0
H1880 H 0.8665 0.74836 0.50656 0.0
H1881 H 0.87265 0.65927 0.50602 0.0
H1882 H 0.8018 0.75417 0.47761 0.0
H1883 H 0.81938 0.75527 0.43907 0.0
H1884 H 0.83443 0.77259 0.47444 0.0
H1885 H 0.8102 0.64596 0.45911 0.0
H1886 H 0.84174 0.63082 0.4754 0.0
H1887 H 0.84124 0.64524 0.43472 0.0
C1888 C 0.20811 0.11664 0.75463 0.0
C1889 C 0.18309 0.12899 0.7666 0.0
C1890 C 0.20894 0.0942 0.73011 0.0
C1891 C 0.18405 0.08148 0.7167 0.0
C1892 C 0.15877 0.0936 0.72913 0.0
C1893 C 0.15873 0.11623 0.75296 0.0
C1894 C 0.23729 0.08414 0.71935 0.0
C1895 C 0.1308 0.08268 0.71794 0.0
C1896 C 0.17656 1.03538 0.63413 0.0
C1897 C 0.18224 1.00709 0.64311 0.0
C1898 C 0.17779 1.05902 0.65678 0.0
C1899 C 0.18413 1.05575 0.69096 0.0
C1900 C 0.18959 1.02717 0.70023 0.0
C1901 C 0.18902 1.00399 0.67684 0.0
C1902 C 0.17219 0.0879 0.64353 0.0
C1903 C 0.19587 1.02077 0.73552 0.0
H1904 H 0.22738 0.12328 0.76548 0.0
H1905 H 0.13869 0.12375 0.7616 0.0
H1906 H 0.24759 1.0733 0.74007 0.0
H1907 H 0.23655 1.06968 0.69796 0.0
H1908 H 0.25055 0.1024 0.71295 0.0
H1909 H 0.1155 0.08324 0.73836 0.0
H1910 H 0.1227 0.09662 0.69849 0.0
H1911 H 0.13183 1.0609 0.70818 0.0
H1912 H 0.17141 1.03934 0.60875 0.0
H1913 H 0.19362 0.98301 0.6854 0.0
H1914 H 0.18588 0.1038 0.6554 0.0
H1915 H 0.15022 0.09363 0.64869 0.0
H1916 H 0.17537 0.08872 0.6166 0.0
H1917 H 0.2169 1.02888 0.7418 0.0
H1918 H 0.19541 0.99786 0.74048 0.0
H1919 H 0.1806 1.03144 0.75184 0.0
C1920 C 0.78519 0.42693 0.01417 0.0
C1921 C 0.75739 0.43614 1.00795 0.0
C1922 C 0.80773 0.42747 0.99067 0.0
C1923 C 0.80417 0.43793 0.95817 0.0
C1924 C 0.77603 0.44677 0.9511 0.0
C1925 C 0.75355 0.44502 0.97509 0.0
C1926 C 0.83558 0.41571 1.00082 0.0
C1927 C 0.76916 0.45857 0.91795 0.0
C1928 C 0.87468 0.45919 0.91097 0.0
C1929 C 0.87826 0.43874 0.88573 0.0
C1930 C 0.85096 0.4598 0.93311 0.0
C1931 C 0.82938 0.43876 0.9323 0.0
C1932 C 0.83318 0.41782 0.9071 0.0
C1933 C 0.85655 0.41837 0.8845 0.0
C1934 C 0.84931 0.48358 0.95758 0.0
C1935 C 0.81317 0.3935 0.90468 0.0
H1936 H 0.7894 0.41798 0.0379 0.0
H1937 H 0.73266 0.44916 0.96712 0.0
H1938 H 0.84427 0.40199 0.98122 0.0
H1939 H 0.85046 0.4332 1.00496 0.0
H1940 H 0.83415 0.4034 0.02377 0.0
H1941 H 0.77295 0.48157 0.91854 0.0
H1942 H 0.78232 0.44946 0.89826 0.0
H1943 H 0.74691 0.45503 0.9116 0.0
H1944 H 0.89039 0.47546 0.9132 0.0
H1945 H 0.85814 0.40198 0.86605 0.0
H1946 H 0.86015 0.47736 0.98039 0.0
H1947 H 0.8274 0.48897 0.96375 0.0
H1948 H 0.85984 0.50268 0.94817 0.0
H1949 H 0.81841 0.37819 0.92409 0.0
H1950 H 0.81456 0.38257 0.8806 0.0
H1951 H 0.79132 0.40031 0.90862 0.0
C1952 C 0.47204 1.02318 0.24523 0.0
C1953 C 0.44802 1.01011 0.25905 0.0
C1954 C 0.47136 1.04557 0.22154 0.0
C1955 C 0.44577 1.05655 0.20893 0.0
C1956 C 0.42121 1.04339 0.22234 0.0
C1957 C 0.42266 1.02149 0.24704 0.0
C1958 C 0.4987 1.05816 0.21082 0.0
C1959 C 0.39261 1.05226 0.21127 0.0
C1960 C 0.43852 0.13312 0.16946 0.0
C1961 C 0.44624 0.13023 0.13594 0.0
C1962 C 0.43847 0.11018 0.19262 0.0
C1963 C 0.4452 0.08186 0.18322 0.0
C1964 C 0.45227 0.07862 0.14911 0.0
C1965 C 0.4531 0.1022 0.12674 0.0
C1966 C 0.43132 0.11666 0.22779 0.0
C1967 C 0.45902 1.05005 0.13519 0.0
H1968 H 0.49222 1.01641 0.25394 0.0
H1969 H 0.4036 1.01434 0.25777 0.0
H1970 H 0.50342 1.05119 0.18547 0.0
H1971 H 0.49747 0.08146 0.21089 0.0
H1972 H 0.51627 1.0517 0.22681 0.0
H1973 H 0.38135 1.06206 0.23218 0.0
H1974 H 0.39299 1.0672 0.19057 0.0
H1975 H 0.38047 1.03347 0.20367 0.0
H1976 H 0.43256 0.15375 0.17811 0.0
H1977 H 0.45892 0.09833 0.10147 0.0
H1978 H 0.44631 0.10628 0.24453 0.0
H1979 H 0.41023 0.10838 0.23331 0.0
H1980 H 0.43139 0.13961 0.233 0.0
H1981 H 0.48189 1.04848 0.13146 0.0
H1982 H 0.4491 1.04733 0.11078 0.0
H1983 H 0.45213 1.03266 0.15121 0.0
C1984 C 0.26122 0.45343 0.54897 0.0
C1985 C 0.26317 0.44059 0.51747 0.0
C1986 C 0.28389 0.45408 0.57283 0.0
C1987 C 0.31046 0.44074 0.56696 0.0
C1988 C 0.31226 0.42703 0.53573 0.0
C1989 C 0.28948 0.42712 0.51245 0.0
C1990 C 0.27887 0.46946 0.60464 0.0
C1991 C 0.33833 0.41094 0.52701 0.0
C1992 C 0.3823 0.45854 0.61349 0.0
C1993 C 0.38485 0.43863 0.63922 0.0
C1994 C 0.35866 0.45992 0.5913 0.0
C1995 C 0.33583 0.44045 0.59271 0.0
C1996 C 0.33826 0.42019 0.61857 0.0
C1997 C 0.36181 0.41978 0.6411 0.0
C1998 C 0.35797 0.483 0.56627 0.0
C1999 C 0.31567 0.39847 0.62245 0.0
H2000 H 0.24142 0.46161 0.55634 0.0
H2001 H 0.29223 0.41537 0.48992 0.0
H2002 H 0.29159 0.46098 0.62497 0.0
H2003 H 0.28457 0.49187 0.60141 0.0
H2004 H 0.25654 0.46856 0.61172 0.0
H2005 H 0.3369 0.40059 0.5026 0.0
H2006 H 0.35656 0.42528 0.52702 0.0
H2007 H 0.34232 0.39464 0.54575 0.0
H2008 H 0.3989 0.4738 0.61084 0.0
H2009 H 0.36225 0.40411 0.6602 0.0
H2010 H 0.33798 0.49467 0.56817 0.0
H2011 H 0.35904 0.47382 0.54126 0.0
H2012 H 0.3755 0.49805 0.56936 0.0
H2013 H 0.2955 0.40899 0.62778 0.0
H2014 H 0.32027 0.38346 0.64244 0.0
H2015 H 0.31303 0.38653 0.59919 0.0
C2016 C 0.94536 0.13659 0.35569 0.0
C2017 C 0.94846 0.13353 0.39016 0.0
C2018 C 0.94548 0.11328 0.33262 0.0
C2019 C 0.94819 0.08463 0.34286 0.0
C2020 C 0.9507 0.08129 0.37771 0.0
C2021 C 0.95103 0.10507 0.4002 0.0
C2022 C 0.94274 0.11957 0.29665 0.0
C2023 C 0.95211 1.05226 0.39206 0.0
C2024 C 0.92801 1.0213 0.28111 0.0
C2025 C 0.95381 1.01072 0.26917 0.0
C2026 C 0.92575 1.04406 0.30505 0.0
C2027 C 0.94974 1.0589 0.31746 0.0
C2028 C 0.97568 1.04905 0.30455 0.0
C2029 C 0.9773 1.02578 0.2817 0.0
C2030 C 0.89723 1.05234 0.31706 0.0
C2031 C 1.00223 1.06404 0.31389 0.0
H2032 H 0.94311 0.15761 0.34629 0.0
H2033 H 0.95302 0.1011 0.42619 0.0
H2034 H 0.96133 0.11162 0.28331 0.0
H2035 H 0.9243 0.10848 0.28641 0.0
H2036 H 0.94055 0.14241 0.29189 0.0
H2037 H 0.93059 1.04512 0.39756 0.0
H2038 H 0.96154 1.0368 0.37491 0.0
H2039 H 0.96412 1.05228 0.41532 0.0
H2040 H 0.90929 1.01283 0.27068 0.0
H2041 H 0.99769 1.01986 0.27265 0.0
H2042 H 0.88039 1.04306 0.30179 0.0
H2043 H 0.89483 0.07552 0.31735 0.0
H2044 H 0.89464 1.04495 0.3426 0.0
H2045 H 1.0021 0.08545 0.30332 0.0
H2046 H 1.02106 1.05287 0.30486 0.0
H2047 H 1.00366 1.0665 0.34088 0.0
C2048 C 0.26281 0.67945 0.11365 0.0
C2049 C 0.26068 0.6986 0.1405 0.0
C2050 C 0.28621 0.67874 0.09101 0.0
C2051 C 0.30904 0.69825 0.0931 0.0
C2052 C 0.30691 0.71777 0.12002 0.0
C2053 C 0.28371 0.71744 0.14295 0.0
C2054 C 0.2865 0.65644 0.06466 0.0
C2055 C 0.32937 0.73959 0.12458 0.0
C2056 C 0.38349 0.68829 0.04787 0.0
C2057 C 0.38083 0.70173 0.01704 0.0
C2058 C 0.36105 0.68633 0.07188 0.0
C2059 C 0.33406 0.699 0.06694 0.0
C2060 C 0.33155 0.71339 0.03643 0.0
C2061 C 0.35404 0.71436 1.01282 0.0
C2062 C 0.36675 0.67016 0.10272 0.0
C2063 C 0.30503 0.72907 0.02893 0.0
H2064 H 0.24612 0.66435 0.11042 0.0
H2065 H 0.28343 0.73268 0.16278 0.0
H2066 H 0.28248 0.66618 0.04054 0.0
H2067 H 0.30731 0.64624 0.06342 0.0
H2068 H 0.27041 0.64005 0.06884 0.0
H2069 H 0.3496 0.72912 0.12941 0.0
H2070 H 0.33184 0.75191 0.10176 0.0
H2071 H 0.32477 0.75427 0.14515 0.0
H2072 H 0.40362 0.68064 0.05458 0.0
H2073 H 0.3506 0.72622 0.99068 0.0
H2074 H 0.35403 0.67771 0.12368 0.0
H2075 H 0.38914 0.67135 0.10955 0.0
H2076 H 0.36153 0.64773 0.09828 0.0
H2077 H 0.28723 0.71423 0.02779 0.0
H2078 H 0.30616 0.74051 1.00534 0.0
H2079 H 0.30056 0.74441 0.04886 0.0
C2080 C 0.71279 0.11624 0.77357 0.0
C2081 C 0.68872 0.13321 0.7687 0.0
C2082 C 0.71437 0.09353 0.79742 0.0
C2083 C 0.69076 0.08488 0.81695 0.0
C2084 C 0.66615 0.10115 0.81095 0.0
C2085 C 0.66567 0.12438 0.78819 0.0
C2086 C 0.7419 0.07862 0.80065 0.0
C2087 C 0.63923 0.09328 0.82759 0.0
C2088 C 0.69157 1.00696 0.8557 0.0
C2089 C 0.6897 1.01065 0.89029 0.0
C2090 C 0.69171 1.03003 0.83243 0.0
C2091 C 0.69111 1.05912 0.84247 0.0
C2092 C 0.68984 1.06291 0.87751 0.0
C2093 C 0.68869 1.03943 0.90009 0.0
C2094 C 0.69225 1.02279 0.79647 0.0
C2095 C 0.68998 0.09201 0.89231 0.0
H2096 H 0.73036 0.11965 0.75765 0.0
H2097 H 0.64614 0.13523 0.78468 0.0
H2098 H 0.74265 1.06404 0.82168 0.0
H2099 H 0.74619 1.06667 0.77775 0.0
H2100 H 0.75889 0.09422 0.80361 0.0
H2101 H 0.62085 0.10249 0.81508 0.0
H2102 H 0.63663 1.07011 0.82823 0.0
H2103 H 0.63949 0.10112 0.8532 0.0
H2104 H 0.6924 0.98561 0.84639 0.0
H2105 H 0.68747 1.04396 0.92609 0.0
H2106 H 0.71388 1.02492 0.7872 0.0
H2107 H 0.67874 1.03723 0.7823 0.0
H2108 H 0.68533 1.00084 0.79181 0.0
H2109 H 0.69651 0.10845 0.87478 0.0
H2110 H 0.70419 0.09276 0.91378 0.0
H2111 H 0.66875 0.09705 0.90146 0.0
C2112 C 0.55856 0.19266 0.92549 0.0
C2113 C 0.57784 0.17946 0.94618 0.0
C2114 C 0.5644 0.1968 0.89223 0.0
C2115 C 0.59013 0.18733 0.8793 0.0
C2116 C 0.60952 0.17358 0.89992 0.0
C2117 C 0.60314 0.16982 0.9331 0.0
C2118 C 0.54289 0.21147 0.87142 0.0
C2119 C 0.63752 0.16379 0.88721 0.0
C2120 C 0.60708 0.17828 0.78914 0.0
C2121 C 0.62472 0.20134 0.78458 0.0
C2122 C 0.59383 0.17425 0.81949 0.0
C2123 C 0.59829 0.19393 0.84517 0.0
C2124 C 0.61326 0.2189 0.83904 0.0
C2125 C 0.62609 0.22237 0.80868 0.0
C2126 C 0.57656 0.14822 0.82486 0.0
C2127 C 0.61735 0.24107 0.86527 0.0
H2128 H 0.53912 0.20049 0.93551 0.0
H2129 H 0.61799 0.15934 0.94887 0.0
H2130 H 0.53189 0.22794 0.88587 0.0
H2131 H 0.5519 0.2214 0.84934 0.0
H2132 H 0.52711 0.19583 0.86331 0.0
H2133 H 0.64864 0.15032 0.90508 0.0
H2134 H 0.63502 0.1519 0.86395 0.0
H2135 H 0.65079 0.18234 0.88195 0.0
H2136 H 0.60531 0.16242 0.77007 0.0
H2137 H 0.63848 0.241 0.80437 0.0
H2138 H 0.55551 0.15425 0.83378 0.0
H2139 H 0.58634 0.13511 0.84408 0.0
H2140 H 0.57434 0.13541 0.80216 0.0
H2141 H 0.59697 0.24697 0.87622 0.0
H2142 H 0.6275 0.2603 0.85563 0.0
H2143 H 0.6306 0.23252 0.88513 0.0
C2144 C 0.68032 0.83968 0.18777 0.0
C2145 C 0.70437 0.82929 0.20296 0.0
C2146 C 0.68002 0.84525 0.15411 0.0
C2147 C 0.70432 0.84019 0.13522 0.0
C2148 C 0.72807 0.82813 0.15002 0.0
C2149 C 0.7279 0.82303 0.18377 0.0
C2150 C 0.65428 0.85826 0.13921 0.0
C2151 C 0.75438 0.82248 0.13076 0.0
C2152 C 0.69697 0.8522 0.04344 0.0
C2153 C 0.70318 0.88088 0.04213 0.0
C2154 C 0.69829 0.83793 0.07355 0.0
C2155 C 0.7066 0.85278 0.10223 0.0
C2156 C 0.71511 0.88111 0.1001 0.0
C2157 C 0.71296 0.89478 0.07025 0.0
C2158 C 0.68921 0.80764 0.07503 0.0
C2159 C 0.72476 0.89773 0.12973 0.0
H2160 H 0.66183 0.84382 0.2023 0.0
H2161 H 0.74662 0.81504 0.19532 0.0
H2162 H 0.65852 0.88061 0.1334 0.0
H2163 H 0.64877 0.84743 0.11594 0.0
H2164 H 0.63606 0.85742 0.15599 0.0
H2165 H 0.76856 0.80788 0.1438 0.0
H2166 H 0.74947 0.81349 0.10629 0.0
H2167 H 0.76564 0.84255 0.12689 0.0
H2168 H 0.68958 0.84145 0.02162 0.0
H2169 H 0.71811 0.91695 0.06919 0.0
H2170 H 0.66827 0.80645 0.0865 0.0
H2171 H 0.70372 0.79523 0.09038 0.0
H2172 H 0.688 0.79788 0.05027 0.0
H2173 H 0.70713 0.90049 0.14706 0.0
H2174 H 0.73274 0.91887 0.12313 0.0
H2175 H 0.74154 0.8863 0.14274 0.0
C2176 C 1.03802 0.97571 0.2781 0.0
C2177 C 1.02016 0.95275 0.28265 0.0
C2178 C 1.05399 0.98642 0.30412 0.0
C2179 C 1.05245 0.97344 0.33514 0.0
C2180 C 1.03641 0.94874 0.339 0.0
C2181 C 1.02036 0.93876 0.31269 0.0
C2182 C 0.07136 1.01247 0.29893 0.0
C2183 C 1.03508 0.93368 0.37136 0.0
C2184 C 0.10386 0.99415 0.40188 0.0
C2185 C 0.0876 1.01223 0.42118 0.0
C2186 C 0.09299 0.98168 0.37336 0.0
C2187 C 1.06509 0.98735 0.36424 0.0
C2188 C 1.04881 1.00613 0.38339 0.0
C2189 C 1.06032 1.01842 0.4116 0.0
C2190 C 0.11104 0.96148 0.35414 0.0
C2191 C 1.01876 1.01235 0.37523 0.0
H2192 H 1.03813 0.98653 0.2549 0.0
H2193 H 1.00737 0.92042 0.31595 0.0
H2194 H 1.06533 1.02904 0.31684 0.0
H2195 H 0.09367 1.00756 0.30324 0.0
H2196 H 1.06907 1.02097 0.27379 0.0
H2197 H 1.0244 0.91302 0.36925 0.0
H2198 H 1.05641 0.93033 0.38113 0.0
H2199 H 1.02357 0.94679 0.38941 0.0
H2200 H 0.12503 0.98962 0.40934 0.0
H2201 H 1.04762 1.03209 0.42686 0.0
H2202 H 0.10639 0.96193 0.32756 0.0
H2203 H 0.10709 0.93982 0.36292 0.0
H2204 H 0.13352 0.96618 0.35767 0.0
H2205 H 1.01525 1.01313 0.34843 0.0
H2206 H 1.01196 1.03257 0.38636 0.0
H2207 H 1.00536 0.99544 0.38519 0.0
C2208 C 0.91067 0.27758 0.54102 0.0
C2209 C 0.93825 0.27068 0.53374 0.0
C2210 C 0.90382 0.28886 0.57172 0.0
C2211 C 0.92528 0.29403 0.59484 0.0
C2212 C 0.9535 0.2901 0.58589 0.0
C2213 C 0.95964 0.27776 0.55557 0.0
C2214 C 0.87353 0.29257 0.58056 0.0
C2215 C 0.97705 0.29683 0.60917 0.0
C2216 C 0.9036 0.33146 0.67275 0.0
C2217 C 0.9031 0.30928 0.69536 0.0
C2218 C 0.91146 0.32699 0.64013 0.0
C2219 C 0.91796 0.29949 0.62948 0.0
C2220 C 0.91689 0.27684 0.65183 0.0
C2221 C 0.90989 0.2821 0.68462 0.0
C2222 C 0.91381 0.35191 0.61756 0.0
C2223 C 0.92371 0.24702 0.6416 0.0
H2224 H 0.89425 0.27162 0.52405 0.0
H2225 H 0.98101 0.2722 0.54967 0.0
H2226 H 0.86944 0.31443 0.58874 0.0
H2227 H 0.85945 0.28762 0.55971 0.0
H2228 H 0.86846 0.27864 0.60137 0.0
H2229 H 0.99715 0.2993 0.59597 0.0
H2230 H 0.97266 0.31639 0.62322 0.0
H2231 H 0.97941 0.27945 0.6269 0.0
H2232 H 0.89781 0.35249 0.68042 0.0
H2233 H 0.91009 0.26491 0.70187 0.0
H2234 H 0.90563 0.34712 0.59277 0.0
H2235 H 0.93616 0.35743 0.61473 0.0
H2236 H 0.90257 0.37056 0.62738 0.0
H2237 H 0.91751 0.24256 0.61591 0.0
H2238 H 0.91332 0.23152 0.65775 0.0
H2239 H 0.94654 0.24368 0.64356 0.0
C2240 C 0.53473 0.98091 0.09886 0.0
C2241 C 0.56024 0.97187 0.08571 0.0
C2242 C 0.52809 0.97626 0.13183 0.0
C2243 C 0.54765 0.96275 0.15242 0.0
C2244 C 0.57379 0.95434 0.13962 0.0
C2245 C 0.57968 0.9589 0.10642 0.0
C2246 C 0.4997 0.98498 0.14436 0.0
C2247 C 0.59567 0.94002 0.16022 0.0
C2248 C 0.52912 0.96932 0.2425 0.0
C2249 C 0.51234 0.94549 0.24617 0.0
C2250 C 0.54248 0.97453 0.21248 0.0
C2251 C 0.5392 0.95519 0.18622 0.0
C2252 C 0.52505 0.92955 0.19139 0.0
C2253 C 0.51178 0.92504 0.22135 0.0
C2254 C 0.55867 1.0014 0.20814 0.0
C2255 C 0.52214 0.90779 0.1645 0.0
H2256 H 0.51977 0.99141 0.08327 0.0
H2257 H 0.59927 0.95143 0.0965 0.0
H2258 H 0.48836 0.96643 0.15391 0.0
H2259 H 0.50205 1.00014 0.16495 0.0
H2260 H 0.48673 0.99471 0.12499 0.0
H2261 H 0.6138 0.95434 0.1631 0.0
H2262 H 0.58831 0.93408 0.18495 0.0
H2263 H 0.60325 0.9208 0.14744 0.0
H2264 H 0.53011 0.98478 0.26208 0.0
H2265 H 0.49964 0.90609 0.22473 0.0
H2266 H 0.54789 1.01494 0.19011 0.0
H2267 H 0.57971 0.99662 0.1982 0.0
H2268 H 0.56095 1.0133 0.2315 0.0
H2269 H 0.50911 0.91635 0.14443 0.0
H2270 H 0.51232 0.88809 0.17332 0.0
H2271 H 0.54292 0.90269 0.15406 0.0
C2272 C 0.36692 0.31815 0.86679 0.0
C2273 C 0.3781 0.34399 0.85731 0.0
C2274 C 0.37644 0.30465 0.89507 0.0
C2275 C 0.39752 0.31743 0.91443 0.0
C2276 C 0.40809 0.34409 0.90563 0.0
C2277 C 0.3983 0.357 0.87706 0.0
C2278 C 0.36507 0.2759 0.90275 0.0
C2279 C 0.43057 0.35842 0.92553 0.0
C2280 C 0.40746 0.28735 0.99956 0.0
C2281 C 0.42863 0.26758 0.99394 0.0
C2282 C 0.39767 0.30445 0.97413 0.0
C2283 C 0.40966 0.30198 0.94256 0.0
C2284 C 0.43201 0.2831 0.93723 0.0
C2285 C 0.44122 0.26619 0.96299 0.0
C2286 C 0.37358 0.32413 0.98058 0.0
C2287 C 0.44542 0.27983 0.90395 0.0
H2288 H 0.35159 0.30785 0.85129 0.0
H2289 H 0.40672 0.37709 0.86979 0.0
H2290 H 0.37874 0.25982 0.89123 0.0
H2291 H 0.36463 0.27191 0.92943 0.0
H2292 H 0.34369 0.27309 0.89275 0.0
H2293 H 0.43407 0.38044 0.91772 0.0
H2294 H 0.42512 0.35841 0.95193 0.0
H2295 H 0.45043 0.34668 0.92273 0.0
H2296 H 0.39755 0.28853 0.02334 0.0
H2297 H 0.45799 0.25147 0.95863 0.0
H2298 H 0.3556 0.3181 0.9649 0.0
H2299 H 0.3795 0.34591 0.97399 0.0
H2300 H 0.36682 0.3239 1.0066 0.0
H2301 H 0.43008 0.27083 0.88645 0.0
H2302 H 0.46397 0.26586 0.90453 0.0
H2303 H 0.45184 0.30063 0.89443 0.0
C2304 C 0.13999 0.17271 0.71335 0.0
C2305 C 0.12581 0.18273 0.74107 0.0
C2306 C 0.12653 0.16937 0.68344 0.0
C2307 C 0.09807 0.17663 0.6809 0.0
C2308 C 0.08303 0.1852 0.70922 0.0
C2309 C 0.09715 0.18798 0.73935 0.0
C2310 C 0.14348 0.16004 0.65407 0.0
C2311 C 1.05262 0.19305 0.70722 0.0
C2312 C 0.08535 0.20008 0.59444 0.0
C2313 C 0.0759 0.17513 0.57988 0.0
C2314 C 0.09008 0.20169 0.62825 0.0
C2315 C 0.08552 0.17764 0.64778 0.0
C2316 C 0.07439 0.15292 0.63346 0.0
C2317 C 1.06968 0.15197 0.5996 0.0
C2318 C 0.10182 0.22852 0.64265 0.0
C2319 C 1.06964 0.12669 0.65324 0.0
H2320 H 0.16219 0.16847 0.71471 0.0
H2321 H 0.08627 0.19581 0.76082 0.0
H2322 H 0.13256 0.14304 0.6405 0.0
H2323 H 0.14613 0.17794 0.63709 0.0
H2324 H 0.16454 0.15244 0.66109 0.0
H2325 H 1.04307 0.19547 0.73187 0.0
H2326 H 1.05049 0.21325 0.69405 0.0
H2327 H 1.04081 0.17697 0.69312 0.0
H2328 H 0.08941 0.21824 0.57928 0.0
H2329 H 1.0622 0.13268 0.58835 0.0
H2330 H 0.12418 0.22545 0.64867 0.0
H2331 H 0.09085 0.23413 0.66571 0.0
H2332 H 0.10012 0.2464 0.62542 0.0
H2333 H 0.08965 0.11517 0.65551 0.0
H2334 H 1.05431 0.11247 0.6412 0.0
H2335 H 1.06219 0.13179 0.6783 0.0
C2336 C 0.20884 0.8931 0.46163 0.0
C2337 C 0.19757 0.8794 0.48888 0.0
C2338 C 0.2133 0.87908 0.43219 0.0
C2339 C 0.20546 0.85058 0.42937 0.0
C2340 C 0.19523 0.83602 0.45713 0.0
C2341 C 0.19167 0.85066 0.48698 0.0
C2342 C 0.2249 0.89545 0.4036 0.0
C2343 C 0.18663 0.8056 0.4548 0.0
C2344 C 0.18677 0.83804 0.34119 0.0
C2345 C 0.2122 0.82833 0.32867 0.0
C2346 C 0.1833 0.84264 0.37485 0.0
C2347 C 0.20591 0.83758 0.39635 0.0
C2348 C 0.23099 0.82598 0.38408 0.0
C2349 C 0.23387 0.82153 0.35029 0.0
C2350 C 0.15618 0.85502 0.38703 0.0
C2351 C 0.2556 0.8205 0.40618 0.0
H2352 H 0.21373 0.91531 0.46303 0.0
H2353 H 0.18296 0.84009 0.50807 0.0
H2354 H 0.24267 0.88405 0.39231 0.0
H2355 H 0.20856 0.89785 0.38458 0.0
H2356 H 0.23218 0.91675 0.41096 0.0
H2357 H 0.18373 0.79615 0.47937 0.0
H2358 H 0.16662 0.80401 0.44127 0.0
H2359 H 0.20233 0.79316 0.44098 0.0
H2360 H 0.16972 0.84249 0.32458 0.0
H2361 H 0.25352 0.81381 0.34067 0.0
H2362 H 0.15931 0.87758 0.39304 0.0
H2363 H 0.14928 0.84439 0.40972 0.0
H2364 H 0.13934 0.85333 0.36844 0.0
H2365 H 0.26612 0.8407 0.412 0.0
H2366 H 0.27107 0.80628 0.39441 0.0
H2367 H 0.24876 0.81115 0.42965 0.0
C2368 C 1.05686 0.66311 0.42075 0.0
C2369 C 0.07783 0.66253 0.4449 0.0
C2370 C 1.06301 0.66977 0.38812 0.0
C2371 C 0.09097 0.67474 0.37894 0.0
C2372 C 0.11232 0.67394 0.40291 0.0
C2373 C 0.1054 0.66852 0.43563 0.0
C2374 C 1.03946 0.67212 0.36371 0.0
C2375 C 0.14257 0.67905 0.39425 0.0
C2376 C 0.1165 0.6629 0.29222 0.0
C2377 C 0.12368 0.69027 0.28348 0.0
C2378 C 0.10418 0.65759 0.32272 0.0
C2379 C 0.0983 0.68034 0.34426 0.0
C2380 C 0.1031 0.70823 0.33394 0.0
C2381 C 0.11638 0.71283 0.30391 0.0
C2382 C 0.09993 0.62758 0.33315 0.0
C2383 C 0.09612 0.73316 0.35546 0.0
H2384 H 1.03553 0.65804 0.42704 0.0
H2385 H 0.12176 0.66905 0.4539 0.0
H2386 H 1.0369 0.69448 0.35679 0.0
H2387 H 1.04418 0.66019 0.34097 0.0
H2388 H 1.01935 0.66445 0.37377 0.0
H2389 H 0.15691 0.67092 0.41334 0.0
H2390 H 0.14809 0.66908 0.37048 0.0
H2391 H 0.14624 0.70196 0.39196 0.0
H2392 H 0.12275 0.64551 0.27654 0.0
H2393 H 0.12227 0.734 0.2971 0.0
H2394 H 0.07821 0.62429 0.34158 0.0
H2395 H 0.11384 0.62306 0.35416 0.0
H2396 H 0.10442 0.6124 0.31305 0.0
H2397 H 0.07624 0.72977 0.36878 0.0
H2398 H 0.09441 0.75277 0.34098 0.0
H2399 H 0.11287 0.73619 0.37388 0.0
C2400 C 0.23051 0.32216 0.68098 0.0
C2401 C 0.20816 0.32896 0.70175 0.0
C2402 C 0.22926 0.32785 0.64739 0.0
C2403 C 0.20513 0.3407 0.6344 0.0
C2404 C 0.1819 0.34612 0.65493 0.0
C2405 C 0.18373 0.34024 0.68843 0.0
C2406 C 0.25453 0.32202 0.62636 0.0
C2407 C 0.15577 0.35984 0.64194 0.0
C2408 C 0.21179 0.39562 0.56942 0.0
C2409 C 0.20065 0.38201 0.54189 0.0
C2410 C 0.21491 0.38175 0.59905 0.0
C2411 C 0.20606 0.35353 0.60148 0.0
C2412 C 0.19614 0.33903 0.57328 0.0
C2413 C 0.19384 0.35348 0.5434 0.0
C2414 C 0.2261 0.398 0.62819 0.0
C2415 C 0.18649 0.30892 0.57512 0.0
H2416 H 0.24944 0.3134 0.69122 0.0
H2417 H 0.16618 0.34487 0.70432 0.0
H2418 H 0.24831 0.31279 0.60243 0.0
H2419 H 0.26553 0.34207 0.62135 0.0
H2420 H 0.2694 0.30755 0.63851 0.0
H2421 H 0.13834 0.35907 0.65985 0.0
H2422 H 0.16015 0.38219 0.63631 0.0
H2423 H 0.14898 0.34946 0.61887 0.0
H2424 H 0.21719 0.41767 0.56814 0.0
H2425 H 0.18535 0.343 0.52196 0.0
H2426 H 0.24293 0.38602 0.64043 0.0
H2427 H 0.20916 0.40132 0.64633 0.0
H2428 H 0.2345 0.41887 0.6212 0.0
H2429 H 0.18345 0.29947 0.55041 0.0
H2430 H 0.16636 0.30804 0.58847 0.0
H2431 H 0.20169 0.29602 0.58893 0.0
C2432 C 0.53945 0.48137 0.77655 0.0
C2433 C 0.52182 0.45835 0.78183 0.0
C2434 C 0.55502 0.49311 0.80232 0.0
C2435 C 0.55344 0.481 0.8338 0.0
C2436 C 0.53759 0.45628 0.83851 0.0
C2437 C 0.52182 0.44536 0.81249 0.0
C2438 C 0.57247 0.51894 0.79611 0.0
C2439 C 0.53647 0.44197 0.87135 0.0
C2440 C 0.60557 0.501 0.89982 0.0
C2441 C 0.58922 0.51783 0.9205 0.0
C2442 C 0.59465 0.48961 0.87077 0.0
C2443 C 0.56658 0.49523 0.86236 0.0
C2444 C 0.55044 0.51349 0.88238 0.0
C2445 C 0.56199 0.52459 0.91124 0.0
C2446 C 0.61285 0.47024 0.85061 0.0
C2447 C 0.5204 0.52013 0.87478 0.0
H2448 H 0.53978 0.49139 0.75287 0.0
H2449 H 0.50904 0.42698 0.81637 0.0
H2450 H 0.56824 0.53533 0.81493 0.0
H2451 H 0.59489 0.5134 0.79792 0.0
H2452 H 0.56857 0.52792 0.77149 0.0
H2453 H 0.52581 0.42126 0.86998 0.0
H2454 H 0.55789 0.43888 0.88102 0.0
H2455 H 0.52505 0.45548 0.88909 0.0
H2456 H 0.62674 0.49616 0.90694 0.0
H2457 H 0.54921 0.53739 0.9274 0.0
H2458 H 0.60585 0.46814 0.82485 0.0
H2459 H 0.61257 0.44905 0.86176 0.0
H2460 H 0.63474 0.47783 0.85063 0.0
H2461 H 0.51584 0.51902 0.8482 0.0
H2462 H 0.51481 0.54138 0.88407 0.0
H2463 H 0.5068 0.50471 0.88733 0.0
C2464 C 0.43003 0.74613 0.07305 0.0
C2465 C 0.44021 0.76078 0.04594 0.0
C2466 C 0.42576 0.75944 0.10301 0.0
C2467 C 0.43231 0.78825 0.10624 0.0
C2468 C 0.44136 0.8037 0.07859 0.0
C2469 C 0.44499 0.78971 0.04835 0.0
C2470 C 0.4157 0.74212 0.13161 0.0
C2471 C 0.44853 0.83448 0.08137 0.0
C2472 C 0.40268 0.81622 0.18526 0.0
C2473 C 0.42487 0.81124 0.20684 0.0
C2474 C 0.40557 0.81128 0.1516 0.0
C2475 C 0.43122 0.80098 0.13937 0.0
C2476 C 0.45415 0.79738 0.16081 0.0
C2477 C 0.45066 0.80249 0.19439 0.0
C2478 C 0.38058 0.81506 0.12956 0.0
C2479 C 0.48185 0.78641 0.14861 0.0
H2480 H 0.42625 0.72376 0.07118 0.0
H2481 H 0.45282 0.80098 0.02729 0.0
H2482 H 0.4327 0.74009 0.14988 0.0
H2483 H 0.39785 0.75256 0.14395 0.0
H2484 H 0.4091 0.72066 0.124 0.0
H2485 H 0.45135 0.84427 0.05697 0.0
H2486 H 0.43205 0.84603 0.09497 0.0
H2487 H 0.46822 0.83693 0.09539 0.0
H2488 H 0.38272 0.8231 0.19486 0.0
H2489 H 0.46804 0.79939 0.21097 0.0
H2490 H 0.37182 0.79415 0.1231 0.0
H2491 H 0.38669 0.82543 0.1064 0.0
H2492 H 0.36394 0.82769 0.14157 0.0
H2493 H 0.47981 0.7638 0.14219 0.0
H2494 H 0.49856 0.78869 0.16729 0.0
H2495 H 0.48829 0.79763 0.12612 0.0
C2496 C 0.08171 0.47646 0.60378 0.0
C2497 C 1.06078 0.48502 0.58177 0.0
C2498 C 0.07523 0.46707 0.6354 0.0
C2499 C 1.04721 0.46746 0.64609 0.0
C2500 C 1.02603 0.47692 0.62467 0.0
C2501 C 1.03293 0.48467 0.59259 0.0
C2502 C 0.09863 0.45624 0.65661 0.0
C2503 C 0.99602 0.47929 0.6358 0.0
C2504 C 1.01462 0.42452 0.71324 0.0
C2505 C 1.01382 0.44415 0.73893 0.0
C2506 C 1.02785 0.43087 0.68366 0.0
C2507 C 1.03954 0.45787 0.67944 0.0
C2508 C 1.04143 0.47654 0.70654 0.0
C2509 C 1.02908 0.46908 0.73641 0.0
C2510 C 1.02797 0.40925 0.65643 0.0
C2511 C 1.05507 0.50496 0.70342 0.0
H2512 H 0.10341 0.47732 0.59673 0.0
H2513 H 1.01625 0.49046 0.57613 0.0
H2514 H 0.11695 0.47044 0.65503 0.0
H2515 H 0.09295 0.45394 0.68274 0.0
H2516 H 0.10505 0.43525 0.64728 0.0
H2517 H 0.98257 0.48955 0.61725 0.0
H2518 H 0.98739 0.45813 0.64078 0.0
H2519 H 0.99482 0.4916 0.65897 0.0
H2520 H 1.00396 0.4046 0.71583 0.0
H2521 H 1.02948 0.4837 0.75686 0.0
H2522 H 1.04855 0.40888 0.64396 0.0
H2523 H 1.01197 0.41471 0.63794 0.0
H2524 H 1.02328 0.38785 0.66566 0.0
H2525 H 0.07727 0.50239 0.69644 0.0
H2526 H 1.05413 0.51729 0.72659 0.0
H2527 H 1.04479 0.51706 0.68367 0.0
C2528 C 0.89589 0.85659 0.37661 0.0
C2529 C 0.87688 0.84177 0.35699 0.0
C2530 C 0.90732 0.84448 0.40478 0.0
C2531 C 0.89957 0.81681 0.41331 0.0
C2532 C 0.87964 0.8021 0.39408 0.0
C2533 C 0.86846 0.81483 0.36617 0.0
C2534 C 0.92882 0.86076 0.42414 0.0
C2535 C 0.8712 0.7723 0.40159 0.0
C2536 C 0.94627 0.7689 0.46252 0.0
C2537 C 0.93331 0.7697 0.49325 0.0
C2538 C 0.93639 0.78528 0.43662 0.0
C2539 C 0.91285 0.80271 0.4416 0.0
C2540 C 0.90069 0.80487 0.47309 0.0
C2541 C 0.91129 0.78855 0.49867 0.0
C2542 C 0.95036 0.78296 0.40358 0.0
C2543 C 0.87567 0.8234 0.47931 0.0
H2544 H 0.90223 0.87747 0.36943 0.0
H2545 H 0.8541 0.80318 0.35067 0.0
H2546 H 0.92685 0.857 0.4508 0.0
H2547 H 0.94995 0.85383 0.41648 0.0
H2548 H 0.92714 0.88368 0.41977 0.0
H2549 H 0.85021 0.76746 0.39153 0.0
H2550 H 0.88633 0.75767 0.39 0.0
H2551 H 0.87118 0.76817 0.42826 0.0
H2552 H 0.96372 0.75491 0.45844 0.0
H2553 H 0.90115 0.78932 0.52233 0.0
H2554 H 0.95501 0.80418 0.39392 0.0
H2555 H 0.93605 0.77247 0.38599 0.0
H2556 H 0.97005 0.77069 0.40462 0.0
H2557 H 0.88117 0.84562 0.47444 0.0
H2558 H 0.8679 0.82178 0.50486 0.0
H2559 H 0.85852 0.81761 0.46229 0.0
C2560 C 0.61 0.66096 0.09086 0.0
C2561 C 0.58332 0.65379 0.07924 0.0
C2562 C 0.61502 0.6651 0.12442 0.0
C2563 C 0.59254 0.66362 0.14685 0.0
C2564 C 0.56581 0.65567 0.13566 0.0
C2565 C 0.56167 0.65026 0.1022 0.0
C2566 C 0.64441 0.6712 0.13586 0.0
C2567 C 0.54138 0.65354 0.15882 0.0
C2568 C 0.61193 0.65869 0.23668 0.0
C2569 C 0.61708 0.68695 0.24394 0.0
C2570 C 0.60267 0.65052 0.20549 0.0
C2571 C 0.59711 0.6714 0.18175 0.0
C2572 C 0.59891 0.70018 0.19066 0.0
C2573 C 0.60978 0.70762 0.22138 0.0
C2574 C 0.60117 0.61946 0.19808 0.0
C2575 C 0.59108 0.72315 0.16707 0.0
H2576 H 0.62703 0.66388 0.07382 0.0
H2577 H 0.54124 0.64339 0.09422 0.0
H2578 H 0.64606 0.69339 0.1441 0.0
H2579 H 0.64978 0.65773 0.15704 0.0
H2580 H 0.66003 0.66758 0.11619 0.0
H2581 H 0.52337 0.64256 0.14741 0.0
H2582 H 0.5472 0.64213 0.18138 0.0
H2583 H 0.53476 0.67502 0.16624 0.0
H2584 H 0.61766 0.64272 0.25421 0.0
H2585 H 0.61389 0.72952 0.22716 0.0
H2586 H 0.59361 0.61438 0.1731 0.0
H2587 H 0.5873 0.60913 0.21614 0.0
H2588 H 0.6222 0.6102 0.20123 0.0
H2589 H 0.60784 0.72569 0.14862 0.0
H2590 H 0.58811 0.74364 0.17982 0.0
H2591 H 0.57157 0.71766 0.15382 0.0
C2592 C 0.72566 0.36426 0.98421 0.0
C2593 C 0.69775 0.37195 0.98835 0.0
C2594 C 0.73516 0.35391 0.95402 0.0
C2595 C 0.71586 0.34999 0.92807 0.0
C2596 C 0.68709 0.35494 0.93352 0.0
C2597 C 0.67847 0.36659 0.96343 0.0
C2598 C 0.76605 0.34869 0.95016 0.0
C2599 C 0.66562 0.34953 0.90718 0.0
C2600 C 0.73689 0.35924 0.83936 0.0
C2601 C 0.74148 0.33137 0.82921 0.0
C2602 C 0.72968 0.36561 0.87187 0.0
C2603 C 0.72573 0.34351 0.89444 0.0
C2604 C 0.73076 0.31546 0.88469 0.0
C2605 C 0.73906 0.30977 0.85242 0.0
C2606 C 0.72612 0.39602 0.882 0.0
C2607 C 0.72698 0.29145 0.90823 0.0
H2608 H 0.74058 0.36863 1.00355 0.0
H2609 H 0.65685 0.37267 0.96685 0.0
H2610 H 0.77147 0.32877 0.96262 0.0
H2611 H 0.77285 0.34708 0.92428 0.0
H2612 H 0.77814 0.36571 0.96239 0.0
H2613 H 0.64407 0.34951 0.9172 0.0
H2614 H 0.66698 0.36615 0.88835 0.0
H2615 H 0.66957 0.32904 0.89486 0.0
H2616 H 0.73849 0.37616 0.82188 0.0
H2617 H 0.74364 0.28825 0.8455 0.0
H2618 H 0.73705 0.40022 0.9055 0.0
H2619 H 0.70369 0.40065 0.88588 0.0
H2620 H 0.73428 0.41068 0.86325 0.0
H2621 H 0.74001 0.29486 0.93034 0.0
H2622 H 0.73268 0.27087 0.89715 0.0
H2623 H 0.70489 0.29058 0.91634 0.0
C2624 C 0.39549 0.26082 0.29614 0.0
C2625 C 0.39451 0.26649 0.26243 0.0
C2626 C 0.38475 0.27992 0.31913 0.0
C2627 C 0.37165 0.30469 0.30809 0.0
C2628 C 0.3697 0.31016 0.27417 0.0
C2629 C 0.38163 0.29127 0.25179 0.0
C2630 C 0.38782 0.27381 0.35521 0.0
C2631 C 0.35513 0.33605 0.2615 0.0
C2632 C 0.32022 0.34198 0.36331 0.0
C2633 C 0.33502 0.36644 0.37183 0.0
C2634 C 0.33201 0.32151 0.34285 0.0
C2635 C 0.35974 0.32493 0.3319 0.0
C2636 C 0.37552 0.34851 0.34221 0.0
C2637 C 0.36281 0.36926 0.36163 0.0
C2638 C 0.31434 0.29693 0.33175 0.0
C2639 C 0.40552 0.35228 0.33185 0.0
H2640 H 0.40482 0.24149 0.30469 0.0
H2641 H 0.38123 0.29629 0.22596 0.0
H2642 H 0.39894 0.29141 0.36754 0.0
H2643 H 0.36699 0.27212 0.36682 0.0
H2644 H 0.39949 0.25405 0.35973 0.0
H2645 H 0.35394 0.33629 0.23433 0.0
H2646 H 0.33363 0.33722 0.2715 0.0
H2647 H 0.36634 0.35518 0.26984 0.0
H2648 H 0.29908 0.33905 0.372 0.0
H2649 H 0.37443 0.38808 0.36788 0.0
H2650 H 0.32477 0.27682 0.33769 0.0
H2651 H 0.31177 0.29753 0.30475 0.0
H2652 H 0.29333 0.29704 0.34321 0.0
H2653 H 0.41753 0.33276 0.33633 0.0
H2654 H 0.41579 0.36994 0.34508 0.0
H2655 H 0.40648 0.35653 0.3052 0.0
C2656 C 0.59996 0.54818 0.44396 0.0
C2657 C 0.59976 0.57107 0.42271 0.0
C2658 C 0.58075 0.5467 0.46982 0.0
C2659 C 0.56111 0.56868 0.47426 0.0
C2660 C 0.55961 0.59075 0.45138 0.0
C2661 C 0.5789 0.59159 0.42575 0.0
C2662 C 0.58264 0.52262 0.49357 0.0
C2663 C 0.53898 0.61453 0.45522 0.0
C2664 C 0.5022 0.55589 0.53398 0.0
C2665 C 0.51317 0.56752 0.56293 0.0
C2666 C 0.51725 0.55673 0.50462 0.0
C2667 C 0.54374 0.56973 0.50424 0.0
C2668 C 0.5542 0.58296 0.53292 0.0
C2669 C 0.53874 0.58167 0.56202 0.0
C2670 C 0.50537 0.54263 0.47445 0.0
C2671 C 0.58227 0.59736 0.53325 0.0
H2672 H 0.61618 0.53242 0.44162 0.0
H2673 H 0.57866 0.60917 0.40901 0.0
H2674 H 0.59017 0.53053 0.51763 0.0
H2675 H 0.56175 0.51321 0.49754 0.0
H2676 H 0.5971 0.50592 0.48487 0.0
H2677 H 0.53811 0.62797 0.43312 0.0
H2678 H 0.51777 0.6063 0.46023 0.0
H2679 H 0.5451 0.62786 0.47644 0.0
H2680 H 0.48222 0.54523 0.53462 0.0
H2681 H 0.54735 0.59045 0.58441 0.0
H2682 H 0.51851 0.52432 0.46761 0.0
H2683 H 0.50563 0.5573 0.45345 0.0
H2684 H 0.48365 0.53522 0.47826 0.0
H2685 H 0.59895 0.58166 0.52862 0.0
H2686 H 0.5866 0.60806 0.55698 0.0
H2687 H 0.58339 0.61311 0.5134 0.0
C2688 C 0.33053 0.85135 0.70713 0.0
C2689 C 0.30791 0.84895 0.68565 0.0
C2690 C 0.33361 0.83258 0.73319 0.0
C2691 C 0.31361 0.81101 0.7376 0.0
C2692 C 0.29154 0.80768 0.71497 0.0
C2693 C 0.289 0.82668 0.68918 0.0
C2694 C 0.35755 0.83658 0.7568 0.0
C2695 C 0.26998 0.78479 0.71877 0.0
C2696 C 0.33494 0.75216 0.79392 0.0
C2697 C 0.32333 0.76112 0.82374 0.0
C2698 C 0.3311 0.76767 0.76531 0.0
C2699 C 0.31524 0.79267 0.76666 0.0
C2700 C 0.30213 0.80096 0.7963 0.0
C2701 C 0.30631 0.78498 0.82459 0.0
C2702 C 0.34517 0.75807 0.73408 0.0
C2703 C 0.28489 0.82745 0.79851 0.0
H2704 H 0.34501 0.86868 0.70449 0.0
H2705 H 0.27167 0.82467 0.67224 0.0
H2706 H 0.34933 0.84223 0.78138 0.0
H2707 H 0.3694 0.8167 0.75935 0.0
H2708 H 0.37213 0.85335 0.74885 0.0
H2709 H 0.25526 0.7839 0.69778 0.0
H2710 H 0.28027 0.76404 0.72114 0.0
H2711 H 0.25782 0.78849 0.74153 0.0
H2712 H 0.34789 0.73349 0.79329 0.0
H2713 H 0.29754 0.79199 0.84772 0.0
H2714 H 0.36174 0.77326 0.72737 0.0
H2715 H 0.32997 0.75748 0.7136 0.0
H2716 H 0.35476 0.73694 0.7365 0.0
H2717 H 0.29846 0.846 0.79447 0.0
H2718 H 0.27452 0.82985 0.82269 0.0
H2719 H 0.2687 0.82751 0.7791 0.0
C2720 C 0.13161 0.63841 0.98404 0.0
C2721 C 0.12515 0.64179 0.01739 0.0
C2722 C 0.11188 0.62788 0.96185 0.0
C2723 C 0.08541 0.61951 0.97347 0.0
C2724 C 0.07886 0.62225 1.00711 0.0
C2725 C 0.09864 0.63379 0.02859 0.0
C2726 C 0.11936 0.62578 0.92597 0.0
C2727 C 1.05104 0.61282 0.02047 0.0
C2728 C 1.02446 0.61232 0.91488 0.0
C2729 C 1.02482 0.58339 0.90801 0.0
C2730 C 1.04448 0.62452 0.9356 0.0
C2731 C 1.06477 0.60723 0.95052 0.0
C2732 C 1.06532 0.57809 0.94369 0.0
C2733 C 1.04572 0.56664 0.92201 0.0
C2734 C 1.04384 0.65585 0.94167 0.0
C2735 C 0.08635 0.5589 0.95965 0.0
H2736 H 0.15217 0.64393 0.97517 0.0
H2737 H 0.09314 0.63682 0.0541 0.0
H2738 H 0.11917 0.60347 0.91793 0.0
H2739 H 0.10361 0.63702 0.91106 0.0
H2740 H 0.14026 0.63474 0.92067 0.0
H2741 H 1.04959 0.61556 0.04746 0.0
H2742 H 1.03396 0.62493 1.00891 0.0
H2743 H 1.04755 0.59033 0.01436 0.0
H2744 H 1.0083 0.62542 0.90448 0.0
H2745 H 1.04681 0.54444 0.91612 0.0
H2746 H 1.06449 0.66515 0.93597 0.0
H2747 H 1.03953 0.66022 0.9679 0.0
H2748 H 1.02772 0.66653 0.92671 0.0
H2749 H 0.10781 0.56526 0.9528 0.0
H2750 H 0.08332 0.53653 0.95251 0.0
H2751 H 0.08473 0.56069 0.9867 0.0
C2752 C 0.80847 0.89294 0.7914 0.0
C2753 C 0.81909 0.88263 0.82097 0.0
C2754 C 0.81108 0.87747 0.76228 0.0
C2755 C 0.82471 0.85116 0.76288 0.0
C2756 C 0.83713 0.84154 0.79222 0.0
C2757 C 0.83417 0.85747 0.82103 0.0
C2758 C 0.79781 0.8885 0.73139 0.0
C2759 C 0.85205 0.81364 0.79364 0.0
C2760 C 0.80366 0.79342 0.7036 0.0
C2761 C 0.82631 0.79332 0.68203 0.0
C2762 C 0.80237 0.81294 0.72944 0.0
C2763 C 0.82424 0.83269 0.73355 0.0
C2764 C 0.84632 0.83368 0.71067 0.0
C2765 C 0.84704 0.814 0.68507 0.0
C2766 C 0.77834 0.81149 0.75328 0.0
C2767 C 0.86989 0.85455 0.71414 0.0
H2768 H 0.79704 0.9126 0.79137 0.0
H2769 H 0.84219 0.8494 0.84394 0.0
H2770 H 0.8127 0.88732 0.71064 0.0
H2771 H 0.77957 0.87525 0.72484 0.0
H2772 H 0.79065 0.91058 0.73424 0.0
H2773 H 0.86256 0.81036 0.81756 0.0
H2774 H 0.83686 0.79635 0.78967 0.0
H2775 H 0.86787 0.81214 0.77388 0.0
H2776 H 0.78775 0.77734 0.70132 0.0
H2777 H 0.86439 0.81409 0.66802 0.0
H2778 H 0.76855 0.83248 0.75619 0.0
H2779 H 0.78616 0.80513 0.7777 0.0
H2780 H 0.7621 0.79625 0.74532 0.0
H2781 H 0.86156 0.87614 0.71728 0.0
H2782 H 0.88411 0.85418 0.69265 0.0
H2783 H 0.88223 0.84966 0.73637 0.0
C2784 C 0.81691 0.34389 0.16674 0.0
C2785 C 0.83151 0.36829 0.15786 0.0
C2786 C 0.82895 0.32389 0.18728 0.0
C2787 C 0.85675 0.32764 0.19789 0.0
C2788 C 0.87227 0.3512 0.18737 0.0
C2789 C 0.8593 0.37153 0.16795 0.0
C2790 C 0.81154 0.29936 0.19868 0.0
C2791 C 0.90234 0.3553 0.19735 0.0
C2792 C 0.88054 0.29479 0.27716 0.0
C2793 C 0.8936 0.27013 0.26596 0.0
C2794 C 0.86782 0.3133 0.25526 0.0
C2795 C 0.86916 0.30761 0.22126 0.0
C2796 C 0.88232 0.28291 0.20967 0.0
C2797 C 0.89384 0.26416 0.23221 0.0
C2798 C 0.85316 0.33907 0.26853 0.0
C2799 C 0.88474 0.27658 0.17347 0.0
H2800 H 0.79578 0.34059 0.15816 0.0
H2801 H 0.87077 0.3903 0.16149 0.0
H2802 H 0.82186 0.27923 0.19222 0.0
H2803 H 0.80955 0.30008 0.22575 0.0
H2804 H 0.79028 0.29939 0.18784 0.0
H2805 H 0.91231 0.37303 0.18422 0.0
H2806 H 0.90356 0.35959 0.22404 0.0
H2807 H 0.91449 0.33588 0.1924 0.0
H2808 H 0.88067 0.30003 0.30301 0.0
H2809 H 0.90325 0.2449 0.22324 0.0
H2810 H 0.83154 0.34004 0.2589 0.0
H2811 H 0.86411 0.35829 0.26027 0.0
H2812 H 0.85231 0.33937 0.29572 0.0
H2813 H 0.86372 0.27477 0.16235 0.0
H2814 H 0.89637 0.25682 0.16849 0.0
H2815 H 0.8956 0.29413 0.16103 0.0
C2816 C 0.09298 0.13451 1.00313 0.0
C2817 C 0.11833 0.14621 0.01365 0.0
C2818 C 0.07447 0.12244 0.02548 0.0
C2819 C 0.08108 0.12286 0.05923 0.0
C2820 C 0.10656 0.13458 0.0701 0.0
C2821 C 0.12511 0.14567 0.0471 0.0
C2822 C 1.04773 0.10942 1.01298 0.0
C2823 C 0.11401 0.1358 0.10604 0.0
C2824 C 1.0191 0.11482 0.11574 0.0
C2825 C 1.021 0.08634 0.12393 0.0
C2826 C 1.03926 0.12736 0.09573 0.0
C2827 C 1.06133 0.11079 0.08309 0.0
C2828 C 1.06384 0.08229 0.09204 0.0
C2829 C 1.04394 1.07057 0.11287 0.0
C2830 C 1.03649 0.15808 0.08735 0.0
C2831 C 0.08686 1.06386 0.07857 0.0
H2832 H 0.08727 0.13526 0.97748 0.0
H2833 H 0.14489 0.15411 0.05543 0.0
H2834 H 1.04605 0.08738 0.02145 0.0
H2835 H 1.02955 0.12103 0.02302 0.0
H2836 H 1.0464 0.10956 0.98582 0.0
H2837 H 0.13438 0.14628 0.11047 0.0
H2838 H 0.09762 0.14737 0.11978 0.0
H2839 H 0.11494 0.11428 0.11621 0.0
H2840 H 1.00143 0.12713 0.12409 0.0
H2841 H 1.04607 1.04877 0.11998 0.0
H2842 H 1.0317 0.16028 0.06092 0.0
H2843 H 1.05647 0.16919 0.09203 0.0
H2844 H 1.01974 0.1686 0.10168 0.0
H2845 H 0.08504 1.06244 0.05151 0.0
H2846 H 0.0862 1.04225 0.08867 0.0
H2847 H 0.10753 1.07317 0.08415 0.0
C2848 C 0.59359 1.05933 0.57342 0.0
C2849 C 0.6199 1.0721 0.5729 0.0
C2850 C 0.57771 1.05682 0.5447 0.0
C2851 C 0.58846 1.06739 0.51491 0.0
C2852 C 0.61559 0.07897 0.51394 0.0
C2853 C 0.63104 0.08109 0.54296 0.0
C2854 C 0.54893 1.04405 0.54653 0.0
C2855 C 0.6278 0.09028 0.48259 0.0
C2856 C 0.5518 1.04339 0.43759 0.0
C2857 C 0.53267 1.0653 0.4328 0.0
C2858 C 0.57074 1.04415 0.46365 0.0
C2859 C 0.57071 1.06753 0.48518 0.0
C2860 C 0.5526 0.09049 0.4793 0.0
C2861 C 0.53372 0.08909 0.45308 0.0
C2862 C 0.5898 1.01933 0.469 0.0
C2863 C 0.55225 0.11593 0.50161 0.0
H2864 H 0.58484 1.05257 0.59654 0.0
H2865 H 0.65157 0.09064 0.54246 0.0
H2866 H 0.53304 1.06033 0.54115 0.0
H2867 H 0.54662 1.02718 0.52783 0.0
H2868 H 0.54443 1.03511 0.57103 0.0
H2869 H 0.64996 0.09663 0.48549 0.0
H2870 H 0.62637 0.07431 0.46274 0.0
H2871 H 0.61564 0.10885 0.47462 0.0
H2872 H 0.55126 1.02515 0.42153 0.0
H2873 H 0.51887 0.10596 0.44945 0.0
H2874 H 0.58395 1.00861 0.49204 0.0
H2875 H 0.61171 1.02646 0.4717 0.0
H2876 H 0.58868 1.00381 0.44858 0.0
H2877 H 0.54489 0.10976 0.5263 0.0
H2878 H 0.5384 0.1328 0.49229 0.0
H2879 H 0.57362 0.12454 0.50446 0.0
loop_
_geom_bond_atom_site_label_1
_geom_bond_atom_site_label_2
_geom_bond_distance
_geom_bond_site_symmetry_2
_ccdc_geom_bond_type
Gd0 N31 2.661 . S
Gd0 N37 2.601 . S
Gd0 O44 2.545 . S
Gd0 O45 2.606 . S
Gd0 O47 2.429 . S
Gd0 O48 2.545 . S
Gd0 O49 2.412 . S
Gd0 O51 2.362 . S
Gd0 O52 2.324 . S
Gd0 C59 2.828 . S
Gd1 N10 2.661 1_554 S
Gd1 N14 2.601 . S
Gd1 O45 2.362 . S
Gd1 O46 2.324 1_554 S
Gd1 O50 2.545 1_554 S
Gd1 O51 2.606 . S
Gd1 O53 2.429 . S
Gd1 O54 2.545 . S
Gd1 O55 2.412 1_554 S
Gd1 C68 2.828 1_554 S
C2 C5 1.417 . S
C2 C7 1.431 . S
C2 C8 1.412 . S
C3 C6 1.437 . S
C3 C7 1.317 . S
C3 H22 0.929 . S
C4 C5 1.426 . S
C4 C6 1.413 . S
C4 N14 1.359 1_556 S
C5 C2 1.417 . S
C5 C4 1.426 . S
C5 N10 1.350 . S
C6 C3 1.437 . S
C6 C4 1.413 . S
C6 C16 1.391 . S
C7 C2 1.431 . S
C7 C3 1.317 . S
C7 H18 0.930 . S
C8 C2 1.412 . S
C8 C9 1.355 . S
C8 H20 0.930 . S
C9 C8 1.355 . S
C9 C11 1.402 . S
C9 H21 0.930 . S
N10 Gd1 2.661 1_556 S
N10 C5 1.350 . S
N10 C11 1.307 . S
C11 C9 1.402 . S
C11 N10 1.307 . S
C11 H12 0.930 . S
H12 C11 0.930 . S
C13 N14 1.334 . S
C13 C15 1.394 . S
C13 H17 0.930 . S
N14 Gd1 2.601 . S
N14 C4 1.359 1_554 S
N14 C13 1.334 . S
C15 C13 1.394 . S
C15 C16 1.359 1_554 S
C15 H27 0.930 . S
C16 C6 1.391 . S
C16 C15 1.359 1_556 S
C16 H28 0.929 . S
H17 C13 0.930 . S
H18 C7 0.930 . S
H19 C36 0.930 . S
H20 C8 0.930 . S
H21 C9 0.930 . S
H22 C3 0.929 . S
H23 C41 0.930 . S
H24 C32 0.930 . S
H25 C33 0.930 . S
H26 C57 0.929 . S
H27 C15 0.930 . S
H28 C16 0.929 . S
H29 C58 0.930 . S
H30 C39 0.930 . S
N31 Gd0 2.661 . S
N31 C35 1.350 . S
N31 C36 1.307 . S
C32 H24 0.930 . S
C32 C33 1.355 . S
C32 C34 1.412 . S
C33 H25 0.930 . S
C33 C32 1.355 . S
C33 C36 1.402 . S
C34 C32 1.412 . S
C34 C35 1.417 . S
C34 C58 1.431 . S
C35 N31 1.350 . S
C35 C34 1.417 . S
C35 C38 1.426 . S
C36 H19 0.930 . S
C36 N31 1.307 . S
C36 C33 1.402 . S
N37 Gd0 2.601 . S
N37 C38 1.359 . S
N37 C41 1.334 . S
C38 C35 1.426 . S
C38 N37 1.359 . S
C38 C42 1.413 . S
C39 H30 0.930 . S
C39 C40 1.359 . S
C39 C41 1.394 . S
C40 C39 1.359 . S
C40 C42 1.391 . S
C40 H43 0.929 . S
C41 H23 0.930 . S
C41 N37 1.334 . S
C41 C39 1.394 . S
C42 C38 1.413 . S
C42 C40 1.391 . S
C42 C57 1.437 . S
H43 C40 0.929 . S
O44 Gd0 2.545 . S
O44 C59 1.258 . S
O45 Gd0 2.606 . S
O45 Gd1 2.362 . S
O45 C56 1.284 . S
O46 Gd1 2.324 1_556 S
O46 C66 1.254 . S
O47 Gd0 2.429 . S
O47 C66 1.268 1_554 S
O48 Gd0 2.545 . S
O48 C56 1.250 . S
O49 Gd0 2.412 . S
O49 C59 1.252 . S
O50 Gd1 2.545 1_556 S
O50 C68 1.258 . S
O51 Gd0 2.362 . S
O51 Gd1 2.606 . S
O51 C67 1.284 . S
O52 Gd0 2.324 . S
O52 C75 1.254 . S
O53 Gd1 2.429 . S
O53 C75 1.268 . S
O54 Gd1 2.545 . S
O54 C67 1.250 . S
O55 Gd1 2.412 1_556 S
O55 C68 1.252 . S
C56 O45 1.284 . S
C56 O48 1.250 . S
C57 H26 0.929 . S
C57 C42 1.437 . S
C57 C58 1.317 . S
C58 H29 0.930 . S
C58 C34 1.431 . S
C58 C57 1.317 . S
C59 Gd0 2.828 . S
C59 O44 1.258 . S
C59 O49 1.252 . S
C59 C60 1.497 . S
C60 C59 1.497 . S
C60 C61 1.395 . S
C60 C62 1.380 . S
C61 C60 1.395 . S
C61 C64 1.398 . S
C61 H76 0.930 . S
C62 C60 1.380 . S
C62 C63 1.391 . S
C62 H77 0.930 . S
C63 C62 1.391 . S
C63 C65 1.387 . S
C64 C61 1.398 . S
C64 C65 1.380 . S
C64 H78 0.930 . S
C65 C63 1.387 . S
C65 C64 1.380 . S
C65 H79 0.930 . S
C66 O46 1.254 . S
C66 O47 1.268 1_556 S
C67 O51 1.284 . S
C67 O54 1.250 . S
C68 Gd1 2.828 1_556 S
C68 O50 1.258 . S
C68 O55 1.252 . S
C68 C69 1.497 . S
C69 C68 1.497 . S
C69 C70 1.395 . S
C69 C71 1.380 . S
C70 C69 1.395 . S
C70 C73 1.398 . S
C70 H80 0.930 . S
C71 C69 1.380 . S
C71 C72 1.391 . S
C71 H81 0.930 . S
C72 C71 1.391 . S
C72 C74 1.387 . S
C73 C70 1.398 . S
C73 C74 1.380 . S
C73 H82 0.930 . S
C74 C72 1.387 . S
C74 C73 1.380 . S
C74 H83 0.930 . S
C75 O52 1.254 . S
C75 O53 1.268 . S
H76 C61 0.930 . S
H77 C62 0.930 . S
H78 C64 0.930 . S
H79 C65 0.930 . S
H80 C70 0.930 . S
H81 C71 0.930 . S
H82 C73 0.930 . S
H83 C74 0.930 . S
Gd84 N115 2.661 . S
Gd84 N121 2.601 . S
Gd84 O128 2.545 . S
Gd84 O129 2.606 . S
Gd84 O131 2.429 . S
Gd84 O132 2.545 . S
Gd84 O133 2.412 . S
Gd84 O135 2.362 . S
Gd84 O136 2.324 . S
Gd84 C143 2.828 . S
Gd85 N94 2.661 . S
Gd85 N98 2.601 . S
Gd85 O129 2.362 . S
Gd85 O130 2.324 . S
Gd85 O134 2.545 . S
Gd85 O135 2.606 . S
Gd85 O137 2.429 . S
Gd85 O138 2.545 . S
Gd85 O139 2.412 . S
Gd85 C152 2.828 . S
C86 C89 1.417 . S
C86 C91 1.431 . S
C86 C92 1.412 . S
C87 C90 1.437 . S
C87 C91 1.317 . S
C87 H106 0.929 . S
C88 C89 1.426 . S
C88 C90 1.413 . S
C88 N98 1.359 . S
C89 C86 1.417 . S
C89 C88 1.426 . S
C89 N94 1.350 . S
C90 C87 1.437 . S
C90 C88 1.413 . S
C90 C100 1.391 . S
C91 C86 1.431 . S
C91 C87 1.317 . S
C91 H102 0.930 . S
C92 C86 1.412 . S
C92 C93 1.355 . S
C92 H104 0.930 . S
C93 C92 1.355 . S
C93 C95 1.402 . S
C93 H105 0.930 . S
N94 Gd85 2.661 . S
N94 C89 1.350 . S
N94 C95 1.307 . S
C95 C93 1.402 . S
C95 N94 1.307 . S
C95 H96 0.930 . S
H96 C95 0.930 . S
C97 N98 1.334 . S
C97 C99 1.394 . S
C97 H101 0.930 . S
N98 Gd85 2.601 . S
N98 C88 1.359 . S
N98 C97 1.334 . S
C99 C97 1.394 . S
C99 C100 1.359 . S
C99 H111 0.930 . S
C100 C90 1.391 . S
C100 C99 1.359 . S
C100 H112 0.929 . S
H101 C97 0.930 . S
H102 C91 0.930 . S
H103 C120 0.930 . S
H104 C92 0.930 . S
H105 C93 0.930 . S
H106 C87 0.929 . S
H107 C125 0.930 . S
H108 C116 0.930 . S
H109 C117 0.930 . S
H110 C141 0.929 . S
H111 C99 0.930 . S
H112 C100 0.929 . S
H113 C142 0.930 . S
H114 C123 0.930 . S
N115 Gd84 2.661 . S
N115 C119 1.350 . S
N115 C120 1.307 . S
C116 H108 0.930 . S
C116 C117 1.355 . S
C116 C118 1.412 . S
C117 H109 0.930 . S
C117 C116 1.355 . S
C117 C120 1.402 . S
C118 C116 1.412 . S
C118 C119 1.417 . S
C118 C142 1.431 . S
C119 N115 1.350 . S
C119 C118 1.417 . S
C119 C122 1.426 . S
C120 H103 0.930 . S
C120 N115 1.307 . S
C120 C117 1.402 . S
N121 Gd84 2.601 . S
N121 C122 1.359 . S
N121 C125 1.334 . S
C122 C119 1.426 . S
C122 N121 1.359 . S
C122 C126 1.413 . S
C123 H114 0.930 . S
C123 C124 1.359 . S
C123 C125 1.394 . S
C124 C123 1.359 . S
C124 C126 1.391 . S
C124 H127 0.929 . S
C125 H107 0.930 . S
C125 N121 1.334 . S
C125 C123 1.394 . S
C126 C122 1.413 . S
C126 C124 1.391 . S
C126 C141 1.437 . S
H127 C124 0.929 . S
O128 Gd84 2.545 . S
O128 C143 1.258 . S
O129 Gd84 2.606 . S
O129 Gd85 2.362 . S
O129 C140 1.284 . S
O130 Gd85 2.324 . S
O130 C150 1.254 . S
O131 Gd84 2.429 . S
O131 C150 1.268 . S
O132 Gd84 2.545 . S
O132 C140 1.250 . S
O133 Gd84 2.412 . S
O133 C143 1.252 . S
O134 Gd85 2.545 . S
O134 C152 1.258 . S
O135 Gd84 2.362 . S
O135 Gd85 2.606 . S
O135 C151 1.284 . S
O136 Gd84 2.324 . S
O136 C159 1.254 . S
O137 Gd85 2.429 . S
O137 C159 1.268 . S
O138 Gd85 2.545 . S
O138 C151 1.250 . S
O139 Gd85 2.412 . S
O139 C152 1.252 . S
C140 O129 1.284 . S
C140 O132 1.250 . S
C141 H110 0.929 . S
C141 C126 1.437 . S
C141 C142 1.317 . S
C142 H113 0.930 . S
C142 C118 1.431 . S
C142 C141 1.317 . S
C143 Gd84 2.828 . S
C143 O128 1.258 . S
C143 O133 1.252 . S
C143 C144 1.497 . S
C144 C143 1.497 . S
C144 C145 1.395 . S
C144 C146 1.380 . S
C145 C144 1.395 . S
C145 C148 1.398 . S
C145 H160 0.930 . S
C146 C144 1.380 . S
C146 C147 1.391 . S
C146 H161 0.930 . S
C147 C146 1.391 . S
C147 C149 1.387 . S
C148 C145 1.398 . S
C148 C149 1.380 . S
C148 H162 0.930 . S
C149 C147 1.387 . S
C149 C148 1.380 . S
C149 H163 0.930 . S
C150 O130 1.254 . S
C150 O131 1.268 . S
C151 O135 1.284 . S
C151 O138 1.250 . S
C152 Gd85 2.828 . S
C152 O134 1.258 . S
C152 O139 1.252 . S
C152 C153 1.497 . S
C153 C152 1.497 . S
C153 C154 1.395 . S
C153 C155 1.380 . S
C154 C153 1.395 . S
C154 C157 1.398 . S
C154 H164 0.930 . S
C155 C153 1.380 . S
C155 C156 1.391 . S
C155 H165 0.930 . S
C156 C155 1.391 . S
C156 C158 1.387 . S
C157 C154 1.398 . S
C157 C158 1.380 . S
C157 H166 0.930 . S
C158 C156 1.387 . S
C158 C157 1.380 . S
C158 H167 0.930 . S
C159 O136 1.254 . S
C159 O137 1.268 . S
H160 C145 0.930 . S
H161 C146 0.930 . S
H162 C148 0.930 . S
H163 C149 0.930 . S
H164 C154 0.930 . S
H165 C155 0.930 . S
H166 C157 0.930 . S
H167 C158 0.930 . S
Gd168 N199 2.661 . S
Gd168 N205 2.601 . S
Gd168 O212 2.545 . S
Gd168 O213 2.606 . S
Gd168 O215 2.429 . S
Gd168 O216 2.545 . S
Gd168 O217 2.412 . S
Gd168 O219 2.362 . S
Gd168 O220 2.324 . S
Gd168 C227 2.828 . S
Gd169 N178 2.661 . S
Gd169 N182 2.601 . S
Gd169 O213 2.362 . S
Gd169 O214 2.324 . S
Gd169 O218 2.545 . S
Gd169 O219 2.606 . S
Gd169 O221 2.429 . S
Gd169 O222 2.545 . S
Gd169 O223 2.412 . S
Gd169 C236 2.828 . S
C170 C173 1.417 . S
C170 C175 1.431 . S
C170 C176 1.412 . S
C171 C174 1.437 . S
C171 C175 1.317 . S
C171 H190 0.929 . S
C172 C173 1.426 . S
C172 C174 1.413 . S
C172 N182 1.359 . S
C173 C170 1.417 . S
C173 C172 1.426 . S
C173 N178 1.350 . S
C174 C171 1.437 . S
C174 C172 1.413 . S
C174 C184 1.391 . S
C175 C170 1.431 . S
C175 C171 1.317 . S
C175 H186 0.930 . S
C176 C170 1.412 . S
C176 C177 1.355 . S
C176 H188 0.930 . S
C177 C176 1.355 . S
C177 C179 1.402 . S
C177 H189 0.930 . S
N178 Gd169 2.661 . S
N178 C173 1.350 . S
N178 C179 1.307 . S
C179 C177 1.402 . S
C179 N178 1.307 . S
C179 H180 0.930 . S
H180 C179 0.930 . S
C181 N182 1.334 . S
C181 C183 1.394 . S
C181 H185 0.930 . S
N182 Gd169 2.601 . S
N182 C172 1.359 . S
N182 C181 1.334 . S
C183 C181 1.394 . S
C183 C184 1.359 . S
C183 H195 0.930 . S
C184 C174 1.391 . S
C184 C183 1.359 . S
C184 H196 0.929 . S
H185 C181 0.930 . S
H186 C175 0.930 . S
H187 C204 0.930 . S
H188 C176 0.930 . S
H189 C177 0.930 . S
H190 C171 0.929 . S
H191 C209 0.930 . S
H192 C200 0.930 . S
H193 C201 0.930 . S
H194 C225 0.929 . S
H195 C183 0.930 . S
H196 C184 0.929 . S
H197 C226 0.930 . S
H198 C207 0.930 . S
N199 Gd168 2.661 . S
N199 C203 1.350 . S
N199 C204 1.307 . S
C200 H192 0.930 . S
C200 C201 1.355 . S
C200 C202 1.412 . S
C201 H193 0.930 . S
C201 C200 1.355 . S
C201 C204 1.402 . S
C202 C200 1.412 . S
C202 C203 1.417 . S
C202 C226 1.431 . S
C203 N199 1.350 . S
C203 C202 1.417 . S
C203 C206 1.426 . S
C204 H187 0.930 . S
C204 N199 1.307 . S
C204 C201 1.402 . S
N205 Gd168 2.601 . S
N205 C206 1.359 . S
N205 C209 1.334 . S
C206 C203 1.426 . S
C206 N205 1.359 . S
C206 C210 1.413 . S
C207 H198 0.930 . S
C207 C208 1.359 . S
C207 C209 1.394 . S
C208 C207 1.359 . S
C208 C210 1.391 . S
C208 H211 0.929 . S
C209 H191 0.930 . S
C209 N205 1.334 . S
C209 C207 1.394 . S
C210 C206 1.413 . S
C210 C208 1.391 . S
C210 C225 1.437 . S
H211 C208 0.929 . S
O212 Gd168 2.545 . S
O212 C227 1.258 . S
O213 Gd168 2.606 . S
O213 Gd169 2.362 . S
O213 C224 1.284 . S
O214 Gd169 2.324 . S
O214 C234 1.254 . S
O215 Gd168 2.429 . S
O215 C234 1.268 . S
O216 Gd168 2.545 . S
O216 C224 1.250 . S
O217 Gd168 2.412 . S
O217 C227 1.252 . S
O218 Gd169 2.545 . S
O218 C236 1.258 . S
O219 Gd168 2.362 . S
O219 Gd169 2.606 . S
O219 C235 1.284 . S
O220 Gd168 2.324 . S
O220 C243 1.254 . S
O221 Gd169 2.429 . S
O221 C243 1.268 . S
O222 Gd169 2.545 . S
O222 C235 1.250 . S
O223 Gd169 2.412 . S
O223 C236 1.252 . S
C224 O213 1.284 . S
C224 O216 1.250 . S
C225 H194 0.929 . S
C225 C210 1.437 . S
C225 C226 1.317 . S
C226 H197 0.930 . S
C226 C202 1.431 . S
C226 C225 1.317 . S
C227 Gd168 2.828 . S
C227 O212 1.258 . S
C227 O217 1.252 . S
C227 C228 1.497 . S
C228 C227 1.497 . S
C228 C229 1.395 . S
C228 C230 1.380 . S
C229 C228 1.395 . S
C229 C232 1.398 . S
C229 H244 0.930 . S
C230 C228 1.380 . S
C230 C231 1.391 . S
C230 H245 0.930 . S
C231 C230 1.391 . S
C231 C233 1.387 . S
C232 C229 1.398 . S
C232 C233 1.380 . S
C232 H246 0.930 . S
C233 C231 1.387 . S
C233 C232 1.380 . S
C233 H247 0.930 . S
C234 O214 1.254 . S
C234 O215 1.268 . S
C235 O219 1.284 . S
C235 O222 1.250 . S
C236 Gd169 2.828 . S
C236 O218 1.258 . S
C236 O223 1.252 . S
C236 C237 1.497 . S
C237 C236 1.497 . S
C237 C238 1.395 . S
C237 C239 1.380 . S
C238 C237 1.395 . S
C238 C241 1.398 . S
C238 H248 0.930 . S
C239 C237 1.380 . S
C239 C240 1.391 . S
C239 H249 0.930 . S
C240 C239 1.391 . S
C240 C242 1.387 . S
C241 C238 1.398 . S
C241 C242 1.380 . S
C241 H250 0.930 . S
C242 C240 1.387 . S
C242 C241 1.380 . S
C242 H251 0.956 . S
C243 O220 1.254 . S
C243 O221 1.268 . S
H244 C229 0.930 . S
H245 C230 0.930 . S
H246 C232 0.930 . S
H247 C233 0.930 . S
H248 C238 0.930 . S
H249 C239 0.930 . S
H250 C241 0.930 . S
H251 C242 0.956 . S
Gd252 N283 2.661 . S
Gd252 N289 2.601 . S
Gd252 O296 2.545 . S
Gd252 O297 2.606 . S
Gd252 O299 2.429 . S
Gd252 O300 2.545 . S
Gd252 O301 2.412 . S
Gd252 O303 2.362 . S
Gd252 O304 2.324 . S
Gd252 C311 2.828 . S
Gd253 N262 2.661 . S
Gd253 N266 2.601 . S
Gd253 O297 2.362 . S
Gd253 O298 2.324 . S
Gd253 O302 2.545 . S
Gd253 O303 2.606 . S
Gd253 O305 2.429 . S
Gd253 O306 2.545 . S
Gd253 O307 2.412 . S
Gd253 C320 2.828 . S
C254 C257 1.417 . S
C254 C259 1.431 . S
C254 C260 1.412 . S
C255 C258 1.437 . S
C255 C259 1.317 . S
C255 H274 0.929 . S
C256 C257 1.426 . S
C256 C258 1.413 . S
C256 N266 1.359 . S
C257 C254 1.417 . S
C257 C256 1.426 . S
C257 N262 1.350 . S
C258 C255 1.437 . S
C258 C256 1.413 . S
C258 C268 1.391 . S
C259 C254 1.431 . S
C259 C255 1.317 . S
C259 H270 0.930 . S
C260 C254 1.412 . S
C260 C261 1.355 . S
C260 H272 0.930 . S
C261 C260 1.355 . S
C261 C263 1.402 . S
C261 H273 0.930 . S
N262 Gd253 2.661 . S
N262 C257 1.350 . S
N262 C263 1.307 . S
C263 C261 1.402 . S
C263 N262 1.307 . S
C263 H264 0.930 . S
H264 C263 0.930 . S
C265 N266 1.334 . S
C265 C267 1.394 . S
C265 H269 0.930 . S
N266 Gd253 2.601 . S
N266 C256 1.359 . S
N266 C265 1.334 . S
C267 C265 1.394 . S
C267 C268 1.359 . S
C267 H279 0.930 . S
C268 C258 1.391 . S
C268 C267 1.359 . S
C268 H280 0.929 . S
H269 C265 0.930 . S
H270 C259 0.930 . S
H271 C288 0.930 . S
H272 C260 0.930 . S
H273 C261 0.930 . S
H274 C255 0.929 . S
H275 C293 0.922 1_655 S
H276 C284 0.930 . S
H277 C285 0.930 . S
H278 C309 0.929 . S
H279 C267 0.930 . S
H280 C268 0.929 . S
H281 C310 0.930 . S
H282 C291 0.930 . S
N283 Gd252 2.661 . S
N283 C287 1.350 . S
N283 C288 1.307 . S
C284 H276 0.930 . S
C284 C285 1.355 . S
C284 C286 1.412 . S
C285 H277 0.930 . S
C285 C284 1.355 . S
C285 C288 1.402 . S
C286 C284 1.412 . S
C286 C287 1.417 . S
C286 C310 1.434 1_655 S
C287 N283 1.350 . S
C287 C286 1.417 . S
C287 C290 1.426 . S
C288 H271 0.930 . S
C288 N283 1.307 . S
C288 C285 1.402 . S
N289 Gd252 2.601 . S
N289 C290 1.359 . S
N289 C293 1.308 1_655 S
C290 C287 1.426 . S
C290 N289 1.359 . S
C290 C294 1.413 1_655 S
C291 H282 0.930 . S
C291 C292 1.359 . S
C291 C293 1.428 . S
C292 C291 1.359 . S
C292 C294 1.391 . S
C292 H295 0.929 . S
C293 H275 0.922 1_455 S
C293 N289 1.308 1_455 S
C293 C291 1.428 . S
C294 C290 1.413 1_455 S
C294 C292 1.391 . S
C294 C309 1.437 . S
H295 C292 0.929 . S
O296 Gd252 2.545 . S
O296 C311 1.258 . S
O297 Gd252 2.606 . S
O297 Gd253 2.362 . S
O297 C308 1.284 . S
O298 Gd253 2.324 . S
O298 C318 1.254 . S
O299 Gd252 2.429 . S
O299 C318 1.268 . S
O300 Gd252 2.545 . S
O300 C308 1.250 . S
O301 Gd252 2.412 . S
O301 C311 1.252 . S
O302 Gd253 2.545 . S
O302 C320 1.258 . S
O303 Gd252 2.362 . S
O303 Gd253 2.606 . S
O303 C319 1.284 . S
O304 Gd252 2.324 . S
O304 C327 1.254 . S
O305 Gd253 2.429 . S
O305 C327 1.268 . S
O306 Gd253 2.545 . S
O306 C319 1.250 . S
O307 Gd253 2.412 . S
O307 C320 1.252 . S
C308 O297 1.284 . S
C308 O300 1.250 . S
C309 H278 0.929 . S
C309 C294 1.437 . S
C309 C310 1.315 . S
C310 H281 0.930 . S
C310 C286 1.434 1_455 S
C310 C309 1.315 . S
C311 Gd252 2.828 . S
C311 O296 1.258 . S
C311 O301 1.252 . S
C311 C312 1.497 . S
C312 C311 1.497 . S
C312 C313 1.395 . S
C312 C314 1.380 . S
C313 C312 1.395 . S
C313 C316 1.398 . S
C313 H328 0.930 . S
C314 C312 1.380 . S
C314 C315 1.391 . S
C314 H329 0.930 . S
C315 C314 1.391 . S
C315 C317 1.387 . S
C316 C313 1.398 . S
C316 C317 1.380 . S
C316 H330 0.930 1_655 S
C317 C315 1.387 . S
C317 C316 1.380 . S
C317 H331 0.930 . S
C318 O298 1.254 . S
C318 O299 1.268 . S
C319 O303 1.284 . S
C319 O306 1.250 . S
C320 Gd253 2.828 . S
C320 O302 1.258 . S
C320 O307 1.252 . S
C320 C321 1.497 . S
C321 C320 1.497 . S
C321 C322 1.395 . S
C321 C323 1.380 . S
C322 C321 1.395 . S
C322 C325 1.398 . S
C322 H332 0.930 . S
C323 C321 1.380 . S
C323 C324 1.391 . S
C323 H333 0.930 . S
C324 C323 1.391 . S
C324 C326 1.387 . S
C325 C322 1.398 . S
C325 C326 1.380 . S
C325 H334 0.930 . S
C326 C324 1.387 . S
C326 C325 1.380 . S
C326 H335 0.930 . S
C327 O304 1.254 . S
C327 O305 1.268 . S
H328 C313 0.930 . S
H329 C314 0.930 . S
H330 C316 0.930 1_455 S
H331 C317 0.930 . S
H332 C322 0.930 . S
H333 C323 0.930 . S
H334 C325 0.930 . S
H335 C326 0.930 . S
Gd336 N367 2.661 1_556 S
Gd336 N373 2.601 . S
Gd336 O380 2.545 1_556 S
Gd336 O381 2.606 . S
Gd336 O383 2.429 . S
Gd336 O384 2.545 . S
Gd336 O385 2.412 1_556 S
Gd336 O387 2.362 . S
Gd336 O388 2.324 1_556 S
Gd336 C395 2.828 1_556 S
Gd337 N346 2.661 . S
Gd337 N350 2.601 . S
Gd337 O381 2.362 . S
Gd337 O382 2.324 . S
Gd337 O386 2.545 . S
Gd337 O387 2.606 . S
Gd337 O389 2.429 . S
Gd337 O390 2.545 . S
Gd337 O391 2.412 . S
Gd337 C404 2.828 . S
C338 C341 1.417 . S
C338 C343 1.431 . S
C338 C344 1.412 . S
C339 C342 1.437 . S
C339 C343 1.317 . S
C339 H358 0.929 . S
C340 C341 1.426 . S
C340 C342 1.413 . S
C340 N350 1.359 . S
C341 C338 1.417 . S
C341 C340 1.426 . S
C341 N346 1.350 . S
C342 C339 1.437 . S
C342 C340 1.413 . S
C342 C352 1.391 . S
C343 C338 1.431 . S
C343 C339 1.317 . S
C343 H354 0.930 . S
C344 C338 1.412 . S
C344 C345 1.355 . S
C344 H356 0.930 . S
C345 C344 1.355 . S
C345 C347 1.402 . S
C345 H357 0.930 . S
N346 Gd337 2.661 . S
N346 C341 1.350 . S
N346 C347 1.307 . S
C347 C345 1.402 . S
C347 N346 1.307 . S
C347 H348 0.930 . S
H348 C347 0.930 . S
C349 N350 1.334 . S
C349 C351 1.394 . S
C349 H353 0.930 . S
N350 Gd337 2.601 . S
N350 C340 1.359 . S
N350 C349 1.334 . S
C351 C349 1.394 . S
C351 C352 1.359 . S
C351 H363 0.930 . S
C352 C342 1.391 . S
C352 C351 1.359 . S
C352 H364 0.929 . S
H353 C349 0.930 . S
H354 C343 0.930 . S
H355 C372 0.930 . S
H356 C344 0.930 . S
H357 C345 0.930 . S
H358 C339 0.929 . S
H359 C377 0.930 . S
H360 C368 0.930 . S
H361 C369 0.930 . S
H362 C393 0.929 . S
H363 C351 0.930 . S
H364 C352 0.929 . S
H365 C394 0.930 . S
H366 C375 0.930 . S
N367 Gd336 2.661 1_554 S
N367 C371 1.350 . S
N367 C372 1.307 . S
C368 H360 0.930 . S
C368 C369 1.355 . S
C368 C370 1.412 . S
C369 H361 0.930 . S
C369 C368 1.355 . S
C369 C372 1.402 . S
C370 C368 1.412 . S
C370 C371 1.417 . S
C370 C394 1.431 . S
C371 N367 1.350 . S
C371 C370 1.417 . S
C371 C374 1.426 . S
C372 H355 0.930 . S
C372 N367 1.307 . S
C372 C369 1.402 . S
N373 Gd336 2.601 . S
N373 C374 1.359 1_556 S
N373 C377 1.334 . S
C374 C371 1.426 . S
C374 N373 1.359 1_554 S
C374 C378 1.413 . S
C375 H366 0.930 . S
C375 C376 1.359 1_556 S
C375 C377 1.394 . S
C376 C375 1.359 1_554 S
C376 C378 1.391 . S
C376 H379 0.929 . S
C377 H359 0.930 . S
C377 N373 1.334 . S
C377 C375 1.394 . S
C378 C374 1.413 . S
C378 C376 1.391 . S
C378 C393 1.437 . S
H379 C376 0.929 . S
O380 Gd336 2.545 1_554 S
O380 C395 1.258 . S
O381 Gd336 2.606 . S
O381 Gd337 2.362 . S
O381 C392 1.284 . S
O382 Gd337 2.324 . S
O382 C402 1.254 . S
O383 Gd336 2.429 . S
O383 C402 1.268 . S
O384 Gd336 2.545 . S
O384 C392 1.250 . S
O385 Gd336 2.412 1_554 S
O385 C395 1.252 . S
O386 Gd337 2.545 . S
O386 C404 1.258 . S
O387 Gd336 2.362 . S
O387 Gd337 2.606 . S
O387 C403 1.284 . S
O388 Gd336 2.324 1_554 S
O388 C411 1.254 . S
O389 Gd337 2.429 . S
O389 C411 1.268 1_556 S
O390 Gd337 2.545 . S
O390 C403 1.250 . S
O391 Gd337 2.412 . S
O391 C404 1.252 . S
C392 O381 1.284 . S
C392 O384 1.250 . S
C393 H362 0.929 . S
C393 C378 1.437 . S
C393 C394 1.317 . S
C394 H365 0.930 . S
C394 C370 1.431 . S
C394 C393 1.317 . S
C395 Gd336 2.828 1_554 S
C395 O380 1.258 . S
C395 O385 1.252 . S
C395 C396 1.497 . S
C396 C395 1.497 . S
C396 C397 1.395 . S
C396 C398 1.380 . S
C397 C396 1.395 . S
C397 C400 1.398 . S
C397 H412 0.930 . S
C398 C396 1.380 . S
C398 C399 1.391 . S
C398 H413 0.930 . S
C399 C398 1.391 . S
C399 C401 1.387 . S
C400 C397 1.398 . S
C400 C401 1.380 . S
C400 H414 0.930 . S
C401 C399 1.387 . S
C401 C400 1.380 . S
C401 H415 0.930 . S
C402 O382 1.254 . S
C402 O383 1.268 . S
C403 O387 1.284 . S
C403 O390 1.250 . S
C404 Gd337 2.828 . S
C404 O386 1.258 . S
C404 O391 1.252 . S
C404 C405 1.497 . S
C405 C404 1.497 . S
C405 C406 1.395 . S
C405 C407 1.380 . S
C406 C405 1.395 . S
C406 C409 1.398 . S
C406 H416 0.930 . S
C407 C405 1.380 . S
C407 C408 1.391 . S
C407 H417 0.930 . S
C408 C407 1.391 . S
C408 C410 1.387 . S
C409 C406 1.398 . S
C409 C410 1.380 . S
C409 H418 0.930 . S
C410 C408 1.387 . S
C410 C409 1.380 . S
C410 H419 0.930 . S
C411 O388 1.254 . S
C411 O389 1.268 1_554 S
H412 C397 0.930 . S
H413 C398 0.930 . S
H414 C400 0.930 . S
H415 C401 0.930 . S
H416 C406 0.930 . S
H417 C407 0.930 . S
H418 C409 0.930 . S
H419 C410 0.930 . S
Gd420 N451 2.661 . S
Gd420 N457 2.601 . S
Gd420 O464 2.545 . S
Gd420 O465 2.606 . S
Gd420 O467 2.429 . S
Gd420 O468 2.545 . S
Gd420 O469 2.412 . S
Gd420 O471 2.362 . S
Gd420 O472 2.324 . S
Gd420 C479 2.828 . S
Gd421 N430 2.661 . S
Gd421 N434 2.601 . S
Gd421 O465 2.362 . S
Gd421 O466 2.324 . S
Gd421 O470 2.545 . S
Gd421 O471 2.606 . S
Gd421 O473 2.429 . S
Gd421 O474 2.545 . S
Gd421 O475 2.412 . S
Gd421 C488 2.828 . S
C422 C425 1.417 . S
C422 C427 1.431 . S
C422 C428 1.412 . S
C423 C426 1.437 . S
C423 C427 1.317 . S
C423 H442 0.929 . S
C424 C425 1.426 . S
C424 C426 1.413 . S
C424 N434 1.359 . S
C425 C422 1.417 . S
C425 C424 1.426 . S
C425 N430 1.350 . S
C426 C423 1.437 . S
C426 C424 1.413 . S
C426 C436 1.391 . S
C427 C422 1.431 . S
C427 C423 1.317 . S
C427 H438 0.930 . S
C428 C422 1.412 . S
C428 C429 1.355 . S
C428 H440 0.930 . S
C429 C428 1.355 . S
C429 C431 1.402 . S
C429 H441 0.930 . S
N430 Gd421 2.661 . S
N430 C425 1.350 . S
N430 C431 1.307 . S
C431 C429 1.402 . S
C431 N430 1.307 . S
C431 H432 0.930 . S
H432 C431 0.930 . S
C433 N434 1.334 . S
C433 C435 1.394 . S
C433 H437 0.930 . S
N434 Gd421 2.601 . S
N434 C424 1.359 . S
N434 C433 1.334 . S
C435 C433 1.394 . S
C435 C436 1.359 . S
C435 H447 0.930 . S
C436 C426 1.391 . S
C436 C435 1.359 . S
C436 H448 0.929 . S
H437 C433 0.930 . S
H438 C427 0.930 . S
H439 C456 0.930 . S
H440 C428 0.930 . S
H441 C429 0.930 . S
H442 C423 0.929 . S
H443 C461 0.930 . S
H444 C452 0.930 . S
H445 C453 0.930 . S
H446 C477 0.929 . S
H447 C435 0.930 . S
H448 C436 0.929 . S
H449 C478 0.930 . S
H450 C459 0.930 . S
N451 Gd420 2.661 . S
N451 C455 1.350 . S
N451 C456 1.307 . S
C452 H444 0.930 . S
C452 C453 1.355 . S
C452 C454 1.412 . S
C453 H445 0.930 . S
C453 C452 1.355 . S
C453 C456 1.402 . S
C454 C452 1.412 . S
C454 C455 1.417 . S
C454 C478 1.431 . S
C455 N451 1.350 . S
C455 C454 1.417 . S
C455 C458 1.426 . S
C456 H439 0.930 . S
C456 N451 1.307 . S
C456 C453 1.402 . S
N457 Gd420 2.601 . S
N457 C458 1.359 . S
N457 C461 1.334 . S
C458 C455 1.426 . S
C458 N457 1.359 . S
C458 C462 1.413 . S
C459 H450 0.930 . S
C459 C460 1.359 . S
C459 C461 1.394 . S
C460 C459 1.359 . S
C460 C462 1.391 . S
C460 H463 0.929 . S
C461 H443 0.930 . S
C461 N457 1.334 . S
C461 C459 1.394 . S
C462 C458 1.413 . S
C462 C460 1.391 . S
C462 C477 1.437 . S
H463 C460 0.929 . S
O464 Gd420 2.545 . S
O464 C479 1.258 . S
O465 Gd420 2.606 . S
O465 Gd421 2.362 . S
O465 C476 1.284 . S
O466 Gd421 2.324 . S
O466 C486 1.254 . S
O467 Gd420 2.429 . S
O467 C486 1.268 . S
O468 Gd420 2.545 . S
O468 C476 1.250 . S
O469 Gd420 2.412 . S
O469 C479 1.252 . S
O470 Gd421 2.545 . S
O470 C488 1.258 . S
O471 Gd420 2.362 . S
O471 Gd421 2.606 . S
O471 C487 1.284 . S
O472 Gd420 2.324 . S
O472 C495 1.254 . S
O473 Gd421 2.429 . S
O473 C495 1.268 . S
O474 Gd421 2.545 . S
O474 C487 1.250 . S
O475 Gd421 2.412 . S
O475 C488 1.252 . S
C476 O465 1.284 . S
C476 O468 1.250 . S
C477 H446 0.929 . S
C477 C462 1.437 . S
C477 C478 1.317 . S
C478 H449 0.930 . S
C478 C454 1.431 . S
C478 C477 1.317 . S
C479 Gd420 2.828 . S
C479 O464 1.258 . S
C479 O469 1.252 . S
C479 C480 1.497 . S
C480 C479 1.497 . S
C480 C481 1.395 . S
C480 C482 1.380 . S
C481 C480 1.395 . S
C481 C484 1.398 . S
C481 H496 0.930 . S
C482 C480 1.380 . S
C482 C483 1.391 . S
C482 H497 0.930 . S
C483 C482 1.391 . S
C483 C485 1.387 . S
C484 C481 1.398 . S
C484 C485 1.380 . S
C484 H498 0.930 . S
C485 C483 1.387 . S
C485 C484 1.380 . S
C485 H499 0.930 . S
C486 O466 1.254 . S
C486 O467 1.268 . S
C487 O471 1.284 . S
C487 O474 1.250 . S
C488 Gd421 2.828 . S
C488 O470 1.258 . S
C488 O475 1.252 . S
C488 C489 1.497 . S
C489 C488 1.497 . S
C489 C490 1.395 . S
C489 C491 1.380 . S
C490 C489 1.395 . S
C490 C493 1.398 . S
C490 H500 0.930 . S
C491 C489 1.380 . S
C491 C492 1.391 . S
C491 H501 0.930 . S
C492 C491 1.391 . S
C492 C494 1.387 . S
C493 C490 1.398 . S
C493 C494 1.380 . S
C493 H502 0.930 . S
C494 C492 1.387 . S
C494 C493 1.380 . S
C494 H503 0.930 . S
C495 O472 1.254 . S
C495 O473 1.268 . S
H496 C481 0.930 . S
H497 C482 0.930 . S
H498 C484 0.930 . S
H499 C485 0.930 . S
H500 C490 0.930 . S
H501 C491 0.930 . S
H502 C493 0.930 . S
H503 C494 0.930 . S
Gd504 N535 2.661 . S
Gd504 N541 2.601 . S
Gd504 O548 2.545 . S
Gd504 O549 2.606 . S
Gd504 O551 2.429 . S
Gd504 O552 2.545 . S
Gd504 O553 2.412 . S
Gd504 O555 2.362 . S
Gd504 O556 2.324 . S
Gd504 C563 2.828 . S
Gd505 N514 2.661 . S
Gd505 N518 2.601 . S
Gd505 O549 2.362 . S
Gd505 O550 2.324 . S
Gd505 O554 2.545 . S
Gd505 O555 2.606 . S
Gd505 O557 2.429 . S
Gd505 O558 2.545 . S
Gd505 O559 2.412 . S
Gd505 C572 2.828 . S
C506 C509 1.417 . S
C506 C511 1.431 . S
C506 C512 1.412 . S
C507 C510 1.437 . S
C507 C511 1.317 . S
C507 H526 0.929 . S
C508 C509 1.426 . S
C508 C510 1.413 . S
C508 N518 1.359 . S
C509 C506 1.417 . S
C509 C508 1.426 . S
C509 N514 1.350 . S
C510 C507 1.437 . S
C510 C508 1.413 . S
C510 C520 1.391 . S
C511 C506 1.431 . S
C511 C507 1.317 . S
C511 H522 0.930 . S
C512 C506 1.412 . S
C512 C513 1.355 . S
C512 H524 0.930 . S
C513 C512 1.355 . S
C513 C515 1.402 . S
C513 H525 0.930 . S
N514 Gd505 2.661 . S
N514 C509 1.350 . S
N514 C515 1.307 . S
C515 C513 1.402 . S
C515 N514 1.307 . S
C515 H516 0.930 . S
H516 C515 0.930 . S
C517 N518 1.334 . S
C517 C519 1.394 . S
C517 H521 0.930 . S
N518 Gd505 2.601 . S
N518 C508 1.359 . S
N518 C517 1.334 . S
C519 C517 1.394 . S
C519 C520 1.359 . S
C519 H531 0.930 . S
C520 C510 1.391 . S
C520 C519 1.359 . S
C520 H532 0.929 . S
H521 C517 0.930 . S
H522 C511 0.930 . S
H523 C540 0.930 . S
H524 C512 0.930 . S
H525 C513 0.930 . S
H526 C507 0.929 . S
H527 C545 0.930 . S
H528 C536 0.930 . S
H529 C537 0.930 . S
H530 C561 0.929 . S
H531 C519 0.930 . S
H532 C520 0.929 . S
H533 C562 0.930 . S
H534 C543 0.930 . S
N535 Gd504 2.661 . S
N535 C539 1.350 . S
N535 C540 1.307 . S
C536 H528 0.930 . S
C536 C537 1.355 . S
C536 C538 1.412 . S
C537 H529 0.930 . S
C537 C536 1.355 . S
C537 C540 1.402 . S
C538 C536 1.412 . S
C538 C539 1.417 . S
C538 C562 1.431 . S
C539 N535 1.350 . S
C539 C538 1.417 . S
C539 C542 1.426 . S
C540 H523 0.930 . S
C540 N535 1.307 . S
C540 C537 1.402 . S
N541 Gd504 2.601 . S
N541 C542 1.359 . S
N541 C545 1.334 . S
C542 C539 1.426 . S
C542 N541 1.359 . S
C542 C546 1.413 . S
C543 H534 0.930 . S
C543 C544 1.359 . S
C543 C545 1.394 . S
C544 C543 1.359 . S
C544 C546 1.391 . S
C544 H547 0.929 . S
C545 H527 0.930 . S
C545 N541 1.334 . S
C545 C543 1.394 . S
C546 C542 1.413 . S
C546 C544 1.391 . S
C546 C561 1.437 . S
H547 C544 0.929 . S
O548 Gd504 2.545 . S
O548 C563 1.258 . S
O549 Gd504 2.606 . S
O549 Gd505 2.362 . S
O549 C560 1.284 . S
O550 Gd505 2.324 . S
O550 C570 1.254 . S
O551 Gd504 2.429 . S
O551 C570 1.268 . S
O552 Gd504 2.545 . S
O552 C560 1.250 . S
O553 Gd504 2.412 . S
O553 C563 1.252 . S
O554 Gd505 2.545 . S
O554 C572 1.258 . S
O555 Gd504 2.362 . S
O555 Gd505 2.606 . S
O555 C571 1.284 . S
O556 Gd504 2.324 . S
O556 C579 1.254 . S
O557 Gd505 2.429 . S
O557 C579 1.268 . S
O558 Gd505 2.545 . S
O558 C571 1.250 . S
O559 Gd505 2.412 . S
O559 C572 1.252 . S
C560 O549 1.284 . S
C560 O552 1.250 . S
C561 H530 0.929 . S
C561 C546 1.437 . S
C561 C562 1.317 . S
C562 H533 0.930 . S
C562 C538 1.431 . S
C562 C561 1.317 . S
C563 Gd504 2.828 . S
C563 O548 1.258 . S
C563 O553 1.252 . S
C563 C564 1.497 . S
C564 C563 1.497 . S
C564 C565 1.395 . S
C564 C566 1.380 . S
C565 C564 1.395 . S
C565 C568 1.398 . S
C565 H580 0.930 . S
C566 C564 1.380 . S
C566 C567 1.391 . S
C566 H581 0.930 . S
C567 C566 1.391 . S
C567 C569 1.387 . S
C568 C565 1.398 . S
C568 C569 1.380 . S
C568 H582 0.930 . S
C569 C567 1.387 . S
C569 C568 1.380 . S
C569 H583 0.956 . S
C570 O550 1.254 . S
C570 O551 1.268 . S
C571 O555 1.284 . S
C571 O558 1.250 . S
C572 Gd505 2.828 . S
C572 O554 1.258 . S
C572 O559 1.252 . S
C572 C573 1.497 . S
C573 C572 1.497 . S
C573 C574 1.395 . S
C573 C575 1.380 . S
C574 C573 1.395 . S
C574 C577 1.398 . S
C574 H584 0.930 . S
C575 C573 1.380 . S
C575 C576 1.391 . S
C575 H585 0.930 . S
C576 C575 1.391 . S
C576 C578 1.387 . S
C577 C574 1.398 . S
C577 C578 1.380 . S
C577 H586 0.930 . S
C578 C576 1.387 . S
C578 C577 1.380 . S
C578 H587 0.930 . S
C579 O556 1.254 . S
C579 O557 1.268 . S
H580 C565 0.930 . S
H581 C566 0.930 . S
H582 C568 0.930 . S
H583 C569 0.956 . S
H584 C574 0.930 . S
H585 C575 0.930 . S
H586 C577 0.930 . S
H587 C578 0.930 . S
Gd588 N619 2.661 . S
Gd588 N625 2.601 . S
Gd588 O632 2.545 . S
Gd588 O633 2.606 . S
Gd588 O635 2.429 . S
Gd588 O636 2.545 . S
Gd588 O637 2.412 . S
Gd588 O639 2.362 . S
Gd588 O640 2.324 . S
Gd588 C647 2.828 . S
Gd589 N598 2.661 . S
Gd589 N602 2.601 . S
Gd589 O633 2.362 . S
Gd589 O634 2.324 . S
Gd589 O638 2.545 . S
Gd589 O639 2.606 . S
Gd589 O641 2.429 . S
Gd589 O642 2.545 . S
Gd589 O643 2.412 . S
Gd589 C656 2.828 . S
C590 C593 1.417 . S
C590 C595 1.434 1_455 S
C590 C596 1.412 . S
C591 C594 1.437 . S
C591 C595 1.315 . S
C591 H610 0.929 . S
C592 C593 1.426 . S
C592 C594 1.413 1_455 S
C592 N602 1.359 . S
C593 C590 1.417 . S
C593 C592 1.426 . S
C593 N598 1.350 . S
C594 C591 1.437 . S
C594 C592 1.413 1_655 S
C594 C604 1.391 . S
C595 C590 1.434 1_655 S
C595 C591 1.315 . S
C595 H606 0.930 . S
C596 C590 1.412 . S
C596 C597 1.355 . S
C596 H608 0.930 . S
C597 C596 1.355 . S
C597 C599 1.402 . S
C597 H609 0.930 . S
N598 Gd589 2.661 . S
N598 C593 1.350 . S
N598 C599 1.307 . S
C599 C597 1.402 . S
C599 N598 1.307 . S
C599 H600 0.930 . S
H600 C599 0.930 . S
C601 N602 1.308 1_655 S
C601 C603 1.428 . S
C601 H605 0.922 1_655 S
N602 Gd589 2.601 . S
N602 C592 1.359 . S
N602 C601 1.308 1_455 S
C603 C601 1.428 . S
C603 C604 1.359 . S
C603 H615 0.930 . S
C604 C594 1.391 . S
C604 C603 1.359 . S
C604 H616 0.929 . S
H605 C601 0.922 1_455 S
H606 C595 0.930 . S
H607 C624 0.930 . S
H608 C596 0.930 . S
H609 C597 0.930 . S
H610 C591 0.929 . S
H611 C629 0.930 . S
H612 C620 0.930 . S
H613 C621 0.930 . S
H614 C645 0.929 . S
H615 C603 0.930 . S
H616 C604 0.929 . S
H617 C646 0.930 . S
H618 C627 0.930 . S
N619 Gd588 2.661 . S
N619 C623 1.350 . S
N619 C624 1.307 . S
C620 H612 0.930 . S
C620 C621 1.355 . S
C620 C622 1.412 . S
C621 H613 0.930 . S
C621 C620 1.355 . S
C621 C624 1.402 . S
C622 C620 1.412 . S
C622 C623 1.417 . S
C622 C646 1.431 . S
C623 N619 1.350 . S
C623 C622 1.417 . S
C623 C626 1.426 . S
C624 H607 0.930 . S
C624 N619 1.307 . S
C624 C621 1.402 . S
N625 Gd588 2.601 . S
N625 C626 1.359 . S
N625 C629 1.334 . S
C626 C623 1.426 . S
C626 N625 1.359 . S
C626 C630 1.413 . S
C627 H618 0.930 . S
C627 C628 1.359 . S
C627 C629 1.394 . S
C628 C627 1.359 . S
C628 C630 1.391 . S
C628 H631 0.929 . S
C629 H611 0.930 . S
C629 N625 1.334 . S
C629 C627 1.394 . S
C630 C626 1.413 . S
C630 C628 1.391 . S
C630 C645 1.437 . S
H631 C628 0.929 . S
O632 Gd588 2.545 . S
O632 C647 1.258 . S
O633 Gd588 2.606 . S
O633 Gd589 2.362 . S
O633 C644 1.284 . S
O634 Gd589 2.324 . S
O634 C654 1.254 . S
O635 Gd588 2.429 . S
O635 C654 1.268 . S
O636 Gd588 2.545 . S
O636 C644 1.250 . S
O637 Gd588 2.412 . S
O637 C647 1.252 . S
O638 Gd589 2.545 . S
O638 C656 1.258 . S
O639 Gd588 2.362 . S
O639 Gd589 2.606 . S
O639 C655 1.284 . S
O640 Gd588 2.324 . S
O640 C663 1.254 . S
O641 Gd589 2.429 . S
O641 C663 1.268 . S
O642 Gd589 2.545 . S
O642 C655 1.250 . S
O643 Gd589 2.412 . S
O643 C656 1.252 . S
C644 O633 1.284 . S
C644 O636 1.250 . S
C645 H614 0.929 . S
C645 C630 1.437 . S
C645 C646 1.317 . S
C646 H617 0.930 . S
C646 C622 1.431 . S
C646 C645 1.317 . S
C647 Gd588 2.828 . S
C647 O632 1.258 . S
C647 O637 1.252 . S
C647 C648 1.497 . S
C648 C647 1.497 . S
C648 C649 1.395 . S
C648 C650 1.380 . S
C649 C648 1.395 . S
C649 C652 1.398 . S
C649 H664 0.930 . S
C650 C648 1.380 . S
C650 C651 1.391 . S
C650 H665 0.930 . S
C651 C650 1.391 . S
C651 C653 1.387 . S
C652 C649 1.398 . S
C652 C653 1.380 . S
C652 H666 0.930 . S
C653 C651 1.387 . S
C653 C652 1.380 . S
C653 H667 0.930 . S
C654 O634 1.254 . S
C654 O635 1.268 . S
C655 O639 1.284 . S
C655 O642 1.250 . S
C656 Gd589 2.828 . S
C656 O638 1.258 . S
C656 O643 1.252 . S
C656 C657 1.497 . S
C657 C656 1.497 . S
C657 C658 1.395 . S
C657 C659 1.380 . S
C658 C657 1.395 . S
C658 C661 1.398 . S
C658 H668 0.930 . S
C659 C657 1.380 . S
C659 C660 1.391 . S
C659 H669 0.930 . S
C660 C659 1.391 . S
C660 C662 1.387 . S
C661 C658 1.398 . S
C661 C662 1.380 . S
C661 H670 0.930 1_455 S
C662 C660 1.387 . S
C662 C661 1.380 . S
C662 H671 0.930 . S
C663 O640 1.254 . S
C663 O641 1.268 . S
H664 C649 0.930 . S
H665 C650 0.930 . S
H666 C652 0.930 . S
H667 C653 0.930 . S
H668 C658 0.930 . S
H669 C659 0.930 . S
H670 C661 0.930 1_655 S
H671 C662 0.930 . S
Gd672 N703 2.661 . S
Gd672 N709 2.601 . S
Gd672 O716 2.545 . S
Gd672 O717 2.606 . S
Gd672 O719 2.429 . S
Gd672 O720 2.545 . S
Gd672 O721 2.412 . S
Gd672 O723 2.362 . S
Gd672 O724 2.324 . S
Gd672 C731 2.828 . S
Gd673 N682 2.661 . S
Gd673 N686 2.601 . S
Gd673 O717 2.362 . S
Gd673 O718 2.324 . S
Gd673 O722 2.545 . S
Gd673 O723 2.606 . S
Gd673 O725 2.429 . S
Gd673 O726 2.545 . S
Gd673 O727 2.412 . S
Gd673 C740 2.828 . S
C674 C677 1.417 . S
C674 C679 1.431 . S
C674 C680 1.412 . S
C675 C678 1.437 . S
C675 C679 1.317 . S
C675 H694 0.929 . S
C676 C677 1.426 . S
C676 C678 1.413 . S
C676 N686 1.359 . S
C677 C674 1.417 . S
C677 C676 1.426 . S
C677 N682 1.350 . S
C678 C675 1.437 . S
C678 C676 1.413 . S
C678 C688 1.391 . S
C679 C674 1.431 . S
C679 C675 1.317 . S
C679 H690 0.930 . S
C680 C674 1.412 . S
C680 C681 1.355 . S
C680 H692 0.930 . S
C681 C680 1.355 . S
C681 C683 1.402 . S
C681 H693 0.930 . S
N682 Gd673 2.661 . S
N682 C677 1.350 . S
N682 C683 1.307 . S
C683 C681 1.402 . S
C683 N682 1.307 . S
C683 H684 0.930 . S
H684 C683 0.930 . S
C685 N686 1.334 . S
C685 C687 1.394 . S
C685 H689 0.930 . S
N686 Gd673 2.601 . S
N686 C676 1.359 . S
N686 C685 1.334 . S
C687 C685 1.394 . S
C687 C688 1.359 . S
C687 H699 0.930 . S
C688 C678 1.391 . S
C688 C687 1.359 . S
C688 H700 0.929 . S
H689 C685 0.930 . S
H690 C679 0.930 . S
H691 C708 0.930 . S
H692 C680 0.930 . S
H693 C681 0.930 . S
H694 C675 0.929 . S
H695 C713 0.930 . S
H696 C704 0.930 . S
H697 C705 0.930 . S
H698 C729 0.929 . S
H699 C687 0.930 . S
H700 C688 0.929 . S
H701 C730 0.930 . S
H702 C711 0.930 . S
N703 Gd672 2.661 . S
N703 C707 1.350 . S
N703 C708 1.307 . S
C704 H696 0.930 . S
C704 C705 1.355 . S
C704 C706 1.412 . S
C705 H697 0.930 . S
C705 C704 1.355 . S
C705 C708 1.402 . S
C706 C704 1.412 . S
C706 C707 1.417 . S
C706 C730 1.431 . S
C707 N703 1.350 . S
C707 C706 1.417 . S
C707 C710 1.426 . S
C708 H691 0.930 . S
C708 N703 1.307 . S
C708 C705 1.402 . S
N709 Gd672 2.601 . S
N709 C710 1.359 . S
N709 C713 1.334 . S
C710 C707 1.426 . S
C710 N709 1.359 . S
C710 C714 1.413 . S
C711 H702 0.930 . S
C711 C712 1.359 . S
C711 C713 1.394 . S
C712 C711 1.359 . S
C712 C714 1.391 . S
C712 H715 0.929 . S
C713 H695 0.930 . S
C713 N709 1.334 . S
C713 C711 1.394 . S
C714 C710 1.413 . S
C714 C712 1.391 . S
C714 C729 1.437 . S
H715 C712 0.929 . S
O716 Gd672 2.545 . S
O716 C731 1.258 . S
O717 Gd672 2.606 . S
O717 Gd673 2.362 . S
O717 C728 1.284 . S
O718 Gd673 2.324 . S
O718 C738 1.254 . S
O719 Gd672 2.429 . S
O719 C738 1.268 . S
O720 Gd672 2.545 . S
O720 C728 1.250 . S
O721 Gd672 2.412 . S
O721 C731 1.252 . S
O722 Gd673 2.545 . S
O722 C740 1.258 . S
O723 Gd672 2.362 . S
O723 Gd673 2.606 . S
O723 C739 1.284 . S
O724 Gd672 2.324 . S
O724 C747 1.254 . S
O725 Gd673 2.429 . S
O725 C747 1.268 . S
O726 Gd673 2.545 . S
O726 C739 1.250 . S
O727 Gd673 2.412 . S
O727 C740 1.252 . S
C728 O717 1.284 . S
C728 O720 1.250 . S
C729 H698 0.929 . S
C729 C714 1.437 . S
C729 C730 1.317 . S
C730 H701 0.930 . S
C730 C706 1.431 . S
C730 C729 1.317 . S
C731 Gd672 2.828 . S
C731 O716 1.258 . S
C731 O721 1.252 . S
C731 C732 1.497 . S
C732 C731 1.497 . S
C732 C733 1.395 . S
C732 C734 1.380 . S
C733 C732 1.395 . S
C733 C736 1.398 . S
C733 H748 0.930 . S
C734 C732 1.380 . S
C734 C735 1.391 . S
C734 H749 0.930 . S
C735 C734 1.391 . S
C735 C737 1.387 . S
C736 C733 1.398 . S
C736 C737 1.380 . S
C736 H750 0.930 . S
C737 C735 1.387 . S
C737 C736 1.380 . S
C737 H751 0.930 . S
C738 O718 1.254 . S
C738 O719 1.268 . S
C739 O723 1.284 . S
C739 O726 1.250 . S
C740 Gd673 2.828 . S
C740 O722 1.258 . S
C740 O727 1.252 . S
C740 C741 1.497 . S
C741 C740 1.497 . S
C741 C742 1.395 . S
C741 C743 1.380 . S
C742 C741 1.395 . S
C742 C745 1.398 . S
C742 H752 0.930 . S
C743 C741 1.380 . S
C743 C744 1.391 . S
C743 H753 0.930 . S
C744 C743 1.391 . S
C744 C746 1.387 . S
C745 C742 1.398 . S
C745 C746 1.380 . S
C745 H754 0.930 . S
C746 C744 1.387 . S
C746 C745 1.380 . S
C746 H755 0.956 . S
C747 O724 1.254 . S
C747 O725 1.268 . S
H748 C733 0.930 . S
H749 C734 0.930 . S
H750 C736 0.930 . S
H751 C737 0.930 . S
H752 C742 0.930 . S
H753 C743 0.930 . S
H754 C745 0.930 . S
H755 C746 0.956 . S
Gd756 N787 2.661 . S
Gd756 N793 2.601 . S
Gd756 O800 2.545 . S
Gd756 O801 2.606 . S
Gd756 O803 2.429 . S
Gd756 O804 2.545 . S
Gd756 O805 2.412 . S
Gd756 O807 2.362 . S
Gd756 O808 2.324 . S
Gd756 C815 2.828 . S
Gd757 N766 2.661 . S
Gd757 N770 2.601 . S
Gd757 O801 2.362 . S
Gd757 O802 2.324 . S
Gd757 O806 2.545 . S
Gd757 O807 2.606 . S
Gd757 O809 2.429 . S
Gd757 O810 2.545 . S
Gd757 O811 2.412 . S
Gd757 C824 2.828 . S
C758 C761 1.417 . S
C758 C763 1.431 . S
C758 C764 1.412 . S
C759 C762 1.437 . S
C759 C763 1.317 . S
C759 H778 0.929 . S
C760 C761 1.426 . S
C760 C762 1.413 . S
C760 N770 1.359 . S
C761 C758 1.417 . S
C761 C760 1.426 . S
C761 N766 1.350 . S
C762 C759 1.437 . S
C762 C760 1.413 . S
C762 C772 1.391 . S
C763 C758 1.431 . S
C763 C759 1.317 . S
C763 H774 0.930 . S
C764 C758 1.412 . S
C764 C765 1.355 . S
C764 H776 0.930 . S
C765 C764 1.355 . S
C765 C767 1.402 . S
C765 H777 0.930 . S
N766 Gd757 2.661 . S
N766 C761 1.350 . S
N766 C767 1.307 . S
C767 C765 1.402 . S
C767 N766 1.307 . S
C767 H768 0.930 . S
H768 C767 0.930 . S
C769 N770 1.334 . S
C769 C771 1.394 . S
C769 H773 0.930 . S
N770 Gd757 2.601 . S
N770 C760 1.359 . S
N770 C769 1.334 . S
C771 C769 1.394 . S
C771 C772 1.359 . S
C771 H783 0.930 . S
C772 C762 1.391 . S
C772 C771 1.359 . S
C772 H784 0.929 . S
H773 C769 0.930 . S
H774 C763 0.930 . S
H775 C792 0.930 . S
H776 C764 0.930 . S
H777 C765 0.930 . S
H778 C759 0.929 . S
H779 C797 0.922 1_455 S
H780 C788 0.930 . S
H781 C789 0.930 . S
H782 C813 0.929 . S
H783 C771 0.930 . S
H784 C772 0.929 . S
H785 C814 0.930 . S
H786 C795 0.930 . S
N787 Gd756 2.661 . S
N787 C791 1.350 . S
N787 C792 1.307 . S
C788 H780 0.930 . S
C788 C789 1.355 . S
C788 C790 1.412 . S
C789 H781 0.930 . S
C789 C788 1.355 . S
C789 C792 1.402 . S
C790 C788 1.412 . S
C790 C791 1.417 . S
C790 C814 1.434 1_455 S
C791 N787 1.350 . S
C791 C790 1.417 . S
C791 C794 1.426 . S
C792 H775 0.930 . S
C792 N787 1.307 . S
C792 C789 1.402 . S
N793 Gd756 2.601 . S
N793 C794 1.359 . S
N793 C797 1.308 1_455 S
C794 C791 1.426 . S
C794 N793 1.359 . S
C794 C798 1.413 1_455 S
C795 H786 0.930 . S
C795 C796 1.359 . S
C795 C797 1.428 . S
C796 C795 1.359 . S
C796 C798 1.391 . S
C796 H799 0.929 . S
C797 H779 0.922 1_655 S
C797 N793 1.308 1_655 S
C797 C795 1.428 . S
C798 C794 1.413 1_655 S
C798 C796 1.391 . S
C798 C813 1.437 . S
H799 C796 0.929 . S
O800 Gd756 2.545 . S
O800 C815 1.258 . S
O801 Gd756 2.606 . S
O801 Gd757 2.362 . S
O801 C812 1.284 . S
O802 Gd757 2.324 . S
O802 C822 1.254 . S
O803 Gd756 2.429 . S
O803 C822 1.268 . S
O804 Gd756 2.545 . S
O804 C812 1.250 . S
O805 Gd756 2.412 . S
O805 C815 1.252 . S
O806 Gd757 2.545 . S
O806 C824 1.258 . S
O807 Gd756 2.362 . S
O807 Gd757 2.606 . S
O807 C823 1.284 . S
O808 Gd756 2.324 . S
O808 C831 1.254 . S
O809 Gd757 2.429 . S
O809 C831 1.268 . S
O810 Gd757 2.545 . S
O810 C823 1.250 . S
O811 Gd757 2.412 . S
O811 C824 1.252 . S
C812 O801 1.284 . S
C812 O804 1.250 . S
C813 H782 0.929 . S
C813 C798 1.437 . S
C813 C814 1.315 . S
C814 H785 0.930 . S
C814 C790 1.434 1_655 S
C814 C813 1.315 . S
C815 Gd756 2.828 . S
C815 O800 1.258 . S
C815 O805 1.252 . S
C815 C816 1.497 . S
C816 C815 1.497 . S
C816 C817 1.395 . S
C816 C818 1.380 . S
C817 C816 1.395 . S
C817 C820 1.398 . S
C817 H832 0.930 . S
C818 C816 1.380 . S
C818 C819 1.391 . S
C818 H833 0.930 . S
C819 C818 1.391 . S
C819 C821 1.387 . S
C820 C817 1.398 . S
C820 C821 1.380 . S
C820 H834 0.930 1_455 S
C821 C819 1.387 . S
C821 C820 1.380 . S
C821 H835 0.930 . S
C822 O802 1.254 . S
C822 O803 1.268 . S
C823 O807 1.284 . S
C823 O810 1.250 . S
C824 Gd757 2.828 . S
C824 O806 1.258 . S
C824 O811 1.252 . S
C824 C825 1.497 . S
C825 C824 1.497 . S
C825 C826 1.395 . S
C825 C827 1.380 . S
C826 C825 1.395 . S
C826 C829 1.398 . S
C826 H836 0.930 . S
C827 C825 1.380 . S
C827 C828 1.391 . S
C827 H837 0.930 . S
C828 C827 1.391 . S
C828 C830 1.387 . S
C829 C826 1.398 . S
C829 C830 1.380 . S
C829 H838 0.930 . S
C830 C828 1.387 . S
C830 C829 1.380 . S
C830 H839 0.930 . S
C831 O808 1.254 . S
C831 O809 1.268 . S
H832 C817 0.930 . S
H833 C818 0.930 . S
H834 C820 0.930 1_655 S
H835 C821 0.930 . S
H836 C826 0.930 . S
H837 C827 0.930 . S
H838 C829 0.930 . S
H839 C830 0.930 . S
Gd840 N871 2.661 . S
Gd840 N877 2.601 . S
Gd840 O884 2.545 . S
Gd840 O885 2.606 . S
Gd840 O887 2.429 . S
Gd840 O888 2.545 . S
Gd840 O889 2.412 . S
Gd840 O891 2.362 . S
Gd840 O892 2.324 . S
Gd840 C899 2.828 . S
Gd841 N850 2.661 1_554 S
Gd841 N854 2.601 . S
Gd841 O885 2.362 . S
Gd841 O886 2.324 1_554 S
Gd841 O890 2.545 1_554 S
Gd841 O891 2.606 . S
Gd841 O893 2.429 . S
Gd841 O894 2.545 . S
Gd841 O895 2.412 1_554 S
Gd841 C908 2.828 1_554 S
C842 C845 1.417 . S
C842 C847 1.431 . S
C842 C848 1.412 . S
C843 C846 1.437 . S
C843 C847 1.317 . S
C843 H862 0.929 . S
C844 C845 1.426 . S
C844 C846 1.413 . S
C844 N854 1.359 1_556 S
C845 C842 1.417 . S
C845 C844 1.426 . S
C845 N850 1.350 . S
C846 C843 1.437 . S
C846 C844 1.413 . S
C846 C856 1.391 . S
C847 C842 1.431 . S
C847 C843 1.317 . S
C847 H858 0.930 . S
C848 C842 1.412 . S
C848 C849 1.355 . S
C848 H860 0.930 . S
C849 C848 1.355 . S
C849 C851 1.402 . S
C849 H861 0.930 . S
N850 Gd841 2.661 1_556 S
N850 C845 1.350 . S
N850 C851 1.307 . S
C851 C849 1.402 . S
C851 N850 1.307 . S
C851 H852 0.930 . S
H852 C851 0.930 . S
C853 N854 1.334 . S
C853 C855 1.394 . S
C853 H857 0.930 . S
N854 Gd841 2.601 . S
N854 C844 1.359 1_554 S
N854 C853 1.334 . S
C855 C853 1.394 . S
C855 C856 1.359 1_554 S
C855 H867 0.930 . S
C856 C846 1.391 . S
C856 C855 1.359 1_556 S
C856 H868 0.929 . S
H857 C853 0.930 . S
H858 C847 0.930 . S
H859 C876 0.930 . S
H860 C848 0.930 . S
H861 C849 0.930 . S
H862 C843 0.929 . S
H863 C881 0.930 . S
H864 C872 0.930 . S
H865 C873 0.930 . S
H866 C897 0.929 . S
H867 C855 0.930 . S
H868 C856 0.929 . S
H869 C898 0.930 . S
H870 C879 0.930 . S
N871 Gd840 2.661 . S
N871 C875 1.350 . S
N871 C876 1.307 . S
C872 H864 0.930 . S
C872 C873 1.355 . S
C872 C874 1.412 . S
C873 H865 0.930 . S
C873 C872 1.355 . S
C873 C876 1.402 . S
C874 C872 1.412 . S
C874 C875 1.417 . S
C874 C898 1.431 . S
C875 N871 1.350 . S
C875 C874 1.417 . S
C875 C878 1.426 . S
C876 H859 0.930 . S
C876 N871 1.307 . S
C876 C873 1.402 . S
N877 Gd840 2.601 . S
N877 C878 1.359 . S
N877 C881 1.334 . S
C878 C875 1.426 . S
C878 N877 1.359 . S
C878 C882 1.413 . S
C879 H870 0.930 . S
C879 C880 1.359 . S
C879 C881 1.394 . S
C880 C879 1.359 . S
C880 C882 1.391 . S
C880 H883 0.929 . S
C881 H863 0.930 . S
C881 N877 1.334 . S
C881 C879 1.394 . S
C882 C878 1.413 . S
C882 C880 1.391 . S
C882 C897 1.437 . S
H883 C880 0.929 . S
O884 Gd840 2.545 . S
O884 C899 1.258 . S
O885 Gd840 2.606 . S
O885 Gd841 2.362 . S
O885 C896 1.284 . S
O886 Gd841 2.324 1_556 S
O886 C906 1.254 . S
O887 Gd840 2.429 . S
O887 C906 1.268 1_554 S
O888 Gd840 2.545 . S
O888 C896 1.250 . S
O889 Gd840 2.412 . S
O889 C899 1.252 . S
O890 Gd841 2.545 1_556 S
O890 C908 1.258 . S
O891 Gd840 2.362 . S
O891 Gd841 2.606 . S
O891 C907 1.284 . S
O892 Gd840 2.324 . S
O892 C915 1.254 . S
O893 Gd841 2.429 . S
O893 C915 1.268 . S
O894 Gd841 2.545 . S
O894 C907 1.250 . S
O895 Gd841 2.412 1_556 S
O895 C908 1.252 . S
C896 O885 1.284 . S
C896 O888 1.250 . S
C897 H866 0.929 . S
C897 C882 1.437 . S
C897 C898 1.317 . S
C898 H869 0.930 . S
C898 C874 1.431 . S
C898 C897 1.317 . S
C899 Gd840 2.828 . S
C899 O884 1.258 . S
C899 O889 1.252 . S
C899 C900 1.497 . S
C900 C899 1.497 . S
C900 C901 1.395 . S
C900 C902 1.380 . S
C901 C900 1.395 . S
C901 C904 1.398 . S
C901 H916 0.930 . S
C902 C900 1.380 . S
C902 C903 1.391 . S
C902 H917 0.930 . S
C903 C902 1.391 . S
C903 C905 1.387 . S
C904 C901 1.398 . S
C904 C905 1.380 . S
C904 H918 0.930 . S
C905 C903 1.387 . S
C905 C904 1.380 . S
C905 H919 0.930 . S
C906 O886 1.254 . S
C906 O887 1.268 1_556 S
C907 O891 1.284 . S
C907 O894 1.250 . S
C908 Gd841 2.828 1_556 S
C908 O890 1.258 . S
C908 O895 1.252 . S
C908 C909 1.497 . S
C909 C908 1.497 . S
C909 C910 1.395 . S
C909 C911 1.380 . S
C910 C909 1.395 . S
C910 C913 1.398 . S
C910 H920 0.930 . S
C911 C909 1.380 . S
C911 C912 1.391 . S
C911 H921 0.930 . S
C912 C911 1.391 . S
C912 C914 1.387 . S
C913 C910 1.398 . S
C913 C914 1.380 . S
C913 H922 0.930 . S
C914 C912 1.387 . S
C914 C913 1.380 . S
C914 H923 0.930 . S
C915 O892 1.254 . S
C915 O893 1.268 . S
H916 C901 0.930 . S
H917 C902 0.930 . S
H918 C904 0.930 . S
H919 C905 0.930 . S
H920 C910 0.930 . S
H921 C911 0.930 . S
H922 C913 0.930 . S
H923 C914 0.930 . S
Gd924 N955 2.661 . S
Gd924 N961 2.601 . S
Gd924 O968 2.545 . S
Gd924 O969 2.606 . S
Gd924 O971 2.429 . S
Gd924 O972 2.545 . S
Gd924 O973 2.412 . S
Gd924 O975 2.362 . S
Gd924 O976 2.324 . S
Gd924 C983 2.828 . S
Gd925 N934 2.661 . S
Gd925 N938 2.601 . S
Gd925 O969 2.362 . S
Gd925 O970 2.324 . S
Gd925 O974 2.545 . S
Gd925 O975 2.606 . S
Gd925 O977 2.429 . S
Gd925 O978 2.545 . S
Gd925 O979 2.412 . S
Gd925 C992 2.828 . S
C926 C929 1.417 . S
C926 C931 1.431 . S
C926 C932 1.412 . S
C927 C930 1.437 . S
C927 C931 1.317 . S
C927 H946 0.929 . S
C928 C929 1.426 . S
C928 C930 1.413 . S
C928 N938 1.359 . S
C929 C926 1.417 . S
C929 C928 1.426 . S
C929 N934 1.350 . S
C930 C927 1.437 . S
C930 C928 1.413 . S
C930 C940 1.391 . S
C931 C926 1.431 . S
C931 C927 1.317 . S
C931 H942 0.930 . S
C932 C926 1.412 . S
C932 C933 1.355 . S
C932 H944 0.930 . S
C933 C932 1.355 . S
C933 C935 1.402 . S
C933 H945 0.930 . S
N934 Gd925 2.661 . S
N934 C929 1.350 . S
N934 C935 1.307 . S
C935 C933 1.402 . S
C935 N934 1.307 . S
C935 H936 0.930 . S
H936 C935 0.930 . S
C937 N938 1.334 . S
C937 C939 1.394 . S
C937 H941 0.930 . S
N938 Gd925 2.601 . S
N938 C928 1.359 . S
N938 C937 1.334 . S
C939 C937 1.394 . S
C939 C940 1.359 . S
C939 H951 0.930 . S
C940 C930 1.391 . S
C940 C939 1.359 . S
C940 H952 0.929 . S
H941 C937 0.930 . S
H942 C931 0.930 . S
H943 C960 0.930 . S
H944 C932 0.930 . S
H945 C933 0.930 . S
H946 C927 0.929 . S
H947 C965 0.930 . S
H948 C956 0.930 . S
H949 C957 0.930 . S
H950 C981 0.929 . S
H951 C939 0.930 . S
H952 C940 0.929 . S
H953 C982 0.930 . S
H954 C963 0.930 . S
N955 Gd924 2.661 . S
N955 C959 1.350 . S
N955 C960 1.307 . S
C956 H948 0.930 . S
C956 C957 1.355 . S
C956 C958 1.412 . S
C957 H949 0.930 . S
C957 C956 1.355 . S
C957 C960 1.402 . S
C958 C956 1.412 . S
C958 C959 1.417 . S
C958 C982 1.431 . S
C959 N955 1.350 . S
C959 C958 1.417 . S
C959 C962 1.426 . S
C960 H943 0.930 . S
C960 N955 1.307 . S
C960 C957 1.402 . S
N961 Gd924 2.601 . S
N961 C962 1.359 . S
N961 C965 1.334 . S
C962 C959 1.426 . S
C962 N961 1.359 . S
C962 C966 1.413 . S
C963 H954 0.930 . S
C963 C964 1.359 . S
C963 C965 1.394 . S
C964 C963 1.359 . S
C964 C966 1.391 . S
C964 H967 0.929 . S
C965 H947 0.930 . S
C965 N961 1.334 . S
C965 C963 1.394 . S
C966 C962 1.413 . S
C966 C964 1.391 . S
C966 C981 1.437 . S
H967 C964 0.929 . S
O968 Gd924 2.545 . S
O968 C983 1.258 . S
O969 Gd924 2.606 . S
O969 Gd925 2.362 . S
O969 C980 1.284 . S
O970 Gd925 2.324 . S
O970 C990 1.254 . S
O971 Gd924 2.429 . S
O971 C990 1.268 . S
O972 Gd924 2.545 . S
O972 C980 1.250 . S
O973 Gd924 2.412 . S
O973 C983 1.252 . S
O974 Gd925 2.545 . S
O974 C992 1.258 . S
O975 Gd924 2.362 . S
O975 Gd925 2.606 . S
O975 C991 1.284 . S
O976 Gd924 2.324 . S
O976 C999 1.254 . S
O977 Gd925 2.429 . S
O977 C999 1.268 . S
O978 Gd925 2.545 . S
O978 C991 1.250 . S
O979 Gd925 2.412 . S
O979 C992 1.252 . S
C980 O969 1.284 . S
C980 O972 1.250 . S
C981 H950 0.929 . S
C981 C966 1.437 . S
C981 C982 1.317 . S
C982 H953 0.930 . S
C982 C958 1.431 . S
C982 C981 1.317 . S
C983 Gd924 2.828 . S
C983 O968 1.258 . S
C983 O973 1.252 . S
C983 C984 1.497 . S
C984 C983 1.497 . S
C984 C985 1.395 . S
C984 C986 1.380 . S
C985 C984 1.395 . S
C985 C988 1.398 . S
C985 H1000 0.930 . S
C986 C984 1.380 . S
C986 C987 1.391 . S
C986 H1001 0.930 . S
C987 C986 1.391 . S
C987 C989 1.387 . S
C988 C985 1.398 . S
C988 C989 1.380 . S
C988 H1002 0.930 . S
C989 C987 1.387 . S
C989 C988 1.380 . S
C989 H1003 0.930 . S
C990 O970 1.254 . S
C990 O971 1.268 . S
C991 O975 1.284 . S
C991 O978 1.250 . S
C992 Gd925 2.828 . S
C992 O974 1.258 . S
C992 O979 1.252 . S
C992 C993 1.497 . S
C993 C992 1.497 . S
C993 C994 1.395 . S
C993 C995 1.380 . S
C994 C993 1.395 . S
C994 C997 1.398 . S
C994 H1004 0.930 . S
C995 C993 1.380 . S
C995 C996 1.391 . S
C995 H1005 0.930 . S
C996 C995 1.391 . S
C996 C998 1.387 . S
C997 C994 1.398 . S
C997 C998 1.380 . S
C997 H1006 0.930 . S
C998 C996 1.387 . S
C998 C997 1.380 . S
C998 H1007 0.930 . S
C999 O976 1.254 . S
C999 O977 1.268 . S
H1000 C985 0.930 . S
H1001 C986 0.930 . S
H1002 C988 0.930 . S
H1003 C989 0.930 . S
H1004 C994 0.930 . S
H1005 C995 0.930 . S
H1006 C997 0.930 . S
H1007 C998 0.930 . S
Gd1008 N1039 2.661 . S
Gd1008 N1045 2.601 . S
Gd1008 O1052 2.545 . S
Gd1008 O1053 2.606 . S
Gd1008 O1055 2.429 . S
Gd1008 O1056 2.545 . S
Gd1008 O1057 2.412 . S
Gd1008 O1059 2.362 . S
Gd1008 O1060 2.324 . S
Gd1008 C1067 2.828 . S
Gd1009 N1018 2.661 . S
Gd1009 N1022 2.601 . S
Gd1009 O1053 2.362 . S
Gd1009 O1054 2.324 . S
Gd1009 O1058 2.545 . S
Gd1009 O1059 2.606 . S
Gd1009 O1061 2.429 . S
Gd1009 O1062 2.545 . S
Gd1009 O1063 2.412 . S
Gd1009 C1076 2.828 . S
C1010 C1013 1.417 . S
C1010 C1015 1.431 . S
C1010 C1016 1.412 . S
C1011 C1014 1.437 . S
C1011 C1015 1.317 . S
C1011 H1030 0.929 . S
C1012 C1013 1.426 . S
C1012 C1014 1.413 . S
C1012 N1022 1.359 . S
C1013 C1010 1.417 . S
C1013 C1012 1.426 . S
C1013 N1018 1.350 . S
C1014 C1011 1.437 . S
C1014 C1012 1.413 . S
C1014 C1024 1.391 . S
C1015 C1010 1.431 . S
C1015 C1011 1.317 . S
C1015 H1026 0.930 . S
C1016 C1010 1.412 . S
C1016 C1017 1.355 . S
C1016 H1028 0.930 . S
C1017 C1016 1.355 . S
C1017 C1019 1.402 . S
C1017 H1029 0.930 . S
N1018 Gd1009 2.661 . S
N1018 C1013 1.350 . S
N1018 C1019 1.307 . S
C1019 C1017 1.402 . S
C1019 N1018 1.307 . S
C1019 H1020 0.930 . S
H1020 C1019 0.930 . S
C1021 N1022 1.334 . S
C1021 C1023 1.394 . S
C1021 H1025 0.930 . S
N1022 Gd1009 2.601 . S
N1022 C1012 1.359 . S
N1022 C1021 1.334 . S
C1023 C1021 1.394 . S
C1023 C1024 1.359 . S
C1023 H1035 0.930 . S
C1024 C1014 1.391 . S
C1024 C1023 1.359 . S
C1024 H1036 0.929 . S
H1025 C1021 0.930 . S
H1026 C1015 0.930 . S
H1027 C1044 0.930 . S
H1028 C1016 0.930 . S
H1029 C1017 0.930 . S
H1030 C1011 0.929 . S
H1031 C1049 0.930 . S
H1032 C1040 0.930 . S
H1033 C1041 0.930 . S
H1034 C1065 0.929 . S
H1035 C1023 0.930 . S
H1036 C1024 0.929 . S
H1037 C1066 0.930 . S
H1038 C1047 0.930 . S
N1039 Gd1008 2.661 . S
N1039 C1043 1.350 . S
N1039 C1044 1.307 . S
C1040 H1032 0.930 . S
C1040 C1041 1.355 . S
C1040 C1042 1.412 . S
C1041 H1033 0.930 . S
C1041 C1040 1.355 . S
C1041 C1044 1.402 . S
C1042 C1040 1.412 . S
C1042 C1043 1.417 . S
C1042 C1066 1.431 . S
C1043 N1039 1.350 . S
C1043 C1042 1.417 . S
C1043 C1046 1.426 . S
C1044 H1027 0.930 . S
C1044 N1039 1.307 . S
C1044 C1041 1.402 . S
N1045 Gd1008 2.601 . S
N1045 C1046 1.359 . S
N1045 C1049 1.334 . S
C1046 C1043 1.426 . S
C1046 N1045 1.359 . S
C1046 C1050 1.413 . S
C1047 H1038 0.930 . S
C1047 C1048 1.359 . S
C1047 C1049 1.394 . S
C1048 C1047 1.359 . S
C1048 C1050 1.391 . S
C1048 H1051 0.929 . S
C1049 H1031 0.930 . S
C1049 N1045 1.334 . S
C1049 C1047 1.394 . S
C1050 C1046 1.413 . S
C1050 C1048 1.391 . S
C1050 C1065 1.437 . S
H1051 C1048 0.929 . S
O1052 Gd1008 2.545 . S
O1052 C1067 1.258 . S
O1053 Gd1008 2.606 . S
O1053 Gd1009 2.362 . S
O1053 C1064 1.284 . S
O1054 Gd1009 2.324 . S
O1054 C1074 1.254 . S
O1055 Gd1008 2.429 . S
O1055 C1074 1.268 . S
O1056 Gd1008 2.545 . S
O1056 C1064 1.250 . S
O1057 Gd1008 2.412 . S
O1057 C1067 1.252 . S
O1058 Gd1009 2.545 . S
O1058 C1076 1.258 . S
O1059 Gd1008 2.362 . S
O1059 Gd1009 2.606 . S
O1059 C1075 1.284 . S
O1060 Gd1008 2.324 . S
O1060 C1083 1.254 . S
O1061 Gd1009 2.429 . S
O1061 C1083 1.268 . S
O1062 Gd1009 2.545 . S
O1062 C1075 1.250 . S
O1063 Gd1009 2.412 . S
O1063 C1076 1.252 . S
C1064 O1053 1.284 . S
C1064 O1056 1.250 . S
C1065 H1034 0.929 . S
C1065 C1050 1.437 . S
C1065 C1066 1.317 . S
C1066 H1037 0.930 . S
C1066 C1042 1.431 . S
C1066 C1065 1.317 . S
C1067 Gd1008 2.828 . S
C1067 O1052 1.258 . S
C1067 O1057 1.252 . S
C1067 C1068 1.497 . S
C1068 C1067 1.497 . S
C1068 C1069 1.395 . S
C1068 C1070 1.380 . S
C1069 C1068 1.395 . S
C1069 C1072 1.398 . S
C1069 H1084 0.930 . S
C1070 C1068 1.380 . S
C1070 C1071 1.391 . S
C1070 H1085 0.930 . S
C1071 C1070 1.391 . S
C1071 C1073 1.387 . S
C1072 C1069 1.398 . S
C1072 C1073 1.380 . S
C1072 H1086 0.930 . S
C1073 C1071 1.387 . S
C1073 C1072 1.380 . S
C1073 H1087 0.956 . S
C1074 O1054 1.254 . S
C1074 O1055 1.268 . S
C1075 O1059 1.284 . S
C1075 O1062 1.250 . S
C1076 Gd1009 2.828 . S
C1076 O1058 1.258 . S
C1076 O1063 1.252 . S
C1076 C1077 1.497 . S
C1077 C1076 1.497 . S
C1077 C1078 1.395 . S
C1077 C1079 1.380 . S
C1078 C1077 1.395 . S
C1078 C1081 1.398 . S
C1078 H1088 0.930 . S
C1079 C1077 1.380 . S
C1079 C1080 1.391 . S
C1079 H1089 0.930 . S
C1080 C1079 1.391 . S
C1080 C1082 1.387 . S
C1081 C1078 1.398 . S
C1081 C1082 1.380 . S
C1081 H1090 0.930 . S
C1082 C1080 1.387 . S
C1082 C1081 1.380 . S
C1082 H1091 0.930 . S
C1083 O1060 1.254 . S
C1083 O1061 1.268 . S
H1084 C1069 0.930 . S
H1085 C1070 0.930 . S
H1086 C1072 0.930 . S
H1087 C1073 0.956 . S
H1088 C1078 0.930 . S
H1089 C1079 0.930 . S
H1090 C1081 0.930 . S
H1091 C1082 0.930 . S
Gd1092 N1123 2.661 . S
Gd1092 N1129 2.601 . S
Gd1092 O1136 2.545 . S
Gd1092 O1137 2.606 . S
Gd1092 O1139 2.429 . S
Gd1092 O1140 2.545 . S
Gd1092 O1141 2.412 . S
Gd1092 O1143 2.362 . S
Gd1092 O1144 2.324 . S
Gd1092 C1151 2.828 . S
Gd1093 N1102 2.661 . S
Gd1093 N1106 2.601 . S
Gd1093 O1137 2.362 . S
Gd1093 O1138 2.324 . S
Gd1093 O1142 2.545 . S
Gd1093 O1143 2.606 . S
Gd1093 O1145 2.429 . S
Gd1093 O1146 2.545 . S
Gd1093 O1147 2.412 . S
Gd1093 C1160 2.828 . S
C1094 C1097 1.417 . S
C1094 C1099 1.434 1_655 S
C1094 C1100 1.412 . S
C1095 C1098 1.437 . S
C1095 C1099 1.315 . S
C1095 H1114 0.929 . S
C1096 C1097 1.426 . S
C1096 C1098 1.413 1_655 S
C1096 N1106 1.359 . S
C1097 C1094 1.417 . S
C1097 C1096 1.426 . S
C1097 N1102 1.350 . S
C1098 C1095 1.437 . S
C1098 C1096 1.413 1_455 S
C1098 C1108 1.391 . S
C1099 C1094 1.434 1_455 S
C1099 C1095 1.315 . S
C1099 H1110 0.930 . S
C1100 C1094 1.412 . S
C1100 C1101 1.355 . S
C1100 H1112 0.930 . S
C1101 C1100 1.355 . S
C1101 C1103 1.402 . S
C1101 H1113 0.930 . S
N1102 Gd1093 2.661 . S
N1102 C1097 1.350 . S
N1102 C1103 1.307 . S
C1103 C1101 1.402 . S
C1103 N1102 1.307 . S
C1103 H1104 0.930 . S
H1104 C1103 0.930 . S
C1105 N1106 1.308 1_455 S
C1105 C1107 1.428 . S
C1105 H1109 0.922 1_455 S
N1106 Gd1093 2.601 . S
N1106 C1096 1.359 . S
N1106 C1105 1.308 1_655 S
C1107 C1105 1.428 . S
C1107 C1108 1.359 . S
C1107 H1119 0.930 . S
C1108 C1098 1.391 . S
C1108 C1107 1.359 . S
C1108 H1120 0.929 . S
H1109 C1105 0.922 1_655 S
H1110 C1099 0.930 . S
H1111 C1128 0.930 . S
H1112 C1100 0.930 . S
H1113 C1101 0.930 . S
H1114 C1095 0.929 . S
H1115 C1133 0.930 . S
H1116 C1124 0.930 . S
H1117 C1125 0.930 . S
H1118 C1149 0.929 . S
H1119 C1107 0.930 . S
H1120 C1108 0.929 . S
H1121 C1150 0.930 . S
H1122 C1131 0.930 . S
N1123 Gd1092 2.661 . S
N1123 C1127 1.350 . S
N1123 C1128 1.307 . S
C1124 H1116 0.930 . S
C1124 C1125 1.355 . S
C1124 C1126 1.412 . S
C1125 H1117 0.930 . S
C1125 C1124 1.355 . S
C1125 C1128 1.402 . S
C1126 C1124 1.412 . S
C1126 C1127 1.417 . S
C1126 C1150 1.431 . S
C1127 N1123 1.350 . S
C1127 C1126 1.417 . S
C1127 C1130 1.426 . S
C1128 H1111 0.930 . S
C1128 N1123 1.307 . S
C1128 C1125 1.402 . S
N1129 Gd1092 2.601 . S
N1129 C1130 1.359 . S
N1129 C1133 1.334 . S
C1130 C1127 1.426 . S
C1130 N1129 1.359 . S
C1130 C1134 1.413 . S
C1131 H1122 0.930 . S
C1131 C1132 1.359 . S
C1131 C1133 1.394 . S
C1132 C1131 1.359 . S
C1132 C1134 1.391 . S
C1132 H1135 0.929 . S
C1133 H1115 0.930 . S
C1133 N1129 1.334 . S
C1133 C1131 1.394 . S
C1134 C1130 1.413 . S
C1134 C1132 1.391 . S
C1134 C1149 1.437 . S
H1135 C1132 0.929 . S
O1136 Gd1092 2.545 . S
O1136 C1151 1.258 . S
O1137 Gd1092 2.606 . S
O1137 Gd1093 2.362 . S
O1137 C1148 1.284 . S
O1138 Gd1093 2.324 . S
O1138 C1158 1.254 . S
O1139 Gd1092 2.429 . S
O1139 C1158 1.268 . S
O1140 Gd1092 2.545 . S
O1140 C1148 1.250 . S
O1141 Gd1092 2.412 . S
O1141 C1151 1.252 . S
O1142 Gd1093 2.545 . S
O1142 C1160 1.258 . S
O1143 Gd1092 2.362 . S
O1143 Gd1093 2.606 . S
O1143 C1159 1.284 . S
O1144 Gd1092 2.324 . S
O1144 C1167 1.254 . S
O1145 Gd1093 2.429 . S
O1145 C1167 1.268 . S
O1146 Gd1093 2.545 . S
O1146 C1159 1.250 . S
O1147 Gd1093 2.412 . S
O1147 C1160 1.252 . S
C1148 O1137 1.284 . S
C1148 O1140 1.250 . S
C1149 H1118 0.929 . S
C1149 C1134 1.437 . S
C1149 C1150 1.317 . S
C1150 H1121 0.930 . S
C1150 C1126 1.431 . S
C1150 C1149 1.317 . S
C1151 Gd1092 2.828 . S
C1151 O1136 1.258 . S
C1151 O1141 1.252 . S
C1151 C1152 1.497 . S
C1152 C1151 1.497 . S
C1152 C1153 1.395 . S
C1152 C1154 1.380 . S
C1153 C1152 1.395 . S
C1153 C1156 1.398 . S
C1153 H1168 0.930 . S
C1154 C1152 1.380 . S
C1154 C1155 1.391 . S
C1154 H1169 0.930 . S
C1155 C1154 1.391 . S
C1155 C1157 1.387 . S
C1156 C1153 1.398 . S
C1156 C1157 1.380 . S
C1156 H1170 0.930 . S
C1157 C1155 1.387 . S
C1157 C1156 1.380 . S
C1157 H1171 0.930 . S
C1158 O1138 1.254 . S
C1158 O1139 1.268 . S
C1159 O1143 1.284 . S
C1159 O1146 1.250 . S
C1160 Gd1093 2.828 . S
C1160 O1142 1.258 . S
C1160 O1147 1.252 . S
C1160 C1161 1.497 . S
C1161 C1160 1.497 . S
C1161 C1162 1.395 . S
C1161 C1163 1.380 . S
C1162 C1161 1.395 . S
C1162 C1165 1.398 . S
C1162 H1172 0.930 . S
C1163 C1161 1.380 . S
C1163 C1164 1.391 . S
C1163 H1173 0.930 . S
C1164 C1163 1.391 . S
C1164 C1166 1.387 . S
C1165 C1162 1.398 . S
C1165 C1166 1.380 . S
C1165 H1174 0.930 1_655 S
C1166 C1164 1.387 . S
C1166 C1165 1.380 . S
C1166 H1175 0.930 . S
C1167 O1144 1.254 . S
C1167 O1145 1.268 . S
H1168 C1153 0.930 . S
H1169 C1154 0.930 . S
H1170 C1156 0.930 . S
H1171 C1157 0.930 . S
H1172 C1162 0.930 . S
H1173 C1163 0.930 . S
H1174 C1165 0.930 1_455 S
H1175 C1166 0.930 . S
Gd1176 N1207 2.661 1_556 S
Gd1176 N1213 2.601 . S
Gd1176 O1220 2.545 1_556 S
Gd1176 O1221 2.606 . S
Gd1176 O1223 2.429 . S
Gd1176 O1224 2.545 . S
Gd1176 O1225 2.412 1_556 S
Gd1176 O1227 2.362 . S
Gd1176 O1228 2.324 1_556 S
Gd1176 C1235 2.828 1_556 S
Gd1177 N1186 2.661 . S
Gd1177 N1190 2.601 . S
Gd1177 O1221 2.362 . S
Gd1177 O1222 2.324 . S
Gd1177 O1226 2.545 . S
Gd1177 O1227 2.606 . S
Gd1177 O1229 2.429 . S
Gd1177 O1230 2.545 . S
Gd1177 O1231 2.412 . S
Gd1177 C1244 2.828 . S
C1178 C1181 1.417 . S
C1178 C1183 1.431 . S
C1178 C1184 1.412 . S
C1179 C1182 1.437 . S
C1179 C1183 1.317 . S
C1179 H1198 0.929 . S
C1180 C1181 1.426 . S
C1180 C1182 1.413 . S
C1180 N1190 1.359 . S
C1181 C1178 1.417 . S
C1181 C1180 1.426 . S
C1181 N1186 1.350 . S
C1182 C1179 1.437 . S
C1182 C1180 1.413 . S
C1182 C1192 1.391 . S
C1183 C1178 1.431 . S
C1183 C1179 1.317 . S
C1183 H1194 0.930 . S
C1184 C1178 1.412 . S
C1184 C1185 1.355 . S
C1184 H1196 0.930 . S
C1185 C1184 1.355 . S
C1185 C1187 1.402 . S
C1185 H1197 0.930 . S
N1186 Gd1177 2.661 . S
N1186 C1181 1.350 . S
N1186 C1187 1.307 . S
C1187 C1185 1.402 . S
C1187 N1186 1.307 . S
C1187 H1188 0.930 . S
H1188 C1187 0.930 . S
C1189 N1190 1.334 . S
C1189 C1191 1.394 . S
C1189 H1193 0.930 . S
N1190 Gd1177 2.601 . S
N1190 C1180 1.359 . S
N1190 C1189 1.334 . S
C1191 C1189 1.394 . S
C1191 C1192 1.359 . S
C1191 H1203 0.930 . S
C1192 C1182 1.391 . S
C1192 C1191 1.359 . S
C1192 H1204 0.929 . S
H1193 C1189 0.930 . S
H1194 C1183 0.930 . S
H1195 C1212 0.930 . S
H1196 C1184 0.930 . S
H1197 C1185 0.930 . S
H1198 C1179 0.929 . S
H1199 C1217 0.930 . S
H1200 C1208 0.930 . S
H1201 C1209 0.930 . S
H1202 C1233 0.929 . S
H1203 C1191 0.930 . S
H1204 C1192 0.929 . S
H1205 C1234 0.930 . S
H1206 C1215 0.930 . S
N1207 Gd1176 2.661 1_554 S
N1207 C1211 1.350 . S
N1207 C1212 1.307 . S
C1208 H1200 0.930 . S
C1208 C1209 1.355 . S
C1208 C1210 1.412 . S
C1209 H1201 0.930 . S
C1209 C1208 1.355 . S
C1209 C1212 1.402 . S
C1210 C1208 1.412 . S
C1210 C1211 1.417 . S
C1210 C1234 1.431 . S
C1211 N1207 1.350 . S
C1211 C1210 1.417 . S
C1211 C1214 1.426 . S
C1212 H1195 0.930 . S
C1212 N1207 1.307 . S
C1212 C1209 1.402 . S
N1213 Gd1176 2.601 . S
N1213 C1214 1.359 1_556 S
N1213 C1217 1.334 . S
C1214 C1211 1.426 . S
C1214 N1213 1.359 1_554 S
C1214 C1218 1.413 . S
C1215 H1206 0.930 . S
C1215 C1216 1.359 1_556 S
C1215 C1217 1.394 . S
C1216 C1215 1.359 1_554 S
C1216 C1218 1.391 . S
C1216 H1219 0.929 . S
C1217 H1199 0.930 . S
C1217 N1213 1.334 . S
C1217 C1215 1.394 . S
C1218 C1214 1.413 . S
C1218 C1216 1.391 . S
C1218 C1233 1.437 . S
H1219 C1216 0.929 . S
O1220 Gd1176 2.545 1_554 S
O1220 C1235 1.258 . S
O1221 Gd1176 2.606 . S
O1221 Gd1177 2.362 . S
O1221 C1232 1.284 . S
O1222 Gd1177 2.324 . S
O1222 C1242 1.254 . S
O1223 Gd1176 2.429 . S
O1223 C1242 1.268 . S
O1224 Gd1176 2.545 . S
O1224 C1232 1.250 . S
O1225 Gd1176 2.412 1_554 S
O1225 C1235 1.252 . S
O1226 Gd1177 2.545 . S
O1226 C1244 1.258 . S
O1227 Gd1176 2.362 . S
O1227 Gd1177 2.606 . S
O1227 C1243 1.284 . S
O1228 Gd1176 2.324 1_554 S
O1228 C1251 1.254 . S
O1229 Gd1177 2.429 . S
O1229 C1251 1.268 1_556 S
O1230 Gd1177 2.545 . S
O1230 C1243 1.250 . S
O1231 Gd1177 2.412 . S
O1231 C1244 1.252 . S
C1232 O1221 1.284 . S
C1232 O1224 1.250 . S
C1233 H1202 0.929 . S
C1233 C1218 1.437 . S
C1233 C1234 1.317 . S
C1234 H1205 0.930 . S
C1234 C1210 1.431 . S
C1234 C1233 1.317 . S
C1235 Gd1176 2.828 1_554 S
C1235 O1220 1.258 . S
C1235 O1225 1.252 . S
C1235 C1236 1.497 . S
C1236 C1235 1.497 . S
C1236 C1237 1.395 . S
C1236 C1238 1.380 . S
C1237 C1236 1.395 . S
C1237 C1240 1.398 . S
C1237 H1252 0.930 . S
C1238 C1236 1.380 . S
C1238 C1239 1.391 . S
C1238 H1253 0.930 . S
C1239 C1238 1.391 . S
C1239 C1241 1.387 . S
C1240 C1237 1.398 . S
C1240 C1241 1.380 . S
C1240 H1254 0.930 . S
C1241 C1239 1.387 . S
C1241 C1240 1.380 . S
C1241 H1255 0.930 . S
C1242 O1222 1.254 . S
C1242 O1223 1.268 . S
C1243 O1227 1.284 . S
C1243 O1230 1.250 . S
C1244 Gd1177 2.828 . S
C1244 O1226 1.258 . S
C1244 O1231 1.252 . S
C1244 C1245 1.497 . S
C1245 C1244 1.497 . S
C1245 C1246 1.395 . S
C1245 C1247 1.380 . S
C1246 C1245 1.395 . S
C1246 C1249 1.398 . S
C1246 H1256 0.930 . S
C1247 C1245 1.380 . S
C1247 C1248 1.391 . S
C1247 H1257 0.930 . S
C1248 C1247 1.391 . S
C1248 C1250 1.387 . S
C1249 C1246 1.398 . S
C1249 C1250 1.380 . S
C1249 H1258 0.930 . S
C1250 C1248 1.387 . S
C1250 C1249 1.380 . S
C1250 H1259 0.930 . S
C1251 O1228 1.254 . S
C1251 O1229 1.268 1_554 S
H1252 C1237 0.930 . S
H1253 C1238 0.930 . S
H1254 C1240 0.930 . S
H1255 C1241 0.930 . S
H1256 C1246 0.930 . S
H1257 C1247 0.930 . S
H1258 C1249 0.930 . S
H1259 C1250 0.930 . S
Gd1260 N1291 2.661 . S
Gd1260 N1297 2.601 . S
Gd1260 O1304 2.545 . S
Gd1260 O1305 2.606 . S
Gd1260 O1307 2.429 . S
Gd1260 O1308 2.545 . S
Gd1260 O1309 2.412 . S
Gd1260 O1311 2.362 . S
Gd1260 O1312 2.324 . S
Gd1260 C1319 2.828 . S
Gd1261 N1270 2.661 . S
Gd1261 N1274 2.601 . S
Gd1261 O1305 2.362 . S
Gd1261 O1306 2.324 . S
Gd1261 O1310 2.545 . S
Gd1261 O1311 2.606 . S
Gd1261 O1313 2.429 . S
Gd1261 O1314 2.545 . S
Gd1261 O1315 2.412 . S
Gd1261 C1328 2.828 . S
C1262 C1265 1.417 . S
C1262 C1267 1.431 . S
C1262 C1268 1.412 . S
C1263 C1266 1.437 . S
C1263 C1267 1.317 . S
C1263 H1282 0.929 . S
C1264 C1265 1.426 . S
C1264 C1266 1.413 . S
C1264 N1274 1.359 . S
C1265 C1262 1.417 . S
C1265 C1264 1.426 . S
C1265 N1270 1.350 . S
C1266 C1263 1.437 . S
C1266 C1264 1.413 . S
C1266 C1276 1.391 . S
C1267 C1262 1.431 . S
C1267 C1263 1.317 . S
C1267 H1278 0.930 . S
C1268 C1262 1.412 . S
C1268 C1269 1.355 . S
C1268 H1280 0.930 . S
C1269 C1268 1.355 . S
C1269 C1271 1.402 . S
C1269 H1281 0.930 . S
N1270 Gd1261 2.661 . S
N1270 C1265 1.350 . S
N1270 C1271 1.307 . S
C1271 C1269 1.402 . S
C1271 N1270 1.307 . S
C1271 H1272 0.930 . S
H1272 C1271 0.930 . S
C1273 N1274 1.334 . S
C1273 C1275 1.394 . S
C1273 H1277 0.930 . S
N1274 Gd1261 2.601 . S
N1274 C1264 1.359 . S
N1274 C1273 1.334 . S
C1275 C1273 1.394 . S
C1275 C1276 1.359 . S
C1275 H1287 0.930 . S
C1276 C1266 1.391 . S
C1276 C1275 1.359 . S
C1276 H1288 0.929 . S
H1277 C1273 0.930 . S
H1278 C1267 0.930 . S
H1279 C1296 0.930 . S
H1280 C1268 0.930 . S
H1281 C1269 0.930 . S
H1282 C1263 0.929 . S
H1283 C1301 0.930 . S
H1284 C1292 0.930 . S
H1285 C1293 0.930 . S
H1286 C1317 0.929 . S
H1287 C1275 0.930 . S
H1288 C1276 0.929 . S
H1289 C1318 0.930 . S
H1290 C1299 0.930 . S
N1291 Gd1260 2.661 . S
N1291 C1295 1.350 . S
N1291 C1296 1.307 . S
C1292 H1284 0.930 . S
C1292 C1293 1.355 . S
C1292 C1294 1.412 . S
C1293 H1285 0.930 . S
C1293 C1292 1.355 . S
C1293 C1296 1.402 . S
C1294 C1292 1.412 . S
C1294 C1295 1.417 . S
C1294 C1318 1.431 . S
C1295 N1291 1.350 . S
C1295 C1294 1.417 . S
C1295 C1298 1.426 . S
C1296 H1279 0.930 . S
C1296 N1291 1.307 . S
C1296 C1293 1.402 . S
N1297 Gd1260 2.601 . S
N1297 C1298 1.359 . S
N1297 C1301 1.334 . S
C1298 C1295 1.426 . S
C1298 N1297 1.359 . S
C1298 C1302 1.413 . S
C1299 H1290 0.930 . S
C1299 C1300 1.359 . S
C1299 C1301 1.394 . S
C1300 C1299 1.359 . S
C1300 C1302 1.391 . S
C1300 H1303 0.929 . S
C1301 H1283 0.930 . S
C1301 N1297 1.334 . S
C1301 C1299 1.394 . S
C1302 C1298 1.413 . S
C1302 C1300 1.391 . S
C1302 C1317 1.437 . S
H1303 C1300 0.929 . S
O1304 Gd1260 2.545 . S
O1304 C1319 1.258 . S
O1305 Gd1260 2.606 . S
O1305 Gd1261 2.362 . S
O1305 C1316 1.284 . S
O1306 Gd1261 2.324 . S
O1306 C1326 1.254 . S
O1307 Gd1260 2.429 . S
O1307 C1326 1.268 . S
O1308 Gd1260 2.545 . S
O1308 C1316 1.250 . S
O1309 Gd1260 2.412 . S
O1309 C1319 1.252 . S
O1310 Gd1261 2.545 . S
O1310 C1328 1.258 . S
O1311 Gd1260 2.362 . S
O1311 Gd1261 2.606 . S
O1311 C1327 1.284 . S
O1312 Gd1260 2.324 . S
O1312 C1335 1.254 . S
O1313 Gd1261 2.429 . S
O1313 C1335 1.268 . S
O1314 Gd1261 2.545 . S
O1314 C1327 1.250 . S
O1315 Gd1261 2.412 . S
O1315 C1328 1.252 . S
C1316 O1305 1.284 . S
C1316 O1308 1.250 . S
C1317 H1286 0.929 . S
C1317 C1302 1.437 . S
C1317 C1318 1.317 . S
C1318 H1289 0.930 . S
C1318 C1294 1.431 . S
C1318 C1317 1.317 . S
C1319 Gd1260 2.828 . S
C1319 O1304 1.258 . S
C1319 O1309 1.252 . S
C1319 C1320 1.497 . S
C1320 C1319 1.497 . S
C1320 C1321 1.395 . S
C1320 C1322 1.380 . S
C1321 C1320 1.395 . S
C1321 C1324 1.398 . S
C1321 H1336 0.930 . S
C1322 C1320 1.380 . S
C1322 C1323 1.391 . S
C1322 H1337 0.930 . S
C1323 C1322 1.391 . S
C1323 C1325 1.387 . S
C1324 C1321 1.398 . S
C1324 C1325 1.380 . S
C1324 H1338 0.930 . S
C1325 C1323 1.387 . S
C1325 C1324 1.380 . S
C1325 H1339 0.930 . S
C1326 O1306 1.254 . S
C1326 O1307 1.268 . S
C1327 O1311 1.284 . S
C1327 O1314 1.250 . S
C1328 Gd1261 2.828 . S
C1328 O1310 1.258 . S
C1328 O1315 1.252 . S
C1328 C1329 1.497 . S
C1329 C1328 1.497 . S
C1329 C1330 1.395 . S
C1329 C1331 1.380 . S
C1330 C1329 1.395 . S
C1330 C1333 1.398 . S
C1330 H1340 0.930 . S
C1331 C1329 1.380 . S
C1331 C1332 1.391 . S
C1331 H1341 0.930 . S
C1332 C1331 1.391 . S
C1332 C1334 1.387 . S
C1333 C1330 1.398 . S
C1333 C1334 1.380 . S
C1333 H1342 0.930 . S
C1334 C1332 1.387 . S
C1334 C1333 1.380 . S
C1334 H1343 0.930 . S
C1335 O1312 1.254 . S
C1335 O1313 1.268 . S
H1336 C1321 0.930 . S
H1337 C1322 0.930 . S
H1338 C1324 0.930 . S
H1339 C1325 0.930 . S
H1340 C1330 0.930 . S
H1341 C1331 0.930 . S
H1342 C1333 0.930 . S
H1343 C1334 0.930 . S
C1344 C1345 1.391 . S
C1344 C1346 1.394 . S
C1344 H1360 0.931 . S
C1345 C1344 1.391 . S
C1345 C1349 1.376 . S
C1346 C1344 1.394 . S
C1346 C1347 1.369 . S
C1346 C1350 1.531 1_554 S
C1347 C1346 1.369 . S
C1347 C1348 1.410 . S
C1347 C1355 1.503 . S
C1348 C1347 1.410 . S
C1348 C1349 1.392 . S
C1348 C1351 1.511 . S
C1349 C1345 1.376 . S
C1349 C1348 1.392 . S
C1349 H1361 0.929 . S
C1350 C1346 1.531 1_556 S
C1350 H1362 0.960 . S
C1350 H1363 0.962 . S
C1350 H1364 0.960 . S
C1351 C1348 1.511 . S
C1351 H1365 0.961 . S
C1351 H1366 0.961 . S
C1351 H1367 0.961 . S
C1352 C1353 1.370 . S
C1352 C1354 1.363 . S
C1352 H1368 0.931 . S
C1353 C1352 1.370 . S
C1353 C1357 1.408 . S
C1354 C1352 1.363 . S
C1354 C1355 1.370 . S
C1354 C1358 1.524 . S
C1355 C1347 1.503 . S
C1355 C1354 1.370 . S
C1355 C1356 1.403 . S
C1356 C1355 1.403 . S
C1356 C1357 1.404 . S
C1356 C1359 1.539 . S
C1357 C1353 1.408 . S
C1357 C1356 1.404 . S
C1357 H1369 0.930 . S
C1358 C1354 1.524 . S
C1358 H1370 0.956 . S
C1358 H1371 0.961 . S
C1358 H1372 0.961 . S
C1359 C1356 1.539 . S
C1359 H1373 0.958 1_554 S
C1359 H1374 0.961 . S
C1359 H1375 0.960 . S
H1360 C1344 0.931 . S
H1361 C1349 0.929 . S
H1362 C1350 0.960 . S
H1363 C1350 0.962 . S
H1364 C1350 0.960 . S
H1365 C1351 0.961 . S
H1366 C1351 0.961 . S
H1367 C1351 0.961 . S
H1368 C1352 0.931 . S
H1369 C1357 0.930 . S
H1370 C1358 0.956 . S
H1371 C1358 0.961 . S
H1372 C1358 0.961 . S
H1373 C1359 0.958 1_556 S
H1374 C1359 0.961 . S
H1375 C1359 0.960 . S
C1376 C1377 1.391 . S
C1376 C1378 1.394 . S
C1376 H1392 0.931 . S
C1377 C1376 1.391 . S
C1377 C1381 1.376 . S
C1378 C1376 1.394 . S
C1378 C1379 1.369 . S
C1378 C1382 1.531 . S
C1379 C1378 1.369 . S
C1379 C1380 1.410 . S
C1379 C1387 1.503 . S
C1380 C1379 1.410 . S
C1380 C1381 1.392 . S
C1380 C1383 1.511 . S
C1381 C1377 1.376 . S
C1381 C1380 1.392 . S
C1381 H1393 0.929 . S
C1382 C1378 1.531 . S
C1382 H1394 0.960 . S
C1382 H1395 0.962 . S
C1382 H1396 0.960 . S
C1383 C1380 1.511 . S
C1383 H1397 0.961 . S
C1383 H1398 0.961 . S
C1383 H1399 0.961 . S
C1384 C1385 1.370 . S
C1384 C1386 1.363 . S
C1384 H1400 0.931 . S
C1385 C1384 1.370 . S
C1385 C1389 1.408 . S
C1386 C1384 1.363 . S
C1386 C1387 1.370 . S
C1386 C1390 1.524 . S
C1387 C1379 1.503 . S
C1387 C1386 1.370 . S
C1387 C1388 1.403 . S
C1388 C1387 1.403 . S
C1388 C1389 1.404 . S
C1388 C1391 1.539 . S
C1389 C1385 1.408 . S
C1389 C1388 1.404 . S
C1389 H1401 0.930 . S
C1390 C1386 1.524 . S
C1390 H1402 0.956 . S
C1390 H1403 0.961 . S
C1390 H1404 0.961 . S
C1391 C1388 1.539 . S
C1391 H1405 0.958 . S
C1391 H1406 0.961 . S
C1391 H1407 0.960 . S
H1392 C1376 0.931 . S
H1393 C1381 0.929 . S
H1394 C1382 0.960 . S
H1395 C1382 0.962 . S
H1396 C1382 0.960 . S
H1397 C1383 0.961 . S
H1398 C1383 0.961 . S
H1399 C1383 0.961 . S
H1400 C1384 0.931 . S
H1401 C1389 0.930 . S
H1402 C1390 0.956 . S
H1403 C1390 0.961 . S
H1404 C1390 0.961 . S
H1405 C1391 0.958 . S
H1406 C1391 0.961 . S
H1407 C1391 0.960 . S
C1408 C1409 1.391 . S
C1408 C1410 1.394 . S
C1408 H1424 0.931 . S
C1409 C1408 1.391 . S
C1409 C1413 1.376 . S
C1410 C1408 1.394 . S
C1410 C1411 1.369 . S
C1410 C1414 1.531 . S
C1411 C1410 1.369 . S
C1411 C1412 1.410 . S
C1411 C1419 1.503 1_455 S
C1412 C1411 1.410 . S
C1412 C1413 1.392 . S
C1412 C1415 1.511 . S
C1413 C1409 1.376 . S
C1413 C1412 1.392 . S
C1413 H1425 0.929 . S
C1414 C1410 1.531 . S
C1414 H1426 0.960 . S
C1414 H1427 0.962 . S
C1414 H1428 0.960 . S
C1415 C1412 1.511 . S
C1415 H1429 0.961 . S
C1415 H1430 0.961 1_455 S
C1415 H1431 0.961 . S
C1416 C1417 1.370 . S
C1416 C1418 1.363 . S
C1416 H1432 0.931 . S
C1417 C1416 1.370 . S
C1417 C1421 1.408 . S
C1418 C1416 1.363 . S
C1418 C1419 1.370 . S
C1418 C1422 1.524 . S
C1419 C1411 1.503 1_655 S
C1419 C1418 1.370 . S
C1419 C1420 1.403 . S
C1420 C1419 1.403 . S
C1420 C1421 1.404 . S
C1420 C1423 1.539 1_655 S
C1421 C1417 1.408 . S
C1421 C1420 1.404 . S
C1421 H1433 0.930 . S
C1422 C1418 1.524 . S
C1422 H1434 0.956 . S
C1422 H1435 0.961 . S
C1422 H1436 0.961 . S
C1423 C1420 1.539 1_455 S
C1423 H1437 0.958 . S
C1423 H1438 0.961 . S
C1423 H1439 0.960 . S
H1424 C1408 0.931 . S
H1425 C1413 0.929 . S
H1426 C1414 0.960 . S
H1427 C1414 0.962 . S
H1428 C1414 0.960 . S
H1429 C1415 0.961 . S
H1430 C1415 0.961 1_655 S
H1431 C1415 0.961 . S
H1432 C1416 0.931 . S
H1433 C1421 0.930 . S
H1434 C1422 0.956 . S
H1435 C1422 0.961 . S
H1436 C1422 0.961 . S
H1437 C1423 0.958 . S
H1438 C1423 0.961 . S
H1439 C1423 0.960 . S
C1440 C1441 1.391 . S
C1440 C1442 1.394 . S
C1440 H1456 0.931 . S
C1441 C1440 1.391 . S
C1441 C1445 1.376 . S
C1442 C1440 1.394 . S
C1442 C1443 1.369 . S
C1442 C1446 1.531 1_655 S
C1443 C1442 1.369 . S
C1443 C1444 1.410 . S
C1443 C1451 1.503 1_655 S
C1444 C1443 1.410 . S
C1444 C1445 1.392 . S
C1444 C1447 1.511 . S
C1445 C1441 1.376 . S
C1445 C1444 1.392 . S
C1445 H1457 0.929 . S
C1446 C1442 1.531 1_455 S
C1446 H1458 0.960 . S
C1446 H1459 0.962 . S
C1446 H1460 0.960 . S
C1447 C1444 1.511 . S
C1447 H1461 0.961 . S
C1447 H1462 0.961 . S
C1447 H1463 0.961 . S
C1448 C1449 1.370 . S
C1448 C1450 1.363 . S
C1448 H1464 0.931 . S
C1449 C1448 1.370 . S
C1449 C1453 1.408 . S
C1450 C1448 1.363 . S
C1450 C1451 1.370 . S
C1450 C1454 1.524 . S
C1451 C1443 1.503 1_455 S
C1451 C1450 1.370 . S
C1451 C1452 1.403 . S
C1452 C1451 1.403 . S
C1452 C1453 1.404 . S
C1452 C1455 1.539 . S
C1453 C1449 1.408 . S
C1453 C1452 1.404 . S
C1453 H1465 0.930 . S
C1454 C1450 1.524 . S
C1454 H1466 0.956 . S
C1454 H1467 0.961 1_455 S
C1454 H1468 0.961 . S
C1455 C1452 1.539 . S
C1455 H1469 0.958 . S
C1455 H1470 0.961 . S
C1455 H1471 0.960 1_455 S
H1456 C1440 0.931 . S
H1457 C1445 0.929 . S
H1458 C1446 0.960 . S
H1459 C1446 0.962 . S
H1460 C1446 0.960 . S
H1461 C1447 0.961 . S
H1462 C1447 0.961 . S
H1463 C1447 0.961 . S
H1464 C1448 0.931 . S
H1465 C1453 0.930 . S
H1466 C1454 0.956 . S
H1467 C1454 0.961 1_655 S
H1468 C1454 0.961 . S
H1469 C1455 0.958 . S
H1470 C1455 0.961 . S
H1471 C1455 0.960 1_655 S
C1472 C1473 1.391 . S
C1472 C1474 1.394 . S
C1472 H1488 0.931 . S
C1473 C1472 1.391 . S
C1473 C1477 1.376 . S
C1474 C1472 1.394 . S
C1474 C1475 1.369 . S
C1474 C1478 1.531 . S
C1475 C1474 1.369 . S
C1475 C1476 1.410 . S
C1475 C1483 1.503 . S
C1476 C1475 1.410 . S
C1476 C1477 1.392 . S
C1476 C1479 1.511 . S
C1477 C1473 1.376 . S
C1477 C1476 1.392 . S
C1477 H1489 0.929 . S
C1478 C1474 1.531 . S
C1478 H1490 0.960 . S
C1478 H1491 0.962 . S
C1478 H1492 0.960 . S
C1479 C1476 1.511 . S
C1479 H1493 0.961 . S
C1479 H1494 0.961 . S
C1479 H1495 0.961 . S
C1480 C1481 1.370 . S
C1480 C1482 1.363 . S
C1480 H1496 0.931 . S
C1481 C1480 1.370 . S
C1481 C1485 1.408 . S
C1482 C1480 1.363 . S
C1482 C1483 1.370 . S
C1482 C1486 1.524 . S
C1483 C1475 1.503 . S
C1483 C1482 1.370 . S
C1483 C1484 1.403 . S
C1484 C1483 1.403 . S
C1484 C1485 1.404 . S
C1484 C1487 1.539 . S
C1485 C1481 1.408 . S
C1485 C1484 1.404 . S
C1485 H1497 0.930 . S
C1486 C1482 1.524 . S
C1486 H1498 0.956 . S
C1486 H1499 0.961 1_556 S
C1486 H1500 0.961 1_556 S
C1487 C1484 1.539 . S
C1487 H1501 0.958 . S
C1487 H1502 0.961 . S
C1487 H1503 0.960 . S
H1488 C1472 0.931 . S
H1489 C1477 0.929 . S
H1490 C1478 0.960 . S
H1491 C1478 0.962 . S
H1492 C1478 0.960 . S
H1493 C1479 0.961 . S
H1494 C1479 0.961 . S
H1495 C1479 0.961 . S
H1496 C1480 0.931 . S
H1497 C1485 0.930 . S
H1498 C1486 0.956 . S
H1499 C1486 0.961 1_554 S
H1500 C1486 0.961 1_554 S
H1501 C1487 0.958 . S
H1502 C1487 0.961 . S
H1503 C1487 0.960 . S
C1504 C1505 1.391 . S
C1504 C1506 1.394 . S
C1504 H1520 0.931 . S
C1505 C1504 1.391 . S
C1505 C1509 1.376 . S
C1506 C1504 1.394 . S
C1506 C1507 1.369 . S
C1506 C1510 1.531 . S
C1507 C1506 1.369 . S
C1507 C1508 1.410 . S
C1507 C1515 1.503 . S
C1508 C1507 1.410 . S
C1508 C1509 1.392 . S
C1508 C1511 1.511 . S
C1509 C1505 1.376 . S
C1509 C1508 1.392 . S
C1509 H1521 0.929 . S
C1510 C1506 1.531 . S
C1510 H1522 0.960 . S
C1510 H1523 0.962 . S
C1510 H1524 0.960 . S
C1511 C1508 1.511 . S
C1511 H1525 0.961 . S
C1511 H1526 0.961 . S
C1511 H1527 0.961 . S
C1512 C1513 1.370 . S
C1512 C1514 1.363 . S
C1512 H1528 0.931 . S
C1513 C1512 1.370 . S
C1513 C1517 1.408 . S
C1514 C1512 1.363 . S
C1514 C1515 1.370 . S
C1514 C1518 1.524 . S
C1515 C1507 1.503 . S
C1515 C1514 1.370 . S
C1515 C1516 1.403 . S
C1516 C1515 1.403 . S
C1516 C1517 1.404 . S
C1516 C1519 1.539 . S
C1517 C1513 1.408 . S
C1517 C1516 1.404 . S
C1517 H1529 0.930 . S
C1518 C1514 1.524 . S
C1518 H1530 0.956 . S
C1518 H1531 0.961 . S
C1518 H1532 0.961 . S
C1519 C1516 1.539 . S
C1519 H1533 0.958 . S
C1519 H1534 0.961 . S
C1519 H1535 0.960 . S
H1520 C1504 0.931 . S
H1521 C1509 0.929 . S
H1522 C1510 0.960 . S
H1523 C1510 0.962 . S
H1524 C1510 0.960 . S
H1525 C1511 0.961 . S
H1526 C1511 0.961 . S
H1527 C1511 0.961 . S
H1528 C1512 0.931 . S
H1529 C1517 0.930 . S
H1530 C1518 0.956 . S
H1531 C1518 0.961 . S
H1532 C1518 0.961 . S
H1533 C1519 0.958 . S
H1534 C1519 0.961 . S
H1535 C1519 0.960 . S
C1536 C1537 1.391 . S
C1536 C1538 1.394 . S
C1536 H1552 0.931 . S
C1537 C1536 1.391 . S
C1537 C1541 1.376 . S
C1538 C1536 1.394 . S
C1538 C1539 1.369 . S
C1538 C1542 1.531 . S
C1539 C1538 1.369 . S
C1539 C1540 1.410 . S
C1539 C1547 1.503 1_655 S
C1540 C1539 1.410 . S
C1540 C1541 1.392 . S
C1540 C1543 1.511 1_655 S
C1541 C1537 1.376 . S
C1541 C1540 1.392 . S
C1541 H1553 0.929 . S
C1542 C1538 1.531 . S
C1542 H1554 0.960 . S
C1542 H1555 0.962 . S
C1542 H1556 0.960 . S
C1543 C1540 1.511 1_455 S
C1543 H1557 0.961 . S
C1543 H1558 0.961 . S
C1543 H1559 0.961 . S
C1544 C1545 1.370 . S
C1544 C1546 1.363 . S
C1544 H1560 0.931 . S
C1545 C1544 1.370 . S
C1545 C1549 1.408 . S
C1546 C1544 1.363 . S
C1546 C1547 1.370 . S
C1546 C1550 1.524 1_455 S
C1547 C1539 1.503 1_455 S
C1547 C1546 1.370 . S
C1547 C1548 1.403 . S
C1548 C1547 1.403 . S
C1548 C1549 1.404 . S
C1548 C1551 1.539 . S
C1549 C1545 1.408 . S
C1549 C1548 1.404 . S
C1549 H1561 0.930 . S
C1550 C1546 1.524 1_655 S
C1550 H1562 0.956 . S
C1550 H1563 0.961 . S
C1550 H1564 0.961 1_655 S
C1551 C1548 1.539 . S
C1551 H1565 0.958 . S
C1551 H1566 0.961 . S
C1551 H1567 0.960 . S
H1552 C1536 0.931 . S
H1553 C1541 0.929 . S
H1554 C1542 0.960 . S
H1555 C1542 0.962 . S
H1556 C1542 0.960 . S
H1557 C1543 0.961 . S
H1558 C1543 0.961 . S
H1559 C1543 0.961 . S
H1560 C1544 0.931 . S
H1561 C1549 0.930 . S
H1562 C1550 0.956 . S
H1563 C1550 0.961 . S
H1564 C1550 0.961 1_455 S
H1565 C1551 0.958 . S
H1566 C1551 0.961 . S
H1567 C1551 0.960 . S
C1568 C1569 1.391 . S
C1568 C1570 1.394 . S
C1568 H1584 0.931 . S
C1569 C1568 1.391 . S
C1569 C1573 1.376 . S
C1570 C1568 1.394 . S
C1570 C1571 1.369 . S
C1570 C1574 1.531 . S
C1571 C1570 1.369 . S
C1571 C1572 1.410 . S
C1571 C1579 1.503 1_455 S
C1572 C1571 1.410 . S
C1572 C1573 1.392 . S
C1572 C1575 1.511 1_455 S
C1573 C1569 1.376 . S
C1573 C1572 1.392 . S
C1573 H1585 0.929 . S
C1574 C1570 1.531 . S
C1574 H1586 0.960 1_455 S
C1574 H1587 0.962 . S
C1574 H1588 0.960 . S
C1575 C1572 1.511 1_655 S
C1575 H1589 0.961 1_655 S
C1575 H1590 0.961 . S
C1575 H1591 0.961 . S
C1576 C1577 1.370 . S
C1576 C1578 1.363 . S
C1576 H1592 0.931 . S
C1577 C1576 1.370 . S
C1577 C1581 1.408 . S
C1578 C1576 1.363 . S
C1578 C1579 1.370 . S
C1578 C1582 1.524 1_655 S
C1579 C1571 1.503 1_655 S
C1579 C1578 1.370 . S
C1579 C1580 1.403 . S
C1580 C1579 1.403 . S
C1580 C1581 1.404 . S
C1580 C1583 1.539 . S
C1581 C1577 1.408 . S
C1581 C1580 1.404 . S
C1581 H1593 0.930 . S
C1582 C1578 1.524 1_455 S
C1582 H1594 0.956 . S
C1582 H1595 0.961 . S
C1582 H1596 0.961 . S
C1583 C1580 1.539 . S
C1583 H1597 0.958 . S
C1583 H1598 0.961 . S
C1583 H1599 0.960 . S
H1584 C1568 0.931 . S
H1585 C1573 0.929 . S
H1586 C1574 0.960 1_655 S
H1587 C1574 0.962 . S
H1588 C1574 0.960 . S
H1589 C1575 0.961 1_455 S
H1590 C1575 0.961 . S
H1591 C1575 0.961 . S
H1592 C1576 0.931 . S
H1593 C1581 0.930 . S
H1594 C1582 0.956 . S
H1595 C1582 0.961 . S
H1596 C1582 0.961 . S
H1597 C1583 0.958 . S
H1598 C1583 0.961 . S
H1599 C1583 0.960 . S
C1600 C1601 1.391 . S
C1600 C1602 1.394 . S
C1600 H1616 0.931 . S
C1601 C1600 1.391 . S
C1601 C1605 1.376 . S
C1602 C1600 1.394 . S
C1602 C1603 1.369 . S
C1602 C1606 1.531 . S
C1603 C1602 1.369 . S
C1603 C1604 1.410 . S
C1603 C1611 1.503 . S
C1604 C1603 1.410 . S
C1604 C1605 1.392 . S
C1604 C1607 1.511 . S
C1605 C1601 1.376 . S
C1605 C1604 1.392 . S
C1605 H1617 0.929 . S
C1606 C1602 1.531 . S
C1606 H1618 0.960 . S
C1606 H1619 0.962 . S
C1606 H1620 0.960 . S
C1607 C1604 1.511 . S
C1607 H1621 0.961 . S
C1607 H1622 0.961 . S
C1607 H1623 0.961 . S
C1608 C1609 1.370 . S
C1608 C1610 1.363 . S
C1608 H1624 0.931 1_556 S
C1609 C1608 1.370 . S
C1609 C1613 1.408 . S
C1610 C1608 1.363 . S
C1610 C1611 1.370 . S
C1610 C1614 1.524 . S
C1611 C1603 1.503 . S
C1611 C1610 1.370 . S
C1611 C1612 1.403 . S
C1612 C1611 1.403 . S
C1612 C1613 1.404 . S
C1612 C1615 1.539 . S
C1613 C1609 1.408 . S
C1613 C1612 1.404 . S
C1613 H1625 0.930 . S
C1614 C1610 1.524 . S
C1614 H1626 0.956 . S
C1614 H1627 0.961 . S
C1614 H1628 0.961 . S
C1615 C1612 1.539 . S
C1615 H1629 0.958 . S
C1615 H1630 0.961 . S
C1615 H1631 0.960 . S
H1616 C1600 0.931 . S
H1617 C1605 0.929 . S
H1618 C1606 0.960 . S
H1619 C1606 0.962 . S
H1620 C1606 0.960 . S
H1621 C1607 0.961 . S
H1622 C1607 0.961 . S
H1623 C1607 0.961 . S
H1624 C1608 0.931 1_554 S
H1625 C1613 0.930 . S
H1626 C1614 0.956 . S
H1627 C1614 0.961 . S
H1628 C1614 0.961 . S
H1629 C1615 0.958 . S
H1630 C1615 0.961 . S
H1631 C1615 0.960 . S
C1632 C1633 1.391 . S
C1632 C1634 1.394 . S
C1632 H1648 0.931 . S
C1633 C1632 1.391 . S
C1633 C1637 1.376 . S
C1634 C1632 1.394 . S
C1634 C1635 1.369 . S
C1634 C1638 1.531 . S
C1635 C1634 1.369 . S
C1635 C1636 1.410 . S
C1635 C1643 1.503 . S
C1636 C1635 1.410 . S
C1636 C1637 1.392 . S
C1636 C1639 1.511 . S
C1637 C1633 1.376 . S
C1637 C1636 1.392 . S
C1637 H1649 0.929 . S
C1638 C1634 1.531 . S
C1638 H1650 0.960 . S
C1638 H1651 0.962 . S
C1638 H1652 0.960 . S
C1639 C1636 1.511 . S
C1639 H1653 0.961 . S
C1639 H1654 0.961 . S
C1639 H1655 0.961 . S
C1640 C1641 1.370 . S
C1640 C1642 1.363 . S
C1640 H1656 0.931 . S
C1641 C1640 1.370 . S
C1641 C1645 1.408 . S
C1642 C1640 1.363 . S
C1642 C1643 1.370 . S
C1642 C1646 1.524 . S
C1643 C1635 1.503 . S
C1643 C1642 1.370 . S
C1643 C1644 1.403 . S
C1644 C1643 1.403 . S
C1644 C1645 1.404 . S
C1644 C1647 1.539 . S
C1645 C1641 1.408 . S
C1645 C1644 1.404 . S
C1645 H1657 0.930 . S
C1646 C1642 1.524 . S
C1646 H1658 0.956 . S
C1646 H1659 0.961 . S
C1646 H1660 0.961 . S
C1647 C1644 1.539 . S
C1647 H1661 0.958 . S
C1647 H1662 0.961 . S
C1647 H1663 0.960 . S
H1648 C1632 0.931 . S
H1649 C1637 0.929 . S
H1650 C1638 0.960 . S
H1651 C1638 0.962 . S
H1652 C1638 0.960 . S
H1653 C1639 0.961 . S
H1654 C1639 0.961 . S
H1655 C1639 0.961 . S
H1656 C1640 0.931 . S
H1657 C1645 0.930 . S
H1658 C1646 0.956 . S
H1659 C1646 0.961 . S
H1660 C1646 0.961 . S
H1661 C1647 0.958 . S
H1662 C1647 0.961 . S
H1663 C1647 0.960 . S
C1664 C1665 1.391 . S
C1664 C1666 1.394 . S
C1664 H1680 0.931 . S
C1665 C1664 1.391 . S
C1665 C1669 1.376 . S
C1666 C1664 1.394 . S
C1666 C1667 1.369 . S
C1666 C1670 1.531 . S
C1667 C1666 1.369 . S
C1667 C1668 1.410 . S
C1667 C1675 1.503 . S
C1668 C1667 1.410 . S
C1668 C1669 1.392 . S
C1668 C1671 1.511 . S
C1669 C1665 1.376 . S
C1669 C1668 1.392 . S
C1669 H1681 0.929 . S
C1670 C1666 1.531 . S
C1670 H1682 0.960 . S
C1670 H1683 0.962 . S
C1670 H1684 0.960 . S
C1671 C1668 1.511 . S
C1671 H1685 0.961 . S
C1671 H1686 0.961 . S
C1671 H1687 0.961 . S
C1672 C1673 1.370 . S
C1672 C1674 1.363 . S
C1672 H1688 0.931 . S
C1673 C1672 1.370 . S
C1673 C1677 1.408 . S
C1674 C1672 1.363 . S
C1674 C1675 1.370 . S
C1674 C1678 1.524 . S
C1675 C1667 1.503 . S
C1675 C1674 1.370 . S
C1675 C1676 1.403 . S
C1676 C1675 1.403 . S
C1676 C1677 1.404 . S
C1676 C1679 1.539 . S
C1677 C1673 1.408 . S
C1677 C1676 1.404 . S
C1677 H1689 0.930 . S
C1678 C1674 1.524 . S
C1678 H1690 0.956 . S
C1678 H1691 0.961 . S
C1678 H1692 0.961 . S
C1679 C1676 1.539 . S
C1679 H1693 0.958 . S
C1679 H1694 0.961 . S
C1679 H1695 0.960 . S
H1680 C1664 0.931 . S
H1681 C1669 0.929 . S
H1682 C1670 0.960 . S
H1683 C1670 0.962 . S
H1684 C1670 0.960 . S
H1685 C1671 0.961 . S
H1686 C1671 0.961 . S
H1687 C1671 0.961 . S
H1688 C1672 0.931 . S
H1689 C1677 0.930 . S
H1690 C1678 0.956 . S
H1691 C1678 0.961 . S
H1692 C1678 0.961 . S
H1693 C1679 0.958 . S
H1694 C1679 0.961 . S
H1695 C1679 0.960 . S
C1696 C1697 1.391 . S
C1696 C1698 1.394 . S
C1696 H1712 0.931 . S
C1697 C1696 1.391 . S
C1697 C1701 1.376 . S
C1698 C1696 1.394 . S
C1698 C1699 1.369 . S
C1698 C1702 1.531 . S
C1699 C1698 1.369 . S
C1699 C1700 1.410 . S
C1699 C1707 1.503 . S
C1700 C1699 1.410 . S
C1700 C1701 1.392 . S
C1700 C1703 1.511 . S
C1701 C1697 1.376 . S
C1701 C1700 1.392 . S
C1701 H1713 0.929 . S
C1702 C1698 1.531 . S
C1702 H1714 0.960 . S
C1702 H1715 0.962 . S
C1702 H1716 0.960 . S
C1703 C1700 1.511 . S
C1703 H1717 0.961 . S
C1703 H1718 0.961 . S
C1703 H1719 0.961 . S
C1704 C1705 1.370 . S
C1704 C1706 1.363 . S
C1704 H1720 0.931 . S
C1705 C1704 1.370 . S
C1705 C1709 1.408 . S
C1706 C1704 1.363 . S
C1706 C1707 1.370 . S
C1706 C1710 1.524 . S
C1707 C1699 1.503 . S
C1707 C1706 1.370 . S
C1707 C1708 1.403 . S
C1708 C1707 1.403 . S
C1708 C1709 1.404 . S
C1708 C1711 1.539 . S
C1709 C1705 1.408 . S
C1709 C1708 1.404 . S
C1709 H1721 0.930 . S
C1710 C1706 1.524 . S
C1710 H1722 0.956 . S
C1710 H1723 0.961 . S
C1710 H1724 0.961 . S
C1711 C1708 1.539 . S
C1711 H1725 0.958 . S
C1711 H1726 0.961 . S
C1711 H1727 0.960 . S
H1712 C1696 0.931 . S
H1713 C1701 0.929 . S
H1714 C1702 0.960 . S
H1715 C1702 0.962 . S
H1716 C1702 0.960 . S
H1717 C1703 0.961 . S
H1718 C1703 0.961 . S
H1719 C1703 0.961 . S
H1720 C1704 0.931 . S
H1721 C1709 0.930 . S
H1722 C1710 0.956 . S
H1723 C1710 0.961 . S
H1724 C1710 0.961 . S
H1725 C1711 0.958 . S
H1726 C1711 0.961 . S
H1727 C1711 0.960 . S
C1728 C1729 1.391 . S
C1728 C1730 1.394 . S
C1728 H1744 0.931 . S
C1729 C1728 1.391 . S
C1729 C1733 1.376 . S
C1730 C1728 1.394 . S
C1730 C1731 1.369 . S
C1730 C1734 1.531 . S
C1731 C1730 1.369 . S
C1731 C1732 1.410 . S
C1731 C1739 1.503 . S
C1732 C1731 1.410 . S
C1732 C1733 1.392 . S
C1732 C1735 1.511 . S
C1733 C1729 1.376 . S
C1733 C1732 1.392 . S
C1733 H1745 0.910 1_554 S
C1734 C1730 1.531 . S
C1734 H1746 0.960 . S
C1734 H1747 0.962 . S
C1734 H1748 0.960 . S
C1735 C1732 1.511 . S
C1735 H1749 0.961 . S
C1735 H1750 0.961 . S
C1735 H1751 0.961 . S
C1736 C1737 1.370 . S
C1736 C1738 1.363 . S
C1736 H1752 0.931 . S
C1737 C1736 1.370 . S
C1737 C1741 1.408 . S
C1738 C1736 1.363 . S
C1738 C1739 1.370 . S
C1738 C1742 1.524 . S
C1739 C1731 1.503 . S
C1739 C1738 1.370 . S
C1739 C1740 1.403 . S
C1740 C1739 1.403 . S
C1740 C1741 1.404 . S
C1740 C1743 1.539 . S
C1741 C1737 1.408 . S
C1741 C1740 1.404 . S
C1741 H1753 0.930 . S
C1742 C1738 1.524 . S
C1742 H1754 0.956 . S
C1742 H1755 0.961 . S
C1742 H1756 0.961 . S
C1743 C1740 1.539 . S
C1743 H1757 0.958 . S
C1743 H1758 0.961 . S
C1743 H1759 0.960 . S
H1744 C1728 0.931 . S
H1745 C1733 0.910 1_556 S
H1746 C1734 0.960 . S
H1747 C1734 0.962 . S
H1748 C1734 0.960 . S
H1749 C1735 0.961 . S
H1750 C1735 0.961 . S
H1751 C1735 0.961 . S
H1752 C1736 0.931 . S
H1753 C1741 0.930 . S
H1754 C1742 0.956 . S
H1755 C1742 0.961 . S
H1756 C1742 0.961 . S
H1757 C1743 0.958 . S
H1758 C1743 0.961 . S
H1759 C1743 0.960 . S
C1760 C1761 1.391 . S
C1760 C1762 1.394 . S
C1760 H1776 0.931 . S
C1761 C1760 1.391 . S
C1761 C1765 1.376 . S
C1762 C1760 1.394 . S
C1762 C1763 1.369 . S
C1762 C1766 1.531 . S
C1763 C1762 1.369 . S
C1763 C1764 1.410 . S
C1763 C1771 1.503 . S
C1764 C1763 1.410 . S
C1764 C1765 1.392 . S
C1764 C1767 1.511 . S
C1765 C1761 1.376 . S
C1765 C1764 1.392 . S
C1765 H1777 0.929 . S
C1766 C1762 1.531 . S
C1766 H1778 0.960 . S
C1766 H1779 0.962 . S
C1766 H1780 0.960 . S
C1767 C1764 1.511 . S
C1767 H1781 0.961 . S
C1767 H1782 0.961 . S
C1767 H1783 0.961 . S
C1768 C1769 1.370 . S
C1768 C1770 1.363 . S
C1768 H1784 0.931 . S
C1769 C1768 1.370 . S
C1769 C1773 1.408 . S
C1770 C1768 1.363 . S
C1770 C1771 1.370 . S
C1770 C1774 1.524 . S
C1771 C1763 1.503 . S
C1771 C1770 1.370 . S
C1771 C1772 1.403 . S
C1772 C1771 1.403 . S
C1772 C1773 1.404 . S
C1772 C1775 1.539 . S
C1773 C1769 1.408 . S
C1773 C1772 1.404 . S
C1773 H1785 0.930 . S
C1774 C1770 1.524 . S
C1774 H1786 0.956 . S
C1774 H1787 0.961 . S
C1774 H1788 0.961 . S
C1775 C1772 1.539 . S
C1775 H1789 0.958 . S
C1775 H1790 0.961 . S
C1775 H1791 0.960 . S
H1776 C1760 0.931 . S
H1777 C1765 0.929 . S
H1778 C1766 0.960 . S
H1779 C1766 0.962 . S
H1780 C1766 0.960 . S
H1781 C1767 0.961 . S
H1782 C1767 0.961 . S
H1783 C1767 0.961 . S
H1784 C1768 0.931 . S
H1785 C1773 0.930 . S
H1786 C1774 0.956 . S
H1787 C1774 0.961 . S
H1788 C1774 0.961 . S
H1789 C1775 0.958 . S
H1790 C1775 0.961 . S
H1791 C1775 0.960 . S
C1792 C1793 1.391 . S
C1792 C1794 1.394 . S
C1792 H1808 0.931 . S
C1793 C1792 1.391 . S
C1793 C1797 1.376 . S
C1794 C1792 1.394 . S
C1794 C1795 1.369 . S
C1794 C1798 1.531 . S
C1795 C1794 1.369 . S
C1795 C1796 1.410 . S
C1795 C1803 1.503 . S
C1796 C1795 1.410 . S
C1796 C1797 1.392 . S
C1796 C1799 1.511 . S
C1797 C1793 1.376 . S
C1797 C1796 1.392 . S
C1797 H1809 0.929 . S
C1798 C1794 1.531 . S
C1798 H1810 0.960 . S
C1798 H1811 0.962 . S
C1798 H1812 0.960 . S
C1799 C1796 1.511 . S
C1799 H1813 0.961 . S
C1799 H1814 0.961 . S
C1799 H1815 0.961 . S
C1800 C1801 1.370 . S
C1800 C1802 1.363 . S
C1800 H1816 0.931 . S
C1801 C1800 1.370 . S
C1801 C1805 1.408 . S
C1802 C1800 1.363 . S
C1802 C1803 1.370 . S
C1802 C1806 1.524 . S
C1803 C1795 1.503 . S
C1803 C1802 1.370 . S
C1803 C1804 1.403 . S
C1804 C1803 1.403 . S
C1804 C1805 1.404 . S
C1804 C1807 1.539 . S
C1805 C1801 1.408 . S
C1805 C1804 1.404 . S
C1805 H1817 0.930 . S
C1806 C1802 1.524 . S
C1806 H1818 0.956 . S
C1806 H1819 0.961 . S
C1806 H1820 0.961 . S
C1807 C1804 1.539 . S
C1807 H1821 0.958 . S
C1807 H1822 0.961 . S
C1807 H1823 0.960 . S
H1808 C1792 0.931 . S
H1809 C1797 0.929 . S
H1810 C1798 0.960 . S
H1811 C1798 0.962 . S
H1812 C1798 0.960 . S
H1813 C1799 0.961 . S
H1814 C1799 0.961 . S
H1815 C1799 0.961 . S
H1816 C1800 0.931 . S
H1817 C1805 0.930 . S
H1818 C1806 0.956 . S
H1819 C1806 0.961 . S
H1820 C1806 0.961 . S
H1821 C1807 0.958 . S
H1822 C1807 0.961 . S
H1823 C1807 0.960 . S
C1824 C1825 1.391 . S
C1824 C1826 1.394 . S
C1824 H1840 0.931 . S
C1825 C1824 1.391 . S
C1825 C1829 1.376 . S
C1826 C1824 1.394 . S
C1826 C1827 1.369 . S
C1826 C1830 1.531 . S
C1827 C1826 1.369 . S
C1827 C1828 1.410 . S
C1827 C1835 1.503 . S
C1828 C1827 1.410 . S
C1828 C1829 1.392 . S
C1828 C1831 1.511 . S
C1829 C1825 1.376 . S
C1829 C1828 1.392 . S
C1829 H1841 0.929 . S
C1830 C1826 1.531 . S
C1830 H1842 0.960 . S
C1830 H1843 0.962 . S
C1830 H1844 0.960 . S
C1831 C1828 1.511 . S
C1831 H1845 0.961 . S
C1831 H1846 0.961 . S
C1831 H1847 0.961 . S
C1832 C1833 1.370 . S
C1832 C1834 1.363 . S
C1832 H1848 0.931 . S
C1833 C1832 1.370 . S
C1833 C1837 1.408 . S
C1834 C1832 1.363 . S
C1834 C1835 1.370 . S
C1834 C1838 1.524 . S
C1835 C1827 1.503 . S
C1835 C1834 1.370 . S
C1835 C1836 1.403 . S
C1836 C1835 1.403 . S
C1836 C1837 1.404 . S
C1836 C1839 1.539 . S
C1837 C1833 1.408 . S
C1837 C1836 1.404 . S
C1837 H1849 0.930 . S
C1838 C1834 1.524 . S
C1838 H1850 0.956 . S
C1838 H1851 0.961 . S
C1838 H1852 0.961 . S
C1839 C1836 1.539 . S
C1839 H1853 0.958 . S
C1839 H1854 0.961 . S
C1839 H1855 0.960 . S
H1840 C1824 0.931 . S
H1841 C1829 0.929 . S
H1842 C1830 0.960 . S
H1843 C1830 0.962 . S
H1844 C1830 0.960 . S
H1845 C1831 0.961 . S
H1846 C1831 0.961 . S
H1847 C1831 0.961 . S
H1848 C1832 0.931 . S
H1849 C1837 0.930 . S
H1850 C1838 0.956 . S
H1851 C1838 0.961 . S
H1852 C1838 0.961 . S
H1853 C1839 0.958 . S
H1854 C1839 0.961 . S
H1855 C1839 0.960 . S
C1856 C1857 1.391 . S
C1856 C1858 1.394 . S
C1856 H1872 0.931 . S
C1857 C1856 1.391 . S
C1857 C1861 1.376 . S
C1858 C1856 1.394 . S
C1858 C1859 1.369 . S
C1858 C1862 1.531 . S
C1859 C1858 1.369 . S
C1859 C1860 1.410 . S
C1859 C1867 1.503 . S
C1860 C1859 1.410 . S
C1860 C1861 1.392 . S
C1860 C1863 1.511 . S
C1861 C1857 1.376 . S
C1861 C1860 1.392 . S
C1861 H1873 0.929 . S
C1862 C1858 1.531 . S
C1862 H1874 0.960 . S
C1862 H1875 0.962 . S
C1862 H1876 0.960 . S
C1863 C1860 1.511 . S
C1863 H1877 0.961 . S
C1863 H1878 0.961 . S
C1863 H1879 0.961 . S
C1864 C1865 1.370 . S
C1864 C1866 1.363 . S
C1864 H1880 0.931 . S
C1865 C1864 1.370 . S
C1865 C1869 1.408 . S
C1866 C1864 1.363 . S
C1866 C1867 1.370 . S
C1866 C1870 1.524 . S
C1867 C1859 1.503 . S
C1867 C1866 1.370 . S
C1867 C1868 1.403 . S
C1868 C1867 1.403 . S
C1868 C1869 1.404 . S
C1868 C1871 1.539 . S
C1869 C1865 1.408 . S
C1869 C1868 1.404 . S
C1869 H1881 0.930 . S
C1870 C1866 1.524 . S
C1870 H1882 0.956 . S
C1870 H1883 0.961 . S
C1870 H1884 0.961 . S
C1871 C1868 1.539 . S
C1871 H1885 0.958 . S
C1871 H1886 0.961 . S
C1871 H1887 0.960 . S
H1872 C1856 0.931 . S
H1873 C1861 0.929 . S
H1874 C1862 0.960 . S
H1875 C1862 0.962 . S
H1876 C1862 0.960 . S
H1877 C1863 0.961 . S
H1878 C1863 0.961 . S
H1879 C1863 0.961 . S
H1880 C1864 0.931 . S
H1881 C1869 0.930 . S
H1882 C1870 0.956 . S
H1883 C1870 0.961 . S
H1884 C1870 0.961 . S
H1885 C1871 0.958 . S
H1886 C1871 0.961 . S
H1887 C1871 0.960 . S
C1888 C1889 1.391 . S
C1888 C1890 1.394 1_545 S
C1888 H1904 0.931 . S
C1889 C1888 1.391 . S
C1889 C1893 1.376 . S
C1890 C1888 1.394 1_565 S
C1890 C1891 1.369 . S
C1890 C1894 1.531 . S
C1891 C1890 1.369 . S
C1891 C1892 1.410 . S
C1891 C1899 1.503 . S
C1892 C1891 1.410 . S
C1892 C1893 1.392 1_565 S
C1892 C1895 1.511 . S
C1893 C1889 1.376 . S
C1893 C1892 1.392 1_545 S
C1893 H1905 0.929 . S
C1894 C1890 1.531 . S
C1894 H1906 0.960 . S
C1894 H1907 0.962 . S
C1894 H1908 0.960 . S
C1895 C1892 1.511 . S
C1895 H1909 0.961 . S
C1895 H1910 0.961 . S
C1895 H1911 0.961 . S
C1896 C1897 1.370 . S
C1896 C1898 1.363 . S
C1896 H1912 0.931 . S
C1897 C1896 1.370 . S
C1897 C1901 1.408 . S
C1898 C1896 1.363 . S
C1898 C1899 1.370 . S
C1898 C1902 1.524 . S
C1899 C1891 1.503 . S
C1899 C1898 1.370 . S
C1899 C1900 1.403 . S
C1900 C1899 1.403 . S
C1900 C1901 1.404 . S
C1900 C1903 1.539 . S
C1901 C1897 1.408 . S
C1901 C1900 1.404 . S
C1901 H1913 0.930 . S
C1902 C1898 1.524 . S
C1902 H1914 0.956 1_565 S
C1902 H1915 0.961 1_565 S
C1902 H1916 0.961 . S
C1903 C1900 1.539 . S
C1903 H1917 0.958 . S
C1903 H1918 0.961 . S
C1903 H1919 0.960 . S
H1904 C1888 0.931 . S
H1905 C1893 0.929 . S
H1906 C1894 0.960 . S
H1907 C1894 0.962 . S
H1908 C1894 0.960 . S
H1909 C1895 0.961 . S
H1910 C1895 0.961 . S
H1911 C1895 0.961 . S
H1912 C1896 0.931 . S
H1913 C1901 0.930 . S
H1914 C1902 0.956 1_545 S
H1915 C1902 0.961 1_545 S
H1916 C1902 0.961 . S
H1917 C1903 0.958 . S
H1918 C1903 0.961 . S
H1919 C1903 0.960 . S
C1920 C1921 1.392 1_554 S
C1920 C1922 1.395 1_554 S
C1920 H1936 0.929 . S
C1921 C1920 1.392 1_556 S
C1921 C1925 1.376 . S
C1922 C1920 1.395 1_556 S
C1922 C1923 1.369 . S
C1922 C1926 1.531 . S
C1923 C1922 1.369 . S
C1923 C1924 1.410 . S
C1923 C1931 1.503 . S
C1924 C1923 1.410 . S
C1924 C1925 1.392 . S
C1924 C1927 1.511 . S
C1925 C1921 1.376 . S
C1925 C1924 1.392 . S
C1925 H1937 0.929 . S
C1926 C1922 1.531 . S
C1926 H1938 0.960 . S
C1926 H1939 0.960 1_556 S
C1926 H1940 0.960 1_556 S
C1927 C1924 1.511 . S
C1927 H1941 0.961 . S
C1927 H1942 0.961 . S
C1927 H1943 0.961 . S
C1928 C1929 1.370 . S
C1928 C1930 1.363 . S
C1928 H1944 0.931 . S
C1929 C1928 1.370 . S
C1929 C1933 1.408 . S
C1930 C1928 1.363 . S
C1930 C1931 1.370 . S
C1930 C1934 1.524 . S
C1931 C1923 1.503 . S
C1931 C1930 1.370 . S
C1931 C1932 1.403 . S
C1932 C1931 1.403 . S
C1932 C1933 1.404 . S
C1932 C1935 1.539 . S
C1933 C1929 1.408 . S
C1933 C1932 1.404 . S
C1933 H1945 0.930 . S
C1934 C1930 1.524 . S
C1934 H1946 0.956 . S
C1934 H1947 0.961 . S
C1934 H1948 0.961 . S
C1935 C1932 1.539 . S
C1935 H1949 0.958 . S
C1935 H1950 0.961 . S
C1935 H1951 0.960 . S
H1936 C1920 0.929 . S
H1937 C1925 0.929 . S
H1938 C1926 0.960 . S
H1939 C1926 0.960 1_554 S
H1940 C1926 0.960 1_554 S
H1941 C1927 0.961 . S
H1942 C1927 0.961 . S
H1943 C1927 0.961 . S
H1944 C1928 0.931 . S
H1945 C1933 0.930 . S
H1946 C1934 0.956 . S
H1947 C1934 0.961 . S
H1948 C1934 0.961 . S
H1949 C1935 0.958 . S
H1950 C1935 0.961 . S
H1951 C1935 0.960 . S
C1952 C1953 1.391 . S
C1952 C1954 1.394 1_565 S
C1952 H1968 0.931 . S
C1953 C1952 1.391 . S
C1953 C1957 1.376 . S
C1954 C1952 1.394 1_545 S
C1954 C1955 1.369 . S
C1954 C1958 1.531 . S
C1955 C1954 1.369 . S
C1955 C1956 1.410 1_545 S
C1955 C1963 1.503 . S
C1956 C1955 1.410 1_565 S
C1956 C1957 1.392 . S
C1956 C1959 1.511 . S
C1957 C1953 1.376 . S
C1957 C1956 1.392 . S
C1957 H1969 0.929 . S
C1958 C1954 1.531 . S
C1958 H1970 0.960 . S
C1958 H1971 0.962 . S
C1958 H1972 0.960 . S
C1959 C1956 1.511 . S
C1959 H1973 0.961 . S
C1959 H1974 0.961 . S
C1959 H1975 0.961 . S
C1960 C1961 1.370 . S
C1960 C1962 1.363 . S
C1960 H1976 0.931 . S
C1961 C1960 1.370 . S
C1961 C1965 1.408 . S
C1962 C1960 1.363 . S
C1962 C1963 1.370 . S
C1962 C1966 1.524 . S
C1963 C1955 1.503 . S
C1963 C1962 1.370 . S
C1963 C1964 1.403 . S
C1964 C1963 1.403 . S
C1964 C1965 1.404 . S
C1964 C1967 1.539 . S
C1965 C1961 1.408 . S
C1965 C1964 1.404 . S
C1965 H1977 0.930 . S
C1966 C1962 1.524 . S
C1966 H1978 0.956 . S
C1966 H1979 0.961 . S
C1966 H1980 0.961 . S
C1967 C1964 1.539 . S
C1967 H1981 0.958 . S
C1967 H1982 0.961 . S
C1967 H1983 0.960 . S
H1968 C1952 0.931 . S
H1969 C1957 0.929 . S
H1970 C1958 0.960 . S
H1971 C1958 0.962 . S
H1972 C1958 0.960 . S
H1973 C1959 0.961 . S
H1974 C1959 0.961 . S
H1975 C1959 0.961 . S
H1976 C1960 0.931 . S
H1977 C1965 0.930 . S
H1978 C1966 0.956 . S
H1979 C1966 0.961 . S
H1980 C1966 0.961 . S
H1981 C1967 0.958 . S
H1982 C1967 0.961 . S
H1983 C1967 0.960 . S
C1984 C1985 1.391 . S
C1984 C1986 1.394 . S
C1984 H2000 0.931 . S
C1985 C1984 1.391 . S
C1985 C1989 1.376 . S
C1986 C1984 1.394 . S
C1986 C1987 1.369 . S
C1986 C1990 1.531 . S
C1987 C1986 1.369 . S
C1987 C1988 1.410 . S
C1987 C1995 1.503 . S
C1988 C1987 1.410 . S
C1988 C1989 1.392 . S
C1988 C1991 1.511 . S
C1989 C1985 1.376 . S
C1989 C1988 1.392 . S
C1989 H2001 0.929 . S
C1990 C1986 1.531 . S
C1990 H2002 0.960 . S
C1990 H2003 0.962 . S
C1990 H2004 0.960 . S
C1991 C1988 1.511 . S
C1991 H2005 0.961 . S
C1991 H2006 0.961 . S
C1991 H2007 0.961 . S
C1992 C1993 1.370 . S
C1992 C1994 1.363 . S
C1992 H2008 0.931 . S
C1993 C1992 1.370 . S
C1993 C1997 1.408 . S
C1994 C1992 1.363 . S
C1994 C1995 1.370 . S
C1994 C1998 1.524 . S
C1995 C1987 1.503 . S
C1995 C1994 1.370 . S
C1995 C1996 1.403 . S
C1996 C1995 1.403 . S
C1996 C1997 1.404 . S
C1996 C1999 1.539 . S
C1997 C1993 1.408 . S
C1997 C1996 1.404 . S
C1997 H2009 0.930 . S
C1998 C1994 1.524 . S
C1998 H2010 0.956 . S
C1998 H2011 0.961 . S
C1998 H2012 0.961 . S
C1999 C1996 1.539 . S
C1999 H2013 0.958 . S
C1999 H2014 0.961 . S
C1999 H2015 0.960 . S
H2000 C1984 0.931 . S
H2001 C1989 0.929 . S
H2002 C1990 0.960 . S
H2003 C1990 0.962 . S
H2004 C1990 0.960 . S
H2005 C1991 0.961 . S
H2006 C1991 0.961 . S
H2007 C1991 0.961 . S
H2008 C1992 0.931 . S
H2009 C1997 0.930 . S
H2010 C1998 0.956 . S
H2011 C1998 0.961 . S
H2012 C1998 0.961 . S
H2013 C1999 0.958 . S
H2014 C1999 0.961 . S
H2015 C1999 0.960 . S
C2016 C2017 1.391 . S
C2016 C2018 1.394 . S
C2016 H2032 0.931 . S
C2017 C2016 1.391 . S
C2017 C2021 1.376 . S
C2018 C2016 1.394 . S
C2018 C2019 1.369 . S
C2018 C2022 1.531 . S
C2019 C2018 1.369 . S
C2019 C2020 1.410 . S
C2019 C2027 1.503 . S
C2020 C2019 1.410 . S
C2020 C2021 1.392 . S
C2020 C2023 1.511 . S
C2021 C2017 1.376 . S
C2021 C2020 1.392 . S
C2021 H2033 0.929 . S
C2022 C2018 1.531 . S
C2022 H2034 0.960 . S
C2022 H2035 0.962 . S
C2022 H2036 0.960 . S
C2023 C2020 1.511 . S
C2023 H2037 0.961 . S
C2023 H2038 0.961 . S
C2023 H2039 0.961 . S
C2024 C2025 1.370 . S
C2024 C2026 1.363 . S
C2024 H2040 0.931 . S
C2025 C2024 1.370 . S
C2025 C2029 1.408 . S
C2026 C2024 1.363 . S
C2026 C2027 1.370 1_565 S
C2026 C2030 1.524 . S
C2027 C2019 1.503 . S
C2027 C2026 1.370 1_545 S
C2027 C2028 1.403 . S
C2028 C2027 1.403 . S
C2028 C2029 1.404 1_545 S
C2028 C2031 1.539 . S
C2029 C2025 1.408 . S
C2029 C2028 1.404 1_565 S
C2029 H2041 0.930 . S
C2030 C2026 1.524 . S
C2030 H2042 0.956 . S
C2030 H2043 0.961 . S
C2030 H2044 0.961 . S
C2031 C2028 1.539 . S
C2031 H2045 0.958 . S
C2031 H2046 0.961 . S
C2031 H2047 0.960 . S
H2032 C2016 0.931 . S
H2033 C2021 0.929 . S
H2034 C2022 0.960 . S
H2035 C2022 0.962 . S
H2036 C2022 0.960 . S
H2037 C2023 0.961 . S
H2038 C2023 0.961 . S
H2039 C2023 0.961 . S
H2040 C2024 0.931 . S
H2041 C2029 0.930 . S
H2042 C2030 0.956 . S
H2043 C2030 0.961 . S
H2044 C2030 0.961 . S
H2045 C2031 0.958 . S
H2046 C2031 0.961 . S
H2047 C2031 0.960 . S
C2048 C2049 1.391 . S
C2048 C2050 1.394 . S
C2048 H2064 0.931 . S
C2049 C2048 1.391 . S
C2049 C2053 1.376 . S
C2050 C2048 1.394 . S
C2050 C2051 1.369 . S
C2050 C2054 1.531 . S
C2051 C2050 1.369 . S
C2051 C2052 1.410 . S
C2051 C2059 1.503 . S
C2052 C2051 1.410 . S
C2052 C2053 1.392 . S
C2052 C2055 1.511 . S
C2053 C2049 1.376 . S
C2053 C2052 1.392 . S
C2053 H2065 0.929 . S
C2054 C2050 1.531 . S
C2054 H2066 0.960 . S
C2054 H2067 0.962 . S
C2054 H2068 0.960 . S
C2055 C2052 1.511 . S
C2055 H2069 0.961 . S
C2055 H2070 0.961 . S
C2055 H2071 0.961 . S
C2056 C2057 1.370 . S
C2056 C2058 1.363 . S
C2056 H2072 0.931 . S
C2057 C2056 1.370 . S
C2057 C2061 1.408 1_554 S
C2058 C2056 1.363 . S
C2058 C2059 1.370 . S
C2058 C2062 1.524 . S
C2059 C2051 1.503 . S
C2059 C2058 1.370 . S
C2059 C2060 1.403 . S
C2060 C2059 1.403 . S
C2060 C2061 1.404 1_554 S
C2060 C2063 1.539 1_554 S
C2061 C2057 1.408 1_556 S
C2061 C2060 1.404 1_556 S
C2061 H2073 0.930 . S
C2062 C2058 1.524 . S
C2062 H2074 0.956 . S
C2062 H2075 0.961 . S
C2062 H2076 0.961 . S
C2063 C2060 1.539 1_556 S
C2063 H2077 0.958 . S
C2063 H2078 0.961 . S
C2063 H2079 0.960 1_556 S
H2064 C2048 0.931 . S
H2065 C2053 0.929 . S
H2066 C2054 0.960 . S
H2067 C2054 0.962 . S
H2068 C2054 0.960 . S
H2069 C2055 0.961 . S
H2070 C2055 0.961 . S
H2071 C2055 0.961 . S
H2072 C2056 0.931 . S
H2073 C2061 0.930 . S
H2074 C2062 0.956 . S
H2075 C2062 0.961 . S
H2076 C2062 0.961 . S
H2077 C2063 0.958 . S
H2078 C2063 0.961 . S
H2079 C2063 0.960 1_554 S
C2080 C2081 1.391 . S
C2080 C2082 1.394 . S
C2080 H2096 0.931 . S
C2081 C2080 1.391 . S
C2081 C2085 1.376 . S
C2082 C2080 1.394 . S
C2082 C2083 1.369 1_545 S
C2082 C2086 1.538 . S
C2083 C2082 1.369 1_565 S
C2083 C2084 1.410 . S
C2083 C2091 1.503 . S
C2084 C2083 1.410 . S
C2084 C2085 1.392 1_565 S
C2084 C2087 1.511 . S
C2085 C2081 1.376 . S
C2085 C2084 1.392 1_545 S
C2085 H2097 0.929 . S
C2086 C2082 1.538 . S
C2086 H2098 0.943 1_545 S
C2086 H2099 0.936 1_545 S
C2086 H2100 0.998 . S
C2087 C2084 1.511 . S
C2087 H2101 0.961 . S
C2087 H2102 0.961 . S
C2087 H2103 0.961 . S
C2088 C2089 1.370 . S
C2088 C2090 1.363 . S
C2088 H2104 0.931 . S
C2089 C2088 1.370 . S
C2089 C2093 1.408 . S
C2090 C2088 1.363 . S
C2090 C2091 1.370 . S
C2090 C2094 1.524 . S
C2091 C2083 1.503 . S
C2091 C2090 1.370 . S
C2091 C2092 1.403 . S
C2092 C2091 1.403 . S
C2092 C2093 1.404 . S
C2092 C2095 1.539 . S
C2093 C2089 1.408 . S
C2093 C2092 1.404 . S
C2093 H2105 0.930 . S
C2094 C2090 1.524 . S
C2094 H2106 0.956 . S
C2094 H2107 0.961 . S
C2094 H2108 0.961 . S
C2095 C2092 1.539 . S
C2095 H2109 0.958 1_565 S
C2095 H2110 0.961 . S
C2095 H2111 0.960 1_565 S
H2096 C2080 0.931 . S
H2097 C2085 0.929 . S
H2098 C2086 0.943 1_565 S
H2099 C2086 0.936 1_565 S
H2100 C2086 0.998 . S
H2101 C2087 0.961 . S
H2102 C2087 0.961 . S
H2103 C2087 0.961 . S
H2104 C2088 0.931 . S
H2105 C2093 0.930 . S
H2106 C2094 0.956 . S
H2107 C2094 0.961 . S
H2108 C2094 0.961 . S
H2109 C2095 0.958 1_545 S
H2110 C2095 0.961 . S
H2111 C2095 0.960 1_545 S
C2112 C2113 1.391 . S
C2112 C2114 1.394 . S
C2112 H2128 0.931 . S
C2113 C2112 1.391 . S
C2113 C2117 1.376 . S
C2114 C2112 1.394 . S
C2114 C2115 1.369 . S
C2114 C2118 1.531 . S
C2115 C2114 1.369 . S
C2115 C2116 1.410 . S
C2115 C2123 1.503 . S
C2116 C2115 1.410 . S
C2116 C2117 1.392 . S
C2116 C2119 1.511 . S
C2117 C2113 1.376 . S
C2117 C2116 1.392 . S
C2117 H2129 0.929 . S
C2118 C2114 1.531 . S
C2118 H2130 0.960 . S
C2118 H2131 0.962 . S
C2118 H2132 0.960 . S
C2119 C2116 1.511 . S
C2119 H2133 0.961 . S
C2119 H2134 0.961 . S
C2119 H2135 0.961 . S
C2120 C2121 1.370 . S
C2120 C2122 1.363 . S
C2120 H2136 0.931 . S
C2121 C2120 1.370 . S
C2121 C2125 1.408 . S
C2122 C2120 1.363 . S
C2122 C2123 1.370 . S
C2122 C2126 1.524 . S
C2123 C2115 1.503 . S
C2123 C2122 1.370 . S
C2123 C2124 1.403 . S
C2124 C2123 1.403 . S
C2124 C2125 1.404 . S
C2124 C2127 1.539 . S
C2125 C2121 1.408 . S
C2125 C2124 1.404 . S
C2125 H2137 0.930 . S
C2126 C2122 1.524 . S
C2126 H2138 0.956 . S
C2126 H2139 0.961 . S
C2126 H2140 0.961 . S
C2127 C2124 1.539 . S
C2127 H2141 0.958 . S
C2127 H2142 0.961 . S
C2127 H2143 0.960 . S
H2128 C2112 0.931 . S
H2129 C2117 0.929 . S
H2130 C2118 0.960 . S
H2131 C2118 0.962 . S
H2132 C2118 0.960 . S
H2133 C2119 0.961 . S
H2134 C2119 0.961 . S
H2135 C2119 0.961 . S
H2136 C2120 0.931 . S
H2137 C2125 0.930 . S
H2138 C2126 0.956 . S
H2139 C2126 0.961 . S
H2140 C2126 0.961 . S
H2141 C2127 0.958 . S
H2142 C2127 0.961 . S
H2143 C2127 0.960 . S
C2144 C2145 1.391 . S
C2144 C2146 1.394 . S
C2144 H2160 0.931 . S
C2145 C2144 1.391 . S
C2145 C2149 1.376 . S
C2146 C2144 1.394 . S
C2146 C2147 1.369 . S
C2146 C2150 1.531 . S
C2147 C2146 1.369 . S
C2147 C2148 1.410 . S
C2147 C2155 1.503 . S
C2148 C2147 1.410 . S
C2148 C2149 1.392 . S
C2148 C2151 1.511 . S
C2149 C2145 1.376 . S
C2149 C2148 1.392 . S
C2149 H2161 0.929 . S
C2150 C2146 1.531 . S
C2150 H2162 0.960 . S
C2150 H2163 0.962 . S
C2150 H2164 0.960 . S
C2151 C2148 1.511 . S
C2151 H2165 0.961 . S
C2151 H2166 0.961 . S
C2151 H2167 0.961 . S
C2152 C2153 1.370 . S
C2152 C2154 1.363 . S
C2152 H2168 0.931 . S
C2153 C2152 1.370 . S
C2153 C2157 1.408 . S
C2154 C2152 1.363 . S
C2154 C2155 1.370 . S
C2154 C2158 1.524 . S
C2155 C2147 1.503 . S
C2155 C2154 1.370 . S
C2155 C2156 1.403 . S
C2156 C2155 1.403 . S
C2156 C2157 1.404 . S
C2156 C2159 1.539 . S
C2157 C2153 1.408 . S
C2157 C2156 1.404 . S
C2157 H2169 0.930 . S
C2158 C2154 1.524 . S
C2158 H2170 0.956 . S
C2158 H2171 0.961 . S
C2158 H2172 0.961 . S
C2159 C2156 1.539 . S
C2159 H2173 0.958 . S
C2159 H2174 0.961 . S
C2159 H2175 0.960 . S
H2160 C2144 0.931 . S
H2161 C2149 0.929 . S
H2162 C2150 0.960 . S
H2163 C2150 0.962 . S
H2164 C2150 0.960 . S
H2165 C2151 0.961 . S
H2166 C2151 0.961 . S
H2167 C2151 0.961 . S
H2168 C2152 0.931 . S
H2169 C2157 0.930 . S
H2170 C2158 0.956 . S
H2171 C2158 0.961 . S
H2172 C2158 0.961 . S
H2173 C2159 0.958 . S
H2174 C2159 0.961 . S
H2175 C2159 0.960 . S
C2176 C2177 1.391 . S
C2176 C2178 1.394 . S
C2176 H2192 0.931 . S
C2177 C2176 1.391 . S
C2177 C2181 1.376 . S
C2178 C2176 1.394 . S
C2178 C2179 1.369 . S
C2178 C2182 1.531 1_655 S
C2179 C2178 1.369 . S
C2179 C2180 1.410 . S
C2179 C2187 1.503 . S
C2180 C2179 1.410 . S
C2180 C2181 1.392 . S
C2180 C2183 1.511 . S
C2181 C2177 1.376 . S
C2181 C2180 1.392 . S
C2181 H2193 0.929 . S
C2182 C2178 1.531 1_455 S
C2182 H2194 0.960 . S
C2182 H2195 0.962 . S
C2182 H2196 0.960 . S
C2183 C2180 1.511 . S
C2183 H2197 0.961 . S
C2183 H2198 0.961 . S
C2183 H2199 0.961 . S
C2184 C2185 1.370 . S
C2184 C2186 1.363 . S
C2184 H2200 0.931 . S
C2185 C2184 1.370 . S
C2185 C2189 1.408 1_455 S
C2186 C2184 1.363 . S
C2186 C2187 1.370 1_455 S
C2186 C2190 1.524 . S
C2187 C2179 1.503 . S
C2187 C2186 1.370 1_655 S
C2187 C2188 1.403 . S
C2188 C2187 1.403 . S
C2188 C2189 1.404 . S
C2188 C2191 1.539 . S
C2189 C2185 1.408 1_655 S
C2189 C2188 1.404 . S
C2189 H2201 0.930 . S
C2190 C2186 1.524 . S
C2190 H2202 0.956 . S
C2190 H2203 0.961 . S
C2190 H2204 0.961 . S
C2191 C2188 1.539 . S
C2191 H2205 0.958 . S
C2191 H2206 0.961 . S
C2191 H2207 0.960 . S
H2192 C2176 0.931 . S
H2193 C2181 0.929 . S
H2194 C2182 0.960 . S
H2195 C2182 0.962 . S
H2196 C2182 0.960 . S
H2197 C2183 0.961 . S
H2198 C2183 0.961 . S
H2199 C2183 0.961 . S
H2200 C2184 0.931 . S
H2201 C2189 0.930 . S
H2202 C2190 0.956 . S
H2203 C2190 0.961 . S
H2204 C2190 0.961 . S
H2205 C2191 0.958 . S
H2206 C2191 0.961 . S
H2207 C2191 0.960 . S
C2208 C2209 1.391 . S
C2208 C2210 1.394 . S
C2208 H2224 0.931 . S
C2209 C2208 1.391 . S
C2209 C2213 1.376 . S
C2210 C2208 1.394 . S
C2210 C2211 1.369 . S
C2210 C2214 1.531 . S
C2211 C2210 1.369 . S
C2211 C2212 1.410 . S
C2211 C2219 1.503 . S
C2212 C2211 1.410 . S
C2212 C2213 1.392 . S
C2212 C2215 1.511 . S
C2213 C2209 1.376 . S
C2213 C2212 1.392 . S
C2213 H2225 0.929 . S
C2214 C2210 1.531 . S
C2214 H2226 0.960 . S
C2214 H2227 0.962 . S
C2214 H2228 0.960 . S
C2215 C2212 1.511 . S
C2215 H2229 0.961 . S
C2215 H2230 0.961 . S
C2215 H2231 0.961 . S
C2216 C2217 1.370 . S
C2216 C2218 1.363 . S
C2216 H2232 0.931 . S
C2217 C2216 1.370 . S
C2217 C2221 1.408 . S
C2218 C2216 1.363 . S
C2218 C2219 1.370 . S
C2218 C2222 1.524 . S
C2219 C2211 1.503 . S
C2219 C2218 1.370 . S
C2219 C2220 1.403 . S
C2220 C2219 1.403 . S
C2220 C2221 1.404 . S
C2220 C2223 1.539 . S
C2221 C2217 1.408 . S
C2221 C2220 1.404 . S
C2221 H2233 0.930 . S
C2222 C2218 1.524 . S
C2222 H2234 0.956 . S
C2222 H2235 0.961 . S
C2222 H2236 0.961 . S
C2223 C2220 1.539 . S
C2223 H2237 0.958 . S
C2223 H2238 0.961 . S
C2223 H2239 0.960 . S
H2224 C2208 0.931 . S
H2225 C2213 0.929 . S
H2226 C2214 0.960 . S
H2227 C2214 0.962 . S
H2228 C2214 0.960 . S
H2229 C2215 0.961 . S
H2230 C2215 0.961 . S
H2231 C2215 0.961 . S
H2232 C2216 0.931 . S
H2233 C2221 0.930 . S
H2234 C2222 0.956 . S
H2235 C2222 0.961 . S
H2236 C2222 0.961 . S
H2237 C2223 0.958 . S
H2238 C2223 0.961 . S
H2239 C2223 0.960 . S
C2240 C2241 1.391 . S
C2240 C2242 1.394 . S
C2240 H2256 0.931 . S
C2241 C2240 1.391 . S
C2241 C2245 1.376 . S
C2242 C2240 1.394 . S
C2242 C2243 1.369 . S
C2242 C2246 1.531 . S
C2243 C2242 1.369 . S
C2243 C2244 1.410 . S
C2243 C2251 1.503 . S
C2244 C2243 1.410 . S
C2244 C2245 1.392 . S
C2244 C2247 1.511 . S
C2245 C2241 1.376 . S
C2245 C2244 1.392 . S
C2245 H2257 0.929 . S
C2246 C2242 1.531 . S
C2246 H2258 0.960 . S
C2246 H2259 0.962 . S
C2246 H2260 0.960 . S
C2247 C2244 1.511 . S
C2247 H2261 0.961 . S
C2247 H2262 0.961 . S
C2247 H2263 0.961 . S
C2248 C2249 1.370 . S
C2248 C2250 1.363 . S
C2248 H2264 0.931 . S
C2249 C2248 1.370 . S
C2249 C2253 1.408 . S
C2250 C2248 1.363 . S
C2250 C2251 1.370 . S
C2250 C2254 1.524 . S
C2251 C2243 1.503 . S
C2251 C2250 1.370 . S
C2251 C2252 1.403 . S
C2252 C2251 1.403 . S
C2252 C2253 1.404 . S
C2252 C2255 1.539 . S
C2253 C2249 1.408 . S
C2253 C2252 1.404 . S
C2253 H2265 0.930 . S
C2254 C2250 1.524 . S
C2254 H2266 0.956 . S
C2254 H2267 0.961 . S
C2254 H2268 0.961 . S
C2255 C2252 1.539 . S
C2255 H2269 0.958 . S
C2255 H2270 0.961 . S
C2255 H2271 0.960 . S
H2256 C2240 0.931 . S
H2257 C2245 0.929 . S
H2258 C2246 0.960 . S
H2259 C2246 0.962 . S
H2260 C2246 0.960 . S
H2261 C2247 0.961 . S
H2262 C2247 0.961 . S
H2263 C2247 0.961 . S
H2264 C2248 0.931 . S
H2265 C2253 0.930 . S
H2266 C2254 0.956 . S
H2267 C2254 0.961 . S
H2268 C2254 0.961 . S
H2269 C2255 0.958 . S
H2270 C2255 0.961 . S
H2271 C2255 0.960 . S
C2272 C2273 1.391 . S
C2272 C2274 1.394 . S
C2272 H2288 0.931 . S
C2273 C2272 1.391 . S
C2273 C2277 1.376 . S
C2274 C2272 1.394 . S
C2274 C2275 1.369 . S
C2274 C2278 1.531 . S
C2275 C2274 1.369 . S
C2275 C2276 1.410 . S
C2275 C2283 1.503 . S
C2276 C2275 1.410 . S
C2276 C2277 1.392 . S
C2276 C2279 1.511 . S
C2277 C2273 1.376 . S
C2277 C2276 1.392 . S
C2277 H2289 0.929 . S
C2278 C2274 1.531 . S
C2278 H2290 0.960 . S
C2278 H2291 0.962 . S
C2278 H2292 0.960 . S
C2279 C2276 1.511 . S
C2279 H2293 0.961 . S
C2279 H2294 0.961 . S
C2279 H2295 0.961 . S
C2280 C2281 1.370 . S
C2280 C2282 1.363 . S
C2280 H2296 0.931 . S
C2281 C2280 1.370 . S
C2281 C2285 1.408 . S
C2282 C2280 1.363 . S
C2282 C2283 1.370 . S
C2282 C2286 1.524 . S
C2283 C2275 1.503 . S
C2283 C2282 1.370 . S
C2283 C2284 1.403 . S
C2284 C2283 1.403 . S
C2284 C2285 1.404 . S
C2284 C2287 1.539 . S
C2285 C2281 1.408 . S
C2285 C2284 1.404 . S
C2285 H2297 0.930 . S
C2286 C2282 1.524 . S
C2286 H2298 0.956 . S
C2286 H2299 0.961 . S
C2286 H2300 0.961 . S
C2287 C2284 1.539 . S
C2287 H2301 0.958 . S
C2287 H2302 0.961 . S
C2287 H2303 0.960 . S
H2288 C2272 0.931 . S
H2289 C2277 0.929 . S
H2290 C2278 0.960 . S
H2291 C2278 0.962 . S
H2292 C2278 0.960 . S
H2293 C2279 0.961 . S
H2294 C2279 0.961 . S
H2295 C2279 0.961 . S
H2296 C2280 0.931 . S
H2297 C2285 0.930 . S
H2298 C2286 0.956 . S
H2299 C2286 0.961 . S
H2300 C2286 0.961 . S
H2301 C2287 0.958 . S
H2302 C2287 0.961 . S
H2303 C2287 0.960 . S
C2304 C2305 1.391 . S
C2304 C2306 1.394 . S
C2304 H2320 0.931 . S
C2305 C2304 1.391 . S
C2305 C2309 1.376 . S
C2306 C2304 1.394 . S
C2306 C2307 1.369 . S
C2306 C2310 1.531 . S
C2307 C2306 1.369 . S
C2307 C2308 1.410 . S
C2307 C2315 1.503 . S
C2308 C2307 1.410 . S
C2308 C2309 1.392 . S
C2308 C2311 1.511 1_455 S
C2309 C2305 1.376 . S
C2309 C2308 1.392 . S
C2309 H2321 0.929 . S
C2310 C2306 1.531 . S
C2310 H2322 0.960 . S
C2310 H2323 0.962 . S
C2310 H2324 0.960 . S
C2311 C2308 1.511 1_655 S
C2311 H2325 0.961 1_655 S
C2311 H2326 0.961 . S
C2311 H2327 0.961 . S
C2312 C2313 1.370 1_455 S
C2312 C2314 1.363 . S
C2312 H2328 0.931 . S
C2313 C2312 1.370 1_655 S
C2313 C2317 1.408 . S
C2314 C2312 1.363 . S
C2314 C2315 1.370 . S
C2314 C2318 1.524 . S
C2315 C2307 1.503 . S
C2315 C2314 1.370 . S
C2315 C2316 1.403 1_455 S
C2316 C2315 1.403 1_655 S
C2316 C2317 1.404 . S
C2316 C2319 1.539 . S
C2317 C2313 1.408 . S
C2317 C2316 1.404 . S
C2317 H2329 0.930 . S
C2318 C2314 1.524 . S
C2318 H2330 0.956 . S
C2318 H2331 0.961 . S
C2318 H2332 0.961 . S
C2319 C2316 1.539 . S
C2319 H2333 0.958 . S
C2319 H2334 0.961 . S
C2319 H2335 0.960 . S
H2320 C2304 0.931 . S
H2321 C2309 0.929 . S
H2322 C2310 0.960 . S
H2323 C2310 0.962 . S
H2324 C2310 0.960 . S
H2325 C2311 0.961 1_455 S
H2326 C2311 0.961 . S
H2327 C2311 0.961 . S
H2328 C2312 0.931 . S
H2329 C2317 0.930 . S
H2330 C2318 0.956 . S
H2331 C2318 0.961 . S
H2332 C2318 0.961 . S
H2333 C2319 0.958 . S
H2334 C2319 0.961 . S
H2335 C2319 0.960 . S
C2336 C2337 1.391 . S
C2336 C2338 1.394 . S
C2336 H2352 0.931 . S
C2337 C2336 1.391 . S
C2337 C2341 1.376 . S
C2338 C2336 1.394 . S
C2338 C2339 1.369 . S
C2338 C2342 1.531 . S
C2339 C2338 1.369 . S
C2339 C2340 1.410 . S
C2339 C2347 1.503 . S
C2340 C2339 1.410 . S
C2340 C2341 1.392 . S
C2340 C2343 1.511 . S
C2341 C2337 1.376 . S
C2341 C2340 1.392 . S
C2341 H2353 0.929 . S
C2342 C2338 1.531 . S
C2342 H2354 0.960 . S
C2342 H2355 0.962 . S
C2342 H2356 0.960 . S
C2343 C2340 1.511 . S
C2343 H2357 0.961 . S
C2343 H2358 0.961 . S
C2343 H2359 0.961 . S
C2344 C2345 1.370 . S
C2344 C2346 1.363 . S
C2344 H2360 0.931 . S
C2345 C2344 1.370 . S
C2345 C2349 1.408 . S
C2346 C2344 1.363 . S
C2346 C2347 1.370 . S
C2346 C2350 1.524 . S
C2347 C2339 1.503 . S
C2347 C2346 1.370 . S
C2347 C2348 1.403 . S
C2348 C2347 1.403 . S
C2348 C2349 1.404 . S
C2348 C2351 1.539 . S
C2349 C2345 1.408 . S
C2349 C2348 1.404 . S
C2349 H2361 0.930 . S
C2350 C2346 1.524 . S
C2350 H2362 0.956 . S
C2350 H2363 0.961 . S
C2350 H2364 0.961 . S
C2351 C2348 1.539 . S
C2351 H2365 0.958 . S
C2351 H2366 0.961 . S
C2351 H2367 0.960 . S
H2352 C2336 0.931 . S
H2353 C2341 0.929 . S
H2354 C2342 0.960 . S
H2355 C2342 0.962 . S
H2356 C2342 0.960 . S
H2357 C2343 0.961 . S
H2358 C2343 0.961 . S
H2359 C2343 0.961 . S
H2360 C2344 0.931 . S
H2361 C2349 0.930 . S
H2362 C2350 0.956 . S
H2363 C2350 0.961 . S
H2364 C2350 0.961 . S
H2365 C2351 0.958 . S
H2366 C2351 0.961 . S
H2367 C2351 0.960 . S
C2368 C2369 1.391 . S
C2368 C2370 1.394 . S
C2368 H2384 0.931 . S
C2369 C2368 1.391 . S
C2369 C2373 1.376 1_655 S
C2370 C2368 1.394 . S
C2370 C2371 1.369 1_655 S
C2370 C2374 1.531 . S
C2371 C2370 1.369 1_455 S
C2371 C2372 1.410 . S
C2371 C2379 1.503 . S
C2372 C2371 1.410 . S
C2372 C2373 1.392 . S
C2372 C2375 1.511 . S
C2373 C2369 1.376 1_455 S
C2373 C2372 1.392 . S
C2373 H2385 0.929 . S
C2374 C2370 1.531 . S
C2374 H2386 0.960 . S
C2374 H2387 0.962 . S
C2374 H2388 0.960 . S
C2375 C2372 1.511 . S
C2375 H2389 0.961 . S
C2375 H2390 0.961 . S
C2375 H2391 0.961 . S
C2376 C2377 1.370 . S
C2376 C2378 1.363 . S
C2376 H2392 0.931 . S
C2377 C2376 1.370 . S
C2377 C2381 1.408 . S
C2378 C2376 1.363 . S
C2378 C2379 1.370 . S
C2378 C2382 1.524 . S
C2379 C2371 1.503 . S
C2379 C2378 1.370 . S
C2379 C2380 1.403 . S
C2380 C2379 1.403 . S
C2380 C2381 1.404 . S
C2380 C2383 1.539 . S
C2381 C2377 1.408 . S
C2381 C2380 1.404 . S
C2381 H2393 0.930 . S
C2382 C2378 1.524 . S
C2382 H2394 0.956 1_455 S
C2382 H2395 0.961 . S
C2382 H2396 0.961 . S
C2383 C2380 1.539 . S
C2383 H2397 0.958 . S
C2383 H2398 0.961 . S
C2383 H2399 0.960 . S
H2384 C2368 0.931 . S
H2385 C2373 0.929 . S
H2386 C2374 0.960 . S
H2387 C2374 0.962 . S
H2388 C2374 0.960 . S
H2389 C2375 0.961 . S
H2390 C2375 0.961 . S
H2391 C2375 0.961 . S
H2392 C2376 0.931 . S
H2393 C2381 0.930 . S
H2394 C2382 0.956 1_655 S
H2395 C2382 0.961 . S
H2396 C2382 0.961 . S
H2397 C2383 0.958 . S
H2398 C2383 0.961 . S
H2399 C2383 0.960 . S
C2400 C2401 1.391 . S
C2400 C2402 1.394 . S
C2400 H2416 0.931 . S
C2401 C2400 1.391 . S
C2401 C2405 1.376 . S
C2402 C2400 1.394 . S
C2402 C2403 1.369 . S
C2402 C2406 1.531 . S
C2403 C2402 1.369 . S
C2403 C2404 1.410 . S
C2403 C2411 1.503 . S
C2404 C2403 1.410 . S
C2404 C2405 1.392 . S
C2404 C2407 1.511 . S
C2405 C2401 1.376 . S
C2405 C2404 1.392 . S
C2405 H2417 0.929 . S
C2406 C2402 1.531 . S
C2406 H2418 0.960 . S
C2406 H2419 0.962 . S
C2406 H2420 0.960 . S
C2407 C2404 1.511 . S
C2407 H2421 0.961 . S
C2407 H2422 0.961 . S
C2407 H2423 0.961 . S
C2408 C2409 1.370 . S
C2408 C2410 1.363 . S
C2408 H2424 0.931 . S
C2409 C2408 1.370 . S
C2409 C2413 1.408 . S
C2410 C2408 1.363 . S
C2410 C2411 1.370 . S
C2410 C2414 1.524 . S
C2411 C2403 1.503 . S
C2411 C2410 1.370 . S
C2411 C2412 1.403 . S
C2412 C2411 1.403 . S
C2412 C2413 1.404 . S
C2412 C2415 1.539 . S
C2413 C2409 1.408 . S
C2413 C2412 1.404 . S
C2413 H2425 0.930 . S
C2414 C2410 1.524 . S
C2414 H2426 0.956 . S
C2414 H2427 0.961 . S
C2414 H2428 0.961 . S
C2415 C2412 1.539 . S
C2415 H2429 0.958 . S
C2415 H2430 0.961 . S
C2415 H2431 0.960 . S
H2416 C2400 0.931 . S
H2417 C2405 0.929 . S
H2418 C2406 0.960 . S
H2419 C2406 0.962 . S
H2420 C2406 0.960 . S
H2421 C2407 0.961 . S
H2422 C2407 0.961 . S
H2423 C2407 0.961 . S
H2424 C2408 0.931 . S
H2425 C2413 0.930 . S
H2426 C2414 0.956 . S
H2427 C2414 0.961 . S
H2428 C2414 0.961 . S
H2429 C2415 0.958 . S
H2430 C2415 0.961 . S
H2431 C2415 0.960 . S
C2432 C2433 1.391 . S
C2432 C2434 1.394 . S
C2432 H2448 0.931 . S
C2433 C2432 1.391 . S
C2433 C2437 1.376 . S
C2434 C2432 1.394 . S
C2434 C2435 1.369 . S
C2434 C2438 1.531 . S
C2435 C2434 1.369 . S
C2435 C2436 1.410 . S
C2435 C2443 1.503 . S
C2436 C2435 1.410 . S
C2436 C2437 1.392 . S
C2436 C2439 1.511 . S
C2437 C2433 1.376 . S
C2437 C2436 1.392 . S
C2437 H2449 0.929 . S
C2438 C2434 1.531 . S
C2438 H2450 0.960 . S
C2438 H2451 0.962 . S
C2438 H2452 0.960 . S
C2439 C2436 1.511 . S
C2439 H2453 0.961 . S
C2439 H2454 0.961 . S
C2439 H2455 0.961 . S
C2440 C2441 1.370 . S
C2440 C2442 1.363 . S
C2440 H2456 0.931 . S
C2441 C2440 1.370 . S
C2441 C2445 1.408 . S
C2442 C2440 1.363 . S
C2442 C2443 1.370 . S
C2442 C2446 1.524 . S
C2443 C2435 1.503 . S
C2443 C2442 1.370 . S
C2443 C2444 1.403 . S
C2444 C2443 1.403 . S
C2444 C2445 1.404 . S
C2444 C2447 1.539 . S
C2445 C2441 1.408 . S
C2445 C2444 1.404 . S
C2445 H2457 0.930 . S
C2446 C2442 1.524 . S
C2446 H2458 0.956 . S
C2446 H2459 0.961 . S
C2446 H2460 0.961 . S
C2447 C2444 1.539 . S
C2447 H2461 0.958 . S
C2447 H2462 0.961 . S
C2447 H2463 0.960 . S
H2448 C2432 0.931 . S
H2449 C2437 0.929 . S
H2450 C2438 0.960 . S
H2451 C2438 0.962 . S
H2452 C2438 0.960 . S
H2453 C2439 0.961 . S
H2454 C2439 0.961 . S
H2455 C2439 0.961 . S
H2456 C2440 0.931 . S
H2457 C2445 0.930 . S
H2458 C2446 0.956 . S
H2459 C2446 0.961 . S
H2460 C2446 0.961 . S
H2461 C2447 0.958 . S
H2462 C2447 0.961 . S
H2463 C2447 0.960 . S
C2464 C2465 1.391 . S
C2464 C2466 1.394 . S
C2464 H2480 0.931 . S
C2465 C2464 1.391 . S
C2465 C2469 1.376 . S
C2466 C2464 1.394 . S
C2466 C2467 1.369 . S
C2466 C2470 1.531 . S
C2467 C2466 1.369 . S
C2467 C2468 1.410 . S
C2467 C2475 1.503 . S
C2468 C2467 1.410 . S
C2468 C2469 1.392 . S
C2468 C2471 1.511 . S
C2469 C2465 1.376 . S
C2469 C2468 1.392 . S
C2469 H2481 0.929 . S
C2470 C2466 1.531 . S
C2470 H2482 0.960 . S
C2470 H2483 0.962 . S
C2470 H2484 0.960 . S
C2471 C2468 1.511 . S
C2471 H2485 0.961 . S
C2471 H2486 0.961 . S
C2471 H2487 0.961 . S
C2472 C2473 1.370 . S
C2472 C2474 1.363 . S
C2472 H2488 0.931 . S
C2473 C2472 1.370 . S
C2473 C2477 1.408 . S
C2474 C2472 1.363 . S
C2474 C2475 1.370 . S
C2474 C2478 1.524 . S
C2475 C2467 1.503 . S
C2475 C2474 1.370 . S
C2475 C2476 1.403 . S
C2476 C2475 1.403 . S
C2476 C2477 1.404 . S
C2476 C2479 1.539 . S
C2477 C2473 1.408 . S
C2477 C2476 1.404 . S
C2477 H2489 0.930 . S
C2478 C2474 1.524 . S
C2478 H2490 0.956 . S
C2478 H2491 0.961 . S
C2478 H2492 0.961 . S
C2479 C2476 1.539 . S
C2479 H2493 0.958 . S
C2479 H2494 0.961 . S
C2479 H2495 0.960 . S
H2480 C2464 0.931 . S
H2481 C2469 0.929 . S
H2482 C2470 0.960 . S
H2483 C2470 0.962 . S
H2484 C2470 0.960 . S
H2485 C2471 0.961 . S
H2486 C2471 0.961 . S
H2487 C2471 0.961 . S
H2488 C2472 0.931 . S
H2489 C2477 0.930 . S
H2490 C2478 0.956 . S
H2491 C2478 0.961 . S
H2492 C2478 0.961 . S
H2493 C2479 0.958 . S
H2494 C2479 0.961 . S
H2495 C2479 0.960 . S
C2496 C2497 1.391 . S
C2496 C2498 1.394 . S
C2496 H2512 0.931 . S
C2497 C2496 1.391 . S
C2497 C2501 1.376 1_455 S
C2498 C2496 1.394 . S
C2498 C2499 1.369 1_455 S
C2498 C2502 1.531 . S
C2499 C2498 1.369 1_655 S
C2499 C2500 1.410 . S
C2499 C2507 1.503 . S
C2500 C2499 1.410 . S
C2500 C2501 1.392 . S
C2500 C2503 1.511 . S
C2501 C2497 1.376 1_655 S
C2501 C2500 1.392 . S
C2501 H2513 0.929 . S
C2502 C2498 1.531 . S
C2502 H2514 0.960 . S
C2502 H2515 0.962 . S
C2502 H2516 0.960 . S
C2503 C2500 1.511 . S
C2503 H2517 0.961 . S
C2503 H2518 0.961 . S
C2503 H2519 0.961 . S
C2504 C2505 1.370 . S
C2504 C2506 1.363 . S
C2504 H2520 0.931 . S
C2505 C2504 1.370 . S
C2505 C2509 1.408 . S
C2506 C2504 1.363 . S
C2506 C2507 1.370 . S
C2506 C2510 1.524 . S
C2507 C2499 1.503 . S
C2507 C2506 1.370 . S
C2507 C2508 1.403 . S
C2508 C2507 1.403 . S
C2508 C2509 1.404 . S
C2508 C2511 1.539 . S
C2509 C2505 1.408 . S
C2509 C2508 1.404 . S
C2509 H2521 0.930 . S
C2510 C2506 1.524 . S
C2510 H2522 0.956 1_655 S
C2510 H2523 0.961 . S
C2510 H2524 0.961 . S
C2511 C2508 1.539 . S
C2511 H2525 0.958 . S
C2511 H2526 0.961 . S
C2511 H2527 0.960 . S
H2512 C2496 0.931 . S
H2513 C2501 0.929 . S
H2514 C2502 0.960 . S
H2515 C2502 0.962 . S
H2516 C2502 0.960 . S
H2517 C2503 0.961 . S
H2518 C2503 0.961 . S
H2519 C2503 0.961 . S
H2520 C2504 0.931 . S
H2521 C2509 0.930 . S
H2522 C2510 0.956 1_455 S
H2523 C2510 0.961 . S
H2524 C2510 0.961 . S
H2525 C2511 0.958 . S
H2526 C2511 0.961 . S
H2527 C2511 0.960 . S
C2528 C2529 1.391 . S
C2528 C2530 1.394 . S
C2528 H2544 0.931 . S
C2529 C2528 1.391 . S
C2529 C2533 1.376 . S
C2530 C2528 1.394 . S
C2530 C2531 1.369 . S
C2530 C2534 1.531 . S
C2531 C2530 1.369 . S
C2531 C2532 1.410 . S
C2531 C2539 1.503 . S
C2532 C2531 1.410 . S
C2532 C2533 1.392 . S
C2532 C2535 1.511 . S
C2533 C2529 1.376 . S
C2533 C2532 1.392 . S
C2533 H2545 0.929 . S
C2534 C2530 1.531 . S
C2534 H2546 0.960 . S
C2534 H2547 0.962 . S
C2534 H2548 0.960 . S
C2535 C2532 1.511 . S
C2535 H2549 0.961 . S
C2535 H2550 0.961 . S
C2535 H2551 0.961 . S
C2536 C2537 1.370 . S
C2536 C2538 1.363 . S
C2536 H2552 0.931 . S
C2537 C2536 1.370 . S
C2537 C2541 1.408 . S
C2538 C2536 1.363 . S
C2538 C2539 1.370 . S
C2538 C2542 1.524 . S
C2539 C2531 1.503 . S
C2539 C2538 1.370 . S
C2539 C2540 1.403 . S
C2540 C2539 1.403 . S
C2540 C2541 1.404 . S
C2540 C2543 1.539 . S
C2541 C2537 1.408 . S
C2541 C2540 1.404 . S
C2541 H2553 0.930 . S
C2542 C2538 1.524 . S
C2542 H2554 0.956 . S
C2542 H2555 0.961 . S
C2542 H2556 0.961 . S
C2543 C2540 1.539 . S
C2543 H2557 0.958 . S
C2543 H2558 0.961 . S
C2543 H2559 0.960 . S
H2544 C2528 0.931 . S
H2545 C2533 0.929 . S
H2546 C2534 0.960 . S
H2547 C2534 0.962 . S
H2548 C2534 0.960 . S
H2549 C2535 0.961 . S
H2550 C2535 0.961 . S
H2551 C2535 0.961 . S
H2552 C2536 0.931 . S
H2553 C2541 0.930 . S
H2554 C2542 0.956 . S
H2555 C2542 0.961 . S
H2556 C2542 0.961 . S
H2557 C2543 0.958 . S
H2558 C2543 0.961 . S
H2559 C2543 0.960 . S
C2560 C2561 1.391 . S
C2560 C2562 1.394 . S
C2560 H2576 0.931 . S
C2561 C2560 1.391 . S
C2561 C2565 1.376 . S
C2562 C2560 1.394 . S
C2562 C2563 1.369 . S
C2562 C2566 1.531 . S
C2563 C2562 1.369 . S
C2563 C2564 1.410 . S
C2563 C2571 1.503 . S
C2564 C2563 1.410 . S
C2564 C2565 1.392 . S
C2564 C2567 1.511 . S
C2565 C2561 1.376 . S
C2565 C2564 1.392 . S
C2565 H2577 0.929 . S
C2566 C2562 1.531 . S
C2566 H2578 0.960 . S
C2566 H2579 0.962 . S
C2566 H2580 0.960 . S
C2567 C2564 1.511 . S
C2567 H2581 0.961 . S
C2567 H2582 0.961 . S
C2567 H2583 0.961 . S
C2568 C2569 1.370 . S
C2568 C2570 1.363 . S
C2568 H2584 0.931 . S
C2569 C2568 1.370 . S
C2569 C2573 1.408 . S
C2570 C2568 1.363 . S
C2570 C2571 1.370 . S
C2570 C2574 1.524 . S
C2571 C2563 1.503 . S
C2571 C2570 1.370 . S
C2571 C2572 1.403 . S
C2572 C2571 1.403 . S
C2572 C2573 1.404 . S
C2572 C2575 1.539 . S
C2573 C2569 1.408 . S
C2573 C2572 1.404 . S
C2573 H2585 0.930 . S
C2574 C2570 1.524 . S
C2574 H2586 0.956 . S
C2574 H2587 0.961 . S
C2574 H2588 0.961 . S
C2575 C2572 1.539 . S
C2575 H2589 0.958 . S
C2575 H2590 0.961 . S
C2575 H2591 0.960 . S
H2576 C2560 0.931 . S
H2577 C2565 0.929 . S
H2578 C2566 0.960 . S
H2579 C2566 0.962 . S
H2580 C2566 0.960 . S
H2581 C2567 0.961 . S
H2582 C2567 0.961 . S
H2583 C2567 0.961 . S
H2584 C2568 0.931 . S
H2585 C2573 0.930 . S
H2586 C2574 0.956 . S
H2587 C2574 0.961 . S
H2588 C2574 0.961 . S
H2589 C2575 0.958 . S
H2590 C2575 0.961 . S
H2591 C2575 0.960 . S
C2592 C2593 1.391 . S
C2592 C2594 1.394 . S
C2592 H2608 0.931 . S
C2593 C2592 1.391 . S
C2593 C2597 1.376 . S
C2594 C2592 1.394 . S
C2594 C2595 1.369 . S
C2594 C2598 1.531 . S
C2595 C2594 1.369 . S
C2595 C2596 1.410 . S
C2595 C2603 1.503 . S
C2596 C2595 1.410 . S
C2596 C2597 1.392 . S
C2596 C2599 1.511 . S
C2597 C2593 1.376 . S
C2597 C2596 1.392 . S
C2597 H2609 0.929 . S
C2598 C2594 1.531 . S
C2598 H2610 0.960 . S
C2598 H2611 0.962 . S
C2598 H2612 0.960 . S
C2599 C2596 1.511 . S
C2599 H2613 0.961 . S
C2599 H2614 0.961 . S
C2599 H2615 0.961 . S
C2600 C2601 1.370 . S
C2600 C2602 1.363 . S
C2600 H2616 0.931 . S
C2601 C2600 1.370 . S
C2601 C2605 1.408 . S
C2602 C2600 1.363 . S
C2602 C2603 1.370 . S
C2602 C2606 1.524 . S
C2603 C2595 1.503 . S
C2603 C2602 1.370 . S
C2603 C2604 1.403 . S
C2604 C2603 1.403 . S
C2604 C2605 1.404 . S
C2604 C2607 1.539 . S
C2605 C2601 1.408 . S
C2605 C2604 1.404 . S
C2605 H2617 0.930 . S
C2606 C2602 1.524 . S
C2606 H2618 0.956 . S
C2606 H2619 0.961 . S
C2606 H2620 0.961 . S
C2607 C2604 1.539 . S
C2607 H2621 0.958 . S
C2607 H2622 0.961 . S
C2607 H2623 0.960 . S
H2608 C2592 0.931 . S
H2609 C2597 0.929 . S
H2610 C2598 0.960 . S
H2611 C2598 0.962 . S
H2612 C2598 0.960 . S
H2613 C2599 0.961 . S
H2614 C2599 0.961 . S
H2615 C2599 0.961 . S
H2616 C2600 0.931 . S
H2617 C2605 0.930 . S
H2618 C2606 0.956 . S
H2619 C2606 0.961 . S
H2620 C2606 0.961 . S
H2621 C2607 0.958 . S
H2622 C2607 0.961 . S
H2623 C2607 0.960 . S
C2624 C2625 1.391 . S
C2624 C2626 1.394 . S
C2624 H2640 0.931 . S
C2625 C2624 1.391 . S
C2625 C2629 1.376 . S
C2626 C2624 1.394 . S
C2626 C2627 1.369 . S
C2626 C2630 1.531 . S
C2627 C2626 1.369 . S
C2627 C2628 1.410 . S
C2627 C2635 1.503 . S
C2628 C2627 1.410 . S
C2628 C2629 1.392 . S
C2628 C2631 1.511 . S
C2629 C2625 1.376 . S
C2629 C2628 1.392 . S
C2629 H2641 0.929 . S
C2630 C2626 1.531 . S
C2630 H2642 0.960 . S
C2630 H2643 0.962 . S
C2630 H2644 0.960 . S
C2631 C2628 1.511 . S
C2631 H2645 0.961 . S
C2631 H2646 0.961 . S
C2631 H2647 0.961 . S
C2632 C2633 1.370 . S
C2632 C2634 1.363 . S
C2632 H2648 0.931 . S
C2633 C2632 1.370 . S
C2633 C2637 1.408 . S
C2634 C2632 1.363 . S
C2634 C2635 1.370 . S
C2634 C2638 1.524 . S
C2635 C2627 1.503 . S
C2635 C2634 1.370 . S
C2635 C2636 1.403 . S
C2636 C2635 1.403 . S
C2636 C2637 1.404 . S
C2636 C2639 1.539 . S
C2637 C2633 1.408 . S
C2637 C2636 1.404 . S
C2637 H2649 0.930 . S
C2638 C2634 1.524 . S
C2638 H2650 0.956 . S
C2638 H2651 0.961 . S
C2638 H2652 0.961 . S
C2639 C2636 1.539 . S
C2639 H2653 0.958 . S
C2639 H2654 0.961 . S
C2639 H2655 0.960 . S
H2640 C2624 0.931 . S
H2641 C2629 0.929 . S
H2642 C2630 0.960 . S
H2643 C2630 0.962 . S
H2644 C2630 0.960 . S
H2645 C2631 0.961 . S
H2646 C2631 0.961 . S
H2647 C2631 0.961 . S
H2648 C2632 0.931 . S
H2649 C2637 0.930 . S
H2650 C2638 0.956 . S
H2651 C2638 0.961 . S
H2652 C2638 0.961 . S
H2653 C2639 0.958 . S
H2654 C2639 0.961 . S
H2655 C2639 0.960 . S
C2656 C2657 1.391 . S
C2656 C2658 1.394 . S
C2656 H2672 0.931 . S
C2657 C2656 1.391 . S
C2657 C2661 1.376 . S
C2658 C2656 1.394 . S
C2658 C2659 1.369 . S
C2658 C2662 1.531 . S
C2659 C2658 1.369 . S
C2659 C2660 1.410 . S
C2659 C2667 1.503 . S
C2660 C2659 1.410 . S
C2660 C2661 1.392 . S
C2660 C2663 1.511 . S
C2661 C2657 1.376 . S
C2661 C2660 1.392 . S
C2661 H2673 0.929 . S
C2662 C2658 1.531 . S
C2662 H2674 0.960 . S
C2662 H2675 0.962 . S
C2662 H2676 0.960 . S
C2663 C2660 1.511 . S
C2663 H2677 0.961 . S
C2663 H2678 0.961 . S
C2663 H2679 0.961 . S
C2664 C2665 1.370 . S
C2664 C2666 1.363 . S
C2664 H2680 0.931 . S
C2665 C2664 1.370 . S
C2665 C2669 1.408 . S
C2666 C2664 1.363 . S
C2666 C2667 1.370 . S
C2666 C2670 1.524 . S
C2667 C2659 1.503 . S
C2667 C2666 1.370 . S
C2667 C2668 1.403 . S
C2668 C2667 1.403 . S
C2668 C2669 1.404 . S
C2668 C2671 1.539 . S
C2669 C2665 1.408 . S
C2669 C2668 1.404 . S
C2669 H2681 0.930 . S
C2670 C2666 1.524 . S
C2670 H2682 0.956 . S
C2670 H2683 0.961 . S
C2670 H2684 0.961 . S
C2671 C2668 1.539 . S
C2671 H2685 0.958 . S
C2671 H2686 0.961 . S
C2671 H2687 0.960 . S
H2672 C2656 0.931 . S
H2673 C2661 0.929 . S
H2674 C2662 0.960 . S
H2675 C2662 0.962 . S
H2676 C2662 0.960 . S
H2677 C2663 0.961 . S
H2678 C2663 0.961 . S
H2679 C2663 0.961 . S
H2680 C2664 0.931 . S
H2681 C2669 0.930 . S
H2682 C2670 0.956 . S
H2683 C2670 0.961 . S
H2684 C2670 0.961 . S
H2685 C2671 0.958 . S
H2686 C2671 0.961 . S
H2687 C2671 0.960 . S
C2688 C2689 1.391 . S
C2688 C2690 1.394 . S
C2688 H2704 0.931 . S
C2689 C2688 1.391 . S
C2689 C2693 1.376 . S
C2690 C2688 1.394 . S
C2690 C2691 1.369 . S
C2690 C2694 1.531 . S
C2691 C2690 1.369 . S
C2691 C2692 1.410 . S
C2691 C2699 1.503 . S
C2692 C2691 1.410 . S
C2692 C2693 1.392 . S
C2692 C2695 1.511 . S
C2693 C2689 1.376 . S
C2693 C2692 1.392 . S
C2693 H2705 0.929 . S
C2694 C2690 1.531 . S
C2694 H2706 0.960 . S
C2694 H2707 0.962 . S
C2694 H2708 0.960 . S
C2695 C2692 1.511 . S
C2695 H2709 0.961 . S
C2695 H2710 0.961 . S
C2695 H2711 0.961 . S
C2696 C2697 1.370 . S
C2696 C2698 1.363 . S
C2696 H2712 0.931 . S
C2697 C2696 1.370 . S
C2697 C2701 1.408 . S
C2698 C2696 1.363 . S
C2698 C2699 1.370 . S
C2698 C2702 1.524 . S
C2699 C2691 1.503 . S
C2699 C2698 1.370 . S
C2699 C2700 1.403 . S
C2700 C2699 1.403 . S
C2700 C2701 1.404 . S
C2700 C2703 1.539 . S
C2701 C2697 1.408 . S
C2701 C2700 1.404 . S
C2701 H2713 0.930 . S
C2702 C2698 1.524 . S
C2702 H2714 0.956 . S
C2702 H2715 0.961 . S
C2702 H2716 0.961 . S
C2703 C2700 1.539 . S
C2703 H2717 0.958 . S
C2703 H2718 0.961 . S
C2703 H2719 0.960 . S
H2704 C2688 0.931 . S
H2705 C2693 0.929 . S
H2706 C2694 0.960 . S
H2707 C2694 0.962 . S
H2708 C2694 0.960 . S
H2709 C2695 0.961 . S
H2710 C2695 0.961 . S
H2711 C2695 0.961 . S
H2712 C2696 0.931 . S
H2713 C2701 0.930 . S
H2714 C2702 0.956 . S
H2715 C2702 0.961 . S
H2716 C2702 0.961 . S
H2717 C2703 0.958 . S
H2718 C2703 0.961 . S
H2719 C2703 0.960 . S
C2720 C2721 1.391 . S
C2720 C2722 1.380 1_554 S
C2720 H2736 0.931 . S
C2721 C2720 1.391 . S
C2721 C2725 1.376 . S
C2722 C2720 1.380 1_556 S
C2722 C2723 1.362 1_556 S
C2722 C2726 1.551 . S
C2723 C2722 1.362 1_554 S
C2723 C2724 1.410 . S
C2723 C2731 1.503 1_454 S
C2724 C2723 1.410 . S
C2724 C2725 1.392 . S
C2724 C2727 1.511 1_455 S
C2725 C2721 1.376 . S
C2725 C2724 1.392 . S
C2725 H2737 0.929 . S
C2726 C2722 1.551 . S
C2726 H2738 0.960 . S
C2726 H2739 0.962 . S
C2726 H2740 0.960 . S
C2727 C2724 1.511 1_655 S
C2727 H2741 0.961 . S
C2727 H2742 0.961 . S
C2727 H2743 0.961 . S
C2728 C2729 1.370 . S
C2728 C2730 1.363 . S
C2728 H2744 0.931 . S
C2729 C2728 1.370 . S
C2729 C2733 1.408 . S
C2730 C2728 1.363 . S
C2730 C2731 1.370 . S
C2730 C2734 1.519 1_556 S
C2731 C2723 1.503 1_656 S
C2731 C2730 1.370 . S
C2731 C2732 1.403 . S
C2732 C2731 1.403 . S
C2732 C2733 1.404 . S
C2732 C2735 1.539 1_655 S
C2733 C2729 1.408 . S
C2733 C2732 1.404 . S
C2733 H2745 0.930 . S
C2734 C2730 1.519 1_554 S
C2734 H2746 0.953 1_554 S
C2734 H2747 0.971 . S
C2734 H2748 0.959 1_554 S
C2735 C2732 1.539 1_455 S
C2735 H2749 0.958 . S
C2735 H2750 0.939 1_455 S
C2735 H2751 0.960 . S
H2736 C2720 0.931 . S
H2737 C2725 0.929 . S
H2738 C2726 0.960 . S
H2739 C2726 0.962 . S
H2740 C2726 0.960 . S
H2741 C2727 0.961 . S
H2742 C2727 0.961 . S
H2743 C2727 0.961 . S
H2744 C2728 0.931 . S
H2745 C2733 0.930 . S
H2746 C2734 0.953 1_556 S
H2747 C2734 0.971 . S
H2748 C2734 0.959 1_556 S
H2749 C2735 0.958 . S
H2750 C2735 0.939 1_655 S
H2751 C2735 0.960 . S
C2752 C2753 1.391 . S
C2752 C2754 1.394 . S
C2752 H2768 0.931 . S
C2753 C2752 1.391 . S
C2753 C2757 1.376 . S
C2754 C2752 1.394 . S
C2754 C2755 1.369 . S
C2754 C2758 1.531 . S
C2755 C2754 1.369 . S
C2755 C2756 1.410 . S
C2755 C2763 1.503 . S
C2756 C2755 1.410 . S
C2756 C2757 1.392 . S
C2756 C2759 1.511 . S
C2757 C2753 1.376 . S
C2757 C2756 1.392 . S
C2757 H2769 0.929 . S
C2758 C2754 1.531 . S
C2758 H2770 0.960 . S
C2758 H2771 0.962 . S
C2758 H2772 0.960 . S
C2759 C2756 1.511 . S
C2759 H2773 0.961 . S
C2759 H2774 0.961 . S
C2759 H2775 0.961 . S
C2760 C2761 1.370 . S
C2760 C2762 1.363 . S
C2760 H2776 0.931 . S
C2761 C2760 1.370 . S
C2761 C2765 1.408 . S
C2762 C2760 1.363 . S
C2762 C2763 1.370 . S
C2762 C2766 1.524 . S
C2763 C2755 1.503 . S
C2763 C2762 1.370 . S
C2763 C2764 1.403 . S
C2764 C2763 1.403 . S
C2764 C2765 1.404 . S
C2764 C2767 1.539 . S
C2765 C2761 1.408 . S
C2765 C2764 1.404 . S
C2765 H2777 0.930 . S
C2766 C2762 1.524 . S
C2766 H2778 0.956 . S
C2766 H2779 0.961 . S
C2766 H2780 0.961 . S
C2767 C2764 1.539 . S
C2767 H2781 0.958 . S
C2767 H2782 0.961 . S
C2767 H2783 0.960 . S
H2768 C2752 0.931 . S
H2769 C2757 0.929 . S
H2770 C2758 0.960 . S
H2771 C2758 0.962 . S
H2772 C2758 0.960 . S
H2773 C2759 0.961 . S
H2774 C2759 0.961 . S
H2775 C2759 0.961 . S
H2776 C2760 0.931 . S
H2777 C2765 0.930 . S
H2778 C2766 0.956 . S
H2779 C2766 0.961 . S
H2780 C2766 0.961 . S
H2781 C2767 0.958 . S
H2782 C2767 0.961 . S
H2783 C2767 0.960 . S
C2784 C2785 1.391 . S
C2784 C2786 1.394 . S
C2784 H2800 0.931 . S
C2785 C2784 1.391 . S
C2785 C2789 1.376 . S
C2786 C2784 1.394 . S
C2786 C2787 1.369 . S
C2786 C2790 1.531 . S
C2787 C2786 1.369 . S
C2787 C2788 1.410 . S
C2787 C2795 1.503 . S
C2788 C2787 1.410 . S
C2788 C2789 1.392 . S
C2788 C2791 1.511 . S
C2789 C2785 1.376 . S
C2789 C2788 1.392 . S
C2789 H2801 0.929 . S
C2790 C2786 1.531 . S
C2790 H2802 0.960 . S
C2790 H2803 0.962 . S
C2790 H2804 0.960 . S
C2791 C2788 1.511 . S
C2791 H2805 0.961 . S
C2791 H2806 0.961 . S
C2791 H2807 0.961 . S
C2792 C2793 1.370 . S
C2792 C2794 1.363 . S
C2792 H2808 0.931 . S
C2793 C2792 1.370 . S
C2793 C2797 1.408 . S
C2794 C2792 1.363 . S
C2794 C2795 1.370 . S
C2794 C2798 1.524 . S
C2795 C2787 1.503 . S
C2795 C2794 1.370 . S
C2795 C2796 1.403 . S
C2796 C2795 1.403 . S
C2796 C2797 1.404 . S
C2796 C2799 1.539 . S
C2797 C2793 1.408 . S
C2797 C2796 1.404 . S
C2797 H2809 0.930 . S
C2798 C2794 1.524 . S
C2798 H2810 0.956 . S
C2798 H2811 0.961 . S
C2798 H2812 0.961 . S
C2799 C2796 1.539 . S
C2799 H2813 0.958 . S
C2799 H2814 0.961 . S
C2799 H2815 0.960 . S
H2800 C2784 0.931 . S
H2801 C2789 0.929 . S
H2802 C2790 0.960 . S
H2803 C2790 0.962 . S
H2804 C2790 0.960 . S
H2805 C2791 0.961 . S
H2806 C2791 0.961 . S
H2807 C2791 0.961 . S
H2808 C2792 0.931 . S
H2809 C2797 0.930 . S
H2810 C2798 0.956 . S
H2811 C2798 0.961 . S
H2812 C2798 0.961 . S
H2813 C2799 0.958 . S
H2814 C2799 0.961 . S
H2815 C2799 0.960 . S
C2816 C2817 1.391 1_565 S
C2816 C2818 1.394 . S
C2816 H2832 0.931 . S
C2817 C2816 1.391 1_545 S
C2817 C2821 1.376 . S
C2818 C2816 1.394 . S
C2818 C2819 1.369 . S
C2818 C2822 1.531 1_455 S
C2819 C2818 1.369 . S
C2819 C2820 1.405 1_566 S
C2819 C2827 1.503 1_456 S
C2820 C2819 1.405 1_544 S
C2820 C2821 1.381 1_554 S
C2820 C2823 1.527 . S
C2821 C2817 1.376 . S
C2821 C2820 1.381 1_556 S
C2821 H2833 0.929 . S
C2822 C2818 1.531 1_655 S
C2822 H2834 0.960 . S
C2822 H2835 0.962 . S
C2822 H2836 0.972 . S
C2823 C2820 1.527 . S
C2823 H2837 0.961 . S
C2823 H2838 0.961 . S
C2823 H2839 0.961 . S
C2824 C2825 1.370 1_545 S
C2824 C2826 1.363 . S
C2824 H2840 0.931 . S
C2825 C2824 1.370 1_565 S
C2825 C2829 1.408 . S
C2826 C2824 1.363 . S
C2826 C2827 1.370 1_545 S
C2826 C2830 1.524 1_554 S
C2827 C2819 1.503 1_654 S
C2827 C2826 1.370 1_565 S
C2827 C2828 1.403 . S
C2828 C2827 1.403 . S
C2828 C2829 1.404 . S
C2828 C2831 1.539 1_655 S
C2829 C2825 1.408 . S
C2829 C2828 1.404 . S
C2829 H2841 0.930 . S
C2830 C2826 1.524 1_556 S
C2830 H2842 0.956 . S
C2830 H2843 0.961 . S
C2830 H2844 0.961 . S
C2831 C2828 1.539 1_455 S
C2831 H2845 0.958 . S
C2831 H2846 0.961 . S
C2831 H2847 0.960 . S
H2832 C2816 0.931 . S
H2833 C2821 0.929 . S
H2834 C2822 0.960 . S
H2835 C2822 0.962 . S
H2836 C2822 0.972 . S
H2837 C2823 0.961 . S
H2838 C2823 0.961 . S
H2839 C2823 0.961 . S
H2840 C2824 0.931 . S
H2841 C2829 0.930 . S
H2842 C2830 0.956 . S
H2843 C2830 0.961 . S
H2844 C2830 0.961 . S
H2845 C2831 0.958 . S
H2846 C2831 0.961 . S
H2847 C2831 0.960 . S
C2848 C2849 1.391 . S
C2848 C2850 1.394 . S
C2848 H2864 0.931 . S
C2849 C2848 1.391 . S
C2849 C2853 1.376 . S
C2850 C2848 1.394 . S
C2850 C2851 1.369 . S
C2850 C2854 1.531 . S
C2851 C2850 1.369 . S
C2851 C2852 1.410 . S
C2851 C2859 1.503 . S
C2852 C2851 1.410 . S
C2852 C2853 1.392 . S
C2852 C2855 1.511 . S
C2853 C2849 1.376 . S
C2853 C2852 1.392 . S
C2853 H2865 0.929 . S
C2854 C2850 1.531 . S
C2854 H2866 0.960 . S
C2854 H2867 0.962 1_545 S
C2854 H2868 0.960 . S
C2855 C2852 1.511 . S
C2855 H2869 0.961 1_545 S
C2855 H2870 0.961 1_545 S
C2855 H2871 0.961 . S
C2856 C2857 1.370 . S
C2856 C2858 1.363 . S
C2856 H2872 0.931 . S
C2857 C2856 1.370 . S
C2857 C2861 1.408 1_565 S
C2858 C2856 1.363 . S
C2858 C2859 1.370 1_565 S
C2858 C2862 1.524 . S
C2859 C2851 1.503 . S
C2859 C2858 1.370 1_545 S
C2859 C2860 1.403 . S
C2860 C2859 1.403 . S
C2860 C2861 1.404 . S
C2860 C2863 1.539 . S
C2861 C2857 1.408 1_545 S
C2861 C2860 1.404 . S
C2861 H2873 0.930 . S
C2862 C2858 1.524 . S
C2862 H2874 0.956 . S
C2862 H2875 0.961 . S
C2862 H2876 0.961 . S
C2863 C2860 1.539 . S
C2863 H2877 0.958 . S
C2863 H2878 0.961 . S
C2863 H2879 0.960 . S
H2864 C2848 0.931 . S
H2865 C2853 0.929 . S
H2866 C2854 0.960 . S
H2867 C2854 0.962 1_565 S
H2868 C2854 0.960 . S
H2869 C2855 0.961 1_565 S
H2870 C2855 0.961 1_565 S
H2871 C2855 0.961 . S
H2872 C2856 0.931 . S
H2873 C2861 0.930 . S
H2874 C2862 0.956 . S
H2875 C2862 0.961 . S
H2876 C2862 0.961 . S
H2877 C2863 0.958 . S
H2878 C2863 0.961 . S
H2879 C2863 0.960 . S
C1345 C67 2.423 . S
C1353 C907 2.425 . S
C1377 C151 2.418 . S
C1385 C991 2.424 . S
C1409 C235 2.432 . S
C1417 C739 2.429 . S
C1441 C319 2.437 . S
C1449 C823 2.435 . S
C1473 C392 2.439 . S
C1481 C1232 2.431 . S
C1505 C476 2.410 . S
C1513 C1316 2.428 . S
C1537 C560 2.408 . S
C1545 C1064 2.425 . S
C1569 C644 2.432 . S
C1577 C1148 2.427 . S
C1601 C831 3.660 . S
C1609 C56 3.616 1_556 S
C1633 C915 3.656 . S
C1641 C140 3.614 . S
C1665 C999 3.660 . S
C1673 C224 3.616 . S
C1697 C747 3.641 . S
C1705 C308 3.606 . S
C1729 C403 3.597 1_554 S
C1737 C1158 3.654 . S
C1761 C1242 3.643 . S
C1769 C487 3.608 . S
C1793 C1326 3.643 . S
C1801 C571 3.609 . S
C1825 C1074 3.653 . S
C1833 C655 3.614 . S
C1857 C159 3.665 . S
C1865 C728 3.619 . S
C1889 C812 3.604 . S
C1897 C243 3.656 . S
C1921 C896 3.590 1_556 S
C1929 C327 3.652 . S
C1953 C980 3.591 . S
C1961 C75 3.653 . S
C1985 C1075 3.591 . S
C1993 C486 3.652 . S
C2017 C570 3.647 . S
C2025 C1159 3.609 . S
C2049 C654 3.656 . S
C2057 C1243 3.614 1_554 S
C2081 C1327 3.601 . S
C2089 C402 3.655 . S
C2113 C72 0.649 . S
C2121 C1335 0.529 . S
C2145 C156 0.543 . S
C2153 C411 0.518 . S
C2177 C1167 0.465 . S
C2185 C240 0.598 . S
C2209 C579 0.578 . S
C2217 C324 0.659 . S
C2241 C399 0.647 . S
C2249 C990 0.539 . S
C2273 C483 0.710 . S
C2281 C66 0.568 . S
C2305 C822 0.583 . S
C2313 C567 0.596 . S
C2337 C234 0.567 . S
C2345 C651 0.589 . S
C2369 C744 0.725 . S
C2377 C663 0.577 . S
C2401 C828 0.702 . S
C2409 C1083 0.591 . S
C2433 C495 0.476 . S
C2441 C912 0.577 . S
C2465 C1251 0.546 . S
C2473 C996 0.651 . S
C2497 C1071 0.519 . S
C2505 C318 0.518 . S
C2529 C1155 0.512 . S
C2537 C738 0.538 . S
C2561 C1239 0.723 . S
C2569 C150 0.589 . S
C2593 C906 0.632 . S
C2601 C1323 0.630 . S
C2625 C63 1.069 . S
C2633 C1080 1.156 . S
C2657 C147 1.196 . S
C2665 C492 1.102 . S
C2689 C231 1.190 . S
C2697 C1248 1.105 . S
C2721 C660 1.188 . S
C2729 C315 1.107 . S
C2753 C408 1.150 . S
C2761 C735 1.125 . S
C2785 C903 1.084 . S
C2793 C576 1.142 . S
C2817 C819 1.198 . S
C2825 C1164 1.096 . S
C2849 C1332 1.100 . S
C2857 C987 1.135 . S
