# Generated by pormake.
# Topology npo, (4)-cn, num edge types: 1
# Building blocks:
#     Node 0, Type 0, BuildingBlock: CEKHIL_clean_sbu_0, # of connection points: 4
#     Node 1, Type 0, BuildingBlock: CEKHIL_clean_sbu_0, # of connection points: 4
#     Node 2, Type 0, BuildingBlock: CEKHIL_clean_sbu_0, # of connection points: 4
#     Node 3, Type 0, BuildingBlock: CEKHIL_clean_sbu_0, # of connection points: 4
#     Node 4, Type 0, BuildingBlock: CEKHIL_clean_sbu_0, # of connection points: 4
#     Node 5, Type 0, BuildingBlock: CEKHIL_clean_sbu_0, # of connection points: 4
#     Edge 6, Type (0, 0), BuildingBlock: UVAHIK_clean_linker_0, # of connection points: 2
#     Edge 7, Type (0, 0), BuildingBlock: UVAHIK_clean_linker_0, # of connection points: 2
#     Edge 8, Type (0, 0), BuildingBlock: UVAHIK_clean_linker_0, # of connection points: 2
#     Edge 9, Type (0, 0), BuildingBlock: UVAHIK_clean_linker_0, # of connection points: 2
#     Edge 10, Type (0, 0), BuildingBlock: UVAHIK_clean_linker_0, # of connection points: 2
#     Edge 11, Type (0, 0), BuildingBlock: UVAHIK_clean_linker_0, # of connection points: 2
#     Edge 12, Type (0, 0), BuildingBlock: UVAHIK_clean_linker_0, # of connection points: 2
#     Edge 13, Type (0, 0), BuildingBlock: UVAHIK_clean_linker_0, # of connection points: 2
#     Edge 14, Type (0, 0), BuildingBlock: UVAHIK_clean_linker_0, # of connection points: 2
#     Edge 15, Type (0, 0), BuildingBlock: UVAHIK_clean_linker_0, # of connection points: 2
#     Edge 16, Type (0, 0), BuildingBlock: UVAHIK_clean_linker_0, # of connection points: 2
#     Edge 17, Type (0, 0), BuildingBlock: UVAHIK_clean_linker_0, # of connection points: 2
# Relax obj value: 0.296
# Max RMSD: 0.248
# Mean RMSD: 0.243
data_MOF--net-npo--node1-CEKHIL_clean_sbu_0--edge1-UVAHIK_clean_linker_0
_symmetry_space_group_name_H-M    P1
_symmetry_Int_Tables_number       1
_symmetry_cell_setting            triclinic
loop_
_symmetry_equiv_pos_as_xyz
'x, y, z'
_cell_length_a     57.685438
_cell_length_b     56.814952
_cell_length_c     30.796266
_cell_angle_alpha  91.203285
_cell_angle_beta   89.993905
_cell_angle_gamma 120.67491
loop_
_atom_site_label
_atom_site_type_symbol
_atom_site_fract_x
_atom_site_fract_y
_atom_site_fract_z
_atom_type_partial_charge
Co0 Co 0.52361 0.09147 0.24174 0.0
O1 O 0.49615 0.05741 0.26538 0.0
O2 O 0.53982 0.07788 0.28091 0.0
C3 C 0.50247 0.11527 0.25135 0.0
O4 O 0.55761 0.12706 0.22717 0.0
Co5 Co 0.51401 0.11684 0.15985 0.0
O6 O 0.54899 0.14958 0.17641 0.0
C7 C 0.52566 0.07203 0.14957 0.0
C8 C 0.5155 0.05787 0.28777 0.0
C9 C 0.56461 0.14827 0.2042 0.0
O10 O 0.52903 0.07177 0.19087 0.0
O11 O 0.51799 0.08711 0.13175 0.0
O12 O 0.51477 0.11177 0.28371 0.0
O13 O 0.50052 0.10154 0.2162 0.0
Co14 Co 0.43424 0.54785 0.73174 0.0
O15 O 0.46205 0.54482 0.70277 0.0
O16 O 0.41863 0.51306 0.7007 0.0
C17 C 0.44684 0.59031 0.71025 0.0
O18 O 0.39975 0.54463 0.75532 0.0
Co19 Co 0.44897 0.59238 0.80453 0.0
O20 O 0.41076 0.58198 0.79706 0.0
C21 C 0.45238 0.54341 0.82215 0.0
C22 C 0.44299 0.52135 0.68758 0.0
C23 C 0.39337 0.56009 0.77708 0.0
O24 O 0.44001 0.53194 0.78611 0.0
O25 O 0.46 0.56822 0.83292 0.0
O26 O 0.4327 0.56935 0.68442 0.0
O27 O 0.45539 0.58522 0.74553 0.0
Co28 Co 0.86848 0.42415 0.25478 0.0
O29 O 0.89147 0.4152 0.28721 0.0
O30 O 0.88821 0.45205 0.29859 0.0
C31 C 0.83096 0.38255 0.25624 0.0
O32 O 0.84621 0.43959 0.23078 0.0
Co33 Co 0.84341 0.39637 0.16522 0.0
O34 O 0.82349 0.41623 0.17035 0.0
C35 C 0.90139 0.43599 0.1736 0.0
C36 C 0.89849 0.43737 0.31009 0.0
C37 C 0.82903 0.43438 0.20001 0.0
O38 O 0.89788 0.44419 0.21096 0.0
O39 O 0.88287 0.41518 0.15266 0.0
O40 O 0.8377 0.3992 0.28964 0.0
O41 O 0.84832 0.3904 0.22538 0.0
Co42 Co 0.42949 0.87991 0.7304 0.0
O43 O 0.43499 0.91432 0.71035 0.0
O44 O 0.45833 0.89501 0.68927 0.0
C45 C 0.38426 0.85638 0.72339 0.0
O46 O 0.42907 0.84444 0.74 0.0
Co47 Co 0.39625 0.85014 0.81147 0.0
O48 O 0.39584 0.81781 0.78517 0.0
C49 C 0.45313 0.89514 0.82176 0.0
C50 C 0.45338 0.91475 0.68536 0.0
C51 C 0.41371 0.82128 0.75764 0.0
O52 O 0.45564 0.89864 0.78047 0.0
O53 O 0.43119 0.87774 0.83992 0.0
O54 O 0.39931 0.86032 0.68975 0.0
O55 O 0.39684 0.86864 0.759 0.0
Co56 Co 0.54027 0.42284 0.22718 0.0
O57 O 0.50545 0.41301 0.20288 0.0
O58 O 0.54446 0.4495 0.18592 0.0
C59 C 0.53481 0.38078 0.22167 0.0
O60 O 0.58023 0.43928 0.24117 0.0
Co61 Co 0.5484 0.39864 0.31151 0.0
O62 O 0.58666 0.41682 0.29457 0.0
C63 C 0.53144 0.43958 0.31686 0.0
C64 C 0.51857 0.43477 0.17973 0.0
C65 C 0.59567 0.43457 0.265 0.0
O66 O 0.53539 0.44429 0.276 0.0
O67 O 0.53375 0.42114 0.33604 0.0
O68 O 0.54181 0.39617 0.18782 0.0
O69 O 0.5295 0.39035 0.25614 0.0
Co70 Co 0.10345 0.56116 0.75845 0.0
O71 O 0.07539 0.5618 0.79145 0.0
O72 O 0.08842 0.53149 0.79841 0.0
C73 C 0.13383 0.60614 0.76605 0.0
O74 O 0.13239 0.5547 0.73346 0.0
Co75 Co 0.12614 0.59364 0.67378 0.0
O76 O 0.15584 0.58621 0.68357 0.0
C77 C 0.07227 0.54374 0.6736 0.0
C78 C 0.07324 0.54092 0.81161 0.0
C79 C 0.15284 0.56726 0.70855 0.0
O80 O 0.07667 0.53751 0.71144 0.0
O81 O 0.08825 0.5663 0.6552 0.0
O82 O 0.13074 0.58956 0.79689 0.0
O83 O 0.11708 0.59551 0.73378 0.0
C84 C 0.48959 0.14497 0.21212 0.0
C85 C 0.49858 0.13898 0.25045 0.0
C86 C 0.49068 0.16994 0.2082 0.0
C87 C 0.49672 0.22907 0.26909 0.0
H88 H 0.53488 0.27008 0.16787 0.0
C89 C 0.53525 0.34345 0.2613 0.0
C90 C 0.533 0.354 0.22178 0.0
C91 C 0.53075 0.31699 0.26305 0.0
C92 C 0.52383 0.25879 0.19596 0.0
H93 H 0.51388 0.15352 0.31585 0.0
H94 H 0.51539 0.19701 0.30919 0.0
H95 H 0.52465 0.22304 0.17503 0.0
H96 H 0.52515 0.34563 0.15277 0.0
H97 H 0.51636 0.29873 0.15585 0.0
H98 H 0.49558 0.2645 0.29002 0.0
C99 C 0.50772 0.18247 0.28208 0.0
C100 C 0.51798 0.23187 0.20006 0.0
C101 C 0.50687 0.15759 0.28587 0.0
C102 C 0.52709 0.33794 0.18362 0.0
C103 C 0.5221 0.31113 0.18545 0.0
C104 C 0.50229 0.25585 0.2648 0.0
C105 C 0.50043 0.1892 0.24274 0.0
C106 C 0.50468 0.2169 0.23693 0.0
C107 C 0.52334 0.30018 0.22543 0.0
C108 C 0.51631 0.27122 0.22855 0.0
H109 H 0.48279 0.13089 0.18441 0.0
H110 H 0.4845 0.17447 0.17779 0.0
H111 H 0.48618 0.21786 0.29759 0.0
H112 H 0.54019 0.35554 0.29115 0.0
H113 H 0.53279 0.3096 0.29412 0.0
C114 C 0.34628 0.53454 0.74608 0.0
C115 C 0.36501 0.55354 0.77652 0.0
C116 C 0.32086 0.53176 0.74116 0.0
C117 C 0.2901 0.57379 0.75492 0.0
H118 H 0.22235 0.50659 0.73122 0.0
C119 C 0.17201 0.53982 0.73836 0.0
C120 C 0.17453 0.56062 0.71118 0.0
C121 C 0.19374 0.53583 0.7449 0.0
C122 C 0.24115 0.52548 0.73791 0.0
H123 H 0.37086 0.58277 0.82814 0.0
H124 H 0.32664 0.57771 0.81975 0.0
H125 H 0.26266 0.50454 0.74966 0.0
H126 H 0.20154 0.59253 0.66784 0.0
H127 H 0.23928 0.58547 0.67924 0.0
H128 H 0.26887 0.5948 0.74343 0.0
C129 C 0.3318 0.56545 0.79901 0.0
C130 C 0.26419 0.52431 0.74822 0.0
C131 C 0.35712 0.56827 0.80388 0.0
C132 C 0.19887 0.57644 0.68917 0.0
C133 C 0.22058 0.57251 0.69588 0.0
C134 C 0.26725 0.57496 0.74435 0.0
C135 C 0.31376 0.5479 0.76661 0.0
C136 C 0.28889 0.5485 0.75691 0.0
C137 C 0.21846 0.55263 0.7246 0.0
C138 C 0.24255 0.55087 0.73552 0.0
H139 H 0.35168 0.52283 0.72456 0.0
H140 H 0.30738 0.51809 0.71587 0.0
H141 H 0.30891 0.59281 0.76083 0.0
H142 H 0.15353 0.52717 0.75572 0.0
H143 H 0.19156 0.52041 0.76733 0.0
C144 C 0.60475 0.19005 0.17593 0.0
C145 C 0.59204 0.17207 0.21009 0.0
C146 C 0.63082 0.21245 0.18136 0.0
C147 C 0.6913 0.24055 0.25419 0.0
H148 H 0.71137 0.30753 0.1941 0.0
C149 C 0.78809 0.34627 0.2886 0.0
C150 C 0.80414 0.35769 0.2519 0.0
C151 C 0.76242 0.32301 0.28419 0.0
C152 C 0.70596 0.28888 0.21092 0.0
H153 H 0.59627 0.16366 0.27701 0.0
H154 H 0.64123 0.20344 0.2873 0.0
H155 H 0.66569 0.26851 0.1859 0.0
H156 H 0.80602 0.35382 0.18192 0.0
H157 H 0.76077 0.31374 0.17421 0.0
H158 H 0.73157 0.26172 0.28046 0.0
C159 C 0.6316 0.19979 0.25572 0.0
C160 C 0.67989 0.26643 0.20604 0.0
C161 C 0.60574 0.17706 0.24997 0.0
C162 C 0.79412 0.34548 0.21078 0.0
C163 C 0.76825 0.32263 0.20629 0.0
C164 C 0.71722 0.26325 0.25976 0.0
C165 C 0.64456 0.21774 0.22142 0.0
C166 C 0.67224 0.24186 0.22734 0.0
C167 C 0.75224 0.31126 0.24294 0.0
C168 C 0.72475 0.28746 0.23791 0.0
H169 H 0.59472 0.18654 0.1447 0.0
H170 H 0.64026 0.22539 0.15386 0.0
H171 H 0.68641 0.22189 0.27045 0.0
H172 H 0.7954 0.35525 0.32067 0.0
H173 H 0.75029 0.31453 0.31284 0.0
C174 C 0.43812 0.80162 0.71788 0.0
C175 C 0.41756 0.79806 0.74635 0.0
C176 C 0.44211 0.7799 0.70779 0.0
C177 C 0.40872 0.70467 0.70832 0.0
H178 H 0.48173 0.71813 0.71266 0.0
C179 C 0.43158 0.61879 0.67297 0.0
C180 C 0.44772 0.61644 0.70471 0.0
C181 C 0.42959 0.64225 0.67176 0.0
C182 C 0.46126 0.7141 0.71122 0.0
H183 H 0.38477 0.76867 0.78594 0.0
H184 H 0.39194 0.73085 0.76856 0.0
H185 H 0.4739 0.75618 0.7237 0.0
H186 H 0.47553 0.63726 0.75853 0.0
H187 H 0.47209 0.67821 0.75639 0.0
H188 H 0.39599 0.66246 0.69732 0.0
C189 C 0.4048 0.75042 0.75378 0.0
C190 C 0.45678 0.73589 0.71719 0.0
C191 C 0.40083 0.77216 0.76398 0.0
C192 C 0.46289 0.6385 0.73377 0.0
C193 C 0.46102 0.662 0.73239 0.0
C194 C 0.4132 0.68291 0.70219 0.0
C195 C 0.42558 0.75412 0.72578 0.0
C196 C 0.43043 0.73132 0.71646 0.0
C197 C 0.44386 0.66385 0.70205 0.0
C198 C 0.43948 0.68735 0.70422 0.0
H199 H 0.4513 0.82125 0.70351 0.0
H200 H 0.4581 0.78325 0.68574 0.0
H201 H 0.38822 0.70059 0.70712 0.0
H202 H 0.41968 0.6021 0.65012 0.0
H203 H 0.41646 0.64329 0.6477 0.0
C204 C 0.64316 0.45051 0.28768 0.0
C205 C 0.62489 0.44904 0.25604 0.0
C206 C 0.67013 0.46051 0.27738 0.0
C207 C 0.7078 0.45873 0.18658 0.0
H208 H 0.76992 0.50144 0.26206 0.0
C209 C 0.80204 0.45135 0.16253 0.0
C210 C 0.8135 0.44853 0.20084 0.0
C211 C 0.78424 0.4612 0.16416 0.0
C212 C 0.75278 0.48935 0.24066 0.0
H213 H 0.62093 0.45853 0.18954 0.0
H214 H 0.66805 0.47536 0.17128 0.0
H215 H 0.72815 0.50135 0.27576 0.0
H216 H 0.81645 0.45511 0.27067 0.0
H217 H 0.7845 0.47086 0.27396 0.0
H218 H 0.73113 0.44477 0.15359 0.0
C219 C 0.66143 0.46892 0.20409 0.0
C220 C 0.72896 0.48952 0.24835 0.0
C221 C 0.63451 0.45932 0.2146 0.0
C222 C 0.80797 0.45713 0.24056 0.0
C223 C 0.78972 0.46639 0.24234 0.0
C224 C 0.73138 0.45816 0.17934 0.0
C225 C 0.67928 0.46888 0.23507 0.0
C226 C 0.70601 0.47353 0.22216 0.0
C227 C 0.77694 0.46776 0.20429 0.0
C228 C 0.75393 0.4727 0.20717 0.0
H229 H 0.63642 0.44299 0.32001 0.0
H230 H 0.6834 0.46004 0.3018 0.0
H231 H 0.69032 0.44596 0.16614 0.0
H232 H 0.8063 0.44529 0.13134 0.0
H233 H 0.7755 0.46273 0.13402 0.0
C234 C 0.34514 0.81362 0.69196 0.0
C235 C 0.35567 0.8346 0.72386 0.0
C236 C 0.31919 0.79099 0.69598 0.0
C237 C 0.26851 0.75351 0.78021 0.0
H238 H 0.22383 0.7132 0.68044 0.0
C239 C 0.1574 0.65257 0.73443 0.0
C240 C 0.15711 0.63424 0.7646 0.0
C241 C 0.18007 0.67863 0.73074 0.0
C242 C 0.23582 0.72438 0.70879 0.0
H243 H 0.34695 0.84934 0.78352 0.0
H244 H 0.30129 0.81044 0.78972 0.0
H245 H 0.26518 0.7566 0.67007 0.0
H246 H 0.18005 0.62878 0.81495 0.0
H247 H 0.22002 0.67397 0.80769 0.0
H248 H 0.23881 0.72165 0.81905 0.0
C249 C 0.31329 0.81088 0.76236 0.0
C250 C 0.25978 0.74912 0.70273 0.0
C251 C 0.33936 0.83329 0.75863 0.0
C252 C 0.17969 0.64259 0.79162 0.0
C253 C 0.20253 0.66856 0.78755 0.0
C254 C 0.24442 0.72891 0.78631 0.0
C255 C 0.30313 0.78909 0.73171 0.0
C256 C 0.27662 0.76382 0.7383 0.0
C257 C 0.20311 0.68682 0.75674 0.0
C258 C 0.22794 0.71384 0.75062 0.0
H259 H 0.35737 0.81402 0.66498 0.0
H260 H 0.31221 0.77448 0.67203 0.0
H261 H 0.28111 0.76403 0.80837 0.0
H262 H 0.14014 0.6467 0.71341 0.0
H263 H 0.17955 0.69231 0.70732 0.0
C264 C 0.49145 0.9407 0.8462 0.0
C265 C 0.4762 0.91227 0.85082 0.0
C266 C 0.5088 0.95733 0.87979 0.0
C267 C 0.51031 0.95397 -0.00202 0.0
H268 H 0.56819 0.02916 0.98755 0.0
C269 C 0.53266 0.03223 0.13568 0.0
C270 C 0.53143 0.0547 0.12033 0.0
C271 C 0.5361 0.01499 0.10656 0.0
C272 C 0.55225 0.00808 -0.0089 0.0
H273 H 0.46939 0.87851 0.89094 0.0
H274 H 0.50048 0.90734 0.94862 0.0
H275 H 0.5564 -0.00271 0.92569 0.0
H276 H 0.53488 0.07785 0.06296 0.0
H277 H 0.54042 0.04787 0.01275 0.0
H278 H 0.50504 0.96503 0.06229 0.0
C279 C 0.49836 0.91702 0.92018 0.0
C280 C 0.54544 -0.01013 0.95565 0.0
C281 C 0.48064 0.9005 0.88713 0.0
C282 C 0.53528 0.06047 0.07587 0.0
C283 C 0.53892 0.04349 0.04704 0.0
C284 C 0.51715 0.97211 0.03334 0.0
C285 C 0.51141 0.94567 0.91811 0.0
C286 C 0.52347 0.96297 0.95801 0.0
C287 C 0.53871 0.02018 0.0618 0.0
C288 C 0.53721 -0.00029 0.0295 0.0
H289 H 0.48831 0.95018 0.81842 0.0
H290 H 0.5184 0.97931 0.87706 0.0
H291 H 0.49312 0.93351 0.00109 0.0
H292 H 0.53 0.02741 0.16982 0.0
H293 H 0.53594 -0.00281 0.11885 0.0
C294 C 0.54033 0.4712 0.37887 0.0
C295 C 0.52336 0.45545 0.34429 0.0
C296 C 0.53016 0.47902 0.41375 0.0
C297 C 0.47154 0.4819 0.45616 0.0
H298 H 0.49585 0.46811 0.5651 0.0
C299 C 0.42857 0.48976 0.62244 0.0
C300 C 0.44871 0.50694 0.65269 0.0
C301 C 0.43534 0.48058 0.58465 0.0
C302 C 0.4889 0.47208 0.53497 0.0
H303 H 0.48302 0.43671 0.31724 0.0
H304 H 0.46495 0.45028 0.37864 0.0
H305 H 0.51326 0.46142 0.49694 0.0
H306 H 0.49126 0.52656 0.6687 0.0
H307 H 0.50295 0.51016 0.60349 0.0
H308 H 0.44719 0.49266 0.49472 0.0
C309 C 0.48621 0.45696 0.37858 0.0
C310 C 0.49902 0.46848 0.49591 0.0
C311 C 0.49653 0.44935 0.34334 0.0
C312 C 0.47534 0.51334 0.64592 0.0
C313 C 0.48202 0.5039 0.6086 0.0
C314 C 0.46133 0.48547 0.49543 0.0
C315 C 0.50266 0.47071 0.41507 0.0
C316 C 0.49093 0.47391 0.45611 0.0
C317 C 0.46224 0.48807 0.57699 0.0
C318 C 0.47033 0.48108 0.53524 0.0
H319 H 0.56102 0.47583 0.38031 0.0
H320 H 0.5435 0.49024 0.44087 0.0
H321 H 0.46486 0.48614 0.42602 0.0
H322 H 0.4079 0.48466 0.62676 0.0
H323 H 0.41967 0.46816 0.56098 0.0
C324 C 0.04313 0.54318 0.86795 0.0
C325 C 0.0562 0.53005 0.85035 0.0
C326 C 0.02913 0.53451 0.90691 0.0
C327 C -0.0042 0.47532 0.97744 0.0
H328 H 0.0047 0.52877 0.06641 0.0
C329 C 0.94069 0.43861 0.13693 0.0
C330 C 0.92715 0.45186 0.15142 0.0
C331 C 0.96092 0.45068 0.10612 0.0
C332 C 0.0019 0.51361 0.04182 0.0
H333 H 0.06443 0.49722 0.8593 0.0
H334 H 0.03977 0.48193 0.92708 0.0
H335 H 0.02961 0.5441 -0.00138 0.0
H336 H 0.92473 0.4885 0.14737 0.0
H337 H 0.95958 0.50943 0.09225 0.0
H338 H 0.96757 0.44486 0.01945 0.0
C339 C 0.04035 0.49892 0.91074 0.0
C340 C 0.01612 0.52239 0.003 0.0
C341 C 0.05447 0.50768 0.87194 0.0
C342 C 0.93528 0.47816 0.13696 0.0
C343 C 0.95521 0.49007 0.10537 0.0
C344 C 0.98148 0.46656 0.01597 0.0
C345 C 0.02778 0.51242 0.92886 0.0
C346 C 0.01312 0.5033 0.97038 0.0
C347 C 0.96741 0.47588 0.08822 0.0
C348 C 0.98428 0.48556 0.04868 0.0
H349 H 0.04415 0.56052 0.8521 0.0
H350 H 0.01929 0.54503 0.91978 0.0
H351 H -0.00723 0.46016 0.95266 0.0
H352 H 0.93462 0.41826 0.14778 0.0
H353 H 0.97047 0.43957 0.09465 0.0
C354 C 0.5309 0.0371 0.34327 0.0
C355 C 0.50988 0.0387 0.32332 0.0
C356 C 0.52629 0.02218 0.38106 0.0
C357 C 0.47131 0.97273 0.45314 0.0
H358 H 0.52767 0.00527 0.54156 0.0
C359 C 0.45148 0.94685 0.63352 0.0
C360 C 0.46506 0.93411 0.64953 0.0
C361 C 0.45913 0.96058 0.5943 0.0
C362 C 0.51187 -0.004 0.51701 0.0
H363 H 0.46735 0.02515 0.32626 0.0
H364 H 0.45946 7e-05 0.39268 0.0
H365 H 0.536 0.02518 0.46962 0.0
H366 H 0.49845 0.92744 0.63888 0.0
H367 H 0.51244 0.95246 0.57087 0.0
H368 H 0.44685 0.94441 0.50162 0.0
C369 C 0.4794 0.00963 0.37889 0.0
C370 C 0.51664 0.00716 0.47563 0.0
C371 C 0.48393 0.02415 0.34074 0.0
C372 C 0.48763 0.93705 0.62722 0.0
C373 C 0.49562 0.95131 0.58841 0.0
C374 C 0.4664 0.96199 0.49471 0.0
C375 C 0.50065 0.00892 0.40015 0.0
C376 C 0.49632 -0.00419 0.44319 0.0
C377 C 0.48083 0.96232 0.57098 0.0
C378 C 0.48655 0.97367 0.52701 0.0
H379 H 0.55109 0.04797 0.33032 0.0
H380 H 0.543 0.02153 0.39575 0.0
H381 H 0.45538 0.96295 0.4289 0.0
H382 H 0.43395 0.94483 0.64988 0.0
H383 H 0.44759 0.96913 0.58147 0.0
C384 C 0.47658 0.54118 0.88726 0.0
C385 C 0.45694 0.52731 0.8546 0.0
C386 C 0.47873 0.52709 0.92191 0.0
C387 C 0.46281 0.46042 0.96195 0.0
H388 H 0.47315 0.49793 0.07339 0.0
C389 C 0.48101 0.4221 0.12616 0.0
C390 C 0.5052 0.44211 0.14634 0.0
C391 C 0.47005 0.42898 0.09146 0.0
C392 C 0.47008 0.48712 0.04256 0.0
H393 H 0.42517 0.48741 0.8313 0.0
H394 H 0.42901 0.46254 0.89262 0.0
H395 H 0.46396 0.51598 0.00878 0.0
H396 H 0.53636 0.48499 0.14731 0.0
H397 H 0.5169 0.49711 0.08783 0.0
H398 H 0.46964 0.43189 -0.00384 0.0
C399 C 0.44261 0.48444 0.89113 0.0
C400 C 0.46496 0.49749 0.00556 0.0
C401 C 0.44048 0.49865 0.85607 0.0
C402 C 0.51771 0.46917 0.13234 0.0
C403 C 0.50652 0.47612 0.09843 0.0
C404 C 0.46782 0.44991 -0.00074 0.0
C405 C 0.46123 0.49875 0.92505 0.0
C406 C 0.46232 0.48489 0.96462 0.0
C407 C 0.48281 0.45607 0.07728 0.0
C408 C 0.47245 0.46378 0.03956 0.0
H409 H 0.48995 0.56317 0.88671 0.0
H410 H 0.49386 0.53856 0.94683 0.0
H411 H 0.46079 0.45027 0.93083 0.0
H412 H 0.47109 0.40103 0.1362 0.0
H413 H 0.45172 0.41321 0.07563 0.0
C414 C 0.04422 0.49878 0.63486 0.0
C415 C 0.04802 0.52418 0.64884 0.0
C416 C 0.02446 0.48299 0.60337 0.0
C417 C 0.96414 0.47513 0.54673 0.0
H418 H -0.00728 0.45834 0.44434 0.0
C419 C 0.91897 0.46576 0.37755 0.0
C420 C 0.91563 0.44444 0.34946 0.0
C421 C 0.93319 0.47109 0.41666 0.0
C422 C 0.98425 0.46243 0.4729 0.0
H423 H 0.03368 0.55252 0.64332 0.0
H424 H -0.0013 0.52475 0.58959 0.0
H425 H 0.01935 0.47344 0.51165 0.0
H426 H 0.92516 0.41239 0.33977 0.0
H427 H 0.95037 0.42197 0.40814 0.0
H428 H 0.92945 0.46502 0.50773 0.0
C429 C 0.01084 0.5169 0.60251 0.0
C430 C -0.00055 0.47097 0.51148 0.0
C431 C 0.03085 0.53283 0.63317 0.0
C432 C 0.92741 0.42898 0.36079 0.0
C433 C 0.94185 0.43445 0.39988 0.0
C434 C 0.94897 0.46659 0.50826 0.0
C435 C 0.00799 0.49226 0.58622 0.0
C436 C -0.01013 0.4782 0.54837 0.0
C437 C 0.94452 0.45531 0.42852 0.0
C438 C 0.95922 0.46098 0.47056 0.0
H439 H 0.05759 0.49199 0.64618 0.0
H440 H 0.02264 0.46405 0.5914 0.0
H441 H 0.95611 0.48021 0.57486 0.0
H442 H 0.91015 0.47805 0.36979 0.0
H443 H 0.93537 0.48766 0.43764 0.0
loop_
_geom_bond_atom_site_label_1
_geom_bond_atom_site_label_2
_geom_bond_distance
_geom_bond_site_symmetry_2
_ccdc_geom_bond_type
Co0 O1 2.216 . S
Co0 O2 2.091 . S
Co0 O4 2.004 . S
Co0 O10 2.021 . S
Co0 O12 2.137 . S
Co0 O13 2.244 . S
O1 Co0 2.216 . S
O1 C8 1.247 . S
O2 Co0 2.091 . S
O2 C8 1.261 . S
C3 O12 1.247 . S
C3 O13 1.272 . S
O4 Co0 2.004 . S
O4 C9 1.259 . S
Co5 O6 2.061 . S
Co5 O11 2.052 . S
Co5 O13 2.135 . S
O6 Co5 2.061 . S
O6 C9 1.235 . S
C7 O10 1.238 . S
C7 O11 1.241 . S
C8 O1 1.247 . S
C8 O2 1.261 . S
C9 O4 1.259 . S
C9 O6 1.235 . S
O10 Co0 2.021 . S
O10 C7 1.238 . S
O11 Co5 2.052 . S
O11 C7 1.241 . S
O12 Co0 2.137 . S
O12 C3 1.247 . S
O13 Co0 2.244 . S
O13 C3 1.272 . S
O13 Co5 2.135 . S
Co14 O15 2.216 . S
Co14 O16 2.091 . S
Co14 O18 2.004 . S
Co14 O24 2.021 . S
Co14 O26 2.137 . S
Co14 O27 2.244 . S
O15 Co14 2.216 . S
O15 C22 1.247 . S
O16 Co14 2.091 . S
O16 C22 1.261 . S
C17 O26 1.247 . S
C17 O27 1.272 . S
O18 Co14 2.004 . S
O18 C23 1.259 . S
Co19 O20 2.061 . S
Co19 O25 2.052 . S
Co19 O27 2.135 . S
O20 Co19 2.061 . S
O20 C23 1.235 . S
C21 O24 1.238 . S
C21 O25 1.241 . S
C22 O15 1.247 . S
C22 O16 1.261 . S
C23 O18 1.259 . S
C23 O20 1.235 . S
O24 Co14 2.021 . S
O24 C21 1.238 . S
O25 Co19 2.052 . S
O25 C21 1.241 . S
O26 Co14 2.137 . S
O26 C17 1.247 . S
O27 Co14 2.244 . S
O27 C17 1.272 . S
O27 Co19 2.135 . S
Co28 O29 2.216 . S
Co28 O30 2.091 . S
Co28 O32 2.004 . S
Co28 O38 2.021 . S
Co28 O40 2.137 . S
Co28 O41 2.244 . S
O29 Co28 2.216 . S
O29 C36 1.247 . S
O30 Co28 2.091 . S
O30 C36 1.261 . S
C31 O40 1.247 . S
C31 O41 1.272 . S
O32 Co28 2.004 . S
O32 C37 1.259 . S
Co33 O34 2.061 . S
Co33 O39 2.052 . S
Co33 O41 2.135 . S
O34 Co33 2.061 . S
O34 C37 1.235 . S
C35 O38 1.238 . S
C35 O39 1.241 . S
C36 O29 1.247 . S
C36 O30 1.261 . S
C37 O32 1.259 . S
C37 O34 1.235 . S
O38 Co28 2.021 . S
O38 C35 1.238 . S
O39 Co33 2.052 . S
O39 C35 1.241 . S
O40 Co28 2.137 . S
O40 C31 1.247 . S
O41 Co28 2.244 . S
O41 C31 1.272 . S
O41 Co33 2.135 . S
Co42 O43 2.216 . S
Co42 O44 2.091 . S
Co42 O46 2.004 . S
Co42 O52 2.021 . S
Co42 O54 2.137 . S
Co42 O55 2.244 . S
O43 Co42 2.216 . S
O43 C50 1.247 . S
O44 Co42 2.091 . S
O44 C50 1.261 . S
C45 O54 1.247 . S
C45 O55 1.272 . S
O46 Co42 2.004 . S
O46 C51 1.259 . S
Co47 O48 2.061 . S
Co47 O53 2.052 . S
Co47 O55 2.135 . S
O48 Co47 2.061 . S
O48 C51 1.235 . S
C49 O52 1.238 . S
C49 O53 1.241 . S
C50 O43 1.247 . S
C50 O44 1.261 . S
C51 O46 1.259 . S
C51 O48 1.235 . S
O52 Co42 2.021 . S
O52 C49 1.238 . S
O53 Co47 2.052 . S
O53 C49 1.241 . S
O54 Co42 2.137 . S
O54 C45 1.247 . S
O55 Co42 2.244 . S
O55 C45 1.272 . S
O55 Co47 2.135 . S
Co56 O57 2.216 . S
Co56 O58 2.091 . S
Co56 O60 2.004 . S
Co56 O66 2.021 . S
Co56 O68 2.137 . S
Co56 O69 2.244 . S
O57 Co56 2.216 . S
O57 C64 1.247 . S
O58 Co56 2.091 . S
O58 C64 1.261 . S
C59 O68 1.247 . S
C59 O69 1.272 . S
O60 Co56 2.004 . S
O60 C65 1.259 . S
Co61 O62 2.061 . S
Co61 O67 2.052 . S
Co61 O69 2.135 . S
O62 Co61 2.061 . S
O62 C65 1.235 . S
C63 O66 1.238 . S
C63 O67 1.241 . S
C64 O57 1.247 . S
C64 O58 1.261 . S
C65 O60 1.259 . S
C65 O62 1.235 . S
O66 Co56 2.021 . S
O66 C63 1.238 . S
O67 Co61 2.052 . S
O67 C63 1.241 . S
O68 Co56 2.137 . S
O68 C59 1.247 . S
O69 Co56 2.244 . S
O69 C59 1.272 . S
O69 Co61 2.135 . S
Co70 O71 2.216 . S
Co70 O72 2.091 . S
Co70 O74 2.004 . S
Co70 O80 2.021 . S
Co70 O82 2.137 . S
Co70 O83 2.244 . S
O71 Co70 2.216 . S
O71 C78 1.247 . S
O72 Co70 2.091 . S
O72 C78 1.261 . S
C73 O82 1.247 . S
C73 O83 1.272 . S
O74 Co70 2.004 . S
O74 C79 1.259 . S
Co75 O76 2.061 . S
Co75 O81 2.052 . S
Co75 O83 2.135 . S
O76 Co75 2.061 . S
O76 C79 1.235 . S
C77 O80 1.238 . S
C77 O81 1.241 . S
C78 O71 1.247 . S
C78 O72 1.261 . S
C79 O74 1.259 . S
C79 O76 1.235 . S
O80 Co70 2.021 . S
O80 C77 1.238 . S
O81 Co75 2.052 . S
O81 C77 1.241 . S
O82 Co70 2.137 . S
O82 C73 1.247 . S
O83 Co70 2.244 . S
O83 C73 1.272 . S
O83 Co75 2.135 . S
C84 C85 1.349 . S
C84 C86 1.327 . S
C84 H109 0.950 . S
C85 C84 1.349 . S
C85 C101 1.349 . S
C86 C84 1.327 . S
C86 C105 1.429 . S
C86 H110 0.950 . S
C87 C104 1.574 . S
C87 C106 1.368 . S
C87 H111 0.949 . S
H88 C92 0.949 . S
C89 C90 1.349 . S
C89 C91 1.327 . S
C89 H112 0.950 . S
C90 C89 1.349 . S
C90 C102 1.349 . S
C91 C89 1.327 . S
C91 C107 1.429 . S
C91 H113 0.950 . S
C92 H88 0.949 . S
C92 C100 1.574 . S
C92 C108 1.368 . S
H93 C101 0.950 . S
H94 C99 0.950 . S
H95 C100 0.949 . S
H96 C102 0.950 . S
H97 C103 0.950 . S
H98 C104 0.949 . S
C99 H94 0.950 . S
C99 C101 1.327 . S
C99 C105 1.429 . S
C100 C92 1.574 . S
C100 H95 0.949 . S
C100 C106 1.368 . S
C101 C85 1.349 . S
C101 H93 0.950 . S
C101 C99 1.327 . S
C102 C90 1.349 . S
C102 H96 0.950 . S
C102 C103 1.327 . S
C103 H97 0.950 . S
C103 C102 1.327 . S
C103 C107 1.429 . S
C104 C87 1.574 . S
C104 H98 0.949 . S
C104 C108 1.368 . S
C105 C86 1.429 . S
C105 C99 1.429 . S
C105 C106 1.523 . S
C106 C87 1.368 . S
C106 C100 1.368 . S
C106 C105 1.523 . S
C107 C91 1.429 . S
C107 C103 1.429 . S
C107 C108 1.523 . S
C108 C92 1.368 . S
C108 C104 1.368 . S
C108 C107 1.523 . S
H109 C84 0.950 . S
H110 C86 0.950 . S
H111 C87 0.949 . S
H112 C89 0.950 . S
H113 C91 0.950 . S
C114 C115 1.349 . S
C114 C116 1.327 . S
C114 H139 0.950 . S
C115 C114 1.349 . S
C115 C131 1.349 . S
C116 C114 1.327 . S
C116 C135 1.429 . S
C116 H140 0.950 . S
C117 C134 1.574 . S
C117 C136 1.368 . S
C117 H141 0.949 . S
H118 C122 0.949 . S
C119 C120 1.349 . S
C119 C121 1.327 . S
C119 H142 0.950 . S
C120 C119 1.349 . S
C120 C132 1.349 . S
C121 C119 1.327 . S
C121 C137 1.429 . S
C121 H143 0.950 . S
C122 H118 0.949 . S
C122 C130 1.574 . S
C122 C138 1.368 . S
H123 C131 0.950 . S
H124 C129 0.950 . S
H125 C130 0.949 . S
H126 C132 0.950 . S
H127 C133 0.950 . S
H128 C134 0.949 . S
C129 H124 0.950 . S
C129 C131 1.327 . S
C129 C135 1.429 . S
C130 C122 1.574 . S
C130 H125 0.949 . S
C130 C136 1.368 . S
C131 C115 1.349 . S
C131 H123 0.950 . S
C131 C129 1.327 . S
C132 C120 1.349 . S
C132 H126 0.950 . S
C132 C133 1.327 . S
C133 H127 0.950 . S
C133 C132 1.327 . S
C133 C137 1.429 . S
C134 C117 1.574 . S
C134 H128 0.949 . S
C134 C138 1.368 . S
C135 C116 1.429 . S
C135 C129 1.429 . S
C135 C136 1.523 . S
C136 C117 1.368 . S
C136 C130 1.368 . S
C136 C135 1.523 . S
C137 C121 1.429 . S
C137 C133 1.429 . S
C137 C138 1.523 . S
C138 C122 1.368 . S
C138 C134 1.368 . S
C138 C137 1.523 . S
H139 C114 0.950 . S
H140 C116 0.950 . S
H141 C117 0.949 . S
H142 C119 0.950 . S
H143 C121 0.950 . S
C144 C145 1.349 . S
C144 C146 1.327 . S
C144 H169 0.950 . S
C145 C144 1.349 . S
C145 C161 1.349 . S
C146 C144 1.327 . S
C146 C165 1.429 . S
C146 H170 0.950 . S
C147 C164 1.574 . S
C147 C166 1.368 . S
C147 H171 0.949 . S
H148 C152 0.949 . S
C149 C150 1.349 . S
C149 C151 1.327 . S
C149 H172 0.950 . S
C150 C149 1.349 . S
C150 C162 1.349 . S
C151 C149 1.327 . S
C151 C167 1.429 . S
C151 H173 0.950 . S
C152 H148 0.949 . S
C152 C160 1.574 . S
C152 C168 1.368 . S
H153 C161 0.950 . S
H154 C159 0.950 . S
H155 C160 0.949 . S
H156 C162 0.950 . S
H157 C163 0.950 . S
H158 C164 0.949 . S
C159 H154 0.950 . S
C159 C161 1.327 . S
C159 C165 1.429 . S
C160 C152 1.574 . S
C160 H155 0.949 . S
C160 C166 1.368 . S
C161 C145 1.349 . S
C161 H153 0.950 . S
C161 C159 1.327 . S
C162 C150 1.349 . S
C162 H156 0.950 . S
C162 C163 1.327 . S
C163 H157 0.950 . S
C163 C162 1.327 . S
C163 C167 1.429 . S
C164 C147 1.574 . S
C164 H158 0.949 . S
C164 C168 1.368 . S
C165 C146 1.429 . S
C165 C159 1.429 . S
C165 C166 1.523 . S
C166 C147 1.368 . S
C166 C160 1.368 . S
C166 C165 1.523 . S
C167 C151 1.429 . S
C167 C163 1.429 . S
C167 C168 1.523 . S
C168 C152 1.368 . S
C168 C164 1.368 . S
C168 C167 1.523 . S
H169 C144 0.950 . S
H170 C146 0.950 . S
H171 C147 0.949 . S
H172 C149 0.950 . S
H173 C151 0.950 . S
C174 C175 1.349 . S
C174 C176 1.327 . S
C174 H199 0.950 . S
C175 C174 1.349 . S
C175 C191 1.349 . S
C176 C174 1.327 . S
C176 C195 1.429 . S
C176 H200 0.950 . S
C177 C194 1.574 . S
C177 C196 1.368 . S
C177 H201 0.949 . S
H178 C182 0.949 . S
C179 C180 1.349 . S
C179 C181 1.327 . S
C179 H202 0.950 . S
C180 C179 1.349 . S
C180 C192 1.349 . S
C181 C179 1.327 . S
C181 C197 1.429 . S
C181 H203 0.950 . S
C182 H178 0.949 . S
C182 C190 1.574 . S
C182 C198 1.368 . S
H183 C191 0.950 . S
H184 C189 0.950 . S
H185 C190 0.949 . S
H186 C192 0.950 . S
H187 C193 0.950 . S
H188 C194 0.949 . S
C189 H184 0.950 . S
C189 C191 1.327 . S
C189 C195 1.429 . S
C190 C182 1.574 . S
C190 H185 0.949 . S
C190 C196 1.368 . S
C191 C175 1.349 . S
C191 H183 0.950 . S
C191 C189 1.327 . S
C192 C180 1.349 . S
C192 H186 0.950 . S
C192 C193 1.327 . S
C193 H187 0.950 . S
C193 C192 1.327 . S
C193 C197 1.429 . S
C194 C177 1.574 . S
C194 H188 0.949 . S
C194 C198 1.368 . S
C195 C176 1.429 . S
C195 C189 1.429 . S
C195 C196 1.523 . S
C196 C177 1.368 . S
C196 C190 1.368 . S
C196 C195 1.523 . S
C197 C181 1.429 . S
C197 C193 1.429 . S
C197 C198 1.523 . S
C198 C182 1.368 . S
C198 C194 1.368 . S
C198 C197 1.523 . S
H199 C174 0.950 . S
H200 C176 0.950 . S
H201 C177 0.949 . S
H202 C179 0.950 . S
H203 C181 0.950 . S
C204 C205 1.349 . S
C204 C206 1.327 . S
C204 H229 0.950 . S
C205 C204 1.349 . S
C205 C221 1.349 . S
C206 C204 1.327 . S
C206 C225 1.429 . S
C206 H230 0.950 . S
C207 C224 1.574 . S
C207 C226 1.368 . S
C207 H231 0.949 . S
H208 C212 0.949 . S
C209 C210 1.349 . S
C209 C211 1.327 . S
C209 H232 0.950 . S
C210 C209 1.349 . S
C210 C222 1.349 . S
C211 C209 1.327 . S
C211 C227 1.429 . S
C211 H233 0.950 . S
C212 H208 0.949 . S
C212 C220 1.574 . S
C212 C228 1.368 . S
H213 C221 0.950 . S
H214 C219 0.950 . S
H215 C220 0.949 . S
H216 C222 0.950 . S
H217 C223 0.950 . S
H218 C224 0.949 . S
C219 H214 0.950 . S
C219 C221 1.327 . S
C219 C225 1.429 . S
C220 C212 1.574 . S
C220 H215 0.949 . S
C220 C226 1.368 . S
C221 C205 1.349 . S
C221 H213 0.950 . S
C221 C219 1.327 . S
C222 C210 1.349 . S
C222 H216 0.950 . S
C222 C223 1.327 . S
C223 H217 0.950 . S
C223 C222 1.327 . S
C223 C227 1.429 . S
C224 C207 1.574 . S
C224 H218 0.949 . S
C224 C228 1.368 . S
C225 C206 1.429 . S
C225 C219 1.429 . S
C225 C226 1.523 . S
C226 C207 1.368 . S
C226 C220 1.368 . S
C226 C225 1.523 . S
C227 C211 1.429 . S
C227 C223 1.429 . S
C227 C228 1.523 . S
C228 C212 1.368 . S
C228 C224 1.368 . S
C228 C227 1.523 . S
H229 C204 0.950 . S
H230 C206 0.950 . S
H231 C207 0.949 . S
H232 C209 0.950 . S
H233 C211 0.950 . S
C234 C235 1.349 . S
C234 C236 1.327 . S
C234 H259 0.950 . S
C235 C234 1.349 . S
C235 C251 1.349 . S
C236 C234 1.327 . S
C236 C255 1.429 . S
C236 H260 0.950 . S
C237 C254 1.574 . S
C237 C256 1.368 . S
C237 H261 0.949 . S
H238 C242 0.949 . S
C239 C240 1.349 . S
C239 C241 1.327 . S
C239 H262 0.950 . S
C240 C239 1.349 . S
C240 C252 1.349 . S
C241 C239 1.327 . S
C241 C257 1.429 . S
C241 H263 0.950 . S
C242 H238 0.949 . S
C242 C250 1.574 . S
C242 C258 1.368 . S
H243 C251 0.950 . S
H244 C249 0.950 . S
H245 C250 0.949 . S
H246 C252 0.950 . S
H247 C253 0.950 . S
H248 C254 0.949 . S
C249 H244 0.950 . S
C249 C251 1.327 . S
C249 C255 1.429 . S
C250 C242 1.574 . S
C250 H245 0.949 . S
C250 C256 1.368 . S
C251 C235 1.349 . S
C251 H243 0.950 . S
C251 C249 1.327 . S
C252 C240 1.349 . S
C252 H246 0.950 . S
C252 C253 1.327 . S
C253 H247 0.950 . S
C253 C252 1.327 . S
C253 C257 1.429 . S
C254 C237 1.574 . S
C254 H248 0.949 . S
C254 C258 1.368 . S
C255 C236 1.429 . S
C255 C249 1.429 . S
C255 C256 1.523 . S
C256 C237 1.368 . S
C256 C250 1.368 . S
C256 C255 1.523 . S
C257 C241 1.429 . S
C257 C253 1.429 . S
C257 C258 1.523 . S
C258 C242 1.368 . S
C258 C254 1.368 . S
C258 C257 1.523 . S
H259 C234 0.950 . S
H260 C236 0.950 . S
H261 C237 0.949 . S
H262 C239 0.950 . S
H263 C241 0.950 . S
C264 C265 1.349 . S
C264 C266 1.327 . S
C264 H289 0.950 . S
C265 C264 1.349 . S
C265 C281 1.349 . S
C266 C264 1.327 . S
C266 C285 1.429 . S
C266 H290 0.950 . S
C267 C284 1.574 1_556 S
C267 C286 1.368 . S
C267 H291 0.949 . S
H268 C272 0.949 . S
C269 C270 1.349 . S
C269 C271 1.327 . S
C269 H292 0.950 . S
C270 C269 1.349 . S
C270 C282 1.349 . S
C271 C269 1.327 . S
C271 C287 1.429 . S
C271 H293 0.950 . S
C272 H268 0.949 . S
C272 C280 1.574 1_554 S
C272 C288 1.368 . S
H273 C281 0.950 . S
H274 C279 0.950 . S
H275 C280 0.949 . S
H276 C282 0.950 . S
H277 C283 0.950 . S
H278 C284 0.949 . S
C279 H274 0.950 . S
C279 C281 1.327 . S
C279 C285 1.429 . S
C280 C272 1.574 1_556 S
C280 H275 0.949 . S
C280 C286 1.368 1_545 S
C281 C265 1.349 . S
C281 H273 0.950 . S
C281 C279 1.327 . S
C282 C270 1.349 . S
C282 H276 0.950 . S
C282 C283 1.327 . S
C283 H277 0.950 . S
C283 C282 1.327 . S
C283 C287 1.429 . S
C284 C267 1.574 1_554 S
C284 H278 0.949 . S
C284 C288 1.368 1_565 S
C285 C266 1.429 . S
C285 C279 1.429 . S
C285 C286 1.523 . S
C286 C267 1.368 . S
C286 C280 1.368 1_565 S
C286 C285 1.523 . S
C287 C271 1.429 . S
C287 C283 1.429 . S
C287 C288 1.523 . S
C288 C272 1.368 . S
C288 C284 1.368 1_545 S
C288 C287 1.523 . S
H289 C264 0.950 . S
H290 C266 0.950 . S
H291 C267 0.949 . S
H292 C269 0.950 . S
H293 C271 0.950 . S
C294 C295 1.349 . S
C294 C296 1.327 . S
C294 H319 0.950 . S
C295 C294 1.349 . S
C295 C311 1.349 . S
C296 C294 1.327 . S
C296 C315 1.429 . S
C296 H320 0.950 . S
C297 C314 1.574 . S
C297 C316 1.368 . S
C297 H321 0.949 . S
H298 C302 0.949 . S
C299 C300 1.349 . S
C299 C301 1.327 . S
C299 H322 0.950 . S
C300 C299 1.349 . S
C300 C312 1.349 . S
C301 C299 1.327 . S
C301 C317 1.429 . S
C301 H323 0.950 . S
C302 H298 0.949 . S
C302 C310 1.574 . S
C302 C318 1.368 . S
H303 C311 0.950 . S
H304 C309 0.950 . S
H305 C310 0.949 . S
H306 C312 0.950 . S
H307 C313 0.950 . S
H308 C314 0.949 . S
C309 H304 0.950 . S
C309 C311 1.327 . S
C309 C315 1.429 . S
C310 C302 1.574 . S
C310 H305 0.949 . S
C310 C316 1.368 . S
C311 C295 1.349 . S
C311 H303 0.950 . S
C311 C309 1.327 . S
C312 C300 1.349 . S
C312 H306 0.950 . S
C312 C313 1.327 . S
C313 H307 0.950 . S
C313 C312 1.327 . S
C313 C317 1.429 . S
C314 C297 1.574 . S
C314 H308 0.949 . S
C314 C318 1.368 . S
C315 C296 1.429 . S
C315 C309 1.429 . S
C315 C316 1.523 . S
C316 C297 1.368 . S
C316 C310 1.368 . S
C316 C315 1.523 . S
C317 C301 1.429 . S
C317 C313 1.429 . S
C317 C318 1.523 . S
C318 C302 1.368 . S
C318 C314 1.368 . S
C318 C317 1.523 . S
H319 C294 0.950 . S
H320 C296 0.950 . S
H321 C297 0.949 . S
H322 C299 0.950 . S
H323 C301 0.950 . S
C324 C325 1.349 . S
C324 C326 1.327 . S
C324 H349 0.950 . S
C325 C324 1.349 . S
C325 C341 1.349 . S
C326 C324 1.327 . S
C326 C345 1.429 . S
C326 H350 0.950 . S
C327 C344 1.574 1_456 S
C327 C346 1.368 . S
C327 H351 0.949 . S
H328 C332 0.949 . S
C329 C330 1.349 . S
C329 C331 1.327 . S
C329 H352 0.950 . S
C330 C329 1.349 . S
C330 C342 1.349 . S
C331 C329 1.327 . S
C331 C347 1.429 . S
C331 H353 0.950 . S
C332 H328 0.949 . S
C332 C340 1.574 1_654 S
C332 C348 1.368 . S
H333 C341 0.950 . S
H334 C339 0.950 . S
H335 C340 0.949 . S
H336 C342 0.950 . S
H337 C343 0.950 . S
H338 C344 0.949 . S
C339 H334 0.950 . S
C339 C341 1.327 . S
C339 C345 1.429 . S
C340 C332 1.574 1_456 S
C340 H335 0.949 . S
C340 C346 1.368 . S
C341 C325 1.349 . S
C341 H333 0.950 . S
C341 C339 1.327 . S
C342 C330 1.349 . S
C342 H336 0.950 . S
C342 C343 1.327 . S
C343 H337 0.950 . S
C343 C342 1.327 . S
C343 C347 1.429 . S
C344 C327 1.574 1_654 S
C344 H338 0.949 . S
C344 C348 1.368 . S
C345 C326 1.429 . S
C345 C339 1.429 . S
C345 C346 1.523 . S
C346 C327 1.368 . S
C346 C340 1.368 . S
C346 C345 1.523 . S
C347 C331 1.429 . S
C347 C343 1.429 . S
C347 C348 1.523 . S
C348 C332 1.368 . S
C348 C344 1.368 . S
C348 C347 1.523 . S
H349 C324 0.950 . S
H350 C326 0.950 . S
H351 C327 0.949 . S
H352 C329 0.950 . S
H353 C331 0.950 . S
C354 C355 1.349 . S
C354 C356 1.327 . S
C354 H379 0.950 . S
C355 C354 1.349 . S
C355 C371 1.349 . S
C356 C354 1.327 . S
C356 C375 1.429 . S
C356 H380 0.950 . S
C357 C374 1.574 . S
C357 C376 1.368 . S
C357 H381 0.949 . S
H358 C362 0.949 . S
C359 C360 1.349 . S
C359 C361 1.327 . S
C359 H382 0.950 . S
C360 C359 1.349 . S
C360 C372 1.349 . S
C361 C359 1.327 . S
C361 C377 1.429 . S
C361 H383 0.950 . S
C362 H358 0.949 . S
C362 C370 1.574 . S
C362 C378 1.368 . S
H363 C371 0.950 . S
H364 C369 0.950 . S
H365 C370 0.949 . S
H366 C372 0.950 . S
H367 C373 0.950 . S
H368 C374 0.949 . S
C369 H364 0.950 . S
C369 C371 1.327 . S
C369 C375 1.429 . S
C370 C362 1.574 . S
C370 H365 0.949 . S
C370 C376 1.368 1_565 S
C371 C355 1.349 . S
C371 H363 0.950 . S
C371 C369 1.327 . S
C372 C360 1.349 . S
C372 H366 0.950 . S
C372 C373 1.327 . S
C373 H367 0.950 . S
C373 C372 1.327 . S
C373 C377 1.429 . S
C374 C357 1.574 . S
C374 H368 0.949 . S
C374 C378 1.368 1_545 S
C375 C356 1.429 . S
C375 C369 1.429 . S
C375 C376 1.523 . S
C376 C357 1.368 . S
C376 C370 1.368 1_545 S
C376 C375 1.523 . S
C377 C361 1.429 . S
C377 C373 1.429 . S
C377 C378 1.523 . S
C378 C362 1.368 . S
C378 C374 1.368 1_565 S
C378 C377 1.523 . S
H379 C354 0.950 . S
H380 C356 0.950 . S
H381 C357 0.949 . S
H382 C359 0.950 . S
H383 C361 0.950 . S
C384 C385 1.349 . S
C384 C386 1.327 . S
C384 H409 0.950 . S
C385 C384 1.349 . S
C385 C401 1.349 . S
C386 C384 1.327 . S
C386 C405 1.429 . S
C386 H410 0.950 . S
C387 C404 1.574 . S
C387 C406 1.368 . S
C387 H411 0.949 . S
H388 C392 0.949 . S
C389 C390 1.349 . S
C389 C391 1.327 . S
C389 H412 0.950 . S
C390 C389 1.349 . S
C390 C402 1.349 . S
C391 C389 1.327 . S
C391 C407 1.429 . S
C391 H413 0.950 . S
C392 H388 0.949 . S
C392 C400 1.574 1_554 S
C392 C408 1.368 . S
H393 C401 0.950 . S
H394 C399 0.950 . S
H395 C400 0.949 . S
H396 C402 0.950 . S
H397 C403 0.950 . S
H398 C404 0.949 . S
C399 H394 0.950 . S
C399 C401 1.327 . S
C399 C405 1.429 . S
C400 C392 1.574 1_556 S
C400 H395 0.949 . S
C400 C406 1.368 . S
C401 C385 1.349 . S
C401 H393 0.950 . S
C401 C399 1.327 . S
C402 C390 1.349 . S
C402 H396 0.950 . S
C402 C403 1.327 . S
C403 H397 0.950 . S
C403 C402 1.327 . S
C403 C407 1.429 . S
C404 C387 1.574 . S
C404 H398 0.949 . S
C404 C408 1.368 1_556 S
C405 C386 1.429 . S
C405 C399 1.429 . S
C405 C406 1.523 . S
C406 C387 1.368 . S
C406 C400 1.368 . S
C406 C405 1.523 . S
C407 C391 1.429 . S
C407 C403 1.429 . S
C407 C408 1.523 . S
C408 C392 1.368 . S
C408 C404 1.368 1_554 S
C408 C407 1.523 . S
H409 C384 0.950 . S
H410 C386 0.950 . S
H411 C387 0.949 . S
H412 C389 0.950 . S
H413 C391 0.950 . S
C414 C415 1.349 . S
C414 C416 1.327 . S
C414 H439 0.950 . S
C415 C414 1.349 . S
C415 C431 1.349 . S
C416 C414 1.327 . S
C416 C435 1.429 . S
C416 H440 0.950 . S
C417 C434 1.574 . S
C417 C436 1.368 1_655 S
C417 H441 0.949 . S
H418 C422 0.949 . S
C419 C420 1.349 . S
C419 C421 1.327 . S
C419 H442 0.950 . S
C420 C419 1.349 . S
C420 C432 1.349 . S
C421 C419 1.327 . S
C421 C437 1.429 . S
C421 H443 0.950 . S
C422 H418 0.949 . S
C422 C430 1.574 . S
C422 C438 1.368 1_455 S
H423 C431 0.950 . S
H424 C429 0.950 . S
H425 C430 0.949 . S
H426 C432 0.950 . S
H427 C433 0.950 . S
H428 C434 0.949 . S
C429 H424 0.950 . S
C429 C431 1.327 . S
C429 C435 1.429 . S
C430 C422 1.574 . S
C430 H425 0.949 . S
C430 C436 1.368 . S
C431 C415 1.349 . S
C431 H423 0.950 . S
C431 C429 1.327 . S
C432 C420 1.349 . S
C432 H426 0.950 . S
C432 C433 1.327 . S
C433 H427 0.950 . S
C433 C432 1.327 . S
C433 C437 1.429 . S
C434 C417 1.574 . S
C434 H428 0.949 . S
C434 C438 1.368 . S
C435 C416 1.429 . S
C435 C429 1.429 . S
C435 C436 1.523 . S
C436 C417 1.368 1_455 S
C436 C430 1.368 . S
C436 C435 1.523 . S
C437 C421 1.429 . S
C437 C433 1.429 . S
C437 C438 1.523 . S
C438 C422 1.368 1_655 S
C438 C434 1.368 . S
C438 C437 1.523 . S
H439 C414 0.950 . S
H440 C416 0.950 . S
H441 C417 0.949 . S
H442 C419 0.950 . S
H443 C421 0.950 . S
C85 C3 0.900 . S
C90 C59 0.899 . S
C115 C23 0.853 . S
C120 C79 0.855 . S
C145 C9 0.883 . S
C150 C31 0.891 . S
C175 C51 0.883 . S
C180 C17 0.891 . S
C205 C65 0.855 . S
C210 C37 0.853 . S
C235 C45 0.900 . S
C240 C73 0.899 . S
C265 C49 1.328 . S
C270 C7 1.328 . S
C295 C63 1.322 . S
C300 C22 1.356 . S
C325 C78 1.353 . S
C330 C35 1.324 . S
C355 C8 1.379 . S
C360 C50 1.379 . S
C385 C21 1.324 . S
C390 C64 1.353 . S
C415 C77 1.322 . S
C420 C36 1.356 . S
