# Generated by pormake.
# Topology upd, (4)-cn, num edge types: 1
# Building blocks:
#     Node 0, Type 0, BuildingBlock: MUDLON_clean_sbu_0, # of connection points: 4
#     Node 1, Type 0, BuildingBlock: MUDLON_clean_sbu_0, # of connection points: 4
#     Node 2, Type 0, BuildingBlock: MUDLON_clean_sbu_0, # of connection points: 4
#     Node 3, Type 0, BuildingBlock: MUDLON_clean_sbu_0, # of connection points: 4
#     Node 4, Type 0, BuildingBlock: MUDLON_clean_sbu_0, # of connection points: 4
#     Node 5, Type 0, BuildingBlock: MUDLON_clean_sbu_0, # of connection points: 4
#     Node 6, Type 0, BuildingBlock: MUDLON_clean_sbu_0, # of connection points: 4
#     Node 7, Type 0, BuildingBlock: MUDLON_clean_sbu_0, # of connection points: 4
#     Node 8, Type 0, BuildingBlock: MUDLON_clean_sbu_0, # of connection points: 4
#     Node 9, Type 0, BuildingBlock: MUDLON_clean_sbu_0, # of connection points: 4
#     Node 10, Type 0, BuildingBlock: MUDLON_clean_sbu_0, # of connection points: 4
#     Node 11, Type 0, BuildingBlock: MUDLON_clean_sbu_0, # of connection points: 4
#     Node 12, Type 0, BuildingBlock: MUDLON_clean_sbu_0, # of connection points: 4
#     Node 13, Type 0, BuildingBlock: MUDLON_clean_sbu_0, # of connection points: 4
#     Node 14, Type 0, BuildingBlock: MUDLON_clean_sbu_0, # of connection points: 4
#     Node 15, Type 0, BuildingBlock: MUDLON_clean_sbu_0, # of connection points: 4
#     Node 16, Type 0, BuildingBlock: MUDLON_clean_sbu_0, # of connection points: 4
#     Node 17, Type 0, BuildingBlock: MUDLON_clean_sbu_0, # of connection points: 4
#     Node 18, Type 0, BuildingBlock: MUDLON_clean_sbu_0, # of connection points: 4
#     Node 19, Type 0, BuildingBlock: MUDLON_clean_sbu_0, # of connection points: 4
#     Node 20, Type 0, BuildingBlock: MUDLON_clean_sbu_0, # of connection points: 4
#     Node 21, Type 0, BuildingBlock: MUDLON_clean_sbu_0, # of connection points: 4
#     Node 22, Type 0, BuildingBlock: MUDLON_clean_sbu_0, # of connection points: 4
#     Node 23, Type 0, BuildingBlock: MUDLON_clean_sbu_0, # of connection points: 4
#     Node 24, Type 0, BuildingBlock: MUDLON_clean_sbu_0, # of connection points: 4
#     Node 25, Type 0, BuildingBlock: MUDLON_clean_sbu_0, # of connection points: 4
#     Node 26, Type 0, BuildingBlock: MUDLON_clean_sbu_0, # of connection points: 4
#     Node 27, Type 0, BuildingBlock: MUDLON_clean_sbu_0, # of connection points: 4
#     Node 28, Type 0, BuildingBlock: MUDLON_clean_sbu_0, # of connection points: 4
#     Node 29, Type 0, BuildingBlock: MUDLON_clean_sbu_0, # of connection points: 4
#     Node 30, Type 0, BuildingBlock: MUDLON_clean_sbu_0, # of connection points: 4
#     Node 31, Type 0, BuildingBlock: MUDLON_clean_sbu_0, # of connection points: 4
#     Edge 32, Type (0, 0), BuildingBlock: XIVTED_clean_linker_0, # of connection points: 2
#     Edge 33, Type (0, 0), BuildingBlock: XIVTED_clean_linker_0, # of connection points: 2
#     Edge 34, Type (0, 0), BuildingBlock: XIVTED_clean_linker_0, # of connection points: 2
#     Edge 35, Type (0, 0), BuildingBlock: XIVTED_clean_linker_0, # of connection points: 2
#     Edge 36, Type (0, 0), BuildingBlock: XIVTED_clean_linker_0, # of connection points: 2
#     Edge 37, Type (0, 0), BuildingBlock: XIVTED_clean_linker_0, # of connection points: 2
#     Edge 38, Type (0, 0), BuildingBlock: XIVTED_clean_linker_0, # of connection points: 2
#     Edge 39, Type (0, 0), BuildingBlock: XIVTED_clean_linker_0, # of connection points: 2
#     Edge 40, Type (0, 0), BuildingBlock: XIVTED_clean_linker_0, # of connection points: 2
#     Edge 41, Type (0, 0), BuildingBlock: XIVTED_clean_linker_0, # of connection points: 2
#     Edge 42, Type (0, 0), BuildingBlock: XIVTED_clean_linker_0, # of connection points: 2
#     Edge 43, Type (0, 0), BuildingBlock: XIVTED_clean_linker_0, # of connection points: 2
#     Edge 44, Type (0, 0), BuildingBlock: XIVTED_clean_linker_0, # of connection points: 2
#     Edge 45, Type (0, 0), BuildingBlock: XIVTED_clean_linker_0, # of connection points: 2
#     Edge 46, Type (0, 0), BuildingBlock: XIVTED_clean_linker_0, # of connection points: 2
#     Edge 47, Type (0, 0), BuildingBlock: XIVTED_clean_linker_0, # of connection points: 2
#     Edge 48, Type (0, 0), BuildingBlock: XIVTED_clean_linker_0, # of connection points: 2
#     Edge 49, Type (0, 0), BuildingBlock: XIVTED_clean_linker_0, # of connection points: 2
#     Edge 50, Type (0, 0), BuildingBlock: XIVTED_clean_linker_0, # of connection points: 2
#     Edge 51, Type (0, 0), BuildingBlock: XIVTED_clean_linker_0, # of connection points: 2
#     Edge 52, Type (0, 0), BuildingBlock: XIVTED_clean_linker_0, # of connection points: 2
#     Edge 53, Type (0, 0), BuildingBlock: XIVTED_clean_linker_0, # of connection points: 2
#     Edge 54, Type (0, 0), BuildingBlock: XIVTED_clean_linker_0, # of connection points: 2
#     Edge 55, Type (0, 0), BuildingBlock: XIVTED_clean_linker_0, # of connection points: 2
#     Edge 56, Type (0, 0), BuildingBlock: XIVTED_clean_linker_0, # of connection points: 2
#     Edge 57, Type (0, 0), BuildingBlock: XIVTED_clean_linker_0, # of connection points: 2
#     Edge 58, Type (0, 0), BuildingBlock: XIVTED_clean_linker_0, # of connection points: 2
#     Edge 59, Type (0, 0), BuildingBlock: XIVTED_clean_linker_0, # of connection points: 2
#     Edge 60, Type (0, 0), BuildingBlock: XIVTED_clean_linker_0, # of connection points: 2
#     Edge 61, Type (0, 0), BuildingBlock: XIVTED_clean_linker_0, # of connection points: 2
#     Edge 62, Type (0, 0), BuildingBlock: XIVTED_clean_linker_0, # of connection points: 2
#     Edge 63, Type (0, 0), BuildingBlock: XIVTED_clean_linker_0, # of connection points: 2
#     Edge 64, Type (0, 0), BuildingBlock: XIVTED_clean_linker_0, # of connection points: 2
#     Edge 65, Type (0, 0), BuildingBlock: XIVTED_clean_linker_0, # of connection points: 2
#     Edge 66, Type (0, 0), BuildingBlock: XIVTED_clean_linker_0, # of connection points: 2
#     Edge 67, Type (0, 0), BuildingBlock: XIVTED_clean_linker_0, # of connection points: 2
#     Edge 68, Type (0, 0), BuildingBlock: XIVTED_clean_linker_0, # of connection points: 2
#     Edge 69, Type (0, 0), BuildingBlock: XIVTED_clean_linker_0, # of connection points: 2
#     Edge 70, Type (0, 0), BuildingBlock: XIVTED_clean_linker_0, # of connection points: 2
#     Edge 71, Type (0, 0), BuildingBlock: XIVTED_clean_linker_0, # of connection points: 2
#     Edge 72, Type (0, 0), BuildingBlock: XIVTED_clean_linker_0, # of connection points: 2
#     Edge 73, Type (0, 0), BuildingBlock: XIVTED_clean_linker_0, # of connection points: 2
#     Edge 74, Type (0, 0), BuildingBlock: XIVTED_clean_linker_0, # of connection points: 2
#     Edge 75, Type (0, 0), BuildingBlock: XIVTED_clean_linker_0, # of connection points: 2
#     Edge 76, Type (0, 0), BuildingBlock: XIVTED_clean_linker_0, # of connection points: 2
#     Edge 77, Type (0, 0), BuildingBlock: XIVTED_clean_linker_0, # of connection points: 2
#     Edge 78, Type (0, 0), BuildingBlock: XIVTED_clean_linker_0, # of connection points: 2
#     Edge 79, Type (0, 0), BuildingBlock: XIVTED_clean_linker_0, # of connection points: 2
#     Edge 80, Type (0, 0), BuildingBlock: XIVTED_clean_linker_0, # of connection points: 2
#     Edge 81, Type (0, 0), BuildingBlock: XIVTED_clean_linker_0, # of connection points: 2
#     Edge 82, Type (0, 0), BuildingBlock: XIVTED_clean_linker_0, # of connection points: 2
#     Edge 83, Type (0, 0), BuildingBlock: XIVTED_clean_linker_0, # of connection points: 2
#     Edge 84, Type (0, 0), BuildingBlock: XIVTED_clean_linker_0, # of connection points: 2
#     Edge 85, Type (0, 0), BuildingBlock: XIVTED_clean_linker_0, # of connection points: 2
#     Edge 86, Type (0, 0), BuildingBlock: XIVTED_clean_linker_0, # of connection points: 2
#     Edge 87, Type (0, 0), BuildingBlock: XIVTED_clean_linker_0, # of connection points: 2
#     Edge 88, Type (0, 0), BuildingBlock: XIVTED_clean_linker_0, # of connection points: 2
#     Edge 89, Type (0, 0), BuildingBlock: XIVTED_clean_linker_0, # of connection points: 2
#     Edge 90, Type (0, 0), BuildingBlock: XIVTED_clean_linker_0, # of connection points: 2
#     Edge 91, Type (0, 0), BuildingBlock: XIVTED_clean_linker_0, # of connection points: 2
#     Edge 92, Type (0, 0), BuildingBlock: XIVTED_clean_linker_0, # of connection points: 2
#     Edge 93, Type (0, 0), BuildingBlock: XIVTED_clean_linker_0, # of connection points: 2
#     Edge 94, Type (0, 0), BuildingBlock: XIVTED_clean_linker_0, # of connection points: 2
#     Edge 95, Type (0, 0), BuildingBlock: XIVTED_clean_linker_0, # of connection points: 2
# Relax obj value: 0.065
# Max RMSD: 0.095
# Mean RMSD: 0.095
data_MOF--net-upd--node1-MUDLON_clean_sbu_0--edge1-XIVTED_clean_linker_0
_symmetry_space_group_name_H-M    P1
_symmetry_Int_Tables_number       1
_symmetry_cell_setting            triclinic
loop_
_symmetry_equiv_pos_as_xyz
'x, y, z'
_cell_length_a     45.458326
_cell_length_b     45.397623
_cell_length_c     67.752472
_cell_angle_alpha  89.98397
_cell_angle_beta   90.010609
_cell_angle_gamma 90.103513
loop_
_atom_site_label
_atom_site_type_symbol
_atom_site_fract_x
_atom_site_fract_y
_atom_site_fract_z
_atom_type_partial_charge
Mg0 Mg 0.15328 0.15252 0.32651 0.0
C1 C 0.08955 0.16832 0.33072 0.0
O2 O 0.1015 0.19163 0.33898 0.0
C3 C 0.1707 0.19936 0.29492 0.0
O4 O 0.14394 0.19558 0.28803 0.0
C5 C 0.17061 0.10598 0.29892 0.0
O6 O 0.16435 0.12862 0.28761 0.0
O7 O 0.16905 0.1092 0.31757 0.0
O8 O 0.10612 0.15034 0.32161 0.0
O9 O 0.15467 0.16364 0.35781 0.0
C10 C 0.17047 0.18468 0.36427 0.0
O11 O 0.19039 0.19639 0.3526 0.0
O12 O 0.17877 0.1852 0.31017 0.0
Mg13 Mg 0.11126 0.88809 0.5665 0.0
C14 C 0.09606 0.82388 0.5711 0.0
O15 O 0.0714 0.83555 0.57747 0.0
C16 C 0.05769 0.92142 0.55051 0.0
O17 O 0.04669 0.91449 0.56782 0.0
C18 C 0.17773 0.88999 0.56643 0.0
O19 O 0.17381 0.8668 0.57774 0.0
O20 O 0.1554 0.90471 0.56097 0.0
O21 O 0.11521 0.84061 0.56322 0.0
O22 O 0.09425 0.89178 0.59648 0.0
C23 C 0.08624 0.91475 0.60573 0.0
O24 O 0.09034 0.94073 0.59763 0.0
O25 O 0.08286 0.9115 0.54571 0.0
Mg26 Mg 0.37347 0.86883 0.82025 0.0
C27 C 0.44175 0.86337 0.82245 0.0
O28 O 0.43706 0.83524 0.82564 0.0
C29 C 0.36135 0.81868 0.78838 0.0
O30 O 0.38985 0.81528 0.78615 0.0
C31 C 0.34717 0.91493 0.79577 0.0
O32 O 0.35305 0.89349 0.78337 0.0
O33 O 0.35223 0.91084 0.81406 0.0
O34 O 0.42022 0.87982 0.81772 0.0
O35 O 0.36876 0.85055 0.84991 0.0
C36 C 0.37659 0.82367 0.85045 0.0
O37 O 0.38338 0.81046 0.83383 0.0
O38 O 0.35169 0.83771 0.80049 0.0
Mg39 Mg 0.40977 0.13451 0.06963 0.0
C40 C 0.42467 0.1987 0.07567 0.0
O41 O 0.4493 0.18701 0.08209 0.0
C42 C 0.43924 0.08648 0.04747 0.0
O43 O 0.41586 0.07338 0.05479 0.0
C44 C 0.36275 0.11832 0.04202 0.0
O45 O 0.38436 0.12735 0.03064 0.0
O46 O 0.36686 0.11777 0.06061 0.0
O47 O 0.40563 0.18208 0.06759 0.0
O48 O 0.42261 0.12873 0.10038 0.0
C49 C 0.4383 0.10751 0.10658 0.0
O50 O 0.44402 0.08544 0.09467 0.0
O51 O 0.44306 0.11379 0.05098 0.0
Mg52 Mg 0.1673 0.86175 0.20339 0.0
C53 C 0.10289 0.87775 0.20539 0.0
O54 O 0.11421 0.90322 0.21062 0.0
C55 C 0.18451 0.81551 0.23527 0.0
O56 O 0.15679 0.81692 0.24067 0.0
C57 C 0.17834 0.90901 0.23252 0.0
O58 O 0.17415 0.88561 0.24359 0.0
O59 O 0.17751 0.90608 0.21383 0.0
O60 O 0.11979 0.85547 0.20423 0.0
O61 O 0.17763 0.85147 0.17263 0.0
C62 C 0.1579 0.85455 0.15943 0.0
O63 O 0.13378 0.86895 0.16389 0.0
O64 O 0.19337 0.83102 0.22082 0.0
Mg65 Mg 0.41171 0.88678 0.46136 0.0
C66 C 0.43095 0.82274 0.45467 0.0
O67 O 0.45626 0.835 0.45009 0.0
C68 C 0.4419 0.93578 0.48095 0.0
O69 O 0.41993 0.94812 0.47144 0.0
C70 C 0.36751 0.89354 0.49172 0.0
O71 O 0.39045 0.88137 0.50025 0.0
O72 O 0.3693 0.90001 0.47347 0.0
O73 O 0.4104 0.83883 0.46138 0.0
O74 O 0.4228 0.89924 0.43111 0.0
C75 C 0.41945 0.88097 0.41702 0.0
O76 O 0.40416 0.85685 0.42018 0.0
O77 O 0.44487 0.90793 0.47984 0.0
Mg78 Mg 0.3662 0.16016 0.70909 0.0
C79 C 0.4326 0.16976 0.70266 0.0
O80 O 0.42465 0.19677 0.69821 0.0
C81 C 0.34436 0.21914 0.72487 0.0
O82 O 0.35271 0.22833 0.70735 0.0
C83 C 0.34535 0.11505 0.73685 0.0
O84 O 0.35368 0.13692 0.74826 0.0
O85 O 0.34681 0.11842 0.71821 0.0
O86 O 0.41334 0.15188 0.70917 0.0
O87 O 0.35501 0.17602 0.6796 0.0
C88 C 0.37218 0.172 0.665 0.0
O89 O 0.39478 0.15428 0.66706 0.0
O90 O 0.34946 0.19265 0.72987 0.0
Mg91 Mg 0.11517 0.12963 0.95478 0.0
C92 C 0.09709 0.19432 0.95009 0.0
O93 O 0.07145 0.18268 0.94562 0.0
C94 C 0.08186 0.07962 0.97105 0.0
O95 O 0.09995 0.06762 0.95825 0.0
C96 C 0.16199 0.11087 0.98241 0.0
O97 O 0.13934 0.11492 0.99414 0.0
O98 O 0.15846 0.11429 0.96391 0.0
O99 O 0.11757 0.17756 0.95618 0.0
O100 O 0.10231 0.11964 0.9245 0.0
C101 C 0.10574 0.13845 0.91075 0.0
O102 O 0.1215 0.16217 0.91418 0.0
O103 O 0.08268 0.10747 0.97337 0.0
Mg104 Mg 0.85941 0.87008 0.70235 0.0
C105 C 0.92037 0.89199 0.69884 0.0
O106 O 0.90462 0.91619 0.69953 0.0
C107 C 0.80909 0.84581 0.72456 0.0
O108 O 0.80052 0.87228 0.71928 0.0
C109 C 0.8526 0.91314 0.7342 0.0
O110 O 0.86142 0.88889 0.74297 0.0
O111 O 0.84882 0.91272 0.71557 0.0
O112 O 0.90744 0.86741 0.70167 0.0
O113 O 0.85005 0.86314 0.67112 0.0
C114 C 0.83036 0.84518 0.66534 0.0
O115 O 0.81136 0.83493 0.67824 0.0
O116 O 0.83466 0.83721 0.71944 0.0
Mg117 Mg 0.90537 0.11647 0.45797 0.0
C118 C 0.9313 0.09672 0.41678 0.0
O119 O 0.93362 0.06987 0.42384 0.0
C120 C 0.85737 0.09382 0.48267 0.0
O121 O 0.8798 0.09591 0.49482 0.0
C122 C 0.96112 0.08297 0.47214 0.0
O123 O 0.97235 0.0911 0.45512 0.0
O124 O 0.93566 0.09204 0.47699 0.0
O125 O 0.91941 0.11667 0.42722 0.0
O126 O 0.90091 0.16352 0.46307 0.0
C127 C 0.91828 0.18118 0.45429 0.0
O128 O 0.94251 0.17065 0.44644 0.0
O129 O 0.86144 0.09983 0.46451 0.0
Mg130 Mg 0.65869 0.15368 0.20533 0.0
C131 C 0.59703 0.13017 0.20444 0.0
O132 O 0.61199 0.10612 0.20824 0.0
C133 C 0.70836 0.18029 0.22638 0.0
O134 O 0.71965 0.15764 0.217 0.0
C135 C 0.67161 0.10712 0.2343 0.0
O136 O 0.66449 0.12991 0.24525 0.0
O137 O 0.67206 0.1102 0.21562 0.0
O138 O 0.61059 0.15476 0.20444 0.0
O139 O 0.67114 0.16562 0.17533 0.0
C140 C 0.65366 0.16006 0.16112 0.0
O141 O 0.63096 0.14278 0.16434 0.0
O142 O 0.68095 0.18534 0.2245 0.0
Mg143 Mg 0.61817 0.91796 0.95176 0.0
C144 C 0.58808 0.93992 0.9147 0.0
O145 O 0.57303 0.95511 0.92774 0.0
C146 C 0.663 0.91869 0.98196 0.0
O147 O 0.64026 0.90475 0.9895 0.0
C148 C 0.58912 0.96703 0.97326 0.0
O149 O 0.61359 0.97934 0.96702 0.0
O150 O 0.58444 0.94004 0.9692 0.0
O151 O 0.61068 0.92579 0.9204 0.0
O152 O 0.6162 0.87018 0.95209 0.0
C153 C 0.59483 0.8575 0.94347 0.0
O154 O 0.5723 0.87349 0.93777 0.0
O155 O 0.66084 0.92881 0.9645 0.0
Mg156 Mg 0.87065 0.16231 0.82156 0.0
C157 C 0.93249 0.14193 0.82357 0.0
O158 O 0.91755 0.11716 0.82354 0.0
C159 C 0.82143 0.18552 0.79772 0.0
O160 O 0.81336 0.15838 0.80175 0.0
C161 C 0.8531 0.09553 0.81752 0.0
O162 O 0.8527 0.09454 0.8369 0.0
O163 O 0.8593 0.11958 0.80887 0.0
O164 O 0.91858 0.16597 0.82107 0.0
O165 O 0.86161 0.16998 0.85275 0.0
C166 C 0.84068 0.18646 0.85846 0.0
O167 O 0.82087 0.19495 0.84554 0.0
O168 O 0.84612 0.19469 0.8042 0.0
Mg169 Mg 0.61284 0.11781 0.57333 0.0
C170 C 0.5819 0.09731 0.61088 0.0
O171 O 0.56827 0.07964 0.59855 0.0
C172 C 0.6581 0.10268 0.54403 0.0
O173 O 0.63574 0.11157 0.53329 0.0
C174 C 0.58299 0.06743 0.55417 0.0
O175 O 0.60624 0.05545 0.56242 0.0
O176 O 0.57908 0.09507 0.55608 0.0
O177 O 0.60343 0.11264 0.60467 0.0
O178 O 0.61417 0.16579 0.57163 0.0
C179 C 0.63883 0.17684 0.57668 0.0
O180 O 0.66114 0.15896 0.57946 0.0
O181 O 0.65519 0.10195 0.56271 0.0
Mg182 Mg 0.65327 0.86175 0.32645 0.0
C183 C 0.59144 0.88376 0.32822 0.0
O184 O 0.60648 0.90846 0.32725 0.0
C185 C 0.70473 0.83266 0.30962 0.0
O186 O 0.71529 0.8525 0.32185 0.0
C187 C 0.66863 0.90822 0.29773 0.0
O188 O 0.66374 0.88511 0.28653 0.0
O189 O 0.66658 0.90536 0.31637 0.0
O190 O 0.60521 0.8595 0.32636 0.0
O191 O 0.66519 0.85033 0.35665 0.0
C192 C 0.64751 0.85524 0.37084 0.0
O193 O 0.62416 0.87152 0.3676 0.0
O194 O 0.67692 0.83035 0.30792 0.0
Mg195 Mg 0.91526 0.89826 0.06707 0.0
C196 C 0.96128 0.90065 0.09665 0.0
O197 O 0.97467 0.89546 0.07983 0.0
C198 C 0.85746 0.89976 0.04847 0.0
O199 O 0.87003 0.87586 0.0416 0.0
C200 C 0.94601 0.94691 0.04795 0.0
O201 O 0.92929 0.95901 0.06152 0.0
O202 O 0.94513 0.91901 0.04592 0.0
O203 O 0.9338 0.90594 0.09638 0.0
O204 O 0.90813 0.85046 0.06699 0.0
C205 C 0.92509 0.83088 0.07411 0.0
O206 O 0.9521 0.83806 0.07899 0.0
O207 O 0.87155 0.91588 0.06062 0.0
Mg208 Mg 0.63799 0.66276 0.81472 0.0
C209 C 0.58331 0.62769 0.81858 0.0
O210 O 0.60393 0.60883 0.82349 0.0
C211 C 0.66516 0.72024 0.79972 0.0
O212 O 0.65767 0.72934 0.81742 0.0
C213 C 0.66387 0.61634 0.79023 0.0
O214 O 0.65657 0.63709 0.77764 0.0
O215 O 0.66015 0.62117 0.80858 0.0
O216 O 0.59107 0.65259 0.81161 0.0
O217 O 0.64109 0.68109 0.84469 0.0
C218 C 0.61753 0.69386 0.85025 0.0
O219 O 0.59508 0.69455 0.83809 0.0
O220 O 0.65775 0.69446 0.79426 0.0
Mg221 Mg 0.61196 0.39108 0.0735 0.0
C222 C 0.63984 0.33141 0.07354 0.0
O223 O 0.66309 0.3486 0.07409 0.0
C224 C 0.5785 0.4396 0.05549 0.0
O225 O 0.59644 0.45292 0.06783 0.0
C226 C 0.6588 0.41171 0.04654 0.0
O227 O 0.63711 0.40498 0.03453 0.0
O228 O 0.6547 0.40907 0.06505 0.0
O229 O 0.61462 0.34316 0.07139 0.0
O230 O 0.59713 0.39986 0.10368 0.0
C231 C 0.59778 0.37928 0.11647 0.0
O232 O 0.61111 0.35453 0.11203 0.0
O233 O 0.57949 0.41164 0.05427 0.0
Mg234 Mg 0.86578 0.36501 0.32592 0.0
C235 C 0.92996 0.3507 0.33101 0.0
O236 O 0.91857 0.32775 0.34005 0.0
C237 C 0.8474 0.3065 0.30529 0.0
O238 O 0.87176 0.29571 0.31278 0.0
C239 C 0.84743 0.41137 0.29864 0.0
O240 O 0.85206 0.38831 0.28735 0.0
O241 O 0.85033 0.40847 0.31723 0.0
O242 O 0.91299 0.36763 0.32133 0.0
O243 O 0.86344 0.35371 0.35713 0.0
C244 C 0.84753 0.33281 0.36365 0.0
O245 O 0.82803 0.32064 0.35189 0.0
O246 O 0.84097 0.33335 0.30831 0.0
Mg247 Mg 0.90826 0.63351 0.56931 0.0
C248 C 0.87282 0.6888 0.57032 0.0
O249 O 0.85235 0.66841 0.57123 0.0
C250 C 0.94246 0.58594 0.55153 0.0
O251 O 0.92382 0.57292 0.56353 0.0
C252 C 0.86282 0.60972 0.54286 0.0
O253 O 0.88366 0.61877 0.53086 0.0
O254 O 0.86719 0.61157 0.56139 0.0
O255 O 0.89927 0.68088 0.56714 0.0
O256 O 0.92412 0.62807 0.59963 0.0
C257 C 0.93843 0.65029 0.606 0.0
O258 O 0.9415 0.67322 0.59436 0.0
O259 O 0.9419 0.61396 0.55033 0.0
Mg260 Mg 0.65218 0.36674 0.70578 0.0
C261 C 0.59178 0.39259 0.70457 0.0
O262 O 0.60829 0.41635 0.70401 0.0
C263 C 0.67801 0.30943 0.72137 0.0
O264 O 0.66708 0.29926 0.70475 0.0
C265 C 0.66934 0.41479 0.73256 0.0
O266 O 0.66249 0.39301 0.74449 0.0
O267 O 0.66817 0.41034 0.71402 0.0
O268 O 0.60418 0.36774 0.7071 0.0
O269 O 0.66238 0.35124 0.67598 0.0
C270 C 0.64264 0.35196 0.66263 0.0
O271 O 0.61804 0.3661 0.66619 0.0
O272 O 0.67351 0.33617 0.72601 0.0
Mg273 Mg 0.90483 0.39845 0.9595 0.0
C274 C 0.87196 0.34196 0.95665 0.0
O275 O 0.85102 0.36171 0.95503 0.0
C276 C 0.94027 0.44681 0.97561 0.0
O277 O 0.92283 0.45917 0.96255 0.0
C278 C 0.8589 0.41981 0.98659 0.0
O279 O 0.88055 0.4123 0.99841 0.0
O280 O 0.86297 0.41814 0.96803 0.0
O281 O 0.89777 0.35069 0.96112 0.0
O282 O 0.9195 0.40467 0.92899 0.0
C283 C 0.93509 0.38329 0.92277 0.0
O284 O 0.94024 0.36117 0.93476 0.0
O285 O 0.93842 0.41904 0.97814 0.0
Mg286 Mg 0.86345 0.65517 0.2047 0.0
C287 C 0.92402 0.67898 0.1996 0.0
O288 O 0.90829 0.70128 0.19319 0.0
C289 C 0.84598 0.7051 0.23373 0.0
O290 O 0.87402 0.70529 0.23843 0.0
C291 C 0.84912 0.60938 0.23392 0.0
O292 O 0.85399 0.63291 0.24473 0.0
O293 O 0.85076 0.61168 0.21522 0.0
O294 O 0.91086 0.65776 0.2081 0.0
O295 O 0.86008 0.66316 0.17309 0.0
C296 C 0.84585 0.68517 0.16651 0.0
O297 O 0.82836 0.69959 0.17852 0.0
O298 O 0.83688 0.68741 0.22053 0.0
Mg299 Mg 0.61393 0.62401 0.45872 0.0
C300 C 0.64072 0.68354 0.45782 0.0
O301 O 0.66346 0.66633 0.45471 0.0
C302 C 0.56102 0.58657 0.47141 0.0
O303 O 0.55574 0.58664 0.45237 0.0
C304 C 0.66184 0.60352 0.4846 0.0
O305 O 0.64001 0.60841 0.49687 0.0
O306 O 0.65736 0.60703 0.4662 0.0
O307 O 0.61612 0.67169 0.4621 0.0
O308 O 0.60026 0.62122 0.42796 0.0
C309 C 0.59607 0.59936 0.41657 0.0
O310 O 0.60193 0.57262 0.42283 0.0
O311 O 0.58247 0.60165 0.47807 0.0
Mg312 Mg 0.36735 0.35965 0.20841 0.0
C313 C 0.43 0.37975 0.20923 0.0
O314 O 0.41598 0.40475 0.21174 0.0
C315 C 0.3148 0.32653 0.22074 0.0
O316 O 0.30491 0.34525 0.20752 0.0
C317 C 0.35475 0.40183 0.23996 0.0
O318 O 0.36036 0.37701 0.24919 0.0
O319 O 0.35514 0.40196 0.22117 0.0
O320 O 0.41523 0.35588 0.20953 0.0
O321 O 0.3584 0.35238 0.17714 0.0
C322 C 0.37708 0.36126 0.16446 0.0
O323 O 0.39762 0.37981 0.17009 0.0
O324 O 0.34224 0.32642 0.22454 0.0
Mg325 Mg 0.40771 0.60947 0.95431 0.0
C326 C 0.41627 0.61612 0.91028 0.0
O327 O 0.40108 0.6401 0.91388 0.0
C328 C 0.35958 0.59676 0.98265 0.0
O329 O 0.38218 0.60176 0.99428 0.0
C330 C 0.43913 0.55925 0.97262 0.0
O331 O 0.42071 0.54616 0.96049 0.0
O332 O 0.43904 0.58725 0.97354 0.0
O333 O 0.4198 0.59746 0.92414 0.0
O334 O 0.41179 0.65727 0.95414 0.0
C335 C 0.38896 0.67346 0.9543 0.0
O336 O 0.36335 0.6613 0.95815 0.0
O337 O 0.36348 0.59763 0.96404 0.0
Mg338 Mg 0.15704 0.66417 0.70475 0.0
C339 C 0.09242 0.64971 0.70791 0.0
O340 O 0.1035 0.62372 0.71199 0.0
C341 C 0.21217 0.69252 0.7181 0.0
O342 O 0.22147 0.67075 0.70696 0.0
C343 C 0.16607 0.59665 0.70856 0.0
O344 O 0.15976 0.59593 0.68965 0.0
O345 O 0.16711 0.6213 0.71741 0.0
O346 O 0.10975 0.67173 0.70683 0.0
O347 O 0.16445 0.67059 0.67321 0.0
C348 C 0.14422 0.66278 0.6613 0.0
O349 O 0.12303 0.64567 0.66785 0.0
O350 O 0.18456 0.69606 0.7202 0.0
Mg351 Mg 0.11343 0.40617 0.45736 0.0
C352 C 0.08212 0.42432 0.41922 0.0
O353 O 0.06897 0.4433 0.43087 0.0
C354 C 0.1596 0.42417 0.48528 0.0
O355 O 0.13708 0.41782 0.49667 0.0
C356 C 0.08266 0.45712 0.47557 0.0
O357 O 0.10479 0.46957 0.46627 0.0
O358 O 0.07993 0.4292 0.47468 0.0
O359 O 0.10322 0.40901 0.426 0.0
O360 O 0.11688 0.35863 0.46083 0.0
C361 C 0.09976 0.34186 0.45109 0.0
O362 O 0.07647 0.35338 0.44262 0.0
O363 O 0.15631 0.42251 0.46664 0.0
Mg364 Mg 0.37682 0.65255 0.32304 0.0
C365 C 0.43879 0.6295 0.31875 0.0
O366 O 0.42413 0.60584 0.31347 0.0
C367 C 0.32567 0.68668 0.31026 0.0
O368 O 0.31536 0.66855 0.32372 0.0
C369 C 0.35988 0.58615 0.32085 0.0
O370 O 0.3675 0.58506 0.33954 0.0
O371 O 0.36095 0.61059 0.31175 0.0
O372 O 0.42477 0.65353 0.32102 0.0
O373 O 0.36937 0.66243 0.35415 0.0
C374 C 0.3894 0.6558 0.36651 0.0
O375 O 0.41068 0.63819 0.36087 0.0
O376 O 0.35306 0.68594 0.30634 0.0
Mg377 Mg 0.11232 0.62782 0.06835 0.0
C378 C 0.08004 0.64802 0.10285 0.0
O379 O 0.07515 0.66755 0.08895 0.0
C380 C 0.15893 0.60465 0.04281 0.0
O381 O 0.13769 0.61197 0.03061 0.0
C382 C 0.07769 0.57831 0.05243 0.0
O383 O 0.09506 0.56617 0.06562 0.0
O384 O 0.07934 0.60608 0.04981 0.0
O385 O 0.09599 0.62574 0.09881 0.0
O386 O 0.12002 0.67516 0.06449 0.0
C387 C 0.14498 0.68424 0.07054 0.0
O388 O 0.1651 0.66462 0.07504 0.0
O389 O 0.15443 0.60729 0.06128 0.0
Mg390 Mg 0.14969 0.36809 0.82082 0.0
C391 C 0.08579 0.38434 0.81936 0.0
O392 O 0.09798 0.41032 0.81686 0.0
C393 C 0.20216 0.34614 0.79952 0.0
O394 O 0.21012 0.37274 0.80501 0.0
C395 C 0.15624 0.41244 0.79013 0.0
O396 O 0.14789 0.38825 0.78104 0.0
O397 O 0.15951 0.41163 0.8088 0.0
O398 O 0.1022 0.36162 0.81902 0.0
O399 O 0.15806 0.35891 0.85198 0.0
C400 C 0.138 0.36477 0.86449 0.0
O401 O 0.1163 0.38206 0.85911 0.0
O402 O 0.17651 0.33702 0.80405 0.0
Mg403 Mg 0.40609 0.40479 0.5742 0.0
C404 C 0.41809 0.39639 0.61795 0.0
O405 O 0.4045 0.3714 0.61439 0.0
C406 C 0.35963 0.4229 0.54623 0.0
O407 O 0.38219 0.41738 0.5347 0.0
C408 C 0.45451 0.44586 0.56118 0.0
O409 O 0.45369 0.4517 0.58015 0.0
O410 O 0.43795 0.42561 0.55438 0.0
O411 O 0.41932 0.41575 0.60436 0.0
O412 O 0.40506 0.35666 0.57366 0.0
C413 C 0.38011 0.34437 0.5761 0.0
O414 O 0.35646 0.36093 0.57592 0.0
O415 O 0.36297 0.42048 0.56482 0.0
H416 H 0.15531 0.31865 0.45388 0.0
H417 H 0.11796 0.18148 0.38408 0.0
H418 H 0.06775 0.29795 0.43344 0.0
H419 H 0.20271 0.22442 0.38573 0.0
H420 H 0.10074 0.2147 0.41007 0.0
H421 H 0.17371 0.27472 0.43701 0.0
C422 C 0.1398 0.30451 0.44628 0.0
C423 C 0.10994 0.31222 0.44489 0.0
C424 C 0.12326 0.21646 0.40498 0.0
C425 C 0.13098 0.26195 0.42554 0.0
C426 C 0.13321 0.19739 0.39023 0.0
C427 C 0.1618 0.20035 0.38257 0.0
C428 C 0.14212 0.23839 0.41232 0.0
C429 C 0.18045 0.22152 0.39107 0.0
C430 C 0.1504 0.27955 0.43654 0.0
C431 C 0.09097 0.29302 0.43475 0.0
N432 N 0.17023 0.23987 0.40539 0.0
N433 N 0.10183 0.26892 0.42532 0.0
H434 H 0.0618 0.95829 0.6286 0.0
H435 H 0.95546 0.84678 0.68534 0.0
H436 H 0.06852 0.86371 0.62387 0.0
H437 H 0.95406 0.94107 0.69335 0.0
H438 H 1.00088 0.85189 0.66615 0.0
H439 H 0.02629 0.95204 0.65537 0.0
C440 C 0.05614 0.93622 0.63335 0.0
C441 C 0.06798 0.91153 0.62378 0.0
C442 C 0.99086 0.87141 0.67237 0.0
C443 C 0.027 0.90415 0.65436 0.0
C444 C 0.96499 0.86847 0.68343 0.0
C445 C 0.95068 0.89356 0.69076 0.0
C446 C 1.0024 0.89964 0.66856 0.0
C447 C 0.96408 0.92112 0.68778 0.0
C448 C 0.0358 0.93263 0.64865 0.0
C449 C 0.05983 0.88343 0.63067 0.0
N450 N 0.9889 0.92345 0.67672 0.0
N451 N 0.03961 0.88052 0.64534 0.0
H452 H 0.34428 0.71374 0.95047 0.0
H453 H 0.42023 0.7854 0.85846 0.0
H454 H 0.43582 0.70018 0.9362 0.0
H455 H 0.34396 0.82574 0.88481 0.0
H456 H 0.42636 0.75507 0.88779 0.0
H457 H 0.34362 0.75638 0.9283 0.0
C458 C 0.36442 0.72008 0.94304 0.0
C459 C 0.39002 0.70299 0.94496 0.0
C460 C 0.40847 0.77078 0.88737 0.0
C461 C 0.38921 0.75143 0.91938 0.0
C462 C 0.40485 0.78797 0.87056 0.0
C463 C 0.38139 0.80784 0.86919 0.0
C464 C 0.38804 0.77284 0.90283 0.0
C465 C 0.3623 0.81058 0.88535 0.0
C466 C 0.36399 0.74443 0.93038 0.0
C467 C 0.41548 0.71242 0.93505 0.0
N468 N 0.36569 0.79279 0.90142 0.0
N469 N 0.41425 0.73562 0.92242 0.0
H470 H 0.44609 0.15714 0.1291 0.0
H471 H 0.56423 0.0802 0.19964 0.0
H472 H 0.46834 0.06481 0.12679 0.0
H473 H 0.5621 0.17387 0.18872 0.0
H474 H 0.52021 0.07437 0.17941 0.0
H475 H 0.47972 0.16318 0.15704 0.0
C476 C 0.45757 0.138 0.1347 0.0
C477 C 0.45458 0.11043 0.12545 0.0
C478 C 0.52914 0.09625 0.18166 0.0
C479 C 0.49309 0.1173 0.15742 0.0
C480 C 0.55424 0.09966 0.19329 0.0
C481 C 0.56721 0.12755 0.19568 0.0
C482 C 0.51672 0.1209 0.17237 0.0
C483 C 0.55302 0.15193 0.18718 0.0
C484 C 0.47689 0.14154 0.15058 0.0
C485 C 0.47014 0.08649 0.13333 0.0
N486 N 0.52871 0.148 0.17572 0.0
N487 N 0.48884 0.09052 0.14877 0.0
H488 H 0.1145 0.84706 0.13177 0.0
H489 H 0.1963 0.71074 0.08159 0.0
H490 H 0.20321 0.82023 0.1456 0.0
H491 H 0.10347 0.72793 0.07506 0.0
H492 H 0.20183 0.75742 0.09904 0.0
H493 H 0.11307 0.8104 0.10539 0.0
C494 C 0.13392 0.83389 0.12904 0.0
C495 C 0.15893 0.83655 0.14114 0.0
C496 C 0.18031 0.75123 0.09354 0.0
C497 C 0.15727 0.79432 0.11093 0.0
C498 C 0.17713 0.72459 0.08349 0.0
C499 C 0.14929 0.71516 0.07705 0.0
C500 C 0.15547 0.76866 0.0973 0.0
C501 C 0.12533 0.73422 0.07982 0.0
C502 C 0.133 0.81284 0.114 0.0
C503 C 0.18337 0.81883 0.1368 0.0
N504 N 0.1289 0.75987 0.08999 0.0
N505 N 0.18181 0.79829 0.12221 0.0
H506 H 0.43091 0.83837 0.38947 0.0
H507 H 0.55837 0.93202 0.33753 0.0
H508 H 0.45142 0.92863 0.40413 0.0
H509 H 0.55472 0.837 0.33655 0.0
H510 H 0.51175 0.93283 0.35536 0.0
H511 H 0.46858 0.83975 0.36372 0.0
C512 C 0.44288 0.8587 0.38703 0.0
C513 C 0.43814 0.88338 0.39914 0.0
C514 C 0.52096 0.91181 0.35103 0.0
C515 C 0.4814 0.88497 0.36968 0.0
C516 C 0.54756 0.91129 0.34076 0.0
C517 C 0.56077 0.88435 0.33573 0.0
C518 C 0.50725 0.88523 0.35626 0.0
C519 C 0.54551 0.85827 0.34024 0.0
C520 C 0.46452 0.85937 0.37239 0.0
C521 C 0.45446 0.90903 0.39527 0.0
N522 N 0.5197 0.85934 0.35041 0.0
N523 N 0.47548 0.90908 0.38098 0.0
H524 H 0.32625 0.20733 0.65377 0.0
H525 H 0.42484 0.30474 0.5828 0.0
H526 H 0.41412 0.18198 0.63675 0.0
H527 H 0.3306 0.31436 0.5871 0.0
H528 H 0.42115 0.25813 0.60085 0.0
H529 H 0.32675 0.24506 0.62803 0.0
C530 C 0.34548 0.20939 0.64442 0.0
C531 C 0.37024 0.19157 0.64753 0.0
C532 C 0.40124 0.27022 0.59755 0.0
C533 C 0.37119 0.23512 0.61822 0.0
C534 C 0.40333 0.29683 0.5872 0.0
C535 C 0.37804 0.31372 0.58361 0.0
C536 C 0.37372 0.26064 0.60456 0.0
C537 C 0.35075 0.30229 0.58968 0.0
C538 C 0.34577 0.23095 0.62971 0.0
C539 C 0.39454 0.19523 0.63492 0.0
N540 N 0.34938 0.27675 0.6001 0.0
N541 N 0.39458 0.21688 0.62104 0.0
H542 H 0.07542 0.09085 0.89639 0.0
H543 H 0.96875 0.18916 0.83176 0.0
H544 H 0.0923 0.18286 0.88492 0.0
H545 H 0.96673 0.09408 0.83153 0.0
H546 H 0.01618 0.18741 0.84892 0.0
H547 H 0.03782 0.09117 0.87062 0.0
C548 C 0.07156 0.111 0.88822 0.0
C549 C 0.08688 0.1369 0.89294 0.0
C550 C 1.00556 0.16694 0.84481 0.0
C551 C 0.04341 0.13763 0.86364 0.0
C552 C 0.97849 0.16793 0.83497 0.0
C553 C 0.96348 0.14174 0.83044 0.0
C554 C 0.0175 0.13958 0.85032 0.0
C555 C 0.97725 0.11487 0.83494 0.0
C556 C 0.05006 0.1112 0.8735 0.0
C557 C 0.081 0.16237 0.88182 0.0
N558 N 1.00319 0.1145 0.84488 0.0
N559 N 0.05939 0.16223 0.86792 0.0
H560 H 0.91114 0.73349 0.58046 0.0
H561 H 0.78992 0.8108 0.64623 0.0
H562 H 0.81866 0.71228 0.57747 0.0
H563 H 0.87822 0.8448 0.64059 0.0
H564 H 0.7989 0.77843 0.61811 0.0
H565 H 0.89898 0.77798 0.59922 0.0
C566 C 0.88825 0.7385 0.58333 0.0
C567 C 0.86593 0.71884 0.57763 0.0
C568 C 0.81619 0.79332 0.62277 0.0
C569 C 0.8519 0.76945 0.59937 0.0
C570 C 0.81102 0.81187 0.63884 0.0
C571 C 0.83341 0.83034 0.64594 0.0
C572 C 0.84416 0.79278 0.61391 0.0
C573 C 0.86031 0.83085 0.63569 0.0
C574 C 0.88131 0.76387 0.59413 0.0
C575 C 0.83666 0.72652 0.5818 0.0
N576 N 0.86513 0.81194 0.62044 0.0
N577 N 0.83055 0.75091 0.59266 0.0
H578 H 0.04653 0.20182 0.34777 0.0
H579 H 0.96572 0.06253 0.39243 0.0
H580 H 0.06483 0.1132 0.32835 0.0
H581 H 0.93457 0.15158 0.40015 0.0
H582 H 0.999 0.08004 0.36651 0.0
H583 H 1.00232 0.18387 0.36437 0.0
C584 C 0.04093 0.17867 0.34665 0.0
C585 C 0.05962 0.15898 0.33682 0.0
C586 C 0.98451 0.09565 0.37366 0.0
C587 C 1.0093 0.13807 0.35621 0.0
C588 C 0.96546 0.08564 0.38846 0.0
C589 C 0.94757 0.10563 0.39872 0.0
C590 C 0.9859 0.12589 0.36924 0.0
C591 C 0.94816 0.13534 0.39285 0.0
C592 C 0.01568 0.16839 0.35618 0.0
C593 C 0.05116 0.1292 0.33582 0.0
N594 N 0.96731 0.1446 0.37875 0.0
N595 N 0.02694 0.11957 0.34573 0.0
H596 H 0.59582 0.29058 0.07894 0.0
H597 H 0.61487 0.16005 0.13011 0.0
H598 H 0.68988 0.30165 0.08366 0.0
H599 H 0.69468 0.20169 0.15059 0.0
H600 H 0.61178 0.19629 0.1036 0.0
H601 H 0.59997 0.24342 0.09588 0.0
C602 C 0.61745 0.28274 0.08306 0.0
C603 C 0.64248 0.3003 0.08001 0.0
C604 C 0.62993 0.1976 0.11389 0.0
C605 C 0.64755 0.24599 0.0994 0.0
C606 C 0.63195 0.17663 0.12893 0.0
C607 C 0.65477 0.17815 0.14289 0.0
C608 C 0.65083 0.22039 0.11286 0.0
C609 C 0.67645 0.19989 0.14037 0.0
C610 C 0.61987 0.2556 0.09269 0.0
C611 C 0.66992 0.28901 0.0858 0.0
N612 N 0.67377 0.22032 0.1258 0.0
N613 N 0.67164 0.26288 0.09552 0.0
H614 H 0.59874 0.89251 0.89065 0.0
H615 H 0.45477 0.92222 0.82587 0.0
H616 H 0.54519 0.9706 0.89525 0.0
H617 H 0.4922 0.83596 0.83507 0.0
H618 H 0.49615 0.94389 0.84375 0.0
H619 H 0.56821 0.87582 0.86304 0.0
C620 C 0.58108 0.90656 0.88552 0.0
C621 C 0.57435 0.93292 0.89541 0.0
C622 C 0.49554 0.92026 0.84157 0.0
C623 C 0.53924 0.91378 0.8639 0.0
C624 C 0.47198 0.90783 0.83125 0.0
C625 C 0.46968 0.8771 0.82921 0.0
C626 C 0.51712 0.90192 0.84982 0.0
C627 C 0.49283 0.8597 0.83647 0.0
C628 C 0.56352 0.89688 0.86985 0.0
C629 C 0.55102 0.95003 0.88818 0.0
N630 N 0.51539 0.87231 0.84665 0.0
N631 N 0.53416 0.94005 0.873 0.0
H632 H 0.91259 0.2993 0.9469 0.0
H633 H 0.79802 0.21853 0.87711 0.0
H634 H 0.81927 0.31659 0.9475 0.0
H635 H 0.88771 0.18922 0.88388 0.0
H636 H 0.80435 0.25061 0.90572 0.0
H637 H 0.90336 0.25514 0.92703 0.0
C638 C 0.89011 0.29347 0.94327 0.0
C639 C 0.86671 0.31196 0.94866 0.0
C640 C 0.82254 0.23683 0.90117 0.0
C641 C 0.85604 0.26172 0.92563 0.0
C642 C 0.8189 0.21845 0.88482 0.0
C643 C 0.84243 0.20136 0.87792 0.0
C644 C 0.85009 0.23859 0.91056 0.0
C645 C 0.86897 0.20209 0.8886 0.0
C646 C 0.88486 0.2683 0.93183 0.0
C647 C 0.83806 0.30327 0.94347 0.0
N648 N 0.87224 0.22079 0.90416 0.0
N649 N 0.83359 0.2791 0.93202 0.0
H650 H 0.45076 0.11225 0.70165 0.0
H651 H 0.59006 0.1468 0.63346 0.0
H652 H 0.4792 0.20029 0.68678 0.0
H653 H 0.54065 0.06559 0.63131 0.0
H654 H 0.55883 0.16353 0.66066 0.0
H655 H 0.49294 0.09249 0.68371 0.0
C656 C 0.46618 0.12751 0.69498 0.0
C657 C 0.46112 0.15804 0.69549 0.0
C658 C 0.55522 0.14184 0.65445 0.0
C659 C 0.50949 0.13539 0.67491 0.0
C660 C 0.57315 0.13215 0.63902 0.0
C661 C 0.56774 0.10484 0.62993 0.0
C662 C 0.53197 0.12397 0.66102 0.0
C663 C 0.54541 0.0869 0.63774 0.0
C664 C 0.49018 0.11614 0.68466 0.0
C665 C 0.48201 0.17662 0.6866 0.0
N666 N 0.5282 0.09688 0.65272 0.0
N667 N 0.50513 0.165 0.67651 0.0
H668 H 0.60912 0.85404 0.40208 0.0
H669 H 0.59586 0.72387 0.45462 0.0
H670 H 0.6902 0.81555 0.38138 0.0
H671 H 0.68961 0.71453 0.44685 0.0
H672 H 0.59819 0.77146 0.43807 0.0
H673 H 0.60779 0.81808 0.42882 0.0
C674 C 0.62683 0.83821 0.40326 0.0
C675 C 0.6495 0.83746 0.38917 0.0
C676 C 0.61846 0.75958 0.44049 0.0
C677 C 0.6476 0.79546 0.41946 0.0
C678 C 0.61708 0.73221 0.44993 0.0
C679 C 0.6425 0.71495 0.45193 0.0
C680 C 0.64551 0.76977 0.43297 0.0
C681 C 0.66936 0.72688 0.44546 0.0
C682 C 0.62584 0.81737 0.41844 0.0
C683 C 0.67204 0.81671 0.39168 0.0
N684 N 0.67006 0.75324 0.43597 0.0
N685 N 0.67033 0.79637 0.40636 0.0
H686 H 0.06146 0.92162 0.20314 0.0
H687 H 1.00478 0.86119 0.10228 0.0
H688 H 0.07924 0.83307 0.18328 0.0
H689 H 0.95391 0.92657 0.13329 0.0
H690 H 0.03287 0.85196 0.13217 0.0
H691 H 0.02139 0.92485 0.17902 0.0
C692 C 0.05651 0.90259 0.19408 0.0
C693 C 0.07414 0.87721 0.19502 0.0
C694 C 0.01541 0.86815 0.13258 0.0
C695 C 0.02878 0.88107 0.16721 0.0
C696 C 0.99953 0.87366 0.11544 0.0
C697 C 0.9772 0.89492 0.11527 0.0
C698 C 1.00951 0.88449 0.14969 0.0
C699 C 0.97106 0.91008 0.13285 0.0
C700 C 0.03365 0.90451 0.1803 0.0
C701 C 0.06653 0.85321 0.18299 0.0
N702 N 0.98753 0.90494 0.14934 0.0
N703 N 0.04488 0.85598 0.1693 0.0
H704 H 0.56765 0.70718 0.87008 0.0
H705 H 0.64523 0.8243 0.941 0.0
H706 H 0.66181 0.7183 0.873 0.0
H707 H 0.55235 0.82183 0.92788 0.0
H708 H 0.65163 0.77854 0.92231 0.0
H709 H 0.56209 0.74147 0.89739 0.0
C710 C 0.58725 0.71659 0.87667 0.0
C711 C 0.61523 0.71024 0.86905 0.0
C712 C 0.62981 0.78778 0.92381 0.0
C713 C 0.60895 0.74999 0.90031 0.0
C714 C 0.62606 0.81381 0.93458 0.0
C715 C 0.59821 0.82712 0.93582 0.0
C716 C 0.6055 0.77488 0.91438 0.0
C717 C 0.57425 0.81256 0.92715 0.0
C718 C 0.58403 0.73624 0.89227 0.0
C719 C 0.63984 0.72273 0.87838 0.0
N720 N 0.57849 0.78742 0.91668 0.0
N721 N 0.63611 0.74243 0.89337 0.0
H722 H 0.58568 0.33511 0.14274 0.0
H723 H 0.46407 0.42788 0.20086 0.0
H724 H 0.56696 0.42667 0.13103 0.0
H725 H 0.46478 0.33286 0.19837 0.0
H726 H 0.50947 0.42893 0.18164 0.0
H727 H 0.54922 0.33562 0.16922 0.0
C728 C 0.57428 0.35549 0.14592 0.0
C729 C 0.57921 0.38084 0.13446 0.0
C730 C 0.4999 0.40785 0.18553 0.0
C731 C 0.53738 0.38146 0.16483 0.0
C732 C 0.47402 0.40718 0.19661 0.0
C733 C 0.46031 0.38021 0.20108 0.0
C734 C 0.51238 0.38138 0.17895 0.0
C735 C 0.47441 0.35415 0.19518 0.0
C736 C 0.55336 0.35568 0.16101 0.0
C737 C 0.56374 0.40656 0.13936 0.0
N738 N 0.49954 0.3554 0.18427 0.0
N739 N 0.54338 0.40615 0.15409 0.0
H740 H 0.86174 0.2022 0.45541 0.0
H741 H 0.89845 0.33875 0.38499 0.0
H742 H 0.94976 0.22644 0.43778 0.0
H743 H 0.81541 0.29249 0.38477 0.0
H744 H 0.91507 0.30732 0.41211 0.0
H745 H 0.84275 0.24503 0.4376 0.0
C746 C 0.87719 0.21692 0.44825 0.0
C747 C 0.90742 0.21046 0.44788 0.0
C748 C 0.89303 0.30443 0.40634 0.0
C749 C 0.8857 0.25945 0.42743 0.0
C750 C 0.88342 0.32247 0.39093 0.0
C751 C 0.85555 0.31805 0.38243 0.0
C752 C 0.87454 0.28205 0.41349 0.0
C753 C 0.83714 0.29649 0.39073 0.0
C754 C 0.86627 0.24124 0.43796 0.0
C755 C 0.92629 0.23038 0.4383 0.0
N756 N 0.84704 0.27915 0.4057 0.0
N757 N 0.91511 0.25381 0.42829 0.0
H758 H 0.06402 0.69872 0.69386 0.0
H759 H 0.95073 0.60321 0.63047 0.0
H760 H 0.05339 0.60479 0.70087 0.0
H761 H 0.96161 0.69735 0.62533 0.0
H762 H 0.98256 0.60391 0.65978 0.0
H763 H 0.02065 0.69944 0.67267 0.0
C764 C 0.05224 0.67832 0.69128 0.0
C765 C 0.06269 0.6516 0.69896 0.0
C766 C 0.97763 0.62445 0.65236 0.0
C767 C 0.01318 0.65214 0.67432 0.0
C768 C 0.95941 0.62404 0.63567 0.0
C769 C 0.95387 0.65018 0.62526 0.0
C770 C 0.9903 0.65118 0.65863 0.0
C771 C 0.96565 0.67657 0.63268 0.0
C772 C 0.0275 0.6787 0.67907 0.0
C773 C 0.04635 0.62588 0.69513 0.0
N774 N 0.98348 0.67634 0.64874 0.0
N775 N 0.02272 0.62671 0.68283 0.0
H776 H 0.68857 0.20618 0.5878 0.0
H777 H 0.60049 0.34134 0.63462 0.0
H778 H 0.59486 0.21803 0.58142 0.0
H779 H 0.68905 0.31732 0.65097 0.0
H780 H 0.60096 0.30298 0.60933 0.0
H781 H 0.69159 0.2534 0.60481 0.0
C782 C 0.66864 0.21892 0.58968 0.0
C783 C 0.64132 0.20785 0.58339 0.0
C784 C 0.62042 0.30637 0.61828 0.0
C785 C 0.64469 0.26204 0.60307 0.0
C786 C 0.62025 0.32837 0.63269 0.0
C787 C 0.64468 0.33239 0.64514 0.0
C788 C 0.64523 0.2883 0.61618 0.0
C789 C 0.66964 0.3149 0.64185 0.0
C790 C 0.67041 0.24588 0.59948 0.0
C791 C 0.61635 0.22557 0.58611 0.0
N792 N 0.66917 0.29347 0.62782 0.0
N793 N 0.61858 0.25163 0.59596 0.0
H794 H 0.05645 0.33518 0.83251 0.0
H795 H 0.94559 0.43031 0.89785 0.0
H796 H 0.04764 0.42952 0.8272 0.0
H797 H 0.95757 0.33637 0.90312 0.0
H798 H 0.97617 0.42976 0.86793 0.0
H799 H 0.01329 0.33435 0.85389 0.0
C800 C 0.04509 0.35566 0.83547 0.0
C801 C 0.05604 0.38251 0.82828 0.0
C802 C 0.97173 0.40923 0.87551 0.0
C803 C 1.0068 0.38182 0.85313 0.0
C804 C 0.95421 0.40955 0.89254 0.0
C805 C 0.94944 0.38344 0.90316 0.0
C806 C 0.9844 0.3826 0.86911 0.0
C807 C 0.9611 0.35713 0.89561 0.0
C808 C 0.02049 0.35522 0.84781 0.0
C809 C 0.04024 0.40833 0.83261 0.0
N810 N 0.97822 0.35744 0.87921 0.0
N811 N 0.01673 0.40741 0.84501 0.0
H812 H 0.86701 0.81437 0.0748 0.0
H813 H 0.89638 0.67617 0.14526 0.0
H814 H 0.95374 0.78356 0.09044 0.0
H815 H 0.8158 0.72628 0.14495 0.0
H816 H 0.91471 0.70639 0.11796 0.0
H817 H 0.84566 0.77309 0.09302 0.0
C818 C 0.88163 0.7986 0.08169 0.0
C819 C 0.91228 0.80276 0.08132 0.0
C820 C 0.89281 0.71038 0.12364 0.0
C821 C 0.88782 0.75545 0.10226 0.0
C822 C 0.8822 0.693 0.13913 0.0
C823 C 0.85455 0.69886 0.14752 0.0
C824 C 0.87553 0.73355 0.11633 0.0
C825 C 0.83731 0.72115 0.13904 0.0
C826 C 0.86937 0.77512 0.09218 0.0
C827 C 0.93002 0.78146 0.0905 0.0
N828 N 0.84816 0.73783 0.12402 0.0
N829 N 0.91753 0.7589 0.10077 0.0
H830 H 0.58265 0.65195 0.39909 0.0
H831 H 0.47216 0.57944 0.32133 0.0
H832 H 0.57256 0.5581 0.39122 0.0
H833 H 0.47331 0.67191 0.3362 0.0
H834 H 0.51605 0.57227 0.34156 0.0
H835 H 0.54998 0.66019 0.37111 0.0
C836 C 0.57387 0.63301 0.39133 0.0
C837 C 0.58008 0.60424 0.39775 0.0
C838 C 0.50696 0.59421 0.34015 0.0
C839 C 0.54238 0.61365 0.36562 0.0
C840 C 0.48195 0.59839 0.3285 0.0
C841 C 0.46872 0.62629 0.32723 0.0
C842 C 0.51892 0.61808 0.35061 0.0
C843 C 0.48256 0.64997 0.33683 0.0
C844 C 0.55515 0.63778 0.37534 0.0
C845 C 0.56825 0.58065 0.38692 0.0
N846 N 0.50666 0.64525 0.34829 0.0
N847 N 0.54969 0.58588 0.37153 0.0
H848 H 0.36941 0.22264 0.0777 0.0
H849 H 0.42396 0.36266 0.13916 0.0
H850 H 0.46068 0.24284 0.089 0.0
H851 H 0.33886 0.32197 0.14713 0.0
H852 H 0.43428 0.32799 0.11249 0.0
H853 H 0.35536 0.26797 0.09482 0.0
C854 C 0.38656 0.23693 0.08334 0.0
C855 C 0.41631 0.22873 0.08212 0.0
C856 C 0.41315 0.32703 0.11985 0.0
C857 C 0.40027 0.2806 0.10168 0.0
C858 C 0.40711 0.34692 0.13502 0.0
C859 C 0.38062 0.34497 0.14563 0.0
C860 C 0.39245 0.30521 0.11507 0.0
C861 C 0.35969 0.32408 0.13951 0.0
C862 C 0.37847 0.2627 0.09321 0.0
C863 C 0.4375 0.24813 0.08978 0.0
N864 N 0.36617 0.30481 0.12476 0.0
N865 N 0.42907 0.27304 0.09937 0.0
H866 H 0.42117 0.65689 0.88062 0.0
H867 H 0.55978 0.57639 0.8325 0.0
H868 H 0.45262 0.57119 0.89831 0.0
H869 H 0.53774 0.66741 0.82172 0.0
H870 H 0.51405 0.57053 0.85092 0.0
H871 H 0.45702 0.65723 0.85376 0.0
C872 C 0.43522 0.63787 0.87867 0.0
C873 C 0.43407 0.61409 0.89195 0.0
C874 C 0.51897 0.59169 0.84429 0.0
C875 C 0.47536 0.6145 0.86119 0.0
C876 C 0.54507 0.59505 0.83368 0.0
C877 C 0.55288 0.62257 0.82576 0.0
C878 C 0.50045 0.61603 0.84711 0.0
C879 C 0.53274 0.64583 0.82765 0.0
C880 C 0.45579 0.63817 0.86334 0.0
C881 C 0.45285 0.5901 0.88858 0.0
N882 N 0.50765 0.64215 0.83837 0.0
N883 N 0.4729 0.59105 0.87367 0.0
H884 H 0.09604 0.66231 0.63709 0.0
H885 H 0.15135 0.79995 0.57343 0.0
H886 H 0.18263 0.70065 0.64272 0.0
H887 H 0.06 0.77989 0.58456 0.0
H888 H 0.16528 0.75498 0.59103 0.0
H889 H 0.08547 0.69645 0.61018 0.0
C890 C 0.11313 0.67743 0.6324 0.0
C891 C 0.14018 0.67884 0.64241 0.0
C892 C 0.14219 0.76018 0.58929 0.0
C893 C 0.12804 0.7181 0.61156 0.0
C894 C 0.13416 0.78574 0.57913 0.0
C895 C 0.10442 0.7939 0.5777 0.0
C896 C 0.12033 0.74247 0.59789 0.0
C897 C 0.08318 0.77463 0.58546 0.0
C898 C 0.10696 0.69704 0.61708 0.0
C899 C 0.16138 0.69896 0.63558 0.0
N900 N 0.09155 0.74996 0.59536 0.0
N901 N 0.15476 0.71801 0.62071 0.0
H902 H 0.08836 0.37257 0.39886 0.0
H903 H 0.95284 0.40636 0.32729 0.0
H904 H 0.04274 0.45583 0.3971 0.0
H905 H 0.97421 0.31944 0.34871 0.0
H906 H 0.99632 0.42578 0.34416 0.0
H907 H 0.05704 0.35471 0.37201 0.0
C908 C 0.0723 0.38739 0.3925 0.0
C909 C 0.06793 0.41568 0.4004 0.0
C910 C 0.99177 0.40237 0.34481 0.0
C911 C 0.03213 0.39529 0.36967 0.0
C912 C 0.96707 0.39118 0.33507 0.0
C913 C 0.9596 0.36124 0.33682 0.0
C914 C 1.00935 0.38344 0.35615 0.0
C915 C 0.97893 0.34271 0.34716 0.0
C916 C 0.05433 0.37708 0.37726 0.0
C917 C 0.04665 0.43379 0.3916 0.0
N918 N 1.00276 0.35415 0.3566 0.0
N919 N 0.02938 0.42322 0.3768 0.0
H920 H 0.43745 0.65862 0.39077 0.0
H921 H 0.37678 0.79649 0.45166 0.0
H922 H 0.34994 0.69388 0.38366 0.0
H923 H 0.469 0.78056 0.44094 0.0
H924 H 0.36489 0.75078 0.43431 0.0
H925 H 0.44683 0.69486 0.41668 0.0
C926 C 0.41993 0.67353 0.39492 0.0
C927 C 0.39293 0.67341 0.38481 0.0
C928 C 0.38774 0.7571 0.43603 0.0
C929 C 0.40369 0.71501 0.41448 0.0
C930 C 0.39461 0.78311 0.44604 0.0
C931 C 0.42398 0.7926 0.44759 0.0
C932 C 0.41037 0.74022 0.4277 0.0
C933 C 0.44607 0.77427 0.43996 0.0
C934 C 0.42543 0.69434 0.40965 0.0
C935 C 0.37115 0.69333 0.39091 0.0
N936 N 0.4388 0.74907 0.43022 0.0
N937 N 0.37709 0.71349 0.40524 0.0
H938 H 0.06665 0.69992 0.12005 0.0
H939 H 0.95686 0.62814 0.19814 0.0
H940 H 0.06033 0.60619 0.12946 0.0
H941 H 0.96 0.7205 0.18318 0.0
H942 H 1.00163 0.62029 0.17872 0.0
H943 H 0.03524 0.7081 0.14857 0.0
C944 C 0.0589 0.68101 0.12833 0.0
C945 C 0.06573 0.65231 0.12223 0.0
C946 C 0.99281 0.64235 0.18001 0.0
C947 C 0.02913 0.66151 0.15485 0.0
C948 C 0.96734 0.64692 0.19121 0.0
C949 C 0.95439 0.67501 0.19208 0.0
C950 C 1.00546 0.66605 0.16971 0.0
C951 C 0.96896 0.69843 0.18275 0.0
C952 C 0.04091 0.6857 0.14464 0.0
C953 C 0.05546 0.62866 0.13366 0.0
N954 N 0.99345 0.69336 0.1718 0.0
N955 N 0.03718 0.63376 0.14927 0.0
H956 H 0.09031 0.3608 0.889 0.0
H957 H 0.1516 0.21982 0.94648 0.0
H958 H 0.17775 0.32597 0.88069 0.0
H959 H 0.05924 0.23771 0.93791 0.0
H960 H 0.16349 0.26607 0.92976 0.0
H961 H 0.08132 0.32347 0.91425 0.0
C962 C 0.1079 0.34575 0.89276 0.0
C963 C 0.13477 0.34637 0.88249 0.0
C964 C 0.14063 0.26006 0.93181 0.0
C965 C 0.12443 0.30343 0.91143 0.0
C966 C 0.13376 0.23373 0.94147 0.0
C967 C 0.10432 0.22466 0.94345 0.0
C968 C 0.11793 0.27767 0.92425 0.0
C969 C 0.08223 0.24366 0.93658 0.0
C970 C 0.10262 0.3243 0.90712 0.0
C971 C 0.15663 0.32619 0.88808 0.0
N972 N 0.08949 0.26915 0.92717 0.0
N973 N 0.1509 0.30538 0.90204 0.0
H974 H 0.45036 0.44427 0.63015 0.0
H975 H 0.55208 0.3474 0.6994 0.0
H976 H 0.42973 0.35443 0.6459 0.0
H977 H 0.56099 0.44173 0.69385 0.0
H978 H 0.50464 0.35028 0.68245 0.0
H979 H 0.48816 0.44496 0.65581 0.0
C980 C 0.45341 0.42485 0.63921 0.0
C981 C 0.43705 0.39914 0.63567 0.0
C982 C 0.51676 0.37041 0.68523 0.0
C983 C 0.48067 0.39961 0.66489 0.0
C984 C 0.54385 0.36878 0.69496 0.0
C985 C 0.56078 0.39431 0.69784 0.0
C986 C 0.50668 0.39771 0.67815 0.0
C987 C 0.5489 0.4214 0.69178 0.0
C988 C 0.47505 0.42524 0.65387 0.0
C989 C 0.44193 0.37469 0.64797 0.0
N990 N 0.52285 0.42233 0.68197 0.0
N991 N 0.4636 0.37536 0.66179 0.0
H992 H 0.25607 0.31962 0.21369 0.0
H993 H 0.22874 0.20899 0.30394 0.0
H994 H 0.3255 0.28924 0.25206 0.0
H995 H 0.16164 0.23338 0.26194 0.0
H996 H 0.26412 0.23934 0.28591 0.0
H997 H 0.22113 0.28906 0.23175 0.0
C998 C 0.26404 0.30646 0.22591 0.0
C999 C 0.29385 0.30705 0.23135 0.0
C1000 C 0.24167 0.23807 0.28063 0.0
C1001 C 0.25367 0.27193 0.25224 0.0
C1002 C 0.22138 0.22079 0.29096 0.0
C1003 C 0.19208 0.21857 0.28446 0.0
C1004 C 0.23267 0.25341 0.26368 0.0
C1005 C 0.18394 0.23438 0.26751 0.0
C1006 C 0.244 0.28898 0.23623 0.0
C1007 C 0.30277 0.28945 0.24731 0.0
N1008 N 0.2041 0.2511 0.25774 0.0
N1009 N 0.28275 0.27268 0.25722 0.0
H1010 H 0.07623 0.9445 0.5151 0.0
H1011 H 0.94284 0.05936 0.50734 0.0
H1012 H 1.00542 0.94963 0.55739 0.0
H1013 H 0.01343 0.05474 0.46484 0.0
H1014 H 0.96578 0.01948 0.52595 0.0
H1015 H 0.05336 0.9843 0.49623 0.0
C1016 C 0.05575 0.95379 0.52035 0.0
C1017 C 0.04277 0.94364 0.53791 0.0
C1018 C 0.97633 0.02723 0.5126 0.0
C1019 C 0.01658 0.98953 0.51642 0.0
C1020 C 0.96329 0.05014 0.50198 0.0
C1021 C 0.97619 0.0605 0.48445 0.0
C1022 C 1.0025 0.01444 0.50569 0.0
C1023 C 1.00268 0.04755 0.47826 0.0
C1024 C 0.04276 0.97664 0.5096 0.0
C1025 C 0.01626 0.95667 0.54397 0.0
N1026 N 0.01489 0.02517 0.48882 0.0
N1027 N 1.00413 0.97894 0.5333 0.0
H1028 H 0.20144 0.73933 0.74284 0.0
H1029 H 0.37248 0.77356 0.76223 0.0
H1030 H 0.27222 0.69006 0.71625 0.0
H1031 H 0.30131 0.82185 0.7892 0.0
H1032 H 0.33622 0.74328 0.7447 0.0
H1033 H 0.23784 0.77043 0.75947 0.0
C1034 C 0.2246 0.73507 0.74047 0.0
C1035 C 0.23373 0.712 0.72813 0.0
C1036 C 0.32857 0.76054 0.75445 0.0
C1037 C 0.2756 0.74752 0.74715 0.0
C1038 C 0.34929 0.77785 0.76445 0.0
C1039 C 0.34 0.80028 0.77726 0.0
C1040 C 0.29835 0.76569 0.75726 0.0
C1041 C 0.30959 0.80479 0.77953 0.0
C1042 C 0.24541 0.75282 0.74997 0.0
C1043 C 0.26411 0.70754 0.72563 0.0
N1044 N 0.28993 0.78768 0.76967 0.0
N1045 N 0.2839 0.72508 0.73505 0.0
H1046 H 0.43584 0.02844 0.03712 0.0
H1047 H 0.59283 0.02516 0.98359 0.0
H1048 H 0.49216 0.10469 0.0318 0.0
H1049 H 0.53541 0.9496 0.98794 0.0
H1050 H 0.55645 0.05453 1.00126 0.0
H1051 H 0.47202 0.99941 0.0191 0.0
C1052 C 0.45581 0.03915 0.03213 0.0
C1053 C 0.46094 0.06912 0.03602 0.0
C1054 C 0.55177 0.03154 0.99836 0.0
C1055 C 0.50267 0.03578 0.01533 0.0
C1056 C 0.57258 0.01469 0.98828 0.0
C1057 C 0.56721 0.9848 0.98426 0.0
C1058 C 0.52531 0.01848 1.00454 0.0
C1059 C 0.54053 0.97253 0.99071 0.0
C1060 C 0.4765 0.02249 0.02183 0.0
C1061 C 0.48725 0.08169 0.02914 0.0
N1062 N 0.5206 0.98941 1.00052 0.0
N1063 N 0.50714 0.06495 0.01916 0.0
H1064 H 0.26682 0.69369 0.3166 0.0
H1065 H 0.24363 0.80902 0.22854 0.0
H1066 H 0.33765 0.72486 0.27961 0.0
H1067 H 0.17388 0.77922 0.26694 0.0
H1068 H 0.27835 0.77845 0.24687 0.0
H1069 H 0.23272 0.72506 0.29856 0.0
C1070 C 0.27527 0.70719 0.30469 0.0
C1071 C 0.30522 0.70656 0.29961 0.0
C1072 C 0.25546 0.77859 0.2513 0.0
C1073 C 0.26602 0.74266 0.27876 0.0
C1074 C 0.23556 0.79603 0.24081 0.0
C1075 C 0.20569 0.79672 0.24618 0.0
C1076 C 0.24551 0.76162 0.26729 0.0
C1077 C 0.19663 0.77941 0.26224 0.0
C1078 C 0.2557 0.72513 0.29437 0.0
C1079 C 0.31478 0.72462 0.28404 0.0
N1080 N 0.21644 0.76259 0.2722 0.0
N1081 N 0.29522 0.74188 0.27414 0.0
H1082 H 0.49156 0.91897 0.50134 0.0
H1083 H 0.53207 0.08381 0.5351 0.0
H1084 H 0.43977 0.99536 0.4863 0.0
H1085 H 0.58544 1.00787 0.54859 0.0
H1086 H 0.49753 0.05164 0.51757 0.0
H1087 H 0.52578 0.95102 0.5193 0.0
C1088 C 0.48735 0.94243 0.50184 0.0
C1089 C 0.46276 0.95445 0.49227 0.0
C1090 C 0.51681 0.04202 0.52437 0.0
C1091 C 0.50183 0.9913 0.51277 0.0
C1092 C 0.53655 0.06041 0.53438 0.0
C1093 C 0.56173 0.04858 0.54333 0.0
C1094 C 0.52226 0.01156 0.52332 0.0
C1095 C 0.56635 0.01804 0.54191 0.0
C1096 C 0.5069 0.96074 0.51207 0.0
C1097 C 0.45843 0.98506 0.49342 0.0
N1098 N 0.54685 1.00064 0.53213 0.0
N1099 N 0.47774 1.00237 0.50344 0.0
H1100 H 0.25084 0.36402 0.77935 0.0
H1101 H 0.30922 0.20233 0.75576 0.0
H1102 H 0.20158 0.28594 0.79464 0.0
H1103 H 0.33577 0.27874 0.72223 0.0
H1104 H 0.27446 0.23305 0.77411 0.0
H1105 H 0.28652 0.33334 0.76196 0.0
C1106 C 0.24751 0.34039 0.77905 0.0
C1107 C 0.22315 0.32751 0.78845 0.0
C1108 C 0.28799 0.24306 0.76278 0.0
C1109 C 0.2642 0.29225 0.76874 0.0
C1110 C 0.30802 0.22563 0.75241 0.0
C1111 C 0.32545 0.23799 0.7374 0.0
C1112 C 0.28568 0.27317 0.75835 0.0
C1113 C 0.32274 0.26827 0.73362 0.0
C1114 C 0.26788 0.32292 0.76908 0.0
C1115 C 0.21995 0.29678 0.78751 0.0
N1116 N 0.30329 0.28483 0.74406 0.0
N1117 N 0.24038 0.28014 0.77794 0.0
H1118 H 0.0411 0.09597 0.99906 0.0
H1119 H 0.98578 0.93037 0.01927 0.0
H1120 H 0.0757 0.01981 0.96888 0.0
H1121 H 0.95133 1.00677 0.04925 0.0
H1122 H 0.01859 0.96272 1.00035 0.0
H1123 H 1.00771 0.0636 0.01743 0.0
C1124 C 0.04169 0.07248 0.99628 0.0
C1125 C 0.06128 0.06065 0.9824 0.0
C1126 C 1.0038 0.97238 1.01106 0.0
C1127 C 0.0231 0.0234 1.00337 0.0
C1128 C 0.98505 0.9539 0.02185 0.0
C1129 C 0.96575 0.96581 0.03589 0.0
C1130 C 1.00328 1.003 0.01434 0.0
C1131 C 0.96582 0.99652 0.03861 0.0
C1132 C 0.02261 0.05398 1.00677 0.0
C1133 C 0.06102 0.02999 0.97943 0.0
N1134 N 0.98425 0.01398 0.02798 0.0
N1135 N 0.04229 0.01248 0.98981 0.0
H1136 H 0.76256 0.86355 0.74666 0.0
H1137 H 0.69956 0.70273 0.7685 0.0
H1138 H 0.80874 0.78521 0.7284 0.0
H1139 H 0.6768 0.77912 0.80314 0.0
H1140 H 0.73547 0.73269 0.75029 0.0
H1141 H 0.72714 0.83296 0.76431 0.0
C1142 C 0.76529 0.83985 0.74639 0.0
C1143 C 0.78869 0.82691 0.73604 0.0
C1144 C 0.72254 0.74284 0.76184 0.0
C1145 C 0.74781 0.79164 0.75612 0.0
C1146 C 0.70186 0.72586 0.77213 0.0
C1147 C 0.68508 0.73846 0.78736 0.0
C1148 C 0.72612 0.77273 0.7666 0.0
C1149 C 0.68923 0.76846 0.79154 0.0
C1150 C 0.74505 0.8224 0.75652 0.0
C1151 C 0.79112 0.79608 0.73629 0.0
N1152 N 0.70922 0.78456 0.78119 0.0
N1153 N 0.77077 0.77943 0.74605 0.0
H1154 H 0.69564 0.2335 0.24405 0.0
H1155 H 0.85549 0.24935 0.29327 0.0
H1156 H 0.76531 0.16993 0.23686 0.0
H1157 H 0.79246 0.32031 0.29141 0.0
H1158 H 0.82112 0.21851 0.27468 0.0
H1159 H 0.72918 0.26427 0.26364 0.0
C1160 C 0.7179 0.22597 0.24663 0.0
C1161 C 0.72767 0.19913 0.23874 0.0
C1162 C 0.81482 0.24085 0.27832 0.0
C1163 C 0.76609 0.23412 0.26114 0.0
C1164 C 0.83445 0.25847 0.28896 0.0
C1165 C 0.82694 0.28751 0.29388 0.0
C1166 C 0.78734 0.25224 0.27264 0.0
C1167 C 0.79928 0.29809 0.28789 0.0
C1168 C 0.73706 0.24356 0.25776 0.0
C1169 C 0.7568 0.19049 0.24255 0.0
N1170 N 0.78048 0.28046 0.27763 0.0
N1171 N 0.7749 0.20787 0.25347 0.0
H1172 H 0.82239 0.24602 0.79389 0.0
H1173 H 0.68634 0.24987 0.719 0.0
H1174 H 0.77444 0.16858 0.77557 0.0
H1175 H 0.71558 0.32682 0.7509 0.0
H1176 H 0.72168 0.22013 0.73745 0.0
H1177 H 0.78691 0.27663 0.77576 0.0
C1178 C 0.80455 0.23547 0.78598 0.0
C1179 C 0.80135 0.20471 0.78627 0.0
C1180 C 0.72027 0.2435 0.74049 0.0
C1181 C 0.76086 0.23946 0.76554 0.0
C1182 C 0.70008 0.2605 0.72995 0.0
C1183 C 0.69791 0.29087 0.73343 0.0
C1184 C 0.73879 0.25699 0.75444 0.0
C1185 C 0.71637 0.30344 0.74781 0.0
C1186 C 0.78423 0.25293 0.77575 0.0
C1187 C 0.77772 0.1922 0.77584 0.0
N1188 N 0.73618 0.28648 0.7577 0.0
N1189 N 0.7585 0.20957 0.76588 0.0
H1190 H 0.76466 0.83251 0.31136 0.0
H1191 H 0.78605 0.70764 0.22917 0.0
H1192 H 0.69193 0.79021 0.2817 0.0
H1193 H 0.85739 0.74648 0.26227 0.0
H1194 H 0.75132 0.73861 0.24724 0.0
H1195 H 0.79874 0.80214 0.29263 0.0
C1196 C 0.75578 0.8168 0.3009 0.0
C1197 C 0.72528 0.81392 0.29815 0.0
C1198 C 0.77456 0.74038 0.25053 0.0
C1199 C 0.76449 0.77889 0.2765 0.0
C1200 C 0.79446 0.72273 0.24019 0.0
C1201 C 0.82477 0.72439 0.2442 0.0
C1202 C 0.78497 0.75995 0.26499 0.0
C1203 C 0.83428 0.74437 0.25867 0.0
C1204 C 0.77535 0.79942 0.29018 0.0
C1205 C 0.71523 0.79316 0.28433 0.0
N1206 N 0.81447 0.76132 0.26852 0.0
N1207 N 0.73479 0.77644 0.27402 0.0
H1208 H 0.57215 0.49942 0.05498 0.0
H1209 H 0.4447 0.49927 0.97338 0.0
H1210 H 0.53791 0.42017 0.02823 0.0
H1211 H 0.48004 0.57838 0.99967 0.0
H1212 H 0.47835 0.46998 0.99341 0.0
H1213 H 0.5384 0.52852 0.03498 0.0
C1214 C 0.55752 0.48808 0.0449 0.0
C1215 C 0.5579 0.45723 0.04331 0.0
C1216 C 0.47877 0.49373 0.99482 0.0
C1217 C 0.51904 0.49061 0.02027 0.0
C1218 C 0.45953 0.51053 0.98338 0.0
C1219 C 0.45951 0.5414 0.98482 0.0
C1220 C 0.49822 0.50783 1.00787 0.0
C1221 C 0.47927 0.55467 0.99805 0.0
C1222 C 0.53822 0.50477 0.03346 0.0
C1223 C 0.53839 0.44387 0.02996 0.0
N1224 N 0.4978 0.53782 1.00905 0.0
N1225 N 0.51976 0.46064 0.01896 0.0
H1226 H 0.03528 0.43949 0.49799 0.0
H1227 H 0.98672 0.60428 0.52645 0.0
H1228 H 0.08159 0.51721 0.47832 0.0
H1229 H 0.94547 0.52598 0.54982 0.0
H1230 H 0.02063 0.57298 0.50767 0.0
H1231 H 1.00098 0.47102 0.51611 0.0
C1232 C 0.03824 0.46315 0.49746 0.0
C1233 C 0.06141 0.47566 0.48662 0.0
C1234 C 1.00413 0.56269 0.51692 0.0
C1235 C 0.02217 0.51198 0.50733 0.0
C1236 C 0.98475 0.58056 0.52762 0.0
C1237 C 0.96322 0.5678 0.53978 0.0
C1238 C 1.00189 0.53182 0.51832 0.0
C1239 C 0.96173 0.53688 0.54071 0.0
C1240 C 0.01866 0.48118 0.50783 0.0
C1241 C 0.06411 0.50653 0.48649 0.0
N1242 N 0.98073 0.52003 0.53015 0.0
N1243 N 0.04477 0.52358 0.49665 0.0
H1244 H 0.03853 0.59481 0.02339 0.0
H1245 H 0.97954 0.43004 1.00457 0.0
H1246 H 0.07 0.51872 0.05517 0.0
H1247 H 0.94832 0.50629 0.97285 0.0
H1248 H 0.01299 0.46206 0.02326 0.0
H1249 H 1.00529 0.56269 1.00468 0.0
C1250 C 0.03846 0.5714 0.02645 0.0
C1251 C 0.05712 0.55952 0.0409 0.0
C1252 C 0.99881 0.47176 1.01219 0.0
C1253 C 0.01912 0.52253 0.01952 0.0
C1254 C 0.97972 0.45346 1.00151 0.0
C1255 C 0.96105 0.46542 0.9871 0.0
C1256 C 0.99925 0.50227 1.00844 0.0
C1257 C 0.96226 0.496 0.9838 0.0
C1258 C 0.01948 0.55303 0.01576 0.0
C1259 C 0.05604 0.52894 0.0442 0.0
N1260 N 0.98096 0.51329 0.99436 0.0
N1261 N 0.03743 0.51157 0.03362 0.0
H1262 H 0.51683 0.54818 0.46149 0.0
H1263 H 0.49592 0.48679 0.57141 0.0
H1264 H 0.56718 0.57903 0.51143 0.0
H1265 H 0.45271 0.44898 0.52063 0.0
H1266 H 0.52155 0.52122 0.54973 0.0
H1267 H 0.4918 0.51299 0.48303 0.0
C1268 C 0.52252 0.54772 0.47701 0.0
C1269 C 0.54419 0.56666 0.48463 0.0
C1270 C 0.50658 0.50533 0.54329 0.0
C1271 C 0.51566 0.52615 0.5094 0.0
C1272 C 0.49194 0.48558 0.55567 0.0
C1273 C 0.47207 0.46494 0.54785 0.0
C1274 C 0.50121 0.50467 0.52288 0.0
C1275 C 0.46789 0.46444 0.52731 0.0
C1276 C 0.50828 0.52748 0.48929 0.0
C1277 C 0.55062 0.56493 0.50488 0.0
N1278 N 0.4822 0.48412 0.51556 0.0
N1279 N 0.53645 0.54504 0.51653 0.0
H1280 H 0.17764 0.05211 0.31707 0.0
H1281 H 0.18233 0.96335 0.21469 0.0
H1282 H 0.177 0.09362 0.25974 0.0
H1283 H 0.18168 0.9215 0.27191 0.0
H1284 H 0.18429 0.01144 0.231 0.0
H1285 H 0.18316 1.00414 0.30091 0.0
C1286 C 0.17892 0.05119 0.30112 0.0
C1287 C 0.17663 0.07694 0.28976 0.0
C1288 C 0.18389 0.99171 0.23999 0.0
C1289 C 0.18279 0.02213 0.27115 0.0
C1290 C 0.18282 0.96424 0.23066 0.0
C1291 C 0.18166 0.93833 0.24193 0.0
C1292 C 0.18377 0.99331 0.26073 0.0
C1293 C 0.18237 0.94087 0.2626 0.0
C1294 C 0.182 0.02379 0.29188 0.0
C1295 C 0.17845 0.07438 0.26912 0.0
N1296 N 0.18322 0.96782 0.27131 0.0
N1297 N 0.18124 0.04751 0.2605 0.0
H1298 H 0.23094 0.86778 0.57778 0.0
H1299 H 0.31466 0.91764 0.4797 0.0
H1300 H 0.19095 0.92449 0.53429 0.0
H1301 H 0.35769 0.8785 0.53007 0.0
H1302 H 0.26906 0.92086 0.49907 0.0
H1303 H 0.27773 0.87211 0.56036 0.0
C1304 C 0.23208 0.88143 0.56468 0.0
C1305 C 0.20694 0.89571 0.55747 0.0
C1306 C 0.2886 0.9118 0.50588 0.0
C1307 C 0.26047 0.90041 0.53718 0.0
C1308 C 0.31459 0.90991 0.49482 0.0
C1309 C 0.34002 0.89761 0.5032 0.0
C1310 C 0.28803 0.90108 0.52536 0.0
C1311 C 0.33866 0.88801 0.5229 0.0
C1312 C 0.25882 0.88389 0.5547 0.0
C1313 C 0.20978 0.91313 0.54041 0.0
N1314 N 0.31313 0.88975 0.53321 0.0
N1315 N 0.23597 0.91472 0.53071 0.0
H1316 H 0.33952 0.10214 0.77602 0.0
H1317 H 0.33155 0.92855 0.75801 0.0
H1318 H 0.3347 0.06214 0.71831 0.0
H1319 H 0.34414 0.96803 0.81535 0.0
H1320 H 0.32484 0.97742 0.74386 0.0
H1321 H 0.33355 0.05367 0.79101 0.0
C1322 C 0.3369 0.08319 0.76646 0.0
C1323 C 0.33798 0.08621 0.74583 0.0
C1324 C 0.32877 0.97544 0.75956 0.0
C1325 C 0.33123 0.03048 0.76301 0.0
C1326 C 0.33258 0.94749 0.7677 0.0
C1327 C 0.3388 0.94417 0.78789 0.0
C1328 C 0.33129 1.00039 0.77166 0.0
C1329 C 0.33956 0.96955 0.7997 0.0
C1330 C 0.33351 0.05549 0.77507 0.0
C1331 C 0.3342 0.06086 0.73426 0.0
N1332 N 0.33618 0.99662 0.79137 0.0
N1333 N 0.33127 0.03403 0.74301 0.0
H1334 H 0.3492 0.11384 1.00291 0.0
H1335 H 0.17597 0.10159 0.02117 0.0
H1336 H 0.31014 0.1072 0.0608 0.0
H1337 H 0.21543 0.1089 0.96343 0.0
H1338 H 0.22496 0.09861 0.03574 0.0
H1339 H 0.30076 0.10712 0.98816 0.0
C1340 C 0.33045 0.11076 1.01255 0.0
C1341 C 0.33374 0.11137 0.03316 0.0
C1342 C 0.22294 0.10062 0.01987 0.0
C1343 C 0.27797 0.10377 0.01627 0.0
C1344 C 0.19493 0.1023 1.0115 0.0
C1345 C 0.19154 0.10578 0.99102 0.0
C1346 C 0.24786 0.10252 1.0077 0.0
C1347 C 0.21696 0.10637 0.97928 0.0
C1348 C 0.30274 0.10691 1.00409 0.0
C1349 C 0.30863 0.10701 0.04486 0.0
N1350 N 0.24403 0.10502 0.98781 0.0
N1351 N 0.28176 0.10364 0.03625 0.0
H1352 H 0.84704 0.03841 0.83038 0.0
H1353 H 0.84357 0.96991 0.72114 0.0
H1354 H 0.84932 0.09101 0.7773 0.0
H1355 H 0.85233 0.91822 0.77429 0.0
H1356 H 0.84017 0.0145 0.74146 0.0
H1357 H 0.8434 0.99403 0.81003 0.0
C1358 C 0.84657 0.04067 0.81447 0.0
C1359 C 0.84872 0.0685 0.80557 0.0
C1360 C 0.84269 0.99335 0.74865 0.0
C1361 C 0.84463 0.01775 0.78214 0.0
C1362 C 0.84455 0.9679 0.73706 0.0
C1363 C 0.84845 0.9403 0.746 0.0
C1364 C 0.8446 0.99115 0.76933 0.0
C1365 C 0.84958 0.93903 0.76671 0.0
C1366 C 0.84456 0.01531 0.80284 0.0
C1367 C 0.84794 0.07002 0.78484 0.0
N1368 N 0.84776 0.96404 0.77764 0.0
N1369 N 0.84608 0.04504 0.77385 0.0
H1370 H 0.67045 0.10231 0.50456 0.0
H1371 H 0.84293 0.07773 0.52024 0.0
H1372 H 0.71069 0.08779 0.56144 0.0
H1373 H 0.80384 0.09816 0.46381 0.0
H1374 H 0.79398 0.07525 0.53479 0.0
H1375 H 0.71818 0.09511 0.48886 0.0
C1376 C 0.68929 0.09741 0.51377 0.0
C1377 C 0.68656 0.09591 0.5344 0.0
C1378 C 0.79603 0.08003 0.51919 0.0
C1379 C 0.74144 0.08767 0.51642 0.0
C1380 C 0.82402 0.08141 0.51083 0.0
C1381 C 0.82756 0.08847 0.49078 0.0
C1382 C 0.77125 0.08584 0.50749 0.0
C1383 C 0.80219 0.09277 0.47934 0.0
C1384 C 0.71657 0.0933 0.50476 0.0
C1385 C 0.71176 0.08929 0.54551 0.0
N1386 N 0.77511 0.09165 0.4879 0.0
N1387 N 0.73816 0.08561 0.53639 0.0
H1388 H 0.67517 0.09495 0.27368 0.0
H1389 H 0.67646 0.92036 0.25859 0.0
H1390 H 0.67854 0.05306 0.21654 0.0
H1391 H 0.67295 0.9624 0.31568 0.0
H1392 H 0.68136 0.96862 0.2431 0.0
H1393 H 0.67852 0.04672 0.28933 0.0
C1394 C 0.67682 0.07561 0.26439 0.0
C1395 C 0.67634 0.07807 0.24373 0.0
C1396 C 0.67971 0.96733 0.25902 0.0
C1397 C 0.68006 0.02259 0.26165 0.0
C1398 C 0.67691 0.93974 0.26791 0.0
C1399 C 0.67406 0.93731 0.28849 0.0
C1400 C 0.67957 0.9928 0.27076 0.0
C1401 C 0.67497 0.96321 0.29977 0.0
C1402 C 0.67873 0.04803 0.27338 0.0
C1403 C 0.67874 0.05221 0.23251 0.0
N1404 N 0.67744 0.98988 0.29074 0.0
N1405 N 0.68027 0.02553 0.24161 0.0
H1406 H 0.71253 0.95251 0.97478 0.0
H1407 H 0.81195 0.86183 0.04772 0.0
H1408 H 0.67689 0.888 0.01508 0.0
H1409 H 0.83479 0.95177 0.03421 0.0
H1410 H 0.76349 0.86956 0.03309 0.0
H1411 H 0.75905 0.95162 0.99351 0.0
C1412 C 0.71441 0.93832 0.98757 0.0
C1413 C 0.69085 0.92016 0.9933 0.0
C1414 C 0.77888 0.88778 0.03355 0.0
C1415 C 0.74373 0.91889 0.0145 0.0
C1416 C 0.80648 0.88338 0.04191 0.0
C1417 C 0.82711 0.90629 0.0423 0.0
C1418 C 0.7721 0.91506 0.02496 0.0
C1419 C 0.81919 0.93373 0.03439 0.0
C1420 C 0.74082 0.93797 0.99828 0.0
C1421 C 0.69442 0.90233 1.01006 0.0
N1422 N 0.79234 0.93728 0.0257 0.0
N1423 N 0.72041 0.90188 0.01988 0.0
H1424 H 0.67823 0.4669 0.71266 0.0
H1425 H 0.67015 0.56452 0.81094 0.0
H1426 H 0.67353 0.43034 0.7714 0.0
H1427 H 0.67585 0.60085 0.75218 0.0
H1428 H 0.67704 0.5152 0.79704 0.0
H1429 H 0.68281 0.51614 0.72707 0.0
C1430 C 0.67847 0.46917 0.72857 0.0
C1431 C 0.67521 0.44446 0.74082 0.0
C1432 C 0.67709 0.53401 0.78722 0.0
C1433 C 0.68025 0.50076 0.75745 0.0
C1434 C 0.67327 0.56219 0.79517 0.0
C1435 C 0.67211 0.58684 0.7827 0.0
C1436 C 0.67969 0.53048 0.76666 0.0
C1437 C 0.67627 0.58248 0.76236 0.0
C1438 C 0.68104 0.4973 0.73681 0.0
C1439 C 0.67573 0.44876 0.76136 0.0
N1440 N 0.6796 0.55487 0.75497 0.0
N1441 N 0.67793 0.47634 0.76901 0.0
H1442 H 0.80637 0.42694 0.96698 0.0
H1443 H 0.71101 0.42015 0.06635 0.0
H1444 H 0.84407 0.42577 0.02546 0.0
H1445 H 0.67341 0.42025 1.00784 0.0
H1446 H 0.75973 0.42774 0.05177 0.0
H1447 H 0.75733 0.43025 0.98174 0.0
C1448 C 0.80439 0.42778 0.9829 0.0
C1449 C 0.82938 0.42579 0.99498 0.0
C1450 C 0.74077 0.42635 0.04214 0.0
C1451 C 0.77329 0.42928 1.01201 0.0
C1452 C 0.71293 0.42207 0.05047 0.0
C1453 C 0.68809 0.41928 0.03831 0.0
C1454 C 0.74381 0.4278 0.02149 0.0
C1455 C 0.69195 0.422 0.01781 0.0
C1456 C 0.77636 0.42956 0.99134 0.0
C1457 C 0.82543 0.42698 0.01554 0.0
N1458 N 0.71925 0.42588 1.01006 0.0
N1459 N 0.79796 0.42838 0.02339 0.0
H1460 H 0.83819 0.42327 0.25965 0.0
H1461 H 0.84463 0.59807 0.27343 0.0
H1462 H 0.84495 0.46587 0.31643 0.0
H1463 H 0.84221 0.55494 0.21667 0.0
H1464 H 0.83994 0.5502 0.2895 0.0
H1465 H 0.8346 0.4714 0.24393 0.0
C1466 C 0.83868 0.44275 0.26887 0.0
C1467 C 0.84212 0.44049 0.28942 0.0
C1468 C 0.84025 0.55119 0.27354 0.0
C1469 C 0.83817 0.49589 0.27139 0.0
C1470 C 0.84292 0.57855 0.26431 0.0
C1471 C 0.84404 0.58055 0.24362 0.0
C1472 C 0.83871 0.52552 0.26204 0.0
C1473 C 0.84158 0.55447 0.23263 0.0
C1474 C 0.83667 0.47028 0.25984 0.0
C1475 C 0.84242 0.46655 0.30055 0.0
N1476 N 0.83921 0.52803 0.24198 0.0
N1477 N 0.84071 0.49318 0.29137 0.0
H1478 H 0.71409 0.59931 0.46431 0.0
H1479 H 0.81132 0.59851 0.56288 0.0
H1480 H 0.67759 0.59448 0.52304 0.0
H1481 H 0.84779 0.60273 0.50413 0.0
H1482 H 0.76242 0.59134 0.54849 0.0
H1483 H 0.76345 0.59501 0.47847 0.0
C1484 C 0.71641 0.597 0.48014 0.0
C1485 C 0.69165 0.59755 0.4925 0.0
C1486 C 0.78118 0.59354 0.53875 0.0
C1487 C 0.74809 0.59285 0.50884 0.0
C1488 C 0.80912 0.59754 0.54698 0.0
C1489 C 0.83367 0.60153 0.53471 0.0
C1490 C 0.77774 0.5936 0.51811 0.0
C1491 C 0.82947 0.60005 0.51418 0.0
C1492 C 0.74461 0.59462 0.48824 0.0
C1493 C 0.69602 0.59444 0.51293 0.0
N1494 N 0.80206 0.59648 0.50655 0.0
N1495 N 0.72366 0.59248 0.52046 0.0
H1496 H 0.35856 0.52917 0.3345 0.0
H1497 H 0.34744 0.45856 0.22638 0.0
H1498 H 0.34773 0.58066 0.28141 0.0
H1499 H 0.35271 0.40751 0.28003 0.0
H1500 H 0.34448 0.50353 0.2463 0.0
H1501 H 0.3533 0.48426 0.31489 0.0
C1502 C 0.35482 0.53107 0.31876 0.0
C1503 C 0.35381 0.55877 0.30961 0.0
C1504 C 0.34607 0.48245 0.2537 0.0
C1505 C 0.348 0.50738 0.28699 0.0
C1506 C 0.34773 0.45677 0.24232 0.0
C1507 C 0.35054 0.42922 0.25152 0.0
C1508 C 0.34732 0.48055 0.27441 0.0
C1509 C 0.35077 0.42825 0.27226 0.0
C1510 C 0.35185 0.50539 0.30755 0.0
C1511 C 0.34882 0.55981 0.28913 0.0
N1512 N 0.34939 0.4535 0.28296 0.0
N1513 N 0.34634 0.53452 0.27851 0.0
H1514 H 0.30668 0.59029 0.96339 0.0
H1515 H 0.2113 0.59818 0.06283 0.0
H1516 H 0.3447 0.59411 0.02173 0.0
H1517 H 0.17376 0.59485 1.00435 0.0
H1518 H 0.26028 0.59191 0.04832 0.0
H1519 H 0.25774 0.58743 0.97832 0.0
C1520 C 0.30478 0.59029 0.97933 0.0
C1521 C 0.32986 0.59266 0.9913 0.0
C1522 C 0.24128 0.59229 0.03868 0.0
C1523 C 0.27385 0.58952 1.00853 0.0
C1524 C 0.2133 0.59576 0.04698 0.0
C1525 C 0.18837 0.59728 0.0348 0.0
C1526 C 0.24436 0.59037 0.01806 0.0
C1527 C 0.19233 0.59406 0.01434 0.0
C1528 C 0.27681 0.58869 0.98786 0.0
C1529 C 0.326 0.5925 1.01189 0.0
N1530 N 0.21974 0.59098 1.00663 0.0
N1531 N 0.29857 0.59117 0.01983 0.0
H1532 H 0.16939 0.46829 0.80357 0.0
H1533 H 0.16147 0.53971 0.69533 0.0
H1534 H 0.15366 0.41882 0.75019 0.0
H1535 H 0.17617 0.59059 0.74826 0.0
H1536 H 0.16178 0.49479 0.71519 0.0
H1537 H 0.17489 0.51308 0.78361 0.0
C1538 C 0.16723 0.46681 0.78769 0.0
C1539 C 0.1609 0.43977 0.77857 0.0
C1540 C 0.1651 0.51577 0.72246 0.0
C1541 C 0.16715 0.49084 0.75566 0.0
C1542 C 0.16499 0.54145 0.7111 0.0
C1543 C 0.16865 0.56902 0.72012 0.0
C1544 C 0.16883 0.51759 0.74304 0.0
C1545 C 0.17315 0.56984 0.74065 0.0
C1546 C 0.17035 0.49237 0.77629 0.0
C1547 C 0.15836 0.43916 0.75791 0.0
N1548 N 0.17295 0.54455 0.75142 0.0
N1549 N 0.1614 0.46426 0.7472 0.0
H1550 H 0.17261 0.43051 0.5244 0.0
H1551 H 0.34658 0.43122 0.50728 0.0
H1552 H 0.21313 0.43076 0.46679 0.0
H1553 H 0.30607 0.42793 0.56486 0.0
H1554 H 0.29804 0.43631 0.49236 0.0
H1555 H 0.22116 0.43487 0.53945 0.0
C1556 C 0.19171 0.43173 0.51488 0.0
C1557 C 0.18877 0.42999 0.49427 0.0
C1558 C 0.29973 0.43469 0.50826 0.0
C1559 C 0.24461 0.43486 0.51151 0.0
C1560 C 0.32748 0.4318 0.51683 0.0
C1561 C 0.33043 0.4289 0.53738 0.0
C1562 C 0.27459 0.4346 0.52029 0.0
C1563 C 0.30486 0.42999 0.54896 0.0
C1564 C 0.21947 0.4342 0.52352 0.0
C1565 C 0.21433 0.43189 0.48273 0.0
N1566 N 0.27801 0.43253 0.54024 0.0
N1567 N 0.24119 0.43398 0.49151 0.0
loop_
_geom_bond_atom_site_label_1
_geom_bond_atom_site_label_2
_geom_bond_distance
_geom_bond_site_symmetry_2
_ccdc_geom_bond_type
Mg0 O7 2.141 . S
Mg0 O8 2.048 . S
Mg0 O9 2.048 . S
Mg0 O12 2.141 . S
C1 O2 1.313 . S
C1 O8 1.195 . S
O2 C1 1.313 . S
C3 O4 1.245 . S
C3 O12 1.289 . S
O4 C3 1.245 . S
C5 O6 1.245 . S
C5 O7 1.289 . S
O6 C5 1.245 . S
O7 Mg0 2.141 . S
O7 C5 1.289 . S
O8 Mg0 2.048 . S
O8 C1 1.195 . S
O9 Mg0 2.048 . S
O9 C10 1.195 . S
C10 O9 1.195 . S
C10 O11 1.313 . S
O11 C10 1.313 . S
O12 Mg0 2.141 . S
O12 C3 1.289 . S
Mg13 O20 2.141 . S
Mg13 O21 2.048 . S
Mg13 O22 2.048 . S
Mg13 O25 2.141 . S
C14 O15 1.313 . S
C14 O21 1.195 . S
O15 C14 1.313 . S
C16 O17 1.245 . S
C16 O25 1.289 . S
O17 C16 1.245 . S
C18 O19 1.245 . S
C18 O20 1.289 . S
O19 C18 1.245 . S
O20 Mg13 2.141 . S
O20 C18 1.289 . S
O21 Mg13 2.048 . S
O21 C14 1.195 . S
O22 Mg13 2.048 . S
O22 C23 1.195 . S
C23 O22 1.195 . S
C23 O24 1.313 . S
O24 C23 1.313 . S
O25 Mg13 2.141 . S
O25 C16 1.289 . S
Mg26 O33 2.141 . S
Mg26 O34 2.048 . S
Mg26 O35 2.048 . S
Mg26 O38 2.141 . S
C27 O28 1.313 . S
C27 O34 1.195 . S
O28 C27 1.313 . S
C29 O30 1.245 . S
C29 O38 1.289 . S
O30 C29 1.245 . S
C31 O32 1.245 . S
C31 O33 1.289 . S
O32 C31 1.245 . S
O33 Mg26 2.141 . S
O33 C31 1.289 . S
O34 Mg26 2.048 . S
O34 C27 1.195 . S
O35 Mg26 2.048 . S
O35 C36 1.195 . S
C36 O35 1.195 . S
C36 O37 1.313 . S
O37 C36 1.313 . S
O38 Mg26 2.141 . S
O38 C29 1.289 . S
Mg39 O46 2.141 . S
Mg39 O47 2.048 . S
Mg39 O48 2.048 . S
Mg39 O51 2.141 . S
C40 O41 1.313 . S
C40 O47 1.195 . S
O41 C40 1.313 . S
C42 O43 1.245 . S
C42 O51 1.289 . S
O43 C42 1.245 . S
C44 O45 1.245 . S
C44 O46 1.289 . S
O45 C44 1.245 . S
O46 Mg39 2.141 . S
O46 C44 1.289 . S
O47 Mg39 2.048 . S
O47 C40 1.195 . S
O48 Mg39 2.048 . S
O48 C49 1.195 . S
C49 O48 1.195 . S
C49 O50 1.313 . S
O50 C49 1.313 . S
O51 Mg39 2.141 . S
O51 C42 1.289 . S
Mg52 O59 2.141 . S
Mg52 O60 2.048 . S
Mg52 O61 2.048 . S
Mg52 O64 2.141 . S
C53 O54 1.313 . S
C53 O60 1.195 . S
O54 C53 1.313 . S
C55 O56 1.245 . S
C55 O64 1.289 . S
O56 C55 1.245 . S
C57 O58 1.245 . S
C57 O59 1.289 . S
O58 C57 1.245 . S
O59 Mg52 2.141 . S
O59 C57 1.289 . S
O60 Mg52 2.048 . S
O60 C53 1.195 . S
O61 Mg52 2.048 . S
O61 C62 1.195 . S
C62 O61 1.195 . S
C62 O63 1.313 . S
O63 C62 1.313 . S
O64 Mg52 2.141 . S
O64 C55 1.289 . S
Mg65 O72 2.141 . S
Mg65 O73 2.048 . S
Mg65 O74 2.048 . S
Mg65 O77 2.141 . S
C66 O67 1.313 . S
C66 O73 1.195 . S
O67 C66 1.313 . S
C68 O69 1.245 . S
C68 O77 1.289 . S
O69 C68 1.245 . S
C70 O71 1.245 . S
C70 O72 1.289 . S
O71 C70 1.245 . S
O72 Mg65 2.141 . S
O72 C70 1.289 . S
O73 Mg65 2.048 . S
O73 C66 1.195 . S
O74 Mg65 2.048 . S
O74 C75 1.195 . S
C75 O74 1.195 . S
C75 O76 1.313 . S
O76 C75 1.313 . S
O77 Mg65 2.141 . S
O77 C68 1.289 . S
Mg78 O85 2.141 . S
Mg78 O86 2.048 . S
Mg78 O87 2.048 . S
Mg78 O90 2.141 . S
C79 O80 1.313 . S
C79 O86 1.195 . S
O80 C79 1.313 . S
C81 O82 1.245 . S
C81 O90 1.289 . S
O82 C81 1.245 . S
C83 O84 1.245 . S
C83 O85 1.289 . S
O84 C83 1.245 . S
O85 Mg78 2.141 . S
O85 C83 1.289 . S
O86 Mg78 2.048 . S
O86 C79 1.195 . S
O87 Mg78 2.048 . S
O87 C88 1.195 . S
C88 O87 1.195 . S
C88 O89 1.313 . S
O89 C88 1.313 . S
O90 Mg78 2.141 . S
O90 C81 1.289 . S
Mg91 O98 2.141 . S
Mg91 O99 2.048 . S
Mg91 O100 2.048 . S
Mg91 O103 2.141 . S
C92 O93 1.313 . S
C92 O99 1.195 . S
O93 C92 1.313 . S
C94 O95 1.245 . S
C94 O103 1.289 . S
O95 C94 1.245 . S
C96 O97 1.245 . S
C96 O98 1.289 . S
O97 C96 1.245 . S
O98 Mg91 2.141 . S
O98 C96 1.289 . S
O99 Mg91 2.048 . S
O99 C92 1.195 . S
O100 Mg91 2.048 . S
O100 C101 1.195 . S
C101 O100 1.195 . S
C101 O102 1.313 . S
O102 C101 1.313 . S
O103 Mg91 2.141 . S
O103 C94 1.289 . S
Mg104 O111 2.141 . S
Mg104 O112 2.048 . S
Mg104 O113 2.048 . S
Mg104 O116 2.141 . S
C105 O106 1.313 . S
C105 O112 1.195 . S
O106 C105 1.313 . S
C107 O108 1.245 . S
C107 O116 1.289 . S
O108 C107 1.245 . S
C109 O110 1.245 . S
C109 O111 1.289 . S
O110 C109 1.245 . S
O111 Mg104 2.141 . S
O111 C109 1.289 . S
O112 Mg104 2.048 . S
O112 C105 1.195 . S
O113 Mg104 2.048 . S
O113 C114 1.195 . S
C114 O113 1.195 . S
C114 O115 1.313 . S
O115 C114 1.313 . S
O116 Mg104 2.141 . S
O116 C107 1.289 . S
Mg117 O124 2.141 . S
Mg117 O125 2.048 . S
Mg117 O126 2.048 . S
Mg117 O129 2.141 . S
C118 O119 1.313 . S
C118 O125 1.195 . S
O119 C118 1.313 . S
C120 O121 1.245 . S
C120 O129 1.289 . S
O121 C120 1.245 . S
C122 O123 1.245 . S
C122 O124 1.289 . S
O123 C122 1.245 . S
O124 Mg117 2.141 . S
O124 C122 1.289 . S
O125 Mg117 2.048 . S
O125 C118 1.195 . S
O126 Mg117 2.048 . S
O126 C127 1.195 . S
C127 O126 1.195 . S
C127 O128 1.313 . S
O128 C127 1.313 . S
O129 Mg117 2.141 . S
O129 C120 1.289 . S
Mg130 O137 2.141 . S
Mg130 O138 2.048 . S
Mg130 O139 2.048 . S
Mg130 O142 2.141 . S
C131 O132 1.313 . S
C131 O138 1.195 . S
O132 C131 1.313 . S
C133 O134 1.245 . S
C133 O142 1.289 . S
O134 C133 1.245 . S
C135 O136 1.245 . S
C135 O137 1.289 . S
O136 C135 1.245 . S
O137 Mg130 2.141 . S
O137 C135 1.289 . S
O138 Mg130 2.048 . S
O138 C131 1.195 . S
O139 Mg130 2.048 . S
O139 C140 1.195 . S
C140 O139 1.195 . S
C140 O141 1.313 . S
O141 C140 1.313 . S
O142 Mg130 2.141 . S
O142 C133 1.289 . S
Mg143 O150 2.141 . S
Mg143 O151 2.048 . S
Mg143 O152 2.048 . S
Mg143 O155 2.141 . S
C144 O145 1.313 . S
C144 O151 1.195 . S
O145 C144 1.313 . S
C146 O147 1.245 . S
C146 O155 1.289 . S
O147 C146 1.245 . S
C148 O149 1.245 . S
C148 O150 1.289 . S
O149 C148 1.245 . S
O150 Mg143 2.141 . S
O150 C148 1.289 . S
O151 Mg143 2.048 . S
O151 C144 1.195 . S
O152 Mg143 2.048 . S
O152 C153 1.195 . S
C153 O152 1.195 . S
C153 O154 1.313 . S
O154 C153 1.313 . S
O155 Mg143 2.141 . S
O155 C146 1.289 . S
Mg156 O163 2.141 . S
Mg156 O164 2.048 . S
Mg156 O165 2.048 . S
Mg156 O168 2.141 . S
C157 O158 1.313 . S
C157 O164 1.195 . S
O158 C157 1.313 . S
C159 O160 1.245 . S
C159 O168 1.289 . S
O160 C159 1.245 . S
C161 O162 1.245 . S
C161 O163 1.289 . S
O162 C161 1.245 . S
O163 Mg156 2.141 . S
O163 C161 1.289 . S
O164 Mg156 2.048 . S
O164 C157 1.195 . S
O165 Mg156 2.048 . S
O165 C166 1.195 . S
C166 O165 1.195 . S
C166 O167 1.313 . S
O167 C166 1.313 . S
O168 Mg156 2.141 . S
O168 C159 1.289 . S
Mg169 O176 2.141 . S
Mg169 O177 2.048 . S
Mg169 O178 2.048 . S
Mg169 O181 2.141 . S
C170 O171 1.313 . S
C170 O177 1.195 . S
O171 C170 1.313 . S
C172 O173 1.245 . S
C172 O181 1.289 . S
O173 C172 1.245 . S
C174 O175 1.245 . S
C174 O176 1.289 . S
O175 C174 1.245 . S
O176 Mg169 2.141 . S
O176 C174 1.289 . S
O177 Mg169 2.048 . S
O177 C170 1.195 . S
O178 Mg169 2.048 . S
O178 C179 1.195 . S
C179 O178 1.195 . S
C179 O180 1.313 . S
O180 C179 1.313 . S
O181 Mg169 2.141 . S
O181 C172 1.289 . S
Mg182 O189 2.141 . S
Mg182 O190 2.048 . S
Mg182 O191 2.048 . S
Mg182 O194 2.141 . S
C183 O184 1.313 . S
C183 O190 1.195 . S
O184 C183 1.313 . S
C185 O186 1.245 . S
C185 O194 1.289 . S
O186 C185 1.245 . S
C187 O188 1.245 . S
C187 O189 1.289 . S
O188 C187 1.245 . S
O189 Mg182 2.141 . S
O189 C187 1.289 . S
O190 Mg182 2.048 . S
O190 C183 1.195 . S
O191 Mg182 2.048 . S
O191 C192 1.195 . S
C192 O191 1.195 . S
C192 O193 1.313 . S
O193 C192 1.313 . S
O194 Mg182 2.141 . S
O194 C185 1.289 . S
Mg195 O202 2.141 . S
Mg195 O203 2.048 . S
Mg195 O204 2.048 . S
Mg195 O207 2.141 . S
C196 O197 1.313 . S
C196 O203 1.195 . S
O197 C196 1.313 . S
C198 O199 1.245 . S
C198 O207 1.289 . S
O199 C198 1.245 . S
C200 O201 1.245 . S
C200 O202 1.289 . S
O201 C200 1.245 . S
O202 Mg195 2.141 . S
O202 C200 1.289 . S
O203 Mg195 2.048 . S
O203 C196 1.195 . S
O204 Mg195 2.048 . S
O204 C205 1.195 . S
C205 O204 1.195 . S
C205 O206 1.313 . S
O206 C205 1.313 . S
O207 Mg195 2.141 . S
O207 C198 1.289 . S
Mg208 O215 2.141 . S
Mg208 O216 2.048 . S
Mg208 O217 2.048 . S
Mg208 O220 2.141 . S
C209 O210 1.313 . S
C209 O216 1.195 . S
O210 C209 1.313 . S
C211 O212 1.245 . S
C211 O220 1.289 . S
O212 C211 1.245 . S
C213 O214 1.245 . S
C213 O215 1.289 . S
O214 C213 1.245 . S
O215 Mg208 2.141 . S
O215 C213 1.289 . S
O216 Mg208 2.048 . S
O216 C209 1.195 . S
O217 Mg208 2.048 . S
O217 C218 1.195 . S
C218 O217 1.195 . S
C218 O219 1.313 . S
O219 C218 1.313 . S
O220 Mg208 2.141 . S
O220 C211 1.289 . S
Mg221 O228 2.141 . S
Mg221 O229 2.048 . S
Mg221 O230 2.048 . S
Mg221 O233 2.141 . S
C222 O223 1.313 . S
C222 O229 1.195 . S
O223 C222 1.313 . S
C224 O225 1.245 . S
C224 O233 1.289 . S
O225 C224 1.245 . S
C226 O227 1.245 . S
C226 O228 1.289 . S
O227 C226 1.245 . S
O228 Mg221 2.141 . S
O228 C226 1.289 . S
O229 Mg221 2.048 . S
O229 C222 1.195 . S
O230 Mg221 2.048 . S
O230 C231 1.195 . S
C231 O230 1.195 . S
C231 O232 1.313 . S
O232 C231 1.313 . S
O233 Mg221 2.141 . S
O233 C224 1.289 . S
Mg234 O241 2.141 . S
Mg234 O242 2.048 . S
Mg234 O243 2.048 . S
Mg234 O246 2.141 . S
C235 O236 1.313 . S
C235 O242 1.195 . S
O236 C235 1.313 . S
C237 O238 1.245 . S
C237 O246 1.289 . S
O238 C237 1.245 . S
C239 O240 1.245 . S
C239 O241 1.289 . S
O240 C239 1.245 . S
O241 Mg234 2.141 . S
O241 C239 1.289 . S
O242 Mg234 2.048 . S
O242 C235 1.195 . S
O243 Mg234 2.048 . S
O243 C244 1.195 . S
C244 O243 1.195 . S
C244 O245 1.313 . S
O245 C244 1.313 . S
O246 Mg234 2.141 . S
O246 C237 1.289 . S
Mg247 O254 2.141 . S
Mg247 O255 2.048 . S
Mg247 O256 2.048 . S
Mg247 O259 2.141 . S
C248 O249 1.313 . S
C248 O255 1.195 . S
O249 C248 1.313 . S
C250 O251 1.245 . S
C250 O259 1.289 . S
O251 C250 1.245 . S
C252 O253 1.245 . S
C252 O254 1.289 . S
O253 C252 1.245 . S
O254 Mg247 2.141 . S
O254 C252 1.289 . S
O255 Mg247 2.048 . S
O255 C248 1.195 . S
O256 Mg247 2.048 . S
O256 C257 1.195 . S
C257 O256 1.195 . S
C257 O258 1.313 . S
O258 C257 1.313 . S
O259 Mg247 2.141 . S
O259 C250 1.289 . S
Mg260 O267 2.141 . S
Mg260 O268 2.048 . S
Mg260 O269 2.048 . S
Mg260 O272 2.141 . S
C261 O262 1.313 . S
C261 O268 1.195 . S
O262 C261 1.313 . S
C263 O264 1.245 . S
C263 O272 1.289 . S
O264 C263 1.245 . S
C265 O266 1.245 . S
C265 O267 1.289 . S
O266 C265 1.245 . S
O267 Mg260 2.141 . S
O267 C265 1.289 . S
O268 Mg260 2.048 . S
O268 C261 1.195 . S
O269 Mg260 2.048 . S
O269 C270 1.195 . S
C270 O269 1.195 . S
C270 O271 1.313 . S
O271 C270 1.313 . S
O272 Mg260 2.141 . S
O272 C263 1.289 . S
Mg273 O280 2.141 . S
Mg273 O281 2.048 . S
Mg273 O282 2.048 . S
Mg273 O285 2.141 . S
C274 O275 1.313 . S
C274 O281 1.195 . S
O275 C274 1.313 . S
C276 O277 1.245 . S
C276 O285 1.289 . S
O277 C276 1.245 . S
C278 O279 1.245 . S
C278 O280 1.289 . S
O279 C278 1.245 . S
O280 Mg273 2.141 . S
O280 C278 1.289 . S
O281 Mg273 2.048 . S
O281 C274 1.195 . S
O282 Mg273 2.048 . S
O282 C283 1.195 . S
C283 O282 1.195 . S
C283 O284 1.313 . S
O284 C283 1.313 . S
O285 Mg273 2.141 . S
O285 C276 1.289 . S
Mg286 O293 2.141 . S
Mg286 O294 2.048 . S
Mg286 O295 2.048 . S
Mg286 O298 2.141 . S
C287 O288 1.313 . S
C287 O294 1.195 . S
O288 C287 1.313 . S
C289 O290 1.245 . S
C289 O298 1.289 . S
O290 C289 1.245 . S
C291 O292 1.245 . S
C291 O293 1.289 . S
O292 C291 1.245 . S
O293 Mg286 2.141 . S
O293 C291 1.289 . S
O294 Mg286 2.048 . S
O294 C287 1.195 . S
O295 Mg286 2.048 . S
O295 C296 1.195 . S
C296 O295 1.195 . S
C296 O297 1.313 . S
O297 C296 1.313 . S
O298 Mg286 2.141 . S
O298 C289 1.289 . S
Mg299 O306 2.141 . S
Mg299 O307 2.048 . S
Mg299 O308 2.048 . S
Mg299 O311 2.141 . S
C300 O301 1.313 . S
C300 O307 1.195 . S
O301 C300 1.313 . S
C302 O303 1.245 . S
C302 O311 1.289 . S
O303 C302 1.245 . S
C304 O305 1.245 . S
C304 O306 1.289 . S
O305 C304 1.245 . S
O306 Mg299 2.141 . S
O306 C304 1.289 . S
O307 Mg299 2.048 . S
O307 C300 1.195 . S
O308 Mg299 2.048 . S
O308 C309 1.195 . S
C309 O308 1.195 . S
C309 O310 1.313 . S
O310 C309 1.313 . S
O311 Mg299 2.141 . S
O311 C302 1.289 . S
Mg312 O319 2.141 . S
Mg312 O320 2.048 . S
Mg312 O321 2.048 . S
Mg312 O324 2.141 . S
C313 O314 1.313 . S
C313 O320 1.195 . S
O314 C313 1.313 . S
C315 O316 1.245 . S
C315 O324 1.289 . S
O316 C315 1.245 . S
C317 O318 1.245 . S
C317 O319 1.289 . S
O318 C317 1.245 . S
O319 Mg312 2.141 . S
O319 C317 1.289 . S
O320 Mg312 2.048 . S
O320 C313 1.195 . S
O321 Mg312 2.048 . S
O321 C322 1.195 . S
C322 O321 1.195 . S
C322 O323 1.313 . S
O323 C322 1.313 . S
O324 Mg312 2.141 . S
O324 C315 1.289 . S
Mg325 O332 2.141 . S
Mg325 O333 2.048 . S
Mg325 O334 2.048 . S
Mg325 O337 2.141 . S
C326 O327 1.313 . S
C326 O333 1.195 . S
O327 C326 1.313 . S
C328 O329 1.245 . S
C328 O337 1.289 . S
O329 C328 1.245 . S
C330 O331 1.245 . S
C330 O332 1.289 . S
O331 C330 1.245 . S
O332 Mg325 2.141 . S
O332 C330 1.289 . S
O333 Mg325 2.048 . S
O333 C326 1.195 . S
O334 Mg325 2.048 . S
O334 C335 1.195 . S
C335 O334 1.195 . S
C335 O336 1.313 . S
O336 C335 1.313 . S
O337 Mg325 2.141 . S
O337 C328 1.289 . S
Mg338 O345 2.141 . S
Mg338 O346 2.048 . S
Mg338 O347 2.048 . S
Mg338 O350 2.141 . S
C339 O340 1.313 . S
C339 O346 1.195 . S
O340 C339 1.313 . S
C341 O342 1.245 . S
C341 O350 1.289 . S
O342 C341 1.245 . S
C343 O344 1.245 . S
C343 O345 1.289 . S
O344 C343 1.245 . S
O345 Mg338 2.141 . S
O345 C343 1.289 . S
O346 Mg338 2.048 . S
O346 C339 1.195 . S
O347 Mg338 2.048 . S
O347 C348 1.195 . S
C348 O347 1.195 . S
C348 O349 1.313 . S
O349 C348 1.313 . S
O350 Mg338 2.141 . S
O350 C341 1.289 . S
Mg351 O358 2.141 . S
Mg351 O359 2.048 . S
Mg351 O360 2.048 . S
Mg351 O363 2.141 . S
C352 O353 1.313 . S
C352 O359 1.195 . S
O353 C352 1.313 . S
C354 O355 1.245 . S
C354 O363 1.289 . S
O355 C354 1.245 . S
C356 O357 1.245 . S
C356 O358 1.289 . S
O357 C356 1.245 . S
O358 Mg351 2.141 . S
O358 C356 1.289 . S
O359 Mg351 2.048 . S
O359 C352 1.195 . S
O360 Mg351 2.048 . S
O360 C361 1.195 . S
C361 O360 1.195 . S
C361 O362 1.313 . S
O362 C361 1.313 . S
O363 Mg351 2.141 . S
O363 C354 1.289 . S
Mg364 O371 2.141 . S
Mg364 O372 2.048 . S
Mg364 O373 2.048 . S
Mg364 O376 2.141 . S
C365 O366 1.313 . S
C365 O372 1.195 . S
O366 C365 1.313 . S
C367 O368 1.245 . S
C367 O376 1.289 . S
O368 C367 1.245 . S
C369 O370 1.245 . S
C369 O371 1.289 . S
O370 C369 1.245 . S
O371 Mg364 2.141 . S
O371 C369 1.289 . S
O372 Mg364 2.048 . S
O372 C365 1.195 . S
O373 Mg364 2.048 . S
O373 C374 1.195 . S
C374 O373 1.195 . S
C374 O375 1.313 . S
O375 C374 1.313 . S
O376 Mg364 2.141 . S
O376 C367 1.289 . S
Mg377 O384 2.141 . S
Mg377 O385 2.048 . S
Mg377 O386 2.048 . S
Mg377 O389 2.141 . S
C378 O379 1.313 . S
C378 O385 1.195 . S
O379 C378 1.313 . S
C380 O381 1.245 . S
C380 O389 1.289 . S
O381 C380 1.245 . S
C382 O383 1.245 . S
C382 O384 1.289 . S
O383 C382 1.245 . S
O384 Mg377 2.141 . S
O384 C382 1.289 . S
O385 Mg377 2.048 . S
O385 C378 1.195 . S
O386 Mg377 2.048 . S
O386 C387 1.195 . S
C387 O386 1.195 . S
C387 O388 1.313 . S
O388 C387 1.313 . S
O389 Mg377 2.141 . S
O389 C380 1.289 . S
Mg390 O397 2.141 . S
Mg390 O398 2.048 . S
Mg390 O399 2.048 . S
Mg390 O402 2.141 . S
C391 O392 1.313 . S
C391 O398 1.195 . S
O392 C391 1.313 . S
C393 O394 1.245 . S
C393 O402 1.289 . S
O394 C393 1.245 . S
C395 O396 1.245 . S
C395 O397 1.289 . S
O396 C395 1.245 . S
O397 Mg390 2.141 . S
O397 C395 1.289 . S
O398 Mg390 2.048 . S
O398 C391 1.195 . S
O399 Mg390 2.048 . S
O399 C400 1.195 . S
C400 O399 1.195 . S
C400 O401 1.313 . S
O401 C400 1.313 . S
O402 Mg390 2.141 . S
O402 C393 1.289 . S
Mg403 O410 2.141 . S
Mg403 O411 2.048 . S
Mg403 O412 2.048 . S
Mg403 O415 2.141 . S
C404 O405 1.313 . S
C404 O411 1.195 . S
O405 C404 1.313 . S
C406 O407 1.245 . S
C406 O415 1.289 . S
O407 C406 1.245 . S
C408 O409 1.245 . S
C408 O410 1.289 . S
O409 C408 1.245 . S
O410 Mg403 2.141 . S
O410 C408 1.289 . S
O411 Mg403 2.048 . S
O411 C404 1.195 . S
O412 Mg403 2.048 . S
O412 C413 1.195 . S
C413 O412 1.195 . S
C413 O414 1.313 . S
O414 C413 1.313 . S
O415 Mg403 2.141 . S
O415 C406 1.289 . S
H416 C422 0.930 . S
H417 C426 0.930 . S
H418 C431 0.929 . S
H419 C429 0.929 . S
H420 C424 0.929 . S
H421 C430 0.929 . S
C422 H416 0.930 . S
C422 C423 1.367 . S
C422 C430 1.378 . S
C423 C422 1.367 . S
C423 C431 1.433 . S
C424 H420 0.929 . S
C424 C426 1.378 . S
C424 C428 1.350 . S
C425 C428 1.463 . S
C425 C430 1.350 . S
C425 N433 1.427 . S
C426 H417 0.930 . S
C426 C424 1.378 . S
C426 C427 1.367 . S
C427 C426 1.367 . S
C427 C429 1.433 . S
C428 C424 1.350 . S
C428 C425 1.463 . S
C428 N432 1.427 . S
C429 H419 0.929 . S
C429 C427 1.433 . S
C429 N432 1.384 . S
C430 H421 0.929 . S
C430 C422 1.378 . S
C430 C425 1.350 . S
C431 H418 0.929 . S
C431 C423 1.433 . S
C431 N433 1.384 . S
N432 C428 1.427 . S
N432 C429 1.384 . S
N433 C425 1.427 . S
N433 C431 1.384 . S
H434 C440 0.930 . S
H435 C444 0.930 . S
H436 C449 0.929 . S
H437 C447 0.929 . S
H438 C442 0.929 . S
H439 C448 0.929 . S
C440 H434 0.930 . S
C440 C441 1.367 . S
C440 C448 1.378 1_455 S
C441 C440 1.367 . S
C441 C449 1.433 . S
C442 H438 0.929 . S
C442 C444 1.378 . S
C442 C446 1.350 . S
C443 C446 1.463 . S
C443 C448 1.350 . S
C443 N451 1.427 . S
C444 H435 0.930 . S
C444 C442 1.378 . S
C444 C445 1.367 . S
C445 C444 1.367 . S
C445 C447 1.433 . S
C446 C442 1.350 . S
C446 C443 1.463 . S
C446 N450 1.427 . S
C447 H437 0.929 . S
C447 C445 1.433 . S
C447 N450 1.384 . S
C448 H439 0.929 . S
C448 C440 1.378 1_655 S
C448 C443 1.350 . S
C449 H436 0.929 . S
C449 C441 1.433 . S
C449 N451 1.384 1_455 S
N450 C446 1.427 . S
N450 C447 1.384 . S
N451 C443 1.427 . S
N451 C449 1.384 1_655 S
H452 C458 0.930 . S
H453 C462 0.930 . S
H454 C467 0.929 . S
H455 C465 0.929 . S
H456 C460 0.929 . S
H457 C466 0.929 . S
C458 H452 0.930 . S
C458 C459 1.367 . S
C458 C466 1.378 . S
C459 C458 1.367 . S
C459 C467 1.433 . S
C460 H456 0.929 . S
C460 C462 1.378 . S
C460 C464 1.350 . S
C461 C464 1.463 . S
C461 C466 1.350 . S
C461 N469 1.427 . S
C462 H453 0.930 . S
C462 C460 1.378 . S
C462 C463 1.367 . S
C463 C462 1.367 . S
C463 C465 1.433 . S
C464 C460 1.350 . S
C464 C461 1.463 . S
C464 N468 1.427 . S
C465 H455 0.929 . S
C465 C463 1.433 . S
C465 N468 1.384 . S
C466 H457 0.929 . S
C466 C458 1.378 . S
C466 C461 1.350 . S
C467 H454 0.929 . S
C467 C459 1.433 . S
C467 N469 1.384 . S
N468 C464 1.427 . S
N468 C465 1.384 . S
N469 C461 1.427 . S
N469 C467 1.384 . S
H470 C476 0.930 . S
H471 C480 0.930 . S
H472 C485 0.929 . S
H473 C483 0.929 . S
H474 C478 0.929 . S
H475 C484 0.929 . S
C476 H470 0.930 . S
C476 C477 1.367 . S
C476 C484 1.378 . S
C477 C476 1.367 . S
C477 C485 1.433 . S
C478 H474 0.929 . S
C478 C480 1.378 . S
C478 C482 1.350 . S
C479 C482 1.463 . S
C479 C484 1.350 . S
C479 N487 1.427 . S
C480 H471 0.930 . S
C480 C478 1.378 . S
C480 C481 1.367 . S
C481 C480 1.367 . S
C481 C483 1.433 . S
C482 C478 1.350 . S
C482 C479 1.463 . S
C482 N486 1.427 . S
C483 H473 0.929 . S
C483 C481 1.433 . S
C483 N486 1.384 . S
C484 H475 0.929 . S
C484 C476 1.378 . S
C484 C479 1.350 . S
C485 H472 0.929 . S
C485 C477 1.433 . S
C485 N487 1.384 . S
N486 C482 1.427 . S
N486 C483 1.384 . S
N487 C479 1.427 . S
N487 C485 1.384 . S
H488 C494 0.930 . S
H489 C498 0.930 . S
H490 C503 0.929 . S
H491 C501 0.929 . S
H492 C496 0.929 . S
H493 C502 0.929 . S
C494 H488 0.930 . S
C494 C495 1.367 . S
C494 C502 1.378 . S
C495 C494 1.367 . S
C495 C503 1.433 . S
C496 H492 0.929 . S
C496 C498 1.378 . S
C496 C500 1.350 . S
C497 C500 1.463 . S
C497 C502 1.350 . S
C497 N505 1.427 . S
C498 H489 0.930 . S
C498 C496 1.378 . S
C498 C499 1.367 . S
C499 C498 1.367 . S
C499 C501 1.433 . S
C500 C496 1.350 . S
C500 C497 1.463 . S
C500 N504 1.427 . S
C501 H491 0.929 . S
C501 C499 1.433 . S
C501 N504 1.384 . S
C502 H493 0.929 . S
C502 C494 1.378 . S
C502 C497 1.350 . S
C503 H490 0.929 . S
C503 C495 1.433 . S
C503 N505 1.384 . S
N504 C500 1.427 . S
N504 C501 1.384 . S
N505 C497 1.427 . S
N505 C503 1.384 . S
H506 C512 0.930 . S
H507 C516 0.930 . S
H508 C521 0.929 . S
H509 C519 0.929 . S
H510 C514 0.929 . S
H511 C520 0.929 . S
C512 H506 0.930 . S
C512 C513 1.367 . S
C512 C520 1.378 . S
C513 C512 1.367 . S
C513 C521 1.433 . S
C514 H510 0.929 . S
C514 C516 1.378 . S
C514 C518 1.350 . S
C515 C518 1.463 . S
C515 C520 1.350 . S
C515 N523 1.427 . S
C516 H507 0.930 . S
C516 C514 1.378 . S
C516 C517 1.367 . S
C517 C516 1.367 . S
C517 C519 1.433 . S
C518 C514 1.350 . S
C518 C515 1.463 . S
C518 N522 1.427 . S
C519 H509 0.929 . S
C519 C517 1.433 . S
C519 N522 1.384 . S
C520 H511 0.929 . S
C520 C512 1.378 . S
C520 C515 1.350 . S
C521 H508 0.929 . S
C521 C513 1.433 . S
C521 N523 1.384 . S
N522 C518 1.427 . S
N522 C519 1.384 . S
N523 C515 1.427 . S
N523 C521 1.384 . S
H524 C530 0.930 . S
H525 C534 0.930 . S
H526 C539 0.929 . S
H527 C537 0.929 . S
H528 C532 0.929 . S
H529 C538 0.929 . S
C530 H524 0.930 . S
C530 C531 1.367 . S
C530 C538 1.378 . S
C531 C530 1.367 . S
C531 C539 1.433 . S
C532 H528 0.929 . S
C532 C534 1.378 . S
C532 C536 1.350 . S
C533 C536 1.463 . S
C533 C538 1.350 . S
C533 N541 1.427 . S
C534 H525 0.930 . S
C534 C532 1.378 . S
C534 C535 1.367 . S
C535 C534 1.367 . S
C535 C537 1.433 . S
C536 C532 1.350 . S
C536 C533 1.463 . S
C536 N540 1.427 . S
C537 H527 0.929 . S
C537 C535 1.433 . S
C537 N540 1.384 . S
C538 H529 0.929 . S
C538 C530 1.378 . S
C538 C533 1.350 . S
C539 H526 0.929 . S
C539 C531 1.433 . S
C539 N541 1.384 . S
N540 C536 1.427 . S
N540 C537 1.384 . S
N541 C533 1.427 . S
N541 C539 1.384 . S
H542 C548 0.930 . S
H543 C552 0.930 . S
H544 C557 0.929 . S
H545 C555 0.929 . S
H546 C550 0.929 . S
H547 C556 0.929 . S
C548 H542 0.930 . S
C548 C549 1.367 . S
C548 C556 1.378 1_455 S
C549 C548 1.367 . S
C549 C557 1.433 . S
C550 H546 0.929 . S
C550 C552 1.378 . S
C550 C554 1.350 . S
C551 C554 1.463 . S
C551 C556 1.350 . S
C551 N559 1.427 . S
C552 H543 0.930 . S
C552 C550 1.378 . S
C552 C553 1.367 . S
C553 C552 1.367 . S
C553 C555 1.433 . S
C554 C550 1.350 . S
C554 C551 1.463 . S
C554 N558 1.427 . S
C555 H545 0.929 . S
C555 C553 1.433 . S
C555 N558 1.384 . S
C556 H547 0.929 . S
C556 C548 1.378 1_655 S
C556 C551 1.350 . S
C557 H544 0.929 . S
C557 C549 1.433 . S
C557 N559 1.384 1_455 S
N558 C554 1.427 . S
N558 C555 1.384 . S
N559 C551 1.427 . S
N559 C557 1.384 1_655 S
H560 C566 0.930 . S
H561 C570 0.930 . S
H562 C575 0.929 . S
H563 C573 0.929 . S
H564 C568 0.929 . S
H565 C574 0.929 . S
C566 H560 0.930 . S
C566 C567 1.367 . S
C566 C574 1.378 . S
C567 C566 1.367 . S
C567 C575 1.433 . S
C568 H564 0.929 . S
C568 C570 1.378 . S
C568 C572 1.350 . S
C569 C572 1.463 . S
C569 C574 1.350 . S
C569 N577 1.427 . S
C570 H561 0.930 . S
C570 C568 1.378 . S
C570 C571 1.367 . S
C571 C570 1.367 . S
C571 C573 1.433 . S
C572 C568 1.350 . S
C572 C569 1.463 . S
C572 N576 1.427 . S
C573 H563 0.929 . S
C573 C571 1.433 . S
C573 N576 1.384 . S
C574 H565 0.929 . S
C574 C566 1.378 . S
C574 C569 1.350 . S
C575 H562 0.929 . S
C575 C567 1.433 . S
C575 N577 1.384 . S
N576 C572 1.427 . S
N576 C573 1.384 . S
N577 C569 1.427 . S
N577 C575 1.384 . S
H578 C584 0.930 . S
H579 C588 0.930 . S
H580 C593 0.929 . S
H581 C591 0.929 . S
H582 C586 0.929 . S
H583 C592 0.929 . S
C584 H578 0.930 . S
C584 C585 1.367 . S
C584 C592 1.378 . S
C585 C584 1.367 . S
C585 C593 1.433 . S
C586 H582 0.929 . S
C586 C588 1.378 1_455 S
C586 C590 1.350 . S
C587 C590 1.463 . S
C587 C592 1.350 . S
C587 N595 1.427 . S
C588 H579 0.930 . S
C588 C586 1.378 1_655 S
C588 C589 1.367 . S
C589 C588 1.367 . S
C589 C591 1.433 . S
C590 C586 1.350 . S
C590 C587 1.463 . S
C590 N594 1.427 . S
C591 H581 0.929 . S
C591 C589 1.433 . S
C591 N594 1.384 1_655 S
C592 H583 0.929 . S
C592 C584 1.378 . S
C592 C587 1.350 . S
C593 H580 0.929 . S
C593 C585 1.433 . S
C593 N595 1.384 . S
N594 C590 1.427 . S
N594 C591 1.384 1_455 S
N595 C587 1.427 . S
N595 C593 1.384 . S
H596 C602 0.930 . S
H597 C606 0.930 . S
H598 C611 0.929 . S
H599 C609 0.929 . S
H600 C604 0.929 . S
H601 C610 0.929 . S
C602 H596 0.930 . S
C602 C603 1.367 . S
C602 C610 1.378 . S
C603 C602 1.367 . S
C603 C611 1.433 . S
C604 H600 0.929 . S
C604 C606 1.378 . S
C604 C608 1.350 . S
C605 C608 1.463 . S
C605 C610 1.350 . S
C605 N613 1.427 . S
C606 H597 0.930 . S
C606 C604 1.378 . S
C606 C607 1.367 . S
C607 C606 1.367 . S
C607 C609 1.433 . S
C608 C604 1.350 . S
C608 C605 1.463 . S
C608 N612 1.427 . S
C609 H599 0.929 . S
C609 C607 1.433 . S
C609 N612 1.384 . S
C610 H601 0.929 . S
C610 C602 1.378 . S
C610 C605 1.350 . S
C611 H598 0.929 . S
C611 C603 1.433 . S
C611 N613 1.384 . S
N612 C608 1.427 . S
N612 C609 1.384 . S
N613 C605 1.427 . S
N613 C611 1.384 . S
H614 C620 0.930 . S
H615 C624 0.930 . S
H616 C629 0.929 . S
H617 C627 0.929 . S
H618 C622 0.929 . S
H619 C628 0.929 . S
C620 H614 0.930 . S
C620 C621 1.367 . S
C620 C628 1.378 . S
C621 C620 1.367 . S
C621 C629 1.433 . S
C622 H618 0.929 . S
C622 C624 1.378 . S
C622 C626 1.350 . S
C623 C626 1.463 . S
C623 C628 1.350 . S
C623 N631 1.427 . S
C624 H615 0.930 . S
C624 C622 1.378 . S
C624 C625 1.367 . S
C625 C624 1.367 . S
C625 C627 1.433 . S
C626 C622 1.350 . S
C626 C623 1.463 . S
C626 N630 1.427 . S
C627 H617 0.929 . S
C627 C625 1.433 . S
C627 N630 1.384 . S
C628 H619 0.929 . S
C628 C620 1.378 . S
C628 C623 1.350 . S
C629 H616 0.929 . S
C629 C621 1.433 . S
C629 N631 1.384 . S
N630 C626 1.427 . S
N630 C627 1.384 . S
N631 C623 1.427 . S
N631 C629 1.384 . S
H632 C638 0.930 . S
H633 C642 0.930 . S
H634 C647 0.929 . S
H635 C645 0.929 . S
H636 C640 0.929 . S
H637 C646 0.929 . S
C638 H632 0.930 . S
C638 C639 1.367 . S
C638 C646 1.378 . S
C639 C638 1.367 . S
C639 C647 1.433 . S
C640 H636 0.929 . S
C640 C642 1.378 . S
C640 C644 1.350 . S
C641 C644 1.463 . S
C641 C646 1.350 . S
C641 N649 1.427 . S
C642 H633 0.930 . S
C642 C640 1.378 . S
C642 C643 1.367 . S
C643 C642 1.367 . S
C643 C645 1.433 . S
C644 C640 1.350 . S
C644 C641 1.463 . S
C644 N648 1.427 . S
C645 H635 0.929 . S
C645 C643 1.433 . S
C645 N648 1.384 . S
C646 H637 0.929 . S
C646 C638 1.378 . S
C646 C641 1.350 . S
C647 H634 0.929 . S
C647 C639 1.433 . S
C647 N649 1.384 . S
N648 C644 1.427 . S
N648 C645 1.384 . S
N649 C641 1.427 . S
N649 C647 1.384 . S
H650 C656 0.930 . S
H651 C660 0.930 . S
H652 C665 0.929 . S
H653 C663 0.929 . S
H654 C658 0.929 . S
H655 C664 0.929 . S
C656 H650 0.930 . S
C656 C657 1.367 . S
C656 C664 1.378 . S
C657 C656 1.367 . S
C657 C665 1.433 . S
C658 H654 0.929 . S
C658 C660 1.378 . S
C658 C662 1.350 . S
C659 C662 1.463 . S
C659 C664 1.350 . S
C659 N667 1.427 . S
C660 H651 0.930 . S
C660 C658 1.378 . S
C660 C661 1.367 . S
C661 C660 1.367 . S
C661 C663 1.433 . S
C662 C658 1.350 . S
C662 C659 1.463 . S
C662 N666 1.427 . S
C663 H653 0.929 . S
C663 C661 1.433 . S
C663 N666 1.384 . S
C664 H655 0.929 . S
C664 C656 1.378 . S
C664 C659 1.350 . S
C665 H652 0.929 . S
C665 C657 1.433 . S
C665 N667 1.384 . S
N666 C662 1.427 . S
N666 C663 1.384 . S
N667 C659 1.427 . S
N667 C665 1.384 . S
H668 C674 0.930 . S
H669 C678 0.930 . S
H670 C683 0.929 . S
H671 C681 0.929 . S
H672 C676 0.929 . S
H673 C682 0.929 . S
C674 H668 0.930 . S
C674 C675 1.367 . S
C674 C682 1.378 . S
C675 C674 1.367 . S
C675 C683 1.433 . S
C676 H672 0.929 . S
C676 C678 1.378 . S
C676 C680 1.350 . S
C677 C680 1.463 . S
C677 C682 1.350 . S
C677 N685 1.427 . S
C678 H669 0.930 . S
C678 C676 1.378 . S
C678 C679 1.367 . S
C679 C678 1.367 . S
C679 C681 1.433 . S
C680 C676 1.350 . S
C680 C677 1.463 . S
C680 N684 1.427 . S
C681 H671 0.929 . S
C681 C679 1.433 . S
C681 N684 1.384 . S
C682 H673 0.929 . S
C682 C674 1.378 . S
C682 C677 1.350 . S
C683 H670 0.929 . S
C683 C675 1.433 . S
C683 N685 1.384 . S
N684 C680 1.427 . S
N684 C681 1.384 . S
N685 C677 1.427 . S
N685 C683 1.384 . S
H686 C692 0.930 . S
H687 C696 0.930 . S
H688 C701 0.929 . S
H689 C699 0.929 . S
H690 C694 0.929 . S
H691 C700 0.929 . S
C692 H686 0.930 . S
C692 C693 1.367 . S
C692 C700 1.378 . S
C693 C692 1.367 . S
C693 C701 1.433 . S
C694 H690 0.929 . S
C694 C696 1.378 1_455 S
C694 C698 1.350 . S
C695 C698 1.463 . S
C695 C700 1.350 . S
C695 N703 1.427 . S
C696 H687 0.930 . S
C696 C694 1.378 1_655 S
C696 C697 1.367 . S
C697 C696 1.367 . S
C697 C699 1.433 . S
C698 C694 1.350 . S
C698 C695 1.463 . S
C698 N702 1.427 . S
C699 H689 0.929 . S
C699 C697 1.433 . S
C699 N702 1.384 1_655 S
C700 H691 0.929 . S
C700 C692 1.378 . S
C700 C695 1.350 . S
C701 H688 0.929 . S
C701 C693 1.433 . S
C701 N703 1.384 . S
N702 C698 1.427 . S
N702 C699 1.384 1_455 S
N703 C695 1.427 . S
N703 C701 1.384 . S
H704 C710 0.930 . S
H705 C714 0.930 . S
H706 C719 0.929 . S
H707 C717 0.929 . S
H708 C712 0.929 . S
H709 C718 0.929 . S
C710 H704 0.930 . S
C710 C711 1.367 . S
C710 C718 1.378 . S
C711 C710 1.367 . S
C711 C719 1.433 . S
C712 H708 0.929 . S
C712 C714 1.378 . S
C712 C716 1.350 . S
C713 C716 1.463 . S
C713 C718 1.350 . S
C713 N721 1.427 . S
C714 H705 0.930 . S
C714 C712 1.378 . S
C714 C715 1.367 . S
C715 C714 1.367 . S
C715 C717 1.433 . S
C716 C712 1.350 . S
C716 C713 1.463 . S
C716 N720 1.427 . S
C717 H707 0.929 . S
C717 C715 1.433 . S
C717 N720 1.384 . S
C718 H709 0.929 . S
C718 C710 1.378 . S
C718 C713 1.350 . S
C719 H706 0.929 . S
C719 C711 1.433 . S
C719 N721 1.384 . S
N720 C716 1.427 . S
N720 C717 1.384 . S
N721 C713 1.427 . S
N721 C719 1.384 . S
H722 C728 0.930 . S
H723 C732 0.930 . S
H724 C737 0.929 . S
H725 C735 0.929 . S
H726 C730 0.929 . S
H727 C736 0.929 . S
C728 H722 0.930 . S
C728 C729 1.367 . S
C728 C736 1.378 . S
C729 C728 1.367 . S
C729 C737 1.433 . S
C730 H726 0.929 . S
C730 C732 1.378 . S
C730 C734 1.350 . S
C731 C734 1.463 . S
C731 C736 1.350 . S
C731 N739 1.427 . S
C732 H723 0.930 . S
C732 C730 1.378 . S
C732 C733 1.367 . S
C733 C732 1.367 . S
C733 C735 1.433 . S
C734 C730 1.350 . S
C734 C731 1.463 . S
C734 N738 1.427 . S
C735 H725 0.929 . S
C735 C733 1.433 . S
C735 N738 1.384 . S
C736 H727 0.929 . S
C736 C728 1.378 . S
C736 C731 1.350 . S
C737 H724 0.929 . S
C737 C729 1.433 . S
C737 N739 1.384 . S
N738 C734 1.427 . S
N738 C735 1.384 . S
N739 C731 1.427 . S
N739 C737 1.384 . S
H740 C746 0.930 . S
H741 C750 0.930 . S
H742 C755 0.929 . S
H743 C753 0.929 . S
H744 C748 0.929 . S
H745 C754 0.929 . S
C746 H740 0.930 . S
C746 C747 1.367 . S
C746 C754 1.378 . S
C747 C746 1.367 . S
C747 C755 1.433 . S
C748 H744 0.929 . S
C748 C750 1.378 . S
C748 C752 1.350 . S
C749 C752 1.463 . S
C749 C754 1.350 . S
C749 N757 1.427 . S
C750 H741 0.930 . S
C750 C748 1.378 . S
C750 C751 1.367 . S
C751 C750 1.367 . S
C751 C753 1.433 . S
C752 C748 1.350 . S
C752 C749 1.463 . S
C752 N756 1.427 . S
C753 H743 0.929 . S
C753 C751 1.433 . S
C753 N756 1.384 . S
C754 H745 0.929 . S
C754 C746 1.378 . S
C754 C749 1.350 . S
C755 H742 0.929 . S
C755 C747 1.433 . S
C755 N757 1.384 . S
N756 C752 1.427 . S
N756 C753 1.384 . S
N757 C749 1.427 . S
N757 C755 1.384 . S
H758 C764 0.930 . S
H759 C768 0.930 . S
H760 C773 0.929 . S
H761 C771 0.929 . S
H762 C766 0.929 . S
H763 C772 0.929 . S
C764 H758 0.930 . S
C764 C765 1.367 . S
C764 C772 1.378 . S
C765 C764 1.367 . S
C765 C773 1.433 . S
C766 H762 0.929 . S
C766 C768 1.378 1_455 S
C766 C770 1.350 . S
C767 C770 1.463 . S
C767 C772 1.350 . S
C767 N775 1.427 . S
C768 H759 0.930 . S
C768 C766 1.378 1_655 S
C768 C769 1.367 . S
C769 C768 1.367 . S
C769 C771 1.433 . S
C770 C766 1.350 . S
C770 C767 1.463 . S
C770 N774 1.427 . S
C771 H761 0.929 . S
C771 C769 1.433 . S
C771 N774 1.384 1_655 S
C772 H763 0.929 . S
C772 C764 1.378 . S
C772 C767 1.350 . S
C773 H760 0.929 . S
C773 C765 1.433 . S
C773 N775 1.384 . S
N774 C770 1.427 . S
N774 C771 1.384 1_455 S
N775 C767 1.427 . S
N775 C773 1.384 . S
H776 C782 0.930 . S
H777 C786 0.930 . S
H778 C791 0.929 . S
H779 C789 0.929 . S
H780 C784 0.929 . S
H781 C790 0.929 . S
C782 H776 0.930 . S
C782 C783 1.367 . S
C782 C790 1.378 . S
C783 C782 1.367 . S
C783 C791 1.433 . S
C784 H780 0.929 . S
C784 C786 1.378 . S
C784 C788 1.350 . S
C785 C788 1.463 . S
C785 C790 1.350 . S
C785 N793 1.427 . S
C786 H777 0.930 . S
C786 C784 1.378 . S
C786 C787 1.367 . S
C787 C786 1.367 . S
C787 C789 1.433 . S
C788 C784 1.350 . S
C788 C785 1.463 . S
C788 N792 1.427 . S
C789 H779 0.929 . S
C789 C787 1.433 . S
C789 N792 1.384 . S
C790 H781 0.929 . S
C790 C782 1.378 . S
C790 C785 1.350 . S
C791 H778 0.929 . S
C791 C783 1.433 . S
C791 N793 1.384 . S
N792 C788 1.427 . S
N792 C789 1.384 . S
N793 C785 1.427 . S
N793 C791 1.384 . S
H794 C800 0.930 . S
H795 C804 0.930 . S
H796 C809 0.929 . S
H797 C807 0.929 . S
H798 C802 0.929 . S
H799 C808 0.929 . S
C800 H794 0.930 . S
C800 C801 1.367 . S
C800 C808 1.378 . S
C801 C800 1.367 . S
C801 C809 1.433 . S
C802 H798 0.929 . S
C802 C804 1.378 1_455 S
C802 C806 1.350 . S
C803 C806 1.463 . S
C803 C808 1.350 . S
C803 N811 1.427 . S
C804 H795 0.930 . S
C804 C802 1.378 1_655 S
C804 C805 1.367 . S
C805 C804 1.367 . S
C805 C807 1.433 . S
C806 C802 1.350 . S
C806 C803 1.463 . S
C806 N810 1.427 . S
C807 H797 0.929 . S
C807 C805 1.433 . S
C807 N810 1.384 1_655 S
C808 H799 0.929 . S
C808 C800 1.378 . S
C808 C803 1.350 . S
C809 H796 0.929 . S
C809 C801 1.433 . S
C809 N811 1.384 . S
N810 C806 1.427 . S
N810 C807 1.384 1_455 S
N811 C803 1.427 . S
N811 C809 1.384 . S
H812 C818 0.930 . S
H813 C822 0.930 . S
H814 C827 0.929 . S
H815 C825 0.929 . S
H816 C820 0.929 . S
H817 C826 0.929 . S
C818 H812 0.930 . S
C818 C819 1.367 . S
C818 C826 1.378 . S
C819 C818 1.367 . S
C819 C827 1.433 . S
C820 H816 0.929 . S
C820 C822 1.378 . S
C820 C824 1.350 . S
C821 C824 1.463 . S
C821 C826 1.350 . S
C821 N829 1.427 . S
C822 H813 0.930 . S
C822 C820 1.378 . S
C822 C823 1.367 . S
C823 C822 1.367 . S
C823 C825 1.433 . S
C824 C820 1.350 . S
C824 C821 1.463 . S
C824 N828 1.427 . S
C825 H815 0.929 . S
C825 C823 1.433 . S
C825 N828 1.384 . S
C826 H817 0.929 . S
C826 C818 1.378 . S
C826 C821 1.350 . S
C827 H814 0.929 . S
C827 C819 1.433 . S
C827 N829 1.384 . S
N828 C824 1.427 . S
N828 C825 1.384 . S
N829 C821 1.427 . S
N829 C827 1.384 . S
H830 C836 0.930 . S
H831 C840 0.930 . S
H832 C845 0.929 . S
H833 C843 0.929 . S
H834 C838 0.929 . S
H835 C844 0.929 . S
C836 H830 0.930 . S
C836 C837 1.367 . S
C836 C844 1.378 . S
C837 C836 1.367 . S
C837 C845 1.433 . S
C838 H834 0.929 . S
C838 C840 1.378 . S
C838 C842 1.350 . S
C839 C842 1.463 . S
C839 C844 1.350 . S
C839 N847 1.427 . S
C840 H831 0.930 . S
C840 C838 1.378 . S
C840 C841 1.367 . S
C841 C840 1.367 . S
C841 C843 1.433 . S
C842 C838 1.350 . S
C842 C839 1.463 . S
C842 N846 1.427 . S
C843 H833 0.929 . S
C843 C841 1.433 . S
C843 N846 1.384 . S
C844 H835 0.929 . S
C844 C836 1.378 . S
C844 C839 1.350 . S
C845 H832 0.929 . S
C845 C837 1.433 . S
C845 N847 1.384 . S
N846 C842 1.427 . S
N846 C843 1.384 . S
N847 C839 1.427 . S
N847 C845 1.384 . S
H848 C854 0.930 . S
H849 C858 0.930 . S
H850 C863 0.929 . S
H851 C861 0.929 . S
H852 C856 0.929 . S
H853 C862 0.929 . S
C854 H848 0.930 . S
C854 C855 1.367 . S
C854 C862 1.378 . S
C855 C854 1.367 . S
C855 C863 1.433 . S
C856 H852 0.929 . S
C856 C858 1.378 . S
C856 C860 1.350 . S
C857 C860 1.463 . S
C857 C862 1.350 . S
C857 N865 1.427 . S
C858 H849 0.930 . S
C858 C856 1.378 . S
C858 C859 1.367 . S
C859 C858 1.367 . S
C859 C861 1.433 . S
C860 C856 1.350 . S
C860 C857 1.463 . S
C860 N864 1.427 . S
C861 H851 0.929 . S
C861 C859 1.433 . S
C861 N864 1.384 . S
C862 H853 0.929 . S
C862 C854 1.378 . S
C862 C857 1.350 . S
C863 H850 0.929 . S
C863 C855 1.433 . S
C863 N865 1.384 . S
N864 C860 1.427 . S
N864 C861 1.384 . S
N865 C857 1.427 . S
N865 C863 1.384 . S
H866 C872 0.930 . S
H867 C876 0.930 . S
H868 C881 0.929 . S
H869 C879 0.929 . S
H870 C874 0.929 . S
H871 C880 0.929 . S
C872 H866 0.930 . S
C872 C873 1.367 . S
C872 C880 1.378 . S
C873 C872 1.367 . S
C873 C881 1.433 . S
C874 H870 0.929 . S
C874 C876 1.378 . S
C874 C878 1.350 . S
C875 C878 1.463 . S
C875 C880 1.350 . S
C875 N883 1.427 . S
C876 H867 0.930 . S
C876 C874 1.378 . S
C876 C877 1.367 . S
C877 C876 1.367 . S
C877 C879 1.433 . S
C878 C874 1.350 . S
C878 C875 1.463 . S
C878 N882 1.427 . S
C879 H869 0.929 . S
C879 C877 1.433 . S
C879 N882 1.384 . S
C880 H871 0.929 . S
C880 C872 1.378 . S
C880 C875 1.350 . S
C881 H868 0.929 . S
C881 C873 1.433 . S
C881 N883 1.384 . S
N882 C878 1.427 . S
N882 C879 1.384 . S
N883 C875 1.427 . S
N883 C881 1.384 . S
H884 C890 0.930 . S
H885 C894 0.930 . S
H886 C899 0.929 . S
H887 C897 0.929 . S
H888 C892 0.929 . S
H889 C898 0.929 . S
C890 H884 0.930 . S
C890 C891 1.367 . S
C890 C898 1.378 . S
C891 C890 1.367 . S
C891 C899 1.433 . S
C892 H888 0.929 . S
C892 C894 1.378 . S
C892 C896 1.350 . S
C893 C896 1.463 . S
C893 C898 1.350 . S
C893 N901 1.427 . S
C894 H885 0.930 . S
C894 C892 1.378 . S
C894 C895 1.367 . S
C895 C894 1.367 . S
C895 C897 1.433 . S
C896 C892 1.350 . S
C896 C893 1.463 . S
C896 N900 1.427 . S
C897 H887 0.929 . S
C897 C895 1.433 . S
C897 N900 1.384 . S
C898 H889 0.929 . S
C898 C890 1.378 . S
C898 C893 1.350 . S
C899 H886 0.929 . S
C899 C891 1.433 . S
C899 N901 1.384 . S
N900 C896 1.427 . S
N900 C897 1.384 . S
N901 C893 1.427 . S
N901 C899 1.384 . S
H902 C908 0.930 . S
H903 C912 0.930 . S
H904 C917 0.929 . S
H905 C915 0.929 . S
H906 C910 0.929 . S
H907 C916 0.929 . S
C908 H902 0.930 . S
C908 C909 1.367 . S
C908 C916 1.378 1_455 S
C909 C908 1.367 . S
C909 C917 1.433 . S
C910 H906 0.929 . S
C910 C912 1.378 . S
C910 C914 1.350 . S
C911 C914 1.463 . S
C911 C916 1.350 . S
C911 N919 1.427 . S
C912 H903 0.930 . S
C912 C910 1.378 . S
C912 C913 1.367 . S
C913 C912 1.367 . S
C913 C915 1.433 . S
C914 C910 1.350 . S
C914 C911 1.463 . S
C914 N918 1.427 . S
C915 H905 0.929 . S
C915 C913 1.433 . S
C915 N918 1.384 . S
C916 H907 0.929 . S
C916 C908 1.378 1_655 S
C916 C911 1.350 . S
C917 H904 0.929 . S
C917 C909 1.433 . S
C917 N919 1.384 1_455 S
N918 C914 1.427 . S
N918 C915 1.384 . S
N919 C911 1.427 . S
N919 C917 1.384 1_655 S
H920 C926 0.930 . S
H921 C930 0.930 . S
H922 C935 0.929 . S
H923 C933 0.929 . S
H924 C928 0.929 . S
H925 C934 0.929 . S
C926 H920 0.930 . S
C926 C927 1.367 . S
C926 C934 1.378 . S
C927 C926 1.367 . S
C927 C935 1.433 . S
C928 H924 0.929 . S
C928 C930 1.378 . S
C928 C932 1.350 . S
C929 C932 1.463 . S
C929 C934 1.350 . S
C929 N937 1.427 . S
C930 H921 0.930 . S
C930 C928 1.378 . S
C930 C931 1.367 . S
C931 C930 1.367 . S
C931 C933 1.433 . S
C932 C928 1.350 . S
C932 C929 1.463 . S
C932 N936 1.427 . S
C933 H923 0.929 . S
C933 C931 1.433 . S
C933 N936 1.384 . S
C934 H925 0.929 . S
C934 C926 1.378 . S
C934 C929 1.350 . S
C935 H922 0.929 . S
C935 C927 1.433 . S
C935 N937 1.384 . S
N936 C932 1.427 . S
N936 C933 1.384 . S
N937 C929 1.427 . S
N937 C935 1.384 . S
H938 C944 0.930 . S
H939 C948 0.930 . S
H940 C953 0.929 . S
H941 C951 0.929 . S
H942 C946 0.929 . S
H943 C952 0.929 . S
C944 H938 0.930 . S
C944 C945 1.367 . S
C944 C952 1.378 1_455 S
C945 C944 1.367 . S
C945 C953 1.433 . S
C946 H942 0.929 . S
C946 C948 1.378 . S
C946 C950 1.350 . S
C947 C950 1.463 . S
C947 C952 1.350 . S
C947 N955 1.427 . S
C948 H939 0.930 . S
C948 C946 1.378 . S
C948 C949 1.367 . S
C949 C948 1.367 . S
C949 C951 1.433 . S
C950 C946 1.350 . S
C950 C947 1.463 . S
C950 N954 1.427 . S
C951 H941 0.929 . S
C951 C949 1.433 . S
C951 N954 1.384 . S
C952 H943 0.929 . S
C952 C944 1.378 1_655 S
C952 C947 1.350 . S
C953 H940 0.929 . S
C953 C945 1.433 . S
C953 N955 1.384 1_455 S
N954 C950 1.427 . S
N954 C951 1.384 . S
N955 C947 1.427 . S
N955 C953 1.384 1_655 S
H956 C962 0.930 . S
H957 C966 0.930 . S
H958 C971 0.929 . S
H959 C969 0.929 . S
H960 C964 0.929 . S
H961 C970 0.929 . S
C962 H956 0.930 . S
C962 C963 1.367 . S
C962 C970 1.378 . S
C963 C962 1.367 . S
C963 C971 1.433 . S
C964 H960 0.929 . S
C964 C966 1.378 . S
C964 C968 1.350 . S
C965 C968 1.463 . S
C965 C970 1.350 . S
C965 N973 1.427 . S
C966 H957 0.930 . S
C966 C964 1.378 . S
C966 C967 1.367 . S
C967 C966 1.367 . S
C967 C969 1.433 . S
C968 C964 1.350 . S
C968 C965 1.463 . S
C968 N972 1.427 . S
C969 H959 0.929 . S
C969 C967 1.433 . S
C969 N972 1.384 . S
C970 H961 0.929 . S
C970 C962 1.378 . S
C970 C965 1.350 . S
C971 H958 0.929 . S
C971 C963 1.433 . S
C971 N973 1.384 . S
N972 C968 1.427 . S
N972 C969 1.384 . S
N973 C965 1.427 . S
N973 C971 1.384 . S
H974 C980 0.930 . S
H975 C984 0.930 . S
H976 C989 0.929 . S
H977 C987 0.929 . S
H978 C982 0.929 . S
H979 C988 0.929 . S
C980 H974 0.930 . S
C980 C981 1.367 . S
C980 C988 1.378 . S
C981 C980 1.367 . S
C981 C989 1.433 . S
C982 H978 0.929 . S
C982 C984 1.378 . S
C982 C986 1.350 . S
C983 C986 1.463 . S
C983 C988 1.350 . S
C983 N991 1.427 . S
C984 H975 0.930 . S
C984 C982 1.378 . S
C984 C985 1.367 . S
C985 C984 1.367 . S
C985 C987 1.433 . S
C986 C982 1.350 . S
C986 C983 1.463 . S
C986 N990 1.427 . S
C987 H977 0.929 . S
C987 C985 1.433 . S
C987 N990 1.384 . S
C988 H979 0.929 . S
C988 C980 1.378 . S
C988 C983 1.350 . S
C989 H976 0.929 . S
C989 C981 1.433 . S
C989 N991 1.384 . S
N990 C986 1.427 . S
N990 C987 1.384 . S
N991 C983 1.427 . S
N991 C989 1.384 . S
H992 C998 0.930 . S
H993 C1002 0.930 . S
H994 C1007 0.929 . S
H995 C1005 0.929 . S
H996 C1000 0.929 . S
H997 C1006 0.929 . S
C998 H992 0.930 . S
C998 C999 1.367 . S
C998 C1006 1.378 . S
C999 C998 1.367 . S
C999 C1007 1.433 . S
C1000 H996 0.929 . S
C1000 C1002 1.378 . S
C1000 C1004 1.350 . S
C1001 C1004 1.463 . S
C1001 C1006 1.350 . S
C1001 N1009 1.427 . S
C1002 H993 0.930 . S
C1002 C1000 1.378 . S
C1002 C1003 1.367 . S
C1003 C1002 1.367 . S
C1003 C1005 1.433 . S
C1004 C1000 1.350 . S
C1004 C1001 1.463 . S
C1004 N1008 1.427 . S
C1005 H995 0.929 . S
C1005 C1003 1.433 . S
C1005 N1008 1.384 . S
C1006 H997 0.929 . S
C1006 C998 1.378 . S
C1006 C1001 1.350 . S
C1007 H994 0.929 . S
C1007 C999 1.433 . S
C1007 N1009 1.384 . S
N1008 C1004 1.427 . S
N1008 C1005 1.384 . S
N1009 C1001 1.427 . S
N1009 C1007 1.384 . S
H1010 C1016 0.930 . S
H1011 C1020 0.930 . S
H1012 C1025 0.929 . S
H1013 C1023 0.929 . S
H1014 C1018 0.929 . S
H1015 C1024 0.929 . S
C1016 H1010 0.930 . S
C1016 C1017 1.367 1_545 S
C1016 C1024 1.378 . S
C1017 C1016 1.367 1_565 S
C1017 C1025 1.433 . S
C1018 H1014 0.929 . S
C1018 C1020 1.378 . S
C1018 C1022 1.350 1_565 S
C1019 C1022 1.463 1_465 S
C1019 C1024 1.350 1_565 S
C1019 N1027 1.427 . S
C1020 H1011 0.930 . S
C1020 C1018 1.378 . S
C1020 C1021 1.367 1_565 S
C1021 C1020 1.367 1_545 S
C1021 C1023 1.433 . S
C1022 C1018 1.350 1_545 S
C1022 C1019 1.463 1_645 S
C1022 N1026 1.427 . S
C1023 H1013 0.929 . S
C1023 C1021 1.433 . S
C1023 N1026 1.384 . S
C1024 H1015 0.929 . S
C1024 C1016 1.378 . S
C1024 C1019 1.350 1_545 S
C1025 H1012 0.929 . S
C1025 C1017 1.433 . S
C1025 N1027 1.384 . S
N1026 C1022 1.427 . S
N1026 C1023 1.384 . S
N1027 C1019 1.427 . S
N1027 C1025 1.384 . S
H1028 C1034 0.930 . S
H1029 C1038 0.930 . S
H1030 C1043 0.929 . S
H1031 C1041 0.929 . S
H1032 C1036 0.929 . S
H1033 C1042 0.929 . S
C1034 H1028 0.930 . S
C1034 C1035 1.367 . S
C1034 C1042 1.378 . S
C1035 C1034 1.367 . S
C1035 C1043 1.433 . S
C1036 H1032 0.929 . S
C1036 C1038 1.378 . S
C1036 C1040 1.350 . S
C1037 C1040 1.463 . S
C1037 C1042 1.350 . S
C1037 N1045 1.427 . S
C1038 H1029 0.930 . S
C1038 C1036 1.378 . S
C1038 C1039 1.367 . S
C1039 C1038 1.367 . S
C1039 C1041 1.433 . S
C1040 C1036 1.350 . S
C1040 C1037 1.463 . S
C1040 N1044 1.427 . S
C1041 H1031 0.929 . S
C1041 C1039 1.433 . S
C1041 N1044 1.384 . S
C1042 H1033 0.929 . S
C1042 C1034 1.378 . S
C1042 C1037 1.350 . S
C1043 H1030 0.929 . S
C1043 C1035 1.433 . S
C1043 N1045 1.384 . S
N1044 C1040 1.427 . S
N1044 C1041 1.384 . S
N1045 C1037 1.427 . S
N1045 C1043 1.384 . S
H1046 C1052 0.930 . S
H1047 C1056 0.930 . S
H1048 C1061 0.929 . S
H1049 C1059 0.929 . S
H1050 C1054 0.929 1_544 S
H1051 C1060 0.929 1_566 S
C1052 H1046 0.930 . S
C1052 C1053 1.367 . S
C1052 C1060 1.378 . S
C1053 C1052 1.367 . S
C1053 C1061 1.433 . S
C1054 H1050 0.929 1_566 S
C1054 C1056 1.378 . S
C1054 C1058 1.350 . S
C1055 C1058 1.463 1_544 S
C1055 C1060 1.350 . S
C1055 N1063 1.427 . S
C1056 H1047 0.930 . S
C1056 C1054 1.378 . S
C1056 C1057 1.367 . S
C1057 C1056 1.367 . S
C1057 C1059 1.433 . S
C1058 C1054 1.350 . S
C1058 C1055 1.463 1_566 S
C1058 N1062 1.427 . S
C1059 H1049 0.929 . S
C1059 C1057 1.433 . S
C1059 N1062 1.384 . S
C1060 H1051 0.929 1_544 S
C1060 C1052 1.378 . S
C1060 C1055 1.350 . S
C1061 H1048 0.929 . S
C1061 C1053 1.433 . S
C1061 N1063 1.384 . S
N1062 C1058 1.427 . S
N1062 C1059 1.384 . S
N1063 C1055 1.427 . S
N1063 C1061 1.384 . S
H1064 C1070 0.930 . S
H1065 C1074 0.930 . S
H1066 C1079 0.929 . S
H1067 C1077 0.929 . S
H1068 C1072 0.929 . S
H1069 C1078 0.929 . S
C1070 H1064 0.930 . S
C1070 C1071 1.367 . S
C1070 C1078 1.378 . S
C1071 C1070 1.367 . S
C1071 C1079 1.433 . S
C1072 H1068 0.929 . S
C1072 C1074 1.378 . S
C1072 C1076 1.350 . S
C1073 C1076 1.463 . S
C1073 C1078 1.350 . S
C1073 N1081 1.427 . S
C1074 H1065 0.930 . S
C1074 C1072 1.378 . S
C1074 C1075 1.367 . S
C1075 C1074 1.367 . S
C1075 C1077 1.433 . S
C1076 C1072 1.350 . S
C1076 C1073 1.463 . S
C1076 N1080 1.427 . S
C1077 H1067 0.929 . S
C1077 C1075 1.433 . S
C1077 N1080 1.384 . S
C1078 H1069 0.929 . S
C1078 C1070 1.378 . S
C1078 C1073 1.350 . S
C1079 H1066 0.929 . S
C1079 C1071 1.433 . S
C1079 N1081 1.384 . S
N1080 C1076 1.427 . S
N1080 C1077 1.384 . S
N1081 C1073 1.427 . S
N1081 C1079 1.384 . S
H1082 C1088 0.930 . S
H1083 C1092 0.930 . S
H1084 C1097 0.929 . S
H1085 C1095 0.929 . S
H1086 C1090 0.929 . S
H1087 C1096 0.929 . S
C1088 H1082 0.930 . S
C1088 C1089 1.367 . S
C1088 C1096 1.378 . S
C1089 C1088 1.367 . S
C1089 C1097 1.433 . S
C1090 H1086 0.929 . S
C1090 C1092 1.378 . S
C1090 C1094 1.350 . S
C1091 C1094 1.463 1_565 S
C1091 C1096 1.350 . S
C1091 N1099 1.427 . S
C1092 H1083 0.930 . S
C1092 C1090 1.378 . S
C1092 C1093 1.367 . S
C1093 C1092 1.367 . S
C1093 C1095 1.433 . S
C1094 C1090 1.350 . S
C1094 C1091 1.463 1_545 S
C1094 N1098 1.427 . S
C1095 H1085 0.929 . S
C1095 C1093 1.433 . S
C1095 N1098 1.384 . S
C1096 H1087 0.929 . S
C1096 C1088 1.378 . S
C1096 C1091 1.350 . S
C1097 H1084 0.929 . S
C1097 C1089 1.433 . S
C1097 N1099 1.384 . S
N1098 C1094 1.427 . S
N1098 C1095 1.384 . S
N1099 C1091 1.427 . S
N1099 C1097 1.384 . S
H1100 C1106 0.930 . S
H1101 C1110 0.930 . S
H1102 C1115 0.929 . S
H1103 C1113 0.929 . S
H1104 C1108 0.929 . S
H1105 C1114 0.929 . S
C1106 H1100 0.930 . S
C1106 C1107 1.367 . S
C1106 C1114 1.378 . S
C1107 C1106 1.367 . S
C1107 C1115 1.433 . S
C1108 H1104 0.929 . S
C1108 C1110 1.378 . S
C1108 C1112 1.350 . S
C1109 C1112 1.463 . S
C1109 C1114 1.350 . S
C1109 N1117 1.427 . S
C1110 H1101 0.930 . S
C1110 C1108 1.378 . S
C1110 C1111 1.367 . S
C1111 C1110 1.367 . S
C1111 C1113 1.433 . S
C1112 C1108 1.350 . S
C1112 C1109 1.463 . S
C1112 N1116 1.427 . S
C1113 H1103 0.929 . S
C1113 C1111 1.433 . S
C1113 N1116 1.384 . S
C1114 H1105 0.929 . S
C1114 C1106 1.378 . S
C1114 C1109 1.350 . S
C1115 H1102 0.929 . S
C1115 C1107 1.433 . S
C1115 N1117 1.384 . S
N1116 C1112 1.427 . S
N1116 C1113 1.384 . S
N1117 C1109 1.427 . S
N1117 C1115 1.384 . S
H1118 C1124 0.930 1_565 S
H1119 C1128 0.930 1_545 S
H1120 C1133 0.929 . S
H1121 C1131 0.929 . S
H1122 C1126 0.929 1_556 S
H1123 C1132 0.929 1_554 S
C1124 H1118 0.930 1_545 S
C1124 C1125 1.367 . S
C1124 C1132 1.378 1_545 S
C1125 C1124 1.367 . S
C1125 C1133 1.433 . S
C1126 H1122 0.929 1_554 S
C1126 C1128 1.378 1_545 S
C1126 C1130 1.350 1_545 S
C1127 C1130 1.463 1_446 S
C1127 C1132 1.350 1_545 S
C1127 N1135 1.427 . S
C1128 H1119 0.930 1_565 S
C1128 C1126 1.378 1_565 S
C1128 C1129 1.367 . S
C1129 C1128 1.367 . S
C1129 C1131 1.433 . S
C1130 C1126 1.350 1_565 S
C1130 C1127 1.463 1_664 S
C1130 N1134 1.427 . S
C1131 H1121 0.929 . S
C1131 C1129 1.433 . S
C1131 N1134 1.384 . S
C1132 H1123 0.929 1_556 S
C1132 C1124 1.378 1_565 S
C1132 C1127 1.350 1_565 S
C1133 H1120 0.929 . S
C1133 C1125 1.433 . S
C1133 N1135 1.384 . S
N1134 C1130 1.427 . S
N1134 C1131 1.384 . S
N1135 C1127 1.427 . S
N1135 C1133 1.384 . S
H1136 C1142 0.930 . S
H1137 C1146 0.930 . S
H1138 C1151 0.929 . S
H1139 C1149 0.929 . S
H1140 C1144 0.929 . S
H1141 C1150 0.929 . S
C1142 H1136 0.930 . S
C1142 C1143 1.367 . S
C1142 C1150 1.378 . S
C1143 C1142 1.367 . S
C1143 C1151 1.433 . S
C1144 H1140 0.929 . S
C1144 C1146 1.378 . S
C1144 C1148 1.350 . S
C1145 C1148 1.463 . S
C1145 C1150 1.350 . S
C1145 N1153 1.427 . S
C1146 H1137 0.930 . S
C1146 C1144 1.378 . S
C1146 C1147 1.367 . S
C1147 C1146 1.367 . S
C1147 C1149 1.433 . S
C1148 C1144 1.350 . S
C1148 C1145 1.463 . S
C1148 N1152 1.427 . S
C1149 H1139 0.929 . S
C1149 C1147 1.433 . S
C1149 N1152 1.384 . S
C1150 H1141 0.929 . S
C1150 C1142 1.378 . S
C1150 C1145 1.350 . S
C1151 H1138 0.929 . S
C1151 C1143 1.433 . S
C1151 N1153 1.384 . S
N1152 C1148 1.427 . S
N1152 C1149 1.384 . S
N1153 C1145 1.427 . S
N1153 C1151 1.384 . S
H1154 C1160 0.930 . S
H1155 C1164 0.930 . S
H1156 C1169 0.929 . S
H1157 C1167 0.929 . S
H1158 C1162 0.929 . S
H1159 C1168 0.929 . S
C1160 H1154 0.930 . S
C1160 C1161 1.367 . S
C1160 C1168 1.378 . S
C1161 C1160 1.367 . S
C1161 C1169 1.433 . S
C1162 H1158 0.929 . S
C1162 C1164 1.378 . S
C1162 C1166 1.350 . S
C1163 C1166 1.463 . S
C1163 C1168 1.350 . S
C1163 N1171 1.427 . S
C1164 H1155 0.930 . S
C1164 C1162 1.378 . S
C1164 C1165 1.367 . S
C1165 C1164 1.367 . S
C1165 C1167 1.433 . S
C1166 C1162 1.350 . S
C1166 C1163 1.463 . S
C1166 N1170 1.427 . S
C1167 H1157 0.929 . S
C1167 C1165 1.433 . S
C1167 N1170 1.384 . S
C1168 H1159 0.929 . S
C1168 C1160 1.378 . S
C1168 C1163 1.350 . S
C1169 H1156 0.929 . S
C1169 C1161 1.433 . S
C1169 N1171 1.384 . S
N1170 C1166 1.427 . S
N1170 C1167 1.384 . S
N1171 C1163 1.427 . S
N1171 C1169 1.384 . S
H1172 C1178 0.930 . S
H1173 C1182 0.930 . S
H1174 C1187 0.929 . S
H1175 C1185 0.929 . S
H1176 C1180 0.929 . S
H1177 C1186 0.929 . S
C1178 H1172 0.930 . S
C1178 C1179 1.367 . S
C1178 C1186 1.378 . S
C1179 C1178 1.367 . S
C1179 C1187 1.433 . S
C1180 H1176 0.929 . S
C1180 C1182 1.378 . S
C1180 C1184 1.350 . S
C1181 C1184 1.463 . S
C1181 C1186 1.350 . S
C1181 N1189 1.427 . S
C1182 H1173 0.930 . S
C1182 C1180 1.378 . S
C1182 C1183 1.367 . S
C1183 C1182 1.367 . S
C1183 C1185 1.433 . S
C1184 C1180 1.350 . S
C1184 C1181 1.463 . S
C1184 N1188 1.427 . S
C1185 H1175 0.929 . S
C1185 C1183 1.433 . S
C1185 N1188 1.384 . S
C1186 H1177 0.929 . S
C1186 C1178 1.378 . S
C1186 C1181 1.350 . S
C1187 H1174 0.929 . S
C1187 C1179 1.433 . S
C1187 N1189 1.384 . S
N1188 C1184 1.427 . S
N1188 C1185 1.384 . S
N1189 C1181 1.427 . S
N1189 C1187 1.384 . S
H1190 C1196 0.930 . S
H1191 C1200 0.930 . S
H1192 C1205 0.929 . S
H1193 C1203 0.929 . S
H1194 C1198 0.929 . S
H1195 C1204 0.929 . S
C1196 H1190 0.930 . S
C1196 C1197 1.367 . S
C1196 C1204 1.378 . S
C1197 C1196 1.367 . S
C1197 C1205 1.433 . S
C1198 H1194 0.929 . S
C1198 C1200 1.378 . S
C1198 C1202 1.350 . S
C1199 C1202 1.463 . S
C1199 C1204 1.350 . S
C1199 N1207 1.427 . S
C1200 H1191 0.930 . S
C1200 C1198 1.378 . S
C1200 C1201 1.367 . S
C1201 C1200 1.367 . S
C1201 C1203 1.433 . S
C1202 C1198 1.350 . S
C1202 C1199 1.463 . S
C1202 N1206 1.427 . S
C1203 H1193 0.929 . S
C1203 C1201 1.433 . S
C1203 N1206 1.384 . S
C1204 H1195 0.929 . S
C1204 C1196 1.378 . S
C1204 C1199 1.350 . S
C1205 H1192 0.929 . S
C1205 C1197 1.433 . S
C1205 N1207 1.384 . S
N1206 C1202 1.427 . S
N1206 C1203 1.384 . S
N1207 C1199 1.427 . S
N1207 C1205 1.384 . S
H1208 C1214 0.930 . S
H1209 C1218 0.930 . S
H1210 C1223 0.929 . S
H1211 C1221 0.929 . S
H1212 C1216 0.929 . S
H1213 C1222 0.929 . S
C1214 H1208 0.930 . S
C1214 C1215 1.367 . S
C1214 C1222 1.378 . S
C1215 C1214 1.367 . S
C1215 C1223 1.433 . S
C1216 H1212 0.929 . S
C1216 C1218 1.378 . S
C1216 C1220 1.350 . S
C1217 C1220 1.463 1_554 S
C1217 C1222 1.350 . S
C1217 N1225 1.427 . S
C1218 H1209 0.930 . S
C1218 C1216 1.378 . S
C1218 C1219 1.367 . S
C1219 C1218 1.367 . S
C1219 C1221 1.433 . S
C1220 C1216 1.350 . S
C1220 C1217 1.463 1_556 S
C1220 N1224 1.427 . S
C1221 H1211 0.929 . S
C1221 C1219 1.433 . S
C1221 N1224 1.384 . S
C1222 H1213 0.929 . S
C1222 C1214 1.378 . S
C1222 C1217 1.350 . S
C1223 H1210 0.929 . S
C1223 C1215 1.433 . S
C1223 N1225 1.384 . S
N1224 C1220 1.427 . S
N1224 C1221 1.384 . S
N1225 C1217 1.427 . S
N1225 C1223 1.384 . S
H1226 C1232 0.930 . S
H1227 C1236 0.930 . S
H1228 C1241 0.929 . S
H1229 C1239 0.929 . S
H1230 C1234 0.929 . S
H1231 C1240 0.929 . S
C1232 H1226 0.930 . S
C1232 C1233 1.367 . S
C1232 C1240 1.378 . S
C1233 C1232 1.367 . S
C1233 C1241 1.433 . S
C1234 H1230 0.929 . S
C1234 C1236 1.378 . S
C1234 C1238 1.350 . S
C1235 C1238 1.463 1_455 S
C1235 C1240 1.350 . S
C1235 N1243 1.427 . S
C1236 H1227 0.930 . S
C1236 C1234 1.378 . S
C1236 C1237 1.367 . S
C1237 C1236 1.367 . S
C1237 C1239 1.433 . S
C1238 C1234 1.350 . S
C1238 C1235 1.463 1_655 S
C1238 N1242 1.427 . S
C1239 H1229 0.929 . S
C1239 C1237 1.433 . S
C1239 N1242 1.384 . S
C1240 H1231 0.929 . S
C1240 C1232 1.378 . S
C1240 C1235 1.350 . S
C1241 H1228 0.929 . S
C1241 C1233 1.433 . S
C1241 N1243 1.384 . S
N1242 C1238 1.427 . S
N1242 C1239 1.384 . S
N1243 C1235 1.427 . S
N1243 C1241 1.384 . S
H1244 C1250 0.930 . S
H1245 C1254 0.930 . S
H1246 C1259 0.929 . S
H1247 C1257 0.929 . S
H1248 C1252 0.929 1_554 S
H1249 C1258 0.929 1_556 S
C1250 H1244 0.930 . S
C1250 C1251 1.367 . S
C1250 C1258 1.378 . S
C1251 C1250 1.367 . S
C1251 C1259 1.433 . S
C1252 H1248 0.929 1_556 S
C1252 C1254 1.378 . S
C1252 C1256 1.350 . S
C1253 C1256 1.463 1_454 S
C1253 C1258 1.350 . S
C1253 N1261 1.427 . S
C1254 H1245 0.930 . S
C1254 C1252 1.378 . S
C1254 C1255 1.367 . S
C1255 C1254 1.367 . S
C1255 C1257 1.433 . S
C1256 C1252 1.350 . S
C1256 C1253 1.463 1_656 S
C1256 N1260 1.427 . S
C1257 H1247 0.929 . S
C1257 C1255 1.433 . S
C1257 N1260 1.384 . S
C1258 H1249 0.929 1_554 S
C1258 C1250 1.378 . S
C1258 C1253 1.350 . S
C1259 H1246 0.929 . S
C1259 C1251 1.433 . S
C1259 N1261 1.384 . S
N1260 C1256 1.427 . S
N1260 C1257 1.384 . S
N1261 C1253 1.427 . S
N1261 C1259 1.384 . S
H1262 C1268 0.930 . S
H1263 C1272 0.930 . S
H1264 C1277 0.929 . S
H1265 C1275 0.929 . S
H1266 C1270 0.929 . S
H1267 C1276 0.929 . S
C1268 H1262 0.930 . S
C1268 C1269 1.367 . S
C1268 C1276 1.378 . S
C1269 C1268 1.367 . S
C1269 C1277 1.433 . S
C1270 H1266 0.929 . S
C1270 C1272 1.378 . S
C1270 C1274 1.350 . S
C1271 C1274 1.463 . S
C1271 C1276 1.350 . S
C1271 N1279 1.427 . S
C1272 H1263 0.930 . S
C1272 C1270 1.378 . S
C1272 C1273 1.367 . S
C1273 C1272 1.367 . S
C1273 C1275 1.433 . S
C1274 C1270 1.350 . S
C1274 C1271 1.463 . S
C1274 N1278 1.427 . S
C1275 H1265 0.929 . S
C1275 C1273 1.433 . S
C1275 N1278 1.384 . S
C1276 H1267 0.929 . S
C1276 C1268 1.378 . S
C1276 C1271 1.350 . S
C1277 H1264 0.929 . S
C1277 C1269 1.433 . S
C1277 N1279 1.384 . S
N1278 C1274 1.427 . S
N1278 C1275 1.384 . S
N1279 C1271 1.427 . S
N1279 C1277 1.384 . S
H1280 C1286 0.930 . S
H1281 C1290 0.930 . S
H1282 C1295 0.929 . S
H1283 C1293 0.929 . S
H1284 C1288 0.929 1_545 S
H1285 C1294 0.929 1_565 S
C1286 H1280 0.930 . S
C1286 C1287 1.367 . S
C1286 C1294 1.378 . S
C1287 C1286 1.367 . S
C1287 C1295 1.433 . S
C1288 H1284 0.929 1_565 S
C1288 C1290 1.378 . S
C1288 C1292 1.350 . S
C1289 C1292 1.463 1_545 S
C1289 C1294 1.350 . S
C1289 N1297 1.427 . S
C1290 H1281 0.930 . S
C1290 C1288 1.378 . S
C1290 C1291 1.367 . S
C1291 C1290 1.367 . S
C1291 C1293 1.433 . S
C1292 C1288 1.350 . S
C1292 C1289 1.463 1_565 S
C1292 N1296 1.427 . S
C1293 H1283 0.929 . S
C1293 C1291 1.433 . S
C1293 N1296 1.384 . S
C1294 H1285 0.929 1_545 S
C1294 C1286 1.378 . S
C1294 C1289 1.350 . S
C1295 H1282 0.929 . S
C1295 C1287 1.433 . S
C1295 N1297 1.384 . S
N1296 C1292 1.427 . S
N1296 C1293 1.384 . S
N1297 C1289 1.427 . S
N1297 C1295 1.384 . S
H1298 C1304 0.930 . S
H1299 C1308 0.930 . S
H1300 C1313 0.929 . S
H1301 C1311 0.929 . S
H1302 C1306 0.929 . S
H1303 C1312 0.929 . S
C1304 H1298 0.930 . S
C1304 C1305 1.367 . S
C1304 C1312 1.378 . S
C1305 C1304 1.367 . S
C1305 C1313 1.433 . S
C1306 H1302 0.929 . S
C1306 C1308 1.378 . S
C1306 C1310 1.350 . S
C1307 C1310 1.463 . S
C1307 C1312 1.350 . S
C1307 N1315 1.427 . S
C1308 H1299 0.930 . S
C1308 C1306 1.378 . S
C1308 C1309 1.367 . S
C1309 C1308 1.367 . S
C1309 C1311 1.433 . S
C1310 C1306 1.350 . S
C1310 C1307 1.463 . S
C1310 N1314 1.427 . S
C1311 H1301 0.929 . S
C1311 C1309 1.433 . S
C1311 N1314 1.384 . S
C1312 H1303 0.929 . S
C1312 C1304 1.378 . S
C1312 C1307 1.350 . S
C1313 H1300 0.929 . S
C1313 C1305 1.433 . S
C1313 N1315 1.384 . S
N1314 C1310 1.427 . S
N1314 C1311 1.384 . S
N1315 C1307 1.427 . S
N1315 C1313 1.384 . S
H1316 C1322 0.930 . S
H1317 C1326 0.930 . S
H1318 C1331 0.929 . S
H1319 C1329 0.929 . S
H1320 C1324 0.929 . S
H1321 C1330 0.929 . S
C1322 H1316 0.930 . S
C1322 C1323 1.367 . S
C1322 C1330 1.378 . S
C1323 C1322 1.367 . S
C1323 C1331 1.433 . S
C1324 H1320 0.929 . S
C1324 C1326 1.378 . S
C1324 C1328 1.350 . S
C1325 C1328 1.463 1_545 S
C1325 C1330 1.350 . S
C1325 N1333 1.427 . S
C1326 H1317 0.930 . S
C1326 C1324 1.378 . S
C1326 C1327 1.367 . S
C1327 C1326 1.367 . S
C1327 C1329 1.433 . S
C1328 C1324 1.350 . S
C1328 C1325 1.463 1_565 S
C1328 N1332 1.427 . S
C1329 H1319 0.929 . S
C1329 C1327 1.433 . S
C1329 N1332 1.384 . S
C1330 H1321 0.929 . S
C1330 C1322 1.378 . S
C1330 C1325 1.350 . S
C1331 H1318 0.929 . S
C1331 C1323 1.433 . S
C1331 N1333 1.384 . S
N1332 C1328 1.427 . S
N1332 C1329 1.384 . S
N1333 C1325 1.427 . S
N1333 C1331 1.384 . S
H1334 C1340 0.930 . S
H1335 C1344 0.930 . S
H1336 C1349 0.929 . S
H1337 C1347 0.929 . S
H1338 C1342 0.929 1_554 S
H1339 C1348 0.929 1_556 S
C1340 H1334 0.930 . S
C1340 C1341 1.367 . S
C1340 C1348 1.378 . S
C1341 C1340 1.367 . S
C1341 C1349 1.433 . S
C1342 H1338 0.929 1_556 S
C1342 C1344 1.378 . S
C1342 C1346 1.350 . S
C1343 C1346 1.463 1_554 S
C1343 C1348 1.350 . S
C1343 N1351 1.427 . S
C1344 H1335 0.930 . S
C1344 C1342 1.378 . S
C1344 C1345 1.367 . S
C1345 C1344 1.367 . S
C1345 C1347 1.433 . S
C1346 C1342 1.350 . S
C1346 C1343 1.463 1_556 S
C1346 N1350 1.427 . S
C1347 H1337 0.929 . S
C1347 C1345 1.433 . S
C1347 N1350 1.384 . S
C1348 H1339 0.929 1_554 S
C1348 C1340 1.378 . S
C1348 C1343 1.350 . S
C1349 H1336 0.929 . S
C1349 C1341 1.433 . S
C1349 N1351 1.384 . S
N1350 C1346 1.427 . S
N1350 C1347 1.384 . S
N1351 C1343 1.427 . S
N1351 C1349 1.384 . S
H1352 C1358 0.930 . S
H1353 C1362 0.930 . S
H1354 C1367 0.929 . S
H1355 C1365 0.929 . S
H1356 C1360 0.929 1_545 S
H1357 C1366 0.929 1_565 S
C1358 H1352 0.930 . S
C1358 C1359 1.367 . S
C1358 C1366 1.378 . S
C1359 C1358 1.367 . S
C1359 C1367 1.433 . S
C1360 H1356 0.929 1_565 S
C1360 C1362 1.378 . S
C1360 C1364 1.350 . S
C1361 C1364 1.463 1_545 S
C1361 C1366 1.350 . S
C1361 N1369 1.427 . S
C1362 H1353 0.930 . S
C1362 C1360 1.378 . S
C1362 C1363 1.367 . S
C1363 C1362 1.367 . S
C1363 C1365 1.433 . S
C1364 C1360 1.350 . S
C1364 C1361 1.463 1_565 S
C1364 N1368 1.427 . S
C1365 H1355 0.929 . S
C1365 C1363 1.433 . S
C1365 N1368 1.384 . S
C1366 H1357 0.929 1_545 S
C1366 C1358 1.378 . S
C1366 C1361 1.350 . S
C1367 H1354 0.929 . S
C1367 C1359 1.433 . S
C1367 N1369 1.384 . S
N1368 C1364 1.427 . S
N1368 C1365 1.384 . S
N1369 C1361 1.427 . S
N1369 C1367 1.384 . S
H1370 C1376 0.930 . S
H1371 C1380 0.930 . S
H1372 C1385 0.929 . S
H1373 C1383 0.929 . S
H1374 C1378 0.929 . S
H1375 C1384 0.929 . S
C1376 H1370 0.930 . S
C1376 C1377 1.367 . S
C1376 C1384 1.378 . S
C1377 C1376 1.367 . S
C1377 C1385 1.433 . S
C1378 H1374 0.929 . S
C1378 C1380 1.378 . S
C1378 C1382 1.350 . S
C1379 C1382 1.463 . S
C1379 C1384 1.350 . S
C1379 N1387 1.427 . S
C1380 H1371 0.930 . S
C1380 C1378 1.378 . S
C1380 C1381 1.367 . S
C1381 C1380 1.367 . S
C1381 C1383 1.433 . S
C1382 C1378 1.350 . S
C1382 C1379 1.463 . S
C1382 N1386 1.427 . S
C1383 H1373 0.929 . S
C1383 C1381 1.433 . S
C1383 N1386 1.384 . S
C1384 H1375 0.929 . S
C1384 C1376 1.378 . S
C1384 C1379 1.350 . S
C1385 H1372 0.929 . S
C1385 C1377 1.433 . S
C1385 N1387 1.384 . S
N1386 C1382 1.427 . S
N1386 C1383 1.384 . S
N1387 C1379 1.427 . S
N1387 C1385 1.384 . S
H1388 C1394 0.930 . S
H1389 C1398 0.930 . S
H1390 C1403 0.929 . S
H1391 C1401 0.929 . S
H1392 C1396 0.929 1_545 S
H1393 C1402 0.929 1_565 S
C1394 H1388 0.930 . S
C1394 C1395 1.367 . S
C1394 C1402 1.378 . S
C1395 C1394 1.367 . S
C1395 C1403 1.433 . S
C1396 H1392 0.929 1_565 S
C1396 C1398 1.378 . S
C1396 C1400 1.350 . S
C1397 C1400 1.463 1_545 S
C1397 C1402 1.350 . S
C1397 N1405 1.427 . S
C1398 H1389 0.930 . S
C1398 C1396 1.378 . S
C1398 C1399 1.367 . S
C1399 C1398 1.367 . S
C1399 C1401 1.433 . S
C1400 C1396 1.350 . S
C1400 C1397 1.463 1_565 S
C1400 N1404 1.427 . S
C1401 H1391 0.929 . S
C1401 C1399 1.433 . S
C1401 N1404 1.384 . S
C1402 H1393 0.929 1_545 S
C1402 C1394 1.378 . S
C1402 C1397 1.350 . S
C1403 H1390 0.929 . S
C1403 C1395 1.433 . S
C1403 N1405 1.384 . S
N1404 C1400 1.427 . S
N1404 C1401 1.384 . S
N1405 C1397 1.427 . S
N1405 C1403 1.384 . S
H1406 C1412 0.930 . S
H1407 C1416 0.930 . S
H1408 C1421 0.929 . S
H1409 C1419 0.929 . S
H1410 C1414 0.929 . S
H1411 C1420 0.929 . S
C1412 H1406 0.930 . S
C1412 C1413 1.367 . S
C1412 C1420 1.378 . S
C1413 C1412 1.367 . S
C1413 C1421 1.433 . S
C1414 H1410 0.929 . S
C1414 C1416 1.378 . S
C1414 C1418 1.350 . S
C1415 C1418 1.463 1_556 S
C1415 C1420 1.350 . S
C1415 N1423 1.427 . S
C1416 H1407 0.930 . S
C1416 C1414 1.378 . S
C1416 C1417 1.367 . S
C1417 C1416 1.367 . S
C1417 C1419 1.433 . S
C1418 C1414 1.350 . S
C1418 C1415 1.463 1_554 S
C1418 N1422 1.427 . S
C1419 H1409 0.929 . S
C1419 C1417 1.433 . S
C1419 N1422 1.384 . S
C1420 H1411 0.929 . S
C1420 C1412 1.378 . S
C1420 C1415 1.350 . S
C1421 H1408 0.929 . S
C1421 C1413 1.433 . S
C1421 N1423 1.384 . S
N1422 C1418 1.427 . S
N1422 C1419 1.384 . S
N1423 C1415 1.427 . S
N1423 C1421 1.384 . S
H1424 C1430 0.930 . S
H1425 C1434 0.930 . S
H1426 C1439 0.929 . S
H1427 C1437 0.929 . S
H1428 C1432 0.929 . S
H1429 C1438 0.929 . S
C1430 H1424 0.930 . S
C1430 C1431 1.367 . S
C1430 C1438 1.378 . S
C1431 C1430 1.367 . S
C1431 C1439 1.433 . S
C1432 H1428 0.929 . S
C1432 C1434 1.378 . S
C1432 C1436 1.350 . S
C1433 C1436 1.463 . S
C1433 C1438 1.350 . S
C1433 N1441 1.427 . S
C1434 H1425 0.930 . S
C1434 C1432 1.378 . S
C1434 C1435 1.367 . S
C1435 C1434 1.367 . S
C1435 C1437 1.433 . S
C1436 C1432 1.350 . S
C1436 C1433 1.463 . S
C1436 N1440 1.427 . S
C1437 H1427 0.929 . S
C1437 C1435 1.433 . S
C1437 N1440 1.384 . S
C1438 H1429 0.929 . S
C1438 C1430 1.378 . S
C1438 C1433 1.350 . S
C1439 H1426 0.929 . S
C1439 C1431 1.433 . S
C1439 N1441 1.384 . S
N1440 C1436 1.427 . S
N1440 C1437 1.384 . S
N1441 C1433 1.427 . S
N1441 C1439 1.384 . S
H1442 C1448 0.930 . S
H1443 C1452 0.930 . S
H1444 C1457 0.929 . S
H1445 C1455 0.929 . S
H1446 C1450 0.929 . S
H1447 C1456 0.929 . S
C1448 H1442 0.930 . S
C1448 C1449 1.367 . S
C1448 C1456 1.378 . S
C1449 C1448 1.367 . S
C1449 C1457 1.433 . S
C1450 H1446 0.929 . S
C1450 C1452 1.378 . S
C1450 C1454 1.350 . S
C1451 C1454 1.463 1_556 S
C1451 C1456 1.350 . S
C1451 N1459 1.427 . S
C1452 H1443 0.930 . S
C1452 C1450 1.378 . S
C1452 C1453 1.367 . S
C1453 C1452 1.367 . S
C1453 C1455 1.433 . S
C1454 C1450 1.350 . S
C1454 C1451 1.463 1_554 S
C1454 N1458 1.427 . S
C1455 H1445 0.929 . S
C1455 C1453 1.433 . S
C1455 N1458 1.384 . S
C1456 H1447 0.929 . S
C1456 C1448 1.378 . S
C1456 C1451 1.350 . S
C1457 H1444 0.929 . S
C1457 C1449 1.433 . S
C1457 N1459 1.384 . S
N1458 C1454 1.427 . S
N1458 C1455 1.384 . S
N1459 C1451 1.427 . S
N1459 C1457 1.384 . S
H1460 C1466 0.930 . S
H1461 C1470 0.930 . S
H1462 C1475 0.929 . S
H1463 C1473 0.929 . S
H1464 C1468 0.929 . S
H1465 C1474 0.929 . S
C1466 H1460 0.930 . S
C1466 C1467 1.367 . S
C1466 C1474 1.378 . S
C1467 C1466 1.367 . S
C1467 C1475 1.433 . S
C1468 H1464 0.929 . S
C1468 C1470 1.378 . S
C1468 C1472 1.350 . S
C1469 C1472 1.463 . S
C1469 C1474 1.350 . S
C1469 N1477 1.427 . S
C1470 H1461 0.930 . S
C1470 C1468 1.378 . S
C1470 C1471 1.367 . S
C1471 C1470 1.367 . S
C1471 C1473 1.433 . S
C1472 C1468 1.350 . S
C1472 C1469 1.463 . S
C1472 N1476 1.427 . S
C1473 H1463 0.929 . S
C1473 C1471 1.433 . S
C1473 N1476 1.384 . S
C1474 H1465 0.929 . S
C1474 C1466 1.378 . S
C1474 C1469 1.350 . S
C1475 H1462 0.929 . S
C1475 C1467 1.433 . S
C1475 N1477 1.384 . S
N1476 C1472 1.427 . S
N1476 C1473 1.384 . S
N1477 C1469 1.427 . S
N1477 C1475 1.384 . S
H1478 C1484 0.930 . S
H1479 C1488 0.930 . S
H1480 C1493 0.929 . S
H1481 C1491 0.929 . S
H1482 C1486 0.929 . S
H1483 C1492 0.929 . S
C1484 H1478 0.930 . S
C1484 C1485 1.367 . S
C1484 C1492 1.378 . S
C1485 C1484 1.367 . S
C1485 C1493 1.433 . S
C1486 H1482 0.929 . S
C1486 C1488 1.378 . S
C1486 C1490 1.350 . S
C1487 C1490 1.463 . S
C1487 C1492 1.350 . S
C1487 N1495 1.427 . S
C1488 H1479 0.930 . S
C1488 C1486 1.378 . S
C1488 C1489 1.367 . S
C1489 C1488 1.367 . S
C1489 C1491 1.433 . S
C1490 C1486 1.350 . S
C1490 C1487 1.463 . S
C1490 N1494 1.427 . S
C1491 H1481 0.929 . S
C1491 C1489 1.433 . S
C1491 N1494 1.384 . S
C1492 H1483 0.929 . S
C1492 C1484 1.378 . S
C1492 C1487 1.350 . S
C1493 H1480 0.929 . S
C1493 C1485 1.433 . S
C1493 N1495 1.384 . S
N1494 C1490 1.427 . S
N1494 C1491 1.384 . S
N1495 C1487 1.427 . S
N1495 C1493 1.384 . S
H1496 C1502 0.930 . S
H1497 C1506 0.930 . S
H1498 C1511 0.929 . S
H1499 C1509 0.929 . S
H1500 C1504 0.929 . S
H1501 C1510 0.929 . S
C1502 H1496 0.930 . S
C1502 C1503 1.367 . S
C1502 C1510 1.378 . S
C1503 C1502 1.367 . S
C1503 C1511 1.433 . S
C1504 H1500 0.929 . S
C1504 C1506 1.378 . S
C1504 C1508 1.350 . S
C1505 C1508 1.463 . S
C1505 C1510 1.350 . S
C1505 N1513 1.427 . S
C1506 H1497 0.930 . S
C1506 C1504 1.378 . S
C1506 C1507 1.367 . S
C1507 C1506 1.367 . S
C1507 C1509 1.433 . S
C1508 C1504 1.350 . S
C1508 C1505 1.463 . S
C1508 N1512 1.427 . S
C1509 H1499 0.929 . S
C1509 C1507 1.433 . S
C1509 N1512 1.384 . S
C1510 H1501 0.929 . S
C1510 C1502 1.378 . S
C1510 C1505 1.350 . S
C1511 H1498 0.929 . S
C1511 C1503 1.433 . S
C1511 N1513 1.384 . S
N1512 C1508 1.427 . S
N1512 C1509 1.384 . S
N1513 C1505 1.427 . S
N1513 C1511 1.384 . S
H1514 C1520 0.930 . S
H1515 C1524 0.930 . S
H1516 C1529 0.929 . S
H1517 C1527 0.929 . S
H1518 C1522 0.929 . S
H1519 C1528 0.929 . S
C1520 H1514 0.930 . S
C1520 C1521 1.367 . S
C1520 C1528 1.378 . S
C1521 C1520 1.367 . S
C1521 C1529 1.433 . S
C1522 H1518 0.929 . S
C1522 C1524 1.378 . S
C1522 C1526 1.350 . S
C1523 C1526 1.463 1_556 S
C1523 C1528 1.350 . S
C1523 N1531 1.427 . S
C1524 H1515 0.930 . S
C1524 C1522 1.378 . S
C1524 C1525 1.367 . S
C1525 C1524 1.367 . S
C1525 C1527 1.433 . S
C1526 C1522 1.350 . S
C1526 C1523 1.463 1_554 S
C1526 N1530 1.427 . S
C1527 H1517 0.929 . S
C1527 C1525 1.433 . S
C1527 N1530 1.384 . S
C1528 H1519 0.929 . S
C1528 C1520 1.378 . S
C1528 C1523 1.350 . S
C1529 H1516 0.929 . S
C1529 C1521 1.433 . S
C1529 N1531 1.384 . S
N1530 C1526 1.427 . S
N1530 C1527 1.384 . S
N1531 C1523 1.427 . S
N1531 C1529 1.384 . S
H1532 C1538 0.930 . S
H1533 C1542 0.930 . S
H1534 C1547 0.929 . S
H1535 C1545 0.929 . S
H1536 C1540 0.929 . S
H1537 C1546 0.929 . S
C1538 H1532 0.930 . S
C1538 C1539 1.367 . S
C1538 C1546 1.378 . S
C1539 C1538 1.367 . S
C1539 C1547 1.433 . S
C1540 H1536 0.929 . S
C1540 C1542 1.378 . S
C1540 C1544 1.350 . S
C1541 C1544 1.463 . S
C1541 C1546 1.350 . S
C1541 N1549 1.427 . S
C1542 H1533 0.930 . S
C1542 C1540 1.378 . S
C1542 C1543 1.367 . S
C1543 C1542 1.367 . S
C1543 C1545 1.433 . S
C1544 C1540 1.350 . S
C1544 C1541 1.463 . S
C1544 N1548 1.427 . S
C1545 H1535 0.929 . S
C1545 C1543 1.433 . S
C1545 N1548 1.384 . S
C1546 H1537 0.929 . S
C1546 C1538 1.378 . S
C1546 C1541 1.350 . S
C1547 H1534 0.929 . S
C1547 C1539 1.433 . S
C1547 N1549 1.384 . S
N1548 C1544 1.427 . S
N1548 C1545 1.384 . S
N1549 C1541 1.427 . S
N1549 C1547 1.384 . S
H1550 C1556 0.930 . S
H1551 C1560 0.930 . S
H1552 C1565 0.929 . S
H1553 C1563 0.929 . S
H1554 C1558 0.929 . S
H1555 C1564 0.929 . S
C1556 H1550 0.930 . S
C1556 C1557 1.367 . S
C1556 C1564 1.378 . S
C1557 C1556 1.367 . S
C1557 C1565 1.433 . S
C1558 H1554 0.929 . S
C1558 C1560 1.378 . S
C1558 C1562 1.350 . S
C1559 C1562 1.463 . S
C1559 C1564 1.350 . S
C1559 N1567 1.427 . S
C1560 H1551 0.930 . S
C1560 C1558 1.378 . S
C1560 C1561 1.367 . S
C1561 C1560 1.367 . S
C1561 C1563 1.433 . S
C1562 C1558 1.350 . S
C1562 C1559 1.463 . S
C1562 N1566 1.427 . S
C1563 H1553 0.929 . S
C1563 C1561 1.433 . S
C1563 N1566 1.384 . S
C1564 H1555 0.929 . S
C1564 C1556 1.378 . S
C1564 C1559 1.350 . S
C1565 H1552 0.929 . S
C1565 C1557 1.433 . S
C1565 N1567 1.384 . S
N1566 C1562 1.427 . S
N1566 C1563 1.384 . S
N1567 C1559 1.427 . S
N1567 C1565 1.384 . S
C423 C361 1.476 . S
C427 C10 1.525 . S
C441 C23 1.518 . S
C445 C105 1.526 . S
C459 C335 1.464 . S
C463 C36 1.518 . S
C477 C49 1.527 . S
C481 C131 1.524 . S
C495 C62 1.518 . S
C499 C387 1.464 . S
C513 C75 1.522 . S
C517 C183 1.532 . S
C531 C88 1.528 . S
C535 C413 1.471 . S
C549 C101 1.526 . S
C553 C157 1.523 . S
C567 C248 1.467 . S
C571 C114 1.548 . S
C585 C1 1.460 . S
C589 C118 1.522 . S
C603 C222 1.475 . S
C607 C140 1.549 . S
C621 C144 1.518 . S
C625 C27 1.473 . S
C639 C274 1.467 . S
C643 C166 1.548 . S
C657 C79 1.477 . S
C661 C170 1.523 . S
C675 C192 1.549 . S
C679 C300 1.474 . S
C693 C53 1.461 . S
C697 C196 1.520 . S
C711 C218 1.520 . S
C715 C153 1.476 . S
C729 C231 1.521 . S
C733 C313 1.532 . S
C747 C127 1.477 . S
C751 C244 1.523 . S
C765 C339 1.524 . S
C769 C257 1.527 . S
C783 C179 1.463 . S
C787 C270 1.519 . S
C801 C391 1.523 . S
C805 C283 1.527 . S
C819 C205 1.477 . S
C823 C296 1.523 . S
C837 C309 1.524 . S
C841 C365 1.531 . S
C855 C40 1.477 . S
C859 C322 1.549 . S
C873 C326 1.519 . S
C877 C209 1.473 . S
C891 C348 1.549 . S
C895 C14 1.477 . S
C909 C352 1.521 . S
C913 C235 1.477 . S
C927 C374 1.549 . S
C931 C66 1.475 . S
C945 C378 1.521 . S
C949 C287 1.476 . S
C963 C400 1.549 . S
C967 C92 1.477 . S
C981 C404 1.527 . S
C985 C261 1.466 . S
C999 C315 1.761 . S
C1003 C3 1.662 . S
C1017 C16 1.662 . S
C1021 C122 1.662 . S
C1035 C341 1.754 . S
C1039 C29 1.644 . S
C1053 C42 1.654 . S
C1057 C148 1.654 . S
C1071 C367 1.759 . S
C1075 C55 1.659 . S
C1089 C68 1.653 . S
C1093 C174 1.653 . S
C1107 C393 1.761 . S
C1111 C81 1.657 . S
C1125 C94 1.656 . S
C1129 C200 1.656 . S
C1143 C107 1.758 . S
C1147 C211 1.656 . S
C1161 C133 1.754 . S
C1165 C237 1.647 . S
C1179 C159 1.755 . S
C1183 C263 1.645 . S
C1197 C185 1.761 . S
C1201 C289 1.662 . S
C1215 C224 1.646 . S
C1219 C330 1.646 . S
C1233 C356 1.659 . S
C1237 C250 1.659 . S
C1251 C382 1.654 . S
C1255 C276 1.654 . S
C1269 C302 1.644 . S
C1273 C408 1.644 . S
C1287 C5 1.966 . S
C1291 C57 1.967 . S
C1305 C18 1.960 . S
C1309 C70 1.965 . S
C1323 C83 1.958 . S
C1327 C31 1.962 . S
C1341 C44 1.959 . S
C1345 C96 1.960 . S
C1359 C161 2.002 . S
C1363 C109 2.004 . S
C1377 C172 1.961 . S
C1381 C120 1.958 . S
C1395 C135 2.004 . S
C1399 C187 2.002 . S
C1413 C146 1.965 . S
C1417 C198 1.960 . S
C1431 C265 1.965 . S
C1435 C213 1.967 . S
C1449 C278 1.960 . S
C1453 C226 1.965 . S
C1467 C239 1.962 . S
C1471 C291 1.959 . S
C1485 C304 1.965 . S
C1489 C252 1.967 . S
C1503 C369 2.002 . S
C1507 C317 2.004 . S
C1521 C328 1.962 . S
C1525 C380 1.966 . S
C1539 C395 2.003 . S
C1543 C343 2.003 . S
C1557 C354 1.961 . S
C1561 C406 1.958 . S
