# Generated by pormake.
# Topology snk, (6)-cn, num edge types: 1
# Building blocks:
#     Node 0, Type 0, BuildingBlock: BETDAH_clean_sbu_0, # of connection points: 6
#     Node 1, Type 0, BuildingBlock: BETDAH_clean_sbu_0, # of connection points: 6
#     Node 2, Type 0, BuildingBlock: BETDAH_clean_sbu_0, # of connection points: 6
#     Node 3, Type 0, BuildingBlock: BETDAH_clean_sbu_0, # of connection points: 6
#     Node 4, Type 0, BuildingBlock: BETDAH_clean_sbu_0, # of connection points: 6
#     Node 5, Type 0, BuildingBlock: BETDAH_clean_sbu_0, # of connection points: 6
#     Node 6, Type 0, BuildingBlock: BETDAH_clean_sbu_0, # of connection points: 6
#     Node 7, Type 0, BuildingBlock: BETDAH_clean_sbu_0, # of connection points: 6
#     Edge 8, Type (0, 0), BuildingBlock: ZUJKAS_clean_linker_0, # of connection points: 2
#     Edge 9, Type (0, 0), BuildingBlock: ZUJKAS_clean_linker_0, # of connection points: 2
#     Edge 10, Type (0, 0), BuildingBlock: ZUJKAS_clean_linker_0, # of connection points: 2
#     Edge 11, Type (0, 0), BuildingBlock: ZUJKAS_clean_linker_0, # of connection points: 2
#     Edge 12, Type (0, 0), BuildingBlock: ZUJKAS_clean_linker_0, # of connection points: 2
#     Edge 13, Type (0, 0), BuildingBlock: ZUJKAS_clean_linker_0, # of connection points: 2
#     Edge 14, Type (0, 0), BuildingBlock: ZUJKAS_clean_linker_0, # of connection points: 2
#     Edge 15, Type (0, 0), BuildingBlock: ZUJKAS_clean_linker_0, # of connection points: 2
#     Edge 16, Type (0, 0), BuildingBlock: ZUJKAS_clean_linker_0, # of connection points: 2
#     Edge 17, Type (0, 0), BuildingBlock: ZUJKAS_clean_linker_0, # of connection points: 2
#     Edge 18, Type (0, 0), BuildingBlock: ZUJKAS_clean_linker_0, # of connection points: 2
#     Edge 19, Type (0, 0), BuildingBlock: ZUJKAS_clean_linker_0, # of connection points: 2
#     Edge 20, Type (0, 0), BuildingBlock: ZUJKAS_clean_linker_0, # of connection points: 2
#     Edge 21, Type (0, 0), BuildingBlock: ZUJKAS_clean_linker_0, # of connection points: 2
#     Edge 22, Type (0, 0), BuildingBlock: ZUJKAS_clean_linker_0, # of connection points: 2
#     Edge 23, Type (0, 0), BuildingBlock: ZUJKAS_clean_linker_0, # of connection points: 2
#     Edge 24, Type (0, 0), BuildingBlock: ZUJKAS_clean_linker_0, # of connection points: 2
#     Edge 25, Type (0, 0), BuildingBlock: ZUJKAS_clean_linker_0, # of connection points: 2
#     Edge 26, Type (0, 0), BuildingBlock: ZUJKAS_clean_linker_0, # of connection points: 2
#     Edge 27, Type (0, 0), BuildingBlock: ZUJKAS_clean_linker_0, # of connection points: 2
#     Edge 28, Type (0, 0), BuildingBlock: ZUJKAS_clean_linker_0, # of connection points: 2
#     Edge 29, Type (0, 0), BuildingBlock: ZUJKAS_clean_linker_0, # of connection points: 2
#     Edge 30, Type (0, 0), BuildingBlock: ZUJKAS_clean_linker_0, # of connection points: 2
#     Edge 31, Type (0, 0), BuildingBlock: ZUJKAS_clean_linker_0, # of connection points: 2
# Relax obj value: 0.075
# Max RMSD: 0.131
# Mean RMSD: 0.116
data_MOF--net-snk--node1-BETDAH_clean_sbu_0--edge1-ZUJKAS_clean_linker_0
_symmetry_space_group_name_H-M    P1
_symmetry_Int_Tables_number       1
_symmetry_cell_setting            triclinic
loop_
_symmetry_equiv_pos_as_xyz
'x, y, z'
_cell_length_a     50.029024
_cell_length_b     50.054271
_cell_length_c     30.108729
_cell_angle_alpha  82.713229
_cell_angle_beta   97.26241
_cell_angle_gamma 89.150698
loop_
_atom_site_label
_atom_site_type_symbol
_atom_site_fract_x
_atom_site_fract_y
_atom_site_fract_z
_atom_type_partial_charge
Ho0 Ho 0.98999 1.00249 0.46913 0.0
Ho1 Ho 0.01884 0.00831 0.56615 0.0
C2 C 0.04541 0.03638 0.48199 0.0
C3 C 0.9665 0.01053 0.38661 0.0
C4 C 0.97386 0.01198 0.34034 0.0
C5 C 0.95939 0.02972 0.30552 0.0
C6 C 0.96457 0.03005 0.26083 0.0
C7 C 0.98433 0.01251 0.24992 0.0
C8 C 0.99929 0.99521 0.28522 0.0
C9 C 0.99415 0.99499 0.32995 0.0
C10 C 0.02646 0.9634 0.50578 0.0
C11 C 0.96345 0.97441 0.55312 0.0
C12 C 0.04214 1.00041 0.64883 0.0
C13 C 0.03463 0.9988 0.69503 0.0
C14 C 0.04908 0.98105 0.72986 0.0
C15 C 0.04382 0.98067 0.77452 0.0
C16 C 0.02402 0.99816 0.78541 0.0
C17 C 0.00907 0.01546 0.7501 0.0
C18 C 0.01428 0.01574 0.70539 0.0
C19 C 0.98224 0.04733 0.52936 0.0
O20 O 0.02305 0.03173 0.45572 0.0
O21 O 0.0503 0.02576 0.52494 0.0
O22 O 0.96928 0.98688 0.41111 0.0
O23 O 0.97423 0.03015 0.40971 0.0
O24 O 0.00571 0.95947 0.47723 0.0
O25 O 0.02817 0.98798 0.50959 0.0
O26 O 0.9862 0.97838 0.579 0.0
O27 O 0.95836 0.98591 0.51067 0.0
O28 O 0.03913 0.02405 0.62437 0.0
O29 O 0.03477 0.98074 0.62562 0.0
O30 O 1.0029 0.05135 0.55798 0.0
O31 O 0.98074 0.02274 0.52574 0.0
H32 H 0.94373 0.04309 0.3128 0.0
H33 H 0.95301 0.04402 0.2348 0.0
H34 H 0.01446 0.98124 0.27821 0.0
H35 H 0.00567 0.98114 0.35626 0.0
H36 H 0.06479 0.96773 0.72262 0.0
H37 H 0.05538 0.9667 0.80057 0.0
H38 H 0.99386 0.02941 0.75708 0.0
H39 H 1.00278 0.02962 0.67909 0.0
Ho40 Ho 0.25645 0.73718 0.80377 0.0
Ho41 Ho 0.26254 0.76628 0.70684 0.0
C42 C 0.28993 0.79293 0.79159 0.0
C43 C 0.26434 0.71341 0.88621 0.0
C44 C 0.26609 0.72045 0.93267 0.0
C45 C 0.28047 0.70317 0.96824 0.0
C46 C 0.28072 0.70822 1.01298 0.0
C47 C 0.26649 0.73069 0.0232 0.0
C48 C 0.25266 0.74839 0.98719 0.0
C49 C 0.25248 0.74333 0.94239 0.0
C50 C 0.21723 0.77339 0.76673 0.0
C51 C 0.2287 0.71077 0.71938 0.0
C52 C 0.25489 0.78977 0.62418 0.0
C53 C 0.25296 0.7825 0.57783 0.0
C54 C 0.23853 0.79968 0.54217 0.0
C55 C 0.23822 0.79448 0.4975 0.0
C56 C 0.25243 0.77196 0.48742 0.0
C57 C 0.26628 0.75435 0.52352 0.0
C58 C 0.26652 0.75955 0.56826 0.0
C59 C 0.30169 0.72992 0.74401 0.0
O60 O 0.28516 0.77057 0.81776 0.0
O61 O 0.27975 0.79771 0.74838 0.0
O62 O 0.24064 0.71681 0.86194 0.0
O63 O 0.28401 0.72098 0.86305 0.0
O64 O 0.2133 0.75257 0.79513 0.0
O65 O 0.24185 0.7753 0.76321 0.0
O66 O 0.23283 0.73351 0.6936 0.0
O67 O 0.23998 0.70564 0.76197 0.0
O68 O 0.27856 0.78606 0.64844 0.0
O69 O 0.23515 0.78272 0.64747 0.0
O70 O 0.3057 0.75069 0.71562 0.0
O71 O 0.27704 0.72822 0.74732 0.0
H72 H 0.29119 0.68547 0.96147 0.0
H73 H 0.29203 0.69444 0.0396 0.0
H74 H 0.24129 0.76574 0.99364 0.0
H75 H 0.24125 0.75698 0.91543 0.0
H76 H 0.22785 0.81744 0.54882 0.0
H77 H 0.22689 0.8082 0.4708 0.0
H78 H 0.27764 0.73695 0.51719 0.0
H79 H 0.2778 0.74598 0.59528 0.0
Ho80 Ho 0.5165 0.98925 0.06202 0.0
Ho81 Ho 0.49505 0.01532 0.96601 0.0
C82 C 0.46706 0.03527 0.04624 0.0
C83 C 0.53594 0.97961 0.14673 0.0
C84 C 0.53048 0.9858 0.19163 0.0
C85 C 0.55186 0.99333 0.22185 0.0
C86 C 0.548 0.99714 0.26588 0.0
C87 C 0.52262 0.99337 0.28091 0.0
C88 C 0.50099 0.98655 0.25006 0.0
C89 C 0.50487 0.98283 0.20589 0.0
C90 C 0.47932 0.96144 0.0159 0.0
C91 C 0.54454 0.96936 0.98173 0.0
C92 C 0.47539 0.02469 0.8814 0.0
C93 C 0.48092 0.01867 0.83647 0.0
C94 C 0.45955 0.01139 0.80596 0.0
C95 C 0.46351 0.00771 0.76193 0.0
C96 C 0.48898 0.01135 0.74716 0.0
C97 C 0.51058 0.01792 0.77829 0.0
C98 C 0.50661 0.02151 0.82248 0.0
C99 C 0.53257 0.04298 1.01205 0.0
O100 O 0.48683 0.0218 0.07424 0.0
O101 O 0.464 0.03344 1.00235 0.0
O102 O 0.5193 0.96385 0.12617 0.0
O103 O 0.54367 0.99946 0.11909 0.0
O104 O 0.49962 0.95022 0.04335 0.0
O105 O 0.4789 0.98661 0.01612 0.0
O106 O 0.52478 0.98285 0.95375 0.0
O107 O 0.5476 0.97117 0.02565 0.0
O108 O 0.49175 0.04074 0.90185 0.0
O109 O 0.46804 0.00465 0.90911 0.0
O110 O 0.51248 0.05433 0.98422 0.0
O111 O 0.53262 0.01783 1.01185 0.0
H112 H 0.57177 0.99584 0.21161 0.0
H113 H 0.565 1.00293 0.28824 0.0
H114 H 0.48122 0.98327 0.26039 0.0
H115 H 0.48796 0.97708 0.18327 0.0
H116 H 0.43958 0.00899 0.816 0.0
H117 H 0.44652 1.0021 0.73936 0.0
H118 H 0.53042 0.02109 0.76818 0.0
H119 H 0.5235 0.02705 0.84533 0.0
Ho120 Ho 0.24145 0.26338 0.21256 0.0
Ho121 Ho 0.26841 0.24292 0.30806 0.0
C122 C 0.28779 0.21431 0.2282 0.0
C123 C 0.23022 0.28146 0.12746 0.0
C124 C 0.23509 0.27492 0.0824 0.0
C125 C 0.2612 0.27311 0.07007 0.0
C126 C 0.2649 0.2687 0.02612 0.0
C127 C 0.2426 0.26587 0.99362 0.0
C128 C 0.21657 0.26727 1.0064 0.0
C129 C 0.21289 0.27181 0.05015 0.0
C130 C 0.21426 0.22648 0.26048 0.0
C131 C 0.22218 0.29207 0.2925 0.0
C132 C 0.27912 0.22455 0.3931 0.0
C133 C 0.2742 0.23114 0.43812 0.0
C134 C 0.24807 0.23279 0.45045 0.0
C135 C 0.24433 0.23724 0.49437 0.0
C136 C 0.26659 0.24024 0.52684 0.0
C137 C 0.29263 0.23899 0.51406 0.0
C138 C 0.29636 0.23442 0.47034 0.0
C139 C 0.29548 0.28023 0.26039 0.0
O140 O 0.27415 0.23393 0.20015 0.0
O141 O 0.28613 0.21145 0.27214 0.0
O142 O 0.21473 0.26536 0.14963 0.0
O143 O 0.25058 0.28951 0.15375 0.0
O144 O 0.20278 0.2467 0.23322 0.0
O145 O 0.23936 0.22603 0.25941 0.0
O146 O 0.23579 0.27241 0.32051 0.0
O147 O 0.22385 0.29496 0.24854 0.0
O148 O 0.29497 0.24038 0.37122 0.0
O149 O 0.2587 0.21686 0.36652 0.0
O150 O 0.30706 0.26029 0.28825 0.0
O151 O 0.27037 0.2803 0.26128 0.0
H152 H 0.27876 0.27539 0.09415 0.0
H153 H 0.28523 0.26745 0.01759 0.0
H154 H 0.19893 0.26557 0.9822 0.0
H155 H 0.19256 0.27336 0.05861 0.0
H156 H 0.23054 0.23036 0.42641 0.0
H157 H 0.22399 0.23837 0.50289 0.0
H158 H 0.31025 0.24082 0.53825 0.0
H159 H 0.31671 0.23298 0.4619 0.0
Ho160 Ho 0.74937 0.23901 0.31733 0.0
Ho161 Ho 0.75326 0.26853 0.21989 0.0
C162 C 0.78277 0.29464 0.30312 0.0
C163 C 0.7584 0.21549 0.3999 0.0
C164 C 0.75948 0.22276 0.44621 0.0
C165 C 0.77592 0.20736 0.48174 0.0
C166 C 0.7757 0.21248 0.52638 0.0
C167 C 0.75891 0.23311 0.53656 0.0
C168 C 0.74296 0.24899 0.50056 0.0
C169 C 0.74327 0.24389 0.45588 0.0
C170 C 0.70966 0.27547 0.28315 0.0
C171 C 0.71998 0.21288 0.23384 0.0
C172 C 0.74411 0.29203 0.13731 0.0
C173 C 0.74281 0.28481 0.09095 0.0
C174 C 0.72588 0.29997 0.05575 0.0
C175 C 0.72587 0.29494 1.01102 0.0
C176 C 0.74289 0.27462 1.00042 0.0
C177 C 0.75931 0.25896 0.03608 0.0
C178 C 0.75925 0.26398 0.08085 0.0
C179 C 0.79295 0.23205 0.25429 0.0
O180 O 0.77959 0.27157 0.32875 0.0
O181 O 0.77023 0.30007 0.26134 0.0
O182 O 0.73469 0.21742 0.37561 0.0
O183 O 0.77764 0.22415 0.37657 0.0
O184 O 0.70634 0.25455 0.3117 0.0
O185 O 0.73406 0.27723 0.278 0.0
O186 O 0.72314 0.23596 0.20831 0.0
O187 O 0.7324 0.20746 0.27572 0.0
O188 O 0.76788 0.29 0.16145 0.0
O189 O 0.72492 0.28344 0.16079 0.0
O190 O 0.79634 0.25293 0.2257 0.0
O191 O 0.76853 0.23032 0.25922 0.0
H192 H 0.78866 0.19102 0.47505 0.0
H193 H 0.78866 0.20016 0.55295 0.0
H194 H 0.72959 0.26488 0.50695 0.0
H195 H 0.7304 0.2561 0.429 0.0
H196 H 0.71293 0.31604 0.06279 0.0
H197 H 0.71256 0.30707 0.9847 0.0
H198 H 0.77285 0.24332 0.02934 0.0
H199 H 0.77248 0.25195 0.10745 0.0
Ho200 Ho 0.74277 0.76287 0.71671 0.0
Ho201 Ho 0.76985 0.74223 0.81241 0.0
C202 C 0.78969 0.71439 0.7318 0.0
C203 C 0.7322 0.78161 0.63179 0.0
C204 C 0.73655 0.7748 0.58665 0.0
C205 C 0.76247 0.7703 0.57508 0.0
C206 C 0.76586 0.76571 0.53108 0.0
C207 C 0.74342 0.76538 0.49779 0.0
C208 C 0.71753 0.76943 0.50983 0.0
C209 C 0.71417 0.77415 0.55364 0.0
C210 C 0.71643 0.72451 0.76336 0.0
C211 C 0.72293 0.79078 0.79712 0.0
C212 C 0.78051 0.72347 0.89732 0.0
C213 C 0.77613 0.73014 0.94253 0.0
C214 C 0.75019 0.7344 0.95422 0.0
C215 C 0.7468 0.73887 0.99828 0.0
C216 C 0.76925 0.73931 0.03152 0.0
C217 C 0.79515 0.73549 0.01937 0.0
C218 C 0.79851 0.73089 0.9755 0.0
C219 C 0.79618 0.78057 0.76564 0.0
O220 O 0.77572 0.7339 0.704 0.0
O221 O 0.78816 0.7113 0.77583 0.0
O222 O 0.71584 0.76649 0.65377 0.0
O223 O 0.75314 0.78841 0.65822 0.0
O224 O 0.70447 0.74426 0.73557 0.0
O225 O 0.74157 0.72513 0.76296 0.0
O226 O 0.73682 0.77124 0.82502 0.0
O227 O 0.72461 0.79387 0.75316 0.0
O228 O 0.79676 0.73876 0.87537 0.0
O229 O 0.75962 0.71657 0.87089 0.0
O230 O 0.80815 0.76081 0.79342 0.0
O231 O 0.77106 0.77994 0.76623 0.0
H232 H 0.78015 0.77061 0.5998 0.0
H233 H 0.78606 0.76236 0.52314 0.0
H234 H 0.69982 0.76968 0.48503 0.0
H235 H 0.694 0.77776 0.56155 0.0
H236 H 0.73251 0.734 0.92953 0.0
H237 H 0.72658 0.74204 1.00629 0.0
H238 H 0.81287 0.73532 0.04412 0.0
H239 H 0.8187 0.72746 0.96751 0.0
Ho240 Ho 0.49211 0.50033 0.96311 0.0
Ho241 Ho 0.52146 0.50363 0.0609 0.0
C242 C 0.54812 0.533 0.97809 0.0
C243 C 0.46876 0.5099 0.88051 0.0
C244 C 0.4761 0.51112 0.83423 0.0
C245 C 0.46114 0.52813 0.79895 0.0
C246 C 0.46629 0.52809 0.75429 0.0
C247 C 0.48652 0.51091 0.74384 0.0
C248 C 0.50197 0.49437 0.7796 0.0
C249 C 0.49685 0.4945 0.8243 0.0
C250 C 0.52815 0.46024 0.99715 0.0
C251 C 0.46566 0.47068 0.04594 0.0
C252 C 0.54472 0.49413 0.14359 0.0
C253 C 0.53744 0.49298 0.18991 0.0
C254 C 0.55205 0.47552 0.225 0.0
C255 C 0.547 0.47557 0.26971 0.0
C256 C 0.5272 0.49316 0.2804 0.0
C257 C 0.51209 0.51014 0.24483 0.0
C258 C 0.51712 0.51002 0.20008 0.0
C259 C 0.4852 0.54357 0.02668 0.0
O260 O 0.52506 0.53017 0.95224 0.0
O261 O 0.55331 0.52034 0.01983 0.0
O262 O 0.47043 0.48611 0.90452 0.0
O263 O 0.47758 0.52894 0.90415 0.0
O264 O 0.5073 0.45723 0.96828 0.0
O265 O 0.53013 0.48455 1.00264 0.0
O266 O 0.48874 0.47356 0.0717 0.0
O267 O 0.46036 0.48344 1.00428 0.0
O268 O 0.54313 0.51789 0.11949 0.0
O269 O 0.53581 0.47509 0.12005 0.0
O270 O 0.50607 0.54677 0.05543 0.0
O271 O 0.48341 0.51923 0.02147 0.0
H272 H 0.44511 0.5412 0.80585 0.0
H273 H 0.45432 0.5415 0.72791 0.0
H274 H 0.51753 0.48069 0.77299 0.0
H275 H 0.50872 0.48119 0.85098 0.0
H276 H 0.56773 0.4621 0.21791 0.0
H277 H 0.55869 0.46183 0.29596 0.0
H278 H 0.49686 0.52412 0.25163 0.0
H279 H 0.50552 0.52367 0.17356 0.0
Ho280 Ho 0.01586 0.48974 0.55882 0.0
Ho281 Ho 0.99478 0.51644 0.46347 0.0
C282 C 0.96711 0.5363 0.54416 0.0
C283 C 0.03491 0.47939 0.64363 0.0
C284 C 0.02809 0.48355 0.6889 0.0
C285 C 0.02687 0.50935 0.70259 0.0
C286 C 0.02252 0.5124 0.74682 0.0
C287 C 0.01933 0.48975 0.77842 0.0
C288 C 0.01996 0.46405 0.76418 0.0
C289 C 0.0244 0.46101 0.72012 0.0
C290 C 0.97743 0.46297 0.51307 0.0
C291 C 0.04367 0.46995 0.47827 0.0
C292 C 0.97569 0.52683 0.37868 0.0
C293 C 0.98237 0.52263 0.33335 0.0
C294 C 0.98344 0.49682 0.31964 0.0
C295 C 0.98765 0.49374 0.27535 0.0
C296 C 0.99087 0.51637 0.24373 0.0
C297 C 0.99039 0.54208 0.25798 0.0
C298 C 0.98609 0.54514 0.3021 0.0
C299 C 0.0332 0.54319 0.50937 0.0
O300 O 0.98681 0.52254 0.57182 0.0
O301 O 0.96385 0.53459 0.50021 0.0
O302 O 0.02006 0.46279 0.62174 0.0
O303 O 0.04136 0.50044 0.6171 0.0
O304 O 0.99743 0.45127 0.54061 0.0
O305 O 0.97787 0.48814 0.5132 0.0
O306 O 0.02395 0.48365 0.45053 0.0
O307 O 0.04687 0.47171 0.5222 0.0
O308 O 0.99066 0.54335 0.40052 0.0
O309 O 0.96917 0.50582 0.40524 0.0
O310 O 0.01321 0.55491 0.48183 0.0
O311 O 0.03275 0.51804 0.50902 0.0
H312 H 0.02975 0.52717 0.67946 0.0
H313 H 0.02243 0.53249 0.75657 0.0
H314 H 0.01709 0.44616 0.78716 0.0
H315 H 0.02532 0.44089 0.71059 0.0
H316 H 0.98052 0.47902 0.34279 0.0
H317 H 0.98763 0.47366 0.26559 0.0
H318 H 0.99328 0.55994 0.23497 0.0
H319 H 0.98528 0.56527 0.31163 0.0
H320 H 0.08004 0.06963 0.52414 0.0
H321 H 0.11034 0.1016 0.48937 0.0
H322 H 0.08789 0.07293 0.36094 0.0
H323 H 0.05636 0.04228 0.39498 0.0
H324 H 0.15279 0.09907 0.44983 0.0
H325 H 0.07284 0.15052 0.32312 0.0
H326 H 0.06539 0.12565 0.36817 0.0
H327 H 0.0756 0.11546 0.3173 0.0
C328 C 0.08164 0.07018 0.48849 0.0
C329 C 0.06562 0.05376 0.46211 0.0
C330 C 0.09896 0.08845 0.46862 0.0
C331 C 0.1009 0.09032 0.42214 0.0
C332 C 0.08601 0.07274 0.3964 0.0
H333 H 0.22922 0.17429 0.29352 0.0
H334 H 0.20269 0.14106 0.33452 0.0
C335 C 0.06817 0.05502 0.41597 0.0
C336 C 0.11819 0.11083 0.40055 0.0
H337 H 0.11802 0.16035 0.31143 0.0
C338 C 0.14512 0.11263 0.41975 0.0
C339 C 0.10814 0.12901 0.36184 0.0
C340 C 0.07884 0.13028 0.34176 0.0
C341 C 0.16229 0.13175 0.40107 0.0
C342 C 0.15264 0.14884 0.36083 0.0
C343 C 0.12565 0.14715 0.34195 0.0
C344 C 0.16972 0.16905 0.33793 0.0
C345 C 0.19026 0.13389 0.42558 0.0
C346 C 0.15988 0.19572 0.32492 0.0
C347 C 0.17456 0.21436 0.30008 0.0
C348 C 0.19965 0.2069 0.28847 0.0
C349 C 0.20998 0.18054 0.30244 0.0
C350 C 0.19492 0.16162 0.32628 0.0
H351 H 0.19118 0.12648 0.46214 0.0
H352 H 0.20457 0.1212 0.41141 0.0
H353 H 0.19704 0.15499 0.42198 0.0
H354 H 0.14059 0.20209 0.33347 0.0
H355 H 0.16625 0.23464 0.28992 0.0
H356 H 0.07146 0.97006 0.56308 0.0
H357 H 0.10156 0.93479 0.60737 0.0
H358 H 0.0528 0.87395 0.55073 0.0
H359 H 0.02255 0.90924 0.50612 0.0
H360 H 0.08653 0.89162 0.67134 0.0
H361 H 0.13127 0.85625 0.52802 0.0
H362 H 0.11357 0.88841 0.52306 0.0
H363 H 0.09505 0.85798 0.5231 0.0
C364 C 0.06722 0.94916 0.56002 0.0
C365 C 0.04481 0.94223 0.5313 0.0
C366 C 0.08435 0.92911 0.5853 0.0
C367 C 0.07939 0.90192 0.5819 0.0
C368 C 0.05703 0.89491 0.55323 0.0
H369 H 0.16304 0.76887 0.76533 0.0
H370 H 0.12767 0.79896 0.72057 0.0
C371 C 0.03982 0.915 0.52794 0.0
C372 C 0.09767 0.88102 0.6089 0.0
H373 H 0.14578 0.83361 0.60081 0.0
C374 C 0.09938 0.87876 0.65607 0.0
C375 C 0.1144 0.86457 0.5885 0.0
C376 C 0.11375 0.86692 0.5379 0.0
C377 C 0.11783 0.86058 0.68365 0.0
C378 C 0.13464 0.84421 0.66325 0.0
C379 C 0.13265 0.84619 0.61607 0.0
C380 C 0.1556 0.82602 0.69029 0.0
C381 C 0.11988 0.85964 0.73427 0.0
C382 C 0.1828 0.8313 0.68744 0.0
C383 C 0.2029 0.81427 0.71281 0.0
C384 C 0.19601 0.79163 0.74107 0.0
C385 C 0.16877 0.78632 0.74388 0.0
C386 C 0.14863 0.80343 0.71849 0.0
H387 H 0.10892 0.87695 0.74424 0.0
H388 H 0.11105 0.84078 0.74866 0.0
H389 H 0.1413 0.85962 0.74942 0.0
H390 H 0.18844 0.8487 0.66574 0.0
H391 H 0.2238 0.81877 0.71021 0.0
H392 H 0.29331 0.80451 0.87799 0.0
H393 H 0.32244 0.83673 0.91332 0.0
H394 H 0.35517 0.85791 0.78798 0.0
H395 H 0.32463 0.82699 0.75184 0.0
H396 H 0.37259 0.83663 0.93143 0.0
H397 H 0.34523 0.93116 0.81789 0.0
H398 H 0.32602 0.90119 0.81392 0.0
H399 H 0.35615 0.90565 0.78696 0.0
C400 C 0.30641 0.81641 0.85782 0.0
C401 C 0.3066 0.81342 0.81211 0.0
C402 C 0.32312 0.83481 0.87804 0.0
C403 C 0.34086 0.85024 0.85331 0.0
C404 C 0.3411 0.8471 0.80757 0.0
H405 H 0.48594 0.91194 0.99064 0.0
H406 H 0.45248 0.88605 0.9494 0.0
C407 C 0.3238 0.82923 0.78696 0.0
C408 C 0.36026 0.86803 0.8764 0.0
H409 H 0.38695 0.9307 0.86714 0.0
C410 C 0.37543 0.8573 0.91747 0.0
C411 C 0.36387 0.89522 0.85891 0.0
C412 C 0.34671 0.90904 0.81728 0.0
C413 C 0.39418 0.87268 0.94111 0.0
C414 C 0.3991 0.89925 0.9221 0.0
C415 C 0.38362 0.91021 0.88145 0.0
C416 C 0.42006 0.91595 0.94405 0.0
C417 C 0.40788 0.86035 0.98686 0.0
C418 C 0.41364 0.94219 0.95228 0.0
C419 C 0.43311 0.95741 0.97456 0.0
C420 C 0.45917 0.94647 0.98957 0.0
C421 C 0.46582 0.92062 0.98017 0.0
C422 C 0.44661 0.90572 0.95693 0.0
H423 H 0.3954 0.84465 1.00287 0.0
H424 H 0.42727 0.85047 0.9828 0.0
H425 H 0.412 0.87578 1.01006 0.0
H426 H 0.39342 0.95072 0.94233 0.0
H427 H 0.42756 0.97739 0.98121 0.0
H428 H 0.46344 0.04088 0.13524 0.0
H429 H 0.43246 0.07011 0.1654 0.0
H430 H 0.3968 0.10011 0.03004 0.0
H431 H 0.42721 0.07044 0.9997 0.0
H432 H 0.42571 0.12339 0.15727 0.0
H433 H 0.32978 0.08271 0.08568 0.0
H434 H 0.36195 0.06616 0.08487 0.0
H435 H 0.35044 0.09434 0.04311 0.0
C436 C 0.44888 0.05352 0.11176 0.0
C437 C 0.44784 0.05297 0.06485 0.0
C438 C 0.43112 0.07035 0.12916 0.0
C439 C 0.41171 0.08715 0.10028 0.0
C440 C 0.41089 0.0869 0.0534 0.0
H441 H 0.29398 0.21114 0.13928 0.0
H442 H 0.32386 0.18062 0.10929 0.0
C443 C 0.42853 0.06995 0.03598 0.0
C444 C 0.39299 0.10542 0.11916 0.0
H445 H 0.32643 0.12358 0.1177 0.0
C446 C 0.404 0.12322 0.14877 0.0
C447 C 0.36451 0.10548 0.10837 0.0
C448 C 0.35093 0.08597 0.07915 0.0
C449 C 0.3876 0.1412 0.16691 0.0
C450 C 0.35918 0.14139 0.1558 0.0
C451 C 0.34814 0.12363 0.12625 0.0
C452 C 0.34064 0.15983 0.17446 0.0
C453 C 0.40093 0.16035 0.19707 0.0
C454 C 0.33958 0.15826 0.22121 0.0
C455 C 0.32234 0.17565 0.23855 0.0
C456 C 0.30562 0.19518 0.20965 0.0
C457 C 0.30651 0.19649 0.16278 0.0
C458 C 0.32364 0.17897 0.14547 0.0
H459 H 0.42263 0.16249 0.19328 0.0
H460 H 0.39079 0.1806 0.18963 0.0
H461 H 0.39945 0.15252 0.23281 0.0
H462 H 0.35202 0.14342 0.24443 0.0
H463 H 0.32229 0.17386 0.27476 0.0
H464 H 0.91613 0.95799 0.5099 0.0
H465 H 0.8835 0.92766 0.54185 0.0
H466 H 0.93198 0.92056 0.67201 0.0
H467 H 0.9646 0.95091 0.64062 0.0
H468 H 0.89366 0.87414 0.58324 0.0
H469 H 0.85583 0.93821 0.70066 0.0
H470 H 0.87401 0.95158 0.65503 0.0
H471 H 0.89193 0.93466 0.7067 0.0
C472 C 0.91975 0.95021 0.54544 0.0
C473 C 0.94299 0.95699 0.57269 0.0
C474 C 0.90108 0.93284 0.5636 0.0
C475 C 0.90513 0.92214 0.60942 0.0
C476 C 0.92819 0.92899 0.63676 0.0
H477 H 0.84932 0.78063 0.7557 0.0
H478 H 0.87353 0.81549 0.71396 0.0
C479 C 0.94691 0.94625 0.61864 0.0
C480 C 0.88602 0.90273 0.62826 0.0
H481 H 0.8453 0.89159 0.71127 0.0
C482 C 0.88287 0.87806 0.61092 0.0
C483 C 0.8717 0.908 0.66399 0.0
C484 C 0.87328 0.93465 0.68247 0.0
C485 C 0.86662 0.85809 0.6296 0.0
C486 C 0.85339 0.86284 0.66681 0.0
C487 C 0.85565 0.88792 0.68296 0.0
C488 C 0.8383 0.84153 0.69088 0.0
C489 C 0.86387 0.83195 0.60962 0.0
C490 C 0.81049 0.84478 0.69225 0.0
C491 C 0.79657 0.82482 0.71611 0.0
C492 C 0.81036 0.8015 0.73936 0.0
C493 C 0.83818 0.79838 0.73802 0.0
C494 C 0.85201 0.8182 0.714 0.0
H495 H 0.86928 0.83409 0.57469 0.0
H496 H 0.87766 0.81639 0.63063 0.0
H497 H 0.84298 0.8247 0.6091 0.0
H498 H 0.79959 0.86274 0.67484 0.0
H499 H 0.77514 0.82777 0.71679 0.0
H500 H 0.98734 0.10157 0.52569 0.0
H501 H 0.95825 0.1367 0.47802 0.0
H502 H 0.90839 0.07555 0.4248 0.0
H503 H 0.9373 0.04046 0.47214 0.0
H504 H 0.9253 0.11672 0.35869 0.0
H505 H 0.87969 0.15736 0.49686 0.0
H506 H 0.9159 0.15461 0.50274 0.0
H507 H 0.89659 0.12466 0.50462 0.0
C508 C 0.97005 0.09573 0.50399 0.0
C509 C 0.96443 0.06845 0.50241 0.0
C510 C 0.95353 0.11572 0.47693 0.0
C511 C 0.93123 0.10857 0.44828 0.0
C512 C 0.92559 0.08134 0.44678 0.0
H513 H 0.7874 0.1874 0.31296 0.0
H514 H 0.82337 0.15908 0.35919 0.0
C515 C 0.94203 0.06139 0.47381 0.0
C516 C 0.91362 0.12931 0.41945 0.0
H517 H 0.86535 0.17752 0.42254 0.0
C518 C 0.91234 0.13025 0.37248 0.0
C519 C 0.89678 0.14665 0.43795 0.0
C520 C 0.89704 0.1458 0.48829 0.0
C521 C 0.89406 0.1478 0.34327 0.0
C522 C 0.87696 0.16487 0.3618 0.0
C523 C 0.87869 0.16439 0.40873 0.0
C524 C 0.85569 0.18194 0.3332 0.0
C525 C 0.89237 0.14724 0.293 0.0
C526 C 0.86217 0.20404 0.30345 0.0
C527 C 0.84168 0.22024 0.27703 0.0
C528 C 0.81457 0.21448 0.28035 0.0
C529 C 0.80819 0.19223 0.30993 0.0
C530 C 0.82863 0.17612 0.33633 0.0
H531 H 0.90398 0.12986 0.28468 0.0
H532 H 0.87105 0.14625 0.27782 0.0
H533 H 0.90062 0.16605 0.27718 0.0
H534 H 0.88302 0.2089 0.3011 0.0
H535 H 0.84701 0.23741 0.25453 0.0
H536 H 0.70433 0.16481 0.27613 0.0
H537 H 0.67473 0.13188 0.2431 0.0
H538 H 0.66657 0.18181 0.11422 0.0
H539 H 0.69606 0.21468 0.1466 0.0
H540 H 0.62064 0.14088 0.20043 0.0
H541 H 0.68762 0.10676 0.08401 0.0
H542 H 0.69984 0.12455 0.13075 0.0
H543 H 0.68312 0.14273 0.07914 0.0
C544 C 0.69641 0.16869 0.24067 0.0
C545 C 0.7027 0.19238 0.21403 0.0
C546 C 0.67946 0.14986 0.22189 0.0
C547 C 0.66875 0.15421 0.17607 0.0
C548 C 0.675 0.17779 0.14944 0.0
H549 H 0.53043 0.09587 0.02371 0.0
H550 H 0.5639 0.12072 0.06729 0.0
C551 C 0.69179 0.19666 0.16816 0.0
C552 C 0.65016 0.13475 0.15621 0.0
H553 H 0.64137 0.09515 0.07135 0.0
C554 C 0.62527 0.13065 0.17253 0.0
C555 C 0.65636 0.12116 0.12016 0.0
C556 C 0.68329 0.12377 0.10269 0.0
C557 C 0.60597 0.1142 0.1525 0.0
C558 C 0.61164 0.10174 0.11496 0.0
C559 C 0.63696 0.10492 0.09986 0.0
C560 C 0.59113 0.08631 0.08968 0.0
C561 C 0.57958 0.11041 0.17147 0.0
C562 C 0.59554 0.05879 0.08718 0.0
C563 C 0.57641 0.04454 0.06223 0.0
C564 C 0.55273 0.05767 0.03902 0.0
C565 C 0.54847 0.08523 0.04135 0.0
C566 C 0.56748 0.09941 0.06646 0.0
H567 H 0.58107 0.11529 0.20667 0.0
H568 H 0.56389 0.12403 0.15045 0.0
H569 H 0.57291 0.08937 0.17096 0.0
H570 H 0.61375 0.04836 0.10459 0.0
H571 H 0.58027 0.02334 0.06073 0.0
H572 H 0.71689 0.79354 0.88621 0.0
H573 H 0.68714 0.8239 0.91675 0.0
H574 H 0.65862 0.86153 0.78201 0.0
H575 H 0.68824 0.83124 0.75111 0.0
H576 H 0.68471 0.88089 0.90892 0.0
H577 H 0.58819 0.84243 0.83369 0.0
H578 H 0.61998 0.82427 0.83686 0.0
H579 H 0.61125 0.85249 0.79398 0.0
C580 C 0.7043 0.80824 0.86291 0.0
C581 C 0.70507 0.80972 0.81597 0.0
C582 C 0.68725 0.82567 0.88054 0.0
C583 C 0.6702 0.8449 0.85183 0.0
C584 C 0.67111 0.84663 0.80502 0.0
H585 H 0.54807 0.96393 0.89269 0.0
H586 H 0.57888 0.93469 0.86225 0.0
C587 C 0.68827 0.82931 0.78735 0.0
C588 C 0.65179 0.86328 0.87086 0.0
H589 H 0.58537 0.88141 0.87008 0.0
C590 C 0.66298 0.88091 0.90054 0.0
C591 C 0.62336 0.86356 0.85997 0.0
C592 C 0.60987 0.84454 0.82971 0.0
C593 C 0.64674 0.89902 0.91874 0.0
C594 C 0.61824 0.89918 0.90814 0.0
C595 C 0.60709 0.8815 0.87843 0.0
C596 C 0.59966 0.91746 0.92724 0.0
C597 C 0.66046 0.91839 0.94809 0.0
C598 C 0.60055 0.91764 0.97416 0.0
C599 C 0.583 0.9346 0.99176 0.0
C600 C 0.56372 0.95167 0.96301 0.0
C601 C 0.56261 0.95122 0.91607 0.0
C602 C 0.58028 0.93438 0.89851 0.0
H603 H 0.68161 0.92159 0.94149 0.0
H604 H 0.64953 0.93824 0.94255 0.0
H605 H 0.66097 0.90994 0.98409 0.0
H606 H 0.61463 0.90435 0.99742 0.0
H607 H 0.58437 0.93405 0.02805 0.0
H608 H 0.54716 0.55723 0.89117 0.0
H609 H 0.58026 0.58715 0.86032 0.0
H610 H 0.62891 0.57845 0.99042 0.0
H611 H 0.59578 0.54844 0.02186 0.0
H612 H 0.61946 0.63264 0.94893 0.0
H613 H 0.65625 0.56762 0.83195 0.0
H614 H 0.62017 0.57154 0.82613 0.0
H615 H 0.63808 0.55464 0.87783 0.0
C616 C 0.56497 0.56146 0.91328 0.0
C617 C 0.56882 0.55033 0.95904 0.0
C618 C 0.58396 0.57848 0.89546 0.0
C619 C 0.60722 0.58473 0.92291 0.0
C620 C 0.61117 0.57371 0.96858 0.0
H621 H 0.73743 0.67745 0.81264 0.0
H622 H 0.71312 0.64294 0.8558 0.0
C623 C 0.59223 0.55653 0.98645 0.0
C624 C 0.62667 0.60376 0.90417 0.0
H625 H 0.66714 0.61414 0.82069 0.0
C626 C 0.63013 0.62849 0.92124 0.0
C627 C 0.64083 0.59818 0.86841 0.0
C628 C 0.63891 0.57146 0.85022 0.0
C629 C 0.64645 0.64825 0.90215 0.0
C630 C 0.65945 0.64321 0.86483 0.0
C631 C 0.65696 0.61804 0.84906 0.0
C632 C 0.6745 0.66433 0.84018 0.0
C633 C 0.64948 0.67448 0.92176 0.0
C634 C 0.66079 0.68761 0.81686 0.0
C635 C 0.67454 0.70717 0.79212 0.0
C636 C 0.70228 0.70384 0.79025 0.0
C637 C 0.71606 0.68056 0.81371 0.0
C638 C 0.70222 0.66086 0.83828 0.0
H639 H 0.64428 0.67255 0.9568 0.0
H640 H 0.67041 0.68161 0.92187 0.0
H641 H 0.63569 0.69005 0.90076 0.0
H642 H 0.63932 0.69047 0.81729 0.0
H643 H 0.66341 0.7249 0.77431 0.0
H644 H 0.65566 0.26879 0.28127 0.0
H645 H 0.6195 0.29542 0.23146 0.0
H646 H 0.67874 0.34597 0.17375 0.0
H647 H 0.71481 0.31968 0.2234 0.0
H648 H 0.60939 0.3535 0.22355 0.0
H649 H 0.63216 0.3186 0.06421 0.0
H650 H 0.64367 0.30039 0.11923 0.0
H651 H 0.66106 0.32954 0.0982 0.0
C652 C 0.66086 0.28568 0.25805 0.0
C653 C 0.68788 0.29217 0.25569 0.0
C654 C 0.64029 0.30072 0.22967 0.0
C655 C 0.64667 0.32219 0.19857 0.0
C656 C 0.6736 0.32907 0.19702 0.0
H657 H 0.57215 0.46464 0.0578 0.0
H658 H 0.59775 0.42814 0.10753 0.0
C659 C 0.6941 0.31417 0.22546 0.0
C660 C 0.62529 0.3381 0.16828 0.0
H661 H 0.60459 0.35893 0.05691 0.0
C662 C 0.60795 0.35441 0.18713 0.0
C663 C 0.62341 0.33883 0.12093 0.0
C664 C 0.6409 0.32072 0.09935 0.0
C665 C 0.58975 0.3728 0.15952 0.0
C666 C 0.5892 0.37484 0.11219 0.0
C667 C 0.60535 0.35736 0.09332 0.0
C668 C 0.57367 0.3965 0.08194 0.0
C669 C 0.57179 0.39044 0.18109 0.0
C670 C 0.55227 0.3905 0.05039 0.0
C671 C 0.53763 0.41131 0.02196 0.0
C672 C 0.54446 0.43821 0.02471 0.0
C673 C 0.56639 0.44404 0.05542 0.0
C674 C 0.58089 0.4233 0.08391 0.0
H675 H 0.5694 0.38162 0.21609 0.0
H676 H 0.58091 0.41043 0.18264 0.0
H677 H 0.55154 0.39359 0.16099 0.0
H678 H 0.54671 0.36982 0.04827 0.0
H679 H 0.52079 0.4064 0.99838 0.0
H680 H 0.93027 0.48361 0.46331 0.0
H681 H 0.89512 0.45865 0.42287 0.0
H682 H 0.94198 0.38477 0.46549 0.0
H683 H 0.97708 0.40952 0.5056 0.0
H684 H 0.92036 0.39311 0.37148 0.0
H685 H 0.843 0.40621 0.48523 0.0
H686 H 0.85811 0.43635 0.46197 0.0
H687 H 0.87831 0.41176 0.50111 0.0
C688 C 0.93304 0.46206 0.4639 0.0
C689 C 0.95633 0.44845 0.48772 0.0
C690 C 0.91293 0.44782 0.441 0.0
C691 C 0.91583 0.41981 0.44159 0.0
C692 C 0.9393 0.40635 0.46471 0.0
H693 H 0.80778 0.2928 0.38978 0.0
H694 H 0.83883 0.32505 0.42053 0.0
C695 C 0.9593 0.42051 0.4877 0.0
C696 C 0.8945 0.40424 0.41849 0.0
H697 H 0.83067 0.38183 0.42416 0.0
C698 C 0.90065 0.39081 0.38268 0.0
C699 C 0.86893 0.4011 0.43354 0.0
C700 C 0.86159 0.41442 0.47276 0.0
C701 C 0.88201 0.37408 0.36179 0.0
C702 C 0.85646 0.37086 0.37693 0.0
C703 C 0.8502 0.3845 0.41245 0.0
C704 C 0.83662 0.35213 0.35813 0.0
C705 C 0.8901 0.35923 0.32473 0.0
C706 C 0.82471 0.35687 0.31295 0.0
C707 C 0.80684 0.33846 0.29518 0.0
C708 C 0.80058 0.31495 0.3223 0.0
C709 C 0.81218 0.3106 0.36781 0.0
C710 C 0.82991 0.32905 0.38554 0.0
H711 H 0.91211 0.35996 0.32282 0.0
H712 H 0.88438 0.33782 0.32996 0.0
H713 H 0.87936 0.36858 0.2918 0.0
H714 H 0.82935 0.37475 0.29138 0.0
H715 H 0.79826 0.3425 0.26005 0.0
H716 H 0.82542 0.6745 0.77709 0.0
H717 H 0.85518 0.64477 0.74522 0.0
H718 H 0.82354 0.68102 0.61096 0.0
H719 H 0.79437 0.71122 0.64249 0.0
H720 H 0.84619 0.60662 0.69119 0.0
H721 H 0.90226 0.68665 0.60216 0.0
H722 H 0.87995 0.69365 0.64212 0.0
H723 H 0.86662 0.69002 0.58485 0.0
C724 C 0.82482 0.67626 0.74075 0.0
C725 C 0.80746 0.69555 0.71256 0.0
C726 C 0.84192 0.65915 0.72248 0.0
C727 C 0.84226 0.66082 0.67549 0.0
C728 C 0.82448 0.67967 0.64729 0.0
H729 H 0.92651 0.57123 0.49897 0.0
H730 H 0.89633 0.60056 0.53087 0.0
C731 C 0.80753 0.69688 0.6655 0.0
C732 C 0.86072 0.64257 0.65608 0.0
H733 H 0.909 0.64217 0.58467 0.0
C734 C 0.86002 0.6145 0.66813 0.0
C735 C 0.87896 0.65254 0.62584 0.0
C736 C 0.88225 0.68236 0.61331 0.0
C737 C 0.87642 0.59634 0.65035 0.0
C738 C 0.89444 0.60632 0.61985 0.0
C739 C 0.89518 0.63435 0.60778 0.0
C740 C 0.91283 0.58808 0.60047 0.0
C741 C 0.87386 0.56649 0.66364 0.0
C742 C 0.93254 0.57132 0.62865 0.0
C743 C 0.94995 0.55455 0.61045 0.0
C744 C 0.9482 0.55399 0.56344 0.0
C745 C 0.92849 0.57089 0.53527 0.0
C746 C 0.91118 0.58779 0.55352 0.0
H747 H 0.85467 0.56187 0.67755 0.0
H748 H 0.8749 0.55529 0.63431 0.0
H749 H 0.89074 0.55905 0.69008 0.0
H750 H 0.93473 0.57143 0.66487 0.0
H751 H 0.96489 0.54205 0.63341 0.0
H752 H 0.34872 0.27936 0.25111 0.0
H753 H 0.37364 0.31371 0.20954 0.0
H754 H 0.30031 0.36169 0.16829 0.0
H755 H 0.27521 0.32734 0.21024 0.0
H756 H 0.36472 0.33509 0.11537 0.0
H757 H 0.35425 0.41302 0.22906 0.0
H758 H 0.34817 0.37788 0.24533 0.0
H759 H 0.32363 0.39841 0.20659 0.0
C760 C 0.3379 0.29723 0.23317 0.0
C761 C 0.31007 0.30078 0.23404 0.0
C762 C 0.35213 0.31678 0.20934 0.0
C763 C 0.33888 0.34035 0.18622 0.0
C764 C 0.31097 0.34379 0.1864 0.0
H765 H 0.41737 0.45608 1.00294 0.0
H766 H 0.38462 0.42562 0.03441 0.0
C767 C 0.29666 0.32413 0.21016 0.0
C768 C 0.35457 0.3613 0.16252 0.0
H769 H 0.37829 0.42466 0.16735 0.0
C770 C 0.36751 0.35478 0.1264 0.0
C771 C 0.35835 0.38685 0.17735 0.0
C772 C 0.34557 0.39455 0.2169 0.0
C773 C 0.38442 0.37302 0.10502 0.0
C774 C 0.3883 0.39852 0.12 0.0
C775 C 0.3751 0.40517 0.15577 0.0
C776 C 0.40741 0.41784 0.10098 0.0
C777 C 0.39877 0.36455 0.06767 0.0
C778 C 0.43076 0.42401 0.12823 0.0
C779 C 0.44949 0.44137 0.11045 0.0
C780 C 0.44515 0.45312 0.06502 0.0
C781 C 0.4214 0.44735 0.03801 0.0
C782 C 0.4027 0.42985 0.05585 0.0
H783 H 0.39744 0.34258 0.06569 0.0
H784 H 0.38949 0.37551 0.03486 0.0
H785 H 0.42036 0.36971 0.07262 0.0
H786 H 0.43474 0.41499 0.16318 0.0
H787 H 0.46747 0.44538 0.13233 0.0
H788 H 0.49092 0.59761 0.02631 0.0
H789 H 0.46292 0.63373 0.97888 0.0
H790 H 0.41296 0.57429 0.92058 0.0
H791 H 0.44069 0.53826 0.9677 0.0
H792 H 0.43333 0.61607 0.85746 0.0
H793 H 0.3829 0.65517 0.99215 0.0
H794 H 0.41908 0.65104 1.00127 0.0
H795 H 0.39868 0.62193 0.99972 0.0
C796 C 0.47381 0.59236 1.0036 0.0
C797 C 0.46787 0.5653 1.00042 0.0
C798 C 0.45792 0.61291 0.97668 0.0
C799 C 0.43597 0.60649 0.94656 0.0
C800 C 0.42991 0.57949 0.94371 0.0
H801 H 0.29513 0.68465 0.80071 0.0
H802 H 0.33034 0.65678 0.84979 0.0
C803 C 0.44569 0.55901 0.97061 0.0
C804 C 0.41934 0.62774 0.91716 0.0
H805 H 0.37004 0.67538 0.91743 0.0
C806 C 0.41969 0.62932 0.87042 0.0
C807 C 0.40162 0.64471 0.93461 0.0
C808 C 0.40027 0.64319 0.98465 0.0
C809 C 0.40207 0.64705 0.8403 0.0
C810 C 0.38395 0.66363 0.85771 0.0
C811 C 0.38414 0.6626 0.90451 0.0
C812 C 0.36315 0.6806 0.82785 0.0
C813 C 0.40209 0.64712 0.79017 0.0
C814 C 0.37016 0.70308 0.79945 0.0
C815 C 0.3501 0.719 0.77141 0.0
C816 C 0.3229 0.7126 0.77177 0.0
C817 C 0.31599 0.68999 0.80002 0.0
C818 C 0.336 0.67414 0.82804 0.0
H819 H 0.41446 0.6301 0.78239 0.0
H820 H 0.3812 0.64593 0.77311 0.0
H821 H 0.41046 0.66624 0.77579 0.0
H822 H 0.39106 0.7084 0.79932 0.0
H823 H 0.35583 0.73646 0.74998 0.0
H824 H 0.20513 0.71226 0.63185 0.0
H825 H 0.17398 0.68026 0.60047 0.0
H826 H 0.18105 0.63136 0.73023 0.0
H827 H 0.21216 0.66334 0.76217 0.0
H828 H 0.18083 0.62345 0.59764 0.0
H829 H 0.09889 0.64762 0.69637 0.0
H830 H 0.12729 0.66899 0.69007 0.0
H831 H 0.13118 0.6383 0.72856 0.0
C832 C 0.20019 0.69467 0.65379 0.0
C833 C 0.21107 0.6905 0.69968 0.0
C834 C 0.1824 0.67636 0.63572 0.0
C835 C 0.17494 0.65362 0.66313 0.0
C836 C 0.18624 0.649 0.70864 0.0
H837 H 0.08037 0.52247 0.55905 0.0
H838 H 0.11574 0.54744 0.59894 0.0
C839 C 0.20413 0.66725 0.72676 0.0
C840 C 0.15489 0.63517 0.6441 0.0
H841 H 0.09064 0.61381 0.64895 0.0
C842 C 0.16117 0.62116 0.60902 0.0
C843 C 0.12918 0.63245 0.65879 0.0
C844 C 0.12101 0.64775 0.69527 0.0
C845 C 0.14234 0.60464 0.588 0.0
C846 C 0.11664 0.60192 0.60271 0.0
C847 C 0.11044 0.61576 0.63802 0.0
C848 C 0.09523 0.58635 0.57979 0.0
C849 C 0.14973 0.59091 0.54923 0.0
C850 C 0.07178 0.59985 0.55666 0.0
C851 C 0.05164 0.58568 0.53404 0.0
C852 C 0.05446 0.55769 0.53438 0.0
C853 C 0.07772 0.54406 0.55819 0.0
C854 C 0.09797 0.5583 0.58075 0.0
H855 H 0.16836 0.59895 0.5367 0.0
H856 H 0.15318 0.56903 0.56057 0.0
H857 H 0.13306 0.59337 0.52079 0.0
H858 H 0.06922 0.62146 0.55561 0.0
H859 H 0.03388 0.5967 0.51613 0.0
H860 H 0.21623 0.29509 0.38149 0.0
H861 H 0.18644 0.32546 0.4119 0.0
H862 H 0.15783 0.36284 0.27705 0.0
H863 H 0.18752 0.33253 0.24627 0.0
H864 H 0.18385 0.38252 0.40368 0.0
H865 H 0.08746 0.34344 0.32906 0.0
H866 H 0.11931 0.32539 0.33234 0.0
H867 H 0.11051 0.35353 0.28934 0.0
C868 C 0.20364 0.30975 0.35813 0.0
C869 C 0.20439 0.31115 0.31121 0.0
C870 C 0.18656 0.32718 0.37569 0.0
C871 C 0.16945 0.34633 0.34692 0.0
C872 C 0.17037 0.348 0.30011 0.0
H873 H 0.04661 0.4644 0.38909 0.0
H874 H 0.07743 0.4354 0.35817 0.0
C875 C 0.18757 0.33068 0.28251 0.0
C876 C 0.15098 0.36466 0.36591 0.0
H877 H 0.08448 0.38226 0.36575 0.0
C878 C 0.16211 0.38238 0.39548 0.0
C879 C 0.12255 0.36473 0.35526 0.0
C880 C 0.10913 0.34562 0.32508 0.0
C881 C 0.14581 0.40036 0.41383 0.0
C882 C 0.1173 0.40027 0.40353 0.0
C883 C 0.10621 0.38253 0.37389 0.0
C884 C 0.09866 0.41836 0.42292 0.0
C885 C 0.15947 0.41985 0.44301 0.0
C886 C 0.09979 0.41853 0.46987 0.0
C887 C 0.08225 0.43536 0.48774 0.0
C888 C 0.06273 0.4523 0.45925 0.0
C889 C 0.06136 0.45181 0.41228 0.0
C890 C 0.07902 0.4351 0.39444 0.0
H891 H 0.18053 0.42326 0.43609 0.0
H892 H 0.14835 0.43959 0.43764 0.0
H893 H 0.16022 0.41136 0.47904 0.0
H894 H 0.11406 0.40536 0.49295 0.0
H895 H 0.08382 0.43483 0.52405 0.0
H896 H 0.0619 0.99383 0.8606 0.0
H897 H 0.05473 0.99546 0.93899 0.0
H898 H 0.96926 0.00743 0.89766 0.0
H899 H 0.97607 0.00469 0.81935 0.0
H900 H 0.03327 0.03668 0.97655 0.0
H901 H 0.97142 0.94614 1.00021 0.0
H902 H 0.99011 0.95315 0.95278 0.0
H903 H 0.95825 0.97025 0.95291 0.0
C904 C 0.04148 0.9963 0.86815 0.0
C905 C 0.01955 0.9989 0.83343 0.0
C906 C 0.03746 0.99747 0.91305 0.0
C907 C 0.01142 1.00117 0.92444 0.0
C908 C 0.98949 0.004 0.88993 0.0
H909 H 0.94639 0.01686 0.1748 0.0
H910 H 0.9535 0.01524 0.09637 0.0
C911 C 0.99347 1.00276 0.84499 0.0
C912 C 0.00741 1.00286 0.97222 0.0
H913 H 0.97493 0.97403 0.05871 0.0
C914 C 0.02061 0.0229 0.99459 0.0
C915 C 0.99085 0.98492 0.99578 0.0
C916 C 0.97703 0.96224 0.9744 0.0
C917 C 0.01735 0.02579 0.03948 0.0
C918 C 1.0008 0.00784 0.06304 0.0
C919 C 0.98759 0.98781 0.04067 0.0
C920 C 0.99681 0.00951 0.11084 0.0
C921 C 0.03117 0.04847 0.06085 0.0
C922 C 0.01877 0.00666 0.14531 0.0
C923 C 0.01481 0.00789 0.19027 0.0
C924 C 0.98875 0.01176 0.20188 0.0
C925 C 0.9668 0.01438 0.1672 0.0
C926 C 0.97079 0.01322 0.12228 0.0
H927 H 0.03676 0.06457 0.03504 0.0
H928 H 0.01809 0.05755 0.0825 0.0
H929 H 0.04995 0.04047 0.08232 0.0
H930 H 0.03899 0.00323 0.13754 0.0
H931 H 0.03223 0.00595 0.21588 0.0
H932 H 0.25654 0.80963 0.41412 0.0
H933 H 0.25815 0.80227 0.33581 0.0
H934 H 0.25364 0.71663 0.37363 0.0
H935 H 0.25097 0.72385 0.45184 0.0
H936 H 0.29561 0.77337 0.30026 0.0
H937 H 0.19451 0.73051 0.26691 0.0
H938 H 0.20434 0.74752 0.31554 0.0
H939 H 0.2153 0.71318 0.31523 0.0
C940 C 0.25541 0.78923 0.40578 0.0
C941 C 0.25337 0.76737 0.43948 0.0
C942 C 0.25657 0.78505 0.36094 0.0
C943 C 0.25561 0.75894 0.34856 0.0
C944 C 0.25386 0.73702 0.38209 0.0
H945 H 0.26237 0.69286 0.0963 0.0
H946 H 0.26082 0.70003 0.17471 0.0
C947 C 0.25267 0.74118 0.42699 0.0
C948 C 0.25715 0.7547 0.30079 0.0
H949 H 0.22343 0.72883 0.2106 0.0
C950 C 0.27977 0.76373 0.28059 0.0
C951 C 0.23651 0.74209 0.27507 0.0
C952 C 0.21116 0.73297 0.29407 0.0
C953 C 0.28254 0.7601 0.23579 0.0
C954 C 0.26189 0.74751 0.21006 0.0
C955 C 0.23928 0.73846 0.23027 0.0
C956 C 0.26338 0.74337 0.16224 0.0
C957 C 0.30789 0.7692 0.21681 0.0
C958 C 0.26512 0.76536 0.12882 0.0
C959 C 0.26628 0.76131 0.08386 0.0
C960 C 0.26555 0.73516 0.0712 0.0
C961 C 0.26352 0.71323 0.10478 0.0
C962 C 0.26239 0.7173 0.14967 0.0
H963 H 0.32457 0.77159 0.24398 0.0
H964 H 0.31468 0.75468 0.19525 0.0
H965 H 0.30379 0.78903 0.19574 0.0
H966 H 0.26537 0.78572 0.13742 0.0
H967 H 0.26798 0.77868 0.05912 0.0
H968 H 0.45411 0.02831 0.67047 0.0
H969 H 0.45989 0.02443 0.59219 0.0
H970 H 0.53847 0.98681 0.63607 0.0
H971 H 0.53243 0.98961 0.71476 0.0
H972 H 0.49813 0.04611 0.54183 0.0
H973 H 0.5039 0.93456 0.55494 0.0
H974 H 0.49249 0.95199 0.59834 0.0
H975 H 0.52793 0.94833 0.59468 0.0
C976 C 0.47246 0.01876 0.66369 0.0
C977 C 0.49268 0.00903 0.69924 0.0
C978 C 0.47582 0.01678 0.61876 0.0
C979 C 0.49943 0.00495 0.60814 0.0
C980 C 0.51982 0.99551 0.64338 0.0
H981 H 0.55772 0.97671 0.35744 0.0
H982 H 0.55206 0.98064 0.43577 0.0
C983 C 0.51646 0.99744 0.68841 0.0
C984 C 0.50285 0.00315 0.56011 0.0
H985 H 0.51379 0.95879 0.48629 0.0
C986 C 0.50144 0.027 0.52965 0.0
C987 C 0.5072 0.97822 0.54414 0.0
C988 C 0.50773 0.95178 0.57457 0.0
C989 C 0.50472 0.02667 0.48398 0.0
C990 C 0.50906 1.00174 0.46802 0.0
C991 C 0.51049 0.97789 0.49848 0.0
C992 C 0.51244 0.99994 0.41997 0.0
C993 C 0.50416 0.0531 0.45353 0.0
C994 C 0.49195 0.00927 0.38481 0.0
C995 C 0.49523 0.0073 0.33976 0.0
C996 C 0.51903 0.99578 0.32884 0.0
C997 C 0.53935 0.98619 0.3643 0.0
C998 C 0.53606 0.9882 0.40926 0.0
H999 H 0.50795 0.07034 0.47314 0.0
H1000 H 0.51941 0.0529 0.42978 0.0
H1001 H 0.48396 0.05652 0.4334 0.0
H1002 H 0.4733 0.0179 0.3922 0.0
H1003 H 0.47919 0.01503 0.31348 0.0
H1004 H 0.21564 0.23224 0.93932 0.0
H1005 H 0.22013 0.22786 0.86055 0.0
H1006 H 0.28183 0.2871 0.86142 0.0
H1007 H 0.27749 0.29155 0.94022 0.0
H1008 H 0.21183 0.26644 0.78632 0.0
H1009 H 0.31747 0.22682 0.80959 0.0
H1010 H 0.29828 0.22791 0.85626 0.0
H1011 H 0.31346 0.25785 0.83241 0.0
C1012 C 0.2302 0.24433 0.9228 0.0
C1013 C 0.24626 0.2622 0.94626 0.0
C1014 C 0.2328 0.24174 0.87776 0.0
C1015 C 0.25157 0.25686 0.85511 0.0
C1016 C 0.26766 0.27471 0.8784 0.0
H1017 H 0.29338 0.27404 0.58103 0.0
H1018 H 0.28885 0.27843 0.65978 0.0
C1019 C 0.26515 0.27724 0.92353 0.0
C1020 C 0.25358 0.25465 0.80671 0.0
H1021 H 0.29726 0.23974 0.73406 0.0
C1022 C 0.23048 0.26046 0.77493 0.0
C1023 C 0.27792 0.24692 0.79174 0.0
C1024 C 0.30314 0.23927 0.82429 0.0
C1025 C 0.23117 0.25925 0.72865 0.0
C1026 C 0.25552 0.25153 0.71368 0.0
C1027 C 0.27861 0.24571 0.74545 0.0
C1028 C 0.25752 0.24931 0.66529 0.0
C1029 C 0.20595 0.26688 0.69609 0.0
C1030 C 0.24151 0.2314 0.64204 0.0
C1031 C 0.24405 0.22884 0.59693 0.0
C1032 C 0.26288 0.24394 0.57417 0.0
C1033 C 0.27886 0.2619 0.59758 0.0
C1034 C 0.27624 0.2645 0.64261 0.0
H1035 H 0.19158 0.27928 0.7108 0.0
H1036 H 0.2108 0.27827 0.66415 0.0
H1037 H 0.19568 0.24829 0.6879 0.0
H1038 H 0.22738 0.21897 0.65905 0.0
H1039 H 0.23177 0.21447 0.58028 0.0
H1040 H 0.74767 0.2267 0.96566 0.0
H1041 H 0.75095 0.22007 0.88733 0.0
H1042 H 0.74301 0.30591 0.84753 0.0
H1043 H 0.74072 0.31282 0.92584 0.0
H1044 H 0.71455 0.23401 0.81011 0.0
H1045 H 0.81027 0.28668 0.79382 0.0
H1046 H 0.79859 0.27702 0.84772 0.0
H1047 H 0.78463 0.30672 0.81184 0.0
C1048 C 0.74695 0.24423 0.9404 0.0
C1049 C 0.74406 0.27033 0.95237 0.0
C1050 C 0.74864 0.24037 0.8955 0.0
C1051 C 0.74768 0.2625 0.86153 0.0
C1052 C 0.74436 0.28853 0.87319 0.0
H1053 H 0.75439 0.28117 0.57106 0.0
H1054 H 0.75082 0.288 0.6492 0.0
C1055 C 0.74268 0.29241 0.91803 0.0
C1056 C 0.74967 0.25833 0.81385 0.0
H1057 H 0.78662 0.2742 0.72652 0.0
C1058 C 0.73038 0.24268 0.79191 0.0
C1059 C 0.77029 0.26972 0.78996 0.0
C1060 C 0.79228 0.28577 0.81209 0.0
C1061 C 0.73085 0.23852 0.74664 0.0
C1062 C 0.7515 0.24986 0.72277 0.0
C1063 C 0.77077 0.26553 0.7447 0.0
C1064 C 0.75357 0.24558 0.67515 0.0
C1065 C 0.70881 0.22252 0.72451 0.0
C1066 C 0.75668 0.21949 0.66363 0.0
C1067 C 0.7585 0.2155 0.61888 0.0
C1068 C 0.7575 0.23752 0.5845 0.0
C1069 C 0.75481 0.26369 0.59634 0.0
C1070 C 0.75296 0.26765 0.64114 0.0
H1071 H 0.69075 0.22184 0.74259 0.0
H1072 H 0.70265 0.23114 0.68878 0.0
H1073 H 0.71633 0.20149 0.72511 0.0
H1074 H 0.75778 0.20215 0.68932 0.0
H1075 H 0.76028 0.19505 0.61119 0.0
H1076 H 0.78133 0.78713 0.44648 0.0
H1077 H 0.78538 0.78265 0.36751 0.0
H1078 H 0.71748 0.73059 0.3627 0.0
H1079 H 0.71326 0.73499 0.44152 0.0
H1080 H 0.79401 0.73803 0.32533 0.0
H1081 H 0.69498 0.78717 0.25473 0.0
H1082 H 0.70998 0.78875 0.31205 0.0
H1083 H 0.6929 0.75909 0.29746 0.0
C1084 C 0.76739 0.77453 0.42876 0.0
C1085 C 0.74683 0.76158 0.45037 0.0
C1086 C 0.76965 0.7721 0.3835 0.0
C1087 C 0.75139 0.75675 0.35876 0.0
C1088 C 0.73134 0.74318 0.38059 0.0
H1089 H 0.73145 0.7173 0.08286 0.0
H1090 H 0.72738 0.72166 0.16186 0.0
C1091 C 0.729 0.74567 0.42576 0.0
C1092 C 0.7535 0.75471 0.31033 0.0
H1093 H 0.71863 0.76637 0.20407 0.0
C1094 C 0.77757 0.74435 0.2988 0.0
C1095 C 0.73204 0.76292 0.27562 0.0
C1096 C 0.7061 0.77534 0.2854 0.0
C1097 C 0.7806 0.74149 0.25379 0.0
C1098 C 0.75914 0.74969 0.21908 0.0
C1099 C 0.73506 0.76005 0.23061 0.0
C1100 C 0.76127 0.7477 0.17064 0.0
C1101 C 0.80655 0.72908 0.24399 0.0
C1102 C 0.78126 0.76137 0.14883 0.0
C1103 C 0.7836 0.75895 0.10363 0.0
C1104 C 0.76583 0.743 0.07899 0.0
C1105 C 0.74534 0.72993 0.10059 0.0
C1106 C 0.74307 0.73229 0.14588 0.0
H1107 H 0.81769 0.71727 0.27466 0.0
H1108 H 0.80267 0.71566 0.21736 0.0
H1109 H 0.81972 0.74534 0.23189 0.0
H1110 H 0.79508 0.77398 0.16675 0.0
H1111 H 0.79929 0.76972 0.08789 0.0
H1112 H 0.53453 0.50521 0.70954 0.0
H1113 H 0.54131 0.50234 0.63114 0.0
H1114 H 0.45553 0.51104 0.59081 0.0
H1115 H 0.44848 0.51351 0.669 0.0
H1116 H 0.52084 0.46491 0.57406 0.0
H1117 H 0.48543 0.56897 0.50299 0.0
H1118 H 0.49389 0.55872 0.56287 0.0
H1119 H 0.46198 0.55031 0.53429 0.0
C1120 C 0.51705 0.5064 0.6841 0.0
C1121 C 0.49094 0.50976 0.69584 0.0
C1122 C 0.521 0.50488 0.63919 0.0
C1123 C 0.49898 0.5069 0.60489 0.0
C1124 C 0.4729 0.51007 0.61645 0.0
H1125 H 0.47936 0.49952 0.3148 0.0
H1126 H 0.47275 0.50233 0.39329 0.0
C1127 C 0.46892 0.51153 0.6613 0.0
C1128 C 0.50319 0.50495 0.55725 0.0
H1129 H 0.49328 0.53913 0.45039 0.0
C1130 C 0.51496 0.48119 0.54706 0.0
C1131 C 0.49541 0.52616 0.52193 0.0
C1132 C 0.48369 0.55259 0.53096 0.0
C1133 C 0.5187 0.47787 0.5025 0.0
C1134 C 0.51093 0.49908 0.46718 0.0
C1135 C 0.49918 0.52285 0.47739 0.0
C1136 C 0.51505 0.49712 0.41949 0.0
C1137 C 0.53036 0.4514 0.49351 0.0
C1138 C 0.54106 0.49358 0.40785 0.0
C1139 C 0.54494 0.49211 0.36295 0.0
C1140 C 0.5229 0.49428 0.32844 0.0
C1141 C 0.49685 0.49801 0.34024 0.0
C1142 C 0.49301 0.4995 0.3852 0.0
H1143 H 0.52845 0.43501 0.52138 0.0
H1144 H 0.52024 0.44534 0.46148 0.0
H1145 H 0.55211 0.45358 0.49046 0.0
H1146 H 0.55847 0.49234 0.43346 0.0
H1147 H 0.56533 0.48983 0.35518 0.0
H1148 H 0.04099 0.45745 0.85552 0.0
H1149 H 0.03526 0.46185 0.93363 0.0
H1150 H 0.98587 0.53387 0.88874 0.0
H1151 H 0.99056 0.52902 0.81021 0.0
H1152 H 0.04963 0.50275 0.98349 0.0
H1153 H 0.93901 0.49034 0.97004 0.0
H1154 H 0.95863 0.48232 0.92688 0.0
H1155 H 0.94915 0.51675 0.93011 0.0
C1156 C 0.02851 0.474 0.86205 0.0
C1157 C 0.01602 0.49272 0.82626 0.0
C1158 C 0.02545 0.47661 0.90688 0.0
C1159 C 0.00978 0.49794 0.91716 0.0
C1160 C 0.99759 0.5169 0.88168 0.0
H1161 H 0.96917 0.54871 0.16669 0.0
H1162 H 0.97479 0.5443 0.08852 0.0
C1163 C 1.00058 0.51429 0.83675 0.0
C1164 C 0.0068 0.50057 0.96507 0.0
H1165 H 0.96033 0.50337 0.03858 0.0
C1166 C 0.03011 0.50277 0.99557 0.0
C1167 C 0.98132 0.50061 0.98091 0.0
C1168 C 0.9556 0.49713 0.95044 0.0
C1169 C 0.02864 0.5055 0.04115 0.0
C1170 C 1.00316 0.50555 0.05699 0.0
C1171 C 0.97985 0.50335 0.02649 0.0
C1172 C 1.00019 0.50816 0.10491 0.0
C1173 C 0.05436 0.50899 0.07163 0.0
C1174 C 0.01236 0.48915 0.14035 0.0
C1175 C 0.00943 0.49177 0.18531 0.0
C1176 C 0.99408 0.51338 0.19585 0.0
C1177 C 0.9816 0.53213 0.16011 0.0
C1178 C 0.98459 0.52951 0.11525 0.0
H1179 H 0.07096 0.51576 0.05203 0.0
H1180 H 0.05133 0.52381 0.09517 0.0
H1181 H 0.0608 0.48937 0.09197 0.0
H1182 H 0.02404 0.47217 0.13325 0.0
H1183 H 0.01945 0.47701 0.21181 0.0
loop_
_geom_bond_atom_site_label_1
_geom_bond_atom_site_label_2
_geom_bond_distance
_geom_bond_site_symmetry_2
_ccdc_geom_bond_type
Ho0 C3 2.811 1_655 S
Ho0 O20 2.322 1_665 S
Ho0 O22 2.378 1_655 S
Ho0 O23 2.524 1_565 S
Ho0 O24 2.381 1_655 S
Ho0 O25 2.669 1_655 S
Ho0 O27 2.346 . S
Ho0 O31 2.305 1_565 S
Ho1 C12 2.811 1_455 S
Ho1 O21 2.346 . S
Ho1 O25 2.305 1_545 S
Ho1 O26 2.322 1_445 S
Ho1 O28 2.378 1_455 S
Ho1 O29 2.524 1_545 S
Ho1 O30 2.381 1_455 S
Ho1 O31 2.669 1_455 S
C2 O20 1.259 . S
C2 O21 1.268 . S
C3 Ho0 2.811 1_455 S
C3 C4 1.488 . S
C3 O22 1.215 . S
C3 O23 1.289 1_465 S
C4 C3 1.488 . S
C4 C5 1.348 1_565 S
C4 C9 1.413 . S
C5 C4 1.348 1_545 S
C5 C6 1.442 . S
C5 H32 0.930 1_455 S
C6 C5 1.442 . S
C6 C7 1.381 . S
C6 H33 0.931 . S
C7 C6 1.381 . S
C7 C8 1.321 1_545 S
C8 C7 1.321 1_565 S
C8 C9 1.403 . S
C8 H34 0.934 . S
C9 C4 1.413 . S
C9 C8 1.403 . S
C9 H35 0.930 . S
C10 O24 1.275 . S
C10 O25 1.256 . S
C11 O26 1.259 . S
C11 O27 1.268 . S
C12 Ho1 2.811 1_655 S
C12 C13 1.488 . S
C12 O28 1.215 . S
C12 O29 1.289 1_645 S
C13 C12 1.488 . S
C13 C14 1.348 1_545 S
C13 C18 1.413 . S
C14 C13 1.348 1_565 S
C14 C15 1.442 . S
C14 H36 0.930 1_655 S
C15 C14 1.442 . S
C15 C16 1.381 . S
C15 H37 0.931 . S
C16 C15 1.381 . S
C16 C17 1.321 1_565 S
C17 C16 1.321 1_545 S
C17 C18 1.403 . S
C17 H38 0.934 . S
C18 C13 1.413 . S
C18 C17 1.403 . S
C18 H39 0.930 . S
C19 O30 1.275 . S
C19 O31 1.256 . S
O20 Ho0 2.322 1_445 S
O20 C2 1.259 . S
O21 Ho1 2.346 . S
O21 C2 1.268 . S
O22 Ho0 2.378 1_455 S
O22 C3 1.215 . S
O23 Ho0 2.524 1_545 S
O23 C3 1.289 1_645 S
O24 Ho0 2.381 1_455 S
O24 C10 1.275 . S
O25 Ho0 2.669 1_455 S
O25 Ho1 2.305 1_565 S
O25 C10 1.256 . S
O26 Ho1 2.322 1_665 S
O26 C11 1.259 . S
O27 Ho0 2.346 . S
O27 C11 1.268 . S
O28 Ho1 2.378 1_655 S
O28 C12 1.215 . S
O29 Ho1 2.524 1_565 S
O29 C12 1.289 1_465 S
O30 Ho1 2.381 1_655 S
O30 C19 1.275 . S
O31 Ho0 2.305 1_545 S
O31 Ho1 2.669 1_655 S
O31 C19 1.256 . S
H32 C5 0.930 1_655 S
H33 C6 0.931 . S
H34 C8 0.934 . S
H35 C9 0.930 . S
H36 C14 0.930 1_455 S
H37 C15 0.931 . S
H38 C17 0.934 . S
H39 C18 0.930 . S
Ho40 C43 2.811 . S
Ho40 O60 2.322 . S
Ho40 O62 2.378 . S
Ho40 O63 2.524 . S
Ho40 O64 2.381 . S
Ho40 O65 2.669 . S
Ho40 O67 2.346 . S
Ho40 O71 2.305 . S
Ho41 C52 2.811 . S
Ho41 O61 2.346 . S
Ho41 O65 2.305 . S
Ho41 O66 2.322 . S
Ho41 O68 2.378 . S
Ho41 O69 2.524 . S
Ho41 O70 2.381 . S
Ho41 O71 2.669 . S
C42 O60 1.259 . S
C42 O61 1.268 . S
C43 Ho40 2.811 . S
C43 C44 1.488 . S
C43 O62 1.215 . S
C43 O63 1.289 . S
C44 C43 1.488 . S
C44 C45 1.348 . S
C44 C49 1.413 . S
C45 C44 1.348 . S
C45 C46 1.442 1_556 S
C45 H72 0.930 . S
C46 C45 1.442 1_554 S
C46 C47 1.381 . S
C46 H73 0.931 . S
C47 C46 1.381 . S
C47 C48 1.321 1_554 S
C48 C47 1.321 1_556 S
C48 C49 1.403 . S
C48 H74 0.934 1_556 S
C49 C44 1.413 . S
C49 C48 1.403 . S
C49 H75 0.930 . S
C50 O64 1.275 . S
C50 O65 1.256 . S
C51 O66 1.259 . S
C51 O67 1.268 . S
C52 Ho41 2.811 . S
C52 C53 1.488 . S
C52 O68 1.215 . S
C52 O69 1.289 . S
C53 C52 1.488 . S
C53 C54 1.348 . S
C53 C58 1.413 . S
C54 C53 1.348 . S
C54 C55 1.442 . S
C54 H76 0.930 . S
C55 C54 1.442 . S
C55 C56 1.381 . S
C55 H77 0.931 . S
C56 C55 1.381 . S
C56 C57 1.321 . S
C57 C56 1.321 . S
C57 C58 1.403 . S
C57 H78 0.934 . S
C58 C53 1.413 . S
C58 C57 1.403 . S
C58 H79 0.930 . S
C59 O70 1.275 . S
C59 O71 1.256 . S
O60 Ho40 2.322 . S
O60 C42 1.259 . S
O61 Ho41 2.346 . S
O61 C42 1.268 . S
O62 Ho40 2.378 . S
O62 C43 1.215 . S
O63 Ho40 2.524 . S
O63 C43 1.289 . S
O64 Ho40 2.381 . S
O64 C50 1.275 . S
O65 Ho40 2.669 . S
O65 Ho41 2.305 . S
O65 C50 1.256 . S
O66 Ho41 2.322 . S
O66 C51 1.259 . S
O67 Ho40 2.346 . S
O67 C51 1.268 . S
O68 Ho41 2.378 . S
O68 C52 1.215 . S
O69 Ho41 2.524 . S
O69 C52 1.289 . S
O70 Ho41 2.381 . S
O70 C59 1.275 . S
O71 Ho40 2.305 . S
O71 Ho41 2.669 . S
O71 C59 1.256 . S
H72 C45 0.930 . S
H73 C46 0.931 . S
H74 C48 0.934 1_554 S
H75 C49 0.930 . S
H76 C54 0.930 . S
H77 C55 0.931 . S
H78 C57 0.934 . S
H79 C58 0.930 . S
Ho80 C83 2.811 . S
Ho80 O100 2.322 1_565 S
Ho80 O102 2.378 . S
Ho80 O103 2.497 1_565 S
Ho80 O104 2.381 . S
Ho80 O105 2.669 1_554 S
Ho80 O107 2.346 . S
Ho80 O111 2.305 1_565 S
Ho81 C92 2.811 . S
Ho81 O101 2.346 . S
Ho81 O105 2.305 1_545 S
Ho81 O106 2.322 1_545 S
Ho81 O108 2.378 . S
Ho81 O109 2.503 1_545 S
Ho81 O110 2.381 . S
Ho81 O111 2.669 1_556 S
C82 O100 1.259 . S
C82 O101 1.268 1_554 S
C83 Ho80 2.811 . S
C83 C84 1.488 . S
C83 O102 1.215 . S
C83 O103 1.259 1_565 S
C84 C83 1.488 . S
C84 C85 1.348 1_565 S
C84 C89 1.413 . S
C85 C84 1.348 1_545 S
C85 C86 1.442 . S
C85 H112 0.930 . S
C86 C85 1.442 . S
C86 C87 1.381 1_545 S
C86 H113 0.931 . S
C87 C86 1.381 1_565 S
C87 C88 1.321 . S
C88 C87 1.321 . S
C88 C89 1.403 . S
C88 H114 0.934 . S
C89 C84 1.413 . S
C89 C88 1.403 . S
C89 H115 0.930 . S
C90 O104 1.275 1_556 S
C90 O105 1.256 . S
C91 O106 1.259 . S
C91 O107 1.268 1_556 S
C92 Ho81 2.811 . S
C92 C93 1.488 . S
C92 O108 1.215 . S
C92 O109 1.266 1_545 S
C93 C92 1.488 . S
C93 C94 1.348 1_545 S
C93 C98 1.413 . S
C94 C93 1.348 1_565 S
C94 C95 1.442 . S
C94 H116 0.930 . S
C95 C94 1.442 . S
C95 C96 1.381 1_565 S
C95 H117 0.931 . S
C96 C95 1.381 1_545 S
C96 C97 1.321 . S
C97 C96 1.321 . S
C97 C98 1.403 . S
C97 H118 0.934 . S
C98 C93 1.413 . S
C98 C97 1.403 . S
C98 H119 0.930 . S
C99 O110 1.275 1_554 S
C99 O111 1.256 . S
O100 Ho80 2.322 1_545 S
O100 C82 1.259 . S
O101 Ho81 2.346 . S
O101 C82 1.268 1_556 S
O102 Ho80 2.378 . S
O102 C83 1.215 . S
O103 Ho80 2.497 1_545 S
O103 C83 1.259 1_545 S
O104 Ho80 2.381 . S
O104 C90 1.275 1_554 S
O105 Ho80 2.669 1_556 S
O105 Ho81 2.305 1_565 S
O105 C90 1.256 . S
O106 Ho81 2.322 1_565 S
O106 C91 1.259 . S
O107 Ho80 2.346 . S
O107 C91 1.268 1_554 S
O108 Ho81 2.378 . S
O108 C92 1.215 . S
O109 Ho81 2.503 1_565 S
O109 C92 1.266 1_565 S
O110 Ho81 2.381 . S
O110 C99 1.275 1_556 S
O111 Ho80 2.305 1_545 S
O111 Ho81 2.669 1_554 S
O111 C99 1.256 . S
H112 C85 0.930 . S
H113 C86 0.931 . S
H114 C88 0.934 . S
H115 C89 0.930 . S
H116 C94 0.930 . S
H117 C95 0.931 . S
H118 C97 0.934 . S
H119 C98 0.930 . S
Ho120 C123 2.811 . S
Ho120 O140 2.322 . S
Ho120 O142 2.378 . S
Ho120 O143 2.524 . S
Ho120 O144 2.381 . S
Ho120 O145 2.669 . S
Ho120 O147 2.346 . S
Ho120 O151 2.305 . S
Ho121 C132 2.811 . S
Ho121 O141 2.346 . S
Ho121 O145 2.305 . S
Ho121 O146 2.322 . S
Ho121 O148 2.378 . S
Ho121 O149 2.524 . S
Ho121 O150 2.381 . S
Ho121 O151 2.669 . S
C122 O140 1.259 . S
C122 O141 1.268 . S
C123 Ho120 2.811 . S
C123 C124 1.488 . S
C123 O142 1.215 . S
C123 O143 1.289 . S
C124 C123 1.488 . S
C124 C125 1.348 . S
C124 C129 1.413 . S
C125 C124 1.348 . S
C125 C126 1.435 1_554 S
C125 H152 0.930 . S
C126 C125 1.435 1_556 S
C126 C127 1.384 . S
C126 H153 0.934 . S
C127 C126 1.384 . S
C127 C128 1.321 . S
C128 C127 1.321 . S
C128 C129 1.403 1_556 S
C128 H154 0.934 . S
C129 C124 1.413 . S
C129 C128 1.403 1_554 S
C129 H155 0.930 . S
C130 O144 1.275 . S
C130 O145 1.256 . S
C131 O146 1.259 . S
C131 O147 1.268 . S
C132 Ho121 2.811 . S
C132 C133 1.488 . S
C132 O148 1.215 . S
C132 O149 1.289 . S
C133 C132 1.488 . S
C133 C134 1.348 . S
C133 C138 1.413 . S
C134 C133 1.348 . S
C134 C135 1.442 . S
C134 H156 0.930 . S
C135 C134 1.442 . S
C135 C136 1.381 . S
C135 H157 0.931 . S
C136 C135 1.381 . S
C136 C137 1.321 . S
C137 C136 1.321 . S
C137 C138 1.403 . S
C137 H158 0.934 . S
C138 C133 1.413 . S
C138 C137 1.403 . S
C138 H159 0.930 . S
C139 O150 1.275 . S
C139 O151 1.256 . S
O140 Ho120 2.322 . S
O140 C122 1.259 . S
O141 Ho121 2.346 . S
O141 C122 1.268 . S
O142 Ho120 2.378 . S
O142 C123 1.215 . S
O143 Ho120 2.524 . S
O143 C123 1.289 . S
O144 Ho120 2.381 . S
O144 C130 1.275 . S
O145 Ho120 2.669 . S
O145 Ho121 2.305 . S
O145 C130 1.256 . S
O146 Ho121 2.322 . S
O146 C131 1.259 . S
O147 Ho120 2.346 . S
O147 C131 1.268 . S
O148 Ho121 2.378 . S
O148 C132 1.215 . S
O149 Ho121 2.524 . S
O149 C132 1.289 . S
O150 Ho121 2.381 . S
O150 C139 1.275 . S
O151 Ho120 2.305 . S
O151 Ho121 2.669 . S
O151 C139 1.256 . S
H152 C125 0.930 . S
H153 C126 0.934 . S
H154 C128 0.934 . S
H155 C129 0.930 . S
H156 C134 0.930 . S
H157 C135 0.931 . S
H158 C137 0.934 . S
H159 C138 0.930 . S
Ho160 C163 2.811 . S
Ho160 O180 2.322 . S
Ho160 O182 2.378 . S
Ho160 O183 2.524 . S
Ho160 O184 2.381 . S
Ho160 O185 2.669 . S
Ho160 O187 2.346 . S
Ho160 O191 2.305 . S
Ho161 C172 2.811 . S
Ho161 O181 2.346 . S
Ho161 O185 2.305 . S
Ho161 O186 2.322 . S
Ho161 O188 2.378 . S
Ho161 O189 2.524 . S
Ho161 O190 2.381 . S
Ho161 O191 2.669 . S
C162 O180 1.259 . S
C162 O181 1.268 . S
C163 Ho160 2.811 . S
C163 C164 1.488 . S
C163 O182 1.215 . S
C163 O183 1.289 . S
C164 C163 1.488 . S
C164 C165 1.348 . S
C164 C169 1.413 . S
C165 C164 1.348 . S
C165 C166 1.442 . S
C165 H192 0.930 . S
C166 C165 1.442 . S
C166 C167 1.381 . S
C166 H193 0.931 . S
C167 C166 1.381 . S
C167 C168 1.321 . S
C168 C167 1.321 . S
C168 C169 1.403 . S
C168 H194 0.934 . S
C169 C164 1.413 . S
C169 C168 1.403 . S
C169 H195 0.930 . S
C170 O184 1.275 . S
C170 O185 1.256 . S
C171 O186 1.259 . S
C171 O187 1.268 . S
C172 Ho161 2.811 . S
C172 C173 1.488 . S
C172 O188 1.215 . S
C172 O189 1.289 . S
C173 C172 1.488 . S
C173 C174 1.348 . S
C173 C178 1.413 . S
C174 C173 1.348 . S
C174 C175 1.442 1_554 S
C174 H196 0.930 . S
C175 C174 1.442 1_556 S
C175 C176 1.381 . S
C175 H197 0.931 . S
C176 C175 1.381 . S
C176 C177 1.321 1_556 S
C177 C176 1.321 1_554 S
C177 C178 1.403 . S
C177 H198 0.934 1_554 S
C178 C173 1.413 . S
C178 C177 1.403 . S
C178 H199 0.930 . S
C179 O190 1.275 . S
C179 O191 1.256 . S
O180 Ho160 2.322 . S
O180 C162 1.259 . S
O181 Ho161 2.346 . S
O181 C162 1.268 . S
O182 Ho160 2.378 . S
O182 C163 1.215 . S
O183 Ho160 2.524 . S
O183 C163 1.289 . S
O184 Ho160 2.381 . S
O184 C170 1.275 . S
O185 Ho160 2.669 . S
O185 Ho161 2.305 . S
O185 C170 1.256 . S
O186 Ho161 2.322 . S
O186 C171 1.259 . S
O187 Ho160 2.346 . S
O187 C171 1.268 . S
O188 Ho161 2.378 . S
O188 C172 1.215 . S
O189 Ho161 2.524 . S
O189 C172 1.289 . S
O190 Ho161 2.381 . S
O190 C179 1.275 . S
O191 Ho160 2.305 . S
O191 Ho161 2.669 . S
O191 C179 1.256 . S
H192 C165 0.930 . S
H193 C166 0.931 . S
H194 C168 0.934 . S
H195 C169 0.930 . S
H196 C174 0.930 . S
H197 C175 0.931 . S
H198 C177 0.934 1_556 S
H199 C178 0.930 . S
Ho200 C203 2.811 . S
Ho200 O220 2.322 . S
Ho200 O222 2.378 . S
Ho200 O223 2.524 . S
Ho200 O224 2.381 . S
Ho200 O225 2.669 . S
Ho200 O227 2.346 . S
Ho200 O231 2.305 . S
Ho201 C212 2.811 . S
Ho201 O221 2.346 . S
Ho201 O225 2.305 . S
Ho201 O226 2.322 . S
Ho201 O228 2.378 . S
Ho201 O229 2.524 . S
Ho201 O230 2.381 . S
Ho201 O231 2.669 . S
C202 O220 1.259 . S
C202 O221 1.268 . S
C203 Ho200 2.811 . S
C203 C204 1.488 . S
C203 O222 1.215 . S
C203 O223 1.289 . S
C204 C203 1.488 . S
C204 C205 1.348 . S
C204 C209 1.413 . S
C205 C204 1.348 . S
C205 C206 1.442 . S
C205 H232 0.930 . S
C206 C205 1.442 . S
C206 C207 1.381 . S
C206 H233 0.931 . S
C207 C206 1.381 . S
C207 C208 1.321 . S
C208 C207 1.321 . S
C208 C209 1.403 . S
C208 H234 0.934 . S
C209 C204 1.413 . S
C209 C208 1.403 . S
C209 H235 0.930 . S
C210 O224 1.275 . S
C210 O225 1.256 . S
C211 O226 1.259 . S
C211 O227 1.268 . S
C212 Ho201 2.811 . S
C212 C213 1.488 . S
C212 O228 1.215 . S
C212 O229 1.289 . S
C213 C212 1.488 . S
C213 C214 1.348 . S
C213 C218 1.413 . S
C214 C213 1.348 . S
C214 C215 1.434 1_556 S
C214 H236 0.930 . S
C215 C214 1.434 1_554 S
C215 C216 1.384 . S
C215 H237 0.935 . S
C216 C215 1.384 . S
C216 C217 1.321 . S
C217 C216 1.321 . S
C217 C218 1.403 1_554 S
C217 H238 0.934 . S
C218 C213 1.413 . S
C218 C217 1.403 1_556 S
C218 H239 0.930 . S
C219 O230 1.275 . S
C219 O231 1.256 . S
O220 Ho200 2.322 . S
O220 C202 1.259 . S
O221 Ho201 2.346 . S
O221 C202 1.268 . S
O222 Ho200 2.378 . S
O222 C203 1.215 . S
O223 Ho200 2.524 . S
O223 C203 1.289 . S
O224 Ho200 2.381 . S
O224 C210 1.275 . S
O225 Ho200 2.669 . S
O225 Ho201 2.305 . S
O225 C210 1.256 . S
O226 Ho201 2.322 . S
O226 C211 1.259 . S
O227 Ho200 2.346 . S
O227 C211 1.268 . S
O228 Ho201 2.378 . S
O228 C212 1.215 . S
O229 Ho201 2.524 . S
O229 C212 1.289 . S
O230 Ho201 2.381 . S
O230 C219 1.275 . S
O231 Ho200 2.305 . S
O231 Ho201 2.669 . S
O231 C219 1.256 . S
H232 C205 0.930 . S
H233 C206 0.931 . S
H234 C208 0.934 . S
H235 C209 0.930 . S
H236 C214 0.930 . S
H237 C215 0.935 . S
H238 C217 0.934 . S
H239 C218 0.930 . S
Ho240 C243 2.811 . S
Ho240 O260 2.322 . S
Ho240 O262 2.378 . S
Ho240 O263 2.524 . S
Ho240 O264 2.381 . S
Ho240 O265 2.669 1_556 S
Ho240 O267 2.346 1_556 S
Ho240 O271 2.305 . S
Ho241 C252 2.811 . S
Ho241 O261 2.346 1_554 S
Ho241 O265 2.305 . S
Ho241 O266 2.322 . S
Ho241 O268 2.378 . S
Ho241 O269 2.524 . S
Ho241 O270 2.381 . S
Ho241 O271 2.669 1_554 S
C242 O260 1.259 . S
C242 O261 1.268 . S
C243 Ho240 2.811 . S
C243 C244 1.488 . S
C243 O262 1.215 . S
C243 O263 1.289 . S
C244 C243 1.488 . S
C244 C245 1.348 . S
C244 C249 1.413 . S
C245 C244 1.348 . S
C245 C246 1.442 . S
C245 H272 0.930 . S
C246 C245 1.442 . S
C246 C247 1.381 . S
C246 H273 0.931 . S
C247 C246 1.381 . S
C247 C248 1.321 . S
C248 C247 1.321 . S
C248 C249 1.403 . S
C248 H274 0.934 . S
C249 C244 1.413 . S
C249 C248 1.403 . S
C249 H275 0.930 . S
C250 O264 1.275 1_554 S
C250 O265 1.256 . S
C251 O266 1.259 . S
C251 O267 1.268 . S
C252 Ho241 2.811 . S
C252 C253 1.488 . S
C252 O268 1.215 . S
C252 O269 1.289 . S
C253 C252 1.488 . S
C253 C254 1.348 . S
C253 C258 1.413 . S
C254 C253 1.348 . S
C254 C255 1.442 . S
C254 H276 0.930 . S
C255 C254 1.442 . S
C255 C256 1.381 . S
C255 H277 0.931 . S
C256 C255 1.381 . S
C256 C257 1.321 . S
C257 C256 1.321 . S
C257 C258 1.403 . S
C257 H278 0.934 . S
C258 C253 1.413 . S
C258 C257 1.403 . S
C258 H279 0.930 . S
C259 O270 1.275 1_556 S
C259 O271 1.256 . S
O260 Ho240 2.322 . S
O260 C242 1.259 . S
O261 Ho241 2.346 1_556 S
O261 C242 1.268 . S
O262 Ho240 2.378 . S
O262 C243 1.215 . S
O263 Ho240 2.524 . S
O263 C243 1.289 . S
O264 Ho240 2.381 . S
O264 C250 1.275 1_556 S
O265 Ho240 2.669 1_554 S
O265 Ho241 2.305 . S
O265 C250 1.256 . S
O266 Ho241 2.322 . S
O266 C251 1.259 . S
O267 Ho240 2.346 1_554 S
O267 C251 1.268 . S
O268 Ho241 2.378 . S
O268 C252 1.215 . S
O269 Ho241 2.524 . S
O269 C252 1.289 . S
O270 Ho241 2.381 . S
O270 C259 1.275 1_554 S
O271 Ho240 2.305 . S
O271 Ho241 2.669 1_556 S
O271 C259 1.256 . S
H272 C245 0.930 . S
H273 C246 0.931 . S
H274 C248 0.934 . S
H275 C249 0.930 . S
H276 C254 0.930 . S
H277 C255 0.931 . S
H278 C257 0.934 . S
H279 C258 0.930 . S
Ho280 C283 2.811 1_455 S
Ho280 O300 2.322 1_455 S
Ho280 O302 2.378 1_455 S
Ho280 O303 2.524 . S
Ho280 O304 2.381 1_455 S
Ho280 O305 2.669 1_455 S
Ho280 O307 2.346 . S
Ho280 O311 2.305 . S
Ho281 C292 2.811 1_655 S
Ho281 O301 2.346 . S
Ho281 O305 2.305 . S
Ho281 O306 2.322 1_655 S
Ho281 O308 2.378 1_655 S
Ho281 O309 2.524 . S
Ho281 O310 2.381 1_655 S
Ho281 O311 2.669 1_655 S
C282 O300 1.259 . S
C282 O301 1.268 . S
C283 Ho280 2.811 1_655 S
C283 C284 1.488 . S
C283 O302 1.215 . S
C283 O303 1.289 1_655 S
C284 C283 1.488 . S
C284 C285 1.348 . S
C284 C289 1.413 . S
C285 C284 1.348 . S
C285 C286 1.442 . S
C285 H312 0.930 1_655 S
C286 C285 1.442 . S
C286 C287 1.381 . S
C286 H313 0.931 . S
C287 C286 1.381 . S
C287 C288 1.321 . S
C288 C287 1.321 . S
C288 C289 1.403 . S
C288 H314 0.934 . S
C289 C284 1.413 . S
C289 C288 1.403 . S
C289 H315 0.930 . S
C290 O304 1.275 . S
C290 O305 1.256 . S
C291 O306 1.259 . S
C291 O307 1.268 . S
C292 Ho281 2.811 1_455 S
C292 C293 1.488 . S
C292 O308 1.215 . S
C292 O309 1.289 1_455 S
C293 C292 1.488 . S
C293 C294 1.348 . S
C293 C298 1.413 . S
C294 C293 1.348 . S
C294 C295 1.442 . S
C294 H316 0.930 1_455 S
C295 C294 1.442 . S
C295 C296 1.381 . S
C295 H317 0.931 . S
C296 C295 1.381 . S
C296 C297 1.321 . S
C297 C296 1.321 . S
C297 C298 1.403 . S
C297 H318 0.934 . S
C298 C293 1.413 . S
C298 C297 1.403 . S
C298 H319 0.930 . S
C299 O310 1.275 . S
C299 O311 1.256 . S
O300 Ho280 2.322 1_655 S
O300 C282 1.259 . S
O301 Ho281 2.346 . S
O301 C282 1.268 . S
O302 Ho280 2.378 1_655 S
O302 C283 1.215 . S
O303 Ho280 2.524 . S
O303 C283 1.289 1_455 S
O304 Ho280 2.381 1_655 S
O304 C290 1.275 . S
O305 Ho280 2.669 1_655 S
O305 Ho281 2.305 . S
O305 C290 1.256 . S
O306 Ho281 2.322 1_455 S
O306 C291 1.259 . S
O307 Ho280 2.346 . S
O307 C291 1.268 . S
O308 Ho281 2.378 1_455 S
O308 C292 1.215 . S
O309 Ho281 2.524 . S
O309 C292 1.289 1_655 S
O310 Ho281 2.381 1_455 S
O310 C299 1.275 . S
O311 Ho280 2.305 . S
O311 Ho281 2.669 1_455 S
O311 C299 1.256 . S
H312 C285 0.930 1_455 S
H313 C286 0.931 . S
H314 C288 0.934 . S
H315 C289 0.930 . S
H316 C294 0.930 1_655 S
H317 C295 0.931 . S
H318 C297 0.934 . S
H319 C298 0.930 . S
H320 C328 0.929 . S
H321 C330 0.930 . S
H322 C332 0.930 . S
H323 C335 0.929 . S
H324 C338 0.930 . S
H325 C340 0.960 . S
H326 C340 0.960 . S
H327 C340 0.960 . S
C328 H320 0.929 . S
C328 C329 1.377 . S
C328 C330 1.384 . S
C329 C328 1.377 . S
C329 C335 1.390 . S
C330 H321 0.930 . S
C330 C328 1.384 . S
C330 C331 1.372 . S
C331 C330 1.372 . S
C331 C332 1.400 . S
C331 C336 1.490 . S
C332 H322 0.930 . S
C332 C331 1.400 . S
C332 C335 1.386 . S
H333 C349 0.930 . S
H334 C350 0.931 . S
C335 H323 0.929 . S
C335 C329 1.390 . S
C335 C332 1.386 . S
C336 C331 1.490 . S
C336 C338 1.395 . S
C336 C339 1.403 . S
H337 C343 0.930 . S
C338 H324 0.930 . S
C338 C336 1.395 . S
C338 C341 1.403 . S
C339 C336 1.403 . S
C339 C340 1.524 . S
C339 C343 1.400 . S
C340 H325 0.960 . S
C340 H326 0.960 . S
C340 H327 0.960 . S
C340 C339 1.524 . S
C341 C338 1.403 . S
C341 C342 1.392 . S
C341 C345 1.495 . S
C342 C341 1.392 . S
C342 C343 1.385 . S
C342 C344 1.478 . S
C343 H337 0.930 . S
C343 C339 1.400 . S
C343 C342 1.385 . S
C344 C342 1.478 . S
C344 C346 1.381 . S
C344 C350 1.383 . S
C345 C341 1.495 . S
C345 H351 0.959 . S
C345 H352 0.961 . S
C345 H353 0.960 . S
C346 C344 1.381 . S
C346 C347 1.394 . S
C346 H354 0.930 . S
C347 C346 1.394 . S
C347 C348 1.383 . S
C347 H355 0.929 . S
C348 C347 1.383 . S
C348 C349 1.377 . S
C349 H333 0.930 . S
C349 C348 1.377 . S
C349 C350 1.379 . S
C350 H334 0.931 . S
C350 C344 1.383 . S
C350 C349 1.379 . S
H351 C345 0.959 . S
H352 C345 0.961 . S
H353 C345 0.960 . S
H354 C346 0.930 . S
H355 C347 0.929 . S
H356 C364 0.929 . S
H357 C366 0.930 . S
H358 C368 0.930 . S
H359 C371 0.929 . S
H360 C374 0.930 . S
H361 C376 0.960 . S
H362 C376 0.960 . S
H363 C376 0.960 . S
C364 H356 0.929 . S
C364 C365 1.377 . S
C364 C366 1.384 . S
C365 C364 1.377 . S
C365 C371 1.390 . S
C366 H357 0.930 . S
C366 C364 1.384 . S
C366 C367 1.372 . S
C367 C366 1.372 . S
C367 C368 1.400 . S
C367 C372 1.490 . S
C368 H358 0.930 . S
C368 C367 1.400 . S
C368 C371 1.386 . S
H369 C385 0.930 . S
H370 C386 0.931 . S
C371 H359 0.929 . S
C371 C365 1.390 . S
C371 C368 1.386 . S
C372 C367 1.490 . S
C372 C374 1.395 . S
C372 C375 1.403 . S
H373 C379 0.930 . S
C374 H360 0.930 . S
C374 C372 1.395 . S
C374 C377 1.403 . S
C375 C372 1.403 . S
C375 C376 1.524 . S
C375 C379 1.400 . S
C376 H361 0.960 . S
C376 H362 0.960 . S
C376 H363 0.960 . S
C376 C375 1.524 . S
C377 C374 1.403 . S
C377 C378 1.392 . S
C377 C381 1.495 . S
C378 C377 1.392 . S
C378 C379 1.385 . S
C378 C380 1.478 . S
C379 H373 0.930 . S
C379 C375 1.400 . S
C379 C378 1.385 . S
C380 C378 1.478 . S
C380 C382 1.381 . S
C380 C386 1.383 . S
C381 C377 1.495 . S
C381 H387 0.959 . S
C381 H388 0.961 . S
C381 H389 0.960 . S
C382 C380 1.381 . S
C382 C383 1.394 . S
C382 H390 0.930 . S
C383 C382 1.394 . S
C383 C384 1.383 . S
C383 H391 0.929 . S
C384 C383 1.383 . S
C384 C385 1.377 . S
C385 H369 0.930 . S
C385 C384 1.377 . S
C385 C386 1.379 . S
C386 H370 0.931 . S
C386 C380 1.383 . S
C386 C385 1.379 . S
H387 C381 0.959 . S
H388 C381 0.961 . S
H389 C381 0.960 . S
H390 C382 0.930 . S
H391 C383 0.929 . S
H392 C400 0.929 . S
H393 C402 0.930 . S
H394 C404 0.930 . S
H395 C407 0.929 . S
H396 C410 0.930 . S
H397 C412 0.960 . S
H398 C412 0.960 . S
H399 C412 0.960 . S
C400 H392 0.929 . S
C400 C401 1.377 . S
C400 C402 1.384 . S
C401 C400 1.377 . S
C401 C407 1.390 . S
C402 H393 0.930 . S
C402 C400 1.384 . S
C402 C403 1.372 . S
C403 C402 1.372 . S
C403 C404 1.400 . S
C403 C408 1.490 . S
C404 H394 0.930 . S
C404 C403 1.400 . S
C404 C407 1.386 . S
H405 C421 0.930 . S
H406 C422 0.931 . S
C407 H395 0.929 . S
C407 C401 1.390 . S
C407 C404 1.386 . S
C408 C403 1.490 . S
C408 C410 1.395 . S
C408 C411 1.403 . S
H409 C415 0.930 . S
C410 H396 0.930 . S
C410 C408 1.395 . S
C410 C413 1.403 . S
C411 C408 1.403 . S
C411 C412 1.524 . S
C411 C415 1.400 . S
C412 H397 0.960 . S
C412 H398 0.960 . S
C412 H399 0.960 . S
C412 C411 1.524 . S
C413 C410 1.403 . S
C413 C414 1.392 . S
C413 C417 1.495 . S
C414 C413 1.392 . S
C414 C415 1.385 . S
C414 C416 1.478 . S
C415 H409 0.930 . S
C415 C411 1.400 . S
C415 C414 1.385 . S
C416 C414 1.478 . S
C416 C418 1.381 . S
C416 C422 1.383 . S
C417 C413 1.495 . S
C417 H423 0.959 . S
C417 H424 0.961 . S
C417 H425 0.960 1_556 S
C418 C416 1.381 . S
C418 C419 1.394 . S
C418 H426 0.930 . S
C419 C418 1.394 . S
C419 C420 1.383 . S
C419 H427 0.929 1_556 S
C420 C419 1.383 . S
C420 C421 1.377 . S
C421 H405 0.930 . S
C421 C420 1.377 . S
C421 C422 1.379 . S
C422 H406 0.931 . S
C422 C416 1.383 . S
C422 C421 1.379 . S
H423 C417 0.959 . S
H424 C417 0.961 . S
H425 C417 0.960 1_554 S
H426 C418 0.930 . S
H427 C419 0.929 1_554 S
H428 C436 0.929 . S
H429 C438 0.930 . S
H430 C440 0.930 . S
H431 C443 0.929 . S
H432 C446 0.930 . S
H433 C448 0.960 . S
H434 C448 0.960 . S
H435 C448 0.960 . S
C436 H428 0.929 . S
C436 C437 1.377 . S
C436 C438 1.384 . S
C437 C436 1.377 . S
C437 C443 1.390 . S
C438 H429 0.930 . S
C438 C436 1.384 . S
C438 C439 1.372 . S
C439 C438 1.372 . S
C439 C440 1.400 . S
C439 C444 1.490 . S
C440 H430 0.930 . S
C440 C439 1.400 . S
C440 C443 1.386 . S
H441 C457 0.930 . S
H442 C458 0.931 . S
C443 H431 0.929 . S
C443 C437 1.390 . S
C443 C440 1.386 . S
C444 C439 1.490 . S
C444 C446 1.395 . S
C444 C447 1.403 . S
H445 C451 0.930 . S
C446 H432 0.930 . S
C446 C444 1.395 . S
C446 C449 1.403 . S
C447 C444 1.403 . S
C447 C448 1.524 . S
C447 C451 1.400 . S
C448 H433 0.960 . S
C448 H434 0.960 . S
C448 H435 0.960 . S
C448 C447 1.524 . S
C449 C446 1.403 . S
C449 C450 1.392 . S
C449 C453 1.495 . S
C450 C449 1.392 . S
C450 C451 1.385 . S
C450 C452 1.478 . S
C451 H445 0.930 . S
C451 C447 1.400 . S
C451 C450 1.385 . S
C452 C450 1.478 . S
C452 C454 1.381 . S
C452 C458 1.383 . S
C453 C449 1.495 . S
C453 H459 0.959 . S
C453 H460 0.961 . S
C453 H461 0.960 . S
C454 C452 1.381 . S
C454 C455 1.394 . S
C454 H462 0.930 . S
C455 C454 1.394 . S
C455 C456 1.383 . S
C455 H463 0.929 . S
C456 C455 1.383 . S
C456 C457 1.377 . S
C457 H441 0.930 . S
C457 C456 1.377 . S
C457 C458 1.379 . S
C458 H442 0.931 . S
C458 C452 1.383 . S
C458 C457 1.379 . S
H459 C453 0.959 . S
H460 C453 0.961 . S
H461 C453 0.960 . S
H462 C454 0.930 . S
H463 C455 0.929 . S
H464 C472 0.929 . S
H465 C474 0.930 . S
H466 C476 0.930 . S
H467 C479 0.929 . S
H468 C482 0.930 . S
H469 C484 0.960 . S
H470 C484 0.960 . S
H471 C484 0.960 . S
C472 H464 0.929 . S
C472 C473 1.377 . S
C472 C474 1.384 . S
C473 C472 1.377 . S
C473 C479 1.390 . S
C474 H465 0.930 . S
C474 C472 1.384 . S
C474 C475 1.372 . S
C475 C474 1.372 . S
C475 C476 1.400 . S
C475 C480 1.490 . S
C476 H466 0.930 . S
C476 C475 1.400 . S
C476 C479 1.386 . S
H477 C493 0.930 . S
H478 C494 0.931 . S
C479 H467 0.929 . S
C479 C473 1.390 . S
C479 C476 1.386 . S
C480 C475 1.490 . S
C480 C482 1.395 . S
C480 C483 1.403 . S
H481 C487 0.930 . S
C482 H468 0.930 . S
C482 C480 1.395 . S
C482 C485 1.403 . S
C483 C480 1.403 . S
C483 C484 1.524 . S
C483 C487 1.400 . S
C484 H469 0.960 . S
C484 H470 0.960 . S
C484 H471 0.960 . S
C484 C483 1.524 . S
C485 C482 1.403 . S
C485 C486 1.392 . S
C485 C489 1.495 . S
C486 C485 1.392 . S
C486 C487 1.385 . S
C486 C488 1.478 . S
C487 H481 0.930 . S
C487 C483 1.400 . S
C487 C486 1.385 . S
C488 C486 1.478 . S
C488 C490 1.381 . S
C488 C494 1.383 . S
C489 C485 1.495 . S
C489 H495 0.959 . S
C489 H496 0.961 . S
C489 H497 0.960 . S
C490 C488 1.381 . S
C490 C491 1.394 . S
C490 H498 0.930 . S
C491 C490 1.394 . S
C491 C492 1.383 . S
C491 H499 0.929 . S
C492 C491 1.383 . S
C492 C493 1.377 . S
C493 H477 0.930 . S
C493 C492 1.377 . S
C493 C494 1.379 . S
C494 H478 0.931 . S
C494 C488 1.383 . S
C494 C493 1.379 . S
H495 C489 0.959 . S
H496 C489 0.961 . S
H497 C489 0.960 . S
H498 C490 0.930 . S
H499 C491 0.929 . S
H500 C508 0.929 . S
H501 C510 0.930 . S
H502 C512 0.930 . S
H503 C515 0.929 . S
H504 C518 0.930 . S
H505 C520 0.960 . S
H506 C520 0.960 . S
H507 C520 0.960 . S
C508 H500 0.929 . S
C508 C509 1.377 . S
C508 C510 1.384 . S
C509 C508 1.377 . S
C509 C515 1.390 . S
C510 H501 0.930 . S
C510 C508 1.384 . S
C510 C511 1.372 . S
C511 C510 1.372 . S
C511 C512 1.400 . S
C511 C516 1.490 . S
C512 H502 0.930 . S
C512 C511 1.400 . S
C512 C515 1.386 . S
H513 C529 0.930 . S
H514 C530 0.931 . S
C515 H503 0.929 . S
C515 C509 1.390 . S
C515 C512 1.386 . S
C516 C511 1.490 . S
C516 C518 1.395 . S
C516 C519 1.403 . S
H517 C523 0.930 . S
C518 H504 0.930 . S
C518 C516 1.395 . S
C518 C521 1.403 . S
C519 C516 1.403 . S
C519 C520 1.524 . S
C519 C523 1.400 . S
C520 H505 0.960 . S
C520 H506 0.960 . S
C520 H507 0.960 . S
C520 C519 1.524 . S
C521 C518 1.403 . S
C521 C522 1.392 . S
C521 C525 1.495 . S
C522 C521 1.392 . S
C522 C523 1.385 . S
C522 C524 1.478 . S
C523 H517 0.930 . S
C523 C519 1.400 . S
C523 C522 1.385 . S
C524 C522 1.478 . S
C524 C526 1.381 . S
C524 C530 1.383 . S
C525 C521 1.495 . S
C525 H531 0.959 . S
C525 H532 0.961 . S
C525 H533 0.960 . S
C526 C524 1.381 . S
C526 C527 1.394 . S
C526 H534 0.930 . S
C527 C526 1.394 . S
C527 C528 1.383 . S
C527 H535 0.929 . S
C528 C527 1.383 . S
C528 C529 1.377 . S
C529 H513 0.930 . S
C529 C528 1.377 . S
C529 C530 1.379 . S
C530 H514 0.931 . S
C530 C524 1.383 . S
C530 C529 1.379 . S
H531 C525 0.959 . S
H532 C525 0.961 . S
H533 C525 0.960 . S
H534 C526 0.930 . S
H535 C527 0.929 . S
H536 C544 0.929 . S
H537 C546 0.930 . S
H538 C548 0.930 . S
H539 C551 0.929 . S
H540 C554 0.930 . S
H541 C556 0.960 . S
H542 C556 0.960 . S
H543 C556 0.960 . S
C544 H536 0.929 . S
C544 C545 1.377 . S
C544 C546 1.384 . S
C545 C544 1.377 . S
C545 C551 1.390 . S
C546 H537 0.930 . S
C546 C544 1.384 . S
C546 C547 1.372 . S
C547 C546 1.372 . S
C547 C548 1.400 . S
C547 C552 1.490 . S
C548 H538 0.930 . S
C548 C547 1.400 . S
C548 C551 1.386 . S
H549 C565 0.930 1_556 S
H550 C566 0.931 . S
C551 H539 0.929 . S
C551 C545 1.390 . S
C551 C548 1.386 . S
C552 C547 1.490 . S
C552 C554 1.395 . S
C552 C555 1.403 . S
H553 C559 0.930 . S
C554 H540 0.930 . S
C554 C552 1.395 . S
C554 C557 1.403 . S
C555 C552 1.403 . S
C555 C556 1.524 . S
C555 C559 1.400 . S
C556 H541 0.960 . S
C556 H542 0.960 . S
C556 H543 0.960 . S
C556 C555 1.524 . S
C557 C554 1.403 . S
C557 C558 1.392 . S
C557 C561 1.495 . S
C558 C557 1.392 . S
C558 C559 1.385 . S
C558 C560 1.478 . S
C559 H553 0.930 . S
C559 C555 1.400 . S
C559 C558 1.385 . S
C560 C558 1.478 . S
C560 C562 1.381 . S
C560 C566 1.383 . S
C561 C557 1.495 . S
C561 H567 0.959 . S
C561 H568 0.961 . S
C561 H569 0.960 . S
C562 C560 1.381 . S
C562 C563 1.394 . S
C562 H570 0.930 . S
C563 C562 1.394 . S
C563 C564 1.383 . S
C563 H571 0.929 . S
C564 C563 1.383 . S
C564 C565 1.377 . S
C565 H549 0.930 1_554 S
C565 C564 1.377 . S
C565 C566 1.379 . S
C566 H550 0.931 . S
C566 C560 1.383 . S
C566 C565 1.379 . S
H567 C561 0.959 . S
H568 C561 0.961 . S
H569 C561 0.960 . S
H570 C562 0.930 . S
H571 C563 0.929 . S
H572 C580 0.929 . S
H573 C582 0.930 . S
H574 C584 0.930 . S
H575 C587 0.929 . S
H576 C590 0.930 . S
H577 C592 0.960 . S
H578 C592 0.960 . S
H579 C592 0.960 . S
C580 H572 0.929 . S
C580 C581 1.377 . S
C580 C582 1.384 . S
C581 C580 1.377 . S
C581 C587 1.390 . S
C582 H573 0.930 . S
C582 C580 1.384 . S
C582 C583 1.372 . S
C583 C582 1.372 . S
C583 C584 1.400 . S
C583 C588 1.490 . S
C584 H574 0.930 . S
C584 C583 1.400 . S
C584 C587 1.386 . S
H585 C601 0.930 . S
H586 C602 0.931 . S
C587 H575 0.929 . S
C587 C581 1.390 . S
C587 C584 1.386 . S
C588 C583 1.490 . S
C588 C590 1.395 . S
C588 C591 1.403 . S
H589 C595 0.930 . S
C590 H576 0.930 . S
C590 C588 1.395 . S
C590 C593 1.403 . S
C591 C588 1.403 . S
C591 C592 1.524 . S
C591 C595 1.400 . S
C592 H577 0.960 . S
C592 H578 0.960 . S
C592 H579 0.960 . S
C592 C591 1.524 . S
C593 C590 1.403 . S
C593 C594 1.392 . S
C593 C597 1.495 . S
C594 C593 1.392 . S
C594 C595 1.385 . S
C594 C596 1.478 . S
C595 H589 0.930 . S
C595 C591 1.400 . S
C595 C594 1.385 . S
C596 C594 1.478 . S
C596 C598 1.381 . S
C596 C602 1.383 . S
C597 C593 1.495 . S
C597 H603 0.959 . S
C597 H604 0.961 . S
C597 H605 0.960 . S
C598 C596 1.381 . S
C598 C599 1.394 . S
C598 H606 0.930 . S
C599 C598 1.394 . S
C599 C600 1.383 . S
C599 H607 0.929 . S
C600 C599 1.383 . S
C600 C601 1.377 . S
C601 H585 0.930 . S
C601 C600 1.377 . S
C601 C602 1.379 . S
C602 H586 0.931 . S
C602 C596 1.383 . S
C602 C601 1.379 . S
H603 C597 0.959 . S
H604 C597 0.961 . S
H605 C597 0.960 . S
H606 C598 0.930 . S
H607 C599 0.929 . S
H608 C616 0.929 . S
H609 C618 0.930 . S
H610 C620 0.930 . S
H611 C623 0.929 . S
H612 C626 0.930 . S
H613 C628 0.960 . S
H614 C628 0.960 . S
H615 C628 0.960 . S
C616 H608 0.929 . S
C616 C617 1.377 . S
C616 C618 1.384 . S
C617 C616 1.377 . S
C617 C623 1.390 . S
C618 H609 0.930 . S
C618 C616 1.384 . S
C618 C619 1.372 . S
C619 C618 1.372 . S
C619 C620 1.400 . S
C619 C624 1.490 . S
C620 H610 0.930 . S
C620 C619 1.400 . S
C620 C623 1.386 . S
H621 C637 0.930 . S
H622 C638 0.931 . S
C623 H611 0.929 . S
C623 C617 1.390 . S
C623 C620 1.386 . S
C624 C619 1.490 . S
C624 C626 1.395 . S
C624 C627 1.403 . S
H625 C631 0.930 . S
C626 H612 0.930 . S
C626 C624 1.395 . S
C626 C629 1.403 . S
C627 C624 1.403 . S
C627 C628 1.524 . S
C627 C631 1.400 . S
C628 H613 0.960 . S
C628 H614 0.960 . S
C628 H615 0.960 . S
C628 C627 1.524 . S
C629 C626 1.403 . S
C629 C630 1.392 . S
C629 C633 1.495 . S
C630 C629 1.392 . S
C630 C631 1.385 . S
C630 C632 1.478 . S
C631 H625 0.930 . S
C631 C627 1.400 . S
C631 C630 1.385 . S
C632 C630 1.478 . S
C632 C634 1.381 . S
C632 C638 1.383 . S
C633 C629 1.495 . S
C633 H639 0.959 . S
C633 H640 0.961 . S
C633 H641 0.960 . S
C634 C632 1.381 . S
C634 C635 1.394 . S
C634 H642 0.930 . S
C635 C634 1.394 . S
C635 C636 1.383 . S
C635 H643 0.929 . S
C636 C635 1.383 . S
C636 C637 1.377 . S
C637 H621 0.930 . S
C637 C636 1.377 . S
C637 C638 1.379 . S
C638 H622 0.931 . S
C638 C632 1.383 . S
C638 C637 1.379 . S
H639 C633 0.959 . S
H640 C633 0.961 . S
H641 C633 0.960 . S
H642 C634 0.930 . S
H643 C635 0.929 . S
H644 C652 0.929 . S
H645 C654 0.930 . S
H646 C656 0.930 . S
H647 C659 0.929 . S
H648 C662 0.930 . S
H649 C664 0.960 . S
H650 C664 0.960 . S
H651 C664 0.960 . S
C652 H644 0.929 . S
C652 C653 1.377 . S
C652 C654 1.384 . S
C653 C652 1.377 . S
C653 C659 1.390 . S
C654 H645 0.930 . S
C654 C652 1.384 . S
C654 C655 1.372 . S
C655 C654 1.372 . S
C655 C656 1.400 . S
C655 C660 1.490 . S
C656 H646 0.930 . S
C656 C655 1.400 . S
C656 C659 1.386 . S
H657 C673 0.930 . S
H658 C674 0.931 . S
C659 H647 0.929 . S
C659 C653 1.390 . S
C659 C656 1.386 . S
C660 C655 1.490 . S
C660 C662 1.395 . S
C660 C663 1.403 . S
H661 C667 0.930 . S
C662 H648 0.930 . S
C662 C660 1.395 . S
C662 C665 1.403 . S
C663 C660 1.403 . S
C663 C664 1.524 . S
C663 C667 1.400 . S
C664 H649 0.960 . S
C664 H650 0.960 . S
C664 H651 0.960 . S
C664 C663 1.524 . S
C665 C662 1.403 . S
C665 C666 1.392 . S
C665 C669 1.495 . S
C666 C665 1.392 . S
C666 C667 1.385 . S
C666 C668 1.478 . S
C667 H661 0.930 . S
C667 C663 1.400 . S
C667 C666 1.385 . S
C668 C666 1.478 . S
C668 C670 1.381 . S
C668 C674 1.383 . S
C669 C665 1.495 . S
C669 H675 0.959 . S
C669 H676 0.961 . S
C669 H677 0.960 . S
C670 C668 1.381 . S
C670 C671 1.394 . S
C670 H678 0.930 . S
C671 C670 1.394 . S
C671 C672 1.383 . S
C671 H679 0.929 . S
C672 C671 1.383 . S
C672 C673 1.377 . S
C673 H657 0.930 . S
C673 C672 1.377 . S
C673 C674 1.379 . S
C674 H658 0.931 . S
C674 C668 1.383 . S
C674 C673 1.379 . S
H675 C669 0.959 . S
H676 C669 0.961 . S
H677 C669 0.960 . S
H678 C670 0.930 . S
H679 C671 0.929 . S
H680 C688 0.929 . S
H681 C690 0.930 . S
H682 C692 0.930 . S
H683 C695 0.929 . S
H684 C698 0.930 . S
H685 C700 0.960 . S
H686 C700 0.960 . S
H687 C700 0.960 . S
C688 H680 0.929 . S
C688 C689 1.377 . S
C688 C690 1.384 . S
C689 C688 1.377 . S
C689 C695 1.390 . S
C690 H681 0.930 . S
C690 C688 1.384 . S
C690 C691 1.372 . S
C691 C690 1.372 . S
C691 C692 1.400 . S
C691 C696 1.490 . S
C692 H682 0.930 . S
C692 C691 1.400 . S
C692 C695 1.386 . S
H693 C709 0.930 . S
H694 C710 0.931 . S
C695 H683 0.929 . S
C695 C689 1.390 . S
C695 C692 1.386 . S
C696 C691 1.490 . S
C696 C698 1.395 . S
C696 C699 1.403 . S
H697 C703 0.930 . S
C698 H684 0.930 . S
C698 C696 1.395 . S
C698 C701 1.403 . S
C699 C696 1.403 . S
C699 C700 1.524 . S
C699 C703 1.400 . S
C700 H685 0.960 . S
C700 H686 0.960 . S
C700 H687 0.960 . S
C700 C699 1.524 . S
C701 C698 1.403 . S
C701 C702 1.392 . S
C701 C705 1.495 . S
C702 C701 1.392 . S
C702 C703 1.385 . S
C702 C704 1.478 . S
C703 H697 0.930 . S
C703 C699 1.400 . S
C703 C702 1.385 . S
C704 C702 1.478 . S
C704 C706 1.381 . S
C704 C710 1.383 . S
C705 C701 1.495 . S
C705 H711 0.959 . S
C705 H712 0.961 . S
C705 H713 0.960 . S
C706 C704 1.381 . S
C706 C707 1.394 . S
C706 H714 0.930 . S
C707 C706 1.394 . S
C707 C708 1.383 . S
C707 H715 0.929 . S
C708 C707 1.383 . S
C708 C709 1.377 . S
C709 H693 0.930 . S
C709 C708 1.377 . S
C709 C710 1.379 . S
C710 H694 0.931 . S
C710 C704 1.383 . S
C710 C709 1.379 . S
H711 C705 0.959 . S
H712 C705 0.961 . S
H713 C705 0.960 . S
H714 C706 0.930 . S
H715 C707 0.929 . S
H716 C724 0.929 . S
H717 C726 0.930 . S
H718 C728 0.930 . S
H719 C731 0.929 . S
H720 C734 0.930 . S
H721 C736 0.960 . S
H722 C736 0.960 . S
H723 C736 0.960 . S
C724 H716 0.929 . S
C724 C725 1.377 . S
C724 C726 1.384 . S
C725 C724 1.377 . S
C725 C731 1.390 . S
C726 H717 0.930 . S
C726 C724 1.384 . S
C726 C727 1.372 . S
C727 C726 1.372 . S
C727 C728 1.400 . S
C727 C732 1.490 . S
C728 H718 0.930 . S
C728 C727 1.400 . S
C728 C731 1.386 . S
H729 C745 0.930 . S
H730 C746 0.931 . S
C731 H719 0.929 . S
C731 C725 1.390 . S
C731 C728 1.386 . S
C732 C727 1.490 . S
C732 C734 1.395 . S
C732 C735 1.403 . S
H733 C739 0.930 . S
C734 H720 0.930 . S
C734 C732 1.395 . S
C734 C737 1.403 . S
C735 C732 1.403 . S
C735 C736 1.524 . S
C735 C739 1.400 . S
C736 H721 0.960 . S
C736 H722 0.960 . S
C736 H723 0.960 . S
C736 C735 1.524 . S
C737 C734 1.403 . S
C737 C738 1.392 . S
C737 C741 1.495 . S
C738 C737 1.392 . S
C738 C739 1.385 . S
C738 C740 1.478 . S
C739 H733 0.930 . S
C739 C735 1.400 . S
C739 C738 1.385 . S
C740 C738 1.478 . S
C740 C742 1.381 . S
C740 C746 1.383 . S
C741 C737 1.495 . S
C741 H747 0.959 . S
C741 H748 0.961 . S
C741 H749 0.960 . S
C742 C740 1.381 . S
C742 C743 1.394 . S
C742 H750 0.930 . S
C743 C742 1.394 . S
C743 C744 1.383 . S
C743 H751 0.929 . S
C744 C743 1.383 . S
C744 C745 1.377 . S
C745 H729 0.930 . S
C745 C744 1.377 . S
C745 C746 1.379 . S
C746 H730 0.931 . S
C746 C740 1.383 . S
C746 C745 1.379 . S
H747 C741 0.959 . S
H748 C741 0.961 . S
H749 C741 0.960 . S
H750 C742 0.930 . S
H751 C743 0.929 . S
H752 C760 0.929 . S
H753 C762 0.930 . S
H754 C764 0.930 . S
H755 C767 0.929 . S
H756 C770 0.930 . S
H757 C772 0.960 . S
H758 C772 0.960 . S
H759 C772 0.960 . S
C760 H752 0.929 . S
C760 C761 1.377 . S
C760 C762 1.384 . S
C761 C760 1.377 . S
C761 C767 1.390 . S
C762 H753 0.930 . S
C762 C760 1.384 . S
C762 C763 1.372 . S
C763 C762 1.372 . S
C763 C764 1.400 . S
C763 C768 1.490 . S
C764 H754 0.930 . S
C764 C763 1.400 . S
C764 C767 1.386 . S
H765 C781 0.930 . S
H766 C782 0.931 . S
C767 H755 0.929 . S
C767 C761 1.390 . S
C767 C764 1.386 . S
C768 C763 1.490 . S
C768 C770 1.395 . S
C768 C771 1.403 . S
H769 C775 0.930 . S
C770 H756 0.930 . S
C770 C768 1.395 . S
C770 C773 1.403 . S
C771 C768 1.403 . S
C771 C772 1.524 . S
C771 C775 1.400 . S
C772 H757 0.960 . S
C772 H758 0.960 . S
C772 H759 0.960 . S
C772 C771 1.524 . S
C773 C770 1.403 . S
C773 C774 1.392 . S
C773 C777 1.495 . S
C774 C773 1.392 . S
C774 C775 1.385 . S
C774 C776 1.478 . S
C775 H769 0.930 . S
C775 C771 1.400 . S
C775 C774 1.385 . S
C776 C774 1.478 . S
C776 C778 1.381 . S
C776 C782 1.383 . S
C777 C773 1.495 . S
C777 H783 0.959 . S
C777 H784 0.961 . S
C777 H785 0.960 . S
C778 C776 1.381 . S
C778 C779 1.394 . S
C778 H786 0.930 . S
C779 C778 1.394 . S
C779 C780 1.383 . S
C779 H787 0.929 . S
C780 C779 1.383 . S
C780 C781 1.377 . S
C781 H765 0.930 . S
C781 C780 1.377 . S
C781 C782 1.379 . S
C782 H766 0.931 . S
C782 C776 1.383 . S
C782 C781 1.379 . S
H783 C777 0.959 . S
H784 C777 0.961 . S
H785 C777 0.960 . S
H786 C778 0.930 . S
H787 C779 0.929 . S
H788 C796 0.929 1_554 S
H789 C798 0.930 . S
H790 C800 0.930 . S
H791 C803 0.929 . S
H792 C806 0.930 . S
H793 C808 0.960 . S
H794 C808 0.960 . S
H795 C808 0.960 . S
C796 H788 0.929 1_556 S
C796 C797 1.377 . S
C796 C798 1.384 . S
C797 C796 1.377 . S
C797 C803 1.390 . S
C798 H789 0.930 . S
C798 C796 1.384 . S
C798 C799 1.372 . S
C799 C798 1.372 . S
C799 C800 1.400 . S
C799 C804 1.490 . S
C800 H790 0.930 . S
C800 C799 1.400 . S
C800 C803 1.386 . S
H801 C817 0.930 . S
H802 C818 0.931 . S
C803 H791 0.929 . S
C803 C797 1.390 . S
C803 C800 1.386 . S
C804 C799 1.490 . S
C804 C806 1.395 . S
C804 C807 1.403 . S
H805 C811 0.930 . S
C806 H792 0.930 . S
C806 C804 1.395 . S
C806 C809 1.403 . S
C807 C804 1.403 . S
C807 C808 1.524 . S
C807 C811 1.400 . S
C808 H793 0.960 . S
C808 H794 0.960 . S
C808 H795 0.960 . S
C808 C807 1.524 . S
C809 C806 1.403 . S
C809 C810 1.392 . S
C809 C813 1.495 . S
C810 C809 1.392 . S
C810 C811 1.385 . S
C810 C812 1.478 . S
C811 H805 0.930 . S
C811 C807 1.400 . S
C811 C810 1.385 . S
C812 C810 1.478 . S
C812 C814 1.381 . S
C812 C818 1.383 . S
C813 C809 1.495 . S
C813 H819 0.959 . S
C813 H820 0.961 . S
C813 H821 0.960 . S
C814 C812 1.381 . S
C814 C815 1.394 . S
C814 H822 0.930 . S
C815 C814 1.394 . S
C815 C816 1.383 . S
C815 H823 0.929 . S
C816 C815 1.383 . S
C816 C817 1.377 . S
C817 H801 0.930 . S
C817 C816 1.377 . S
C817 C818 1.379 . S
C818 H802 0.931 . S
C818 C812 1.383 . S
C818 C817 1.379 . S
H819 C813 0.959 . S
H820 C813 0.961 . S
H821 C813 0.960 . S
H822 C814 0.930 . S
H823 C815 0.929 . S
H824 C832 0.929 . S
H825 C834 0.930 . S
H826 C836 0.930 . S
H827 C839 0.929 . S
H828 C842 0.930 . S
H829 C844 0.960 . S
H830 C844 0.960 . S
H831 C844 0.960 . S
C832 H824 0.929 . S
C832 C833 1.377 . S
C832 C834 1.384 . S
C833 C832 1.377 . S
C833 C839 1.390 . S
C834 H825 0.930 . S
C834 C832 1.384 . S
C834 C835 1.372 . S
C835 C834 1.372 . S
C835 C836 1.400 . S
C835 C840 1.490 . S
C836 H826 0.930 . S
C836 C835 1.400 . S
C836 C839 1.386 . S
H837 C853 0.930 . S
H838 C854 0.931 . S
C839 H827 0.929 . S
C839 C833 1.390 . S
C839 C836 1.386 . S
C840 C835 1.490 . S
C840 C842 1.395 . S
C840 C843 1.403 . S
H841 C847 0.930 . S
C842 H828 0.930 . S
C842 C840 1.395 . S
C842 C845 1.403 . S
C843 C840 1.403 . S
C843 C844 1.524 . S
C843 C847 1.400 . S
C844 H829 0.960 . S
C844 H830 0.960 . S
C844 H831 0.960 . S
C844 C843 1.524 . S
C845 C842 1.403 . S
C845 C846 1.392 . S
C845 C849 1.495 . S
C846 C845 1.392 . S
C846 C847 1.385 . S
C846 C848 1.478 . S
C847 H841 0.930 . S
C847 C843 1.400 . S
C847 C846 1.385 . S
C848 C846 1.478 . S
C848 C850 1.381 . S
C848 C854 1.383 . S
C849 C845 1.495 . S
C849 H855 0.959 . S
C849 H856 0.961 . S
C849 H857 0.960 . S
C850 C848 1.381 . S
C850 C851 1.394 . S
C850 H858 0.930 . S
C851 C850 1.394 . S
C851 C852 1.383 . S
C851 H859 0.929 . S
C852 C851 1.383 . S
C852 C853 1.377 . S
C853 H837 0.930 . S
C853 C852 1.377 . S
C853 C854 1.379 . S
C854 H838 0.931 . S
C854 C848 1.383 . S
C854 C853 1.379 . S
H855 C849 0.959 . S
H856 C849 0.961 . S
H857 C849 0.960 . S
H858 C850 0.930 . S
H859 C851 0.929 . S
H860 C868 0.929 . S
H861 C870 0.930 . S
H862 C872 0.930 . S
H863 C875 0.929 . S
H864 C878 0.930 . S
H865 C880 0.960 . S
H866 C880 0.960 . S
H867 C880 0.960 . S
C868 H860 0.929 . S
C868 C869 1.377 . S
C868 C870 1.384 . S
C869 C868 1.377 . S
C869 C875 1.390 . S
C870 H861 0.930 . S
C870 C868 1.384 . S
C870 C871 1.372 . S
C871 C870 1.372 . S
C871 C872 1.400 . S
C871 C876 1.490 . S
C872 H862 0.930 . S
C872 C871 1.400 . S
C872 C875 1.386 . S
H873 C889 0.930 . S
H874 C890 0.931 . S
C875 H863 0.929 . S
C875 C869 1.390 . S
C875 C872 1.386 . S
C876 C871 1.490 . S
C876 C878 1.395 . S
C876 C879 1.403 . S
H877 C883 0.930 . S
C878 H864 0.930 . S
C878 C876 1.395 . S
C878 C881 1.403 . S
C879 C876 1.403 . S
C879 C880 1.524 . S
C879 C883 1.400 . S
C880 H865 0.960 . S
C880 H866 0.960 . S
C880 H867 0.960 . S
C880 C879 1.524 . S
C881 C878 1.403 . S
C881 C882 1.392 . S
C881 C885 1.495 . S
C882 C881 1.392 . S
C882 C883 1.385 . S
C882 C884 1.478 . S
C883 H877 0.930 . S
C883 C879 1.400 . S
C883 C882 1.385 . S
C884 C882 1.478 . S
C884 C886 1.381 . S
C884 C890 1.383 . S
C885 C881 1.495 . S
C885 H891 0.959 . S
C885 H892 0.961 . S
C885 H893 0.960 . S
C886 C884 1.381 . S
C886 C887 1.394 . S
C886 H894 0.930 . S
C887 C886 1.394 . S
C887 C888 1.383 . S
C887 H895 0.929 . S
C888 C887 1.383 . S
C888 C889 1.377 . S
C889 H873 0.930 . S
C889 C888 1.377 . S
C889 C890 1.379 . S
C890 H874 0.931 . S
C890 C884 1.383 . S
C890 C889 1.379 . S
H891 C885 0.959 . S
H892 C885 0.961 . S
H893 C885 0.960 . S
H894 C886 0.930 . S
H895 C887 0.929 . S
H896 C904 0.929 1_455 S
H897 C906 0.940 . S
H898 C908 0.930 . S
H899 C911 0.929 . S
H900 C914 0.930 . S
H901 C916 0.960 . S
H902 C916 0.960 . S
H903 C916 0.960 1_545 S
C904 H896 0.929 1_655 S
C904 C905 1.377 . S
C904 C906 1.383 1_655 S
C905 C904 1.377 . S
C905 C911 1.390 1_565 S
C906 H897 0.940 . S
C906 C904 1.383 1_455 S
C906 C907 1.363 1_455 S
C907 C906 1.363 1_655 S
C907 C908 1.400 1_565 S
C907 C912 1.490 . S
C908 H898 0.930 . S
C908 C907 1.400 1_545 S
C908 C911 1.386 . S
H909 C925 0.930 . S
H910 C926 0.931 1_655 S
C911 H899 0.929 . S
C911 C905 1.390 1_545 S
C911 C908 1.386 . S
C912 C907 1.490 . S
C912 C914 1.395 1_655 S
C912 C915 1.403 . S
H913 C919 0.927 1_545 S
C914 H900 0.930 . S
C914 C912 1.395 1_455 S
C914 C917 1.403 1_566 S
C915 C912 1.403 . S
C915 C916 1.524 . S
C915 C919 1.401 1_556 S
C916 H901 0.960 . S
C916 H902 0.960 . S
C916 H903 0.960 1_565 S
C916 C915 1.524 . S
C917 C914 1.403 1_544 S
C917 C918 1.388 . S
C917 C921 1.495 . S
C918 C917 1.388 . S
C918 C919 1.380 1_445 S
C918 C920 1.489 . S
C919 H913 0.927 1_565 S
C919 C915 1.401 1_554 S
C919 C918 1.380 1_665 S
C920 C918 1.489 . S
C920 C922 1.381 1_545 S
C920 C926 1.383 . S
C921 C917 1.495 . S
C921 H927 0.964 . S
C921 H928 0.961 . S
C921 H929 0.960 1_545 S
C922 C920 1.381 1_565 S
C922 C923 1.394 . S
C922 H930 0.930 . S
C923 C922 1.394 . S
C923 C924 1.383 1_565 S
C923 H931 0.929 . S
C924 C923 1.383 1_545 S
C924 C925 1.377 . S
C925 H909 0.930 . S
C925 C924 1.377 . S
C925 C926 1.379 . S
C926 H910 0.931 1_455 S
C926 C920 1.383 . S
C926 C925 1.379 . S
H927 C921 0.964 . S
H928 C921 0.961 . S
H929 C921 0.960 1_565 S
H930 C922 0.930 . S
H931 C923 0.929 . S
H932 C940 0.929 . S
H933 C942 0.930 . S
H934 C944 0.930 . S
H935 C947 0.929 . S
H936 C950 0.930 . S
H937 C952 0.960 . S
H938 C952 0.960 . S
H939 C952 0.960 . S
C940 H932 0.929 . S
C940 C941 1.377 . S
C940 C942 1.384 . S
C941 C940 1.377 . S
C941 C947 1.390 . S
C942 H933 0.930 . S
C942 C940 1.384 . S
C942 C943 1.372 . S
C943 C942 1.372 . S
C943 C944 1.400 . S
C943 C948 1.490 . S
C944 H934 0.930 . S
C944 C943 1.400 . S
C944 C947 1.386 . S
H945 C961 0.930 . S
H946 C962 0.931 . S
C947 H935 0.929 . S
C947 C941 1.390 . S
C947 C944 1.386 . S
C948 C943 1.490 . S
C948 C950 1.395 . S
C948 C951 1.403 . S
H949 C955 0.930 . S
C950 H936 0.930 . S
C950 C948 1.395 . S
C950 C953 1.403 . S
C951 C948 1.403 . S
C951 C952 1.524 . S
C951 C955 1.400 . S
C952 H937 0.960 . S
C952 H938 0.960 . S
C952 H939 0.960 . S
C952 C951 1.524 . S
C953 C950 1.403 . S
C953 C954 1.392 . S
C953 C957 1.495 . S
C954 C953 1.392 . S
C954 C955 1.385 . S
C954 C956 1.478 . S
C955 H949 0.930 . S
C955 C951 1.400 . S
C955 C954 1.385 . S
C956 C954 1.478 . S
C956 C958 1.381 . S
C956 C962 1.383 . S
C957 C953 1.495 . S
C957 H963 0.959 . S
C957 H964 0.961 . S
C957 H965 0.960 . S
C958 C956 1.381 . S
C958 C959 1.394 . S
C958 H966 0.930 . S
C959 C958 1.394 . S
C959 C960 1.383 . S
C959 H967 0.929 . S
C960 C959 1.383 . S
C960 C961 1.377 . S
C961 H945 0.930 . S
C961 C960 1.377 . S
C961 C962 1.379 . S
C962 H946 0.931 . S
C962 C956 1.383 . S
C962 C961 1.379 . S
H963 C957 0.959 . S
H964 C957 0.961 . S
H965 C957 0.960 . S
H966 C958 0.930 . S
H967 C959 0.929 . S
H968 C976 0.929 . S
H969 C978 0.930 . S
H970 C980 0.930 . S
H971 C983 0.929 1_565 S
H972 C986 0.930 . S
H973 C988 0.960 . S
H974 C988 0.960 . S
H975 C988 0.960 . S
C976 H968 0.929 . S
C976 C977 1.377 . S
C976 C978 1.384 . S
C977 C976 1.377 . S
C977 C983 1.390 . S
C978 H969 0.930 . S
C978 C976 1.384 . S
C978 C979 1.372 . S
C979 C978 1.372 . S
C979 C980 1.400 1_545 S
C979 C984 1.490 . S
C980 H970 0.930 . S
C980 C979 1.400 1_565 S
C980 C983 1.386 1_565 S
H981 C997 0.930 . S
H982 C998 0.931 . S
C983 H971 0.929 1_545 S
C983 C977 1.390 . S
C983 C980 1.386 1_545 S
C984 C979 1.490 . S
C984 C986 1.395 . S
C984 C987 1.403 1_545 S
H985 C991 0.930 . S
C986 H972 0.930 . S
C986 C984 1.395 . S
C986 C989 1.403 . S
C987 C984 1.403 1_565 S
C987 C988 1.524 . S
C987 C991 1.400 . S
C988 H973 0.960 . S
C988 H974 0.960 . S
C988 H975 0.960 . S
C988 C987 1.524 . S
C989 C986 1.403 . S
C989 C990 1.392 . S
C989 C993 1.495 . S
C990 C989 1.392 . S
C990 C991 1.385 1_545 S
C990 C992 1.478 1_545 S
C991 H985 0.930 . S
C991 C987 1.400 . S
C991 C990 1.385 1_565 S
C992 C990 1.478 1_565 S
C992 C994 1.381 1_565 S
C992 C998 1.383 . S
C993 C989 1.495 . S
C993 H999 0.959 . S
C993 H1000 0.961 . S
C993 H1001 0.960 . S
C994 C992 1.381 1_545 S
C994 C995 1.394 1_545 S
C994 H1002 0.930 . S
C995 C994 1.394 1_565 S
C995 C996 1.383 . S
C995 H1003 0.929 1_565 S
C996 C995 1.383 . S
C996 C997 1.377 . S
C997 H981 0.930 . S
C997 C996 1.377 . S
C997 C998 1.379 . S
C998 H982 0.931 . S
C998 C992 1.383 . S
C998 C997 1.379 . S
H999 C993 0.959 . S
H1000 C993 0.961 . S
H1001 C993 0.960 . S
H1002 C994 0.930 . S
H1003 C995 0.929 1_545 S
H1004 C1012 0.929 . S
H1005 C1014 0.930 . S
H1006 C1016 0.930 . S
H1007 C1019 0.929 . S
H1008 C1022 0.930 . S
H1009 C1024 0.960 . S
H1010 C1024 0.960 . S
H1011 C1024 0.960 . S
C1012 H1004 0.929 . S
C1012 C1013 1.377 . S
C1012 C1014 1.384 . S
C1013 C1012 1.377 . S
C1013 C1019 1.390 . S
C1014 H1005 0.930 . S
C1014 C1012 1.384 . S
C1014 C1015 1.372 . S
C1015 C1014 1.372 . S
C1015 C1016 1.400 . S
C1015 C1020 1.490 . S
C1016 H1006 0.930 . S
C1016 C1015 1.400 . S
C1016 C1019 1.386 . S
H1017 C1033 0.930 . S
H1018 C1034 0.931 . S
C1019 H1007 0.929 . S
C1019 C1013 1.390 . S
C1019 C1016 1.386 . S
C1020 C1015 1.490 . S
C1020 C1022 1.395 . S
C1020 C1023 1.403 . S
H1021 C1027 0.930 . S
C1022 H1008 0.930 . S
C1022 C1020 1.395 . S
C1022 C1025 1.403 . S
C1023 C1020 1.403 . S
C1023 C1024 1.524 . S
C1023 C1027 1.400 . S
C1024 H1009 0.960 . S
C1024 H1010 0.960 . S
C1024 H1011 0.960 . S
C1024 C1023 1.524 . S
C1025 C1022 1.403 . S
C1025 C1026 1.392 . S
C1025 C1029 1.495 . S
C1026 C1025 1.392 . S
C1026 C1027 1.385 . S
C1026 C1028 1.478 . S
C1027 H1021 0.930 . S
C1027 C1023 1.400 . S
C1027 C1026 1.385 . S
C1028 C1026 1.478 . S
C1028 C1030 1.381 . S
C1028 C1034 1.383 . S
C1029 C1025 1.495 . S
C1029 H1035 0.959 . S
C1029 H1036 0.961 . S
C1029 H1037 0.960 . S
C1030 C1028 1.381 . S
C1030 C1031 1.394 . S
C1030 H1038 0.930 . S
C1031 C1030 1.394 . S
C1031 C1032 1.383 . S
C1031 H1039 0.929 . S
C1032 C1031 1.383 . S
C1032 C1033 1.377 . S
C1033 H1017 0.930 . S
C1033 C1032 1.377 . S
C1033 C1034 1.379 . S
C1034 H1018 0.931 . S
C1034 C1028 1.383 . S
C1034 C1033 1.379 . S
H1035 C1029 0.959 . S
H1036 C1029 0.961 . S
H1037 C1029 0.960 . S
H1038 C1030 0.930 . S
H1039 C1031 0.929 . S
H1040 C1048 0.929 . S
H1041 C1050 0.930 . S
H1042 C1052 0.930 . S
H1043 C1055 0.929 . S
H1044 C1058 0.930 . S
H1045 C1060 0.960 . S
H1046 C1060 0.960 . S
H1047 C1060 0.960 . S
C1048 H1040 0.929 . S
C1048 C1049 1.377 . S
C1048 C1050 1.384 . S
C1049 C1048 1.377 . S
C1049 C1055 1.390 . S
C1050 H1041 0.930 . S
C1050 C1048 1.384 . S
C1050 C1051 1.372 . S
C1051 C1050 1.372 . S
C1051 C1052 1.400 . S
C1051 C1056 1.490 . S
C1052 H1042 0.930 . S
C1052 C1051 1.400 . S
C1052 C1055 1.386 . S
H1053 C1069 0.930 . S
H1054 C1070 0.931 . S
C1055 H1043 0.929 . S
C1055 C1049 1.390 . S
C1055 C1052 1.386 . S
C1056 C1051 1.490 . S
C1056 C1058 1.395 . S
C1056 C1059 1.403 . S
H1057 C1063 0.930 . S
C1058 H1044 0.930 . S
C1058 C1056 1.395 . S
C1058 C1061 1.403 . S
C1059 C1056 1.403 . S
C1059 C1060 1.524 . S
C1059 C1063 1.400 . S
C1060 H1045 0.960 . S
C1060 H1046 0.960 . S
C1060 H1047 0.960 . S
C1060 C1059 1.524 . S
C1061 C1058 1.403 . S
C1061 C1062 1.392 . S
C1061 C1065 1.495 . S
C1062 C1061 1.392 . S
C1062 C1063 1.385 . S
C1062 C1064 1.478 . S
C1063 H1057 0.930 . S
C1063 C1059 1.400 . S
C1063 C1062 1.385 . S
C1064 C1062 1.478 . S
C1064 C1066 1.381 . S
C1064 C1070 1.383 . S
C1065 C1061 1.495 . S
C1065 H1071 0.959 . S
C1065 H1072 0.961 . S
C1065 H1073 0.960 . S
C1066 C1064 1.381 . S
C1066 C1067 1.394 . S
C1066 H1074 0.930 . S
C1067 C1066 1.394 . S
C1067 C1068 1.383 . S
C1067 H1075 0.929 . S
C1068 C1067 1.383 . S
C1068 C1069 1.377 . S
C1069 H1053 0.930 . S
C1069 C1068 1.377 . S
C1069 C1070 1.379 . S
C1070 H1054 0.931 . S
C1070 C1064 1.383 . S
C1070 C1069 1.379 . S
H1071 C1065 0.959 . S
H1072 C1065 0.961 . S
H1073 C1065 0.960 . S
H1074 C1066 0.930 . S
H1075 C1067 0.929 . S
H1076 C1084 0.929 . S
H1077 C1086 0.930 . S
H1078 C1088 0.930 . S
H1079 C1091 0.929 . S
H1080 C1094 0.930 . S
H1081 C1096 0.960 . S
H1082 C1096 0.960 . S
H1083 C1096 0.960 . S
C1084 H1076 0.929 . S
C1084 C1085 1.377 . S
C1084 C1086 1.384 . S
C1085 C1084 1.377 . S
C1085 C1091 1.390 . S
C1086 H1077 0.930 . S
C1086 C1084 1.384 . S
C1086 C1087 1.372 . S
C1087 C1086 1.372 . S
C1087 C1088 1.400 . S
C1087 C1092 1.490 . S
C1088 H1078 0.930 . S
C1088 C1087 1.400 . S
C1088 C1091 1.386 . S
H1089 C1105 0.930 . S
H1090 C1106 0.931 . S
C1091 H1079 0.929 . S
C1091 C1085 1.390 . S
C1091 C1088 1.386 . S
C1092 C1087 1.490 . S
C1092 C1094 1.395 . S
C1092 C1095 1.403 . S
H1093 C1099 0.930 . S
C1094 H1080 0.930 . S
C1094 C1092 1.395 . S
C1094 C1097 1.403 . S
C1095 C1092 1.403 . S
C1095 C1096 1.524 . S
C1095 C1099 1.400 . S
C1096 H1081 0.960 . S
C1096 H1082 0.960 . S
C1096 H1083 0.960 . S
C1096 C1095 1.524 . S
C1097 C1094 1.403 . S
C1097 C1098 1.392 . S
C1097 C1101 1.495 . S
C1098 C1097 1.392 . S
C1098 C1099 1.385 . S
C1098 C1100 1.478 . S
C1099 H1093 0.930 . S
C1099 C1095 1.400 . S
C1099 C1098 1.385 . S
C1100 C1098 1.478 . S
C1100 C1102 1.381 . S
C1100 C1106 1.383 . S
C1101 C1097 1.495 . S
C1101 H1107 0.959 . S
C1101 H1108 0.961 . S
C1101 H1109 0.960 . S
C1102 C1100 1.381 . S
C1102 C1103 1.394 . S
C1102 H1110 0.930 . S
C1103 C1102 1.394 . S
C1103 C1104 1.383 . S
C1103 H1111 0.929 . S
C1104 C1103 1.383 . S
C1104 C1105 1.377 . S
C1105 H1089 0.930 . S
C1105 C1104 1.377 . S
C1105 C1106 1.379 . S
C1106 H1090 0.931 . S
C1106 C1100 1.383 . S
C1106 C1105 1.379 . S
H1107 C1101 0.959 . S
H1108 C1101 0.961 . S
H1109 C1101 0.960 . S
H1110 C1102 0.930 . S
H1111 C1103 0.929 . S
H1112 C1120 0.929 . S
H1113 C1122 0.930 . S
H1114 C1124 0.930 . S
H1115 C1127 0.929 . S
H1116 C1130 0.930 . S
H1117 C1132 0.960 . S
H1118 C1132 0.960 . S
H1119 C1132 0.960 . S
C1120 H1112 0.929 . S
C1120 C1121 1.377 . S
C1120 C1122 1.384 . S
C1121 C1120 1.377 . S
C1121 C1127 1.390 . S
C1122 H1113 0.930 . S
C1122 C1120 1.384 . S
C1122 C1123 1.372 . S
C1123 C1122 1.372 . S
C1123 C1124 1.400 . S
C1123 C1128 1.490 . S
C1124 H1114 0.930 . S
C1124 C1123 1.400 . S
C1124 C1127 1.386 . S
H1125 C1141 0.930 . S
H1126 C1142 0.931 . S
C1127 H1115 0.929 . S
C1127 C1121 1.390 . S
C1127 C1124 1.386 . S
C1128 C1123 1.490 . S
C1128 C1130 1.395 . S
C1128 C1131 1.403 . S
H1129 C1135 0.930 . S
C1130 H1116 0.930 . S
C1130 C1128 1.395 . S
C1130 C1133 1.403 . S
C1131 C1128 1.403 . S
C1131 C1132 1.524 . S
C1131 C1135 1.400 . S
C1132 H1117 0.960 . S
C1132 H1118 0.960 . S
C1132 H1119 0.960 . S
C1132 C1131 1.524 . S
C1133 C1130 1.403 . S
C1133 C1134 1.392 . S
C1133 C1137 1.495 . S
C1134 C1133 1.392 . S
C1134 C1135 1.385 . S
C1134 C1136 1.478 . S
C1135 H1129 0.930 . S
C1135 C1131 1.400 . S
C1135 C1134 1.385 . S
C1136 C1134 1.478 . S
C1136 C1138 1.381 . S
C1136 C1142 1.383 . S
C1137 C1133 1.495 . S
C1137 H1143 0.959 . S
C1137 H1144 0.961 . S
C1137 H1145 0.960 . S
C1138 C1136 1.381 . S
C1138 C1139 1.394 . S
C1138 H1146 0.930 . S
C1139 C1138 1.394 . S
C1139 C1140 1.383 . S
C1139 H1147 0.929 . S
C1140 C1139 1.383 . S
C1140 C1141 1.377 . S
C1141 H1125 0.930 . S
C1141 C1140 1.377 . S
C1141 C1142 1.379 . S
C1142 H1126 0.931 . S
C1142 C1136 1.383 . S
C1142 C1141 1.379 . S
H1143 C1137 0.959 . S
H1144 C1137 0.961 . S
H1145 C1137 0.960 . S
H1146 C1138 0.930 . S
H1147 C1139 0.929 . S
H1148 C1156 0.929 1_455 S
H1149 C1158 0.930 . S
H1150 C1160 0.930 . S
H1151 C1163 0.929 . S
H1152 C1166 0.930 . S
H1153 C1168 0.960 . S
H1154 C1168 0.960 . S
H1155 C1168 0.960 . S
C1156 H1148 0.929 1_655 S
C1156 C1157 1.377 . S
C1156 C1158 1.384 1_655 S
C1157 C1156 1.377 . S
C1157 C1163 1.390 . S
C1158 H1149 0.930 . S
C1158 C1156 1.384 1_455 S
C1158 C1159 1.372 1_455 S
C1159 C1158 1.372 1_655 S
C1159 C1160 1.400 . S
C1159 C1164 1.490 . S
C1160 H1150 0.930 . S
C1160 C1159 1.400 . S
C1160 C1163 1.386 . S
H1161 C1177 0.910 1_655 S
H1162 C1178 0.931 1_655 S
C1163 H1151 0.929 . S
C1163 C1157 1.390 . S
C1163 C1160 1.386 . S
C1164 C1159 1.490 . S
C1164 C1166 1.395 1_655 S
C1164 C1167 1.403 . S
H1165 C1171 0.930 . S
C1166 H1152 0.930 . S
C1166 C1164 1.395 1_455 S
C1166 C1169 1.403 1_556 S
C1167 C1164 1.403 . S
C1167 C1168 1.524 . S
C1167 C1171 1.400 1_556 S
C1168 H1153 0.960 . S
C1168 H1154 0.960 . S
C1168 H1155 0.960 . S
C1168 C1167 1.524 . S
C1169 C1166 1.403 1_554 S
C1169 C1170 1.392 . S
C1169 C1173 1.495 . S
C1170 C1169 1.392 . S
C1170 C1171 1.385 1_455 S
C1170 C1172 1.478 . S
C1171 H1165 0.930 . S
C1171 C1167 1.400 1_554 S
C1171 C1170 1.385 1_655 S
C1172 C1170 1.478 . S
C1172 C1174 1.381 . S
C1172 C1178 1.383 . S
C1173 C1169 1.495 . S
C1173 H1179 0.959 . S
C1173 H1180 0.961 . S
C1173 H1181 0.960 . S
C1174 C1172 1.381 . S
C1174 C1175 1.394 . S
C1174 H1182 0.930 . S
C1175 C1174 1.394 . S
C1175 C1176 1.383 . S
C1175 H1183 0.929 . S
C1176 C1175 1.383 . S
C1176 C1177 1.377 . S
C1177 H1161 0.910 1_455 S
C1177 C1176 1.377 . S
C1177 C1178 1.379 . S
C1178 H1162 0.931 1_455 S
C1178 C1172 1.383 . S
C1178 C1177 1.379 . S
H1179 C1173 0.959 . S
H1180 C1173 0.961 . S
H1181 C1173 0.960 . S
H1182 C1174 0.930 . S
H1183 C1175 0.929 . S
C329 C2 1.521 . S
C348 C130 1.518 . S
C365 C10 0.777 . S
C384 C50 0.735 . S
C401 C42 1.517 . S
C420 C90 1.495 . S
C437 C82 2.160 . S
C456 C122 2.153 . S
C473 C11 1.516 . S
C492 C219 1.510 . S
C509 C19 0.773 . S
C528 C179 0.778 . S
C545 C171 1.516 . S
C564 C99 1.493 . S
C581 C211 2.160 . S
C600 C91 2.163 . S
C617 C242 1.518 . S
C636 C210 1.492 . S
C653 C170 0.770 . S
C672 C250 0.802 . S
C689 C290 1.514 . S
C708 C162 1.526 . S
C725 C202 2.161 . S
C744 C282 2.161 . S
C761 C139 1.507 . S
C780 C251 1.507 . S
C797 C259 0.770 . S
C816 C59 0.764 . S
C833 C51 1.520 . S
C852 C299 1.495 . S
C869 C131 2.161 . S
C888 C291 2.152 . S
C905 C16 1.486 . S
C924 C7 1.497 . S
C941 C56 1.485 . S
C960 C47 1.498 . S
C977 C96 1.544 . S
C996 C87 1.538 . S
C1013 C127 1.550 . S
C1032 C136 1.542 . S
C1049 C176 1.481 . S
C1068 C167 1.463 . S
C1085 C207 1.544 . S
C1104 C216 1.540 . S
C1121 C247 1.487 . S
C1140 C256 1.495 . S
C1157 C287 1.549 . S
C1176 C296 1.560 . S
