# Generated by pormake.
# Topology oof, (8)-cn, num edge types: 1
# Building blocks:
#     Node 0, Type 0, BuildingBlock: EBIMEJ_clean_sbu_0, # of connection points: 8
#     Node 1, Type 0, BuildingBlock: EBIMEJ_clean_sbu_0, # of connection points: 8
#     Node 2, Type 0, BuildingBlock: EBIMEJ_clean_sbu_0, # of connection points: 8
#     Node 3, Type 0, BuildingBlock: EBIMEJ_clean_sbu_0, # of connection points: 8
#     Edge 4, Type (0, 0), BuildingBlock: ZUJKAS_clean_linker_0, # of connection points: 2
#     Edge 5, Type (0, 0), BuildingBlock: ZUJKAS_clean_linker_0, # of connection points: 2
#     Edge 6, Type (0, 0), BuildingBlock: ZUJKAS_clean_linker_0, # of connection points: 2
#     Edge 7, Type (0, 0), BuildingBlock: ZUJKAS_clean_linker_0, # of connection points: 2
#     Edge 8, Type (0, 0), BuildingBlock: ZUJKAS_clean_linker_0, # of connection points: 2
#     Edge 9, Type (0, 0), BuildingBlock: ZUJKAS_clean_linker_0, # of connection points: 2
#     Edge 10, Type (0, 0), BuildingBlock: ZUJKAS_clean_linker_0, # of connection points: 2
#     Edge 11, Type (0, 0), BuildingBlock: ZUJKAS_clean_linker_0, # of connection points: 2
#     Edge 12, Type (0, 0), BuildingBlock: ZUJKAS_clean_linker_0, # of connection points: 2
#     Edge 13, Type (0, 0), BuildingBlock: ZUJKAS_clean_linker_0, # of connection points: 2
#     Edge 14, Type (0, 0), BuildingBlock: ZUJKAS_clean_linker_0, # of connection points: 2
#     Edge 15, Type (0, 0), BuildingBlock: ZUJKAS_clean_linker_0, # of connection points: 2
#     Edge 16, Type (0, 0), BuildingBlock: ZUJKAS_clean_linker_0, # of connection points: 2
#     Edge 17, Type (0, 0), BuildingBlock: ZUJKAS_clean_linker_0, # of connection points: 2
#     Edge 18, Type (0, 0), BuildingBlock: ZUJKAS_clean_linker_0, # of connection points: 2
#     Edge 19, Type (0, 0), BuildingBlock: ZUJKAS_clean_linker_0, # of connection points: 2
# Relax obj value: 0.057
# Max RMSD: 0.158
# Mean RMSD: 0.158
data_MOF--net-oof--node1-EBIMEJ_clean_sbu_0--edge1-ZUJKAS_clean_linker_0
_symmetry_space_group_name_H-M    P1
_symmetry_Int_Tables_number       1
_symmetry_cell_setting            triclinic
loop_
_symmetry_equiv_pos_as_xyz
'x, y, z'
_cell_length_a     19.101384
_cell_length_b     83.559904
_cell_length_c     22.112043
_cell_angle_alpha  79.885076
_cell_angle_beta   123.89255
_cell_angle_gamma 96.406358
loop_
_atom_site_label
_atom_site_type_symbol
_atom_site_fract_x
_atom_site_fract_y
_atom_site_fract_z
_atom_type_partial_charge
Co0 Co 0.97053 0.17398 0.28381 0.0
Co1 Co 0.96521 0.15656 0.16036 0.0
Co2 Co 0.98809 0.13599 0.29687 0.0
H3 H 0.99219 0.15501 0.28206 0.0
O4 O 0.02325 0.15848 0.26558 0.0
H5 H 0.97427 0.13729 0.17973 0.0
O6 O 0.94155 0.13324 0.19397 0.0
Co7 Co 0.01012 0.11896 0.18504 0.0
O8 O 0.97907 0.12907 0.08228 0.0
O9 O 0.91832 0.15304 0.05684 0.0
O10 O 0.00582 0.10129 0.25993 0.0
O11 O 0.96711 0.11272 0.32184 0.0
O12 O 0.98677 0.19129 0.347 0.0
O13 O 0.06834 0.19071 0.31343 0.0
O14 O 0.11708 0.13059 0.25436 0.0
O15 O 0.08077 0.15464 0.18472 0.0
C16 C 0.01036 0.15125 0.42004 0.0
C17 C 0.92419 0.19074 0.13657 0.0
C18 C 0.01438 0.09379 0.13969 0.0
C19 C 0.82436 0.15248 0.21355 0.0
C20 C 0.9395 0.14172 0.03784 0.0
C21 C 0.98426 0.10029 0.30597 0.0
C22 C 0.04974 0.19784 0.34792 0.0
C23 C 0.13656 0.14485 0.23653 0.0
O24 O 0.98083 0.16474 0.37888 0.0
O25 O 0.02728 0.1396 0.3994 0.0
O26 O 0.96701 0.18096 0.13057 0.0
O27 O 0.90534 0.18748 0.18441 0.0
O28 O 0.06209 0.09656 0.20516 0.0
O29 O 0.96469 0.10531 0.1002 0.0
O30 O 0.85631 0.16627 0.20682 0.0
O31 O 0.86993 0.14069 0.26019 0.0
Co32 Co 0.01389 0.92208 0.82562 0.0
Co33 Co 0.03811 0.90524 0.71458 0.0
Co34 Co 0.06228 0.88468 0.85151 0.0
H35 H 0.05143 0.90391 0.83148 0.0
O36 O 0.08395 0.90808 0.81721 0.0
H37 H 0.03389 0.88621 0.72931 0.0
O38 O 1.00319 0.88275 0.74617 0.0
Co39 Co 0.05523 0.86724 0.72722 0.0
O40 O 0.04633 0.87651 0.63272 0.0
O41 O 0.99975 0.90162 0.61224 0.0
O42 O 0.11858 0.85309 0.82521 0.0
O43 O 0.06168 0.86029 0.88198 0.0
O44 O 0.96169 0.94451 0.80474 0.0
O45 O 0.05811 0.93575 0.91015 0.0
O46 O 0.16869 0.87498 0.80536 0.0
O47 O 0.15674 0.90056 0.75241 0.0
C48 C 0.08806 0.8995 0.97387 0.0
C49 C 0.04025 0.94086 0.70488 0.0
C50 C 0.9747 0.84351 0.66274 0.0
C51 C 0.88957 0.89574 0.77945 0.0
C52 C 0.01701 0.89001 0.59166 0.0
C53 C 0.10157 0.85019 0.87427 0.0
C54 C 0.00865 0.94728 0.87027 0.0
C55 C 0.20139 0.88875 0.79976 0.0
O56 O 0.04695 0.91199 0.92903 0.0
O57 O 0.11018 0.88828 0.95509 0.0
O58 O 0.0588 0.92852 0.68964 0.0
O59 O 0.01771 0.93975 0.75032 0.0
O60 O 0.03034 0.8513 0.65553 0.0
O61 O 0.96419 0.84931 0.70563 0.0
O62 O 0.90605 0.91013 0.75991 0.0
O63 O 0.94772 0.88616 0.82961 0.0
Co64 Co 0.46976 0.67441 0.27743 0.0
Co65 Co 0.46965 0.65636 0.15877 0.0
Co66 Co 0.49267 0.63643 0.29639 0.0
H67 H 0.49438 0.65542 0.27909 0.0
O68 O 0.52571 0.65891 0.26293 0.0
H69 H 0.48123 0.63724 0.18103 0.0
O70 O 0.44819 0.6331 0.1948 0.0
Co71 Co 0.52179 0.6192 0.19045 0.0
O72 O 0.49317 0.62875 0.08814 0.0
O73 O 0.42481 0.65205 0.05673 0.0
O74 O 0.52545 0.60201 0.27027 0.0
O75 O 0.47459 0.61307 0.32383 0.0
O76 O 0.49306 0.69079 0.34692 0.0
O77 O 0.56059 0.69235 0.29825 0.0
O78 O 0.62621 0.63145 0.25951 0.0
O79 O 0.58632 0.65484 0.18507 0.0
C80 C 0.50757 0.65223 0.41439 0.0
C81 C 0.42731 0.69078 0.1308 0.0
C82 C 0.52349 0.59396 0.14461 0.0
C83 C 0.32671 0.65229 0.21146 0.0
C84 C 0.45013 0.64078 0.04086 0.0
C85 C 0.49951 0.60083 0.31329 0.0
C86 C 0.54916 0.69844 0.33995 0.0
C87 C 0.64327 0.64578 0.24005 0.0
O88 O 0.47481 0.66527 0.37033 0.0
O89 O 0.53014 0.64071 0.39748 0.0
O90 O 0.46963 0.68065 0.126 0.0
O91 O 0.40748 0.68802 0.17802 0.0
O92 O 0.58847 0.60158 0.18821 0.0
O93 O 0.45791 0.60069 0.12715 0.0
O94 O 0.35759 0.6659 0.20092 0.0
O95 O 0.37372 0.64075 0.25905 0.0
Co96 Co 0.51295 0.42234 0.82621 0.0
Co97 Co 0.5377 0.40546 0.71663 0.0
Co98 Co 0.55988 0.38495 0.85303 0.0
H99 H 0.55063 0.40416 0.83302 0.0
O100 O 0.5838 0.40824 0.81929 0.0
H101 H 0.53355 0.38644 0.73162 0.0
O102 O 0.50238 0.38298 0.74797 0.0
Co103 Co 0.55486 0.3674 0.73023 0.0
O104 O 0.54539 0.3767 0.63559 0.0
O105 O 0.49813 0.40181 0.61414 0.0
O106 O 0.61973 0.35391 0.82965 0.0
O107 O 0.55811 0.36058 0.88328 0.0
O108 O 0.44719 0.43998 0.82943 0.0
O109 O 0.57777 0.44063 0.89073 0.0
O110 O 0.66921 0.37519 0.80636 0.0
O111 O 0.65556 0.40067 0.75205 0.0
C112 C 0.58401 0.40007 0.9742 0.0
C113 C 0.53563 0.44106 0.70406 0.0
C114 C 0.47509 0.34352 0.66648 0.0
C115 C 0.38791 0.39633 0.77386 0.0
C116 C 0.51567 0.39014 0.59405 0.0
C117 C 0.60085 0.35075 0.87748 0.0
C118 C 0.51251 0.44745 0.87355 0.0
C119 C 0.7014 0.38873 0.79701 0.0
O120 O 0.54329 0.4125 0.92874 0.0
O121 O 0.60609 0.38868 0.9562 0.0
O122 O 0.55847 0.42881 0.6917 0.0
O123 O 0.51058 0.43981 0.74775 0.0
O124 O 0.53814 0.34999 0.66731 0.0
O125 O 0.45675 0.35075 0.70091 0.0
O126 O 0.4068 0.41066 0.75615 0.0
O127 O 0.44369 0.38683 0.82756 0.0
H128 H 0.94723 0.16962 0.95484 0.0
H129 H 0.95641 0.17129 0.84721 0.0
H130 H 0.91728 0.11941 0.85044 0.0
H131 H 0.90777 0.1177 0.95689 0.0
H132 H 0.08093 0.15459 0.84942 0.0
H133 H 0.75778 0.13692 0.63173 0.0
H134 H 0.781 0.14388 0.71406 0.0
H135 H 0.8031 0.12333 0.7167 0.0
C136 C 0.93783 0.15867 0.93101 0.0
C137 C 0.92637 0.14354 0.96418 0.0
C138 C 0.94393 0.15961 0.87001 0.0
C139 C 0.9371 0.14548 0.84043 0.0
C140 C 0.92158 0.1305 0.87143 0.0
H141 H 0.99708 0.12304 0.49902 0.0
H142 H 0.98684 0.12084 0.60632 0.0
C143 C 0.91637 0.12954 0.93254 0.0
C144 C 0.95297 0.14604 0.78131 0.0
H145 H 0.86439 0.13709 0.6073 0.0
C146 C 0.03336 0.15089 0.79625 0.0
C147 C 0.89136 0.14098 0.71233 0.0
C148 C 0.8032 0.13611 0.69225 0.0
C149 C 0.05403 0.15065 0.74448 0.0
C150 C 0.99227 0.14568 0.67532 0.0
C151 C 0.91198 0.14077 0.6605 0.0
C152 C 0.00768 0.14654 0.61577 0.0
C153 C 0.14236 0.15545 0.76479 0.0
C154 C 0.024 0.16163 0.58614 0.0
C155 C 0.02965 0.1629 0.52514 0.0
C156 C 0.01923 0.1491 0.49214 0.0
C157 C 0.00643 0.13385 0.52367 0.0
C158 C 0.99992 0.13261 0.58459 0.0
H159 H 0.18788 0.1543 0.82539 0.0
H160 H 0.16397 0.14786 0.74189 0.0
H161 H 0.14317 0.16833 0.74175 0.0
H162 H 0.02899 0.17257 0.60835 0.0
H163 H 0.03947 0.17484 0.50222 0.0
H164 H 0.03274 0.91821 0.51407 0.0
H165 H 0.04296 0.92045 0.40673 0.0
H166 H 0.99612 0.86887 0.40186 0.0
H167 H 0.98585 0.86655 0.50816 0.0
H168 H 0.16402 0.90369 0.4051 0.0
H169 H 0.8385 0.88798 0.18513 0.0
H170 H 0.86326 0.89437 0.26903 0.0
H171 H 0.8816 0.87379 0.26822 0.0
C172 C 0.02242 0.90744 0.48882 0.0
C173 C 0.00839 0.89221 0.51963 0.0
C174 C 0.0289 0.90871 0.42787 0.0
C175 C 0.0198 0.89484 0.39586 0.0
C176 C 1.00222 0.87978 0.42475 0.0
H177 H 0.07898 0.87164 0.05624 0.0
H178 H 0.06932 0.87003 0.1636 0.0
C179 C 0.9967 0.87847 0.48585 0.0
C180 C 0.03515 0.89569 0.33625 0.0
H181 H 0.94518 0.88735 0.16108 0.0
C182 C 0.11594 0.90027 0.35151 0.0
C183 C 0.97272 0.89106 0.26653 0.0
C184 C 0.8839 0.88666 0.24578 0.0
C185 C 0.13638 0.90003 0.29957 0.0
C186 C 0.07413 0.89529 0.23006 0.0
C187 C 0.99322 0.8908 0.21465 0.0
C188 C 0.09009 0.89581 0.17101 0.0
C189 C 0.225 0.90453 0.32002 0.0
C190 C 0.10662 0.91074 0.14047 0.0
C191 C 0.11209 0.91167 0.07949 0.0
C192 C 0.10146 0.89768 0.04762 0.0
C193 C 0.089 0.88258 0.08035 0.0
C194 C 0.08257 0.88168 0.14116 0.0
H195 H 0.2703 0.90365 0.38058 0.0
H196 H 0.2464 0.89657 0.29826 0.0
H197 H 0.22638 0.91727 0.29569 0.0
H198 H 0.11154 0.92183 0.16173 0.0
H199 H 0.12134 0.92348 0.05539 0.0
H200 H 0.42341 0.66808 0.94053 0.0
H201 H 0.42808 0.66979 0.83063 0.0
H202 H 0.45763 0.61785 0.86883 0.0
H203 H 0.45165 0.61601 0.97687 0.0
H204 H 0.56598 0.66038 0.83346 0.0
H205 H 0.28008 0.62544 0.64973 0.0
H206 H 0.29492 0.63301 0.72784 0.0
H207 H 0.34548 0.61467 0.7405 0.0
C208 C 0.42837 0.65699 0.92415 0.0
C209 C 0.43703 0.64192 0.96745 0.0
C210 C 0.43171 0.65799 0.86173 0.0
C211 C 0.44251 0.64392 0.84108 0.0
C212 C 0.44767 0.62883 0.88264 0.0
H213 H 0.52665 0.62426 0.50959 0.0
H214 H 0.51857 0.62176 0.6181 0.0
C215 C 0.44468 0.62783 0.94481 0.0
C216 C 0.45569 0.645 0.7802 0.0
H217 H 0.38243 0.63071 0.6187 0.0
C218 C 0.52539 0.65401 0.78617 0.0
C219 C 0.40359 0.63647 0.7191 0.0
C220 C 0.32639 0.62697 0.7084 0.0
C221 C 0.54495 0.65457 0.73323 0.0
C222 C 0.49249 0.64614 0.67182 0.0
C223 C 0.42303 0.63706 0.66603 0.0
C224 C 0.50491 0.64755 0.61036 0.0
C225 C 0.62259 0.66397 0.74436 0.0
C226 C 0.50059 0.66283 0.57044 0.0
C227 C 0.50557 0.66429 0.50914 0.0
C228 C 0.51422 0.65047 0.4855 0.0
C229 C 0.52077 0.63515 0.52661 0.0
C230 C 0.5156 0.63371 0.58829 0.0
H231 H 0.66935 0.66519 0.80329 0.0
H232 H 0.65329 0.65804 0.72393 0.0
H233 H 0.60424 0.67639 0.71352 0.0
H234 H 0.49063 0.67365 0.58528 0.0
H235 H 0.5003 0.6763 0.47905 0.0
H236 H 0.60326 0.42473 0.0477 0.0
H237 H 0.59654 0.42314 0.15552 0.0
H238 H 0.58226 0.37082 0.17288 0.0
H239 H 0.59065 0.37233 0.06514 0.0
H240 H 0.46336 0.41108 0.16215 0.0
H241 H 0.7511 0.37754 0.38547 0.0
H242 H 0.73678 0.38636 0.29876 0.0
H243 H 0.68657 0.36726 0.30602 0.0
C244 C 0.60082 0.41284 0.07551 0.0
C245 C 0.59777 0.39863 0.04795 0.0
C246 C 0.59655 0.41197 0.13702 0.0
C247 C 0.589 0.39688 0.17262 0.0
C248 C 0.58959 0.3826 0.14727 0.0
H249 H 0.49647 0.36634 0.51623 0.0
H250 H 0.50871 0.36883 0.41101 0.0
C251 C 0.59459 0.38346 0.08574 0.0
C252 C 0.57397 0.39633 0.2323 0.0
H253 H 0.64952 0.38125 0.41169 0.0
C254 C 0.50441 0.40463 0.21687 0.0
C255 C 0.62738 0.38793 0.30371 0.0
C256 C 0.70511 0.37939 0.3249 0.0
C257 C 0.48592 0.4045 0.27029 0.0
C258 C 0.53897 0.396 0.34148 0.0
C259 C 0.60873 0.38776 0.35704 0.0
C260 C 0.52239 0.39502 0.40035 0.0
C261 C 0.40856 0.41311 0.24949 0.0
C262 C 0.52371 0.409 0.42847 0.0
C263 C 0.51603 0.40763 0.48879 0.0
C264 C 0.50791 0.39224 0.52243 0.0
C265 C 0.50315 0.37838 0.49202 0.0
C266 C 0.51039 0.37976 0.43188 0.0
H267 H 0.36399 0.4157 0.18888 0.0
H268 H 0.37498 0.40577 0.2731 0.0
H269 H 0.42794 0.42487 0.27179 0.0
H270 H 0.5341 0.4209 0.40574 0.0
H271 H 0.52097 0.41851 0.51141 0.0
H272 H 0.73076 0.12544 0.21451 0.0
H273 H 0.59691 0.12599 0.20355 0.0
H274 H 0.57869 0.1774 0.12564 0.0
H275 H 0.711 0.17697 0.13459 0.0
H276 H 0.6309 0.14796 0.30503 0.0
H277 H 0.32995 0.16161 0.03265 0.0
H278 H 0.41567 0.15129 0.04396 0.0
H279 H 0.42248 0.1728 0.0458 0.0
C280 C 0.69631 0.1367 0.19173 0.0
C281 C 0.73296 0.15133 0.17913 0.0
C282 C 0.61967 0.13696 0.185 0.0
C283 C 0.57986 0.15181 0.16555 0.0
C284 C 0.60899 0.16585 0.14077 0.0
H285 H 0.20326 0.17501 0.22858 0.0
H286 H 0.33612 0.18058 0.23679 0.0
C287 C 0.68522 0.16558 0.14681 0.0
C288 C 0.5267 0.15358 0.19217 0.0
H289 H 0.33032 0.16316 0.13838 0.0
C290 C 0.56496 0.15124 0.26873 0.0
C291 C 0.44228 0.1584 0.14446 0.0
C292 C 0.39965 0.1611 0.06205 0.0
C293 C 0.51944 0.15303 0.29906 0.0
C294 C 0.43388 0.15716 0.2513 0.0
C295 C 0.39663 0.16018 0.17479 0.0
C296 C 0.37735 0.15568 0.27706 0.0
C297 C 0.56262 0.1502 0.38153 0.0
C298 C 0.36092 0.14012 0.30293 0.0
C299 C 0.28512 0.13687 0.298 0.0
C300 C 0.22528 0.14916 0.26627 0.0
C301 C 0.24767 0.16524 0.2512 0.0
C302 C 0.32367 0.16849 0.25649 0.0
H303 H 0.63148 0.15281 0.40982 0.0
H304 H 0.53548 0.15785 0.39965 0.0
H305 H 0.55417 0.13725 0.39907 0.0
H306 H 0.40156 0.13006 0.31841 0.0
H307 H 0.26989 0.12441 0.31122 0.0
H308 H 0.83061 0.86558 0.80038 0.0
H309 H 0.7047 0.86003 0.80358 0.0
H310 H 0.62569 0.90946 0.70744 0.0
H311 H 0.75221 0.91533 0.70518 0.0
H312 H 0.71203 0.8867 0.89379 0.0
H313 H 0.40529 0.87591 0.63529 0.0
H314 H 0.50448 0.86921 0.65655 0.0
H315 H 0.47906 0.89035 0.6286 0.0
C316 C 0.78492 0.87512 0.77737 0.0
C317 C 0.80254 0.89107 0.75552 0.0
C318 C 0.71291 0.87186 0.77872 0.0
C319 C 0.65771 0.88443 0.75677 0.0
C320 C 0.66841 0.89967 0.72445 0.0
H321 H 0.29653 0.91535 0.79642 0.0
H322 H 0.43566 0.91406 0.81808 0.0
C323 C 0.74082 0.90301 0.72357 0.0
C324 C 0.60459 0.88319 0.78553 0.0
H325 H 0.40049 0.88215 0.73346 0.0
C326 C 0.64389 0.88541 0.85942 0.0
C327 C 0.51655 0.88162 0.73975 0.0
C328 C 0.47331 0.87905 0.66059 0.0
C329 C 0.59599 0.88683 0.88808 0.0
C330 C 0.50783 0.88591 0.8414 0.0
C331 C 0.46879 0.88296 0.7685 0.0
C332 C 0.45263 0.88867 0.86439 0.0
C333 C 0.63872 0.88995 0.96646 0.0
C334 C 0.42117 0.87517 0.88974 0.0
C335 C 0.34169 0.87582 0.87725 0.0
C336 C 0.2934 0.88991 0.83813 0.0
C337 C 0.33152 0.90419 0.82455 0.0
C338 C 0.41129 0.90355 0.83764 0.0
H339 H 0.70859 0.88977 0.99653 0.0
H340 H 0.61971 0.90198 0.96698 0.0
H341 H 0.61782 0.88063 0.99593 0.0
H342 H 0.453 0.86363 0.91054 0.0
H343 H 0.31473 0.86474 0.89048 0.0
H344 H 0.70287 0.67668 0.23406 0.0
H345 H 0.83559 0.68389 0.24337 0.0
H346 H 0.91425 0.63408 0.32744 0.0
H347 H 0.78223 0.62673 0.31861 0.0
H348 H 0.0502 0.66083 0.36417 0.0
H349 H 0.79018 0.65954 0.06895 0.0
H350 H 0.78225 0.67334 0.11872 0.0
H351 H 0.77501 0.65182 0.14234 0.0
C352 C 0.75006 0.66741 0.25748 0.0
C353 C 0.73128 0.65101 0.27213 0.0
C354 C 0.82599 0.67161 0.26353 0.0
C355 C 0.88239 0.65938 0.28377 0.0
C356 C 0.87031 0.6436 0.31099 0.0
H357 H 0.23764 0.62667 0.23297 0.0
H358 H 0.11211 0.62957 0.23296 0.0
C359 C 0.79459 0.63939 0.30531 0.0
C360 C 0.93681 0.66142 0.25589 0.0
H361 H 0.92838 0.65891 0.09957 0.0
C362 C 0.02405 0.66079 0.30626 0.0
C363 C 0.90127 0.66116 0.1801 0.0
C364 C 0.80708 0.66142 0.12413 0.0
C365 C 0.07724 0.65932 0.28293 0.0
C366 C 0.04119 0.65812 0.20798 0.0
C367 C 0.95455 0.65964 0.15697 0.0
C368 C 0.09372 0.65473 0.18315 0.0
C369 C 0.17132 0.65854 0.33879 0.0
C370 C 0.11793 0.66746 0.14804 0.0
C371 C 0.1891 0.66584 0.1474 0.0
C372 C 0.23666 0.65157 0.18327 0.0
C373 C 0.20352 0.63796 0.207 0.0
C374 C 0.13202 0.63957 0.2071 0.0
H375 H 0.18972 0.66308 0.39017 0.0
H376 H 0.19152 0.64573 0.35314 0.0
H377 H 0.20591 0.66577 0.31592 0.0
H378 H 0.08744 0.67914 0.12826 0.0
H379 H 0.2119 0.6764 0.12661 0.0
H380 H 0.81096 0.36355 0.87077 0.0
H381 H 0.93315 0.36114 0.86601 0.0
H382 H 0.91845 0.41201 0.77954 0.0
H383 H 0.79394 0.4145 0.78164 0.0
H384 H 0.88432 0.38999 0.6817 0.0
H385 H 0.18029 0.37496 0.95627 0.0
H386 H 0.0878 0.36345 0.94092 0.0
H387 H 0.0933 0.38488 0.94443 0.0
C388 C 0.83548 0.37441 0.85339 0.0
C389 C 0.79088 0.38906 0.82329 0.0
C390 C 0.90576 0.37299 0.85121 0.0
C391 C 0.93302 0.38632 0.82101 0.0
C392 C 0.89683 0.40157 0.80202 0.0
H393 H 0.2511 0.41588 0.69598 0.0
H394 H 0.11483 0.40855 0.6781 0.0
C395 C 0.82593 0.40297 0.80336 0.0
C396 C 0.98582 0.38366 0.79507 0.0
H397 H 0.18253 0.37346 0.85217 0.0
C398 C 0.94961 0.38633 0.7188 0.0
C399 C 0.06942 0.37836 0.8437 0.0
C400 C 0.11044 0.37533 0.92595 0.0
C401 C 0.99694 0.38469 0.6899 0.0
C402 C 0.08213 0.38035 0.7388 0.0
C403 C 0.11658 0.37664 0.81474 0.0
C404 C 0.14192 0.3829 0.71622 0.0
C405 C 0.95641 0.38817 0.60784 0.0
C406 C 0.19939 0.3707 0.73835 0.0
C407 C 0.27814 0.37493 0.75018 0.0
C408 C 0.29922 0.39137 0.73948 0.0
C409 C 0.23671 0.40316 0.70589 0.0
C410 C 0.15821 0.39894 0.69462 0.0
H411 H 0.88784 0.38514 0.5778 0.0
H412 H 0.96331 0.40134 0.59232 0.0
H413 H 0.98643 0.38123 0.58984 0.0
H414 H 0.18731 0.35826 0.75488 0.0
H415 H 0.32486 0.36555 0.77404 0.0
H416 H 0.34413 0.32705 0.66781 0.0
H417 H 0.27278 0.30219 0.61432 0.0
H418 H 0.43145 0.30212 0.5324 0.0
H419 H 0.50379 0.32687 0.58661 0.0
H420 H 0.18375 0.2962 0.46858 0.0
H421 H 0.46204 0.25638 0.64542 0.0
H422 H 0.45909 0.27618 0.6659 0.0
H423 H 0.47924 0.27436 0.59712 0.0
C424 C 0.36379 0.32174 0.63838 0.0
C425 C 0.4299 0.32885 0.63176 0.0
C426 C 0.32296 0.30753 0.60784 0.0
C427 C 0.34768 0.30013 0.57041 0.0
C428 C 0.41255 0.30741 0.56244 0.0
H429 H 0.18052 0.21446 0.34687 0.0
H430 H 0.25143 0.23931 0.40068 0.0
C431 C 0.4535 0.3216 0.59305 0.0
C432 C 0.305 0.28488 0.53917 0.0
H433 H 0.34013 0.24514 0.54668 0.0
C434 C 0.21783 0.28501 0.48587 0.0
C435 C 0.34955 0.27028 0.56179 0.0
C436 C 0.44248 0.26918 0.62118 0.0
C437 C 0.17431 0.27105 0.4535 0.0
C438 C 0.21889 0.25646 0.47605 0.0
C439 C 0.30604 0.25632 0.52941 0.0
C440 C 0.17633 0.24123 0.44455 0.0
C441 C 0.08137 0.27215 0.39413 0.0
C442 C 0.11147 0.23387 0.45236 0.0
C443 C 0.07077 0.21968 0.42157 0.0
C444 C 0.09461 0.21252 0.38283 0.0
C445 C 0.16068 0.21971 0.37634 0.0
C446 C 0.20126 0.23391 0.40705 0.0
H447 H 0.0617 0.28494 0.37009 0.0
H448 H 0.06485 0.2652 0.34926 0.0
H449 H 0.04464 0.26689 0.41813 0.0
H450 H 0.09239 0.2391 0.48243 0.0
H451 H 0.02048 0.21435 0.4279 0.0
H452 H 0.76313 0.34211 0.96295 0.0
H453 H 0.81591 0.31445 1.00652 0.0
H454 H 0.56673 0.29607 0.94185 0.0
H455 H 0.51303 0.324 0.89572 0.0
H456 H 0.82662 0.28912 0.10263 0.0
H457 H 0.60894 0.27303 0.82015 0.0
H458 H 0.62149 0.29358 0.83991 0.0
H459 H 0.55714 0.27911 0.85943 0.0
C460 C 0.72018 0.33222 0.96061 0.0
C461 C 0.63419 0.33524 0.92687 0.0
C462 C 0.75029 0.31635 0.98488 0.0
C463 C 0.6951 0.30304 0.97569 0.0
C464 C 0.6103 0.30609 0.94775 0.0
H465 H 0.76178 0.19931 0.05141 0.0
H466 H 0.70867 0.22695 0.00806 0.0
C467 C 0.57989 0.32207 0.92299 0.0
C468 C 0.72643 0.2862 0.99137 0.0
H469 H 0.69759 0.25232 0.91191 0.0
C470 C 0.79831 0.28107 0.06088 0.0
C471 C 0.69031 0.2757 0.93673 0.0
C472 C 0.61574 0.28064 0.85967 0.0
C473 C 0.8339 0.26574 0.0778 0.0
C474 C 0.79781 0.25524 0.02316 0.0
C475 C 0.72589 0.26036 0.95366 0.0
C476 C 0.82931 0.23842 0.03877 0.0
C477 C 0.90845 0.26079 0.15488 0.0
C478 C 0.91412 0.23542 0.06657 0.0
C479 C 0.94473 0.21945 0.0912 0.0
C480 C 0.8906 0.20625 0.08734 0.0
C481 C 0.80459 0.20923 0.05374 0.0
C482 C 0.77429 0.22508 0.02961 0.0
H483 H 0.91516 0.26839 0.19441 0.0
H484 H 0.90275 0.24785 0.17458 0.0
H485 H 0.96707 0.26235 0.15514 0.0
H486 H 0.95756 0.24546 0.07244 0.0
H487 H 0.01159 0.21756 0.11834 0.0
H488 H 0.54296 0.71181 0.44121 0.0
H489 H 0.61537 0.73662 0.49527 0.0
H490 H 0.73014 0.74288 0.37096 0.0
H491 H 0.65772 0.71819 0.31652 0.0
H492 H 0.79086 0.74413 0.57832 0.0
H493 H 0.61847 0.78692 0.31929 0.0
H494 H 0.58253 0.76626 0.32853 0.0
H495 H 0.66704 0.77042 0.31428 0.0
C496 C 0.58353 0.7185 0.42538 0.0
C497 C 0.59438 0.71312 0.37439 0.0
C498 C 0.62491 0.73265 0.45634 0.0
C499 C 0.67709 0.74174 0.43627 0.0
C500 C 0.68897 0.73623 0.38621 0.0
H501 H 0.98036 0.83051 0.56033 0.0
H502 H 0.90866 0.80569 0.50591 0.0
C503 C 0.64797 0.72206 0.35552 0.0
C504 C 0.7198 0.75689 0.46822 0.0
H505 H 0.73436 0.79785 0.42325 0.0
C506 C 0.77826 0.75589 0.54451 0.0
C507 C 0.70346 0.77221 0.42394 0.0
C508 C 0.63894 0.77412 0.34204 0.0
C509 C 0.82186 0.76977 0.57761 0.0
C510 C 0.80537 0.7851 0.53336 0.0
C511 C 0.747 0.78609 0.45705 0.0
C512 C 0.84757 0.80027 0.5654 0.0
C513 C 0.88653 0.76784 0.65949 0.0
C514 C 0.83573 0.80562 0.61579 0.0
C515 C 0.87634 0.81978 0.64671 0.0
C516 C 0.92946 0.82889 0.6277 0.0
C517 C 0.94013 0.82368 0.57627 0.0
C518 C 0.89917 0.80954 0.54511 0.0
H519 H 0.90756 0.75507 0.682 0.0
H520 H 0.94261 0.77581 0.67304 0.0
H521 H 0.85828 0.77137 0.68745 0.0
H522 H 0.79494 0.79884 0.63119 0.0
H523 H 0.86673 0.82351 0.68605 0.0
H524 H 0.52058 0.71837 0.1361 0.0
H525 H 0.46466 0.7461 0.09179 0.0
H526 H 0.2111 0.72639 0.98067 0.0
H527 H 0.26679 0.69881 0.02502 0.0
H528 H 0.34306 0.76437 0.94836 0.0
H529 H 0.22974 0.75167 0.13532 0.0
H530 H 0.30442 0.73891 0.14156 0.0
H531 H 0.19402 0.73732 0.07157 0.0
C532 C 0.45309 0.72001 0.09903 0.0
C533 C 0.39802 0.70645 0.08225 0.0
C534 C 0.42108 0.73585 0.07471 0.0
C535 C 0.33358 0.73833 0.0341 0.0
C536 C 0.27875 0.7248 0.01269 0.0
H537 H 0.0106 0.82236 0.87108 0.0
H538 H 0.06797 0.79474 0.91502 0.0
C539 C 0.31063 0.70904 0.03687 0.0
C540 C 0.29944 0.75483 0.01881 0.0
H541 H 0.18964 0.77674 0.05606 0.0
C542 C 0.3099 0.7671 0.97216 0.0
C543 C 0.25602 0.75842 0.04988 0.0
C544 C 0.24582 0.74596 0.1029 0.0
C545 C 0.27666 0.78271 0.95452 0.0
C546 C 0.23323 0.7863 0.98559 0.0
C547 C 0.22283 0.77402 0.03228 0.0
C548 C 0.19862 0.80276 0.97007 0.0
C549 C 0.28663 0.79514 0.90128 0.0
C550 C 0.25284 0.81641 0.99013 0.0
C551 C 0.22016 0.8321 0.96614 0.0
C552 C 0.13259 0.83451 0.92242 0.0
C553 C 0.07828 0.82084 0.9069 0.0
C554 C 0.1111 0.80508 0.931 0.0
H555 H 0.30204 0.78938 0.86852 0.0
H556 H 0.22819 0.80225 0.86292 0.0
H557 H 0.33885 0.80371 0.93247 0.0
H558 H 0.32052 0.81496 0.02108 0.0
H559 H 0.26335 0.84242 0.97698 0.0
H560 H 0.92204 0.0871 0.99797 0.0
H561 H 0.92078 0.06219 0.95315 0.0
H562 H 0.10632 0.0415 0.1748 0.0
H563 H 0.10731 0.06637 0.22001 0.0
H564 H 0.05038 0.04745 0.96264 0.0
H565 H 0.92409 1.00591 0.1063 0.0
H566 H 0.92158 0.02775 0.09788 0.0
H567 H 0.01734 1.01706 0.16607 0.0
C568 C 0.96249 0.07724 0.03722 0.0
C569 C 0.01469 0.07872 0.11261 0.0
C570 C 0.96175 0.06299 0.01149 0.0
C571 C 0.01251 0.04981 0.06056 0.0
C572 C 0.06533 0.05133 0.13588 0.0
H573 H 0.09992 0.95398 0.01191 0.0
H574 H 0.10078 0.9789 0.0564 0.0
C575 C 0.06632 0.06561 0.16165 0.0
C576 C 0.01115 0.03465 0.0326 0.0
H577 H 0.97154 0.99365 0.04658 0.0
C578 C 0.03276 0.0357 0.98076 0.0
C579 C 0.98825 1.01928 0.05616 0.0
C580 C 0.96072 1.01738 0.10914 0.0
C581 C 0.03369 0.02183 0.95305 0.0
C582 C 0.01078 1.00645 0.97661 0.0
C583 C 0.98915 1.0054 0.02843 0.0
C584 C 0.00961 0.99128 0.94879 0.0
C585 C 0.06136 0.02372 0.90018 0.0
C586 C 0.95723 0.98976 0.87345 0.0
C587 C 0.95651 0.97547 0.84785 0.0
C588 C 0.00795 0.96236 0.89709 0.0
C589 C 0.05965 0.96384 0.97249 0.0
C590 C 0.06015 0.9781 0.99805 0.0
H591 H 0.0981 0.03519 0.90314 0.0
H592 H 0.10046 1.01335 0.91145 0.0
H593 H 0.00481 0.02407 0.84321 0.0
H594 H 0.91638 0.99959 0.83438 0.0
H595 H 0.9159 0.9747 0.78947 0.0
H596 H 0.98922 0.07079 0.27109 0.0
H597 H 0.99639 0.04391 0.33847 0.0
H598 H 0.98696 0.0656 0.49693 0.0
H599 H 0.97793 0.0926 0.42892 0.0
H600 H 0.1184 0.03241 0.47891 0.0
H601 H 0.80973 0.0299 0.44992 0.0
H602 H 0.83489 0.04508 0.39556 0.0
H603 H 0.87372 0.04731 0.48882 0.0
C604 C 0.98776 0.06989 0.31985 0.0
C605 C 0.98274 0.08391 0.34441 0.0
C606 C 0.99198 0.05447 0.35838 0.0
C607 C 0.99127 0.05269 0.42231 0.0
C608 C 0.98567 0.06663 0.44681 0.0
H609 H 0.03397 0.9703 0.73959 0.0
H610 H 0.02654 0.99721 0.67241 0.0
C611 C 0.98082 0.08208 0.40797 0.0
C612 C 1.00029 0.0363 0.46485 0.0
H613 H 0.90541 1.00885 0.53238 0.0
C614 C 0.07164 0.02722 0.49034 0.0
C615 C 0.93937 0.02955 0.47989 0.0
C616 C 0.85972 0.03838 0.45158 0.0
C617 C 0.08449 1.01171 0.53145 0.0
C618 C 0.02352 1.00495 0.54643 0.0
C619 C 0.95219 1.01404 0.52097 0.0
C620 C 0.03244 0.98854 0.58876 0.0
C621 C 0.16423 1.0029 0.55985 0.0
C622 C 0.0385 0.97464 0.56429 0.0
C623 C 0.04356 0.95917 0.60305 0.0
C624 C 0.04133 0.95727 0.66646 0.0
C625 C 0.03569 0.97125 0.69093 0.0
C626 C 0.03131 0.98668 0.65252 0.0
H627 H 0.2143 1.01141 0.56185 0.0
H628 H 0.18885 0.99615 0.61574 0.0
H629 H 0.15045 0.99404 0.52244 0.0
H630 H 0.03748 0.97571 0.51429 0.0
H631 H 0.04689 0.94868 0.58215 0.0
H632 H 0.38741 0.57634 0.05008 0.0
H633 H 0.38695 0.55143 1.00566 0.0
H634 H 0.65886 0.55286 0.13121 0.0
H635 H 0.65964 0.57766 0.17675 0.0
H636 H 0.44894 0.54588 0.92516 0.0
H637 H 0.61138 0.5066 0.19507 0.0
H638 H 0.56994 0.52617 0.18229 0.0
H639 H 0.6692 0.52485 0.19206 0.0
C640 C 0.44715 0.57131 0.06851 0.0
C641 C 0.5236 0.57893 0.11732 0.0
C642 C 0.4468 0.55707 0.04296 0.0
C643 C 0.52285 0.55006 0.0659 0.0
C644 C 0.59933 0.55778 0.11394 0.0
H645 H 0.64928 0.46489 0.96848 0.0
H646 H 0.65061 0.48984 0.01314 0.0
C647 C 0.59973 0.57203 0.13959 0.0
C648 C 0.52177 0.53488 0.03827 0.0
H649 H 0.58918 0.49559 0.09367 0.0
C650 C 0.47931 0.53486 0.96203 0.0
C651 C 0.56145 0.52047 0.08624 0.0
C652 C 0.60492 0.51941 0.16843 0.0
C653 C 0.47672 0.521 0.9326 0.0
C654 C 0.5163 0.50658 0.98055 0.0
C655 C 0.55884 0.5066 0.0568 0.0
C656 C 0.51478 0.49138 0.95288 0.0
C657 C 0.43332 0.52207 0.85041 0.0
C658 C 0.43805 0.48373 0.9048 0.0
C659 C 0.43716 0.46947 0.87901 0.0
C660 C 0.51302 0.46247 0.90121 0.0
C661 C 0.58973 0.47 0.95012 0.0
C662 C 0.59058 0.48426 0.97579 0.0
H663 H 0.42727 0.53488 0.82386 0.0
H664 H 0.46809 0.51525 0.83655 0.0
H665 H 0.36887 0.51671 0.82668 0.0
H666 H 0.3787 0.48872 0.88756 0.0
H667 H 0.37704 0.46391 0.84178 0.0
H668 H 0.58233 0.45004 0.605 0.0
H669 H 0.57876 0.47732 0.54054 0.0
H670 H 0.4832 0.49646 0.64939 0.0
H671 H 0.48803 0.46956 0.71483 0.0
H672 H 0.4416 0.49724 0.44529 0.0
H673 H 0.67759 0.5276 0.68746 0.0
H674 H 0.66521 0.50578 0.6923 0.0
H675 H 0.59394 0.51762 0.69477 0.0
C676 C 0.5613 0.46008 0.61575 0.0
C677 C 0.53593 0.45754 0.66553 0.0
C678 C 0.55916 0.47566 0.57876 0.0
C679 C 0.5321 0.489 0.5911 0.0
C680 C 0.50632 0.48647 0.64031 0.0
H681 H 0.45242 0.592 0.41219 0.0
H682 H 0.45673 0.5648 0.47765 0.0
C683 C 0.50864 0.47098 0.67737 0.0
C684 C 0.52749 0.50546 0.55058 0.0
H685 H 0.59513 0.54486 0.57425 0.0
C686 C 0.47563 0.50764 0.47344 0.0
C687 C 0.57142 0.51905 0.5874 0.0
C688 C 0.63079 0.51741 0.67001 0.0
C689 C 0.46535 0.52305 0.43217 0.0
C690 C 0.50929 0.53664 0.46899 0.0
C691 C 0.56109 0.53447 0.54612 0.0
C692 C 0.50485 0.55308 0.42838 0.0
C693 C 0.40613 0.52469 0.34955 0.0
C694 C 0.53135 0.55555 0.37969 0.0
C695 C 0.52869 0.57099 0.34212 0.0
C696 C 0.50023 0.58443 0.35287 0.0
C697 C 0.47433 0.58195 0.40227 0.0
C698 C 0.47688 0.56642 0.43983 0.0
H699 H 0.35947 0.51447 0.33201 0.0
H700 H 0.37156 0.53631 0.32724 0.0
H701 H 0.44312 0.52453 0.32489 0.0
H702 H 0.55512 0.54554 0.37129 0.0
H703 H 0.54973 0.57236 0.30499 0.0
loop_
_geom_bond_atom_site_label_1
_geom_bond_atom_site_label_2
_geom_bond_distance
_geom_bond_site_symmetry_2
_ccdc_geom_bond_type
Co0 H3 2.400 1_655 S
Co0 O4 2.009 1_655 S
Co0 O12 2.115 . S
Co0 O13 2.315 1_655 S
Co0 O24 2.055 1_655 S
Co0 O27 2.094 . S
Co0 O30 2.122 . S
Co1 O4 2.126 1_655 S
Co1 H5 2.388 . S
Co1 O6 2.053 . S
Co1 O9 2.047 . S
Co1 O15 2.113 1_655 S
Co1 O26 2.063 1_655 S
Co2 H3 2.388 . S
Co2 O4 2.053 . S
Co2 O6 2.126 1_455 S
Co2 O11 2.063 1_455 S
Co2 O25 2.047 . S
Co2 O31 2.113 1_455 S
H3 Co0 2.400 1_455 S
H3 Co2 2.388 . S
H3 O4 0.760 . S
O4 Co0 2.009 1_455 S
O4 Co1 2.126 1_455 S
O4 Co2 2.053 . S
O4 H3 0.760 . S
H5 Co1 2.388 . S
H5 O6 0.760 . S
H5 Co7 2.400 1_655 S
O6 Co1 2.053 . S
O6 Co2 2.126 1_655 S
O6 H5 0.760 . S
O6 Co7 2.009 1_655 S
Co7 H5 2.400 1_455 S
Co7 O6 2.009 1_455 S
Co7 O8 2.053 . S
Co7 O10 2.094 . S
Co7 O14 2.122 . S
Co7 O28 2.115 . S
Co7 O29 2.315 1_455 S
O8 Co7 2.053 . S
O8 C20 1.259 1_455 S
O9 Co1 2.047 . S
O9 C20 1.257 . S
O10 Co7 2.094 . S
O10 C21 1.253 . S
O11 Co2 2.063 1_655 S
O11 C21 1.268 1_655 S
O12 Co0 2.115 . S
O12 C22 1.281 1_655 S
O13 Co0 2.315 1_455 S
O13 C22 1.252 . S
O14 Co7 2.122 . S
O14 C23 1.272 . S
O15 Co1 2.113 1_455 S
O15 C23 1.245 . S
C16 O24 1.260 . S
C16 O25 1.257 . S
C17 O26 1.268 1_655 S
C17 O27 1.253 . S
C18 O28 1.281 1_655 S
C18 O29 1.252 . S
C19 O30 1.272 . S
C19 O31 1.245 . S
C20 O8 1.259 1_655 S
C20 O9 1.257 . S
C21 O10 1.253 . S
C21 O11 1.268 1_455 S
C22 O12 1.281 1_455 S
C22 O13 1.252 . S
C23 O14 1.272 . S
C23 O15 1.245 . S
O24 Co0 2.055 1_455 S
O24 C16 1.260 . S
O25 Co2 2.047 . S
O25 C16 1.257 . S
O26 Co1 2.063 1_455 S
O26 C17 1.268 1_455 S
O27 Co0 2.094 . S
O27 C17 1.253 . S
O28 Co7 2.115 . S
O28 C18 1.281 1_455 S
O29 Co7 2.315 1_655 S
O29 C18 1.252 . S
O30 Co0 2.122 . S
O30 C19 1.272 . S
O31 Co2 2.113 1_655 S
O31 C19 1.245 . S
Co32 H35 2.400 1_655 S
Co32 O36 2.009 1_655 S
Co32 O44 2.115 . S
Co32 O45 2.315 1_655 S
Co32 O56 2.053 1_655 S
Co32 O59 2.094 . S
Co32 O62 2.122 . S
Co33 O36 2.126 . S
Co33 H37 2.388 1_455 S
Co33 O38 2.053 1_455 S
Co33 O41 2.047 1_455 S
Co33 O47 2.113 . S
Co33 O58 2.063 . S
Co34 H35 2.388 . S
Co34 O36 2.053 . S
Co34 O38 2.126 1_455 S
Co34 O43 2.063 . S
Co34 O57 2.047 . S
Co34 O63 2.113 1_455 S
H35 Co32 2.400 1_455 S
H35 Co34 2.388 . S
H35 O36 0.760 . S
O36 Co32 2.009 1_455 S
O36 Co33 2.126 . S
O36 Co34 2.053 . S
O36 H35 0.760 . S
H37 Co33 2.388 1_655 S
H37 O38 0.760 . S
H37 Co39 2.400 1_655 S
O38 Co33 2.053 1_655 S
O38 Co34 2.126 1_655 S
O38 H37 0.760 . S
O38 Co39 2.009 1_655 S
Co39 H37 2.400 1_455 S
Co39 O38 2.009 1_455 S
Co39 O40 2.053 . S
Co39 O42 2.094 . S
Co39 O46 2.122 . S
Co39 O60 2.115 . S
Co39 O61 2.315 1_455 S
O40 Co39 2.053 . S
O40 C52 1.259 1_455 S
O41 Co33 2.047 1_655 S
O41 C52 1.257 . S
O42 Co39 2.094 . S
O42 C53 1.253 . S
O43 Co34 2.063 . S
O43 C53 1.268 . S
O44 Co32 2.115 . S
O44 C54 1.281 1_655 S
O45 Co32 2.315 1_455 S
O45 C54 1.252 . S
O46 Co39 2.122 . S
O46 C55 1.272 . S
O47 Co33 2.113 . S
O47 C55 1.245 . S
C48 O56 1.259 . S
C48 O57 1.257 . S
C49 O58 1.268 1_655 S
C49 O59 1.253 . S
C50 O60 1.281 1_655 S
C50 O61 1.252 . S
C51 O62 1.272 . S
C51 O63 1.245 . S
C52 O40 1.259 1_655 S
C52 O41 1.257 . S
C53 O42 1.253 . S
C53 O43 1.268 . S
C54 O44 1.281 1_455 S
C54 O45 1.252 . S
C55 O46 1.272 . S
C55 O47 1.245 . S
O56 Co32 2.053 1_455 S
O56 C48 1.259 . S
O57 Co34 2.047 . S
O57 C48 1.257 . S
O58 Co33 2.063 . S
O58 C49 1.268 1_455 S
O59 Co32 2.094 . S
O59 C49 1.253 . S
O60 Co39 2.115 . S
O60 C50 1.281 1_455 S
O61 Co39 2.315 1_655 S
O61 C50 1.252 . S
O62 Co32 2.122 . S
O62 C51 1.272 . S
O63 Co34 2.113 1_655 S
O63 C51 1.245 . S
Co64 H67 2.400 . S
Co64 O68 2.009 . S
Co64 O76 2.115 . S
Co64 O77 2.315 . S
Co64 O88 2.053 . S
Co64 O91 2.094 . S
Co64 O94 2.122 . S
Co65 O68 2.126 . S
Co65 H69 2.388 . S
Co65 O70 2.053 . S
Co65 O73 2.047 . S
Co65 O79 2.113 . S
Co65 O90 2.063 . S
Co66 H67 2.388 . S
Co66 O68 2.053 . S
Co66 O70 2.126 . S
Co66 O75 2.063 . S
Co66 O89 2.047 . S
Co66 O95 2.113 . S
H67 Co64 2.400 . S
H67 Co66 2.388 . S
H67 O68 0.760 . S
O68 Co64 2.009 . S
O68 Co65 2.126 . S
O68 Co66 2.053 . S
O68 H67 0.760 . S
H69 Co65 2.388 . S
H69 O70 0.760 . S
H69 Co71 2.400 . S
O70 Co65 2.053 . S
O70 Co66 2.126 . S
O70 H69 0.760 . S
O70 Co71 2.009 . S
Co71 H69 2.400 . S
Co71 O70 2.009 . S
Co71 O72 2.053 . S
Co71 O74 2.094 . S
Co71 O78 2.122 . S
Co71 O92 2.115 . S
Co71 O93 2.315 . S
O72 Co71 2.053 . S
O72 C84 1.259 . S
O73 Co65 2.047 . S
O73 C84 1.257 . S
O74 Co71 2.094 . S
O74 C85 1.253 . S
O75 Co66 2.063 . S
O75 C85 1.268 . S
O76 Co64 2.115 . S
O76 C86 1.281 . S
O77 Co64 2.315 . S
O77 C86 1.252 . S
O78 Co71 2.122 . S
O78 C87 1.272 . S
O79 Co65 2.113 . S
O79 C87 1.245 . S
C80 O88 1.259 . S
C80 O89 1.257 . S
C81 O90 1.268 . S
C81 O91 1.253 . S
C82 O92 1.281 . S
C82 O93 1.252 . S
C83 O94 1.272 . S
C83 O95 1.245 . S
C84 O72 1.259 . S
C84 O73 1.257 . S
C85 O74 1.253 . S
C85 O75 1.268 . S
C86 O76 1.281 . S
C86 O77 1.252 . S
C87 O78 1.272 . S
C87 O79 1.245 . S
O88 Co64 2.053 . S
O88 C80 1.259 . S
O89 Co66 2.047 . S
O89 C80 1.257 . S
O90 Co65 2.063 . S
O90 C81 1.268 . S
O91 Co64 2.094 . S
O91 C81 1.253 . S
O92 Co71 2.115 . S
O92 C82 1.281 . S
O93 Co71 2.315 . S
O93 C82 1.252 . S
O94 Co64 2.122 . S
O94 C83 1.272 . S
O95 Co66 2.113 . S
O95 C83 1.245 . S
Co96 H99 2.400 . S
Co96 O100 2.009 . S
Co96 O108 2.115 . S
Co96 O109 2.315 . S
Co96 O120 2.053 . S
Co96 O123 2.094 . S
Co96 O126 2.122 . S
Co97 O100 2.126 . S
Co97 H101 2.388 . S
Co97 O102 2.053 . S
Co97 O105 2.047 . S
Co97 O111 2.113 . S
Co97 O122 2.063 . S
Co98 H99 2.388 . S
Co98 O100 2.053 . S
Co98 O102 2.126 . S
Co98 O107 2.063 . S
Co98 O121 2.047 . S
Co98 O127 2.113 . S
H99 Co96 2.400 . S
H99 Co98 2.388 . S
H99 O100 0.760 . S
O100 Co96 2.009 . S
O100 Co97 2.126 . S
O100 Co98 2.053 . S
O100 H99 0.760 . S
H101 Co97 2.388 . S
H101 O102 0.760 . S
H101 Co103 2.400 . S
O102 Co97 2.053 . S
O102 Co98 2.126 . S
O102 H101 0.760 . S
O102 Co103 2.009 . S
Co103 H101 2.400 . S
Co103 O102 2.009 . S
Co103 O104 2.053 . S
Co103 O106 2.094 . S
Co103 O110 2.122 . S
Co103 O124 2.115 . S
Co103 O125 2.315 . S
O104 Co103 2.053 . S
O104 C116 1.259 . S
O105 Co97 2.047 . S
O105 C116 1.257 . S
O106 Co103 2.094 . S
O106 C117 1.253 . S
O107 Co98 2.063 . S
O107 C117 1.268 . S
O108 Co96 2.115 . S
O108 C118 1.281 . S
O109 Co96 2.315 . S
O109 C118 1.252 . S
O110 Co103 2.122 . S
O110 C119 1.272 . S
O111 Co97 2.113 . S
O111 C119 1.245 . S
C112 O120 1.259 . S
C112 O121 1.257 . S
C113 O122 1.268 . S
C113 O123 1.253 . S
C114 O124 1.281 . S
C114 O125 1.252 . S
C115 O126 1.272 . S
C115 O127 1.245 . S
C116 O104 1.259 . S
C116 O105 1.257 . S
C117 O106 1.253 . S
C117 O107 1.268 . S
C118 O108 1.281 . S
C118 O109 1.252 . S
C119 O110 1.272 . S
C119 O111 1.245 . S
O120 Co96 2.053 . S
O120 C112 1.259 . S
O121 Co98 2.047 . S
O121 C112 1.257 . S
O122 Co97 2.063 . S
O122 C113 1.268 . S
O123 Co96 2.094 . S
O123 C113 1.253 . S
O124 Co103 2.115 . S
O124 C114 1.281 . S
O125 Co103 2.315 . S
O125 C114 1.252 . S
O126 Co96 2.122 . S
O126 C115 1.272 . S
O127 Co98 2.113 . S
O127 C115 1.245 . S
H128 C136 0.929 . S
H129 C138 0.930 . S
H130 C140 0.930 . S
H131 C143 0.929 . S
H132 C146 0.930 . S
H133 C148 0.960 . S
H134 C148 0.960 . S
H135 C148 0.960 . S
C136 H128 0.929 . S
C136 C137 1.377 1_455 S
C136 C138 1.384 . S
C137 C136 1.377 1_655 S
C137 C143 1.390 . S
C138 H129 0.930 . S
C138 C136 1.384 . S
C138 C139 1.372 1_455 S
C139 C138 1.372 1_655 S
C139 C140 1.400 . S
C139 C144 1.490 1_655 S
C140 H130 0.930 . S
C140 C139 1.400 . S
C140 C143 1.386 . S
H141 C157 0.930 1_655 S
H142 C158 0.931 1_655 S
C143 H131 0.929 . S
C143 C137 1.390 . S
C143 C140 1.386 . S
C144 C139 1.490 1_455 S
C144 C146 1.395 . S
C144 C147 1.403 1_455 S
H145 C151 0.930 . S
C146 H132 0.930 . S
C146 C144 1.395 . S
C146 C149 1.403 . S
C147 C144 1.403 1_655 S
C147 C148 1.524 . S
C147 C151 1.400 . S
C148 H133 0.960 . S
C148 H134 0.960 . S
C148 H135 0.960 . S
C148 C147 1.524 . S
C149 C146 1.403 . S
C149 C150 1.392 . S
C149 C153 1.495 . S
C150 C149 1.392 . S
C150 C151 1.385 1_455 S
C150 C152 1.478 . S
C151 H145 0.930 . S
C151 C147 1.400 . S
C151 C150 1.385 1_655 S
C152 C150 1.478 . S
C152 C154 1.381 . S
C152 C158 1.383 . S
C153 C149 1.495 . S
C153 H159 0.959 . S
C153 H160 0.961 . S
C153 H161 0.960 . S
C154 C152 1.381 . S
C154 C155 1.394 . S
C154 H162 0.930 . S
C155 C154 1.394 . S
C155 C156 1.383 . S
C155 H163 0.929 . S
C156 C155 1.383 . S
C156 C157 1.377 . S
C157 H141 0.930 1_455 S
C157 C156 1.377 . S
C157 C158 1.379 . S
C158 H142 0.931 1_455 S
C158 C152 1.383 . S
C158 C157 1.379 . S
H159 C153 0.959 . S
H160 C153 0.961 . S
H161 C153 0.960 . S
H162 C154 0.930 . S
H163 C155 0.929 . S
H164 C172 0.929 . S
H165 C174 0.930 . S
H166 C176 0.930 . S
H167 C179 0.929 . S
H168 C182 0.930 . S
H169 C184 0.960 . S
H170 C184 0.960 . S
H171 C184 0.960 . S
C172 H164 0.929 . S
C172 C173 1.377 1_455 S
C172 C174 1.384 . S
C173 C172 1.377 1_655 S
C173 C179 1.390 . S
C174 H165 0.930 . S
C174 C172 1.384 . S
C174 C175 1.372 . S
C175 C174 1.372 . S
C175 C176 1.400 1_455 S
C175 C180 1.490 . S
C176 H166 0.930 . S
C176 C175 1.400 1_655 S
C176 C179 1.386 . S
H177 C193 0.930 . S
H178 C194 0.931 . S
C179 H167 0.929 . S
C179 C173 1.390 . S
C179 C176 1.386 . S
C180 C175 1.490 . S
C180 C182 1.395 . S
C180 C183 1.403 1_455 S
H181 C187 0.930 . S
C182 H168 0.930 . S
C182 C180 1.395 . S
C182 C185 1.403 . S
C183 C180 1.403 1_655 S
C183 C184 1.524 . S
C183 C187 1.400 . S
C184 H169 0.960 . S
C184 H170 0.960 . S
C184 H171 0.960 . S
C184 C183 1.524 . S
C185 C182 1.403 . S
C185 C186 1.392 . S
C185 C189 1.495 . S
C186 C185 1.392 . S
C186 C187 1.385 1_455 S
C186 C188 1.478 . S
C187 H181 0.930 . S
C187 C183 1.400 . S
C187 C186 1.385 1_655 S
C188 C186 1.478 . S
C188 C190 1.381 . S
C188 C194 1.383 1_455 S
C189 C185 1.495 . S
C189 H195 0.959 . S
C189 H196 0.961 . S
C189 H197 0.960 . S
C190 C188 1.381 . S
C190 C191 1.394 . S
C190 H198 0.930 . S
C191 C190 1.394 . S
C191 C192 1.383 . S
C191 H199 0.929 . S
C192 C191 1.383 . S
C192 C193 1.377 1_455 S
C193 H177 0.930 . S
C193 C192 1.377 1_655 S
C193 C194 1.379 . S
C194 H178 0.931 . S
C194 C188 1.383 1_655 S
C194 C193 1.379 . S
H195 C189 0.959 . S
H196 C189 0.961 . S
H197 C189 0.960 . S
H198 C190 0.930 . S
H199 C191 0.929 . S
H200 C208 0.929 . S
H201 C210 0.930 . S
H202 C212 0.930 . S
H203 C215 0.929 1_554 S
H204 C218 0.930 . S
H205 C220 0.960 . S
H206 C220 0.960 . S
H207 C220 0.960 . S
C208 H200 0.929 . S
C208 C209 1.377 . S
C208 C210 1.384 . S
C209 C208 1.377 . S
C209 C215 1.390 . S
C210 H201 0.930 . S
C210 C208 1.384 . S
C210 C211 1.372 . S
C211 C210 1.372 . S
C211 C212 1.400 . S
C211 C216 1.490 . S
C212 H202 0.930 . S
C212 C211 1.400 . S
C212 C215 1.386 . S
H213 C229 0.930 . S
H214 C230 0.931 . S
C215 H203 0.929 1_556 S
C215 C209 1.390 . S
C215 C212 1.386 . S
C216 C211 1.490 . S
C216 C218 1.395 . S
C216 C219 1.403 . S
H217 C223 0.930 . S
C218 H204 0.930 . S
C218 C216 1.395 . S
C218 C221 1.403 . S
C219 C216 1.403 . S
C219 C220 1.524 . S
C219 C223 1.400 . S
C220 H205 0.960 . S
C220 H206 0.960 . S
C220 H207 0.960 . S
C220 C219 1.524 . S
C221 C218 1.403 . S
C221 C222 1.392 . S
C221 C225 1.495 . S
C222 C221 1.392 . S
C222 C223 1.385 . S
C222 C224 1.478 . S
C223 H217 0.930 . S
C223 C219 1.400 . S
C223 C222 1.385 . S
C224 C222 1.478 . S
C224 C226 1.381 . S
C224 C230 1.383 . S
C225 C221 1.495 . S
C225 H231 0.959 . S
C225 H232 0.961 . S
C225 H233 0.960 . S
C226 C224 1.381 . S
C226 C227 1.394 . S
C226 H234 0.930 . S
C227 C226 1.394 . S
C227 C228 1.383 . S
C227 H235 0.929 . S
C228 C227 1.383 . S
C228 C229 1.377 . S
C229 H213 0.930 . S
C229 C228 1.377 . S
C229 C230 1.379 . S
C230 H214 0.931 . S
C230 C224 1.383 . S
C230 C229 1.379 . S
H231 C225 0.959 . S
H232 C225 0.961 . S
H233 C225 0.960 . S
H234 C226 0.930 . S
H235 C227 0.929 . S
H236 C244 0.929 1_556 S
H237 C246 0.930 . S
H238 C248 0.930 . S
H239 C251 0.929 . S
H240 C254 0.930 . S
H241 C256 0.960 . S
H242 C256 0.960 . S
H243 C256 0.960 . S
C244 H236 0.929 1_554 S
C244 C245 1.377 . S
C244 C246 1.384 . S
C245 C244 1.377 . S
C245 C251 1.390 . S
C246 H237 0.930 . S
C246 C244 1.384 . S
C246 C247 1.372 . S
C247 C246 1.372 . S
C247 C248 1.400 . S
C247 C252 1.490 . S
C248 H238 0.930 . S
C248 C247 1.400 . S
C248 C251 1.386 . S
H249 C265 0.930 . S
H250 C266 0.931 . S
C251 H239 0.929 . S
C251 C245 1.390 . S
C251 C248 1.386 . S
C252 C247 1.490 . S
C252 C254 1.395 . S
C252 C255 1.403 . S
H253 C259 0.930 . S
C254 H240 0.930 . S
C254 C252 1.395 . S
C254 C257 1.403 . S
C255 C252 1.403 . S
C255 C256 1.524 . S
C255 C259 1.400 . S
C256 H241 0.960 . S
C256 H242 0.960 . S
C256 H243 0.960 . S
C256 C255 1.524 . S
C257 C254 1.403 . S
C257 C258 1.392 . S
C257 C261 1.495 . S
C258 C257 1.392 . S
C258 C259 1.385 . S
C258 C260 1.478 . S
C259 H253 0.930 . S
C259 C255 1.400 . S
C259 C258 1.385 . S
C260 C258 1.478 . S
C260 C262 1.381 . S
C260 C266 1.383 . S
C261 C257 1.495 . S
C261 H267 0.959 . S
C261 H268 0.961 . S
C261 H269 0.960 . S
C262 C260 1.381 . S
C262 C263 1.394 . S
C262 H270 0.930 . S
C263 C262 1.394 . S
C263 C264 1.383 . S
C263 H271 0.929 . S
C264 C263 1.383 . S
C264 C265 1.377 . S
C265 H249 0.930 . S
C265 C264 1.377 . S
C265 C266 1.379 . S
C266 H250 0.931 . S
C266 C260 1.383 . S
C266 C265 1.379 . S
H267 C261 0.959 . S
H268 C261 0.961 . S
H269 C261 0.960 . S
H270 C262 0.930 . S
H271 C263 0.929 . S
H272 C280 0.929 . S
H273 C282 0.930 . S
H274 C284 0.930 . S
H275 C287 0.929 . S
H276 C290 0.930 . S
H277 C292 0.960 . S
H278 C292 0.960 . S
H279 C292 0.960 . S
C280 H272 0.929 . S
C280 C281 1.377 . S
C280 C282 1.384 . S
C281 C280 1.377 . S
C281 C287 1.390 . S
C282 H273 0.930 . S
C282 C280 1.384 . S
C282 C283 1.372 . S
C283 C282 1.372 . S
C283 C284 1.400 . S
C283 C288 1.490 . S
C284 H274 0.930 . S
C284 C283 1.400 . S
C284 C287 1.386 . S
H285 C301 0.930 . S
H286 C302 0.931 . S
C287 H275 0.929 . S
C287 C281 1.390 . S
C287 C284 1.386 . S
C288 C283 1.490 . S
C288 C290 1.395 . S
C288 C291 1.403 . S
H289 C295 0.930 . S
C290 H276 0.930 . S
C290 C288 1.395 . S
C290 C293 1.403 . S
C291 C288 1.403 . S
C291 C292 1.524 . S
C291 C295 1.400 . S
C292 H277 0.960 . S
C292 H278 0.960 . S
C292 H279 0.960 . S
C292 C291 1.524 . S
C293 C290 1.403 . S
C293 C294 1.392 . S
C293 C297 1.495 . S
C294 C293 1.392 . S
C294 C295 1.385 . S
C294 C296 1.478 . S
C295 H289 0.930 . S
C295 C291 1.400 . S
C295 C294 1.385 . S
C296 C294 1.478 . S
C296 C298 1.381 . S
C296 C302 1.383 . S
C297 C293 1.495 . S
C297 H303 0.959 . S
C297 H304 0.961 . S
C297 H305 0.960 . S
C298 C296 1.381 . S
C298 C299 1.394 . S
C298 H306 0.930 . S
C299 C298 1.394 . S
C299 C300 1.383 . S
C299 H307 0.929 . S
C300 C299 1.383 . S
C300 C301 1.377 . S
C301 H285 0.930 . S
C301 C300 1.377 . S
C301 C302 1.379 . S
C302 H286 0.931 . S
C302 C296 1.383 . S
C302 C301 1.379 . S
H303 C297 0.959 . S
H304 C297 0.961 . S
H305 C297 0.960 . S
H306 C298 0.930 . S
H307 C299 0.929 . S
H308 C316 0.929 . S
H309 C318 0.930 . S
H310 C320 0.930 . S
H311 C323 0.929 . S
H312 C326 0.930 . S
H313 C328 0.960 . S
H314 C328 0.960 . S
H315 C328 0.960 . S
C316 H308 0.929 . S
C316 C317 1.377 . S
C316 C318 1.384 . S
C317 C316 1.377 . S
C317 C323 1.390 . S
C318 H309 0.930 . S
C318 C316 1.384 . S
C318 C319 1.372 . S
C319 C318 1.372 . S
C319 C320 1.400 . S
C319 C324 1.490 . S
C320 H310 0.930 . S
C320 C319 1.400 . S
C320 C323 1.386 . S
H321 C337 0.930 . S
H322 C338 0.931 . S
C323 H311 0.929 . S
C323 C317 1.390 . S
C323 C320 1.386 . S
C324 C319 1.490 . S
C324 C326 1.395 . S
C324 C327 1.403 . S
H325 C331 0.930 . S
C326 H312 0.930 . S
C326 C324 1.395 . S
C326 C329 1.403 . S
C327 C324 1.403 . S
C327 C328 1.524 . S
C327 C331 1.400 . S
C328 H313 0.960 . S
C328 H314 0.960 . S
C328 H315 0.960 . S
C328 C327 1.524 . S
C329 C326 1.403 . S
C329 C330 1.392 . S
C329 C333 1.495 . S
C330 C329 1.392 . S
C330 C331 1.385 . S
C330 C332 1.478 . S
C331 H325 0.930 . S
C331 C327 1.400 . S
C331 C330 1.385 . S
C332 C330 1.478 . S
C332 C334 1.381 . S
C332 C338 1.383 . S
C333 C329 1.495 . S
C333 H339 0.959 . S
C333 H340 0.961 . S
C333 H341 0.960 . S
C334 C332 1.381 . S
C334 C335 1.394 . S
C334 H342 0.930 . S
C335 C334 1.394 . S
C335 C336 1.383 . S
C335 H343 0.929 . S
C336 C335 1.383 . S
C336 C337 1.377 . S
C337 H321 0.930 . S
C337 C336 1.377 . S
C337 C338 1.379 . S
C338 H322 0.931 . S
C338 C332 1.383 . S
C338 C337 1.379 . S
H339 C333 0.959 . S
H340 C333 0.961 . S
H341 C333 0.960 . S
H342 C334 0.930 . S
H343 C335 0.929 . S
H344 C352 0.929 . S
H345 C354 0.930 . S
H346 C356 0.930 . S
H347 C359 0.929 . S
H348 C362 0.930 . S
H349 C364 0.960 . S
H350 C364 0.960 . S
H351 C364 0.960 . S
C352 H344 0.929 . S
C352 C353 1.377 . S
C352 C354 1.384 . S
C353 C352 1.377 . S
C353 C359 1.390 . S
C354 H345 0.930 . S
C354 C352 1.384 . S
C354 C355 1.372 . S
C355 C354 1.372 . S
C355 C356 1.400 . S
C355 C360 1.490 . S
C356 H346 0.930 . S
C356 C355 1.400 . S
C356 C359 1.386 . S
H357 C373 0.930 . S
H358 C374 0.931 . S
C359 H347 0.929 . S
C359 C353 1.390 . S
C359 C356 1.386 . S
C360 C355 1.490 . S
C360 C362 1.395 1_655 S
C360 C363 1.403 . S
H361 C367 0.930 . S
C362 H348 0.930 . S
C362 C360 1.395 1_455 S
C362 C365 1.403 . S
C363 C360 1.403 . S
C363 C364 1.524 . S
C363 C367 1.400 1_655 S
C364 H349 0.960 . S
C364 H350 0.960 . S
C364 H351 0.960 . S
C364 C363 1.524 . S
C365 C362 1.403 . S
C365 C366 1.392 . S
C365 C369 1.495 . S
C366 C365 1.392 . S
C366 C367 1.385 . S
C366 C368 1.478 . S
C367 H361 0.930 . S
C367 C363 1.400 1_455 S
C367 C366 1.385 . S
C368 C366 1.478 . S
C368 C370 1.381 . S
C368 C374 1.383 . S
C369 C365 1.495 . S
C369 H375 0.959 . S
C369 H376 0.961 . S
C369 H377 0.960 . S
C370 C368 1.381 . S
C370 C371 1.394 . S
C370 H378 0.930 . S
C371 C370 1.394 . S
C371 C372 1.383 . S
C371 H379 0.929 . S
C372 C371 1.383 . S
C372 C373 1.377 . S
C373 H357 0.930 . S
C373 C372 1.377 . S
C373 C374 1.379 . S
C374 H358 0.931 . S
C374 C368 1.383 . S
C374 C373 1.379 . S
H375 C369 0.959 . S
H376 C369 0.961 . S
H377 C369 0.960 . S
H378 C370 0.930 . S
H379 C371 0.929 . S
H380 C388 0.929 . S
H381 C390 0.930 . S
H382 C392 0.930 . S
H383 C395 0.929 . S
H384 C398 0.930 . S
H385 C400 0.960 . S
H386 C400 0.960 1_655 S
H387 C400 0.952 1_655 S
C388 H380 0.929 . S
C388 C389 1.377 . S
C388 C390 1.384 . S
C389 C388 1.377 . S
C389 C395 1.390 . S
C390 H381 0.930 . S
C390 C388 1.384 . S
C390 C391 1.372 . S
C391 C390 1.372 . S
C391 C392 1.400 . S
C391 C396 1.490 . S
C392 H382 0.930 . S
C392 C391 1.400 . S
C392 C395 1.386 . S
H393 C409 0.930 . S
H394 C410 0.931 . S
C395 H383 0.929 . S
C395 C389 1.390 . S
C395 C392 1.386 . S
C396 C391 1.490 . S
C396 C398 1.395 . S
C396 C399 1.403 1_655 S
H397 C403 0.930 . S
C398 H384 0.930 . S
C398 C396 1.395 . S
C398 C401 1.403 1_655 S
C399 C396 1.403 1_455 S
C399 C400 1.524 . S
C399 C403 1.400 . S
C400 H385 0.960 . S
C400 H386 0.960 1_455 S
C400 H387 0.952 1_455 S
C400 C399 1.524 . S
C401 C398 1.403 1_455 S
C401 C402 1.392 . S
C401 C405 1.495 . S
C402 C401 1.392 . S
C402 C403 1.385 . S
C402 C404 1.478 . S
C403 H397 0.930 . S
C403 C399 1.400 . S
C403 C402 1.385 . S
C404 C402 1.478 . S
C404 C406 1.381 . S
C404 C410 1.383 . S
C405 C401 1.495 . S
C405 H411 0.959 1_455 S
C405 H412 0.961 . S
C405 H413 0.960 . S
C406 C404 1.381 . S
C406 C407 1.394 . S
C406 H414 0.930 . S
C407 C406 1.394 . S
C407 C408 1.383 . S
C407 H415 0.929 . S
C408 C407 1.383 . S
C408 C409 1.377 . S
C409 H393 0.930 . S
C409 C408 1.377 . S
C409 C410 1.379 . S
C410 H394 0.931 . S
C410 C404 1.383 . S
C410 C409 1.379 . S
H411 C405 0.959 1_655 S
H412 C405 0.961 . S
H413 C405 0.960 . S
H414 C406 0.930 . S
H415 C407 0.929 . S
H416 C424 0.929 . S
H417 C426 0.930 . S
H418 C428 0.930 . S
H419 C431 0.929 . S
H420 C434 0.930 . S
H421 C436 0.960 . S
H422 C436 0.960 . S
H423 C436 0.960 . S
C424 H416 0.929 . S
C424 C425 1.377 . S
C424 C426 1.384 . S
C425 C424 1.377 . S
C425 C431 1.390 . S
C426 H417 0.930 . S
C426 C424 1.384 . S
C426 C427 1.372 . S
C427 C426 1.372 . S
C427 C428 1.400 . S
C427 C432 1.490 . S
C428 H418 0.930 . S
C428 C427 1.400 . S
C428 C431 1.386 . S
H429 C445 0.930 . S
H430 C446 0.931 . S
C431 H419 0.929 . S
C431 C425 1.390 . S
C431 C428 1.386 . S
C432 C427 1.490 . S
C432 C434 1.395 . S
C432 C435 1.403 . S
H433 C439 0.930 . S
C434 H420 0.930 . S
C434 C432 1.395 . S
C434 C437 1.403 . S
C435 C432 1.403 . S
C435 C436 1.524 . S
C435 C439 1.400 . S
C436 H421 0.960 . S
C436 H422 0.960 . S
C436 H423 0.960 . S
C436 C435 1.524 . S
C437 C434 1.403 . S
C437 C438 1.392 . S
C437 C441 1.495 . S
C438 C437 1.392 . S
C438 C439 1.385 . S
C438 C440 1.478 . S
C439 H433 0.930 . S
C439 C435 1.400 . S
C439 C438 1.385 . S
C440 C438 1.478 . S
C440 C442 1.381 . S
C440 C446 1.383 . S
C441 C437 1.495 . S
C441 H447 0.959 . S
C441 H448 0.961 . S
C441 H449 0.960 . S
C442 C440 1.381 . S
C442 C443 1.394 . S
C442 H450 0.930 . S
C443 C442 1.394 . S
C443 C444 1.383 . S
C443 H451 0.929 . S
C444 C443 1.383 . S
C444 C445 1.377 . S
C445 H429 0.930 . S
C445 C444 1.377 . S
C445 C446 1.379 . S
C446 H430 0.931 . S
C446 C440 1.383 . S
C446 C445 1.379 . S
H447 C441 0.959 . S
H448 C441 0.961 . S
H449 C441 0.960 . S
H450 C442 0.930 . S
H451 C443 0.929 . S
H452 C460 0.929 . S
H453 C462 0.930 . S
H454 C464 0.930 . S
H455 C467 0.929 . S
H456 C470 0.930 . S
H457 C472 0.960 . S
H458 C472 0.960 . S
H459 C472 0.960 . S
C460 H452 0.929 . S
C460 C461 1.377 . S
C460 C462 1.384 . S
C461 C460 1.377 . S
C461 C467 1.390 . S
C462 H453 0.930 . S
C462 C460 1.384 . S
C462 C463 1.372 . S
C463 C462 1.372 . S
C463 C464 1.400 . S
C463 C468 1.490 . S
C464 H454 0.930 . S
C464 C463 1.400 . S
C464 C467 1.386 . S
H465 C481 0.930 . S
H466 C482 0.931 . S
C467 H455 0.929 . S
C467 C461 1.390 . S
C467 C464 1.386 . S
C468 C463 1.490 . S
C468 C470 1.395 1_556 S
C468 C471 1.403 . S
H469 C475 0.930 . S
C470 H456 0.930 . S
C470 C468 1.395 1_554 S
C470 C473 1.403 . S
C471 C468 1.403 . S
C471 C472 1.524 . S
C471 C475 1.400 . S
C472 H457 0.960 . S
C472 H458 0.960 . S
C472 H459 0.960 . S
C472 C471 1.524 . S
C473 C470 1.403 . S
C473 C474 1.392 . S
C473 C477 1.495 . S
C474 C473 1.392 . S
C474 C475 1.385 1_554 S
C474 C476 1.478 . S
C475 H469 0.930 . S
C475 C471 1.400 . S
C475 C474 1.385 1_556 S
C476 C474 1.478 . S
C476 C478 1.381 . S
C476 C482 1.383 . S
C477 C473 1.495 . S
C477 H483 0.959 . S
C477 H484 0.961 . S
C477 H485 0.960 . S
C478 C476 1.381 . S
C478 C479 1.394 . S
C478 H486 0.930 . S
C479 C478 1.394 . S
C479 C480 1.383 . S
C479 H487 0.929 . S
C480 C479 1.383 . S
C480 C481 1.377 . S
C481 H465 0.930 . S
C481 C480 1.377 . S
C481 C482 1.379 . S
C482 H466 0.931 . S
C482 C476 1.383 . S
C482 C481 1.379 . S
H483 C477 0.959 . S
H484 C477 0.961 . S
H485 C477 0.960 . S
H486 C478 0.930 . S
H487 C479 0.929 . S
H488 C496 0.929 . S
H489 C498 0.930 . S
H490 C500 0.930 . S
H491 C503 0.929 . S
H492 C506 0.930 . S
H493 C508 0.960 . S
H494 C508 0.960 . S
H495 C508 0.960 . S
C496 H488 0.929 . S
C496 C497 1.377 . S
C496 C498 1.384 . S
C497 C496 1.377 . S
C497 C503 1.390 . S
C498 H489 0.930 . S
C498 C496 1.384 . S
C498 C499 1.372 . S
C499 C498 1.372 . S
C499 C500 1.400 . S
C499 C504 1.490 . S
C500 H490 0.930 . S
C500 C499 1.400 . S
C500 C503 1.386 . S
H501 C517 0.930 . S
H502 C518 0.931 . S
C503 H491 0.929 . S
C503 C497 1.390 . S
C503 C500 1.386 . S
C504 C499 1.490 . S
C504 C506 1.395 . S
C504 C507 1.403 . S
H505 C511 0.930 . S
C506 H492 0.930 . S
C506 C504 1.395 . S
C506 C509 1.403 . S
C507 C504 1.403 . S
C507 C508 1.524 . S
C507 C511 1.400 . S
C508 H493 0.960 . S
C508 H494 0.960 . S
C508 H495 0.960 . S
C508 C507 1.524 . S
C509 C506 1.403 . S
C509 C510 1.392 . S
C509 C513 1.495 . S
C510 C509 1.392 . S
C510 C511 1.385 . S
C510 C512 1.478 . S
C511 H505 0.930 . S
C511 C507 1.400 . S
C511 C510 1.385 . S
C512 C510 1.478 . S
C512 C514 1.381 . S
C512 C518 1.383 . S
C513 C509 1.495 . S
C513 H519 0.959 . S
C513 H520 0.961 . S
C513 H521 0.960 . S
C514 C512 1.381 . S
C514 C515 1.394 . S
C514 H522 0.930 . S
C515 C514 1.394 . S
C515 C516 1.383 . S
C515 H523 0.929 . S
C516 C515 1.383 . S
C516 C517 1.377 . S
C517 H501 0.930 . S
C517 C516 1.377 . S
C517 C518 1.379 . S
C518 H502 0.931 . S
C518 C512 1.383 . S
C518 C517 1.379 . S
H519 C513 0.959 . S
H520 C513 0.961 . S
H521 C513 0.960 . S
H522 C514 0.930 . S
H523 C515 0.929 . S
H524 C532 0.929 . S
H525 C534 0.930 . S
H526 C536 0.930 . S
H527 C539 0.929 . S
H528 C542 0.930 . S
H529 C544 0.960 . S
H530 C544 0.960 . S
H531 C544 0.960 . S
C532 H524 0.929 . S
C532 C533 1.377 . S
C532 C534 1.384 . S
C533 C532 1.377 . S
C533 C539 1.390 . S
C534 H525 0.930 . S
C534 C532 1.384 . S
C534 C535 1.372 . S
C535 C534 1.372 . S
C535 C536 1.400 . S
C535 C540 1.490 . S
C536 H526 0.930 . S
C536 C535 1.400 . S
C536 C539 1.386 . S
H537 C553 0.930 1_655 S
H538 C554 0.931 . S
C539 H527 0.929 . S
C539 C533 1.390 . S
C539 C536 1.386 . S
C540 C535 1.490 . S
C540 C542 1.395 1_554 S
C540 C543 1.403 . S
H541 C547 0.930 . S
C542 H528 0.930 . S
C542 C540 1.395 1_556 S
C542 C545 1.403 . S
C543 C540 1.403 . S
C543 C544 1.524 . S
C543 C547 1.400 . S
C544 H529 0.960 . S
C544 H530 0.960 . S
C544 H531 0.960 . S
C544 C543 1.524 . S
C545 C542 1.403 . S
C545 C546 1.392 . S
C545 C549 1.495 . S
C546 C545 1.392 . S
C546 C547 1.385 1_556 S
C546 C548 1.478 . S
C547 H541 0.930 . S
C547 C543 1.400 . S
C547 C546 1.385 1_554 S
C548 C546 1.478 . S
C548 C550 1.381 . S
C548 C554 1.383 . S
C549 C545 1.495 . S
C549 H555 0.959 . S
C549 H556 0.961 . S
C549 H557 0.960 . S
C550 C548 1.381 . S
C550 C551 1.394 . S
C550 H558 0.930 . S
C551 C550 1.394 . S
C551 C552 1.383 . S
C551 H559 0.929 . S
C552 C551 1.383 . S
C552 C553 1.377 . S
C553 H537 0.930 1_455 S
C553 C552 1.377 . S
C553 C554 1.379 . S
C554 H538 0.931 . S
C554 C548 1.383 . S
C554 C553 1.379 . S
H555 C549 0.959 . S
H556 C549 0.961 . S
H557 C549 0.960 . S
H558 C550 0.930 . S
H559 C551 0.929 . S
H560 C568 0.929 . S
H561 C570 0.930 1_556 S
H562 C572 0.930 . S
H563 C575 0.929 . S
H564 C578 0.930 . S
H565 C580 0.960 . S
H566 C580 0.978 . S
H567 C580 0.960 . S
C568 H560 0.929 . S
C568 C569 1.377 . S
C568 C570 1.384 . S
C569 C568 1.377 . S
C569 C575 1.390 1_655 S
C570 H561 0.930 1_554 S
C570 C568 1.384 . S
C570 C571 1.372 . S
C571 C570 1.372 . S
C571 C572 1.400 1_655 S
C571 C576 1.490 1_655 S
C572 H562 0.930 . S
C572 C571 1.400 1_455 S
C572 C575 1.386 . S
H573 C589 0.930 . S
H574 C590 0.931 1_554 S
C575 H563 0.929 . S
C575 C569 1.390 1_455 S
C575 C572 1.386 . S
C576 C571 1.490 1_455 S
C576 C578 1.395 1_554 S
C576 C579 1.403 1_445 S
H577 C583 0.930 . S
C578 H564 0.930 . S
C578 C576 1.395 1_556 S
C578 C581 1.403 . S
C579 C576 1.403 1_665 S
C579 C580 1.524 . S
C579 C583 1.400 . S
C580 H565 0.960 . S
C580 H566 0.978 . S
C580 H567 0.960 . S
C580 C579 1.524 . S
C581 C578 1.403 . S
C581 C582 1.392 1_545 S
C581 C585 1.495 . S
C582 C581 1.392 1_565 S
C582 C583 1.385 1_456 S
C582 C584 1.478 . S
C583 H577 0.930 . S
C583 C579 1.400 . S
C583 C582 1.385 1_654 S
C584 C582 1.478 . S
C584 C586 1.381 1_455 S
C584 C590 1.383 . S
C585 C581 1.495 . S
C585 H591 0.959 . S
C585 H592 0.961 . S
C585 H593 0.960 . S
C586 C584 1.381 1_655 S
C586 C587 1.394 . S
C586 H594 0.930 . S
C587 C586 1.394 . S
C587 C588 1.383 1_655 S
C587 H595 0.929 . S
C588 C587 1.383 1_455 S
C588 C589 1.377 . S
C589 H573 0.930 . S
C589 C588 1.377 . S
C589 C590 1.379 . S
C590 H574 0.931 1_556 S
C590 C584 1.383 . S
C590 C589 1.379 . S
H591 C585 0.959 . S
H592 C585 0.961 . S
H593 C585 0.960 . S
H594 C586 0.930 . S
H595 C587 0.929 . S
H596 C604 0.929 1_655 S
H597 C606 0.931 1_655 S
H598 C608 0.930 . S
H599 C611 0.929 . S
H600 C614 0.930 . S
H601 C616 0.960 . S
H602 C616 0.960 . S
H603 C616 0.960 . S
C604 H596 0.929 1_455 S
C604 C605 1.377 . S
C604 C606 1.385 . S
C605 C604 1.377 . S
C605 C611 1.390 . S
C606 H597 0.931 1_455 S
C606 C604 1.385 . S
C606 C607 1.370 . S
C607 C606 1.370 . S
C607 C608 1.400 . S
C607 C612 1.490 . S
C608 H598 0.930 . S
C608 C607 1.400 . S
C608 C611 1.386 . S
H609 C625 0.930 . S
H610 C626 0.931 . S
C611 H599 0.929 . S
C611 C605 1.390 . S
C611 C608 1.386 . S
C612 C607 1.490 . S
C612 C614 1.395 . S
C612 C615 1.403 1_455 S
H613 C619 0.930 . S
C614 H600 0.930 . S
C614 C612 1.395 . S
C614 C617 1.403 1_545 S
C615 C612 1.403 1_655 S
C615 C616 1.524 . S
C615 C619 1.400 1_545 S
C616 H601 0.960 . S
C616 H602 0.960 . S
C616 H603 0.960 . S
C616 C615 1.524 . S
C617 C614 1.403 1_565 S
C617 C618 1.392 . S
C617 C621 1.495 . S
C618 C617 1.392 . S
C618 C619 1.385 1_455 S
C618 C620 1.478 . S
C619 H613 0.930 . S
C619 C615 1.400 1_565 S
C619 C618 1.385 1_655 S
C620 C618 1.478 . S
C620 C622 1.381 1_455 S
C620 C626 1.383 . S
C621 C617 1.495 . S
C621 H627 0.959 . S
C621 H628 0.961 . S
C621 H629 0.960 . S
C622 C620 1.381 1_655 S
C622 C623 1.394 . S
C622 H630 0.930 . S
C623 C622 1.394 . S
C623 C624 1.383 . S
C623 H631 0.929 . S
C624 C623 1.383 . S
C624 C625 1.377 1_655 S
C625 H609 0.930 . S
C625 C624 1.377 1_455 S
C625 C626 1.379 . S
C626 H610 0.931 . S
C626 C620 1.383 . S
C626 C625 1.379 . S
H627 C621 0.959 . S
H628 C621 0.961 . S
H629 C621 0.960 . S
H630 C622 0.930 . S
H631 C623 0.929 . S
H632 C640 0.929 . S
H633 C642 0.930 . S
H634 C644 0.930 . S
H635 C647 0.929 . S
H636 C650 0.930 . S
H637 C652 0.960 . S
H638 C652 0.960 . S
H639 C652 0.960 . S
C640 H632 0.929 . S
C640 C641 1.377 . S
C640 C642 1.384 . S
C641 C640 1.377 . S
C641 C647 1.390 . S
C642 H633 0.930 . S
C642 C640 1.384 . S
C642 C643 1.372 . S
C643 C642 1.372 . S
C643 C644 1.400 . S
C643 C648 1.490 . S
C644 H634 0.930 . S
C644 C643 1.400 . S
C644 C647 1.386 . S
H645 C661 0.930 . S
H646 C662 0.931 . S
C647 H635 0.929 . S
C647 C641 1.390 . S
C647 C644 1.386 . S
C648 C643 1.490 . S
C648 C650 1.395 1_554 S
C648 C651 1.403 . S
H649 C655 0.930 . S
C650 H636 0.930 . S
C650 C648 1.395 1_556 S
C650 C653 1.403 . S
C651 C648 1.403 . S
C651 C652 1.524 . S
C651 C655 1.400 . S
C652 H637 0.960 . S
C652 H638 0.960 . S
C652 H639 0.960 . S
C652 C651 1.524 . S
C653 C650 1.403 . S
C653 C654 1.392 . S
C653 C657 1.495 . S
C654 C653 1.392 . S
C654 C655 1.385 1_556 S
C654 C656 1.478 . S
C655 H649 0.930 . S
C655 C651 1.400 . S
C655 C654 1.385 1_554 S
C656 C654 1.478 . S
C656 C658 1.381 . S
C656 C662 1.383 . S
C657 C653 1.495 . S
C657 H663 0.959 . S
C657 H664 0.961 . S
C657 H665 0.960 . S
C658 C656 1.381 . S
C658 C659 1.394 . S
C658 H666 0.930 . S
C659 C658 1.394 . S
C659 C660 1.383 . S
C659 H667 0.929 . S
C660 C659 1.383 . S
C660 C661 1.377 . S
C661 H645 0.930 . S
C661 C660 1.377 . S
C661 C662 1.379 . S
C662 H646 0.931 . S
C662 C656 1.383 . S
C662 C661 1.379 . S
H663 C657 0.959 . S
H664 C657 0.961 . S
H665 C657 0.960 . S
H666 C658 0.930 . S
H667 C659 0.929 . S
H668 C676 0.929 . S
H669 C678 0.930 . S
H670 C680 0.930 . S
H671 C683 0.929 . S
H672 C686 0.930 . S
H673 C688 0.960 . S
H674 C688 0.960 . S
H675 C688 0.960 . S
C676 H668 0.929 . S
C676 C677 1.377 . S
C676 C678 1.384 . S
C677 C676 1.377 . S
C677 C683 1.390 . S
C678 H669 0.930 . S
C678 C676 1.384 . S
C678 C679 1.372 . S
C679 C678 1.372 . S
C679 C680 1.400 . S
C679 C684 1.490 . S
C680 H670 0.930 . S
C680 C679 1.400 . S
C680 C683 1.386 . S
H681 C697 0.930 . S
H682 C698 0.931 . S
C683 H671 0.929 . S
C683 C677 1.390 . S
C683 C680 1.386 . S
C684 C679 1.490 . S
C684 C686 1.395 . S
C684 C687 1.403 . S
H685 C691 0.930 . S
C686 H672 0.930 . S
C686 C684 1.395 . S
C686 C689 1.403 . S
C687 C684 1.403 . S
C687 C688 1.524 . S
C687 C691 1.400 . S
C688 H673 0.960 . S
C688 H674 0.960 . S
C688 H675 0.960 . S
C688 C687 1.524 . S
C689 C686 1.403 . S
C689 C690 1.392 . S
C689 C693 1.495 . S
C690 C689 1.392 . S
C690 C691 1.385 . S
C690 C692 1.478 . S
C691 H685 0.930 . S
C691 C687 1.400 . S
C691 C690 1.385 . S
C692 C690 1.478 . S
C692 C694 1.381 . S
C692 C698 1.383 . S
C693 C689 1.495 . S
C693 H699 0.959 . S
C693 H700 0.961 . S
C693 H701 0.960 . S
C694 C692 1.381 . S
C694 C695 1.394 . S
C694 H702 0.930 . S
C695 C694 1.394 . S
C695 C696 1.383 . S
C695 H703 0.929 . S
C696 C695 1.383 . S
C696 C697 1.377 . S
C697 H681 0.930 . S
C697 C696 1.377 . S
C697 C698 1.379 . S
C698 H682 0.931 . S
C698 C692 1.383 . S
C698 C697 1.379 . S
H699 C693 0.959 . S
H700 C693 0.961 . S
H701 C693 0.960 . S
H702 C694 0.930 . S
H703 C695 0.929 . S
C137 C20 1.504 1_556 S
C156 C16 1.508 . S
C173 C52 1.504 . S
C192 C48 1.510 1_554 S
C209 C84 1.504 1_556 S
C228 C80 1.495 . S
C245 C112 1.502 1_554 S
C264 C116 1.509 . S
C281 C19 0.465 . S
C300 C23 0.462 . S
C317 C51 0.463 . S
C336 C55 0.521 . S
C353 C87 0.457 . S
C372 C83 0.411 . S
C389 C119 0.435 . S
C408 C115 0.448 . S
C425 C114 1.846 . S
C444 C22 1.858 . S
C461 C117 2.115 . S
C480 C17 2.126 . S
C497 C86 1.847 . S
C516 C50 1.855 . S
C533 C81 2.118 . S
C552 C53 2.100 . S
C569 C18 2.063 . S
C588 C54 2.074 . S
C605 C21 1.715 . S
C624 C49 1.708 . S
C641 C82 2.065 . S
C660 C118 2.066 . S
C677 C113 1.715 . S
C696 C85 1.714 . S
