# Generated by pormake.
# Topology acs-g, (3)-cn, num edge types: 1
# Building blocks:
#     Node 0, Type 0, BuildingBlock: OLANEW_clean_sbu_2, # of connection points: 3
#     Node 1, Type 0, BuildingBlock: OLANEW_clean_sbu_2, # of connection points: 3
#     Node 2, Type 0, BuildingBlock: OLANEW_clean_sbu_2, # of connection points: 3
#     Node 3, Type 0, BuildingBlock: OLANEW_clean_sbu_2, # of connection points: 3
#     Node 4, Type 0, BuildingBlock: OLANEW_clean_sbu_2, # of connection points: 3
#     Node 5, Type 0, BuildingBlock: OLANEW_clean_sbu_2, # of connection points: 3
#     Node 6, Type 0, BuildingBlock: OLANEW_clean_sbu_2, # of connection points: 3
#     Node 7, Type 0, BuildingBlock: OLANEW_clean_sbu_2, # of connection points: 3
#     Node 8, Type 0, BuildingBlock: OLANEW_clean_sbu_2, # of connection points: 3
#     Node 9, Type 0, BuildingBlock: OLANEW_clean_sbu_2, # of connection points: 3
#     Node 10, Type 0, BuildingBlock: OLANEW_clean_sbu_2, # of connection points: 3
#     Node 11, Type 0, BuildingBlock: OLANEW_clean_sbu_2, # of connection points: 3
#     Edge 12, Type (0, 0), BuildingBlock: CIFDUS_clean_linker_0, # of connection points: 2
#     Edge 13, Type (0, 0), BuildingBlock: CIFDUS_clean_linker_0, # of connection points: 2
#     Edge 14, Type (0, 0), BuildingBlock: CIFDUS_clean_linker_0, # of connection points: 2
#     Edge 15, Type (0, 0), BuildingBlock: CIFDUS_clean_linker_0, # of connection points: 2
#     Edge 16, Type (0, 0), BuildingBlock: CIFDUS_clean_linker_0, # of connection points: 2
#     Edge 17, Type (0, 0), BuildingBlock: CIFDUS_clean_linker_0, # of connection points: 2
#     Edge 18, Type (0, 0), BuildingBlock: CIFDUS_clean_linker_0, # of connection points: 2
#     Edge 19, Type (0, 0), BuildingBlock: CIFDUS_clean_linker_0, # of connection points: 2
#     Edge 20, Type (0, 0), BuildingBlock: CIFDUS_clean_linker_0, # of connection points: 2
#     Edge 21, Type (0, 0), BuildingBlock: CIFDUS_clean_linker_0, # of connection points: 2
#     Edge 22, Type (0, 0), BuildingBlock: CIFDUS_clean_linker_0, # of connection points: 2
#     Edge 23, Type (0, 0), BuildingBlock: CIFDUS_clean_linker_0, # of connection points: 2
#     Edge 24, Type (0, 0), BuildingBlock: CIFDUS_clean_linker_0, # of connection points: 2
#     Edge 25, Type (0, 0), BuildingBlock: CIFDUS_clean_linker_0, # of connection points: 2
#     Edge 26, Type (0, 0), BuildingBlock: CIFDUS_clean_linker_0, # of connection points: 2
#     Edge 27, Type (0, 0), BuildingBlock: CIFDUS_clean_linker_0, # of connection points: 2
#     Edge 28, Type (0, 0), BuildingBlock: CIFDUS_clean_linker_0, # of connection points: 2
#     Edge 29, Type (0, 0), BuildingBlock: CIFDUS_clean_linker_0, # of connection points: 2
# Relax obj value: 0.001
# Max RMSD: 0.037
# Mean RMSD: 0.037
data_MOF--net-acs-g--node1-OLANEW_clean_sbu_2--edge1-CIFDUS_clean_linker_0
_symmetry_space_group_name_H-M    P1
_symmetry_Int_Tables_number       1
_symmetry_cell_setting            triclinic
loop_
_symmetry_equiv_pos_as_xyz
'x, y, z'
_cell_length_a     49.110215
_cell_length_b     49.031984
_cell_length_c     42.055741
_cell_angle_alpha  89.640165
_cell_angle_beta   90.242593
_cell_angle_gamma 119.82289
loop_
_atom_site_label
_atom_site_type_symbol
_atom_site_fract_x
_atom_site_fract_y
_atom_site_fract_z
_atom_type_partial_charge
O0 O 0.38838 0.44157 0.1843 0.0
Cd1 Cd 0.34246 0.41392 0.14962 0.0
O2 O 0.36423 0.42565 0.23041 0.0
Cd3 Cd 0.31658 0.39884 0.2115 0.0
O4 O 0.26706 0.3857 0.21418 0.0
C5 C 0.2535 0.39167 0.19162 0.0
O6 O 0.26913 0.40431 0.16527 0.0
C7 C 0.38933 0.44154 0.21454 0.0
C8 C 0.35953 0.40283 0.08971 0.0
O9 O 0.36454 0.43017 0.09744 0.0
O10 O 0.34628 0.38051 0.1101 0.0
O11 O 0.93441 0.39497 0.67485 0.0
Cd12 Cd 0.92994 0.34706 0.65199 0.0
O13 O 0.92981 0.37873 0.7245 0.0
Cd14 Cd 0.91609 0.33014 0.71305 0.0
O15 O 0.88314 0.27963 0.71677 0.0
C16 C 0.86648 0.26429 0.69312 0.0
O17 O 0.87077 0.27879 0.66565 0.0
C18 C 0.93448 0.40016 0.70447 0.0
C19 C 0.94599 0.35471 0.58743 0.0
O20 O 0.91745 0.34362 0.59631 0.0
O21 O 0.96695 0.36217 0.60906 0.0
O22 O 0.5414 0.94402 0.17042 0.0
Cd23 Cd 0.58306 0.9382 0.14508 0.0
O24 O 0.55289 0.93609 0.21908 0.0
Cd25 Cd 0.58611 0.92062 0.20608 0.0
O26 O 0.60208 0.88644 0.21258 0.0
C27 C 0.59983 0.87554 0.24057 0.0
O28 O 0.58972 0.88642 0.2634 0.0
C29 C 0.53674 0.94286 0.20027 0.0
C30 C 0.58875 0.95242 0.07994 0.0
O31 O 0.57165 0.92413 0.08996 0.0
O32 O 0.60304 0.97402 0.10069 0.0
O33 O 0.57763 0.53936 0.67183 0.0
Cd34 Cd 0.62466 0.5823 0.64707 0.0
O35 O 0.59418 0.5544 0.72077 0.0
Cd36 Cd 0.64256 0.58836 0.70783 0.0
O37 O 0.69254 0.60359 0.71236 0.0
C38 C 0.70738 0.59998 0.6896 0.0
O39 O 0.69284 0.58898 0.66241 0.0
C40 C 0.57276 0.53615 0.70167 0.0
C41 C 0.61303 0.59489 0.58498 0.0
O42 O 0.62383 0.57626 0.59026 0.0
O43 O 0.60774 0.60753 0.60901 0.0
O44 O 0.03088 0.59634 0.17417 0.0
Cd45 Cd 0.03659 0.64444 0.14987 0.0
O46 O 0.04015 0.61428 0.22325 0.0
Cd47 Cd 0.05679 0.66359 0.21155 0.0
O48 O 0.09292 0.71251 0.21989 0.0
C49 C 0.10517 0.71839 0.24749 0.0
O50 O 0.0945 0.69558 0.26867 0.0
C51 C 0.03252 0.59186 0.20379 0.0
C52 C 0.00928 0.63246 0.08925 0.0
O53 O 0.03859 0.642 0.09282 0.0
O54 O -0.00705 0.62875 0.11427 0.0
O55 O 0.42936 0.02489 0.68912 0.0
Cd56 Cd 0.38942 0.03156 0.66047 0.0
O57 O 0.413 0.02926 0.7365 0.0
Cd58 Cd 0.38181 0.04626 0.72008 0.0
O59 O 0.3702 0.08376 0.72431 0.0
C60 C 0.37545 0.10305 0.70169 0.0
O61 O 0.38591 0.09886 0.6745 0.0
C62 C 0.43109 0.02398 0.71928 0.0
C63 C 0.37888 0.00694 0.59881 0.0
O64 O 0.3983 0.03607 0.60391 0.0
O65 O 0.36455 0.98947 0.6228 0.0
O66 O 0.54727 0.58951 0.30838 0.0
Cd67 Cd 0.58646 0.63567 0.33753 0.0
O68 O 0.56505 0.61122 0.26148 0.0
Cd69 Cd 0.59581 0.65894 0.27865 0.0
O70 O 0.60825 0.70839 0.27575 0.0
C71 C 0.60184 0.72135 0.29833 0.0
O72 O 0.58959 0.70528 0.3246 0.0
C73 C 0.54645 0.58751 0.2782 0.0
C74 C 0.59607 0.62089 0.39949 0.0
O75 O 0.57651 0.63046 0.39386 0.0
O76 O 0.61096 0.61822 0.37587 0.0
O77 O 0.93416 0.54886 0.82216 0.0
Cd78 Cd 0.92905 0.59156 0.84596 0.0
O79 O 0.92444 0.55747 0.77303 0.0
Cd80 Cd 0.90869 0.59084 0.78453 0.0
O81 O 0.87367 0.60563 0.77772 0.0
C82 C 0.86372 0.60436 0.74949 0.0
O83 O 0.87609 0.59605 0.72649 0.0
C84 C 0.93209 0.54257 0.79264 0.0
C85 C 0.95639 0.60644 0.90656 0.0
O86 O 0.92701 0.58704 0.90306 0.0
O87 O 0.97277 0.61891 0.88149 0.0
O88 O 0.39372 0.94376 0.32654 0.0
Cd89 Cd 0.34658 0.93846 0.35221 0.0
O90 O 0.3749 0.93757 0.27783 0.0
Cd91 Cd 0.32647 0.92219 0.29146 0.0
O92 O 0.27665 0.88704 0.28757 0.0
C93 C 0.26392 0.86571 0.30867 0.0
O94 O 0.28053 0.86663 0.33364 0.0
C95 C 0.39749 0.94339 0.29664 0.0
C96 C 0.35895 0.963 0.41395 0.0
O97 O 0.34878 0.93371 0.40908 0.0
O98 O 0.36327 0.98064 0.38969 0.0
O99 O 0.43735 0.38941 0.83017 0.0
Cd100 Cd 0.4074 0.34048 0.86038 0.0
O101 O 0.42727 0.36865 0.78225 0.0
Cd102 Cd 0.39885 0.31948 0.79687 0.0
O103 O 0.38332 0.26954 0.79073 0.0
C104 C 0.38319 0.26049 0.76241 0.0
O105 O 0.39103 0.28105 0.73914 0.0
C106 C 0.44069 0.39261 0.80015 0.0
C107 C 0.38801 0.35057 0.91949 0.0
O108 O 0.41647 0.3574 0.91481 0.0
O109 O 0.36857 0.33897 0.89634 0.0
O110 O 0.02951 0.44162 0.32358 0.0
Cd111 Cd 0.03456 0.39861 0.34736 0.0
O112 O 0.03557 0.43093 0.27418 0.0
Cd113 Cd 0.05054 0.39685 0.28566 0.0
O114 O 0.08542 0.38211 0.27829 0.0
C115 C 0.09649 0.38574 0.25031 0.0
O116 O 0.08528 0.39631 0.22798 0.0
C117 C 0.02993 0.44705 0.2939 0.0
C118 C 0.0185 0.39054 0.41193 0.0
O119 O 0.047 0.40809 0.40298 0.0
O120 O -0.00242 0.37677 0.39037 0.0
O121 O 0.58893 0.02626 0.80781 0.0
Cd122 Cd 0.63561 0.03405 0.83693 0.0
O123 O 0.61197 0.03624 0.76098 0.0
Cd124 Cd 0.65989 0.05394 0.77815 0.0
O125 O 0.7089 0.0914 0.77441 0.0
C126 C 0.71849 0.10209 0.74658 0.0
O127 O 0.69926 0.08904 0.72248 0.0
C128 C 0.58751 0.02791 0.77768 0.0
C129 C 0.62443 0.01959 0.90183 0.0
O130 O 0.63469 0.04771 0.89159 0.0
O131 O 0.6192 -0.00176 0.88139 0.0
H132 H 0.21801 0.37283 0.24551 0.0
H133 H 0.21782 0.40192 0.14842 0.0
H134 H 0.1681 0.4005 0.15754 0.0
H135 H 0.12664 0.39456 0.19393 0.0
H136 H 0.12736 0.36681 0.29142 0.0
H137 H 0.1748 0.36394 0.28116 0.0
C138 C 0.20697 0.37856 0.22622 0.0
C139 C 0.22181 0.38769 0.19637 0.0
C140 C 0.17854 0.3781 0.23174 0.0
C141 C 0.20706 0.39497 0.17167 0.0
C142 C 0.17862 0.39421 0.17688 0.0
C143 C 0.13698 0.38762 0.21292 0.0
C144 C 0.12354 0.38114 0.24348 0.0
C145 C 0.16446 0.38638 0.20696 0.0
C146 C 0.13724 0.37205 0.26771 0.0
C147 C 0.16443 0.37046 0.26188 0.0
H148 H 0.74375 0.13147 0.69051 0.0
H149 H 0.76287 0.13703 0.79127 0.0
H150 H 0.81164 0.18665 0.78324 0.0
H151 H 0.84692 0.23021 0.74812 0.0
H152 H 0.82684 0.22501 0.64757 0.0
H153 H 0.78051 0.17339 0.65507 0.0
C154 C 0.75868 0.14335 0.71073 0.0
C155 C 0.74949 0.13061 0.74149 0.0
C156 C 0.78649 0.17205 0.70601 0.0
C157 C 0.76926 0.14633 0.76735 0.0
C158 C 0.79715 0.17476 0.76279 0.0
C159 C 0.83261 0.21767 0.72777 0.0
C160 C 0.84029 0.23164 0.69735 0.0
C161 C 0.80571 0.18811 0.7323 0.0
C162 C 0.82146 0.21496 0.67128 0.0
C163 C 0.79489 0.18542 0.67554 0.0
H164 H 0.61785 0.75673 0.24409 0.0
H165 H 0.59162 0.75621 0.34206 0.0
H166 H 0.59079 0.80501 0.33322 0.0
H167 H 0.59393 0.84577 0.29696 0.0
H168 H 0.6187 0.84571 0.19859 0.0
H169 H 0.62386 0.79931 0.20843 0.0
C170 C 0.61228 0.76745 0.26362 0.0
C171 C 0.60461 0.75265 0.29366 0.0
C172 C 0.61139 0.79532 0.25827 0.0
C173 C 0.59747 0.76694 0.31866 0.0
C174 C 0.59693 0.79486 0.31362 0.0
C175 C 0.60071 0.83581 0.27768 0.0
C176 C 0.60569 0.84912 0.24701 0.0
C177 C 0.60327 0.80892 0.2834 0.0
C178 C 0.61459 0.8359 0.2224 0.0
C179 C 0.6175 0.80932 0.22799 0.0
H180 H 0.74069 0.61472 0.74502 0.0
H181 H 0.74567 0.59504 0.64595 0.0
H182 H 0.79561 0.59691 0.65543 0.0
H183 H 0.83587 0.60034 0.69241 0.0
H184 H 0.8304 0.61862 0.79178 0.0
H185 H 0.78278 0.62132 0.78151 0.0
C186 C 0.75284 0.61118 0.72541 0.0
C187 C 0.73926 0.60452 0.69484 0.0
C188 C 0.7814 0.61185 0.7311 0.0
C189 C 0.75543 0.60004 0.66974 0.0
C190 C 0.784 0.60105 0.67515 0.0
C191 C 0.82446 0.60519 0.71183 0.0
C192 C 0.83661 0.60902 0.74288 0.0
C193 C 0.79689 0.60633 0.70583 0.0
C194 C 0.82152 0.61544 0.76767 0.0
C195 C 0.79424 0.61693 0.76183 0.0
H196 H 0.22693 0.85216 0.2559 0.0
H197 H 0.22966 0.81736 0.34975 0.0
H198 H 0.17985 0.76965 0.33966 0.0
H199 H 0.13734 0.73638 0.3032 0.0
H200 H 0.13494 0.77022 0.2088 0.0
H201 H 0.1827 0.81981 0.22023 0.0
C202 C 0.21648 0.8343 0.27429 0.0
C203 C 0.23217 0.83832 0.30349 0.0
C204 C 0.18797 0.80665 0.26818 0.0
C205 C 0.21823 0.81489 0.32701 0.0
C206 C 0.18974 0.78753 0.32125 0.0
C207 C 0.14707 0.75465 0.28515 0.0
C208 C 0.13264 0.74944 0.2551 0.0
C209 C 0.17469 0.78293 0.29175 0.0
C210 C 0.1456 0.77351 0.23209 0.0
C211 C 0.17295 0.80188 0.2386 0.0
H212 H 0.38492 0.23599 0.70519 0.0
H213 H 0.36737 0.21232 0.80487 0.0
H214 H 0.36103 0.16051 0.7944 0.0
H215 H 0.36385 0.12331 0.75754 0.0
H216 H 0.38297 0.14781 0.65815 0.0
H217 H 0.38503 0.19782 0.66795 0.0
C218 C 0.37947 0.21945 0.72464 0.0
C219 C 0.37685 0.22818 0.75582 0.0
C220 C 0.37622 0.18985 0.71852 0.0
C221 C 0.36966 0.20633 0.78066 0.0
C222 C 0.36606 0.17668 0.7747 0.0
C223 C 0.36814 0.13942 0.73793 0.0
C224 C 0.37343 0.13184 0.70716 0.0
C225 C 0.36978 0.16839 0.74381 0.0
C226 C 0.37895 0.15305 0.68208 0.0
C227 C 0.3802 0.18171 0.68767 0.0
H228 H 0.44531 0.48429 0.18848 0.0
H229 H 0.40005 0.44686 0.27873 0.0
H230 H 0.44615 0.48702 0.30663 0.0
H231 H 0.49701 0.53602 0.30526 0.0
H232 H 0.54128 0.57427 0.21478 0.0
H233 H 0.49803 0.53043 0.1873 0.0
C234 C 0.44566 0.48456 0.21426 0.0
C235 C 0.41904 0.46273 0.2314 0.0
C236 C 0.47202 0.5081 0.2302 0.0
C237 C 0.42006 0.46347 0.26485 0.0
C238 C 0.44642 0.48652 0.28087 0.0
C239 C 0.49745 0.53455 0.27957 0.0
C240 C 0.52225 0.55866 0.26216 0.0
C241 C 0.47219 0.50948 0.26377 0.0
C242 C 0.52239 0.55625 0.22884 0.0
C243 C 0.49762 0.53117 0.21304 0.0
H244 H 0.94047 0.42054 0.76555 0.0
H245 H 0.93611 0.44771 0.66862 0.0
H246 H 0.93674 0.49504 0.68735 0.0
H247 H 0.93511 0.52692 0.73126 0.0
H248 H 0.93953 0.49979 0.82819 0.0
H249 H 0.9425 0.45436 0.80934 0.0
C250 C 0.93989 0.4369 0.74847 0.0
C251 C 0.93795 0.43036 0.71571 0.0
C252 C 0.94013 0.46404 0.75939 0.0
C253 C 0.93751 0.45204 0.69396 0.0
C254 C 0.93778 0.4791 0.70465 0.0
C255 C 0.93694 0.51121 0.7483 0.0
C256 C 0.93679 0.51666 0.78113 0.0
C257 C 0.93854 0.48505 0.73732 0.0
C258 C 0.93949 0.49617 0.80281 0.0
C259 C 0.94111 0.47011 0.79205 0.0
H260 H 0.52435 0.94742 0.26243 0.0
H261 H 0.49155 0.94837 0.16722 0.0
H262 H 0.4466 0.9506 0.18873 0.0
H263 H 0.41476 0.94862 0.23446 0.0
H264 H 0.44755 0.94758 0.32966 0.0
H265 H 0.49447 0.94929 0.30815 0.0
C266 C 0.50752 0.94835 0.24633 0.0
C267 C 0.51123 0.94741 0.21323 0.0
C268 C 0.48163 0.94948 0.25884 0.0
C269 C 0.4893 0.94895 0.19278 0.0
C270 C 0.4635 0.95014 0.20506 0.0
C271 C 0.43226 0.94901 0.25056 0.0
C272 C 0.42742 0.94765 0.28366 0.0
C273 C 0.45914 0.94984 0.23804 0.0
C274 C 0.45055 0.94849 0.3041 0.0
C275 C 0.47738 0.94938 0.29182 0.0
H276 H 0.45239 0.40801 0.73734 0.0
H277 H 0.47916 0.44732 0.8315 0.0
H278 H 0.52082 0.49626 0.80895 0.0
H279 H 0.55276 0.52598 0.76311 0.0
H280 H 0.5264 0.48658 0.66899 0.0
H281 H 0.48133 0.43977 0.69098 0.0
C282 C 0.46706 0.4274 0.75295 0.0
C283 C 0.46281 0.42375 0.78613 0.0
C284 C 0.49124 0.45543 0.73987 0.0
C285 C 0.48192 0.44931 0.8059 0.0
C286 C 0.50588 0.47732 0.79304 0.0
C287 C 0.537 0.50731 0.74732 0.0
C288 C 0.54325 0.50968 0.71447 0.0
C289 C 0.51125 0.48033 0.76014 0.0
C290 C 0.5223 0.48538 0.69438 0.0
C291 C 0.49655 0.45852 0.70695 0.0
H292 H 0.0283 0.57263 0.26534 0.0
H293 H 0.0256 0.54195 0.16877 0.0
H294 H 0.02253 0.4935 0.18825 0.0
H295 H 0.0243 0.46158 0.23253 0.0
H296 H 0.027 0.49226 0.3291 0.0
H297 H 0.02611 0.53883 0.30969 0.0
C298 C 0.02681 0.55527 0.24851 0.0
C299 C 0.02751 0.56113 0.21561 0.0
C300 C 0.02517 0.52748 0.25985 0.0
C301 C 0.02521 0.53816 0.1942 0.0
C302 C 0.02355 0.51045 0.20532 0.0
C303 C 0.02444 0.4783 0.24939 0.0
C304 C 0.02603 0.47352 0.28224 0.0
C305 C 0.02408 0.50513 0.23808 0.0
C306 C 0.02588 0.49533 0.3037 0.0
C307 C 0.02547 0.52206 0.29261 0.0
H308 H 0.47948 0.02132 0.69076 0.0
H309 H 0.43819 0.01627 0.78259 0.0
H310 H 0.48168 0.0144 0.80866 0.0
H311 H 0.53351 0.01851 0.80573 0.0
H312 H 0.57553 0.02519 0.71395 0.0
H313 H 0.52963 0.02185 0.68768 0.0
C314 C 0.47976 0.01942 0.71645 0.0
C315 C 0.45567 0.0192 0.73463 0.0
C316 C 0.50513 0.01885 0.7314 0.0
C317 C 0.45649 0.0167 0.76794 0.0
C318 C 0.4814 0.01567 0.78293 0.0
C319 C 0.53249 0.01886 0.77998 0.0
C320 C 0.55811 0.02237 0.76192 0.0
C321 C 0.50618 0.0174 0.76495 0.0
C322 C 0.5563 0.02274 0.72853 0.0
C323 C 0.53004 0.02086 0.71342 0.0
H324 H 0.3274 0.35259 0.05108 0.0
H325 H 0.41328 0.44139 0.05807 0.0
H326 H 0.4304 0.43251 0.00648 0.0
H327 H 0.42084 0.39939 0.95929 0.0
H328 H 0.33243 0.31355 0.94939 0.0
H329 H 0.31621 0.32125 0.00204 0.0
C330 C 0.34986 0.36989 0.04123 0.0
C331 C 0.36925 0.39743 0.05832 0.0
C332 C 0.35899 0.36515 0.01104 0.0
C333 C 0.39804 0.42002 0.04522 0.0
C334 C 0.40783 0.41493 0.0158 0.0
C335 C 0.39806 0.38241 0.96876 0.0
C336 C 0.37794 0.35581 0.95078 0.0
C337 C 0.38851 0.38758 -0.0015 0.0
C338 C 0.34825 0.3342 0.96291 0.0
C339 C 0.33903 0.33856 0.993 0.0
H340 H 0.95991 0.36085 0.43779 0.0
H341 H 0.05813 0.41092 0.46303 0.0
H342 H 0.04442 0.404 0.51938 0.0
H343 H 0.00458 0.38382 0.56159 0.0
H344 H 0.90635 0.33479 0.53634 0.0
H345 H 0.92006 0.34124 0.47999 0.0
C346 C 0.97833 0.37022 0.4556 0.0
C347 C 0.01001 0.38633 0.44613 0.0
C348 C 0.97029 0.36636 0.48801 0.0
C349 C 0.03356 0.39845 0.46959 0.0
C350 C 0.02574 0.39448 0.50186 0.0
C351 C 0.98615 0.3745 0.54377 0.0
C352 C 0.95447 0.35878 0.55324 0.0
C353 C -0.00581 0.37849 0.51136 0.0
C354 C 0.93092 0.34701 0.52978 0.0
C355 C 0.93874 0.35066 0.49751 0.0
H356 H 0.59571 0.96172 0.92988 0.0
H357 H 0.64158 0.06077 0.95129 0.0
H358 H 0.63455 0.04879 0.00811 0.0
H359 H 0.61609 0.01024 0.05185 0.0
H360 H 0.56907 0.91115 0.0304 0.0
H361 H 0.5758 0.92312 0.97357 0.0
C362 C 0.60415 0.9807 0.94696 0.0
C363 C 0.61927 0.01211 0.93628 0.0
C364 C 0.59985 0.97364 0.97965 0.0
C365 C 0.62985 0.03638 0.95879 0.0
C366 C 0.62589 0.02956 0.99133 0.0
C367 C 0.60729 -0.00875 0.03475 0.0
C368 C 0.59221 0.95984 0.04543 0.0
C369 C 0.61104 -0.00172 0.00205 0.0
C370 C 0.58076 0.93554 0.0229 0.0
C371 C 0.58464 0.94236 0.99035 0.0
H372 H 0.63099 0.58024 0.52945 0.0
H373 H 0.58136 0.62503 0.56676 0.0
H374 H 0.57117 0.63642 0.5128 0.0
H375 H 0.57663 0.63402 0.45496 0.0
H376 H 0.62784 0.59085 0.41771 0.0
H377 H 0.63708 0.57849 0.47163 0.0
C378 C 0.61788 0.59243 0.52578 0.0
C379 C 0.6069 0.60169 0.55215 0.0
C380 C 0.6124 0.59923 0.49467 0.0
C381 C 0.59014 0.61767 0.54693 0.0
C382 C 0.58426 0.62417 0.51606 0.0
C383 C 0.58974 0.62183 0.45863 0.0
C384 C 0.60145 0.61331 0.43229 0.0
C385 C 0.59531 0.6151 0.48975 0.0
C386 C 0.61859 0.59773 0.43752 0.0
C387 C 0.62388 0.59061 0.46837 0.0
H388 H 0.03867 0.64709 0.03178 0.0
H389 H 0.94679 0.60248 0.07485 0.0
H390 H 0.92236 0.59033 0.02229 0.0
H391 H 0.92699 0.59202 0.96403 0.0
H392 H 0.01888 0.6381 0.92096 0.0
H393 H 0.04332 0.65002 0.97351 0.0
C394 C 0.0133 0.6347 0.02968 0.0
C395 C -0.00538 0.62563 0.05725 0.0
C396 C -0.00063 0.62803 -0.00066 0.0
C397 C 0.96176 0.60978 0.05405 0.0
C398 C 0.94774 0.60277 0.02398 0.0
C399 C 0.95237 0.60466 0.96613 0.0
C400 C 0.97105 0.61405 0.93856 0.0
C401 C 0.9663 0.61172 -0.00354 0.0
C402 C 0.00391 0.63061 0.94175 0.0
C403 C 0.01793 0.63741 0.97182 0.0
H404 H 0.34258 0.93077 0.47007 0.0
H405 H 0.38995 0.02481 0.43112 0.0
H406 H 0.40084 0.04667 0.48471 0.0
H407 H 0.39668 0.03915 0.54272 0.0
H408 H 0.34766 0.94513 0.58163 0.0
H409 H 0.3377 0.92327 0.52806 0.0
C410 C 0.35535 0.95605 0.4733 0.0
C411 C 0.36549 0.97609 0.44658 0.0
C412 C 0.36124 0.96849 0.50422 0.0
C413 C 0.38181 0.00881 0.45123 0.0
C414 C 0.3881 0.02135 0.48189 0.0
C415 C 0.38389 0.01388 0.53949 0.0
C416 C 0.37302 -0.00616 0.5662 0.0
C417 C 0.3779 0.00143 0.50857 0.0
C418 C 0.35627 0.96113 0.56153 0.0
C419 C 0.35058 0.94858 0.53088 0.0
loop_
_geom_bond_atom_site_label_1
_geom_bond_atom_site_label_2
_geom_bond_distance
_geom_bond_site_symmetry_2
_ccdc_geom_bond_type
O0 Cd1 2.300 . S
O0 C7 1.275 . S
Cd1 O0 2.300 . S
Cd1 O9 2.381 . S
Cd1 O10 2.378 . S
O2 Cd3 2.385 . S
O2 C7 1.255 . S
Cd3 O2 2.385 . S
Cd3 O4 2.317 . S
O4 Cd3 2.317 . S
O4 C5 1.232 . S
C5 O4 1.232 . S
C5 O6 1.218 . S
O6 C5 1.218 . S
C7 O0 1.275 . S
C7 O2 1.255 . S
C8 O9 1.258 . S
C8 O10 1.256 . S
O9 Cd1 2.381 . S
O9 C8 1.258 . S
O10 Cd1 2.378 . S
O10 C8 1.256 . S
O11 Cd12 2.300 . S
O11 C18 1.275 . S
Cd12 O11 2.300 . S
Cd12 O20 2.381 . S
Cd12 O21 2.378 . S
O13 Cd14 2.385 . S
O13 C18 1.255 . S
Cd14 O13 2.385 . S
Cd14 O15 2.317 . S
O15 Cd14 2.317 . S
O15 C16 1.232 . S
C16 O15 1.232 . S
C16 O17 1.218 . S
O17 C16 1.218 . S
C18 O11 1.275 . S
C18 O13 1.255 . S
C19 O20 1.258 . S
C19 O21 1.256 . S
O20 Cd12 2.381 . S
O20 C19 1.258 . S
O21 Cd12 2.378 . S
O21 C19 1.256 . S
O22 Cd23 2.300 . S
O22 C29 1.275 . S
Cd23 O22 2.300 . S
Cd23 O31 2.381 . S
Cd23 O32 2.378 . S
O24 Cd25 2.385 . S
O24 C29 1.255 . S
Cd25 O24 2.385 . S
Cd25 O26 2.317 . S
O26 Cd25 2.317 . S
O26 C27 1.232 . S
C27 O26 1.232 . S
C27 O28 1.218 . S
O28 C27 1.218 . S
C29 O22 1.275 . S
C29 O24 1.255 . S
C30 O31 1.258 . S
C30 O32 1.256 . S
O31 Cd23 2.381 . S
O31 C30 1.258 . S
O32 Cd23 2.378 . S
O32 C30 1.256 . S
O33 Cd34 2.300 . S
O33 C40 1.275 . S
Cd34 O33 2.300 . S
Cd34 O42 2.381 . S
Cd34 O43 2.378 . S
O35 Cd36 2.385 . S
O35 C40 1.255 . S
Cd36 O35 2.385 . S
Cd36 O37 2.317 . S
O37 Cd36 2.317 . S
O37 C38 1.232 . S
C38 O37 1.232 . S
C38 O39 1.218 . S
O39 C38 1.218 . S
C40 O33 1.275 . S
C40 O35 1.255 . S
C41 O42 1.258 . S
C41 O43 1.256 . S
O42 Cd34 2.381 . S
O42 C41 1.258 . S
O43 Cd34 2.378 . S
O43 C41 1.256 . S
O44 Cd45 2.300 . S
O44 C51 1.275 . S
Cd45 O44 2.300 . S
Cd45 O53 2.381 . S
Cd45 O54 2.378 . S
O46 Cd47 2.385 . S
O46 C51 1.255 . S
Cd47 O46 2.385 . S
Cd47 O48 2.317 . S
O48 Cd47 2.317 . S
O48 C49 1.232 . S
C49 O48 1.232 . S
C49 O50 1.218 . S
O50 C49 1.218 . S
C51 O44 1.275 . S
C51 O46 1.255 . S
C52 O53 1.258 . S
C52 O54 1.256 . S
O53 Cd45 2.381 . S
O53 C52 1.258 . S
O54 Cd45 2.378 . S
O54 C52 1.256 . S
O55 Cd56 2.300 . S
O55 C62 1.275 . S
Cd56 O55 2.300 . S
Cd56 O64 2.381 . S
Cd56 O65 2.378 . S
O57 Cd58 2.385 . S
O57 C62 1.255 . S
Cd58 O57 2.385 . S
Cd58 O59 2.317 . S
O59 Cd58 2.317 . S
O59 C60 1.232 . S
C60 O59 1.232 . S
C60 O61 1.218 . S
O61 C60 1.218 . S
C62 O55 1.275 . S
C62 O57 1.255 . S
C63 O64 1.258 . S
C63 O65 1.256 . S
O64 Cd56 2.381 . S
O64 C63 1.258 . S
O65 Cd56 2.378 . S
O65 C63 1.256 . S
O66 Cd67 2.300 . S
O66 C73 1.275 . S
Cd67 O66 2.300 . S
Cd67 O75 2.381 . S
Cd67 O76 2.378 . S
O68 Cd69 2.385 . S
O68 C73 1.255 . S
Cd69 O68 2.385 . S
Cd69 O70 2.317 . S
O70 Cd69 2.317 . S
O70 C71 1.232 . S
C71 O70 1.232 . S
C71 O72 1.218 . S
O72 C71 1.218 . S
C73 O66 1.275 . S
C73 O68 1.255 . S
C74 O75 1.258 . S
C74 O76 1.256 . S
O75 Cd67 2.381 . S
O75 C74 1.258 . S
O76 Cd67 2.378 . S
O76 C74 1.256 . S
O77 Cd78 2.300 . S
O77 C84 1.275 . S
Cd78 O77 2.300 . S
Cd78 O86 2.381 . S
Cd78 O87 2.378 . S
O79 Cd80 2.385 . S
O79 C84 1.255 . S
Cd80 O79 2.385 . S
Cd80 O81 2.317 . S
O81 Cd80 2.317 . S
O81 C82 1.232 . S
C82 O81 1.232 . S
C82 O83 1.218 . S
O83 C82 1.218 . S
C84 O77 1.275 . S
C84 O79 1.255 . S
C85 O86 1.258 . S
C85 O87 1.256 . S
O86 Cd78 2.381 . S
O86 C85 1.258 . S
O87 Cd78 2.378 . S
O87 C85 1.256 . S
O88 Cd89 2.300 . S
O88 C95 1.275 . S
Cd89 O88 2.300 . S
Cd89 O97 2.381 . S
Cd89 O98 2.378 . S
O90 Cd91 2.385 . S
O90 C95 1.255 . S
Cd91 O90 2.385 . S
Cd91 O92 2.317 . S
O92 Cd91 2.317 . S
O92 C93 1.232 . S
C93 O92 1.232 . S
C93 O94 1.218 . S
O94 C93 1.218 . S
C95 O88 1.275 . S
C95 O90 1.255 . S
C96 O97 1.258 . S
C96 O98 1.256 . S
O97 Cd89 2.381 . S
O97 C96 1.258 . S
O98 Cd89 2.378 . S
O98 C96 1.256 . S
O99 Cd100 2.300 . S
O99 C106 1.275 . S
Cd100 O99 2.300 . S
Cd100 O108 2.381 . S
Cd100 O109 2.378 . S
O101 Cd102 2.385 . S
O101 C106 1.255 . S
Cd102 O101 2.385 . S
Cd102 O103 2.317 . S
O103 Cd102 2.317 . S
O103 C104 1.232 . S
C104 O103 1.232 . S
C104 O105 1.218 . S
O105 C104 1.218 . S
C106 O99 1.275 . S
C106 O101 1.255 . S
C107 O108 1.258 . S
C107 O109 1.256 . S
O108 Cd100 2.381 . S
O108 C107 1.258 . S
O109 Cd100 2.378 . S
O109 C107 1.256 . S
O110 Cd111 2.300 . S
O110 C117 1.275 . S
Cd111 O110 2.300 . S
Cd111 O119 2.381 . S
Cd111 O120 2.378 . S
O112 Cd113 2.385 . S
O112 C117 1.255 . S
Cd113 O112 2.385 . S
Cd113 O114 2.317 . S
O114 Cd113 2.317 . S
O114 C115 1.232 . S
C115 O114 1.232 . S
C115 O116 1.218 . S
O116 C115 1.218 . S
C117 O110 1.275 . S
C117 O112 1.255 . S
C118 O119 1.258 . S
C118 O120 1.256 . S
O119 Cd111 2.381 . S
O119 C118 1.258 . S
O120 Cd111 2.378 . S
O120 C118 1.256 . S
O121 Cd122 2.300 . S
O121 C128 1.275 . S
Cd122 O121 2.300 . S
Cd122 O130 2.381 . S
Cd122 O131 2.378 . S
O123 Cd124 2.385 . S
O123 C128 1.255 . S
Cd124 O123 2.385 . S
Cd124 O125 2.317 . S
O125 Cd124 2.317 . S
O125 C126 1.232 . S
C126 O125 1.232 . S
C126 O127 1.218 . S
O127 C126 1.218 . S
C128 O121 1.275 . S
C128 O123 1.255 . S
C129 O130 1.258 . S
C129 O131 1.256 . S
O130 Cd122 2.381 . S
O130 C129 1.258 . S
O131 Cd122 2.378 . S
O131 C129 1.256 . S
H132 C138 0.930 . S
H133 C141 0.930 . S
H134 C142 0.930 . S
H135 C143 0.930 . S
H136 C146 0.930 . S
H137 C147 0.930 . S
C138 H132 0.930 . S
C138 C139 1.355 . S
C138 C140 1.415 . S
C139 C138 1.355 . S
C139 C141 1.419 . S
C140 C138 1.415 . S
C140 C145 1.425 . S
C140 C147 1.409 . S
C141 H133 0.930 . S
C141 C139 1.419 . S
C141 C142 1.362 . S
C142 H134 0.930 . S
C142 C141 1.362 . S
C142 C145 1.409 . S
C143 H135 0.930 . S
C143 C144 1.355 . S
C143 C145 1.415 . S
C144 C143 1.355 . S
C144 C146 1.419 . S
C145 C140 1.425 . S
C145 C142 1.409 . S
C145 C143 1.415 . S
C146 H136 0.930 . S
C146 C144 1.419 . S
C146 C147 1.362 . S
C147 H137 0.930 . S
C147 C140 1.409 . S
C147 C146 1.362 . S
H148 C154 0.930 . S
H149 C157 0.930 . S
H150 C158 0.930 . S
H151 C159 0.930 . S
H152 C162 0.930 . S
H153 C163 0.930 . S
C154 H148 0.930 . S
C154 C155 1.355 . S
C154 C156 1.415 . S
C155 C154 1.355 . S
C155 C157 1.419 . S
C156 C154 1.415 . S
C156 C161 1.425 . S
C156 C163 1.409 . S
C157 H149 0.930 . S
C157 C155 1.419 . S
C157 C158 1.362 . S
C158 H150 0.930 . S
C158 C157 1.362 . S
C158 C161 1.409 . S
C159 H151 0.930 . S
C159 C160 1.355 . S
C159 C161 1.415 . S
C160 C159 1.355 . S
C160 C162 1.419 . S
C161 C156 1.425 . S
C161 C158 1.409 . S
C161 C159 1.415 . S
C162 H152 0.930 . S
C162 C160 1.419 . S
C162 C163 1.362 . S
C163 H153 0.930 . S
C163 C156 1.409 . S
C163 C162 1.362 . S
H164 C170 0.930 . S
H165 C173 0.930 . S
H166 C174 0.930 . S
H167 C175 0.930 . S
H168 C178 0.930 . S
H169 C179 0.930 . S
C170 H164 0.930 . S
C170 C171 1.355 . S
C170 C172 1.415 . S
C171 C170 1.355 . S
C171 C173 1.419 . S
C172 C170 1.415 . S
C172 C177 1.425 . S
C172 C179 1.409 . S
C173 H165 0.930 . S
C173 C171 1.419 . S
C173 C174 1.362 . S
C174 H166 0.930 . S
C174 C173 1.362 . S
C174 C177 1.409 . S
C175 H167 0.930 . S
C175 C176 1.355 . S
C175 C177 1.415 . S
C176 C175 1.355 . S
C176 C178 1.419 . S
C177 C172 1.425 . S
C177 C174 1.409 . S
C177 C175 1.415 . S
C178 H168 0.930 . S
C178 C176 1.419 . S
C178 C179 1.362 . S
C179 H169 0.930 . S
C179 C172 1.409 . S
C179 C178 1.362 . S
H180 C186 0.930 . S
H181 C189 0.930 . S
H182 C190 0.930 . S
H183 C191 0.930 . S
H184 C194 0.930 . S
H185 C195 0.930 . S
C186 H180 0.930 . S
C186 C187 1.355 . S
C186 C188 1.415 . S
C187 C186 1.355 . S
C187 C189 1.419 . S
C188 C186 1.415 . S
C188 C193 1.425 . S
C188 C195 1.409 . S
C189 H181 0.930 . S
C189 C187 1.419 . S
C189 C190 1.362 . S
C190 H182 0.930 . S
C190 C189 1.362 . S
C190 C193 1.409 . S
C191 H183 0.930 . S
C191 C192 1.355 . S
C191 C193 1.415 . S
C192 C191 1.355 . S
C192 C194 1.419 . S
C193 C188 1.425 . S
C193 C190 1.409 . S
C193 C191 1.415 . S
C194 H184 0.930 . S
C194 C192 1.419 . S
C194 C195 1.362 . S
C195 H185 0.930 . S
C195 C188 1.409 . S
C195 C194 1.362 . S
H196 C202 0.930 . S
H197 C205 0.930 . S
H198 C206 0.930 . S
H199 C207 0.930 . S
H200 C210 0.930 . S
H201 C211 0.930 . S
C202 H196 0.930 . S
C202 C203 1.355 . S
C202 C204 1.415 . S
C203 C202 1.355 . S
C203 C205 1.419 . S
C204 C202 1.415 . S
C204 C209 1.425 . S
C204 C211 1.409 . S
C205 H197 0.930 . S
C205 C203 1.419 . S
C205 C206 1.362 . S
C206 H198 0.930 . S
C206 C205 1.362 . S
C206 C209 1.409 . S
C207 H199 0.930 . S
C207 C208 1.355 . S
C207 C209 1.415 . S
C208 C207 1.355 . S
C208 C210 1.419 . S
C209 C204 1.425 . S
C209 C206 1.409 . S
C209 C207 1.415 . S
C210 H200 0.930 . S
C210 C208 1.419 . S
C210 C211 1.362 . S
C211 H201 0.930 . S
C211 C204 1.409 . S
C211 C210 1.362 . S
H212 C218 0.930 . S
H213 C221 0.930 . S
H214 C222 0.930 . S
H215 C223 0.930 . S
H216 C226 0.930 . S
H217 C227 0.930 . S
C218 H212 0.930 . S
C218 C219 1.355 . S
C218 C220 1.415 . S
C219 C218 1.355 . S
C219 C221 1.419 . S
C220 C218 1.415 . S
C220 C225 1.425 . S
C220 C227 1.409 . S
C221 H213 0.930 . S
C221 C219 1.419 . S
C221 C222 1.362 . S
C222 H214 0.930 . S
C222 C221 1.362 . S
C222 C225 1.409 . S
C223 H215 0.930 . S
C223 C224 1.355 . S
C223 C225 1.415 . S
C224 C223 1.355 . S
C224 C226 1.419 . S
C225 C220 1.425 . S
C225 C222 1.409 . S
C225 C223 1.415 . S
C226 H216 0.930 . S
C226 C224 1.419 . S
C226 C227 1.362 . S
C227 H217 0.930 . S
C227 C220 1.409 . S
C227 C226 1.362 . S
H228 C234 0.930 . S
H229 C237 0.930 . S
H230 C238 0.930 . S
H231 C239 0.930 . S
H232 C242 0.930 . S
H233 C243 0.930 . S
C234 H228 0.930 . S
C234 C235 1.355 . S
C234 C236 1.415 . S
C235 C234 1.355 . S
C235 C237 1.419 . S
C236 C234 1.415 . S
C236 C241 1.425 . S
C236 C243 1.409 . S
C237 H229 0.930 . S
C237 C235 1.419 . S
C237 C238 1.362 . S
C238 H230 0.930 . S
C238 C237 1.362 . S
C238 C241 1.409 . S
C239 H231 0.930 . S
C239 C240 1.355 . S
C239 C241 1.415 . S
C240 C239 1.355 . S
C240 C242 1.419 . S
C241 C236 1.425 . S
C241 C238 1.409 . S
C241 C239 1.415 . S
C242 H232 0.930 . S
C242 C240 1.419 . S
C242 C243 1.362 . S
C243 H233 0.930 . S
C243 C236 1.409 . S
C243 C242 1.362 . S
H244 C250 0.930 . S
H245 C253 0.930 . S
H246 C254 0.930 . S
H247 C255 0.930 . S
H248 C258 0.930 . S
H249 C259 0.930 . S
C250 H244 0.930 . S
C250 C251 1.355 . S
C250 C252 1.415 . S
C251 C250 1.355 . S
C251 C253 1.419 . S
C252 C250 1.415 . S
C252 C257 1.425 . S
C252 C259 1.409 . S
C253 H245 0.930 . S
C253 C251 1.419 . S
C253 C254 1.362 . S
C254 H246 0.930 . S
C254 C253 1.362 . S
C254 C257 1.409 . S
C255 H247 0.930 . S
C255 C256 1.355 . S
C255 C257 1.415 . S
C256 C255 1.355 . S
C256 C258 1.419 . S
C257 C252 1.425 . S
C257 C254 1.409 . S
C257 C255 1.415 . S
C258 H248 0.930 . S
C258 C256 1.419 . S
C258 C259 1.362 . S
C259 H249 0.930 . S
C259 C252 1.409 . S
C259 C258 1.362 . S
H260 C266 0.930 . S
H261 C269 0.930 . S
H262 C270 0.930 . S
H263 C271 0.930 . S
H264 C274 0.930 . S
H265 C275 0.930 . S
C266 H260 0.930 . S
C266 C267 1.355 . S
C266 C268 1.415 . S
C267 C266 1.355 . S
C267 C269 1.419 . S
C268 C266 1.415 . S
C268 C273 1.425 . S
C268 C275 1.409 . S
C269 H261 0.930 . S
C269 C267 1.419 . S
C269 C270 1.362 . S
C270 H262 0.930 . S
C270 C269 1.362 . S
C270 C273 1.409 . S
C271 H263 0.930 . S
C271 C272 1.355 . S
C271 C273 1.415 . S
C272 C271 1.355 . S
C272 C274 1.419 . S
C273 C268 1.425 . S
C273 C270 1.409 . S
C273 C271 1.415 . S
C274 H264 0.930 . S
C274 C272 1.419 . S
C274 C275 1.362 . S
C275 H265 0.930 . S
C275 C268 1.409 . S
C275 C274 1.362 . S
H276 C282 0.930 . S
H277 C285 0.930 . S
H278 C286 0.930 . S
H279 C287 0.930 . S
H280 C290 0.930 . S
H281 C291 0.930 . S
C282 H276 0.930 . S
C282 C283 1.355 . S
C282 C284 1.415 . S
C283 C282 1.355 . S
C283 C285 1.419 . S
C284 C282 1.415 . S
C284 C289 1.425 . S
C284 C291 1.409 . S
C285 H277 0.930 . S
C285 C283 1.419 . S
C285 C286 1.362 . S
C286 H278 0.930 . S
C286 C285 1.362 . S
C286 C289 1.409 . S
C287 H279 0.930 . S
C287 C288 1.355 . S
C287 C289 1.415 . S
C288 C287 1.355 . S
C288 C290 1.419 . S
C289 C284 1.425 . S
C289 C286 1.409 . S
C289 C287 1.415 . S
C290 H280 0.930 . S
C290 C288 1.419 . S
C290 C291 1.362 . S
C291 H281 0.930 . S
C291 C284 1.409 . S
C291 C290 1.362 . S
H292 C298 0.930 . S
H293 C301 0.930 . S
H294 C302 0.930 . S
H295 C303 0.930 . S
H296 C306 0.930 . S
H297 C307 0.930 . S
C298 H292 0.930 . S
C298 C299 1.355 . S
C298 C300 1.415 . S
C299 C298 1.355 . S
C299 C301 1.419 . S
C300 C298 1.415 . S
C300 C305 1.425 . S
C300 C307 1.409 . S
C301 H293 0.930 . S
C301 C299 1.419 . S
C301 C302 1.362 . S
C302 H294 0.930 . S
C302 C301 1.362 . S
C302 C305 1.409 . S
C303 H295 0.930 . S
C303 C304 1.355 . S
C303 C305 1.415 . S
C304 C303 1.355 . S
C304 C306 1.419 . S
C305 C300 1.425 . S
C305 C302 1.409 . S
C305 C303 1.415 . S
C306 H296 0.930 . S
C306 C304 1.419 . S
C306 C307 1.362 . S
C307 H297 0.930 . S
C307 C300 1.409 . S
C307 C306 1.362 . S
H308 C314 0.930 . S
H309 C317 0.930 . S
H310 C318 0.930 . S
H311 C319 0.930 . S
H312 C322 0.930 . S
H313 C323 0.930 . S
C314 H308 0.930 . S
C314 C315 1.355 . S
C314 C316 1.415 . S
C315 C314 1.355 . S
C315 C317 1.419 . S
C316 C314 1.415 . S
C316 C321 1.425 . S
C316 C323 1.409 . S
C317 H309 0.930 . S
C317 C315 1.419 . S
C317 C318 1.362 . S
C318 H310 0.930 . S
C318 C317 1.362 . S
C318 C321 1.409 . S
C319 H311 0.930 . S
C319 C320 1.355 . S
C319 C321 1.415 . S
C320 C319 1.355 . S
C320 C322 1.419 . S
C321 C316 1.425 . S
C321 C318 1.409 . S
C321 C319 1.415 . S
C322 H312 0.930 . S
C322 C320 1.419 . S
C322 C323 1.362 . S
C323 H313 0.930 . S
C323 C316 1.409 . S
C323 C322 1.362 . S
H324 C330 0.930 . S
H325 C333 0.930 . S
H326 C334 0.930 . S
H327 C335 0.930 . S
H328 C338 0.930 . S
H329 C339 0.930 . S
C330 H324 0.930 . S
C330 C331 1.355 . S
C330 C332 1.415 . S
C331 C330 1.355 . S
C331 C333 1.419 . S
C332 C330 1.415 . S
C332 C337 1.425 1_554 S
C332 C339 1.409 1_554 S
C333 H325 0.930 . S
C333 C331 1.419 . S
C333 C334 1.362 . S
C334 H326 0.930 . S
C334 C333 1.362 . S
C334 C337 1.409 1_554 S
C335 H327 0.930 . S
C335 C336 1.355 . S
C335 C337 1.415 . S
C336 C335 1.355 . S
C336 C338 1.419 . S
C337 C332 1.425 1_556 S
C337 C334 1.409 1_556 S
C337 C335 1.415 . S
C338 H328 0.930 . S
C338 C336 1.419 . S
C338 C339 1.362 . S
C339 H329 0.930 . S
C339 C332 1.409 1_556 S
C339 C338 1.362 . S
H340 C346 0.930 . S
H341 C349 0.930 . S
H342 C350 0.930 . S
H343 C351 0.930 . S
H344 C354 0.930 . S
H345 C355 0.930 . S
C346 H340 0.930 . S
C346 C347 1.355 1_655 S
C346 C348 1.415 . S
C347 C346 1.355 1_455 S
C347 C349 1.419 . S
C348 C346 1.415 . S
C348 C353 1.425 1_655 S
C348 C355 1.409 . S
C349 H341 0.930 . S
C349 C347 1.419 . S
C349 C350 1.362 . S
C350 H342 0.930 . S
C350 C349 1.362 . S
C350 C353 1.409 . S
C351 H343 0.930 . S
C351 C352 1.355 1_455 S
C351 C353 1.415 . S
C352 C351 1.355 1_655 S
C352 C354 1.419 . S
C353 C348 1.425 1_455 S
C353 C350 1.409 . S
C353 C351 1.415 . S
C354 H344 0.930 . S
C354 C352 1.419 . S
C354 C355 1.362 . S
C355 H345 0.930 . S
C355 C348 1.409 . S
C355 C354 1.362 . S
H356 C362 0.930 . S
H357 C365 0.930 . S
H358 C366 0.930 1_554 S
H359 C367 0.930 . S
H360 C370 0.930 . S
H361 C371 0.930 1_556 S
C362 H356 0.930 . S
C362 C363 1.355 1_565 S
C362 C364 1.415 . S
C363 C362 1.355 1_545 S
C363 C365 1.419 . S
C364 C362 1.415 . S
C364 C369 1.425 1_566 S
C364 C371 1.409 1_556 S
C365 H357 0.930 . S
C365 C363 1.419 . S
C365 C366 1.362 . S
C366 H358 0.930 1_556 S
C366 C365 1.362 . S
C366 C369 1.409 1_556 S
C367 H359 0.930 . S
C367 C368 1.355 1_545 S
C367 C369 1.415 . S
C368 C367 1.355 1_565 S
C368 C370 1.419 . S
C369 C364 1.425 1_544 S
C369 C366 1.409 1_554 S
C369 C367 1.415 . S
C370 H360 0.930 . S
C370 C368 1.419 . S
C370 C371 1.362 . S
C371 H361 0.930 1_554 S
C371 C364 1.409 1_554 S
C371 C370 1.362 . S
H372 C378 0.930 . S
H373 C381 0.930 . S
H374 C382 0.930 . S
H375 C383 0.930 . S
H376 C386 0.930 . S
H377 C387 0.930 . S
C378 H372 0.930 . S
C378 C379 1.355 . S
C378 C380 1.415 . S
C379 C378 1.355 . S
C379 C381 1.419 . S
C380 C378 1.415 . S
C380 C385 1.425 . S
C380 C387 1.409 . S
C381 H373 0.930 . S
C381 C379 1.419 . S
C381 C382 1.362 . S
C382 H374 0.930 . S
C382 C381 1.362 . S
C382 C385 1.409 . S
C383 H375 0.930 . S
C383 C384 1.355 . S
C383 C385 1.415 . S
C384 C383 1.355 . S
C384 C386 1.419 . S
C385 C380 1.425 . S
C385 C382 1.409 . S
C385 C383 1.415 . S
C386 H376 0.930 . S
C386 C384 1.419 . S
C386 C387 1.362 . S
C387 H377 0.930 . S
C387 C380 1.409 . S
C387 C386 1.362 . S
H388 C394 0.930 . S
H389 C397 0.930 . S
H390 C398 0.930 . S
H391 C399 0.930 . S
H392 C402 0.930 . S
H393 C403 0.930 . S
C394 H388 0.930 . S
C394 C395 1.355 . S
C394 C396 1.415 . S
C395 C394 1.355 . S
C395 C397 1.419 . S
C396 C394 1.415 . S
C396 C401 1.425 1_454 S
C396 C403 1.409 1_554 S
C397 H389 0.930 . S
C397 C395 1.419 . S
C397 C398 1.362 1_455 S
C398 H390 0.930 . S
C398 C397 1.362 1_655 S
C398 C401 1.409 1_554 S
C399 H391 0.930 . S
C399 C400 1.355 . S
C399 C401 1.415 . S
C400 C399 1.355 . S
C400 C402 1.419 . S
C401 C396 1.425 1_656 S
C401 C398 1.409 1_556 S
C401 C399 1.415 . S
C402 H392 0.930 . S
C402 C400 1.419 . S
C402 C403 1.362 1_655 S
C403 H393 0.930 . S
C403 C396 1.409 1_556 S
C403 C402 1.362 1_455 S
H404 C410 0.930 . S
H405 C413 0.930 . S
H406 C414 0.930 . S
H407 C415 0.930 . S
H408 C418 0.930 . S
H409 C419 0.930 . S
C410 H404 0.930 . S
C410 C411 1.355 . S
C410 C412 1.415 . S
C411 C410 1.355 . S
C411 C413 1.419 1_565 S
C412 C410 1.415 . S
C412 C417 1.425 1_565 S
C412 C419 1.409 . S
C413 H405 0.930 . S
C413 C411 1.419 1_545 S
C413 C414 1.362 . S
C414 H406 0.930 . S
C414 C413 1.362 . S
C414 C417 1.409 . S
C415 H407 0.930 . S
C415 C416 1.355 . S
C415 C417 1.415 . S
C416 C415 1.355 . S
C416 C418 1.419 1_545 S
C417 C412 1.425 1_545 S
C417 C414 1.409 . S
C417 C415 1.415 . S
C418 H408 0.930 . S
C418 C416 1.419 1_565 S
C418 C419 1.362 . S
C419 H409 0.930 . S
C419 C412 1.409 . S
C419 C418 1.362 . S
C139 C5 1.458 . S
C144 C115 1.433 . S
C155 C126 1.355 . S
C160 C16 1.407 . S
C171 C71 1.456 . S
C176 C27 1.415 . S
C187 C38 1.457 . S
C192 C82 1.420 . S
C203 C93 1.418 . S
C208 C49 1.362 . S
C219 C104 1.350 . S
C224 C60 1.397 . S
C235 C7 1.500 . S
C240 C73 1.547 . S
C251 C18 1.533 . S
C256 C84 1.495 . S
C267 C29 1.520 . S
C272 C95 1.502 . S
C283 C106 1.547 . S
C288 C40 1.499 . S
C299 C51 1.539 . S
C304 C117 1.494 . S
C315 C62 1.532 . S
C320 C128 1.533 . S
C331 C8 1.565 . S
C336 C107 1.568 . S
C347 C118 1.566 . S
C352 C19 1.568 . S
C363 C129 1.567 . S
C368 C30 1.568 . S
C379 C41 1.564 . S
C384 C74 1.567 . S
C395 C52 1.564 . S
C400 C85 1.567 . S
C411 C96 1.565 . S
C416 C63 1.566 . S
