# Generated by pormake.
# Topology rob, (6)-cn, num edge types: 1
# Building blocks:
#     Node 0, Type 0, BuildingBlock: PAMTUU_clean_sbu_0, # of connection points: 6
#     Node 1, Type 0, BuildingBlock: PAMTUU_clean_sbu_0, # of connection points: 6
#     Node 2, Type 0, BuildingBlock: PAMTUU_clean_sbu_0, # of connection points: 6
#     Node 3, Type 0, BuildingBlock: PAMTUU_clean_sbu_0, # of connection points: 6
#     Edge 4, Type (0, 0), BuildingBlock: CIFDUS_clean_linker_0, # of connection points: 2
#     Edge 5, Type (0, 0), BuildingBlock: CIFDUS_clean_linker_0, # of connection points: 2
#     Edge 6, Type (0, 0), BuildingBlock: CIFDUS_clean_linker_0, # of connection points: 2
#     Edge 7, Type (0, 0), BuildingBlock: CIFDUS_clean_linker_0, # of connection points: 2
#     Edge 8, Type (0, 0), BuildingBlock: CIFDUS_clean_linker_0, # of connection points: 2
#     Edge 9, Type (0, 0), BuildingBlock: CIFDUS_clean_linker_0, # of connection points: 2
#     Edge 10, Type (0, 0), BuildingBlock: CIFDUS_clean_linker_0, # of connection points: 2
#     Edge 11, Type (0, 0), BuildingBlock: CIFDUS_clean_linker_0, # of connection points: 2
#     Edge 12, Type (0, 0), BuildingBlock: CIFDUS_clean_linker_0, # of connection points: 2
#     Edge 13, Type (0, 0), BuildingBlock: CIFDUS_clean_linker_0, # of connection points: 2
#     Edge 14, Type (0, 0), BuildingBlock: CIFDUS_clean_linker_0, # of connection points: 2
#     Edge 15, Type (0, 0), BuildingBlock: CIFDUS_clean_linker_0, # of connection points: 2
# Relax obj value: 0.181
# Max RMSD: 0.230
# Mean RMSD: 0.230
data_MOF--net-rob--node1-PAMTUU_clean_sbu_0--edge1-CIFDUS_clean_linker_0
_symmetry_space_group_name_H-M    P1
_symmetry_Int_Tables_number       1
_symmetry_cell_setting            triclinic
loop_
_symmetry_equiv_pos_as_xyz
'x, y, z'
_cell_length_a     16.871308
_cell_length_b     20.058299
_cell_length_c     32.755865
_cell_angle_alpha  89.330383
_cell_angle_beta   52.41236
_cell_angle_gamma 90.13588
loop_
_atom_site_label
_atom_site_type_symbol
_atom_site_fract_x
_atom_site_fract_y
_atom_site_fract_z
_atom_type_partial_charge
Tb0 Tb 0.16826 0.30124 1.00065 0.0
Tb1 Tb 0.32848 0.21045 0.00544 0.0
C2 C 0.33179 0.36535 1.00329 0.0
C3 C 0.037 0.36114 0.95001 0.0
C4 C 0.00595 0.35196 0.8747 0.0
C5 C 0.99537 0.41328 0.89792 0.0
C6 C 0.01047 0.41774 0.93541 0.0
C7 C 0.04842 0.30002 0.92655 0.0
C8 C 0.03252 0.29541 0.8895 0.0
C9 C 0.05666 0.36648 0.98799 0.0
O10 O 0.30731 0.2912 0.924 0.0
O11 O 0.36728 0.19168 0.9295 0.0
O12 O 0.20264 0.14698 0.02895 0.0
O13 O 0.15362 0.19916 0.98512 0.0
O14 O 0.47152 0.1984 0.98652 0.0
O15 O 0.3536 0.12697 0.0355 0.0
O16 O 0.22743 0.25775 0.07956 0.0
O17 O 0.09053 0.27296 0.08091 0.0
O18 O 0.23702 0.36794 0.02278 0.0
O19 O 0.38453 0.31163 0.98069 0.0
C20 C 0.35636 0.23578 0.90315 0.0
O21 O 0.02562 0.31651 0.02046 0.0
O22 O 0.14703 0.38536 0.96945 0.0
C23 C 0.15565 0.1465 0.00858 0.0
C24 C 0.46101 0.15071 0.05706 0.0
C25 C 0.48246 0.1551 0.1367 0.0
C26 C 0.45956 0.09479 0.1241 0.0
C27 C 0.44939 0.09266 0.08472 0.0
C28 C 0.48528 0.2109 0.06888 0.0
C29 C 0.49641 0.21296 0.10795 0.0
C30 C 0.44231 0.14776 0.01823 0.0
C31 C 0.13101 0.26644 0.10456 0.0
H32 H 0.97439 0.45757 0.88748 0.0
H33 H 1.00194 0.46543 0.95282 0.0
H34 H 0.0704 0.25587 0.9366 0.0
H35 H 0.04261 0.24773 0.87179 0.0
H36 H 0.44665 0.0493 0.14557 0.0
H37 H 0.43023 0.04565 0.07658 0.0
H38 H 0.49456 0.25666 0.04841 0.0
H39 H 0.51592 0.26017 0.11558 0.0
Tb40 Tb 0.6834 0.78173 0.00682 0.0
Tb41 Tb 0.83424 0.69047 0.01836 0.0
C42 C 0.85642 0.84356 1.0038 0.0
C43 C 0.56445 0.85339 0.95089 0.0
C44 C 0.54897 0.86487 0.87001 0.0
C45 C 0.54702 0.92195 0.8951 0.0
C46 C 0.55424 0.91618 0.93534 0.0
C47 C 0.56694 0.79626 0.92573 0.0
C48 C 0.5586 0.80194 0.88589 0.0
C49 C 0.5756 0.84882 0.99213 0.0
O50 O 0.78001 0.72765 0.93573 0.0
O51 O 0.91414 0.71162 0.93667 0.0
O52 O 0.75807 0.62309 1.00115 0.0
O53 O 0.61592 0.68437 0.03864 0.0
O54 O 0.97557 0.67431 0.99994 0.0
O55 O 0.85215 0.60657 0.05105 0.0
O56 O 0.69955 0.70874 0.09527 0.0
O57 O 0.63539 0.80242 0.0836 0.0
O58 O 0.81498 0.84063 0.98062 0.0
O59 O 0.85148 0.79314 0.03106 0.0
C60 C 0.87503 0.71516 0.91216 0.0
O61 O 0.54679 0.79334 0.01884 0.0
O62 O 0.66069 0.86985 0.97988 0.0
C63 C 0.66352 0.62789 0.02067 0.0
C64 C 0.96246 0.62836 0.07079 0.0
C65 C 0.99297 0.63414 0.14642 0.0
C66 C 0.99128 0.57248 0.12693 0.0
C67 C 0.97657 0.56969 0.08927 0.0
C68 C 0.96345 0.69 0.09046 0.0
C69 C 0.97933 0.69286 0.12762 0.0
C70 C 0.9428 0.62448 0.03271 0.0
C71 C 0.64184 0.76134 0.11298 0.0
H72 H 0.53902 0.971 0.88388 0.0
H73 H 0.5525 0.96087 0.95414 0.0
H74 H 0.57606 0.74727 0.93656 0.0
H75 H 0.56154 0.7572 0.86683 0.0
H76 H 1.00224 0.5265 0.1405 0.0
H77 H 0.97553 0.52165 0.0748 0.0
H78 H 0.95125 0.73593 0.07738 0.0
H79 H 0.97915 0.74097 0.14238 0.0
Tb80 Tb 0.33202 0.77795 0.51792 0.0
Tb81 Tb 0.18114 0.68464 0.50743 0.0
C82 C 0.17125 0.84039 0.51147 0.0
C83 C 0.45266 0.84346 0.57247 0.0
C84 C 0.46339 0.84091 0.65531 0.0
C85 C 0.47461 0.90136 0.62981 0.0
C86 C 0.46945 0.90253 0.58873 0.0
C87 C 0.44219 0.78301 0.59743 0.0
C88 C 0.44829 0.78167 0.63808 0.0
C89 C 0.43937 0.84581 0.53199 0.0
O90 O 0.19281 0.76275 0.5944 0.0
O91 O 0.13085 0.66613 0.58528 0.0
O92 O 0.30647 0.62498 0.48796 0.0
O93 O 0.34466 0.6764 0.53606 0.0
O94 O 0.03953 0.66239 0.5271 0.0
O95 O 0.16739 0.60245 0.47297 0.0
O96 O 0.28107 0.73829 0.43498 0.0
O97 O 0.41392 0.75429 0.43697 0.0
O98 O 0.26372 0.84498 0.49557 0.0
O99 O 0.12013 0.7841 0.52926 0.0
C100 C 0.13522 0.70925 0.61372 0.0
O101 O 0.47174 0.79463 0.50163 0.0
O102 O 0.35104 0.86392 0.54733 0.0
C103 C 0.34689 0.62425 0.51172 0.0
C104 C 0.04795 0.61461 0.45863 0.0
C105 C 0.01046 0.61102 0.38548 0.0
C106 C 0.0061 0.55229 0.41082 0.0
C107 C 0.02446 0.55417 0.44704 0.0
C108 C 0.05184 0.67353 0.4339 0.0
C109 C 0.03277 0.67181 0.39786 0.0
C110 C 0.07401 0.6142 0.49412 0.0
C111 C 0.37627 0.75068 0.41179 0.0
H112 H 0.48487 0.9481 0.64234 0.0
H113 H 0.47656 0.94978 0.57031 0.0
H114 H 0.42819 0.73679 0.5859 0.0
H115 H 0.44114 0.734 0.65597 0.0
H116 H 0.99093 0.50442 0.4018 0.0
H117 H 0.02221 0.50806 0.46533 0.0
H118 H 0.07059 0.72071 0.44206 0.0
H119 H 0.03544 0.71817 0.37976 0.0
Tb120 Tb 0.83255 0.26882 0.50868 0.0
Tb121 Tb 0.67745 0.17696 0.49988 0.0
C122 C 0.65474 0.32835 0.5162 0.0
C123 C 0.95858 0.34583 0.5596 0.0
C124 C 0.98499 0.36141 0.63646 0.0
C125 C 0.97705 0.4174 0.61286 0.0
C126 C 0.96433 0.40962 0.57478 0.0
C127 C 0.96649 0.28969 0.5829 0.0
C128 C 0.98011 0.29742 0.62069 0.0
C129 C 0.94203 0.33935 0.52043 0.0
O130 O 0.74447 0.20908 0.57855 0.0
O131 O 0.60508 0.18846 0.58234 0.0
O132 O 0.75733 0.10796 0.51348 0.0
O133 O 0.89903 0.17169 0.47899 0.0
O134 O 0.53761 0.1653 0.51502 0.0
O135 O 0.65361 0.09265 0.47096 0.0
O136 O 0.8125 0.19606 0.42232 0.0
O137 O 0.87681 0.29072 0.43243 0.0
O138 O 0.69649 0.3238 0.53915 0.0
O139 O 0.66256 0.28032 0.48738 0.0
C140 C 0.65045 0.19088 0.60394 0.0
O141 O 0.97113 0.28463 0.49414 0.0
O142 O 0.85459 0.35725 0.53466 0.0
C143 C 0.85136 0.11397 0.49488 0.0
C144 C 0.55308 0.11513 0.44507 0.0
C145 C 0.53876 0.11375 0.36315 0.0
C146 C 0.50809 0.05806 0.39645 0.0
C147 C 0.51513 0.05882 0.43695 0.0
C148 C 0.58289 0.17114 0.41233 0.0
C149 C 0.57535 0.17058 0.37195 0.0
C150 C 0.56667 0.11322 0.48567 0.0
C151 C 0.87051 0.24946 0.40366 0.0
H152 H 0.97883 0.46741 0.6244 0.0
H153 H 0.95784 0.45361 0.55752 0.0
H154 H 0.96195 0.23984 0.57203 0.0
H155 H 0.98755 0.25311 0.63725 0.0
H156 H 0.47857 0.01376 0.3912 0.0
H157 H 0.49211 0.01496 0.46156 0.0
H158 H 0.61349 0.21493 0.41748 0.0
H159 H 0.60073 0.21399 0.34675 0.0
H160 H 0.47702 0.62551 0.04661 0.0
H161 H 0.73475 0.50219 0.98793 0.0
H162 H 0.65433 0.41054 0.97697 0.0
H163 H 0.51384 0.36681 0.98191 0.0
H164 H 0.25575 0.48948 0.04032 0.0
H165 H 0.3343 0.58066 0.0533 0.0
C166 C 0.51545 0.57846 0.03181 0.0
C167 C 0.61181 0.57073 0.01807 0.0
C168 C 0.46935 0.52628 0.02508 0.0
C169 C 0.66054 0.50947 0.9988 0.0
C170 C 0.61481 0.45712 0.99235 0.0
C171 C 0.47475 0.41359 0.99717 0.0
C172 C 0.3795 0.42162 0.00964 0.0
C173 C 0.51983 0.46532 0.00483 0.0
C174 C 0.32946 0.48223 0.03008 0.0
C175 C 0.37417 0.53426 0.03765 0.0
H176 H 0.44543 0.60472 0.55261 0.0
H177 H 0.36198 0.50679 0.46677 0.0
H178 H 0.44849 0.40672 0.46167 0.0
H179 H 0.5495 0.34777 0.47994 0.0
H180 H 0.63489 0.44398 0.56534 0.0
H181 H 0.54526 0.54421 0.57233 0.0
C182 C 0.44599 0.56146 0.53287 0.0
C183 C 0.39767 0.56341 0.50992 0.0
C184 C 0.49611 0.5039 0.52993 0.0
C185 C 0.39889 0.50685 0.48462 0.0
C186 C 0.4483 0.4495 0.48166 0.0
C187 C 0.54865 0.39055 0.50016 0.0
C188 C 0.59899 0.38852 0.52196 0.0
C189 C 0.49749 0.44767 0.50391 0.0
C190 C 0.59661 0.44431 0.54823 0.0
C191 C 0.54554 0.50162 0.55218 0.0
H192 H 0.05681 0.12488 0.96851 0.0
H193 H 0.14025 0.02904 0.05593 0.0
H194 H 0.05556 0.9268 0.06167 0.0
H195 H 0.95741 0.86499 0.04249 0.0
H196 H 0.87384 0.96035 0.95502 0.0
H197 H 0.95946 0.0626 0.94873 0.0
C198 C 0.0565 0.08169 0.98885 0.0
C199 C 0.1046 0.08469 0.01182 0.0
C200 C 0.00779 0.02302 0.99202 0.0
C201 C 0.1037 0.02817 0.03791 0.0
C202 C 0.05531 0.96963 0.04125 0.0
C203 C 0.95786 0.90806 0.022 0.0
C204 C 0.90929 0.90505 0.99931 0.0
C205 C 0.00705 0.96658 0.01852 0.0
C206 C 0.91081 0.9613 0.97281 0.0
C207 C 0.95963 0.01984 0.96922 0.0
H208 H 0.03326 0.11073 0.47458 0.0
H209 H 0.78177 0.98567 0.5198 0.0
H210 H 0.85854 0.89047 0.52956 0.0
H211 H 0.99421 0.84348 0.52718 0.0
H212 H 0.24603 0.96777 0.48233 0.0
H213 H 0.17117 0.06289 0.47069 0.0
C214 C 0.99561 0.06254 0.48608 0.0
C215 C 0.90199 0.05536 0.49639 0.0
C216 C 0.03958 0.00811 0.49215 0.0
C217 C 0.85395 -0.00737 0.51159 0.0
C218 C 0.89757 0.93815 0.51735 0.0
C219 C 0.03272 0.89139 0.51511 0.0
C220 C 0.12518 0.89862 0.506 0.0
C221 C 0.98978 0.94555 0.50822 0.0
C222 C 0.17445 0.96093 0.48984 0.0
C223 C 0.13189 0.0153 0.48304 0.0
H224 H 0.47407 0.21034 0.33022 0.0
H225 H 0.59566 0.01215 0.29572 0.0
H226 H 0.59069 0.00763 0.22281 0.0
H227 H 0.55363 0.06025 0.16804 0.0
H228 H 0.4241 0.2565 0.20521 0.0
H229 H 0.43315 0.26194 0.27651 0.0
C230 C 0.50005 0.16632 0.30656 0.0
C231 C 0.53511 0.11166 0.31867 0.0
C232 C 0.49643 0.16383 0.26468 0.0
C233 C 0.56723 0.05469 0.28783 0.0
C234 C 0.56493 0.05219 0.24586 0.0
C235 C 0.52627 0.10405 0.19193 0.0
C236 C 0.48884 0.15803 0.18046 0.0
C237 C 0.52952 0.10642 0.23392 0.0
C238 C 0.45543 0.2146 0.21188 0.0
C239 C 0.45966 0.21761 0.2532 0.0
H240 H 0.69969 0.73907 0.17205 0.0
H241 H 0.45335 0.81148 0.17715 0.0
H242 H 0.3497 0.81836 0.27128 0.0
H243 H 0.32625 0.79449 0.35192 0.0
H244 H 0.57543 0.72547 0.34579 0.0
H245 H 0.68197 0.72706 0.25169 0.0
C246 C 0.62343 0.75678 0.19386 0.0
C247 C 0.58303 0.77366 0.16833 0.0
C248 C 0.56524 0.76092 0.24744 0.0
C249 C 0.48534 0.79802 0.19641 0.0
C250 C 0.42622 0.80164 0.25005 0.0
C251 C 0.4041 0.78025 0.32988 0.0
C252 C 0.44288 0.75888 0.35545 0.0
C253 C 0.46482 0.78173 0.27596 0.0
C254 C 0.54412 0.74187 0.32676 0.0
C255 C 0.60483 0.74252 0.27307 0.0
H256 H 0.42972 0.79309 0.85685 0.0
H257 H 0.65222 0.95048 0.78709 0.0
H258 H 0.64489 0.95781 0.71481 0.0
H259 H 0.57994 0.91615 0.6699 0.0
H260 H 0.35013 0.7628 0.74271 0.0
H261 H 0.35756 0.75623 0.81454 0.0
C262 C 0.47683 0.82879 0.82569 0.0
C263 C 0.54193 0.87079 0.82708 0.0
C264 C 0.47176 0.83297 0.7845 0.0
C265 C 0.60123 0.91773 0.78695 0.0
C266 C 0.5974 0.92172 0.74553 0.0
C267 C 0.53041 0.88189 0.70173 0.0
C268 C 0.4656 0.8394 0.70019 0.0
C269 C 0.53338 0.87924 0.74372 0.0
C270 C 0.40281 0.79492 0.74186 0.0
C271 C 0.40628 0.79146 0.78333 0.0
H272 H 0.4676 0.2357 0.68154 0.0
H273 H 0.71255 0.11863 0.64988 0.0
H274 H 0.63812 0.11556 0.74157 0.0
H275 H 0.51339 0.15845 0.82947 0.0
H276 H 0.27705 0.28371 0.85808 0.0
H277 H 0.33737 0.27147 0.76974 0.0
C278 C 0.50295 0.20809 0.69509 0.0
C279 C 0.59474 0.17729 0.65945 0.0
C280 C 0.4623 0.20933 0.74739 0.0
C281 C 0.64142 0.1427 0.67701 0.0
C282 C 0.59932 0.14132 0.7293 0.0
C283 C 0.47489 0.18243 0.81633 0.0
C284 C 0.39217 0.22289 0.85004 0.0
C285 C 0.51151 0.17652 0.76468 0.0
C286 C 0.34242 0.25343 0.83261 0.0
C287 C 0.37643 0.24623 0.78207 0.0
H288 H 0.89744 0.56152 0.23564 0.0
H289 H 0.12288 0.71457 0.14689 0.0
H290 H 0.148 0.72124 0.21283 0.0
H291 H 0.10737 0.68261 0.2951 0.0
H292 H 0.87588 0.53314 0.38595 0.0
H293 H 0.85304 0.52529 0.31948 0.0
C294 C 0.95242 0.59601 0.23069 0.0
C295 C 0.00841 0.63737 0.18644 0.0
C296 C 0.96562 0.60011 0.26906 0.0
C297 C 0.07845 0.68252 0.18079 0.0
C298 C 0.09299 0.68622 0.21841 0.0
C299 C 0.05084 0.64896 0.30085 0.0
C300 C 0.99386 0.60838 0.34563 0.0
C301 C 0.03684 0.64537 0.26277 0.0
C302 C 0.92223 0.56424 0.35164 0.0
C303 C 0.90856 0.55995 0.31372 0.0
H304 H 0.81471 0.22543 0.34389 0.0
H305 H 0.05718 0.30513 0.33976 0.0
H306 H 0.15925 0.3198 0.24599 0.0
H307 H 0.18166 0.30389 0.16513 0.0
H308 H 0.93505 0.22965 0.17051 0.0
H309 H 0.83144 0.21946 0.26432 0.0
C310 C 0.88986 0.24619 0.32237 0.0
C311 C 0.92945 0.26326 0.34813 0.0
C312 C 0.94688 0.25544 0.26899 0.0
C313 C 0.02575 0.29147 0.32037 0.0
C314 C 0.08398 0.29966 0.26692 0.0
C315 C 0.10502 0.28589 0.18697 0.0
C316 C 0.0661 0.26687 0.16117 0.0
C317 C 0.04571 0.2809 0.2408 0.0
C318 C 0.96638 0.24464 0.1897 0.0
C319 C 0.90736 0.23849 0.24322 0.0
H320 H 0.90384 0.28477 0.72336 0.0
H321 H 0.09422 0.45721 0.64243 0.0
H322 H 0.11289 0.47164 0.71001 0.0
H323 H 0.07941 0.43334 0.79114 0.0
H324 H 0.89592 0.25785 0.86941 0.0
H325 H 0.87228 0.24581 0.80331 0.0
C326 C 0.95058 0.32505 0.71998 0.0
C327 C 0.9974 0.36973 0.67757 0.0
C328 C 0.96269 0.33239 0.75852 0.0
C329 C 0.05587 0.42249 0.67481 0.0
C330 C 0.06727 0.43058 0.71335 0.0
C331 C 0.03361 0.39282 0.79387 0.0
C332 C 0.98953 0.34653 0.83511 0.0
C333 C 0.02125 0.38574 0.75533 0.0
C334 C 0.93137 0.29379 0.83782 0.0
C335 C 0.9176 0.28699 0.80012 0.0
H336 H 0.1939 0.73415 0.67187 0.0
H337 H 0.94648 0.65667 0.67949 0.0
H338 H 0.84424 0.64818 0.77372 0.0
H339 H 0.82265 0.67124 0.85368 0.0
H340 H 0.07386 0.74393 0.84484 0.0
H341 H 0.17827 0.74531 0.75082 0.0
C342 C 0.11764 0.71513 0.69427 0.0
C343 C 0.07649 0.69727 0.66941 0.0
C344 C 0.06048 0.70969 0.74787 0.0
C345 C 0.97891 0.67106 0.69825 0.0
C346 C 0.92065 0.66644 0.75193 0.0
C347 C 0.90049 0.68685 0.83105 0.0
C348 C 0.94043 0.70833 0.85587 0.0
C349 C 0.96015 0.68693 0.77714 0.0
C350 C 0.04166 0.72729 0.82642 0.0
C351 C 0.10117 0.72838 0.77277 0.0
loop_
_geom_bond_atom_site_label_1
_geom_bond_atom_site_label_2
_geom_bond_distance
_geom_bond_site_symmetry_2
_ccdc_geom_bond_type
Tb0 C9 2.764 1_554 S
Tb0 O10 2.325 1_554 S
Tb0 O13 2.303 . S
Tb0 O17 2.322 . S
Tb0 O18 2.349 1_554 S
Tb0 O21 2.415 1_554 S
Tb0 O22 2.399 1_554 S
Tb1 O11 2.322 1_554 S
Tb1 O12 2.349 . S
Tb1 O14 2.415 . S
Tb1 O15 2.399 . S
Tb1 O16 2.325 . S
Tb1 O19 2.299 1_554 S
Tb1 C30 2.764 . S
C2 O18 1.261 . S
C2 O19 1.259 . S
C3 C6 1.358 . S
C3 C7 1.332 . S
C3 C9 1.504 . S
C4 C5 1.373 . S
C4 C8 1.308 . S
C5 C4 1.373 . S
C5 C6 1.429 . S
C5 H32 0.932 . S
C6 C3 1.358 . S
C6 C5 1.429 . S
C6 H33 0.930 . S
C7 C3 1.332 . S
C7 C8 1.394 . S
C7 H34 0.932 . S
C8 C4 1.308 . S
C8 C7 1.394 . S
C8 H35 0.929 . S
C9 Tb0 2.764 1_556 S
C9 C3 1.504 . S
C9 O21 1.239 . S
C9 O22 1.263 . S
O10 Tb0 2.325 1_556 S
O10 C20 1.236 . S
O11 Tb1 2.322 1_556 S
O11 C20 1.257 . S
O12 Tb1 2.349 . S
O12 C23 1.261 . S
O13 Tb0 2.303 . S
O13 C23 1.257 . S
O14 Tb1 2.415 . S
O14 C30 1.239 . S
O15 Tb1 2.399 . S
O15 C30 1.263 . S
O16 Tb1 2.325 . S
O16 C31 1.236 . S
O17 Tb0 2.322 . S
O17 C31 1.257 . S
O18 Tb0 2.349 1_556 S
O18 C2 1.261 . S
O19 Tb1 2.299 1_556 S
O19 C2 1.259 . S
C20 O10 1.236 . S
C20 O11 1.257 . S
O21 Tb0 2.415 1_556 S
O21 C9 1.239 . S
O22 Tb0 2.399 1_556 S
O22 C9 1.263 . S
C23 O12 1.261 . S
C23 O13 1.257 . S
C24 C27 1.358 . S
C24 C28 1.332 . S
C24 C30 1.504 . S
C25 C26 1.373 . S
C25 C29 1.308 . S
C26 C25 1.373 . S
C26 C27 1.429 . S
C26 H36 0.932 . S
C27 C24 1.358 . S
C27 C26 1.429 . S
C27 H37 0.930 . S
C28 C24 1.332 . S
C28 C29 1.394 . S
C28 H38 0.932 . S
C29 C25 1.308 . S
C29 C28 1.394 . S
C29 H39 0.929 . S
C30 Tb1 2.764 . S
C30 O14 1.239 . S
C30 O15 1.263 . S
C30 C24 1.504 . S
C31 O16 1.236 . S
C31 O17 1.257 . S
H32 C5 0.932 . S
H33 C6 0.930 . S
H34 C7 0.932 . S
H35 C8 0.929 . S
H36 C26 0.932 . S
H37 C27 0.930 . S
H38 C28 0.932 . S
H39 C29 0.929 . S
Tb40 C49 2.764 1_554 S
Tb40 O50 2.325 1_554 S
Tb40 O53 2.303 . S
Tb40 O57 2.322 . S
Tb40 O58 2.349 1_554 S
Tb40 O61 2.415 1_554 S
Tb40 O62 2.399 1_554 S
Tb41 O51 2.322 1_554 S
Tb41 O52 2.349 . S
Tb41 O54 2.415 . S
Tb41 O55 2.399 . S
Tb41 O56 2.325 . S
Tb41 O59 2.299 1_554 S
Tb41 C70 2.764 . S
C42 O58 1.261 . S
C42 O59 1.259 . S
C43 C46 1.358 . S
C43 C47 1.332 . S
C43 C49 1.504 . S
C44 C45 1.373 . S
C44 C48 1.308 . S
C45 C44 1.373 . S
C45 C46 1.429 . S
C45 H72 0.932 . S
C46 C43 1.358 . S
C46 C45 1.429 . S
C46 H73 0.930 . S
C47 C43 1.332 . S
C47 C48 1.394 . S
C47 H74 0.932 . S
C48 C44 1.308 . S
C48 C47 1.394 . S
C48 H75 0.929 . S
C49 Tb40 2.764 1_556 S
C49 C43 1.504 . S
C49 O61 1.239 . S
C49 O62 1.263 . S
O50 Tb40 2.325 1_556 S
O50 C60 1.236 . S
O51 Tb41 2.322 1_556 S
O51 C60 1.257 . S
O52 Tb41 2.349 . S
O52 C63 1.261 . S
O53 Tb40 2.303 . S
O53 C63 1.257 . S
O54 Tb41 2.415 . S
O54 C70 1.239 . S
O55 Tb41 2.399 . S
O55 C70 1.263 . S
O56 Tb41 2.325 . S
O56 C71 1.236 . S
O57 Tb40 2.322 . S
O57 C71 1.257 . S
O58 Tb40 2.349 1_556 S
O58 C42 1.261 . S
O59 Tb41 2.299 1_556 S
O59 C42 1.259 . S
C60 O50 1.236 . S
C60 O51 1.257 . S
O61 Tb40 2.415 1_556 S
O61 C49 1.239 . S
O62 Tb40 2.399 1_556 S
O62 C49 1.263 . S
C63 O52 1.261 . S
C63 O53 1.257 . S
C64 C67 1.358 . S
C64 C68 1.332 . S
C64 C70 1.504 . S
C65 C66 1.373 . S
C65 C69 1.308 . S
C66 C65 1.373 . S
C66 C67 1.429 . S
C66 H76 0.932 . S
C67 C64 1.358 . S
C67 C66 1.429 . S
C67 H77 0.930 . S
C68 C64 1.332 . S
C68 C69 1.394 . S
C68 H78 0.932 . S
C69 C65 1.308 . S
C69 C68 1.394 . S
C69 H79 0.929 . S
C70 Tb41 2.764 . S
C70 O54 1.239 . S
C70 O55 1.263 . S
C70 C64 1.504 . S
C71 O56 1.236 . S
C71 O57 1.257 . S
H72 C45 0.932 . S
H73 C46 0.930 . S
H74 C47 0.932 . S
H75 C48 0.929 . S
H76 C66 0.932 . S
H77 C67 0.930 . S
H78 C68 0.932 . S
H79 C69 0.929 . S
Tb80 C89 2.764 . S
Tb80 O90 2.325 . S
Tb80 O93 2.303 . S
Tb80 O97 2.322 . S
Tb80 O98 2.349 . S
Tb80 O101 2.415 . S
Tb80 O102 2.399 . S
Tb81 O91 2.322 . S
Tb81 O92 2.349 . S
Tb81 O94 2.415 . S
Tb81 O95 2.399 . S
Tb81 O96 2.325 . S
Tb81 O99 2.303 . S
Tb81 C110 2.764 . S
C82 O98 1.261 . S
C82 O99 1.257 . S
C83 C86 1.358 . S
C83 C87 1.332 . S
C83 C89 1.504 . S
C84 C85 1.373 . S
C84 C88 1.308 . S
C85 C84 1.373 . S
C85 C86 1.429 . S
C85 H112 0.932 . S
C86 C83 1.358 . S
C86 C85 1.429 . S
C86 H113 0.930 . S
C87 C83 1.332 . S
C87 C88 1.394 . S
C87 H114 0.932 . S
C88 C84 1.308 . S
C88 C87 1.394 . S
C88 H115 0.929 . S
C89 Tb80 2.764 . S
C89 C83 1.504 . S
C89 O101 1.239 . S
C89 O102 1.263 . S
O90 Tb80 2.325 . S
O90 C100 1.236 . S
O91 Tb81 2.322 . S
O91 C100 1.257 . S
O92 Tb81 2.349 . S
O92 C103 1.261 . S
O93 Tb80 2.303 . S
O93 C103 1.257 . S
O94 Tb81 2.415 . S
O94 C110 1.239 . S
O95 Tb81 2.399 . S
O95 C110 1.263 . S
O96 Tb81 2.325 . S
O96 C111 1.236 . S
O97 Tb80 2.322 . S
O97 C111 1.257 . S
O98 Tb80 2.349 . S
O98 C82 1.261 . S
O99 Tb81 2.303 . S
O99 C82 1.257 . S
C100 O90 1.236 . S
C100 O91 1.257 . S
O101 Tb80 2.415 . S
O101 C89 1.239 . S
O102 Tb80 2.399 . S
O102 C89 1.263 . S
C103 O92 1.261 . S
C103 O93 1.257 . S
C104 C107 1.358 . S
C104 C108 1.332 . S
C104 C110 1.504 . S
C105 C106 1.373 . S
C105 C109 1.308 . S
C106 C105 1.373 . S
C106 C107 1.429 . S
C106 H116 0.932 . S
C107 C104 1.358 . S
C107 C106 1.429 . S
C107 H117 0.930 . S
C108 C104 1.332 . S
C108 C109 1.394 . S
C108 H118 0.932 . S
C109 C105 1.308 . S
C109 C108 1.394 . S
C109 H119 0.929 . S
C110 Tb81 2.764 . S
C110 O94 1.239 . S
C110 O95 1.263 . S
C110 C104 1.504 . S
C111 O96 1.236 . S
C111 O97 1.257 . S
H112 C85 0.932 . S
H113 C86 0.930 . S
H114 C87 0.932 . S
H115 C88 0.929 . S
H116 C106 0.932 . S
H117 C107 0.930 . S
H118 C108 0.932 . S
H119 C109 0.929 . S
Tb120 C129 2.764 . S
Tb120 O130 2.325 . S
Tb120 O133 2.303 . S
Tb120 O137 2.322 . S
Tb120 O138 2.349 . S
Tb120 O141 2.415 . S
Tb120 O142 2.399 . S
Tb121 O131 2.322 . S
Tb121 O132 2.349 . S
Tb121 O134 2.415 . S
Tb121 O135 2.399 . S
Tb121 O136 2.325 . S
Tb121 O139 2.303 . S
Tb121 C150 2.764 . S
C122 O138 1.261 . S
C122 O139 1.257 . S
C123 C126 1.358 . S
C123 C127 1.332 . S
C123 C129 1.504 . S
C124 C125 1.373 . S
C124 C128 1.308 . S
C125 C124 1.373 . S
C125 C126 1.429 . S
C125 H152 0.932 . S
C126 C123 1.358 . S
C126 C125 1.429 . S
C126 H153 0.930 . S
C127 C123 1.332 . S
C127 C128 1.394 . S
C127 H154 0.932 . S
C128 C124 1.308 . S
C128 C127 1.394 . S
C128 H155 0.929 . S
C129 Tb120 2.764 . S
C129 C123 1.504 . S
C129 O141 1.239 . S
C129 O142 1.263 . S
O130 Tb120 2.325 . S
O130 C140 1.236 . S
O131 Tb121 2.322 . S
O131 C140 1.257 . S
O132 Tb121 2.349 . S
O132 C143 1.261 . S
O133 Tb120 2.303 . S
O133 C143 1.257 . S
O134 Tb121 2.415 . S
O134 C150 1.239 . S
O135 Tb121 2.399 . S
O135 C150 1.263 . S
O136 Tb121 2.325 . S
O136 C151 1.236 . S
O137 Tb120 2.322 . S
O137 C151 1.257 . S
O138 Tb120 2.349 . S
O138 C122 1.261 . S
O139 Tb121 2.303 . S
O139 C122 1.257 . S
C140 O130 1.236 . S
C140 O131 1.257 . S
O141 Tb120 2.415 . S
O141 C129 1.239 . S
O142 Tb120 2.399 . S
O142 C129 1.263 . S
C143 O132 1.261 . S
C143 O133 1.257 . S
C144 C147 1.358 . S
C144 C148 1.332 . S
C144 C150 1.504 . S
C145 C146 1.373 . S
C145 C149 1.308 . S
C146 C145 1.373 . S
C146 C147 1.429 . S
C146 H156 0.932 . S
C147 C144 1.358 . S
C147 C146 1.429 . S
C147 H157 0.930 . S
C148 C144 1.332 . S
C148 C149 1.394 . S
C148 H158 0.932 . S
C149 C145 1.308 . S
C149 C148 1.394 . S
C149 H159 0.929 . S
C150 Tb121 2.764 . S
C150 O134 1.239 . S
C150 O135 1.263 . S
C150 C144 1.504 . S
C151 O136 1.236 . S
C151 O137 1.257 . S
H152 C125 0.932 . S
H153 C126 0.930 . S
H154 C127 0.932 . S
H155 C128 0.929 . S
H156 C146 0.932 . S
H157 C147 0.930 . S
H158 C148 0.932 . S
H159 C149 0.929 . S
H160 C166 0.930 . S
H161 C169 0.930 . S
H162 C170 0.930 . S
H163 C171 0.930 . S
H164 C174 0.930 . S
H165 C175 0.930 . S
C166 H160 0.930 . S
C166 C167 1.355 . S
C166 C168 1.415 . S
C167 C166 1.355 . S
C167 C169 1.419 1_554 S
C168 C166 1.415 . S
C168 C173 1.425 1_554 S
C168 C175 1.409 . S
C169 H161 0.930 . S
C169 C167 1.419 1_556 S
C169 C170 1.362 . S
C170 H162 0.930 . S
C170 C169 1.362 . S
C170 C173 1.409 . S
C171 H163 0.930 . S
C171 C172 1.355 1_556 S
C171 C173 1.415 . S
C172 C171 1.355 1_554 S
C172 C174 1.419 . S
C173 C168 1.425 1_556 S
C173 C170 1.409 . S
C173 C171 1.415 . S
C174 H164 0.930 . S
C174 C172 1.419 . S
C174 C175 1.362 . S
C175 H165 0.930 . S
C175 C168 1.409 . S
C175 C174 1.362 . S
H176 C182 0.930 . S
H177 C185 0.930 . S
H178 C186 0.930 . S
H179 C187 0.930 . S
H180 C190 0.930 . S
H181 C191 0.930 . S
C182 H176 0.930 . S
C182 C183 1.355 . S
C182 C184 1.415 . S
C183 C182 1.355 . S
C183 C185 1.419 . S
C184 C182 1.415 . S
C184 C189 1.425 . S
C184 C191 1.409 . S
C185 H177 0.930 . S
C185 C183 1.419 . S
C185 C186 1.362 . S
C186 H178 0.930 . S
C186 C185 1.362 . S
C186 C189 1.409 . S
C187 H179 0.930 . S
C187 C188 1.355 . S
C187 C189 1.415 . S
C188 C187 1.355 . S
C188 C190 1.419 . S
C189 C184 1.425 . S
C189 C186 1.409 . S
C189 C187 1.415 . S
C190 H180 0.930 . S
C190 C188 1.419 . S
C190 C191 1.362 . S
C191 H181 0.930 . S
C191 C184 1.409 . S
C191 C190 1.362 . S
H192 C198 0.930 1_655 S
H193 C201 0.930 . S
H194 C202 0.930 . S
H195 C203 0.930 1_455 S
H196 C206 0.930 . S
H197 C207 0.930 . S
C198 H192 0.930 1_455 S
C198 C199 1.355 . S
C198 C200 1.415 1_455 S
C199 C198 1.355 . S
C199 C201 1.419 1_554 S
C200 C198 1.415 1_655 S
C200 C205 1.425 1_644 S
C200 C207 1.409 . S
C201 H193 0.930 . S
C201 C199 1.419 1_556 S
C201 C202 1.362 1_545 S
C202 H194 0.930 . S
C202 C201 1.362 1_565 S
C202 C205 1.409 . S
C203 H195 0.930 1_655 S
C203 C204 1.355 1_556 S
C203 C205 1.415 1_655 S
C204 C203 1.355 1_554 S
C204 C206 1.419 . S
C205 C200 1.425 1_466 S
C205 C202 1.409 . S
C205 C203 1.415 1_455 S
C206 H196 0.930 . S
C206 C204 1.419 . S
C206 C207 1.362 1_565 S
C207 H197 0.930 . S
C207 C200 1.409 . S
C207 C206 1.362 1_545 S
H208 C214 0.930 1_455 S
H209 C217 0.930 . S
H210 C218 0.930 . S
H211 C219 0.930 1_655 S
H212 C222 0.930 . S
H213 C223 0.930 . S
C214 H208 0.930 1_655 S
C214 C215 1.355 . S
C214 C216 1.415 1_655 S
C215 C214 1.355 . S
C215 C217 1.419 . S
C216 C214 1.415 1_455 S
C216 C221 1.425 1_445 S
C216 C223 1.409 . S
C217 H209 0.930 . S
C217 C215 1.419 . S
C217 C218 1.362 1_545 S
C218 H210 0.930 . S
C218 C217 1.362 1_565 S
C218 C221 1.409 . S
C219 H211 0.930 1_455 S
C219 C220 1.355 . S
C219 C221 1.415 1_455 S
C220 C219 1.355 . S
C220 C222 1.419 . S
C221 C216 1.425 1_665 S
C221 C218 1.409 . S
C221 C219 1.415 1_655 S
C222 H212 0.930 . S
C222 C220 1.419 . S
C222 C223 1.362 1_565 S
C223 H213 0.930 . S
C223 C216 1.409 . S
C223 C222 1.362 1_545 S
H224 C230 0.930 . S
H225 C233 0.930 . S
H226 C234 0.930 1_565 S
H227 C235 0.930 . S
H228 C238 0.930 . S
H229 C239 0.930 . S
C230 H224 0.930 . S
C230 C231 1.355 . S
C230 C232 1.415 . S
C231 C230 1.355 . S
C231 C233 1.419 . S
C232 C230 1.415 . S
C232 C237 1.425 . S
C232 C239 1.409 . S
C233 H225 0.930 . S
C233 C231 1.419 . S
C233 C234 1.362 . S
C234 H226 0.930 1_545 S
C234 C233 1.362 . S
C234 C237 1.409 . S
C235 H227 0.930 . S
C235 C236 1.355 . S
C235 C237 1.415 . S
C236 C235 1.355 . S
C236 C238 1.419 . S
C237 C232 1.425 . S
C237 C234 1.409 . S
C237 C235 1.415 . S
C238 H228 0.930 . S
C238 C236 1.419 . S
C238 C239 1.362 . S
C239 H229 0.930 . S
C239 C232 1.409 . S
C239 C238 1.362 . S
H240 C246 0.930 . S
H241 C249 0.930 . S
H242 C250 0.930 . S
H243 C251 0.930 . S
H244 C254 0.930 . S
H245 C255 0.930 . S
C246 H240 0.930 . S
C246 C247 1.355 . S
C246 C248 1.415 . S
C247 C246 1.355 . S
C247 C249 1.419 . S
C248 C246 1.415 . S
C248 C253 1.425 . S
C248 C255 1.409 . S
C249 H241 0.930 . S
C249 C247 1.419 . S
C249 C250 1.362 . S
C250 H242 0.930 . S
C250 C249 1.362 . S
C250 C253 1.409 . S
C251 H243 0.930 . S
C251 C252 1.355 . S
C251 C253 1.415 . S
C252 C251 1.355 . S
C252 C254 1.419 . S
C253 C248 1.425 . S
C253 C250 1.409 . S
C253 C251 1.415 . S
C254 H244 0.930 . S
C254 C252 1.419 . S
C254 C255 1.362 . S
C255 H245 0.930 . S
C255 C248 1.409 . S
C255 C254 1.362 . S
H256 C262 0.930 . S
H257 C265 0.930 . S
H258 C266 0.930 . S
H259 C267 0.930 . S
H260 C270 0.930 . S
H261 C271 0.930 . S
C262 H256 0.930 . S
C262 C263 1.355 . S
C262 C264 1.415 . S
C263 C262 1.355 . S
C263 C265 1.419 . S
C264 C262 1.415 . S
C264 C269 1.425 . S
C264 C271 1.409 . S
C265 H257 0.930 . S
C265 C263 1.419 . S
C265 C266 1.362 . S
C266 H258 0.930 . S
C266 C265 1.362 . S
C266 C269 1.409 . S
C267 H259 0.930 . S
C267 C268 1.355 . S
C267 C269 1.415 . S
C268 C267 1.355 . S
C268 C270 1.419 . S
C269 C264 1.425 . S
C269 C266 1.409 . S
C269 C267 1.415 . S
C270 H260 0.930 . S
C270 C268 1.419 . S
C270 C271 1.362 . S
C271 H261 0.930 . S
C271 C264 1.409 . S
C271 C270 1.362 . S
H272 C278 0.930 . S
H273 C281 0.930 . S
H274 C282 0.930 . S
H275 C283 0.930 . S
H276 C286 0.930 . S
H277 C287 0.930 . S
C278 H272 0.930 . S
C278 C279 1.355 . S
C278 C280 1.415 . S
C279 C278 1.355 . S
C279 C281 1.419 . S
C280 C278 1.415 . S
C280 C285 1.425 . S
C280 C287 1.409 . S
C281 H273 0.930 . S
C281 C279 1.419 . S
C281 C282 1.362 . S
C282 H274 0.930 . S
C282 C281 1.362 . S
C282 C285 1.409 . S
C283 H275 0.930 . S
C283 C284 1.355 . S
C283 C285 1.415 . S
C284 C283 1.355 . S
C284 C286 1.419 . S
C285 C280 1.425 . S
C285 C282 1.409 . S
C285 C283 1.415 . S
C286 H276 0.930 . S
C286 C284 1.419 . S
C286 C287 1.362 . S
C287 H277 0.930 . S
C287 C280 1.409 . S
C287 C286 1.362 . S
H288 C294 0.930 . S
H289 C297 0.930 . S
H290 C298 0.930 . S
H291 C299 0.930 . S
H292 C302 0.930 . S
H293 C303 0.930 . S
C294 H288 0.930 . S
C294 C295 1.355 1_655 S
C294 C296 1.415 . S
C295 C294 1.355 1_455 S
C295 C297 1.419 . S
C296 C294 1.415 . S
C296 C301 1.425 1_655 S
C296 C303 1.409 . S
C297 H289 0.930 . S
C297 C295 1.419 . S
C297 C298 1.362 . S
C298 H290 0.930 . S
C298 C297 1.362 . S
C298 C301 1.409 . S
C299 H291 0.930 . S
C299 C300 1.355 1_455 S
C299 C301 1.415 . S
C300 C299 1.355 1_655 S
C300 C302 1.419 . S
C301 C296 1.425 1_455 S
C301 C298 1.409 . S
C301 C299 1.415 . S
C302 H292 0.930 . S
C302 C300 1.419 . S
C302 C303 1.362 . S
C303 H293 0.930 . S
C303 C296 1.409 . S
C303 C302 1.362 . S
H304 C310 0.930 . S
H305 C313 0.930 . S
H306 C314 0.930 . S
H307 C315 0.930 . S
H308 C318 0.930 . S
H309 C319 0.930 . S
C310 H304 0.930 . S
C310 C311 1.355 . S
C310 C312 1.415 1_655 S
C311 C310 1.355 . S
C311 C313 1.419 . S
C312 C310 1.415 1_455 S
C312 C317 1.425 1_455 S
C312 C319 1.409 . S
C313 H305 0.930 . S
C313 C311 1.419 . S
C313 C314 1.362 . S
C314 H306 0.930 . S
C314 C313 1.362 . S
C314 C317 1.409 . S
C315 H307 0.930 . S
C315 C316 1.355 . S
C315 C317 1.415 1_455 S
C316 C315 1.355 . S
C316 C318 1.419 . S
C317 C312 1.425 1_655 S
C317 C314 1.409 . S
C317 C315 1.415 1_655 S
C318 H308 0.930 . S
C318 C316 1.419 . S
C318 C319 1.362 . S
C319 H309 0.930 . S
C319 C312 1.409 . S
C319 C318 1.362 . S
H320 C326 0.930 . S
H321 C329 0.930 . S
H322 C330 0.930 . S
H323 C331 0.930 . S
H324 C334 0.930 . S
H325 C335 0.930 . S
C326 H320 0.930 . S
C326 C327 1.355 1_655 S
C326 C328 1.415 . S
C327 C326 1.355 1_455 S
C327 C329 1.419 . S
C328 C326 1.415 . S
C328 C333 1.425 1_655 S
C328 C335 1.409 . S
C329 H321 0.930 . S
C329 C327 1.419 . S
C329 C330 1.362 . S
C330 H322 0.930 . S
C330 C329 1.362 . S
C330 C333 1.409 . S
C331 H323 0.930 . S
C331 C332 1.355 1_455 S
C331 C333 1.415 . S
C332 C331 1.355 1_655 S
C332 C334 1.419 . S
C333 C328 1.425 1_455 S
C333 C330 1.409 . S
C333 C331 1.415 . S
C334 H324 0.930 . S
C334 C332 1.419 . S
C334 C335 1.362 . S
C335 H325 0.930 . S
C335 C328 1.409 . S
C335 C334 1.362 . S
H336 C342 0.930 . S
H337 C345 0.930 . S
H338 C346 0.930 . S
H339 C347 0.930 . S
H340 C350 0.930 . S
H341 C351 0.930 . S
C342 H336 0.930 . S
C342 C343 1.355 . S
C342 C344 1.415 . S
C343 C342 1.355 . S
C343 C345 1.419 . S
C344 C342 1.415 . S
C344 C349 1.425 1_455 S
C344 C351 1.409 1_455 S
C345 H337 0.930 . S
C345 C343 1.419 . S
C345 C346 1.362 . S
C346 H338 0.930 . S
C346 C345 1.362 . S
C346 C349 1.409 1_455 S
C347 H339 0.930 . S
C347 C348 1.355 . S
C347 C349 1.415 . S
C348 C347 1.355 . S
C348 C350 1.419 . S
C349 C344 1.425 1_655 S
C349 C346 1.409 1_655 S
C349 C347 1.415 . S
C350 H340 0.930 . S
C350 C348 1.419 . S
C350 C351 1.362 . S
C351 H341 0.930 . S
C351 C344 1.409 1_655 S
C351 C350 1.362 . S
C167 C63 1.633 . S
C172 C2 1.633 1_554 S
C183 C103 1.631 . S
C188 C122 1.631 . S
C199 C23 1.633 . S
C204 C42 1.633 1_554 S
C215 C143 1.633 . S
C220 C82 1.633 . S
C231 C145 1.212 . S
C236 C25 1.158 . S
C247 C71 1.569 . S
C252 C111 1.574 . S
C263 C44 1.174 . S
C268 C84 1.138 . S
C279 C140 1.557 . S
C284 C20 1.549 . S
C295 C65 1.177 1_455 S
C300 C105 1.221 1_655 S
C311 C151 1.577 . S
C316 C31 1.548 . S
C327 C124 1.212 1_455 S
C332 C4 1.158 1_655 S
C343 C100 1.573 . S
C348 C60 1.545 . S
