# Generated by pormake.
# Topology qtz-e, (6)-cn, num edge types: 1
# Building blocks:
#     Node 0, Type 0, BuildingBlock: KUMBUR_clean_sbu_1, # of connection points: 6
#     Node 1, Type 0, BuildingBlock: KUMBUR_clean_sbu_1, # of connection points: 6
#     Node 2, Type 0, BuildingBlock: KUMBUR_clean_sbu_1, # of connection points: 6
#     Node 3, Type 0, BuildingBlock: KUMBUR_clean_sbu_1, # of connection points: 6
#     Node 4, Type 0, BuildingBlock: KUMBUR_clean_sbu_1, # of connection points: 6
#     Node 5, Type 0, BuildingBlock: KUMBUR_clean_sbu_1, # of connection points: 6
#     Edge 6, Type (0, 0), BuildingBlock: XUDNAN_clean_linker_2, # of connection points: 2
#     Edge 7, Type (0, 0), BuildingBlock: XUDNAN_clean_linker_2, # of connection points: 2
#     Edge 8, Type (0, 0), BuildingBlock: XUDNAN_clean_linker_2, # of connection points: 2
#     Edge 9, Type (0, 0), BuildingBlock: XUDNAN_clean_linker_2, # of connection points: 2
#     Edge 10, Type (0, 0), BuildingBlock: XUDNAN_clean_linker_2, # of connection points: 2
#     Edge 11, Type (0, 0), BuildingBlock: XUDNAN_clean_linker_2, # of connection points: 2
#     Edge 12, Type (0, 0), BuildingBlock: XUDNAN_clean_linker_2, # of connection points: 2
#     Edge 13, Type (0, 0), BuildingBlock: XUDNAN_clean_linker_2, # of connection points: 2
#     Edge 14, Type (0, 0), BuildingBlock: XUDNAN_clean_linker_2, # of connection points: 2
#     Edge 15, Type (0, 0), BuildingBlock: XUDNAN_clean_linker_2, # of connection points: 2
#     Edge 16, Type (0, 0), BuildingBlock: XUDNAN_clean_linker_2, # of connection points: 2
#     Edge 17, Type (0, 0), BuildingBlock: XUDNAN_clean_linker_2, # of connection points: 2
#     Edge 18, Type (0, 0), BuildingBlock: XUDNAN_clean_linker_2, # of connection points: 2
#     Edge 19, Type (0, 0), BuildingBlock: XUDNAN_clean_linker_2, # of connection points: 2
#     Edge 20, Type (0, 0), BuildingBlock: XUDNAN_clean_linker_2, # of connection points: 2
#     Edge 21, Type (0, 0), BuildingBlock: XUDNAN_clean_linker_2, # of connection points: 2
#     Edge 22, Type (0, 0), BuildingBlock: XUDNAN_clean_linker_2, # of connection points: 2
#     Edge 23, Type (0, 0), BuildingBlock: XUDNAN_clean_linker_2, # of connection points: 2
# Relax obj value: 0.149
# Max RMSD: 0.212
# Mean RMSD: 0.212
data_MOF--net-qtz-e--node1-KUMBUR_clean_sbu_1--edge1-XUDNAN_clean_linker_2
_symmetry_space_group_name_H-M    P1
_symmetry_Int_Tables_number       1
_symmetry_cell_setting            triclinic
loop_
_symmetry_equiv_pos_as_xyz
'x, y, z'
_cell_length_a     28.003627
_cell_length_b     28.039535
_cell_length_c     48.719736
_cell_angle_alpha  89.87567
_cell_angle_beta   89.912891
_cell_angle_gamma 120.05137
loop_
_atom_site_label
_atom_site_type_symbol
_atom_site_fract_x
_atom_site_fract_y
_atom_site_fract_z
_atom_type_partial_charge
Tb0 Tb 0.17662 0.35404 0.98805 0.0
C1 C 0.37463 0.60412 0.03153 0.0
N2 N 0.34846 0.55538 0.04528 0.0
C3 C 0.43286 0.57648 0.06771 0.0
C4 C 0.43159 0.64054 0.03481 0.0
C5 C 0.37621 0.54172 0.06372 0.0
C6 C 0.46074 0.62605 0.05313 0.0
C7 C 0.36946 0.66697 -0.00101 0.0
C8 C 0.34385 0.61753 0.01417 0.0
C9 C 0.42642 0.70325 0.00193 0.0
C10 C 0.45737 0.69015 0.01986 0.0
Tb11 Tb 0.25594 0.50358 0.0384 0.0
N12 N 0.28891 0.58087 0.0116 0.0
C13 C 0.3371 0.67817 0.98118 0.0
C14 C 0.25704 0.59185 0.99446 0.0
C15 C 0.2807 0.64047 0.97894 0.0
H16 H 0.35446 0.50448 0.07574 0.0
H17 H 0.25537 0.64885 0.96524 0.0
H18 H 0.04517 0.32099 0.98755 0.0
H19 H 0.27401 0.23069 0.00459 0.0
H20 H 0.2135 0.56341 0.99244 0.0
H21 H 0.35523 0.71568 0.96907 0.0
H22 H 0.2713 0.31303 0.99019 0.0
H23 H 0.45488 0.56524 0.08218 0.0
H24 H 0.44691 0.74153 0.99045 0.0
H25 H 0.50119 0.71863 0.02201 0.0
H26 H 0.95507 0.23972 -0.00135 0.0
H27 H 0.50461 0.65289 0.05626 0.0
H28 H 0.18876 0.14745 0.01989 0.0
N29 N 0.09099 0.28136 0.99732 0.0
C30 C 0.08889 0.23366 0.00488 0.0
C31 C 0.99245 0.23759 0.00064 0.0
C32 C 0.03831 0.18625 0.01141 0.0
C33 C 0.04365 0.28366 0.99446 0.0
C34 C 0.98977 0.18878 0.00933 0.0
N35 N 0.18587 0.27978 -3e-05 0.0
C36 C 0.23398 0.27841 0.99811 0.0
C37 C 0.13754 0.18431 0.01423 0.0
C38 C 0.138 0.23309 0.00659 0.0
C39 C 0.18737 0.18411 0.01419 0.0
C40 C 0.23561 0.23111 0.0057 0.0
H41 H 0.95005 0.15323 0.01416 0.0
H42 H 0.99941 0.10119 0.02492 0.0
H43 H 0.08625 0.09931 0.02716 0.0
O44 O 0.20819 0.33492 0.9525 0.0
O45 O 0.13864 0.33286 0.02916 0.0
O46 O 0.19649 0.4185 0.03371 0.0
O47 O 0.13414 0.34118 0.95085 0.0
O48 O 0.26245 0.38756 0.00473 0.0
O49 O 0.26855 0.43328 0.0458 0.0
O50 O 0.22247 0.54415 0.06039 0.0
O51 O 0.30028 0.51169 -0.00023 0.0
O52 O 0.22192 0.44328 0.98379 0.0
O53 O 0.26391 0.50722 0.08136 0.0
O54 O 0.1752 0.48232 0.02058 0.0
O55 O 0.13535 0.40538 0.98978 0.0
C56 C 0.15713 0.37451 0.04555 0.0
C57 C 0.1624 0.31948 0.90771 0.0
C58 C 0.19581 0.30297 0.86413 0.0
C59 C 0.14645 0.29346 0.85164 0.0
C60 C 0.11411 0.31048 0.89444 0.0
C61 C 0.1063 0.29756 0.86665 0.0
C62 C 0.20341 0.31596 0.89242 0.0
C63 C 0.28893 0.41322 0.02763 0.0
C64 C 0.16889 0.33233 0.93738 0.0
C65 C 0.03784 0.13804 0.01973 0.0
C66 C 0.08733 0.13704 0.02109 0.0
C67 C 0.27469 0.47641 0.98018 0.0
C68 C 0.27475 0.58947 0.09934 0.0
C69 C 0.29502 0.63651 0.14311 0.0
C70 C 0.33421 0.6856 0.13019 0.0
C71 C 0.31327 0.63889 0.08653 0.0
C72 C 0.26606 0.58832 0.12762 0.0
C73 C 0.34339 0.68659 0.10199 0.0
C74 C 0.13648 0.44796 0.00311 0.0
C75 C 0.24258 0.53895 0.08358 0.0
H76 H 0.13803 0.28161 0.83029 0.0
H77 H 0.08192 0.31294 0.9056 0.0
H78 H 0.06861 0.29008 0.85673 0.0
H79 H 0.24108 0.32365 0.90248 0.0
H80 H 0.35705 0.72326 0.14184 0.0
H81 H 0.31945 0.64091 0.06463 0.0
H82 H 0.23519 0.55043 0.13735 0.0
H83 H 0.37312 0.72458 0.09203 0.0
Tb84 Tb 0.81898 0.16437 0.32063 0.0
C85 C 0.72946 0.33018 0.36137 0.0
N86 N 0.77344 0.32591 0.36965 0.0
C87 C 0.8315 0.42402 0.36647 0.0
C88 C 0.73536 0.38142 0.35385 0.0
C89 C 0.82348 0.37211 0.37346 0.0
C90 C 0.78749 0.42863 0.35609 0.0
C91 C 0.63123 0.28549 0.3534 0.0
C92 C 0.67846 0.2828 0.36089 0.0
C93 C 0.63692 0.33599 0.34481 0.0
C94 C 0.68894 0.38389 0.34502 0.0
Tb95 Tb 0.75704 0.23917 0.37957 0.0
N96 N 0.67473 0.23493 0.36961 0.0
C97 C 0.57956 0.23791 0.35589 0.0
C98 C 0.62399 0.19019 0.37469 0.0
C99 C 0.57588 0.19042 0.3672 0.0
H100 H 0.85687 0.36888 0.38215 0.0
H101 H 0.53592 0.15443 0.37074 0.0
H102 H 0.71377 0.04057 0.30565 0.0
H103 H 0.02789 0.23159 0.35445 0.0
H104 H 0.62006 0.15482 0.38534 0.0
H105 H 0.5422 0.23818 0.35044 0.0
H106 H 0.95094 0.24459 0.34196 0.0
H107 H 0.87144 0.46044 0.36939 0.0
H108 H 0.60116 0.33872 0.33872 0.0
H109 H 0.69259 0.42279 0.33895 0.0
H110 H 0.69585 0.94526 0.3039 0.0
H111 H 0.79378 0.46887 0.35066 0.0
H112 H 0.01787 0.13895 0.35284 0.0
N113 N 0.79711 0.07447 0.31856 0.0
C114 C 0.83864 0.0644 0.32448 0.0
C115 C 0.73614 0.97836 0.30984 0.0
C116 C 0.83034 0.01051 0.32347 0.0
C117 C 0.74632 0.03248 0.31115 0.0
C118 C 0.7783 0.96728 0.31603 0.0
N119 N 0.89484 0.15928 0.33408 0.0
C120 C 0.94438 0.20344 0.34153 0.0
C121 C 0.93298 0.09919 0.33927 0.0
C122 C 0.88922 0.10821 0.33238 0.0
C123 C 0.98323 0.14413 0.34742 0.0
C124 C 0.98894 0.19644 0.34846 0.0
H125 H 0.77026 0.92529 0.31501 0.0
H126 H 0.8684 0.96035 0.32942 0.0
H127 H 0.95833 0.03802 0.34317 0.0
O128 O 0.87181 0.2109 0.28722 0.0
O129 O 0.8158 0.12832 0.36162 0.0
O130 O 0.78765 0.18481 0.37025 0.0
O131 O 0.7952 0.13396 0.28082 0.0
O132 O 0.874 0.25257 0.33298 0.0
O133 O 0.84229 0.2557 0.37647 0.0
O134 O 0.71607 0.21198 0.41795 0.0
O135 O 0.7778 0.27867 0.3387 0.0
O136 O 0.76626 0.19981 0.32327 0.0
O137 O 0.79972 0.28243 0.41466 0.0
O138 O 0.69794 0.1516 0.36831 0.0
O139 O 0.7268 0.12405 0.32787 0.0
C140 C 0.79728 0.14742 0.38043 0.0
C141 C 0.84622 0.17861 0.23934 0.0
C142 C 0.9022 0.218 0.19779 0.0
C143 C 0.85739 0.18 0.18194 0.0
C144 C 0.80216 0.14149 0.22276 0.0
C145 C 0.80776 0.14237 0.19434 0.0
C146 C 0.89633 0.21776 0.22666 0.0
C147 C 0.87704 0.27958 0.35596 0.0
C148 C 0.83827 0.17497 0.26959 0.0
C149 C 0.87394 0.00145 0.33013 0.0
C150 C 0.92514 0.04568 0.33797 0.0
C151 C 0.78034 0.25043 0.31807 0.0
C152 C 0.76193 0.25859 0.46039 0.0
C153 C 0.7179 0.25524 0.50395 0.0
C154 C 0.76953 0.27804 0.51696 0.0
C155 C 0.81326 0.28188 0.47359 0.0
C156 C 0.71423 0.24466 0.47567 0.0
C157 C 0.81684 0.29098 0.50183 0.0
C158 C 0.68926 0.1174 0.34724 0.0
C159 C 0.75865 0.25089 0.4306 0.0
H160 H 0.86078 0.17966 0.15979 0.0
H161 H 0.76304 0.11148 0.23175 0.0
H162 H 0.7735 0.11351 0.18186 0.0
H163 H 0.9307 0.24679 0.23906 0.0
H164 H 0.77325 0.28584 0.53884 0.0
H165 H 0.85054 0.29284 0.4621 0.0
H166 H 0.67473 0.22773 0.46539 0.0
H167 H 0.85644 0.30859 0.51196 0.0
Tb168 Tb 0.64453 0.83319 0.65629 0.0
C169 C 0.43847 0.78559 0.73408 0.0
N170 N 0.49181 0.80171 0.73948 0.0
C171 C 0.49864 0.87372 0.76855 0.0
C172 C 0.41321 0.81396 0.74502 0.0
C173 C 0.5217 0.84396 0.75722 0.0
C174 C 0.44435 0.85914 0.76211 0.0
C175 C 0.35122 0.71611 0.71536 0.0
C176 C 0.40819 0.73782 0.71937 0.0
C177 C 0.32626 0.7459 0.72466 0.0
C178 C 0.35728 0.79487 0.73945 0.0
Tb179 Tb 0.52722 0.75431 0.71776 0.0
N180 N 0.43381 0.71016 0.71117 0.0
C181 C 0.3208 0.66403 0.70335 0.0
C182 C 0.40358 0.65734 0.70168 0.0
C183 C 0.34692 0.63402 0.69701 0.0
H184 H 0.56374 0.85534 0.76211 0.0
H185 H 0.32352 0.59305 0.68847 0.0
H186 H 0.71079 0.76553 0.6469 0.0
H187 H 0.70832 0.03384 0.70126 0.0
H188 H 0.42386 0.63445 0.69637 0.0
H189 H 0.27688 0.64579 0.69988 0.0
H190 H 0.64978 0.95343 0.67322 0.0
H191 H 0.5227 0.90784 0.78221 0.0
H192 H 0.28266 0.73039 0.72143 0.0
H193 H 0.33718 0.81649 0.74734 0.0
H194 H 0.80076 0.77538 0.66007 0.0
H195 H 0.42636 0.88185 0.7711 0.0
H196 H 0.7946 0.04531 0.72114 0.0
N197 N 0.72607 0.83884 0.66721 0.0
C198 C 0.76197 0.8835 0.68197 0.0
C199 C 0.79027 0.80598 0.6664 0.0
C200 C 0.81332 0.89054 0.69015 0.0
C201 C 0.73955 0.80053 0.65895 0.0
C202 C 0.82721 0.85102 0.68219 0.0
N203 N 0.69654 0.91334 0.68055 0.0
C204 C 0.68455 0.95481 0.68336 0.0
C205 C 0.78281 0.96874 0.70435 0.0
C206 C 0.74635 0.92154 0.68923 0.0
C207 C 0.76776 0.00844 0.70962 0.0
C208 C 0.71892 0.00193 0.6986 0.0
H209 H 0.86634 0.85499 0.68805 0.0
H210 H 0.88855 0.9427 0.71254 0.0
H211 H 0.86208 0.01146 0.72479 0.0
O212 O 0.67149 0.89573 0.62653 0.0
O213 O 0.65954 0.79826 0.69397 0.0
O214 O 0.61124 0.82081 0.72244 0.0
O215 O 0.67117 0.82101 0.61754 0.0
O216 O 0.58453 0.86025 0.66371 0.0
O217 O 0.57397 0.84209 0.70916 0.0
O218 O 0.55751 0.70716 0.73649 0.0
O219 O 0.49185 0.73553 0.67647 0.0
O220 O 0.55811 0.79023 0.64293 0.0
O221 O 0.49942 0.72269 0.75752 0.0
O222 O 0.5437 0.70133 0.69076 0.0
O223 O 0.6057 0.74316 0.6533 0.0
C224 C 0.65028 0.80905 0.71896 0.0
C225 C 0.73445 0.90241 0.59285 0.0
C226 C 0.78324 0.96885 0.55601 0.0
C227 C 0.833 0.97369 0.56513 0.0
C228 C 0.78455 0.90759 0.60156 0.0
C229 C 0.83348 0.94284 0.58762 0.0
C230 C 0.73394 0.93272 0.56982 0.0
C231 C 0.56235 0.86107 0.68723 0.0
C232 C 0.68279 0.8692 0.60835 0.0
C233 C 0.84895 0.9366 0.70593 0.0
C234 C 0.83375 0.97562 0.71301 0.0
C235 C 0.50736 0.75445 0.65123 0.0
C236 C 0.48981 0.63534 0.76339 0.0
C237 C 0.43784 0.56129 0.79626 0.0
C238 C 0.41697 0.52361 0.77445 0.0
C239 C 0.46913 0.59683 0.74194 0.0
C240 C 0.47423 0.61738 0.79053 0.0
C241 C 0.4324 0.54142 0.74748 0.0
C242 C 0.57126 0.70042 0.66873 0.0
C243 C 0.52469 0.69451 0.75749 0.0
H244 H 0.8715 0.00154 0.55491 0.0
H245 H 0.7861 0.88519 0.61927 0.0
H246 H 0.87206 0.94691 0.59452 0.0
H247 H 0.69552 0.92965 0.56324 0.0
H248 H 0.38769 0.48057 0.7782 0.0
H249 H 0.4807 0.60958 0.72085 0.0
H250 H 0.49027 0.64709 0.80709 0.0
H251 H 0.41527 0.51222 0.73081 0.0
Tb252 Tb 0.80348 0.63857 2e-05 0.0
C253 C 0.67537 0.39155 0.00869 0.0
N254 N 0.66676 0.42673 0.02416 0.0
C255 C 0.57007 0.37555 0.01381 0.0
C256 C 0.63226 0.34894 0.99368 0.0
C257 C 0.6143 0.41698 0.02848 0.0
C258 C 0.57931 0.34211 0.99586 0.0
C259 C 0.73729 0.35929 0.99505 0.0
C260 C 0.72704 0.39698 0.00927 0.0
C261 C 0.69565 0.31878 0.97853 0.0
C262 C 0.64315 0.3136 0.97785 0.0
Tb263 Tb 0.74312 0.49743 0.0446 0.0
N264 N 0.76556 0.43601 0.02589 0.0
C265 C 0.78801 0.36182 -0.00103 0.0
C266 C 0.81247 0.43458 0.03204 0.0
C267 C 0.8252 0.39874 0.01809 0.0
H268 H 0.60726 0.44267 0.04237 0.0
H269 H 0.86341 0.39929 0.02228 0.0
H270 H 0.92532 0.65687 0.97733 0.0
H271 H 0.753 0.77407 0.05491 0.0
H272 H 0.84056 0.46149 0.04754 0.0
H273 H 0.79765 0.3337 0.98841 0.0
H274 H 0.73312 0.69203 0.0276 0.0
H275 H 0.52896 0.36943 0.01639 0.0
H276 H 0.70296 0.28995 0.96708 0.0
H277 H 0.61084 0.28103 0.9658 0.0
H278 H 0.02331 0.72017 0.98668 0.0
H279 H 0.545 0.30993 0.98459 0.0
H280 H 0.84937 0.84219 0.06706 0.0
N281 N 0.89668 0.69651 0.00478 0.0
C282 C 0.91155 0.74198 0.02038 0.0
C283 C 0.99225 0.72636 0.99662 0.0
C284 C 0.96744 0.78046 0.02551 0.0
C285 C 0.93626 0.68971 0.99185 0.0
C286 C 0.00793 0.77152 0.01383 0.0
N287 N 0.81721 0.7128 0.0251 0.0
C288 C 0.77521 0.72121 0.03303 0.0
C289 C 0.88383 0.79831 0.04599 0.0
C290 C 0.87051 0.75099 0.03045 0.0
C291 C 0.84088 0.80627 0.0551 0.0
C292 C 0.78639 0.76781 0.04835 0.0
H293 H 0.05136 0.80007 0.01729 0.0
H294 H 0.02379 0.85693 0.04593 0.0
H295 H 0.9505 0.87253 0.06388 0.0
O296 O 0.75183 0.64919 0.97248 0.0
O297 O 0.80888 0.64336 0.04555 0.0
O298 O 0.81892 0.56979 0.05902 0.0
O299 O 0.83866 0.68827 0.96482 0.0
O300 O 0.71546 0.5995 0.01232 0.0
O301 O 0.71553 0.5568 0.05255 0.0
O302 O 0.74063 0.44304 0.07516 0.0
O303 O 0.7034 0.50012 0.00655 0.0
O304 O 0.77763 0.55891 0.98119 0.0
O305 O 0.69752 0.48767 0.08038 0.0
O306 O 0.83176 0.54061 0.03423 0.0
O307 O 0.83926 0.5845 0.99274 0.0
C308 C 0.82865 0.62053 0.06242 0.0
C309 C 0.78991 0.72722 0.94338 0.0
C310 C 0.77217 0.76835 0.903 0.0
C311 C 0.7825 0.81412 0.91913 0.0
C312 C 0.80048 0.77341 0.95895 0.0
C313 C 0.7967 0.81659 0.94682 0.0
C314 C 0.77608 0.72495 0.91543 0.0
C315 C 0.69079 0.57322 0.03522 0.0
C316 C 0.79159 0.68015 0.95575 0.0
C317 C 0.98108 0.8271 0.04161 0.0
C318 C 0.93936 0.83605 0.05179 0.0
C319 C 0.72709 0.51802 0.98278 0.0
C320 C 0.74043 0.47624 0.11929 0.0
C321 C 0.77078 0.45433 0.16194 0.0
C322 C 0.785 0.507 0.17197 0.0
C323 C 0.75598 0.52896 0.12937 0.0
C324 C 0.74952 0.44013 0.13522 0.0
C325 C 0.77848 0.54422 0.15555 0.0
C326 C 0.8561 0.55995 0.01033 0.0
C327 C 0.71483 0.45773 0.09224 0.0
H328 H 0.78048 0.84849 0.91021 0.0
H329 H 0.8115 0.77604 0.98038 0.0
H330 H 0.80489 0.85221 0.95893 0.0
H331 H 0.7675 0.68895 0.90348 0.0
H332 H 0.80021 0.51949 0.19261 0.0
H333 H 0.75052 0.5582 0.11716 0.0
H334 H 0.73976 0.40079 0.1265 0.0
H335 H 0.79003 0.58471 0.16335 0.0
Tb336 Tb 0.16316 0.79636 0.33853 0.0
C337 C 0.27876 0.65866 0.36658 0.0
N338 N 0.23007 0.65281 0.37517 0.0
C339 C 0.18652 0.55488 0.36902 0.0
C340 C 0.2827 0.61322 0.3572 0.0
C341 C 0.18508 0.60144 0.37815 0.0
C342 C 0.23535 0.56093 0.35795 0.0
C343 C 0.37758 0.7169 0.36296 0.0
C344 C 0.32527 0.7095 0.36959 0.0
C345 C 0.38154 0.67311 0.35139 0.0
C346 C 0.3341 0.62119 0.3486 0.0
Tb347 Tb 0.23101 0.73065 0.38994 0.0
N348 N 0.31968 0.74977 0.38195 0.0
C349 C 0.42437 0.76677 0.36982 0.0
C350 C 0.36536 0.79618 0.39111 0.0
C351 C 0.4182 0.80588 0.38464 0.0
H352 H 0.14834 0.5966 0.38761 0.0
H353 H 0.45415 0.84275 0.39166 0.0
H354 H 0.27609 0.92034 0.32553 0.0
H355 H 0.96663 0.74157 0.3837 0.0
H356 H 0.36114 0.8255 0.40372 0.0
H357 H 0.4654 0.77411 0.36525 0.0
H358 H 0.03397 0.72386 0.35952 0.0
H359 H 0.15017 0.51445 0.37073 0.0
H360 H 0.42132 0.67822 0.34582 0.0
H361 H 0.33794 0.58707 0.34085 0.0
H362 H 0.311 0.01587 0.3398 0.0
H363 H 0.23658 0.52487 0.35101 0.0
H364 H 0.99394 0.83606 0.39883 0.0
N365 N 0.20085 0.88826 0.34828 0.0
C366 C 0.16694 0.90145 0.36232 0.0
C367 C 0.27073 0.98392 0.34666 0.0
C368 C 0.18458 0.95625 0.37 0.0
C369 C 0.25116 0.92909 0.33918 0.0
C370 C 0.23766 0.99749 0.36247 0.0
N371 N 0.09881 0.80716 0.36181 0.0
C372 C 0.04629 0.76509 0.36628 0.0
C373 C 0.07691 0.87182 0.38255 0.0
C374 C 0.11375 0.85986 0.3686 0.0
C375 C 0.02353 0.82857 0.38818 0.0
C376 C 0.00804 0.77508 0.37979 0.0
H377 H 0.25282 0.04009 0.36802 0.0
H378 H 0.16145 0.0101 0.3907 0.0
H379 H 0.06719 0.93621 0.40162 0.0
O380 O 0.10542 0.75438 0.30676 0.0
O381 O 0.15447 0.79517 0.38356 0.0
O382 O 0.2363 0.80884 0.40133 0.0
O383 O 0.15576 0.84219 0.30641 0.0
O384 O 0.11185 0.7068 0.34563 0.0
O385 O 0.14301 0.7036 0.3886 0.0
O386 O 0.26769 0.72424 0.42648 0.0
O387 O 0.2056 0.69383 0.34887 0.0
O388 O 0.21609 0.76665 0.32232 0.0
O389 O 0.17987 0.68741 0.42321 0.0
O390 O 0.28235 0.81828 0.37814 0.0
O391 O 0.25356 0.82889 0.33481 0.0
C392 C 0.19504 0.81878 0.40132 0.0
C393 C 0.12639 0.79955 0.26313 0.0
C394 C 0.08689 0.78017 0.21684 0.0
C395 C 0.14041 0.80768 0.2058 0.0
C396 C 0.17953 0.82685 0.25151 0.0
C397 C 0.18632 0.83129 0.22304 0.0
C398 C 0.08003 0.77659 0.24562 0.0
C399 C 0.10916 0.67933 0.36814 0.0
C400 C 0.11885 0.79942 0.29324 0.0
C401 C 0.14845 0.96827 0.38448 0.0
C402 C 0.09469 0.92622 0.39064 0.0
C403 C 0.2089 0.71678 0.32481 0.0
C404 C 0.21951 0.72299 0.46623 0.0
C405 C 0.24709 0.73846 0.51405 0.0
C406 C 0.22337 0.77193 0.51696 0.0
C407 C 0.19399 0.75484 0.46955 0.0
C408 C 0.24525 0.71427 0.48867 0.0
C409 C 0.19638 0.77961 0.49476 0.0
C410 C 0.29251 0.84157 0.35361 0.0
C411 C 0.22096 0.69956 0.43953 0.0
H412 H 0.14665 0.81153 0.18377 0.0
H413 H 0.2158 0.84549 0.26445 0.0
H414 H 0.22737 0.8529 0.21426 0.0
H415 H 0.03882 0.75658 0.25433 0.0
H416 H 0.22525 0.79148 0.5364 0.0
H417 H 0.17225 0.76043 0.45272 0.0
H418 H 0.26481 0.68948 0.48627 0.0
H419 H 0.17736 0.8048 0.49707 0.0
Tb420 Tb 0.35951 0.17655 0.65585 0.0
C421 C 0.58958 0.22708 0.73364 0.0
N422 N 0.53511 0.20674 0.73863 0.0
C423 C 0.53654 0.1469 0.77342 0.0
C424 C 0.61958 0.20683 0.74785 0.0
C425 C 0.50841 0.1679 0.75858 0.0
C426 C 0.59217 0.16582 0.76774 0.0
C427 C 0.67328 0.29548 0.71096 0.0
C428 C 0.61604 0.27088 0.71556 0.0
C429 C 0.70295 0.27367 0.72398 0.0
C430 C 0.67616 0.22946 0.74241 0.0
Tb431 Tb 0.49382 0.24488 0.71394 0.0
N432 N 0.58614 0.29129 0.70371 0.0
C433 C 0.69922 0.34227 0.69413 0.0
C434 C 0.61191 0.33908 0.68866 0.0
C435 C 0.66849 0.36455 0.68321 0.0
H436 H 0.46542 0.15342 0.76303 0.0
H437 H 0.68835 0.40137 0.67064 0.0
H438 H 0.33741 0.27728 0.63668 0.0
H439 H 0.22782 0.98152 0.70741 0.0
H440 H 0.58828 0.35628 0.68 0.0
H441 H 0.74312 0.36232 0.69003 0.0
H442 H 0.31245 0.05159 0.68564 0.0
H443 H 0.51528 0.11595 0.78913 0.0
H444 H 0.74689 0.29166 0.72052 0.0
H445 H 0.69984 0.21406 0.75289 0.0
H446 H 0.26236 0.29853 0.63938 0.0
H447 H 0.6138 0.1493 0.7792 0.0
H448 H 0.14722 0.99476 0.71113 0.0
N449 N 0.29216 0.19971 0.65686 0.0
C450 C 0.24308 0.16207 0.668 0.0
C451 C 0.25646 0.2601 0.64767 0.0
C452 C 0.19875 0.17231 0.66978 0.0
C453 C 0.29928 0.24814 0.64649 0.0
C454 C 0.20599 0.22209 0.65944 0.0
N455 N 0.28264 0.10666 0.67701 0.0
C456 C 0.27885 0.05933 0.68707 0.0
C457 C 0.18831 0.0743 0.6909 0.0
C458 C 0.23818 0.11397 0.6785 0.0
C459 C 0.18477 0.02626 0.70146 0.0
C460 C 0.23022 0.01874 0.69946 0.0
H461 H 0.17294 0.23154 0.6604 0.0
H462 H 0.11441 0.13996 0.68356 0.0
H463 H 0.10517 0.05393 0.702 0.0
O464 O 0.32886 0.11535 0.62527 0.0
O465 O 0.34488 0.20703 0.69437 0.0
O466 O 0.405 0.18952 0.71646 0.0
O467 O 0.36959 0.2012 0.61444 0.0
O468 O 0.39539 0.12404 0.66857 0.0
O469 O 0.44266 0.15263 0.7111 0.0
O470 O 0.4772 0.30503 0.72925 0.0
O471 O 0.5281 0.24479 0.67348 0.0
O472 O 0.4419 0.20695 0.6668 0.0
O473 O 0.51388 0.27 0.75504 0.0
O474 O 0.48242 0.30299 0.68756 0.0
O475 O 0.41308 0.26741 0.65287 0.0
C476 C 0.37055 0.20824 0.71706 0.0
C477 C 0.29876 0.13838 0.58471 0.0
C478 C 0.24132 0.08079 0.54697 0.0
C479 C 0.216 0.11321 0.54561 0.0
C480 C 0.27307 0.17028 0.58272 0.0
C481 C 0.2319 0.15762 0.56333 0.0
C482 C 0.28301 0.09386 0.5666 0.0
C483 C 0.42187 0.11753 0.68996 0.0
C484 C 0.34195 0.15084 0.60541 0.0
C485 C 0.14898 0.13288 0.68201 0.0
C486 C 0.14374 0.08394 0.69252 0.0
C487 C 0.4895 0.22345 0.65545 0.0
C488 C 0.54061 0.36245 0.76239 0.0
C489 C 0.58072 0.42661 0.79997 0.0
C490 C 0.6191 0.46645 0.78197 0.0
C491 C 0.57999 0.40204 0.74452 0.0
C492 C 0.54139 0.37481 0.79017 0.0
C493 C 0.61894 0.45392 0.75432 0.0
C494 C 0.45405 0.30833 0.66694 0.0
C495 C 0.49988 0.30745 0.75282 0.0
H496 H 0.18434 0.10472 0.53053 0.0
H497 H 0.28492 0.20522 0.59596 0.0
H498 H 0.21237 0.18249 0.56195 0.0
H499 H 0.30265 0.06903 0.56806 0.0
H500 H 0.6503 0.50636 0.78952 0.0
H501 H 0.58092 0.39286 0.72317 0.0
H502 H 0.51221 0.34386 0.80427 0.0
H503 H 0.64971 0.48413 0.74064 0.0
H504 H 0.21598 0.75213 0.27217 0.0
H505 H 0.20683 0.61779 0.32022 0.0
H506 H 0.22698 0.58036 0.27885 0.0
H507 H 0.15043 0.66142 0.20824 0.0
H508 H 0.18881 0.72455 0.18904 0.0
H509 H 0.16451 0.72518 0.22333 0.0
H510 H 0.27246 0.80099 0.23231 0.0
H511 H 0.2907 0.78869 0.19873 0.0
H512 H 0.32185 0.77817 0.22877 0.0
H513 H 0.25661 0.56333 0.23203 0.0
H514 H 0.28519 0.56406 0.1837 0.0
H515 H 0.27003 0.70795 0.16733 0.0
C516 C 0.21776 0.71462 0.27407 0.0
C517 C 0.21266 0.68936 0.29976 0.0
C518 C 0.21345 0.63933 0.30108 0.0
C519 C 0.22411 0.61737 0.27756 0.0
C520 C 0.23172 0.64505 0.25276 0.0
C521 C 0.22695 0.69163 0.2508 0.0
C522 C 0.23607 0.71354 0.22186 0.0
C523 C 0.1819 0.70589 0.20985 0.0
C524 C 0.28303 0.77391 0.22033 0.0
C525 C 0.25174 0.67517 0.20827 0.0
C526 C 0.24751 0.63483 0.22611 0.0
C527 C 0.2596 0.59447 0.21784 0.0
C528 C 0.2759 0.59528 0.19051 0.0
C529 C 0.28049 0.63659 0.17213 0.0
C530 C 0.26808 0.67674 0.18118 0.0
H531 H 0.57099 0.30679 0.62789 0.0
H532 H 0.43792 0.13879 0.6187 0.0
H533 H 0.4743 0.13415 0.57307 0.0
H534 H 0.58947 0.34665 0.55201 0.0
H535 H 0.6632 0.38642 0.55646 0.0
H536 H 0.61784 0.38104 0.58411 0.0
H537 H 0.66714 0.34558 0.61615 0.0
H538 H 0.71167 0.34941 0.58868 0.0
H539 H 0.67028 0.28513 0.60657 0.0
H540 H 0.53619 0.14193 0.53367 0.0
H541 H 0.6158 0.16194 0.50379 0.0
H542 H 0.70921 0.3242 0.54003 0.0
C543 C 0.54826 0.26996 0.61562 0.0
C544 C 0.50111 0.22365 0.6262 0.0
C545 C 0.47298 0.17532 0.61032 0.0
C546 C 0.49366 0.17231 0.5845 0.0
C547 C 0.5421 0.21814 0.57508 0.0
C548 C 0.5685 0.26643 0.59007 0.0
C549 C 0.62383 0.30694 0.5778 0.0
C550 C 0.62354 0.3583 0.56694 0.0
C551 C 0.67095 0.3226 0.59853 0.0
C552 C 0.62628 0.2727 0.5546 0.0
C553 C 0.57833 0.22215 0.55284 0.0
C554 C 0.57335 0.18187 0.53443 0.0
C555 C 0.6187 0.19346 0.51763 0.0
C556 C 0.66846 0.24449 0.51979 0.0
C557 C 0.67164 0.28479 0.53809 0.0
H558 H 0.30901 0.5587 0.94288 0.0
H559 H 0.30585 0.40514 0.95904 0.0
H560 H 0.34941 0.41153 0.91434 0.0
H561 H 0.27944 0.53786 0.87143 0.0
H562 H 0.32559 0.6087 0.862 0.0
H563 H 0.29473 0.59218 0.89565 0.0
H564 H 0.39175 0.64455 0.91774 0.0
H565 H 0.42304 0.66117 0.88413 0.0
H566 H 0.44277 0.626 0.90867 0.0
H567 H 0.39041 0.43291 0.86722 0.0
H568 H 0.42729 0.4687 0.82096 0.0
H569 H 0.40607 0.6097 0.83556 0.0
C570 C 0.31759 0.52654 0.93689 0.0
C571 C 0.30228 0.48041 0.95391 0.0
C572 C 0.31472 0.43946 0.9458 0.0
C573 C 0.3404 0.44323 0.92058 0.0
C574 C 0.35403 0.48869 0.90395 0.0
C575 C 0.34339 0.52983 0.91179 0.0
C576 C 0.36166 0.57402 0.88993 0.0
C577 C 0.31241 0.57841 0.87911 0.0
C578 C 0.40754 0.62973 0.90077 0.0
C579 C 0.38349 0.55083 0.86842 0.0
C580 C 0.37891 0.50169 0.87699 0.0
C581 C 0.39459 0.47155 0.86032 0.0
C582 C 0.41518 0.49203 0.83406 0.0
C583 C 0.41967 0.54202 0.82473 0.0
C584 C 0.40405 0.57191 0.84232 0.0
H585 H 0.84421 0.35563 0.29879 0.0
H586 H 0.72838 0.1884 0.27389 0.0
H587 H 0.72451 0.22123 0.22754 0.0
H588 H 0.79004 0.42333 0.26665 0.0
H589 H 0.85414 0.48179 0.25554 0.0
H590 H 0.85256 0.44218 0.28486 0.0
H591 H 0.92878 0.42271 0.25839 0.0
H592 H 0.92725 0.46772 0.23235 0.0
H593 H 0.91339 0.39951 0.22375 0.0
H594 H 0.71293 0.27371 0.19022 0.0
H595 H 0.70725 0.34063 0.16036 0.0
H596 H 0.84361 0.47406 0.20453 0.0
C597 C 0.81982 0.32606 0.28315 0.0
C598 C 0.78658 0.26982 0.28967 0.0
C599 C 0.75441 0.23175 0.26909 0.0
C600 C 0.75204 0.24993 0.24271 0.0
C601 C 0.78362 0.306 0.23708 0.0
C602 C 0.81871 0.34334 0.25629 0.0
C603 C 0.84552 0.40165 0.24522 0.0
C604 C 0.83506 0.43945 0.26418 0.0
C605 C 0.90733 0.42437 0.23968 0.0
C606 C 0.81501 0.39165 0.21842 0.0
C607 C 0.78027 0.33615 0.21388 0.0
C608 C 0.74207 0.31719 0.19269 0.0
C609 C 0.73948 0.35598 0.17564 0.0
C610 C 0.77585 0.41339 0.1794 0.0
C611 C 0.81491 0.43092 0.20084 0.0
H612 H 0.50055 0.82053 0.61291 0.0
H613 H 0.4154 0.65304 0.64407 0.0
H614 H 0.33722 0.63046 0.61278 0.0
H615 H 0.38091 0.83402 0.60924 0.0
H616 H 0.40345 0.87636 0.57879 0.0
H617 H 0.45353 0.87755 0.60235 0.0
H618 H 0.49873 0.85206 0.56271 0.0
H619 H 0.44892 0.85114 0.53908 0.0
H620 H 0.45679 0.79142 0.5425 0.0
H621 H 0.26958 0.62684 0.57738 0.0
H622 H 0.21641 0.64287 0.54145 0.0
H623 H 0.34362 0.8147 0.53677 0.0
C624 C 0.46584 0.77882 0.61277 0.0
C625 C 0.4635 0.73842 0.63085 0.0
C626 C 0.4172 0.68463 0.6306 0.0
C627 C 0.37292 0.67149 0.61286 0.0
C628 C 0.37574 0.71295 0.59588 0.0
C629 C 0.42097 0.76556 0.59581 0.0
C630 C 0.41297 0.80351 0.57673 0.0
C631 C 0.4127 0.85064 0.59274 0.0
C632 C 0.45695 0.82582 0.5539 0.0
C633 C 0.35647 0.76379 0.56559 0.0
C634 C 0.33573 0.71166 0.57676 0.0
C635 C 0.28509 0.66756 0.56872 0.0
C636 C 0.25522 0.67695 0.54846 0.0
C637 C 0.27593 0.73008 0.53699 0.0
C638 C 0.32674 0.77405 0.54581 0.0
H639 H 0.71394 0.44293 0.94423 0.0
H640 H 0.66359 0.56027 0.96676 0.0
H641 H 0.60882 0.53981 0.9246 0.0
H642 H 0.73449 0.47607 0.87545 0.0
H643 H 0.70833 0.40688 0.86303 0.0
H644 H 0.73682 0.42488 0.89698 0.0
H645 H 0.64617 0.34583 0.91729 0.0
H646 H 0.61663 0.32751 0.88344 0.0
H647 H 0.58163 0.34287 0.91007 0.0
H648 H 0.57167 0.51741 0.87761 0.0
H649 H 0.55257 0.49219 0.82846 0.0
H650 H 0.62329 0.3864 0.83659 0.0
C651 C 0.69042 0.46332 0.94033 0.0
C652 C 0.69247 0.50311 0.95849 0.0
C653 C 0.66191 0.52954 0.95306 0.0
C654 C 0.63058 0.51795 0.92921 0.0
C655 C 0.62978 0.47906 0.91133 0.0
C656 C 0.65849 0.45172 0.91665 0.0
C657 C 0.65441 0.41528 0.89295 0.0
C658 C 0.71192 0.43181 0.88143 0.0
C659 C 0.62279 0.35424 0.90145 0.0
C660 C 0.62138 0.42868 0.87302 0.0
C661 C 0.60693 0.465 0.88417 0.0
C662 C 0.58137 0.48787 0.86877 0.0
C663 C 0.57091 0.47368 0.84103 0.0
C664 C 0.58589 0.437 0.82942 0.0
C665 C 0.61042 0.41351 0.84557 0.0
H666 H 0.37681 0.46239 0.99217 0.0
H667 H 0.33041 0.3949 0.07423 0.0
H668 H 0.4289 0.43217 0.08566 0.0
H669 H 0.49445 0.43624 0.98513 0.0
H670 H 0.53448 0.49848 0.96553 0.0
H671 H 0.4603 0.46225 0.96351 0.0
H672 H 0.46059 0.55184 0.97754 0.0
H673 H 0.53477 0.58737 0.97949 0.0
H674 H 0.49494 0.58642 0.00869 0.0
H675 H 0.53225 0.48424 0.08938 0.0
H676 H 0.63312 0.5342 0.0832 0.0
H677 H 0.61266 0.56859 0.99853 0.0
C678 C 0.38717 0.45357 0.01213 0.0
C679 C 0.346 0.42508 0.03222 0.0
C680 C 0.36144 0.4161 0.05851 0.0
C681 C 0.41722 0.43748 0.06521 0.0
C682 C 0.45701 0.46742 0.04529 0.0
C683 C 0.44271 0.47448 0.01909 0.0
C684 C 0.49365 0.50866 0.00156 0.0
C685 C 0.49583 0.47434 0.97752 0.0
C686 C 0.49607 0.56169 0.99122 0.0
C687 C 0.53883 0.52109 0.02228 0.0
C688 C 0.51669 0.49683 0.04733 0.0
C689 C 0.55002 0.50258 0.0697 0.0
C690 C 0.60743 0.53135 0.06599 0.0
C691 C 0.63123 0.5537 0.04002 0.0
C692 C 0.59622 0.5505 0.01831 0.0
H693 H 0.06273 0.60258 0.32667 0.0
H694 H 0.06709 0.6209 0.41524 0.0
H695 H 0.01996 0.52006 0.42074 0.0
H696 H 0.92674 0.48921 0.32763 0.0
H697 H 0.93252 0.4479 0.30138 0.0
H698 H 0.97381 0.52195 0.29942 0.0
H699 H 0.066 0.52516 0.29835 0.0
H700 H 0.0288 0.45111 0.2956 0.0
H701 H 0.07958 0.48423 0.32222 0.0
H702 H 0.98211 0.41901 0.41695 0.0
H703 H 0.92558 0.32109 0.40493 0.0
H704 H 0.93306 0.36505 0.31892 0.0
C705 C 0.05301 0.58527 0.34718 0.0
C706 C 0.06995 0.61957 0.37056 0.0
C707 C 0.05552 0.59539 0.39705 0.0
C708 C 0.02934 0.53818 0.40042 0.0
C709 C 0.01648 0.5056 0.37706 0.0
C710 C 0.02573 0.52792 0.35098 0.0
C711 C 1.00162 0.48286 0.32953 0.0
C712 C 0.95607 0.48584 0.31351 0.0
C713 C 0.0467 0.48604 0.31028 0.0
C714 C 0.97802 0.43176 0.34759 0.0
C715 C 0.98887 0.44628 0.37491 0.0
C716 C 0.97246 0.40705 0.39568 0.0
C717 C 0.94067 0.35146 0.38858 0.0
C718 C 0.92397 0.33559 0.36105 0.0
C719 C 0.94509 0.37607 0.3401 0.0
H720 H 0.50004 0.10299 0.71681 0.0
H721 H 0.3632 0.02233 0.66016 0.0
H722 H 0.37845 0.94333 0.65758 0.0
H723 H 0.58605 0.06618 0.68342 0.0
H724 H 0.61613 0.05615 0.71402 0.0
H725 H 0.58992 0.10306 0.71435 0.0
H726 H 0.52724 0.04963 0.75559 0.0
H727 H 0.55211 0.00169 0.7551 0.0
H728 H 0.47914 0.97728 0.75267 0.0
H729 H 0.41171 0.87549 0.65883 0.0
H730 H 0.4651 0.82739 0.66136 0.0
H731 H 0.58193 0.95256 0.71615 0.0
C732 C 0.47167 0.06786 0.70488 0.0
C733 C 0.42866 0.06819 0.68983 0.0
C734 C 0.39519 0.02265 0.67273 0.0
C735 C 0.40357 0.97743 0.67106 0.0
C736 C 0.44604 0.97842 0.68636 0.0
C737 C 0.47979 0.02259 0.70285 0.0
C738 C 0.52586 0.01577 0.71508 0.0
C739 C 0.58285 0.06309 0.70618 0.0
C740 C 0.52079 0.01076 0.74647 0.0
C741 C 0.51355 0.96162 0.70234 0.0
C742 C 0.46679 0.94035 0.68619 0.0
C743 C 0.44829 0.89176 0.67145 0.0
C744 C 0.47906 0.86492 0.67279 0.0
C745 C 0.5276 0.88662 0.68869 0.0
C746 C 0.54452 0.93498 0.70406 0.0
H747 H 0.5893 0.62828 0.69737 0.0
H748 H 0.52131 0.64746 0.6212 0.0
H749 H 0.48702 0.549 0.6101 0.0
H750 H 0.63322 0.53643 0.66785 0.0
H751 H 0.61804 0.49325 0.69755 0.0
H752 H 0.63999 0.56533 0.70162 0.0
H753 H 0.55239 0.54704 0.72849 0.0
H754 H 0.53366 0.47563 0.72866 0.0
H755 H 0.48594 0.49526 0.71573 0.0
H756 H 0.45254 0.44413 0.61026 0.0
H757 H 0.42679 0.34738 0.62039 0.0
H758 H 0.51946 0.40122 0.69619 0.0
C759 C 0.56819 0.61185 0.6781 0.0
C760 C 0.55835 0.64506 0.65992 0.0
C761 C 0.53005 0.62252 0.63504 0.0
C762 C 0.51021 0.5667 0.62871 0.0
C763 C 0.51994 0.53453 0.64731 0.0
C764 C 0.54915 0.5568 0.67129 0.0
C765 C 0.55451 0.51419 0.6879 0.0
C766 C 0.61505 0.52822 0.68883 0.0
C767 C 0.53024 0.50778 0.71692 0.0
C768 C 0.52035 0.46354 0.67069 0.0
C769 C 0.50147 0.47577 0.64707 0.0
C770 C 0.46762 0.4344 0.62864 0.0
C771 C 0.45277 0.3794 0.63469 0.0
C772 C 0.47115 0.36619 0.65915 0.0
C773 C 0.50554 0.40937 0.67707 0.0
H774 H 0.09671 0.49438 0.03887 0.0
H775 H 0.07318 0.42759 0.95659 0.0
H776 H 1.00174 0.45363 0.94827 0.0
H777 H 0.9532 0.44749 0.05211 0.0
H778 H 0.96774 0.50744 0.07193 0.0
H779 H 0.01695 0.48397 0.07087 0.0
H780 H 0.09235 0.58054 0.05413 0.0
H781 H 0.04325 0.60419 0.05492 0.0
H782 H 0.08047 0.60984 0.02372 0.0
H783 H 0.93469 0.49102 0.94886 0.0
H784 H 0.87083 0.52546 0.96015 0.0
H785 H 0.9373 0.56398 0.04253 0.0
C786 C 0.07666 0.48526 0.01903 0.0
C787 C 0.09093 0.45947 0.99823 0.0
C788 C 0.0629 0.44731 0.9728 0.0
C789 C 0.02254 0.46227 0.96787 0.0
C790 C 0.01027 0.48865 0.98871 0.0
C791 C 0.036 0.49914 0.01395 0.0
C792 C 0.01428 0.52598 0.03339 0.0
C793 C 0.98638 0.48901 0.05855 0.0
C794 C 0.06034 0.58355 0.04204 0.0
C795 C 0.97259 0.5296 0.01512 0.0
C796 C 0.97107 0.50838 0.98933 0.0
C797 C 0.93557 0.50759 0.96901 0.0
C798 C 0.89985 0.52769 0.97548 0.0
C799 C 0.89948 0.54746 0.00213 0.0
C800 C 0.93696 0.54919 0.02196 0.0
H801 H 0.37335 0.91399 0.38843 0.0
H802 H 0.34248 0.86291 0.30329 0.0
H803 H 0.44079 0.92712 0.29233 0.0
H804 H 0.46847 0.05572 0.37366 0.0
H805 H 0.51357 0.06691 0.40232 0.0
H806 H 0.44127 0.0163 0.40476 0.0
H807 H 0.46136 0.9351 0.41513 0.0
H808 H 0.53176 0.99049 0.41727 0.0
H809 H 0.51492 0.93358 0.39496 0.0
H810 H 0.54363 0.9951 0.29106 0.0
H811 H 0.6411 0.06523 0.29895 0.0
H812 H 0.60575 0.06753 0.38555 0.0
C813 C 0.38746 0.91595 0.36753 0.0
C814 C 0.35048 0.8829 0.34674 0.0
C815 C 0.37009 0.88788 0.3195 0.0
C816 C 0.42592 0.92393 0.31314 0.0
C817 C 0.46159 0.95498 0.33424 0.0
C818 C 0.44311 0.95147 0.3609 0.0
C819 C 0.48948 0.99086 0.37958 0.0
C820 C 0.47752 0.0351 0.39074 0.0
C821 C 0.49975 0.96052 0.40312 0.0
C822 C 0.53738 0.01527 0.35951 0.0
C823 C 0.52038 0.99459 0.33341 0.0
C824 C 0.55735 0.01142 0.31145 0.0
C825 C 0.61289 0.05085 0.31623 0.0
C826 C 0.63134 0.07255 0.34286 0.0
C827 C 0.59294 0.05328 0.36479 0.0
H828 H 0.31924 0.26871 0.72361 0.0
H829 H 0.39144 0.18768 0.76935 0.0
H830 H 0.36406 0.21268 0.81288 0.0
H831 H 0.35787 0.38189 0.77322 0.0
H832 H 0.29497 0.38348 0.7678 0.0
H833 H 0.32438 0.36354 0.74026 0.0
H834 H 0.2329 0.27116 0.73481 0.0
H835 H 0.20251 0.29063 0.76195 0.0
H836 H 0.20312 0.22676 0.76424 0.0
H837 H 0.31876 0.23724 0.85114 0.0
H838 H 0.26067 0.25958 0.88044 0.0
H839 H 0.22401 0.3304 0.80981 0.0
C840 C 0.32989 0.25683 0.7428 0.0
C841 C 0.35743 0.22626 0.74313 0.0
C842 C 0.37054 0.21134 0.76864 0.0
C843 C 0.35527 0.22547 0.79347 0.0
C844 C 0.32748 0.25509 0.79244 0.0
C845 C 0.31548 0.27108 0.76774 0.0
C846 C 0.28324 0.30054 0.77211 0.0
C847 C 0.31712 0.36096 0.76279 0.0
C848 C 0.22713 0.27046 0.75742 0.0
C849 C 0.27654 0.29624 0.80303 0.0
C850 C 0.30288 0.27052 0.81447 0.0
C851 C 0.29884 0.25836 0.84246 0.0
C852 C 0.26592 0.27155 0.85902 0.0
C853 C 0.2373 0.29662 0.84757 0.0
C854 C 0.24452 0.3106 0.81931 0.0
H855 H 0.96449 0.19058 0.16609 0.0
H856 H 0.95396 0.33094 0.19486 0.0
H857 H 0.02796 0.39135 0.16205 0.0
H858 H 0.11678 0.26555 0.15242 0.0
H859 H 0.10796 0.22444 0.12242 0.0
H860 H 0.06092 0.19525 0.15096 0.0
H861 H 0.97865 0.16966 0.11825 0.0
H862 H 0.02535 0.19914 0.08973 0.0
H863 H 0.97784 0.22283 0.09772 0.0
H864 H 0.09142 0.43211 0.1197 0.0
H865 H 0.1413 0.44911 0.07543 0.0
H866 H 0.11428 0.2833 0.07711 0.0
C867 C 0.97928 0.23444 0.16615 0.0
C868 C 0.95429 0.2564 0.18324 0.0
C869 C 0.97351 0.31365 0.18233 0.0
C870 C 0.01524 0.34809 0.16362 0.0
C871 C 0.03779 0.32468 0.1463 0.0
C872 C 0.02099 0.26918 0.14786 0.0
C873 C 0.0482 0.25278 0.12585 0.0
C874 C 0.0857 0.23337 0.13869 0.0
C875 C 0.00494 0.20852 0.10677 0.0
C876 C 0.08167 0.30716 0.11101 0.0
C877 C 0.07557 0.34844 0.12302 0.0
C878 C 0.09825 0.40063 0.11088 0.0
C879 C 0.12752 0.41049 0.08595 0.0
C880 C 0.13448 0.36877 0.07364 0.0
C881 C 0.11138 0.31672 0.08656 0.0
H882 H 0.74237 0.93742 0.50385 0.0
H883 H 0.82701 0.07977 0.55666 0.0
H884 H 0.83291 0.14062 0.51828 0.0
H885 H 0.82423 1.0012 0.44481 0.0
H886 H 0.76868 0.96727 0.42056 0.0
H887 H 0.76599 0.93445 0.45278 0.0
H888 H 0.67134 0.9259 0.46358 0.0
H889 H 0.67383 0.9588 0.43136 0.0
H890 H 0.66487 0.98671 0.46297 0.0
H891 H 0.83474 0.18636 0.47357 0.0
H892 H 0.83584 0.21409 0.42531 0.0
H893 H 0.75198 0.04293 0.40072 0.0
C894 C 0.76128 0.98133 0.50731 0.0
C895 C 0.78373 0.00415 0.53318 0.0
C896 C 0.80932 0.06177 0.53697 0.0
C897 C 0.81271 0.0965 0.51534 0.0
C898 C 0.79069 0.07297 0.48994 0.0
C899 C 0.7657 0.01673 0.48575 0.0
C900 C 0.74896 0.00253 0.45593 0.0
C901 C 0.77875 0.97473 0.44275 0.0
C902 C 0.68601 0.96634 0.45332 0.0
C903 C 0.76911 0.05952 0.44397 0.0
C904 C 0.79232 0.09948 0.46403 0.0
C905 C 0.81555 0.15535 0.45781 0.0
C906 C 0.81531 0.17078 0.43039 0.0
C907 C 0.79201 0.13064 0.40954 0.0
C908 C 0.76891 0.07435 0.41645 0.0
H909 H 0.6321 0.82186 0.77285 0.0
H910 H 0.72319 0.76988 0.72066 0.0
H911 H 0.76232 0.75062 0.76201 0.0
H912 H 0.73467 0.88952 0.82355 0.0
H913 H 0.68636 0.86714 0.85173 0.0
H914 H 0.66507 0.87522 0.81803 0.0
H915 H 0.58454 0.77414 0.81938 0.0
H916 H 0.60546 0.76563 0.85314 0.0
H917 H 0.59902 0.71936 0.8259 0.0
H918 H 0.79195 0.73792 0.81 0.0
H919 H 0.81197 0.73639 0.85938 0.0
H920 H 0.70036 0.79637 0.8794 0.0
C921 C 0.66021 0.80634 0.76999 0.0
C922 C 0.67457 0.7974 0.74341 0.0
C923 C 0.7116 0.77713 0.74075 0.0
C924 C 0.73386 0.76589 0.76415 0.0
C925 C 0.71849 0.77493 0.79007 0.0
C926 C 0.68243 0.7947 0.79302 0.0
C927 C 0.67262 0.80154 0.82297 0.0
C928 C 0.69078 0.86195 0.82944 0.0
C929 C 0.61181 0.76287 0.83081 0.0
C930 C 0.70991 0.7839 0.83658 0.0
C931 C 0.73554 0.76801 0.81734 0.0
C932 C 0.77197 0.75019 0.82518 0.0
C933 C 0.78291 0.74922 0.8533 0.0
C934 C 0.75794 0.76644 0.87333 0.0
C935 C 0.72063 0.78353 0.86466 0.0
H936 H 0.05294 0.6948 0.1806 0.0
H937 H 0.01511 0.81805 0.20963 0.0
H938 H 0.94358 0.79048 0.17358 0.0
H939 H 0.0382 0.70836 0.10995 0.0
H940 H 0.00529 0.63583 0.10233 0.0
H941 H 0.05121 0.66334 0.13117 0.0
H942 H 0.97412 0.59344 0.1634 0.0
H943 H 0.9276 0.56565 0.13473 0.0
H944 H 0.90848 0.59072 0.16438 0.0
H945 H 0.88206 0.75464 0.13114 0.0
H946 H 0.82847 0.70638 0.08971 0.0
H947 H 0.90343 0.60343 0.09026 0.0
C948 C 0.02873 0.71513 0.17961 0.0
C949 C 0.03904 0.75827 0.19791 0.0
C950 C 0.00716 0.78445 0.19597 0.0
C951 C 0.96676 0.76925 0.17547 0.0
C952 C 0.95814 0.72715 0.15737 0.0
C953 C 0.98748 0.69966 0.15964 0.0
C954 C 0.97017 0.65567 0.13776 0.0
C955 C 0.01914 0.66648 0.11921 0.0
C956 C 0.94351 0.59795 0.15084 0.0
C957 C 0.92794 0.66392 0.12227 0.0
C958 C 0.92156 0.70537 0.13378 0.0
C959 C 0.88633 0.72168 0.12219 0.0
C960 C 0.85642 0.69443 0.0985 0.0
C961 C 0.86171 0.6512 0.08671 0.0
C962 C 0.89803 0.636 0.09889 0.0
H963 H 0.30686 0.05238 0.51687 0.0
H964 H 0.13595 0.00321 0.53346 0.0
H965 H 0.1058 0.92951 0.49893 0.0
H966 H 0.29349 0.03236 0.44499 0.0
H967 H 0.33986 0.00553 0.44223 0.0
H968 H 0.34841 0.05235 0.46952 0.0
H969 H 0.34212 0.98092 0.50547 0.0
H970 H 0.33377 0.93406 0.47818 0.0
H971 H 0.28319 0.9122 0.50528 0.0
H972 H 0.09392 0.86366 0.46153 0.0
H973 H 0.10133 0.8087 0.42404 0.0
H974 H 0.27966 0.90109 0.43061 0.0
C975 C 0.26309 0.02543 0.51357 0.0
C976 C 0.22373 0.03366 0.52782 0.0
C977 C 0.16684 0.99806 0.52259 0.0
C978 C 0.14929 0.95592 0.50311 0.0
C979 C 0.18908 0.94965 0.48903 0.0
C980 C 0.24479 0.98312 0.49407 0.0
C981 C 0.27894 0.96853 0.47535 0.0
C982 C 0.31744 0.01762 0.45694 0.0
C983 C 0.31142 0.94769 0.49207 0.0
C984 C 0.23374 0.92242 0.45872 0.0
C985 C 0.18222 0.912 0.4671 0.0
C986 C 0.13407 0.8716 0.45474 0.0
C987 C 0.13868 0.84107 0.43323 0.0
C988 C 0.19102 0.85157 0.424 0.0
C989 C 0.23909 0.89243 0.43715 0.0
loop_
_geom_bond_atom_site_label_1
_geom_bond_atom_site_label_2
_geom_bond_distance
_geom_bond_site_symmetry_2
_ccdc_geom_bond_type
Tb0 N29 2.618 . S
Tb0 N35 2.572 1_556 S
Tb0 O44 2.465 . S
Tb0 O45 2.387 1_556 S
Tb0 O47 2.428 . S
Tb0 O48 2.308 1_556 S
Tb0 O52 2.349 . S
Tb0 O55 2.393 . S
Tb0 C64 2.802 . S
C1 N2 1.379 . S
C1 C4 1.416 . S
C1 C8 1.424 . S
N2 C1 1.379 . S
N2 C5 1.334 . S
N2 Tb11 2.617 . S
C3 C5 1.390 . S
C3 C6 1.339 . S
C3 H23 0.930 . S
C4 C1 1.416 . S
C4 C6 1.416 . S
C4 C10 1.448 . S
C5 N2 1.334 . S
C5 C3 1.390 . S
C5 H16 0.930 . S
C6 C3 1.339 . S
C6 C4 1.416 . S
C6 H27 0.930 . S
C7 C8 1.413 . S
C7 C9 1.427 . S
C7 C13 1.415 1_554 S
C8 C1 1.424 . S
C8 C7 1.413 . S
C8 N12 1.361 . S
C9 C7 1.427 . S
C9 C10 1.328 . S
C9 H24 0.929 1_554 S
C10 C4 1.448 . S
C10 C9 1.328 . S
C10 H25 0.930 . S
Tb11 N2 2.617 . S
Tb11 N12 2.572 . S
Tb11 O46 2.349 . S
Tb11 O49 2.393 . S
Tb11 O50 2.465 . S
Tb11 O51 2.387 1_554 S
Tb11 O53 2.428 . S
Tb11 O54 2.308 . S
Tb11 C75 2.802 . S
N12 C8 1.361 . S
N12 Tb11 2.572 . S
N12 C14 1.340 . S
C13 C7 1.415 1_556 S
C13 C15 1.331 1_556 S
C13 H21 0.933 . S
C14 N12 1.340 . S
C14 C15 1.407 . S
C14 H20 0.930 . S
C15 C13 1.331 1_554 S
C15 C14 1.407 . S
C15 H17 0.923 1_554 S
H16 C5 0.930 . S
H17 C15 0.923 1_556 S
H18 C33 0.930 . S
H19 C40 0.929 . S
H20 C14 0.930 . S
H21 C13 0.933 . S
H22 C36 0.930 . S
H23 C3 0.930 . S
H24 C9 0.929 1_556 S
H25 C10 0.930 . S
H26 C31 0.930 . S
H27 C6 0.930 . S
H28 C39 0.931 . S
N29 Tb0 2.618 . S
N29 C30 1.374 1_556 S
N29 C33 1.338 . S
C30 N29 1.374 1_554 S
C30 C32 1.416 . S
C30 C38 1.424 . S
C31 H26 0.930 . S
C31 C33 1.390 1_655 S
C31 C34 1.339 1_556 S
C32 C30 1.416 . S
C32 C34 1.416 1_455 S
C32 C65 1.448 1_455 S
C33 H18 0.930 . S
C33 N29 1.338 . S
C33 C31 1.390 1_455 S
C34 C31 1.339 1_554 S
C34 C32 1.416 1_655 S
C34 H41 0.930 . S
N35 Tb0 2.572 1_554 S
N35 C36 1.340 . S
N35 C38 1.361 . S
C36 H22 0.930 . S
C36 N35 1.340 . S
C36 C40 1.407 . S
C37 C38 1.413 . S
C37 C39 1.416 . S
C37 C66 1.427 . S
C38 C30 1.424 . S
C38 N35 1.361 . S
C38 C37 1.413 . S
C39 H28 0.931 . S
C39 C37 1.416 . S
C39 C40 1.332 . S
C40 H19 0.929 . S
C40 C36 1.407 . S
C40 C39 1.332 . S
H41 C34 0.930 . S
H42 C65 0.930 . S
H43 C66 0.929 . S
O44 Tb0 2.465 . S
O44 C64 1.264 . S
O45 Tb0 2.387 1_554 S
O45 C56 1.264 . S
O46 Tb11 2.349 . S
O46 C56 1.243 . S
O47 Tb0 2.428 . S
O47 C64 1.256 . S
O48 Tb0 2.308 1_554 S
O48 C63 1.266 . S
O49 Tb11 2.393 . S
O49 C63 1.248 . S
O50 Tb11 2.465 . S
O50 C75 1.264 . S
O51 Tb11 2.387 1_556 S
O51 C67 1.264 . S
O52 Tb0 2.349 . S
O52 C67 1.243 . S
O53 Tb11 2.428 . S
O53 C75 1.256 . S
O54 Tb11 2.308 . S
O54 C74 1.266 . S
O55 Tb0 2.393 . S
O55 C74 1.248 1_556 S
C56 O45 1.264 . S
C56 O46 1.243 . S
C57 C60 1.399 . S
C57 C62 1.383 . S
C57 C64 1.496 . S
C58 C59 1.399 . S
C58 C62 1.389 . S
C59 C58 1.399 . S
C59 C61 1.380 . S
C59 H76 0.929 . S
C60 C57 1.399 . S
C60 C61 1.392 . S
C60 H77 0.929 . S
C61 C59 1.380 . S
C61 C60 1.392 . S
C61 H78 0.929 . S
C62 C57 1.383 . S
C62 C58 1.389 . S
C62 H79 0.931 . S
C63 O48 1.266 . S
C63 O49 1.248 . S
C64 Tb0 2.802 . S
C64 O44 1.264 . S
C64 O47 1.256 . S
C64 C57 1.496 . S
C65 C32 1.448 1_655 S
C65 H42 0.930 . S
C65 C66 1.328 1_655 S
C66 C37 1.427 . S
C66 H43 0.929 . S
C66 C65 1.328 1_455 S
C67 O51 1.264 . S
C67 O52 1.243 . S
C68 C71 1.399 . S
C68 C72 1.383 . S
C68 C75 1.496 . S
C69 C70 1.399 . S
C69 C72 1.389 . S
C70 C69 1.399 . S
C70 C73 1.380 . S
C70 H80 0.929 . S
C71 C68 1.399 . S
C71 C73 1.392 . S
C71 H81 0.929 . S
C72 C68 1.383 . S
C72 C69 1.389 . S
C72 H82 0.931 . S
C73 C70 1.380 . S
C73 C71 1.392 . S
C73 H83 0.929 . S
C74 O54 1.266 . S
C74 O55 1.248 1_554 S
C75 Tb11 2.802 . S
C75 O50 1.264 . S
C75 O53 1.256 . S
C75 C68 1.496 . S
H76 C59 0.929 . S
H77 C60 0.929 . S
H78 C61 0.929 . S
H79 C62 0.931 . S
H80 C70 0.929 . S
H81 C71 0.929 . S
H82 C72 0.931 . S
H83 C73 0.929 . S
Tb84 N113 2.617 . S
Tb84 N119 2.572 . S
Tb84 O128 2.465 . S
Tb84 O129 2.387 . S
Tb84 O131 2.428 . S
Tb84 O132 2.308 . S
Tb84 O136 2.349 . S
Tb84 O139 2.393 . S
Tb84 C148 2.802 . S
C85 N86 1.379 . S
C85 C88 1.416 . S
C85 C92 1.424 . S
N86 C85 1.379 . S
N86 C89 1.334 . S
N86 Tb95 2.617 . S
C87 C89 1.390 . S
C87 C90 1.339 . S
C87 H107 0.930 . S
C88 C85 1.416 . S
C88 C90 1.416 . S
C88 C94 1.448 . S
C89 N86 1.334 . S
C89 C87 1.390 . S
C89 H100 0.930 . S
C90 C87 1.339 . S
C90 C88 1.416 . S
C90 H111 0.930 . S
C91 C92 1.413 . S
C91 C93 1.427 . S
C91 C97 1.416 . S
C92 C85 1.424 . S
C92 C91 1.413 . S
C92 N96 1.361 . S
C93 C91 1.427 . S
C93 C94 1.328 . S
C93 H108 0.929 . S
C94 C88 1.448 . S
C94 C93 1.328 . S
C94 H109 0.930 . S
Tb95 N86 2.617 . S
Tb95 N96 2.572 . S
Tb95 O130 2.349 . S
Tb95 O133 2.393 . S
Tb95 O134 2.465 . S
Tb95 O135 2.387 . S
Tb95 O137 2.428 . S
Tb95 O138 2.308 . S
Tb95 C159 2.802 . S
N96 C92 1.361 . S
N96 Tb95 2.572 . S
N96 C98 1.340 . S
C97 C91 1.416 . S
C97 C99 1.332 . S
C97 H105 0.931 . S
C98 N96 1.340 . S
C98 C99 1.407 . S
C98 H104 0.930 . S
C99 C97 1.332 . S
C99 C98 1.407 . S
C99 H101 0.929 . S
H100 C89 0.930 . S
H101 C99 0.929 . S
H102 C117 0.930 . S
H103 C124 0.929 1_455 S
H104 C98 0.930 . S
H105 C97 0.931 . S
H106 C120 0.930 . S
H107 C87 0.930 . S
H108 C93 0.929 . S
H109 C94 0.930 . S
H110 C115 0.930 . S
H111 C90 0.930 . S
H112 C123 0.931 1_455 S
N113 Tb84 2.617 . S
N113 C114 1.379 . S
N113 C117 1.334 . S
C114 N113 1.379 . S
C114 C116 1.416 . S
C114 C122 1.424 . S
C115 H110 0.930 . S
C115 C117 1.390 1_565 S
C115 C118 1.339 . S
C116 C114 1.416 . S
C116 C118 1.416 1_545 S
C116 C149 1.448 1_545 S
C117 H102 0.930 . S
C117 N113 1.334 . S
C117 C115 1.390 1_545 S
C118 C115 1.339 . S
C118 C116 1.416 1_565 S
C118 H125 0.930 . S
N119 Tb84 2.572 . S
N119 C120 1.340 . S
N119 C122 1.361 . S
C120 H106 0.930 . S
C120 N119 1.340 . S
C120 C124 1.407 . S
C121 C122 1.413 . S
C121 C123 1.416 . S
C121 C150 1.427 . S
C122 C114 1.424 . S
C122 N119 1.361 . S
C122 C121 1.413 . S
C123 H112 0.931 1_655 S
C123 C121 1.416 . S
C123 C124 1.332 . S
C124 H103 0.929 1_655 S
C124 C120 1.407 . S
C124 C123 1.332 . S
H125 C118 0.930 . S
H126 C149 0.930 . S
H127 C150 0.929 . S
O128 Tb84 2.465 . S
O128 C148 1.264 . S
O129 Tb84 2.387 . S
O129 C140 1.264 . S
O130 Tb95 2.349 . S
O130 C140 1.243 . S
O131 Tb84 2.428 . S
O131 C148 1.256 . S
O132 Tb84 2.308 . S
O132 C147 1.266 . S
O133 Tb95 2.393 . S
O133 C147 1.248 . S
O134 Tb95 2.465 . S
O134 C159 1.264 . S
O135 Tb95 2.387 . S
O135 C151 1.264 . S
O136 Tb84 2.349 . S
O136 C151 1.243 . S
O137 Tb95 2.428 . S
O137 C159 1.256 . S
O138 Tb95 2.308 . S
O138 C158 1.266 . S
O139 Tb84 2.393 . S
O139 C158 1.248 . S
C140 O129 1.264 . S
C140 O130 1.243 . S
C141 C144 1.399 . S
C141 C146 1.383 . S
C141 C148 1.496 . S
C142 C143 1.399 . S
C142 C146 1.389 . S
C143 C142 1.399 . S
C143 C145 1.380 . S
C143 H160 0.929 . S
C144 C141 1.399 . S
C144 C145 1.392 . S
C144 H161 0.929 . S
C145 C143 1.380 . S
C145 C144 1.392 . S
C145 H162 0.929 . S
C146 C141 1.383 . S
C146 C142 1.389 . S
C146 H163 0.931 . S
C147 O132 1.266 . S
C147 O133 1.248 . S
C148 Tb84 2.802 . S
C148 O128 1.264 . S
C148 O131 1.256 . S
C148 C141 1.496 . S
C149 C116 1.448 1_565 S
C149 H126 0.930 . S
C149 C150 1.328 1_565 S
C150 C121 1.427 . S
C150 H127 0.929 . S
C150 C149 1.328 1_545 S
C151 O135 1.264 . S
C151 O136 1.243 . S
C152 C155 1.399 . S
C152 C156 1.383 . S
C152 C159 1.496 . S
C153 C154 1.399 . S
C153 C156 1.389 . S
C154 C153 1.399 . S
C154 C157 1.380 . S
C154 H164 0.929 . S
C155 C152 1.399 . S
C155 C157 1.392 . S
C155 H165 0.929 . S
C156 C152 1.383 . S
C156 C153 1.389 . S
C156 H166 0.931 . S
C157 C154 1.380 . S
C157 C155 1.392 . S
C157 H167 0.929 . S
C158 O138 1.266 . S
C158 O139 1.248 . S
C159 Tb95 2.802 . S
C159 O134 1.264 . S
C159 O137 1.256 . S
C159 C152 1.496 . S
H160 C143 0.929 . S
H161 C144 0.929 . S
H162 C145 0.929 . S
H163 C146 0.931 . S
H164 C154 0.929 . S
H165 C155 0.929 . S
H166 C156 0.931 . S
H167 C157 0.929 . S
Tb168 N197 2.617 . S
Tb168 N203 2.572 . S
Tb168 O212 2.465 . S
Tb168 O213 2.387 . S
Tb168 O215 2.428 . S
Tb168 O216 2.308 . S
Tb168 O220 2.349 . S
Tb168 O223 2.393 . S
Tb168 C232 2.802 . S
C169 N170 1.379 . S
C169 C172 1.416 . S
C169 C176 1.424 . S
N170 C169 1.379 . S
N170 C173 1.334 . S
N170 Tb179 2.617 . S
C171 C173 1.390 . S
C171 C174 1.339 . S
C171 H191 0.930 . S
C172 C169 1.416 . S
C172 C174 1.416 . S
C172 C178 1.448 . S
C173 N170 1.334 . S
C173 C171 1.390 . S
C173 H184 0.930 . S
C174 C171 1.339 . S
C174 C172 1.416 . S
C174 H195 0.930 . S
C175 C176 1.413 . S
C175 C177 1.427 . S
C175 C181 1.416 . S
C176 C169 1.424 . S
C176 C175 1.413 . S
C176 N180 1.361 . S
C177 C175 1.427 . S
C177 C178 1.328 . S
C177 H192 0.929 . S
C178 C172 1.448 . S
C178 C177 1.328 . S
C178 H193 0.930 . S
Tb179 N170 2.617 . S
Tb179 N180 2.572 . S
Tb179 O214 2.349 . S
Tb179 O217 2.393 . S
Tb179 O218 2.465 . S
Tb179 O219 2.387 . S
Tb179 O221 2.428 . S
Tb179 O222 2.308 . S
Tb179 C243 2.802 . S
N180 C176 1.361 . S
N180 Tb179 2.572 . S
N180 C182 1.340 . S
C181 C175 1.416 . S
C181 C183 1.332 . S
C181 H189 0.931 . S
C182 N180 1.340 . S
C182 C183 1.407 . S
C182 H188 0.930 . S
C183 C181 1.332 . S
C183 C182 1.407 . S
C183 H185 0.929 . S
H184 C173 0.930 . S
H185 C183 0.929 . S
H186 C201 0.930 . S
H187 C208 0.929 1_545 S
H188 C182 0.930 . S
H189 C181 0.931 . S
H190 C204 0.930 . S
H191 C171 0.930 . S
H192 C177 0.929 . S
H193 C178 0.930 . S
H194 C199 0.930 . S
H195 C174 0.930 . S
H196 C207 0.931 1_545 S
N197 Tb168 2.617 . S
N197 C198 1.379 . S
N197 C201 1.334 . S
C198 N197 1.379 . S
C198 C200 1.416 . S
C198 C206 1.424 . S
C199 H194 0.930 . S
C199 C201 1.390 . S
C199 C202 1.339 . S
C200 C198 1.416 . S
C200 C202 1.416 . S
C200 C233 1.448 . S
C201 H186 0.930 . S
C201 N197 1.334 . S
C201 C199 1.390 . S
C202 C199 1.339 . S
C202 C200 1.416 . S
C202 H209 0.930 . S
N203 Tb168 2.572 . S
N203 C204 1.340 . S
N203 C206 1.361 . S
C204 H190 0.930 . S
C204 N203 1.340 . S
C204 C208 1.407 . S
C205 C206 1.413 . S
C205 C207 1.416 . S
C205 C234 1.427 . S
C206 C198 1.424 . S
C206 N203 1.361 . S
C206 C205 1.413 . S
C207 H196 0.931 1_565 S
C207 C205 1.416 . S
C207 C208 1.332 . S
C208 H187 0.929 1_565 S
C208 C204 1.407 . S
C208 C207 1.332 . S
H209 C202 0.930 . S
H210 C233 0.930 . S
H211 C234 0.929 . S
O212 Tb168 2.465 . S
O212 C232 1.264 . S
O213 Tb168 2.387 . S
O213 C224 1.264 . S
O214 Tb179 2.349 . S
O214 C224 1.243 . S
O215 Tb168 2.428 . S
O215 C232 1.256 . S
O216 Tb168 2.308 . S
O216 C231 1.266 . S
O217 Tb179 2.393 . S
O217 C231 1.248 . S
O218 Tb179 2.465 . S
O218 C243 1.264 . S
O219 Tb179 2.387 . S
O219 C235 1.264 . S
O220 Tb168 2.349 . S
O220 C235 1.243 . S
O221 Tb179 2.428 . S
O221 C243 1.256 . S
O222 Tb179 2.308 . S
O222 C242 1.266 . S
O223 Tb168 2.393 . S
O223 C242 1.248 . S
C224 O213 1.264 . S
C224 O214 1.243 . S
C225 C228 1.399 . S
C225 C230 1.383 . S
C225 C232 1.496 . S
C226 C227 1.399 . S
C226 C230 1.389 . S
C227 C226 1.399 . S
C227 C229 1.380 . S
C227 H244 0.929 . S
C228 C225 1.399 . S
C228 C229 1.392 . S
C228 H245 0.929 . S
C229 C227 1.380 . S
C229 C228 1.392 . S
C229 H246 0.929 . S
C230 C225 1.383 . S
C230 C226 1.389 . S
C230 H247 0.931 . S
C231 O216 1.266 . S
C231 O217 1.248 . S
C232 Tb168 2.802 . S
C232 O212 1.264 . S
C232 O215 1.256 . S
C232 C225 1.496 . S
C233 C200 1.448 . S
C233 H210 0.930 . S
C233 C234 1.328 . S
C234 C205 1.427 . S
C234 H211 0.929 . S
C234 C233 1.328 . S
C235 O219 1.264 . S
C235 O220 1.243 . S
C236 C239 1.399 . S
C236 C240 1.383 . S
C236 C243 1.496 . S
C237 C238 1.399 . S
C237 C240 1.389 . S
C238 C237 1.399 . S
C238 C241 1.380 . S
C238 H248 0.929 . S
C239 C236 1.399 . S
C239 C241 1.392 . S
C239 H249 0.929 . S
C240 C236 1.383 . S
C240 C237 1.389 . S
C240 H250 0.931 . S
C241 C238 1.380 . S
C241 C239 1.392 . S
C241 H251 0.929 . S
C242 O222 1.266 . S
C242 O223 1.248 . S
C243 Tb179 2.802 . S
C243 O218 1.264 . S
C243 O221 1.256 . S
C243 C236 1.496 . S
H244 C227 0.929 . S
H245 C228 0.929 . S
H246 C229 0.929 . S
H247 C230 0.931 . S
H248 C238 0.929 . S
H249 C239 0.929 . S
H250 C240 0.931 . S
H251 C241 0.929 . S
Tb252 N281 2.618 . S
Tb252 N287 2.572 1_556 S
Tb252 O296 2.465 . S
Tb252 O297 2.387 1_556 S
Tb252 O299 2.428 . S
Tb252 O300 2.308 1_556 S
Tb252 O304 2.349 . S
Tb252 O307 2.393 . S
Tb252 C316 2.802 . S
C253 N254 1.379 . S
C253 C256 1.416 . S
C253 C260 1.424 . S
N254 C253 1.379 . S
N254 C257 1.334 . S
N254 Tb263 2.617 . S
C255 C257 1.390 . S
C255 C258 1.339 . S
C255 H275 0.930 . S
C256 C253 1.416 . S
C256 C258 1.416 . S
C256 C262 1.448 . S
C257 N254 1.334 . S
C257 C255 1.390 . S
C257 H268 0.930 . S
C258 C255 1.339 . S
C258 C256 1.416 . S
C258 H279 0.930 . S
C259 C260 1.413 . S
C259 C261 1.427 . S
C259 C265 1.415 1_554 S
C260 C253 1.424 . S
C260 C259 1.413 . S
C260 N264 1.361 . S
C261 C259 1.427 . S
C261 C262 1.328 . S
C261 H276 0.929 1_554 S
C262 C256 1.448 . S
C262 C261 1.328 . S
C262 H277 0.930 . S
Tb263 N254 2.617 . S
Tb263 N264 2.572 . S
Tb263 O298 2.349 . S
Tb263 O301 2.393 . S
Tb263 O302 2.465 . S
Tb263 O303 2.387 1_554 S
Tb263 O305 2.428 . S
Tb263 O306 2.308 . S
Tb263 C327 2.802 . S
N264 C260 1.361 . S
N264 Tb263 2.572 . S
N264 C266 1.340 . S
C265 C259 1.415 1_556 S
C265 C267 1.331 1_556 S
C265 H273 0.933 . S
C266 N264 1.340 . S
C266 C267 1.407 . S
C266 H272 0.930 . S
C267 C265 1.331 1_554 S
C267 C266 1.407 . S
C267 H269 0.923 1_554 S
H268 C257 0.930 . S
H269 C267 0.923 1_556 S
H270 C285 0.930 . S
H271 C292 0.929 . S
H272 C266 0.930 . S
H273 C265 0.933 . S
H274 C288 0.930 . S
H275 C255 0.930 . S
H276 C261 0.929 1_556 S
H277 C262 0.930 . S
H278 C283 0.930 . S
H279 C258 0.930 . S
H280 C291 0.931 . S
N281 Tb252 2.618 . S
N281 C282 1.374 1_556 S
N281 C285 1.338 . S
C282 N281 1.374 1_554 S
C282 C284 1.416 . S
C282 C290 1.424 . S
C283 H278 0.930 . S
C283 C285 1.390 1_455 S
C283 C286 1.339 1_556 S
C284 C282 1.416 . S
C284 C286 1.416 1_655 S
C284 C317 1.448 1_655 S
C285 H270 0.930 . S
C285 N281 1.338 . S
C285 C283 1.390 1_655 S
C286 C283 1.339 1_554 S
C286 C284 1.416 1_455 S
C286 H293 0.930 . S
N287 Tb252 2.572 1_554 S
N287 C288 1.340 . S
N287 C290 1.361 . S
C288 H274 0.930 . S
C288 N287 1.340 . S
C288 C292 1.407 . S
C289 C290 1.413 . S
C289 C291 1.416 . S
C289 C318 1.427 . S
C290 C282 1.424 . S
C290 N287 1.361 . S
C290 C289 1.413 . S
C291 H280 0.931 . S
C291 C289 1.416 . S
C291 C292 1.332 . S
C292 H271 0.929 . S
C292 C288 1.407 . S
C292 C291 1.332 . S
H293 C286 0.930 . S
H294 C317 0.930 . S
H295 C318 0.929 . S
O296 Tb252 2.465 . S
O296 C316 1.264 . S
O297 Tb252 2.387 1_554 S
O297 C308 1.264 . S
O298 Tb263 2.349 . S
O298 C308 1.243 . S
O299 Tb252 2.428 . S
O299 C316 1.256 . S
O300 Tb252 2.308 1_554 S
O300 C315 1.266 . S
O301 Tb263 2.393 . S
O301 C315 1.248 . S
O302 Tb263 2.465 . S
O302 C327 1.264 . S
O303 Tb263 2.387 1_556 S
O303 C319 1.264 . S
O304 Tb252 2.349 . S
O304 C319 1.243 . S
O305 Tb263 2.428 . S
O305 C327 1.256 . S
O306 Tb263 2.308 . S
O306 C326 1.266 . S
O307 Tb252 2.393 . S
O307 C326 1.248 1_556 S
C308 O297 1.264 . S
C308 O298 1.243 . S
C309 C312 1.399 . S
C309 C314 1.383 . S
C309 C316 1.496 . S
C310 C311 1.399 . S
C310 C314 1.389 . S
C311 C310 1.399 . S
C311 C313 1.380 . S
C311 H328 0.929 . S
C312 C309 1.399 . S
C312 C313 1.392 . S
C312 H329 0.929 . S
C313 C311 1.380 . S
C313 C312 1.392 . S
C313 H330 0.929 . S
C314 C309 1.383 . S
C314 C310 1.389 . S
C314 H331 0.931 . S
C315 O300 1.266 . S
C315 O301 1.248 . S
C316 Tb252 2.802 . S
C316 O296 1.264 . S
C316 O299 1.256 . S
C316 C309 1.496 . S
C317 C284 1.448 1_455 S
C317 H294 0.930 . S
C317 C318 1.328 1_455 S
C318 C289 1.427 . S
C318 H295 0.929 . S
C318 C317 1.328 1_655 S
C319 O303 1.264 . S
C319 O304 1.243 . S
C320 C323 1.399 . S
C320 C324 1.383 . S
C320 C327 1.496 . S
C321 C322 1.399 . S
C321 C324 1.389 . S
C322 C321 1.399 . S
C322 C325 1.380 . S
C322 H332 0.929 . S
C323 C320 1.399 . S
C323 C325 1.392 . S
C323 H333 0.929 . S
C324 C320 1.383 . S
C324 C321 1.389 . S
C324 H334 0.931 . S
C325 C322 1.380 . S
C325 C323 1.392 . S
C325 H335 0.929 . S
C326 O306 1.266 . S
C326 O307 1.248 1_554 S
C327 Tb263 2.802 . S
C327 O302 1.264 . S
C327 O305 1.256 . S
C327 C320 1.496 . S
H328 C311 0.929 . S
H329 C312 0.929 . S
H330 C313 0.929 . S
H331 C314 0.931 . S
H332 C322 0.929 . S
H333 C323 0.929 . S
H334 C324 0.931 . S
H335 C325 0.929 . S
Tb336 N365 2.617 . S
Tb336 N371 2.572 . S
Tb336 O380 2.465 . S
Tb336 O381 2.387 . S
Tb336 O383 2.428 . S
Tb336 O384 2.308 . S
Tb336 O388 2.349 . S
Tb336 O391 2.393 . S
Tb336 C400 2.802 . S
C337 N338 1.379 . S
C337 C340 1.416 . S
C337 C344 1.424 . S
N338 C337 1.379 . S
N338 C341 1.334 . S
N338 Tb347 2.617 . S
C339 C341 1.390 . S
C339 C342 1.339 . S
C339 H359 0.930 . S
C340 C337 1.416 . S
C340 C342 1.416 . S
C340 C346 1.448 . S
C341 N338 1.334 . S
C341 C339 1.390 . S
C341 H352 0.930 . S
C342 C339 1.339 . S
C342 C340 1.416 . S
C342 H363 0.930 . S
C343 C344 1.413 . S
C343 C345 1.427 . S
C343 C349 1.416 . S
C344 C337 1.424 . S
C344 C343 1.413 . S
C344 N348 1.361 . S
C345 C343 1.427 . S
C345 C346 1.328 . S
C345 H360 0.929 . S
C346 C340 1.448 . S
C346 C345 1.328 . S
C346 H361 0.930 . S
Tb347 N338 2.617 . S
Tb347 N348 2.572 . S
Tb347 O382 2.349 . S
Tb347 O385 2.393 . S
Tb347 O386 2.465 . S
Tb347 O387 2.387 . S
Tb347 O389 2.428 . S
Tb347 O390 2.308 . S
Tb347 C411 2.802 . S
N348 C344 1.361 . S
N348 Tb347 2.572 . S
N348 C350 1.340 . S
C349 C343 1.416 . S
C349 C351 1.332 . S
C349 H357 0.931 . S
C350 N348 1.340 . S
C350 C351 1.407 . S
C350 H356 0.930 . S
C351 C349 1.332 . S
C351 C350 1.407 . S
C351 H353 0.929 . S
H352 C341 0.930 . S
H353 C351 0.929 . S
H354 C369 0.930 . S
H355 C376 0.929 1_655 S
H356 C350 0.930 . S
H357 C349 0.931 . S
H358 C372 0.930 . S
H359 C339 0.930 . S
H360 C345 0.929 . S
H361 C346 0.930 . S
H362 C367 0.930 . S
H363 C342 0.930 . S
H364 C375 0.931 1_655 S
N365 Tb336 2.617 . S
N365 C366 1.379 . S
N365 C369 1.334 . S
C366 N365 1.379 . S
C366 C368 1.416 . S
C366 C374 1.424 . S
C367 H362 0.930 . S
C367 C369 1.390 1_545 S
C367 C370 1.339 . S
C368 C366 1.416 . S
C368 C370 1.416 1_565 S
C368 C401 1.448 1_565 S
C369 H354 0.930 . S
C369 N365 1.334 . S
C369 C367 1.390 1_565 S
C370 C367 1.339 . S
C370 C368 1.416 1_545 S
C370 H377 0.930 . S
N371 Tb336 2.572 . S
N371 C372 1.340 . S
N371 C374 1.361 . S
C372 H358 0.930 . S
C372 N371 1.340 . S
C372 C376 1.407 . S
C373 C374 1.413 . S
C373 C375 1.416 . S
C373 C402 1.427 . S
C374 C366 1.424 . S
C374 N371 1.361 . S
C374 C373 1.413 . S
C375 H364 0.931 1_455 S
C375 C373 1.416 . S
C375 C376 1.332 . S
C376 H355 0.929 1_455 S
C376 C372 1.407 . S
C376 C375 1.332 . S
H377 C370 0.930 . S
H378 C401 0.930 . S
H379 C402 0.929 . S
O380 Tb336 2.465 . S
O380 C400 1.264 . S
O381 Tb336 2.387 . S
O381 C392 1.264 . S
O382 Tb347 2.349 . S
O382 C392 1.243 . S
O383 Tb336 2.428 . S
O383 C400 1.256 . S
O384 Tb336 2.308 . S
O384 C399 1.266 . S
O385 Tb347 2.393 . S
O385 C399 1.248 . S
O386 Tb347 2.465 . S
O386 C411 1.264 . S
O387 Tb347 2.387 . S
O387 C403 1.264 . S
O388 Tb336 2.349 . S
O388 C403 1.243 . S
O389 Tb347 2.428 . S
O389 C411 1.256 . S
O390 Tb347 2.308 . S
O390 C410 1.266 . S
O391 Tb336 2.393 . S
O391 C410 1.248 . S
C392 O381 1.264 . S
C392 O382 1.243 . S
C393 C396 1.399 . S
C393 C398 1.383 . S
C393 C400 1.496 . S
C394 C395 1.399 . S
C394 C398 1.389 . S
C395 C394 1.399 . S
C395 C397 1.380 . S
C395 H412 0.929 . S
C396 C393 1.399 . S
C396 C397 1.392 . S
C396 H413 0.929 . S
C397 C395 1.380 . S
C397 C396 1.392 . S
C397 H414 0.929 . S
C398 C393 1.383 . S
C398 C394 1.389 . S
C398 H415 0.931 . S
C399 O384 1.266 . S
C399 O385 1.248 . S
C400 Tb336 2.802 . S
C400 O380 1.264 . S
C400 O383 1.256 . S
C400 C393 1.496 . S
C401 C368 1.448 1_545 S
C401 H378 0.930 . S
C401 C402 1.328 1_545 S
C402 C373 1.427 . S
C402 H379 0.929 . S
C402 C401 1.328 1_565 S
C403 O387 1.264 . S
C403 O388 1.243 . S
C404 C407 1.399 . S
C404 C408 1.383 . S
C404 C411 1.496 . S
C405 C406 1.399 . S
C405 C408 1.389 . S
C406 C405 1.399 . S
C406 C409 1.380 . S
C406 H416 0.929 . S
C407 C404 1.399 . S
C407 C409 1.392 . S
C407 H417 0.929 . S
C408 C404 1.383 . S
C408 C405 1.389 . S
C408 H418 0.931 . S
C409 C406 1.380 . S
C409 C407 1.392 . S
C409 H419 0.929 . S
C410 O390 1.266 . S
C410 O391 1.248 . S
C411 Tb347 2.802 . S
C411 O386 1.264 . S
C411 O389 1.256 . S
C411 C404 1.496 . S
H412 C395 0.929 . S
H413 C396 0.929 . S
H414 C397 0.929 . S
H415 C398 0.931 . S
H416 C406 0.929 . S
H417 C407 0.929 . S
H418 C408 0.931 . S
H419 C409 0.929 . S
Tb420 N449 2.617 . S
Tb420 N455 2.572 . S
Tb420 O464 2.465 . S
Tb420 O465 2.387 . S
Tb420 O467 2.428 . S
Tb420 O468 2.308 . S
Tb420 O472 2.349 . S
Tb420 O475 2.393 . S
Tb420 C484 2.802 . S
C421 N422 1.379 . S
C421 C424 1.416 . S
C421 C428 1.424 . S
N422 C421 1.379 . S
N422 C425 1.334 . S
N422 Tb431 2.617 . S
C423 C425 1.390 . S
C423 C426 1.339 . S
C423 H443 0.930 . S
C424 C421 1.416 . S
C424 C426 1.416 . S
C424 C430 1.448 . S
C425 N422 1.334 . S
C425 C423 1.390 . S
C425 H436 0.930 . S
C426 C423 1.339 . S
C426 C424 1.416 . S
C426 H447 0.930 . S
C427 C428 1.413 . S
C427 C429 1.427 . S
C427 C433 1.416 . S
C428 C421 1.424 . S
C428 C427 1.413 . S
C428 N432 1.361 . S
C429 C427 1.427 . S
C429 C430 1.328 . S
C429 H444 0.929 . S
C430 C424 1.448 . S
C430 C429 1.328 . S
C430 H445 0.930 . S
Tb431 N422 2.617 . S
Tb431 N432 2.572 . S
Tb431 O466 2.349 . S
Tb431 O469 2.393 . S
Tb431 O470 2.465 . S
Tb431 O471 2.387 . S
Tb431 O473 2.428 . S
Tb431 O474 2.308 . S
Tb431 C495 2.802 . S
N432 C428 1.361 . S
N432 Tb431 2.572 . S
N432 C434 1.340 . S
C433 C427 1.416 . S
C433 C435 1.332 . S
C433 H441 0.931 . S
C434 N432 1.340 . S
C434 C435 1.407 . S
C434 H440 0.930 . S
C435 C433 1.332 . S
C435 C434 1.407 . S
C435 H437 0.929 . S
H436 C425 0.930 . S
H437 C435 0.929 . S
H438 C453 0.930 . S
H439 C460 0.929 1_565 S
H440 C434 0.930 . S
H441 C433 0.931 . S
H442 C456 0.930 . S
H443 C423 0.930 . S
H444 C429 0.929 . S
H445 C430 0.930 . S
H446 C451 0.930 . S
H447 C426 0.930 . S
H448 C459 0.931 1_565 S
N449 Tb420 2.617 . S
N449 C450 1.379 . S
N449 C453 1.334 . S
C450 N449 1.379 . S
C450 C452 1.416 . S
C450 C458 1.424 . S
C451 H446 0.930 . S
C451 C453 1.390 . S
C451 C454 1.339 . S
C452 C450 1.416 . S
C452 C454 1.416 . S
C452 C485 1.448 . S
C453 H438 0.930 . S
C453 N449 1.334 . S
C453 C451 1.390 . S
C454 C451 1.339 . S
C454 C452 1.416 . S
C454 H461 0.930 . S
N455 Tb420 2.572 . S
N455 C456 1.340 . S
N455 C458 1.361 . S
C456 H442 0.930 . S
C456 N455 1.340 . S
C456 C460 1.407 . S
C457 C458 1.413 . S
C457 C459 1.416 . S
C457 C486 1.427 . S
C458 C450 1.424 . S
C458 N455 1.361 . S
C458 C457 1.413 . S
C459 H448 0.931 1_545 S
C459 C457 1.416 . S
C459 C460 1.332 . S
C460 H439 0.929 1_545 S
C460 C456 1.407 . S
C460 C459 1.332 . S
H461 C454 0.930 . S
H462 C485 0.930 . S
H463 C486 0.929 . S
O464 Tb420 2.465 . S
O464 C484 1.264 . S
O465 Tb420 2.387 . S
O465 C476 1.264 . S
O466 Tb431 2.349 . S
O466 C476 1.243 . S
O467 Tb420 2.428 . S
O467 C484 1.256 . S
O468 Tb420 2.308 . S
O468 C483 1.266 . S
O469 Tb431 2.393 . S
O469 C483 1.248 . S
O470 Tb431 2.465 . S
O470 C495 1.264 . S
O471 Tb431 2.387 . S
O471 C487 1.264 . S
O472 Tb420 2.349 . S
O472 C487 1.243 . S
O473 Tb431 2.428 . S
O473 C495 1.256 . S
O474 Tb431 2.308 . S
O474 C494 1.266 . S
O475 Tb420 2.393 . S
O475 C494 1.248 . S
C476 O465 1.264 . S
C476 O466 1.243 . S
C477 C480 1.399 . S
C477 C482 1.383 . S
C477 C484 1.496 . S
C478 C479 1.399 . S
C478 C482 1.389 . S
C479 C478 1.399 . S
C479 C481 1.380 . S
C479 H496 0.929 . S
C480 C477 1.399 . S
C480 C481 1.392 . S
C480 H497 0.929 . S
C481 C479 1.380 . S
C481 C480 1.392 . S
C481 H498 0.929 . S
C482 C477 1.383 . S
C482 C478 1.389 . S
C482 H499 0.931 . S
C483 O468 1.266 . S
C483 O469 1.248 . S
C484 Tb420 2.802 . S
C484 O464 1.264 . S
C484 O467 1.256 . S
C484 C477 1.496 . S
C485 C452 1.448 . S
C485 H462 0.930 . S
C485 C486 1.328 . S
C486 C457 1.427 . S
C486 H463 0.929 . S
C486 C485 1.328 . S
C487 O471 1.264 . S
C487 O472 1.243 . S
C488 C491 1.399 . S
C488 C492 1.383 . S
C488 C495 1.496 . S
C489 C490 1.399 . S
C489 C492 1.389 . S
C490 C489 1.399 . S
C490 C493 1.380 . S
C490 H500 0.929 . S
C491 C488 1.399 . S
C491 C493 1.392 . S
C491 H501 0.929 . S
C492 C488 1.383 . S
C492 C489 1.389 . S
C492 H502 0.931 . S
C493 C490 1.380 . S
C493 C491 1.392 . S
C493 H503 0.929 . S
C494 O474 1.266 . S
C494 O475 1.248 . S
C495 Tb431 2.802 . S
C495 O470 1.264 . S
C495 O473 1.256 . S
C495 C488 1.496 . S
H496 C479 0.929 . S
H497 C480 0.929 . S
H498 C481 0.929 . S
H499 C482 0.931 . S
H500 C490 0.929 . S
H501 C491 0.929 . S
H502 C492 0.931 . S
H503 C493 0.929 . S
H504 C516 0.930 . S
H505 C518 0.930 . S
H506 C519 0.930 . S
H507 C523 0.959 . S
H508 C523 0.959 . S
H509 C523 0.961 . S
H510 C524 0.960 . S
H511 C524 0.961 . S
H512 C524 0.959 . S
H513 C527 0.929 . S
H514 C528 0.931 . S
H515 C530 0.930 . S
C516 H504 0.930 . S
C516 C517 1.399 . S
C516 C521 1.399 . S
C517 C516 1.399 . S
C517 C518 1.376 . S
C518 H505 0.930 . S
C518 C517 1.376 . S
C518 C519 1.388 . S
C519 H506 0.930 . S
C519 C518 1.388 . S
C519 C520 1.390 . S
C520 C519 1.390 . S
C520 C521 1.394 . S
C520 C526 1.465 . S
C521 C516 1.399 . S
C521 C520 1.394 . S
C521 C522 1.516 . S
C522 C521 1.516 . S
C522 C523 1.502 . S
C522 C524 1.561 . S
C522 C525 1.526 . S
C523 H507 0.959 . S
C523 H508 0.959 . S
C523 H509 0.961 . S
C523 C522 1.502 . S
C524 H510 0.960 . S
C524 H511 0.961 . S
C524 H512 0.959 . S
C524 C522 1.561 . S
C525 C522 1.526 . S
C525 C526 1.396 . S
C525 C530 1.390 . S
C526 C520 1.465 . S
C526 C525 1.396 . S
C526 C527 1.399 . S
C527 H513 0.929 . S
C527 C526 1.399 . S
C527 C528 1.385 . S
C528 H514 0.931 . S
C528 C527 1.385 . S
C528 C529 1.389 . S
C529 C528 1.389 . S
C529 C530 1.387 . S
C530 H515 0.930 . S
C530 C525 1.390 . S
C530 C529 1.387 . S
H531 C543 0.930 . S
H532 C545 0.930 . S
H533 C546 0.930 . S
H534 C550 0.959 . S
H535 C550 0.959 . S
H536 C550 0.961 . S
H537 C551 0.960 . S
H538 C551 0.961 . S
H539 C551 0.959 . S
H540 C554 0.929 . S
H541 C555 0.931 . S
H542 C557 0.930 . S
C543 H531 0.930 . S
C543 C544 1.399 . S
C543 C548 1.399 . S
C544 C543 1.399 . S
C544 C545 1.376 . S
C545 H532 0.930 . S
C545 C544 1.376 . S
C545 C546 1.388 . S
C546 H533 0.930 . S
C546 C545 1.388 . S
C546 C547 1.390 . S
C547 C546 1.390 . S
C547 C548 1.394 . S
C547 C553 1.465 . S
C548 C543 1.399 . S
C548 C547 1.394 . S
C548 C549 1.516 . S
C549 C548 1.516 . S
C549 C550 1.502 . S
C549 C551 1.561 . S
C549 C552 1.526 . S
C550 H534 0.959 . S
C550 H535 0.959 . S
C550 H536 0.961 . S
C550 C549 1.502 . S
C551 H537 0.960 . S
C551 H538 0.961 . S
C551 H539 0.959 . S
C551 C549 1.561 . S
C552 C549 1.526 . S
C552 C553 1.396 . S
C552 C557 1.390 . S
C553 C547 1.465 . S
C553 C552 1.396 . S
C553 C554 1.399 . S
C554 H540 0.929 . S
C554 C553 1.399 . S
C554 C555 1.385 . S
C555 H541 0.931 . S
C555 C554 1.385 . S
C555 C556 1.389 . S
C556 C555 1.389 . S
C556 C557 1.387 . S
C557 H542 0.930 . S
C557 C552 1.390 . S
C557 C556 1.387 . S
H558 C570 0.930 . S
H559 C572 0.930 . S
H560 C573 0.930 . S
H561 C577 0.959 . S
H562 C577 0.959 . S
H563 C577 0.961 . S
H564 C578 0.960 . S
H565 C578 0.961 . S
H566 C578 0.959 . S
H567 C581 0.929 . S
H568 C582 0.931 . S
H569 C584 0.930 . S
C570 H558 0.930 . S
C570 C571 1.399 . S
C570 C575 1.399 . S
C571 C570 1.399 . S
C571 C572 1.376 . S
C572 H559 0.930 . S
C572 C571 1.376 . S
C572 C573 1.388 . S
C573 H560 0.930 . S
C573 C572 1.388 . S
C573 C574 1.390 . S
C574 C573 1.390 . S
C574 C575 1.394 . S
C574 C580 1.465 . S
C575 C570 1.399 . S
C575 C574 1.394 . S
C575 C576 1.516 . S
C576 C575 1.516 . S
C576 C577 1.502 . S
C576 C578 1.561 . S
C576 C579 1.526 . S
C577 H561 0.959 . S
C577 H562 0.959 . S
C577 H563 0.961 . S
C577 C576 1.502 . S
C578 H564 0.960 . S
C578 H565 0.961 . S
C578 H566 0.959 . S
C578 C576 1.561 . S
C579 C576 1.526 . S
C579 C580 1.396 . S
C579 C584 1.390 . S
C580 C574 1.465 . S
C580 C579 1.396 . S
C580 C581 1.399 . S
C581 H567 0.929 . S
C581 C580 1.399 . S
C581 C582 1.385 . S
C582 H568 0.931 . S
C582 C581 1.385 . S
C582 C583 1.389 . S
C583 C582 1.389 . S
C583 C584 1.387 . S
C584 H569 0.930 . S
C584 C579 1.390 . S
C584 C583 1.387 . S
H585 C597 0.930 . S
H586 C599 0.930 . S
H587 C600 0.930 . S
H588 C604 0.959 . S
H589 C604 0.959 . S
H590 C604 0.961 . S
H591 C605 0.960 . S
H592 C605 0.961 . S
H593 C605 0.959 . S
H594 C608 0.929 . S
H595 C609 0.931 . S
H596 C611 0.930 . S
C597 H585 0.930 . S
C597 C598 1.399 . S
C597 C602 1.399 . S
C598 C597 1.399 . S
C598 C599 1.376 . S
C599 H586 0.930 . S
C599 C598 1.376 . S
C599 C600 1.388 . S
C600 H587 0.930 . S
C600 C599 1.388 . S
C600 C601 1.390 . S
C601 C600 1.390 . S
C601 C602 1.394 . S
C601 C607 1.465 . S
C602 C597 1.399 . S
C602 C601 1.394 . S
C602 C603 1.516 . S
C603 C602 1.516 . S
C603 C604 1.502 . S
C603 C605 1.561 . S
C603 C606 1.526 . S
C604 H588 0.959 . S
C604 H589 0.959 . S
C604 H590 0.961 . S
C604 C603 1.502 . S
C605 H591 0.960 . S
C605 H592 0.961 . S
C605 H593 0.959 . S
C605 C603 1.561 . S
C606 C603 1.526 . S
C606 C607 1.396 . S
C606 C611 1.390 . S
C607 C601 1.465 . S
C607 C606 1.396 . S
C607 C608 1.399 . S
C608 H594 0.929 . S
C608 C607 1.399 . S
C608 C609 1.385 . S
C609 H595 0.931 . S
C609 C608 1.385 . S
C609 C610 1.389 . S
C610 C609 1.389 . S
C610 C611 1.387 . S
C611 H596 0.930 . S
C611 C606 1.390 . S
C611 C610 1.387 . S
H612 C624 0.930 . S
H613 C626 0.930 . S
H614 C627 0.930 . S
H615 C631 0.959 . S
H616 C631 0.959 . S
H617 C631 0.961 . S
H618 C632 0.960 . S
H619 C632 0.961 . S
H620 C632 0.959 . S
H621 C635 0.929 . S
H622 C636 0.931 . S
H623 C638 0.930 . S
C624 H612 0.930 . S
C624 C625 1.399 . S
C624 C629 1.399 . S
C625 C624 1.399 . S
C625 C626 1.376 . S
C626 H613 0.930 . S
C626 C625 1.376 . S
C626 C627 1.388 . S
C627 H614 0.930 . S
C627 C626 1.388 . S
C627 C628 1.390 . S
C628 C627 1.390 . S
C628 C629 1.394 . S
C628 C634 1.465 . S
C629 C624 1.399 . S
C629 C628 1.394 . S
C629 C630 1.516 . S
C630 C629 1.516 . S
C630 C631 1.502 . S
C630 C632 1.561 . S
C630 C633 1.526 . S
C631 H615 0.959 . S
C631 H616 0.959 . S
C631 H617 0.961 . S
C631 C630 1.502 . S
C632 H618 0.960 . S
C632 H619 0.961 . S
C632 H620 0.959 . S
C632 C630 1.561 . S
C633 C630 1.526 . S
C633 C634 1.396 . S
C633 C638 1.390 . S
C634 C628 1.465 . S
C634 C633 1.396 . S
C634 C635 1.399 . S
C635 H621 0.929 . S
C635 C634 1.399 . S
C635 C636 1.385 . S
C636 H622 0.931 . S
C636 C635 1.385 . S
C636 C637 1.389 . S
C637 C636 1.389 . S
C637 C638 1.387 . S
C638 H623 0.930 . S
C638 C633 1.390 . S
C638 C637 1.387 . S
H639 C651 0.930 . S
H640 C653 0.930 . S
H641 C654 0.930 . S
H642 C658 0.959 . S
H643 C658 0.959 . S
H644 C658 0.961 . S
H645 C659 0.960 . S
H646 C659 0.961 . S
H647 C659 0.959 . S
H648 C662 0.929 . S
H649 C663 0.931 . S
H650 C665 0.930 . S
C651 H639 0.930 . S
C651 C652 1.399 . S
C651 C656 1.399 . S
C652 C651 1.399 . S
C652 C653 1.376 . S
C653 H640 0.930 . S
C653 C652 1.376 . S
C653 C654 1.388 . S
C654 H641 0.930 . S
C654 C653 1.388 . S
C654 C655 1.390 . S
C655 C654 1.390 . S
C655 C656 1.394 . S
C655 C661 1.465 . S
C656 C651 1.399 . S
C656 C655 1.394 . S
C656 C657 1.516 . S
C657 C656 1.516 . S
C657 C658 1.502 . S
C657 C659 1.561 . S
C657 C660 1.526 . S
C658 H642 0.959 . S
C658 H643 0.959 . S
C658 H644 0.961 . S
C658 C657 1.502 . S
C659 H645 0.960 . S
C659 H646 0.961 . S
C659 H647 0.959 . S
C659 C657 1.561 . S
C660 C657 1.526 . S
C660 C661 1.396 . S
C660 C665 1.390 . S
C661 C655 1.465 . S
C661 C660 1.396 . S
C661 C662 1.399 . S
C662 H648 0.929 . S
C662 C661 1.399 . S
C662 C663 1.385 . S
C663 H649 0.931 . S
C663 C662 1.385 . S
C663 C664 1.389 . S
C664 C663 1.389 . S
C664 C665 1.387 . S
C665 H650 0.930 . S
C665 C660 1.390 . S
C665 C664 1.387 . S
H666 C678 0.930 1_556 S
H667 C680 0.930 . S
H668 C681 0.930 . S
H669 C685 0.959 . S
H670 C685 0.959 . S
H671 C685 0.961 . S
H672 C686 0.960 . S
H673 C686 0.961 . S
H674 C686 0.959 . S
H675 C689 0.929 . S
H676 C690 0.931 . S
H677 C692 0.930 1_556 S
C678 H666 0.930 1_554 S
C678 C679 1.399 . S
C678 C683 1.399 . S
C679 C678 1.399 . S
C679 C680 1.376 . S
C680 H667 0.930 . S
C680 C679 1.376 . S
C680 C681 1.388 . S
C681 H668 0.930 . S
C681 C680 1.388 . S
C681 C682 1.390 . S
C682 C681 1.390 . S
C682 C683 1.394 . S
C682 C688 1.465 . S
C683 C678 1.399 . S
C683 C682 1.394 . S
C683 C684 1.516 1_554 S
C684 C683 1.516 1_556 S
C684 C685 1.502 . S
C684 C686 1.561 . S
C684 C687 1.526 1_556 S
C685 H669 0.959 . S
C685 H670 0.959 . S
C685 H671 0.961 . S
C685 C684 1.502 . S
C686 H672 0.960 . S
C686 H673 0.961 . S
C686 H674 0.959 . S
C686 C684 1.561 . S
C687 C684 1.526 1_554 S
C687 C688 1.396 . S
C687 C692 1.390 . S
C688 C682 1.465 . S
C688 C687 1.396 . S
C688 C689 1.399 . S
C689 H675 0.929 . S
C689 C688 1.399 . S
C689 C690 1.385 . S
C690 H676 0.931 . S
C690 C689 1.385 . S
C690 C691 1.389 . S
C691 C690 1.389 . S
C691 C692 1.387 . S
C692 H677 0.930 1_554 S
C692 C687 1.390 . S
C692 C691 1.387 . S
H693 C705 0.930 . S
H694 C707 0.930 . S
H695 C708 0.930 . S
H696 C712 0.959 . S
H697 C712 0.959 . S
H698 C712 0.961 . S
H699 C713 0.960 . S
H700 C713 0.961 1_655 S
H701 C713 0.959 . S
H702 C716 0.929 . S
H703 C717 0.931 . S
H704 C719 0.930 . S
C705 H693 0.930 . S
C705 C706 1.399 . S
C705 C710 1.399 . S
C706 C705 1.399 . S
C706 C707 1.376 . S
C707 H694 0.930 . S
C707 C706 1.376 . S
C707 C708 1.388 . S
C708 H695 0.930 . S
C708 C707 1.388 . S
C708 C709 1.390 . S
C709 C708 1.390 . S
C709 C710 1.394 . S
C709 C715 1.465 . S
C710 C705 1.399 . S
C710 C709 1.394 . S
C710 C711 1.516 1_455 S
C711 C710 1.516 1_655 S
C711 C712 1.502 . S
C711 C713 1.561 1_655 S
C711 C714 1.526 . S
C712 H696 0.959 . S
C712 H697 0.959 . S
C712 H698 0.961 . S
C712 C711 1.502 . S
C713 H699 0.960 . S
C713 H700 0.961 1_455 S
C713 H701 0.959 . S
C713 C711 1.561 1_455 S
C714 C711 1.526 . S
C714 C715 1.396 1_655 S
C714 C719 1.390 . S
C715 C709 1.465 . S
C715 C714 1.396 1_455 S
C715 C716 1.399 . S
C716 H702 0.929 . S
C716 C715 1.399 . S
C716 C717 1.385 1_455 S
C717 H703 0.931 . S
C717 C716 1.385 1_655 S
C717 C718 1.389 . S
C718 C717 1.389 . S
C718 C719 1.387 . S
C719 H704 0.930 . S
C719 C714 1.390 . S
C719 C718 1.387 . S
H720 C732 0.930 . S
H721 C734 0.930 1_565 S
H722 C735 0.930 . S
H723 C739 0.959 . S
H724 C739 0.959 . S
H725 C739 0.961 . S
H726 C740 0.960 . S
H727 C740 0.961 . S
H728 C740 0.959 1_565 S
H729 C743 0.929 . S
H730 C744 0.931 . S
H731 C746 0.933 . S
C732 H720 0.930 . S
C732 C733 1.399 . S
C732 C737 1.399 . S
C733 C732 1.399 . S
C733 C734 1.376 . S
C734 H721 0.930 1_545 S
C734 C733 1.376 . S
C734 C735 1.388 1_545 S
C735 H722 0.930 . S
C735 C734 1.388 1_565 S
C735 C736 1.390 . S
C736 C735 1.390 . S
C736 C737 1.394 1_565 S
C736 C742 1.465 . S
C737 C732 1.399 . S
C737 C736 1.394 1_545 S
C737 C738 1.516 . S
C738 C737 1.516 . S
C738 C739 1.502 . S
C738 C740 1.561 . S
C738 C741 1.526 1_545 S
C739 H723 0.959 . S
C739 H724 0.959 . S
C739 H725 0.961 . S
C739 C738 1.502 . S
C740 H726 0.960 . S
C740 H727 0.961 . S
C740 H728 0.959 1_545 S
C740 C738 1.561 . S
C741 C738 1.526 1_565 S
C741 C742 1.396 . S
C741 C746 1.390 . S
C742 C736 1.465 . S
C742 C741 1.396 . S
C742 C743 1.399 . S
C743 H729 0.929 . S
C743 C742 1.399 . S
C743 C744 1.385 . S
C744 H730 0.931 . S
C744 C743 1.385 . S
C744 C745 1.389 . S
C745 C744 1.389 . S
C745 C746 1.387 . S
C746 H731 0.933 . S
C746 C741 1.390 . S
C746 C745 1.387 . S
H747 C759 0.930 . S
H748 C761 0.930 . S
H749 C762 0.930 . S
H750 C766 0.959 . S
H751 C766 0.959 . S
H752 C766 0.961 . S
H753 C767 0.960 . S
H754 C767 0.961 . S
H755 C767 0.959 . S
H756 C770 0.929 . S
H757 C771 0.931 . S
H758 C773 0.930 . S
C759 H747 0.930 . S
C759 C760 1.399 . S
C759 C764 1.399 . S
C760 C759 1.399 . S
C760 C761 1.376 . S
C761 H748 0.930 . S
C761 C760 1.376 . S
C761 C762 1.388 . S
C762 H749 0.930 . S
C762 C761 1.388 . S
C762 C763 1.390 . S
C763 C762 1.390 . S
C763 C764 1.394 . S
C763 C769 1.465 . S
C764 C759 1.399 . S
C764 C763 1.394 . S
C764 C765 1.516 . S
C765 C764 1.516 . S
C765 C766 1.502 . S
C765 C767 1.561 . S
C765 C768 1.526 . S
C766 H750 0.959 . S
C766 H751 0.959 . S
C766 H752 0.961 . S
C766 C765 1.502 . S
C767 H753 0.960 . S
C767 H754 0.961 . S
C767 H755 0.959 . S
C767 C765 1.561 . S
C768 C765 1.526 . S
C768 C769 1.396 . S
C768 C773 1.390 . S
C769 C763 1.465 . S
C769 C768 1.396 . S
C769 C770 1.399 . S
C770 H756 0.929 . S
C770 C769 1.399 . S
C770 C771 1.385 . S
C771 H757 0.931 . S
C771 C770 1.385 . S
C771 C772 1.389 . S
C772 C771 1.389 . S
C772 C773 1.387 . S
C773 H758 0.930 . S
C773 C768 1.390 . S
C773 C772 1.387 . S
H774 C786 0.930 . S
H775 C788 0.930 . S
H776 C789 0.930 . S
H777 C793 0.959 . S
H778 C793 0.959 . S
H779 C793 0.961 . S
H780 C794 0.960 . S
H781 C794 0.961 . S
H782 C794 0.959 . S
H783 C797 0.929 . S
H784 C798 0.931 . S
H785 C800 0.930 . S
C786 H774 0.930 . S
C786 C787 1.399 . S
C786 C791 1.399 . S
C787 C786 1.399 . S
C787 C788 1.376 1_554 S
C788 H775 0.930 . S
C788 C787 1.376 1_556 S
C788 C789 1.388 . S
C789 H776 0.930 . S
C789 C788 1.388 . S
C789 C790 1.390 1_556 S
C790 C789 1.390 1_554 S
C790 C791 1.394 . S
C790 C796 1.465 1_455 S
C791 C786 1.399 . S
C791 C790 1.394 . S
C791 C792 1.516 . S
C792 C791 1.516 . S
C792 C793 1.502 1_455 S
C792 C794 1.561 . S
C792 C795 1.526 1_455 S
C793 H777 0.959 . S
C793 H778 0.959 . S
C793 H779 0.961 . S
C793 C792 1.502 1_655 S
C794 H780 0.960 . S
C794 H781 0.961 . S
C794 H782 0.959 . S
C794 C792 1.561 . S
C795 C792 1.526 1_655 S
C795 C796 1.396 . S
C795 C800 1.390 . S
C796 C790 1.465 1_655 S
C796 C795 1.396 . S
C796 C797 1.399 1_554 S
C797 H783 0.929 . S
C797 C796 1.399 1_556 S
C797 C798 1.385 . S
C798 H784 0.931 . S
C798 C797 1.385 . S
C798 C799 1.389 1_556 S
C799 C798 1.389 1_554 S
C799 C800 1.387 . S
C800 H785 0.930 . S
C800 C795 1.390 . S
C800 C799 1.387 . S
H801 C813 0.930 . S
H802 C815 0.930 . S
H803 C816 0.930 . S
H804 C820 0.959 . S
H805 C820 0.959 . S
H806 C820 0.961 . S
H807 C821 0.960 . S
H808 C821 0.961 . S
H809 C821 0.965 . S
H810 C824 0.929 . S
H811 C825 0.931 . S
H812 C827 0.930 . S
C813 H801 0.930 . S
C813 C814 1.399 . S
C813 C818 1.399 . S
C814 C813 1.399 . S
C814 C815 1.376 . S
C815 H802 0.930 . S
C815 C814 1.376 . S
C815 C816 1.388 . S
C816 H803 0.930 . S
C816 C815 1.388 . S
C816 C817 1.390 . S
C817 C816 1.390 . S
C817 C818 1.394 . S
C817 C823 1.465 . S
C818 C813 1.399 . S
C818 C817 1.394 . S
C818 C819 1.516 1_565 S
C819 C818 1.516 1_545 S
C819 C820 1.502 . S
C819 C821 1.561 . S
C819 C822 1.526 . S
C820 H804 0.959 . S
C820 H805 0.959 . S
C820 H806 0.961 . S
C820 C819 1.502 . S
C821 H807 0.960 . S
C821 H808 0.961 . S
C821 H809 0.965 . S
C821 C819 1.561 . S
C822 C819 1.526 . S
C822 C823 1.396 1_545 S
C822 C827 1.390 . S
C823 C817 1.465 . S
C823 C822 1.396 1_565 S
C823 C824 1.399 . S
C824 H810 0.929 . S
C824 C823 1.399 . S
C824 C825 1.385 1_565 S
C825 H811 0.931 . S
C825 C824 1.385 1_545 S
C825 C826 1.389 . S
C826 C825 1.389 . S
C826 C827 1.387 . S
C827 H812 0.930 . S
C827 C822 1.390 . S
C827 C826 1.387 . S
H828 C840 0.930 . S
H829 C842 0.930 . S
H830 C843 0.930 . S
H831 C847 0.959 . S
H832 C847 0.959 . S
H833 C847 0.961 . S
H834 C848 0.960 . S
H835 C848 0.961 . S
H836 C848 0.959 . S
H837 C851 0.929 . S
H838 C852 0.931 . S
H839 C854 0.930 . S
C840 H828 0.930 . S
C840 C841 1.399 . S
C840 C845 1.399 . S
C841 C840 1.399 . S
C841 C842 1.376 . S
C842 H829 0.930 . S
C842 C841 1.376 . S
C842 C843 1.388 . S
C843 H830 0.930 . S
C843 C842 1.388 . S
C843 C844 1.390 . S
C844 C843 1.390 . S
C844 C845 1.394 . S
C844 C850 1.465 . S
C845 C840 1.399 . S
C845 C844 1.394 . S
C845 C846 1.516 . S
C846 C845 1.516 . S
C846 C847 1.502 . S
C846 C848 1.561 . S
C846 C849 1.526 . S
C847 H831 0.959 . S
C847 H832 0.959 . S
C847 H833 0.961 . S
C847 C846 1.502 . S
C848 H834 0.960 . S
C848 H835 0.961 . S
C848 H836 0.959 . S
C848 C846 1.561 . S
C849 C846 1.526 . S
C849 C850 1.396 . S
C849 C854 1.390 . S
C850 C844 1.465 . S
C850 C849 1.396 . S
C850 C851 1.399 . S
C851 H837 0.929 . S
C851 C850 1.399 . S
C851 C852 1.385 . S
C852 H838 0.931 . S
C852 C851 1.385 . S
C852 C853 1.389 . S
C853 C852 1.389 . S
C853 C854 1.387 . S
C854 H839 0.930 . S
C854 C849 1.390 . S
C854 C853 1.387 . S
H855 C867 0.930 . S
H856 C869 0.930 . S
H857 C870 0.930 . S
H858 C874 0.959 . S
H859 C874 0.959 . S
H860 C874 0.961 . S
H861 C875 0.960 1_655 S
H862 C875 0.961 . S
H863 C875 0.959 1_655 S
H864 C878 0.929 . S
H865 C879 0.931 . S
H866 C881 0.930 . S
C867 H855 0.930 . S
C867 C868 1.399 . S
C867 C872 1.399 . S
C868 C867 1.399 . S
C868 C869 1.376 . S
C869 H856 0.930 . S
C869 C868 1.376 . S
C869 C870 1.388 . S
C870 H857 0.930 . S
C870 C869 1.388 . S
C870 C871 1.390 . S
C871 C870 1.390 . S
C871 C872 1.394 . S
C871 C877 1.465 . S
C872 C867 1.399 . S
C872 C871 1.394 . S
C872 C873 1.516 . S
C873 C872 1.516 . S
C873 C874 1.502 . S
C873 C875 1.561 . S
C873 C876 1.526 . S
C874 H858 0.959 . S
C874 H859 0.959 . S
C874 H860 0.961 . S
C874 C873 1.502 . S
C875 H861 0.960 1_455 S
C875 H862 0.961 . S
C875 H863 0.959 1_455 S
C875 C873 1.561 . S
C876 C873 1.526 . S
C876 C877 1.396 . S
C876 C881 1.390 . S
C877 C871 1.465 . S
C877 C876 1.396 . S
C877 C878 1.399 . S
C878 H864 0.929 . S
C878 C877 1.399 . S
C878 C879 1.385 . S
C879 H865 0.931 . S
C879 C878 1.385 . S
C879 C880 1.389 . S
C880 C879 1.389 . S
C880 C881 1.387 . S
C881 H866 0.930 . S
C881 C876 1.390 . S
C881 C880 1.387 . S
H882 C894 0.930 1_565 S
H883 C896 0.930 . S
H884 C897 0.930 . S
H885 C901 0.959 . S
H886 C901 0.959 . S
H887 C901 0.957 1_565 S
H888 C902 0.960 . S
H889 C902 0.961 . S
H890 C902 0.959 . S
H891 C905 0.929 . S
H892 C906 0.931 . S
H893 C908 0.930 . S
C894 H882 0.930 1_545 S
C894 C895 1.399 . S
C894 C899 1.399 . S
C895 C894 1.399 . S
C895 C896 1.376 . S
C896 H883 0.930 . S
C896 C895 1.376 . S
C896 C897 1.388 . S
C897 H884 0.930 . S
C897 C896 1.388 . S
C897 C898 1.390 . S
C898 C897 1.390 . S
C898 C899 1.394 . S
C898 C904 1.465 . S
C899 C894 1.399 . S
C899 C898 1.394 . S
C899 C900 1.516 . S
C900 C899 1.516 . S
C900 C901 1.502 . S
C900 C902 1.561 1_545 S
C900 C903 1.526 . S
C901 H885 0.959 . S
C901 H886 0.959 . S
C901 H887 0.957 1_545 S
C901 C900 1.502 . S
C902 H888 0.960 . S
C902 H889 0.961 . S
C902 H890 0.959 . S
C902 C900 1.561 1_565 S
C903 C900 1.526 . S
C903 C904 1.396 . S
C903 C908 1.390 . S
C904 C898 1.465 . S
C904 C903 1.396 . S
C904 C905 1.399 . S
C905 H891 0.929 . S
C905 C904 1.399 . S
C905 C906 1.385 . S
C906 H892 0.931 . S
C906 C905 1.385 . S
C906 C907 1.389 . S
C907 C906 1.389 . S
C907 C908 1.387 . S
C908 H893 0.930 . S
C908 C903 1.390 . S
C908 C907 1.387 . S
H909 C921 0.930 . S
H910 C923 0.930 . S
H911 C924 0.930 . S
H912 C928 0.959 . S
H913 C928 0.959 . S
H914 C928 0.961 . S
H915 C929 0.960 . S
H916 C929 0.961 . S
H917 C929 0.959 . S
H918 C932 0.929 . S
H919 C933 0.931 . S
H920 C935 0.930 . S
C921 H909 0.930 . S
C921 C922 1.399 . S
C921 C926 1.399 . S
C922 C921 1.399 . S
C922 C923 1.376 . S
C923 H910 0.930 . S
C923 C922 1.376 . S
C923 C924 1.388 . S
C924 H911 0.930 . S
C924 C923 1.388 . S
C924 C925 1.390 . S
C925 C924 1.390 . S
C925 C926 1.394 . S
C925 C931 1.465 . S
C926 C921 1.399 . S
C926 C925 1.394 . S
C926 C927 1.516 . S
C927 C926 1.516 . S
C927 C928 1.502 . S
C927 C929 1.561 . S
C927 C930 1.526 . S
C928 H912 0.959 . S
C928 H913 0.959 . S
C928 H914 0.961 . S
C928 C927 1.502 . S
C929 H915 0.960 . S
C929 H916 0.961 . S
C929 H917 0.959 . S
C929 C927 1.561 . S
C930 C927 1.526 . S
C930 C931 1.396 . S
C930 C935 1.390 . S
C931 C925 1.465 . S
C931 C930 1.396 . S
C931 C932 1.399 . S
C932 H918 0.929 . S
C932 C931 1.399 . S
C932 C933 1.385 . S
C933 H919 0.931 . S
C933 C932 1.385 . S
C933 C934 1.389 . S
C934 C933 1.389 . S
C934 C935 1.387 . S
C935 H920 0.930 . S
C935 C930 1.390 . S
C935 C934 1.387 . S
H936 C948 0.930 . S
H937 C950 0.930 . S
H938 C951 0.930 . S
H939 C955 0.959 . S
H940 C955 0.959 . S
H941 C955 0.961 . S
H942 C956 0.960 . S
H943 C956 0.961 . S
H944 C956 0.959 . S
H945 C959 0.929 . S
H946 C960 0.931 . S
H947 C962 0.930 . S
C948 H936 0.930 . S
C948 C949 1.399 . S
C948 C953 1.399 . S
C949 C948 1.399 . S
C949 C950 1.376 . S
C950 H937 0.930 . S
C950 C949 1.376 . S
C950 C951 1.388 . S
C951 H938 0.930 . S
C951 C950 1.388 . S
C951 C952 1.390 . S
C952 C951 1.390 . S
C952 C953 1.394 . S
C952 C958 1.465 . S
C953 C948 1.399 . S
C953 C952 1.394 . S
C953 C954 1.516 . S
C954 C953 1.516 . S
C954 C955 1.502 . S
C954 C956 1.561 . S
C954 C957 1.526 . S
C955 H939 0.959 . S
C955 H940 0.959 . S
C955 H941 0.961 . S
C955 C954 1.502 . S
C956 H942 0.960 . S
C956 H943 0.961 . S
C956 H944 0.959 . S
C956 C954 1.561 . S
C957 C954 1.526 . S
C957 C958 1.396 . S
C957 C962 1.390 . S
C958 C952 1.465 . S
C958 C957 1.396 . S
C958 C959 1.399 . S
C959 H945 0.929 . S
C959 C958 1.399 . S
C959 C960 1.385 . S
C960 H946 0.931 . S
C960 C959 1.385 . S
C960 C961 1.389 . S
C961 C960 1.389 . S
C961 C962 1.387 . S
C962 H947 0.930 . S
C962 C957 1.390 . S
C962 C961 1.387 . S
H963 C975 0.930 1_545 S
H964 C977 0.930 . S
H965 C978 0.930 . S
H966 C982 0.959 1_565 S
H967 C982 0.959 . S
H968 C982 0.961 . S
H969 C983 0.960 1_545 S
H970 C983 0.958 1_545 S
H971 C983 0.959 . S
H972 C986 0.929 . S
H973 C987 0.931 . S
H974 C989 0.930 . S
C975 H963 0.930 1_565 S
C975 C976 1.399 . S
C975 C980 1.399 . S
C976 C975 1.399 . S
C976 C977 1.376 . S
C977 H964 0.930 . S
C977 C976 1.376 . S
C977 C978 1.388 . S
C978 H965 0.930 . S
C978 C977 1.388 . S
C978 C979 1.390 . S
C979 C978 1.390 . S
C979 C980 1.394 . S
C979 C985 1.465 . S
C980 C975 1.399 . S
C980 C979 1.394 . S
C980 C981 1.516 . S
C981 C980 1.516 . S
C981 C982 1.502 1_565 S
C981 C983 1.561 . S
C981 C984 1.526 . S
C982 H966 0.959 1_545 S
C982 H967 0.959 . S
C982 H968 0.961 . S
C982 C981 1.502 1_545 S
C983 H969 0.960 1_565 S
C983 H970 0.958 1_565 S
C983 H971 0.959 . S
C983 C981 1.561 . S
C984 C981 1.526 . S
C984 C985 1.396 . S
C984 C989 1.390 . S
C985 C979 1.465 . S
C985 C984 1.396 . S
C985 C986 1.399 . S
C986 H972 0.929 . S
C986 C985 1.399 . S
C986 C987 1.385 . S
C987 H973 0.931 . S
C987 C986 1.385 . S
C987 C988 1.389 . S
C988 C987 1.389 . S
C988 C989 1.387 . S
C989 H974 0.930 . S
C989 C984 1.390 . S
C989 C988 1.387 . S
C517 C403 1.173 . S
C529 C69 0.904 . S
C544 C487 1.121 . S
C556 C153 1.041 . S
C571 C67 1.108 . S
C583 C237 1.079 . S
C598 C151 1.164 . S
C610 C321 0.945 . S
C625 C235 1.170 . S
C637 C405 0.928 . S
C652 C319 1.108 . S
C664 C489 1.079 . S
C679 C63 1.428 . S
C691 C315 1.453 . S
C706 C399 1.412 . S
C718 C147 1.479 . S
C733 C483 1.520 . S
C745 C231 1.433 . S
C760 C242 1.642 . S
C772 C494 1.658 . S
C787 C74 1.644 . S
C799 C326 1.651 . S
C814 C410 1.646 . S
C826 C158 1.670 . S
C841 C476 1.113 . S
C853 C58 0.952 . S
C868 C142 1.034 1_455 S
C880 C56 1.038 . S
C895 C226 1.080 1_545 S
C907 C140 1.061 . S
C922 C224 1.044 . S
C934 C310 0.944 . S
C949 C394 0.990 1_655 S
C961 C308 1.124 . S
C976 C478 1.092 1_565 S
C988 C392 1.090 . S
