# Generated by pormake.
# Topology umw, (4)-cn, num edge types: 1
# Building blocks:
#     Node 0, Type 0, BuildingBlock: UXUYUI_clean_sbu_0, # of connection points: 4
#     Node 1, Type 0, BuildingBlock: UXUYUI_clean_sbu_0, # of connection points: 4
#     Node 2, Type 0, BuildingBlock: UXUYUI_clean_sbu_0, # of connection points: 4
#     Node 3, Type 0, BuildingBlock: UXUYUI_clean_sbu_0, # of connection points: 4
#     Node 4, Type 0, BuildingBlock: UXUYUI_clean_sbu_0, # of connection points: 4
#     Node 5, Type 0, BuildingBlock: UXUYUI_clean_sbu_0, # of connection points: 4
#     Node 6, Type 0, BuildingBlock: UXUYUI_clean_sbu_0, # of connection points: 4
#     Node 7, Type 0, BuildingBlock: UXUYUI_clean_sbu_0, # of connection points: 4
#     Edge 8, Type (0, 0), BuildingBlock: UVAHIK_clean_linker_0, # of connection points: 2
#     Edge 9, Type (0, 0), BuildingBlock: UVAHIK_clean_linker_0, # of connection points: 2
#     Edge 10, Type (0, 0), BuildingBlock: UVAHIK_clean_linker_0, # of connection points: 2
#     Edge 11, Type (0, 0), BuildingBlock: UVAHIK_clean_linker_0, # of connection points: 2
#     Edge 12, Type (0, 0), BuildingBlock: UVAHIK_clean_linker_0, # of connection points: 2
#     Edge 13, Type (0, 0), BuildingBlock: UVAHIK_clean_linker_0, # of connection points: 2
#     Edge 14, Type (0, 0), BuildingBlock: UVAHIK_clean_linker_0, # of connection points: 2
#     Edge 15, Type (0, 0), BuildingBlock: UVAHIK_clean_linker_0, # of connection points: 2
#     Edge 16, Type (0, 0), BuildingBlock: UVAHIK_clean_linker_0, # of connection points: 2
#     Edge 17, Type (0, 0), BuildingBlock: UVAHIK_clean_linker_0, # of connection points: 2
#     Edge 18, Type (0, 0), BuildingBlock: UVAHIK_clean_linker_0, # of connection points: 2
#     Edge 19, Type (0, 0), BuildingBlock: UVAHIK_clean_linker_0, # of connection points: 2
#     Edge 20, Type (0, 0), BuildingBlock: UVAHIK_clean_linker_0, # of connection points: 2
#     Edge 21, Type (0, 0), BuildingBlock: UVAHIK_clean_linker_0, # of connection points: 2
#     Edge 22, Type (0, 0), BuildingBlock: UVAHIK_clean_linker_0, # of connection points: 2
#     Edge 23, Type (0, 0), BuildingBlock: UVAHIK_clean_linker_0, # of connection points: 2
# Relax obj value: 0.239
# Max RMSD: 0.148
# Mean RMSD: 0.148
data_MOF--net-umw--node1-UXUYUI_clean_sbu_0--edge1-UVAHIK_clean_linker_0
_symmetry_space_group_name_H-M    P1
_symmetry_Int_Tables_number       1
_symmetry_cell_setting            triclinic
loop_
_symmetry_equiv_pos_as_xyz
'x, y, z'
_cell_length_a     75.538022
_cell_length_b     75.509683
_cell_length_c     41.725081
_cell_angle_alpha  90.011796
_cell_angle_beta   90.022037
_cell_angle_gamma 89.986212
loop_
_atom_site_label
_atom_site_type_symbol
_atom_site_fract_x
_atom_site_fract_y
_atom_site_fract_z
_atom_type_partial_charge
Li0 Li 0.38069 0.15212 0.27178 0.0
Li1 Li 0.39887 0.17348 0.30335 0.0
Li2 Li 0.37354 0.18426 0.27254 0.0
Li3 Li 0.39957 0.17449 0.24693 0.0
C4 C 0.36104 0.17322 0.32885 0.0
N5 N 0.33479 0.18784 0.36663 0.0
C6 C 0.36532 0.18582 0.35213 0.0
C7 C 0.34342 0.168 0.32486 0.0
C8 C 0.35185 0.19305 0.37101 0.0
C9 C 0.33033 0.17557 0.34416 0.0
C10 C 0.41932 0.14627 0.29181 0.0
C11 C 0.44881 0.1456 0.31398 0.0
N12 N 0.44453 0.13075 0.3307 0.0
C13 C 0.41525 0.13094 0.30906 0.0
C14 C 0.43626 0.15362 0.2941 0.0
C15 C 0.42818 0.1233 0.32863 0.0
C16 C 0.37782 0.1181 0.24628 0.0
N17 N 0.37202 0.12875 0.2703 0.0
C18 C 0.35574 0.10494 0.29366 0.0
C19 C 0.36119 0.1226 0.29379 0.0
C20 C 0.36162 0.09354 0.26925 0.0
C21 C 0.37272 0.10037 0.24522 0.0
H22 H 0.3868 0.12329 0.22844 0.0
H23 H 0.35711 0.13129 0.31298 0.0
C24 C 0.42402 0.18832 0.34622 0.0
N25 N 0.41174 0.17537 0.34226 0.0
C26 C 0.43436 0.18882 0.37392 0.0
C27 C 0.41875 0.16302 0.39336 0.0
C28 C 0.40873 0.16302 0.36529 0.0
C29 C 0.43193 0.17592 0.39778 0.0
H30 H 0.426 0.19808 0.32769 0.0
H31 H 0.39873 0.15298 0.36153 0.0
C32 C 0.37397 0.17193 0.20372 0.0
N33 N 0.37378 0.17975 0.13903 0.0
C34 C 0.36813 0.18849 0.19309 0.0
C35 C 0.37963 0.15932 0.18145 0.0
C36 C 0.36813 0.19218 0.16028 0.0
C37 C 0.37949 0.16354 0.14885 0.0
C38 C 0.40623 0.20804 0.26144 0.0
C39 C 0.39709 0.22179 0.2463 0.0
C40 C 0.42474 0.20776 0.26066 0.0
C41 C 0.40663 0.23502 0.23052 0.0
C42 C 0.43379 0.22121 0.24456 0.0
N43 N 0.42462 0.23445 0.22996 0.0
C44 C 0.35585 0.21474 0.29267 0.0
C45 C 0.33813 0.19466 0.2629 0.0
C46 C 0.34107 0.225 0.29995 0.0
N47 N 0.35405 0.19979 0.2749 0.0
C48 C 0.32294 0.20447 0.2698 0.0
C49 C 0.3243 0.21966 0.28906 0.0
H50 H 0.36864 0.21818 0.30256 0.0
H51 H 0.33713 0.18249 0.24934 0.0
C52 C 0.4278 0.16471 0.20752 0.0
N53 N 0.41515 0.17736 0.21101 0.0
C54 C 0.44023 0.16593 0.18298 0.0
C55 C 0.42616 0.19295 0.1653 0.0
C56 C 0.41391 0.19114 0.19011 0.0
C57 C 0.43969 0.18033 0.16171 0.0
H58 H 0.42828 0.15363 0.22385 0.0
H59 H 0.40358 0.20088 0.19288 0.0
O60 O 0.37394 0.16648 0.30933 0.0
O61 O 0.40672 0.15425 0.27321 0.0
O62 O 0.37423 0.16814 0.23576 0.0
O63 O 0.39711 0.19505 0.27726 0.0
H64 H 0.37884 0.1902 0.35527 0.0
H65 H 0.33983 0.15848 0.30658 0.0
H66 H 0.35496 0.20289 0.389 0.0
H67 H 0.31663 0.17179 0.34112 0.0
H68 H 0.46192 0.15122 0.31618 0.0
H69 H 0.40219 0.12512 0.30769 0.0
H70 H 0.43961 0.16549 0.28093 0.0
H71 H 0.42518 0.1115 0.34228 0.0
H72 H 0.34714 0.10023 0.31259 0.0
H73 H 0.3779 0.09198 0.22638 0.0
H74 H 0.44446 0.19892 0.3762 0.0
H75 H 0.41623 0.153 0.41136 0.0
H76 H 0.36384 0.19847 0.20998 0.0
H77 H 0.38427 0.14648 0.18926 0.0
H78 H 0.36373 0.20497 0.15173 0.0
H79 H 0.38394 0.15395 0.13136 0.0
H80 H 0.38278 0.22217 0.24641 0.0
H81 H 0.43203 0.19711 0.27188 0.0
H82 H 0.39972 0.24571 0.21859 0.0
H83 H 0.4481 0.22109 0.24357 0.0
H84 H 0.34262 0.23643 0.31537 0.0
H85 H 0.31023 0.19997 0.26094 0.0
H86 H 0.45011 0.15562 0.18063 0.0
H87 H 0.42525 0.20431 0.14954 0.0
Li88 Li 0.82403 0.40289 0.54593 0.0
Li89 Li 0.84514 0.3817 0.51939 0.0
Li90 Li 0.82403 0.39959 0.48745 0.0
Li91 Li 0.81389 0.37637 0.52086 0.0
C92 C 0.85593 0.42054 0.52144 0.0
N93 N 0.8814 0.44592 0.53397 0.0
C94 C 0.87045 0.41651 0.54092 0.0
C95 C 0.85446 0.43749 0.50816 0.0
C96 C 0.88315 0.42952 0.54702 0.0
C97 C 0.86744 0.45014 0.51484 0.0
C98 C 0.82467 0.36524 0.57727 0.0
C99 C 0.82362 0.33425 0.59116 0.0
N100 N 0.81176 0.33799 0.61474 0.0
C101 C 0.81259 0.36879 0.6018 0.0
C102 C 0.83033 0.34785 0.57199 0.0
C103 C 0.80618 0.35482 0.62043 0.0
C104 C 0.80378 0.41961 0.59351 0.0
N105 N 0.82051 0.41808 0.5818 0.0
C106 C 0.83177 0.43623 0.62401 0.0
C107 C 0.83441 0.42612 0.59647 0.0
C108 C 0.81467 0.4379 0.63687 0.0
C109 C 0.80052 0.42956 0.62108 0.0
H110 H 0.793 0.41271 0.58188 0.0
H111 H 0.84761 0.4244 0.58732 0.0
C112 C 0.87942 0.37459 0.49621 0.0
N113 N 0.8684 0.37267 0.52168 0.0
C114 C 0.89732 0.37026 0.49911 0.0
C115 C 0.89195 0.36154 0.55404 0.0
C116 C 0.8742 0.36606 0.55009 0.0
C117 C 0.90385 0.364 0.52857 0.0
H118 H 0.87442 0.38016 0.47409 0.0
H119 H 0.8652 0.36501 0.57012 0.0
C120 C 0.79415 0.41558 0.5135 0.0
N121 N 0.77551 0.44676 0.50566 0.0
C122 C 0.77589 0.41516 0.50819 0.0
C123 C 0.80292 0.43184 0.5149 0.0
C124 C 0.7667 0.43107 0.50425 0.0
C125 C 0.79327 0.44747 0.51087 0.0
C126 C 0.82102 0.36718 0.45711 0.0
C127 C 0.80295 0.37052 0.45308 0.0
C128 C 0.83009 0.35718 0.43421 0.0
C129 C 0.79426 0.36383 0.42612 0.0
C130 C 0.82093 0.35071 0.40757 0.0
N131 N 0.80335 0.35414 0.40411 0.0
C132 C 0.83626 0.41994 0.43605 0.0
C133 C 0.80529 0.41497 0.43533 0.0
C134 C 0.83494 0.43128 0.40977 0.0
N135 N 0.8215 0.41243 0.44869 0.0
C136 C 0.80336 0.42607 0.40884 0.0
C137 C 0.81826 0.43472 0.39611 0.0
H138 H 0.849 0.41757 0.44707 0.0
H139 H 0.79377 0.4087 0.44565 0.0
C140 C 0.78218 0.36407 0.54417 0.0
N141 N 0.79654 0.35871 0.5272 0.0
C142 C 0.76999 0.35172 0.55523 0.0
C143 C 0.78709 0.32859 0.52967 0.0
C144 C 0.79903 0.34145 0.51908 0.0
C145 C 0.77256 0.33365 0.54866 0.0
H146 H 0.78078 0.37786 0.55066 0.0
H147 H 0.81071 0.33761 0.5058 0.0
O148 O 0.84352 0.40784 0.5146 0.0
O149 O 0.83068 0.37866 0.55814 0.0
O150 O 0.8033 0.40005 0.5169 0.0
O151 O 0.82991 0.37359 0.48322 0.0
H152 H 0.87175 0.4036 0.55177 0.0
H153 H 0.84345 0.44088 0.49276 0.0
H154 H 0.89438 0.42658 0.56222 0.0
H155 H 0.86644 0.46329 0.50475 0.0
H156 H 0.82775 0.32071 0.58716 0.0
H157 H 0.80805 0.38216 0.60616 0.0
H158 H 0.83955 0.34486 0.5529 0.0
H159 H 0.79671 0.35736 0.63933 0.0
H160 H 0.84304 0.44256 0.63522 0.0
H161 H 0.78717 0.43024 0.63046 0.0
H162 H 0.90609 0.37259 0.47901 0.0
H163 H 0.89641 0.35662 0.57704 0.0
H164 H 0.76892 0.40265 0.50694 0.0
H165 H 0.81698 0.4324 0.51923 0.0
H166 H 0.75257 0.43095 0.50005 0.0
H167 H 0.79991 0.46015 0.51191 0.0
H168 H 0.79566 0.3782 0.47051 0.0
H169 H 0.84408 0.35448 0.43699 0.0
H170 H 0.78029 0.36633 0.4227 0.0
H171 H 0.82779 0.34296 0.38965 0.0
H172 H 0.84678 0.43775 0.40107 0.0
H173 H 0.79031 0.42802 0.39871 0.0
H174 H 0.75921 0.35621 0.57027 0.0
H175 H 0.78948 0.31481 0.52387 0.0
Li176 Li 0.5918 0.82591 0.7908 0.0
Li177 Li 0.61234 0.84774 0.76539 0.0
Li178 Li 0.59523 0.82584 0.735 0.0
Li179 Li 0.61917 0.81539 0.76617 0.0
C180 C 0.57158 0.85249 0.77549 0.0
N181 N 0.54213 0.86524 0.80731 0.0
C182 C 0.57248 0.86846 0.79232 0.0
C183 C 0.55561 0.84313 0.77447 0.0
C184 C 0.55746 0.87466 0.80833 0.0
C185 C 0.5409 0.84975 0.79083 0.0
C186 C 0.62869 0.82755 0.82419 0.0
C187 C 0.6586 0.82939 0.84407 0.0
N188 N 0.65492 0.81638 0.86561 0.0
C189 C 0.62515 0.8143 0.84664 0.0
C190 C 0.64549 0.83525 0.82295 0.0
C191 C 0.63861 0.8088 0.86735 0.0
C192 C 0.56502 0.8096 0.82837 0.0
N193 N 0.57675 0.8232 0.82675 0.0
C194 C 0.56685 0.83453 0.87703 0.0
C195 C 0.57799 0.83547 0.85045 0.0
C196 C 0.55439 0.82077 0.87924 0.0
C197 C 0.55359 0.80816 0.85452 0.0
H198 H 0.56449 0.79993 0.80933 0.0
H199 H 0.5875 0.84612 0.84843 0.0
C200 C 0.62968 0.87831 0.74253 0.0
N201 N 0.62223 0.8706 0.76863 0.0
C202 C 0.63617 0.89557 0.74438 0.0
C203 C 0.62772 0.89636 0.80027 0.0
C204 C 0.62148 0.87904 0.79735 0.0
C205 C 0.63493 0.90496 0.7734 0.0
H206 H 0.63042 0.87113 0.72018 0.0
H207 H 0.61562 0.87245 0.81778 0.0
C208 C 0.58856 0.79188 0.74482 0.0
N209 N 0.57471 0.76582 0.70563 0.0
C210 C 0.5998 0.77978 0.72967 0.0
C211 C 0.57027 0.79066 0.74016 0.0
C212 C 0.59254 0.7667 0.70996 0.0
C213 C 0.56353 0.77742 0.72018 0.0
C214 C 0.62371 0.82988 0.6983 0.0
C215 C 0.63214 0.81468 0.68678 0.0
C216 C 0.61777 0.84275 0.67675 0.0
C217 C 0.63443 0.81258 0.65377 0.0
C218 C 0.62027 0.84013 0.64392 0.0
N219 N 0.62848 0.82523 0.63321 0.0
C220 C 0.56862 0.83466 0.69118 0.0
C221 C 0.58622 0.81068 0.67326 0.0
C222 C 0.55791 0.8334 0.66413 0.0
N223 N 0.58229 0.82323 0.69558 0.0
C224 C 0.5759 0.80901 0.64563 0.0
C225 C 0.56141 0.82039 0.64092 0.0
H226 H 0.56589 0.84474 0.70881 0.0
H227 H 0.5973 0.8019 0.67687 0.0
C228 C 0.6349 0.78446 0.78911 0.0
N229 N 0.63824 0.79975 0.77312 0.0
C230 C 0.64883 0.77368 0.79898 0.0
C231 C 0.66937 0.79453 0.77542 0.0
C232 C 0.655 0.80488 0.76583 0.0
C233 C 0.66635 0.77882 0.79257 0.0
H234 H 0.62142 0.78101 0.79528 0.0
H235 H 0.6572 0.81732 0.75363 0.0
O236 O 0.58625 0.84596 0.76027 0.0
O237 O 0.6159 0.83264 0.80295 0.0
O238 O 0.59542 0.80474 0.76431 0.0
O239 O 0.62132 0.83213 0.73052 0.0
H240 H 0.58463 0.87598 0.7931 0.0
H241 H 0.55466 0.83076 0.76151 0.0
H242 H 0.55801 0.88696 0.8216 0.0
H243 H 0.52852 0.84255 0.79049 0.0
H244 H 0.67171 0.83512 0.84324 0.0
H245 H 0.61221 0.80816 0.84775 0.0
H246 H 0.64843 0.84548 0.80556 0.0
H247 H 0.63611 0.79846 0.88471 0.0
H248 H 0.56777 0.84465 0.89536 0.0
H249 H 0.54435 0.79721 0.85552 0.0
H250 H 0.64194 0.90155 0.72324 0.0
H251 H 0.62635 0.90312 0.82302 0.0
H252 H 0.61398 0.7806 0.7327 0.0
H253 H 0.56137 0.79994 0.75153 0.0
H254 H 0.60109 0.75731 0.69796 0.0
H255 H 0.54942 0.7764 0.71619 0.0
H256 H 0.63673 0.80455 0.70311 0.0
H257 H 0.61101 0.85449 0.68526 0.0
H258 H 0.64087 0.80085 0.64449 0.0
H259 H 0.61563 0.84992 0.62695 0.0
H260 H 0.54677 0.84234 0.66182 0.0
H261 H 0.57928 0.79897 0.62815 0.0
H262 H 0.64595 0.76184 0.81268 0.0
H263 H 0.68269 0.79891 0.76995 0.0
Li264 Li 0.15212 0.61046 0.00386 0.0
Li265 Li 0.16903 0.58979 0.03834 0.0
Li266 Li 0.18224 0.6158 0.0171 0.0
Li267 Li 0.17575 0.59238 0.98191 0.0
C268 C 0.16344 0.62991 0.06359 0.0
N269 N 0.1681 0.66153 0.09587 0.0
C270 C 0.1703 0.62997 0.0947 0.0
C271 C 0.15879 0.64592 0.049 0.0
C272 C 0.17262 0.6461 0.11057 0.0
C273 C 0.16126 0.66177 0.06571 0.0
C274 C 0.13744 0.57697 0.01045 0.0
C275 C 0.11322 0.55671 0.00183 0.0
N276 N 0.10506 0.56314 0.02845 0.0
C277 C 0.12882 0.58335 0.03779 0.0
C278 C 0.12959 0.56353 0.99234 0.0
C279 C 0.11246 0.5762 0.04646 0.0
C280 C 0.12187 0.6164 0.96668 0.0
N281 N 0.12909 0.61926 0.99604 0.0
C282 C 0.1015 0.6298 0.01635 0.0
C283 C 0.11943 0.62607 0.02059 0.0
C284 C 0.09346 0.62627 0.98669 0.0
C285 C 0.10395 0.61985 0.96142 0.0
H286 H 0.12987 0.61069 0.94781 0.0
H287 H 0.12538 0.6277 0.04396 0.0
C288 C 0.18094 0.57895 0.09785 0.0
N289 N 0.16926 0.57444 0.07449 0.0
C290 C 0.18263 0.56854 0.12527 0.0
C291 C 0.16043 0.54876 0.10385 0.0
C292 C 0.15933 0.55947 0.07667 0.0
C293 C 0.17218 0.55326 0.12871 0.0
H294 H 0.18916 0.59056 0.09488 0.0
H295 H 0.15066 0.55566 0.05731 0.0
C296 C 0.18311 0.62414 0.95204 0.0
N297 N 0.20714 0.63626 0.9072 0.0
C298 C 0.20114 0.62038 0.95548 0.0
C299 C 0.17732 0.63409 0.92582 0.0
C300 C 0.21307 0.62662 0.93255 0.0
C301 C 0.18967 0.6401 0.9034 0.0
C302 C 0.20081 0.57578 0.01972 0.0
C303 C 0.21881 0.5748 0.02721 0.0
C304 C 0.19132 0.56022 0.01376 0.0
C305 C 0.22706 0.55826 0.02857 0.0
C306 C 0.20005 0.54393 0.01535 0.0
N307 N 0.21758 0.54329 0.02265 0.0
C308 C 0.20951 0.6284 0.05402 0.0
C309 C 0.19828 0.65025 0.01856 0.0
C310 C 0.22013 0.64088 0.06922 0.0
N311 N 0.19865 0.63335 0.02971 0.0
C312 C 0.20872 0.66323 0.03312 0.0
C313 C 0.21956 0.65863 0.05925 0.0
H314 H 0.20922 0.6149 0.06265 0.0
H315 H 0.1893 0.65381 -0.00058 0.0
C316 C 0.16941 0.57148 0.92825 0.0
N317 N 0.18263 0.57898 0.94559 0.0
C318 C 0.17336 0.55956 0.90376 0.0
C319 C 0.20452 0.56401 0.91439 0.0
C320 C 0.19996 0.57578 0.93884 0.0
C321 C 0.1911 0.55544 0.89702 0.0
H322 H 0.15577 0.57441 0.93406 0.0
H323 H 0.21023 0.58186 0.95314 0.0
O324 O 0.1616 0.61432 0.0472 0.0
O325 O 0.15327 0.58405 0.00091 0.0
O326 O 0.17106 0.61819 0.97403 0.0
O327 O 0.19268 0.59197 0.01838 0.0
H328 H 0.1739 0.61773 0.10642 0.0
H329 H 0.15365 0.64613 0.02479 0.0
H330 H 0.17803 0.64636 0.13458 0.0
H331 H 0.15787 0.67426 0.05461 0.0
H332 H 0.10699 0.54631 0.98801 0.0
H333 H 0.13469 0.59366 0.05228 0.0
H334 H 0.13606 0.55841 0.97114 0.0
H335 H 0.10565 0.58104 0.06752 0.0
H336 H 0.09383 0.6344 0.03663 0.0
H337 H 0.09823 0.61701 0.93817 0.0
H338 H 0.19222 0.57229 0.14332 0.0
H339 H 0.15205 0.53717 0.1054 0.0
H340 H 0.20592 0.61275 0.97559 0.0
H341 H 0.16341 0.63711 0.92282 0.0
H342 H 0.22705 0.62379 0.93492 0.0
H343 H 0.18537 0.6478 0.88298 0.0
H344 H 0.22633 0.58673 0.0319 0.0
H345 H 0.1774 0.56064 0.00789 0.0
H346 H 0.24099 0.55731 0.03432 0.0
H347 H 0.19287 0.5318 0.01076 0.0
H348 H 0.22803 0.6368 0.08959 0.0
H349 H 0.20801 0.67675 0.02458 0.0
H350 H 0.16264 0.55343 0.89055 0.0
H351 H 0.21835 0.56109 0.91003 0.0
Li352 Li 0.39707 0.82097 0.29749 0.0
Li353 Li 0.3713 0.81599 0.267 0.0
Li354 Li 0.39987 0.82484 0.23984 0.0
Li355 Li 0.3815 0.84545 0.27343 0.0
C356 C 0.40295 0.78818 0.27393 0.0
N357 N 0.4211 0.75863 0.29516 0.0
C358 C 0.3973 0.77918 0.30135 0.0
C359 C 0.4178 0.78209 0.25723 0.0
C360 C 0.40667 0.7643 0.31174 0.0
C361 C 0.4268 0.76714 0.26836 0.0
C362 C 0.35803 0.82326 0.32181 0.0
C363 C 0.32621 0.82274 0.32664 0.0
N364 N 0.32754 0.80965 0.34889 0.0
C365 C 0.35909 0.80985 0.34483 0.0
C366 C 0.34147 0.82982 0.31274 0.0
C367 C 0.34352 0.80314 0.35822 0.0
C368 C 0.40597 0.82144 0.3629 0.0
N369 N 0.41126 0.81514 0.33392 0.0
C370 C 0.43855 0.80494 0.35628 0.0
C371 C 0.42722 0.80705 0.33018 0.0
C372 C 0.43358 0.81166 0.38629 0.0
C373 C 0.417 0.81983 0.38957 0.0
H374 H 0.39352 0.8284 0.365 0.0
H375 H 0.43157 0.80299 0.30666 0.0
C376 C 0.3396 0.80682 0.23645 0.0
N377 N 0.35095 0.80166 0.25992 0.0
C378 C 0.32536 0.7961 0.22787 0.0
C379 C 0.33448 0.77506 0.26829 0.0
C380 C 0.34854 0.78624 0.27614 0.0
C381 C 0.32288 0.77981 0.24342 0.0
H382 H 0.34194 0.81896 0.22353 0.0
H383 H 0.35773 0.78239 0.29464 0.0
C384 C 0.42018 0.84752 0.29326 0.0
N385 N 0.44598 0.85872 0.33557 0.0
C386 C 0.41571 0.85848 0.31901 0.0
C387 C 0.43778 0.84234 0.28888 0.0
C388 C 0.42895 0.86398 0.34017 0.0
C389 C 0.45063 0.84814 0.31057 0.0
C390 C 0.36898 0.84743 0.21433 0.0
C391 C 0.37921 0.85435 0.1894 0.0
C392 C 0.35254 0.85502 0.22131 0.0
C393 C 0.37292 0.86891 0.17213 0.0
C394 C 0.34673 0.86959 0.20354 0.0
N395 N 0.35697 0.87618 0.17953 0.0
C396 C 0.41205 0.80977 0.18191 0.0
C397 C 0.42761 0.8352 0.19977 0.0
C398 C 0.42306 0.80838 0.15514 0.0
N399 N 0.41463 0.82295 0.20359 0.0
C400 C 0.43891 0.83433 0.17341 0.0
C401 C 0.43677 0.82074 0.15073 0.0
H402 H 0.40152 0.80028 0.1856 0.0
H403 H 0.42909 0.84574 0.21711 0.0
C404 C 0.36279 0.8756 0.29705 0.0
N405 N 0.37555 0.86973 0.27668 0.0
C406 C 0.35805 0.89349 0.29729 0.0
C407 C 0.37992 0.89885 0.25607 0.0
C408 C 0.38438 0.88097 0.25693 0.0
C409 C 0.3665 0.90526 0.27621 0.0
H410 H 0.3562 0.8664 0.31286 0.0
H411 H 0.39467 0.87592 0.24141 0.0
O412 O 0.39396 0.80276 0.26325 0.0
O413 O 0.37311 0.82982 0.30805 0.0
O414 O 0.4073 0.84149 0.27297 0.0
O415 O 0.3751 0.8334 0.23196 0.0
H416 H 0.38605 0.78385 0.31489 0.0
H417 H 0.42242 0.7889 0.23603 0.0
H418 H 0.40252 0.7573 0.33307 0.0
H419 H 0.43834 0.76232 0.25572 0.0
H420 H 0.3133 0.82762 0.31966 0.0
H421 H 0.37176 0.80455 0.35211 0.0
H422 H 0.34037 0.84011 0.29484 0.0
H423 H 0.34415 0.7927 0.37594 0.0
H424 H 0.45142 0.79894 0.35268 0.0
H425 H 0.41277 0.82526 0.41235 0.0
H426 H 0.31693 0.80013 0.20817 0.0
H427 H 0.33295 0.76266 0.28101 0.0
H428 H 0.40212 0.86247 0.3229 0.0
H429 H 0.44142 0.83369 0.26928 0.0
H430 H 0.42567 0.87235 0.36035 0.0
H431 H 0.46428 0.84413 0.30764 0.0
H432 H 0.39193 0.84865 0.18353 0.0
H433 H 0.34446 0.84991 0.24057 0.0
H434 H 0.38075 0.87445 0.15289 0.0
H435 H 0.33412 0.87569 0.20891 0.0
H436 H 0.42103 0.79763 0.13835 0.0
H437 H 0.44906 0.84433 0.17061 0.0
H438 H 0.34767 0.89799 0.31323 0.0
H439 H 0.38696 0.9076 0.23992 0.0
Li440 Li 0.17731 0.40009 0.55451 0.0
Li441 Li 0.18111 0.37673 0.51438 0.0
Li442 Li 0.17185 0.40567 0.49901 0.0
Li443 Li 0.15199 0.38708 0.52776 0.0
C444 C 0.20541 0.41211 0.50826 0.0
N445 N 0.22609 0.43921 0.48431 0.0
C446 C 0.21774 0.4087 0.48408 0.0
C447 C 0.20365 0.42928 0.52038 0.0
C448 C 0.22806 0.42259 0.47226 0.0
C449 C 0.21422 0.44281 0.50793 0.0
C450 C 0.17893 0.36582 0.57858 0.0
C451 C 0.18133 0.34536 0.62275 0.0
N452 N 0.19921 0.34751 0.62265 0.0
C453 C 0.19733 0.36782 0.5789 0.0
C454 C 0.17085 0.35451 0.60067 0.0
C455 C 0.20734 0.35846 0.60138 0.0
C456 C 0.17255 0.41537 0.61427 0.0
N457 N 0.18524 0.41004 0.59337 0.0
C458 C 0.20802 0.42163 0.62705 0.0
C459 C 0.20273 0.41273 0.59931 0.0
C460 C 0.19516 0.42774 0.64874 0.0
C461 C 0.17723 0.42427 0.64226 0.0
H462 H 0.15875 0.41308 0.60869 0.0
H463 H 0.21252 0.40833 0.58217 0.0
C464 C 0.19995 0.35993 0.46817 0.0
N465 N 0.19379 0.35709 0.49829 0.0
C466 C 0.20737 0.34612 0.45072 0.0
C467 C 0.20233 0.32666 0.49586 0.0
C468 C 0.19479 0.34089 0.51241 0.0
C469 C 0.20844 0.32919 0.4644 0.0
H470 H 0.19843 0.37283 0.45729 0.0
H471 H 0.18917 0.33879 0.53591 0.0
C472 C 0.14238 0.42246 0.52704 0.0
N473 N 0.11311 0.44225 0.50985 0.0
C474 C 0.13484 0.42046 0.49666 0.0
C475 C 0.13504 0.43452 0.54867 0.0
C476 C 0.12004 0.43059 0.48842 0.0
C477 C 0.12024 0.44441 0.53953 0.0
C478 C 0.15509 0.368 0.47129 0.0
C479 C 0.15185 0.36725 0.43835 0.0
C480 C 0.1516 0.35318 0.49036 0.0
C481 C 0.14512 0.35168 0.425 0.0
C482 C 0.14488 0.33786 0.47611 0.0
N483 N 0.14181 0.33742 0.444 0.0
C484 C 0.17964 0.41516 0.43655 0.0
C485 C 0.1706 0.43966 0.46811 0.0
C486 C 0.18124 0.42592 0.4096 0.0
N487 N 0.17422 0.42212 0.46489 0.0
C488 C 0.17179 0.4509 0.44162 0.0
C489 C 0.17698 0.44401 0.41172 0.0
H490 H 0.18264 0.40119 0.43491 0.0
H491 H 0.16653 0.44487 0.4911 0.0
C492 C 0.12194 0.37561 0.56219 0.0
N493 N 0.12794 0.38041 0.53276 0.0
C494 C 0.10422 0.37083 0.56639 0.0
C495 C 0.09932 0.376 0.50988 0.0
C496 C 0.11708 0.38063 0.5068 0.0
C497 C 0.09265 0.37103 0.53998 0.0
H498 H 0.13092 0.37555 0.58239 0.0
H499 H 0.12215 0.38452 0.48365 0.0
O500 O 0.19483 0.39881 0.51956 0.0
O501 O 0.16872 0.3749 0.55704 0.0
O502 O 0.15682 0.41266 0.53586 0.0
O503 O 0.16194 0.38313 0.48446 0.0
H504 H 0.21931 0.39549 0.47449 0.0
H505 H 0.194 0.43219 0.53882 0.0
H506 H 0.23762 0.42016 0.45347 0.0
H507 H 0.21292 0.45618 0.51693 0.0
H508 H 0.17525 0.33656 0.63999 0.0
H509 H 0.20388 0.37641 0.56194 0.0
H510 H 0.15662 0.35282 0.60073 0.0
H511 H 0.22159 0.35987 0.60187 0.0
H512 H 0.22199 0.42389 0.63129 0.0
H513 H 0.16686 0.42898 0.65803 0.0
H514 H 0.21208 0.34862 0.42662 0.0
H515 H 0.20279 0.31372 0.50702 0.0
H516 H 0.14034 0.41123 0.47955 0.0
H517 H 0.14073 0.43622 0.57229 0.0
H518 H 0.11408 0.42917 0.46499 0.0
H519 H 0.11442 0.4538 0.55605 0.0
H520 H 0.15455 0.3786 0.42326 0.0
H521 H 0.15408 0.35345 0.51587 0.0
H522 H 0.14256 0.35091 0.39953 0.0
H523 H 0.14213 0.32629 0.49057 0.0
H524 H 0.18572 0.42009 0.38733 0.0
H525 H 0.16823 0.4647 0.44441 0.0
H526 H 0.09966 0.36695 0.58996 0.0
H527 H 0.09084 0.37668 0.48899 0.0
Li528 Li 0.61849 0.18068 0.77204 0.0
Li529 Li 0.59641 0.17087 0.80793 0.0
Li530 Li 0.61512 0.15012 0.78055 0.0
Li531 Li 0.59286 0.16669 0.74946 0.0
C532 C 0.62809 0.17915 0.8362 0.0
N533 N 0.63947 0.20199 0.88369 0.0
C534 C 0.62221 0.19671 0.83668 0.0
C535 C 0.63975 0.17322 0.85988 0.0
C536 C 0.62812 0.20805 0.86088 0.0
C537 C 0.64536 0.18497 0.88369 0.0
C538 C 0.5775 0.19682 0.77351 0.0
C539 C 0.5458 0.19454 0.77912 0.0
N540 N 0.54428 0.21214 0.77273 0.0
C541 C 0.57562 0.21486 0.76692 0.0
C542 C 0.56247 0.18654 0.7796 0.0
C543 C 0.55871 0.22237 0.76667 0.0
C544 C 0.62937 0.21037 0.739 0.0
N545 N 0.63483 0.1988 0.76183 0.0
C546 C 0.66388 0.21121 0.76153 0.0
C547 C 0.65159 0.19914 0.77366 0.0
C548 C 0.6588 0.2229 0.73695 0.0
C549 C 0.64119 0.22256 0.7261 0.0
H550 H 0.61602 0.20951 0.72973 0.0
H551 H 0.65563 0.18956 0.79149 0.0
C552 C 0.58246 0.16164 0.86772 0.0
N553 N 0.58427 0.17539 0.84699 0.0
C554 C 0.57269 0.16371 0.89584 0.0
C555 C 0.5675 0.19429 0.88142 0.0
C556 C 0.57751 0.19167 0.85375 0.0
C557 C 0.56476 0.18011 0.90258 0.0
H558 H 0.58846 0.14902 0.86218 0.0
H559 H 0.57969 0.2026 0.83757 0.0
C560 C 0.63261 0.16554 0.72154 0.0
N561 N 0.66288 0.17456 0.68815 0.0
C562 C 0.63132 0.17377 0.69164 0.0
C563 C 0.64929 0.16174 0.73433 0.0
C564 C 0.64678 0.17828 0.67518 0.0
C565 C 0.66444 0.16643 0.7171 0.0
C566 C 0.5853 0.13177 0.78017 0.0
C567 C 0.58861 0.12398 0.75036 0.0
C568 C 0.57924 0.1213 0.80551 0.0
C569 C 0.58593 0.1058 0.74648 0.0
C570 C 0.57671 0.10317 0.80065 0.0
N571 N 0.5801 0.09585 0.77151 0.0
C572 C 0.6255 0.11861 0.81193 0.0
C573 C 0.63253 0.12003 0.75661 0.0
C574 C 0.63115 0.10101 0.81335 0.0
N575 N 0.62601 0.12757 0.7837 0.0
C576 C 0.63849 0.10258 0.75701 0.0
C577 C 0.63743 0.09266 0.78543 0.0
H578 H 0.61996 0.1249 0.83295 0.0
H579 H 0.63245 0.12732 0.73434 0.0
C580 C 0.57876 0.17947 0.69204 0.0
N581 N 0.57642 0.16703 0.71515 0.0
C582 C 0.5668 0.1808 0.66667 0.0
C583 C 0.55004 0.1567 0.68977 0.0
C584 C 0.56229 0.15589 0.71476 0.0
C585 C 0.55224 0.16925 0.66526 0.0
H586 H 0.58984 0.18851 0.69357 0.0
H587 H 0.56035 0.14657 0.73407 0.0
O588 O 0.62247 0.16765 0.81295 0.0
O589 O 0.59402 0.18935 0.7734 0.0
O590 O 0.61765 0.16152 0.73854 0.0
O591 O 0.5885 0.14944 0.78468 0.0
H592 H 0.61323 0.20161 0.81861 0.0
H593 H 0.6444 0.15965 0.85987 0.0
H594 H 0.62367 0.22166 0.86153 0.0
H595 H 0.65438 0.18055 0.90217 0.0
H596 H 0.53407 0.18676 0.78383 0.0
H597 H 0.58712 0.22298 0.76204 0.0
H598 H 0.56361 0.17256 0.78473 0.0
H599 H 0.55706 0.23632 0.76164 0.0
H600 H 0.67727 0.21113 0.77077 0.0
H601 H 0.63677 0.23106 0.70679 0.0
H602 H 0.5709 0.15246 0.91161 0.0
H603 H 0.5619 0.20723 0.88616 0.0
H604 H 0.61854 0.17675 0.68131 0.0
H605 H 0.65053 0.15553 0.7576 0.0
H606 H 0.64598 0.18476 0.6521 0.0
H607 H 0.67743 0.16371 0.72684 0.0
H608 H 0.59348 0.13185 0.73056 0.0
H609 H 0.57653 0.12707 0.82869 0.0
H610 H 0.58858 0.09959 0.72362 0.0
H611 H 0.57207 0.0949 0.82009 0.0
H612 H 0.62986 0.09381 0.83566 0.0
H613 H 0.64345 0.09679 0.73503 0.0
H614 H 0.569 0.19066 0.64824 0.0
H615 H 0.53878 0.14782 0.68996 0.0
Li616 Li 0.81386 0.61733 0.01179 0.0
Li617 Li 0.82 0.59558 0.05329 0.0
Li618 Li 0.84366 0.60578 0.01954 0.0
Li619 Li 0.81977 0.58679 -0.00086 0.0
C620 C 0.82199 0.63123 0.07207 0.0
N621 N 0.80633 0.65346 0.11641 0.0
C622 C 0.80444 0.62846 0.08149 0.0
C623 C 0.83157 0.64529 0.08526 0.0
C624 C 0.79677 0.63984 0.10393 0.0
C625 C 0.82342 0.65639 0.10761 0.0
C626 C 0.78595 0.58647 0.01175 0.0
C627 C 0.77174 0.55815 0.00406 0.0
N628 N 0.75916 0.56608 0.98569 0.0
C629 C 0.77271 0.59436 0.99318 0.0
C630 C 0.78531 0.56825 0.01761 0.0
C631 C 0.75934 0.58382 0.98008 0.0
C632 C 0.7949 0.63372 0.96524 0.0
N633 N 0.8009 0.63689 0.99538 0.0
C634 C 0.78866 0.66609 0.99428 0.0
C635 C 0.79819 0.65277 0.00999 0.0
C636 C 0.78202 0.66297 0.9633 0.0
C637 C 0.78543 0.64658 0.94871 0.0
H638 H 0.79754 0.62109 0.954 0.0
H639 H 0.80343 0.65521 0.03365 0.0
C640 C 0.82813 0.58986 0.1181 0.0
N641 N 0.81526 0.58774 0.09567 0.0
C642 C 0.82717 0.58069 0.14705 0.0
C643 C 0.79885 0.56885 0.13053 0.0
C644 C 0.80045 0.57811 0.10175 0.0
C645 C 0.81268 0.56951 0.15297 0.0
H646 H 0.83971 0.59772 0.11257 0.0
H647 H 0.79035 0.57681 0.0836 0.0
C648 C 0.83701 0.62148 0.96096 0.0
N649 N 0.85075 0.64863 0.92425 0.0
C650 C 0.83867 0.61946 0.92781 0.0
C651 C 0.84232 0.63731 0.97546 0.0
C652 C 0.84566 0.63334 0.90966 0.0
C653 C 0.84924 0.65087 0.95647 0.0
C654 C 0.84448 0.57025 0.05443 0.0
C655 C 0.86043 0.57434 0.06973 0.0
C656 C 0.83494 0.55528 0.06398 0.0
C657 C 0.86644 0.56353 0.09465 0.0
C658 C 0.84136 0.54484 0.08907 0.0
N659 N 0.85685 0.54915 0.10376 0.0
C660 C 0.87695 0.62036 0.03751 0.0
C661 C 0.87611 0.60431 0.98867 0.0
C662 C 0.8951 0.62333 0.0339 0.0
N663 N 0.86797 0.61085 0.01514 0.0
C664 C 0.89414 0.60711 0.98393 0.0
C665 C 0.90396 0.61653 0.00691 0.0
H666 H 0.87006 0.62532 0.05839 0.0
H667 H 0.86855 0.59684 0.97128 0.0
C668 C 0.80677 0.57448 0.94069 0.0
N669 N 0.81483 0.56919 0.96817 0.0
C670 C 0.8035 0.56232 0.91624 0.0
C671 C 0.81663 0.53945 0.94914 0.0
C672 C 0.81973 0.55208 0.97289 0.0
C673 C 0.8086 0.54455 0.92017 0.0
H674 H 0.80315 0.58824 0.93762 0.0
H675 H 0.82622 0.5483 0.99492 0.0
O676 O 0.82994 0.62026 0.05031 0.0
O677 O 0.79933 0.59654 0.02437 0.0
O678 O 0.8301 0.60799 0.97894 0.0
O679 O 0.83822 0.58089 0.03037 0.0
H680 H 0.79675 0.61771 0.07161 0.0
H681 H 0.84517 0.6476 0.07824 0.0
H682 H 0.7832 0.63786 0.11141 0.0
H683 H 0.83068 0.66733 0.11798 0.0
H684 H 0.77124 0.54401 0.00809 0.0
H685 H 0.77265 0.60848 0.98911 0.0
H686 H 0.79536 0.56191 0.03203 0.0
H687 H 0.74907 0.58976 0.96554 0.0
H688 H 0.78633 0.67857 0.00636 0.0
H689 H 0.78097 0.64373 0.92458 0.0
H690 H 0.838 0.58167 0.16397 0.0
H691 H 0.78749 0.56033 0.13419 0.0
H692 H 0.83458 0.60729 0.91626 0.0
H693 H 0.8411 0.63914 0.00106 0.0
H694 H 0.84702 0.63197 0.88397 0.0
H695 H 0.8534 0.66319 0.96736 0.0
H696 H 0.86803 0.58581 0.0627 0.0
H697 H 0.82257 0.55189 0.05254 0.0
H698 H 0.87871 0.56661 0.10682 0.0
H699 H 0.834 0.53336 0.09695 0.0
H700 H 0.90216 0.63048 0.05241 0.0
H701 H 0.90031 0.60191 0.96247 0.0
H702 H 0.79755 0.56694 0.89415 0.0
H703 H 0.82058 0.52586 0.95336 0.0
C704 C 0.4498 0.15949 0.43879 0.0
C705 C 0.4434 0.17564 0.42668 0.0
C706 C 0.46097 0.15919 0.46546 0.0
C707 C 0.49224 0.18686 0.51062 0.0
H708 H 0.48585 0.15145 0.57692 0.0
C709 C 0.53346 0.18685 0.62722 0.0
C710 C 0.53937 0.17034 0.63848 0.0
C711 C 0.52133 0.18784 0.60201 0.0
C712 C 0.48793 0.1613 0.55844 0.0
H713 H 0.44345 0.20412 0.43348 0.0
H714 H 0.46305 0.20359 0.47999 0.0
H715 H 0.46532 0.15257 0.53187 0.0
H716 H 0.53742 0.14193 0.63183 0.0
H717 H 0.51636 0.14363 0.58769 0.0
H718 H 0.51497 0.19547 0.53696 0.0
C719 C 0.45956 0.19118 0.46858 0.0
C720 C 0.47615 0.16195 0.53267 0.0
C721 C 0.44835 0.19148 0.44195 0.0
C722 C 0.53291 0.15484 0.62398 0.0
C723 C 0.52082 0.15582 0.59873 0.0
C724 C 0.50406 0.18618 0.53635 0.0
C725 C 0.46603 0.17503 0.48056 0.0
C726 C 0.47823 0.17468 0.50841 0.0
C727 C 0.51488 0.17233 0.58746 0.0
C728 C 0.50209 0.17333 0.56048 0.0
H729 H 0.44651 0.14707 0.42724 0.0
H730 H 0.46595 0.14656 0.47382 0.0
H731 H 0.49433 0.19666 0.49206 0.0
H732 H 0.53801 0.19902 0.63822 0.0
H733 H 0.51681 0.20075 0.59421 0.0
C734 C 0.79683 0.45871 0.67108 0.0
C735 C 0.81175 0.44778 0.66716 0.0
C736 C 0.79425 0.46805 0.69962 0.0
C737 C 0.80846 0.46946 0.78468 0.0
H738 H 0.79406 0.51869 0.77987 0.0
C739 C 0.81976 0.51925 0.88691 0.0
C740 C 0.80639 0.53168 0.89354 0.0
C741 C 0.81829 0.50787 0.86069 0.0
C742 C 0.79782 0.50488 0.78165 0.0
H743 H 0.8354 0.43776 0.69048 0.0
H744 H 0.83119 0.45441 0.73973 0.0
H745 H 0.79547 0.501 0.73104 0.0
H746 H 0.78069 0.54144 0.87842 0.0
H747 H 0.77828 0.52169 0.83224 0.0
H748 H 0.81129 0.47353 0.8352 0.0
C749 C 0.82135 0.45562 0.72096 0.0
C750 C 0.79862 0.49474 0.75368 0.0
C751 C 0.82391 0.44627 0.69251 0.0
C752 C 0.79135 0.53221 0.87367 0.0
C753 C 0.78994 0.52089 0.8473 0.0
C754 C 0.80773 0.47963 0.81259 0.0
C755 C 0.80652 0.46665 0.72485 0.0
C756 C 0.80423 0.477 0.75482 0.0
C757 C 0.80348 0.50873 0.84039 0.0
C758 C 0.80267 0.49751 0.81129 0.0
H759 H 0.78728 0.46024 0.65192 0.0
H760 H 0.78261 0.47633 0.70197 0.0
H761 H 0.81249 0.45573 0.78645 0.0
H762 H 0.83167 0.51867 0.90132 0.0
H763 H 0.82907 0.49882 0.85567 0.0
C764 C 0.44216 0.81551 0.09207 0.0
C765 C 0.44879 0.81955 0.1227 0.0
C766 C 0.45348 0.81497 0.06559 0.0
C767 C 0.49663 0.83169 0.03781 0.0
H768 H 0.49245 0.79499 0.97322 0.0
C769 C 0.54852 0.82311 0.93821 0.0
C770 C 0.54226 0.81969 0.90711 0.0
C771 C 0.53703 0.82256 0.96438 0.0
C772 C 0.49366 0.80542 0.99089 0.0
H773 H 0.47258 0.82555 0.14972 0.0
H774 H 0.49229 0.82462 0.10358 0.0
H775 H 0.47247 0.79494 0.01922 0.0
H776 H 0.51901 0.81303 0.87906 0.0
H777 H 0.49891 0.81211 0.92481 0.0
H778 H 0.51774 0.84222 0.00956 0.0
C779 C 0.4783 0.82221 0.09991 0.0
C780 C 0.48222 0.80539 0.01722 0.0
C781 C 0.46701 0.82274 0.12635 0.0
C782 C 0.52428 0.81551 0.90279 0.0
C783 C 0.51277 0.81498 0.92899 0.0
C784 C 0.50804 0.83172 0.01152 0.0
C785 C 0.47165 0.81846 0.0692 0.0
C786 C 0.48363 0.81849 0.04103 0.0
C787 C 0.519 0.81861 0.96005 0.0
C788 C 0.50674 0.81856 0.98783 0.0
H789 H 0.42816 0.81319 0.08842 0.0
H790 H 0.44793 0.81223 0.04217 0.0
H791 H 0.49784 0.84215 0.05543 0.0
H792 H 0.56236 0.82608 0.94237 0.0
H793 H 0.54231 0.82511 0.98807 0.0
C794 C 0.18275 0.47323 0.38452 0.0
C795 C 0.17739 0.45542 0.38267 0.0
C796 C 0.18262 0.48397 0.35724 0.0
C797 C 0.16321 0.48654 0.27559 0.0
H798 H 0.19976 0.52182 0.26206 0.0
C799 C 0.17204 0.52355 0.15589 0.0
C800 C 0.17355 0.54209 0.15794 0.0
C801 C 0.17289 0.5131 0.18345 0.0
C802 C 0.18942 0.51208 0.26569 0.0
H803 H 0.16763 0.43503 0.35048 0.0
H804 H 0.16824 0.45342 0.30291 0.0
H805 H 0.2007 0.5032 0.30988 0.0
H806 H 0.17716 0.5641 0.19082 0.0
H807 H 0.1791 0.54574 0.23877 0.0
H808 H 0.1522 0.4952 0.23098 0.0
C809 C 0.17216 0.45925 0.32553 0.0
C810 C 0.1899 0.50146 0.29311 0.0
C811 C 0.1721 0.44859 0.35281 0.0
C812 C 0.17622 0.54987 0.18822 0.0
C813 C 0.17728 0.53938 0.21573 0.0
C814 C 0.16287 0.49699 0.24803 0.0
C815 C 0.17727 0.47712 0.32741 0.0
C816 C 0.1768 0.48854 0.29839 0.0
C817 C 0.17548 0.52093 0.2136 0.0
C818 C 0.17596 0.50985 0.24283 0.0
H819 H 0.18711 0.47889 0.40702 0.0
H820 H 0.18647 0.49772 0.35967 0.0
H821 H 0.15268 0.47702 0.27915 0.0
H822 H 0.17036 0.51705 0.13296 0.0
H823 H 0.17168 0.49886 0.18115 0.0
C824 C 0.30804 0.24771 0.30116 0.0
C825 C 0.30829 0.22914 0.30012 0.0
C826 C 0.29387 0.25663 0.31526 0.0
C827 C 0.2601 0.25028 0.37681 0.0
H828 H 0.24347 0.29574 0.34584 0.0
C829 C 0.22867 0.30314 0.45844 0.0
C830 C 0.21571 0.31435 0.44543 0.0
C831 C 0.23693 0.29045 0.43919 0.0
C832 C 0.2477 0.28292 0.35463 0.0
H833 H 0.2937 0.20531 0.31209 0.0
H834 H 0.26876 0.22094 0.33638 0.0
H835 H 0.26306 0.27801 0.31251 0.0
H836 H 0.20022 0.32026 0.40302 0.0
H837 H 0.21447 0.29797 0.36952 0.0
H838 H 0.24485 0.2553 0.4191 0.0
C839 C 0.2796 0.22858 0.3265 0.0
C840 C 0.2591 0.27287 0.33565 0.0
C841 C 0.29377 0.21965 0.31229 0.0
C842 C 0.21045 0.312 0.41342 0.0
C843 C 0.21861 0.29927 0.39427 0.0
C844 C 0.24867 0.26034 0.39582 0.0
C845 C 0.27968 0.24715 0.32868 0.0
C846 C 0.26575 0.25665 0.34685 0.0
C847 C 0.23228 0.28868 0.40668 0.0
C848 C 0.24266 0.27695 0.38522 0.0
H849 H 0.31902 0.25534 0.29177 0.0
H850 H 0.29443 0.27094 0.31686 0.0
H851 H 0.2651 0.23789 0.38622 0.0
H852 H 0.23299 0.30474 0.48302 0.0
H853 H 0.24754 0.28262 0.44941 0.0
C854 C 0.76824 0.30491 0.57777 0.0
C855 C 0.76096 0.32028 0.564 0.0
C856 C 0.7577 0.29355 0.59606 0.0
C857 C 0.71878 0.29481 0.64705 0.0
H858 H 0.71789 0.24374 0.63782 0.0
C859 C 0.6671 0.25165 0.71097 0.0
C860 C 0.67194 0.23458 0.72111 0.0
C861 C 0.67883 0.26198 0.69319 0.0
C862 C 0.71822 0.25796 0.64111 0.0
H863 H 0.73668 0.33515 0.55693 0.0
H864 H 0.7184 0.31548 0.58938 0.0
H865 H 0.73652 0.26145 0.60233 0.0
H866 H 0.69314 0.21517 0.72123 0.0
H867 H 0.71389 0.2335 0.69137 0.0
H868 H 0.70082 0.29147 0.6861 0.0
C869 C 0.73229 0.31237 0.58626 0.0
C870 C 0.72881 0.26807 0.62065 0.0
C871 C 0.74276 0.32361 0.56772 0.0
C872 C 0.68904 0.22834 0.71409 0.0
C873 C 0.70085 0.23874 0.69652 0.0
C874 C 0.70838 0.28472 0.66774 0.0
C875 C 0.73975 0.29747 0.60114 0.0
C876 C 0.72898 0.28659 0.62318 0.0
C877 C 0.69577 0.25557 0.68539 0.0
C878 C 0.70778 0.26618 0.66477 0.0
H879 H 0.78225 0.30208 0.57574 0.0
H880 H 0.76375 0.28216 0.60743 0.0
H881 H 0.71897 0.30908 0.64988 0.0
H882 H 0.65411 0.25695 0.71633 0.0
H883 H 0.67438 0.27479 0.68476 0.0
C884 C 0.75682 0.67138 0.92759 0.0
C885 C 0.77155 0.67653 0.94593 0.0
C886 C 0.74756 0.68374 0.90938 0.0
C887 C 0.73739 0.73076 0.90174 0.0
H888 H 0.72389 0.71727 0.81538 0.0
C889 C 0.6956 0.7766 0.82068 0.0
C890 C 0.68128 0.76825 0.80535 0.0
C891 C 0.70884 0.76654 0.83537 0.0
C892 C 0.7275 0.72121 0.83947 0.0
H893 H 0.78784 0.69884 0.96017 0.0
H894 H 0.77134 0.72064 0.92853 0.0
H895 H 0.74263 0.69763 0.84699 0.0
H896 H 0.66997 0.7429 0.79221 0.0
H897 H 0.69287 0.72535 0.8182 0.0
H898 H 0.7218 0.7541 0.89458 0.0
C899 C 0.7671 0.70694 0.92828 0.0
C900 C 0.73823 0.70998 0.85754 0.0
C901 C 0.77647 0.69449 0.94645 0.0
C902 C 0.68077 0.74968 0.80409 0.0
C903 C 0.694 0.73964 0.81869 0.0
C904 C 0.72658 0.742 0.88367 0.0
C905 C 0.75272 0.7016 0.9092 0.0
C906 C 0.74294 0.71445 0.8891 0.0
C907 C 0.70805 0.74795 0.83489 0.0
C908 C 0.7212 0.73714 0.85261 0.0
H909 H 0.75242 0.65773 0.92727 0.0
H910 H 0.73626 0.67933 0.89551 0.0
H911 H 0.74076 0.73448 0.92606 0.0
H912 H 0.69625 0.79091 0.82229 0.0
H913 H 0.71959 0.77331 0.84743 0.0
C914 C 0.24633 0.66869 0.08961 0.0
C915 C 0.22933 0.67231 0.07759 0.0
C916 C 0.25481 0.68077 0.10971 0.0
C917 C 0.25616 0.72731 0.13359 0.0
H918 H 0.27878 0.70877 0.21005 0.0
C919 C 0.29258 0.77316 0.22191 0.0
C920 C 0.3094 0.76721 0.23146 0.0
C921 C 0.28078 0.76165 0.2067 0.0
C922 C 0.2726 0.71415 0.18874 0.0
H923 H 0.20804 0.69161 0.07672 0.0
H924 H 0.22309 0.71291 0.11139 0.0
H925 H 0.2626 0.6888 0.17467 0.0
H926 H 0.32686 0.74443 0.23337 0.0
H927 H 0.30641 0.72443 0.20679 0.0
H928 H 0.2666 0.75256 0.14705 0.0
C929 C 0.22979 0.70069 0.10519 0.0
C930 C 0.26336 0.70271 0.16849 0.0
C931 C 0.22124 0.68855 0.08521 0.0
C932 C 0.31389 0.74935 0.22674 0.0
C933 C 0.30215 0.73788 0.21148 0.0
C934 C 0.26551 0.73875 0.15374 0.0
C935 C 0.24652 0.69676 0.11806 0.0
C936 C 0.25531 0.70914 0.14046 0.0
C937 C 0.28561 0.74398 0.20067 0.0
C938 C 0.27409 0.73223 0.18126 0.0
H939 H 0.25303 0.65643 0.08374 0.0
H940 H 0.26786 0.67757 0.11878 0.0
H941 H 0.25015 0.73258 0.11204 0.0
H942 H 0.28868 0.78682 0.22562 0.0
H943 H 0.26801 0.76667 0.19916 0.0
C944 C 0.35995 0.9341 0.30341 0.0
C945 C 0.36148 0.92418 0.27509 0.0
C946 C 0.35664 0.9523 0.30203 0.0
C947 C 0.36195 0.98999 0.24683 0.0
H948 H 0.33435 0.01518 0.31059 0.0
C949 C 0.35342 0.06539 0.24096 0.0
C950 C 0.35708 0.07442 0.26966 0.0
C951 C 0.35093 0.04708 0.24096 0.0
C952 C 0.34211 0.00829 0.29266 0.0
H953 H 0.35969 0.92515 0.2233 0.0
H954 H 0.35356 0.95682 0.22084 0.0
H955 H 0.33539 0.98282 0.31165 0.0
H956 H 0.36044 0.07136 0.32102 0.0
H957 H 0.356 0.0394 0.32099 0.0
H958 H 0.36885 0.01539 0.22808 0.0
C959 C 0.35542 0.95072 0.24408 0.0
C960 C 0.34275 0.98979 0.2933 0.0
C961 C 0.35889 0.93259 0.24546 0.0
C962 C 0.35743 0.06484 0.29855 0.0
C963 C 0.35489 0.04652 0.29854 0.0
C964 C 0.36123 0.00843 0.2461 0.0
C965 C 0.35464 0.96087 0.2723 0.0
C966 C 0.35285 0.98044 0.27059 0.0
C967 C 0.352 0.03741 0.26966 0.0
C968 C 0.35147 0.01779 0.26919 0.0
H969 H 0.36199 0.92793 0.32655 0.0
H970 H 0.35632 0.95974 0.32421 0.0
H971 H 0.37015 0.98327 0.22936 0.0
H972 H 0.35273 0.07245 0.2184 0.0
H973 H 0.34844 0.04042 0.2184 0.0
C974 C 0.93369 0.35365 0.50959 0.0
C975 C 0.92313 0.36141 0.5335 0.0
C976 C 0.95203 0.3524 0.51357 0.0
C977 C 0.98841 0.37427 0.55599 0.0
H978 H 0.01576 0.33328 0.5299 0.0
C979 C 0.06401 0.37295 0.57028 0.0
C980 C 0.07359 0.36671 0.54371 0.0
C981 C 0.04575 0.3703 0.57224 0.0
C982 C 0.0083 0.34486 0.53712 0.0
H983 H 0.92351 0.37377 0.58047 0.0
H984 H 0.9554 0.37135 0.58755 0.0
H985 H 0.98346 0.33237 0.52687 0.0
H986 H 0.07165 0.35191 0.49927 0.0
H987 H 0.03976 0.34774 0.50222 0.0
H988 H 0.01311 0.38699 0.56544 0.0
C989 C 0.94953 0.36632 0.56567 0.0
C990 C 0.98983 0.34433 0.53539 0.0
C991 C 0.93124 0.36752 0.56174 0.0
C992 C 0.06461 0.35715 0.5198 0.0
C993 C 0.04635 0.35455 0.5217 0.0
C994 C 0.00684 0.37484 0.5576 0.0
C995 C 0.96016 0.35899 0.54146 0.0
C996 C 0.9797 0.35908 0.54461 0.0
C997 C 0.03665 0.36138 0.54764 0.0
C998 C 0.01702 0.3602 0.54796 0.0
H999 H 0.92781 0.3487 0.48768 0.0
H1000 H 0.9599 0.3468 0.49439 0.0
H1001 H 0.98099 0.38597 0.56276 0.0
H1002 H 0.0705 0.38046 0.58903 0.0
H1003 H 0.0387 0.3755 0.59279 0.0
C1004 C 0.63606 0.9354 0.74972 0.0
C1005 C 0.64016 0.92389 0.77513 0.0
C1006 C 0.63983 0.95343 0.75194 0.0
C1007 C 0.64566 0.98867 0.81108 0.0
H1008 H 0.6603 0.01565 0.73659 0.0
C1009 C 0.65011 0.06534 0.81147 0.0
C1010 C 0.64165 0.07345 0.78525 0.0
C1011 C 0.65331 0.04708 0.81145 0.0
C1012 C 0.65622 0.00828 0.7576 0.0
H1013 H 0.65204 0.92225 0.82239 0.0
H1014 H 0.65852 0.9539 0.82634 0.0
H1015 H 0.66016 0.98337 0.73425 0.0
H1016 H 0.6297 0.06863 0.73871 0.0
H1017 H 0.63549 0.03703 0.73856 0.0
H1018 H 0.64124 0.01363 0.8341 0.0
C1019 C 0.65223 0.9489 0.80483 0.0
C1020 C 0.65613 0.98982 0.75626 0.0
C1021 C 0.64848 0.93081 0.80258 0.0
C1022 C 0.63664 0.06293 0.75896 0.0
C1023 C 0.63994 0.04478 0.75887 0.0
C1024 C 0.64578 0.00716 0.81244 0.0
C1025 C 0.64778 0.96042 0.77963 0.0
C1026 C 0.65036 0.97983 0.78266 0.0
C1027 C 0.64821 0.03663 0.78514 0.0
C1028 C 0.65058 0.01715 0.78539 0.0
H1029 H 0.62933 0.9306 0.7285 0.0
H1030 H 0.63592 0.96199 0.73236 0.0
H1031 H 0.641 0.98134 0.83174 0.0
H1032 H 0.65428 0.07309 0.83196 0.0
H1033 H 0.65979 0.04114 0.83197 0.0
C1034 C 0.93188 0.63454 0.01205 0.0
C1035 C 0.9234 0.61871 0.00312 0.0
C1036 C 0.95023 0.63633 0.00878 0.0
C1037 C 0.99091 0.60937 0.00079 0.0
H1038 H 0.01211 0.65341 0.97228 0.0
C1039 C 0.06449 0.61359 0.96907 0.0
C1040 C 0.07396 0.62752 0.98337 0.0
C1041 C 0.04603 0.61354 0.9694 0.0
C1042 C 0.00634 0.64108 0.98043 0.0
H1043 H 0.92765 0.59231 0.98398 0.0
H1044 H 0.95936 0.59567 0.97722 0.0
H1045 H 0.97992 0.65126 0.97747 0.0
H1046 H 0.07153 0.65273 0.00784 0.0
H1047 H 0.03913 0.65263 0.00842 0.0
H1048 H 0.01725 0.59914 0.00347 0.0
C1049 C 0.95193 0.60661 0.98724 0.0
C1050 C 0.98794 0.63985 0.98352 0.0
C1051 C 0.93367 0.60478 0.99069 0.0
C1052 C 0.06456 0.64177 0.99683 0.0
C1053 C 0.04605 0.64177 0.99697 0.0
C1054 C 0.00923 0.61056 0.99746 0.0
C1055 C 0.96047 0.62235 0.99646 0.0
C1056 C 0.98001 0.62393 0.99361 0.0
C1057 C 0.03663 0.62744 0.98393 0.0
C1058 C 0.01713 0.62638 0.98713 0.0
H1059 H 0.92435 0.64559 0.0214 0.0
H1060 H 0.9564 0.64858 0.01639 0.0
H1061 H 0.98531 0.59704 0.00935 0.0
H1062 H 0.07134 0.60233 0.95883 0.0
H1063 H 0.03909 0.60242 0.95885 0.0
C1064 C 0.55809 0.17538 0.96078 0.0
C1065 C 0.5531 0.18221 0.93083 0.0
C1066 C 0.54663 0.17659 0.98695 0.0
C1067 C 0.50604 0.19948 0.01592 0.0
H1068 H 0.50257 0.15854 0.07166 0.0
C1069 C 0.44859 0.18821 0.10542 0.0
C1070 C 0.45324 0.18212 0.13614 0.0
C1071 C 0.46132 0.18937 0.08122 0.0
C1072 C 0.50353 0.17014 0.05649 0.0
H1073 H 0.53227 0.19567 0.90468 0.0
H1074 H 0.51212 0.19749 0.95008 0.0
H1075 H 0.52392 0.1585 0.02799 0.0
H1076 H 0.47509 0.17313 0.16579 0.0
H1077 H 0.49718 0.17482 0.12337 0.0
H1078 H 0.48523 0.21085 0.04412 0.0
C1079 C 0.52502 0.19158 0.95369 0.0
C1080 C 0.51581 0.17016 0.03153 0.0
C1081 C 0.53655 0.1905 0.92763 0.0
C1082 C 0.47096 0.17749 0.14222 0.0
C1083 C 0.48364 0.17852 0.11799 0.0
C1084 C 0.49364 0.19938 0.04075 0.0
C1085 C 0.52986 0.1845 0.98362 0.0
C1086 C 0.5172 0.18481 0.01087 0.0
C1087 C 0.47892 0.18435 0.08721 0.0
C1088 C 0.49225 0.18469 0.06122 0.0
H1089 H 0.57087 0.16911 0.96398 0.0
H1090 H 0.55091 0.17131 0.0098 0.0
H1091 H 0.50694 0.21109 0.00078 0.0
H1092 H 0.43503 0.19168 0.09981 0.0
H1093 H 0.45731 0.19374 0.05759 0.0
C1094 C 0.82811 0.54682 0.1862 0.0
C1095 C 0.81293 0.55708 0.18036 0.0
C1096 C 0.82797 0.53372 0.20976 0.0
C1097 C 0.80612 0.51914 0.28313 0.0
H1098 H 0.82342 0.47269 0.25868 0.0
C1099 C 0.80179 0.45942 0.36893 0.0
C1100 C 0.81638 0.44784 0.36977 0.0
C1101 C 0.80048 0.47241 0.34522 0.0
C1102 C 0.81875 0.48562 0.26606 0.0
H1103 H 0.78588 0.56206 0.19509 0.0
H1104 H 0.78573 0.53922 0.23685 0.0
H1105 H 0.82326 0.49661 0.21949 0.0
H1106 H 0.84078 0.44059 0.34566 0.0
H1107 H 0.83886 0.46365 0.3052 0.0
H1108 H 0.80205 0.50838 0.32994 0.0
C1109 C 0.79768 0.54133 0.22304 0.0
C1110 C 0.81862 0.49929 0.24357 0.0
C1111 C 0.79775 0.55432 0.19915 0.0
C1112 C 0.82948 0.44942 0.34603 0.0
C1113 C 0.82825 0.46251 0.32251 0.0
C1114 C 0.80644 0.50551 0.30579 0.0
C1115 C 0.8127 0.53072 0.22814 0.0
C1116 C 0.8124 0.5162 0.25194 0.0
C1117 C 0.81379 0.47426 0.32193 0.0
C1118 C 0.81285 0.4886 0.29757 0.0
H1119 H 0.83991 0.54849 0.17178 0.0
H1120 H 0.83977 0.52583 0.21343 0.0
H1121 H 0.80138 0.5321 0.29023 0.0
H1122 H 0.79155 0.45876 0.38704 0.0
H1123 H 0.78903 0.48104 0.34525 0.0
C1124 C 0.54239 0.8337 0.59792 0.0
C1125 C 0.54969 0.81858 0.61251 0.0
C1126 C 0.53012 0.83204 0.57312 0.0
C1127 C 0.51376 0.80289 0.51016 0.0
H1128 H 0.47006 0.82929 0.52027 0.0
C1129 C 0.45551 0.7958 0.42107 0.0
C1130 C 0.44621 0.81132 0.41336 0.0
C1131 C 0.46793 0.7958 0.44592 0.0
C1132 C 0.48226 0.82201 0.5168 0.0
H1133 H 0.55021 0.78983 0.61159 0.0
H1134 H 0.52908 0.78702 0.5675 0.0
H1135 H 0.49286 0.83121 0.56136 0.0
H1136 H 0.4428 0.83908 0.42492 0.0
H1137 H 0.46471 0.83927 0.46766 0.0
H1138 H 0.50343 0.79408 0.46516 0.0
C1139 C 0.53285 0.80012 0.57558 0.0
C1140 C 0.49528 0.82307 0.54042 0.0
C1141 C 0.54499 0.80176 0.60071 0.0
C1142 C 0.44955 0.82685 0.43082 0.0
C1143 C 0.46209 0.82691 0.45536 0.0
C1144 C 0.50081 0.80199 0.48626 0.0
C1145 C 0.52506 0.81525 0.56205 0.0
C1146 C 0.51119 0.81363 0.53721 0.0
C1147 C 0.47144 0.8114 0.46326 0.0
C1148 C 0.48495 0.81166 0.48919 0.0
H1149 H 0.54603 0.84686 0.60583 0.0
H1150 H 0.52452 0.84392 0.56266 0.0
H1151 H 0.52597 0.79556 0.50712 0.0
H1152 H 0.45308 0.78364 0.408 0.0
H1153 H 0.47468 0.78355 0.45164 0.0
C1154 C 0.18604 0.52559 0.8729 0.0
C1155 C 0.19548 0.54161 0.87312 0.0
C1156 C 0.18992 0.5125 0.85041 0.0
C1157 C 0.208 0.50655 0.7702 0.0
H1158 H 0.20748 0.45681 0.79343 0.0
C1159 C 0.21287 0.4521 0.67413 0.0
C1160 C 0.20017 0.43859 0.67698 0.0
C1161 C 0.21604 0.4637 0.6996 0.0
C1162 C 0.20763 0.47064 0.78655 0.0
H1163 H 0.21652 0.55645 0.85022 0.0
H1164 H 0.22329 0.53349 0.81056 0.0
H1165 H 0.20592 0.47933 0.8353 0.0
H1166 H 0.18164 0.42596 0.70941 0.0
H1167 H 0.18684 0.44638 0.75351 0.0
H1168 H 0.20899 0.49793 0.72144 0.0
C1169 C 0.21287 0.53113 0.82786 0.0
C1170 C 0.20676 0.48352 0.81051 0.0
C1171 C 0.20906 0.5442 0.85061 0.0
C1172 C 0.19133 0.4364 0.70633 0.0
C1173 C 0.19449 0.44798 0.73175 0.0
C1174 C 0.20879 0.49367 0.74622 0.0
C1175 C 0.20329 0.51517 0.82752 0.0
C1176 C 0.2065 0.5016 0.80252 0.0
C1177 C 0.20659 0.46201 0.72845 0.0
C1178 C 0.20819 0.47556 0.75408 0.0
H1179 H 0.17566 0.52313 0.89025 0.0
H1180 H 0.18217 0.50044 0.85049 0.0
H1181 H 0.20766 0.52037 0.76331 0.0
H1182 H 0.21983 0.45421 0.65176 0.0
H1183 H 0.22561 0.47423 0.69644 0.0
loop_
_geom_bond_atom_site_label_1
_geom_bond_atom_site_label_2
_geom_bond_distance
_geom_bond_site_symmetry_2
_ccdc_geom_bond_type
Li0 N17 1.990 . S
Li0 O60 1.956 . S
Li0 O61 1.970 . S
Li0 O62 1.961 . S
Li1 N25 1.990 . S
Li1 O60 1.970 . S
Li1 O61 1.956 . S
Li1 O63 1.961 . S
Li2 N47 1.990 . S
Li2 O60 1.961 . S
Li2 O62 1.956 . S
Li2 O63 1.970 . S
Li3 N53 1.990 . S
Li3 O61 1.961 . S
Li3 O62 1.970 . S
Li3 O63 1.956 . S
C4 C6 1.348 . S
C4 C7 1.356 . S
C4 O60 1.325 . S
N5 C8 1.314 . S
N5 C9 1.279 . S
C6 C4 1.348 . S
C6 C8 1.353 . S
C6 H64 0.929 . S
C7 C4 1.356 . S
C7 C9 1.358 . S
C7 H65 0.930 . S
C8 N5 1.314 . S
C8 C6 1.353 . S
C8 H66 0.930 . S
C9 N5 1.279 . S
C9 C7 1.358 . S
C9 H67 0.930 . S
C10 C13 1.348 . S
C10 C14 1.356 . S
C10 O61 1.325 . S
C11 N12 1.279 . S
C11 C14 1.358 . S
C11 H68 0.930 . S
N12 C11 1.279 . S
N12 C15 1.314 . S
C13 C10 1.348 . S
C13 C15 1.353 . S
C13 H69 0.929 . S
C14 C10 1.356 . S
C14 C11 1.358 . S
C14 H70 0.930 . S
C15 N12 1.314 . S
C15 C13 1.353 . S
C15 H71 0.930 . S
C16 N17 1.314 . S
C16 C21 1.353 . S
C16 H22 0.930 . S
N17 Li0 1.990 . S
N17 C16 1.314 . S
N17 C19 1.279 . S
C18 C19 1.358 . S
C18 C20 1.356 . S
C18 H72 0.930 . S
C19 N17 1.279 . S
C19 C18 1.358 . S
C19 H23 0.930 . S
C20 C18 1.356 . S
C20 C21 1.348 . S
C21 C16 1.353 . S
C21 C20 1.348 . S
C21 H73 0.929 . S
H22 C16 0.930 . S
H23 C19 0.930 . S
C24 N25 1.314 . S
C24 C26 1.353 . S
C24 H30 0.930 . S
N25 Li1 1.990 . S
N25 C24 1.314 . S
N25 C28 1.279 . S
C26 C24 1.353 . S
C26 C29 1.348 . S
C26 H74 0.929 . S
C27 C28 1.358 . S
C27 C29 1.356 . S
C27 H75 0.930 . S
C28 N25 1.279 . S
C28 C27 1.358 . S
C28 H31 0.930 . S
C29 C26 1.348 . S
C29 C27 1.356 . S
H30 C24 0.930 . S
H31 C28 0.930 . S
C32 C34 1.348 . S
C32 C35 1.356 . S
C32 O62 1.325 . S
N33 C36 1.314 . S
N33 C37 1.279 . S
C34 C32 1.348 . S
C34 C36 1.353 . S
C34 H76 0.929 . S
C35 C32 1.356 . S
C35 C37 1.358 . S
C35 H77 0.930 . S
C36 N33 1.314 . S
C36 C34 1.353 . S
C36 H78 0.930 . S
C37 N33 1.279 . S
C37 C35 1.358 . S
C37 H79 0.930 . S
C38 C39 1.348 . S
C38 C40 1.356 . S
C38 O63 1.325 . S
C39 C38 1.348 . S
C39 C41 1.353 . S
C39 H80 0.929 . S
C40 C38 1.356 . S
C40 C42 1.358 . S
C40 H81 0.930 . S
C41 C39 1.353 . S
C41 N43 1.314 . S
C41 H82 0.930 . S
C42 C40 1.358 . S
C42 N43 1.279 . S
C42 H83 0.930 . S
N43 C41 1.314 . S
N43 C42 1.279 . S
C44 C46 1.353 . S
C44 N47 1.314 . S
C44 H50 0.930 . S
C45 N47 1.279 . S
C45 C48 1.358 . S
C45 H51 0.930 . S
C46 C44 1.353 . S
C46 C49 1.348 . S
C46 H84 0.929 . S
N47 Li2 1.990 . S
N47 C44 1.314 . S
N47 C45 1.279 . S
C48 C45 1.358 . S
C48 C49 1.356 . S
C48 H85 0.930 . S
C49 C46 1.348 . S
C49 C48 1.356 . S
H50 C44 0.930 . S
H51 C45 0.930 . S
C52 N53 1.314 . S
C52 C54 1.353 . S
C52 H58 0.930 . S
N53 Li3 1.990 . S
N53 C52 1.314 . S
N53 C56 1.279 . S
C54 C52 1.353 . S
C54 C57 1.348 . S
C54 H86 0.929 . S
C55 C56 1.358 . S
C55 C57 1.356 . S
C55 H87 0.930 . S
C56 N53 1.279 . S
C56 C55 1.358 . S
C56 H59 0.930 . S
C57 C54 1.348 . S
C57 C55 1.356 . S
H58 C52 0.930 . S
H59 C56 0.930 . S
O60 Li0 1.956 . S
O60 Li1 1.970 . S
O60 Li2 1.961 . S
O60 C4 1.325 . S
O61 Li0 1.970 . S
O61 Li1 1.956 . S
O61 Li3 1.961 . S
O61 C10 1.325 . S
O62 Li0 1.961 . S
O62 Li2 1.956 . S
O62 Li3 1.970 . S
O62 C32 1.325 . S
O63 Li1 1.961 . S
O63 Li2 1.970 . S
O63 Li3 1.956 . S
O63 C38 1.325 . S
H64 C6 0.929 . S
H65 C7 0.930 . S
H66 C8 0.930 . S
H67 C9 0.930 . S
H68 C11 0.930 . S
H69 C13 0.929 . S
H70 C14 0.930 . S
H71 C15 0.930 . S
H72 C18 0.930 . S
H73 C21 0.929 . S
H74 C26 0.929 . S
H75 C27 0.930 . S
H76 C34 0.929 . S
H77 C35 0.930 . S
H78 C36 0.930 . S
H79 C37 0.930 . S
H80 C39 0.929 . S
H81 C40 0.930 . S
H82 C41 0.930 . S
H83 C42 0.930 . S
H84 C46 0.929 . S
H85 C48 0.930 . S
H86 C54 0.929 . S
H87 C55 0.930 . S
Li88 N105 1.990 . S
Li88 O148 1.956 . S
Li88 O149 1.970 . S
Li88 O150 1.961 . S
Li89 N113 1.990 . S
Li89 O148 1.970 . S
Li89 O149 1.956 . S
Li89 O151 1.961 . S
Li90 N135 1.990 . S
Li90 O148 1.961 . S
Li90 O150 1.956 . S
Li90 O151 1.970 . S
Li91 N141 1.990 . S
Li91 O149 1.961 . S
Li91 O150 1.970 . S
Li91 O151 1.956 . S
C92 C94 1.348 . S
C92 C95 1.356 . S
C92 O148 1.325 . S
N93 C96 1.314 . S
N93 C97 1.279 . S
C94 C92 1.348 . S
C94 C96 1.353 . S
C94 H152 0.929 . S
C95 C92 1.356 . S
C95 C97 1.358 . S
C95 H153 0.930 . S
C96 N93 1.314 . S
C96 C94 1.353 . S
C96 H154 0.930 . S
C97 N93 1.279 . S
C97 C95 1.358 . S
C97 H155 0.930 . S
C98 C101 1.348 . S
C98 C102 1.356 . S
C98 O149 1.325 . S
C99 N100 1.279 . S
C99 C102 1.358 . S
C99 H156 0.930 . S
N100 C99 1.279 . S
N100 C103 1.314 . S
C101 C98 1.348 . S
C101 C103 1.353 . S
C101 H157 0.929 . S
C102 C98 1.356 . S
C102 C99 1.358 . S
C102 H158 0.930 . S
C103 N100 1.314 . S
C103 C101 1.353 . S
C103 H159 0.930 . S
C104 N105 1.314 . S
C104 C109 1.353 . S
C104 H110 0.930 . S
N105 Li88 1.990 . S
N105 C104 1.314 . S
N105 C107 1.279 . S
C106 C107 1.358 . S
C106 C108 1.356 . S
C106 H160 0.930 . S
C107 N105 1.279 . S
C107 C106 1.358 . S
C107 H111 0.930 . S
C108 C106 1.356 . S
C108 C109 1.348 . S
C109 C104 1.353 . S
C109 C108 1.348 . S
C109 H161 0.929 . S
H110 C104 0.930 . S
H111 C107 0.930 . S
C112 N113 1.314 . S
C112 C114 1.353 . S
C112 H118 0.930 . S
N113 Li89 1.990 . S
N113 C112 1.314 . S
N113 C116 1.279 . S
C114 C112 1.353 . S
C114 C117 1.348 . S
C114 H162 0.929 . S
C115 C116 1.358 . S
C115 C117 1.356 . S
C115 H163 0.930 . S
C116 N113 1.279 . S
C116 C115 1.358 . S
C116 H119 0.930 . S
C117 C114 1.348 . S
C117 C115 1.356 . S
H118 C112 0.930 . S
H119 C116 0.930 . S
C120 C122 1.348 . S
C120 C123 1.356 . S
C120 O150 1.325 . S
N121 C124 1.314 . S
N121 C125 1.279 . S
C122 C120 1.348 . S
C122 C124 1.353 . S
C122 H164 0.929 . S
C123 C120 1.356 . S
C123 C125 1.358 . S
C123 H165 0.930 . S
C124 N121 1.314 . S
C124 C122 1.353 . S
C124 H166 0.930 . S
C125 N121 1.279 . S
C125 C123 1.358 . S
C125 H167 0.930 . S
C126 C127 1.348 . S
C126 C128 1.356 . S
C126 O151 1.325 . S
C127 C126 1.348 . S
C127 C129 1.353 . S
C127 H168 0.929 . S
C128 C126 1.356 . S
C128 C130 1.358 . S
C128 H169 0.930 . S
C129 C127 1.353 . S
C129 N131 1.314 . S
C129 H170 0.930 . S
C130 C128 1.358 . S
C130 N131 1.279 . S
C130 H171 0.930 . S
N131 C129 1.314 . S
N131 C130 1.279 . S
C132 C134 1.353 . S
C132 N135 1.314 . S
C132 H138 0.930 . S
C133 N135 1.279 . S
C133 C136 1.358 . S
C133 H139 0.930 . S
C134 C132 1.353 . S
C134 C137 1.348 . S
C134 H172 0.929 . S
N135 Li90 1.990 . S
N135 C132 1.314 . S
N135 C133 1.279 . S
C136 C133 1.358 . S
C136 C137 1.356 . S
C136 H173 0.930 . S
C137 C134 1.348 . S
C137 C136 1.356 . S
H138 C132 0.930 . S
H139 C133 0.930 . S
C140 N141 1.314 . S
C140 C142 1.353 . S
C140 H146 0.930 . S
N141 Li91 1.990 . S
N141 C140 1.314 . S
N141 C144 1.279 . S
C142 C140 1.353 . S
C142 C145 1.348 . S
C142 H174 0.929 . S
C143 C144 1.358 . S
C143 C145 1.356 . S
C143 H175 0.930 . S
C144 N141 1.279 . S
C144 C143 1.358 . S
C144 H147 0.930 . S
C145 C142 1.348 . S
C145 C143 1.356 . S
H146 C140 0.930 . S
H147 C144 0.930 . S
O148 Li88 1.956 . S
O148 Li89 1.970 . S
O148 Li90 1.961 . S
O148 C92 1.325 . S
O149 Li88 1.970 . S
O149 Li89 1.956 . S
O149 Li91 1.961 . S
O149 C98 1.325 . S
O150 Li88 1.961 . S
O150 Li90 1.956 . S
O150 Li91 1.970 . S
O150 C120 1.325 . S
O151 Li89 1.961 . S
O151 Li90 1.970 . S
O151 Li91 1.956 . S
O151 C126 1.325 . S
H152 C94 0.929 . S
H153 C95 0.930 . S
H154 C96 0.930 . S
H155 C97 0.930 . S
H156 C99 0.930 . S
H157 C101 0.929 . S
H158 C102 0.930 . S
H159 C103 0.930 . S
H160 C106 0.930 . S
H161 C109 0.929 . S
H162 C114 0.929 . S
H163 C115 0.930 . S
H164 C122 0.929 . S
H165 C123 0.930 . S
H166 C124 0.930 . S
H167 C125 0.930 . S
H168 C127 0.929 . S
H169 C128 0.930 . S
H170 C129 0.930 . S
H171 C130 0.930 . S
H172 C134 0.929 . S
H173 C136 0.930 . S
H174 C142 0.929 . S
H175 C143 0.930 . S
Li176 N193 1.990 . S
Li176 O236 1.956 . S
Li176 O237 1.970 . S
Li176 O238 1.961 . S
Li177 N201 1.990 . S
Li177 O236 1.970 . S
Li177 O237 1.956 . S
Li177 O239 1.961 . S
Li178 N223 1.990 . S
Li178 O236 1.961 . S
Li178 O238 1.956 . S
Li178 O239 1.970 . S
Li179 N229 1.990 . S
Li179 O237 1.961 . S
Li179 O238 1.970 . S
Li179 O239 1.956 . S
C180 C182 1.348 . S
C180 C183 1.356 . S
C180 O236 1.325 . S
N181 C184 1.314 . S
N181 C185 1.279 . S
C182 C180 1.348 . S
C182 C184 1.353 . S
C182 H240 0.929 . S
C183 C180 1.356 . S
C183 C185 1.358 . S
C183 H241 0.930 . S
C184 N181 1.314 . S
C184 C182 1.353 . S
C184 H242 0.930 . S
C185 N181 1.279 . S
C185 C183 1.358 . S
C185 H243 0.930 . S
C186 C189 1.348 . S
C186 C190 1.356 . S
C186 O237 1.325 . S
C187 N188 1.279 . S
C187 C190 1.358 . S
C187 H244 0.930 . S
N188 C187 1.279 . S
N188 C191 1.314 . S
C189 C186 1.348 . S
C189 C191 1.353 . S
C189 H245 0.929 . S
C190 C186 1.356 . S
C190 C187 1.358 . S
C190 H246 0.930 . S
C191 N188 1.314 . S
C191 C189 1.353 . S
C191 H247 0.930 . S
C192 N193 1.314 . S
C192 C197 1.353 . S
C192 H198 0.930 . S
N193 Li176 1.990 . S
N193 C192 1.314 . S
N193 C195 1.279 . S
C194 C195 1.358 . S
C194 C196 1.356 . S
C194 H248 0.930 . S
C195 N193 1.279 . S
C195 C194 1.358 . S
C195 H199 0.930 . S
C196 C194 1.356 . S
C196 C197 1.348 . S
C197 C192 1.353 . S
C197 C196 1.348 . S
C197 H249 0.929 . S
H198 C192 0.930 . S
H199 C195 0.930 . S
C200 N201 1.314 . S
C200 C202 1.353 . S
C200 H206 0.930 . S
N201 Li177 1.990 . S
N201 C200 1.314 . S
N201 C204 1.279 . S
C202 C200 1.353 . S
C202 C205 1.348 . S
C202 H250 0.929 . S
C203 C204 1.358 . S
C203 C205 1.356 . S
C203 H251 0.930 . S
C204 N201 1.279 . S
C204 C203 1.358 . S
C204 H207 0.930 . S
C205 C202 1.348 . S
C205 C203 1.356 . S
H206 C200 0.930 . S
H207 C204 0.930 . S
C208 C210 1.348 . S
C208 C211 1.356 . S
C208 O238 1.325 . S
N209 C212 1.314 . S
N209 C213 1.279 . S
C210 C208 1.348 . S
C210 C212 1.353 . S
C210 H252 0.929 . S
C211 C208 1.356 . S
C211 C213 1.358 . S
C211 H253 0.930 . S
C212 N209 1.314 . S
C212 C210 1.353 . S
C212 H254 0.930 . S
C213 N209 1.279 . S
C213 C211 1.358 . S
C213 H255 0.930 . S
C214 C215 1.348 . S
C214 C216 1.356 . S
C214 O239 1.325 . S
C215 C214 1.348 . S
C215 C217 1.353 . S
C215 H256 0.929 . S
C216 C214 1.356 . S
C216 C218 1.358 . S
C216 H257 0.930 . S
C217 C215 1.353 . S
C217 N219 1.314 . S
C217 H258 0.930 . S
C218 C216 1.358 . S
C218 N219 1.279 . S
C218 H259 0.930 . S
N219 C217 1.314 . S
N219 C218 1.279 . S
C220 C222 1.353 . S
C220 N223 1.314 . S
C220 H226 0.930 . S
C221 N223 1.279 . S
C221 C224 1.358 . S
C221 H227 0.930 . S
C222 C220 1.353 . S
C222 C225 1.348 . S
C222 H260 0.929 . S
N223 Li178 1.990 . S
N223 C220 1.314 . S
N223 C221 1.279 . S
C224 C221 1.358 . S
C224 C225 1.356 . S
C224 H261 0.930 . S
C225 C222 1.348 . S
C225 C224 1.356 . S
H226 C220 0.930 . S
H227 C221 0.930 . S
C228 N229 1.314 . S
C228 C230 1.353 . S
C228 H234 0.930 . S
N229 Li179 1.990 . S
N229 C228 1.314 . S
N229 C232 1.279 . S
C230 C228 1.353 . S
C230 C233 1.348 . S
C230 H262 0.929 . S
C231 C232 1.358 . S
C231 C233 1.356 . S
C231 H263 0.930 . S
C232 N229 1.279 . S
C232 C231 1.358 . S
C232 H235 0.930 . S
C233 C230 1.348 . S
C233 C231 1.356 . S
H234 C228 0.930 . S
H235 C232 0.930 . S
O236 Li176 1.956 . S
O236 Li177 1.970 . S
O236 Li178 1.961 . S
O236 C180 1.325 . S
O237 Li176 1.970 . S
O237 Li177 1.956 . S
O237 Li179 1.961 . S
O237 C186 1.325 . S
O238 Li176 1.961 . S
O238 Li178 1.956 . S
O238 Li179 1.970 . S
O238 C208 1.325 . S
O239 Li177 1.961 . S
O239 Li178 1.970 . S
O239 Li179 1.956 . S
O239 C214 1.325 . S
H240 C182 0.929 . S
H241 C183 0.930 . S
H242 C184 0.930 . S
H243 C185 0.930 . S
H244 C187 0.930 . S
H245 C189 0.929 . S
H246 C190 0.930 . S
H247 C191 0.930 . S
H248 C194 0.930 . S
H249 C197 0.929 . S
H250 C202 0.929 . S
H251 C203 0.930 . S
H252 C210 0.929 . S
H253 C211 0.930 . S
H254 C212 0.930 . S
H255 C213 0.930 . S
H256 C215 0.929 . S
H257 C216 0.930 . S
H258 C217 0.930 . S
H259 C218 0.930 . S
H260 C222 0.929 . S
H261 C224 0.930 . S
H262 C230 0.929 . S
H263 C231 0.930 . S
Li264 N281 1.990 . S
Li264 O324 1.956 . S
Li264 O325 1.970 . S
Li264 O326 1.959 . S
Li265 N289 1.990 . S
Li265 O324 1.970 . S
Li265 O325 1.956 . S
Li265 O327 1.961 . S
Li266 N311 1.990 . S
Li266 O324 1.961 . S
Li266 O326 1.954 . S
Li266 O327 1.970 . S
Li267 N317 1.986 1_554 S
Li267 O325 1.963 . S
Li267 O326 1.970 . S
Li267 O327 1.960 . S
C268 C270 1.348 . S
C268 C271 1.356 . S
C268 O324 1.325 . S
N269 C272 1.314 . S
N269 C273 1.279 . S
C270 C268 1.348 . S
C270 C272 1.353 . S
C270 H328 0.929 . S
C271 C268 1.356 . S
C271 C273 1.358 . S
C271 H329 0.930 . S
C272 N269 1.314 . S
C272 C270 1.353 . S
C272 H330 0.930 . S
C273 N269 1.279 . S
C273 C271 1.358 . S
C273 H331 0.930 . S
C274 C277 1.348 . S
C274 C278 1.356 . S
C274 O325 1.325 . S
C275 N276 1.279 . S
C275 C278 1.358 . S
C275 H332 0.930 . S
N276 C275 1.279 . S
N276 C279 1.314 . S
C277 C274 1.348 . S
C277 C279 1.353 . S
C277 H333 0.929 . S
C278 C274 1.356 . S
C278 C275 1.358 . S
C278 H334 0.930 . S
C279 N276 1.314 . S
C279 C277 1.353 . S
C279 H335 0.930 . S
C280 N281 1.314 . S
C280 C285 1.353 . S
C280 H286 0.930 1_554 S
N281 Li264 1.990 . S
N281 C280 1.314 . S
N281 C283 1.279 . S
C282 C283 1.358 . S
C282 C284 1.356 . S
C282 H336 0.930 . S
C283 N281 1.279 . S
C283 C282 1.358 . S
C283 H287 0.930 . S
C284 C282 1.356 . S
C284 C285 1.346 . S
C285 C280 1.353 . S
C285 C284 1.346 . S
C285 H337 0.931 1_554 S
H286 C280 0.930 1_556 S
H287 C283 0.930 . S
C288 N289 1.314 . S
C288 C290 1.353 . S
C288 H294 0.930 . S
N289 Li265 1.990 . S
N289 C288 1.314 . S
N289 C292 1.279 . S
C290 C288 1.353 . S
C290 C293 1.348 . S
C290 H338 0.929 . S
C291 C292 1.358 . S
C291 C293 1.356 . S
C291 H339 0.930 . S
C292 N289 1.279 . S
C292 C291 1.358 . S
C292 H295 0.930 . S
C293 C290 1.348 . S
C293 C291 1.356 . S
H294 C288 0.930 . S
H295 C292 0.930 . S
C296 C298 1.348 . S
C296 C299 1.356 . S
C296 O326 1.326 1_556 S
N297 C300 1.314 . S
N297 C301 1.279 . S
C298 C296 1.348 . S
C298 C300 1.353 . S
C298 H340 0.929 . S
C299 C296 1.356 . S
C299 C301 1.358 . S
C299 H341 0.933 . S
C300 N297 1.314 . S
C300 C298 1.353 . S
C300 H342 0.930 . S
C301 N297 1.279 . S
C301 C299 1.358 . S
C301 H343 0.930 . S
C302 C303 1.348 . S
C302 C304 1.356 . S
C302 O327 1.325 . S
C303 C302 1.348 . S
C303 C305 1.353 . S
C303 H344 0.929 . S
C304 C302 1.356 . S
C304 C306 1.358 . S
C304 H345 0.930 . S
C305 C303 1.353 . S
C305 N307 1.314 . S
C305 H346 0.930 . S
C306 C304 1.358 . S
C306 N307 1.279 . S
C306 H347 0.930 . S
N307 C305 1.314 . S
N307 C306 1.279 . S
C308 C310 1.353 . S
C308 N311 1.314 . S
C308 H314 0.930 . S
C309 N311 1.279 . S
C309 C312 1.358 . S
C309 H315 0.930 . S
C310 C308 1.353 . S
C310 C313 1.348 . S
C310 H348 0.929 . S
N311 Li266 1.990 . S
N311 C308 1.314 . S
N311 C309 1.279 . S
C312 C309 1.358 . S
C312 C313 1.356 . S
C312 H349 0.930 . S
C313 C310 1.348 . S
C313 C312 1.356 . S
H314 C308 0.930 . S
H315 C309 0.930 . S
C316 N317 1.314 . S
C316 C318 1.353 . S
C316 H322 0.930 . S
N317 Li267 1.986 1_556 S
N317 C316 1.314 . S
N317 C320 1.279 . S
C318 C316 1.353 . S
C318 C321 1.348 . S
C318 H350 0.929 . S
C319 C320 1.358 . S
C319 C321 1.356 . S
C319 H351 0.930 . S
C320 N317 1.279 . S
C320 C319 1.358 . S
C320 H323 0.930 . S
C321 C318 1.348 . S
C321 C319 1.356 . S
H322 C316 0.930 . S
H323 C320 0.930 . S
O324 Li264 1.956 . S
O324 Li265 1.970 . S
O324 Li266 1.961 . S
O324 C268 1.325 . S
O325 Li264 1.970 . S
O325 Li265 1.956 . S
O325 Li267 1.963 . S
O325 C274 1.325 . S
O326 Li264 1.959 . S
O326 Li266 1.954 . S
O326 Li267 1.970 . S
O326 C296 1.326 1_554 S
O327 Li265 1.961 . S
O327 Li266 1.970 . S
O327 Li267 1.960 . S
O327 C302 1.325 . S
H328 C270 0.929 . S
H329 C271 0.930 . S
H330 C272 0.930 . S
H331 C273 0.930 . S
H332 C275 0.930 . S
H333 C277 0.929 . S
H334 C278 0.930 . S
H335 C279 0.930 . S
H336 C282 0.930 . S
H337 C285 0.931 1_556 S
H338 C290 0.929 . S
H339 C291 0.930 . S
H340 C298 0.929 . S
H341 C299 0.933 . S
H342 C300 0.930 . S
H343 C301 0.930 . S
H344 C303 0.929 . S
H345 C304 0.930 . S
H346 C305 0.930 . S
H347 C306 0.930 . S
H348 C310 0.929 . S
H349 C312 0.930 . S
H350 C318 0.929 . S
H351 C319 0.930 . S
Li352 N369 1.990 . S
Li352 O412 1.956 . S
Li352 O413 1.970 . S
Li352 O414 1.961 . S
Li353 N377 1.990 . S
Li353 O412 1.970 . S
Li353 O413 1.956 . S
Li353 O415 1.961 . S
Li354 N399 1.990 . S
Li354 O412 1.961 . S
Li354 O414 1.956 . S
Li354 O415 1.970 . S
Li355 N405 1.990 . S
Li355 O413 1.961 . S
Li355 O414 1.970 . S
Li355 O415 1.956 . S
C356 C358 1.348 . S
C356 C359 1.356 . S
C356 O412 1.325 . S
N357 C360 1.314 . S
N357 C361 1.279 . S
C358 C356 1.348 . S
C358 C360 1.353 . S
C358 H416 0.929 . S
C359 C356 1.356 . S
C359 C361 1.358 . S
C359 H417 0.930 . S
C360 N357 1.314 . S
C360 C358 1.353 . S
C360 H418 0.930 . S
C361 N357 1.279 . S
C361 C359 1.358 . S
C361 H419 0.930 . S
C362 C365 1.348 . S
C362 C366 1.356 . S
C362 O413 1.325 . S
C363 N364 1.279 . S
C363 C366 1.358 . S
C363 H420 0.930 . S
N364 C363 1.279 . S
N364 C367 1.314 . S
C365 C362 1.348 . S
C365 C367 1.353 . S
C365 H421 0.929 . S
C366 C362 1.356 . S
C366 C363 1.358 . S
C366 H422 0.930 . S
C367 N364 1.314 . S
C367 C365 1.353 . S
C367 H423 0.930 . S
C368 N369 1.314 . S
C368 C373 1.353 . S
C368 H374 0.930 . S
N369 Li352 1.990 . S
N369 C368 1.314 . S
N369 C371 1.279 . S
C370 C371 1.358 . S
C370 C372 1.356 . S
C370 H424 0.930 . S
C371 N369 1.279 . S
C371 C370 1.358 . S
C371 H375 0.930 . S
C372 C370 1.356 . S
C372 C373 1.348 . S
C373 C368 1.353 . S
C373 C372 1.348 . S
C373 H425 0.929 . S
H374 C368 0.930 . S
H375 C371 0.930 . S
C376 N377 1.314 . S
C376 C378 1.353 . S
C376 H382 0.930 . S
N377 Li353 1.990 . S
N377 C376 1.314 . S
N377 C380 1.279 . S
C378 C376 1.353 . S
C378 C381 1.348 . S
C378 H426 0.929 . S
C379 C380 1.358 . S
C379 C381 1.356 . S
C379 H427 0.930 . S
C380 N377 1.279 . S
C380 C379 1.358 . S
C380 H383 0.930 . S
C381 C378 1.348 . S
C381 C379 1.356 . S
H382 C376 0.930 . S
H383 C380 0.930 . S
C384 C386 1.348 . S
C384 C387 1.356 . S
C384 O414 1.325 . S
N385 C388 1.314 . S
N385 C389 1.279 . S
C386 C384 1.348 . S
C386 C388 1.353 . S
C386 H428 0.929 . S
C387 C384 1.356 . S
C387 C389 1.358 . S
C387 H429 0.930 . S
C388 N385 1.314 . S
C388 C386 1.353 . S
C388 H430 0.930 . S
C389 N385 1.279 . S
C389 C387 1.358 . S
C389 H431 0.930 . S
C390 C391 1.348 . S
C390 C392 1.356 . S
C390 O415 1.325 . S
C391 C390 1.348 . S
C391 C393 1.353 . S
C391 H432 0.929 . S
C392 C390 1.356 . S
C392 C394 1.358 . S
C392 H433 0.930 . S
C393 C391 1.353 . S
C393 N395 1.314 . S
C393 H434 0.930 . S
C394 C392 1.358 . S
C394 N395 1.279 . S
C394 H435 0.930 . S
N395 C393 1.314 . S
N395 C394 1.279 . S
C396 C398 1.353 . S
C396 N399 1.314 . S
C396 H402 0.930 . S
C397 N399 1.279 . S
C397 C400 1.358 . S
C397 H403 0.930 . S
C398 C396 1.353 . S
C398 C401 1.348 . S
C398 H436 0.929 . S
N399 Li354 1.990 . S
N399 C396 1.314 . S
N399 C397 1.279 . S
C400 C397 1.358 . S
C400 C401 1.356 . S
C400 H437 0.930 . S
C401 C398 1.348 . S
C401 C400 1.356 . S
H402 C396 0.930 . S
H403 C397 0.930 . S
C404 N405 1.314 . S
C404 C406 1.353 . S
C404 H410 0.930 . S
N405 Li355 1.990 . S
N405 C404 1.314 . S
N405 C408 1.279 . S
C406 C404 1.353 . S
C406 C409 1.348 . S
C406 H438 0.929 . S
C407 C408 1.358 . S
C407 C409 1.356 . S
C407 H439 0.930 . S
C408 N405 1.279 . S
C408 C407 1.358 . S
C408 H411 0.930 . S
C409 C406 1.348 . S
C409 C407 1.356 . S
H410 C404 0.930 . S
H411 C408 0.930 . S
O412 Li352 1.956 . S
O412 Li353 1.970 . S
O412 Li354 1.961 . S
O412 C356 1.325 . S
O413 Li352 1.970 . S
O413 Li353 1.956 . S
O413 Li355 1.961 . S
O413 C362 1.325 . S
O414 Li352 1.961 . S
O414 Li354 1.956 . S
O414 Li355 1.970 . S
O414 C384 1.325 . S
O415 Li353 1.961 . S
O415 Li354 1.970 . S
O415 Li355 1.956 . S
O415 C390 1.325 . S
H416 C358 0.929 . S
H417 C359 0.930 . S
H418 C360 0.930 . S
H419 C361 0.930 . S
H420 C363 0.930 . S
H421 C365 0.929 . S
H422 C366 0.930 . S
H423 C367 0.930 . S
H424 C370 0.930 . S
H425 C373 0.929 . S
H426 C378 0.929 . S
H427 C379 0.930 . S
H428 C386 0.929 . S
H429 C387 0.930 . S
H430 C388 0.930 . S
H431 C389 0.930 . S
H432 C391 0.929 . S
H433 C392 0.930 . S
H434 C393 0.930 . S
H435 C394 0.930 . S
H436 C398 0.929 . S
H437 C400 0.930 . S
H438 C406 0.929 . S
H439 C407 0.930 . S
Li440 N457 1.990 . S
Li440 O500 1.956 . S
Li440 O501 1.970 . S
Li440 O502 1.961 . S
Li441 N465 1.990 . S
Li441 O500 1.970 . S
Li441 O501 1.956 . S
Li441 O503 1.961 . S
Li442 N487 1.990 . S
Li442 O500 1.961 . S
Li442 O502 1.956 . S
Li442 O503 1.970 . S
Li443 N493 1.990 . S
Li443 O501 1.961 . S
Li443 O502 1.970 . S
Li443 O503 1.956 . S
C444 C446 1.348 . S
C444 C447 1.356 . S
C444 O500 1.325 . S
N445 C448 1.314 . S
N445 C449 1.279 . S
C446 C444 1.348 . S
C446 C448 1.353 . S
C446 H504 0.929 . S
C447 C444 1.356 . S
C447 C449 1.358 . S
C447 H505 0.930 . S
C448 N445 1.314 . S
C448 C446 1.353 . S
C448 H506 0.930 . S
C449 N445 1.279 . S
C449 C447 1.358 . S
C449 H507 0.930 . S
C450 C453 1.348 . S
C450 C454 1.356 . S
C450 O501 1.325 . S
C451 N452 1.279 . S
C451 C454 1.358 . S
C451 H508 0.930 . S
N452 C451 1.279 . S
N452 C455 1.314 . S
C453 C450 1.348 . S
C453 C455 1.353 . S
C453 H509 0.929 . S
C454 C450 1.356 . S
C454 C451 1.358 . S
C454 H510 0.930 . S
C455 N452 1.314 . S
C455 C453 1.353 . S
C455 H511 0.930 . S
C456 N457 1.314 . S
C456 C461 1.353 . S
C456 H462 0.930 . S
N457 Li440 1.990 . S
N457 C456 1.314 . S
N457 C459 1.279 . S
C458 C459 1.358 . S
C458 C460 1.356 . S
C458 H512 0.930 . S
C459 N457 1.279 . S
C459 C458 1.358 . S
C459 H463 0.930 . S
C460 C458 1.356 . S
C460 C461 1.348 . S
C461 C456 1.353 . S
C461 C460 1.348 . S
C461 H513 0.929 . S
H462 C456 0.930 . S
H463 C459 0.930 . S
C464 N465 1.314 . S
C464 C466 1.353 . S
C464 H470 0.930 . S
N465 Li441 1.990 . S
N465 C464 1.314 . S
N465 C468 1.279 . S
C466 C464 1.353 . S
C466 C469 1.348 . S
C466 H514 0.929 . S
C467 C468 1.358 . S
C467 C469 1.356 . S
C467 H515 0.930 . S
C468 N465 1.279 . S
C468 C467 1.358 . S
C468 H471 0.930 . S
C469 C466 1.348 . S
C469 C467 1.356 . S
H470 C464 0.930 . S
H471 C468 0.930 . S
C472 C474 1.348 . S
C472 C475 1.356 . S
C472 O502 1.325 . S
N473 C476 1.314 . S
N473 C477 1.279 . S
C474 C472 1.348 . S
C474 C476 1.353 . S
C474 H516 0.929 . S
C475 C472 1.356 . S
C475 C477 1.358 . S
C475 H517 0.930 . S
C476 N473 1.314 . S
C476 C474 1.353 . S
C476 H518 0.930 . S
C477 N473 1.279 . S
C477 C475 1.358 . S
C477 H519 0.930 . S
C478 C479 1.348 . S
C478 C480 1.356 . S
C478 O503 1.325 . S
C479 C478 1.348 . S
C479 C481 1.353 . S
C479 H520 0.929 . S
C480 C478 1.356 . S
C480 C482 1.358 . S
C480 H521 0.930 . S
C481 C479 1.353 . S
C481 N483 1.314 . S
C481 H522 0.930 . S
C482 C480 1.358 . S
C482 N483 1.279 . S
C482 H523 0.930 . S
N483 C481 1.314 . S
N483 C482 1.279 . S
C484 C486 1.353 . S
C484 N487 1.314 . S
C484 H490 0.930 . S
C485 N487 1.279 . S
C485 C488 1.358 . S
C485 H491 0.930 . S
C486 C484 1.353 . S
C486 C489 1.348 . S
C486 H524 0.929 . S
N487 Li442 1.990 . S
N487 C484 1.314 . S
N487 C485 1.279 . S
C488 C485 1.358 . S
C488 C489 1.356 . S
C488 H525 0.930 . S
C489 C486 1.348 . S
C489 C488 1.356 . S
H490 C484 0.930 . S
H491 C485 0.930 . S
C492 N493 1.314 . S
C492 C494 1.353 . S
C492 H498 0.930 . S
N493 Li443 1.990 . S
N493 C492 1.314 . S
N493 C496 1.279 . S
C494 C492 1.353 . S
C494 C497 1.348 . S
C494 H526 0.929 . S
C495 C496 1.358 . S
C495 C497 1.356 . S
C495 H527 0.930 . S
C496 N493 1.279 . S
C496 C495 1.358 . S
C496 H499 0.930 . S
C497 C494 1.348 . S
C497 C495 1.356 . S
H498 C492 0.930 . S
H499 C496 0.930 . S
O500 Li440 1.956 . S
O500 Li441 1.970 . S
O500 Li442 1.961 . S
O500 C444 1.325 . S
O501 Li440 1.970 . S
O501 Li441 1.956 . S
O501 Li443 1.961 . S
O501 C450 1.325 . S
O502 Li440 1.961 . S
O502 Li442 1.956 . S
O502 Li443 1.970 . S
O502 C472 1.325 . S
O503 Li441 1.961 . S
O503 Li442 1.970 . S
O503 Li443 1.956 . S
O503 C478 1.325 . S
H504 C446 0.929 . S
H505 C447 0.930 . S
H506 C448 0.930 . S
H507 C449 0.930 . S
H508 C451 0.930 . S
H509 C453 0.929 . S
H510 C454 0.930 . S
H511 C455 0.930 . S
H512 C458 0.930 . S
H513 C461 0.929 . S
H514 C466 0.929 . S
H515 C467 0.930 . S
H516 C474 0.929 . S
H517 C475 0.930 . S
H518 C476 0.930 . S
H519 C477 0.930 . S
H520 C479 0.929 . S
H521 C480 0.930 . S
H522 C481 0.930 . S
H523 C482 0.930 . S
H524 C486 0.929 . S
H525 C488 0.930 . S
H526 C494 0.929 . S
H527 C495 0.930 . S
Li528 N545 1.990 . S
Li528 O588 1.956 . S
Li528 O589 1.970 . S
Li528 O590 1.961 . S
Li529 N553 1.990 . S
Li529 O588 1.970 . S
Li529 O589 1.956 . S
Li529 O591 1.961 . S
Li530 N575 1.990 . S
Li530 O588 1.961 . S
Li530 O590 1.956 . S
Li530 O591 1.970 . S
Li531 N581 1.990 . S
Li531 O589 1.961 . S
Li531 O590 1.970 . S
Li531 O591 1.956 . S
C532 C534 1.348 . S
C532 C535 1.356 . S
C532 O588 1.325 . S
N533 C536 1.314 . S
N533 C537 1.279 . S
C534 C532 1.348 . S
C534 C536 1.353 . S
C534 H592 0.929 . S
C535 C532 1.356 . S
C535 C537 1.358 . S
C535 H593 0.930 . S
C536 N533 1.314 . S
C536 C534 1.353 . S
C536 H594 0.930 . S
C537 N533 1.279 . S
C537 C535 1.358 . S
C537 H595 0.930 . S
C538 C541 1.348 . S
C538 C542 1.356 . S
C538 O589 1.325 . S
C539 N540 1.279 . S
C539 C542 1.358 . S
C539 H596 0.930 . S
N540 C539 1.279 . S
N540 C543 1.314 . S
C541 C538 1.348 . S
C541 C543 1.353 . S
C541 H597 0.929 . S
C542 C538 1.356 . S
C542 C539 1.358 . S
C542 H598 0.930 . S
C543 N540 1.314 . S
C543 C541 1.353 . S
C543 H599 0.930 . S
C544 N545 1.314 . S
C544 C549 1.353 . S
C544 H550 0.930 . S
N545 Li528 1.990 . S
N545 C544 1.314 . S
N545 C547 1.279 . S
C546 C547 1.358 . S
C546 C548 1.356 . S
C546 H600 0.930 . S
C547 N545 1.279 . S
C547 C546 1.358 . S
C547 H551 0.930 . S
C548 C546 1.356 . S
C548 C549 1.348 . S
C549 C544 1.353 . S
C549 C548 1.348 . S
C549 H601 0.929 . S
H550 C544 0.930 . S
H551 C547 0.930 . S
C552 N553 1.314 . S
C552 C554 1.353 . S
C552 H558 0.930 . S
N553 Li529 1.990 . S
N553 C552 1.314 . S
N553 C556 1.279 . S
C554 C552 1.353 . S
C554 C557 1.348 . S
C554 H602 0.929 . S
C555 C556 1.358 . S
C555 C557 1.356 . S
C555 H603 0.930 . S
C556 N553 1.279 . S
C556 C555 1.358 . S
C556 H559 0.930 . S
C557 C554 1.348 . S
C557 C555 1.356 . S
H558 C552 0.930 . S
H559 C556 0.930 . S
C560 C562 1.348 . S
C560 C563 1.356 . S
C560 O590 1.325 . S
N561 C564 1.314 . S
N561 C565 1.279 . S
C562 C560 1.348 . S
C562 C564 1.353 . S
C562 H604 0.929 . S
C563 C560 1.356 . S
C563 C565 1.358 . S
C563 H605 0.930 . S
C564 N561 1.314 . S
C564 C562 1.353 . S
C564 H606 0.930 . S
C565 N561 1.279 . S
C565 C563 1.358 . S
C565 H607 0.930 . S
C566 C567 1.348 . S
C566 C568 1.356 . S
C566 O591 1.325 . S
C567 C566 1.348 . S
C567 C569 1.353 . S
C567 H608 0.929 . S
C568 C566 1.356 . S
C568 C570 1.358 . S
C568 H609 0.930 . S
C569 C567 1.353 . S
C569 N571 1.314 . S
C569 H610 0.930 . S
C570 C568 1.358 . S
C570 N571 1.279 . S
C570 H611 0.930 . S
N571 C569 1.314 . S
N571 C570 1.279 . S
C572 C574 1.353 . S
C572 N575 1.314 . S
C572 H578 0.930 . S
C573 N575 1.279 . S
C573 C576 1.358 . S
C573 H579 0.930 . S
C574 C572 1.353 . S
C574 C577 1.348 . S
C574 H612 0.929 . S
N575 Li530 1.990 . S
N575 C572 1.314 . S
N575 C573 1.279 . S
C576 C573 1.358 . S
C576 C577 1.356 . S
C576 H613 0.930 . S
C577 C574 1.348 . S
C577 C576 1.356 . S
H578 C572 0.930 . S
H579 C573 0.930 . S
C580 N581 1.314 . S
C580 C582 1.353 . S
C580 H586 0.930 . S
N581 Li531 1.990 . S
N581 C580 1.314 . S
N581 C584 1.279 . S
C582 C580 1.353 . S
C582 C585 1.348 . S
C582 H614 0.929 . S
C583 C584 1.358 . S
C583 C585 1.356 . S
C583 H615 0.930 . S
C584 N581 1.279 . S
C584 C583 1.358 . S
C584 H587 0.930 . S
C585 C582 1.348 . S
C585 C583 1.356 . S
H586 C580 0.930 . S
H587 C584 0.930 . S
O588 Li528 1.956 . S
O588 Li529 1.970 . S
O588 Li530 1.961 . S
O588 C532 1.325 . S
O589 Li528 1.970 . S
O589 Li529 1.956 . S
O589 Li531 1.961 . S
O589 C538 1.325 . S
O590 Li528 1.961 . S
O590 Li530 1.956 . S
O590 Li531 1.970 . S
O590 C560 1.325 . S
O591 Li529 1.961 . S
O591 Li530 1.970 . S
O591 Li531 1.956 . S
O591 C566 1.325 . S
H592 C534 0.929 . S
H593 C535 0.930 . S
H594 C536 0.930 . S
H595 C537 0.930 . S
H596 C539 0.930 . S
H597 C541 0.929 . S
H598 C542 0.930 . S
H599 C543 0.930 . S
H600 C546 0.930 . S
H601 C549 0.929 . S
H602 C554 0.929 . S
H603 C555 0.930 . S
H604 C562 0.929 . S
H605 C563 0.930 . S
H606 C564 0.930 . S
H607 C565 0.930 . S
H608 C567 0.929 . S
H609 C568 0.930 . S
H610 C569 0.930 . S
H611 C570 0.930 . S
H612 C574 0.929 . S
H613 C576 0.930 . S
H614 C582 0.929 . S
H615 C583 0.930 . S
Li616 N633 1.990 . S
Li616 O676 1.956 . S
Li616 O677 1.970 . S
Li616 O678 1.961 1_554 S
Li617 N641 1.990 . S
Li617 O676 1.970 . S
Li617 O677 1.956 . S
Li617 O679 1.961 . S
Li618 N663 1.990 . S
Li618 O676 1.961 . S
Li618 O678 1.956 1_554 S
Li618 O679 1.970 . S
Li619 N669 1.990 . S
Li619 O677 1.961 1_556 S
Li619 O678 1.970 . S
Li619 O679 1.956 1_556 S
C620 C622 1.348 . S
C620 C623 1.356 . S
C620 O676 1.325 . S
N621 C624 1.314 . S
N621 C625 1.279 . S
C622 C620 1.348 . S
C622 C624 1.353 . S
C622 H680 0.929 . S
C623 C620 1.356 . S
C623 C625 1.358 . S
C623 H681 0.930 . S
C624 N621 1.314 . S
C624 C622 1.353 . S
C624 H682 0.930 . S
C625 N621 1.279 . S
C625 C623 1.358 . S
C625 H683 0.930 . S
C626 C629 1.348 . S
C626 C630 1.356 . S
C626 O677 1.325 . S
C627 N628 1.279 . S
C627 C630 1.358 . S
C627 H684 0.930 . S
N628 C627 1.279 . S
N628 C631 1.314 . S
C629 C626 1.348 . S
C629 C631 1.353 . S
C629 H685 0.929 . S
C630 C626 1.356 . S
C630 C627 1.358 . S
C630 H686 0.930 . S
C631 N628 1.314 . S
C631 C629 1.353 . S
C631 H687 0.930 . S
C632 N633 1.314 1_556 S
C632 C637 1.353 . S
C632 H638 0.930 . S
N633 Li616 1.990 . S
N633 C632 1.314 1_554 S
N633 C635 1.279 . S
C634 C635 1.358 . S
C634 C636 1.356 1_554 S
C634 H688 0.930 . S
C635 N633 1.279 . S
C635 C634 1.358 . S
C635 H639 0.930 . S
C636 C634 1.356 1_556 S
C636 C637 1.348 . S
C637 C632 1.353 . S
C637 C636 1.348 . S
C637 H689 0.929 . S
H638 C632 0.930 . S
H639 C635 0.930 . S
C640 N641 1.314 . S
C640 C642 1.353 . S
C640 H646 0.930 . S
N641 Li617 1.990 . S
N641 C640 1.314 . S
N641 C644 1.279 . S
C642 C640 1.353 . S
C642 C645 1.348 . S
C642 H690 0.929 . S
C643 C644 1.358 . S
C643 C645 1.356 . S
C643 H691 0.930 . S
C644 N641 1.279 . S
C644 C643 1.358 . S
C644 H647 0.930 . S
C645 C642 1.348 . S
C645 C643 1.356 . S
H646 C640 0.930 . S
H647 C644 0.930 . S
C648 C650 1.348 . S
C648 C651 1.356 . S
C648 O678 1.325 . S
N649 C652 1.314 . S
N649 C653 1.279 . S
C650 C648 1.348 . S
C650 C652 1.353 . S
C650 H692 0.929 . S
C651 C648 1.356 . S
C651 C653 1.358 . S
C651 H693 0.930 . S
C652 N649 1.314 . S
C652 C650 1.353 . S
C652 H694 0.930 . S
C653 N649 1.279 . S
C653 C651 1.358 . S
C653 H695 0.930 . S
C654 C655 1.348 . S
C654 C656 1.356 . S
C654 O679 1.325 . S
C655 C654 1.348 . S
C655 C657 1.353 . S
C655 H696 0.929 . S
C656 C654 1.356 . S
C656 C658 1.358 . S
C656 H697 0.930 . S
C657 C655 1.353 . S
C657 N659 1.314 . S
C657 H698 0.930 . S
C658 C656 1.358 . S
C658 N659 1.279 . S
C658 H699 0.930 . S
N659 C657 1.314 . S
N659 C658 1.279 . S
C660 C662 1.353 . S
C660 N663 1.314 . S
C660 H666 0.930 . S
C661 N663 1.279 1_556 S
C661 C664 1.358 . S
C661 H667 0.930 . S
C662 C660 1.353 . S
C662 C665 1.348 . S
C662 H700 0.929 . S
N663 Li618 1.990 . S
N663 C660 1.314 . S
N663 C661 1.279 1_554 S
C664 C661 1.358 . S
C664 C665 1.356 1_556 S
C664 H701 0.930 . S
C665 C662 1.348 . S
C665 C664 1.356 1_554 S
H666 C660 0.930 . S
H667 C661 0.930 . S
C668 N669 1.314 . S
C668 C670 1.353 . S
C668 H674 0.930 . S
N669 Li619 1.990 . S
N669 C668 1.314 . S
N669 C672 1.279 . S
C670 C668 1.353 . S
C670 C673 1.348 . S
C670 H702 0.929 . S
C671 C672 1.358 . S
C671 C673 1.356 . S
C671 H703 0.930 . S
C672 N669 1.279 . S
C672 C671 1.358 . S
C672 H675 0.930 . S
C673 C670 1.348 . S
C673 C671 1.356 . S
H674 C668 0.930 . S
H675 C672 0.930 . S
O676 Li616 1.956 . S
O676 Li617 1.970 . S
O676 Li618 1.961 . S
O676 C620 1.325 . S
O677 Li616 1.970 . S
O677 Li617 1.956 . S
O677 Li619 1.961 1_554 S
O677 C626 1.325 . S
O678 Li616 1.961 1_556 S
O678 Li618 1.956 1_556 S
O678 Li619 1.970 . S
O678 C648 1.325 . S
O679 Li617 1.961 . S
O679 Li618 1.970 . S
O679 Li619 1.956 1_554 S
O679 C654 1.325 . S
H680 C622 0.929 . S
H681 C623 0.930 . S
H682 C624 0.930 . S
H683 C625 0.930 . S
H684 C627 0.930 . S
H685 C629 0.929 . S
H686 C630 0.930 . S
H687 C631 0.930 . S
H688 C634 0.930 . S
H689 C637 0.929 . S
H690 C642 0.929 . S
H691 C643 0.930 . S
H692 C650 0.929 . S
H693 C651 0.930 . S
H694 C652 0.930 . S
H695 C653 0.930 . S
H696 C655 0.929 . S
H697 C656 0.930 . S
H698 C657 0.930 . S
H699 C658 0.930 . S
H700 C662 0.929 . S
H701 C664 0.930 . S
H702 C670 0.929 . S
H703 C671 0.930 . S
C704 C705 1.349 . S
C704 C706 1.327 . S
C704 H729 0.950 . S
C705 C704 1.349 . S
C705 C721 1.349 . S
C706 C704 1.327 . S
C706 C725 1.429 . S
C706 H730 0.950 . S
C707 C724 1.574 . S
C707 C726 1.368 . S
C707 H731 0.949 . S
H708 C712 0.949 . S
C709 C710 1.349 . S
C709 C711 1.327 . S
C709 H732 0.950 . S
C710 C709 1.349 . S
C710 C722 1.349 . S
C711 C709 1.327 . S
C711 C727 1.429 . S
C711 H733 0.950 . S
C712 H708 0.949 . S
C712 C720 1.574 . S
C712 C728 1.368 . S
H713 C721 0.950 . S
H714 C719 0.950 . S
H715 C720 0.949 . S
H716 C722 0.950 . S
H717 C723 0.950 . S
H718 C724 0.949 . S
C719 H714 0.950 . S
C719 C721 1.327 . S
C719 C725 1.429 . S
C720 C712 1.574 . S
C720 H715 0.949 . S
C720 C726 1.368 . S
C721 C705 1.349 . S
C721 H713 0.950 . S
C721 C719 1.327 . S
C722 C710 1.349 . S
C722 H716 0.950 . S
C722 C723 1.327 . S
C723 H717 0.950 . S
C723 C722 1.327 . S
C723 C727 1.429 . S
C724 C707 1.574 . S
C724 H718 0.949 . S
C724 C728 1.368 . S
C725 C706 1.429 . S
C725 C719 1.429 . S
C725 C726 1.523 . S
C726 C707 1.368 . S
C726 C720 1.368 . S
C726 C725 1.523 . S
C727 C711 1.429 . S
C727 C723 1.429 . S
C727 C728 1.523 . S
C728 C712 1.368 . S
C728 C724 1.368 . S
C728 C727 1.523 . S
H729 C704 0.950 . S
H730 C706 0.950 . S
H731 C707 0.949 . S
H732 C709 0.950 . S
H733 C711 0.950 . S
C734 C735 1.349 . S
C734 C736 1.327 . S
C734 H759 0.950 . S
C735 C734 1.349 . S
C735 C751 1.349 . S
C736 C734 1.327 . S
C736 C755 1.429 . S
C736 H760 0.950 . S
C737 C754 1.574 . S
C737 C756 1.368 . S
C737 H761 0.949 . S
H738 C742 0.949 . S
C739 C740 1.349 . S
C739 C741 1.327 . S
C739 H762 0.950 . S
C740 C739 1.349 . S
C740 C752 1.349 . S
C741 C739 1.327 . S
C741 C757 1.429 . S
C741 H763 0.950 . S
C742 H738 0.949 . S
C742 C750 1.574 . S
C742 C758 1.368 . S
H743 C751 0.950 . S
H744 C749 0.950 . S
H745 C750 0.949 . S
H746 C752 0.950 . S
H747 C753 0.950 . S
H748 C754 0.949 . S
C749 H744 0.950 . S
C749 C751 1.327 . S
C749 C755 1.429 . S
C750 C742 1.574 . S
C750 H745 0.949 . S
C750 C756 1.368 . S
C751 C735 1.349 . S
C751 H743 0.950 . S
C751 C749 1.327 . S
C752 C740 1.349 . S
C752 H746 0.950 . S
C752 C753 1.327 . S
C753 H747 0.950 . S
C753 C752 1.327 . S
C753 C757 1.429 . S
C754 C737 1.574 . S
C754 H748 0.949 . S
C754 C758 1.368 . S
C755 C736 1.429 . S
C755 C749 1.429 . S
C755 C756 1.523 . S
C756 C737 1.368 . S
C756 C750 1.368 . S
C756 C755 1.523 . S
C757 C741 1.429 . S
C757 C753 1.429 . S
C757 C758 1.523 . S
C758 C742 1.368 . S
C758 C754 1.368 . S
C758 C757 1.523 . S
H759 C734 0.950 . S
H760 C736 0.950 . S
H761 C737 0.949 . S
H762 C739 0.950 . S
H763 C741 0.950 . S
C764 C765 1.349 . S
C764 C766 1.327 . S
C764 H789 0.950 . S
C765 C764 1.349 . S
C765 C781 1.349 . S
C766 C764 1.327 . S
C766 C785 1.429 . S
C766 H790 0.950 . S
C767 C784 1.574 . S
C767 C786 1.368 . S
C767 H791 0.949 . S
H768 C772 0.949 . S
C769 C770 1.349 . S
C769 C771 1.327 . S
C769 H792 0.950 . S
C770 C769 1.349 . S
C770 C782 1.349 . S
C771 C769 1.327 . S
C771 C787 1.429 . S
C771 H793 0.950 . S
C772 H768 0.949 . S
C772 C780 1.574 1_556 S
C772 C788 1.368 . S
H773 C781 0.950 . S
H774 C779 0.950 . S
H775 C780 0.949 . S
H776 C782 0.950 . S
H777 C783 0.950 . S
H778 C784 0.949 . S
C779 H774 0.950 . S
C779 C781 1.327 . S
C779 C785 1.429 . S
C780 C772 1.574 1_554 S
C780 H775 0.949 . S
C780 C786 1.368 . S
C781 C765 1.349 . S
C781 H773 0.950 . S
C781 C779 1.327 . S
C782 C770 1.349 . S
C782 H776 0.950 . S
C782 C783 1.327 . S
C783 H777 0.950 . S
C783 C782 1.327 . S
C783 C787 1.429 . S
C784 C767 1.574 . S
C784 H778 0.949 . S
C784 C788 1.368 1_554 S
C785 C766 1.429 . S
C785 C779 1.429 . S
C785 C786 1.523 . S
C786 C767 1.368 . S
C786 C780 1.368 . S
C786 C785 1.523 . S
C787 C771 1.429 . S
C787 C783 1.429 . S
C787 C788 1.523 . S
C788 C772 1.368 . S
C788 C784 1.368 1_556 S
C788 C787 1.523 . S
H789 C764 0.950 . S
H790 C766 0.950 . S
H791 C767 0.949 . S
H792 C769 0.950 . S
H793 C771 0.950 . S
C794 C795 1.349 . S
C794 C796 1.327 . S
C794 H819 0.950 . S
C795 C794 1.349 . S
C795 C811 1.349 . S
C796 C794 1.327 . S
C796 C815 1.429 . S
C796 H820 0.950 . S
C797 C814 1.574 . S
C797 C816 1.368 . S
C797 H821 0.949 . S
H798 C802 0.949 . S
C799 C800 1.349 . S
C799 C801 1.327 . S
C799 H822 0.950 . S
C800 C799 1.349 . S
C800 C812 1.349 . S
C801 C799 1.327 . S
C801 C817 1.429 . S
C801 H823 0.950 . S
C802 H798 0.949 . S
C802 C810 1.574 . S
C802 C818 1.368 . S
H803 C811 0.950 . S
H804 C809 0.950 . S
H805 C810 0.949 . S
H806 C812 0.950 . S
H807 C813 0.950 . S
H808 C814 0.949 . S
C809 H804 0.950 . S
C809 C811 1.327 . S
C809 C815 1.429 . S
C810 C802 1.574 . S
C810 H805 0.949 . S
C810 C816 1.368 . S
C811 C795 1.349 . S
C811 H803 0.950 . S
C811 C809 1.327 . S
C812 C800 1.349 . S
C812 H806 0.950 . S
C812 C813 1.327 . S
C813 H807 0.950 . S
C813 C812 1.327 . S
C813 C817 1.429 . S
C814 C797 1.574 . S
C814 H808 0.949 . S
C814 C818 1.368 . S
C815 C796 1.429 . S
C815 C809 1.429 . S
C815 C816 1.523 . S
C816 C797 1.368 . S
C816 C810 1.368 . S
C816 C815 1.523 . S
C817 C801 1.429 . S
C817 C813 1.429 . S
C817 C818 1.523 . S
C818 C802 1.368 . S
C818 C814 1.368 . S
C818 C817 1.523 . S
H819 C794 0.950 . S
H820 C796 0.950 . S
H821 C797 0.949 . S
H822 C799 0.950 . S
H823 C801 0.950 . S
C824 C825 1.349 . S
C824 C826 1.327 . S
C824 H849 0.950 . S
C825 C824 1.349 . S
C825 C841 1.349 . S
C826 C824 1.327 . S
C826 C845 1.429 . S
C826 H850 0.950 . S
C827 C844 1.574 . S
C827 C846 1.368 . S
C827 H851 0.949 . S
H828 C832 0.949 . S
C829 C830 1.349 . S
C829 C831 1.327 . S
C829 H852 0.950 . S
C830 C829 1.349 . S
C830 C842 1.349 . S
C831 C829 1.327 . S
C831 C847 1.429 . S
C831 H853 0.950 . S
C832 H828 0.949 . S
C832 C840 1.574 . S
C832 C848 1.368 . S
H833 C841 0.950 . S
H834 C839 0.950 . S
H835 C840 0.949 . S
H836 C842 0.950 . S
H837 C843 0.950 . S
H838 C844 0.949 . S
C839 H834 0.950 . S
C839 C841 1.327 . S
C839 C845 1.429 . S
C840 C832 1.574 . S
C840 H835 0.949 . S
C840 C846 1.368 . S
C841 C825 1.349 . S
C841 H833 0.950 . S
C841 C839 1.327 . S
C842 C830 1.349 . S
C842 H836 0.950 . S
C842 C843 1.327 . S
C843 H837 0.950 . S
C843 C842 1.327 . S
C843 C847 1.429 . S
C844 C827 1.574 . S
C844 H838 0.949 . S
C844 C848 1.368 . S
C845 C826 1.429 . S
C845 C839 1.429 . S
C845 C846 1.523 . S
C846 C827 1.368 . S
C846 C840 1.368 . S
C846 C845 1.523 . S
C847 C831 1.429 . S
C847 C843 1.429 . S
C847 C848 1.523 . S
C848 C832 1.368 . S
C848 C844 1.368 . S
C848 C847 1.523 . S
H849 C824 0.950 . S
H850 C826 0.950 . S
H851 C827 0.949 . S
H852 C829 0.950 . S
H853 C831 0.950 . S
C854 C855 1.349 . S
C854 C856 1.327 . S
C854 H879 0.950 . S
C855 C854 1.349 . S
C855 C871 1.349 . S
C856 C854 1.327 . S
C856 C875 1.429 . S
C856 H880 0.950 . S
C857 C874 1.574 . S
C857 C876 1.368 . S
C857 H881 0.949 . S
H858 C862 0.949 . S
C859 C860 1.349 . S
C859 C861 1.327 . S
C859 H882 0.950 . S
C860 C859 1.349 . S
C860 C872 1.349 . S
C861 C859 1.327 . S
C861 C877 1.429 . S
C861 H883 0.950 . S
C862 H858 0.949 . S
C862 C870 1.574 . S
C862 C878 1.368 . S
H863 C871 0.950 . S
H864 C869 0.950 . S
H865 C870 0.949 . S
H866 C872 0.950 . S
H867 C873 0.950 . S
H868 C874 0.949 . S
C869 H864 0.950 . S
C869 C871 1.327 . S
C869 C875 1.429 . S
C870 C862 1.574 . S
C870 H865 0.949 . S
C870 C876 1.368 . S
C871 C855 1.349 . S
C871 H863 0.950 . S
C871 C869 1.327 . S
C872 C860 1.349 . S
C872 H866 0.950 . S
C872 C873 1.327 . S
C873 H867 0.950 . S
C873 C872 1.327 . S
C873 C877 1.429 . S
C874 C857 1.574 . S
C874 H868 0.949 . S
C874 C878 1.368 . S
C875 C856 1.429 . S
C875 C869 1.429 . S
C875 C876 1.523 . S
C876 C857 1.368 . S
C876 C870 1.368 . S
C876 C875 1.523 . S
C877 C861 1.429 . S
C877 C873 1.429 . S
C877 C878 1.523 . S
C878 C862 1.368 . S
C878 C874 1.368 . S
C878 C877 1.523 . S
H879 C854 0.950 . S
H880 C856 0.950 . S
H881 C857 0.949 . S
H882 C859 0.950 . S
H883 C861 0.950 . S
C884 C885 1.349 . S
C884 C886 1.327 . S
C884 H909 0.950 . S
C885 C884 1.349 . S
C885 C901 1.349 . S
C886 C884 1.327 . S
C886 C905 1.429 . S
C886 H910 0.950 . S
C887 C904 1.574 . S
C887 C906 1.368 . S
C887 H911 0.949 . S
H888 C892 0.949 . S
C889 C890 1.349 . S
C889 C891 1.327 . S
C889 H912 0.950 . S
C890 C889 1.349 . S
C890 C902 1.349 . S
C891 C889 1.327 . S
C891 C907 1.429 . S
C891 H913 0.950 . S
C892 H888 0.949 . S
C892 C900 1.574 . S
C892 C908 1.368 . S
H893 C901 0.950 . S
H894 C899 0.950 . S
H895 C900 0.949 . S
H896 C902 0.950 . S
H897 C903 0.950 . S
H898 C904 0.949 . S
C899 H894 0.950 . S
C899 C901 1.327 . S
C899 C905 1.429 . S
C900 C892 1.574 . S
C900 H895 0.949 . S
C900 C906 1.368 . S
C901 C885 1.349 . S
C901 H893 0.950 . S
C901 C899 1.327 . S
C902 C890 1.349 . S
C902 H896 0.950 . S
C902 C903 1.327 . S
C903 H897 0.950 . S
C903 C902 1.327 . S
C903 C907 1.429 . S
C904 C887 1.574 . S
C904 H898 0.949 . S
C904 C908 1.368 . S
C905 C886 1.429 . S
C905 C899 1.429 . S
C905 C906 1.523 . S
C906 C887 1.368 . S
C906 C900 1.368 . S
C906 C905 1.523 . S
C907 C891 1.429 . S
C907 C903 1.429 . S
C907 C908 1.523 . S
C908 C892 1.368 . S
C908 C904 1.368 . S
C908 C907 1.523 . S
H909 C884 0.950 . S
H910 C886 0.950 . S
H911 C887 0.949 . S
H912 C889 0.950 . S
H913 C891 0.950 . S
C914 C915 1.349 . S
C914 C916 1.327 . S
C914 H939 0.950 . S
C915 C914 1.349 . S
C915 C931 1.349 . S
C916 C914 1.327 . S
C916 C935 1.429 . S
C916 H940 0.950 . S
C917 C934 1.574 . S
C917 C936 1.368 . S
C917 H941 0.949 . S
H918 C922 0.949 . S
C919 C920 1.349 . S
C919 C921 1.327 . S
C919 H942 0.950 . S
C920 C919 1.349 . S
C920 C932 1.349 . S
C921 C919 1.327 . S
C921 C937 1.429 . S
C921 H943 0.950 . S
C922 H918 0.949 . S
C922 C930 1.574 . S
C922 C938 1.368 . S
H923 C931 0.950 . S
H924 C929 0.950 . S
H925 C930 0.949 . S
H926 C932 0.950 . S
H927 C933 0.950 . S
H928 C934 0.949 . S
C929 H924 0.950 . S
C929 C931 1.327 . S
C929 C935 1.429 . S
C930 C922 1.574 . S
C930 H925 0.949 . S
C930 C936 1.368 . S
C931 C915 1.349 . S
C931 H923 0.950 . S
C931 C929 1.327 . S
C932 C920 1.349 . S
C932 H926 0.950 . S
C932 C933 1.327 . S
C933 H927 0.950 . S
C933 C932 1.327 . S
C933 C937 1.429 . S
C934 C917 1.574 . S
C934 H928 0.949 . S
C934 C938 1.368 . S
C935 C916 1.429 . S
C935 C929 1.429 . S
C935 C936 1.523 . S
C936 C917 1.368 . S
C936 C930 1.368 . S
C936 C935 1.523 . S
C937 C921 1.429 . S
C937 C933 1.429 . S
C937 C938 1.523 . S
C938 C922 1.368 . S
C938 C934 1.368 . S
C938 C937 1.523 . S
H939 C914 0.950 . S
H940 C916 0.950 . S
H941 C917 0.949 . S
H942 C919 0.950 . S
H943 C921 0.950 . S
C944 C945 1.349 . S
C944 C946 1.327 . S
C944 H969 0.950 . S
C945 C944 1.349 . S
C945 C961 1.349 . S
C946 C944 1.327 . S
C946 C965 1.429 . S
C946 H970 0.950 . S
C947 C964 1.574 1_565 S
C947 C966 1.368 . S
C947 H971 0.949 . S
H948 C952 0.949 . S
C949 C950 1.349 . S
C949 C951 1.327 . S
C949 H972 0.950 . S
C950 C949 1.349 . S
C950 C962 1.349 . S
C951 C949 1.327 . S
C951 C967 1.429 . S
C951 H973 0.950 . S
C952 H948 0.949 . S
C952 C960 1.574 1_545 S
C952 C968 1.368 . S
H953 C961 0.950 . S
H954 C959 0.950 . S
H955 C960 0.949 . S
H956 C962 0.950 . S
H957 C963 0.950 . S
H958 C964 0.949 . S
C959 H954 0.950 . S
C959 C961 1.327 . S
C959 C965 1.429 . S
C960 C952 1.574 1_565 S
C960 H955 0.949 . S
C960 C966 1.368 . S
C961 C945 1.349 . S
C961 H953 0.950 . S
C961 C959 1.327 . S
C962 C950 1.349 . S
C962 H956 0.950 . S
C962 C963 1.327 . S
C963 H957 0.950 . S
C963 C962 1.327 . S
C963 C967 1.429 . S
C964 C947 1.574 1_545 S
C964 H958 0.949 . S
C964 C968 1.368 . S
C965 C946 1.429 . S
C965 C959 1.429 . S
C965 C966 1.523 . S
C966 C947 1.368 . S
C966 C960 1.368 . S
C966 C965 1.523 . S
C967 C951 1.429 . S
C967 C963 1.429 . S
C967 C968 1.523 . S
C968 C952 1.368 . S
C968 C964 1.368 . S
C968 C967 1.523 . S
H969 C944 0.950 . S
H970 C946 0.950 . S
H971 C947 0.949 . S
H972 C949 0.950 . S
H973 C951 0.950 . S
C974 C975 1.349 . S
C974 C976 1.327 . S
C974 H999 0.950 . S
C975 C974 1.349 . S
C975 C991 1.349 . S
C976 C974 1.327 . S
C976 C995 1.429 . S
C976 H1000 0.950 . S
C977 C994 1.574 1_655 S
C977 C996 1.368 . S
C977 H1001 0.949 . S
H978 C982 0.949 . S
C979 C980 1.349 . S
C979 C981 1.327 . S
C979 H1002 0.950 . S
C980 C979 1.349 . S
C980 C992 1.349 . S
C981 C979 1.327 . S
C981 C997 1.429 . S
C981 H1003 0.950 . S
C982 H978 0.949 . S
C982 C990 1.574 1_455 S
C982 C998 1.368 . S
H983 C991 0.950 . S
H984 C989 0.950 . S
H985 C990 0.949 . S
H986 C992 0.950 . S
H987 C993 0.950 . S
H988 C994 0.949 . S
C989 H984 0.950 . S
C989 C991 1.327 . S
C989 C995 1.429 . S
C990 C982 1.574 1_655 S
C990 H985 0.949 . S
C990 C996 1.368 . S
C991 C975 1.349 . S
C991 H983 0.950 . S
C991 C989 1.327 . S
C992 C980 1.349 . S
C992 H986 0.950 . S
C992 C993 1.327 . S
C993 H987 0.950 . S
C993 C992 1.327 . S
C993 C997 1.429 . S
C994 C977 1.574 1_455 S
C994 H988 0.949 . S
C994 C998 1.368 . S
C995 C976 1.429 . S
C995 C989 1.429 . S
C995 C996 1.523 . S
C996 C977 1.368 . S
C996 C990 1.368 . S
C996 C995 1.523 . S
C997 C981 1.429 . S
C997 C993 1.429 . S
C997 C998 1.523 . S
C998 C982 1.368 . S
C998 C994 1.368 . S
C998 C997 1.523 . S
H999 C974 0.950 . S
H1000 C976 0.950 . S
H1001 C977 0.949 . S
H1002 C979 0.950 . S
H1003 C981 0.950 . S
C1004 C1005 1.349 . S
C1004 C1006 1.327 . S
C1004 H1029 0.950 . S
C1005 C1004 1.349 . S
C1005 C1021 1.349 . S
C1006 C1004 1.327 . S
C1006 C1025 1.429 . S
C1006 H1030 0.950 . S
C1007 C1024 1.574 1_565 S
C1007 C1026 1.368 . S
C1007 H1031 0.949 . S
H1008 C1012 0.949 . S
C1009 C1010 1.349 . S
C1009 C1011 1.327 . S
C1009 H1032 0.950 . S
C1010 C1009 1.349 . S
C1010 C1022 1.349 . S
C1011 C1009 1.327 . S
C1011 C1027 1.429 . S
C1011 H1033 0.950 . S
C1012 H1008 0.949 . S
C1012 C1020 1.574 1_545 S
C1012 C1028 1.368 . S
H1013 C1021 0.950 . S
H1014 C1019 0.950 . S
H1015 C1020 0.949 . S
H1016 C1022 0.950 . S
H1017 C1023 0.950 . S
H1018 C1024 0.949 . S
C1019 H1014 0.950 . S
C1019 C1021 1.327 . S
C1019 C1025 1.429 . S
C1020 C1012 1.574 1_565 S
C1020 H1015 0.949 . S
C1020 C1026 1.368 . S
C1021 C1005 1.349 . S
C1021 H1013 0.950 . S
C1021 C1019 1.327 . S
C1022 C1010 1.349 . S
C1022 H1016 0.950 . S
C1022 C1023 1.327 . S
C1023 H1017 0.950 . S
C1023 C1022 1.327 . S
C1023 C1027 1.429 . S
C1024 C1007 1.574 1_545 S
C1024 H1018 0.949 . S
C1024 C1028 1.368 . S
C1025 C1006 1.429 . S
C1025 C1019 1.429 . S
C1025 C1026 1.523 . S
C1026 C1007 1.368 . S
C1026 C1020 1.368 . S
C1026 C1025 1.523 . S
C1027 C1011 1.429 . S
C1027 C1023 1.429 . S
C1027 C1028 1.523 . S
C1028 C1012 1.368 . S
C1028 C1024 1.368 . S
C1028 C1027 1.523 . S
H1029 C1004 0.950 . S
H1030 C1006 0.950 . S
H1031 C1007 0.949 . S
H1032 C1009 0.950 . S
H1033 C1011 0.950 . S
C1034 C1035 1.349 . S
C1034 C1036 1.327 . S
C1034 H1059 0.950 . S
C1035 C1034 1.349 . S
C1035 C1051 1.349 . S
C1036 C1034 1.327 . S
C1036 C1055 1.429 . S
C1036 H1060 0.950 . S
C1037 C1054 1.574 1_655 S
C1037 C1056 1.368 . S
C1037 H1061 0.949 1_554 S
H1038 C1042 0.949 . S
C1039 C1040 1.349 . S
C1039 C1041 1.327 . S
C1039 H1062 0.950 1_554 S
C1040 C1039 1.349 . S
C1040 C1052 1.349 . S
C1041 C1039 1.327 . S
C1041 C1057 1.429 . S
C1041 H1063 0.950 1_554 S
C1042 H1038 0.949 . S
C1042 C1050 1.574 1_455 S
C1042 C1058 1.368 . S
H1043 C1051 0.950 1_556 S
H1044 C1049 0.950 1_556 S
H1045 C1050 0.949 . S
H1046 C1052 0.950 . S
H1047 C1053 0.950 . S
H1048 C1054 0.949 1_556 S
C1049 H1044 0.950 1_554 S
C1049 C1051 1.327 . S
C1049 C1055 1.429 . S
C1050 C1042 1.574 1_655 S
C1050 H1045 0.949 . S
C1050 C1056 1.368 . S
C1051 C1035 1.349 . S
C1051 H1043 0.950 1_554 S
C1051 C1049 1.327 . S
C1052 C1040 1.349 . S
C1052 H1046 0.950 . S
C1052 C1053 1.327 . S
C1053 H1047 0.950 . S
C1053 C1052 1.327 . S
C1053 C1057 1.429 . S
C1054 C1037 1.574 1_455 S
C1054 H1048 0.949 1_554 S
C1054 C1058 1.368 . S
C1055 C1036 1.429 . S
C1055 C1049 1.429 . S
C1055 C1056 1.523 . S
C1056 C1037 1.368 . S
C1056 C1050 1.368 . S
C1056 C1055 1.523 . S
C1057 C1041 1.429 . S
C1057 C1053 1.429 . S
C1057 C1058 1.523 . S
C1058 C1042 1.368 . S
C1058 C1054 1.368 . S
C1058 C1057 1.523 . S
H1059 C1034 0.950 . S
H1060 C1036 0.950 . S
H1061 C1037 0.949 1_556 S
H1062 C1039 0.950 1_556 S
H1063 C1041 0.950 1_556 S
C1064 C1065 1.349 . S
C1064 C1066 1.327 . S
C1064 H1089 0.950 . S
C1065 C1064 1.349 . S
C1065 C1081 1.349 . S
C1066 C1064 1.327 . S
C1066 C1085 1.429 . S
C1066 H1090 0.950 . S
C1067 C1084 1.574 1_556 S
C1067 C1086 1.367 1_556 S
C1067 H1091 0.949 . S
H1068 C1072 0.949 . S
C1069 C1070 1.349 . S
C1069 C1071 1.327 . S
C1069 H1092 0.950 . S
C1070 C1069 1.349 . S
C1070 C1082 1.349 . S
C1071 C1069 1.327 . S
C1071 C1087 1.429 . S
C1071 H1093 0.950 . S
C1072 H1068 0.949 . S
C1072 C1080 1.574 . S
C1072 C1088 1.368 . S
H1073 C1081 0.950 . S
H1074 C1079 0.950 . S
H1075 C1080 0.949 . S
H1076 C1082 0.950 . S
H1077 C1083 0.950 . S
H1078 C1084 0.949 . S
C1079 H1074 0.950 . S
C1079 C1081 1.327 . S
C1079 C1085 1.429 . S
C1080 C1072 1.574 . S
C1080 H1075 0.949 . S
C1080 C1086 1.375 . S
C1081 C1065 1.349 . S
C1081 H1073 0.950 . S
C1081 C1079 1.327 . S
C1082 C1070 1.349 . S
C1082 H1076 0.950 . S
C1082 C1083 1.327 . S
C1083 H1077 0.950 . S
C1083 C1082 1.327 . S
C1083 C1087 1.429 . S
C1084 C1067 1.574 1_554 S
C1084 H1078 0.949 . S
C1084 C1088 1.368 . S
C1085 C1066 1.429 . S
C1085 C1079 1.429 . S
C1085 C1086 1.516 1_556 S
C1086 C1067 1.367 1_554 S
C1086 C1080 1.375 . S
C1086 C1085 1.516 1_554 S
C1087 C1071 1.429 . S
C1087 C1083 1.429 . S
C1087 C1088 1.523 . S
C1088 C1072 1.368 . S
C1088 C1084 1.368 . S
C1088 C1087 1.523 . S
H1089 C1064 0.950 . S
H1090 C1066 0.950 . S
H1091 C1067 0.949 . S
H1092 C1069 0.950 . S
H1093 C1071 0.950 . S
C1094 C1095 1.349 . S
C1094 C1096 1.327 . S
C1094 H1119 0.950 . S
C1095 C1094 1.349 . S
C1095 C1111 1.349 . S
C1096 C1094 1.327 . S
C1096 C1115 1.429 . S
C1096 H1120 0.950 . S
C1097 C1114 1.574 . S
C1097 C1116 1.368 . S
C1097 H1121 0.949 . S
H1098 C1102 0.949 . S
C1099 C1100 1.349 . S
C1099 C1101 1.327 . S
C1099 H1122 0.950 . S
C1100 C1099 1.349 . S
C1100 C1112 1.349 . S
C1101 C1099 1.327 . S
C1101 C1117 1.429 . S
C1101 H1123 0.950 . S
C1102 H1098 0.949 . S
C1102 C1110 1.574 . S
C1102 C1118 1.368 . S
H1103 C1111 0.950 . S
H1104 C1109 0.950 . S
H1105 C1110 0.949 . S
H1106 C1112 0.950 . S
H1107 C1113 0.950 . S
H1108 C1114 0.949 . S
C1109 H1104 0.950 . S
C1109 C1111 1.327 . S
C1109 C1115 1.429 . S
C1110 C1102 1.574 . S
C1110 H1105 0.949 . S
C1110 C1116 1.368 . S
C1111 C1095 1.349 . S
C1111 H1103 0.950 . S
C1111 C1109 1.327 . S
C1112 C1100 1.349 . S
C1112 H1106 0.950 . S
C1112 C1113 1.327 . S
C1113 H1107 0.950 . S
C1113 C1112 1.327 . S
C1113 C1117 1.429 . S
C1114 C1097 1.574 . S
C1114 H1108 0.949 . S
C1114 C1118 1.368 . S
C1115 C1096 1.429 . S
C1115 C1109 1.429 . S
C1115 C1116 1.523 . S
C1116 C1097 1.368 . S
C1116 C1110 1.368 . S
C1116 C1115 1.523 . S
C1117 C1101 1.429 . S
C1117 C1113 1.429 . S
C1117 C1118 1.523 . S
C1118 C1102 1.368 . S
C1118 C1114 1.368 . S
C1118 C1117 1.523 . S
H1119 C1094 0.950 . S
H1120 C1096 0.950 . S
H1121 C1097 0.949 . S
H1122 C1099 0.950 . S
H1123 C1101 0.950 . S
C1124 C1125 1.349 . S
C1124 C1126 1.327 . S
C1124 H1149 0.950 . S
C1125 C1124 1.349 . S
C1125 C1141 1.349 . S
C1126 C1124 1.327 . S
C1126 C1145 1.429 . S
C1126 H1150 0.950 . S
C1127 C1144 1.574 . S
C1127 C1146 1.368 . S
C1127 H1151 0.949 . S
H1128 C1132 0.949 . S
C1129 C1130 1.349 . S
C1129 C1131 1.327 . S
C1129 H1152 0.950 . S
C1130 C1129 1.349 . S
C1130 C1142 1.349 . S
C1131 C1129 1.327 . S
C1131 C1147 1.429 . S
C1131 H1153 0.950 . S
C1132 H1128 0.949 . S
C1132 C1140 1.574 . S
C1132 C1148 1.368 . S
H1133 C1141 0.950 . S
H1134 C1139 0.950 . S
H1135 C1140 0.949 . S
H1136 C1142 0.950 . S
H1137 C1143 0.950 . S
H1138 C1144 0.949 . S
C1139 H1134 0.950 . S
C1139 C1141 1.327 . S
C1139 C1145 1.429 . S
C1140 C1132 1.574 . S
C1140 H1135 0.949 . S
C1140 C1146 1.368 . S
C1141 C1125 1.349 . S
C1141 H1133 0.950 . S
C1141 C1139 1.327 . S
C1142 C1130 1.349 . S
C1142 H1136 0.950 . S
C1142 C1143 1.327 . S
C1143 H1137 0.950 . S
C1143 C1142 1.327 . S
C1143 C1147 1.429 . S
C1144 C1127 1.574 . S
C1144 H1138 0.949 . S
C1144 C1148 1.368 . S
C1145 C1126 1.429 . S
C1145 C1139 1.429 . S
C1145 C1146 1.523 . S
C1146 C1127 1.368 . S
C1146 C1140 1.368 . S
C1146 C1145 1.523 . S
C1147 C1131 1.429 . S
C1147 C1143 1.429 . S
C1147 C1148 1.523 . S
C1148 C1132 1.368 . S
C1148 C1144 1.368 . S
C1148 C1147 1.523 . S
H1149 C1124 0.950 . S
H1150 C1126 0.950 . S
H1151 C1127 0.949 . S
H1152 C1129 0.950 . S
H1153 C1131 0.950 . S
C1154 C1155 1.349 . S
C1154 C1156 1.327 . S
C1154 H1179 0.950 . S
C1155 C1154 1.349 . S
C1155 C1171 1.349 . S
C1156 C1154 1.327 . S
C1156 C1175 1.429 . S
C1156 H1180 0.950 . S
C1157 C1174 1.574 . S
C1157 C1176 1.368 . S
C1157 H1181 0.949 . S
H1158 C1162 0.949 . S
C1159 C1160 1.349 . S
C1159 C1161 1.327 . S
C1159 H1182 0.950 . S
C1160 C1159 1.349 . S
C1160 C1172 1.349 . S
C1161 C1159 1.327 . S
C1161 C1177 1.429 . S
C1161 H1183 0.950 . S
C1162 H1158 0.949 . S
C1162 C1170 1.574 . S
C1162 C1178 1.368 . S
H1163 C1171 0.950 . S
H1164 C1169 0.950 . S
H1165 C1170 0.949 . S
H1166 C1172 0.950 . S
H1167 C1173 0.950 . S
H1168 C1174 0.949 . S
C1169 H1164 0.950 . S
C1169 C1171 1.327 . S
C1169 C1175 1.429 . S
C1170 C1162 1.574 . S
C1170 H1165 0.949 . S
C1170 C1176 1.368 . S
C1171 C1155 1.349 . S
C1171 H1163 0.950 . S
C1171 C1169 1.327 . S
C1172 C1160 1.349 . S
C1172 H1166 0.950 . S
C1172 C1173 1.327 . S
C1173 H1167 0.950 . S
C1173 C1172 1.327 . S
C1173 C1177 1.429 . S
C1174 C1157 1.574 . S
C1174 H1168 0.949 . S
C1174 C1178 1.368 . S
C1175 C1156 1.429 . S
C1175 C1169 1.429 . S
C1175 C1176 1.523 . S
C1176 C1157 1.368 . S
C1176 C1170 1.368 . S
C1176 C1175 1.523 . S
C1177 C1161 1.429 . S
C1177 C1173 1.429 . S
C1177 C1178 1.523 . S
C1178 C1162 1.368 . S
C1178 C1174 1.368 . S
C1178 C1177 1.523 . S
H1179 C1154 0.950 . S
H1180 C1156 0.950 . S
H1181 C1157 0.949 . S
H1182 C1159 0.950 . S
H1183 C1161 0.950 . S
C705 C29 0.715 . S
C710 C585 0.715 . S
C735 C108 0.715 . S
C740 C673 0.715 . S
C765 C401 0.715 . S
C770 C196 0.715 . S
C795 C489 0.715 . S
C800 C293 0.715 . S
C825 C49 1.150 . S
C830 C469 1.150 . S
C855 C145 1.150 . S
C860 C548 1.150 . S
C885 C636 1.149 . S
C890 C233 1.149 . S
C915 C313 1.150 . S
C920 C381 1.150 . S
C945 C409 1.258 . S
C950 C20 1.258 . S
C975 C117 1.258 . S
C980 C497 1.258 . S
C1005 C205 1.258 . S
C1010 C577 1.258 . S
C1035 C665 1.258 . S
C1040 C284 1.258 . S
C1065 C557 1.674 . S
C1070 C57 1.674 . S
C1095 C645 1.674 . S
C1100 C137 1.674 . S
C1125 C225 1.675 . S
C1130 C372 1.674 . S
C1155 C321 1.675 . S
C1160 C460 1.675 . S
