# Generated by pormake.
# Topology sxa, (6)-cn, num edge types: 1
# Building blocks:
#     Node 0, Type 0, BuildingBlock: LEVNOQ01_clean_sbu_1, # of connection points: 6
#     Node 1, Type 0, BuildingBlock: LEVNOQ01_clean_sbu_1, # of connection points: 6
#     Node 2, Type 0, BuildingBlock: LEVNOQ01_clean_sbu_1, # of connection points: 6
#     Node 3, Type 0, BuildingBlock: LEVNOQ01_clean_sbu_1, # of connection points: 6
#     Edge 4, Type (0, 0), BuildingBlock: CIFDUS_clean_linker_0, # of connection points: 2
#     Edge 5, Type (0, 0), BuildingBlock: CIFDUS_clean_linker_0, # of connection points: 2
#     Edge 6, Type (0, 0), BuildingBlock: CIFDUS_clean_linker_0, # of connection points: 2
#     Edge 7, Type (0, 0), BuildingBlock: CIFDUS_clean_linker_0, # of connection points: 2
#     Edge 8, Type (0, 0), BuildingBlock: CIFDUS_clean_linker_0, # of connection points: 2
#     Edge 9, Type (0, 0), BuildingBlock: CIFDUS_clean_linker_0, # of connection points: 2
#     Edge 10, Type (0, 0), BuildingBlock: CIFDUS_clean_linker_0, # of connection points: 2
#     Edge 11, Type (0, 0), BuildingBlock: CIFDUS_clean_linker_0, # of connection points: 2
#     Edge 12, Type (0, 0), BuildingBlock: CIFDUS_clean_linker_0, # of connection points: 2
#     Edge 13, Type (0, 0), BuildingBlock: CIFDUS_clean_linker_0, # of connection points: 2
#     Edge 14, Type (0, 0), BuildingBlock: CIFDUS_clean_linker_0, # of connection points: 2
#     Edge 15, Type (0, 0), BuildingBlock: CIFDUS_clean_linker_0, # of connection points: 2
# Relax obj value: 0.188
# Max RMSD: 0.232
# Mean RMSD: 0.232
data_MOF--net-sxa--node1-LEVNOQ01_clean_sbu_1--edge1-CIFDUS_clean_linker_0
_symmetry_space_group_name_H-M    P1
_symmetry_Int_Tables_number       1
_symmetry_cell_setting            triclinic
loop_
_symmetry_equiv_pos_as_xyz
'x, y, z'
_cell_length_a     23.152759
_cell_length_b     25.995536
_cell_length_c     14.006967
_cell_angle_alpha  89.86856
_cell_angle_beta   90.265712
_cell_angle_gamma 89.574873
loop_
_atom_site_label
_atom_site_type_symbol
_atom_site_fract_x
_atom_site_fract_y
_atom_site_fract_z
_atom_type_partial_charge
O0 O 0.11221 0.69738 0.22233 0.0
Mg1 Mg 0.04436 0.6584 0.29656 0.0
O2 O 0.05771 0.74364 0.1226 0.0
Mg3 Mg 0.97812 0.74315 0.21508 0.0
O4 O 0.9784 0.65135 0.20179 0.0
O5 O 0.0232 0.58304 0.26432 0.0
O6 O 0.89671 0.74206 0.31771 0.0
O7 O 0.91862 0.71673 0.08933 0.0
Mg8 Mg 0.91655 0.80263 0.13702 0.0
O9 O -0.01547 0.84012 0.19485 0.0
O10 O 0.84016 0.7804 0.21399 0.0
O11 O 0.93362 0.7795 0.99409 0.0
O12 O 0.90837 0.87771 0.11979 0.0
C13 C 0.04794 0.73333 0.4277 0.0
C14 C 0.10707 0.72853 0.15233 0.0
C15 C -0.01469 0.6014 0.20536 0.0
C16 C 0.84612 0.75725 0.29315 0.0
C17 C 0.91457 0.73506 0.00592 0.0
C18 C 0.95957 0.88069 0.1551 0.0
O19 O 0.02679 0.68871 0.43351 0.0
O20 O 0.04164 0.75808 0.34909 0.0
O21 O 0.60763 0.1786 0.2598 0.0
Mg22 Mg 0.53657 0.14748 0.33912 0.0
O23 O 0.57049 0.2308 0.14651 0.0
Mg24 Mg 0.48141 0.24544 0.21297 0.0
O25 O 0.47711 0.15916 0.23881 0.0
O26 O 0.49364 0.0804 0.28586 0.0
O27 O 0.39287 0.25653 0.29767 0.0
O28 O 0.42516 0.21066 0.08654 0.0
Mg29 Mg 0.43194 0.29775 0.10639 0.0
O30 O 0.49485 0.34051 0.16732 0.0
O31 O 0.34893 0.28708 0.17146 0.0
O32 O 0.45278 0.26084 0.97491 0.0
O33 O 0.4284 0.3692 0.06053 0.0
C34 C 0.54244 0.24228 0.43541 0.0
C35 C 0.61364 0.20867 0.18806 0.0
C36 C 0.47151 0.11051 0.2223 0.0
C37 C 0.34604 0.27086 0.25662 0.0
C38 C 0.424 0.2223 0.99878 0.0
C39 C 0.47453 0.37674 0.10961 0.0
O40 O 0.51636 0.20014 0.45043 0.0
O41 O 0.53845 0.26373 0.35277 0.0
O42 O 0.11526 0.32032 0.77421 0.0
Mg43 Mg 0.05438 0.35927 0.68047 0.0
O44 O 0.0615 0.2747 0.87676 0.0
Mg45 Mg -0.01979 0.26682 0.78517 0.0
O46 O -0.01469 0.3536 0.76389 0.0
O47 O 0.01436 0.43008 0.72276 0.0
O48 O 0.89977 0.26106 0.67974 0.0
O49 O 0.91483 0.30386 0.89755 0.0
Mg50 Mg 0.92084 0.21649 0.87459 0.0
O51 O -0.01404 0.17112 0.82856 0.0
O52 O 0.84318 0.23342 0.79268 0.0
O53 O 0.93969 0.25212 0.0083 0.0
O54 O 0.91123 0.14489 0.91928 0.0
C55 C 0.05867 0.26757 0.57864 0.0
C56 C 0.11045 0.29081 0.84706 0.0
C57 C -0.01669 0.40267 0.77897 0.0
C58 C 0.84894 0.24988 0.70803 0.0
C59 C 0.91116 0.29118 0.98439 0.0
C60 C 0.96095 0.13596 0.88213 0.0
O61 O 0.03722 0.31172 0.56094 0.0
O62 O 0.04695 0.24574 0.6588 0.0
O63 O 0.43683 0.74576 0.01445 0.0
Mg64 Mg 0.41996 0.71748 0.87423 0.0
O65 O 0.41741 0.80439 0.91209 0.0
Mg66 Mg 0.47807 0.77477 0.78984 0.0
O67 O 0.48782 0.67823 0.81877 0.0
O68 O 0.41449 0.64335 0.90262 0.0
O69 O 0.54213 0.75709 0.65772 0.0
O70 O 0.55787 0.77823 0.88196 0.0
Mg71 Mg 0.5405 0.85859 0.69965 0.0
O72 O 0.47511 0.86655 0.79422 0.0
O73 O 0.52406 0.82351 0.56616 0.0
O74 O 0.60972 0.82288 0.77777 0.0
O75 O 0.51611 0.93415 0.72527 0.0
C76 C 0.34687 0.7571 0.71382 0.0
C77 C 0.41442 0.78875 0.99736 0.0
C78 C 0.46486 0.63915 0.86508 0.0
C79 C 0.54734 0.77966 0.57679 0.0
C80 C 0.60637 0.79335 0.85027 0.0
C81 C 0.47963 0.91647 0.78627 0.0
O82 O 0.34219 0.73596 0.79502 0.0
O83 O 0.39675 0.77212 0.68753 0.0
H84 H 0.93151 0.49571 0.80935 0.0
H85 H 0.00359 0.36475 0.95753 0.0
H86 H 0.00253 0.4126 0.10747 0.0
H87 H -0.00408 0.4962 0.19091 0.0
H88 H 0.92537 0.62746 0.04143 0.0
H89 H 0.9104 0.5755 0.89962 0.0
C90 C 0.94493 0.47705 0.87523 0.0
C91 C 0.96611 0.42599 0.87211 0.0
C92 C 0.94571 0.50553 0.96124 0.0
C93 C -0.0152 0.403 0.95795 0.0
C94 C -0.01469 0.43089 0.04372 0.0
C95 C 0.97598 0.51338 0.1282 0.0
C96 C 0.96277 0.56672 0.12767 0.0
C97 C 0.9679 0.48284 0.04558 0.0
C98 C 0.93659 0.58736 0.04511 0.0
C99 C 0.92822 0.55736 0.9631 0.0
H100 H 0.51312 0.4072 0.93878 0.0
H101 H 0.49456 0.4588 0.22896 0.0
H102 H 0.50328 0.54841 0.17539 0.0
H103 H 0.49413 0.61106 0.04288 0.0
H104 H 0.50185 0.5589 0.75165 0.0
H105 H 0.52058 0.47069 0.80787 0.0
C106 C 0.51372 0.43804 0.99087 0.0
C107 C 0.50401 0.42614 0.08826 0.0
C108 C 0.51559 0.48947 0.95845 0.0
C109 C 0.50337 0.46653 0.15444 0.0
C110 C 0.5073 0.5179 0.12321 0.0
C111 C 0.50241 0.58065 0.99167 0.0
C112 C 0.49735 0.59173 0.89286 0.0
C113 C 0.51035 0.52977 0.02499 0.0
C114 C 0.50675 0.55182 0.8275 0.0
C115 C 0.51658 0.50122 0.86002 0.0
H116 H 0.50396 0.01867 0.81153 0.0
H117 H 0.40317 0.89648 0.9329 0.0
H118 H 0.38645 0.94783 0.07582 0.0
H119 H 0.4117 0.02357 0.17579 0.0
H120 H 0.51244 0.14528 0.0527 0.0
H121 H 0.51633 0.09925 0.90115 0.0
C122 C 0.47723 1.00339 0.86811 0.0
C123 C 0.45672 0.95229 0.8619 0.0
C124 C 0.46757 0.03363 0.95048 0.0
C125 C 0.42157 0.9343 0.93629 0.0
C126 C 0.41167 0.96407 0.0183 0.0
C127 C 0.43278 0.04077 0.11469 0.0
C128 C 0.46015 0.08887 0.12527 0.0
C129 C 0.43623 0.01311 0.02779 0.0
C130 C 0.48876 0.10971 0.04593 0.0
C131 C 0.49197 0.08275 0.95944 0.0
H132 H 0.00139 0.9046 0.98264 0.0
H133 H 0.97892 0.96582 0.2654 0.0
H134 H -0.01015 0.05336 0.2027 0.0
H135 H -0.01533 0.1118 0.06392 0.0
H136 H -0.00342 0.05089 0.77906 0.0
H137 H 0.01201 0.96408 0.84516 0.0
C138 C 0.00188 0.93706 0.03118 0.0
C139 C -0.00919 0.92848 0.12934 0.0
C140 C 0.00492 0.98744 0.99327 0.0
C141 C -0.01082 0.97103 0.19064 0.0
C142 C -0.00565 0.0212 0.15415 0.0
C143 C -0.00704 0.07973 0.0163 0.0
C144 C -0.0099 0.08797 0.9164 0.0
C145 C -0.00072 0.02985 0.05512 0.0
C146 C -0.0003 0.04597 0.85571 0.0
C147 C 0.00771 0.9962 0.89386 0.0
H148 H 0.23487 0.73429 0.75646 0.0
H149 H 0.34075 0.79272 0.5285 0.0
H150 H 0.25596 0.79713 0.42336 0.0
H151 H 0.15259 0.77805 0.3922 0.0
H152 H 0.0491 0.71538 0.61892 0.0
H153 H 0.13142 0.72004 0.72847 0.0
C154 C 0.2396 0.74827 0.68392 0.0
C155 C 0.29469 0.76271 0.65066 0.0
C156 C 0.19065 0.7503 0.62348 0.0
C157 C 0.29928 0.78109 0.55638 0.0
C158 C 0.25064 0.78364 0.49604 0.0
C159 C 0.14767 0.76674 0.46627 0.0
C160 C 0.09425 0.74698 0.49752 0.0
C161 C 0.19614 0.76771 0.52831 0.0
C162 C 0.0893 0.73123 0.5932 0.0
C163 C 0.13661 0.73346 0.65571 0.0
H164 H 0.08682 0.29424 0.39681 0.0
H165 H 0.15288 0.21068 0.64044 0.0
H166 H 0.24777 0.20399 0.56437 0.0
H167 H 0.31478 0.22761 0.43147 0.0
H168 H 0.24507 0.3105 0.1888 0.0
H169 H 0.15017 0.31154 0.26123 0.0
C170 C 0.12157 0.27358 0.43267 0.0
C171 C 0.11209 0.2529 0.52442 0.0
C172 C 0.17631 0.27042 0.38892 0.0
C173 C 0.15816 0.22644 0.5694 0.0
C174 C 0.2129 0.22314 0.52621 0.0
C175 C 0.27884 0.24588 0.39451 0.0
C176 C 0.28809 0.26959 0.30478 0.0
C177 C 0.22302 0.24602 0.43662 0.0
C178 C 0.24024 0.29234 0.25795 0.0
C179 C 0.18544 0.29289 0.29931 0.0
H180 H 0.73511 0.24059 0.75677 0.0
H181 H 0.84432 0.27277 0.51555 0.0
H182 H 0.75893 0.27938 0.4119 0.0
H183 H 0.65283 0.27091 0.3876 0.0
H184 H 0.54525 0.23562 0.62913 0.0
H185 H 0.62978 0.23651 0.7344 0.0
C186 C 0.74049 0.24924 0.68157 0.0
C187 C 0.7967 0.25576 0.64445 0.0
C188 C 0.69102 0.25301 0.62221 0.0
C189 C 0.80205 0.26736 0.54663 0.0
C190 C 0.75301 0.27123 0.48713 0.0
C191 C 0.64765 0.26489 0.46371 0.0
C192 C 0.59215 0.25411 0.50046 0.0
C193 C 0.69717 0.26375 0.52385 0.0
C194 C 0.58695 0.24475 0.59897 0.0
C195 C 0.63552 0.24477 0.65917 0.0
H196 H 0.73267 0.7744 0.24853 0.0
H197 H 0.84274 0.72471 0.48086 0.0
H198 H 0.75869 0.72056 0.58651 0.0
H199 H 0.65448 0.73833 0.61652 0.0
H200 H 0.54678 0.79167 0.38414 0.0
H201 H 0.62869 0.78605 0.27512 0.0
C202 C 0.73849 0.76231 0.32213 0.0
C203 C 0.79454 0.75037 0.35644 0.0
C204 C 0.68996 0.76039 0.38273 0.0
C205 C 0.80051 0.73431 0.45207 0.0
C206 C 0.75229 0.73199 0.51274 0.0
C207 C 0.64861 0.74734 0.54146 0.0
C208 C 0.59405 0.7649 0.50849 0.0
C209 C 0.69681 0.74573 0.47936 0.0
C210 C 0.58786 0.77764 0.41135 0.0
C211 C 0.63493 0.77485 0.34906 0.0
H212 H 0.31314 0.82553 0.93107 0.0
H213 H 0.402 0.78108 0.19019 0.0
H214 H 0.30961 0.76253 0.26608 0.0
H215 H 0.20823 0.73989 0.24458 0.0
H216 H 0.12102 0.77515 0.97897 0.0
H217 H 0.20909 0.8145 0.91754 0.0
C218 C 0.31222 0.81379 0.00546 0.0
C219 C 0.36411 0.80337 0.05461 0.0
C220 C 0.25972 0.79887 0.04516 0.0
C221 C 0.36238 0.78884 0.15108 0.0
C222 C 0.30974 0.77722 0.19358 0.0
C223 C 0.20848 0.75615 0.17317 0.0
C224 C 0.15912 0.75308 0.11481 0.0
C225 C 0.25891 0.77849 0.13874 0.0
C226 C 0.15916 0.77603 0.02403 0.0
C227 C 0.2092 0.79891 0.9894 0.0
H228 H 0.21189 0.27872 0.75634 0.0
H229 H 0.12759 0.24884 0.02493 0.0
H230 H 0.21687 0.21009 0.08759 0.0
H231 H 0.32056 0.19456 0.07126 0.0
H232 H 0.406 0.23179 0.8069 0.0
H233 H 0.31291 0.25416 0.73427 0.0
C234 C 0.21299 0.26398 0.82887 0.0
C235 C 0.16381 0.26806 0.88716 0.0
C236 C 0.26401 0.24164 0.86376 0.0
C237 C 0.16532 0.24709 0.97957 0.0
C238 C 0.21611 0.22455 0.01495 0.0
C239 C 0.31882 0.20599 0.99676 0.0
C240 C 0.37031 0.2126 0.94494 0.0
C241 C 0.26597 0.22263 0.95821 0.0
C242 C 0.36701 0.22674 0.84826 0.0
C243 C 0.31398 0.24051 0.80746 0.0
H244 H 0.64894 0.28062 0.05739 0.0
H245 H 0.71267 0.17365 0.271 0.0
H246 H 0.81024 0.20312 0.24609 0.0
H247 H 0.87876 0.25157 0.15351 0.0
H248 H 0.81911 0.35132 0.92649 0.0
H249 H 0.71894 0.33514 0.97143 0.0
C250 C 0.68423 0.26345 0.09777 0.0
C251 C 0.67323 0.22412 0.16439 0.0
C252 C 0.74106 0.28024 0.08262 0.0
C253 C 0.71954 0.20319 0.21768 0.0
C254 C 0.77556 0.22044 0.20451 0.0
C255 C 0.84396 0.27093 0.11526 0.0
C256 C 0.85637 0.3012 0.03496 0.0
C257 C 0.78691 0.2582 0.13617 0.0
C258 C 0.81079 0.32714 0.98794 0.0
C259 C 0.75342 0.31708 0.01234 0.0
H260 H 0.81556 0.6937 0.06637 0.0
H261 H 0.90296 0.74628 0.81333 0.0
H262 H 0.80998 0.76526 0.73728 0.0
H263 H 0.70808 0.78606 0.75916 0.0
H264 H 0.62237 0.74411 0.02106 0.0
H265 H 0.7115 0.70395 0.07998 0.0
C266 C 0.81424 0.70733 0.99307 0.0
C267 C 0.86568 0.71999 0.94599 0.0
C268 C 0.76135 0.72288 0.95415 0.0
C269 C 0.86359 0.73681 0.85081 0.0
C270 C 0.8106 0.74874 0.80841 0.0
C271 C 0.70885 0.76827 0.82931 0.0
C272 C 0.65952 0.76956 0.88734 0.0
C273 C 0.75989 0.74559 0.86242 0.0
C274 C 0.66043 0.74468 0.97637 0.0
C275 C 0.71105 0.72126 0.00948 0.0
loop_
_geom_bond_atom_site_label_1
_geom_bond_atom_site_label_2
_geom_bond_distance
_geom_bond_site_symmetry_2
_ccdc_geom_bond_type
O0 Mg1 1.990 . S
O0 C14 1.253 . S
Mg1 O0 1.990 . S
Mg1 O4 2.180 . S
Mg1 O5 2.117 . S
Mg1 O19 2.030 . S
O2 Mg3 2.073 . S
O2 C14 1.260 . S
Mg3 O2 2.073 . S
Mg3 O4 2.099 . S
Mg3 O6 2.078 1_455 S
Mg3 O7 2.072 1_455 S
Mg3 O9 2.099 1_455 S
Mg3 O20 2.079 . S
O4 Mg1 2.180 . S
O4 Mg3 2.099 . S
O4 C15 1.279 . S
O5 Mg1 2.117 . S
O5 C15 1.250 . S
O6 Mg3 2.078 1_655 S
O6 C16 1.264 . S
O7 Mg3 2.072 1_655 S
O7 C17 1.260 . S
Mg8 O9 2.180 . S
Mg8 O10 2.030 . S
Mg8 O11 1.990 . S
Mg8 O12 2.117 . S
O9 Mg3 2.099 1_655 S
O9 Mg8 2.180 . S
O9 C18 1.279 . S
O10 Mg8 2.030 . S
O10 C16 1.248 . S
O11 Mg8 1.990 . S
O11 C17 1.253 . S
O12 Mg8 2.117 . S
O12 C18 1.250 . S
C13 O19 1.248 . S
C13 O20 1.264 . S
C14 O0 1.253 . S
C14 O2 1.260 . S
C15 O4 1.279 . S
C15 O5 1.250 . S
C16 O6 1.264 . S
C16 O10 1.248 . S
C17 O7 1.260 . S
C17 O11 1.253 . S
C18 O9 1.279 . S
C18 O12 1.250 . S
O19 Mg1 2.030 . S
O19 C13 1.248 . S
O20 Mg3 2.079 . S
O20 C13 1.264 . S
O21 Mg22 1.990 . S
O21 C35 1.253 . S
Mg22 O21 1.990 . S
Mg22 O25 2.180 . S
Mg22 O26 2.117 . S
Mg22 O40 2.030 . S
O23 Mg24 2.072 . S
O23 C35 1.260 . S
Mg24 O23 2.072 . S
Mg24 O25 2.099 . S
Mg24 O27 2.079 . S
Mg24 O28 2.072 . S
Mg24 O30 2.099 . S
Mg24 O41 2.079 . S
O25 Mg22 2.180 . S
O25 Mg24 2.099 . S
O25 C36 1.279 . S
O26 Mg22 2.117 . S
O26 C36 1.250 . S
O27 Mg24 2.079 . S
O27 C37 1.264 . S
O28 Mg24 2.072 . S
O28 C38 1.260 . S
Mg29 O30 2.180 . S
Mg29 O31 2.030 . S
Mg29 O32 1.990 . S
Mg29 O33 2.117 . S
O30 Mg24 2.099 . S
O30 Mg29 2.180 . S
O30 C39 1.279 . S
O31 Mg29 2.030 . S
O31 C37 1.248 . S
O32 Mg29 1.990 . S
O32 C38 1.253 . S
O33 Mg29 2.117 . S
O33 C39 1.250 . S
C34 O40 1.248 . S
C34 O41 1.264 . S
C35 O21 1.253 . S
C35 O23 1.260 . S
C36 O25 1.279 . S
C36 O26 1.250 . S
C37 O27 1.264 . S
C37 O31 1.248 . S
C38 O28 1.260 . S
C38 O32 1.253 . S
C39 O30 1.279 . S
C39 O33 1.250 . S
O40 Mg22 2.030 . S
O40 C34 1.248 . S
O41 Mg24 2.079 . S
O41 C34 1.264 . S
O42 Mg43 1.990 . S
O42 C56 1.253 . S
Mg43 O42 1.990 . S
Mg43 O46 2.180 . S
Mg43 O47 2.117 . S
Mg43 O61 2.030 . S
O44 Mg45 2.073 . S
O44 C56 1.260 . S
Mg45 O44 2.073 . S
Mg45 O46 2.099 . S
Mg45 O48 2.078 1_455 S
Mg45 O49 2.072 1_455 S
Mg45 O51 2.099 1_455 S
Mg45 O62 2.079 . S
O46 Mg43 2.180 . S
O46 Mg45 2.099 . S
O46 C57 1.279 . S
O47 Mg43 2.117 . S
O47 C57 1.250 . S
O48 Mg45 2.078 1_655 S
O48 C58 1.264 . S
O49 Mg45 2.072 1_655 S
O49 C59 1.260 . S
Mg50 O51 2.180 . S
Mg50 O52 2.030 . S
Mg50 O53 1.990 . S
Mg50 O54 2.117 . S
O51 Mg45 2.099 1_655 S
O51 Mg50 2.180 . S
O51 C60 1.279 . S
O52 Mg50 2.030 . S
O52 C58 1.248 . S
O53 Mg50 1.990 . S
O53 C59 1.253 . S
O54 Mg50 2.117 . S
O54 C60 1.250 . S
C55 O61 1.248 . S
C55 O62 1.264 . S
C56 O42 1.253 . S
C56 O44 1.260 . S
C57 O46 1.279 . S
C57 O47 1.250 . S
C58 O48 1.264 . S
C58 O52 1.248 . S
C59 O49 1.260 . S
C59 O53 1.253 . S
C60 O51 1.279 . S
C60 O54 1.250 . S
O61 Mg43 2.030 . S
O61 C55 1.248 . S
O62 Mg45 2.079 . S
O62 C55 1.264 . S
O63 Mg64 1.990 . S
O63 C77 1.253 . S
Mg64 O63 1.990 . S
Mg64 O67 2.180 . S
Mg64 O68 2.117 . S
Mg64 O82 2.030 . S
O65 Mg66 2.072 . S
O65 C77 1.260 . S
Mg66 O65 2.072 . S
Mg66 O67 2.099 . S
Mg66 O69 2.079 . S
Mg66 O70 2.072 . S
Mg66 O72 2.099 . S
Mg66 O83 2.079 . S
O67 Mg64 2.180 . S
O67 Mg66 2.099 . S
O67 C78 1.279 . S
O68 Mg64 2.117 . S
O68 C78 1.250 . S
O69 Mg66 2.079 . S
O69 C79 1.264 . S
O70 Mg66 2.072 . S
O70 C80 1.260 . S
Mg71 O72 2.180 . S
Mg71 O73 2.030 . S
Mg71 O74 1.990 . S
Mg71 O75 2.117 . S
O72 Mg66 2.099 . S
O72 Mg71 2.180 . S
O72 C81 1.279 . S
O73 Mg71 2.030 . S
O73 C79 1.248 . S
O74 Mg71 1.990 . S
O74 C80 1.253 . S
O75 Mg71 2.117 . S
O75 C81 1.250 . S
C76 O82 1.248 . S
C76 O83 1.264 . S
C77 O63 1.253 . S
C77 O65 1.260 . S
C78 O67 1.279 . S
C78 O68 1.250 . S
C79 O69 1.264 . S
C79 O73 1.248 . S
C80 O70 1.260 . S
C80 O74 1.253 . S
C81 O72 1.279 . S
C81 O75 1.250 . S
O82 Mg64 2.030 . S
O82 C76 1.248 . S
O83 Mg66 2.079 . S
O83 C76 1.264 . S
H84 C90 0.930 . S
H85 C93 0.930 . S
H86 C94 0.930 . S
H87 C95 0.930 . S
H88 C98 0.930 . S
H89 C99 0.930 . S
C90 H84 0.930 . S
C90 C91 1.355 . S
C90 C92 1.415 . S
C91 C90 1.355 . S
C91 C93 1.419 1_556 S
C92 C90 1.415 . S
C92 C97 1.425 1_556 S
C92 C99 1.409 . S
C93 H85 0.930 . S
C93 C91 1.419 1_554 S
C93 C94 1.362 . S
C94 H86 0.930 . S
C94 C93 1.362 . S
C94 C97 1.409 . S
C95 H87 0.930 . S
C95 C96 1.355 . S
C95 C97 1.415 . S
C96 C95 1.355 . S
C96 C98 1.419 1_554 S
C97 C92 1.425 1_554 S
C97 C94 1.409 . S
C97 C95 1.415 . S
C98 H88 0.930 . S
C98 C96 1.419 1_556 S
C98 C99 1.362 . S
C99 H89 0.930 . S
C99 C92 1.409 . S
C99 C98 1.362 . S
H100 C106 0.930 . S
H101 C109 0.930 . S
H102 C110 0.930 . S
H103 C111 0.930 . S
H104 C114 0.930 . S
H105 C115 0.930 . S
C106 H100 0.930 . S
C106 C107 1.355 . S
C106 C108 1.415 1_554 S
C107 C106 1.355 . S
C107 C109 1.419 . S
C108 C106 1.415 1_556 S
C108 C113 1.425 1_556 S
C108 C115 1.409 . S
C109 H101 0.930 . S
C109 C107 1.419 . S
C109 C110 1.362 . S
C110 H102 0.930 . S
C110 C109 1.362 . S
C110 C113 1.409 . S
C111 H103 0.930 . S
C111 C112 1.355 . S
C111 C113 1.415 1_556 S
C112 C111 1.355 . S
C112 C114 1.419 . S
C113 C108 1.425 1_554 S
C113 C110 1.409 . S
C113 C111 1.415 1_554 S
C114 H104 0.930 . S
C114 C112 1.419 . S
C114 C115 1.362 . S
C115 H105 0.930 . S
C115 C108 1.409 . S
C115 C114 1.362 . S
H116 C122 0.930 . S
H117 C125 0.930 . S
H118 C126 0.930 . S
H119 C127 0.930 . S
H120 C130 0.930 . S
H121 C131 0.930 . S
C122 H116 0.930 . S
C122 C123 1.355 . S
C122 C124 1.415 . S
C123 C122 1.355 . S
C123 C125 1.419 . S
C124 C122 1.415 . S
C124 C129 1.425 1_566 S
C124 C131 1.409 1_565 S
C125 H117 0.930 . S
C125 C123 1.419 . S
C125 C126 1.362 1_556 S
C126 H118 0.930 . S
C126 C125 1.362 1_554 S
C126 C129 1.409 1_565 S
C127 H119 0.930 . S
C127 C128 1.355 . S
C127 C129 1.415 . S
C128 C127 1.355 . S
C128 C130 1.419 . S
C129 C124 1.425 1_544 S
C129 C126 1.409 1_545 S
C129 C127 1.415 . S
C130 H120 0.930 . S
C130 C128 1.419 . S
C130 C131 1.362 1_554 S
C131 H121 0.930 . S
C131 C124 1.409 1_545 S
C131 C130 1.362 1_556 S
H132 C138 0.930 . S
H133 C141 0.930 . S
H134 C142 0.930 1_545 S
H135 C143 0.930 . S
H136 C146 0.930 . S
H137 C147 0.930 1_565 S
C138 H132 0.930 . S
C138 C139 1.355 . S
C138 C140 1.415 1_554 S
C139 C138 1.355 . S
C139 C141 1.419 1_455 S
C140 C138 1.415 1_556 S
C140 C145 1.425 1_466 S
C140 C147 1.409 1_565 S
C141 H133 0.930 . S
C141 C139 1.419 1_655 S
C141 C142 1.362 . S
C142 H134 0.930 1_565 S
C142 C141 1.362 . S
C142 C145 1.409 1_565 S
C143 H135 0.930 . S
C143 C144 1.355 1_655 S
C143 C145 1.415 1_556 S
C144 C143 1.355 1_455 S
C144 C146 1.419 . S
C145 C140 1.425 1_644 S
C145 C142 1.409 1_545 S
C145 C143 1.415 1_554 S
C146 H136 0.930 . S
C146 C144 1.419 . S
C146 C147 1.362 . S
C147 H137 0.930 1_545 S
C147 C140 1.409 1_545 S
C147 C146 1.362 . S
H148 C154 0.930 . S
H149 C157 0.930 . S
H150 C158 0.930 . S
H151 C159 0.930 . S
H152 C162 0.930 . S
H153 C163 0.930 . S
C154 H148 0.930 . S
C154 C155 1.355 . S
C154 C156 1.415 . S
C155 C154 1.355 . S
C155 C157 1.419 . S
C156 C154 1.415 . S
C156 C161 1.425 . S
C156 C163 1.409 . S
C157 H149 0.930 . S
C157 C155 1.419 . S
C157 C158 1.362 . S
C158 H150 0.930 . S
C158 C157 1.362 . S
C158 C161 1.409 . S
C159 H151 0.930 . S
C159 C160 1.355 . S
C159 C161 1.415 . S
C160 C159 1.355 . S
C160 C162 1.419 . S
C161 C156 1.425 . S
C161 C158 1.409 . S
C161 C159 1.415 . S
C162 H152 0.930 . S
C162 C160 1.419 . S
C162 C163 1.362 . S
C163 H153 0.930 . S
C163 C156 1.409 . S
C163 C162 1.362 . S
H164 C170 0.930 . S
H165 C173 0.930 . S
H166 C174 0.930 . S
H167 C175 0.930 . S
H168 C178 0.930 . S
H169 C179 0.930 . S
C170 H164 0.930 . S
C170 C171 1.355 . S
C170 C172 1.415 . S
C171 C170 1.355 . S
C171 C173 1.419 . S
C172 C170 1.415 . S
C172 C177 1.425 . S
C172 C179 1.409 . S
C173 H165 0.930 . S
C173 C171 1.419 . S
C173 C174 1.362 . S
C174 H166 0.930 . S
C174 C173 1.362 . S
C174 C177 1.409 . S
C175 H167 0.930 . S
C175 C176 1.355 . S
C175 C177 1.415 . S
C176 C175 1.355 . S
C176 C178 1.419 . S
C177 C172 1.425 . S
C177 C174 1.409 . S
C177 C175 1.415 . S
C178 H168 0.930 . S
C178 C176 1.419 . S
C178 C179 1.362 . S
C179 H169 0.930 . S
C179 C172 1.409 . S
C179 C178 1.362 . S
H180 C186 0.930 . S
H181 C189 0.930 . S
H182 C190 0.930 . S
H183 C191 0.930 . S
H184 C194 0.930 . S
H185 C195 0.930 . S
C186 H180 0.930 . S
C186 C187 1.355 . S
C186 C188 1.415 . S
C187 C186 1.355 . S
C187 C189 1.419 . S
C188 C186 1.415 . S
C188 C193 1.425 . S
C188 C195 1.409 . S
C189 H181 0.930 . S
C189 C187 1.419 . S
C189 C190 1.362 . S
C190 H182 0.930 . S
C190 C189 1.362 . S
C190 C193 1.409 . S
C191 H183 0.930 . S
C191 C192 1.355 . S
C191 C193 1.415 . S
C192 C191 1.355 . S
C192 C194 1.419 . S
C193 C188 1.425 . S
C193 C190 1.409 . S
C193 C191 1.415 . S
C194 H184 0.930 . S
C194 C192 1.419 . S
C194 C195 1.362 . S
C195 H185 0.930 . S
C195 C188 1.409 . S
C195 C194 1.362 . S
H196 C202 0.930 . S
H197 C205 0.930 . S
H198 C206 0.930 . S
H199 C207 0.930 . S
H200 C210 0.930 . S
H201 C211 0.930 . S
C202 H196 0.930 . S
C202 C203 1.355 . S
C202 C204 1.415 . S
C203 C202 1.355 . S
C203 C205 1.419 . S
C204 C202 1.415 . S
C204 C209 1.425 . S
C204 C211 1.409 . S
C205 H197 0.930 . S
C205 C203 1.419 . S
C205 C206 1.362 . S
C206 H198 0.930 . S
C206 C205 1.362 . S
C206 C209 1.409 . S
C207 H199 0.930 . S
C207 C208 1.355 . S
C207 C209 1.415 . S
C208 C207 1.355 . S
C208 C210 1.419 . S
C209 C204 1.425 . S
C209 C206 1.409 . S
C209 C207 1.415 . S
C210 H200 0.930 . S
C210 C208 1.419 . S
C210 C211 1.362 . S
C211 H201 0.930 . S
C211 C204 1.409 . S
C211 C210 1.362 . S
H212 C218 0.930 . S
H213 C221 0.930 . S
H214 C222 0.930 . S
H215 C223 0.930 . S
H216 C226 0.930 . S
H217 C227 0.930 . S
C218 H212 0.930 . S
C218 C219 1.355 . S
C218 C220 1.415 . S
C219 C218 1.355 . S
C219 C221 1.419 1_556 S
C220 C218 1.415 . S
C220 C225 1.425 1_556 S
C220 C227 1.409 . S
C221 H213 0.930 . S
C221 C219 1.419 1_554 S
C221 C222 1.362 . S
C222 H214 0.930 . S
C222 C221 1.362 . S
C222 C225 1.409 . S
C223 H215 0.930 . S
C223 C224 1.355 . S
C223 C225 1.415 . S
C224 C223 1.355 . S
C224 C226 1.419 1_554 S
C225 C220 1.425 1_554 S
C225 C222 1.409 . S
C225 C223 1.415 . S
C226 H216 0.930 . S
C226 C224 1.419 1_556 S
C226 C227 1.362 . S
C227 H217 0.930 . S
C227 C220 1.409 . S
C227 C226 1.362 . S
H228 C234 0.930 . S
H229 C237 0.930 . S
H230 C238 0.930 . S
H231 C239 0.930 . S
H232 C242 0.930 . S
H233 C243 0.930 . S
C234 H228 0.930 . S
C234 C235 1.355 1_554 S
C234 C236 1.415 . S
C235 C234 1.355 1_556 S
C235 C237 1.419 . S
C236 C234 1.415 . S
C236 C241 1.425 1_554 S
C236 C243 1.409 . S
C237 H229 0.930 . S
C237 C235 1.419 . S
C237 C238 1.362 . S
C238 H230 0.930 . S
C238 C237 1.362 . S
C238 C241 1.409 . S
C239 H231 0.930 . S
C239 C240 1.355 1_556 S
C239 C241 1.415 . S
C240 C239 1.355 1_554 S
C240 C242 1.419 . S
C241 C236 1.425 1_556 S
C241 C238 1.409 . S
C241 C239 1.415 . S
C242 H232 0.930 . S
C242 C240 1.419 . S
C242 C243 1.362 . S
C243 H233 0.930 . S
C243 C236 1.409 . S
C243 C242 1.362 . S
H244 C250 0.930 . S
H245 C253 0.930 . S
H246 C254 0.930 . S
H247 C255 0.930 . S
H248 C258 0.930 . S
H249 C259 0.930 . S
C250 H244 0.930 . S
C250 C251 1.355 1_556 S
C250 C252 1.415 . S
C251 C250 1.355 1_554 S
C251 C253 1.419 . S
C252 C250 1.415 . S
C252 C257 1.425 1_556 S
C252 C259 1.409 . S
C253 H245 0.930 . S
C253 C251 1.419 . S
C253 C254 1.362 . S
C254 H246 0.930 . S
C254 C253 1.362 . S
C254 C257 1.409 . S
C255 H247 0.930 . S
C255 C256 1.355 1_554 S
C255 C257 1.415 . S
C256 C255 1.355 1_556 S
C256 C258 1.419 . S
C257 C252 1.425 1_554 S
C257 C254 1.409 . S
C257 C255 1.415 . S
C258 H248 0.930 . S
C258 C256 1.419 . S
C258 C259 1.362 . S
C259 H249 0.930 . S
C259 C252 1.409 . S
C259 C258 1.362 . S
H260 C266 0.930 . S
H261 C269 0.930 . S
H262 C270 0.930 . S
H263 C271 0.930 . S
H264 C274 0.930 . S
H265 C275 0.930 . S
C266 H260 0.930 . S
C266 C267 1.355 . S
C266 C268 1.415 . S
C267 C266 1.355 . S
C267 C269 1.419 1_554 S
C268 C266 1.415 . S
C268 C273 1.425 1_554 S
C268 C275 1.409 . S
C269 H261 0.930 . S
C269 C267 1.419 1_556 S
C269 C270 1.362 . S
C270 H262 0.930 . S
C270 C269 1.362 . S
C270 C273 1.409 . S
C271 H263 0.930 . S
C271 C272 1.355 . S
C271 C273 1.415 . S
C272 C271 1.355 . S
C272 C274 1.419 1_556 S
C273 C268 1.425 1_556 S
C273 C270 1.409 . S
C273 C271 1.415 . S
C274 H264 0.930 . S
C274 C272 1.419 1_554 S
C274 C275 1.362 . S
C275 H265 0.930 . S
C275 C268 1.409 . S
C275 C274 1.362 . S
C91 C57 1.680 1_655 S
C96 C15 1.717 1_655 S
C107 C39 1.767 . S
C112 C78 1.667 . S
C123 C81 1.747 . S
C128 C36 1.659 . S
C139 C18 1.683 1_455 S
C144 C60 1.759 1_455 S
C155 C76 1.491 . S
C160 C13 1.429 . S
C171 C55 1.475 . S
C176 C37 1.423 . S
C187 C58 1.475 . S
C192 C34 1.488 . S
C203 C16 1.436 . S
C208 C79 1.496 . S
C219 C77 0.984 . S
C224 C14 0.962 . S
C235 C56 0.920 . S
C240 C38 0.822 . S
C251 C35 0.838 . S
C256 C59 0.863 . S
C267 C17 0.945 . S
C272 C80 0.992 . S
