# Generated by pormake.
# Topology whz, (6)-cn, num edge types: 1
# Building blocks:
#     Node 0, Type 0, BuildingBlock: KUMBUR_clean_sbu_1, # of connection points: 6
#     Node 1, Type 0, BuildingBlock: KUMBUR_clean_sbu_1, # of connection points: 6
#     Node 2, Type 0, BuildingBlock: KUMBUR_clean_sbu_1, # of connection points: 6
#     Node 3, Type 0, BuildingBlock: KUMBUR_clean_sbu_1, # of connection points: 6
#     Node 4, Type 0, BuildingBlock: KUMBUR_clean_sbu_1, # of connection points: 6
#     Node 5, Type 0, BuildingBlock: KUMBUR_clean_sbu_1, # of connection points: 6
#     Node 6, Type 0, BuildingBlock: KUMBUR_clean_sbu_1, # of connection points: 6
#     Node 7, Type 0, BuildingBlock: KUMBUR_clean_sbu_1, # of connection points: 6
#     Node 8, Type 0, BuildingBlock: KUMBUR_clean_sbu_1, # of connection points: 6
#     Node 9, Type 0, BuildingBlock: KUMBUR_clean_sbu_1, # of connection points: 6
#     Node 10, Type 0, BuildingBlock: KUMBUR_clean_sbu_1, # of connection points: 6
#     Node 11, Type 0, BuildingBlock: KUMBUR_clean_sbu_1, # of connection points: 6
#     Node 12, Type 0, BuildingBlock: KUMBUR_clean_sbu_1, # of connection points: 6
#     Node 13, Type 0, BuildingBlock: KUMBUR_clean_sbu_1, # of connection points: 6
#     Node 14, Type 0, BuildingBlock: KUMBUR_clean_sbu_1, # of connection points: 6
#     Node 15, Type 0, BuildingBlock: KUMBUR_clean_sbu_1, # of connection points: 6
#     Edge 16, Type (0, 0), BuildingBlock: CIFDUS_clean_linker_0, # of connection points: 2
#     Edge 17, Type (0, 0), BuildingBlock: CIFDUS_clean_linker_0, # of connection points: 2
#     Edge 18, Type (0, 0), BuildingBlock: CIFDUS_clean_linker_0, # of connection points: 2
#     Edge 19, Type (0, 0), BuildingBlock: CIFDUS_clean_linker_0, # of connection points: 2
#     Edge 20, Type (0, 0), BuildingBlock: CIFDUS_clean_linker_0, # of connection points: 2
#     Edge 21, Type (0, 0), BuildingBlock: CIFDUS_clean_linker_0, # of connection points: 2
#     Edge 22, Type (0, 0), BuildingBlock: CIFDUS_clean_linker_0, # of connection points: 2
#     Edge 23, Type (0, 0), BuildingBlock: CIFDUS_clean_linker_0, # of connection points: 2
#     Edge 24, Type (0, 0), BuildingBlock: CIFDUS_clean_linker_0, # of connection points: 2
#     Edge 25, Type (0, 0), BuildingBlock: CIFDUS_clean_linker_0, # of connection points: 2
#     Edge 26, Type (0, 0), BuildingBlock: CIFDUS_clean_linker_0, # of connection points: 2
#     Edge 27, Type (0, 0), BuildingBlock: CIFDUS_clean_linker_0, # of connection points: 2
#     Edge 28, Type (0, 0), BuildingBlock: CIFDUS_clean_linker_0, # of connection points: 2
#     Edge 29, Type (0, 0), BuildingBlock: CIFDUS_clean_linker_0, # of connection points: 2
#     Edge 30, Type (0, 0), BuildingBlock: CIFDUS_clean_linker_0, # of connection points: 2
#     Edge 31, Type (0, 0), BuildingBlock: CIFDUS_clean_linker_0, # of connection points: 2
#     Edge 32, Type (0, 0), BuildingBlock: CIFDUS_clean_linker_0, # of connection points: 2
#     Edge 33, Type (0, 0), BuildingBlock: CIFDUS_clean_linker_0, # of connection points: 2
#     Edge 34, Type (0, 0), BuildingBlock: CIFDUS_clean_linker_0, # of connection points: 2
#     Edge 35, Type (0, 0), BuildingBlock: CIFDUS_clean_linker_0, # of connection points: 2
#     Edge 36, Type (0, 0), BuildingBlock: CIFDUS_clean_linker_0, # of connection points: 2
#     Edge 37, Type (0, 0), BuildingBlock: CIFDUS_clean_linker_0, # of connection points: 2
#     Edge 38, Type (0, 0), BuildingBlock: CIFDUS_clean_linker_0, # of connection points: 2
#     Edge 39, Type (0, 0), BuildingBlock: CIFDUS_clean_linker_0, # of connection points: 2
#     Edge 40, Type (0, 0), BuildingBlock: CIFDUS_clean_linker_0, # of connection points: 2
#     Edge 41, Type (0, 0), BuildingBlock: CIFDUS_clean_linker_0, # of connection points: 2
#     Edge 42, Type (0, 0), BuildingBlock: CIFDUS_clean_linker_0, # of connection points: 2
#     Edge 43, Type (0, 0), BuildingBlock: CIFDUS_clean_linker_0, # of connection points: 2
#     Edge 44, Type (0, 0), BuildingBlock: CIFDUS_clean_linker_0, # of connection points: 2
#     Edge 45, Type (0, 0), BuildingBlock: CIFDUS_clean_linker_0, # of connection points: 2
#     Edge 46, Type (0, 0), BuildingBlock: CIFDUS_clean_linker_0, # of connection points: 2
#     Edge 47, Type (0, 0), BuildingBlock: CIFDUS_clean_linker_0, # of connection points: 2
#     Edge 48, Type (0, 0), BuildingBlock: CIFDUS_clean_linker_0, # of connection points: 2
#     Edge 49, Type (0, 0), BuildingBlock: CIFDUS_clean_linker_0, # of connection points: 2
#     Edge 50, Type (0, 0), BuildingBlock: CIFDUS_clean_linker_0, # of connection points: 2
#     Edge 51, Type (0, 0), BuildingBlock: CIFDUS_clean_linker_0, # of connection points: 2
#     Edge 52, Type (0, 0), BuildingBlock: CIFDUS_clean_linker_0, # of connection points: 2
#     Edge 53, Type (0, 0), BuildingBlock: CIFDUS_clean_linker_0, # of connection points: 2
#     Edge 54, Type (0, 0), BuildingBlock: CIFDUS_clean_linker_0, # of connection points: 2
#     Edge 55, Type (0, 0), BuildingBlock: CIFDUS_clean_linker_0, # of connection points: 2
#     Edge 56, Type (0, 0), BuildingBlock: CIFDUS_clean_linker_0, # of connection points: 2
#     Edge 57, Type (0, 0), BuildingBlock: CIFDUS_clean_linker_0, # of connection points: 2
#     Edge 58, Type (0, 0), BuildingBlock: CIFDUS_clean_linker_0, # of connection points: 2
#     Edge 59, Type (0, 0), BuildingBlock: CIFDUS_clean_linker_0, # of connection points: 2
#     Edge 60, Type (0, 0), BuildingBlock: CIFDUS_clean_linker_0, # of connection points: 2
#     Edge 61, Type (0, 0), BuildingBlock: CIFDUS_clean_linker_0, # of connection points: 2
#     Edge 62, Type (0, 0), BuildingBlock: CIFDUS_clean_linker_0, # of connection points: 2
#     Edge 63, Type (0, 0), BuildingBlock: CIFDUS_clean_linker_0, # of connection points: 2
# Relax obj value: 0.459
# Max RMSD: 0.283
# Mean RMSD: 0.280
data_MOF--net-whz--node1-KUMBUR_clean_sbu_1--edge1-CIFDUS_clean_linker_0
_symmetry_space_group_name_H-M    P1
_symmetry_Int_Tables_number       1
_symmetry_cell_setting            triclinic
loop_
_symmetry_equiv_pos_as_xyz
'x, y, z'
_cell_length_a     29.192195
_cell_length_b     29.134539
_cell_length_c     65.819571
_cell_angle_alpha  89.039029
_cell_angle_beta   90.27746
_cell_angle_gamma 90.622357
loop_
_atom_site_label
_atom_site_type_symbol
_atom_site_fract_x
_atom_site_fract_y
_atom_site_fract_z
_atom_type_partial_charge
Tb0 Tb 0.27605 0.20416 0.21884 0.0
C1 C 0.40869 0.14451 0.15338 0.0
N2 N 0.36961 0.16918 0.15172 0.0
C3 C 0.40476 0.21858 0.12661 0.0
C4 C 0.44832 0.1574 0.14245 0.0
C5 C 0.3664 0.20459 0.13788 0.0
C6 C 0.44611 0.19529 0.12911 0.0
C7 C 0.44607 0.07551 0.1655 0.0
C8 C 0.4072 0.10381 0.16445 0.0
C9 C 0.48694 0.09006 0.15608 0.0
C10 C 0.48798 0.13082 0.14445 0.0
Tb11 Tb 0.30701 0.14051 0.16843 0.0
N12 N 0.36633 0.08979 0.17229 0.0
C13 C 0.44195 0.0323 0.17495 0.0
C14 C 0.36134 0.04595 0.17988 0.0
C15 C 0.39918 0.01717 0.18185 0.0
H16 H 0.33421 0.22213 0.13581 0.0
H17 H 0.39509 0.98294 0.18827 0.0
H18 H 0.17414 0.2458 0.20701 0.0
H19 H 0.40945 0.27334 0.26697 0.0
H20 H 0.32805 0.0326 0.18422 0.0
H21 H 0.47099 0.00952 0.17607 0.0
H22 H 0.36411 0.21141 0.25111 0.0
H23 H 0.4024 0.24717 0.11596 0.0
H24 H 0.51727 0.06897 0.15688 0.0
H25 H 0.51907 0.14056 0.13648 0.0
H26 H 0.1359 0.32096 0.20721 0.0
H27 H 0.4757 0.20608 0.12031 0.0
H28 H 0.38525 0.35419 0.26293 0.0
N29 N 0.23698 0.27156 0.21882 0.0
C30 C 0.25932 0.30815 0.22672 0.0
C31 C 0.17088 0.31794 0.21254 0.0
C32 C 0.23951 0.35201 0.22667 0.0
C33 C 0.19262 0.27534 0.21246 0.0
C34 C 0.19485 0.35672 0.21916 0.0
N35 N 0.31549 0.2567 0.23778 0.0
C36 C 0.35305 0.24648 0.24935 0.0
C37 C 0.32511 0.33707 0.2451 0.0
C38 C 0.30074 0.30056 0.23618 0.0
C39 C 0.36543 0.32717 0.25582 0.0
C40 C 0.37903 0.28154 0.25823 0.0
H41 H 0.17824 0.38977 0.21885 0.0
H42 H 0.24994 0.42325 0.2347 0.0
H43 H 0.32563 0.41033 0.25047 0.0
O44 O 0.2445 0.20877 0.24719 0.0
O45 O 0.27942 0.2475 0.19137 0.0
O46 O 0.26077 0.20099 0.16448 0.0
O47 O 0.24206 0.14555 0.2311 0.0
O48 O 0.35095 0.20026 0.21316 0.0
O49 O 0.35503 0.19786 0.17817 0.0
O50 O 0.3025 0.08617 0.14763 0.0
O51 O 0.30033 0.10145 0.19832 0.0
O52 O 0.32942 0.15268 0.22061 0.0
O53 O 0.26879 0.14884 0.14102 0.0
O54 O 0.24835 0.11183 0.18559 0.0
O55 O 0.22155 0.17865 0.19827 0.0
C56 C 0.26011 0.24128 0.17358 0.0
C57 C 0.24352 0.14088 0.2667 0.0
C58 C 0.28615 0.15901 0.29661 0.0
C59 C 0.25215 0.13822 0.30878 0.0
C60 C 0.20869 0.1205 0.27844 0.0
C61 C 0.21435 0.11681 0.29954 0.0
C62 C 0.28551 0.15092 0.2758 0.0
C63 C 0.37428 0.20685 0.19607 0.0
C64 C 0.23211 0.1656 0.24783 0.0
C65 C 0.26429 0.3891 0.23478 0.0
C66 C 0.30737 0.38172 0.24376 0.0
C67 C 0.32112 0.11008 0.2159 0.0
C68 C 0.29919 0.10882 0.11267 0.0
C69 C 0.29033 0.10958 0.07506 0.0
C70 C 0.33849 0.10985 0.0736 0.0
C71 C 0.34671 0.10593 0.11008 0.0
C72 C 0.27078 0.11005 0.09496 0.0
C73 C 0.3661 0.10743 0.09085 0.0
C74 C 0.21442 0.13563 0.19305 0.0
C75 C 0.28024 0.10935 0.13384 0.0
H76 H 0.25194 0.14342 0.32504 0.0
H77 H 0.17611 0.11123 0.27162 0.0
H78 H 0.18698 0.10259 0.30881 0.0
H79 H 0.31178 0.16689 0.26652 0.0
H80 H 0.35541 0.11209 1.05903 0.0
H81 H 0.36926 0.10224 0.12297 0.0
H82 H 0.23395 0.1105 0.09676 0.0
H83 H 0.40298 0.10653 0.0893 0.0
Tb84 Tb 0.57909 0.50896 0.46555 0.0
C85 C 0.65551 0.67127 0.40206 0.0
N86 N 0.62202 0.63893 0.40098 0.0
C87 C 0.57477 0.69132 0.38196 0.0
C88 C 0.64958 0.71569 0.39376 0.0
C89 C 0.58252 0.64766 0.39043 0.0
C90 C 0.60821 0.72573 0.38389 0.0
C91 C 0.73429 0.68944 0.41038 0.0
C92 C 0.69699 0.65836 0.41014 0.0
C93 C 0.72805 0.73474 0.40328 0.0
C94 C 0.68572 0.74784 0.39494 0.0
Tb95 Tb 0.63648 0.56964 0.41634 0.0
N96 N 0.70166 0.61406 0.41623 0.0
C97 C 0.77698 0.67346 0.41699 0.0
C98 C 0.74389 0.59748 0.42135 0.0
C99 C 0.78193 0.62707 0.42219 0.0
H100 H 0.55633 0.62142 0.38918 0.0
H101 H 0.81505 0.61403 0.42678 0.0
H102 H 0.55466 0.40498 0.45051 0.0
H103 H 0.49581 0.61386 0.521 0.0
H104 H 0.74811 0.56161 0.42524 0.0
H105 H 0.80655 0.69622 0.41747 0.0
H106 H 0.55944 0.58943 0.49934 0.0
H107 H 0.54296 0.69848 0.37407 0.0
H108 H 0.75612 0.75937 0.40354 0.0
H109 H 0.68175 0.78239 0.38889 0.0
H110 H 0.49026 0.34936 0.45294 0.0
H111 H 0.60219 0.75947 0.3773 0.0
H112 H 0.42229 0.57066 0.52087 0.0
N113 N 0.51953 0.45751 0.46585 0.0
C114 C 0.48149 0.46889 0.47617 0.0
C115 C 0.48709 0.38314 0.45936 0.0
C116 C 0.44343 0.43888 0.47762 0.0
C117 C 0.52345 0.41474 0.45794 0.0
C118 C 0.44643 0.39565 0.46882 0.0
N119 N 0.5224 0.5334 0.4867 0.0
C120 C 0.52779 0.57004 0.49924 0.0
C121 C 0.44557 0.52111 0.49915 0.0
C122 C 0.48284 0.50875 0.48693 0.0
C123 C 0.45009 0.55993 0.51125 0.0
C124 C 0.49162 0.58421 0.51146 0.0
H125 H 0.41818 0.37129 0.46976 0.0
H126 H 0.37496 0.42982 0.4898 0.0
H127 H 0.37667 0.50235 0.50859 0.0
O128 O 0.58727 0.46159 0.48962 0.0
O129 O 0.56655 0.48851 0.43456 0.0
O130 O 0.56131 0.55291 0.41543 0.0
O131 O 0.6452 0.49825 0.47792 0.0
O132 O 0.54959 0.57963 0.45891 0.0
O133 O 0.583 0.61337 0.42959 0.0
O134 O 0.62778 0.51031 0.39845 0.0
O135 O 0.67306 0.57477 0.44668 0.0
O136 O 0.61285 0.57514 0.46874 0.0
O137 O 0.66503 0.56844 0.38683 0.0
O138 O 0.67547 0.51683 0.43314 0.0
O139 O 0.61387 0.47317 0.44111 0.0
C140 C 0.54238 0.51469 0.42258 0.0
C141 C 0.65229 0.46903 0.51138 0.0
C142 C 0.64444 0.45675 0.54776 0.0
C143 C 0.69132 0.46542 0.55054 0.0
C144 C 0.69966 0.47608 0.51403 0.0
C145 C 0.71896 0.47469 0.53359 0.0
C146 C 0.62535 0.45934 0.52826 0.0
C147 C 0.55418 0.61421 0.44518 0.0
C148 C 0.63133 0.46804 0.49104 0.0
C149 C 0.40492 0.45202 0.48877 0.0
C150 C 0.40593 0.49325 0.49949 0.0
C151 C 0.65601 0.5835 0.46495 0.0
C152 C 0.62375 0.52439 0.36253 0.0
C153 C 0.62057 0.50613 0.32571 0.0
C154 C 0.57454 0.52023 0.32564 0.0
C155 C 0.57754 0.53674 0.36152 0.0
C156 C 0.64548 0.50903 0.34444 0.0
C157 C 0.55342 0.53501 0.34327 0.0
C158 C 0.65842 0.47688 0.43889 0.0
C159 C 0.64825 0.52818 0.38253 0.0
H160 H 0.70619 0.46535 0.56565 0.0
H161 H 0.72155 0.48289 0.50106 0.0
H162 H 0.75527 0.48107 0.5356 0.0
H163 H 0.58868 0.4546 0.52632 0.0
H164 H 0.55449 0.52026 0.31176 0.0
H165 H 0.5599 0.54789 0.37493 0.0
H166 H 0.68103 0.49883 0.34505 0.0
H167 H 0.5179 0.54527 0.34276 0.0
Tb168 Tb 0.21993 0.80548 0.72271 0.0
C169 C 0.12281 0.94078 0.67069 0.0
N170 N 0.13115 0.89692 0.66513 0.0
C171 C 0.05211 0.88757 0.65554 0.0
C172 C 0.07819 0.95879 0.67009 0.0
C173 C 0.09717 0.87169 0.65606 0.0
C174 C 0.04236 0.9309 0.66306 0.0
C175 C 0.15341 0.01566 0.67951 0.0
C176 C 0.15977 0.96903 0.67516 0.0
C177 C 0.10875 0.03302 0.68027 0.0
C178 C 0.07118 1.00462 0.67557 0.0
Tb179 Tb 0.20581 0.87386 0.66892 0.0
N180 N 0.20237 0.95091 0.67448 0.0
C181 C 0.19221 0.04361 0.68236 0.0
C182 C 0.24041 0.97866 0.67557 0.0
C183 C 0.23589 0.02521 0.67999 0.0
H184 H 0.10453 0.83914 0.64922 0.0
H185 H 0.26605 0.04683 0.68157 0.0
H186 H 0.33131 0.8067 0.73048 0.0
H187 H 0.0974 0.66382 0.72193 0.0
H188 H 0.27415 0.96443 0.67377 0.0
H189 H 0.18881 0.07967 0.68575 0.0
H190 H 0.12143 0.74404 0.72535 0.0
H191 H 0.02508 0.86666 0.64905 0.0
H192 H 0.10301 0.06866 0.68384 0.0
H193 H 0.03706 0.01889 0.67549 0.0
H194 H 0.39409 0.75093 0.73301 0.0
H195 H 1.00754 0.94337 0.66239 0.0
H196 H 0.15547 0.60306 0.71943 0.0
N197 N 0.28013 0.75624 0.72427 0.0
C198 C 0.27016 0.71082 0.72322 0.0
C199 C 0.35943 0.73917 0.73008 0.0
C200 C 0.30474 0.67756 0.72508 0.0
C201 C 0.32381 0.77077 0.72838 0.0
C202 C 0.34992 0.69234 0.72829 0.0
N203 N 0.19258 0.7311 0.72097 0.0
C204 C 0.14728 0.71891 0.72247 0.0
C205 C 0.21269 0.65081 0.72061 0.0
C206 C 0.22486 0.69781 0.72112 0.0
C207 C 0.16626 0.63873 0.71994 0.0
C208 C 0.13341 0.67293 0.72125 0.0
H209 H 0.3775 0.66789 0.72973 0.0
H210 H 0.31914 0.6047 0.72515 0.0
H211 H 0.23842 0.58122 0.72106 0.0
O212 O 0.2018 0.7786 0.75123 0.0
O213 O 0.26121 0.7925 0.69603 0.0
O214 O 0.21446 0.79824 0.66837 0.0
O215 O 0.24227 0.84203 0.74871 0.0
O216 O 0.14926 0.81158 0.70976 0.0
O217 O 0.15769 0.8145 0.67475 0.0
O218 O 0.25715 0.87135 0.64608 0.0
O219 O 0.20783 0.90988 0.69892 0.0
O220 O 0.16958 0.85815 0.71781 0.0
O221 O 0.19182 0.89805 0.63906 0.0
O222 O 0.27602 0.87733 0.68218 0.0
O223 O 0.27313 0.86 0.71728 0.0
C224 C 0.24447 0.7751 0.67942 0.0
C225 C 0.22297 0.81335 0.78252 0.0
C226 C 0.19063 0.77001 0.82644 0.0
C227 C 0.23422 0.81147 0.84046 0.0
C228 C 0.261 0.85398 0.79575 0.0
C229 C 0.26828 0.85373 0.8238 0.0
C230 C 0.18768 0.7709 0.7963 0.0
C231 C 0.13318 0.80392 0.6912 0.0
C232 C 0.22278 0.81158 0.76054 0.0
C233 C 0.29302 0.63079 0.72399 0.0
C234 C 0.24708 0.61744 0.72161 0.0
C235 C 0.18432 0.89995 0.71554 0.0
C236 C 0.23121 0.86509 0.61148 0.0
C237 C 0.2459 0.86464 0.57402 0.0
C238 C 0.22201 0.82224 0.57355 0.0
C239 C 0.2092 0.82242 0.60995 0.0
C240 C 0.24996 0.88611 0.59346 0.0
C241 C 0.20463 0.80139 0.5912 0.0
C242 C 0.29342 0.87841 0.70092 0.0
C243 C 0.23153 0.88833 0.63167 0.0
H244 H 0.23069 0.80874 0.85809 0.0
H245 H 0.28071 0.87849 0.78676 0.0
H246 H 0.25429 0.83516 0.83514 0.0
H247 H 0.16258 0.75031 0.7883 0.0
H248 H 0.21544 0.80494 0.55943 0.0
H249 H 0.19453 0.80574 0.62328 0.0
H250 H 0.26741 0.9189 0.59472 0.0
H251 H 0.18664 0.7688 0.59025 0.0
Tb252 Tb 0.90502 0.45899 0.91964 0.0
C253 C 0.03003 0.59003 0.97158 0.0
N254 N 0.04015 0.54911 0.96317 0.0
C255 C 0.11721 0.57529 0.95736 0.0
C256 C 0.0617 0.62691 0.97114 0.0
C257 C 0.08381 0.54048 0.95714 0.0
C258 C 0.10557 0.61927 0.96353 0.0
C259 C 0.97897 0.63462 0.99228 0.0
C260 C 0.99006 0.59328 0.98271 0.0
C261 C 1.0082 0.67297 0.99005 0.0
C262 C 0.04979 0.66897 0.9797 0.0
Tb263 Tb 0.98572 0.4931 0.96674 0.0
N264 N 0.96351 0.55494 0.98513 0.0
C265 C 0.9397 0.63564 1.00436 0.0
C266 C 0.92731 0.55491 0.99817 0.0
C267 C 0.91423 0.59537 1.0076 0.0
H268 H 0.09315 0.50657 0.95234 0.0
H269 H 0.88491 0.59526 1.01761 0.0
H270 H 0.79982 0.42701 0.9345 0.0
H271 H 0.02054 0.37882 0.86773 0.0
H272 H 0.90894 0.52384 1.00169 0.0
H273 H 0.9298 0.6668 1.01187 0.0
H274 H 0.98944 0.44303 0.88758 0.0
H275 H 0.15182 0.56828 0.95261 0.0
H276 H 0.99999 0.70521 0.99708 0.0
H277 H 0.07329 0.69801 0.97912 0.0
H278 H 0.75408 0.3554 0.9361 0.0
H279 H 0.13135 0.64632 0.96335 0.0
H280 H 0.98411 0.30177 0.87015 0.0
N281 N 0.85777 0.39568 0.92108 0.0
C282 C 0.87424 0.35734 0.91237 0.0
C283 C 0.78806 0.35532 0.92959 0.0
C284 C 0.84866 0.31601 0.91236 0.0
C285 C 0.81437 0.39571 0.92888 0.0
C286 C 0.80553 0.3151 0.92156 0.0
N287 N 0.93762 0.40178 0.90158 0.0
C288 C 0.97367 0.40933 0.8887 0.0
C289 C 0.9315 0.32321 0.89094 0.0
C290 C 0.91519 0.36067 0.90193 0.0
C291 C 0.97051 0.32969 0.87888 0.0
C292 C 0.99118 0.37316 0.87746 0.0
H293 H 0.78479 0.28402 0.92187 0.0
H294 H 0.84717 0.24539 0.90247 0.0
H295 H 0.91968 0.25178 0.88361 0.0
O296 O 0.90957 0.49856 0.89223 0.0
O297 O 0.96323 0.41461 0.92882 0.0
O298 O 0.96335 0.42106 0.96322 0.0
O299 O 0.84705 0.46539 0.90042 0.0
O300 O 0.95858 0.51326 0.91583 0.0
O301 O 0.01386 0.48441 0.93653 0.0
O302 O 0.01434 0.49292 0.9959 0.0
O303 O 0.9422 0.54789 0.95227 0.0
O304 O 0.87783 0.51109 0.93938 0.0
O305 O 0.04199 0.44996 0.9727 0.0
O306 O 0.92127 0.46493 0.97824 0.0
O307 O 0.87123 0.45001 0.95078 0.0
C308 C 0.97022 0.39641 0.94701 0.0
C309 C 0.86269 0.47152 0.86474 0.0
C310 C 0.85428 0.48501 0.82731 0.0
C311 C 0.8472 0.43734 0.82534 0.0
C312 C 0.85596 0.42446 0.86158 0.0
C313 C 0.84851 0.40768 0.84217 0.0
C314 C 0.86205 0.50186 0.84743 0.0
C315 C 1.002 0.51035 0.92111 0.0
C316 C 0.8684 0.48826 0.88615 0.0
C317 C 0.86612 0.27758 0.90248 0.0
C318 C 0.90741 0.28122 0.89174 0.0
C319 C 0.89799 0.54728 0.94729 0.0
C320 C 0.03923 0.42015 1.00613 0.0
C321 C 0.99605 0.38816 1.03446 0.0
C322 C 0.03571 0.36525 1.04128 0.0
C323 C 0.07889 0.39848 1.0132 0.0
C324 C 0.99722 0.40976 1.01528 0.0
C325 C 0.07652 0.36923 1.03024 0.0
C326 C 0.88111 0.45223 0.97078 0.0
C327 C 0.04198 0.45942 0.99194 0.0
H328 H 0.83927 0.42243 0.81079 0.0
H329 H 0.85543 0.40039 0.87423 0.0
H330 H 0.8428 0.37126 0.84017 0.0
H331 H 0.86749 0.53821 0.84973 0.0
H332 H 0.03652 0.34728 1.05579 0.0
H333 H 0.11167 0.4055 1.00608 0.0
H334 H 0.96641 0.42485 1.009 0.0
H335 H 0.10722 0.35275 1.03588 0.0
Tb336 Tb 0.71877 0.88015 0.95748 0.0
C337 C 0.79822 0.73516 0.9012 0.0
N338 N 0.81114 0.77954 0.90365 0.0
C339 C 0.89 0.75744 0.90555 0.0
C340 C 0.83063 0.69964 0.90175 0.0
C341 C 0.85653 0.79146 0.90469 0.0
C342 C 0.87692 0.71124 0.90438 0.0
C343 C 0.73811 0.68036 0.8933 0.0
C344 C 0.75277 0.72584 0.89683 0.0
C345 C 0.76969 0.64441 0.89497 0.0
C346 C 0.81594 0.65406 0.89907 0.0
Tb347 Tb 0.75399 0.83242 0.90264 0.0
N348 N 0.72383 0.76175 0.89446 0.0
C349 C 0.69268 0.67263 0.88731 0.0
C350 C 0.68077 0.75456 0.88669 0.0
C351 C 0.66416 0.71001 0.88361 0.0
H352 H 0.86655 0.82723 0.90556 0.0
H353 H 0.62965 0.70461 0.87798 0.0
H354 H 0.61539 0.83506 0.96881 0.0
H355 H 0.77499 0.05714 0.95491 0.0
H356 H 0.65862 0.783 0.88302 0.0
H357 H 0.68003 0.63822 0.88446 0.0
H358 H 0.78473 0.97331 0.95821 0.0
H359 H 0.9258 0.76683 0.90709 0.0
H360 H 0.75901 0.60922 0.89244 0.0
H361 H 0.84019 0.62616 0.89974 0.0
H362 H 0.53533 0.86045 0.96784 0.0
H363 H 0.90287 0.68493 0.90501 0.0
H364 H 0.69726 0.08959 0.95136 0.0
N365 N 0.64289 0.89985 0.95904 0.0
C366 C 0.63392 0.94522 0.95628 0.0
C367 C 0.56268 0.88457 0.96424 0.0
C368 C 0.58871 0.96175 0.95644 0.0
C369 C 0.60822 0.87007 0.96431 0.0
C370 C 0.55278 0.93048 0.9599 0.0
N371 N 0.71345 0.95828 0.95533 0.0
C372 C 0.75076 0.987 0.95629 0.0
C373 C 0.66319 0.02322 0.953 0.0
C374 C 0.67046 0.9756 0.9547 0.0
C375 C 0.70138 0.05273 0.95263 0.0
C376 C 0.74532 0.03455 0.95459 0.0
H377 H 0.51754 0.94174 0.96011 0.0
H378 H 0.54648 0.02237 0.95381 0.0
H379 H 0.61179 0.07622 0.95074 0.0
O380 O 0.76549 0.88515 0.98223 0.0
O381 O 0.71873 0.92436 0.92868 0.0
O382 O 0.69331 0.87344 0.90581 0.0
O383 O 0.6941 0.87873 0.98764 0.0
O384 O 0.79124 0.89011 0.9493 0.0
O385 O 0.79728 0.88902 0.91394 0.0
O386 O 0.76949 0.81974 0.87225 0.0
O387 O 0.7905 0.81381 0.93038 0.0
O388 O 0.73765 0.80638 0.9555 0.0
O389 O 0.77137 0.8883 0.88318 0.0
O390 O 0.68074 0.82485 0.9122 0.0
O391 O 0.67899 0.81878 0.94731 0.0
C392 C 0.69798 0.91597 0.91113 0.0
C393 C 0.73774 0.91638 1.01326 0.0
C394 C 0.75517 0.93347 1.04939 0.0
C395 C 0.73982 0.9785 1.04565 0.0
C396 C 0.72271 0.96154 1.01046 0.0
C397 C 0.72402 0.99226 1.02647 0.0
C398 C 0.7543 0.90247 1.03281 0.0
C399 C 0.81152 0.90217 0.93202 0.0
C400 C 0.73404 0.88343 0.99612 0.0
C401 C 0.581 0.00906 0.95391 0.0
C402 C 0.61818 0.03975 0.9522 0.0
C403 C 0.77283 0.79021 0.94544 0.0
C404 C 0.74554 0.87713 0.84978 0.0
C405 C 0.68593 0.84655 0.82843 0.0
C406 C 0.70531 0.86922 0.81146 0.0
C407 C 0.76577 0.8993 0.833 0.0
C408 C 0.70218 0.85719 0.84778 0.0
C409 C 0.74428 0.8971 0.81398 0.0
C410 C 0.66 0.81165 0.92931 0.0
C411 C 0.77329 0.86295 0.86729 0.0
H412 H 0.7406 1.00374 1.05751 0.0
H413 H 0.70938 0.97305 0.99593 0.0
H414 H 0.71247 0.02711 1.02401 0.0
H415 H 0.76557 0.86747 1.03515 0.0
H416 H 0.69342 0.86179 0.79624 0.0
H417 H 0.79918 0.91555 0.83432 0.0
H418 H 0.68697 0.84001 0.86086 0.0
H419 H 0.76047 0.91301 0.80089 0.0
Tb420 Tb 0.37905 0.44624 0.70703 0.0
C421 C 0.54664 0.49978 0.64301 0.0
N422 N 0.51104 0.52063 0.65195 0.0
C423 C 0.5572 0.58854 0.6563 0.0
C424 C 0.58966 0.52172 0.64091 0.0
C425 C 0.5152 0.56514 0.65796 0.0
C426 C 0.59484 0.56651 0.64798 0.0
C427 C 0.57359 0.435 0.62425 0.0
C428 C 0.53866 0.45761 0.63472 0.0
C429 C 0.61741 0.45532 0.62299 0.0
C430 C 0.6254 0.49879 0.63125 0.0
Tb431 Tb 0.44384 0.47979 0.65485 0.0
N432 N 0.49566 0.44004 0.63595 0.0
C433 C 0.56296 0.39348 0.61487 0.0
C434 C 0.48464 0.40046 0.62607 0.0
C435 C 0.51808 0.37645 0.61556 0.0
H436 H 0.48618 0.58266 0.66415 0.0
H437 H 0.50923 0.34477 0.60806 0.0
H438 H 0.43541 0.38076 0.73965 0.0
H439 H 0.19675 0.44302 0.69146 0.0
H440 H 0.45023 0.38652 0.62684 0.0
H441 H 0.58876 0.37499 0.60664 0.0
H442 H 0.2723 0.4799 0.69683 0.0
H443 H 0.56051 0.62352 0.66144 0.0
H444 H 0.64483 0.43845 0.61509 0.0
H445 H 0.65888 0.51482 0.62963 0.0
H446 H 0.4296 0.30137 0.75361 0.0
H447 H 0.62732 0.58466 0.64669 0.0
H448 H 0.18696 0.35935 0.69748 0.0
N449 N 0.37419 0.37537 0.72234 0.0
C450 C 0.33598 0.35023 0.71855 0.0
C451 C 0.40312 0.31453 0.74361 0.0
C452 C 0.33067 0.30506 0.7262 0.0
C453 C 0.40629 0.35944 0.73576 0.0
C454 C 0.36565 0.28676 0.73838 0.0
N455 N 0.30575 0.41725 0.7045 0.0
C456 C 0.26857 0.44331 0.69933 0.0
C457 C 0.25753 0.34967 0.70675 0.0
C458 C 0.30015 0.37214 0.70913 0.0
C459 C 0.22033 0.37527 0.69958 0.0
C460 C 0.22567 0.42254 0.69627 0.0
H461 H 0.36303 0.25216 0.74459 0.0
H462 H 0.28502 0.24589 0.72788 0.0
H463 H 0.22076 0.28507 0.7107 0.0
O464 O 0.39447 0.50467 0.7247 0.0
O465 O 0.34424 0.44477 0.67656 0.0
O466 O 0.39941 0.41902 0.6559 0.0
O467 O 0.34897 0.45264 0.73601 0.0
O468 O 0.35247 0.50428 0.6886 0.0
O469 O 0.42064 0.53098 0.6767 0.0
O470 O 0.4411 0.51642 0.6271 0.0
O471 O 0.46246 0.50746 0.68406 0.0
O472 O 0.4559 0.45307 0.70872 0.0
O473 O 0.37961 0.50065 0.64308 0.0
O474 O 0.46122 0.40792 0.66564 0.0
O475 O 0.43003 0.39387 0.69816 0.0
C476 C 0.35597 0.42177 0.66019 0.0
C477 C 0.39411 0.49088 0.76068 0.0
C478 C 0.39684 0.50825 0.79758 0.0
C479 C 0.43932 0.48568 0.79854 0.0
C480 C 0.43717 0.47049 0.76253 0.0
C481 C 0.45923 0.46756 0.78127 0.0
C482 C 0.3738 0.50998 0.77834 0.0
C483 C 0.37732 0.53802 0.68091 0.0
C484 C 0.37073 0.49036 0.74038 0.0
C485 C 0.2896 0.28095 0.72245 0.0
C486 C 0.253 0.30326 0.71268 0.0
C487 C 0.4816 0.48245 0.69816 0.0
C488 C 0.37521 0.50246 0.60762 0.0
C489 C 0.395 0.46264 0.57736 0.0
C490 C 0.36542 0.49056 0.56586 0.0
C491 C 0.34534 0.53074 0.59649 0.0
C492 C 0.39355 0.4643 0.59846 0.0
C493 C 0.33859 0.52303 0.57569 0.0
C494 C 0.45575 0.38184 0.68244 0.0
C495 C 0.39652 0.51775 0.62657 0.0
H496 H 0.45746 0.48143 0.81281 0.0
H497 H 0.45375 0.45629 0.74942 0.0
H498 H 0.4921 0.45085 0.78246 0.0
H499 H 0.34077 0.52635 0.77702 0.0
H500 H 0.3663 0.49027 0.54941 0.0
H501 H 0.32975 0.56009 0.60347 0.0
H502 H 0.41685 0.44318 0.60716 0.0
H503 H 0.31654 0.54546 0.56688 0.0
Tb504 Tb 0.81917 0.13819 0.45779 0.0
C505 C 0.79829 0.30179 0.39558 0.0
N506 N 0.7648 0.27601 0.40455 0.0
C507 C 0.7175 0.34255 0.40694 0.0
C508 C 0.79367 0.34964 0.39293 0.0
C509 C 0.72412 0.29538 0.40972 0.0
C510 C 0.75283 0.36999 0.39897 0.0
C511 C 0.8678 0.30426 0.37554 0.0
C512 C 0.83472 0.27941 0.38687 0.0
C513 C 0.86563 0.35239 0.37447 0.0
C514 C 0.8285 0.37505 0.3831 0.0
Tb515 Tb 0.77763 0.19896 0.40622 0.0
N516 N 0.83498 0.23283 0.38773 0.0
C517 C 0.90014 0.27982 0.36452 0.0
C518 C 0.86312 0.20892 0.37525 0.0
C519 C 0.89695 0.23194 0.36392 0.0
H520 H 0.69637 0.27423 0.4156 0.0
H521 H 0.92035 0.2128 0.35468 0.0
H522 H 0.88587 0.19783 0.4883 0.0
H523 H 0.82795 0.96089 0.43445 0.0
H524 H 0.85998 0.17211 0.37449 0.0
H525 H 0.92611 0.29762 0.35561 0.0
H526 H 0.78965 0.03416 0.44037 0.0
H527 H 0.68522 0.35774 0.411 0.0
H528 H 0.89112 0.37218 0.3661 0.0
H529 H 0.82594 0.41195 0.38122 0.0
H530 H 0.96585 0.19373 0.50116 0.0
H531 H 0.74759 0.40653 0.39687 0.0
H532 H 0.90962 0.95157 0.44367 0.0
N533 N 0.89012 0.13567 0.47214 0.0
C534 C 0.91475 0.09748 0.46852 0.0
C535 C 0.95204 0.16661 0.49183 0.0
C536 C 0.95993 0.09299 0.47583 0.0
C537 C 0.90714 0.16916 0.48437 0.0
C538 C 0.97885 0.12869 0.48725 0.0
N539 N 0.84908 0.06692 0.45257 0.0
C540 C 0.82507 0.03074 0.44466 0.0
C541 C 0.91667 0.02025 0.45547 0.0
C542 C 0.89335 0.0616 0.4586 0.0
C543 C 0.89294 0.98394 0.44637 0.0
C544 C 0.8468 0.98905 0.44118 0.0
H545 H 0.01351 0.12665 0.49313 0.0
H546 H 0.01901 0.04858 0.47735 0.0
H547 H 0.98114 0.98489 0.45945 0.0
O548 O 0.76011 0.13367 0.47636 0.0
O549 O 0.8519 0.11596 0.42852 0.0
O550 O 0.7919 0.12665 0.40728 0.0
O551 O 0.82541 0.11481 0.48831 0.0
O552 O 0.75808 0.10987 0.44217 0.0
O553 O 0.72256 0.17108 0.42613 0.0
O554 O 0.76204 0.15374 0.38258 0.0
O555 O 0.74625 0.2182 0.43476 0.0
O556 O 0.80207 0.21257 0.45945 0.0
O557 O 0.73165 0.22034 0.3833 0.0
O558 O 0.85263 0.20631 0.41525 0.0
O559 O 0.8546 0.20321 0.45037 0.0
C560 C 0.83229 0.11031 0.41053 0.0
C561 C 0.77298 0.14518 0.51197 0.0
C562 C 0.75205 0.14497 0.54867 0.0
C563 C 0.75446 0.19334 0.54778 0.0
C564 C 0.77573 0.19316 0.51219 0.0
C565 C 0.76649 0.21687 0.52989 0.0
C566 C 0.76152 0.12107 0.53033 0.0
C567 C 0.72102 0.12918 0.43425 0.0
C568 C 0.78261 0.12072 0.49264 0.0
C569 C 0.98406 0.05255 0.47204 0.0
C570 C 0.96247 0.01625 0.46188 0.0
C571 C 0.76768 0.23459 0.45061 0.0
C572 C 0.68511 0.16015 0.37119 0.0
C573 C 0.61027 0.16815 0.35499 0.0
C574 C 0.59836 0.12343 0.36127 0.0
C575 C 0.67285 0.11541 0.37759 0.0
C576 C 0.65348 0.18621 0.36019 0.0
C577 C 0.62948 0.09739 0.37277 0.0
C578 C 0.8737 0.21484 0.43283 0.0
C579 C 0.73088 0.18039 0.37491 0.0
H580 H 0.74603 0.21369 0.5608 0.0
H581 H 0.78484 0.21248 0.4986 0.0
H582 H 0.76818 0.25402 0.52971 0.0
H583 H 0.76036 0.08395 0.53022 0.0
H584 H 0.56579 0.10841 0.35686 0.0
H585 H 0.69666 0.0943 0.38616 0.0
H586 H 0.66365 0.22006 0.35458 0.0
H587 H 0.62035 0.06281 0.37761 0.0
Tb588 Tb 0.0403 0.54464 0.15853 0.0
C589 C 0.20791 0.6441 0.20176 0.0
N590 N 0.20321 0.59806 0.19964 0.0
C591 C 0.28209 0.59284 0.1899 0.0
C592 C 0.24979 0.66668 0.19743 0.0
C593 C 0.24 0.57196 0.1946 0.0
C594 C 0.28681 0.64051 0.191 0.0
C595 C 0.17714 0.71478 0.2146 0.0
C596 C 0.17182 0.66793 0.20997 0.0
C597 C 0.21766 0.73817 0.20907 0.0
C598 C 0.2539 0.71417 0.20045 0.0
Tb599 Tb 0.13143 0.56884 0.2052 0.0
N600 N 0.13348 0.64404 0.21539 0.0
C601 C 0.1428 0.73598 0.22574 0.0
C602 C 0.10284 0.66312 0.2285 0.0
C603 C 0.10611 0.70969 0.23319 0.0
H604 H 0.23645 0.53516 0.19393 0.0
H605 H 0.08046 0.72519 0.24262 0.0
H606 H 1.0062 0.43659 0.16711 0.0
H607 H 0.05673 0.64159 0.08848 0.0
H608 H 0.07437 0.6429 0.23435 0.0
H609 H 0.14555 0.77192 0.22958 0.0
H610 H 0.04794 0.63118 0.12559 0.0
H611 H 0.31085 0.57217 0.18549 0.0
H612 H 0.22207 0.77435 0.2122 0.0
H613 H 0.2856 0.73226 0.19697 0.0
H614 H 0.99845 0.36525 0.14753 0.0
H615 H 0.31955 0.65658 0.18751 0.0
H616 H 0.05693 0.57388 0.06625 0.0
N617 N 0.02854 0.47706 0.14185 0.0
C618 C 0.035 0.47876 0.12149 0.0
C619 C 1.00915 0.39688 0.14002 0.0
C620 C 0.03093 0.43913 0.10963 0.0
C621 C 0.01355 0.4373 0.15109 0.0
C622 C 0.01868 0.39761 0.11923 0.0
N623 N 0.04381 0.55831 0.12437 0.0
C624 C 0.04783 0.60141 0.11603 0.0
C625 C 0.0475 0.52522 0.09115 0.0
C626 C 0.04281 0.52101 0.11239 0.0
C627 C 0.05303 0.56914 0.08251 0.0
C628 C 0.05286 0.60744 0.09501 0.0
H629 H 0.01512 0.36634 0.11066 0.0
H630 H 0.03618 0.41237 0.07929 0.0
H631 H 0.04999 0.48786 0.06294 0.0
O632 O 0.9728 0.52367 0.16462 0.0
O633 O 0.08347 0.48385 0.16774 0.0
O634 O 0.14675 0.50874 0.18716 0.0
O635 O 0.9873 0.59214 0.15379 0.0
O636 O 0.10648 0.56495 0.14683 0.0
O637 O 0.16069 0.57723 0.17309 0.0
O638 O 0.11204 0.56 0.23597 0.0
O639 O 0.07705 0.61941 0.19682 0.0
O640 O 0.06706 0.61525 0.16218 0.0
O641 O 0.18008 0.54507 0.22697 0.0
O642 O 0.08008 0.51222 0.20975 0.0
O643 O 0.03283 0.55122 0.19059 0.0
C644 C 0.12599 0.47907 0.17505 0.0
C645 C 0.915 0.56122 0.14605 0.0
C646 C 0.87643 0.53233 0.11608 0.0
C647 C 0.83969 0.56184 0.11948 0.0
C648 C 0.87793 0.59015 0.14963 0.0
C649 C 0.84029 0.59029 0.13639 0.0
C650 C 0.91383 0.53206 0.12946 0.0
C651 C 0.14818 0.57462 0.15336 0.0
C652 C 0.95548 0.56295 0.15918 0.0
C653 C 0.03789 0.44258 0.08856 0.0
C654 C 0.0459 0.48558 0.07928 0.0
C655 C 0.06879 0.63924 0.17895 0.0
C656 C 0.15127 0.5046 0.25646 0.0
C657 C 0.15637 0.47019 0.29129 0.0
C658 C 0.14537 0.42737 0.28288 0.0
C659 C 0.14068 0.46105 0.24893 0.0
C660 C 0.15974 0.50898 0.27777 0.0
C661 C 0.13795 0.4229 0.26201 0.0
C662 C 0.03858 0.51671 0.20268 0.0
C663 C 0.15173 0.54529 0.24216 0.0
H664 H 0.81106 0.56323 0.10896 0.0
H665 H 0.87843 0.61299 0.16245 0.0
H666 H 0.81197 0.61308 0.13903 0.0
H667 H 0.94296 0.51054 0.12645 0.0
H668 H 0.14341 0.39683 0.29247 0.0
H669 H 0.13427 0.45654 0.23286 0.0
H670 H 0.16812 0.54241 0.28381 0.0
H671 H 0.1299 0.38947 0.25591 0.0
Tb672 Tb 0.76323 0.69407 0.717 0.0
C673 C 0.90888 0.5992 0.65477 0.0
N674 N 0.88155 0.63622 0.65268 0.0
C675 C 0.93838 0.67408 0.63196 0.0
C676 C 0.95308 0.59873 0.6463 0.0
C677 C 0.8948 0.67281 0.64077 0.0
C678 C 0.96804 0.63725 0.63509 0.0
C679 C 0.91578 0.51936 0.66478 0.0
C680 C 0.8905 0.56027 0.66373 0.0
C681 C 0.96117 0.5194 0.65774 0.0
C682 C 0.97979 0.55906 0.64846 0.0
Tb683 Tb 0.81156 0.63172 0.66801 0.0
N684 N 0.84614 0.56147 0.66958 0.0
C685 C 0.89389 0.47931 0.67192 0.0
C686 C 0.82361 0.52176 0.67504 0.0
C687 C 0.84734 0.48036 0.67672 0.0
H688 H 0.8725 0.70184 0.63878 0.0
H689 H 0.82967 0.44929 0.68163 0.0
H690 H 0.66537 0.73411 0.6983 0.0
H691 H 0.87813 0.7609 0.77401 0.0
H692 H 0.78754 0.52216 0.67863 0.0
H693 H 0.91208 0.44713 0.67301 0.0
H694 H 0.84875 0.70412 0.74981 0.0
H695 H 0.94925 0.70367 0.62298 0.0
H696 H 0.98143 0.48849 0.65863 0.0
H697 H 0.01413 0.55814 0.64232 0.0
H698 H 0.61845 0.80324 0.70107 0.0
H699 H 1.00176 0.63829 0.62827 0.0
H700 H 0.83867 0.83506 0.77774 0.0
N701 N 0.71804 0.75808 0.71812 0.0
C702 C 0.73156 0.79196 0.73069 0.0
C703 C 0.65026 0.80058 0.70951 0.0
C704 C 0.70541 0.83194 0.73305 0.0
C705 C 0.67726 0.76141 0.7079 0.0
C706 C 0.66442 0.8361 0.72212 0.0
N707 N 0.79315 0.74537 0.73966 0.0
C708 C 0.83087 0.73602 0.75133 0.0
C709 C 0.78633 0.81907 0.75546 0.0
C710 C 0.77089 0.78549 0.74179 0.0
C711 C 0.82563 0.81019 0.76705 0.0
C712 C 0.84787 0.76833 0.76503 0.0
H713 H 0.64345 0.86637 0.72338 0.0
H714 H 0.70178 0.89749 0.74809 0.0
H715 H 0.77331 0.88647 0.76748 0.0
O716 O 0.71866 0.68591 0.74192 0.0
O717 O 0.74286 0.71291 0.68652 0.0
O718 O 0.80273 0.70838 0.66519 0.0
O719 O 0.74506 0.62723 0.72707 0.0
O720 O 0.83591 0.71737 0.70955 0.0
O721 O 0.86234 0.68216 0.6798 0.0
O722 O 0.75503 0.64666 0.64879 0.0
O723 O 0.81481 0.59595 0.6988 0.0
O724 O 0.82615 0.65556 0.72026 0.0
O725 O 0.8069 0.60034 0.63935 0.0
O726 O 0.75235 0.59979 0.68393 0.0
O727 O 0.72068 0.66689 0.69212 0.0
C728 C 0.77092 0.73318 0.67396 0.0
C729 C 0.71524 0.6138 0.76002 0.0
C730 C 0.68714 0.60789 0.79468 0.0
C731 C 0.69887 0.56139 0.79562 0.0
C732 C 0.72483 0.56655 0.76063 0.0
C733 C 0.71742 0.54074 0.7785 0.0
C734 C 0.69635 0.63378 0.77702 0.0
C735 C 0.868 0.71067 0.69525 0.0
C736 C 0.71839 0.64127 0.7411 0.0
C737 C 0.72097 0.8662 0.74627 0.0
C738 C 0.76161 0.85989 0.75735 0.0
C739 C 0.8296 0.6119 0.71655 0.0
C740 C 0.77149 0.64436 0.61317 0.0
C741 C 0.75857 0.64246 0.57588 0.0
C742 C 0.77863 0.68653 0.57441 0.0
C743 C 0.79007 0.68867 0.61088 0.0
C744 C 0.75535 0.62135 0.59557 0.0
C745 C 0.79401 0.70926 0.59169 0.0
C746 C 0.71583 0.62256 0.68915 0.0
C747 C 0.77019 0.62219 0.63382 0.0
H748 H 0.69367 0.54135 0.80944 0.0
H749 H 0.73802 0.54964 0.74739 0.0
H750 H 0.72591 0.50467 0.77904 0.0
H751 H 0.68879 0.67016 0.77655 0.0
H752 H 0.78101 0.70442 0.55989 0.0
H753 H 0.80142 0.70761 0.62398 0.0
H754 H 0.74048 0.58727 0.59721 0.0
H755 H 0.80858 0.74347 0.59021 0.0
Tb756 Tb 0.08664 0.0433 0.967 0.0
C757 C 0.17331 0.16986 0.89685 0.0
N758 N 0.14215 0.13518 0.89615 0.0
C759 C 0.10115 0.17502 0.86963 0.0
C760 C 0.16867 0.20972 0.88464 0.0
C761 C 0.10717 0.13633 0.88226 0.0
C762 C 0.13155 0.2123 0.87111 0.0
C763 C 0.2479 0.19573 0.90811 0.0
C764 C 0.21231 0.16265 0.90812 0.0
C765 C 0.24209 0.23737 0.89735 0.0
C766 C 0.20256 0.24427 0.88552 0.0
Tb767 Tb 0.15545 0.07149 0.91587 0.0
N768 N 0.21729 0.12097 0.91722 0.0
C769 C 0.2891 0.18482 0.91792 0.0
C770 C 0.25887 0.1088 0.92524 0.0
C771 C 0.29486 0.14082 0.92622 0.0
H772 H 0.0839 0.1074 0.88101 0.0
H773 H 0.32725 0.13126 0.93305 0.0
H774 H 0.09193 0.94208 0.98845 0.0
H775 H 0.93118 0.12446 0.93711 0.0
H776 H 0.26441 0.07426 0.93093 0.0
H777 H 0.31732 0.20925 0.9183 0.0
H778 H 0.01091 0.10145 0.93611 0.0
H779 H 0.07307 0.17612 0.85885 0.0
H780 H 0.26883 0.26346 0.8973 0.0
H781 H 0.19941 0.27553 0.87649 0.0
H782 H 0.04388 0.89149 1.01033 0.0
H783 H 0.12691 0.24217 0.86132 0.0
H784 H 0.8792 0.09079 0.963 0.0
N785 N 0.04003 0.99183 0.98388 0.0
C786 C 0.99605 1.00298 0.9872 0.0
C787 C 0.02991 0.92287 1.00396 0.0
C788 C 0.96693 0.97501 0.99927 0.0
C789 C 0.05697 0.95151 0.99151 0.0
C790 C 0.98479 0.93503 1.00813 0.0
N791 N 1.00893 0.0617 0.9637 0.0
C792 C 0.99086 0.08972 0.9488 0.0
C793 C 0.93232 0.04963 0.97701 0.0
C794 C 0.97959 0.03983 0.97661 0.0
C795 C 0.91528 0.08242 0.96334 0.0
C796 C 0.94453 0.10159 0.94878 0.0
H797 H 0.96369 0.91263 1.01758 0.0
H798 H 0.89767 0.96609 1.01058 0.0
H799 H 0.86697 0.03139 0.9907 0.0
O800 O 0.08819 0.04783 0.99885 0.0
O801 O 0.08011 1.00503 0.93961 0.0
O802 O 0.08025 0.05427 0.91335 0.0
O803 O 0.14464 0.0169 0.9823 0.0
O804 O 0.0789 0.11764 0.95756 0.0
O805 O 0.10739 0.12754 0.92427 0.0
O806 O 0.13866 0.02479 0.89213 0.0
O807 O 0.18916 0.07065 0.94667 0.0
O808 O 0.13375 0.10098 0.96558 0.0
O809 O 0.20495 0.05529 0.89416 0.0
O810 O 0.18372 0.01357 0.93471 0.0
O811 O 0.11856 0.98628 0.95041 0.0
C812 C 0.05895 0.022 0.92401 0.0
C813 C 0.15229 0.01799 1.01895 0.0
C814 C 0.14135 0.99904 1.05464 0.0
C815 C 0.1843 0.97799 1.05541 0.0
C816 C 0.19511 0.99644 1.01959 0.0
C817 C 0.21179 0.97812 1.038 0.0
C818 C 0.12756 0.02173 1.0367 0.0
C819 C 0.08421 0.14242 0.94028 0.0
C820 C 0.1279 0.02739 0.99978 0.0
C821 C 0.92064 0.98677 1.00122 0.0
C822 C 0.90323 0.02404 0.98999 0.0
C823 C 0.1771 0.0942 0.96279 0.0
C824 C 0.17785 0.04402 0.86063 0.0
C825 C 0.17718 0.02577 0.8239 0.0
C826 C 0.18359 0.07283 0.81953 0.0
C827 C 0.18758 0.08994 0.85514 0.0
C828 C 0.17297 0.0115 0.84473 0.0
C829 C 0.18909 0.10431 0.83495 0.0
C830 C 0.16189 0.98082 0.94504 0.0
C831 C 0.17772 0.031 0.88289 0.0
H832 H 0.19537 0.9597 0.06899 0.0
H833 H 0.2147 0.9921 1.00585 0.0
H834 H 0.24461 0.96121 1.03841 0.0
H835 H 0.09376 0.03663 1.03565 0.0
H836 H 0.18498 0.08556 0.80398 0.0
H837 H 0.19522 0.11513 0.86645 0.0
H838 H 0.16766 0.97553 0.84854 0.0
H839 H 0.19554 0.14013 0.83122 0.0
Tb840 Tb 0.737 0.30927 0.2193 0.0
C841 C 0.60942 0.42699 0.15702 0.0
N842 N 0.63538 0.39029 0.15275 0.0
C843 C 0.57621 0.36189 0.13071 0.0
C844 C 0.56466 0.43165 0.14926 0.0
C845 C 0.62075 0.35941 0.13868 0.0
C846 C 0.54755 0.39754 0.13647 0.0
C847 C 0.60747 0.50408 0.16979 0.0
C848 C 0.63035 0.46239 0.16698 0.0
C849 C 0.56133 0.50775 0.16381 0.0
C850 C 0.53988 0.47147 0.15352 0.0
Tb851 Tb 0.70479 0.38538 0.16899 0.0
N852 N 0.67516 0.45758 0.17166 0.0
C853 C 0.6325 0.54134 0.17739 0.0
C854 C 0.7007 0.49487 0.1773 0.0
C855 C 0.67963 0.537 0.18071 0.0
H856 H 0.64291 0.33174 0.13434 0.0
H857 H 0.69976 0.56609 0.18577 0.0
H858 H 0.84564 0.28472 0.2117 0.0
H859 H 0.60199 0.20754 0.25395 0.0
H860 H 0.73711 0.49182 0.17961 0.0
H861 H 0.61632 0.57409 0.17979 0.0
H862 H 0.64207 0.27909 0.24358 0.0
H863 H 0.56401 0.33626 0.12021 0.0
H864 H 0.54273 0.5392 0.16615 0.0
H865 H 0.50507 0.47548 0.14805 0.0
H866 H 0.89461 0.21636 0.21165 0.0
H867 H 0.51326 0.39964 0.13018 0.0
H868 H 0.64025 0.13265 0.2503 0.0
N869 N 0.78461 0.24721 0.21875 0.0
C870 C 0.76649 0.20579 0.22397 0.0
C871 C 0.85849 0.2128 0.21502 0.0
C872 C 0.79314 0.16572 0.22436 0.0
C873 C 0.83043 0.25149 0.21487 0.0
C874 C 0.83968 0.1696 0.2196 0.0
N875 N 0.69998 0.24491 0.23184 0.0
C876 C 0.65858 0.24653 0.24141 0.0
C877 C 0.70169 0.16285 0.23717 0.0
C878 C 0.72202 0.20449 0.23049 0.0
C879 C 0.65743 0.16389 0.2452 0.0
C880 C 0.63593 0.20607 0.24748 0.0
H881 H 0.86145 0.13971 0.21978 0.0
H882 H 0.79236 0.09218 0.2301 0.0
H883 H 0.71177 0.08959 0.24118 0.0
O884 O 0.76059 0.30072 0.24935 0.0
O885 O 0.76844 0.30416 0.18978 0.0
O886 O 0.71403 0.31 0.1656 0.0
O887 O 0.75486 0.36792 0.23607 0.0
O888 O 0.66503 0.29597 0.20733 0.0
O889 O 0.65425 0.32881 0.17484 0.0
O890 O 0.76974 0.384 0.15527 0.0
O891 O 0.69501 0.41575 0.20006 0.0
O892 O 0.67633 0.35167 0.21895 0.0
O893 O 0.71338 0.41228 0.1388 0.0
O894 O 0.7557 0.41079 0.19129 0.0
O895 O 0.79223 0.346 0.20237 0.0
C896 C 0.74585 0.28579 0.17492 0.0
C897 C 0.74348 0.36119 0.27116 0.0
C898 C 0.68141 0.35803 0.2959 0.0
C899 C 0.70875 0.38494 0.309 0.0
C900 C 0.7699 0.38789 0.28434 0.0
C901 C 0.75222 0.40032 0.30307 0.0
C902 C 0.6987 0.34842 0.27651 0.0
C903 C 0.64026 0.30227 0.19032 0.0
C904 C 0.76394 0.34457 0.25244 0.0
C905 C 0.77272 0.12355 0.23004 0.0
C906 C 0.72686 0.12207 0.23632 0.0
C907 C 0.67727 0.39627 0.21669 0.0
C908 C 0.77402 0.37882 0.11893 0.0
C909 C 0.79649 0.38086 0.08224 0.0
C910 C 0.81857 0.33861 0.08573 0.0
C911 C 0.79506 0.33586 0.12092 0.0
C912 C 0.77469 0.40134 0.09936 0.0
C913 C 0.81734 0.31641 0.10462 0.0
C914 C 0.79305 0.39035 0.19799 0.0
C915 C 0.7563 0.40118 0.13785 0.0
H916 H 0.69783 0.39265 0.32423 0.0
H917 H 0.80441 0.39845 0.28028 0.0
H918 H 0.7729 0.42059 0.31334 0.0
H919 H 0.67836 0.32947 0.26572 0.0
H920 H 0.83825 0.32258 0.07398 0.0
H921 H 0.79566 0.31756 0.13538 0.0
H922 H 0.75869 0.43451 0.09763 0.0
H923 H 0.83462 0.28397 0.10673 0.0
Tb924 Tb 0.3868 0.94209 0.41548 0.0
C925 C 0.42772 0.02908 0.50106 0.0
N926 N 0.44917 0.0357 0.48302 0.0
C927 C 0.44893 0.11723 0.48808 0.0
C928 C 0.41273 0.06625 0.51261 0.0
C929 C 0.46265 0.07906 0.47708 0.0
C930 C 0.42271 0.11085 0.50563 0.0
C931 C 0.40545 0.97611 0.52802 0.0
C932 C 0.42495 0.985 0.50884 0.0
C933 C 0.38628 0.01243 0.53876 0.0
C934 C 0.39016 0.05755 0.53112 0.0
Tb935 Tb 0.46322 0.96998 0.46523 0.0
N936 N 0.44419 0.95116 0.49802 0.0
C937 C 0.40687 0.93126 0.53595 0.0
C938 C 0.44946 0.90828 0.50643 0.0
C939 C 0.43004 0.89747 0.52535 0.0
H940 H 0.48242 0.08426 0.46334 0.0
H941 H 0.43272 0.86309 0.53168 0.0
H942 H 0.28052 0.9094 0.42926 0.0
H943 H 0.51089 0.86137 0.36766 0.0
H944 H 0.4667 0.88191 0.49812 0.0
H945 H 0.39174 0.92281 0.55056 0.0
H946 H 0.47729 0.92572 0.38663 0.0
H947 H 0.45819 0.15152 0.4829 0.0
H948 H 0.37023 1.00628 0.55337 0.0
H949 H 0.37738 0.08555 0.54003 0.0
H950 H 0.23493 0.83779 0.42954 0.0
H951 H 0.41202 0.14042 0.5141 0.0
H952 H 0.47256 0.78513 0.36818 0.0
N953 N 0.33925 0.87906 0.41598 0.0
C954 C 0.35625 0.84127 0.40691 0.0
C955 C 0.26922 0.83816 0.42335 0.0
C956 C 0.33071 0.79997 0.40619 0.0
C957 C 0.29555 0.87853 0.42346 0.0
C958 C 0.28706 0.79855 0.4149 0.0
N959 N 0.42222 0.88512 0.39837 0.0
C960 C 0.46066 0.89237 0.38688 0.0
C961 C 0.41628 0.80718 0.38685 0.0
C962 C 0.39852 0.84466 0.39737 0.0
C963 C 0.45774 0.81313 0.37645 0.0
C964 C 0.47956 0.85614 0.37615 0.0
H965 H 0.26636 0.76746 0.41466 0.0
H966 H 0.33003 0.72976 0.39578 0.0
H967 H 0.40488 0.7361 0.37884 0.0
O968 O 0.39207 0.98404 0.38863 0.0
O969 O 0.44016 0.89269 0.42598 0.0
O970 O 0.44925 0.89557 0.4608 0.0
O971 O 0.33334 0.94079 0.39393 0.0
O972 O 0.44137 0.99649 0.41146 0.0
O973 O 0.48258 0.96055 0.43436 0.0
O974 O 0.52536 1.00503 0.47107 0.0
O975 O 0.42447 0.02663 0.44922 0.0
O976 O 0.3591 0.99448 0.43509 0.0
O977 O 0.52396 0.93236 0.46842 0.0
O978 O 0.40049 0.93416 0.47324 0.0
O979 O 0.34872 0.93721 0.44568 0.0
C980 C 0.44918 0.87247 0.44367 0.0
C981 C 0.32601 0.99552 0.36642 0.0
C982 C 0.31082 0.0217 0.33101 0.0
C983 C 0.26633 0.03332 0.33702 0.0
C984 C 0.28177 0.00889 0.37177 0.0
C985 C 0.25235 0.02782 0.35719 0.0
C986 C 0.34082 1.00296 0.34602 0.0
C987 C 0.4806 0.99316 0.42105 0.0
C988 C 0.3541 0.96793 0.38103 0.0
C989 C 0.34902 0.76188 0.39637 0.0
C990 C 0.39165 0.76549 0.3867 0.0
C991 C 0.38034 0.02859 0.44426 0.0
C992 C 0.57209 0.9618 0.49299 0.0
C993 C 0.56266 0.96039 0.5295 0.0
C994 C 0.59983 0.9303 0.53141 0.0
C995 C 0.60992 0.93281 0.49487 0.0
C996 C 0.55054 0.97736 0.51035 0.0
C997 C 0.62427 0.9178 0.51415 0.0
C998 C 0.3593 0.93002 0.46542 0.0
C999 C 0.54841 0.96757 0.47358 0.0
H1000 H 0.24224 0.04725 0.32612 0.0
H1001 H 0.26942 1.00347 0.38713 0.0
H1002 H 0.2181 0.03756 0.36148 0.0
H1003 H 0.37486 0.99251 0.34168 0.0
H1004 H 0.6094 0.91581 0.54604 0.0
H1005 H 0.62671 0.92005 0.48148 0.0
H1006 H 0.52108 0.99935 0.5088 0.0
H1007 H 0.65284 0.89459 0.51563 0.0
Tb1008 Tb 0.20883 0.3706 0.45476 0.0
C1009 C 0.29856 0.21957 0.39899 0.0
N1010 N 0.30385 0.26598 0.39821 0.0
C1011 C 0.38425 0.25723 0.39168 0.0
C1012 C 0.3365 0.19023 0.39737 0.0
C1013 C 0.34546 0.28475 0.39302 0.0
C1014 C 0.37994 0.20979 0.39439 0.0
C1015 C 0.24739 0.15345 0.39926 0.0
C1016 C 0.25454 0.20141 0.39967 0.0
C1017 C 0.2852 0.1241 0.39889 0.0
C1018 C 0.32967 0.14243 0.39789 0.0
Tb1019 Tb 0.23764 0.3071 0.40173 0.0
N1020 N 0.2187 0.23083 0.39972 0.0
C1021 C 0.20243 0.13646 0.39872 0.0
C1022 C 0.17493 0.2144 0.39781 0.0
C1023 C 0.16607 0.16713 0.39768 0.0
H1024 H 0.34881 0.32107 0.38972 0.0
H1025 H 0.1312 0.1544 0.39656 0.0
H1026 H 0.12978 0.31463 0.48201 0.0
H1027 H 0.22698 0.55056 0.43414 0.0
H1028 H 0.14666 0.23735 0.39625 0.0
H1029 H 0.1955 0.09986 0.39845 0.0
H1030 H 0.25352 0.47125 0.43875 0.0
H1031 H 0.41729 0.27259 0.38823 0.0
H1032 H 0.28037 0.08721 0.39897 0.0
H1033 H 0.35845 0.11936 0.39703 0.0
H1034 H 0.05215 0.33006 0.49486 0.0
H1035 H 0.40995 0.18847 0.39313 0.0
H1036 H 0.1478 0.57072 0.44342 0.0
N1037 N 0.13682 0.37974 0.46715 0.0
C1038 C 0.11903 0.42234 0.46441 0.0
C1039 C 0.07037 0.35616 0.48612 0.0
C1040 C 0.07496 0.43276 0.47159 0.0
C1041 C 0.11426 0.3475 0.47875 0.0
C1042 C 0.05025 0.39866 0.48218 0.0
N1043 N 0.18991 0.44603 0.45032 0.0
C1044 C 0.21903 0.47934 0.44296 0.0
C1045 C 0.13001 0.50175 0.45359 0.0
C1046 C 0.14653 0.45667 0.45589 0.0
C1047 C 0.15924 0.53568 0.44547 0.0
C1048 C 0.204 0.52445 0.44025 0.0
H1049 H 0.01636 0.40533 0.488 0.0
H1050 H 0.02392 0.48584 0.47405 0.0
H1051 H 0.07188 0.54608 0.45802 0.0
O1052 O 0.23826 0.41045 0.47819 0.0
O1053 O 0.1789 0.39918 0.42573 0.0
O1054 O 0.23822 0.38092 0.40614 0.0
O1055 O 0.21345 0.34262 0.48469 0.0
O1056 O 0.2762 0.39244 0.44222 0.0
O1057 O 0.29713 0.34082 0.41698 0.0
O1058 O 0.20228 0.33624 0.37673 0.0
O1059 O 0.2222 0.26744 0.4291 0.0
O1060 O 0.25637 0.31115 0.45301 0.0
O1061 O 0.26153 0.29556 0.37217 0.0
O1062 O 0.16357 0.31214 0.40915 0.0
O1063 O 0.15739 0.31731 0.44457 0.0
C1064 C 0.20061 0.40382 0.40828 0.0
C1065 C 0.21739 0.39432 0.51285 0.0
C1066 C 0.23049 0.40435 0.55005 0.0
C1067 C 0.1849 0.41969 0.5513 0.0
C1068 C 0.17363 0.41256 0.51505 0.0
C1069 C 0.1574 0.42444 0.53405 0.0
C1070 C 0.24624 0.39098 0.53043 0.0
C1071 C 0.30676 0.37412 0.43 0.0
C1072 C 0.23282 0.37908 0.49232 0.0
C1073 C 0.05786 0.47731 0.4688 0.0
C1074 C 0.08525 0.51168 0.45976 0.0
C1075 C 0.24953 0.27068 0.44473 0.0
C1076 C 0.25938 0.36532 0.35448 0.0
C1077 C 0.2899 0.39643 0.32288 0.0
C1078 C 0.31999 0.42501 0.33365 0.0
C1079 C 0.29199 0.3917 0.36513 0.0
C1080 C 0.25648 0.37039 0.33354 0.0
C1081 C 0.32029 0.42321 0.35484 0.0
C1082 C 0.13913 0.30937 0.4262 0.0
C1083 C 0.23505 0.32651 0.36438 0.0
H1084 H 0.16954 0.42779 0.56569 0.0
H1085 H 0.15158 0.4176 0.50214 0.0
H1086 H 0.1229 0.43726 0.53546 0.0
H1087 H 0.28073 0.37849 0.52865 0.0
H1088 H 0.34631 0.44466 0.32574 0.0
H1089 H 0.29714 0.38698 0.38122 0.0
H1090 H 0.23356 0.34739 0.32548 0.0
H1091 H 0.34518 0.44329 0.36321 0.0
Tb1092 Tb 0.87923 0.95777 0.21034 0.0
C1093 C 0.04599 0.01043 0.14629 0.0
N1094 N 0.01108 0.03172 0.15557 0.0
C1095 C 0.05879 0.09857 0.15999 0.0
C1096 C 0.08935 0.03158 0.14402 0.0
C1097 C 0.0165 0.07584 0.16194 0.0
C1098 C 0.09562 0.07612 0.15122 0.0
C1099 C 0.07122 0.94532 0.12726 0.0
C1100 C 0.03698 0.96857 0.13787 0.0
C1101 C 0.11532 0.96492 0.12574 0.0
C1102 C 0.12434 0.00815 0.13406 0.0
Tb1103 Tb 0.94319 0.99184 0.15844 0.0
N1104 N 0.99363 0.95198 0.13909 0.0
C1105 C 0.05961 0.90387 0.11802 0.0
C1106 C 0.9813 0.91335 0.12882 0.0
C1107 C 0.01418 0.88827 0.11847 0.0
H1108 H 0.98845 0.09342 0.16883 0.0
H1109 H 1.00447 0.85701 0.11083 0.0
H1110 H 0.94698 0.90086 0.24164 0.0
H1111 H 0.69643 0.93997 0.19852 0.0
H1112 H 0.94635 0.90114 0.12917 0.0
H1113 H 0.08499 0.88457 0.1099 0.0
H1114 H 0.77032 0.98193 0.19983 0.0
H1115 H 0.06302 0.13326 0.16538 0.0
H1116 H 0.14221 0.9476 0.11768 0.0
H1117 H 0.15806 0.02359 0.1323 0.0
H1118 H 0.9468 0.82608 0.2601 0.0
H1119 H 0.12836 0.09372 0.14977 0.0
H1120 H 0.69175 0.85875 0.21012 0.0
N1121 N 0.88121 0.89033 0.22847 0.0
C1122 C 0.84342 0.86314 0.22767 0.0
C1123 C 0.91753 0.83599 0.25094 0.0
C1124 C 0.84169 0.8201 0.23771 0.0
C1125 C 0.91745 0.8784 0.2406 0.0
C1126 C 0.87981 0.80627 0.24917 0.0
N1127 N 0.80776 0.9242 0.21083 0.0
C1128 C 0.76883 0.94634 0.2047 0.0
C1129 C 0.76362 0.8556 0.21828 0.0
C1130 C 0.80516 0.88067 0.21828 0.0
C1131 C 0.72437 0.87683 0.21047 0.0
C1132 C 0.72685 0.92271 0.20398 0.0
H1133 H 0.87991 0.77346 0.25716 0.0
H1134 H 0.79943 0.7599 0.24403 0.0
H1135 H 0.7309 0.791 0.22687 0.0
O1136 O 0.89781 0.01737 0.22653 0.0
O1137 O 0.84236 0.95423 0.18023 0.0
O1138 O 0.89886 0.93106 0.15948 0.0
O1139 O 0.85052 0.9684 0.2393 0.0
O1140 O 0.84952 0.01431 0.19182 0.0
O1141 O 0.91748 0.04157 0.18032 0.0
O1142 O 0.94086 0.02968 0.131 0.0
O1143 O 0.96097 0.02045 0.18754 0.0
O1144 O 0.95595 0.96392 0.21122 0.0
O1145 O 0.87897 0.01084 0.1462 0.0
O1146 O 0.96311 0.92069 0.16928 0.0
O1147 O 0.92604 0.9032 0.20019 0.0
C1148 C 0.85522 0.93286 0.16355 0.0
C1149 C 0.90017 1.00569 0.26263 0.0
C1150 C 0.90371 0.01895 0.29986 0.0
C1151 C 0.94831 1.00089 0.29983 0.0
C1152 C 0.94521 0.98961 0.26349 0.0
C1153 C 0.96878 0.98695 0.2819 0.0
C1154 C 0.87952 0.02075 0.2809 0.0
C1155 C 0.87353 0.0479 0.18343 0.0
C1156 C 0.8749 1.00507 0.24278 0.0
C1157 C 0.80133 0.79344 0.2367 0.0
C1158 C 0.76232 0.81115 0.22693 0.0
C1159 C 0.9806 0.99542 0.20149 0.0
C1160 C 0.87499 0.01641 0.11087 0.0
C1161 C 0.89071 0.99175 0.07685 0.0
C1162 C 0.85036 0.01271 0.06984 0.0
C1163 C 0.83478 0.03766 0.10404 0.0
C1164 C 0.89918 0.98885 0.09775 0.0
C1165 C 0.82156 0.03419 0.08365 0.0
C1166 C 0.9542 0.89257 0.18514 0.0
C1167 C 0.89626 0.02949 0.13014 0.0
H1168 H 0.96766 0.99661 0.31378 0.0
H1169 H 0.96226 0.97857 0.24992 0.0
H1170 H 1.00322 0.97353 0.2823 0.0
H1171 H 0.84503 0.03398 0.2802 0.0
H1172 H 0.84355 0.01612 1.0537 0.0
H1173 H 0.815 0.05856 0.11417 0.0
H1174 H 0.93064 0.97342 0.10321 0.0
H1175 H 0.79123 0.05167 0.07825 0.0
Tb1176 Tb 0.32382 0.63939 0.95375 0.0
C1177 C 0.28934 0.82493 0.89801 0.0
N1178 N 0.26468 0.78752 0.90398 0.0
C1179 C 0.1974 0.83363 0.90658 0.0
C1180 C 0.26952 0.86879 0.89683 0.0
C1181 C 0.21886 0.79092 0.90768 0.0
C1182 C 0.223 0.87289 0.90143 0.0
C1183 C 0.35931 0.85526 0.8833 0.0
C1184 C 0.33316 0.8182 0.89117 0.0
C1185 C 0.34115 0.89976 0.88347 0.0
C1186 C 0.29618 0.90649 0.89016 0.0
Tb1187 Tb 0.30075 0.71848 0.90344 0.0
N1188 N 0.34842 0.77452 0.89051 0.0
C1189 C 0.40183 0.8461 0.87458 0.0
C1190 C 0.38832 0.76501 0.88066 0.0
C1191 C 0.41604 0.80065 0.87295 0.0
H1192 H 0.19875 0.76054 0.91133 0.0
H1193 H 0.44816 0.79304 0.86566 0.0
H1194 H 0.38094 0.70384 0.98616 0.0
H1195 H 0.3345 0.45764 0.94002 0.0
H1196 H 0.39902 0.7298 0.87913 0.0
H1197 H 0.42306 0.87361 0.86838 0.0
H1198 H 0.29627 0.53287 0.94108 0.0
H1199 H 0.16117 0.83624 0.90972 0.0
H1200 H 0.36085 0.92883 0.87769 0.0
H1201 H 0.28184 0.94064 0.88943 0.0
H1202 H 0.45399 0.70025 1.00541 0.0
H1203 H 0.20631 0.90592 0.90055 0.0
H1204 H 0.41339 0.44935 0.95349 0.0
N1205 N 0.38946 0.63863 0.97275 0.0
C1206 C 0.41447 0.5998 0.97226 0.0
C1207 C 0.4434 0.67183 0.99604 0.0
C1208 C 0.45621 0.59599 0.98294 0.0
C1209 C 0.40206 0.67373 0.9852 0.0
C1210 C 0.47102 0.63308 0.99463 0.0
N1211 N 0.35392 0.56725 0.95393 0.0
C1212 C 0.33092 0.52971 0.94675 0.0
C1213 C 0.41903 0.52042 0.9624 0.0
C1214 C 0.39614 0.56273 0.96228 0.0
C1215 C 0.39699 0.48251 0.95375 0.0
C1216 C 0.35241 0.48703 0.94618 0.0
H1217 H 0.50295 0.63162 1.00307 0.0
H1218 H 0.51324 0.5513 0.99002 0.0
H1219 H 0.48066 0.48498 0.97193 0.0
O1220 O 0.26375 0.65571 0.97002 0.0
O1221 O 0.32865 0.60711 0.92291 0.0
O1222 O 0.35498 0.6677 0.90328 0.0
O1223 O 0.30886 0.60402 0.98138 0.0
O1224 O 0.27189 0.61561 0.93174 0.0
O1225 O 0.24274 0.683 0.91886 0.0
O1226 O 0.26805 0.73525 0.8761 0.0
O1227 O 0.26614 0.72328 0.93223 0.0
O1228 O 0.31961 0.71535 0.95658 0.0
O1229 O 0.28736 0.66579 0.88234 0.0
O1230 O 0.36995 0.73266 0.91757 0.0
O1231 O 0.38383 0.68169 0.94496 0.0
C1232 C 0.34907 0.62351 0.90625 0.0
C1233 C 0.2723 0.64898 1.00643 0.0
C1234 C 0.25626 0.64433 1.04375 0.0
C1235 C 0.27199 0.69011 1.04503 0.0
C1236 C 0.2879 0.6942 1.00892 0.0
C1237 C 0.28777 0.71435 1.02795 0.0
C1238 C 0.25658 0.62391 1.02401 0.0
C1239 C 0.23953 0.63818 0.92184 0.0
C1240 C 0.27341 0.62869 0.98551 0.0
C1241 C 0.48072 0.55479 0.98217 0.0
C1242 C 0.46217 0.51703 0.97187 0.0
C1243 C 0.28833 0.74052 0.94747 0.0
C1244 C 0.28291 0.69079 0.84805 0.0
C1245 C 0.32408 0.74107 0.80701 0.0
C1246 C 0.28379 0.70173 0.79009 0.0
C1247 C 0.24817 0.6523 0.83185 0.0
C1248 C 0.32079 0.73569 0.837 0.0
C1249 C 0.24686 0.65729 0.80392 0.0
C1250 C 0.39696 0.71479 0.93209 0.0
C1251 C 0.26957 0.69395 0.86923 0.0
H1252 H 0.27112 0.70825 1.05922 0.0
H1253 H 0.30006 0.71436 0.99605 0.0
H1254 H 0.29956 0.7495 1.02946 0.0
H1255 H 0.24499 0.58879 1.02225 0.0
H1256 H 0.29051 0.70769 0.77273 0.0
H1257 H 0.22584 0.62717 0.83913 0.0
H1258 H 0.34204 0.75703 0.84644 0.0
H1259 H 0.26316 0.67765 0.7939 0.0
Tb1260 Tb 0.5512 0.01539 0.66392 0.0
C1261 C 0.70495 0.14282 0.70455 0.0
N1262 N 0.69956 0.09666 0.70365 0.0
C1263 C 0.77925 0.08945 0.69529 0.0
C1264 C 0.74724 0.16447 0.70013 0.0
C1265 C 0.73669 0.06965 0.70006 0.0
C1266 C 0.78437 0.13715 0.69495 0.0
C1267 C 0.67372 0.21521 0.71483 0.0
C1268 C 0.6688 0.16774 0.71155 0.0
C1269 C 0.71471 0.23772 0.70923 0.0
C1270 C 0.75144 0.21234 0.70183 0.0
Tb1271 Tb 0.62648 0.06846 0.70881 0.0
N1272 N 0.63038 0.14442 0.71711 0.0
C1273 C 0.63833 0.23793 0.72462 0.0
C1274 C 0.59757 0.16552 0.72821 0.0
C1275 C 0.60064 0.21269 0.73185 0.0
H1276 H 0.73374 0.03281 0.70046 0.0
H1277 H 0.57401 0.22949 0.74023 0.0
H1278 H 0.53582 0.903 0.67046 0.0
H1279 H 0.5544 0.11546 0.5942 0.0
H1280 H 0.56856 0.14592 0.73394 0.0
H1281 H 0.64073 0.27438 0.72751 0.0
H1282 H 0.53232 0.09963 0.62985 0.0
H1283 H 0.80812 0.06787 0.69196 0.0
H1284 H 0.71898 0.27432 0.71132 0.0
H1285 H 0.78346 0.22976 0.69825 0.0
H1286 H 0.55185 0.83284 0.65104 0.0
H1287 H 0.81746 0.15239 0.69141 0.0
H1288 H 0.58873 0.05394 0.57386 0.0
N1289 N 0.55434 0.94848 0.64625 0.0
C1290 C 0.56821 0.9525 0.62676 0.0
C1291 C 0.55669 0.86638 0.64401 0.0
C1292 C 0.57961 0.91401 0.6153 0.0
C1293 C 0.54718 0.90607 0.65491 0.0
C1294 C 0.57389 0.87038 0.62423 0.0
N1295 N 0.55481 0.03047 0.62972 0.0
C1296 C 0.54692 0.07263 0.62107 0.0
C1297 C 0.582 1.00257 0.59786 0.0
C1298 C 0.56877 0.99553 0.61815 0.0
C1299 C 0.57837 0.04677 0.58938 0.0
C1300 C 0.55922 0.08162 0.60085 0.0
H1301 H 0.58209 0.83974 0.61595 0.0
H1302 H 0.60665 0.89183 0.58647 0.0
H1303 H 0.61116 0.97044 0.57166 0.0
O1304 O 0.48634 0.98466 0.66079 0.0
O1305 O 0.60339 0.96682 0.67556 0.0
O1306 O 0.65747 0.00797 0.69428 0.0
O1307 O 0.49304 0.05072 0.67433 0.0
O1308 O 0.61112 0.0492 0.65137 0.0
O1309 O 0.65737 0.07893 0.67752 0.0
O1310 O 0.63211 0.01221 0.72972 0.0
O1311 O 0.56445 0.10568 0.6989 0.0
O1312 O 0.55869 0.09195 0.66484 0.0
O1313 O 0.64192 0.08133 0.73944 0.0
O1314 O 0.5526 0.04966 0.71295 0.0
O1315 O 0.56166 0.98913 0.69433 0.0
C1316 C 0.64513 0.97209 0.68331 0.0
C1317 C 0.43111 0.03943 0.65212 0.0
C1318 C 0.40939 0.0503 0.61667 0.0
C1319 C 0.37472 0.08037 0.62234 0.0
C1320 C 0.39591 0.06878 0.65792 0.0
C1321 C 0.36766 0.08905 0.64301 0.0
C1322 C 0.43707 0.03037 0.63163 0.0
C1323 C 0.64851 0.06979 0.65798 0.0
C1324 C 0.46477 0.02093 0.66666 0.0
C1325 C 0.59612 0.92071 0.59542 0.0
C1326 C 0.59822 0.96524 0.58689 0.0
C1327 C 0.5559 0.12048 0.68024 0.0
C1328 C 0.67522 0.02438 0.76063 0.0
C1329 C 0.69597 1.00752 0.79656 0.0
C1330 C 0.74225 1.00709 0.79063 0.0
C1331 C 0.72159 0.02288 0.75543 0.0
C1332 C 0.66247 0.01625 0.78122 0.0
C1333 C 0.75474 0.01425 0.77033 0.0
C1334 C 0.53809 0.00833 0.70829 0.0
C1335 C 0.64043 0.03855 0.74521 0.0
H1336 H 0.35347 0.09695 0.61092 0.0
H1337 H 0.39092 0.07664 0.67378 0.0
H1338 H 0.34083 0.11211 0.64747 0.0
H1339 H 0.46505 0.00875 0.62708 0.0
H1340 H 0.76905 0.99993 0.80163 0.0
H1341 H 0.73224 0.02913 0.73991 0.0
H1342 H 0.62663 0.01777 0.78532 0.0
H1343 H 0.79052 0.01328 0.76613 0.0
H1344 H 0.24033 0.23287 0.28608 0.0
H1345 H 0.36512 0.1897 0.31559 0.0
H1346 H 0.38934 0.27081 0.31862 0.0
H1347 H 0.36871 0.35258 0.31617 0.0
H1348 H 0.24396 0.39272 0.28615 0.0
H1349 H 0.22909 0.31328 0.27668 0.0
C1350 C 0.27304 0.24124 0.29307 0.0
C1351 C 0.30051 0.20607 0.30122 0.0
C1352 C 0.28754 0.28669 0.29347 0.0
C1353 C 0.34302 0.21672 0.30994 0.0
C1354 C 0.3571 0.26272 0.31121 0.0
C1355 C 0.33949 0.34419 0.30662 0.0
C1356 C 0.3047 0.37682 0.30363 0.0
C1357 C 0.32915 0.29792 0.30328 0.0
C1358 C 0.2696 0.36714 0.28967 0.0
C1359 C 0.26004 0.32149 0.28509 0.0
H1360 H 0.46704 0.51647 0.58055 0.0
H1361 H 0.42454 0.38292 0.56005 0.0
H1362 H 0.50544 0.36195 0.55541 0.0
H1363 H 0.58708 0.38529 0.55515 0.0
H1364 H 0.62693 0.51889 0.57653 0.0
H1365 H 0.5478 0.53431 0.58571 0.0
C1366 C 0.47564 0.48301 0.5747 0.0
C1367 C 0.44051 0.45179 0.5697 0.0
C1368 C 0.52131 0.47046 0.57363 0.0
C1369 C 0.45138 0.4079 0.56304 0.0
C1370 C 0.49736 0.3957 0.56096 0.0
C1371 C 0.57852 0.41675 0.5628 0.0
C1372 C 0.61195 0.45171 0.56454 0.0
C1373 C 0.53251 0.42683 0.56623 0.0
C1374 C 0.60141 0.49195 0.57478 0.0
C1375 C 0.55602 0.50136 0.57933 0.0
H1376 H 0.18824 0.6986 0.83962 0.0
H1377 H 0.12357 0.83593 0.82785 0.0
H1378 H 0.19015 0.87472 0.80838 0.0
H1379 H 0.32845 0.81462 0.79637 0.0
H1380 H 0.39185 0.67599 0.80641 0.0
H1381 H 0.32338 0.63507 0.82361 0.0
C1382 C 0.20042 0.73026 0.83092 0.0
C1383 C 0.15619 0.76642 0.83366 0.0
C1384 C 0.25342 0.72789 0.81976 0.0
C1385 C 0.15398 0.81594 0.82513 0.0
C1386 C 0.19424 0.83868 0.8129 0.0
C1387 C 0.31419 0.78095 0.80253 0.0
C1388 C 0.35948 0.74577 0.8009 0.0
C1389 C 0.25839 0.78078 0.81062 0.0
C1390 C 0.36053 0.69517 0.80819 0.0
C1391 C 0.31835 0.67059 0.81834 0.0
H1392 H 0.94773 0.46768 1.03434 0.0
H1393 H 0.96248 0.33972 0.06804 0.0
H1394 H 0.91944 0.37202 0.09607 0.0
H1395 H 0.88902 0.44088 0.11265 0.0
H1396 H 0.87537 0.56684 0.0779 0.0
H1397 H 0.90568 0.52972 1.04796 0.0
C1398 C 0.94017 0.44528 1.04721 0.0
C1399 C 0.95931 0.40105 1.04893 0.0
C1400 C 0.91587 0.46396 0.06316 0.0
C1401 C 0.9492 0.3741 0.06631 0.0
C1402 C 0.92454 0.39255 0.08237 0.0
C1403 C 0.8912 0.45946 0.09826 0.0
C1404 C 0.88016 0.50631 0.09729 0.0
C1405 C 0.90942 0.43809 0.08123 0.0
C1406 C 0.88327 0.5306 0.0788 0.0
C1407 C 0.90118 0.50959 1.06182 0.0
H1408 H 0.7184 0.76946 0.84489 0.0
H1409 H 0.61052 0.82003 0.8058 0.0
H1410 H 0.58814 0.74051 0.79806 0.0
H1411 H 0.61157 0.6599 0.79682 0.0
H1412 H 0.72942 0.61505 0.83107 0.0
H1413 H 0.73382 0.68879 0.84773 0.0
C1414 C 0.68859 0.76331 0.83538 0.0
C1415 C 0.66549 0.80041 0.82614 0.0
C1416 C 0.67757 0.71832 0.83051 0.0
C1417 C 0.6284 0.79185 0.81313 0.0
C1418 C 0.6157 0.74654 0.80882 0.0
C1419 C 0.63628 0.66561 0.80892 0.0
C1420 C 0.67102 0.63313 0.81236 0.0
C1421 C 0.64141 0.70971 0.81676 0.0
C1422 C 0.70265 0.63981 0.82811 0.0
C1423 C 0.70581 0.68243 0.83725 0.0
H1424 H 0.64534 0.27534 0.2838 0.0
H1425 H 0.62098 0.38493 0.32581 0.0
H1426 H 0.57663 0.3322 0.34723 0.0
H1427 H 0.56962 0.25111 0.35858 0.0
H1428 H 0.59551 0.14368 0.31624 0.0
H1429 H 0.61131 0.20019 0.28971 0.0
C1430 C 0.62871 0.2891 0.29697 0.0
C1431 C 0.63956 0.33363 0.30378 0.0
C1432 C 0.60317 0.25868 0.30921 0.0
C1433 C 0.61614 0.34998 0.32083 0.0
C1434 C 0.59022 0.31993 0.33304 0.0
C1435 C 0.57537 0.24031 0.34311 0.0
C1436 C 0.58391 0.19372 0.33949 0.0
C1437 C 0.58706 0.27333 0.3282 0.0
C1438 C 0.58993 0.17956 0.31944 0.0
C1439 C 0.6 0.21208 0.3043 0.0
H1440 H 0.95079 0.92286 0.06881 0.0
H1441 H 0.92652 0.06762 1.05994 0.0
H1442 H 1.0077 0.08401 0.06376 0.0
H1443 H 0.0843 0.05823 0.07182 0.0
H1444 H 0.11353 0.91424 0.06842 0.0
H1445 H 0.03155 0.89585 0.07036 0.0
C1446 C 0.9637 0.95761 0.0665 0.0
C1447 C 0.9327 0.99413 0.06474 0.0
C1448 C 1.01072 0.96694 0.06858 0.0
C1449 C 0.94972 0.03894 1.06145 0.0
C1450 C 0.99592 0.04861 0.06449 0.0
C1451 C 0.07258 0.02271 0.07227 0.0
C1452 C 0.1045 0.98794 0.06922 0.0
C1453 C 0.02623 0.01303 0.06902 0.0
C1454 C 0.08953 0.94191 0.07033 0.0
C1455 C 0.04262 0.93147 0.07049 0.0
H1456 H 0.52954 0.0431 0.53989 0.0
H1457 H 0.52517 0.89912 0.55633 0.0
H1458 H 0.46739 0.91401 0.58207 0.0
H1459 H 0.41989 0.96789 0.60014 0.0
H1460 H 0.43102 0.11288 0.58687 0.0
H1461 H 0.48126 0.09736 0.55809 0.0
C1462 C 0.51584 0.01505 0.54914 0.0
C1463 C 0.53187 0.97018 0.54651 0.0
C1464 C 0.48258 0.02385 0.56373 0.0
C1465 C 0.51407 0.93404 0.55849 0.0
C1466 C 0.48066 0.94245 0.57296 0.0
C1467 C 0.43235 0.99593 0.59052 0.0
C1468 C 0.42196 0.04137 0.59548 0.0
C1469 C 0.46452 0.98711 0.57555 0.0
C1470 C 0.43807 0.07762 0.58309 0.0
C1471 C 0.46778 0.06881 0.56706 0.0
H1472 H 0.15781 0.13673 0.99843 0.0
H1473 H 0.2634 0.05868 0.96958 0.0
H1474 H 0.30629 0.05579 1.00166 0.0
H1475 H 0.31098 0.07015 1.0383 0.0
H1476 H 0.20545 0.14836 0.06728 0.0
H1477 H 0.16375 0.15312 1.03502 0.0
C1478 C 0.19052 0.11946 0.99899 0.0
C1479 C 0.20715 0.09785 0.98135 0.0
C1480 C 0.21431 0.11664 1.01773 0.0
C1481 C 0.24967 0.07584 0.98264 0.0
C1482 C 0.27403 0.07383 1.00112 0.0
C1483 C 0.27945 0.08937 1.03768 0.0
C1484 C 0.26231 0.10968 1.05557 0.0
C1485 C 0.25627 0.09334 1.01884 0.0
C1486 C 0.21992 0.13215 1.05414 0.0
C1487 C 0.19623 0.13546 1.03552 0.0
H1488 H 0.57889 0.45167 0.29745 0.0
H1489 H 0.70702 0.52161 0.3089 0.0
H1490 H 0.73453 0.49947 0.27519 0.0
H1491 H 0.72211 0.45837 0.24209 0.0
H1492 H 0.593 0.38889 0.23226 0.0
H1493 H 0.56561 0.41422 0.26509 0.0
C1494 C 0.61272 0.46285 0.29261 0.0
C1495 C 0.6404 0.489 0.30595 0.0
C1496 C 0.62789 0.45076 0.27307 0.0
C1497 C 0.68471 0.50142 0.29927 0.0
C1498 C 0.70028 0.4892 0.27977 0.0
C1499 C 0.68743 0.45024 0.24686 0.0
C1500 C 0.6591 0.42273 0.23424 0.0
C1501 C 0.67207 0.464 0.26639 0.0
C1502 C 0.61505 0.41089 0.24124 0.0
C1503 C 0.59954 0.42491 0.26021 0.0
H1504 H 0.27084 0.82083 0.53826 0.0
H1505 H 0.26413 0.95649 0.56366 0.0
H1506 H 0.29153 0.9893 0.53152 0.0
H1507 H 0.32311 0.97932 0.49654 0.0
H1508 H 0.32359 0.84435 0.47094 0.0
H1509 H 0.29133 0.81212 0.50244 0.0
C1510 C 0.27398 0.85778 0.53698 0.0
C1511 C 0.26455 0.88556 0.55409 0.0
C1512 C 0.28863 0.8769 0.51807 0.0
C1513 C 0.27138 0.93335 0.55144 0.0
C1514 C 0.28681 0.95244 0.53279 0.0
C1515 C 0.31424 0.94311 0.49754 0.0
C1516 C 0.32456 0.91457 0.4809 0.0
C1517 C 0.29599 0.92459 0.51601 0.0
C1518 C 0.31455 0.86747 0.48297 0.0
C1519 C 0.29692 0.84889 0.50125 0.0
H1520 H 0.8191 0.63321 0.7566 0.0
H1521 H 0.85763 0.52087 0.7187 0.0
H1522 H 0.87161 0.47344 0.74935 0.0
H1523 H 0.87359 0.46453 0.78687 0.0
H1524 H 0.82727 0.57583 0.82404 0.0
H1525 H 0.81783 0.62358 0.7936 0.0
C1526 C 0.83142 0.59869 0.7548 0.0
C1527 C 0.83786 0.58124 0.73498 0.0
C1528 C 0.83851 0.57149 0.77251 0.0
C1529 C 0.85213 0.53553 0.73347 0.0
C1530 C 0.8603 0.50844 0.7511 0.0
C1531 C 0.86071 0.49893 0.78857 0.0
C1532 C 0.85124 0.51579 0.80835 0.0
C1533 C 0.85351 0.52605 0.77074 0.0
C1534 C 0.83596 0.56139 0.80954 0.0
C1535 C 0.83004 0.58884 0.79196 0.0
H1536 H 0.86964 0.88351 0.12923 0.0
H1537 H 0.77027 0.97171 0.15636 0.0
H1538 H 0.72828 0.97568 0.12401 0.0
H1539 H 0.72419 0.96071 0.08704 0.0
H1540 H 0.82828 0.87833 1.05949 0.0
H1541 H 0.86382 0.86576 0.09279 0.0
C1542 C 0.83868 0.9035 0.12818 0.0
C1543 C 0.82375 0.92773 0.14542 0.0
C1544 C 0.8156 0.90696 0.10926 0.0
C1545 C 0.78273 0.95242 0.14364 0.0
C1546 C 0.75889 0.95505 0.12498 0.0
C1547 C 0.75457 0.93977 0.08822 0.0
C1548 C 0.77339 0.92077 0.07037 0.0
C1549 C 0.77571 0.93355 0.10751 0.0
C1550 C 0.81236 0.89308 0.07266 0.0
C1551 C 0.83302 0.88612 0.0918 0.0
H1552 H 0.29571 0.57519 0.87847 0.0
H1553 H 0.43522 0.61009 0.89405 0.0
H1554 H 0.46142 0.58051 0.86169 0.0
H1555 H 0.44515 0.54994 0.82817 0.0
H1556 H 0.30664 0.51387 0.81125 0.0
H1557 H 0.27951 0.54092 0.84423 0.0
C1558 C 0.33197 0.57506 0.87499 0.0
C1559 C 0.36371 0.59384 0.88911 0.0
C1560 C 0.34684 0.55923 0.85575 0.0
C1561 C 0.41028 0.59476 0.88389 0.0
C1562 C 0.4252 0.57848 0.86518 0.0
C1563 C 0.40898 0.54698 0.83164 0.0
C1564 C 0.37836 0.52877 0.81698 0.0
C1565 C 0.39383 0.56144 0.85084 0.0
C1566 C 0.33138 0.52756 0.82191 0.0
C1567 C 0.31586 0.54257 0.84099 0.0
H1568 H 0.76324 0.17344 0.58887 0.0
H1569 H 0.7077 0.06104 0.55399 0.0
H1570 H 0.67873 0.02545 0.58504 0.0
H1571 H 0.66066 0.02966 0.62142 0.0
H1572 H 0.70811 0.14497 0.65615 0.0
H1573 H 0.74787 0.17592 0.62593 0.0
C1574 C 0.74409 0.14157 0.58775 0.0
C1575 C 0.7375 0.12091 0.56843 0.0
C1576 C 0.72519 0.12191 0.6058 0.0
C1577 C 0.71414 0.07832 0.56815 0.0
C1578 C 0.69675 0.05799 0.58605 0.0
C1579 C 0.67948 0.06175 0.62246 0.0
C1580 C 0.6803 0.08531 0.64116 0.0
C1581 C 0.70082 0.08006 0.60483 0.0
C1582 C 0.70659 0.12592 0.64218 0.0
C1583 C 0.72898 0.14385 0.62474 0.0
H1584 H 0.23971 0.46454 0.38101 0.0
H1585 H 0.11395 0.39064 0.39294 0.0
H1586 H 0.0877 0.40714 0.35815 0.0
H1587 H 0.10485 0.434 0.32286 0.0
H1588 H 0.22994 0.50945 0.31103 0.0
H1589 H 0.25166 0.50155 0.34695 0.0
C1590 C 0.20611 0.45288 0.37611 0.0
C1591 C 0.17927 0.42553 0.38961 0.0
C1592 C 0.19134 0.46237 0.35586 0.0
C1593 C 0.13542 0.41166 0.38306 0.0
C1594 C 0.12065 0.42064 0.36298 0.0
C1595 C 0.13662 0.44934 0.32816 0.0
C1596 C 0.16576 0.47223 0.31395 0.0
C1597 C 0.149 0.44453 0.349 0.0
C1598 C 0.20654 0.49208 0.32139 0.0
C1599 C 0.21916 0.48721 0.34201 0.0
H1600 H 0.79218 0.64409 0.53643 0.0
H1601 H 0.67804 0.59401 0.57232 0.0
H1602 H 0.6384 0.57064 0.54141 0.0
H1603 H 0.63326 0.56946 0.50462 0.0
H1604 H 0.74545 0.61844 0.46751 0.0
H1605 H 0.78874 0.63738 0.49857 0.0
C1606 C 0.75866 0.62792 0.53756 0.0
C1607 C 0.73813 0.62146 0.55699 0.0
C1608 C 0.73548 0.61495 0.5195 0.0
C1609 C 0.69512 0.59933 0.55789 0.0
C1610 C 0.67209 0.58641 0.54011 0.0
C1611 C 0.66695 0.58478 0.50303 0.0
C1612 C 0.68531 0.59338 0.48339 0.0
C1613 C 0.69145 0.59507 0.52088 0.0
C1614 C 0.73001 0.6116 0.48218 0.0
C1615 C 0.75474 0.62246 0.50003 0.0
H1616 H 0.23151 0.02773 0.79016 0.0
H1617 H 0.11875 0.95204 0.81707 0.0
H1618 H 0.11053 0.90743 0.78589 0.0
H1619 H 0.13423 0.89146 0.75049 0.0
H1620 H 0.24292 0.97221 0.72308 0.0
H1621 H 0.25329 0.01383 0.75479 0.0
C1622 C 0.20494 1.00153 0.78929 0.0
C1623 C 0.1756 0.99365 0.80614 0.0
C1624 C 0.1995 0.97715 0.77108 0.0
C1625 C 0.14206 0.95887 0.80461 0.0
C1626 C 0.137 0.93372 0.78661 0.0
C1627 C 0.16002 0.91842 0.75137 0.0
C1628 C 0.18792 0.9285 0.73425 0.0
C1629 C 0.16531 0.9428 0.76968 0.0
C1630 C 0.22097 0.96364 0.73582 0.0
C1631 C 0.22704 0.98732 0.75405 0.0
H1632 H 0.80332 0.33826 1.04483 0.0
H1633 H 0.79499 0.47342 0.07046 0.0
H1634 H 0.81092 0.50752 1.03698 0.0
H1635 H 0.83735 0.49911 1.00123 0.0
H1636 H 0.8541 0.36372 0.97728 0.0
H1637 H 0.82467 0.32997 1.00905 0.0
C1638 C 0.80568 0.37529 1.04348 0.0
C1639 C 0.7994 0.40274 1.06096 0.0
C1640 C 0.81664 0.39484 1.02421 0.0
C1641 C 0.7998 0.45074 1.05782 0.0
C1642 C 0.80934 0.47045 1.03852 0.0
C1643 C 0.8345 0.4622 1.00291 0.0
C1644 C 0.84851 0.43409 0.9867 0.0
C1645 C 0.81947 0.44287 1.02175 0.0
C1646 C 0.84286 0.38637 0.98912 0.0
C1647 C 0.82674 0.36703 1.00752 0.0
H1648 H 0.38185 0.10559 0.24727 0.0
H1649 H 0.25737 0.04251 0.22533 0.0
H1650 H 0.24523 1.00598 0.25876 0.0
H1651 H 0.26439 1.00112 0.29563 0.0
H1652 H 0.38893 0.06475 0.31733 0.0
H1653 H 0.40675 0.09144 0.28277 0.0
C1654 C 0.35284 0.08254 0.24958 0.0
C1655 C 0.32049 0.07703 0.23367 0.0
C1656 C 0.3458 0.06213 0.26901 0.0
C1657 C 0.28305 0.04717 0.23707 0.0
C1658 C 0.27582 0.0267 0.25635 0.0
C1659 C 0.29589 0.0201 0.29275 0.0
C1660 C 0.32517 0.031 0.3093 0.0
C1661 C 0.30601 0.03538 0.27267 0.0
C1662 C 0.36592 0.05544 0.30508 0.0
C1663 C 0.37604 0.07092 0.28525 0.0
H1664 H 0.3638 0.36774 0.62652 0.0
H1665 H 0.27666 0.4694 0.65279 0.0
H1666 H 0.23313 0.47477 0.62106 0.0
H1667 H 0.22308 0.45518 0.58534 0.0
H1668 H 0.30566 0.34904 0.55926 0.0
H1669 H 0.34918 0.34326 0.59095 0.0
C1670 C 0.33463 0.39039 0.62548 0.0
C1671 C 0.32374 0.41809 0.64229 0.0
C1672 C 0.30951 0.39343 0.60698 0.0
C1673 C 0.28583 0.44727 0.64043 0.0
C1674 C 0.26117 0.45077 0.62209 0.0
C1675 C 0.2494 0.4294 0.58645 0.0
C1676 C 0.25958 0.40189 0.5694 0.0
C1677 C 0.27312 0.42458 0.60516 0.0
C1678 C 0.29631 0.37105 0.5716 0.0
C1679 C 0.32105 0.36717 0.59 0.0
H1680 H 0.94797 0.05446 0.33379 0.0
H1681 H 0.81278 0.01808 0.31175 0.0
H1682 H 0.78039 0.03933 0.3443 0.0
H1683 H 0.78982 0.0677 0.37907 0.0
H1684 H 0.92441 0.10244 0.40173 0.0
H1685 H 0.95785 0.07896 0.36933 0.0
C1686 C 0.91146 0.05008 0.33601 0.0
C1687 C 0.88325 0.0341 0.31983 0.0
C1688 C 0.89295 0.06113 0.35517 0.0
C1689 C 0.83577 0.03071 0.32338 0.0
C1690 C 0.81712 0.04235 0.34223 0.0
C1691 C 0.82662 0.06997 0.37706 0.0
C1692 C 0.85451 0.08731 0.39294 0.0
C1693 C 0.84535 0.05744 0.35823 0.0
C1694 C 0.90211 0.08893 0.39001 0.0
C1695 C 0.92111 0.0761 0.37132 0.0
H1696 H 0.14237 0.544 0.11447 0.0
H1697 H 0.22747 0.62939 0.15238 0.0
H1698 H 0.27104 0.65455 0.12218 0.0
H1699 H 0.28068 0.657 0.08459 0.0
H1700 H 0.189 0.57682 1.04708 0.0
H1701 H 0.15318 0.54462 0.07755 0.0
C1702 C 0.17047 0.56818 0.11635 0.0
C1703 C 0.18097 0.58497 0.13604 0.0
C1704 C 0.19417 0.58373 0.09879 0.0
C1705 C 0.21845 0.6154 0.13775 0.0
C1706 C 0.24309 0.63019 0.12032 0.0
C1707 C 0.25249 0.63293 0.08283 0.0
C1708 C 0.23762 0.62039 0.06292 0.0
C1709 C 0.23051 0.61549 0.10066 0.0
C1710 C 0.20204 0.58745 1.06169 0.0
C1711 C 0.18099 0.56921 0.07929 0.0
H1712 H 0.74112 0.03267 0.83195 0.0
H1713 H 0.62309 0.95628 0.81086 0.0
H1714 H 0.60881 0.92837 0.84541 0.0
H1715 H 0.63594 0.91638 0.88057 0.0
H1716 H 0.75501 0.98994 0.90198 0.0
H1717 H 0.7625 0.0283 0.8686 0.0
C1718 C 0.71198 0.01021 0.83487 0.0
C1719 C 0.68354 0.99642 0.81843 0.0
C1720 C 0.70423 0.99355 0.85496 0.0
C1721 C 0.64544 0.96807 0.82291 0.0
C1722 C 0.63736 0.95177 0.84278 0.0
C1723 C 0.66271 0.942 0.87817 0.0
C1724 C 0.69497 0.95008 0.89387 0.0
C1725 C 0.66727 0.96313 0.85879 0.0
C1726 C 0.72945 0.98328 0.89039 0.0
C1727 C 0.73407 1.00472 0.87112 0.0
H1728 H 0.43621 0.23785 0.16612 0.0
H1729 H 0.42804 0.21145 0.23047 0.0
H1730 H 0.50601 0.23952 0.23491 0.0
H1731 H 0.57844 0.27253 0.2206 0.0
H1732 H 0.5926 0.28093 0.15561 0.0
H1733 H 0.51263 0.25842 0.15131 0.0
C1734 C 0.4516 0.23678 0.18102 0.0
C1735 C 0.4244 0.2227 0.19785 0.0
C1736 C 0.4986 0.25022 0.1834 0.0
C1737 C 0.44608 0.22342 0.21712 0.0
C1738 C 0.4916 0.23896 0.21971 0.0
C1739 C 0.56471 0.26859 0.20546 0.0
C1740 C 0.59238 0.28078 0.18846 0.0
C1741 C 0.51851 0.25259 0.20297 0.0
C1742 C 0.57242 0.27492 0.16908 0.0
C1743 C 0.52636 0.26107 0.16657 0.0
H1744 H 0.56928 0.69727 0.426 0.0
H1745 H 0.48196 0.63391 0.47121 0.0
H1746 H 0.44346 0.70761 0.47587 0.0
H1747 H 0.43347 0.79151 0.46638 0.0
H1748 H 0.51916 0.85016 0.41929 0.0
H1749 H 0.55812 0.77729 0.41578 0.0
C1750 C 0.5412 0.69875 0.43658 0.0
C1751 C 0.52869 0.65892 0.44801 0.0
C1752 C 0.51855 0.74111 0.43884 0.0
C1753 C 0.49294 0.66332 0.46216 0.0
C1754 C 0.47067 0.70575 0.46479 0.0
C1755 C 0.46085 0.78829 0.45546 0.0
C1756 C 0.47317 0.82686 0.44308 0.0
C1757 C 0.48309 0.74515 0.45319 0.0
C1758 C 0.50849 0.82147 0.42888 0.0
C1759 C 0.53099 0.77958 0.42689 0.0
H1760 H 0.94572 0.69803 0.67224 0.0
H1761 H 0.89882 0.77462 0.72333 0.0
H1762 H 0.97548 0.8089 0.72695 0.0
H1763 H 0.05707 0.81755 0.71542 0.0
H1764 H 0.10019 0.74575 0.66219 0.0
H1765 H 0.02392 0.71062 0.65918 0.0
C1766 C 0.95132 0.72313 0.68381 0.0
C1767 C 0.91504 0.7337 0.69722 0.0
C1768 C 0.99546 0.74388 0.6854 0.0
C1769 C 0.92508 0.76529 0.71267 0.0
C1770 C 0.96928 0.78515 0.71472 0.0
C1771 C 0.04975 0.79434 0.70309 0.0
C1772 C 0.08505 0.78439 0.68904 0.0
C1773 C 1.00493 0.77476 0.70117 0.0
C1774 C 0.07426 0.75441 0.67316 0.0
C1775 C 0.03044 0.7341 0.67148 0.0
H1776 H 0.01467 0.34502 0.91872 0.0
H1777 H 0.96896 0.33899 0.98078 0.0
H1778 H 0.9989 0.2609 0.98452 0.0
H1779 H 0.03866 0.19295 0.96991 0.0
H1780 H 0.08329 0.20199 0.90779 0.0
H1781 H 0.05296 0.27846 0.90426 0.0
C1782 C 1.01044 0.32653 0.93298 0.0
C1783 C 0.98872 0.34828 0.94928 0.0
C1784 C 0.02786 0.28141 0.93504 0.0
C1785 C 0.98529 0.32361 0.96786 0.0
C1786 C 1.00243 0.27863 0.97 0.0
C1787 C 0.04183 0.21153 0.95558 0.0
C1788 C 0.06409 0.19045 0.93902 0.0
C1789 C 0.02392 0.25691 0.95368 0.0
C1790 C 0.06716 0.21612 0.92077 0.0
C1791 C 0.0495 0.26047 0.91873 0.0
H1792 H 0.6123 0.74078 0.94832 0.0
H1793 H 0.59422 0.85521 0.90696 0.0
H1794 H 0.51202 0.83819 0.9046 0.0
H1795 H 0.44378 0.79046 0.91458 0.0
H1796 H 0.46584 0.66983 0.95199 0.0
H1797 H 0.5458 0.69 0.95597 0.0
C1798 C 0.59036 0.76196 0.9388 0.0
C1799 C 0.60979 0.7994 0.92793 0.0
C1800 C 0.54292 0.75111 0.93698 0.0
C1801 C 0.58057 0.82604 0.91546 0.0
C1802 C 0.53328 0.81641 0.91415 0.0
C1803 C 0.46599 0.76826 0.92341 0.0
C1804 C 0.44713 0.72906 0.93345 0.0
C1805 C 0.51378 0.77887 0.92482 0.0
C1806 C 0.47763 0.70126 0.94481 0.0
C1807 C 0.5242 0.71242 0.94688 0.0
H1808 H 0.48584 0.3214 0.65206 0.0
H1809 H 0.48049 0.33579 0.71697 0.0
H1810 H 0.50248 0.25648 0.7219 0.0
H1811 H 0.52158 0.18122 0.70803 0.0
H1812 H 0.54767 0.17033 0.64404 0.0
H1813 H 0.51874 0.24823 0.63839 0.0
C1814 C 0.49015 0.3076 0.66729 0.0
C1815 C 0.47817 0.33488 0.68417 0.0
C1816 C 0.50663 0.26175 0.67016 0.0
C1817 C 0.48538 0.3155 0.70366 0.0
C1818 C 0.4992 0.26994 0.70653 0.0
C1819 C 0.5232 0.19614 0.69293 0.0
C1820 C 0.53809 0.169 0.67666 0.0
C1821 C 0.50949 0.24242 0.68994 0.0
C1822 C 0.53624 0.18924 0.65702 0.0
C1823 C 0.52003 0.23442 0.65377 0.0
H1824 H 0.07369 0.28841 0.45604 0.0
H1825 H 0.08975 0.29297 0.39104 0.0
H1826 H 0.01226 0.26236 0.38687 0.0
H1827 H 0.93852 0.2326 0.40189 0.0
H1828 H 0.91693 0.25159 0.46583 0.0
H1829 H 0.99622 0.27525 0.47015 0.0
C1830 C 0.0603 0.28461 0.44092 0.0
C1831 C 0.0893 0.29315 0.42407 0.0
C1832 C 0.01384 0.27026 0.43842 0.0
C1833 C 0.0699 0.28587 0.4046 0.0
C1834 C 0.0249 0.26859 0.4021 0.0
C1835 C 0.95067 0.24255 0.4167 0.0
C1836 C 0.92129 0.23699 0.43372 0.0
C1837 C 0.99628 0.26036 0.41892 0.0
C1838 C 0.93869 0.25155 0.45263 0.0
C1839 C 0.98431 0.26622 0.45511 0.0
H1840 H 1.00706 0.68305 0.20284 0.0
H1841 H 0.09687 0.7067 0.15203 0.0
H1842 H 0.07215 0.78708 0.14952 0.0
H1843 H 0.02327 0.85166 0.16177 0.0
H1844 H 0.92544 0.82082 0.20902 0.0
H1845 H 0.95504 0.7443 0.21308 0.0
C1846 C 0.02151 0.70587 0.1913 0.0
C1847 C 0.05433 0.68871 0.17784 0.0
C1848 C 1.00572 0.75166 0.18941 0.0
C1849 C 0.07176 0.71881 0.16269 0.0
C1850 C 0.05753 0.76495 0.16124 0.0
C1851 C 1.0084 0.82831 0.17296 0.0
C1852 C 0.9732 0.84409 0.18585 0.0
C1853 C 0.02418 0.78201 0.17448 0.0
C1854 C 0.95421 0.81193 0.19979 0.0
C1855 C 0.97068 0.76719 0.20189 0.0
H1856 H 0.28231 0.3313 0.1714 0.0
H1857 H 0.1697 0.23821 0.16094 0.0
H1858 H 0.11657 0.30328 0.15899 0.0
H1859 H 0.10116 0.38746 0.16511 0.0
H1860 H 0.21787 0.47786 0.1727 0.0
H1861 H 0.26934 0.41385 0.17118 0.0
C1862 C 0.24637 0.32527 0.16798 0.0
C1863 C 0.23032 0.2798 0.16617 0.0
C1864 C 0.21614 0.36276 0.16697 0.0
C1865 C 0.18338 0.2728 0.16198 0.0
C1866 C 0.15279 0.31016 0.16116 0.0
C1867 C 0.13782 0.39327 0.16601 0.0
C1868 C 0.15496 0.43802 0.17004 0.0
C1869 C 0.16848 0.35549 0.16434 0.0
C1870 C 0.20295 0.44414 0.17077 0.0
C1871 C 0.23287 0.40736 0.16959 0.0
H1872 H 0.33264 0.46575 0.43398 0.0
H1873 H 0.38672 0.3318 0.42223 0.0
H1874 H 0.46021 0.36581 0.41303 0.0
H1875 H 0.51202 0.43194 0.41174 0.0
H1876 H 0.46414 0.56521 0.42836 0.0
H1877 H 0.386 0.53372 0.43253 0.0
C1878 C 0.36058 0.44397 0.42961 0.0
C1879 C 0.3532 0.39603 0.42798 0.0
C1880 C 0.40415 0.46389 0.42532 0.0
C1881 C 0.39029 0.36871 0.42246 0.0
C1882 C 0.43266 0.38821 0.41739 0.0
C1883 C 0.48412 0.45443 0.41567 0.0
C1884 C 0.49372 0.50095 0.41942 0.0
C1885 C 0.44016 0.4356 0.41896 0.0
C1886 C 0.4575 0.52952 0.42492 0.0
C1887 C 0.41299 0.51122 0.42766 0.0
H1888 H 0.33232 0.74942 0.67852 0.0
H1889 H 0.19536 0.69848 0.66831 0.0
H1890 H 0.22422 0.61948 0.66728 0.0
H1891 H 0.28831 0.56429 0.67308 0.0
H1892 H 0.4246 0.61806 0.68343 0.0
H1893 H 0.3963 0.69616 0.68062 0.0
C1894 C 0.30899 0.7211 0.67545 0.0
C1895 C 0.26187 0.72968 0.67338 0.0
C1896 C 0.32576 0.67606 0.67521 0.0
C1897 C 0.23188 0.69276 0.66958 0.0
C1898 C 0.24838 0.64756 0.66928 0.0
C1899 C 0.31172 0.59319 0.6746 0.0
C1900 C 0.35859 0.58518 0.67861 0.0
C1901 C 0.29514 0.63862 0.67274 0.0
C1902 C 0.38854 0.62303 0.68027 0.0
C1903 C 0.37238 0.66785 0.67865 0.0
H1904 H 0.08653 0.48829 0.90895 0.0
H1905 H 0.9985 0.60422 0.91635 0.0
H1906 H 0.0649 0.65654 0.91375 0.0
H1907 H 0.14996 0.66737 0.91628 0.0
H1908 H 0.23621 0.5486 0.91194 0.0
H1909 H 0.16935 0.4999 0.90628 0.0
C1910 C 0.08173 0.52517 0.90917 0.0
C1911 C 0.03772 0.54232 0.91285 0.0
C1912 C 0.12028 0.55468 0.90858 0.0
C1913 C 0.03192 0.59014 0.9133 0.0
C1914 C 0.07011 0.62004 0.91207 0.0
C1915 C 0.15409 0.63105 0.91359 0.0
C1916 C 0.19823 0.61161 0.91504 0.0
C1917 C 0.11483 0.60256 0.91075 0.0
C1918 C 0.20279 0.56441 0.91146 0.0
C1919 C 0.16447 0.53643 0.90807 0.0
H1920 H 0.74422 0.70052 0.94743 0.0
H1921 H 0.8616 0.78808 0.95723 0.0
H1922 H 0.91126 0.72107 0.95996 0.0
H1923 H 0.92296 0.63767 0.9553 0.0
H1924 H 0.80484 0.55071 0.94482 0.0
H1925 H 0.75486 0.61656 0.94626 0.0
C1926 C 0.78033 0.70471 0.95098 0.0
C1927 C 0.79893 0.74927 0.95259 0.0
C1928 C 0.80915 0.66586 0.95183 0.0
C1929 C 0.84624 0.75413 0.95635 0.0
C1930 C 0.87482 0.71577 0.95766 0.0
C1931 C 0.88627 0.63289 0.9538 0.0
C1932 C 0.86831 0.58871 0.94991 0.0
C1933 C 0.85699 0.6714 0.95476 0.0
C1934 C 0.82034 0.58394 0.94766 0.0
C1935 C 0.79131 0.62176 0.9486 0.0
H1936 H 0.68993 0.53055 0.68552 0.0
H1937 H 0.64121 0.66077 0.70645 0.0
H1938 H 0.56761 0.62643 0.71473 0.0
H1939 H 0.51345 0.56193 0.7129 0.0
H1940 H 0.55805 0.4318 0.69093 0.0
H1941 H 0.63622 0.46271 0.68672 0.0
C1942 C 0.66337 0.55129 0.69207 0.0
C1943 C 0.67156 0.5988 0.69498 0.0
C1944 C 0.62013 0.53097 0.69694 0.0
C1945 C 0.63633 0.62468 0.70358 0.0
C1946 C 0.59397 0.60486 0.70854 0.0
C1947 C 0.54083 0.5397 0.70811 0.0
C1948 C 0.53017 0.49408 0.70297 0.0
C1949 C 0.58512 0.55834 0.70499 0.0
C1950 C 0.56562 0.46638 0.69584 0.0
C1951 C 0.61021 0.48446 0.69304 0.0
H1952 H 0.80575 0.32032 0.44868 0.0
H1953 H 0.68586 0.2449 0.46833 0.0
H1954 H 0.64171 0.3156 0.46851 0.0
H1955 H 0.63371 0.39536 0.45691 0.0
H1956 H 0.75205 0.47125 0.43553 0.0
H1957 H 0.80038 0.40462 0.44259 0.0
C1958 C 0.77069 0.31994 0.45408 0.0
C1959 C 0.74918 0.27755 0.45877 0.0
C1960 C 0.74488 0.36078 0.45334 0.0
C1961 C 0.70324 0.2772 0.46498 0.0
C1962 C 0.6778 0.31757 0.46477 0.0
C1963 C 0.6701 0.39764 0.45394 0.0
C1964 C 0.68881 0.43808 0.44516 0.0
C1965 C 0.69759 0.35903 0.45788 0.0
C1966 C 0.73641 0.44045 0.44196 0.0
C1967 C 0.7642 0.40234 0.44612 0.0
H1968 H 0.88314 0.36165 0.20387 0.0
H1969 H 0.79997 0.48318 0.20023 0.0
H1970 H 0.86773 0.53136 0.20348 0.0
H1971 H 0.95053 0.54037 0.20575 0.0
H1972 H 0.037 0.4217 0.20874 0.0
H1973 H 0.96847 0.37129 0.20845 0.0
C1974 C 0.87981 0.39864 0.20396 0.0
C1975 C 0.83589 0.41847 0.20133 0.0
C1976 C 0.91968 0.42681 0.20604 0.0
C1977 C 0.83278 0.4666 0.2016 0.0
C1978 C 0.87172 0.4944 0.20371 0.0
C1979 C 0.95452 0.50339 0.20656 0.0
C1980 C 0.99896 0.4849 0.20685 0.0
C1981 C 0.91527 0.47501 0.20569 0.0
C1982 C 1.00333 0.43696 0.20844 0.0
C1983 C 0.96403 0.40816 0.208 0.0
H1984 H 0.79151 0.81251 0.693 0.0
H1985 H 0.71592 0.75851 0.64233 0.0
H1986 H 0.67066 0.82891 0.64016 0.0
H1987 H 0.64642 0.90225 0.65541 0.0
H1988 H 0.72014 0.95357 0.70737 0.0
H1989 H 0.77288 0.88947 0.70579 0.0
C1990 C 0.76663 0.81711 0.68086 0.0
C1991 C 0.7582 0.78062 0.66744 0.0
C1992 C 0.73958 0.85723 0.68019 0.0
C1993 C 0.72433 0.78648 0.65239 0.0
C1994 C 0.69775 0.8265 0.65143 0.0
C1995 C 0.67375 0.89933 0.66649 0.0
C1996 C 0.67843 0.93304 0.68165 0.0
C1997 C 0.70384 0.86141 0.66576 0.0
C1998 C 0.71535 0.92892 0.69541 0.0
C1999 C 0.74567 0.8919 0.69458 0.0
H2000 H 0.8508 0.96561 0.90575 0.0
H2001 H 0.87603 0.88615 0.96059 0.0
H2002 H 0.95471 0.9142 0.96146 0.0
H2003 H 0.01595 0.95772 0.94655 0.0
H2004 H 0.99346 0.04685 0.89448 0.0
H2005 H 0.91384 0.0174 0.89219 0.0
C2006 C 0.87363 0.95487 0.91793 0.0
C2007 C 0.85768 0.92357 0.93307 0.0
C2008 C 0.91905 0.97225 0.91866 0.0
C2009 C 0.88726 0.91026 0.94888 0.0
C2010 C 0.93236 0.92607 0.94931 0.0
C2011 C 0.99402 0.97165 0.9347 0.0
C2012 C 0.01108 1.00486 0.92072 0.0
C2013 C 0.94855 0.95659 0.93423 0.0
C2014 C 0.98154 0.02124 0.90539 0.0
C2015 C 0.93597 1.00458 0.90422 0.0
H2016 H 0.78218 0.07443 0.18438 0.0
H2017 H 0.91749 0.12323 0.16816 0.0
H2018 H 0.88789 0.19869 0.16042 0.0
H2019 H 0.82619 0.25417 0.16238 0.0
H2020 H 0.6905 0.2094 0.17909 0.0
H2021 H 0.71692 0.12962 0.18201 0.0
C2022 C 0.80504 0.10144 0.17892 0.0
C2023 C 0.85252 0.09281 0.1773 0.0
C2024 C 0.78749 0.14574 0.17434 0.0
C2025 C 0.88122 0.1284 0.16994 0.0
C2026 C 0.8642 0.1719 0.16536 0.0
C2027 C 0.80199 0.22661 0.16584 0.0
C2028 C 0.75636 0.23749 0.17014 0.0
C2029 C 0.81776 0.18134 0.168 0.0
C2030 C 0.72554 0.20171 0.17515 0.0
C2031 C 0.7409 0.15615 0.17711 0.0
H2032 H 0.56721 0.97506 0.43114 0.0
H2033 H 0.48396 0.08548 0.40805 0.0
H2034 H 0.55077 0.13819 0.41004 0.0
H2035 H 0.63363 0.15267 0.41978 0.0
H2036 H 0.71047 0.03984 0.44577 0.0
H2037 H 0.64508 0.98927 0.44199 0.0
C2038 C 0.5632 0.01083 0.42671 0.0
C2039 C 0.52026 0.02621 0.4197 0.0
C2040 C 0.60084 0.04085 0.42872 0.0
C2041 C 0.51649 0.07246 0.41347 0.0
C2042 C 0.55467 0.10269 0.41485 0.0
C2043 C 0.63597 0.11709 0.4247 0.0
C2044 C 0.67799 0.1004 0.43279 0.0
C2045 C 0.59713 0.08738 0.42273 0.0
C2046 C 0.67965 0.05409 0.43918 0.0
C2047 C 0.64198 0.02478 0.43702 0.0
H2048 H 0.22694 0.18067 0.44877 0.0
H2049 H 0.34357 0.27223 0.44891 0.0
H2050 H 0.3954 0.2062 0.44969 0.0
H2051 H 0.40721 0.12124 0.44694 0.0
H2052 H 0.2885 0.03161 0.44866 0.0
H2053 H 0.23854 0.09743 0.45035 0.0
C2054 C 0.26373 0.18619 0.44947 0.0
C2055 C 0.2812 0.23144 0.44885 0.0
C2056 C 0.29325 0.14804 0.45001 0.0
C2057 C 0.32905 0.23788 0.44962 0.0
C2058 C 0.35875 0.19997 0.44989 0.0
C2059 C 0.3706 0.11598 0.44836 0.0
C2060 C 0.35214 0.07083 0.44768 0.0
C2061 C 0.34131 0.15466 0.44968 0.0
C2062 C 0.30416 0.06548 0.44892 0.0
C2063 C 0.27526 0.10329 0.45001 0.0
H2064 H 0.01177 0.07497 0.21629 0.0
H2065 H 0.05727 0.94497 0.19448 0.0
H2066 H 0.13531 0.97627 0.19043 0.0
H2067 H 0.18836 0.0442 0.18921 0.0
H2068 H 0.13911 0.17463 0.20971 0.0
H2069 H 0.06556 0.13991 0.21807 0.0
C2070 C 0.03932 0.05291 0.21155 0.0
C2071 C 0.029 1.00727 0.20632 0.0
C2072 C 0.08349 0.07177 0.2085 0.0
C2073 C 0.06461 0.97962 0.19937 0.0
C2074 C 0.1091 0.99791 0.19667 0.0
C2075 C 0.16166 0.06499 0.19562 0.0
C2076 C 0.16967 0.11254 0.19847 0.0
C2077 C 0.11863 0.04451 0.20052 0.0
C2078 C 0.13439 0.13842 0.207 0.0
C2079 C 0.09208 0.11842 0.21197 0.0
H2080 H 0.25326 0.95347 0.94336 0.0
H2081 H 0.11626 0.90267 0.95549 0.0
H2082 H 0.14514 0.82612 0.96128 0.0
H2083 H 0.20703 0.77099 0.95933 0.0
H2084 H 0.34409 0.81723 0.94596 0.0
H2085 H 0.3181 0.89736 0.94475 0.0
C2086 C 0.22987 0.92569 0.9474 0.0
C2087 C 0.18237 0.93441 0.94877 0.0
C2088 C 0.24687 0.88061 0.95081 0.0
C2089 C 0.15283 0.89769 0.95423 0.0
C2090 C 0.16932 0.85351 0.95765 0.0
C2091 C 0.23153 0.79883 0.95695 0.0
C2092 C 0.27749 0.78831 0.95312 0.0
C2093 C 0.21599 0.84434 0.95565 0.0
C2094 C 0.30875 0.82454 0.94951 0.0
C2095 C 0.29363 0.87034 0.9485 0.0
H2096 H 0.32327 0.96385 0.7137 0.0
H2097 H 0.37133 0.83338 0.69307 0.0
H2098 H 0.45068 0.86076 0.69557 0.0
H2099 H 0.50648 0.92201 0.70251 0.0
H2100 H 0.46063 0.0547 0.72126 0.0
H2101 H 0.38089 0.02615 0.72128 0.0
C2102 C 0.35121 0.94142 0.70992 0.0
C2103 C 0.34132 0.89636 0.70328 0.0
C2104 C 0.39724 0.9578 0.7112 0.0
C2105 C 0.37793 0.86797 0.69823 0.0
C2106 C 0.42336 0.88366 0.6997 0.0
C2107 C 0.47914 0.94485 0.70664 0.0
C2108 C 0.48991 0.99077 0.71163 0.0
C2109 C 0.43344 0.92853 0.70601 0.0
C2110 C 0.45377 0.01928 0.71742 0.0
C2111 C 0.408 1.00297 0.71722 0.0
loop_
_geom_bond_atom_site_label_1
_geom_bond_atom_site_label_2
_geom_bond_distance
_geom_bond_site_symmetry_2
_ccdc_geom_bond_type
Tb0 N29 2.617 . S
Tb0 N35 2.572 . S
Tb0 O44 2.465 . S
Tb0 O45 2.387 . S
Tb0 O47 2.428 . S
Tb0 O48 2.308 . S
Tb0 O52 2.349 . S
Tb0 O55 2.393 . S
Tb0 C64 2.802 . S
C1 N2 1.379 . S
C1 C4 1.416 1_545 S
C1 C8 1.424 1_545 S
N2 C1 1.379 . S
N2 C5 1.334 . S
N2 Tb11 2.617 . S
C3 C5 1.390 . S
C3 C6 1.339 . S
C3 H23 0.930 . S
C4 C1 1.416 1_565 S
C4 C6 1.416 1_565 S
C4 C10 1.448 . S
C5 N2 1.334 . S
C5 C3 1.390 . S
C5 H16 0.930 . S
C6 C3 1.339 . S
C6 C4 1.416 1_545 S
C6 H27 0.930 . S
C7 C8 1.413 . S
C7 C9 1.427 . S
C7 C13 1.416 . S
C8 C1 1.424 1_565 S
C8 C7 1.413 . S
C8 N12 1.361 1_565 S
C9 C7 1.427 . S
C9 C10 1.328 . S
C9 H24 0.929 . S
C10 C4 1.448 . S
C10 C9 1.328 . S
C10 H25 0.930 . S
Tb11 N2 2.617 . S
Tb11 N12 2.572 . S
Tb11 O46 2.349 . S
Tb11 O49 2.393 . S
Tb11 O50 2.465 . S
Tb11 O51 2.387 . S
Tb11 O53 2.428 . S
Tb11 O54 2.308 . S
Tb11 C75 2.802 . S
N12 C8 1.361 1_545 S
N12 Tb11 2.572 . S
N12 C14 1.340 1_545 S
C13 C7 1.416 . S
C13 C15 1.332 . S
C13 H21 0.931 . S
C14 N12 1.340 1_565 S
C14 C15 1.407 . S
C14 H20 0.930 . S
C15 C13 1.332 . S
C15 C14 1.407 . S
C15 H17 0.929 . S
H16 C5 0.930 . S
H17 C15 0.929 . S
H18 C33 0.930 . S
H19 C40 0.929 . S
H20 C14 0.930 . S
H21 C13 0.931 . S
H22 C36 0.930 . S
H23 C3 0.930 . S
H24 C9 0.929 . S
H25 C10 0.930 . S
H26 C31 0.930 . S
H27 C6 0.930 . S
H28 C39 0.931 . S
N29 Tb0 2.617 . S
N29 C30 1.379 . S
N29 C33 1.334 . S
C30 N29 1.379 . S
C30 C32 1.416 . S
C30 C38 1.424 . S
C31 H26 0.930 . S
C31 C33 1.390 . S
C31 C34 1.339 . S
C32 C30 1.416 . S
C32 C34 1.416 . S
C32 C65 1.448 . S
C33 H18 0.930 . S
C33 N29 1.334 . S
C33 C31 1.390 . S
C34 C31 1.339 . S
C34 C32 1.416 . S
C34 H41 0.930 . S
N35 Tb0 2.572 . S
N35 C36 1.340 . S
N35 C38 1.361 . S
C36 H22 0.930 . S
C36 N35 1.340 . S
C36 C40 1.407 . S
C37 C38 1.413 . S
C37 C39 1.416 . S
C37 C66 1.427 . S
C38 C30 1.424 . S
C38 N35 1.361 . S
C38 C37 1.413 . S
C39 H28 0.931 . S
C39 C37 1.416 . S
C39 C40 1.332 . S
C40 H19 0.929 . S
C40 C36 1.407 . S
C40 C39 1.332 . S
H41 C34 0.930 . S
H42 C65 0.930 . S
H43 C66 0.929 . S
O44 Tb0 2.465 . S
O44 C64 1.264 . S
O45 Tb0 2.387 . S
O45 C56 1.264 . S
O46 Tb11 2.349 . S
O46 C56 1.243 . S
O47 Tb0 2.428 . S
O47 C64 1.256 . S
O48 Tb0 2.308 . S
O48 C63 1.266 . S
O49 Tb11 2.393 . S
O49 C63 1.248 . S
O50 Tb11 2.465 . S
O50 C75 1.264 . S
O51 Tb11 2.387 . S
O51 C67 1.264 . S
O52 Tb0 2.349 . S
O52 C67 1.243 . S
O53 Tb11 2.428 . S
O53 C75 1.256 . S
O54 Tb11 2.308 . S
O54 C74 1.266 . S
O55 Tb0 2.393 . S
O55 C74 1.248 . S
C56 O45 1.264 . S
C56 O46 1.243 . S
C57 C60 1.399 . S
C57 C62 1.383 . S
C57 C64 1.496 . S
C58 C59 1.399 . S
C58 C62 1.389 . S
C59 C58 1.399 . S
C59 C61 1.380 . S
C59 H76 0.929 . S
C60 C57 1.399 . S
C60 C61 1.392 . S
C60 H77 0.929 . S
C61 C59 1.380 . S
C61 C60 1.392 . S
C61 H78 0.929 . S
C62 C57 1.383 . S
C62 C58 1.389 . S
C62 H79 0.931 . S
C63 O48 1.266 . S
C63 O49 1.248 . S
C64 Tb0 2.802 . S
C64 O44 1.264 . S
C64 O47 1.256 . S
C64 C57 1.496 . S
C65 C32 1.448 . S
C65 H42 0.930 . S
C65 C66 1.328 . S
C66 C37 1.427 . S
C66 H43 0.929 . S
C66 C65 1.328 . S
C67 O51 1.264 . S
C67 O52 1.243 . S
C68 C71 1.399 . S
C68 C72 1.383 . S
C68 C75 1.496 . S
C69 C70 1.399 . S
C69 C72 1.389 . S
C70 C69 1.399 . S
C70 C73 1.380 . S
C70 H80 0.929 . S
C71 C68 1.399 . S
C71 C73 1.392 . S
C71 H81 0.929 . S
C72 C68 1.383 . S
C72 C69 1.389 . S
C72 H82 0.931 . S
C73 C70 1.380 . S
C73 C71 1.392 . S
C73 H83 0.929 . S
C74 O54 1.266 . S
C74 O55 1.248 . S
C75 Tb11 2.802 . S
C75 O50 1.264 . S
C75 O53 1.256 . S
C75 C68 1.496 . S
H76 C59 0.929 . S
H77 C60 0.929 . S
H78 C61 0.929 . S
H79 C62 0.931 . S
H80 C70 0.929 . S
H81 C71 0.929 . S
H82 C72 0.931 . S
H83 C73 0.929 . S
Tb84 N113 2.617 . S
Tb84 N119 2.572 . S
Tb84 O128 2.465 . S
Tb84 O129 2.387 . S
Tb84 O131 2.428 . S
Tb84 O132 2.308 . S
Tb84 O136 2.349 . S
Tb84 O139 2.393 . S
Tb84 C148 2.802 . S
C85 N86 1.379 . S
C85 C88 1.416 . S
C85 C92 1.424 . S
N86 C85 1.379 . S
N86 C89 1.334 . S
N86 Tb95 2.617 . S
C87 C89 1.390 . S
C87 C90 1.339 . S
C87 H107 0.930 . S
C88 C85 1.416 . S
C88 C90 1.416 . S
C88 C94 1.448 . S
C89 N86 1.334 . S
C89 C87 1.390 . S
C89 H100 0.930 . S
C90 C87 1.339 . S
C90 C88 1.416 . S
C90 H111 0.930 . S
C91 C92 1.413 . S
C91 C93 1.427 . S
C91 C97 1.416 . S
C92 C85 1.424 . S
C92 C91 1.413 . S
C92 N96 1.361 . S
C93 C91 1.427 . S
C93 C94 1.328 . S
C93 H108 0.929 . S
C94 C88 1.448 . S
C94 C93 1.328 . S
C94 H109 0.930 . S
Tb95 N86 2.617 . S
Tb95 N96 2.572 . S
Tb95 O130 2.349 . S
Tb95 O133 2.393 . S
Tb95 O134 2.465 . S
Tb95 O135 2.387 . S
Tb95 O137 2.428 . S
Tb95 O138 2.308 . S
Tb95 C159 2.802 . S
N96 C92 1.361 . S
N96 Tb95 2.572 . S
N96 C98 1.340 . S
C97 C91 1.416 . S
C97 C99 1.332 . S
C97 H105 0.931 . S
C98 N96 1.340 . S
C98 C99 1.407 . S
C98 H104 0.930 . S
C99 C97 1.332 . S
C99 C98 1.407 . S
C99 H101 0.929 . S
H100 C89 0.930 . S
H101 C99 0.929 . S
H102 C117 0.930 . S
H103 C124 0.929 . S
H104 C98 0.930 . S
H105 C97 0.931 . S
H106 C120 0.930 . S
H107 C87 0.930 . S
H108 C93 0.929 . S
H109 C94 0.930 . S
H110 C115 0.930 . S
H111 C90 0.930 . S
H112 C123 0.931 . S
N113 Tb84 2.617 . S
N113 C114 1.379 . S
N113 C117 1.334 . S
C114 N113 1.379 . S
C114 C116 1.416 . S
C114 C122 1.424 . S
C115 H110 0.930 . S
C115 C117 1.390 . S
C115 C118 1.339 . S
C116 C114 1.416 . S
C116 C118 1.416 . S
C116 C149 1.448 . S
C117 H102 0.930 . S
C117 N113 1.334 . S
C117 C115 1.390 . S
C118 C115 1.339 . S
C118 C116 1.416 . S
C118 H125 0.930 . S
N119 Tb84 2.572 . S
N119 C120 1.340 . S
N119 C122 1.361 . S
C120 H106 0.930 . S
C120 N119 1.340 . S
C120 C124 1.407 . S
C121 C122 1.413 . S
C121 C123 1.416 . S
C121 C150 1.427 . S
C122 C114 1.424 . S
C122 N119 1.361 . S
C122 C121 1.413 . S
C123 H112 0.931 . S
C123 C121 1.416 . S
C123 C124 1.332 . S
C124 H103 0.929 . S
C124 C120 1.407 . S
C124 C123 1.332 . S
H125 C118 0.930 . S
H126 C149 0.930 . S
H127 C150 0.929 . S
O128 Tb84 2.465 . S
O128 C148 1.264 . S
O129 Tb84 2.387 . S
O129 C140 1.264 . S
O130 Tb95 2.349 . S
O130 C140 1.243 . S
O131 Tb84 2.428 . S
O131 C148 1.256 . S
O132 Tb84 2.308 . S
O132 C147 1.266 . S
O133 Tb95 2.393 . S
O133 C147 1.248 . S
O134 Tb95 2.465 . S
O134 C159 1.264 . S
O135 Tb95 2.387 . S
O135 C151 1.264 . S
O136 Tb84 2.349 . S
O136 C151 1.243 . S
O137 Tb95 2.428 . S
O137 C159 1.256 . S
O138 Tb95 2.308 . S
O138 C158 1.266 . S
O139 Tb84 2.393 . S
O139 C158 1.248 . S
C140 O129 1.264 . S
C140 O130 1.243 . S
C141 C144 1.399 . S
C141 C146 1.383 . S
C141 C148 1.496 . S
C142 C143 1.399 . S
C142 C146 1.389 . S
C143 C142 1.399 . S
C143 C145 1.380 . S
C143 H160 0.929 . S
C144 C141 1.399 . S
C144 C145 1.392 . S
C144 H161 0.929 . S
C145 C143 1.380 . S
C145 C144 1.392 . S
C145 H162 0.929 . S
C146 C141 1.383 . S
C146 C142 1.389 . S
C146 H163 0.931 . S
C147 O132 1.266 . S
C147 O133 1.248 . S
C148 Tb84 2.802 . S
C148 O128 1.264 . S
C148 O131 1.256 . S
C148 C141 1.496 . S
C149 C116 1.448 . S
C149 H126 0.930 . S
C149 C150 1.328 . S
C150 C121 1.427 . S
C150 H127 0.929 . S
C150 C149 1.328 . S
C151 O135 1.264 . S
C151 O136 1.243 . S
C152 C155 1.399 . S
C152 C156 1.383 . S
C152 C159 1.496 . S
C153 C154 1.399 . S
C153 C156 1.389 . S
C154 C153 1.399 . S
C154 C157 1.380 . S
C154 H164 0.929 . S
C155 C152 1.399 . S
C155 C157 1.392 . S
C155 H165 0.929 . S
C156 C152 1.383 . S
C156 C153 1.389 . S
C156 H166 0.931 . S
C157 C154 1.380 . S
C157 C155 1.392 . S
C157 H167 0.929 . S
C158 O138 1.266 . S
C158 O139 1.248 . S
C159 Tb95 2.802 . S
C159 O134 1.264 . S
C159 O137 1.256 . S
C159 C152 1.496 . S
H160 C143 0.929 . S
H161 C144 0.929 . S
H162 C145 0.929 . S
H163 C146 0.931 . S
H164 C154 0.929 . S
H165 C155 0.929 . S
H166 C156 0.931 . S
H167 C157 0.929 . S
Tb168 N197 2.617 . S
Tb168 N203 2.572 . S
Tb168 O212 2.465 . S
Tb168 O213 2.387 . S
Tb168 O215 2.428 . S
Tb168 O216 2.308 . S
Tb168 O220 2.349 . S
Tb168 O223 2.393 . S
Tb168 C232 2.802 . S
C169 N170 1.379 . S
C169 C172 1.416 1_565 S
C169 C176 1.424 1_565 S
N170 C169 1.379 . S
N170 C173 1.334 . S
N170 Tb179 2.617 . S
C171 C173 1.390 . S
C171 C174 1.339 . S
C171 H191 0.930 . S
C172 C169 1.416 1_545 S
C172 C174 1.416 1_545 S
C172 C178 1.448 . S
C173 N170 1.334 . S
C173 C171 1.390 . S
C173 H184 0.930 . S
C174 C171 1.339 . S
C174 C172 1.416 1_565 S
C174 H195 0.930 1_455 S
C175 C176 1.413 . S
C175 C177 1.427 . S
C175 C181 1.416 . S
C176 C169 1.424 1_545 S
C176 C175 1.413 . S
C176 N180 1.361 1_545 S
C177 C175 1.427 . S
C177 C178 1.328 . S
C177 H192 0.929 . S
C178 C172 1.448 . S
C178 C177 1.328 . S
C178 H193 0.930 . S
Tb179 N170 2.617 . S
Tb179 N180 2.572 . S
Tb179 O214 2.349 . S
Tb179 O217 2.393 . S
Tb179 O218 2.465 . S
Tb179 O219 2.387 . S
Tb179 O221 2.428 . S
Tb179 O222 2.308 . S
Tb179 C243 2.802 . S
N180 C176 1.361 1_565 S
N180 Tb179 2.572 . S
N180 C182 1.340 1_565 S
C181 C175 1.416 . S
C181 C183 1.332 . S
C181 H189 0.931 . S
C182 N180 1.340 1_545 S
C182 C183 1.407 . S
C182 H188 0.939 . S
C183 C181 1.332 . S
C183 C182 1.407 . S
C183 H185 0.929 . S
H184 C173 0.930 . S
H185 C183 0.929 . S
H186 C201 0.930 . S
H187 C208 0.929 . S
H188 C182 0.939 . S
H189 C181 0.931 . S
H190 C204 0.930 . S
H191 C171 0.930 . S
H192 C177 0.929 . S
H193 C178 0.930 . S
H194 C199 0.930 . S
H195 C174 0.930 1_655 S
H196 C207 0.931 . S
N197 Tb168 2.617 . S
N197 C198 1.379 . S
N197 C201 1.334 . S
C198 N197 1.379 . S
C198 C200 1.416 . S
C198 C206 1.424 . S
C199 H194 0.930 . S
C199 C201 1.390 . S
C199 C202 1.339 . S
C200 C198 1.416 . S
C200 C202 1.416 . S
C200 C233 1.448 . S
C201 H186 0.930 . S
C201 N197 1.334 . S
C201 C199 1.390 . S
C202 C199 1.339 . S
C202 C200 1.416 . S
C202 H209 0.930 . S
N203 Tb168 2.572 . S
N203 C204 1.340 . S
N203 C206 1.361 . S
C204 H190 0.930 . S
C204 N203 1.340 . S
C204 C208 1.407 . S
C205 C206 1.413 . S
C205 C207 1.416 . S
C205 C234 1.427 . S
C206 C198 1.424 . S
C206 N203 1.361 . S
C206 C205 1.413 . S
C207 H196 0.931 . S
C207 C205 1.416 . S
C207 C208 1.332 . S
C208 H187 0.929 . S
C208 C204 1.407 . S
C208 C207 1.332 . S
H209 C202 0.930 . S
H210 C233 0.930 . S
H211 C234 0.929 . S
O212 Tb168 2.465 . S
O212 C232 1.264 . S
O213 Tb168 2.387 . S
O213 C224 1.264 . S
O214 Tb179 2.349 . S
O214 C224 1.243 . S
O215 Tb168 2.428 . S
O215 C232 1.256 . S
O216 Tb168 2.308 . S
O216 C231 1.266 . S
O217 Tb179 2.393 . S
O217 C231 1.248 . S
O218 Tb179 2.465 . S
O218 C243 1.264 . S
O219 Tb179 2.387 . S
O219 C235 1.264 . S
O220 Tb168 2.349 . S
O220 C235 1.243 . S
O221 Tb179 2.428 . S
O221 C243 1.256 . S
O222 Tb179 2.308 . S
O222 C242 1.266 . S
O223 Tb168 2.393 . S
O223 C242 1.248 . S
C224 O213 1.264 . S
C224 O214 1.243 . S
C225 C228 1.399 . S
C225 C230 1.383 . S
C225 C232 1.496 . S
C226 C227 1.399 . S
C226 C230 1.389 . S
C227 C226 1.399 . S
C227 C229 1.380 . S
C227 H244 0.929 . S
C228 C225 1.399 . S
C228 C229 1.392 . S
C228 H245 0.929 . S
C229 C227 1.380 . S
C229 C228 1.392 . S
C229 H246 0.929 . S
C230 C225 1.383 . S
C230 C226 1.389 . S
C230 H247 0.931 . S
C231 O216 1.266 . S
C231 O217 1.248 . S
C232 Tb168 2.802 . S
C232 O212 1.264 . S
C232 O215 1.256 . S
C232 C225 1.496 . S
C233 C200 1.448 . S
C233 H210 0.930 . S
C233 C234 1.328 . S
C234 C205 1.427 . S
C234 H211 0.929 . S
C234 C233 1.328 . S
C235 O219 1.264 . S
C235 O220 1.243 . S
C236 C239 1.399 . S
C236 C240 1.383 . S
C236 C243 1.496 . S
C237 C238 1.399 . S
C237 C240 1.389 . S
C238 C237 1.399 . S
C238 C241 1.380 . S
C238 H248 0.929 . S
C239 C236 1.399 . S
C239 C241 1.392 . S
C239 H249 0.929 . S
C240 C236 1.383 . S
C240 C237 1.389 . S
C240 H250 0.931 . S
C241 C238 1.380 . S
C241 C239 1.392 . S
C241 H251 0.929 . S
C242 O222 1.266 . S
C242 O223 1.248 . S
C243 Tb179 2.802 . S
C243 O218 1.264 . S
C243 O221 1.256 . S
C243 C236 1.496 . S
H244 C227 0.929 . S
H245 C228 0.929 . S
H246 C229 0.929 . S
H247 C230 0.931 . S
H248 C238 0.929 . S
H249 C239 0.929 . S
H250 C240 0.931 . S
H251 C241 0.929 . S
Tb252 N281 2.617 . S
Tb252 N287 2.572 . S
Tb252 O296 2.465 . S
Tb252 O297 2.387 . S
Tb252 O299 2.428 . S
Tb252 O300 2.308 . S
Tb252 O304 2.349 . S
Tb252 O307 2.393 . S
Tb252 C316 2.802 . S
C253 N254 1.379 . S
C253 C256 1.416 . S
C253 C260 1.424 . S
N254 C253 1.379 . S
N254 C257 1.334 1_655 S
N254 Tb263 2.617 . S
C255 C257 1.390 . S
C255 C258 1.339 . S
C255 H275 0.930 . S
C256 C253 1.416 . S
C256 C258 1.416 1_655 S
C256 C262 1.448 . S
C257 N254 1.334 1_455 S
C257 C255 1.390 . S
C257 H268 0.930 . S
C258 C255 1.339 . S
C258 C256 1.416 1_455 S
C258 H279 0.930 . S
C259 C260 1.413 . S
C259 C261 1.427 . S
C259 C265 1.416 . S
C260 C253 1.424 . S
C260 C259 1.413 . S
C260 N264 1.361 . S
C261 C259 1.427 . S
C261 C262 1.328 . S
C261 H276 0.929 . S
C262 C256 1.448 . S
C262 C261 1.328 . S
C262 H277 0.930 . S
Tb263 N254 2.617 . S
Tb263 N264 2.572 . S
Tb263 O298 2.349 . S
Tb263 O301 2.393 . S
Tb263 O302 2.465 . S
Tb263 O303 2.387 . S
Tb263 O305 2.428 . S
Tb263 O306 2.308 . S
Tb263 C327 2.802 . S
N264 C260 1.361 . S
N264 Tb263 2.572 . S
N264 C266 1.340 . S
C265 C259 1.416 . S
C265 C267 1.332 . S
C265 H273 0.931 . S
C266 N264 1.340 . S
C266 C267 1.407 . S
C266 H272 0.930 . S
C267 C265 1.332 . S
C267 C266 1.407 . S
C267 H269 0.929 . S
H268 C257 0.930 . S
H269 C267 0.929 . S
H270 C285 0.930 . S
H271 C292 0.929 . S
H272 C266 0.930 . S
H273 C265 0.931 . S
H274 C288 0.930 . S
H275 C255 0.930 . S
H276 C261 0.929 . S
H277 C262 0.930 . S
H278 C283 0.930 . S
H279 C258 0.930 . S
H280 C291 0.931 . S
N281 Tb252 2.617 . S
N281 C282 1.379 . S
N281 C285 1.334 . S
C282 N281 1.379 . S
C282 C284 1.416 . S
C282 C290 1.424 . S
C283 H278 0.930 . S
C283 C285 1.390 . S
C283 C286 1.339 . S
C284 C282 1.416 . S
C284 C286 1.416 . S
C284 C317 1.448 . S
C285 H270 0.930 . S
C285 N281 1.334 . S
C285 C283 1.390 . S
C286 C283 1.339 . S
C286 C284 1.416 . S
C286 H293 0.930 . S
N287 Tb252 2.572 . S
N287 C288 1.340 . S
N287 C290 1.361 . S
C288 H274 0.930 . S
C288 N287 1.340 . S
C288 C292 1.407 . S
C289 C290 1.413 . S
C289 C291 1.416 . S
C289 C318 1.427 . S
C290 C282 1.424 . S
C290 N287 1.361 . S
C290 C289 1.413 . S
C291 H280 0.931 . S
C291 C289 1.416 . S
C291 C292 1.332 . S
C292 H271 0.929 . S
C292 C288 1.407 . S
C292 C291 1.332 . S
H293 C286 0.930 . S
H294 C317 0.930 . S
H295 C318 0.929 . S
O296 Tb252 2.465 . S
O296 C316 1.264 . S
O297 Tb252 2.387 . S
O297 C308 1.264 . S
O298 Tb263 2.349 . S
O298 C308 1.243 . S
O299 Tb252 2.428 . S
O299 C316 1.256 . S
O300 Tb252 2.308 . S
O300 C315 1.266 . S
O301 Tb263 2.393 . S
O301 C315 1.248 . S
O302 Tb263 2.465 . S
O302 C327 1.264 . S
O303 Tb263 2.387 . S
O303 C319 1.264 . S
O304 Tb252 2.349 . S
O304 C319 1.243 . S
O305 Tb263 2.428 . S
O305 C327 1.256 . S
O306 Tb263 2.308 . S
O306 C326 1.266 . S
O307 Tb252 2.393 . S
O307 C326 1.248 . S
C308 O297 1.264 . S
C308 O298 1.243 . S
C309 C312 1.399 . S
C309 C314 1.383 . S
C309 C316 1.496 . S
C310 C311 1.399 . S
C310 C314 1.389 . S
C311 C310 1.399 . S
C311 C313 1.380 . S
C311 H328 0.929 . S
C312 C309 1.399 . S
C312 C313 1.392 . S
C312 H329 0.929 . S
C313 C311 1.380 . S
C313 C312 1.392 . S
C313 H330 0.929 . S
C314 C309 1.383 . S
C314 C310 1.389 . S
C314 H331 0.931 . S
C315 O300 1.266 . S
C315 O301 1.248 . S
C316 Tb252 2.802 . S
C316 O296 1.264 . S
C316 O299 1.256 . S
C316 C309 1.496 . S
C317 C284 1.448 . S
C317 H294 0.930 . S
C317 C318 1.328 . S
C318 C289 1.427 . S
C318 H295 0.929 . S
C318 C317 1.328 . S
C319 O303 1.264 . S
C319 O304 1.243 . S
C320 C323 1.399 1_655 S
C320 C324 1.383 . S
C320 C327 1.496 . S
C321 C322 1.399 1_655 S
C321 C324 1.389 . S
C322 C321 1.399 1_455 S
C322 C325 1.380 . S
C322 H332 0.929 . S
C323 C320 1.399 1_455 S
C323 C325 1.392 . S
C323 H333 0.929 . S
C324 C320 1.383 . S
C324 C321 1.389 . S
C324 H334 0.931 . S
C325 C322 1.380 . S
C325 C323 1.392 . S
C325 H335 0.929 . S
C326 O306 1.266 . S
C326 O307 1.248 . S
C327 Tb263 2.802 . S
C327 O302 1.264 . S
C327 O305 1.256 . S
C327 C320 1.496 . S
H328 C311 0.929 . S
H329 C312 0.929 . S
H330 C313 0.929 . S
H331 C314 0.931 . S
H332 C322 0.929 . S
H333 C323 0.929 . S
H334 C324 0.931 . S
H335 C325 0.929 . S
Tb336 N365 2.617 . S
Tb336 N371 2.572 . S
Tb336 O380 2.465 . S
Tb336 O381 2.387 . S
Tb336 O383 2.428 . S
Tb336 O384 2.308 . S
Tb336 O388 2.349 . S
Tb336 O391 2.393 . S
Tb336 C400 2.802 . S
C337 N338 1.379 . S
C337 C340 1.416 . S
C337 C344 1.424 . S
N338 C337 1.379 . S
N338 C341 1.334 . S
N338 Tb347 2.617 . S
C339 C341 1.390 . S
C339 C342 1.339 . S
C339 H359 0.930 . S
C340 C337 1.416 . S
C340 C342 1.416 . S
C340 C346 1.448 . S
C341 N338 1.334 . S
C341 C339 1.390 . S
C341 H352 0.930 . S
C342 C339 1.339 . S
C342 C340 1.416 . S
C342 H363 0.930 . S
C343 C344 1.413 . S
C343 C345 1.427 . S
C343 C349 1.416 . S
C344 C337 1.424 . S
C344 C343 1.413 . S
C344 N348 1.361 . S
C345 C343 1.427 . S
C345 C346 1.328 . S
C345 H360 0.929 . S
C346 C340 1.448 . S
C346 C345 1.328 . S
C346 H361 0.930 . S
Tb347 N338 2.617 . S
Tb347 N348 2.572 . S
Tb347 O382 2.349 . S
Tb347 O385 2.393 . S
Tb347 O386 2.465 . S
Tb347 O387 2.387 . S
Tb347 O389 2.428 . S
Tb347 O390 2.308 . S
Tb347 C411 2.802 . S
N348 C344 1.361 . S
N348 Tb347 2.572 . S
N348 C350 1.340 . S
C349 C343 1.416 . S
C349 C351 1.332 . S
C349 H357 0.931 . S
C350 N348 1.340 . S
C350 C351 1.407 . S
C350 H356 0.930 . S
C351 C349 1.332 . S
C351 C350 1.407 . S
C351 H353 0.929 . S
H352 C341 0.930 . S
H353 C351 0.929 . S
H354 C369 0.930 . S
H355 C376 0.929 . S
H356 C350 0.930 . S
H357 C349 0.931 . S
H358 C372 0.930 . S
H359 C339 0.930 . S
H360 C345 0.929 . S
H361 C346 0.930 . S
H362 C367 0.930 . S
H363 C342 0.930 . S
H364 C375 0.931 . S
N365 Tb336 2.617 . S
N365 C366 1.379 . S
N365 C369 1.334 . S
C366 N365 1.379 . S
C366 C368 1.416 1_565 S
C366 C374 1.424 1_565 S
C367 H362 0.930 . S
C367 C369 1.390 . S
C367 C370 1.339 . S
C368 C366 1.416 1_545 S
C368 C370 1.416 1_545 S
C368 C401 1.448 . S
C369 H354 0.930 . S
C369 N365 1.334 . S
C369 C367 1.390 . S
C370 C367 1.339 . S
C370 C368 1.416 1_565 S
C370 H377 0.930 . S
N371 Tb336 2.572 . S
N371 C372 1.340 1_565 S
N371 C374 1.361 1_565 S
C372 H358 0.930 . S
C372 N371 1.340 1_545 S
C372 C376 1.407 . S
C373 C374 1.413 . S
C373 C375 1.416 . S
C373 C402 1.427 . S
C374 C366 1.424 1_545 S
C374 N371 1.361 1_545 S
C374 C373 1.413 . S
C375 H364 0.931 . S
C375 C373 1.416 . S
C375 C376 1.332 . S
C376 H355 0.929 . S
C376 C372 1.407 . S
C376 C375 1.332 . S
H377 C370 0.930 . S
H378 C401 0.930 . S
H379 C402 0.929 . S
O380 Tb336 2.465 . S
O380 C400 1.264 . S
O381 Tb336 2.387 . S
O381 C392 1.264 . S
O382 Tb347 2.349 . S
O382 C392 1.243 . S
O383 Tb336 2.428 . S
O383 C400 1.256 . S
O384 Tb336 2.308 . S
O384 C399 1.266 . S
O385 Tb347 2.393 . S
O385 C399 1.248 . S
O386 Tb347 2.465 . S
O386 C411 1.264 . S
O387 Tb347 2.387 . S
O387 C403 1.264 . S
O388 Tb336 2.349 . S
O388 C403 1.243 . S
O389 Tb347 2.428 . S
O389 C411 1.256 . S
O390 Tb347 2.308 . S
O390 C410 1.266 . S
O391 Tb336 2.393 . S
O391 C410 1.248 . S
C392 O381 1.264 . S
C392 O382 1.243 . S
C393 C396 1.399 . S
C393 C398 1.383 . S
C393 C400 1.496 . S
C394 C395 1.399 . S
C394 C398 1.389 . S
C395 C394 1.399 . S
C395 C397 1.380 . S
C395 H412 0.929 . S
C396 C393 1.399 . S
C396 C397 1.392 . S
C396 H413 0.929 . S
C397 C395 1.380 . S
C397 C396 1.392 . S
C397 H414 0.929 . S
C398 C393 1.383 . S
C398 C394 1.389 . S
C398 H415 0.931 . S
C399 O384 1.266 . S
C399 O385 1.248 . S
C400 Tb336 2.802 . S
C400 O380 1.264 . S
C400 O383 1.256 . S
C400 C393 1.496 . S
C401 C368 1.448 . S
C401 H378 0.930 . S
C401 C402 1.328 . S
C402 C373 1.427 . S
C402 H379 0.929 . S
C402 C401 1.328 . S
C403 O387 1.264 . S
C403 O388 1.243 . S
C404 C407 1.399 . S
C404 C408 1.383 . S
C404 C411 1.496 . S
C405 C406 1.399 . S
C405 C408 1.389 . S
C406 C405 1.399 . S
C406 C409 1.380 . S
C406 H416 0.929 . S
C407 C404 1.399 . S
C407 C409 1.392 . S
C407 H417 0.929 . S
C408 C404 1.383 . S
C408 C405 1.389 . S
C408 H418 0.931 . S
C409 C406 1.380 . S
C409 C407 1.392 . S
C409 H419 0.929 . S
C410 O390 1.266 . S
C410 O391 1.248 . S
C411 Tb347 2.802 . S
C411 O386 1.264 . S
C411 O389 1.256 . S
C411 C404 1.496 . S
H412 C395 0.929 . S
H413 C396 0.929 . S
H414 C397 0.929 . S
H415 C398 0.931 . S
H416 C406 0.929 . S
H417 C407 0.929 . S
H418 C408 0.931 . S
H419 C409 0.929 . S
Tb420 N449 2.617 . S
Tb420 N455 2.572 . S
Tb420 O464 2.465 . S
Tb420 O465 2.387 . S
Tb420 O467 2.428 . S
Tb420 O468 2.308 . S
Tb420 O472 2.349 . S
Tb420 O475 2.393 . S
Tb420 C484 2.802 . S
C421 N422 1.379 . S
C421 C424 1.416 . S
C421 C428 1.424 . S
N422 C421 1.379 . S
N422 C425 1.334 . S
N422 Tb431 2.617 . S
C423 C425 1.390 . S
C423 C426 1.339 . S
C423 H443 0.930 . S
C424 C421 1.416 . S
C424 C426 1.416 . S
C424 C430 1.448 . S
C425 N422 1.334 . S
C425 C423 1.390 . S
C425 H436 0.930 . S
C426 C423 1.339 . S
C426 C424 1.416 . S
C426 H447 0.930 . S
C427 C428 1.413 . S
C427 C429 1.427 . S
C427 C433 1.416 . S
C428 C421 1.424 . S
C428 C427 1.413 . S
C428 N432 1.361 . S
C429 C427 1.427 . S
C429 C430 1.328 . S
C429 H444 0.929 . S
C430 C424 1.448 . S
C430 C429 1.328 . S
C430 H445 0.930 . S
Tb431 N422 2.617 . S
Tb431 N432 2.572 . S
Tb431 O466 2.349 . S
Tb431 O469 2.393 . S
Tb431 O470 2.465 . S
Tb431 O471 2.387 . S
Tb431 O473 2.428 . S
Tb431 O474 2.308 . S
Tb431 C495 2.802 . S
N432 C428 1.361 . S
N432 Tb431 2.572 . S
N432 C434 1.340 . S
C433 C427 1.416 . S
C433 C435 1.332 . S
C433 H441 0.931 . S
C434 N432 1.340 . S
C434 C435 1.407 . S
C434 H440 0.930 . S
C435 C433 1.332 . S
C435 C434 1.407 . S
C435 H437 0.929 . S
H436 C425 0.930 . S
H437 C435 0.929 . S
H438 C453 0.930 . S
H439 C460 0.929 . S
H440 C434 0.930 . S
H441 C433 0.931 . S
H442 C456 0.930 . S
H443 C423 0.930 . S
H444 C429 0.929 . S
H445 C430 0.930 . S
H446 C451 0.930 . S
H447 C426 0.930 . S
H448 C459 0.931 . S
N449 Tb420 2.617 . S
N449 C450 1.379 . S
N449 C453 1.334 . S
C450 N449 1.379 . S
C450 C452 1.416 . S
C450 C458 1.424 . S
C451 H446 0.930 . S
C451 C453 1.390 . S
C451 C454 1.339 . S
C452 C450 1.416 . S
C452 C454 1.416 . S
C452 C485 1.448 . S
C453 H438 0.930 . S
C453 N449 1.334 . S
C453 C451 1.390 . S
C454 C451 1.339 . S
C454 C452 1.416 . S
C454 H461 0.930 . S
N455 Tb420 2.572 . S
N455 C456 1.340 . S
N455 C458 1.361 . S
C456 H442 0.930 . S
C456 N455 1.340 . S
C456 C460 1.407 . S
C457 C458 1.413 . S
C457 C459 1.416 . S
C457 C486 1.427 . S
C458 C450 1.424 . S
C458 N455 1.361 . S
C458 C457 1.413 . S
C459 H448 0.931 . S
C459 C457 1.416 . S
C459 C460 1.332 . S
C460 H439 0.929 . S
C460 C456 1.407 . S
C460 C459 1.332 . S
H461 C454 0.930 . S
H462 C485 0.930 . S
H463 C486 0.929 . S
O464 Tb420 2.465 . S
O464 C484 1.264 . S
O465 Tb420 2.387 . S
O465 C476 1.264 . S
O466 Tb431 2.349 . S
O466 C476 1.243 . S
O467 Tb420 2.428 . S
O467 C484 1.256 . S
O468 Tb420 2.308 . S
O468 C483 1.266 . S
O469 Tb431 2.393 . S
O469 C483 1.248 . S
O470 Tb431 2.465 . S
O470 C495 1.264 . S
O471 Tb431 2.387 . S
O471 C487 1.264 . S
O472 Tb420 2.349 . S
O472 C487 1.243 . S
O473 Tb431 2.428 . S
O473 C495 1.256 . S
O474 Tb431 2.308 . S
O474 C494 1.266 . S
O475 Tb420 2.393 . S
O475 C494 1.248 . S
C476 O465 1.264 . S
C476 O466 1.243 . S
C477 C480 1.399 . S
C477 C482 1.383 . S
C477 C484 1.496 . S
C478 C479 1.399 . S
C478 C482 1.389 . S
C479 C478 1.399 . S
C479 C481 1.380 . S
C479 H496 0.929 . S
C480 C477 1.399 . S
C480 C481 1.392 . S
C480 H497 0.929 . S
C481 C479 1.380 . S
C481 C480 1.392 . S
C481 H498 0.929 . S
C482 C477 1.383 . S
C482 C478 1.389 . S
C482 H499 0.931 . S
C483 O468 1.266 . S
C483 O469 1.248 . S
C484 Tb420 2.802 . S
C484 O464 1.264 . S
C484 O467 1.256 . S
C484 C477 1.496 . S
C485 C452 1.448 . S
C485 H462 0.930 . S
C485 C486 1.328 . S
C486 C457 1.427 . S
C486 H463 0.929 . S
C486 C485 1.328 . S
C487 O471 1.264 . S
C487 O472 1.243 . S
C488 C491 1.399 . S
C488 C492 1.383 . S
C488 C495 1.496 . S
C489 C490 1.399 . S
C489 C492 1.389 . S
C490 C489 1.399 . S
C490 C493 1.380 . S
C490 H500 0.929 . S
C491 C488 1.399 . S
C491 C493 1.392 . S
C491 H501 0.929 . S
C492 C488 1.383 . S
C492 C489 1.389 . S
C492 H502 0.931 . S
C493 C490 1.380 . S
C493 C491 1.392 . S
C493 H503 0.929 . S
C494 O474 1.266 . S
C494 O475 1.248 . S
C495 Tb431 2.802 . S
C495 O470 1.264 . S
C495 O473 1.256 . S
C495 C488 1.496 . S
H496 C479 0.929 . S
H497 C480 0.929 . S
H498 C481 0.929 . S
H499 C482 0.931 . S
H500 C490 0.929 . S
H501 C491 0.929 . S
H502 C492 0.931 . S
H503 C493 0.929 . S
Tb504 N533 2.617 . S
Tb504 N539 2.572 . S
Tb504 O548 2.465 . S
Tb504 O549 2.387 . S
Tb504 O551 2.428 . S
Tb504 O552 2.308 . S
Tb504 O556 2.349 . S
Tb504 O559 2.393 . S
Tb504 C568 2.802 . S
C505 N506 1.379 . S
C505 C508 1.416 . S
C505 C512 1.424 . S
N506 C505 1.379 . S
N506 C509 1.334 . S
N506 Tb515 2.617 . S
C507 C509 1.390 . S
C507 C510 1.339 . S
C507 H527 0.930 . S
C508 C505 1.416 . S
C508 C510 1.416 . S
C508 C514 1.448 . S
C509 N506 1.334 . S
C509 C507 1.390 . S
C509 H520 0.930 . S
C510 C507 1.339 . S
C510 C508 1.416 . S
C510 H531 0.930 . S
C511 C512 1.413 . S
C511 C513 1.427 . S
C511 C517 1.416 . S
C512 C505 1.424 . S
C512 C511 1.413 . S
C512 N516 1.361 . S
C513 C511 1.427 . S
C513 C514 1.328 . S
C513 H528 0.929 . S
C514 C508 1.448 . S
C514 C513 1.328 . S
C514 H529 0.930 . S
Tb515 N506 2.617 . S
Tb515 N516 2.572 . S
Tb515 O550 2.349 . S
Tb515 O553 2.393 . S
Tb515 O554 2.465 . S
Tb515 O555 2.387 . S
Tb515 O557 2.428 . S
Tb515 O558 2.308 . S
Tb515 C579 2.802 . S
N516 C512 1.361 . S
N516 Tb515 2.572 . S
N516 C518 1.340 . S
C517 C511 1.416 . S
C517 C519 1.332 . S
C517 H525 0.931 . S
C518 N516 1.340 . S
C518 C519 1.407 . S
C518 H524 0.930 . S
C519 C517 1.332 . S
C519 C518 1.407 . S
C519 H521 0.929 . S
H520 C509 0.930 . S
H521 C519 0.929 . S
H522 C537 0.930 . S
H523 C544 0.929 . S
H524 C518 0.930 . S
H525 C517 0.931 . S
H526 C540 0.939 . S
H527 C507 0.930 . S
H528 C513 0.929 . S
H529 C514 0.930 . S
H530 C535 0.930 . S
H531 C510 0.930 . S
H532 C543 0.931 . S
N533 Tb504 2.617 . S
N533 C534 1.379 . S
N533 C537 1.334 . S
C534 N533 1.379 . S
C534 C536 1.416 1_545 S
C534 C542 1.424 1_545 S
C535 H530 0.930 . S
C535 C537 1.390 . S
C535 C538 1.339 . S
C536 C534 1.416 1_565 S
C536 C538 1.416 1_565 S
C536 C569 1.448 . S
C537 H522 0.930 . S
C537 N533 1.334 . S
C537 C535 1.390 . S
C538 C535 1.339 . S
C538 C536 1.416 1_545 S
C538 H545 0.930 1_655 S
N539 Tb504 2.572 . S
N539 C540 1.340 1_545 S
N539 C542 1.361 1_545 S
C540 H526 0.939 . S
C540 N539 1.340 1_565 S
C540 C544 1.407 . S
C541 C542 1.413 . S
C541 C543 1.416 . S
C541 C570 1.427 . S
C542 C534 1.424 1_565 S
C542 N539 1.361 1_565 S
C542 C541 1.413 . S
C543 H532 0.931 . S
C543 C541 1.416 . S
C543 C544 1.332 . S
C544 H523 0.929 . S
C544 C540 1.407 . S
C544 C543 1.332 . S
H545 C538 0.930 1_455 S
H546 C569 0.930 . S
H547 C570 0.929 . S
O548 Tb504 2.465 . S
O548 C568 1.264 . S
O549 Tb504 2.387 . S
O549 C560 1.264 . S
O550 Tb515 2.349 . S
O550 C560 1.243 . S
O551 Tb504 2.428 . S
O551 C568 1.256 . S
O552 Tb504 2.308 . S
O552 C567 1.266 . S
O553 Tb515 2.393 . S
O553 C567 1.248 . S
O554 Tb515 2.465 . S
O554 C579 1.264 . S
O555 Tb515 2.387 . S
O555 C571 1.264 . S
O556 Tb504 2.349 . S
O556 C571 1.243 . S
O557 Tb515 2.428 . S
O557 C579 1.256 . S
O558 Tb515 2.308 . S
O558 C578 1.266 . S
O559 Tb504 2.393 . S
O559 C578 1.248 . S
C560 O549 1.264 . S
C560 O550 1.243 . S
C561 C564 1.399 . S
C561 C566 1.383 . S
C561 C568 1.496 . S
C562 C563 1.399 . S
C562 C566 1.389 . S
C563 C562 1.399 . S
C563 C565 1.380 . S
C563 H580 0.929 . S
C564 C561 1.399 . S
C564 C565 1.392 . S
C564 H581 0.929 . S
C565 C563 1.380 . S
C565 C564 1.392 . S
C565 H582 0.929 . S
C566 C561 1.383 . S
C566 C562 1.389 . S
C566 H583 0.931 . S
C567 O552 1.266 . S
C567 O553 1.248 . S
C568 Tb504 2.802 . S
C568 O548 1.264 . S
C568 O551 1.256 . S
C568 C561 1.496 . S
C569 C536 1.448 . S
C569 H546 0.930 . S
C569 C570 1.328 . S
C570 C541 1.427 . S
C570 H547 0.929 . S
C570 C569 1.328 . S
C571 O555 1.264 . S
C571 O556 1.243 . S
C572 C575 1.399 . S
C572 C576 1.383 . S
C572 C579 1.496 . S
C573 C574 1.399 . S
C573 C576 1.389 . S
C574 C573 1.399 . S
C574 C577 1.380 . S
C574 H584 0.929 . S
C575 C572 1.399 . S
C575 C577 1.392 . S
C575 H585 0.929 . S
C576 C572 1.383 . S
C576 C573 1.389 . S
C576 H586 0.931 . S
C577 C574 1.380 . S
C577 C575 1.392 . S
C577 H587 0.929 . S
C578 O558 1.266 . S
C578 O559 1.248 . S
C579 Tb515 2.802 . S
C579 O554 1.264 . S
C579 O557 1.256 . S
C579 C572 1.496 . S
H580 C563 0.929 . S
H581 C564 0.929 . S
H582 C565 0.929 . S
H583 C566 0.931 . S
H584 C574 0.929 . S
H585 C575 0.929 . S
H586 C576 0.931 . S
H587 C577 0.929 . S
Tb588 N617 2.617 . S
Tb588 N623 2.572 . S
Tb588 O632 2.465 . S
Tb588 O633 2.387 . S
Tb588 O635 2.428 . S
Tb588 O636 2.308 . S
Tb588 O640 2.349 . S
Tb588 O643 2.393 . S
Tb588 C652 2.802 . S
C589 N590 1.379 . S
C589 C592 1.416 . S
C589 C596 1.424 . S
N590 C589 1.379 . S
N590 C593 1.334 . S
N590 Tb599 2.617 . S
C591 C593 1.390 . S
C591 C594 1.339 . S
C591 H611 0.930 . S
C592 C589 1.416 . S
C592 C594 1.416 . S
C592 C598 1.448 . S
C593 N590 1.334 . S
C593 C591 1.390 . S
C593 H604 0.930 . S
C594 C591 1.339 . S
C594 C592 1.416 . S
C594 H615 0.930 . S
C595 C596 1.413 . S
C595 C597 1.427 . S
C595 C601 1.416 . S
C596 C589 1.424 . S
C596 C595 1.413 . S
C596 N600 1.361 . S
C597 C595 1.427 . S
C597 C598 1.328 . S
C597 H612 0.929 . S
C598 C592 1.448 . S
C598 C597 1.328 . S
C598 H613 0.930 . S
Tb599 N590 2.617 . S
Tb599 N600 2.572 . S
Tb599 O634 2.349 . S
Tb599 O637 2.393 . S
Tb599 O638 2.465 . S
Tb599 O639 2.387 . S
Tb599 O641 2.428 . S
Tb599 O642 2.308 . S
Tb599 C663 2.802 . S
N600 C596 1.361 . S
N600 Tb599 2.572 . S
N600 C602 1.340 . S
C601 C595 1.416 . S
C601 C603 1.332 . S
C601 H609 0.931 . S
C602 N600 1.340 . S
C602 C603 1.407 . S
C602 H608 0.930 . S
C603 C601 1.332 . S
C603 C602 1.407 . S
C603 H605 0.929 . S
H604 C593 0.930 . S
H605 C603 0.929 . S
H606 C621 0.930 . S
H607 C628 0.929 . S
H608 C602 0.930 . S
H609 C601 0.931 . S
H610 C624 0.930 . S
H611 C591 0.930 . S
H612 C597 0.929 . S
H613 C598 0.930 . S
H614 C619 0.930 . S
H615 C594 0.930 . S
H616 C627 0.931 . S
N617 Tb588 2.617 . S
N617 C618 1.379 . S
N617 C621 1.334 1_455 S
C618 N617 1.379 . S
C618 C620 1.416 . S
C618 C626 1.424 . S
C619 H614 0.930 . S
C619 C621 1.390 . S
C619 C622 1.339 . S
C620 C618 1.416 . S
C620 C622 1.416 1_455 S
C620 C653 1.448 . S
C621 H606 0.930 . S
C621 N617 1.334 1_655 S
C621 C619 1.390 . S
C622 C619 1.339 . S
C622 C620 1.416 1_655 S
C622 H629 0.930 . S
N623 Tb588 2.572 . S
N623 C624 1.340 . S
N623 C626 1.361 . S
C624 H610 0.930 . S
C624 N623 1.340 . S
C624 C628 1.407 . S
C625 C626 1.413 . S
C625 C627 1.416 . S
C625 C654 1.427 . S
C626 C618 1.424 . S
C626 N623 1.361 . S
C626 C625 1.413 . S
C627 H616 0.931 . S
C627 C625 1.416 . S
C627 C628 1.332 . S
C628 H607 0.929 . S
C628 C624 1.407 . S
C628 C627 1.332 . S
H629 C622 0.930 . S
H630 C653 0.930 . S
H631 C654 0.929 . S
O632 Tb588 2.465 . S
O632 C652 1.264 . S
O633 Tb588 2.387 . S
O633 C644 1.264 . S
O634 Tb599 2.349 . S
O634 C644 1.243 . S
O635 Tb588 2.428 . S
O635 C652 1.256 . S
O636 Tb588 2.308 . S
O636 C651 1.266 . S
O637 Tb599 2.393 . S
O637 C651 1.248 . S
O638 Tb599 2.465 . S
O638 C663 1.264 . S
O639 Tb599 2.387 . S
O639 C655 1.264 . S
O640 Tb588 2.349 . S
O640 C655 1.243 . S
O641 Tb599 2.428 . S
O641 C663 1.256 . S
O642 Tb599 2.308 . S
O642 C662 1.266 . S
O643 Tb588 2.393 . S
O643 C662 1.248 . S
C644 O633 1.264 . S
C644 O634 1.243 . S
C645 C648 1.399 1_455 S
C645 C650 1.383 . S
C645 C652 1.496 . S
C646 C647 1.399 1_455 S
C646 C650 1.389 . S
C647 C646 1.399 1_655 S
C647 C649 1.380 . S
C647 H664 0.929 . S
C648 C645 1.399 1_655 S
C648 C649 1.392 . S
C648 H665 0.929 . S
C649 C647 1.380 . S
C649 C648 1.392 . S
C649 H666 0.929 . S
C650 C645 1.383 . S
C650 C646 1.389 . S
C650 H667 0.931 . S
C651 O636 1.266 . S
C651 O637 1.248 . S
C652 Tb588 2.802 . S
C652 O632 1.264 . S
C652 O635 1.256 . S
C652 C645 1.496 . S
C653 C620 1.448 . S
C653 H630 0.930 . S
C653 C654 1.328 . S
C654 C625 1.427 . S
C654 H631 0.929 . S
C654 C653 1.328 . S
C655 O639 1.264 . S
C655 O640 1.243 . S
C656 C659 1.399 . S
C656 C660 1.383 . S
C656 C663 1.496 . S
C657 C658 1.399 . S
C657 C660 1.389 . S
C658 C657 1.399 . S
C658 C661 1.380 . S
C658 H668 0.929 . S
C659 C656 1.399 . S
C659 C661 1.392 . S
C659 H669 0.929 . S
C660 C656 1.383 . S
C660 C657 1.389 . S
C660 H670 0.931 . S
C661 C658 1.380 . S
C661 C659 1.392 . S
C661 H671 0.929 . S
C662 O642 1.266 . S
C662 O643 1.248 . S
C663 Tb599 2.802 . S
C663 O638 1.264 . S
C663 O641 1.256 . S
C663 C656 1.496 . S
H664 C647 0.929 . S
H665 C648 0.929 . S
H666 C649 0.929 . S
H667 C650 0.931 . S
H668 C658 0.929 . S
H669 C659 0.929 . S
H670 C660 0.931 . S
H671 C661 0.929 . S
Tb672 N701 2.617 . S
Tb672 N707 2.572 . S
Tb672 O716 2.465 . S
Tb672 O717 2.387 . S
Tb672 O719 2.428 . S
Tb672 O720 2.308 . S
Tb672 O724 2.349 . S
Tb672 O727 2.393 . S
Tb672 C736 2.802 . S
C673 N674 1.379 . S
C673 C676 1.416 . S
C673 C680 1.424 . S
N674 C673 1.379 . S
N674 C677 1.334 . S
N674 Tb683 2.617 . S
C675 C677 1.390 . S
C675 C678 1.339 . S
C675 H695 0.930 . S
C676 C673 1.416 . S
C676 C678 1.416 . S
C676 C682 1.448 . S
C677 N674 1.334 . S
C677 C675 1.390 . S
C677 H688 0.930 . S
C678 C675 1.339 . S
C678 C676 1.416 . S
C678 H699 0.930 1_655 S
C679 C680 1.413 . S
C679 C681 1.427 . S
C679 C685 1.416 . S
C680 C673 1.424 . S
C680 C679 1.413 . S
C680 N684 1.361 . S
C681 C679 1.427 . S
C681 C682 1.328 . S
C681 H696 0.929 . S
C682 C676 1.448 . S
C682 C681 1.328 . S
C682 H697 0.930 . S
Tb683 N674 2.617 . S
Tb683 N684 2.572 . S
Tb683 O718 2.349 . S
Tb683 O721 2.393 . S
Tb683 O722 2.465 . S
Tb683 O723 2.387 . S
Tb683 O725 2.428 . S
Tb683 O726 2.308 . S
Tb683 C747 2.802 . S
N684 C680 1.361 . S
N684 Tb683 2.572 . S
N684 C686 1.340 . S
C685 C679 1.416 . S
C685 C687 1.332 . S
C685 H693 0.931 . S
C686 N684 1.340 . S
C686 C687 1.407 . S
C686 H692 0.930 . S
C687 C685 1.332 . S
C687 C686 1.407 . S
C687 H689 0.929 . S
H688 C677 0.930 . S
H689 C687 0.929 . S
H690 C705 0.930 . S
H691 C712 0.929 . S
H692 C686 0.930 . S
H693 C685 0.931 . S
H694 C708 0.930 . S
H695 C675 0.930 . S
H696 C681 0.929 . S
H697 C682 0.930 . S
H698 C703 0.930 . S
H699 C678 0.930 1_455 S
H700 C711 0.931 . S
N701 Tb672 2.617 . S
N701 C702 1.379 . S
N701 C705 1.334 . S
C702 N701 1.379 . S
C702 C704 1.416 . S
C702 C710 1.424 . S
C703 H698 0.930 . S
C703 C705 1.390 . S
C703 C706 1.339 . S
C704 C702 1.416 . S
C704 C706 1.416 . S
C704 C737 1.448 . S
C705 H690 0.930 . S
C705 N701 1.334 . S
C705 C703 1.390 . S
C706 C703 1.339 . S
C706 C704 1.416 . S
C706 H713 0.930 . S
N707 Tb672 2.572 . S
N707 C708 1.340 . S
N707 C710 1.361 . S
C708 H694 0.930 . S
C708 N707 1.340 . S
C708 C712 1.407 . S
C709 C710 1.413 . S
C709 C711 1.416 . S
C709 C738 1.427 . S
C710 C702 1.424 . S
C710 N707 1.361 . S
C710 C709 1.413 . S
C711 H700 0.931 . S
C711 C709 1.416 . S
C711 C712 1.332 . S
C712 H691 0.929 . S
C712 C708 1.407 . S
C712 C711 1.332 . S
H713 C706 0.930 . S
H714 C737 0.930 . S
H715 C738 0.929 . S
O716 Tb672 2.465 . S
O716 C736 1.264 . S
O717 Tb672 2.387 . S
O717 C728 1.264 . S
O718 Tb683 2.349 . S
O718 C728 1.243 . S
O719 Tb672 2.428 . S
O719 C736 1.256 . S
O720 Tb672 2.308 . S
O720 C735 1.266 . S
O721 Tb683 2.393 . S
O721 C735 1.248 . S
O722 Tb683 2.465 . S
O722 C747 1.264 . S
O723 Tb683 2.387 . S
O723 C739 1.264 . S
O724 Tb672 2.349 . S
O724 C739 1.243 . S
O725 Tb683 2.428 . S
O725 C747 1.256 . S
O726 Tb683 2.308 . S
O726 C746 1.266 . S
O727 Tb672 2.393 . S
O727 C746 1.248 . S
C728 O717 1.264 . S
C728 O718 1.243 . S
C729 C732 1.399 . S
C729 C734 1.383 . S
C729 C736 1.496 . S
C730 C731 1.399 . S
C730 C734 1.389 . S
C731 C730 1.399 . S
C731 C733 1.380 . S
C731 H748 0.929 . S
C732 C729 1.399 . S
C732 C733 1.392 . S
C732 H749 0.929 . S
C733 C731 1.380 . S
C733 C732 1.392 . S
C733 H750 0.929 . S
C734 C729 1.383 . S
C734 C730 1.389 . S
C734 H751 0.931 . S
C735 O720 1.266 . S
C735 O721 1.248 . S
C736 Tb672 2.802 . S
C736 O716 1.264 . S
C736 O719 1.256 . S
C736 C729 1.496 . S
C737 C704 1.448 . S
C737 H714 0.930 . S
C737 C738 1.328 . S
C738 C709 1.427 . S
C738 H715 0.929 . S
C738 C737 1.328 . S
C739 O723 1.264 . S
C739 O724 1.243 . S
C740 C743 1.399 . S
C740 C744 1.383 . S
C740 C747 1.496 . S
C741 C742 1.399 . S
C741 C744 1.389 . S
C742 C741 1.399 . S
C742 C745 1.380 . S
C742 H752 0.929 . S
C743 C740 1.399 . S
C743 C745 1.392 . S
C743 H753 0.929 . S
C744 C740 1.383 . S
C744 C741 1.389 . S
C744 H754 0.931 . S
C745 C742 1.380 . S
C745 C743 1.392 . S
C745 H755 0.929 . S
C746 O726 1.266 . S
C746 O727 1.248 . S
C747 Tb683 2.802 . S
C747 O722 1.264 . S
C747 O725 1.256 . S
C747 C740 1.496 . S
H748 C731 0.929 . S
H749 C732 0.929 . S
H750 C733 0.929 . S
H751 C734 0.931 . S
H752 C742 0.929 . S
H753 C743 0.929 . S
H754 C744 0.931 . S
H755 C745 0.929 . S
Tb756 N785 2.617 . S
Tb756 N791 2.572 1_455 S
Tb756 O800 2.465 1_565 S
Tb756 O801 2.387 . S
Tb756 O803 2.428 . S
Tb756 O804 2.308 1_565 S
Tb756 O808 2.349 1_565 S
Tb756 O811 2.393 . S
Tb756 C820 2.802 1_565 S
C757 N758 1.379 . S
C757 C760 1.416 . S
C757 C764 1.424 . S
N758 C757 1.379 . S
N758 C761 1.334 . S
N758 Tb767 2.617 . S
C759 C761 1.390 . S
C759 C762 1.339 . S
C759 H779 0.930 . S
C760 C757 1.416 . S
C760 C762 1.416 . S
C760 C766 1.448 . S
C761 N758 1.334 . S
C761 C759 1.390 . S
C761 H772 0.930 . S
C762 C759 1.339 . S
C762 C760 1.416 . S
C762 H783 0.930 . S
C763 C764 1.413 . S
C763 C765 1.427 . S
C763 C769 1.416 . S
C764 C757 1.424 . S
C764 C763 1.413 . S
C764 N768 1.361 . S
C765 C763 1.427 . S
C765 C766 1.328 . S
C765 H780 0.929 . S
C766 C760 1.448 . S
C766 C765 1.328 . S
C766 H781 0.930 . S
Tb767 N758 2.617 . S
Tb767 N768 2.572 . S
Tb767 O802 2.349 . S
Tb767 O805 2.393 . S
Tb767 O806 2.465 . S
Tb767 O807 2.387 . S
Tb767 O809 2.428 . S
Tb767 O810 2.308 1_545 S
Tb767 C831 2.802 . S
N768 C764 1.361 . S
N768 Tb767 2.572 . S
N768 C770 1.340 . S
C769 C763 1.416 . S
C769 C771 1.332 . S
C769 H777 0.931 . S
C770 N768 1.340 . S
C770 C771 1.407 . S
C770 H776 0.943 . S
C771 C769 1.332 . S
C771 C770 1.407 . S
C771 H773 0.929 . S
H772 C761 0.930 . S
H773 C771 0.929 . S
H774 C789 0.930 . S
H775 C796 0.929 . S
H776 C770 0.943 . S
H777 C769 0.931 . S
H778 C792 0.930 . S
H779 C759 0.930 . S
H780 C765 0.929 . S
H781 C766 0.930 . S
H782 C787 0.930 . S
H783 C762 0.930 . S
H784 C795 0.931 . S
N785 Tb756 2.617 . S
N785 C786 1.379 1_455 S
N785 C789 1.334 . S
C786 N785 1.379 1_655 S
C786 C788 1.416 . S
C786 C794 1.424 . S
C787 H782 0.930 . S
C787 C789 1.390 . S
C787 C790 1.339 . S
C788 C786 1.416 . S
C788 C790 1.416 1_655 S
C788 C821 1.448 . S
C789 H774 0.930 . S
C789 N785 1.334 . S
C789 C787 1.390 . S
C790 C787 1.339 . S
C790 C788 1.416 1_455 S
C790 H797 0.930 1_455 S
N791 Tb756 2.572 1_655 S
N791 C792 1.340 1_565 S
N791 C794 1.361 . S
C792 H778 0.930 . S
C792 N791 1.340 1_545 S
C792 C796 1.407 . S
C793 C794 1.413 . S
C793 C795 1.416 . S
C793 C822 1.427 . S
C794 C786 1.424 . S
C794 N791 1.361 . S
C794 C793 1.413 . S
C795 H784 0.931 . S
C795 C793 1.416 . S
C795 C796 1.332 1_565 S
C796 H775 0.929 . S
C796 C792 1.407 . S
C796 C795 1.332 1_545 S
H797 C790 0.930 1_655 S
H798 C821 0.930 . S
H799 C822 0.929 . S
O800 Tb756 2.465 1_545 S
O800 C820 1.264 . S
O801 Tb756 2.387 . S
O801 C812 1.253 1_565 S
O802 Tb767 2.349 . S
O802 C812 1.258 . S
O803 Tb756 2.428 . S
O803 C820 1.256 1_565 S
O804 Tb756 2.308 1_545 S
O804 C819 1.266 . S
O805 Tb767 2.393 . S
O805 C819 1.248 . S
O806 Tb767 2.465 . S
O806 C831 1.264 . S
O807 Tb767 2.387 . S
O807 C823 1.264 . S
O808 Tb756 2.349 1_545 S
O808 C823 1.243 . S
O809 Tb767 2.428 . S
O809 C831 1.256 . S
O810 Tb767 2.308 1_565 S
O810 C830 1.266 . S
O811 Tb756 2.393 . S
O811 C830 1.248 . S
C812 O801 1.253 1_545 S
C812 O802 1.258 . S
C813 C816 1.399 1_545 S
C813 C818 1.383 . S
C813 C820 1.496 . S
C814 C815 1.399 1_556 S
C814 C818 1.389 . S
C815 C814 1.399 1_554 S
C815 C817 1.380 1_544 S
C815 H832 0.929 . S
C816 C813 1.399 1_565 S
C816 C817 1.392 . S
C816 H833 0.929 . S
C817 C815 1.380 1_566 S
C817 C816 1.392 . S
C817 H834 0.929 1_556 S
C818 C813 1.383 . S
C818 C814 1.389 . S
C818 H835 0.931 . S
C819 O804 1.266 . S
C819 O805 1.248 . S
C820 Tb756 2.802 1_545 S
C820 O800 1.264 . S
C820 O803 1.256 1_545 S
C820 C813 1.496 . S
C821 C788 1.448 . S
C821 H798 0.930 . S
C821 C822 1.328 . S
C822 C793 1.427 . S
C822 H799 0.929 . S
C822 C821 1.328 . S
C823 O807 1.264 . S
C823 O808 1.243 . S
C824 C827 1.399 . S
C824 C828 1.383 . S
C824 C831 1.496 . S
C825 C826 1.399 . S
C825 C828 1.389 . S
C826 C825 1.399 . S
C826 C829 1.380 . S
C826 H836 0.929 . S
C827 C824 1.399 . S
C827 C829 1.392 . S
C827 H837 0.929 . S
C828 C824 1.383 . S
C828 C825 1.389 . S
C828 H838 0.931 1_545 S
C829 C826 1.380 . S
C829 C827 1.392 . S
C829 H839 0.929 . S
C830 O810 1.266 . S
C830 O811 1.248 . S
C831 Tb767 2.802 . S
C831 O806 1.264 . S
C831 O809 1.256 . S
C831 C824 1.496 . S
H832 C815 0.929 . S
H833 C816 0.929 . S
H834 C817 0.929 1_554 S
H835 C818 0.931 . S
H836 C826 0.929 . S
H837 C827 0.929 . S
H838 C828 0.931 1_565 S
H839 C829 0.929 . S
Tb840 N869 2.617 . S
Tb840 N875 2.572 . S
Tb840 O884 2.465 . S
Tb840 O885 2.387 . S
Tb840 O887 2.428 . S
Tb840 O888 2.308 . S
Tb840 O892 2.349 . S
Tb840 O895 2.393 . S
Tb840 C904 2.802 . S
C841 N842 1.379 . S
C841 C844 1.416 . S
C841 C848 1.424 . S
N842 C841 1.379 . S
N842 C845 1.334 . S
N842 Tb851 2.617 . S
C843 C845 1.390 . S
C843 C846 1.339 . S
C843 H863 0.930 . S
C844 C841 1.416 . S
C844 C846 1.416 . S
C844 C850 1.448 . S
C845 N842 1.334 . S
C845 C843 1.390 . S
C845 H856 0.930 . S
C846 C843 1.339 . S
C846 C844 1.416 . S
C846 H867 0.930 . S
C847 C848 1.413 . S
C847 C849 1.427 . S
C847 C853 1.416 . S
C848 C841 1.424 . S
C848 C847 1.413 . S
C848 N852 1.361 . S
C849 C847 1.427 . S
C849 C850 1.328 . S
C849 H864 0.929 . S
C850 C844 1.448 . S
C850 C849 1.328 . S
C850 H865 0.930 . S
Tb851 N842 2.617 . S
Tb851 N852 2.572 . S
Tb851 O886 2.349 . S
Tb851 O889 2.393 . S
Tb851 O890 2.465 . S
Tb851 O891 2.387 . S
Tb851 O893 2.428 . S
Tb851 O894 2.308 . S
Tb851 C915 2.802 . S
N852 C848 1.361 . S
N852 Tb851 2.572 . S
N852 C854 1.340 . S
C853 C847 1.416 . S
C853 C855 1.332 . S
C853 H861 0.931 . S
C854 N852 1.340 . S
C854 C855 1.407 . S
C854 H860 0.930 . S
C855 C853 1.332 . S
C855 C854 1.407 . S
C855 H857 0.929 . S
H856 C845 0.930 . S
H857 C855 0.929 . S
H858 C873 0.930 . S
H859 C880 0.929 . S
H860 C854 0.930 . S
H861 C853 0.931 . S
H862 C876 0.930 . S
H863 C843 0.930 . S
H864 C849 0.929 . S
H865 C850 0.930 . S
H866 C871 0.930 . S
H867 C846 0.930 . S
H868 C879 0.931 . S
N869 Tb840 2.617 . S
N869 C870 1.379 . S
N869 C873 1.334 . S
C870 N869 1.379 . S
C870 C872 1.416 . S
C870 C878 1.424 . S
C871 H866 0.930 . S
C871 C873 1.390 . S
C871 C874 1.339 . S
C872 C870 1.416 . S
C872 C874 1.416 . S
C872 C905 1.448 . S
C873 H858 0.930 . S
C873 N869 1.334 . S
C873 C871 1.390 . S
C874 C871 1.339 . S
C874 C872 1.416 . S
C874 H881 0.930 . S
N875 Tb840 2.572 . S
N875 C876 1.340 . S
N875 C878 1.361 . S
C876 H862 0.930 . S
C876 N875 1.340 . S
C876 C880 1.407 . S
C877 C878 1.413 . S
C877 C879 1.416 . S
C877 C906 1.427 . S
C878 C870 1.424 . S
C878 N875 1.361 . S
C878 C877 1.413 . S
C879 H868 0.931 . S
C879 C877 1.416 . S
C879 C880 1.332 . S
C880 H859 0.929 . S
C880 C876 1.407 . S
C880 C879 1.332 . S
H881 C874 0.930 . S
H882 C905 0.930 . S
H883 C906 0.929 . S
O884 Tb840 2.465 . S
O884 C904 1.264 . S
O885 Tb840 2.387 . S
O885 C896 1.264 . S
O886 Tb851 2.349 . S
O886 C896 1.243 . S
O887 Tb840 2.428 . S
O887 C904 1.256 . S
O888 Tb840 2.308 . S
O888 C903 1.266 . S
O889 Tb851 2.393 . S
O889 C903 1.248 . S
O890 Tb851 2.465 . S
O890 C915 1.264 . S
O891 Tb851 2.387 . S
O891 C907 1.264 . S
O892 Tb840 2.349 . S
O892 C907 1.243 . S
O893 Tb851 2.428 . S
O893 C915 1.256 . S
O894 Tb851 2.308 . S
O894 C914 1.266 . S
O895 Tb840 2.393 . S
O895 C914 1.248 . S
C896 O885 1.264 . S
C896 O886 1.243 . S
C897 C900 1.399 . S
C897 C902 1.383 . S
C897 C904 1.496 . S
C898 C899 1.399 . S
C898 C902 1.389 . S
C899 C898 1.399 . S
C899 C901 1.380 . S
C899 H916 0.929 . S
C900 C897 1.399 . S
C900 C901 1.392 . S
C900 H917 0.929 . S
C901 C899 1.380 . S
C901 C900 1.392 . S
C901 H918 0.929 . S
C902 C897 1.383 . S
C902 C898 1.389 . S
C902 H919 0.931 . S
C903 O888 1.266 . S
C903 O889 1.248 . S
C904 Tb840 2.802 . S
C904 O884 1.264 . S
C904 O887 1.256 . S
C904 C897 1.496 . S
C905 C872 1.448 . S
C905 H882 0.930 . S
C905 C906 1.328 . S
C906 C877 1.427 . S
C906 H883 0.929 . S
C906 C905 1.328 . S
C907 O891 1.264 . S
C907 O892 1.243 . S
C908 C911 1.399 . S
C908 C912 1.383 . S
C908 C915 1.496 . S
C909 C910 1.399 . S
C909 C912 1.389 . S
C910 C909 1.399 . S
C910 C913 1.380 . S
C910 H920 0.929 . S
C911 C908 1.399 . S
C911 C913 1.392 . S
C911 H921 0.929 . S
C912 C908 1.383 . S
C912 C909 1.389 . S
C912 H922 0.931 . S
C913 C910 1.380 . S
C913 C911 1.392 . S
C913 H923 0.929 . S
C914 O894 1.266 . S
C914 O895 1.248 . S
C915 Tb851 2.802 . S
C915 O890 1.264 . S
C915 O893 1.256 . S
C915 C908 1.496 . S
H916 C899 0.929 . S
H917 C900 0.929 . S
H918 C901 0.929 . S
H919 C902 0.931 . S
H920 C910 0.929 . S
H921 C911 0.929 . S
H922 C912 0.931 . S
H923 C913 0.929 . S
Tb924 N953 2.617 . S
Tb924 N959 2.572 . S
Tb924 O968 2.465 . S
Tb924 O969 2.387 . S
Tb924 O971 2.428 . S
Tb924 O972 2.308 . S
Tb924 O976 2.349 1_565 S
Tb924 O979 2.393 . S
Tb924 C988 2.802 . S
C925 N926 1.379 . S
C925 C928 1.416 . S
C925 C932 1.424 . S
N926 C925 1.379 . S
N926 C929 1.334 . S
N926 Tb935 2.617 . S
C927 C929 1.390 . S
C927 C930 1.339 . S
C927 H947 0.930 . S
C928 C925 1.416 . S
C928 C930 1.416 . S
C928 C934 1.448 . S
C929 N926 1.334 . S
C929 C927 1.390 . S
C929 H940 0.930 . S
C930 C927 1.339 . S
C930 C928 1.416 . S
C930 H951 0.930 . S
C931 C932 1.413 . S
C931 C933 1.427 . S
C931 C937 1.416 . S
C932 C925 1.424 . S
C932 C931 1.413 . S
C932 N936 1.361 . S
C933 C931 1.427 . S
C933 C934 1.328 . S
C933 H948 0.929 . S
C934 C928 1.448 . S
C934 C933 1.328 . S
C934 H949 0.930 . S
Tb935 N926 2.617 . S
Tb935 N936 2.572 . S
Tb935 O970 2.349 1_545 S
Tb935 O973 2.393 . S
Tb935 O974 2.465 1_545 S
Tb935 O975 2.387 . S
Tb935 O977 2.428 1_545 S
Tb935 O978 2.308 1_545 S
Tb935 C999 2.802 1_545 S
N936 C932 1.361 . S
N936 Tb935 2.572 . S
N936 C938 1.340 . S
C937 C931 1.416 . S
C937 C939 1.332 . S
C937 H945 0.931 . S
C938 N936 1.340 . S
C938 C939 1.407 . S
C938 H944 0.930 . S
C939 C937 1.332 . S
C939 C938 1.407 . S
C939 H941 0.929 . S
H940 C929 0.930 . S
H941 C939 0.929 . S
H942 C957 0.930 . S
H943 C964 0.929 . S
H944 C938 0.930 . S
H945 C937 0.931 . S
H946 C960 0.930 . S
H947 C927 0.930 . S
H948 C933 0.929 . S
H949 C934 0.930 . S
H950 C955 0.930 . S
H951 C930 0.930 . S
H952 C963 0.931 . S
N953 Tb924 2.617 . S
N953 C954 1.379 . S
N953 C957 1.334 . S
C954 N953 1.379 . S
C954 C956 1.416 . S
C954 C962 1.424 . S
C955 H950 0.930 . S
C955 C957 1.390 . S
C955 C958 1.339 . S
C956 C954 1.416 . S
C956 C958 1.416 . S
C956 C989 1.448 . S
C957 H942 0.930 . S
C957 N953 1.334 . S
C957 C955 1.390 . S
C958 C955 1.339 . S
C958 C956 1.416 . S
C958 H965 0.930 . S
N959 Tb924 2.572 . S
N959 C960 1.340 . S
N959 C962 1.361 . S
C960 H946 0.930 . S
C960 N959 1.340 . S
C960 C964 1.407 . S
C961 C962 1.413 . S
C961 C963 1.416 . S
C961 C990 1.427 . S
C962 C954 1.424 . S
C962 N959 1.361 . S
C962 C961 1.413 . S
C963 H952 0.931 . S
C963 C961 1.416 . S
C963 C964 1.332 . S
C964 H943 0.929 . S
C964 C960 1.407 . S
C964 C963 1.332 . S
H965 C958 0.930 . S
H966 C989 0.930 . S
H967 C990 0.929 . S
O968 Tb924 2.465 . S
O968 C988 1.264 . S
O969 Tb924 2.387 . S
O969 C980 1.264 . S
O970 Tb935 2.349 1_565 S
O970 C980 1.243 . S
O971 Tb924 2.428 . S
O971 C988 1.256 . S
O972 Tb924 2.308 . S
O972 C987 1.266 . S
O973 Tb935 2.393 . S
O973 C987 1.248 1_545 S
O974 Tb935 2.465 1_565 S
O974 C999 1.264 . S
O975 Tb935 2.387 . S
O975 C991 1.264 . S
O976 Tb924 2.349 1_545 S
O976 C991 1.243 . S
O977 Tb935 2.428 1_565 S
O977 C999 1.256 . S
O978 Tb935 2.308 1_565 S
O978 C998 1.266 . S
O979 Tb924 2.393 . S
O979 C998 1.248 . S
C980 O969 1.264 . S
C980 O970 1.243 . S
C981 C984 1.399 . S
C981 C986 1.383 . S
C981 C988 1.496 . S
C982 C983 1.399 1_545 S
C982 C986 1.389 1_545 S
C983 C982 1.399 1_565 S
C983 C985 1.380 . S
C983 H1000 0.930 . S
C984 C981 1.399 . S
C984 C985 1.392 . S
C984 H1001 0.929 . S
C985 C983 1.380 . S
C985 C984 1.392 . S
C985 H1002 0.929 . S
C986 C981 1.383 . S
C986 C982 1.389 1_565 S
C986 H1003 0.931 1_565 S
C987 O972 1.266 . S
C987 O973 1.248 1_565 S
C988 Tb924 2.802 . S
C988 O968 1.264 . S
C988 O971 1.256 . S
C988 C981 1.496 . S
C989 C956 1.448 . S
C989 H966 0.930 . S
C989 C990 1.328 . S
C990 C961 1.427 . S
C990 H967 0.929 . S
C990 C989 1.328 . S
C991 O975 1.264 . S
C991 O976 1.243 . S
C992 C995 1.399 . S
C992 C996 1.383 . S
C992 C999 1.496 . S
C993 C994 1.399 . S
C993 C996 1.389 . S
C994 C993 1.399 . S
C994 C997 1.380 . S
C994 H1004 0.929 . S
C995 C992 1.399 . S
C995 C997 1.392 . S
C995 H1005 0.929 . S
C996 C992 1.383 . S
C996 C993 1.389 . S
C996 H1006 0.931 . S
C997 C994 1.380 . S
C997 C995 1.392 . S
C997 H1007 0.929 . S
C998 O978 1.266 . S
C998 O979 1.248 . S
C999 Tb935 2.802 1_565 S
C999 O974 1.264 . S
C999 O977 1.256 . S
C999 C992 1.496 . S
H1000 C983 0.930 . S
H1001 C984 0.929 . S
H1002 C985 0.929 . S
H1003 C986 0.931 1_545 S
H1004 C994 0.929 . S
H1005 C995 0.929 . S
H1006 C996 0.931 . S
H1007 C997 0.929 . S
Tb1008 N1037 2.617 . S
Tb1008 N1043 2.572 . S
Tb1008 O1052 2.465 . S
Tb1008 O1053 2.387 . S
Tb1008 O1055 2.428 . S
Tb1008 O1056 2.308 . S
Tb1008 O1060 2.349 . S
Tb1008 O1063 2.393 . S
Tb1008 C1072 2.802 . S
C1009 N1010 1.379 . S
C1009 C1012 1.416 . S
C1009 C1016 1.424 . S
N1010 C1009 1.379 . S
N1010 C1013 1.334 . S
N1010 Tb1019 2.617 . S
C1011 C1013 1.390 . S
C1011 C1014 1.339 . S
C1011 H1031 0.930 . S
C1012 C1009 1.416 . S
C1012 C1014 1.416 . S
C1012 C1018 1.448 . S
C1013 N1010 1.334 . S
C1013 C1011 1.390 . S
C1013 H1024 0.930 . S
C1014 C1011 1.339 . S
C1014 C1012 1.416 . S
C1014 H1035 0.930 . S
C1015 C1016 1.413 . S
C1015 C1017 1.427 . S
C1015 C1021 1.416 . S
C1016 C1009 1.424 . S
C1016 C1015 1.413 . S
C1016 N1020 1.361 . S
C1017 C1015 1.427 . S
C1017 C1018 1.328 . S
C1017 H1032 0.929 . S
C1018 C1012 1.448 . S
C1018 C1017 1.328 . S
C1018 H1033 0.930 . S
Tb1019 N1010 2.617 . S
Tb1019 N1020 2.572 . S
Tb1019 O1054 2.349 . S
Tb1019 O1057 2.393 . S
Tb1019 O1058 2.465 . S
Tb1019 O1059 2.387 . S
Tb1019 O1061 2.428 . S
Tb1019 O1062 2.308 . S
Tb1019 C1083 2.802 . S
N1020 C1016 1.361 . S
N1020 Tb1019 2.572 . S
N1020 C1022 1.340 . S
C1021 C1015 1.416 . S
C1021 C1023 1.332 . S
C1021 H1029 0.931 . S
C1022 N1020 1.340 . S
C1022 C1023 1.407 . S
C1022 H1028 0.930 . S
C1023 C1021 1.332 . S
C1023 C1022 1.407 . S
C1023 H1025 0.929 . S
H1024 C1013 0.930 . S
H1025 C1023 0.929 . S
H1026 C1041 0.930 . S
H1027 C1048 0.929 . S
H1028 C1022 0.930 . S
H1029 C1021 0.931 . S
H1030 C1044 0.930 . S
H1031 C1011 0.930 . S
H1032 C1017 0.929 . S
H1033 C1018 0.930 . S
H1034 C1039 0.930 . S
H1035 C1014 0.930 . S
H1036 C1047 0.931 . S
N1037 Tb1008 2.617 . S
N1037 C1038 1.379 . S
N1037 C1041 1.334 . S
C1038 N1037 1.379 . S
C1038 C1040 1.416 . S
C1038 C1046 1.424 . S
C1039 H1034 0.930 . S
C1039 C1041 1.390 . S
C1039 C1042 1.339 . S
C1040 C1038 1.416 . S
C1040 C1042 1.416 . S
C1040 C1073 1.448 . S
C1041 H1026 0.930 . S
C1041 N1037 1.334 . S
C1041 C1039 1.390 . S
C1042 C1039 1.339 . S
C1042 C1040 1.416 . S
C1042 H1049 0.930 1_455 S
N1043 Tb1008 2.572 . S
N1043 C1044 1.340 . S
N1043 C1046 1.361 . S
C1044 H1030 0.930 . S
C1044 N1043 1.340 . S
C1044 C1048 1.407 . S
C1045 C1046 1.413 . S
C1045 C1047 1.416 . S
C1045 C1074 1.427 . S
C1046 C1038 1.424 . S
C1046 N1043 1.361 . S
C1046 C1045 1.413 . S
C1047 H1036 0.931 . S
C1047 C1045 1.416 . S
C1047 C1048 1.332 . S
C1048 H1027 0.929 . S
C1048 C1044 1.407 . S
C1048 C1047 1.332 . S
H1049 C1042 0.930 1_655 S
H1050 C1073 0.930 . S
H1051 C1074 0.929 . S
O1052 Tb1008 2.465 . S
O1052 C1072 1.264 . S
O1053 Tb1008 2.387 . S
O1053 C1064 1.264 . S
O1054 Tb1019 2.349 . S
O1054 C1064 1.243 . S
O1055 Tb1008 2.428 . S
O1055 C1072 1.256 . S
O1056 Tb1008 2.308 . S
O1056 C1071 1.266 . S
O1057 Tb1019 2.393 . S
O1057 C1071 1.248 . S
O1058 Tb1019 2.465 . S
O1058 C1083 1.264 . S
O1059 Tb1019 2.387 . S
O1059 C1075 1.264 . S
O1060 Tb1008 2.349 . S
O1060 C1075 1.243 . S
O1061 Tb1019 2.428 . S
O1061 C1083 1.256 . S
O1062 Tb1019 2.308 . S
O1062 C1082 1.266 . S
O1063 Tb1008 2.393 . S
O1063 C1082 1.248 . S
C1064 O1053 1.264 . S
C1064 O1054 1.243 . S
C1065 C1068 1.399 . S
C1065 C1070 1.383 . S
C1065 C1072 1.496 . S
C1066 C1067 1.399 . S
C1066 C1070 1.389 . S
C1067 C1066 1.399 . S
C1067 C1069 1.380 . S
C1067 H1084 0.929 . S
C1068 C1065 1.399 . S
C1068 C1069 1.392 . S
C1068 H1085 0.929 . S
C1069 C1067 1.380 . S
C1069 C1068 1.392 . S
C1069 H1086 0.929 . S
C1070 C1065 1.383 . S
C1070 C1066 1.389 . S
C1070 H1087 0.931 . S
C1071 O1056 1.266 . S
C1071 O1057 1.248 . S
C1072 Tb1008 2.802 . S
C1072 O1052 1.264 . S
C1072 O1055 1.256 . S
C1072 C1065 1.496 . S
C1073 C1040 1.448 . S
C1073 H1050 0.930 . S
C1073 C1074 1.328 . S
C1074 C1045 1.427 . S
C1074 H1051 0.929 . S
C1074 C1073 1.328 . S
C1075 O1059 1.264 . S
C1075 O1060 1.243 . S
C1076 C1079 1.399 . S
C1076 C1080 1.383 . S
C1076 C1083 1.496 . S
C1077 C1078 1.399 . S
C1077 C1080 1.389 . S
C1078 C1077 1.399 . S
C1078 C1081 1.380 . S
C1078 H1088 0.929 . S
C1079 C1076 1.399 . S
C1079 C1081 1.392 . S
C1079 H1089 0.929 . S
C1080 C1076 1.383 . S
C1080 C1077 1.389 . S
C1080 H1090 0.931 . S
C1081 C1078 1.380 . S
C1081 C1079 1.392 . S
C1081 H1091 0.929 . S
C1082 O1062 1.266 . S
C1082 O1063 1.248 . S
C1083 Tb1019 2.802 . S
C1083 O1058 1.264 . S
C1083 O1061 1.256 . S
C1083 C1076 1.496 . S
H1084 C1067 0.929 . S
H1085 C1068 0.929 . S
H1086 C1069 0.929 . S
H1087 C1070 0.931 . S
H1088 C1078 0.929 . S
H1089 C1079 0.929 . S
H1090 C1080 0.931 . S
H1091 C1081 0.929 . S
Tb1092 N1121 2.617 . S
Tb1092 N1127 2.572 . S
Tb1092 O1136 2.465 . S
Tb1092 O1137 2.387 . S
Tb1092 O1139 2.428 . S
Tb1092 O1140 2.308 1_565 S
Tb1092 O1144 2.349 . S
Tb1092 O1147 2.393 . S
Tb1092 C1156 2.802 . S
C1093 N1094 1.379 1_455 S
C1093 C1096 1.416 . S
C1093 C1100 1.424 . S
N1094 C1093 1.379 1_655 S
N1094 C1097 1.334 . S
N1094 Tb1103 2.617 . S
C1095 C1097 1.390 . S
C1095 C1098 1.339 . S
C1095 H1115 0.930 . S
C1096 C1093 1.416 . S
C1096 C1098 1.416 1_455 S
C1096 C1102 1.448 . S
C1097 N1094 1.334 . S
C1097 C1095 1.390 . S
C1097 H1108 0.930 . S
C1098 C1095 1.339 . S
C1098 C1096 1.416 1_655 S
C1098 H1119 0.930 1_655 S
C1099 C1100 1.413 . S
C1099 C1101 1.427 . S
C1099 C1105 1.416 . S
C1100 C1093 1.424 . S
C1100 C1099 1.413 . S
C1100 N1104 1.361 . S
C1101 C1099 1.427 . S
C1101 C1102 1.328 . S
C1101 H1116 0.929 . S
C1102 C1096 1.448 . S
C1102 C1101 1.328 . S
C1102 H1117 0.930 . S
Tb1103 N1094 2.617 . S
Tb1103 N1104 2.572 1_655 S
Tb1103 O1138 2.349 1_545 S
Tb1103 O1141 2.393 . S
Tb1103 O1142 2.465 1_545 S
Tb1103 O1143 2.387 . S
Tb1103 O1145 2.428 . S
Tb1103 O1146 2.308 1_545 S
Tb1103 C1167 2.802 1_545 S
N1104 C1100 1.361 . S
N1104 Tb1103 2.572 1_455 S
N1104 C1106 1.340 1_545 S
C1105 C1099 1.416 . S
C1105 C1107 1.332 1_545 S
C1105 H1113 0.931 . S
C1106 N1104 1.340 1_565 S
C1106 C1107 1.407 . S
C1106 H1112 0.930 . S
C1107 C1105 1.332 1_565 S
C1107 C1106 1.407 . S
C1107 H1109 0.929 . S
H1108 C1097 0.930 . S
H1109 C1107 0.929 . S
H1110 C1125 0.930 . S
H1111 C1132 0.929 . S
H1112 C1106 0.930 . S
H1113 C1105 0.931 . S
H1114 C1128 0.943 . S
H1115 C1095 0.930 . S
H1116 C1101 0.929 . S
H1117 C1102 0.930 . S
H1118 C1123 0.930 . S
H1119 C1098 0.930 1_455 S
H1120 C1131 0.931 . S
N1121 Tb1092 2.617 . S
N1121 C1122 1.379 . S
N1121 C1125 1.334 . S
C1122 N1121 1.379 . S
C1122 C1124 1.416 . S
C1122 C1130 1.424 . S
C1123 H1118 0.930 . S
C1123 C1125 1.390 . S
C1123 C1126 1.339 . S
C1124 C1122 1.416 . S
C1124 C1126 1.416 . S
C1124 C1157 1.448 . S
C1125 H1110 0.930 . S
C1125 N1121 1.334 . S
C1125 C1123 1.390 . S
C1126 C1123 1.339 . S
C1126 C1124 1.416 . S
C1126 H1133 0.930 . S
N1127 Tb1092 2.572 . S
N1127 C1128 1.340 . S
N1127 C1130 1.361 . S
C1128 H1114 0.943 . S
C1128 N1127 1.340 . S
C1128 C1132 1.407 . S
C1129 C1130 1.413 . S
C1129 C1131 1.416 . S
C1129 C1158 1.427 . S
C1130 C1122 1.424 . S
C1130 N1127 1.361 . S
C1130 C1129 1.413 . S
C1131 H1120 0.931 . S
C1131 C1129 1.416 . S
C1131 C1132 1.332 . S
C1132 H1111 0.929 . S
C1132 C1128 1.407 . S
C1132 C1131 1.332 . S
H1133 C1126 0.930 . S
H1134 C1157 0.930 . S
H1135 C1158 0.929 . S
O1136 Tb1092 2.465 . S
O1136 C1156 1.264 . S
O1137 Tb1092 2.387 . S
O1137 C1148 1.264 . S
O1138 Tb1103 2.349 1_565 S
O1138 C1148 1.243 . S
O1139 Tb1092 2.428 . S
O1139 C1156 1.256 . S
O1140 Tb1092 2.308 1_545 S
O1140 C1155 1.266 . S
O1141 Tb1103 2.393 . S
O1141 C1155 1.248 . S
O1142 Tb1103 2.465 1_565 S
O1142 C1167 1.264 . S
O1143 Tb1103 2.387 . S
O1143 C1159 1.253 1_545 S
O1144 Tb1092 2.349 . S
O1144 C1159 1.258 . S
O1145 Tb1103 2.428 . S
O1145 C1167 1.256 1_545 S
O1146 Tb1103 2.308 1_565 S
O1146 C1166 1.266 . S
O1147 Tb1092 2.393 . S
O1147 C1166 1.248 . S
C1148 O1137 1.264 . S
C1148 O1138 1.243 . S
C1149 C1152 1.399 . S
C1149 C1154 1.383 . S
C1149 C1156 1.496 . S
C1150 C1151 1.399 . S
C1150 C1154 1.389 . S
C1151 C1150 1.399 . S
C1151 C1153 1.380 . S
C1151 H1168 0.929 . S
C1152 C1149 1.399 . S
C1152 C1153 1.392 . S
C1152 H1169 0.929 . S
C1153 C1151 1.380 . S
C1153 C1152 1.392 . S
C1153 H1170 0.929 . S
C1154 C1149 1.383 . S
C1154 C1150 1.389 . S
C1154 H1171 0.931 1_565 S
C1155 O1140 1.266 . S
C1155 O1141 1.248 . S
C1156 Tb1092 2.802 . S
C1156 O1136 1.264 . S
C1156 O1139 1.256 . S
C1156 C1149 1.496 . S
C1157 C1124 1.448 . S
C1157 H1134 0.930 . S
C1157 C1158 1.328 . S
C1158 C1129 1.427 . S
C1158 H1135 0.929 . S
C1158 C1157 1.328 . S
C1159 O1143 1.253 1_565 S
C1159 O1144 1.258 . S
C1160 C1163 1.399 1_565 S
C1160 C1164 1.383 . S
C1160 C1167 1.496 . S
C1161 C1162 1.399 1_554 S
C1161 C1164 1.389 . S
C1162 C1161 1.399 1_556 S
C1162 C1165 1.380 1_566 S
C1162 H1172 0.929 . S
C1163 C1160 1.399 1_545 S
C1163 C1165 1.392 . S
C1163 H1173 0.929 . S
C1164 C1160 1.383 . S
C1164 C1161 1.389 . S
C1164 H1174 0.931 . S
C1165 C1162 1.380 1_544 S
C1165 C1163 1.392 . S
C1165 H1175 0.929 1_554 S
C1166 O1146 1.266 . S
C1166 O1147 1.248 . S
C1167 Tb1103 2.802 1_565 S
C1167 O1142 1.264 . S
C1167 O1145 1.256 1_565 S
C1167 C1160 1.496 . S
H1168 C1151 0.929 . S
H1169 C1152 0.929 . S
H1170 C1153 0.929 . S
H1171 C1154 0.931 1_545 S
H1172 C1162 0.929 . S
H1173 C1163 0.929 . S
H1174 C1164 0.931 . S
H1175 C1165 0.929 1_556 S
Tb1176 N1205 2.617 . S
Tb1176 N1211 2.572 . S
Tb1176 O1220 2.465 . S
Tb1176 O1221 2.387 . S
Tb1176 O1223 2.428 . S
Tb1176 O1224 2.308 . S
Tb1176 O1228 2.349 . S
Tb1176 O1231 2.393 . S
Tb1176 C1240 2.802 . S
C1177 N1178 1.379 . S
C1177 C1180 1.416 . S
C1177 C1184 1.424 . S
N1178 C1177 1.379 . S
N1178 C1181 1.334 . S
N1178 Tb1187 2.617 . S
C1179 C1181 1.390 . S
C1179 C1182 1.339 . S
C1179 H1199 0.930 . S
C1180 C1177 1.416 . S
C1180 C1182 1.416 . S
C1180 C1186 1.448 . S
C1181 N1178 1.334 . S
C1181 C1179 1.390 . S
C1181 H1192 0.930 . S
C1182 C1179 1.339 . S
C1182 C1180 1.416 . S
C1182 H1203 0.930 . S
C1183 C1184 1.413 . S
C1183 C1185 1.427 . S
C1183 C1189 1.416 . S
C1184 C1177 1.424 . S
C1184 C1183 1.413 . S
C1184 N1188 1.361 . S
C1185 C1183 1.427 . S
C1185 C1186 1.328 . S
C1185 H1200 0.929 . S
C1186 C1180 1.448 . S
C1186 C1185 1.328 . S
C1186 H1201 0.930 . S
Tb1187 N1178 2.617 . S
Tb1187 N1188 2.572 . S
Tb1187 O1222 2.349 . S
Tb1187 O1225 2.393 . S
Tb1187 O1226 2.465 . S
Tb1187 O1227 2.387 . S
Tb1187 O1229 2.428 . S
Tb1187 O1230 2.308 . S
Tb1187 C1251 2.802 . S
N1188 C1184 1.361 . S
N1188 Tb1187 2.572 . S
N1188 C1190 1.340 . S
C1189 C1183 1.416 . S
C1189 C1191 1.332 . S
C1189 H1197 0.931 . S
C1190 N1188 1.340 . S
C1190 C1191 1.407 . S
C1190 H1196 0.930 . S
C1191 C1189 1.332 . S
C1191 C1190 1.407 . S
C1191 H1193 0.929 . S
H1192 C1181 0.930 . S
H1193 C1191 0.929 . S
H1194 C1209 0.930 . S
H1195 C1216 0.929 . S
H1196 C1190 0.930 . S
H1197 C1189 0.931 . S
H1198 C1212 0.930 . S
H1199 C1179 0.930 . S
H1200 C1185 0.929 . S
H1201 C1186 0.930 . S
H1202 C1207 0.930 . S
H1203 C1182 0.930 . S
H1204 C1215 0.931 . S
N1205 Tb1176 2.617 . S
N1205 C1206 1.379 . S
N1205 C1209 1.334 . S
C1206 N1205 1.379 . S
C1206 C1208 1.416 . S
C1206 C1214 1.424 . S
C1207 H1202 0.930 . S
C1207 C1209 1.390 . S
C1207 C1210 1.339 . S
C1208 C1206 1.416 . S
C1208 C1210 1.416 . S
C1208 C1241 1.448 . S
C1209 H1194 0.930 . S
C1209 N1205 1.334 . S
C1209 C1207 1.390 . S
C1210 C1207 1.339 . S
C1210 C1208 1.416 . S
C1210 H1217 0.930 . S
N1211 Tb1176 2.572 . S
N1211 C1212 1.340 . S
N1211 C1214 1.361 . S
C1212 H1198 0.930 . S
C1212 N1211 1.340 . S
C1212 C1216 1.407 . S
C1213 C1214 1.413 . S
C1213 C1215 1.416 . S
C1213 C1242 1.427 . S
C1214 C1206 1.424 . S
C1214 N1211 1.361 . S
C1214 C1213 1.413 . S
C1215 H1204 0.931 . S
C1215 C1213 1.416 . S
C1215 C1216 1.332 . S
C1216 H1195 0.929 . S
C1216 C1212 1.407 . S
C1216 C1215 1.332 . S
H1217 C1210 0.930 . S
H1218 C1241 0.930 . S
H1219 C1242 0.929 . S
O1220 Tb1176 2.465 . S
O1220 C1240 1.264 . S
O1221 Tb1176 2.387 . S
O1221 C1232 1.264 . S
O1222 Tb1187 2.349 . S
O1222 C1232 1.243 . S
O1223 Tb1176 2.428 . S
O1223 C1240 1.256 . S
O1224 Tb1176 2.308 . S
O1224 C1239 1.266 . S
O1225 Tb1187 2.393 . S
O1225 C1239 1.248 . S
O1226 Tb1187 2.465 . S
O1226 C1251 1.264 . S
O1227 Tb1187 2.387 . S
O1227 C1243 1.264 . S
O1228 Tb1176 2.349 . S
O1228 C1243 1.243 . S
O1229 Tb1187 2.428 . S
O1229 C1251 1.256 . S
O1230 Tb1187 2.308 . S
O1230 C1250 1.266 . S
O1231 Tb1176 2.393 . S
O1231 C1250 1.248 . S
C1232 O1221 1.264 . S
C1232 O1222 1.243 . S
C1233 C1236 1.399 . S
C1233 C1238 1.383 . S
C1233 C1240 1.496 . S
C1234 C1235 1.399 . S
C1234 C1238 1.389 . S
C1235 C1234 1.399 . S
C1235 C1237 1.380 . S
C1235 H1252 0.929 . S
C1236 C1233 1.399 . S
C1236 C1237 1.392 . S
C1236 H1253 0.929 . S
C1237 C1235 1.380 . S
C1237 C1236 1.392 . S
C1237 H1254 0.929 . S
C1238 C1233 1.383 . S
C1238 C1234 1.389 . S
C1238 H1255 0.931 . S
C1239 O1224 1.266 . S
C1239 O1225 1.248 . S
C1240 Tb1176 2.802 . S
C1240 O1220 1.264 . S
C1240 O1223 1.256 . S
C1240 C1233 1.496 . S
C1241 C1208 1.448 . S
C1241 H1218 0.930 . S
C1241 C1242 1.328 . S
C1242 C1213 1.427 . S
C1242 H1219 0.929 . S
C1242 C1241 1.328 . S
C1243 O1227 1.264 . S
C1243 O1228 1.243 . S
C1244 C1247 1.399 . S
C1244 C1248 1.383 . S
C1244 C1251 1.496 . S
C1245 C1246 1.399 . S
C1245 C1248 1.389 . S
C1246 C1245 1.399 . S
C1246 C1249 1.380 . S
C1246 H1256 0.929 . S
C1247 C1244 1.399 . S
C1247 C1249 1.392 . S
C1247 H1257 0.929 . S
C1248 C1244 1.383 . S
C1248 C1245 1.389 . S
C1248 H1258 0.931 . S
C1249 C1246 1.380 . S
C1249 C1247 1.392 . S
C1249 H1259 0.929 . S
C1250 O1230 1.266 . S
C1250 O1231 1.248 . S
C1251 Tb1187 2.802 . S
C1251 O1226 1.264 . S
C1251 O1229 1.256 . S
C1251 C1244 1.496 . S
H1252 C1235 0.929 . S
H1253 C1236 0.929 . S
H1254 C1237 0.929 . S
H1255 C1238 0.931 . S
H1256 C1246 0.929 . S
H1257 C1247 0.929 . S
H1258 C1248 0.931 . S
H1259 C1249 0.929 . S
Tb1260 N1289 2.617 . S
Tb1260 N1295 2.572 . S
Tb1260 O1304 2.465 1_565 S
Tb1260 O1305 2.387 . S
Tb1260 O1307 2.428 1_565 S
Tb1260 O1308 2.308 1_565 S
Tb1260 O1312 2.349 1_565 S
Tb1260 O1315 2.393 . S
Tb1260 C1324 2.802 1_565 S
C1261 N1262 1.379 . S
C1261 C1264 1.416 . S
C1261 C1268 1.424 . S
N1262 C1261 1.379 . S
N1262 C1265 1.334 . S
N1262 Tb1271 2.617 . S
C1263 C1265 1.390 . S
C1263 C1266 1.339 . S
C1263 H1283 0.930 . S
C1264 C1261 1.416 . S
C1264 C1266 1.416 . S
C1264 C1270 1.448 . S
C1265 N1262 1.334 . S
C1265 C1263 1.390 . S
C1265 H1276 0.930 . S
C1266 C1263 1.339 . S
C1266 C1264 1.416 . S
C1266 H1287 0.930 . S
C1267 C1268 1.413 . S
C1267 C1269 1.427 . S
C1267 C1273 1.416 . S
C1268 C1261 1.424 . S
C1268 C1267 1.413 . S
C1268 N1272 1.361 . S
C1269 C1267 1.427 . S
C1269 C1270 1.328 . S
C1269 H1284 0.929 . S
C1270 C1264 1.448 . S
C1270 C1269 1.328 . S
C1270 H1285 0.930 . S
Tb1271 N1262 2.617 . S
Tb1271 N1272 2.572 . S
Tb1271 O1306 2.349 1_545 S
Tb1271 O1309 2.393 . S
Tb1271 O1310 2.465 . S
Tb1271 O1311 2.387 . S
Tb1271 O1313 2.428 . S
Tb1271 O1314 2.308 . S
Tb1271 C1335 2.802 . S
N1272 C1268 1.361 . S
N1272 Tb1271 2.572 . S
N1272 C1274 1.340 . S
C1273 C1267 1.416 . S
C1273 C1275 1.332 . S
C1273 H1281 0.931 . S
C1274 N1272 1.340 . S
C1274 C1275 1.407 . S
C1274 H1280 0.930 . S
C1275 C1273 1.332 . S
C1275 C1274 1.407 . S
C1275 H1277 0.929 . S
H1276 C1265 0.930 . S
H1277 C1275 0.929 . S
H1278 C1293 0.930 . S
H1279 C1300 0.929 . S
H1280 C1274 0.930 . S
H1281 C1273 0.931 . S
H1282 C1296 0.930 . S
H1283 C1263 0.930 . S
H1284 C1269 0.929 . S
H1285 C1270 0.930 . S
H1286 C1291 0.930 . S
H1287 C1266 0.930 . S
H1288 C1299 0.931 . S
N1289 Tb1260 2.617 . S
N1289 C1290 1.379 . S
N1289 C1293 1.334 . S
C1290 N1289 1.379 . S
C1290 C1292 1.416 . S
C1290 C1298 1.424 . S
C1291 H1286 0.930 . S
C1291 C1293 1.390 . S
C1291 C1294 1.339 . S
C1292 C1290 1.416 . S
C1292 C1294 1.416 . S
C1292 C1325 1.448 . S
C1293 H1278 0.930 . S
C1293 N1289 1.334 . S
C1293 C1291 1.390 . S
C1294 C1291 1.339 . S
C1294 C1292 1.416 . S
C1294 H1301 0.930 . S
N1295 Tb1260 2.572 . S
N1295 C1296 1.340 . S
N1295 C1298 1.361 . S
C1296 H1282 0.930 . S
C1296 N1295 1.340 . S
C1296 C1300 1.407 . S
C1297 C1298 1.413 . S
C1297 C1299 1.416 . S
C1297 C1326 1.427 . S
C1298 C1290 1.424 . S
C1298 N1295 1.361 . S
C1298 C1297 1.413 . S
C1299 H1288 0.931 . S
C1299 C1297 1.416 . S
C1299 C1300 1.332 . S
C1300 H1279 0.929 . S
C1300 C1296 1.407 . S
C1300 C1299 1.332 . S
H1301 C1294 0.930 . S
H1302 C1325 0.930 . S
H1303 C1326 0.929 . S
O1304 Tb1260 2.465 1_545 S
O1304 C1324 1.264 . S
O1305 Tb1260 2.387 . S
O1305 C1316 1.264 . S
O1306 Tb1271 2.349 1_565 S
O1306 C1316 1.243 . S
O1307 Tb1260 2.428 1_545 S
O1307 C1324 1.256 . S
O1308 Tb1260 2.308 1_545 S
O1308 C1323 1.266 . S
O1309 Tb1271 2.393 . S
O1309 C1323 1.248 . S
O1310 Tb1271 2.465 . S
O1310 C1335 1.264 . S
O1311 Tb1271 2.387 . S
O1311 C1327 1.264 . S
O1312 Tb1260 2.349 1_545 S
O1312 C1327 1.243 . S
O1313 Tb1271 2.428 . S
O1313 C1335 1.256 . S
O1314 Tb1271 2.308 . S
O1314 C1334 1.266 . S
O1315 Tb1260 2.393 . S
O1315 C1334 1.248 1_565 S
C1316 O1305 1.264 . S
C1316 O1306 1.243 . S
C1317 C1320 1.399 . S
C1317 C1322 1.383 . S
C1317 C1324 1.496 . S
C1318 C1319 1.399 . S
C1318 C1322 1.389 . S
C1319 C1318 1.399 . S
C1319 C1321 1.380 . S
C1319 H1336 0.929 . S
C1320 C1317 1.399 . S
C1320 C1321 1.392 . S
C1320 H1337 0.929 . S
C1321 C1319 1.380 . S
C1321 C1320 1.392 . S
C1321 H1338 0.929 . S
C1322 C1317 1.383 . S
C1322 C1318 1.389 . S
C1322 H1339 0.931 . S
C1323 O1308 1.266 . S
C1323 O1309 1.248 . S
C1324 Tb1260 2.802 1_545 S
C1324 O1304 1.264 . S
C1324 O1307 1.256 . S
C1324 C1317 1.496 . S
C1325 C1292 1.448 . S
C1325 H1302 0.930 . S
C1325 C1326 1.328 . S
C1326 C1297 1.427 . S
C1326 H1303 0.929 . S
C1326 C1325 1.328 . S
C1327 O1311 1.264 . S
C1327 O1312 1.243 . S
C1328 C1331 1.399 . S
C1328 C1332 1.383 . S
C1328 C1335 1.496 . S
C1329 C1330 1.399 1_565 S
C1329 C1332 1.389 1_565 S
C1330 C1329 1.399 1_545 S
C1330 C1333 1.380 . S
C1330 H1340 0.930 . S
C1331 C1328 1.399 . S
C1331 C1333 1.392 . S
C1331 H1341 0.929 . S
C1332 C1328 1.383 . S
C1332 C1329 1.389 1_545 S
C1332 H1342 0.931 1_545 S
C1333 C1330 1.380 . S
C1333 C1331 1.392 . S
C1333 H1343 0.929 . S
C1334 O1314 1.266 . S
C1334 O1315 1.248 1_545 S
C1335 Tb1271 2.802 . S
C1335 O1310 1.264 . S
C1335 O1313 1.256 . S
C1335 C1328 1.496 . S
H1336 C1319 0.929 . S
H1337 C1320 0.929 . S
H1338 C1321 0.929 . S
H1339 C1322 0.931 . S
H1340 C1330 0.930 . S
H1341 C1331 0.929 . S
H1342 C1332 0.931 1_565 S
H1343 C1333 0.929 . S
H1344 C1350 0.930 . S
H1345 C1353 0.930 . S
H1346 C1354 0.930 . S
H1347 C1355 0.930 . S
H1348 C1358 0.930 . S
H1349 C1359 0.930 . S
C1350 H1344 0.930 . S
C1350 C1351 1.355 . S
C1350 C1352 1.415 . S
C1351 C1350 1.355 . S
C1351 C1353 1.419 . S
C1352 C1350 1.415 . S
C1352 C1357 1.425 . S
C1352 C1359 1.409 . S
C1353 H1345 0.930 . S
C1353 C1351 1.419 . S
C1353 C1354 1.362 . S
C1354 H1346 0.930 . S
C1354 C1353 1.362 . S
C1354 C1357 1.409 . S
C1355 H1347 0.930 . S
C1355 C1356 1.355 . S
C1355 C1357 1.415 . S
C1356 C1355 1.355 . S
C1356 C1358 1.419 . S
C1357 C1352 1.425 . S
C1357 C1354 1.409 . S
C1357 C1355 1.415 . S
C1358 H1348 0.930 . S
C1358 C1356 1.419 . S
C1358 C1359 1.362 . S
C1359 H1349 0.930 . S
C1359 C1352 1.409 . S
C1359 C1358 1.362 . S
H1360 C1366 0.930 . S
H1361 C1369 0.930 . S
H1362 C1370 0.930 . S
H1363 C1371 0.930 . S
H1364 C1374 0.930 . S
H1365 C1375 0.930 . S
C1366 H1360 0.930 . S
C1366 C1367 1.355 . S
C1366 C1368 1.415 . S
C1367 C1366 1.355 . S
C1367 C1369 1.419 . S
C1368 C1366 1.415 . S
C1368 C1373 1.425 . S
C1368 C1375 1.409 . S
C1369 H1361 0.930 . S
C1369 C1367 1.419 . S
C1369 C1370 1.362 . S
C1370 H1362 0.930 . S
C1370 C1369 1.362 . S
C1370 C1373 1.409 . S
C1371 H1363 0.930 . S
C1371 C1372 1.355 . S
C1371 C1373 1.415 . S
C1372 C1371 1.355 . S
C1372 C1374 1.419 . S
C1373 C1368 1.425 . S
C1373 C1370 1.409 . S
C1373 C1371 1.415 . S
C1374 H1364 0.930 . S
C1374 C1372 1.419 . S
C1374 C1375 1.362 . S
C1375 H1365 0.930 . S
C1375 C1368 1.409 . S
C1375 C1374 1.362 . S
H1376 C1382 0.930 . S
H1377 C1385 0.930 . S
H1378 C1386 0.930 . S
H1379 C1387 0.930 . S
H1380 C1390 0.930 . S
H1381 C1391 0.930 . S
C1382 H1376 0.930 . S
C1382 C1383 1.355 . S
C1382 C1384 1.415 . S
C1383 C1382 1.355 . S
C1383 C1385 1.419 . S
C1384 C1382 1.415 . S
C1384 C1389 1.425 . S
C1384 C1391 1.409 . S
C1385 H1377 0.930 . S
C1385 C1383 1.419 . S
C1385 C1386 1.362 . S
C1386 H1378 0.930 . S
C1386 C1385 1.362 . S
C1386 C1389 1.409 . S
C1387 H1379 0.930 . S
C1387 C1388 1.355 . S
C1387 C1389 1.415 . S
C1388 C1387 1.355 . S
C1388 C1390 1.419 . S
C1389 C1384 1.425 . S
C1389 C1386 1.409 . S
C1389 C1387 1.415 . S
C1390 H1380 0.930 . S
C1390 C1388 1.419 . S
C1390 C1391 1.362 . S
C1391 H1381 0.930 . S
C1391 C1384 1.409 . S
C1391 C1390 1.362 . S
H1392 C1398 0.930 . S
H1393 C1401 0.930 . S
H1394 C1402 0.930 . S
H1395 C1403 0.930 . S
H1396 C1406 0.930 . S
H1397 C1407 0.930 . S
C1398 H1392 0.930 . S
C1398 C1399 1.355 1_454 S
C1398 C1400 1.415 . S
C1399 C1398 1.355 1_656 S
C1399 C1401 1.419 . S
C1400 C1398 1.415 . S
C1400 C1405 1.425 1_454 S
C1400 C1407 1.409 . S
C1401 H1393 0.930 . S
C1401 C1399 1.419 . S
C1401 C1402 1.362 . S
C1402 H1394 0.930 . S
C1402 C1401 1.362 . S
C1402 C1405 1.409 . S
C1403 H1395 0.930 . S
C1403 C1404 1.355 1_656 S
C1403 C1405 1.415 . S
C1404 C1403 1.355 1_454 S
C1404 C1406 1.419 . S
C1405 C1400 1.425 1_656 S
C1405 C1402 1.409 . S
C1405 C1403 1.415 . S
C1406 H1396 0.930 . S
C1406 C1404 1.419 . S
C1406 C1407 1.362 . S
C1407 H1397 0.930 . S
C1407 C1400 1.409 . S
C1407 C1406 1.362 . S
H1408 C1414 0.930 . S
H1409 C1417 0.930 . S
H1410 C1418 0.930 . S
H1411 C1419 0.930 . S
H1412 C1422 0.930 . S
H1413 C1423 0.930 . S
C1414 H1408 0.930 . S
C1414 C1415 1.355 . S
C1414 C1416 1.415 . S
C1415 C1414 1.355 . S
C1415 C1417 1.419 . S
C1416 C1414 1.415 . S
C1416 C1421 1.425 . S
C1416 C1423 1.409 . S
C1417 H1409 0.930 . S
C1417 C1415 1.419 . S
C1417 C1418 1.362 . S
C1418 H1410 0.930 . S
C1418 C1417 1.362 . S
C1418 C1421 1.409 . S
C1419 H1411 0.930 . S
C1419 C1420 1.355 . S
C1419 C1421 1.415 . S
C1420 C1419 1.355 . S
C1420 C1422 1.419 . S
C1421 C1416 1.425 . S
C1421 C1418 1.409 . S
C1421 C1419 1.415 . S
C1422 H1412 0.930 . S
C1422 C1420 1.419 . S
C1422 C1423 1.362 . S
C1423 H1413 0.930 . S
C1423 C1416 1.409 . S
C1423 C1422 1.362 . S
H1424 C1430 0.930 . S
H1425 C1433 0.930 . S
H1426 C1434 0.930 . S
H1427 C1435 0.930 . S
H1428 C1438 0.930 . S
H1429 C1439 0.930 . S
C1430 H1424 0.930 . S
C1430 C1431 1.355 . S
C1430 C1432 1.415 . S
C1431 C1430 1.355 . S
C1431 C1433 1.419 . S
C1432 C1430 1.415 . S
C1432 C1437 1.425 . S
C1432 C1439 1.409 . S
C1433 H1425 0.930 . S
C1433 C1431 1.419 . S
C1433 C1434 1.362 . S
C1434 H1426 0.930 . S
C1434 C1433 1.362 . S
C1434 C1437 1.409 . S
C1435 H1427 0.930 . S
C1435 C1436 1.355 . S
C1435 C1437 1.415 . S
C1436 C1435 1.355 . S
C1436 C1438 1.419 . S
C1437 C1432 1.425 . S
C1437 C1434 1.409 . S
C1437 C1435 1.415 . S
C1438 H1428 0.930 . S
C1438 C1436 1.419 . S
C1438 C1439 1.362 . S
C1439 H1429 0.930 . S
C1439 C1432 1.409 . S
C1439 C1438 1.362 . S
H1440 C1446 0.930 . S
H1441 C1449 0.927 1_556 S
H1442 C1450 0.930 1_545 S
H1443 C1451 0.930 . S
H1444 C1454 0.927 1_554 S
H1445 C1455 0.930 1_565 S
C1446 H1440 0.930 . S
C1446 C1447 1.355 1_455 S
C1446 C1448 1.415 . S
C1447 C1446 1.355 1_655 S
C1447 C1449 1.421 . S
C1448 C1446 1.415 . S
C1448 C1453 1.425 1_464 S
C1448 C1455 1.409 1_565 S
C1449 H1441 0.927 1_554 S
C1449 C1447 1.421 . S
C1449 C1450 1.361 1_554 S
C1450 H1442 0.930 1_565 S
C1450 C1449 1.361 1_556 S
C1450 C1453 1.409 1_565 S
C1451 H1443 0.930 . S
C1451 C1452 1.355 1_655 S
C1451 C1453 1.415 . S
C1452 C1451 1.355 1_455 S
C1452 C1454 1.421 . S
C1453 C1448 1.425 1_646 S
C1453 C1450 1.409 1_545 S
C1453 C1451 1.415 . S
C1454 H1444 0.927 1_556 S
C1454 C1452 1.421 . S
C1454 C1455 1.361 1_556 S
C1455 H1445 0.930 1_545 S
C1455 C1448 1.409 1_545 S
C1455 C1454 1.361 1_554 S
H1456 C1462 0.930 . S
H1457 C1465 0.930 . S
H1458 C1466 0.930 1_545 S
H1459 C1467 0.930 . S
H1460 C1470 0.930 . S
H1461 C1471 0.930 1_565 S
C1462 H1456 0.930 . S
C1462 C1463 1.355 . S
C1462 C1464 1.415 . S
C1463 C1462 1.355 . S
C1463 C1465 1.419 . S
C1464 C1462 1.415 . S
C1464 C1469 1.425 1_565 S
C1464 C1471 1.409 1_565 S
C1465 H1457 0.930 . S
C1465 C1463 1.419 . S
C1465 C1466 1.362 . S
C1466 H1458 0.930 1_565 S
C1466 C1465 1.362 . S
C1466 C1469 1.409 1_565 S
C1467 H1459 0.930 . S
C1467 C1468 1.355 . S
C1467 C1469 1.415 . S
C1468 C1467 1.355 . S
C1468 C1470 1.419 . S
C1469 C1464 1.425 1_545 S
C1469 C1466 1.409 1_545 S
C1469 C1467 1.415 . S
C1470 H1460 0.930 . S
C1470 C1468 1.419 . S
C1470 C1471 1.362 . S
C1471 H1461 0.930 1_545 S
C1471 C1464 1.409 1_545 S
C1471 C1470 1.362 . S
H1472 C1478 0.930 . S
H1473 C1481 0.930 . S
H1474 C1482 0.930 . S
H1475 C1483 0.930 . S
H1476 C1486 0.930 . S
H1477 C1487 0.930 . S
C1478 H1472 0.930 . S
C1478 C1479 1.355 . S
C1478 C1480 1.415 . S
C1479 C1478 1.355 . S
C1479 C1481 1.419 . S
C1480 C1478 1.415 . S
C1480 C1485 1.425 . S
C1480 C1487 1.409 . S
C1481 H1473 0.930 . S
C1481 C1479 1.419 . S
C1481 C1482 1.362 . S
C1482 H1474 0.930 . S
C1482 C1481 1.362 . S
C1482 C1485 1.409 . S
C1483 H1475 0.930 . S
C1483 C1484 1.355 1_556 S
C1483 C1485 1.415 . S
C1484 C1483 1.355 1_554 S
C1484 C1486 1.419 . S
C1485 C1480 1.425 . S
C1485 C1482 1.409 . S
C1485 C1483 1.415 . S
C1486 H1476 0.930 . S
C1486 C1484 1.419 . S
C1486 C1487 1.362 1_554 S
C1487 H1477 0.930 . S
C1487 C1480 1.409 . S
C1487 C1486 1.362 1_556 S
H1488 C1494 0.930 . S
H1489 C1497 0.930 . S
H1490 C1498 0.930 . S
H1491 C1499 0.930 . S
H1492 C1502 0.930 . S
H1493 C1503 0.930 . S
C1494 H1488 0.930 . S
C1494 C1495 1.355 . S
C1494 C1496 1.415 . S
C1495 C1494 1.355 . S
C1495 C1497 1.419 . S
C1496 C1494 1.415 . S
C1496 C1501 1.425 . S
C1496 C1503 1.409 . S
C1497 H1489 0.930 . S
C1497 C1495 1.419 . S
C1497 C1498 1.362 . S
C1498 H1490 0.930 . S
C1498 C1497 1.362 . S
C1498 C1501 1.409 . S
C1499 H1491 0.930 . S
C1499 C1500 1.355 . S
C1499 C1501 1.415 . S
C1500 C1499 1.355 . S
C1500 C1502 1.419 . S
C1501 C1496 1.425 . S
C1501 C1498 1.409 . S
C1501 C1499 1.415 . S
C1502 H1492 0.930 . S
C1502 C1500 1.419 . S
C1502 C1503 1.362 . S
C1503 H1493 0.930 . S
C1503 C1496 1.409 . S
C1503 C1502 1.362 . S
H1504 C1510 0.930 . S
H1505 C1513 0.921 1_545 S
H1506 C1514 0.930 . S
H1507 C1515 0.930 1_545 S
H1508 C1518 0.930 . S
H1509 C1519 0.930 . S
C1510 H1504 0.930 . S
C1510 C1511 1.355 . S
C1510 C1512 1.415 . S
C1511 C1510 1.355 . S
C1511 C1513 1.430 . S
C1512 C1510 1.415 . S
C1512 C1517 1.425 . S
C1512 C1519 1.409 . S
C1513 H1505 0.921 1_565 S
C1513 C1511 1.430 . S
C1513 C1514 1.361 1_565 S
C1514 H1506 0.930 . S
C1514 C1513 1.361 1_545 S
C1514 C1517 1.409 1_545 S
C1515 H1507 0.930 1_565 S
C1515 C1516 1.355 . S
C1515 C1517 1.415 . S
C1516 C1515 1.355 . S
C1516 C1518 1.419 . S
C1517 C1512 1.425 . S
C1517 C1514 1.409 1_565 S
C1517 C1515 1.415 . S
C1518 H1508 0.930 . S
C1518 C1516 1.419 . S
C1518 C1519 1.362 . S
C1519 H1509 0.930 . S
C1519 C1512 1.409 . S
C1519 C1518 1.362 . S
H1520 C1526 0.930 . S
H1521 C1529 0.930 . S
H1522 C1530 0.930 . S
H1523 C1531 0.930 . S
H1524 C1534 0.930 . S
H1525 C1535 0.930 . S
C1526 H1520 0.930 . S
C1526 C1527 1.355 . S
C1526 C1528 1.415 . S
C1527 C1526 1.355 . S
C1527 C1529 1.419 . S
C1528 C1526 1.415 . S
C1528 C1533 1.425 . S
C1528 C1535 1.409 . S
C1529 H1521 0.930 . S
C1529 C1527 1.419 . S
C1529 C1530 1.362 . S
C1530 H1522 0.930 . S
C1530 C1529 1.362 . S
C1530 C1533 1.409 . S
C1531 H1523 0.930 . S
C1531 C1532 1.355 . S
C1531 C1533 1.415 . S
C1532 C1531 1.355 . S
C1532 C1534 1.419 . S
C1533 C1528 1.425 . S
C1533 C1530 1.409 . S
C1533 C1531 1.415 . S
C1534 H1524 0.930 . S
C1534 C1532 1.419 . S
C1534 C1535 1.362 . S
C1535 H1525 0.930 . S
C1535 C1528 1.409 . S
C1535 C1534 1.362 . S
H1536 C1542 0.930 . S
H1537 C1545 0.930 1_545 S
H1538 C1546 0.931 1_545 S
H1539 C1547 0.930 1_545 S
H1540 C1550 0.930 . S
H1541 C1551 0.930 . S
C1542 H1536 0.930 . S
C1542 C1543 1.355 . S
C1542 C1544 1.415 . S
C1543 C1542 1.355 . S
C1543 C1545 1.419 . S
C1544 C1542 1.415 . S
C1544 C1549 1.425 . S
C1544 C1551 1.409 . S
C1545 H1537 0.930 1_565 S
C1545 C1543 1.419 . S
C1545 C1546 1.362 . S
C1546 H1538 0.931 1_565 S
C1546 C1545 1.362 . S
C1546 C1549 1.409 . S
C1547 H1539 0.930 1_565 S
C1547 C1548 1.355 1_554 S
C1547 C1549 1.415 . S
C1548 C1547 1.355 1_556 S
C1548 C1550 1.419 . S
C1549 C1544 1.425 . S
C1549 C1546 1.409 . S
C1549 C1547 1.415 . S
C1550 H1540 0.930 . S
C1550 C1548 1.419 . S
C1550 C1551 1.362 1_556 S
C1551 H1541 0.930 . S
C1551 C1544 1.409 . S
C1551 C1550 1.362 1_554 S
H1552 C1558 0.930 . S
H1553 C1561 0.930 . S
H1554 C1562 0.930 . S
H1555 C1563 0.930 . S
H1556 C1566 0.930 . S
H1557 C1567 0.930 . S
C1558 H1552 0.930 . S
C1558 C1559 1.355 . S
C1558 C1560 1.415 . S
C1559 C1558 1.355 . S
C1559 C1561 1.419 . S
C1560 C1558 1.415 . S
C1560 C1565 1.425 . S
C1560 C1567 1.409 . S
C1561 H1553 0.930 . S
C1561 C1559 1.419 . S
C1561 C1562 1.362 . S
C1562 H1554 0.930 . S
C1562 C1561 1.362 . S
C1562 C1565 1.409 . S
C1563 H1555 0.930 . S
C1563 C1564 1.355 . S
C1563 C1565 1.415 . S
C1564 C1563 1.355 . S
C1564 C1566 1.419 . S
C1565 C1560 1.425 . S
C1565 C1562 1.409 . S
C1565 C1563 1.415 . S
C1566 H1556 0.930 . S
C1566 C1564 1.419 . S
C1566 C1567 1.362 . S
C1567 H1557 0.930 . S
C1567 C1560 1.409 . S
C1567 C1566 1.362 . S
H1568 C1574 0.930 . S
H1569 C1577 0.930 . S
H1570 C1578 0.930 . S
H1571 C1579 0.930 . S
H1572 C1582 0.930 . S
H1573 C1583 0.930 . S
C1574 H1568 0.930 . S
C1574 C1575 1.355 . S
C1574 C1576 1.415 . S
C1575 C1574 1.355 . S
C1575 C1577 1.419 . S
C1576 C1574 1.415 . S
C1576 C1581 1.425 . S
C1576 C1583 1.409 . S
C1577 H1569 0.930 . S
C1577 C1575 1.419 . S
C1577 C1578 1.362 . S
C1578 H1570 0.930 . S
C1578 C1577 1.362 . S
C1578 C1581 1.409 . S
C1579 H1571 0.930 . S
C1579 C1580 1.355 . S
C1579 C1581 1.415 . S
C1580 C1579 1.355 . S
C1580 C1582 1.419 . S
C1581 C1576 1.425 . S
C1581 C1578 1.409 . S
C1581 C1579 1.415 . S
C1582 H1572 0.930 . S
C1582 C1580 1.419 . S
C1582 C1583 1.362 . S
C1583 H1573 0.930 . S
C1583 C1576 1.409 . S
C1583 C1582 1.362 . S
H1584 C1590 0.930 . S
H1585 C1593 0.930 . S
H1586 C1594 0.930 . S
H1587 C1595 0.930 . S
H1588 C1598 0.930 . S
H1589 C1599 0.930 . S
C1590 H1584 0.930 . S
C1590 C1591 1.355 . S
C1590 C1592 1.415 . S
C1591 C1590 1.355 . S
C1591 C1593 1.419 . S
C1592 C1590 1.415 . S
C1592 C1597 1.425 . S
C1592 C1599 1.409 . S
C1593 H1585 0.930 . S
C1593 C1591 1.419 . S
C1593 C1594 1.362 . S
C1594 H1586 0.930 . S
C1594 C1593 1.362 . S
C1594 C1597 1.409 . S
C1595 H1587 0.930 . S
C1595 C1596 1.355 . S
C1595 C1597 1.415 . S
C1596 C1595 1.355 . S
C1596 C1598 1.419 . S
C1597 C1592 1.425 . S
C1597 C1594 1.409 . S
C1597 C1595 1.415 . S
C1598 H1588 0.930 . S
C1598 C1596 1.419 . S
C1598 C1599 1.362 . S
C1599 H1589 0.930 . S
C1599 C1592 1.409 . S
C1599 C1598 1.362 . S
H1600 C1606 0.930 . S
H1601 C1609 0.930 . S
H1602 C1610 0.930 . S
H1603 C1611 0.930 . S
H1604 C1614 0.930 . S
H1605 C1615 0.930 . S
C1606 H1600 0.930 . S
C1606 C1607 1.355 . S
C1606 C1608 1.415 . S
C1607 C1606 1.355 . S
C1607 C1609 1.419 . S
C1608 C1606 1.415 . S
C1608 C1613 1.425 . S
C1608 C1615 1.409 . S
C1609 H1601 0.930 . S
C1609 C1607 1.419 . S
C1609 C1610 1.362 . S
C1610 H1602 0.930 . S
C1610 C1609 1.362 . S
C1610 C1613 1.409 . S
C1611 H1603 0.930 . S
C1611 C1612 1.355 . S
C1611 C1613 1.415 . S
C1612 C1611 1.355 . S
C1612 C1614 1.419 . S
C1613 C1608 1.425 . S
C1613 C1610 1.409 . S
C1613 C1611 1.415 . S
C1614 H1604 0.930 . S
C1614 C1612 1.419 . S
C1614 C1615 1.362 . S
C1615 H1605 0.930 . S
C1615 C1608 1.409 . S
C1615 C1614 1.362 . S
H1616 C1622 0.930 . S
H1617 C1625 0.930 . S
H1618 C1626 0.930 . S
H1619 C1627 0.930 . S
H1620 C1630 0.930 . S
H1621 C1631 0.930 . S
C1622 H1616 0.930 . S
C1622 C1623 1.355 1_545 S
C1622 C1624 1.415 1_545 S
C1623 C1622 1.355 1_565 S
C1623 C1625 1.419 . S
C1624 C1622 1.415 1_565 S
C1624 C1629 1.425 . S
C1624 C1631 1.409 1_565 S
C1625 H1617 0.930 . S
C1625 C1623 1.419 . S
C1625 C1626 1.362 . S
C1626 H1618 0.930 . S
C1626 C1625 1.362 . S
C1626 C1629 1.409 . S
C1627 H1619 0.930 . S
C1627 C1628 1.355 . S
C1627 C1629 1.415 . S
C1628 C1627 1.355 . S
C1628 C1630 1.419 1_565 S
C1629 C1624 1.425 . S
C1629 C1626 1.409 . S
C1629 C1627 1.415 . S
C1630 H1620 0.930 . S
C1630 C1628 1.419 1_545 S
C1630 C1631 1.362 . S
C1631 H1621 0.930 . S
C1631 C1624 1.409 1_545 S
C1631 C1630 1.362 . S
H1632 C1638 0.937 . S
H1633 C1641 0.930 1_554 S
H1634 C1642 0.930 . S
H1635 C1643 0.930 . S
H1636 C1646 0.930 . S
H1637 C1647 0.930 . S
C1638 H1632 0.937 . S
C1638 C1639 1.355 1_556 S
C1638 C1640 1.415 . S
C1639 C1638 1.355 1_554 S
C1639 C1641 1.419 1_554 S
C1640 C1638 1.415 . S
C1640 C1645 1.425 . S
C1640 C1647 1.409 . S
C1641 H1633 0.930 1_556 S
C1641 C1639 1.419 1_556 S
C1641 C1642 1.362 . S
C1642 H1634 0.930 . S
C1642 C1641 1.362 . S
C1642 C1645 1.409 . S
C1643 H1635 0.930 . S
C1643 C1644 1.355 . S
C1643 C1645 1.415 . S
C1644 C1643 1.355 . S
C1644 C1646 1.419 . S
C1645 C1640 1.425 . S
C1645 C1642 1.409 . S
C1645 C1643 1.415 . S
C1646 H1636 0.930 . S
C1646 C1644 1.419 . S
C1646 C1647 1.362 . S
C1647 H1637 0.930 . S
C1647 C1640 1.409 . S
C1647 C1646 1.362 . S
H1648 C1654 0.930 . S
H1649 C1657 0.930 . S
H1650 C1658 0.930 1_565 S
H1651 C1659 0.928 1_565 S
H1652 C1662 0.930 . S
H1653 C1663 0.930 . S
C1654 H1648 0.930 . S
C1654 C1655 1.355 . S
C1654 C1656 1.415 . S
C1655 C1654 1.355 . S
C1655 C1657 1.419 . S
C1656 C1654 1.415 . S
C1656 C1661 1.425 . S
C1656 C1663 1.409 . S
C1657 H1649 0.930 . S
C1657 C1655 1.419 . S
C1657 C1658 1.362 . S
C1658 H1650 0.930 1_545 S
C1658 C1657 1.362 . S
C1658 C1661 1.409 . S
C1659 H1651 0.928 1_545 S
C1659 C1660 1.355 . S
C1659 C1661 1.415 . S
C1660 C1659 1.355 . S
C1660 C1662 1.419 . S
C1661 C1656 1.425 . S
C1661 C1658 1.409 . S
C1661 C1659 1.415 . S
C1662 H1652 0.930 . S
C1662 C1660 1.419 . S
C1662 C1663 1.362 . S
C1663 H1653 0.930 . S
C1663 C1656 1.409 . S
C1663 C1662 1.362 . S
H1664 C1670 0.930 . S
H1665 C1673 0.930 . S
H1666 C1674 0.930 . S
H1667 C1675 0.930 . S
H1668 C1678 0.930 . S
H1669 C1679 0.930 . S
C1670 H1664 0.930 . S
C1670 C1671 1.355 . S
C1670 C1672 1.415 . S
C1671 C1670 1.355 . S
C1671 C1673 1.419 . S
C1672 C1670 1.415 . S
C1672 C1677 1.425 . S
C1672 C1679 1.409 . S
C1673 H1665 0.930 . S
C1673 C1671 1.419 . S
C1673 C1674 1.362 . S
C1674 H1666 0.930 . S
C1674 C1673 1.362 . S
C1674 C1677 1.409 . S
C1675 H1667 0.930 . S
C1675 C1676 1.355 . S
C1675 C1677 1.415 . S
C1676 C1675 1.355 . S
C1676 C1678 1.419 . S
C1677 C1672 1.425 . S
C1677 C1674 1.409 . S
C1677 C1675 1.415 . S
C1678 H1668 0.930 . S
C1678 C1676 1.419 . S
C1678 C1679 1.362 . S
C1679 H1669 0.930 . S
C1679 C1672 1.409 . S
C1679 C1678 1.362 . S
H1680 C1686 0.930 . S
H1681 C1689 0.930 1_565 S
H1682 C1690 0.930 1_565 S
H1683 C1691 0.930 . S
H1684 C1694 0.930 . S
H1685 C1695 0.930 . S
C1686 H1680 0.930 . S
C1686 C1687 1.355 . S
C1686 C1688 1.415 . S
C1687 C1686 1.355 . S
C1687 C1689 1.419 . S
C1688 C1686 1.415 . S
C1688 C1693 1.425 . S
C1688 C1695 1.409 . S
C1689 H1681 0.930 1_545 S
C1689 C1687 1.419 . S
C1689 C1690 1.362 . S
C1690 H1682 0.930 1_545 S
C1690 C1689 1.362 . S
C1690 C1693 1.409 . S
C1691 H1683 0.930 . S
C1691 C1692 1.355 . S
C1691 C1693 1.415 . S
C1692 C1691 1.355 . S
C1692 C1694 1.419 . S
C1693 C1688 1.425 . S
C1693 C1690 1.409 . S
C1693 C1691 1.415 . S
C1694 H1684 0.930 . S
C1694 C1692 1.419 . S
C1694 C1695 1.362 . S
C1695 H1685 0.930 . S
C1695 C1688 1.409 . S
C1695 C1694 1.362 . S
H1696 C1702 0.930 . S
H1697 C1705 0.930 . S
H1698 C1706 0.930 . S
H1699 C1707 0.930 . S
H1700 C1710 0.930 1_556 S
H1701 C1711 0.930 . S
C1702 H1696 0.930 . S
C1702 C1703 1.355 . S
C1702 C1704 1.415 . S
C1703 C1702 1.355 . S
C1703 C1705 1.419 . S
C1704 C1702 1.415 . S
C1704 C1709 1.425 . S
C1704 C1711 1.409 . S
C1705 H1697 0.930 . S
C1705 C1703 1.419 . S
C1705 C1706 1.362 . S
C1706 H1698 0.930 . S
C1706 C1705 1.362 . S
C1706 C1709 1.409 . S
C1707 H1699 0.930 . S
C1707 C1708 1.355 1_554 S
C1707 C1709 1.415 . S
C1708 C1707 1.355 1_556 S
C1708 C1710 1.419 1_556 S
C1709 C1704 1.425 . S
C1709 C1706 1.409 . S
C1709 C1707 1.415 . S
C1710 H1700 0.930 1_554 S
C1710 C1708 1.419 1_554 S
C1710 C1711 1.362 . S
C1711 H1701 0.930 . S
C1711 C1704 1.409 . S
C1711 C1710 1.362 . S
H1712 C1718 0.930 . S
H1713 C1721 0.930 . S
H1714 C1722 0.930 . S
H1715 C1723 0.940 . S
H1716 C1726 0.930 . S
H1717 C1727 0.930 . S
C1718 H1712 0.930 . S
C1718 C1719 1.355 . S
C1718 C1720 1.415 . S
C1719 C1718 1.355 . S
C1719 C1721 1.419 1_565 S
C1720 C1718 1.415 . S
C1720 C1725 1.425 . S
C1720 C1727 1.409 . S
C1721 H1713 0.930 . S
C1721 C1719 1.419 1_545 S
C1721 C1722 1.362 . S
C1722 H1714 0.930 . S
C1722 C1721 1.362 . S
C1722 C1725 1.409 1_545 S
C1723 H1715 0.940 . S
C1723 C1724 1.355 . S
C1723 C1725 1.415 . S
C1724 C1723 1.355 . S
C1724 C1726 1.419 . S
C1725 C1720 1.425 . S
C1725 C1722 1.409 1_565 S
C1725 C1723 1.415 . S
C1726 H1716 0.930 . S
C1726 C1724 1.419 . S
C1726 C1727 1.362 . S
C1727 H1717 0.930 . S
C1727 C1720 1.409 . S
C1727 C1726 1.362 . S
H1728 C1734 0.930 . S
H1729 C1737 0.930 . S
H1730 C1738 0.930 . S
H1731 C1739 0.930 . S
H1732 C1742 0.930 . S
H1733 C1743 0.930 . S
C1734 H1728 0.930 . S
C1734 C1735 1.355 . S
C1734 C1736 1.415 . S
C1735 C1734 1.355 . S
C1735 C1737 1.419 . S
C1736 C1734 1.415 . S
C1736 C1741 1.425 . S
C1736 C1743 1.409 . S
C1737 H1729 0.930 . S
C1737 C1735 1.419 . S
C1737 C1738 1.362 . S
C1738 H1730 0.930 . S
C1738 C1737 1.362 . S
C1738 C1741 1.409 . S
C1739 H1731 0.930 . S
C1739 C1740 1.355 . S
C1739 C1741 1.415 . S
C1740 C1739 1.355 . S
C1740 C1742 1.419 . S
C1741 C1736 1.425 . S
C1741 C1738 1.409 . S
C1741 C1739 1.415 . S
C1742 H1732 0.930 . S
C1742 C1740 1.419 . S
C1742 C1743 1.362 . S
C1743 H1733 0.930 . S
C1743 C1736 1.409 . S
C1743 C1742 1.362 . S
H1744 C1750 0.930 . S
H1745 C1753 0.930 . S
H1746 C1754 0.930 . S
H1747 C1755 0.930 . S
H1748 C1758 0.930 . S
H1749 C1759 0.930 . S
C1750 H1744 0.930 . S
C1750 C1751 1.355 . S
C1750 C1752 1.415 . S
C1751 C1750 1.355 . S
C1751 C1753 1.419 . S
C1752 C1750 1.415 . S
C1752 C1757 1.425 . S
C1752 C1759 1.409 . S
C1753 H1745 0.930 . S
C1753 C1751 1.419 . S
C1753 C1754 1.362 . S
C1754 H1746 0.930 . S
C1754 C1753 1.362 . S
C1754 C1757 1.409 . S
C1755 H1747 0.930 . S
C1755 C1756 1.355 . S
C1755 C1757 1.415 . S
C1756 C1755 1.355 . S
C1756 C1758 1.419 . S
C1757 C1752 1.425 . S
C1757 C1754 1.409 . S
C1757 C1755 1.415 . S
C1758 H1748 0.930 . S
C1758 C1756 1.419 . S
C1758 C1759 1.362 . S
C1759 H1749 0.930 . S
C1759 C1752 1.409 . S
C1759 C1758 1.362 . S
H1760 C1766 0.930 . S
H1761 C1769 0.930 . S
H1762 C1770 0.930 . S
H1763 C1771 0.930 . S
H1764 C1774 0.930 . S
H1765 C1775 0.930 . S
C1766 H1760 0.930 . S
C1766 C1767 1.355 . S
C1766 C1768 1.415 1_655 S
C1767 C1766 1.355 . S
C1767 C1769 1.419 . S
C1768 C1766 1.415 1_455 S
C1768 C1773 1.425 1_455 S
C1768 C1775 1.409 . S
C1769 H1761 0.930 . S
C1769 C1767 1.419 . S
C1769 C1770 1.362 . S
C1770 H1762 0.930 . S
C1770 C1769 1.362 . S
C1770 C1773 1.409 . S
C1771 H1763 0.930 . S
C1771 C1772 1.355 . S
C1771 C1773 1.415 1_455 S
C1772 C1771 1.355 . S
C1772 C1774 1.419 . S
C1773 C1768 1.425 1_655 S
C1773 C1770 1.409 . S
C1773 C1771 1.415 1_655 S
C1774 H1764 0.930 . S
C1774 C1772 1.419 . S
C1774 C1775 1.362 . S
C1775 H1765 0.930 . S
C1775 C1768 1.409 . S
C1775 C1774 1.362 . S
H1776 C1782 0.930 1_455 S
H1777 C1785 0.930 . S
H1778 C1786 0.930 . S
H1779 C1787 0.930 1_655 S
H1780 C1790 0.930 . S
H1781 C1791 0.930 . S
C1782 H1776 0.930 1_655 S
C1782 C1783 1.355 . S
C1782 C1784 1.415 1_655 S
C1783 C1782 1.355 . S
C1783 C1785 1.419 . S
C1784 C1782 1.415 1_455 S
C1784 C1789 1.425 1_455 S
C1784 C1791 1.409 . S
C1785 H1777 0.930 . S
C1785 C1783 1.419 . S
C1785 C1786 1.362 . S
C1786 H1778 0.930 . S
C1786 C1785 1.362 . S
C1786 C1789 1.409 . S
C1787 H1779 0.930 1_455 S
C1787 C1788 1.355 . S
C1787 C1789 1.415 1_455 S
C1788 C1787 1.355 . S
C1788 C1790 1.419 . S
C1789 C1784 1.425 1_655 S
C1789 C1786 1.409 . S
C1789 C1787 1.415 1_655 S
C1790 H1780 0.930 . S
C1790 C1788 1.419 . S
C1790 C1791 1.362 . S
C1791 H1781 0.930 . S
C1791 C1784 1.409 . S
C1791 C1790 1.362 . S
H1792 C1798 0.930 . S
H1793 C1801 0.930 . S
H1794 C1802 0.930 . S
H1795 C1803 0.930 . S
H1796 C1806 0.930 . S
H1797 C1807 0.930 . S
C1798 H1792 0.930 . S
C1798 C1799 1.355 . S
C1798 C1800 1.415 . S
C1799 C1798 1.355 . S
C1799 C1801 1.419 . S
C1800 C1798 1.415 . S
C1800 C1805 1.425 . S
C1800 C1807 1.409 . S
C1801 H1793 0.930 . S
C1801 C1799 1.419 . S
C1801 C1802 1.362 . S
C1802 H1794 0.930 . S
C1802 C1801 1.362 . S
C1802 C1805 1.409 . S
C1803 H1795 0.930 . S
C1803 C1804 1.355 . S
C1803 C1805 1.415 . S
C1804 C1803 1.355 . S
C1804 C1806 1.419 . S
C1805 C1800 1.425 . S
C1805 C1802 1.409 . S
C1805 C1803 1.415 . S
C1806 H1796 0.930 . S
C1806 C1804 1.419 . S
C1806 C1807 1.362 . S
C1807 H1797 0.930 . S
C1807 C1800 1.409 . S
C1807 C1806 1.362 . S
H1808 C1814 0.930 . S
H1809 C1817 0.930 . S
H1810 C1818 0.930 . S
H1811 C1819 0.930 . S
H1812 C1822 0.930 . S
H1813 C1823 0.930 . S
C1814 H1808 0.930 . S
C1814 C1815 1.355 . S
C1814 C1816 1.415 . S
C1815 C1814 1.355 . S
C1815 C1817 1.419 . S
C1816 C1814 1.415 . S
C1816 C1821 1.425 . S
C1816 C1823 1.409 . S
C1817 H1809 0.930 . S
C1817 C1815 1.419 . S
C1817 C1818 1.362 . S
C1818 H1810 0.930 . S
C1818 C1817 1.362 . S
C1818 C1821 1.409 . S
C1819 H1811 0.930 . S
C1819 C1820 1.355 . S
C1819 C1821 1.415 . S
C1820 C1819 1.355 . S
C1820 C1822 1.419 . S
C1821 C1816 1.425 . S
C1821 C1818 1.409 . S
C1821 C1819 1.415 . S
C1822 H1812 0.930 . S
C1822 C1820 1.419 . S
C1822 C1823 1.362 . S
C1823 H1813 0.930 . S
C1823 C1816 1.409 . S
C1823 C1822 1.362 . S
H1824 C1830 0.930 . S
H1825 C1833 0.930 . S
H1826 C1834 0.930 . S
H1827 C1835 0.930 . S
H1828 C1838 0.930 . S
H1829 C1839 0.930 . S
C1830 H1824 0.930 . S
C1830 C1831 1.355 . S
C1830 C1832 1.415 . S
C1831 C1830 1.355 . S
C1831 C1833 1.419 . S
C1832 C1830 1.415 . S
C1832 C1837 1.425 1_455 S
C1832 C1839 1.409 1_455 S
C1833 H1825 0.930 . S
C1833 C1831 1.419 . S
C1833 C1834 1.362 . S
C1834 H1826 0.930 . S
C1834 C1833 1.362 . S
C1834 C1837 1.409 1_455 S
C1835 H1827 0.930 . S
C1835 C1836 1.355 . S
C1835 C1837 1.415 . S
C1836 C1835 1.355 . S
C1836 C1838 1.419 . S
C1837 C1832 1.425 1_655 S
C1837 C1834 1.409 1_655 S
C1837 C1835 1.415 . S
C1838 H1828 0.930 . S
C1838 C1836 1.419 . S
C1838 C1839 1.362 . S
C1839 H1829 0.930 . S
C1839 C1832 1.409 1_655 S
C1839 C1838 1.362 . S
H1840 C1846 0.930 . S
H1841 C1849 0.930 . S
H1842 C1850 0.930 . S
H1843 C1851 0.923 1_455 S
H1844 C1854 0.930 . S
H1845 C1855 0.930 . S
C1846 H1840 0.930 . S
C1846 C1847 1.355 1_655 S
C1846 C1848 1.415 . S
C1847 C1846 1.355 1_455 S
C1847 C1849 1.419 . S
C1848 C1846 1.415 . S
C1848 C1853 1.425 1_655 S
C1848 C1855 1.409 . S
C1849 H1841 0.930 . S
C1849 C1847 1.419 . S
C1849 C1850 1.362 . S
C1850 H1842 0.930 . S
C1850 C1849 1.362 . S
C1850 C1853 1.409 . S
C1851 H1843 0.923 1_655 S
C1851 C1852 1.365 . S
C1851 C1853 1.411 1_655 S
C1852 C1851 1.365 . S
C1852 C1854 1.419 . S
C1853 C1848 1.425 1_455 S
C1853 C1850 1.409 . S
C1853 C1851 1.411 1_455 S
C1854 H1844 0.930 . S
C1854 C1852 1.419 . S
C1854 C1855 1.362 . S
C1855 H1845 0.930 . S
C1855 C1848 1.409 . S
C1855 C1854 1.362 . S
H1856 C1862 0.930 . S
H1857 C1865 0.930 . S
H1858 C1866 0.930 . S
H1859 C1867 0.930 . S
H1860 C1870 0.930 . S
H1861 C1871 0.930 . S
C1862 H1856 0.930 . S
C1862 C1863 1.355 . S
C1862 C1864 1.415 . S
C1863 C1862 1.355 . S
C1863 C1865 1.419 . S
C1864 C1862 1.415 . S
C1864 C1869 1.425 . S
C1864 C1871 1.409 . S
C1865 H1857 0.930 . S
C1865 C1863 1.419 . S
C1865 C1866 1.362 . S
C1866 H1858 0.930 . S
C1866 C1865 1.362 . S
C1866 C1869 1.409 . S
C1867 H1859 0.930 . S
C1867 C1868 1.355 . S
C1867 C1869 1.415 . S
C1868 C1867 1.355 . S
C1868 C1870 1.419 . S
C1869 C1864 1.425 . S
C1869 C1866 1.409 . S
C1869 C1867 1.415 . S
C1870 H1860 0.930 . S
C1870 C1868 1.419 . S
C1870 C1871 1.362 . S
C1871 H1861 0.930 . S
C1871 C1864 1.409 . S
C1871 C1870 1.362 . S
H1872 C1878 0.930 . S
H1873 C1881 0.930 . S
H1874 C1882 0.930 . S
H1875 C1883 0.930 . S
H1876 C1886 0.930 . S
H1877 C1887 0.930 . S
C1878 H1872 0.930 . S
C1878 C1879 1.355 . S
C1878 C1880 1.415 . S
C1879 C1878 1.355 . S
C1879 C1881 1.419 . S
C1880 C1878 1.415 . S
C1880 C1885 1.425 . S
C1880 C1887 1.409 . S
C1881 H1873 0.930 . S
C1881 C1879 1.419 . S
C1881 C1882 1.362 . S
C1882 H1874 0.930 . S
C1882 C1881 1.362 . S
C1882 C1885 1.409 . S
C1883 H1875 0.930 . S
C1883 C1884 1.355 . S
C1883 C1885 1.415 . S
C1884 C1883 1.355 . S
C1884 C1886 1.419 . S
C1885 C1880 1.425 . S
C1885 C1882 1.409 . S
C1885 C1883 1.415 . S
C1886 H1876 0.930 . S
C1886 C1884 1.419 . S
C1886 C1887 1.362 . S
C1887 H1877 0.930 . S
C1887 C1880 1.409 . S
C1887 C1886 1.362 . S
H1888 C1894 0.930 . S
H1889 C1897 0.930 . S
H1890 C1898 0.930 . S
H1891 C1899 0.930 . S
H1892 C1902 0.930 . S
H1893 C1903 0.930 . S
C1894 H1888 0.930 . S
C1894 C1895 1.355 . S
C1894 C1896 1.415 . S
C1895 C1894 1.355 . S
C1895 C1897 1.419 . S
C1896 C1894 1.415 . S
C1896 C1901 1.425 . S
C1896 C1903 1.409 . S
C1897 H1889 0.930 . S
C1897 C1895 1.419 . S
C1897 C1898 1.362 . S
C1898 H1890 0.930 . S
C1898 C1897 1.362 . S
C1898 C1901 1.409 . S
C1899 H1891 0.930 . S
C1899 C1900 1.355 . S
C1899 C1901 1.415 . S
C1900 C1899 1.355 . S
C1900 C1902 1.419 . S
C1901 C1896 1.425 . S
C1901 C1898 1.409 . S
C1901 C1899 1.415 . S
C1902 H1892 0.930 . S
C1902 C1900 1.419 . S
C1902 C1903 1.362 . S
C1903 H1893 0.930 . S
C1903 C1896 1.409 . S
C1903 C1902 1.362 . S
H1904 C1910 0.930 . S
H1905 C1913 0.930 . S
H1906 C1914 0.930 . S
H1907 C1915 0.930 . S
H1908 C1918 0.930 . S
H1909 C1919 0.930 . S
C1910 H1904 0.930 . S
C1910 C1911 1.355 1_455 S
C1910 C1912 1.415 . S
C1911 C1910 1.355 1_655 S
C1911 C1913 1.419 . S
C1912 C1910 1.415 . S
C1912 C1917 1.425 . S
C1912 C1919 1.409 . S
C1913 H1905 0.930 . S
C1913 C1911 1.419 . S
C1913 C1914 1.362 1_655 S
C1914 H1906 0.930 . S
C1914 C1913 1.362 1_455 S
C1914 C1917 1.409 . S
C1915 H1907 0.930 . S
C1915 C1916 1.355 . S
C1915 C1917 1.415 . S
C1916 C1915 1.355 . S
C1916 C1918 1.419 . S
C1917 C1912 1.425 . S
C1917 C1914 1.409 . S
C1917 C1915 1.415 . S
C1918 H1908 0.930 . S
C1918 C1916 1.419 . S
C1918 C1919 1.362 . S
C1919 H1909 0.930 . S
C1919 C1912 1.409 . S
C1919 C1918 1.362 . S
H1920 C1926 0.930 . S
H1921 C1929 0.930 . S
H1922 C1930 0.930 . S
H1923 C1931 0.930 . S
H1924 C1934 0.930 . S
H1925 C1935 0.930 . S
C1926 H1920 0.930 . S
C1926 C1927 1.355 . S
C1926 C1928 1.415 . S
C1927 C1926 1.355 . S
C1927 C1929 1.419 . S
C1928 C1926 1.415 . S
C1928 C1933 1.425 . S
C1928 C1935 1.409 . S
C1929 H1921 0.930 . S
C1929 C1927 1.419 . S
C1929 C1930 1.362 . S
C1930 H1922 0.930 . S
C1930 C1929 1.362 . S
C1930 C1933 1.409 . S
C1931 H1923 0.930 . S
C1931 C1932 1.355 . S
C1931 C1933 1.415 . S
C1932 C1931 1.355 . S
C1932 C1934 1.419 . S
C1933 C1928 1.425 . S
C1933 C1930 1.409 . S
C1933 C1931 1.415 . S
C1934 H1924 0.930 . S
C1934 C1932 1.419 . S
C1934 C1935 1.362 . S
C1935 H1925 0.930 . S
C1935 C1928 1.409 . S
C1935 C1934 1.362 . S
H1936 C1942 0.930 . S
H1937 C1945 0.930 . S
H1938 C1946 0.930 . S
H1939 C1947 0.930 . S
H1940 C1950 0.930 . S
H1941 C1951 0.930 . S
C1942 H1936 0.930 . S
C1942 C1943 1.355 . S
C1942 C1944 1.415 . S
C1943 C1942 1.355 . S
C1943 C1945 1.419 . S
C1944 C1942 1.415 . S
C1944 C1949 1.425 . S
C1944 C1951 1.409 . S
C1945 H1937 0.930 . S
C1945 C1943 1.419 . S
C1945 C1946 1.362 . S
C1946 H1938 0.930 . S
C1946 C1945 1.362 . S
C1946 C1949 1.409 . S
C1947 H1939 0.930 . S
C1947 C1948 1.355 . S
C1947 C1949 1.415 . S
C1948 C1947 1.355 . S
C1948 C1950 1.419 . S
C1949 C1944 1.425 . S
C1949 C1946 1.409 . S
C1949 C1947 1.415 . S
C1950 H1940 0.930 . S
C1950 C1948 1.419 . S
C1950 C1951 1.362 . S
C1951 H1941 0.930 . S
C1951 C1944 1.409 . S
C1951 C1950 1.362 . S
H1952 C1958 0.930 . S
H1953 C1961 0.930 . S
H1954 C1962 0.930 . S
H1955 C1963 0.930 . S
H1956 C1966 0.930 . S
H1957 C1967 0.930 . S
C1958 H1952 0.930 . S
C1958 C1959 1.355 . S
C1958 C1960 1.415 . S
C1959 C1958 1.355 . S
C1959 C1961 1.419 . S
C1960 C1958 1.415 . S
C1960 C1965 1.425 . S
C1960 C1967 1.409 . S
C1961 H1953 0.930 . S
C1961 C1959 1.419 . S
C1961 C1962 1.362 . S
C1962 H1954 0.930 . S
C1962 C1961 1.362 . S
C1962 C1965 1.409 . S
C1963 H1955 0.930 . S
C1963 C1964 1.355 . S
C1963 C1965 1.415 . S
C1964 C1963 1.355 . S
C1964 C1966 1.419 . S
C1965 C1960 1.425 . S
C1965 C1962 1.409 . S
C1965 C1963 1.415 . S
C1966 H1956 0.930 . S
C1966 C1964 1.419 . S
C1966 C1967 1.362 . S
C1967 H1957 0.930 . S
C1967 C1960 1.409 . S
C1967 C1966 1.362 . S
H1968 C1974 0.930 . S
H1969 C1977 0.930 . S
H1970 C1978 0.930 . S
H1971 C1979 0.930 . S
H1972 C1982 0.930 . S
H1973 C1983 0.930 . S
C1974 H1968 0.930 . S
C1974 C1975 1.355 . S
C1974 C1976 1.415 . S
C1975 C1974 1.355 . S
C1975 C1977 1.419 . S
C1976 C1974 1.415 . S
C1976 C1981 1.425 . S
C1976 C1983 1.409 . S
C1977 H1969 0.930 . S
C1977 C1975 1.419 . S
C1977 C1978 1.362 . S
C1978 H1970 0.930 . S
C1978 C1977 1.362 . S
C1978 C1981 1.409 . S
C1979 H1971 0.930 . S
C1979 C1980 1.355 1_655 S
C1979 C1981 1.415 . S
C1980 C1979 1.355 1_455 S
C1980 C1982 1.419 . S
C1981 C1976 1.425 . S
C1981 C1978 1.409 . S
C1981 C1979 1.415 . S
C1982 H1972 0.930 . S
C1982 C1980 1.419 . S
C1982 C1983 1.362 1_455 S
C1983 H1973 0.930 . S
C1983 C1976 1.409 . S
C1983 C1982 1.362 1_655 S
H1984 C1990 0.930 . S
H1985 C1993 0.930 . S
H1986 C1994 0.930 . S
H1987 C1995 0.930 . S
H1988 C1998 0.930 . S
H1989 C1999 0.930 . S
C1990 H1984 0.930 . S
C1990 C1991 1.355 . S
C1990 C1992 1.415 . S
C1991 C1990 1.355 . S
C1991 C1993 1.419 . S
C1992 C1990 1.415 . S
C1992 C1997 1.425 . S
C1992 C1999 1.409 . S
C1993 H1985 0.930 . S
C1993 C1991 1.419 . S
C1993 C1994 1.362 . S
C1994 H1986 0.930 . S
C1994 C1993 1.362 . S
C1994 C1997 1.409 . S
C1995 H1987 0.930 . S
C1995 C1996 1.355 . S
C1995 C1997 1.415 . S
C1996 C1995 1.355 . S
C1996 C1998 1.419 . S
C1997 C1992 1.425 . S
C1997 C1994 1.409 . S
C1997 C1995 1.415 . S
C1998 H1988 0.930 . S
C1998 C1996 1.419 . S
C1998 C1999 1.362 . S
C1999 H1989 0.930 . S
C1999 C1992 1.409 . S
C1999 C1998 1.362 . S
H2000 C2006 0.930 . S
H2001 C2009 0.930 . S
H2002 C2010 0.930 . S
H2003 C2011 0.930 1_455 S
H2004 C2014 0.930 . S
H2005 C2015 0.930 . S
C2006 H2000 0.930 . S
C2006 C2007 1.355 . S
C2006 C2008 1.415 . S
C2007 C2006 1.355 . S
C2007 C2009 1.419 . S
C2008 C2006 1.415 . S
C2008 C2013 1.425 . S
C2008 C2015 1.409 1_565 S
C2009 H2001 0.930 . S
C2009 C2007 1.419 . S
C2009 C2010 1.362 . S
C2010 H2002 0.930 . S
C2010 C2009 1.362 . S
C2010 C2013 1.409 . S
C2011 H2003 0.930 1_655 S
C2011 C2012 1.355 1_655 S
C2011 C2013 1.415 . S
C2012 C2011 1.355 1_455 S
C2012 C2014 1.419 1_465 S
C2013 C2008 1.425 . S
C2013 C2010 1.409 . S
C2013 C2011 1.415 . S
C2014 H2004 0.930 . S
C2014 C2012 1.419 1_645 S
C2014 C2015 1.362 . S
C2015 H2005 0.930 . S
C2015 C2008 1.409 1_545 S
C2015 C2014 1.362 . S
H2016 C2022 0.930 . S
H2017 C2025 0.930 . S
H2018 C2026 0.930 . S
H2019 C2027 0.930 . S
H2020 C2030 0.930 . S
H2021 C2031 0.930 . S
C2022 H2016 0.930 . S
C2022 C2023 1.355 . S
C2022 C2024 1.415 . S
C2023 C2022 1.355 . S
C2023 C2025 1.419 . S
C2024 C2022 1.415 . S
C2024 C2029 1.425 . S
C2024 C2031 1.409 . S
C2025 H2017 0.930 . S
C2025 C2023 1.419 . S
C2025 C2026 1.362 . S
C2026 H2018 0.930 . S
C2026 C2025 1.362 . S
C2026 C2029 1.409 . S
C2027 H2019 0.930 . S
C2027 C2028 1.355 . S
C2027 C2029 1.415 . S
C2028 C2027 1.355 . S
C2028 C2030 1.419 . S
C2029 C2024 1.425 . S
C2029 C2026 1.409 . S
C2029 C2027 1.415 . S
C2030 H2020 0.930 . S
C2030 C2028 1.419 . S
C2030 C2031 1.362 . S
C2031 H2021 0.930 . S
C2031 C2024 1.409 . S
C2031 C2030 1.362 . S
H2032 C2038 0.930 1_565 S
H2033 C2041 0.930 . S
H2034 C2042 0.930 . S
H2035 C2043 0.930 . S
H2036 C2046 0.930 . S
H2037 C2047 0.930 1_565 S
C2038 H2032 0.930 1_545 S
C2038 C2039 1.355 . S
C2038 C2040 1.415 . S
C2039 C2038 1.355 . S
C2039 C2041 1.419 . S
C2040 C2038 1.415 . S
C2040 C2045 1.425 . S
C2040 C2047 1.409 . S
C2041 H2033 0.930 . S
C2041 C2039 1.419 . S
C2041 C2042 1.362 . S
C2042 H2034 0.930 . S
C2042 C2041 1.362 . S
C2042 C2045 1.409 . S
C2043 H2035 0.930 . S
C2043 C2044 1.355 . S
C2043 C2045 1.415 . S
C2044 C2043 1.355 . S
C2044 C2046 1.419 . S
C2045 C2040 1.425 . S
C2045 C2042 1.409 . S
C2045 C2043 1.415 . S
C2046 H2036 0.930 . S
C2046 C2044 1.419 . S
C2046 C2047 1.362 . S
C2047 H2037 0.930 1_545 S
C2047 C2040 1.409 . S
C2047 C2046 1.362 . S
H2048 C2054 0.930 . S
H2049 C2057 0.930 . S
H2050 C2058 0.930 . S
H2051 C2059 0.930 . S
H2052 C2062 0.930 . S
H2053 C2063 0.930 . S
C2054 H2048 0.930 . S
C2054 C2055 1.355 . S
C2054 C2056 1.415 . S
C2055 C2054 1.355 . S
C2055 C2057 1.419 . S
C2056 C2054 1.415 . S
C2056 C2061 1.425 . S
C2056 C2063 1.409 . S
C2057 H2049 0.930 . S
C2057 C2055 1.419 . S
C2057 C2058 1.362 . S
C2058 H2050 0.930 . S
C2058 C2057 1.362 . S
C2058 C2061 1.409 . S
C2059 H2051 0.930 . S
C2059 C2060 1.355 . S
C2059 C2061 1.415 . S
C2060 C2059 1.355 . S
C2060 C2062 1.419 . S
C2061 C2056 1.425 . S
C2061 C2058 1.409 . S
C2061 C2059 1.415 . S
C2062 H2052 0.930 . S
C2062 C2060 1.419 . S
C2062 C2063 1.362 . S
C2063 H2053 0.930 . S
C2063 C2056 1.409 . S
C2063 C2062 1.362 . S
H2064 C2070 0.930 1_655 S
H2065 C2073 0.930 . S
H2066 C2074 0.930 . S
H2067 C2075 0.930 . S
H2068 C2078 0.930 . S
H2069 C2079 0.930 . S
C2070 H2064 0.930 1_455 S
C2070 C2071 1.355 1_455 S
C2070 C2072 1.415 . S
C2071 C2070 1.355 1_655 S
C2071 C2073 1.419 1_645 S
C2072 C2070 1.415 . S
C2072 C2077 1.425 . S
C2072 C2079 1.409 . S
C2073 H2065 0.930 . S
C2073 C2071 1.419 1_465 S
C2073 C2074 1.362 . S
C2074 H2066 0.930 . S
C2074 C2073 1.362 . S
C2074 C2077 1.409 1_565 S
C2075 H2067 0.930 . S
C2075 C2076 1.355 . S
C2075 C2077 1.415 . S
C2076 C2075 1.355 . S
C2076 C2078 1.419 . S
C2077 C2072 1.425 . S
C2077 C2074 1.409 1_545 S
C2077 C2075 1.415 . S
C2078 H2068 0.930 . S
C2078 C2076 1.419 . S
C2078 C2079 1.362 . S
C2079 H2069 0.930 . S
C2079 C2072 1.409 . S
C2079 C2078 1.362 . S
H2080 C2086 0.930 . S
H2081 C2089 0.930 . S
H2082 C2090 0.930 . S
H2083 C2091 0.930 . S
H2084 C2094 0.930 . S
H2085 C2095 0.930 . S
C2086 H2080 0.930 . S
C2086 C2087 1.355 . S
C2086 C2088 1.415 . S
C2087 C2086 1.355 . S
C2087 C2089 1.419 . S
C2088 C2086 1.415 . S
C2088 C2093 1.425 . S
C2088 C2095 1.409 . S
C2089 H2081 0.930 . S
C2089 C2087 1.419 . S
C2089 C2090 1.362 . S
C2090 H2082 0.930 . S
C2090 C2089 1.362 . S
C2090 C2093 1.409 . S
C2091 H2083 0.930 . S
C2091 C2092 1.355 . S
C2091 C2093 1.415 . S
C2092 C2091 1.355 . S
C2092 C2094 1.419 . S
C2093 C2088 1.425 . S
C2093 C2090 1.409 . S
C2093 C2091 1.415 . S
C2094 H2084 0.930 . S
C2094 C2092 1.419 . S
C2094 C2095 1.362 . S
C2095 H2085 0.930 . S
C2095 C2088 1.409 . S
C2095 C2094 1.362 . S
H2096 C2102 0.930 . S
H2097 C2105 0.930 . S
H2098 C2106 0.930 . S
H2099 C2107 0.930 . S
H2100 C2110 0.931 . S
H2101 C2111 0.930 . S
C2102 H2096 0.930 . S
C2102 C2103 1.355 . S
C2102 C2104 1.415 . S
C2103 C2102 1.355 . S
C2103 C2105 1.419 . S
C2104 C2102 1.415 . S
C2104 C2109 1.425 . S
C2104 C2111 1.409 . S
C2105 H2097 0.930 . S
C2105 C2103 1.419 . S
C2105 C2106 1.362 . S
C2106 H2098 0.930 . S
C2106 C2105 1.362 . S
C2106 C2109 1.409 . S
C2107 H2099 0.930 . S
C2107 C2108 1.355 . S
C2107 C2109 1.415 . S
C2108 C2107 1.355 . S
C2108 C2110 1.419 . S
C2109 C2104 1.425 . S
C2109 C2106 1.409 . S
C2109 C2107 1.415 . S
C2110 H2100 0.931 . S
C2110 C2108 1.419 . S
C2110 C2111 1.362 . S
C2111 H2101 0.930 . S
C2111 C2104 1.409 . S
C2111 C2110 1.362 . S
C1351 C58 0.943 . S
C1356 C1077 0.943 . S
C1367 C489 0.984 . S
C1372 C142 0.984 . S
C1383 C226 0.797 . S
C1388 C1245 0.797 . S
C1399 C321 0.848 . S
C1404 C646 0.848 . S
C1415 C405 0.994 . S
C1420 C730 0.994 . S
C1431 C898 0.941 . S
C1436 C573 0.941 . S
C1447 C1161 0.816 . S
C1452 C814 0.816 . S
C1463 C993 0.803 . S
C1468 C1318 0.803 . S
C1479 C823 2.273 . S
C1484 C69 2.160 . S
C1495 C153 2.125 . S
C1500 C907 2.242 . S
C1511 C237 2.142 . S
C1516 C998 2.316 . S
C1527 C739 2.273 . S
C1532 C310 2.340 . S
C1543 C1148 2.235 . S
C1548 C394 2.105 . S
C1559 C1232 2.254 . S
C1564 C478 2.142 . S
C1575 C562 2.133 . S
C1580 C1323 2.300 . S
C1591 C1064 2.271 . S
C1596 C657 2.340 . S
C1607 C741 2.086 . S
C1612 C151 2.218 . S
C1623 C825 2.156 1_565 S
C1628 C235 2.277 . S
C1639 C909 2.068 . S
C1644 C326 2.278 . S
C1655 C67 2.292 . S
C1660 C982 2.382 . S
C1671 C476 2.216 . S
C1676 C1066 2.084 . S
C1687 C1150 2.132 1_545 S
C1692 C560 2.246 . S
C1703 C651 2.315 . S
C1708 C1234 2.138 . S
C1719 C1329 2.371 . S
C1724 C392 2.255 . S
C1735 C63 2.319 . S
C1740 C903 2.305 . S
C1751 C147 2.346 . S
C1756 C980 2.377 . S
C1767 C735 2.325 . S
C1772 C231 2.299 . S
C1783 C308 2.375 . S
C1788 C819 2.324 . S
C1799 C410 2.312 . S
C1804 C1250 2.312 . S
C1815 C494 2.321 . S
C1820 C1327 2.384 . S
C1831 C1082 2.327 . S
C1836 C578 2.296 . S
C1847 C655 2.376 . S
C1852 C1166 2.318 . S
C1863 C56 1.531 . S
C1868 C644 1.699 . S
C1879 C1071 1.625 . S
C1884 C140 1.569 . S
C1895 C224 1.587 . S
C1900 C483 1.646 . S
C1911 C315 1.430 . S
C1916 C1239 1.643 . S
C1927 C403 1.615 . S
C1932 C319 1.717 . S
C1943 C746 1.622 . S
C1948 C487 1.564 . S
C1959 C571 1.651 . S
C1964 C158 1.710 . S
C1975 C914 1.650 . S
C1980 C662 1.442 . S
C1991 C728 1.580 . S
C1996 C1316 1.718 . S
C2007 C399 1.654 . S
C2012 C812 1.604 1_565 S
C2023 C1155 1.641 . S
C2028 C896 1.561 . S
C2039 C987 1.428 1_545 S
C2044 C567 1.642 . S
C2055 C1075 1.540 . S
C2060 C991 1.705 . S
C2071 C1159 1.560 1_545 S
C2076 C74 1.623 . S
C2087 C830 1.648 . S
C2092 C1243 1.591 . S
C2103 C242 1.637 . S
C2108 C1334 1.418 1_565 S
