# Generated by pormake.
# Topology ume, (4)-cn, num edge types: 1
# Building blocks:
#     Node 0, Type 0, BuildingBlock: QUQFOY_clean_sbu_1, # of connection points: 4
#     Node 1, Type 0, BuildingBlock: QUQFOY_clean_sbu_1, # of connection points: 4
#     Node 2, Type 0, BuildingBlock: QUQFOY_clean_sbu_1, # of connection points: 4
#     Node 3, Type 0, BuildingBlock: QUQFOY_clean_sbu_1, # of connection points: 4
#     Node 4, Type 0, BuildingBlock: QUQFOY_clean_sbu_1, # of connection points: 4
#     Node 5, Type 0, BuildingBlock: QUQFOY_clean_sbu_1, # of connection points: 4
#     Node 6, Type 0, BuildingBlock: QUQFOY_clean_sbu_1, # of connection points: 4
#     Node 7, Type 0, BuildingBlock: QUQFOY_clean_sbu_1, # of connection points: 4
#     Node 8, Type 0, BuildingBlock: QUQFOY_clean_sbu_1, # of connection points: 4
#     Node 9, Type 0, BuildingBlock: QUQFOY_clean_sbu_1, # of connection points: 4
#     Node 10, Type 0, BuildingBlock: QUQFOY_clean_sbu_1, # of connection points: 4
#     Node 11, Type 0, BuildingBlock: QUQFOY_clean_sbu_1, # of connection points: 4
#     Node 12, Type 0, BuildingBlock: QUQFOY_clean_sbu_1, # of connection points: 4
#     Node 13, Type 0, BuildingBlock: QUQFOY_clean_sbu_1, # of connection points: 4
#     Node 14, Type 0, BuildingBlock: QUQFOY_clean_sbu_1, # of connection points: 4
#     Node 15, Type 0, BuildingBlock: QUQFOY_clean_sbu_1, # of connection points: 4
#     Edge 16, Type (0, 0), BuildingBlock: KIFKEQ_clean_linker_1, # of connection points: 2
#     Edge 17, Type (0, 0), BuildingBlock: KIFKEQ_clean_linker_1, # of connection points: 2
#     Edge 18, Type (0, 0), BuildingBlock: KIFKEQ_clean_linker_1, # of connection points: 2
#     Edge 19, Type (0, 0), BuildingBlock: KIFKEQ_clean_linker_1, # of connection points: 2
#     Edge 20, Type (0, 0), BuildingBlock: KIFKEQ_clean_linker_1, # of connection points: 2
#     Edge 21, Type (0, 0), BuildingBlock: KIFKEQ_clean_linker_1, # of connection points: 2
#     Edge 22, Type (0, 0), BuildingBlock: KIFKEQ_clean_linker_1, # of connection points: 2
#     Edge 23, Type (0, 0), BuildingBlock: KIFKEQ_clean_linker_1, # of connection points: 2
#     Edge 24, Type (0, 0), BuildingBlock: KIFKEQ_clean_linker_1, # of connection points: 2
#     Edge 25, Type (0, 0), BuildingBlock: KIFKEQ_clean_linker_1, # of connection points: 2
#     Edge 26, Type (0, 0), BuildingBlock: KIFKEQ_clean_linker_1, # of connection points: 2
#     Edge 27, Type (0, 0), BuildingBlock: KIFKEQ_clean_linker_1, # of connection points: 2
#     Edge 28, Type (0, 0), BuildingBlock: KIFKEQ_clean_linker_1, # of connection points: 2
#     Edge 29, Type (0, 0), BuildingBlock: KIFKEQ_clean_linker_1, # of connection points: 2
#     Edge 30, Type (0, 0), BuildingBlock: KIFKEQ_clean_linker_1, # of connection points: 2
#     Edge 31, Type (0, 0), BuildingBlock: KIFKEQ_clean_linker_1, # of connection points: 2
#     Edge 32, Type (0, 0), BuildingBlock: KIFKEQ_clean_linker_1, # of connection points: 2
#     Edge 33, Type (0, 0), BuildingBlock: KIFKEQ_clean_linker_1, # of connection points: 2
#     Edge 34, Type (0, 0), BuildingBlock: KIFKEQ_clean_linker_1, # of connection points: 2
#     Edge 35, Type (0, 0), BuildingBlock: KIFKEQ_clean_linker_1, # of connection points: 2
#     Edge 36, Type (0, 0), BuildingBlock: KIFKEQ_clean_linker_1, # of connection points: 2
#     Edge 37, Type (0, 0), BuildingBlock: KIFKEQ_clean_linker_1, # of connection points: 2
#     Edge 38, Type (0, 0), BuildingBlock: KIFKEQ_clean_linker_1, # of connection points: 2
#     Edge 39, Type (0, 0), BuildingBlock: KIFKEQ_clean_linker_1, # of connection points: 2
#     Edge 40, Type (0, 0), BuildingBlock: KIFKEQ_clean_linker_1, # of connection points: 2
#     Edge 41, Type (0, 0), BuildingBlock: KIFKEQ_clean_linker_1, # of connection points: 2
#     Edge 42, Type (0, 0), BuildingBlock: KIFKEQ_clean_linker_1, # of connection points: 2
#     Edge 43, Type (0, 0), BuildingBlock: KIFKEQ_clean_linker_1, # of connection points: 2
#     Edge 44, Type (0, 0), BuildingBlock: KIFKEQ_clean_linker_1, # of connection points: 2
#     Edge 45, Type (0, 0), BuildingBlock: KIFKEQ_clean_linker_1, # of connection points: 2
#     Edge 46, Type (0, 0), BuildingBlock: KIFKEQ_clean_linker_1, # of connection points: 2
#     Edge 47, Type (0, 0), BuildingBlock: KIFKEQ_clean_linker_1, # of connection points: 2
# Relax obj value: 0.052
# Max RMSD: 0.121
# Mean RMSD: 0.121
data_MOF--net-ume--node1-QUQFOY_clean_sbu_1--edge1-KIFKEQ_clean_linker_1
_symmetry_space_group_name_H-M    P1
_symmetry_Int_Tables_number       1
_symmetry_cell_setting            triclinic
loop_
_symmetry_equiv_pos_as_xyz
'x, y, z'
_cell_length_a     28.989953
_cell_length_b     29.000636
_cell_length_c     116.03206
_cell_angle_alpha  89.992251
_cell_angle_beta   89.976175
_cell_angle_gamma 90.010218
loop_
_atom_site_label
_atom_site_type_symbol
_atom_site_fract_x
_atom_site_fract_y
_atom_site_fract_z
_atom_type_partial_charge
O0 O 0.25267 0.10279 0.34123 0.0
Cd1 Cd 0.25279 0.0802 0.32431 0.0
Cd2 Cd 0.29083 0.16335 0.32193 0.0
O3 O 0.2701 0.17617 0.33871 0.0
O4 O 0.20646 0.02864 0.32382 0.0
O5 O 0.19633 0.09492 0.31482 0.0
C6 C 0.18021 0.05511 0.31775 0.0
C7 C 0.27218 0.20527 0.30545 0.0
C8 C 0.25852 0.1431 0.34533 0.0
C9 C 0.35247 0.08155 0.31808 0.0
O10 O 0.34965 0.12435 0.3203 0.0
O11 O 0.31611 0.05678 0.31796 0.0
O12 O 0.30233 0.22049 0.31272 0.0
O13 O 0.25006 0.16801 0.30805 0.0
O14 O 0.92238 0.75016 0.59146 0.0
Cd15 Cd 0.94576 0.75078 0.5746 0.0
Cd16 Cd 0.86276 0.78891 0.5721 0.0
O17 O 0.84903 0.76733 0.58878 0.0
O18 O 0.99737 0.70449 0.57418 0.0
O19 O 0.93146 0.69455 0.56499 0.0
C20 C 0.97114 0.67837 0.568 0.0
C21 C 0.82174 0.77095 0.55544 0.0
C22 C 0.88185 0.75563 0.59546 0.0
C23 C 0.94476 0.85065 0.5686 0.0
O24 O 0.90188 0.8478 0.57075 0.0
O25 O 0.96948 0.81428 0.56842 0.0
O26 O 0.80612 0.80077 0.56274 0.0
O27 O 0.85888 0.74875 0.55809 0.0
O28 O 0.27195 0.42252 0.84153 0.0
Cd29 Cd 0.27028 0.4467 0.82483 0.0
Cd30 Cd 0.23267 0.36237 0.82183 0.0
O31 O 0.25307 0.34966 0.83872 0.0
O32 O 0.31555 0.49933 0.82445 0.0
O33 O 0.32625 0.43415 0.81501 0.0
C34 C 0.34184 0.47394 0.8181 0.0
C35 C 0.25562 0.32392 0.80518 0.0
C36 C 0.26563 0.38202 0.84544 0.0
C37 C 0.17025 0.4436 0.81823 0.0
O38 O 0.1733 0.40031 0.81979 0.0
O39 O 0.20606 0.46902 0.81893 0.0
O40 O 0.2264 0.30533 0.8122 0.0
O41 O 0.27439 0.36251 0.80816 0.0
O42 O 0.60464 0.77287 0.09148 0.0
Cd43 Cd 0.58178 0.77167 0.07461 0.0
Cd44 Cd 0.66564 0.73416 0.07224 0.0
O45 O 0.67838 0.75731 0.08884 0.0
O46 O 0.52919 0.81705 0.07408 0.0
O47 O 0.59529 0.82828 0.06507 0.0
C48 C 0.55525 0.84374 0.068 0.0
C49 C 0.70293 0.75516 0.05525 0.0
C50 C 0.64526 0.76845 0.09549 0.0
C51 C 0.5851 0.67125 0.06873 0.0
O52 O 0.62785 0.67438 0.07106 0.0
O53 O 0.56013 0.70747 0.06838 0.0
O54 O 0.72225 0.72715 0.06245 0.0
O55 O 0.66415 0.77369 0.05818 0.0
O56 O 0.25411 0.42252 0.93607 0.0
Cd57 Cd 0.2554 0.44543 0.95293 0.0
Cd58 Cd 0.29298 0.36166 0.9553 0.0
O59 O 0.26969 0.34882 0.93871 0.0
O60 O 0.21007 0.49805 0.95346 0.0
O61 O 0.19878 0.43204 0.96248 0.0
C62 C 0.18335 0.47208 0.95955 0.0
C63 C 0.27207 0.32443 0.9723 0.0
C64 C 0.25849 0.3819 0.93206 0.0
C65 C 0.35588 0.44219 0.95877 0.0
O66 O 0.35278 0.39946 0.95645 0.0
O67 O 0.31963 0.46712 0.95914 0.0
O68 O 0.30006 0.3051 0.96509 0.0
O69 O 0.25351 0.36318 0.96937 0.0
O70 O 0.60422 0.75367 0.18601 0.0
Cd71 Cd 0.58006 0.75522 0.20272 0.0
Cd72 Cd 0.66444 0.79267 0.20574 0.0
O73 O 0.67713 0.77242 0.18884 0.0
O74 O 0.52751 0.70985 0.20312 0.0
O75 O 0.59281 0.69929 0.21252 0.0
C76 C 0.55302 0.68363 0.20945 0.0
C77 C 0.70301 0.76976 0.22237 0.0
C78 C 0.64475 0.75999 0.1821 0.0
C79 C 0.58323 0.85512 0.20937 0.0
O80 O 0.62653 0.85203 0.20781 0.0
O81 O 0.55776 0.81936 0.20866 0.0
O82 O 0.72154 0.79899 0.21535 0.0
O83 O 0.66441 0.75095 0.21941 0.0
O84 O 0.27339 0.10225 0.4361 0.0
Cd85 Cd 0.27228 0.07981 0.45302 0.0
Cd86 Cd 0.23551 0.16408 0.45529 0.0
O87 O 0.25846 0.17616 0.43864 0.0
O88 O 0.31725 0.02686 0.45362 0.0
O89 O 0.32905 0.09307 0.4625 0.0
C90 C 0.34417 0.05281 0.45965 0.0
C91 C 0.25698 0.20144 0.47221 0.0
C92 C 0.26917 0.14279 0.43202 0.0
C93 C 0.17196 0.08434 0.45903 0.0
O94 O 0.17541 0.12694 0.45659 0.0
O95 O 0.20797 0.05906 0.45939 0.0
O96 O 0.22908 0.22091 0.46501 0.0
O97 O 0.27521 0.16252 0.4693 0.0
O98 O 0.92187 0.77621 0.68592 0.0
Cd99 Cd 0.94627 0.77596 0.70261 0.0
Cd100 Cd 0.86352 0.73643 0.70582 0.0
O101 O 0.84984 0.75444 0.68882 0.0
O102 O 0.99711 0.82296 0.70286 0.0
O103 O 0.93176 0.83158 0.71241 0.0
C104 C 0.971 0.84842 0.70924 0.0
C105 C 0.82042 0.75563 0.72208 0.0
C106 C 0.88167 0.76795 0.68204 0.0
C107 C 0.94731 0.67682 0.70954 0.0
O108 O 0.90386 0.67885 0.7082 0.0
O109 O 0.97183 0.71309 0.70853 0.0
O110 O 0.8064 0.72431 0.71498 0.0
O111 O 0.85699 0.77873 0.71939 0.0
O112 O 0.75068 0.60513 0.84145 0.0
Cd113 Cd 0.75082 0.58061 0.82477 0.0
Cd114 Cd 0.79046 0.66323 0.82151 0.0
O115 O 0.77264 0.67705 0.83852 0.0
O116 O 0.70378 0.52981 0.82457 0.0
O117 O 0.69514 0.59503 0.81499 0.0
C118 C 0.6783 0.55583 0.81818 0.0
C119 C 0.77124 0.7063 0.80525 0.0
C120 C 0.75909 0.64532 0.84532 0.0
C121 C 0.84994 0.57935 0.81781 0.0
O122 O 0.84799 0.6228 0.81912 0.0
O123 O 0.81364 0.5549 0.81886 0.0
O124 O 0.80265 0.72026 0.81234 0.0
O125 O 0.74807 0.66979 0.80796 0.0
O126 O 0.42304 0.25122 0.09159 0.0
Cd127 Cd 0.44595 0.25243 0.07472 0.0
Cd128 Cd 0.36219 0.29003 0.07236 0.0
O129 O 0.3493 0.26668 0.08895 0.0
O130 O 0.49849 0.20699 0.07417 0.0
O131 O 0.43238 0.19587 0.06518 0.0
C132 C 0.47241 0.18036 0.0681 0.0
C133 C 0.32506 0.26939 0.05534 0.0
C134 C 0.38239 0.25557 0.0956 0.0
C135 C 0.44277 0.35287 0.06887 0.0
O136 O 0.40004 0.34979 0.07123 0.0
O137 O 0.46768 0.31661 0.06849 0.0
O138 O 0.30568 0.29728 0.06256 0.0
O139 O 0.36375 0.25072 0.05827 0.0
O140 O 0.77261 0.92273 0.34129 0.0
Cd141 Cd 0.77155 0.94508 0.32436 0.0
Cd142 Cd 0.73475 0.86075 0.32212 0.0
O143 O 0.75758 0.84882 0.33878 0.0
O144 O 0.81651 0.99807 0.32375 0.0
O145 O 0.82839 0.93184 0.31488 0.0
C146 C 0.84348 0.97211 0.31773 0.0
C147 C 0.75649 0.82318 0.30524 0.0
C148 C 0.76833 0.88222 0.34538 0.0
C149 C 0.67123 0.9405 0.31833 0.0
O150 O 0.67465 0.89789 0.32077 0.0
O151 O 0.70725 0.96578 0.31798 0.0
O152 O 0.72848 0.80379 0.31244 0.0
O153 O 0.77463 0.86218 0.30813 0.0
O154 O 0.10453 0.27173 0.5914 0.0
Cd155 Cd 0.0817 0.2701 0.57453 0.0
Cd156 Cd 0.16595 0.23321 0.57223 0.0
O157 O 0.17841 0.25672 0.58881 0.0
O158 O 0.02865 0.31499 0.57395 0.0
O159 O 0.09463 0.32672 0.56494 0.0
C160 C 0.05444 0.34185 0.56786 0.0
C161 C 0.20304 0.25446 0.55523 0.0
C162 C 0.14516 0.26771 0.59543 0.0
C163 C 0.08606 0.16958 0.56871 0.0
O164 O 0.12873 0.17307 0.57108 0.0
O165 O 0.06079 0.20559 0.56831 0.0
O166 O 0.22264 0.22669 0.56245 0.0
O167 O 0.16408 0.27262 0.55816 0.0
O168 O 0.75311 0.92221 0.43619 0.0
Cd169 Cd 0.75337 0.94483 0.4531 0.0
Cd170 Cd 0.79138 0.86174 0.45545 0.0
O171 O 0.77033 0.84879 0.4387 0.0
O172 O 0.70711 0.99642 0.4536 0.0
O173 O 0.69695 0.93015 0.46262 0.0
C174 C 0.68085 0.96996 0.45968 0.0
C175 C 0.77307 0.82017 0.47201 0.0
C176 C 0.75877 0.88187 0.43209 0.0
C177 C 0.85309 0.94348 0.45924 0.0
O178 O 0.85025 0.90071 0.45698 0.0
O179 O 0.81674 0.96823 0.45942 0.0
O180 O 0.80301 0.80477 0.46471 0.0
O181 O 0.7509 0.85738 0.4694 0.0
O182 O 0.10398 0.25475 0.68596 0.0
Cd183 Cd 0.07972 0.25644 0.70266 0.0
Cd184 Cd 0.16408 0.29404 0.70568 0.0
O185 O 0.17685 0.27365 0.68879 0.0
O186 O 0.02711 0.21113 0.70303 0.0
O187 O 0.0923 0.20051 0.71248 0.0
C188 C 0.05252 0.18487 0.70938 0.0
C189 C 0.20253 0.2711 0.72233 0.0
C190 C 0.14451 0.26108 0.68206 0.0
C191 C 0.08279 0.35645 0.70926 0.0
O192 O 0.1261 0.35339 0.70771 0.0
O193 O 0.05735 0.32065 0.70855 0.0
O194 O 0.22112 0.30033 0.71531 0.0
O195 O 0.16393 0.25234 0.71935 0.0
O196 O 0.7758 0.60491 0.93587 0.0
Cd197 Cd 0.77465 0.58187 0.95273 0.0
Cd198 Cd 0.73696 0.66555 0.95515 0.0
O199 O 0.7602 0.67857 0.93856 0.0
O200 O 0.82012 0.52936 0.95325 0.0
O201 O 0.83124 0.59537 0.96228 0.0
C202 C 0.84675 0.55536 0.95935 0.0
C203 C 0.75769 0.70258 0.97218 0.0
C204 C 0.77134 0.64556 0.93188 0.0
C205 C 0.67419 0.58492 0.95862 0.0
O206 O 0.67722 0.62765 0.95629 0.0
O207 O 0.71049 0.56005 0.95897 0.0
O208 O 0.72973 0.72197 0.96498 0.0
O209 O 0.77637 0.66393 0.96922 0.0
O210 O 0.42301 0.27486 0.18607 0.0
Cd211 Cd 0.44734 0.27467 0.20277 0.0
Cd212 Cd 0.36458 0.23527 0.20597 0.0
O213 O 0.35093 0.25325 0.18897 0.0
O214 O 0.49815 0.32169 0.20303 0.0
O215 O 0.43273 0.33027 0.21255 0.0
C216 C 0.47199 0.34713 0.2094 0.0
C217 C 0.32148 0.25445 0.22223 0.0
C218 C 0.38279 0.26666 0.18219 0.0
C219 C 0.44828 0.1756 0.20972 0.0
O220 O 0.40485 0.17765 0.20836 0.0
O221 O 0.47284 0.21183 0.20871 0.0
O222 O 0.30746 0.22315 0.21512 0.0
O223 O 0.35805 0.27756 0.21954 0.0
H224 H 0.91193 0.92054 0.30781 0.0
H225 H 0.88452 0.0555 0.32198 0.0
H226 H 0.99341 0.94043 0.30583 0.0
H227 H 0.96599 0.07522 0.32007 0.0
H228 H 0.13861 0.97175 0.32147 0.0
H229 H 0.05705 0.95278 0.31956 0.0
H230 H 0.03002 0.08949 0.30646 0.0
H231 H 0.11177 0.10862 0.30843 0.0
C232 C 0.92312 0.9547 0.31035 0.0
C233 C 0.89164 0.98634 0.31511 0.0
C234 C 0.96993 0.96597 0.30929 0.0
C235 C 0.98639 1.00931 0.31287 0.0
C236 C 0.95451 0.04168 0.31714 0.0
C237 C 0.90776 0.03029 0.31828 0.0
C238 C 0.11545 0.99758 0.31802 0.0
C239 C 0.13179 0.04178 0.31515 0.0
C240 C 0.06863 0.98663 0.31688 0.0
C241 C 0.03685 0.01968 0.31291 0.0
C242 C 0.05345 0.06339 0.30966 0.0
C243 C 0.1004 0.07424 0.31072 0.0
H244 H 0.0545 0.63683 0.57177 0.0
H245 H 0.91782 0.60999 0.55859 0.0
H246 H 0.07356 0.55532 0.56982 0.0
H247 H 0.93703 0.52829 0.55659 0.0
H248 H 0.106 0.41037 0.55795 0.0
H249 H 0.08607 0.49182 0.55601 0.0
H250 H 0.95121 0.46422 0.57023 0.0
H251 H 0.97098 0.38278 0.57212 0.0
C252 C 0.02873 0.61368 0.56828 0.0
C253 C 0.98457 0.63001 0.56538 0.0
C254 C 0.03974 0.5669 0.56712 0.0
C255 C 1.00676 0.53513 0.5631 0.0
C256 C 0.96307 0.55172 0.55983 0.0
C257 C 0.95218 0.59863 0.5609 0.0
C258 C 0.07182 0.4215 0.5605 0.0
C259 C 0.04017 0.38998 0.56524 0.0
C260 C 0.06052 0.4683 0.55946 0.0
C261 C 0.01716 0.4847 0.56304 0.0
C262 C 0.98477 0.45278 0.56729 0.0
C263 C 0.99619 0.40605 0.56842 0.0
H264 H 0.6363 0.47274 0.82189 0.0
H265 H 0.61046 0.60956 0.80868 0.0
H266 H 0.55472 0.4541 0.81984 0.0
H267 H 0.52863 0.59078 0.80661 0.0
H268 H 0.40975 0.42258 0.8079 0.0
H269 H 0.49127 0.44228 0.80586 0.0
H270 H 0.46461 0.57665 0.82043 0.0
H271 H 0.38313 0.55709 0.82243 0.0
C272 C 0.61335 0.49863 0.81837 0.0
C273 C 0.62995 0.54271 0.81549 0.0
C274 C 0.56654 0.48786 0.81715 0.0
C275 C 0.53504 0.52102 0.81311 0.0
C276 C 0.5519 0.56462 0.80986 0.0
C277 C 0.59886 0.57526 0.81097 0.0
C278 C 0.42111 0.45661 0.8105 0.0
C279 C 0.38988 0.48817 0.81539 0.0
C280 C 0.46792 0.46778 0.80939 0.0
C281 C 0.48458 0.51092 0.81305 0.0
C282 C 0.45293 0.54326 0.81743 0.0
C283 C 0.40619 0.53196 0.81863 0.0
H284 H 0.41992 0.11201 0.05844 0.0
H285 H 0.55578 0.13901 0.07213 0.0
H286 H 0.43934 0.03042 0.05647 0.0
H287 H 0.57505 0.05748 0.07021 0.0
H288 H 0.60769 0.91218 0.05835 0.0
H289 H 0.58825 0.99378 0.05643 0.0
H290 H 0.45258 0.96657 0.07021 0.0
H291 H 0.47187 0.88503 0.07208 0.0
C292 C 0.45416 0.10071 0.06087 0.0
C293 C 0.48623 0.1321 0.06549 0.0
C294 C 0.46517 0.05385 0.05982 0.0
C295 C 0.50865 0.03728 0.06325 0.0
C296 C 0.54139 0.06906 0.06739 0.0
C297 C 0.53026 0.11584 0.06853 0.0
C298 C 0.57345 0.92345 0.0608 0.0
C299 C 0.5414 0.89201 0.06541 0.0
C300 C 0.56243 0.97032 0.05977 0.0
C301 C 0.51896 0.98684 0.06324 0.0
C302 C 0.48624 0.95503 0.06737 0.0
C303 C 0.49737 0.90823 0.06848 0.0
H304 H 0.11476 0.41975 0.96918 0.0
H305 H 0.14221 0.55549 0.95547 0.0
H306 H 0.03314 0.43931 0.97107 0.0
H307 H 0.06066 0.5749 0.95732 0.0
H308 H 0.91512 0.60773 0.96904 0.0
H309 H 0.9967 0.5882 0.97104 0.0
H310 H 0.96956 0.45261 0.95725 0.0
H311 H 0.88804 0.472 0.9553 0.0
C312 C 0.10355 0.454 0.96672 0.0
C313 C 0.13508 0.48599 0.96213 0.0
C314 C 0.05668 0.46508 0.96774 0.0
C315 C 0.04023 0.50857 0.96428 0.0
C316 C 0.07214 0.54124 0.96016 0.0
C317 C 0.11894 0.53003 0.95906 0.0
C318 C 0.9264 0.57349 0.9666 0.0
C319 C 0.89499 0.54149 0.96196 0.0
C320 C 0.97326 0.56242 0.96767 0.0
C321 C 0.98979 0.51894 0.96424 0.0
C322 C 0.958 0.48628 0.96007 0.0
C323 C 0.91123 0.49746 0.95891 0.0
H324 H 0.41804 0.41481 0.2189 0.0
H325 H 0.55506 0.38929 0.20573 0.0
H326 H 0.43661 0.49665 0.22098 0.0
H327 H 0.57348 0.4709 0.20778 0.0
H328 H 0.46996 0.64211 0.20513 0.0
H329 H 0.45062 0.56061 0.20715 0.0
H330 H 0.58507 0.53441 0.22174 0.0
H331 H 0.60456 0.61594 0.21968 0.0
C332 C 0.45234 0.42649 0.21662 0.0
C333 C 0.485 0.39548 0.2121 0.0
C334 C 0.46286 0.47346 0.21774 0.0
C335 C 0.50645 0.49041 0.21449 0.0
C336 C 0.53973 0.459 0.21046 0.0
C337 C 0.52908 0.41218 0.20924 0.0
C338 C 0.49515 0.61914 0.20894 0.0
C339 C 0.53891 0.63558 0.21218 0.0
C340 C 0.48398 0.5724 0.21015 0.0
C341 C 0.51641 0.54088 0.21454 0.0
C342 C 0.55951 0.55767 0.2182 0.0
C343 C 0.57055 0.60449 0.21708 0.0
H344 H 0.38525 0.96947 0.4554 0.0
H345 H 0.41252 0.1044 0.4696 0.0
H346 H 0.46671 0.94978 0.45733 0.0
H347 H 0.49399 0.08456 0.4716 0.0
H348 H 0.61239 0.91645 0.46902 0.0
H349 H 0.53063 0.93555 0.47098 0.0
H350 H 0.55772 0.07226 0.45787 0.0
H351 H 0.63929 0.05333 0.45597 0.0
C352 C 0.40846 0.99468 0.45912 0.0
C353 C 0.39231 0.03861 0.46229 0.0
C354 C 0.4552 0.98331 0.46027 0.0
C355 C 0.48703 0.0157 0.46455 0.0
C356 C 0.47054 0.05901 0.46813 0.0
C357 C 0.42374 0.07026 0.46706 0.0
C358 C 0.60103 0.95082 0.46672 0.0
C359 C 0.63244 0.9833 0.46229 0.0
C360 C 0.55408 0.96165 0.46778 0.0
C361 C 0.53749 1.00536 0.46453 0.0
C362 C 0.56929 0.03842 0.46056 0.0
C363 C 0.61611 0.02748 0.45942 0.0
H364 H 0.96942 0.14349 0.70503 0.0
H365 H 0.10396 0.11703 0.71958 0.0
H366 H 0.94995 0.06201 0.70702 0.0
H367 H 0.08436 0.03551 0.7216 0.0
H368 H 0.05411 0.89049 0.70556 0.0
H369 H 0.07266 0.97207 0.70762 0.0
H370 H 0.93584 0.99799 0.72083 0.0
H371 H 0.91715 0.91618 0.71874 0.0
C372 C 0.99457 0.12046 0.70884 0.0
C373 C 0.03835 0.13682 0.71209 0.0
C374 C 0.98333 0.07373 0.71003 0.0
C375 C 0.01571 0.04213 0.7144 0.0
C376 C 0.05883 0.05883 0.71807 0.0
C377 C 0.06994 0.10564 0.71698 0.0
C378 C 0.02817 0.91341 0.70907 0.0
C379 C 0.98408 0.89677 0.71194 0.0
C380 C 0.03889 0.96022 0.7103 0.0
C381 C 1.00566 0.99167 0.71434 0.0
C382 C 0.96205 0.97477 0.71758 0.0
C383 C 0.95146 0.92781 0.71646 0.0
H384 H 0.64846 0.02684 0.3103 0.0
H385 H 0.58809 0.89956 0.32241 0.0
H386 H 0.57149 0.06014 0.30841 0.0
H387 H 0.51177 0.9332 0.32104 0.0
H388 H 0.37438 0.99342 0.31107 0.0
H389 H 0.45118 0.95941 0.30935 0.0
H390 H 0.512 0.08863 0.32005 0.0
H391 H 0.43598 0.1228 0.32126 0.0
C392 C 0.61882 1.00597 0.31256 0.0
C393 C 0.6246 0.96058 0.31654 0.0
C394 C 0.57459 0.02512 0.31155 0.0
C395 C 0.53506 0.99957 0.31464 0.0
C396 C 0.54102 0.95385 0.31839 0.0
C397 C 0.58506 0.93459 0.31926 0.0
C398 C 0.40423 0.01461 0.31293 0.0
C399 C 0.39886 0.06081 0.31633 0.0
C400 C 0.44836 0.99506 0.31202 0.0
C401 C 0.48815 0.0211 0.3146 0.0
C402 C 0.48255 0.06755 0.31777 0.0
C403 C 0.43865 0.08714 0.31856 0.0
H404 H 0.03301 0.87269 0.56167 0.0
H405 H 0.90364 0.9341 0.57195 0.0
H406 H 0.06704 0.94949 0.56 0.0
H407 H 0.93784 1.01013 0.5708 0.0
H408 H 0.99947 0.14658 0.56086 0.0
H409 H 0.96613 0.06959 0.55911 0.0
H410 H 0.09336 1.0102 0.57165 0.0
H411 H 0.12703 0.08655 0.57288 0.0
C412 C 1.01183 0.9025 0.56356 0.0
C413 C 0.96561 0.89707 0.56696 0.0
C414 C 0.03139 0.94663 0.56269 0.0
C415 C 1.00536 0.98638 0.5653 0.0
C416 C 0.95891 0.98072 0.5685 0.0
C417 C 0.93931 0.93682 0.56925 0.0
C418 C 0.0204 0.11701 0.56313 0.0
C419 C 0.06588 0.1229 0.56704 0.0
C420 C 1.00121 0.07277 0.5622 0.0
C421 C 0.02684 0.03332 0.5653 0.0
C422 C 0.07265 0.03938 0.56899 0.0
C423 C 0.09193 0.08344 0.56979 0.0
H424 H 0.09186 0.39986 0.81114 0.0
H425 H 0.14389 0.53367 0.821 0.0
H426 H 0.01455 0.4317 0.80937 0.0
H427 H 0.06622 0.56527 0.81975 0.0
H428 H 0.92775 0.62013 0.80944 0.0
H429 H 1.00474 0.5874 0.80792 0.0
H430 H 0.95309 0.45739 0.82084 0.0
H431 H 0.87561 0.48979 0.82184 0.0
C432 C 0.08678 0.43617 0.81292 0.0
C433 C 0.12408 0.46421 0.81624 0.0
C434 C 0.04227 0.4544 0.812 0.0
C435 C 0.03369 0.50107 0.81451 0.0
C436 C 0.07133 0.52935 0.81757 0.0
C437 C 0.116 0.51121 0.81834 0.0
C438 C 0.93275 0.58436 0.81182 0.0
C439 C 0.89555 0.5576 0.8158 0.0
C440 C 0.97708 0.56565 0.81104 0.0
C441 C 0.98562 0.51981 0.81438 0.0
C442 C 0.948 0.49263 0.81804 0.0
C443 C 0.90346 0.51122 0.81866 0.0
H444 H 0.62599 0.58788 0.07248 0.0
H445 H 0.49765 0.64898 0.06134 0.0
H446 H 0.59177 0.51178 0.07131 0.0
H447 H 0.46368 0.57221 0.05968 0.0
H448 H 0.40206 0.43627 0.0727 0.0
H449 H 0.43629 0.51234 0.07145 0.0
H450 H 0.56409 0.45181 0.05962 0.0
H451 H 0.53011 0.37506 0.06136 0.0
C452 C 0.59058 0.58507 0.06959 0.0
C453 C 0.56451 0.62475 0.06707 0.0
C454 C 0.57097 0.54115 0.06883 0.0
C455 C 0.52479 0.53545 0.06541 0.0
C456 C 0.49908 0.57513 0.06255 0.0
C457 C 0.51862 0.61923 0.06343 0.0
C458 C 0.43741 0.43905 0.06975 0.0
C459 C 0.46339 0.39935 0.06719 0.0
C460 C 0.45702 0.48296 0.06895 0.0
C461 C 0.50312 0.48862 0.06544 0.0
C462 C 0.52875 0.44893 0.06255 0.0
C463 C 0.50921 0.40483 0.06348 0.0
H464 H 0.43932 0.40147 0.95496 0.0
H465 H 0.37808 0.52958 0.96621 0.0
H466 H 0.51541 0.43577 0.95612 0.0
H467 H 0.45484 0.56363 0.96786 0.0
H468 H 0.59069 0.62554 0.95485 0.0
H469 H 0.51464 0.5912 0.95609 0.0
H470 H 0.57541 0.46342 0.96781 0.0
H471 H 0.65214 0.4975 0.96607 0.0
C472 C 0.4421 0.43685 0.95787 0.0
C473 C 0.40239 0.46282 0.96042 0.0
C474 C 0.48601 0.4565 0.95862 0.0
C475 C 0.49167 0.50264 0.96207 0.0
C476 C 0.45196 0.52826 0.96497 0.0
C477 C 0.40786 0.50867 0.96409 0.0
C478 C 0.58797 0.59017 0.95777 0.0
C479 C 0.62773 0.56423 0.9603 0.0
C480 C 0.54408 0.57049 0.95857 0.0
C481 C 0.53849 0.52437 0.96204 0.0
C482 C 0.57824 0.49877 0.9649 0.0
C483 C 0.62232 0.51838 0.96398 0.0
H484 H 0.62704 0.9333 0.21656 0.0
H485 H 0.49322 0.88167 0.20655 0.0
H486 H 0.59536 1.01066 0.21832 0.0
H487 H 0.46178 0.95939 0.2078 0.0
H488 H 0.40712 0.09796 0.21806 0.0
H489 H 0.43962 0.02091 0.21962 0.0
H490 H 0.57006 0.07214 0.20683 0.0
H491 H 0.53787 0.14968 0.20579 0.0
C492 C 0.59076 0.93848 0.21474 0.0
C493 C 0.56267 0.90129 0.21138 0.0
C494 C 0.57263 0.98301 0.21567 0.0
C495 C 0.526 0.99172 0.21311 0.0
C496 C 0.49767 0.95418 0.21002 0.0
C497 C 0.51571 0.90948 0.20924 0.0
C498 C 0.44293 0.09285 0.21571 0.0
C499 C 0.46988 0.12995 0.21176 0.0
C500 C 0.46151 0.04849 0.21652 0.0
C501 C 0.50741 0.03982 0.21322 0.0
C502 C 0.53477 0.07734 0.20959 0.0
C503 C 0.5163 0.12192 0.20895 0.0
H504 H 0.93655 0.90228 0.45595 0.0
H505 H 0.87509 0.0315 0.46631 0.0
H506 H 1.0126 0.93639 0.45717 0.0
H507 H 0.95192 0.06544 0.46804 0.0
H508 H 0.08887 0.12538 0.45498 0.0
H509 H 1.01252 0.09177 0.45633 0.0
H510 H 0.07208 0.96464 0.46886 0.0
H511 H 0.14909 0.99791 0.467 0.0
C512 C 0.93926 0.93789 0.45869 0.0
C513 C 0.8995 0.9642 0.46097 0.0
C514 C 0.98317 0.95744 0.45948 0.0
C515 C 0.98882 1.00382 0.46271 0.0
C516 C 0.94905 0.02984 0.46533 0.0
C517 C 0.90492 1.01033 0.46442 0.0
C518 C 0.08581 0.09031 0.4581 0.0
C519 C 0.12531 0.06426 0.46081 0.0
C520 C 0.04174 0.07108 0.45897 0.0
C521 C 0.03574 0.02532 0.46269 0.0
C522 C 0.07523 0.99969 0.46575 0.0
C523 C 0.11948 0.01883 0.46476 0.0
H524 H 0.99274 0.38286 0.70641 0.0
H525 H 0.12648 0.4348 0.71638 0.0
H526 H 0.96118 0.46054 0.70761 0.0
H527 H 0.09468 0.51211 0.7181 0.0
H528 H 0.03692 0.65103 0.70558 0.0
H529 H 0.06923 0.57354 0.70662 0.0
H530 H 0.93889 0.52207 0.71941 0.0
H531 H 0.90627 0.59907 0.71785 0.0
C532 C 0.01519 0.41073 0.70908 0.0
C533 C 0.06216 0.40262 0.71123 0.0
C534 C 0.99707 0.4554 0.70983 0.0
C535 C 0.02534 0.49303 0.7129 0.0
C536 C 0.07198 0.48441 0.71546 0.0
C537 C 0.09019 0.4399 0.71456 0.0
C538 C 0.0154 0.62322 0.70874 0.0
C539 C 0.96897 0.63118 0.71156 0.0
C540 C 0.03394 0.57867 0.70938 0.0
C541 C 1.00664 0.5411 0.71301 0.0
C542 C 0.96074 0.54969 0.7163 0.0
C543 C 0.94209 0.59403 0.71551 0.0
H544 H 0.22603 0.08202 0.36116 0.0
H545 H 0.28477 0.21853 0.35827 0.0
H546 H 0.23034 0.08702 0.382 0.0
H547 H 0.28932 0.2233 0.37936 0.0
H548 H 0.24527 0.21895 0.41907 0.0
H549 H 0.24122 0.22389 0.39797 0.0
H550 H 0.29696 0.08626 0.39538 0.0
H551 H 0.30075 0.08109 0.41623 0.0
C552 C 0.23957 0.11333 0.36496 0.0
C553 C 0.25557 0.14966 0.358 0.0
C554 C 0.24228 0.11606 0.37694 0.0
C555 C 0.26108 0.15516 0.38233 0.0
C556 C 0.27481 0.19267 0.37545 0.0
C557 C 0.27217 0.18991 0.36338 0.0
C558 C 0.2573 0.19007 0.41398 0.0
C559 C 0.27278 0.1494 0.41936 0.0
C560 C 0.25495 0.19292 0.4019 0.0
C561 C 0.26787 0.1551 0.39504 0.0
C562 C 0.28566 0.11557 0.40044 0.0
C563 C 0.28807 0.11274 0.41242 0.0
H564 H 0.80489 0.77908 0.60823 0.0
H565 H 0.94317 0.72481 0.61143 0.0
H566 H 0.79913 0.78322 0.62934 0.0
H567 H 0.93723 0.72899 0.63226 0.0
H568 H 0.80693 0.73758 0.66934 0.0
H569 H 0.80143 0.73268 0.64824 0.0
H570 H 0.93414 0.799 0.64519 0.0
H571 H 0.93979 0.80397 0.666 0.0
C572 C 0.83369 0.76737 0.6134 0.0
C573 C 0.87473 0.7522 0.60811 0.0
C574 C 0.83035 0.76975 0.62547 0.0
C575 C 0.86807 0.75728 0.63242 0.0
C576 C 0.90796 0.73981 0.62712 0.0
C577 C 0.91124 0.73724 0.61515 0.0
C578 C 0.83453 0.75176 0.66414 0.0
C579 C 0.87409 0.7706 0.66939 0.0
C580 C 0.83135 0.74892 0.65208 0.0
C581 C 0.86779 0.76461 0.64509 0.0
C582 C 0.90599 0.78565 0.65035 0.0
C583 C 0.90908 0.78866 0.66231 0.0
H584 H 0.30171 0.44082 0.86129 0.0
H585 H 0.23752 0.30682 0.85828 0.0
H586 H 0.29816 0.4352 0.88213 0.0
H587 H 0.23394 0.30138 0.8794 0.0
H588 H 0.28133 0.30511 0.91918 0.0
H589 H 0.28448 0.29958 0.89807 0.0
H590 H 0.22983 0.43758 0.89539 0.0
H591 H 0.22674 0.44331 0.91623 0.0
C592 C 0.28718 0.40988 0.86506 0.0
C593 C 0.26933 0.37453 0.85808 0.0
C594 C 0.28497 0.4068 0.87703 0.0
C595 C 0.26489 0.3683 0.88239 0.0
C596 C 0.24944 0.33155 0.87549 0.0
C597 C 0.25153 0.33469 0.86341 0.0
C598 C 0.26932 0.33394 0.91407 0.0
C599 C 0.25437 0.3749 0.91942 0.0
C600 C 0.27114 0.33074 0.90199 0.0
C601 C 0.25829 0.3685 0.8951 0.0
C602 C 0.241 0.4083 0.90047 0.0
C603 C 0.23904 0.41145 0.91245 0.0
H604 H 0.72197 0.74535 0.10837 0.0
H605 H 0.58379 0.80009 0.11133 0.0
H606 H 0.72737 0.74188 0.12948 0.0
H607 H 0.58939 0.79669 0.13217 0.0
H608 H 0.58584 0.72439 0.16621 0.0
H609 H 0.59153 0.72827 0.14538 0.0
H610 H 0.7256 0.792 0.14819 0.0
H611 H 0.7201 0.78807 0.16931 0.0
C612 C 0.69312 0.75733 0.11349 0.0
C613 C 0.6522 0.77241 0.10814 0.0
C614 C 0.69625 0.75532 0.12556 0.0
C615 C 0.65844 0.76812 0.13246 0.0
C616 C 0.61869 0.78555 0.12709 0.0
C617 C 0.61561 0.7877 0.11511 0.0
C618 C 0.61685 0.73888 0.16246 0.0
C619 C 0.65226 0.75649 0.16947 0.0
C620 C 0.61997 0.74129 0.15049 0.0
C621 C 0.65857 0.76133 0.14516 0.0
C622 C 0.69536 0.77653 0.15208 0.0
C623 C 0.69219 0.77424 0.16416 0.0
H624 H 0.79001 0.71993 0.85797 0.0
H625 H 0.72286 0.58753 0.8614 0.0
H626 H 0.79514 0.72552 0.87907 0.0
H627 H 0.72805 0.59327 0.8822 0.0
H628 H 0.74887 0.72268 0.91909 0.0
H629 H 0.74488 0.72833 0.89798 0.0
H630 H 0.79797 0.5898 0.89512 0.0
H631 H 0.80198 0.58396 0.91595 0.0
C632 C 0.77571 0.69245 0.86319 0.0
C633 C 0.75659 0.65299 0.85797 0.0
C634 C 0.77869 0.69568 0.87525 0.0
C635 C 0.76285 0.65939 0.88226 0.0
C636 C 0.74153 0.6213 0.87702 0.0
C637 C 0.73839 0.61816 0.86507 0.0
C638 C 0.76039 0.69376 0.91393 0.0
C639 C 0.77515 0.65263 0.91924 0.0
C640 C 0.75809 0.69704 0.90186 0.0
C641 C 0.77024 0.65917 0.89493 0.0
C642 C 0.78739 0.61919 0.90025 0.0
C643 C 0.78986 0.61597 0.91221 0.0
H644 H 0.4409 0.30265 0.16614 0.0
H645 H 0.30804 0.23626 0.1695 0.0
H646 H 0.43516 0.29776 0.14533 0.0
H647 H 0.30247 0.23141 0.1484 0.0
H648 H 0.44405 0.22464 0.11148 0.0
H649 H 0.43832 0.22833 0.13231 0.0
H650 H 0.29982 0.28171 0.12956 0.0
H651 H 0.30536 0.27801 0.10845 0.0
C652 C 0.41018 0.28734 0.16246 0.0
C653 C 0.3752 0.26928 0.16954 0.0
C654 C 0.40704 0.28437 0.1505 0.0
C655 C 0.36882 0.26335 0.14525 0.0
C656 C 0.33241 0.24763 0.15223 0.0
C657 C 0.33563 0.25044 0.1643 0.0
C658 C 0.41208 0.23676 0.11524 0.0
C659 C 0.37538 0.25162 0.10825 0.0
C660 C 0.40892 0.23905 0.12721 0.0
C661 C 0.36898 0.25618 0.13256 0.0
C662 C 0.33108 0.2685 0.12566 0.0
C663 C 0.33429 0.26637 0.11358 0.0
H664 H 0.74467 0.80602 0.35836 0.0
H665 H 0.79981 0.94404 0.36115 0.0
H666 H 0.74085 0.80106 0.37946 0.0
H667 H 0.79626 0.93885 0.382 0.0
H668 H 0.72588 0.94286 0.4163 0.0
H669 H 0.72986 0.93788 0.39545 0.0
H670 H 0.78918 0.80175 0.39802 0.0
H671 H 0.78495 0.80649 0.41912 0.0
C672 C 0.75666 0.83494 0.36344 0.0
C673 C 0.77199 0.87565 0.35804 0.0
C674 C 0.75445 0.83207 0.37551 0.0
C675 C 0.76735 0.86993 0.38237 0.0
C676 C 0.78497 0.90952 0.37696 0.0
C677 C 0.78725 0.91236 0.36498 0.0
C678 C 0.73943 0.91158 0.41248 0.0
C679 C 0.75562 0.87529 0.41942 0.0
C680 C 0.74195 0.90887 0.4005 0.0
C681 C 0.76074 0.86983 0.39509 0.0
C682 C 0.77466 0.83234 0.40195 0.0
C683 C 0.77221 0.83508 0.41403 0.0
H684 H 0.2197 0.28935 0.66923 0.0
H685 H 0.08584 0.2248 0.66621 0.0
H686 H 0.22521 0.29288 0.64812 0.0
H687 H 0.09154 0.22827 0.64537 0.0
H688 H 0.08338 0.29918 0.61122 0.0
H689 H 0.08895 0.29628 0.63207 0.0
H690 H 0.22736 0.24247 0.62947 0.0
H691 H 0.22199 0.24545 0.60836 0.0
C692 C 0.19188 0.27525 0.6641 0.0
C693 C 0.15205 0.25738 0.66943 0.0
C694 C 0.19506 0.27731 0.65202 0.0
C695 C 0.15837 0.26174 0.64511 0.0
C696 C 0.11989 0.24158 0.65047 0.0
C697 C 0.11677 0.23941 0.66244 0.0
C698 C 0.11529 0.28711 0.61502 0.0
C699 C 0.15202 0.27196 0.60808 0.0
C700 C 0.11836 0.28525 0.627 0.0
C701 C 0.15822 0.26825 0.6324 0.0
C702 C 0.19614 0.25558 0.62553 0.0
C703 C 0.19303 0.25731 0.61346 0.0
H704 H 0.3319 0.2643 0.29493 0.0
H705 H 0.20345 0.19216 0.28958 0.0
H706 H 0.33434 0.28469 0.2747 0.0
H707 H 0.20412 0.21498 0.26936 0.0
H708 H 0.26281 0.19443 0.23276 0.0
H709 H 0.24245 0.1919 0.25298 0.0
H710 H 0.31092 0.32277 0.25829 0.0
H711 H 0.33373 0.32358 0.23806 0.0
C712 C 0.30329 0.25411 0.28949 0.0
C713 C 0.26779 0.22611 0.29384 0.0
C714 C 0.30451 0.26606 0.27782 0.0
C715 C 0.26976 0.25102 0.27021 0.0
C716 C 0.23225 0.22614 0.27482 0.0
C717 C 0.23155 0.2134 0.28646 0.0
C718 C 0.27273 0.22317 0.23818 0.0
C719 C 0.3004 0.25891 0.23382 0.0
C720 C 0.26078 0.2219 0.24985 0.0
C721 C 0.27551 0.2568 0.25746 0.0
C722 C 0.30001 0.29453 0.25283 0.0
C723 C 0.31272 0.29532 0.24118 0.0
H724 H 0.70457 0.83338 0.48795 0.0
H725 H 0.8333 0.76182 0.48256 0.0
H726 H 0.70561 0.81095 0.5082 0.0
H727 H 0.83614 0.74187 0.50281 0.0
H728 H 0.83538 0.70267 0.53947 0.0
H729 H 0.8131 0.70376 0.51922 0.0
H730 H 0.74364 0.83405 0.5246 0.0
H731 H 0.76345 0.83117 0.54486 0.0
C732 C 0.73282 0.81236 0.49107 0.0
C733 C 0.76899 0.79965 0.48367 0.0
C734 C 0.73375 0.79986 0.50273 0.0
C735 C 0.77143 0.77524 0.50733 0.0
C736 C 0.80617 0.76028 0.4997 0.0
C737 C 0.80472 0.77198 0.48802 0.0
C738 C 0.81432 0.73089 0.53635 0.0
C739 C 0.80145 0.76697 0.54376 0.0
C740 C 0.80191 0.73184 0.52469 0.0
C741 C 0.7772 0.76946 0.52008 0.0
C742 C 0.76212 0.80413 0.52771 0.0
C743 C 0.77373 0.80266 0.5394 0.0
H744 H 0.16002 0.23053 0.74066 0.0
H745 H 0.28691 0.29759 0.73071 0.0
H746 H 0.18265 0.23473 0.76073 0.0
H747 H 0.31107 0.29961 0.75083 0.0
H748 H 0.29622 0.36642 0.78685 0.0
H749 H 0.29195 0.34386 0.76678 0.0
H750 H 0.22695 0.21552 0.77666 0.0
H751 H 0.22905 0.23961 0.79679 0.0
C752 C 0.19353 0.24485 0.74273 0.0
C753 C 0.22136 0.26432 0.73409 0.0
C754 C 0.20676 0.24706 0.7543 0.0
C755 C 0.24855 0.26819 0.75754 0.0
C756 C 0.27808 0.28424 0.74876 0.0
C757 C 0.26446 0.28269 0.73718 0.0
C758 C 0.28186 0.33294 0.78478 0.0
C759 C 0.26239 0.30512 0.79342 0.0
C760 C 0.27961 0.31976 0.7732 0.0
C761 C 0.25842 0.27801 0.76996 0.0
C762 C 0.24237 0.24848 0.77874 0.0
C763 C 0.24397 0.26206 0.79032 0.0
H764 H 0.73023 0.78638 0.98071 0.0
H765 H 0.79685 0.65922 0.99057 0.0
H766 H 0.72715 0.80979 1.00089 0.0
H767 H 0.79169 0.68117 1.01068 0.0
H768 H 0.78703 0.7281 0.0468 0.0
H769 H 0.81097 0.72558 0.02665 0.0
H770 H 0.68235 0.78994 0.01676 0.0
H771 H 0.65987 0.79453 0.03684 0.0
C772 C 0.74477 0.7637 0.98718 0.0
C773 C 0.76338 0.72076 0.98404 0.0
C774 C 0.74263 0.77689 0.99878 0.0
C775 C 0.75838 0.74712 1.00754 0.0
C776 C 0.7796 0.70543 1.00427 0.0
C777 C 0.78235 0.69261 0.99268 0.0
C778 C 0.76445 0.74272 0.04032 0.0
C779 C 0.72137 0.76112 0.04342 0.0
C780 C 0.77795 0.7409 0.02874 0.0
C781 C 0.74836 0.75677 0.01996 0.0
C782 C 0.7065 0.77776 0.02319 0.0
C783 C 0.69336 0.78019 0.03477 0.0
H784 H 0.36829 0.23027 0.03692 0.0
H785 H 0.24121 0.29698 0.04685 0.0
H786 H 0.34625 0.23553 0.01682 0.0
H787 H 0.21771 0.30018 0.02668 0.0
H788 H 0.29907 0.24031 0.98073 0.0
H789 H 0.30168 0.21634 1.00086 0.0
H790 H 0.23757 0.34499 1.01081 0.0
H791 H 0.23289 0.36752 0.99073 0.0
C792 C 0.3349 0.24481 0.03483 0.0
C793 C 0.3068 0.26377 0.04349 0.0
C794 C 0.32201 0.24762 0.02324 0.0
C795 C 0.28032 0.2689 0.02 0.0
C796 C 0.25061 0.28465 0.02877 0.0
C797 C 0.26386 0.28244 0.04037 0.0
C798 C 0.28453 0.26289 0.98721 0.0
C799 C 0.26617 0.30599 0.98413 0.0
C800 C 0.2864 0.24937 0.99879 0.0
C801 C 0.27062 0.27897 1.00759 0.0
C802 C 0.24967 0.32085 1.00437 0.0
C803 C 0.24719 0.33401 0.9928 0.0
H804 H 0.79593 0.86614 0.28682 0.0
H805 H 0.73008 0.73876 0.29686 0.0
H806 H 0.79152 0.84348 0.26677 0.0
H807 H 0.72778 0.71462 0.27673 0.0
H808 H 0.66067 0.729 0.24071 0.0
H809 H 0.68321 0.73347 0.26078 0.0
H810 H 0.81129 0.79899 0.25088 0.0
H811 H 0.78724 0.79665 0.23075 0.0
C812 C 0.78178 0.83255 0.28477 0.0
C813 C 0.76277 0.80455 0.29344 0.0
C814 C 0.77947 0.8193 0.27321 0.0
C815 C 0.75867 0.77732 0.27 0.0
C816 C 0.74294 0.74772 0.2788 0.0
C817 C 0.74464 0.76134 0.29037 0.0
C818 C 0.69409 0.74351 0.24278 0.0
C819 C 0.72184 0.76307 0.23413 0.0
C820 C 0.70726 0.74588 0.25435 0.0
C821 C 0.74891 0.76729 0.25758 0.0
C822 C 0.7784 0.78341 0.2488 0.0
C823 C 0.76484 0.78167 0.23722 0.0
H824 H 0.22975 0.28542 0.48069 0.0
H825 H 0.29659 0.15842 0.49059 0.0
H826 H 0.22693 0.30907 0.50085 0.0
H827 H 0.29173 0.18063 0.51068 0.0
H828 H 0.28726 0.22781 0.54677 0.0
H829 H 0.31112 0.22533 0.52662 0.0
H830 H 0.1822 0.28912 0.51675 0.0
H831 H 0.15976 0.29366 0.53683 0.0
C832 C 0.24442 0.26283 0.48716 0.0
C833 C 0.26298 0.21985 0.48404 0.0
C834 C 0.24243 0.27616 0.49875 0.0
C835 C 0.25831 0.24651 0.50752 0.0
C836 C 0.27954 0.20481 0.50427 0.0
C837 C 0.28212 0.19183 0.49268 0.0
C838 C 0.26459 0.24232 0.5403 0.0
C839 C 0.22143 0.26052 0.5434 0.0
C840 C 0.27805 0.24053 0.52871 0.0
C841 C 0.24835 0.25623 0.51994 0.0
C842 C 0.20642 0.27707 0.52317 0.0
C843 C 0.19331 0.27946 0.53475 0.0
H844 H 0.76147 0.69583 0.73261 0.0
H845 H 0.83278 0.82476 0.7379 0.0
H846 H 0.74097 0.69346 0.75282 0.0
H847 H 0.80988 0.82409 0.75813 0.0
H848 H 0.83103 0.76523 0.79472 0.0
H849 H 0.83334 0.78575 0.77451 0.0
H850 H 0.70266 0.71684 0.76922 0.0
H851 H 0.70205 0.69392 0.78945 0.0
C852 C 0.77146 0.72455 0.73803 0.0
C853 C 0.79928 0.76018 0.73366 0.0
C854 C 0.75943 0.72337 0.74969 0.0
C855 C 0.77424 0.75824 0.75729 0.0
C856 C 0.79889 0.79587 0.75267 0.0
C857 C 0.81167 0.79658 0.74103 0.0
C858 C 0.80228 0.75524 0.78931 0.0
C859 C 0.76666 0.72742 0.79367 0.0
C860 C 0.80342 0.76728 0.77764 0.0
C861 C 0.76852 0.75248 0.77005 0.0
C862 C 0.7309 0.72782 0.77467 0.0
C863 C 0.73023 0.71504 0.78632 0.0
loop_
_geom_bond_atom_site_label_1
_geom_bond_atom_site_label_2
_geom_bond_distance
_geom_bond_site_symmetry_2
_ccdc_geom_bond_type
O0 Cd1 2.223 . S
O0 C8 1.315 . S
Cd1 O0 2.223 . S
Cd1 O4 2.297 . S
Cd1 O5 2.439 . S
Cd1 O11 2.240 . S
Cd2 O3 2.240 . S
Cd2 O10 2.223 . S
Cd2 O12 2.297 . S
Cd2 O13 2.439 . S
O3 Cd2 2.240 . S
O3 C8 1.279 . S
O4 Cd1 2.297 . S
O4 C6 1.247 . S
O5 Cd1 2.439 . S
O5 C6 1.208 . S
C6 O4 1.247 . S
C6 O5 1.208 . S
C7 O12 1.247 . S
C7 O13 1.208 . S
C8 O0 1.315 . S
C8 O3 1.279 . S
C9 O10 1.315 . S
C9 O11 1.279 . S
O10 Cd2 2.223 . S
O10 C9 1.315 . S
O11 Cd1 2.240 . S
O11 C9 1.279 . S
O12 Cd2 2.297 . S
O12 C7 1.247 . S
O13 Cd2 2.439 . S
O13 C7 1.208 . S
O14 Cd15 2.223 . S
O14 C22 1.315 . S
Cd15 O14 2.223 . S
Cd15 O18 2.297 . S
Cd15 O19 2.439 . S
Cd15 O25 2.240 . S
Cd16 O17 2.240 . S
Cd16 O24 2.223 . S
Cd16 O26 2.297 . S
Cd16 O27 2.439 . S
O17 Cd16 2.240 . S
O17 C22 1.279 . S
O18 Cd15 2.297 . S
O18 C20 1.247 . S
O19 Cd15 2.439 . S
O19 C20 1.208 . S
C20 O18 1.247 . S
C20 O19 1.208 . S
C21 O26 1.247 . S
C21 O27 1.208 . S
C22 O14 1.315 . S
C22 O17 1.279 . S
C23 O24 1.315 . S
C23 O25 1.279 . S
O24 Cd16 2.223 . S
O24 C23 1.315 . S
O25 Cd15 2.240 . S
O25 C23 1.279 . S
O26 Cd16 2.297 . S
O26 C21 1.247 . S
O27 Cd16 2.439 . S
O27 C21 1.208 . S
O28 Cd29 2.223 . S
O28 C36 1.315 . S
Cd29 O28 2.223 . S
Cd29 O32 2.297 . S
Cd29 O33 2.439 . S
Cd29 O39 2.240 . S
Cd30 O31 2.240 . S
Cd30 O38 2.223 . S
Cd30 O40 2.297 . S
Cd30 O41 2.439 . S
O31 Cd30 2.240 . S
O31 C36 1.279 . S
O32 Cd29 2.297 . S
O32 C34 1.247 . S
O33 Cd29 2.439 . S
O33 C34 1.208 . S
C34 O32 1.247 . S
C34 O33 1.208 . S
C35 O40 1.247 . S
C35 O41 1.208 . S
C36 O28 1.315 . S
C36 O31 1.279 . S
C37 O38 1.315 . S
C37 O39 1.279 . S
O38 Cd30 2.223 . S
O38 C37 1.315 . S
O39 Cd29 2.240 . S
O39 C37 1.279 . S
O40 Cd30 2.297 . S
O40 C35 1.247 . S
O41 Cd30 2.439 . S
O41 C35 1.208 . S
O42 Cd43 2.223 . S
O42 C50 1.315 . S
Cd43 O42 2.223 . S
Cd43 O46 2.297 . S
Cd43 O47 2.439 . S
Cd43 O53 2.240 . S
Cd44 O45 2.240 . S
Cd44 O52 2.223 . S
Cd44 O54 2.297 . S
Cd44 O55 2.439 . S
O45 Cd44 2.240 . S
O45 C50 1.279 . S
O46 Cd43 2.297 . S
O46 C48 1.247 . S
O47 Cd43 2.439 . S
O47 C48 1.208 . S
C48 O46 1.247 . S
C48 O47 1.208 . S
C49 O54 1.247 . S
C49 O55 1.208 . S
C50 O42 1.315 . S
C50 O45 1.279 . S
C51 O52 1.315 . S
C51 O53 1.279 . S
O52 Cd44 2.223 . S
O52 C51 1.315 . S
O53 Cd43 2.240 . S
O53 C51 1.279 . S
O54 Cd44 2.297 . S
O54 C49 1.247 . S
O55 Cd44 2.439 . S
O55 C49 1.208 . S
O56 Cd57 2.223 . S
O56 C64 1.315 . S
Cd57 O56 2.223 . S
Cd57 O60 2.297 . S
Cd57 O61 2.439 . S
Cd57 O67 2.240 . S
Cd58 O59 2.240 . S
Cd58 O66 2.223 . S
Cd58 O68 2.297 . S
Cd58 O69 2.439 . S
O59 Cd58 2.240 . S
O59 C64 1.279 . S
O60 Cd57 2.297 . S
O60 C62 1.247 . S
O61 Cd57 2.439 . S
O61 C62 1.208 . S
C62 O60 1.247 . S
C62 O61 1.208 . S
C63 O68 1.247 . S
C63 O69 1.208 . S
C64 O56 1.315 . S
C64 O59 1.279 . S
C65 O66 1.315 . S
C65 O67 1.279 . S
O66 Cd58 2.223 . S
O66 C65 1.315 . S
O67 Cd57 2.240 . S
O67 C65 1.279 . S
O68 Cd58 2.297 . S
O68 C63 1.247 . S
O69 Cd58 2.439 . S
O69 C63 1.208 . S
O70 Cd71 2.223 . S
O70 C78 1.315 . S
Cd71 O70 2.223 . S
Cd71 O74 2.297 . S
Cd71 O75 2.439 . S
Cd71 O81 2.240 . S
Cd72 O73 2.240 . S
Cd72 O80 2.223 . S
Cd72 O82 2.297 . S
Cd72 O83 2.439 . S
O73 Cd72 2.240 . S
O73 C78 1.279 . S
O74 Cd71 2.297 . S
O74 C76 1.247 . S
O75 Cd71 2.439 . S
O75 C76 1.208 . S
C76 O74 1.247 . S
C76 O75 1.208 . S
C77 O82 1.247 . S
C77 O83 1.208 . S
C78 O70 1.315 . S
C78 O73 1.279 . S
C79 O80 1.315 . S
C79 O81 1.279 . S
O80 Cd72 2.223 . S
O80 C79 1.315 . S
O81 Cd71 2.240 . S
O81 C79 1.279 . S
O82 Cd72 2.297 . S
O82 C77 1.247 . S
O83 Cd72 2.439 . S
O83 C77 1.208 . S
O84 Cd85 2.223 . S
O84 C92 1.315 . S
Cd85 O84 2.223 . S
Cd85 O88 2.297 . S
Cd85 O89 2.439 . S
Cd85 O95 2.240 . S
Cd86 O87 2.240 . S
Cd86 O94 2.223 . S
Cd86 O96 2.297 . S
Cd86 O97 2.439 . S
O87 Cd86 2.240 . S
O87 C92 1.279 . S
O88 Cd85 2.297 . S
O88 C90 1.247 . S
O89 Cd85 2.439 . S
O89 C90 1.208 . S
C90 O88 1.247 . S
C90 O89 1.208 . S
C91 O96 1.247 . S
C91 O97 1.208 . S
C92 O84 1.315 . S
C92 O87 1.279 . S
C93 O94 1.315 . S
C93 O95 1.279 . S
O94 Cd86 2.223 . S
O94 C93 1.315 . S
O95 Cd85 2.240 . S
O95 C93 1.279 . S
O96 Cd86 2.297 . S
O96 C91 1.247 . S
O97 Cd86 2.439 . S
O97 C91 1.208 . S
O98 Cd99 2.223 . S
O98 C106 1.315 . S
Cd99 O98 2.223 . S
Cd99 O102 2.297 . S
Cd99 O103 2.439 . S
Cd99 O109 2.240 . S
Cd100 O101 2.240 . S
Cd100 O108 2.223 . S
Cd100 O110 2.297 . S
Cd100 O111 2.439 . S
O101 Cd100 2.240 . S
O101 C106 1.279 . S
O102 Cd99 2.297 . S
O102 C104 1.247 . S
O103 Cd99 2.439 . S
O103 C104 1.208 . S
C104 O102 1.247 . S
C104 O103 1.208 . S
C105 O110 1.247 . S
C105 O111 1.208 . S
C106 O98 1.315 . S
C106 O101 1.279 . S
C107 O108 1.315 . S
C107 O109 1.279 . S
O108 Cd100 2.223 . S
O108 C107 1.315 . S
O109 Cd99 2.240 . S
O109 C107 1.279 . S
O110 Cd100 2.297 . S
O110 C105 1.247 . S
O111 Cd100 2.439 . S
O111 C105 1.208 . S
O112 Cd113 2.223 . S
O112 C120 1.315 . S
Cd113 O112 2.223 . S
Cd113 O116 2.297 . S
Cd113 O117 2.439 . S
Cd113 O123 2.240 . S
Cd114 O115 2.240 . S
Cd114 O122 2.223 . S
Cd114 O124 2.297 . S
Cd114 O125 2.439 . S
O115 Cd114 2.240 . S
O115 C120 1.279 . S
O116 Cd113 2.297 . S
O116 C118 1.247 . S
O117 Cd113 2.439 . S
O117 C118 1.208 . S
C118 O116 1.247 . S
C118 O117 1.208 . S
C119 O124 1.247 . S
C119 O125 1.208 . S
C120 O112 1.315 . S
C120 O115 1.279 . S
C121 O122 1.315 . S
C121 O123 1.279 . S
O122 Cd114 2.223 . S
O122 C121 1.315 . S
O123 Cd113 2.240 . S
O123 C121 1.279 . S
O124 Cd114 2.297 . S
O124 C119 1.247 . S
O125 Cd114 2.439 . S
O125 C119 1.208 . S
O126 Cd127 2.223 . S
O126 C134 1.315 . S
Cd127 O126 2.223 . S
Cd127 O130 2.297 . S
Cd127 O131 2.439 . S
Cd127 O137 2.240 . S
Cd128 O129 2.240 . S
Cd128 O136 2.223 . S
Cd128 O138 2.297 . S
Cd128 O139 2.439 . S
O129 Cd128 2.240 . S
O129 C134 1.279 . S
O130 Cd127 2.297 . S
O130 C132 1.247 . S
O131 Cd127 2.439 . S
O131 C132 1.208 . S
C132 O130 1.247 . S
C132 O131 1.208 . S
C133 O138 1.247 . S
C133 O139 1.208 . S
C134 O126 1.315 . S
C134 O129 1.279 . S
C135 O136 1.315 . S
C135 O137 1.279 . S
O136 Cd128 2.223 . S
O136 C135 1.315 . S
O137 Cd127 2.240 . S
O137 C135 1.279 . S
O138 Cd128 2.297 . S
O138 C133 1.247 . S
O139 Cd128 2.439 . S
O139 C133 1.208 . S
O140 Cd141 2.223 . S
O140 C148 1.315 . S
Cd141 O140 2.223 . S
Cd141 O144 2.297 . S
Cd141 O145 2.439 . S
Cd141 O151 2.240 . S
Cd142 O143 2.240 . S
Cd142 O150 2.223 . S
Cd142 O152 2.297 . S
Cd142 O153 2.439 . S
O143 Cd142 2.240 . S
O143 C148 1.279 . S
O144 Cd141 2.297 . S
O144 C146 1.247 . S
O145 Cd141 2.439 . S
O145 C146 1.208 . S
C146 O144 1.247 . S
C146 O145 1.208 . S
C147 O152 1.247 . S
C147 O153 1.208 . S
C148 O140 1.315 . S
C148 O143 1.279 . S
C149 O150 1.315 . S
C149 O151 1.279 . S
O150 Cd142 2.223 . S
O150 C149 1.315 . S
O151 Cd141 2.240 . S
O151 C149 1.279 . S
O152 Cd142 2.297 . S
O152 C147 1.247 . S
O153 Cd142 2.439 . S
O153 C147 1.208 . S
O154 Cd155 2.223 . S
O154 C162 1.315 . S
Cd155 O154 2.223 . S
Cd155 O158 2.297 . S
Cd155 O159 2.439 . S
Cd155 O165 2.240 . S
Cd156 O157 2.240 . S
Cd156 O164 2.223 . S
Cd156 O166 2.297 . S
Cd156 O167 2.439 . S
O157 Cd156 2.240 . S
O157 C162 1.279 . S
O158 Cd155 2.297 . S
O158 C160 1.247 . S
O159 Cd155 2.439 . S
O159 C160 1.208 . S
C160 O158 1.247 . S
C160 O159 1.208 . S
C161 O166 1.247 . S
C161 O167 1.208 . S
C162 O154 1.315 . S
C162 O157 1.279 . S
C163 O164 1.315 . S
C163 O165 1.279 . S
O164 Cd156 2.223 . S
O164 C163 1.315 . S
O165 Cd155 2.240 . S
O165 C163 1.279 . S
O166 Cd156 2.297 . S
O166 C161 1.247 . S
O167 Cd156 2.439 . S
O167 C161 1.208 . S
O168 Cd169 2.223 . S
O168 C176 1.315 . S
Cd169 O168 2.223 . S
Cd169 O172 2.297 . S
Cd169 O173 2.439 . S
Cd169 O179 2.240 . S
Cd170 O171 2.240 . S
Cd170 O178 2.223 . S
Cd170 O180 2.297 . S
Cd170 O181 2.439 . S
O171 Cd170 2.240 . S
O171 C176 1.279 . S
O172 Cd169 2.297 . S
O172 C174 1.247 . S
O173 Cd169 2.439 . S
O173 C174 1.208 . S
C174 O172 1.247 . S
C174 O173 1.208 . S
C175 O180 1.247 . S
C175 O181 1.208 . S
C176 O168 1.315 . S
C176 O171 1.279 . S
C177 O178 1.315 . S
C177 O179 1.279 . S
O178 Cd170 2.223 . S
O178 C177 1.315 . S
O179 Cd169 2.240 . S
O179 C177 1.279 . S
O180 Cd170 2.297 . S
O180 C175 1.247 . S
O181 Cd170 2.439 . S
O181 C175 1.208 . S
O182 Cd183 2.223 . S
O182 C190 1.315 . S
Cd183 O182 2.223 . S
Cd183 O186 2.297 . S
Cd183 O187 2.439 . S
Cd183 O193 2.240 . S
Cd184 O185 2.240 . S
Cd184 O192 2.223 . S
Cd184 O194 2.297 . S
Cd184 O195 2.439 . S
O185 Cd184 2.240 . S
O185 C190 1.279 . S
O186 Cd183 2.297 . S
O186 C188 1.247 . S
O187 Cd183 2.439 . S
O187 C188 1.208 . S
C188 O186 1.247 . S
C188 O187 1.208 . S
C189 O194 1.247 . S
C189 O195 1.208 . S
C190 O182 1.315 . S
C190 O185 1.279 . S
C191 O192 1.315 . S
C191 O193 1.279 . S
O192 Cd184 2.223 . S
O192 C191 1.315 . S
O193 Cd183 2.240 . S
O193 C191 1.279 . S
O194 Cd184 2.297 . S
O194 C189 1.247 . S
O195 Cd184 2.439 . S
O195 C189 1.208 . S
O196 Cd197 2.223 . S
O196 C204 1.315 . S
Cd197 O196 2.223 . S
Cd197 O200 2.297 . S
Cd197 O201 2.439 . S
Cd197 O207 2.240 . S
Cd198 O199 2.240 . S
Cd198 O206 2.223 . S
Cd198 O208 2.297 . S
Cd198 O209 2.439 . S
O199 Cd198 2.240 . S
O199 C204 1.279 . S
O200 Cd197 2.297 . S
O200 C202 1.247 . S
O201 Cd197 2.439 . S
O201 C202 1.208 . S
C202 O200 1.247 . S
C202 O201 1.208 . S
C203 O208 1.247 . S
C203 O209 1.208 . S
C204 O196 1.315 . S
C204 O199 1.279 . S
C205 O206 1.315 . S
C205 O207 1.279 . S
O206 Cd198 2.223 . S
O206 C205 1.315 . S
O207 Cd197 2.240 . S
O207 C205 1.279 . S
O208 Cd198 2.297 . S
O208 C203 1.247 . S
O209 Cd198 2.439 . S
O209 C203 1.208 . S
O210 Cd211 2.223 . S
O210 C218 1.315 . S
Cd211 O210 2.223 . S
Cd211 O214 2.297 . S
Cd211 O215 2.439 . S
Cd211 O221 2.240 . S
Cd212 O213 2.240 . S
Cd212 O220 2.223 . S
Cd212 O222 2.297 . S
Cd212 O223 2.439 . S
O213 Cd212 2.240 . S
O213 C218 1.279 . S
O214 Cd211 2.297 . S
O214 C216 1.247 . S
O215 Cd211 2.439 . S
O215 C216 1.208 . S
C216 O214 1.247 . S
C216 O215 1.208 . S
C217 O222 1.247 . S
C217 O223 1.208 . S
C218 O210 1.315 . S
C218 O213 1.279 . S
C219 O220 1.315 . S
C219 O221 1.279 . S
O220 Cd212 2.223 . S
O220 C219 1.315 . S
O221 Cd211 2.240 . S
O221 C219 1.279 . S
O222 Cd212 2.297 . S
O222 C217 1.247 . S
O223 Cd212 2.439 . S
O223 C217 1.208 . S
H224 C232 0.950 . S
H225 C237 0.950 . S
H226 C234 0.950 . S
H227 C236 0.950 1_545 S
H228 C238 0.950 . S
H229 C240 0.950 . S
H230 C242 0.950 1_565 S
H231 C243 0.950 . S
C232 H224 0.950 . S
C232 C233 1.386 . S
C232 C234 1.391 . S
C233 C232 1.386 . S
C233 C237 1.393 . S
C234 H226 0.950 . S
C234 C232 1.391 . S
C234 C235 1.400 . S
C235 C234 1.400 . S
C235 C236 1.398 . S
C235 C241 1.491 1_665 S
C236 H227 0.950 1_565 S
C236 C235 1.398 . S
C236 C237 1.391 . S
C237 H225 0.950 . S
C237 C233 1.393 . S
C237 C236 1.391 . S
C238 H228 0.950 . S
C238 C239 1.386 . S
C238 C240 1.391 . S
C239 C238 1.386 . S
C239 C243 1.393 . S
C240 H229 0.950 . S
C240 C238 1.391 . S
C240 C241 1.400 . S
C241 C235 1.491 1_445 S
C241 C240 1.400 . S
C241 C242 1.398 . S
C242 H230 0.950 1_545 S
C242 C241 1.398 . S
C242 C243 1.391 . S
C243 H231 0.950 . S
C243 C239 1.393 . S
C243 C242 1.391 . S
H244 C252 0.950 . S
H245 C257 0.950 . S
H246 C254 0.950 1_455 S
H247 C256 0.950 . S
H248 C258 0.950 . S
H249 C260 0.950 1_655 S
H250 C262 0.950 . S
H251 C263 0.950 . S
C252 H244 0.950 . S
C252 C253 1.386 . S
C252 C254 1.391 . S
C253 C252 1.386 . S
C253 C257 1.393 . S
C254 H246 0.950 1_655 S
C254 C252 1.391 . S
C254 C255 1.400 . S
C255 C254 1.400 . S
C255 C256 1.398 . S
C255 C261 1.491 1_655 S
C256 H247 0.950 . S
C256 C255 1.398 . S
C256 C257 1.391 . S
C257 H245 0.950 . S
C257 C253 1.393 . S
C257 C256 1.391 . S
C258 H248 0.950 . S
C258 C259 1.386 . S
C258 C260 1.391 . S
C259 C258 1.386 . S
C259 C263 1.393 . S
C260 H249 0.950 1_455 S
C260 C258 1.391 . S
C260 C261 1.400 . S
C261 C255 1.491 1_455 S
C261 C260 1.400 . S
C261 C262 1.398 . S
C262 H250 0.950 . S
C262 C261 1.398 . S
C262 C263 1.391 . S
C263 H251 0.950 . S
C263 C259 1.393 . S
C263 C262 1.391 . S
H264 C272 0.950 . S
H265 C277 0.950 . S
H266 C274 0.950 . S
H267 C276 0.950 . S
H268 C278 0.950 . S
H269 C280 0.950 . S
H270 C282 0.950 . S
H271 C283 0.950 . S
C272 H264 0.950 . S
C272 C273 1.386 . S
C272 C274 1.391 . S
C273 C272 1.386 . S
C273 C277 1.393 . S
C274 H266 0.950 . S
C274 C272 1.391 . S
C274 C275 1.400 . S
C275 C274 1.400 . S
C275 C276 1.398 . S
C275 C281 1.491 . S
C276 H267 0.950 . S
C276 C275 1.398 . S
C276 C277 1.391 . S
C277 H265 0.950 . S
C277 C273 1.393 . S
C277 C276 1.391 . S
C278 H268 0.950 . S
C278 C279 1.386 . S
C278 C280 1.391 . S
C279 C278 1.386 . S
C279 C283 1.393 . S
C280 H269 0.950 . S
C280 C278 1.391 . S
C280 C281 1.400 . S
C281 C275 1.491 . S
C281 C280 1.400 . S
C281 C282 1.398 . S
C282 H270 0.950 . S
C282 C281 1.398 . S
C282 C283 1.391 . S
C283 H271 0.950 . S
C283 C279 1.393 . S
C283 C282 1.391 . S
H284 C292 0.950 . S
H285 C297 0.950 . S
H286 C294 0.950 . S
H287 C296 0.950 . S
H288 C298 0.950 . S
H289 C300 0.950 . S
H290 C302 0.950 . S
H291 C303 0.950 . S
C292 H284 0.950 . S
C292 C293 1.386 . S
C292 C294 1.391 . S
C293 C292 1.386 . S
C293 C297 1.393 . S
C294 H286 0.950 . S
C294 C292 1.391 . S
C294 C295 1.400 . S
C295 C294 1.400 . S
C295 C296 1.398 . S
C295 C301 1.491 1_545 S
C296 H287 0.950 . S
C296 C295 1.398 . S
C296 C297 1.391 . S
C297 H285 0.950 . S
C297 C293 1.393 . S
C297 C296 1.391 . S
C298 H288 0.950 . S
C298 C299 1.386 . S
C298 C300 1.391 . S
C299 C298 1.386 . S
C299 C303 1.393 . S
C300 H289 0.950 . S
C300 C298 1.391 . S
C300 C301 1.400 . S
C301 C295 1.491 1_565 S
C301 C300 1.400 . S
C301 C302 1.398 . S
C302 H290 0.950 . S
C302 C301 1.398 . S
C302 C303 1.391 . S
C303 H291 0.950 . S
C303 C299 1.393 . S
C303 C302 1.391 . S
H304 C312 0.950 . S
H305 C317 0.950 . S
H306 C314 0.950 . S
H307 C316 0.950 . S
H308 C318 0.950 . S
H309 C320 0.950 . S
H310 C322 0.950 . S
H311 C323 0.950 . S
C312 H304 0.950 . S
C312 C313 1.386 . S
C312 C314 1.391 . S
C313 C312 1.386 . S
C313 C317 1.393 . S
C314 H306 0.950 . S
C314 C312 1.391 . S
C314 C315 1.400 . S
C315 C314 1.400 . S
C315 C316 1.398 . S
C315 C321 1.491 1_455 S
C316 H307 0.950 . S
C316 C315 1.398 . S
C316 C317 1.391 . S
C317 H305 0.950 . S
C317 C313 1.393 . S
C317 C316 1.391 . S
C318 H308 0.950 . S
C318 C319 1.386 . S
C318 C320 1.391 . S
C319 C318 1.386 . S
C319 C323 1.393 . S
C320 H309 0.950 . S
C320 C318 1.391 . S
C320 C321 1.400 . S
C321 C315 1.491 1_655 S
C321 C320 1.400 . S
C321 C322 1.398 . S
C322 H310 0.950 . S
C322 C321 1.398 . S
C322 C323 1.391 . S
C323 H311 0.950 . S
C323 C319 1.393 . S
C323 C322 1.391 . S
H324 C332 0.950 . S
H325 C337 0.950 . S
H326 C334 0.950 . S
H327 C336 0.950 . S
H328 C338 0.950 . S
H329 C340 0.950 . S
H330 C342 0.950 . S
H331 C343 0.950 . S
C332 H324 0.950 . S
C332 C333 1.386 . S
C332 C334 1.391 . S
C333 C332 1.386 . S
C333 C337 1.393 . S
C334 H326 0.950 . S
C334 C332 1.391 . S
C334 C335 1.400 . S
C335 C334 1.400 . S
C335 C336 1.398 . S
C335 C341 1.491 . S
C336 H327 0.950 . S
C336 C335 1.398 . S
C336 C337 1.391 . S
C337 H325 0.950 . S
C337 C333 1.393 . S
C337 C336 1.391 . S
C338 H328 0.950 . S
C338 C339 1.386 . S
C338 C340 1.391 . S
C339 C338 1.386 . S
C339 C343 1.393 . S
C340 H329 0.950 . S
C340 C338 1.391 . S
C340 C341 1.400 . S
C341 C335 1.491 . S
C341 C340 1.400 . S
C341 C342 1.398 . S
C342 H330 0.950 . S
C342 C341 1.398 . S
C342 C343 1.391 . S
C343 H331 0.950 . S
C343 C339 1.393 . S
C343 C342 1.391 . S
H344 C352 0.950 . S
H345 C357 0.950 . S
H346 C354 0.950 . S
H347 C356 0.950 . S
H348 C358 0.950 . S
H349 C360 0.950 . S
H350 C362 0.950 . S
H351 C363 0.950 . S
C352 H344 0.950 . S
C352 C353 1.386 . S
C352 C354 1.391 . S
C353 C352 1.386 . S
C353 C357 1.393 . S
C354 H346 0.950 . S
C354 C352 1.391 . S
C354 C355 1.400 . S
C355 C354 1.400 . S
C355 C356 1.398 . S
C355 C361 1.491 1_545 S
C356 H347 0.950 . S
C356 C355 1.398 . S
C356 C357 1.391 . S
C357 H345 0.950 . S
C357 C353 1.393 . S
C357 C356 1.391 . S
C358 H348 0.950 . S
C358 C359 1.386 . S
C358 C360 1.391 . S
C359 C358 1.386 . S
C359 C363 1.393 . S
C360 H349 0.950 . S
C360 C358 1.391 . S
C360 C361 1.400 . S
C361 C355 1.491 1_565 S
C361 C360 1.400 . S
C361 C362 1.398 . S
C362 H350 0.950 . S
C362 C361 1.398 . S
C362 C363 1.391 . S
C363 H351 0.950 . S
C363 C359 1.393 . S
C363 C362 1.391 . S
H364 C372 0.950 1_655 S
H365 C377 0.950 . S
H366 C374 0.950 . S
H367 C376 0.950 . S
H368 C378 0.950 1_455 S
H369 C380 0.950 . S
H370 C382 0.950 . S
H371 C383 0.950 . S
C372 H364 0.950 1_455 S
C372 C373 1.386 . S
C372 C374 1.391 1_455 S
C373 C372 1.386 . S
C373 C377 1.393 . S
C374 H366 0.950 . S
C374 C372 1.391 1_655 S
C374 C375 1.400 1_655 S
C375 C374 1.400 1_455 S
C375 C376 1.398 . S
C375 C381 1.491 1_445 S
C376 H367 0.950 . S
C376 C375 1.398 . S
C376 C377 1.391 . S
C377 H365 0.950 . S
C377 C373 1.393 . S
C377 C376 1.391 . S
C378 H368 0.950 1_655 S
C378 C379 1.386 . S
C378 C380 1.391 1_655 S
C379 C378 1.386 . S
C379 C383 1.393 . S
C380 H369 0.950 . S
C380 C378 1.391 1_455 S
C380 C381 1.400 1_455 S
C381 C375 1.491 1_665 S
C381 C380 1.400 1_655 S
C381 C382 1.398 . S
C382 H370 0.950 . S
C382 C381 1.398 . S
C382 C383 1.391 . S
C383 H371 0.950 . S
C383 C379 1.393 . S
C383 C382 1.391 . S
H384 C392 0.950 . S
H385 C397 0.950 . S
H386 C394 0.950 . S
H387 C396 0.950 . S
H388 C398 0.950 . S
H389 C400 0.950 . S
H390 C402 0.950 . S
H391 C403 0.950 . S
C392 H384 0.950 . S
C392 C393 1.386 . S
C392 C394 1.391 1_565 S
C393 C392 1.386 . S
C393 C397 1.393 . S
C394 H386 0.950 . S
C394 C392 1.391 1_545 S
C394 C395 1.400 1_545 S
C395 C394 1.400 1_565 S
C395 C396 1.398 . S
C395 C401 1.491 1_565 S
C396 H387 0.950 . S
C396 C395 1.398 . S
C396 C397 1.391 . S
C397 H385 0.950 . S
C397 C393 1.393 . S
C397 C396 1.391 . S
C398 H388 0.950 . S
C398 C399 1.386 . S
C398 C400 1.391 1_545 S
C399 C398 1.386 . S
C399 C403 1.393 . S
C400 H389 0.950 . S
C400 C398 1.391 1_565 S
C400 C401 1.400 1_565 S
C401 C395 1.491 1_545 S
C401 C400 1.400 1_545 S
C401 C402 1.398 . S
C402 H390 0.950 . S
C402 C401 1.398 . S
C402 C403 1.391 . S
C403 H391 0.950 . S
C403 C399 1.393 . S
C403 C402 1.391 . S
H404 C412 0.950 1_455 S
H405 C417 0.950 . S
H406 C414 0.950 . S
H407 C416 0.950 . S
H408 C418 0.950 1_655 S
H409 C420 0.950 . S
H410 C422 0.950 . S
H411 C423 0.950 . S
C412 H404 0.950 1_655 S
C412 C413 1.386 . S
C412 C414 1.391 1_655 S
C413 C412 1.386 . S
C413 C417 1.393 . S
C414 H406 0.950 . S
C414 C412 1.391 1_455 S
C414 C415 1.400 1_455 S
C415 C414 1.400 1_655 S
C415 C416 1.398 . S
C415 C421 1.491 1_665 S
C416 H407 0.950 . S
C416 C415 1.398 . S
C416 C417 1.391 . S
C417 H405 0.950 . S
C417 C413 1.393 . S
C417 C416 1.391 . S
C418 H408 0.950 1_455 S
C418 C419 1.386 . S
C418 C420 1.391 1_455 S
C419 C418 1.386 . S
C419 C423 1.393 . S
C420 H409 0.950 . S
C420 C418 1.391 1_655 S
C420 C421 1.400 1_655 S
C421 C415 1.491 1_445 S
C421 C420 1.400 1_455 S
C421 C422 1.398 . S
C422 H410 0.950 . S
C422 C421 1.398 . S
C422 C423 1.391 . S
C423 H411 0.950 . S
C423 C419 1.393 . S
C423 C422 1.391 . S
H424 C432 0.950 . S
H425 C437 0.950 . S
H426 C434 0.950 . S
H427 C436 0.950 . S
H428 C438 0.950 . S
H429 C440 0.950 . S
H430 C442 0.950 . S
H431 C443 0.950 . S
C432 H424 0.950 . S
C432 C433 1.386 . S
C432 C434 1.391 . S
C433 C432 1.386 . S
C433 C437 1.393 . S
C434 H426 0.950 . S
C434 C432 1.391 . S
C434 C435 1.400 . S
C435 C434 1.400 . S
C435 C436 1.398 . S
C435 C441 1.491 1_455 S
C436 H427 0.950 . S
C436 C435 1.398 . S
C436 C437 1.391 . S
C437 H425 0.950 . S
C437 C433 1.393 . S
C437 C436 1.391 . S
C438 H428 0.950 . S
C438 C439 1.386 . S
C438 C440 1.391 . S
C439 C438 1.386 . S
C439 C443 1.393 . S
C440 H429 0.950 . S
C440 C438 1.391 . S
C440 C441 1.400 . S
C441 C435 1.491 1_655 S
C441 C440 1.400 . S
C441 C442 1.398 . S
C442 H430 0.950 . S
C442 C441 1.398 . S
C442 C443 1.391 . S
C443 H431 0.950 . S
C443 C439 1.393 . S
C443 C442 1.391 . S
H444 C452 0.950 . S
H445 C457 0.950 . S
H446 C454 0.950 . S
H447 C456 0.950 . S
H448 C458 0.950 . S
H449 C460 0.950 . S
H450 C462 0.950 . S
H451 C463 0.950 . S
C452 H444 0.950 . S
C452 C453 1.386 . S
C452 C454 1.391 . S
C453 C452 1.386 . S
C453 C457 1.393 . S
C454 H446 0.950 . S
C454 C452 1.391 . S
C454 C455 1.400 . S
C455 C454 1.400 . S
C455 C456 1.398 . S
C455 C461 1.491 . S
C456 H447 0.950 . S
C456 C455 1.398 . S
C456 C457 1.391 . S
C457 H445 0.950 . S
C457 C453 1.393 . S
C457 C456 1.391 . S
C458 H448 0.950 . S
C458 C459 1.386 . S
C458 C460 1.391 . S
C459 C458 1.386 . S
C459 C463 1.393 . S
C460 H449 0.950 . S
C460 C458 1.391 . S
C460 C461 1.400 . S
C461 C455 1.491 . S
C461 C460 1.400 . S
C461 C462 1.398 . S
C462 H450 0.950 . S
C462 C461 1.398 . S
C462 C463 1.391 . S
C463 H451 0.950 . S
C463 C459 1.393 . S
C463 C462 1.391 . S
H464 C472 0.950 . S
H465 C477 0.950 . S
H466 C474 0.950 . S
H467 C476 0.950 . S
H468 C478 0.950 . S
H469 C480 0.950 . S
H470 C482 0.950 . S
H471 C483 0.950 . S
C472 H464 0.950 . S
C472 C473 1.386 . S
C472 C474 1.391 . S
C473 C472 1.386 . S
C473 C477 1.393 . S
C474 H466 0.950 . S
C474 C472 1.391 . S
C474 C475 1.400 . S
C475 C474 1.400 . S
C475 C476 1.398 . S
C475 C481 1.491 . S
C476 H467 0.950 . S
C476 C475 1.398 . S
C476 C477 1.391 . S
C477 H465 0.950 . S
C477 C473 1.393 . S
C477 C476 1.391 . S
C478 H468 0.950 . S
C478 C479 1.386 . S
C478 C480 1.391 . S
C479 C478 1.386 . S
C479 C483 1.393 . S
C480 H469 0.950 . S
C480 C478 1.391 . S
C480 C481 1.400 . S
C481 C475 1.491 . S
C481 C480 1.400 . S
C481 C482 1.398 . S
C482 H470 0.950 . S
C482 C481 1.398 . S
C482 C483 1.391 . S
C483 H471 0.950 . S
C483 C479 1.393 . S
C483 C482 1.391 . S
H484 C492 0.950 . S
H485 C497 0.950 . S
H486 C494 0.950 . S
H487 C496 0.950 . S
H488 C498 0.950 . S
H489 C500 0.950 . S
H490 C502 0.950 . S
H491 C503 0.950 . S
C492 H484 0.950 . S
C492 C493 1.386 . S
C492 C494 1.391 . S
C493 C492 1.386 . S
C493 C497 1.393 . S
C494 H486 0.950 . S
C494 C492 1.391 . S
C494 C495 1.400 . S
C495 C494 1.400 . S
C495 C496 1.398 . S
C495 C501 1.491 1_565 S
C496 H487 0.950 . S
C496 C495 1.398 . S
C496 C497 1.391 . S
C497 H485 0.950 . S
C497 C493 1.393 . S
C497 C496 1.391 . S
C498 H488 0.950 . S
C498 C499 1.386 . S
C498 C500 1.391 . S
C499 C498 1.386 . S
C499 C503 1.393 . S
C500 H489 0.950 . S
C500 C498 1.391 . S
C500 C501 1.400 . S
C501 C495 1.491 1_545 S
C501 C500 1.400 . S
C501 C502 1.398 . S
C502 H490 0.950 . S
C502 C501 1.398 . S
C502 C503 1.391 . S
C503 H491 0.950 . S
C503 C499 1.393 . S
C503 C502 1.391 . S
H504 C512 0.950 . S
H505 C517 0.950 1_545 S
H506 C514 0.950 . S
H507 C516 0.950 . S
H508 C518 0.950 . S
H509 C520 0.950 . S
H510 C522 0.950 . S
H511 C523 0.950 1_565 S
C512 H504 0.950 . S
C512 C513 1.386 . S
C512 C514 1.391 . S
C513 C512 1.386 . S
C513 C517 1.393 . S
C514 H506 0.950 . S
C514 C512 1.391 . S
C514 C515 1.400 . S
C515 C514 1.400 . S
C515 C516 1.398 1_565 S
C515 C521 1.491 1_665 S
C516 H507 0.950 . S
C516 C515 1.398 1_545 S
C516 C517 1.391 1_545 S
C517 H505 0.950 1_565 S
C517 C513 1.393 . S
C517 C516 1.391 1_565 S
C518 H508 0.950 . S
C518 C519 1.386 . S
C518 C520 1.391 . S
C519 C518 1.386 . S
C519 C523 1.393 . S
C520 H509 0.950 . S
C520 C518 1.391 . S
C520 C521 1.400 . S
C521 C515 1.491 1_445 S
C521 C520 1.400 . S
C521 C522 1.398 1_545 S
C522 H510 0.950 . S
C522 C521 1.398 1_565 S
C522 C523 1.391 1_565 S
C523 H511 0.950 1_545 S
C523 C519 1.393 . S
C523 C522 1.391 1_545 S
H524 C532 0.956 . S
H525 C537 0.950 . S
H526 C534 0.950 . S
H527 C536 0.950 . S
H528 C538 0.956 . S
H529 C540 0.950 . S
H530 C542 0.950 . S
H531 C543 0.950 . S
C532 H524 0.956 . S
C532 C533 1.386 . S
C532 C534 1.391 1_455 S
C533 C532 1.386 . S
C533 C537 1.393 . S
C534 H526 0.950 . S
C534 C532 1.391 1_655 S
C534 C535 1.400 1_655 S
C535 C534 1.400 1_455 S
C535 C536 1.398 . S
C535 C541 1.491 1_455 S
C536 H527 0.950 . S
C536 C535 1.398 . S
C536 C537 1.391 . S
C537 H525 0.950 . S
C537 C533 1.393 . S
C537 C536 1.391 . S
C538 H528 0.956 . S
C538 C539 1.386 . S
C538 C540 1.391 1_655 S
C539 C538 1.386 . S
C539 C543 1.393 . S
C540 H529 0.950 . S
C540 C538 1.391 1_455 S
C540 C541 1.400 1_455 S
C541 C535 1.491 1_655 S
C541 C540 1.400 1_655 S
C541 C542 1.398 . S
C542 H530 0.950 . S
C542 C541 1.398 . S
C542 C543 1.391 . S
C543 H531 0.950 . S
C543 C539 1.393 . S
C543 C542 1.391 . S
H544 C552 0.950 . S
H545 C557 0.950 . S
H546 C554 0.950 . S
H547 C556 0.950 . S
H548 C558 0.950 . S
H549 C560 0.950 . S
H550 C562 0.950 . S
H551 C563 0.950 . S
C552 H544 0.950 . S
C552 C553 1.386 . S
C552 C554 1.391 . S
C553 C552 1.386 . S
C553 C557 1.393 . S
C554 H546 0.950 . S
C554 C552 1.391 . S
C554 C555 1.400 . S
C555 C554 1.400 . S
C555 C556 1.398 . S
C555 C561 1.491 . S
C556 H547 0.950 . S
C556 C555 1.398 . S
C556 C557 1.391 . S
C557 H545 0.950 . S
C557 C553 1.393 . S
C557 C556 1.391 . S
C558 H548 0.950 . S
C558 C559 1.386 . S
C558 C560 1.391 . S
C559 C558 1.386 . S
C559 C563 1.393 . S
C560 H549 0.950 . S
C560 C558 1.391 . S
C560 C561 1.400 . S
C561 C555 1.491 . S
C561 C560 1.400 . S
C561 C562 1.398 . S
C562 H550 0.950 . S
C562 C561 1.398 . S
C562 C563 1.391 . S
C563 H551 0.950 . S
C563 C559 1.393 . S
C563 C562 1.391 . S
H564 C572 0.950 . S
H565 C577 0.950 . S
H566 C574 0.950 . S
H567 C576 0.950 . S
H568 C578 0.950 . S
H569 C580 0.950 . S
H570 C582 0.950 . S
H571 C583 0.950 . S
C572 H564 0.950 . S
C572 C573 1.386 . S
C572 C574 1.391 . S
C573 C572 1.386 . S
C573 C577 1.393 . S
C574 H566 0.950 . S
C574 C572 1.391 . S
C574 C575 1.400 . S
C575 C574 1.400 . S
C575 C576 1.398 . S
C575 C581 1.491 . S
C576 H567 0.950 . S
C576 C575 1.398 . S
C576 C577 1.391 . S
C577 H565 0.950 . S
C577 C573 1.393 . S
C577 C576 1.391 . S
C578 H568 0.950 . S
C578 C579 1.386 . S
C578 C580 1.391 . S
C579 C578 1.386 . S
C579 C583 1.393 . S
C580 H569 0.950 . S
C580 C578 1.391 . S
C580 C581 1.400 . S
C581 C575 1.491 . S
C581 C580 1.400 . S
C581 C582 1.398 . S
C582 H570 0.950 . S
C582 C581 1.398 . S
C582 C583 1.391 . S
C583 H571 0.950 . S
C583 C579 1.393 . S
C583 C582 1.391 . S
H584 C592 0.950 . S
H585 C597 0.950 . S
H586 C594 0.950 . S
H587 C596 0.950 . S
H588 C598 0.950 . S
H589 C600 0.950 . S
H590 C602 0.950 . S
H591 C603 0.950 . S
C592 H584 0.950 . S
C592 C593 1.386 . S
C592 C594 1.391 . S
C593 C592 1.386 . S
C593 C597 1.393 . S
C594 H586 0.950 . S
C594 C592 1.391 . S
C594 C595 1.400 . S
C595 C594 1.400 . S
C595 C596 1.398 . S
C595 C601 1.491 . S
C596 H587 0.950 . S
C596 C595 1.398 . S
C596 C597 1.391 . S
C597 H585 0.950 . S
C597 C593 1.393 . S
C597 C596 1.391 . S
C598 H588 0.950 . S
C598 C599 1.386 . S
C598 C600 1.391 . S
C599 C598 1.386 . S
C599 C603 1.393 . S
C600 H589 0.950 . S
C600 C598 1.391 . S
C600 C601 1.400 . S
C601 C595 1.491 . S
C601 C600 1.400 . S
C601 C602 1.398 . S
C602 H590 0.950 . S
C602 C601 1.398 . S
C602 C603 1.391 . S
C603 H591 0.950 . S
C603 C599 1.393 . S
C603 C602 1.391 . S
H604 C612 0.950 . S
H605 C617 0.950 . S
H606 C614 0.950 . S
H607 C616 0.950 . S
H608 C618 0.950 . S
H609 C620 0.950 . S
H610 C622 0.950 . S
H611 C623 0.950 . S
C612 H604 0.950 . S
C612 C613 1.386 . S
C612 C614 1.391 . S
C613 C612 1.386 . S
C613 C617 1.393 . S
C614 H606 0.950 . S
C614 C612 1.391 . S
C614 C615 1.400 . S
C615 C614 1.400 . S
C615 C616 1.398 . S
C615 C621 1.491 . S
C616 H607 0.950 . S
C616 C615 1.398 . S
C616 C617 1.391 . S
C617 H605 0.950 . S
C617 C613 1.393 . S
C617 C616 1.391 . S
C618 H608 0.950 . S
C618 C619 1.386 . S
C618 C620 1.391 . S
C619 C618 1.386 . S
C619 C623 1.393 . S
C620 H609 0.950 . S
C620 C618 1.391 . S
C620 C621 1.400 . S
C621 C615 1.491 . S
C621 C620 1.400 . S
C621 C622 1.398 . S
C622 H610 0.950 . S
C622 C621 1.398 . S
C622 C623 1.391 . S
C623 H611 0.950 . S
C623 C619 1.393 . S
C623 C622 1.391 . S
H624 C632 0.950 . S
H625 C637 0.950 . S
H626 C634 0.950 . S
H627 C636 0.950 . S
H628 C638 0.950 . S
H629 C640 0.950 . S
H630 C642 0.950 . S
H631 C643 0.950 . S
C632 H624 0.950 . S
C632 C633 1.386 . S
C632 C634 1.391 . S
C633 C632 1.386 . S
C633 C637 1.393 . S
C634 H626 0.950 . S
C634 C632 1.391 . S
C634 C635 1.400 . S
C635 C634 1.400 . S
C635 C636 1.398 . S
C635 C641 1.491 . S
C636 H627 0.950 . S
C636 C635 1.398 . S
C636 C637 1.391 . S
C637 H625 0.950 . S
C637 C633 1.393 . S
C637 C636 1.391 . S
C638 H628 0.950 . S
C638 C639 1.386 . S
C638 C640 1.391 . S
C639 C638 1.386 . S
C639 C643 1.393 . S
C640 H629 0.950 . S
C640 C638 1.391 . S
C640 C641 1.400 . S
C641 C635 1.491 . S
C641 C640 1.400 . S
C641 C642 1.398 . S
C642 H630 0.950 . S
C642 C641 1.398 . S
C642 C643 1.391 . S
C643 H631 0.950 . S
C643 C639 1.393 . S
C643 C642 1.391 . S
H644 C652 0.950 . S
H645 C657 0.950 . S
H646 C654 0.950 . S
H647 C656 0.950 . S
H648 C658 0.950 . S
H649 C660 0.950 . S
H650 C662 0.950 . S
H651 C663 0.950 . S
C652 H644 0.950 . S
C652 C653 1.386 . S
C652 C654 1.391 . S
C653 C652 1.386 . S
C653 C657 1.393 . S
C654 H646 0.950 . S
C654 C652 1.391 . S
C654 C655 1.400 . S
C655 C654 1.400 . S
C655 C656 1.398 . S
C655 C661 1.491 . S
C656 H647 0.950 . S
C656 C655 1.398 . S
C656 C657 1.391 . S
C657 H645 0.950 . S
C657 C653 1.393 . S
C657 C656 1.391 . S
C658 H648 0.950 . S
C658 C659 1.386 . S
C658 C660 1.391 . S
C659 C658 1.386 . S
C659 C663 1.393 . S
C660 H649 0.950 . S
C660 C658 1.391 . S
C660 C661 1.400 . S
C661 C655 1.491 . S
C661 C660 1.400 . S
C661 C662 1.398 . S
C662 H650 0.950 . S
C662 C661 1.398 . S
C662 C663 1.391 . S
C663 H651 0.950 . S
C663 C659 1.393 . S
C663 C662 1.391 . S
H664 C672 0.950 . S
H665 C677 0.950 . S
H666 C674 0.950 . S
H667 C676 0.950 . S
H668 C678 0.950 . S
H669 C680 0.950 . S
H670 C682 0.950 . S
H671 C683 0.950 . S
C672 H664 0.950 . S
C672 C673 1.386 . S
C672 C674 1.391 . S
C673 C672 1.386 . S
C673 C677 1.393 . S
C674 H666 0.950 . S
C674 C672 1.391 . S
C674 C675 1.400 . S
C675 C674 1.400 . S
C675 C676 1.398 . S
C675 C681 1.491 . S
C676 H667 0.950 . S
C676 C675 1.398 . S
C676 C677 1.391 . S
C677 H665 0.950 . S
C677 C673 1.393 . S
C677 C676 1.391 . S
C678 H668 0.950 . S
C678 C679 1.386 . S
C678 C680 1.391 . S
C679 C678 1.386 . S
C679 C683 1.393 . S
C680 H669 0.950 . S
C680 C678 1.391 . S
C680 C681 1.400 . S
C681 C675 1.491 . S
C681 C680 1.400 . S
C681 C682 1.398 . S
C682 H670 0.950 . S
C682 C681 1.398 . S
C682 C683 1.391 . S
C683 H671 0.950 . S
C683 C679 1.393 . S
C683 C682 1.391 . S
H684 C692 0.950 . S
H685 C697 0.950 . S
H686 C694 0.950 . S
H687 C696 0.950 . S
H688 C698 0.950 . S
H689 C700 0.950 . S
H690 C702 0.950 . S
H691 C703 0.950 . S
C692 H684 0.950 . S
C692 C693 1.386 . S
C692 C694 1.391 . S
C693 C692 1.386 . S
C693 C697 1.393 . S
C694 H686 0.950 . S
C694 C692 1.391 . S
C694 C695 1.400 . S
C695 C694 1.400 . S
C695 C696 1.398 . S
C695 C701 1.491 . S
C696 H687 0.950 . S
C696 C695 1.398 . S
C696 C697 1.391 . S
C697 H685 0.950 . S
C697 C693 1.393 . S
C697 C696 1.391 . S
C698 H688 0.950 . S
C698 C699 1.386 . S
C698 C700 1.391 . S
C699 C698 1.386 . S
C699 C703 1.393 . S
C700 H689 0.950 . S
C700 C698 1.391 . S
C700 C701 1.400 . S
C701 C695 1.491 . S
C701 C700 1.400 . S
C701 C702 1.398 . S
C702 H690 0.950 . S
C702 C701 1.398 . S
C702 C703 1.391 . S
C703 H691 0.950 . S
C703 C699 1.393 . S
C703 C702 1.391 . S
H704 C712 0.950 . S
H705 C717 0.950 . S
H706 C714 0.950 . S
H707 C716 0.950 . S
H708 C718 0.950 . S
H709 C720 0.950 . S
H710 C722 0.950 . S
H711 C723 0.950 . S
C712 H704 0.950 . S
C712 C713 1.386 . S
C712 C714 1.391 . S
C713 C712 1.386 . S
C713 C717 1.393 . S
C714 H706 0.950 . S
C714 C712 1.391 . S
C714 C715 1.400 . S
C715 C714 1.400 . S
C715 C716 1.398 . S
C715 C721 1.491 . S
C716 H707 0.950 . S
C716 C715 1.398 . S
C716 C717 1.391 . S
C717 H705 0.950 . S
C717 C713 1.393 . S
C717 C716 1.391 . S
C718 H708 0.950 . S
C718 C719 1.386 . S
C718 C720 1.391 . S
C719 C718 1.386 . S
C719 C723 1.393 . S
C720 H709 0.950 . S
C720 C718 1.391 . S
C720 C721 1.400 . S
C721 C715 1.491 . S
C721 C720 1.400 . S
C721 C722 1.398 . S
C722 H710 0.950 . S
C722 C721 1.398 . S
C722 C723 1.391 . S
C723 H711 0.950 . S
C723 C719 1.393 . S
C723 C722 1.391 . S
H724 C732 0.950 . S
H725 C737 0.950 . S
H726 C734 0.950 . S
H727 C736 0.950 . S
H728 C738 0.950 . S
H729 C740 0.950 . S
H730 C742 0.950 . S
H731 C743 0.950 . S
C732 H724 0.950 . S
C732 C733 1.386 . S
C732 C734 1.391 . S
C733 C732 1.386 . S
C733 C737 1.393 . S
C734 H726 0.950 . S
C734 C732 1.391 . S
C734 C735 1.400 . S
C735 C734 1.400 . S
C735 C736 1.398 . S
C735 C741 1.491 . S
C736 H727 0.950 . S
C736 C735 1.398 . S
C736 C737 1.391 . S
C737 H725 0.950 . S
C737 C733 1.393 . S
C737 C736 1.391 . S
C738 H728 0.950 . S
C738 C739 1.386 . S
C738 C740 1.391 . S
C739 C738 1.386 . S
C739 C743 1.393 . S
C740 H729 0.950 . S
C740 C738 1.391 . S
C740 C741 1.400 . S
C741 C735 1.491 . S
C741 C740 1.400 . S
C741 C742 1.398 . S
C742 H730 0.950 . S
C742 C741 1.398 . S
C742 C743 1.391 . S
C743 H731 0.950 . S
C743 C739 1.393 . S
C743 C742 1.391 . S
H744 C752 0.950 . S
H745 C757 0.950 . S
H746 C754 0.950 . S
H747 C756 0.950 . S
H748 C758 0.950 . S
H749 C760 0.950 . S
H750 C762 0.950 . S
H751 C763 0.950 . S
C752 H744 0.950 . S
C752 C753 1.386 . S
C752 C754 1.391 . S
C753 C752 1.386 . S
C753 C757 1.393 . S
C754 H746 0.950 . S
C754 C752 1.391 . S
C754 C755 1.400 . S
C755 C754 1.400 . S
C755 C756 1.398 . S
C755 C761 1.491 . S
C756 H747 0.950 . S
C756 C755 1.398 . S
C756 C757 1.391 . S
C757 H745 0.950 . S
C757 C753 1.393 . S
C757 C756 1.391 . S
C758 H748 0.950 . S
C758 C759 1.386 . S
C758 C760 1.391 . S
C759 C758 1.386 . S
C759 C763 1.393 . S
C760 H749 0.950 . S
C760 C758 1.391 . S
C760 C761 1.400 . S
C761 C755 1.491 . S
C761 C760 1.400 . S
C761 C762 1.398 . S
C762 H750 0.950 . S
C762 C761 1.398 . S
C762 C763 1.391 . S
C763 H751 0.950 . S
C763 C759 1.393 . S
C763 C762 1.391 . S
H764 C772 0.950 . S
H765 C777 0.950 . S
H766 C774 0.950 . S
H767 C776 0.950 . S
H768 C778 0.950 . S
H769 C780 0.950 . S
H770 C782 0.950 . S
H771 C783 0.950 . S
C772 H764 0.950 . S
C772 C773 1.386 . S
C772 C774 1.391 . S
C773 C772 1.386 . S
C773 C777 1.393 . S
C774 H766 0.950 . S
C774 C772 1.391 . S
C774 C775 1.400 . S
C775 C774 1.400 . S
C775 C776 1.398 . S
C775 C781 1.491 1_556 S
C776 H767 0.950 . S
C776 C775 1.398 . S
C776 C777 1.391 . S
C777 H765 0.950 . S
C777 C773 1.393 . S
C777 C776 1.391 . S
C778 H768 0.950 . S
C778 C779 1.386 . S
C778 C780 1.391 . S
C779 C778 1.386 . S
C779 C783 1.393 . S
C780 H769 0.950 . S
C780 C778 1.391 . S
C780 C781 1.400 . S
C781 C775 1.491 1_554 S
C781 C780 1.400 . S
C781 C782 1.398 . S
C782 H770 0.950 . S
C782 C781 1.398 . S
C782 C783 1.391 . S
C783 H771 0.950 . S
C783 C779 1.393 . S
C783 C782 1.391 . S
H784 C792 0.950 . S
H785 C797 0.950 . S
H786 C794 0.950 . S
H787 C796 0.950 . S
H788 C798 0.950 . S
H789 C800 0.950 . S
H790 C802 0.950 . S
H791 C803 0.950 . S
C792 H784 0.950 . S
C792 C793 1.386 . S
C792 C794 1.391 . S
C793 C792 1.386 . S
C793 C797 1.393 . S
C794 H786 0.950 . S
C794 C792 1.391 . S
C794 C795 1.400 . S
C795 C794 1.400 . S
C795 C796 1.398 . S
C795 C801 1.491 1_554 S
C796 H787 0.950 . S
C796 C795 1.398 . S
C796 C797 1.391 . S
C797 H785 0.950 . S
C797 C793 1.393 . S
C797 C796 1.391 . S
C798 H788 0.950 . S
C798 C799 1.386 . S
C798 C800 1.391 . S
C799 C798 1.386 . S
C799 C803 1.393 . S
C800 H789 0.950 . S
C800 C798 1.391 . S
C800 C801 1.400 . S
C801 C795 1.491 1_556 S
C801 C800 1.400 . S
C801 C802 1.398 . S
C802 H790 0.950 . S
C802 C801 1.398 . S
C802 C803 1.391 . S
C803 H791 0.950 . S
C803 C799 1.393 . S
C803 C802 1.391 . S
H804 C812 0.950 . S
H805 C817 0.950 . S
H806 C814 0.950 . S
H807 C816 0.950 . S
H808 C818 0.950 . S
H809 C820 0.950 . S
H810 C822 0.950 . S
H811 C823 0.950 . S
C812 H804 0.950 . S
C812 C813 1.386 . S
C812 C814 1.391 . S
C813 C812 1.386 . S
C813 C817 1.393 . S
C814 H806 0.950 . S
C814 C812 1.391 . S
C814 C815 1.400 . S
C815 C814 1.400 . S
C815 C816 1.398 . S
C815 C821 1.491 . S
C816 H807 0.950 . S
C816 C815 1.398 . S
C816 C817 1.391 . S
C817 H805 0.950 . S
C817 C813 1.393 . S
C817 C816 1.391 . S
C818 H808 0.950 . S
C818 C819 1.386 . S
C818 C820 1.391 . S
C819 C818 1.386 . S
C819 C823 1.393 . S
C820 H809 0.950 . S
C820 C818 1.391 . S
C820 C821 1.400 . S
C821 C815 1.491 . S
C821 C820 1.400 . S
C821 C822 1.398 . S
C822 H810 0.950 . S
C822 C821 1.398 . S
C822 C823 1.391 . S
C823 H811 0.950 . S
C823 C819 1.393 . S
C823 C822 1.391 . S
H824 C832 0.950 . S
H825 C837 0.950 . S
H826 C834 0.950 . S
H827 C836 0.950 . S
H828 C838 0.950 . S
H829 C840 0.950 . S
H830 C842 0.950 . S
H831 C843 0.950 . S
C832 H824 0.950 . S
C832 C833 1.386 . S
C832 C834 1.391 . S
C833 C832 1.386 . S
C833 C837 1.393 . S
C834 H826 0.950 . S
C834 C832 1.391 . S
C834 C835 1.400 . S
C835 C834 1.400 . S
C835 C836 1.398 . S
C835 C841 1.491 . S
C836 H827 0.950 . S
C836 C835 1.398 . S
C836 C837 1.391 . S
C837 H825 0.950 . S
C837 C833 1.393 . S
C837 C836 1.391 . S
C838 H828 0.950 . S
C838 C839 1.386 . S
C838 C840 1.391 . S
C839 C838 1.386 . S
C839 C843 1.393 . S
C840 H829 0.950 . S
C840 C838 1.391 . S
C840 C841 1.400 . S
C841 C835 1.491 . S
C841 C840 1.400 . S
C841 C842 1.398 . S
C842 H830 0.950 . S
C842 C841 1.398 . S
C842 C843 1.391 . S
C843 H831 0.950 . S
C843 C839 1.393 . S
C843 C842 1.391 . S
H844 C852 0.950 . S
H845 C857 0.950 . S
H846 C854 0.950 . S
H847 C856 0.950 . S
H848 C858 0.950 . S
H849 C860 0.950 . S
H850 C862 0.950 . S
H851 C863 0.950 . S
C852 H844 0.950 . S
C852 C853 1.386 . S
C852 C854 1.391 . S
C853 C852 1.386 . S
C853 C857 1.393 . S
C854 H846 0.950 . S
C854 C852 1.391 . S
C854 C855 1.400 . S
C855 C854 1.400 . S
C855 C856 1.398 . S
C855 C861 1.491 . S
C856 H847 0.950 . S
C856 C855 1.398 . S
C856 C857 1.391 . S
C857 H845 0.950 . S
C857 C853 1.393 . S
C857 C856 1.391 . S
C858 H848 0.950 . S
C858 C859 1.386 . S
C858 C860 1.391 . S
C859 C858 1.386 . S
C859 C863 1.393 . S
C860 H849 0.950 . S
C860 C858 1.391 . S
C860 C861 1.400 . S
C861 C855 1.491 . S
C861 C860 1.400 . S
C861 C862 1.398 . S
C862 H850 0.950 . S
C862 C861 1.398 . S
C862 C863 1.391 . S
C863 H851 0.950 . S
C863 C859 1.393 . S
C863 C862 1.391 . S
C233 C146 1.314 . S
C239 C6 1.312 . S
C253 C20 1.332 . S
C259 C160 1.335 . S
C273 C118 1.335 . S
C279 C34 1.332 . S
C293 C132 1.323 . S
C299 C48 1.315 . S
C313 C62 1.324 . S
C319 C202 1.316 . S
C333 C216 1.313 . S
C339 C76 1.312 . S
C353 C90 1.334 . S
C359 C174 1.334 . S
C373 C188 1.324 . S
C379 C104 1.332 . S
C393 C149 1.754 . S
C399 C9 1.759 . S
C413 C23 1.757 . S
C419 C163 1.766 . S
C433 C37 1.769 . S
C439 C121 1.765 . S
C453 C51 1.769 . S
C459 C135 1.762 . S
C473 C65 1.761 . S
C479 C205 1.754 . S
C493 C79 1.756 . S
C499 C219 1.754 . S
C513 C177 1.765 . S
C519 C93 1.757 . S
C533 C191 1.762 . S
C539 C107 1.769 . S
C553 C8 1.177 . S
C559 C92 1.208 . S
C573 C22 1.208 . S
C579 C106 1.183 . S
C593 C36 1.208 . S
C599 C64 1.176 . S
C613 C50 1.195 . S
C619 C78 1.174 . S
C633 C120 1.207 . S
C639 C204 1.175 . S
C653 C218 1.195 . S
C659 C134 1.202 . S
C673 C148 1.175 . S
C679 C176 1.207 . S
C693 C190 1.173 . S
C699 C162 1.196 . S
C713 C7 1.402 . S
C719 C217 1.404 . S
C733 C175 1.404 . S
C739 C21 1.402 . S
C753 C189 1.405 . S
C759 C35 1.400 . S
C773 C203 1.397 . S
C779 C49 1.404 . S
C793 C133 1.403 . S
C799 C63 1.402 . S
C813 C147 1.404 . S
C819 C77 1.397 . S
C833 C91 1.397 . S
C839 C161 1.404 . S
C853 C105 1.398 . S
C859 C119 1.400 . S
