# Generated by pormake.
# Topology uol, (4)-cn, num edge types: 1
# Building blocks:
#     Node 0, Type 0, BuildingBlock: KUFVIS_clean_sbu_0, # of connection points: 4
#     Node 1, Type 0, BuildingBlock: KUFVIS_clean_sbu_0, # of connection points: 4
#     Node 2, Type 0, BuildingBlock: KUFVIS_clean_sbu_0, # of connection points: 4
#     Node 3, Type 0, BuildingBlock: KUFVIS_clean_sbu_0, # of connection points: 4
#     Node 4, Type 0, BuildingBlock: KUFVIS_clean_sbu_0, # of connection points: 4
#     Node 5, Type 0, BuildingBlock: KUFVIS_clean_sbu_0, # of connection points: 4
#     Node 6, Type 0, BuildingBlock: KUFVIS_clean_sbu_0, # of connection points: 4
#     Node 7, Type 0, BuildingBlock: KUFVIS_clean_sbu_0, # of connection points: 4
#     Node 8, Type 0, BuildingBlock: KUFVIS_clean_sbu_0, # of connection points: 4
#     Node 9, Type 0, BuildingBlock: KUFVIS_clean_sbu_0, # of connection points: 4
#     Node 10, Type 0, BuildingBlock: KUFVIS_clean_sbu_0, # of connection points: 4
#     Node 11, Type 0, BuildingBlock: KUFVIS_clean_sbu_0, # of connection points: 4
#     Edge 12, Type (0, 0), BuildingBlock: UVAHIK_clean_linker_0, # of connection points: 2
#     Edge 13, Type (0, 0), BuildingBlock: UVAHIK_clean_linker_0, # of connection points: 2
#     Edge 14, Type (0, 0), BuildingBlock: UVAHIK_clean_linker_0, # of connection points: 2
#     Edge 15, Type (0, 0), BuildingBlock: UVAHIK_clean_linker_0, # of connection points: 2
#     Edge 16, Type (0, 0), BuildingBlock: UVAHIK_clean_linker_0, # of connection points: 2
#     Edge 17, Type (0, 0), BuildingBlock: UVAHIK_clean_linker_0, # of connection points: 2
#     Edge 18, Type (0, 0), BuildingBlock: UVAHIK_clean_linker_0, # of connection points: 2
#     Edge 19, Type (0, 0), BuildingBlock: UVAHIK_clean_linker_0, # of connection points: 2
#     Edge 20, Type (0, 0), BuildingBlock: UVAHIK_clean_linker_0, # of connection points: 2
#     Edge 21, Type (0, 0), BuildingBlock: UVAHIK_clean_linker_0, # of connection points: 2
#     Edge 22, Type (0, 0), BuildingBlock: UVAHIK_clean_linker_0, # of connection points: 2
#     Edge 23, Type (0, 0), BuildingBlock: UVAHIK_clean_linker_0, # of connection points: 2
#     Edge 24, Type (0, 0), BuildingBlock: UVAHIK_clean_linker_0, # of connection points: 2
#     Edge 25, Type (0, 0), BuildingBlock: UVAHIK_clean_linker_0, # of connection points: 2
#     Edge 26, Type (0, 0), BuildingBlock: UVAHIK_clean_linker_0, # of connection points: 2
#     Edge 27, Type (0, 0), BuildingBlock: UVAHIK_clean_linker_0, # of connection points: 2
#     Edge 28, Type (0, 0), BuildingBlock: UVAHIK_clean_linker_0, # of connection points: 2
#     Edge 29, Type (0, 0), BuildingBlock: UVAHIK_clean_linker_0, # of connection points: 2
#     Edge 30, Type (0, 0), BuildingBlock: UVAHIK_clean_linker_0, # of connection points: 2
#     Edge 31, Type (0, 0), BuildingBlock: UVAHIK_clean_linker_0, # of connection points: 2
#     Edge 32, Type (0, 0), BuildingBlock: UVAHIK_clean_linker_0, # of connection points: 2
#     Edge 33, Type (0, 0), BuildingBlock: UVAHIK_clean_linker_0, # of connection points: 2
#     Edge 34, Type (0, 0), BuildingBlock: UVAHIK_clean_linker_0, # of connection points: 2
#     Edge 35, Type (0, 0), BuildingBlock: UVAHIK_clean_linker_0, # of connection points: 2
# Relax obj value: 0.144
# Max RMSD: 0.197
# Mean RMSD: 0.197
data_MOF--net-uol--node1-KUFVIS_clean_sbu_0--edge1-UVAHIK_clean_linker_0
_symmetry_space_group_name_H-M    P1
_symmetry_Int_Tables_number       1
_symmetry_cell_setting            triclinic
loop_
_symmetry_equiv_pos_as_xyz
'x, y, z'
_cell_length_a     41.346995
_cell_length_b     41.345532
_cell_length_c     87.46765
_cell_angle_alpha  90.03503
_cell_angle_beta   90.025963
_cell_angle_gamma 120.01888
loop_
_atom_site_label
_atom_site_type_symbol
_atom_site_fract_x
_atom_site_fract_y
_atom_site_fract_z
_atom_type_partial_charge
Mn0 Mn 0.09273 0.30523 0.09518 0.0
Mn1 Mn 0.11139 0.33939 0.13118 0.0
C2 C 0.12143 0.28464 0.112 0.0
C3 C 0.10975 0.31067 0.06957 0.0
C4 C 0.03422 0.28088 0.1203 0.0
O5 O 0.08691 0.35111 0.09398 0.0
O6 O 0.10546 0.37459 0.11766 0.0
C7 C 0.18586 0.40572 0.12602 0.0
N8 N 0.16367 0.37319 0.13358 0.0
C9 C 0.21475 0.38171 0.14954 0.0
C10 C 0.23814 0.41542 0.14199 0.0
C11 C 0.22366 0.42738 0.13013 0.0
C12 C 0.17739 0.36123 0.14489 0.0
H13 H 0.17477 0.41505 0.11695 0.0
C14 C 0.09497 0.37633 0.10406 0.0
O15 O 0.07502 0.29118 0.07374 0.0
O16 O 0.13435 0.32756 0.08026 0.0
N17 N 0.1181 0.30854 0.14564 0.0
C18 C 0.0923 0.27452 0.15125 0.0
C19 C 0.10261 0.25802 0.16288 0.0
C20 C 0.13908 0.27694 0.1688 0.0
C21 C 0.16496 0.31219 0.16302 0.0
C22 C 0.15316 0.32714 0.15138 0.0
H23 H 0.06413 0.26001 0.14684 0.0
O24 O 0.10476 0.26532 0.09989 0.0
O25 O 0.12179 0.31609 0.11372 0.0
O26 O 0.04343 0.27657 0.10687 0.0
O27 O 0.05712 0.30443 0.12995 0.0
C28 C 0.20211 0.33292 0.16824 0.0
C29 C 0.22709 0.3675 0.16142 0.0
H30 H 0.2673 0.43224 0.14515 0.0
H31 H 0.24157 0.45329 0.12422 0.0
H32 H 0.08245 0.23083 0.16729 0.0
H33 H 0.14696 0.26408 0.17774 0.0
H34 H 0.21191 0.32232 0.17738 0.0
H35 H 0.25576 0.38285 0.16535 0.0
Mn36 Mn 0.78923 0.10242 0.26285 0.0
Mn37 Mn 0.7843 0.14129 0.29594 0.0
C38 C 0.83915 0.12563 0.27943 0.0
C39 C 0.80063 0.11076 0.23673 0.0
C40 C 0.74429 0.05751 0.2901 0.0
O41 O 0.74414 0.10916 0.26031 0.0
O42 O 0.75064 0.14501 0.28073 0.0
C43 C 0.81847 0.21996 0.28588 0.0
N44 N 0.8181 0.19394 0.29553 0.0
C45 C 0.87162 0.24086 0.3092 0.0
C46 C 0.87244 0.26821 0.29948 0.0
C47 C 0.84582 0.25768 0.28773 0.0
C48 C 0.84384 0.2037 0.30674 0.0
H49 H 0.79807 0.21194 0.27684 0.0
C50 C 0.73509 0.12952 0.26806 0.0
O51 O 0.77958 0.07758 0.2424 0.0
O52 O 0.81515 0.13853 0.24624 0.0
N53 N 0.81545 0.14003 0.31187 0.0
C54 C 0.81071 0.11027 0.32032 0.0
C55 C 0.83495 0.11605 0.33259 0.0
C56 C 0.86344 0.15239 0.3362 0.0
C57 C 0.86723 0.18266 0.32757 0.0
C58 C 0.84211 0.17521 0.31554 0.0
H59 H 0.78864 0.08231 0.31773 0.0
O60 O 0.83645 0.10322 0.26848 0.0
O61 O 0.81352 0.13505 0.27984 0.0
O62 O 0.75944 0.0584 0.27726 0.0
O63 O 0.74959 0.08672 0.29734 0.0
C64 C 0.89504 0.21993 0.33042 0.0
C65 C 0.89741 0.24898 0.32117 0.0
H66 H 0.89346 0.29734 0.30088 0.0
H67 H 0.84636 0.27861 0.28014 0.0
H68 H 0.83168 0.09255 0.33925 0.0
H69 H 0.88224 0.15672 0.3456 0.0
H70 H 0.91496 0.22652 0.33961 0.0
H71 H 0.91919 0.27747 0.32336 0.0
Mn72 Mn 0.66905 0.79024 0.4354 0.0
Mn73 Mn 0.63711 0.7683 0.47153 0.0
C74 C 0.69426 0.83551 0.45404 0.0
C75 C 0.66149 0.80797 0.41104 0.0
C76 C 0.68974 0.74603 0.45693 0.0
O77 O 0.621 0.74057 0.43332 0.0
O78 O 0.59812 0.73274 0.45724 0.0
C79 C 0.57606 0.78593 0.47035 0.0
N80 N 0.60828 0.79109 0.47681 0.0
C81 C 0.60782 0.83377 0.4954 0.0
C82 C 0.57449 0.82874 0.48902 0.0
C83 C 0.55863 0.80482 0.4764 0.0
C84 C 0.62392 0.81422 0.48888 0.0
H85 H 0.5638 0.76755 0.46066 0.0
C86 C 0.59528 0.72314 0.44315 0.0
O87 O 0.67981 0.79037 0.41316 0.0
O88 O 0.64748 0.81486 0.42303 0.0
N89 N 0.67182 0.80044 0.48665 0.0
C90 C 0.70499 0.80366 0.49098 0.0
C91 C 0.72507 0.82742 0.50316 0.0
C92 C 0.71062 0.84721 0.5109 0.0
C93 C 0.67618 0.84301 0.5064 0.0
C94 C 0.65743 0.81894 0.49417 0.0
H95 H 0.71614 0.78837 0.48514 0.0
O96 O 0.71183 0.8398 0.44125 0.0
O97 O 0.66176 0.80541 0.45531 0.0
O98 O 0.6958 0.76422 0.44448 0.0
O99 O 0.66709 0.74428 0.46726 0.0
C100 C 0.65997 0.86217 0.51341 0.0
C101 C 0.62593 0.85773 0.50786 0.0
H102 H 0.56098 0.84329 0.49363 0.0
H103 H 0.533 0.80092 0.47137 0.0
H104 H 0.75161 0.83048 0.50658 0.0
H105 H 0.72629 0.86568 0.52024 0.0
H106 H 0.67369 0.88076 0.52296 0.0
H107 H 0.61406 0.8731 0.51319 0.0
Mn108 Mn 0.87749 0.67412 0.59783 0.0
Mn109 Mn 0.8509 0.63417 0.63254 0.0
C110 C 0.84811 0.69478 0.6143 0.0
C111 C 0.8637 0.67065 0.57191 0.0
C112 C 0.93117 0.69048 0.62408 0.0
O113 O 0.88209 0.62754 0.59635 0.0
O114 O 0.85424 0.5986 0.61827 0.0
C115 C 0.77433 0.57367 0.6253 0.0
N116 N 0.79782 0.60414 0.63378 0.0
C117 C 0.74701 0.59824 0.6492 0.0
C118 C 0.72226 0.56665 0.6407 0.0
C119 C 0.73598 0.55443 0.62865 0.0
C120 C 0.78489 0.61638 0.64528 0.0
H121 H 0.78484 0.56413 0.61607 0.0
C122 C 0.86871 0.59938 0.60525 0.0
O123 O 0.898 0.68967 0.57673 0.0
O124 O 0.83783 0.65386 0.5821 0.0
N125 N 0.84621 0.6651 0.64763 0.0
C126 C 0.87345 0.69714 0.65418 0.0
C127 C 0.86416 0.71376 0.66612 0.0
C128 C 0.82715 0.69692 0.67138 0.0
C129 C 0.79972 0.66363 0.66463 0.0
C130 C 0.81059 0.64848 0.65272 0.0
H131 H 0.90202 0.71 0.65031 0.0
O132 O 0.86654 0.71478 0.6026 0.0
O133 O 0.84596 0.66239 0.61561 0.0
O134 O 0.92488 0.69973 0.61097 0.0
O135 O 0.90593 0.66507 0.63247 0.0
C136 C 0.76194 0.6451 0.66912 0.0
C137 C 0.73554 0.61262 0.66133 0.0
H138 H 0.69267 0.5517 0.64327 0.0
H139 H 0.71704 0.53016 0.622 0.0
H140 H 0.8855 0.73943 0.67128 0.0
H141 H 0.82007 0.70988 0.68055 0.0
H142 H 0.7528 0.65583 0.67845 0.0
H143 H 0.70647 0.59902 0.66472 0.0
Mn144 Mn 0.20365 0.89899 0.76639 0.0
Mn145 Mn 0.2244 0.88529 0.80223 0.0
C146 C 0.15729 0.8749 0.78464 0.0
C147 C 0.18731 0.87685 0.74151 0.0
C148 C 0.24503 0.9615 0.78938 0.0
O149 O 0.2542 0.90248 0.76419 0.0
O150 O 0.26161 0.88552 0.78782 0.0
C151 C 0.21027 0.80799 0.79926 0.0
N152 N 0.20333 0.83323 0.80634 0.0
C153 C 0.16127 0.78687 0.82411 0.0
C154 C 0.16812 0.7604 0.81708 0.0
C155 C 0.19262 0.77098 0.80456 0.0
C156 C 0.17964 0.82331 0.81832 0.0
H157 H 0.22915 0.81607 0.78965 0.0
C158 C 0.27182 0.894 0.77388 0.0
O159 O 0.20392 0.91241 0.74444 0.0
O160 O 0.18074 0.85451 0.75296 0.0
N161 N 0.19055 0.88422 0.81741 0.0
C162 C 0.18529 0.91254 0.82232 0.0
C163 C 0.16056 0.9062 0.83445 0.0
C164 C 0.14193 0.87102 0.84153 0.0
C165 C 0.14817 0.84247 0.83641 0.0
C166 C 0.17306 0.85039 0.82425 0.0
H167 H 0.1997 0.9397 0.81699 0.0
O168 O 0.15319 0.88976 0.77227 0.0
O169 O 0.188 0.8736 0.78576 0.0
O170 O 0.22798 0.95049 0.77662 0.0
O171 O 0.24667 0.93961 0.79926 0.0
C172 C 0.13028 0.8063 0.84274 0.0
C173 C 0.13663 0.77845 0.83653 0.0
H174 H 0.15454 0.73182 0.82112 0.0
H175 H 0.19793 0.75067 0.79902 0.0
H176 H 0.1559 0.92839 0.83834 0.0
H177 H 0.12275 0.86619 0.85084 0.0
H178 H 0.1112 0.79947 0.85225 0.0
H179 H 0.12218 0.75056 0.84132 0.0
Mn180 Mn 0.32029 0.20438 0.93188 0.0
Mn181 Mn 0.35907 0.21182 0.96669 0.0
C182 C 0.29903 0.15194 0.94701 0.0
C183 C 0.32219 0.19739 0.90556 0.0
C184 C 0.30111 0.23473 0.9602 0.0
O185 O 0.36728 0.2551 0.93108 0.0
O186 O 0.39292 0.2551 0.95373 0.0
C187 C 0.42276 0.203 0.95692 0.0
N188 N 0.39216 0.19219 0.96591 0.0
C189 C 0.40304 0.14747 0.97907 0.0
C190 C 0.43484 0.15827 0.97003 0.0
C191 C 0.44461 0.18601 0.95885 0.0
C192 C 0.38216 0.16514 0.97653 0.0
H193 H 0.43047 0.22446 0.94837 0.0
C194 C 0.39372 0.26986 0.94078 0.0
O195 O 0.30448 0.21297 0.91146 0.0
O196 O 0.33891 0.18627 0.91496 0.0
N197 N 0.33051 0.17227 0.98079 0.0
C198 C 0.29827 0.16409 0.98816 0.0
C199 C 0.28421 0.13639 -0.00048 0.0
C200 C 0.30386 0.11799 0.00342 0.0
C201 C 0.3373 0.12731 0.99586 0.0
C202 C 0.34981 0.15497 0.98457 0.0
H203 H 0.28328 0.17844 0.98535 0.0
O204 O 0.27902 0.15264 0.93573 0.0
O205 O 0.33181 0.18152 0.94881 0.0
O206 O 0.29572 0.22521 0.94613 0.0
O207 O 0.32475 0.23177 0.96865 0.0
C208 C 0.35855 0.11001 -0.00103 0.0
C209 C 0.39118 0.11981 0.99048 0.0
H210 H 0.45185 0.14535 0.97154 0.0
H211 H 0.46902 0.19441 0.95179 0.0
H212 H 0.2584 0.12937 0.00531 0.0
H213 H 0.29292 0.09665 0.01219 0.0
H214 H 0.34987 0.08884 0.00776 0.0
H215 H 0.40694 0.10588 0.99281 0.0
Mn216 Mn 0.66487 0.8753 0.73208 0.0
Mn217 Mn 0.62802 0.85861 0.69658 0.0
C218 C 0.68678 0.85063 0.71396 0.0
C219 C 0.66038 0.85522 0.75721 0.0
C220 C 0.68348 0.93588 0.70856 0.0
O221 O 0.61787 0.87882 0.73438 0.0
O222 O 0.59142 0.85878 0.71124 0.0
C223 C 0.56661 0.78076 0.70056 0.0
N224 N 0.59791 0.80616 0.69303 0.0
C225 C 0.59424 0.75907 0.67578 0.0
C226 C 0.5618 0.73243 0.68329 0.0
C227 C 0.54799 0.74332 0.69576 0.0
C228 C 0.61154 0.79597 0.68106 0.0
H229 H 0.55598 0.78906 0.71016 0.0
C230 C 0.5909 0.86903 0.72502 0.0
O231 O 0.679 0.89052 0.7538 0.0
O232 O 0.64421 0.83187 0.74606 0.0
N233 N 0.66023 0.85762 0.6811 0.0
C234 C 0.69278 0.88636 0.67558 0.0
C235 C 0.71078 0.87996 0.66332 0.0
C236 C 0.69493 0.84422 0.65674 0.0
C237 C 0.66112 0.81523 0.66245 0.0
C238 C 0.64435 0.82333 0.67464 0.0
H239 H 0.70503 0.91393 0.68054 0.0
O240 O 0.70609 0.86609 0.72622 0.0
O241 O 0.65447 0.84878 0.71295 0.0
O242 O 0.69116 0.92593 0.72121 0.0
O243 O 0.65915 0.91325 0.69907 0.0
C244 C 0.64381 0.77842 0.65676 0.0
C245 C 0.61045 0.75034 0.66344 0.0
H246 H 0.54743 0.7035 0.67965 0.0
H247 H 0.52307 0.72288 0.70165 0.0
H248 H 0.73685 0.90249 0.65896 0.0
H249 H 0.70908 0.83931 0.64738 0.0
H250 H 0.65624 0.77128 0.64739 0.0
H251 H 0.5977 0.72204 0.6591 0.0
Mn252 Mn 0.79158 0.67952 0.90143 0.0
Mn253 Mn 0.7766 0.63859 0.86687 0.0
C254 C 0.83985 0.70248 0.88408 0.0
C255 C 0.80527 0.67733 0.92703 0.0
C256 C 0.7481 0.69073 0.87633 0.0
O257 O 0.74218 0.63121 0.90359 0.0
O258 O 0.74128 0.60163 0.88184 0.0
C259 C 0.80027 0.58314 0.87307 0.0
N260 N 0.80352 0.61243 0.86474 0.0
C261 C 0.85042 0.61199 0.84861 0.0
C262 C 0.8474 0.58164 0.85695 0.0
C263 C 0.82229 0.56723 0.86926 0.0
C264 C 0.82769 0.62662 0.85292 0.0
H265 H 0.78103 0.57206 0.88255 0.0
C266 C 0.72823 0.60238 0.89503 0.0
O267 O 0.7877 0.69456 0.92279 0.0
O268 O 0.81471 0.66168 0.91646 0.0
N269 N 0.80882 0.67092 0.85119 0.0
C270 C 0.80965 0.70138 0.84478 0.0
C271 C 0.83405 0.71974 0.83256 0.0
C272 C 0.857 0.70638 0.82693 0.0
C273 C 0.85524 0.67466 0.83354 0.0
C274 C 0.83025 0.6574 0.84565 0.0
H275 H 0.79197 0.7117 0.84899 0.0
O276 O 0.8415 0.72221 0.89589 0.0
O277 O 0.81074 0.66914 0.88318 0.0
O278 O 0.76579 0.7021 0.88895 0.0
O279 O 0.74845 0.66557 0.86792 0.0
C280 C 0.87788 0.65996 0.82882 0.0
C281 C 0.87554 0.62871 0.83637 0.0
H282 H 0.86444 0.56937 0.85409 0.0
H283 H 0.81994 0.54393 0.8758 0.0
H284 H 0.83522 0.74419 0.82751 0.0
H285 H 0.87603 0.72082 0.8176 0.0
H286 H 0.89761 0.67284 0.81954 0.0
H287 H 0.89347 0.618 0.83278 0.0
Mn288 Mn 0.11933 0.79347 0.06683 0.0
Mn289 Mn 0.13673 0.77252 0.03157 0.0
C290 C 0.14486 0.83975 0.04862 0.0
C291 C 0.13856 0.80933 0.09209 0.0
C292 C 0.0594 0.75203 0.04289 0.0
O293 O 0.11505 0.74266 0.06945 0.0
O294 O 0.13497 0.73545 0.04643 0.0
C295 C 0.21386 0.78756 0.03646 0.0
N296 N 0.18923 0.79387 0.02851 0.0
C297 C 0.23741 0.83593 0.01134 0.0
C298 C 0.26329 0.82971 0.01928 0.0
C299 C 0.25147 0.80552 0.03192 0.0
C300 C 0.20033 0.81726 0.01639 0.0
H301 H 0.20482 0.76897 0.04618 0.0
C302 C 0.12431 0.72488 0.06018 0.0
O303 O 0.10341 0.79266 0.08841 0.0
O304 O 0.16228 0.81628 0.08113 0.0
N305 N 0.13918 0.80572 0.01579 0.0
C306 C 0.11104 0.80983 0.00976 0.0
C307 C 0.11835 0.83364 0.9972 0.0
C308 C 0.15434 0.85255 0.99082 0.0
C309 C 0.18269 0.84741 0.99706 0.0
C310 C 0.1737 0.82317 0.00953 0.0
H311 H 0.08326 0.79517 0.01454 0.0
O312 O 0.12922 0.84398 0.06072 0.0
O313 O 0.14645 0.80912 0.04781 0.0
O314 O 0.06904 0.76937 0.05563 0.0
O315 O 0.08215 0.75008 0.03357 0.0
C316 C 0.21969 0.86594 0.99158 0.0
C317 C 0.24707 0.86031 -0.00125 0.0
H318 H 0.29234 0.84356 0.01583 0.0
H319 H 0.2713 0.80071 0.03815 0.0
H320 H 0.09631 0.83744 0.99244 0.0
H321 H 0.15994 0.87113 0.98121 0.0
H322 H 0.22752 0.88503 0.98201 0.0
H323 H 0.27553 0.87512 0.99458 0.0
Mn324 Mn 0.33399 0.12998 0.22712 0.0
Mn325 Mn 0.36898 0.14879 0.19135 0.0
C326 C 0.30795 0.15124 0.20937 0.0
C327 C 0.33872 0.15032 0.25225 0.0
C328 C 0.3183 0.07025 0.20344 0.0
O329 O 0.38317 0.13057 0.2289 0.0
O330 O 0.40796 0.15228 0.20567 0.0
C331 C 0.42614 0.22848 0.19511 0.0
N332 N 0.39545 0.20141 0.18776 0.0
C333 C 0.39411 0.24643 0.17074 0.0
C334 C 0.42588 0.27478 0.17806 0.0
C335 C 0.44189 0.26577 0.19032 0.0
C336 C 0.37971 0.20978 0.17599 0.0
H337 H 0.43847 0.22164 0.20456 0.0
C338 C 0.41008 0.14264 0.21939 0.0
O339 O 0.32204 0.1149 0.249 0.0
O340 O 0.35273 0.17357 0.24096 0.0
N341 N 0.33459 0.14669 0.17617 0.0
C342 C 0.30305 0.11634 0.17079 0.0
C343 C 0.28314 0.12072 0.15873 0.0
C344 C 0.29607 0.15612 0.1522 0.0
C345 C 0.3289 0.18682 0.15776 0.0
C346 C 0.34769 0.18073 0.16975 0.0
H347 H 0.29304 0.08901 0.1757 0.0
O348 O 0.28997 0.1351 0.22178 0.0
O349 O 0.34135 0.15584 0.208 0.0
O350 O 0.31044 0.07929 0.21629 0.0
O351 O 0.34137 0.09394 0.19387 0.0
C352 C 0.3433 0.22338 0.1521 0.0
C353 C 0.37582 0.25318 0.15861 0.0
H354 H 0.43804 0.30359 0.17444 0.0
H355 H 0.4663 0.28752 0.19608 0.0
H356 H 0.25784 0.09687 0.15449 0.0
H357 H 0.28043 0.15945 0.143 0.0
H358 H 0.32925 0.22898 0.14289 0.0
H359 H 0.38632 0.28124 0.1543 0.0
Mn360 Mn 0.20275 0.31496 0.39885 0.0
Mn361 Mn 0.21409 0.35664 0.36462 0.0
C362 C 0.15491 0.28886 0.38131 0.0
C363 C 0.18801 0.31467 0.4245 0.0
C364 C 0.24891 0.30944 0.37316 0.0
O365 O 0.24916 0.36577 0.40151 0.0
O366 O 0.24827 0.39412 0.3797 0.0
C367 C 0.18418 0.40627 0.37249 0.0
N368 N 0.18324 0.37883 0.36355 0.0
C369 C 0.13221 0.37455 0.34873 0.0
C370 C 0.13278 0.40296 0.3577 0.0
C371 C 0.15881 0.41879 0.36967 0.0
C372 C 0.15805 0.36311 0.35214 0.0
H373 H 0.20407 0.4184 0.38173 0.0
C374 C 0.26151 0.3945 0.39297 0.0
O375 O 0.20827 0.30039 0.42011 0.0
O376 O 0.17629 0.3285 0.41404 0.0
N377 N 0.18305 0.32417 0.34868 0.0
C378 C 0.18652 0.29741 0.34097 0.0
C379 C 0.16278 0.27903 0.32854 0.0
C380 C 0.13611 0.28872 0.32404 0.0
C381 C 0.13372 0.31701 0.3319 0.0
C382 C 0.15834 0.33456 0.34411 0.0
H383 H 0.20719 0.29006 0.34426 0.0
O384 O 0.15504 0.2695 0.39295 0.0
O385 O 0.18181 0.32341 0.38073 0.0
O386 O 0.2325 0.2973 0.386 0.0
O387 O 0.24567 0.33321 0.36488 0.0
C388 C 0.10781 0.32842 0.32813 0.0
C389 C 0.10687 0.35699 0.3366 0.0
H390 H 0.11328 0.41271 0.35555 0.0
H391 H 0.15931 0.4406 0.37669 0.0
H392 H 0.165 0.25741 0.32247 0.0
H393 H 0.11763 0.27427 0.31454 0.0
H394 H 0.08828 0.31521 0.3188 0.0
H395 H 0.08656 0.36525 0.3337 0.0
Mn396 Mn 0.88791 0.20357 0.5702 0.0
Mn397 Mn 0.86603 0.21644 0.5345 0.0
C398 C 0.86114 0.15343 0.55371 0.0
C399 C 0.87031 0.19308 0.59574 0.0
C400 C 0.9451 0.24165 0.54529 0.0
O401 O 0.89177 0.25453 0.57087 0.0
O402 O 0.86588 0.25464 0.54823 0.0
C403 C 0.78775 0.198 0.53914 0.0
N404 N 0.81316 0.19194 0.5317 0.0
C405 C 0.76537 0.14487 0.51574 0.0
C406 C 0.7387 0.15078 0.52315 0.0
C407 C 0.74993 0.17738 0.53493 0.0
C408 C 0.80265 0.16629 0.52041 0.0
H409 H 0.79631 0.21841 0.54821 0.0
C410 C 0.87881 0.26868 0.56142 0.0
O411 O 0.90529 0.20874 0.59185 0.0
O412 O 0.846 0.18391 0.58485 0.0
N413 N 0.86493 0.18132 0.51993 0.0
C414 C 0.89383 0.17776 0.51442 0.0
C415 C 0.88715 0.15167 0.50281 0.0
C416 C 0.85097 0.12983 0.49685 0.0
C417 C 0.82176 0.13431 0.50255 0.0
C418 C 0.83013 0.16091 0.51407 0.0
H419 H 0.92175 0.1946 0.51887 0.0
O420 O 0.87797 0.15199 0.56598 0.0
O421 O 0.85913 0.18358 0.5518 0.0
O422 O 0.93705 0.22555 0.5583 0.0
O423 O 0.92104 0.24197 0.53619 0.0
C424 C 0.78454 0.11293 0.49746 0.0
C425 C 0.75635 0.11813 0.50408 0.0
H426 H 0.70948 0.13484 0.51998 0.0
H427 H 0.72948 0.18197 0.54076 0.0
H428 H 0.90984 0.14838 0.49846 0.0
H429 H 0.84588 0.10956 0.48796 0.0
H430 H 0.7772 0.092 0.48863 0.0
H431 H 0.72776 0.10115 0.50022 0.0
C432 C 0.11507 0.67867 0.08075 0.0
C433 C 0.12142 0.68942 0.06529 0.0
C434 C 0.11092 0.64442 0.08535 0.0
C435 C 0.08402 0.55119 0.07083 0.0
H436 H 0.13844 0.5453 0.10581 0.0
C437 C 0.09307 0.41939 0.08436 0.0
C438 C 0.09358 0.41021 0.09979 0.0
C439 C 0.09443 0.45279 0.08042 0.0
C440 C 0.12254 0.5463 0.09617 0.0
H441 H 0.12869 0.67263 0.04259 0.0
H442 H 0.1213 0.61301 0.05066 0.0
H443 H 0.14501 0.60527 0.09866 0.0
H444 H 0.09438 0.42819 0.12318 0.0
H445 H 0.09573 0.48579 0.11631 0.0
H446 H 0.06123 0.49226 0.06837 0.0
C447 C 0.11934 0.63101 0.05917 0.0
C448 C 0.12643 0.58069 0.09206 0.0
C449 C 0.12385 0.66532 0.05459 0.0
C450 C 0.09436 0.4346 0.11118 0.0
C451 C 0.09536 0.46777 0.10724 0.0
C452 C 0.07986 0.51672 0.07501 0.0
C453 C 0.11265 0.62015 0.07456 0.0
C454 C 0.10746 0.5835 0.07928 0.0
C455 C 0.09598 0.47755 0.09182 0.0
C456 C 0.09929 0.51391 0.08766 0.0
H457 H 0.11311 0.69659 0.08929 0.0
H458 H 0.10564 0.6366 0.09729 0.0
H459 H 0.06868 0.55253 0.06104 0.0
H460 H 0.09271 0.40131 0.07531 0.0
H461 H 0.09534 0.45965 0.06842 0.0
C462 C 0.69793 0.16225 0.26888 0.0
C463 C 0.70469 0.13521 0.26224 0.0
C464 C 0.66835 0.16664 0.2638 0.0
C465 C 0.59022 0.15262 0.2581 0.0
H466 H 0.56196 0.14093 0.21532 0.0
C467 C 0.44732 0.1289 0.23819 0.0
C468 C 0.44556 0.14542 0.22441 0.0
C469 C 0.48048 0.13053 0.24271 0.0
C470 C 0.56972 0.14474 0.22729 0.0
H471 H 0.68592 0.09193 0.2449 0.0
H472 H 0.63389 0.09904 0.23628 0.0
H473 H 0.61802 0.13987 0.22299 0.0
H474 H 0.47765 0.17752 0.20477 0.0
H475 H 0.53565 0.18093 0.21282 0.0
H476 H 0.54236 0.15823 0.26237 0.0
C477 C 0.65185 0.11734 0.24522 0.0
C478 C 0.6016 0.14363 0.23171 0.0
C479 C 0.68159 0.11311 0.25023 0.0
C480 C 0.47791 0.16417 0.21538 0.0
C481 C 0.51115 0.166 0.21996 0.0
C482 C 0.55847 0.15393 0.25367 0.0
C483 C 0.64471 0.14396 0.25203 0.0
C484 C 0.612 0.14715 0.24719 0.0
C485 C 0.51274 0.14896 0.23363 0.0
C486 C 0.5476 0.14958 0.23823 0.0
H487 H 0.71542 0.18003 0.27805 0.0
H488 H 0.66402 0.18786 0.2691 0.0
H489 H 0.59718 0.15504 0.27014 0.0
H490 H 0.42291 0.11409 0.24539 0.0
H491 H 0.48055 0.1166 0.25318 0.0
C492 C 0.53497 0.66472 0.44875 0.0
C493 C 0.56012 0.69021 0.43804 0.0
C494 C 0.50188 0.63348 0.44392 0.0
C495 C 0.45745 0.57466 0.40977 0.0
H496 H 0.36674 0.53921 0.43355 0.0
C497 C 0.31412 0.45934 0.38819 0.0
C498 C 0.29354 0.42992 0.39846 0.0
C499 C 0.34571 0.49194 0.39312 0.0
C500 C 0.39195 0.54874 0.42686 0.0
H501 H 0.56988 0.70328 0.41386 0.0
H502 H 0.51173 0.6494 0.40548 0.0
H503 H 0.42386 0.59492 0.44181 0.0
H504 H 0.28932 0.41222 0.4221 0.0
H505 H 0.34442 0.46951 0.43072 0.0
H506 H 0.42522 0.52873 0.3947 0.0
C507 C 0.51799 0.65296 0.41759 0.0
C508 C 0.4247 0.58053 0.4316 0.0
C509 C 0.55128 0.68397 0.4224 0.0
C510 C 0.30466 0.43428 0.41388 0.0
C511 C 0.33605 0.46711 0.41884 0.0
C512 C 0.42462 0.54315 0.40495 0.0
C513 C 0.49296 0.62722 0.42829 0.0
C514 C 0.4579 0.59379 0.42314 0.0
C515 C 0.35713 0.496 0.40845 0.0
C516 C 0.39162 0.52984 0.41348 0.0
H517 H 0.54104 0.66857 0.46087 0.0
H518 H 0.48359 0.61394 0.45246 0.0
H519 H 0.48262 0.58359 0.40314 0.0
H520 H 0.30634 0.45693 0.37624 0.0
H521 H 0.3613 0.51399 0.38493 0.0
C522 C 0.84893 0.53178 0.6082 0.0
C523 C 0.86991 0.56573 0.60036 0.0
C524 C 0.85042 0.5001 0.60382 0.0
C525 C 0.87656 0.4597 0.57164 0.0
H526 H 0.8754 0.39312 0.60311 0.0
C527 C 0.89874 0.32391 0.57869 0.0
C528 C 0.87843 0.303 0.5659 0.0
C529 C 0.89861 0.3565 0.58279 0.0
C530 C 0.87615 0.4116 0.59418 0.0
H531 H 0.90895 0.59298 0.58175 0.0
H532 H 0.91216 0.53785 0.57431 0.0
H533 H 0.87456 0.44947 0.61038 0.0
H534 H 0.84156 0.29969 0.54752 0.0
H535 H 0.84065 0.35593 0.55488 0.0
H536 H 0.87929 0.42238 0.55545 0.0
C537 C 0.894 0.53556 0.58368 0.0
C538 C 0.87513 0.44367 0.59834 0.0
C539 C 0.89229 0.56722 0.58798 0.0
C540 C 0.85779 0.31529 0.55736 0.0
C541 C 0.85743 0.34769 0.56153 0.0
C542 C 0.87782 0.42774 0.56747 0.0
C543 C 0.87316 0.50165 0.59158 0.0
C544 C 0.87508 0.46799 0.58712 0.0
C545 C 0.87791 0.36875 0.57427 0.0
C546 C 0.87742 0.40319 0.57869 0.0
H547 H 0.83109 0.52952 0.61769 0.0
H548 H 0.83342 0.47428 0.60996 0.0
H549 H 0.87619 0.47761 0.56269 0.0
H550 H 0.91513 0.31537 0.58546 0.0
H551 H 0.91513 0.37233 0.59253 0.0
C552 C 0.55233 0.87508 0.74574 0.0
C553 C 0.55744 0.87023 0.7302 0.0
C554 C 0.52125 0.87728 0.75051 0.0
C555 C 0.42693 0.8563 0.73801 0.0
H556 H 0.43969 0.92738 0.76972 0.0
C557 C 0.31315 0.89315 0.75308 0.0
C558 C 0.30539 0.893 0.76874 0.0
C559 C 0.34412 0.89074 0.74831 0.0
C560 C 0.43571 0.90725 0.76092 0.0
H561 H 0.53376 0.86381 0.70747 0.0
H562 H 0.48018 0.8685 0.71574 0.0
H563 H 0.49311 0.92182 0.76158 0.0
H564 H 0.32453 0.89086 0.79166 0.0
H565 H 0.37865 0.88698 0.78327 0.0
H566 H 0.36958 0.84225 0.73723 0.0
C567 C 0.49973 0.86984 0.72431 0.0
C568 C 0.46623 0.90392 0.7563 0.0
C569 C 0.53062 0.86733 0.71955 0.0
C570 C 0.32961 0.89098 0.77951 0.0
C571 C 0.36074 0.88896 0.77472 0.0
C572 C 0.3965 0.85988 0.74255 0.0
C573 C 0.49472 0.87497 0.73983 0.0
C574 C 0.46219 0.87834 0.74481 0.0
C575 C 0.36814 0.88855 0.75909 0.0
C576 C 0.40059 0.88532 0.75407 0.0
H577 H 0.57229 0.87712 0.75426 0.0
H578 H 0.51791 0.88057 0.76259 0.0
H579 H 0.42267 0.83589 0.72932 0.0
H580 H 0.29502 0.89457 0.74449 0.0
H581 H 0.3494 0.89079 0.73617 0.0
C582 C 0.42773 0.32688 0.92435 0.0
C583 C 0.42776 0.30521 0.93673 0.0
C584 C 0.46031 0.35969 0.92032 0.0
C585 C 0.56178 0.40426 0.92234 0.0
H586 H 0.56089 0.49614 0.91447 0.0
C587 C 0.68365 0.5335 0.89353 0.0
C588 C 0.69481 0.56818 0.9005 0.0
C589 C 0.65144 0.50142 0.8984 0.0
C590 C 0.56151 0.47069 0.9167 0.0
H591 H 0.46205 0.30111 0.9546 0.0
H592 H 0.51887 0.35817 0.94742 0.0
H593 H 0.50322 0.44006 0.9222 0.0
H594 H 0.68097 0.5963 0.91811 0.0
H595 H 0.62447 0.5402 0.92648 0.0
H596 H 0.61999 0.43478 0.91674 0.0
C597 C 0.49362 0.3497 0.94087 0.0
C598 C 0.52855 0.43862 0.921 0.0
C599 C 0.461 0.31718 0.94503 0.0
C600 C 0.67319 0.57001 0.91252 0.0
C601 C 0.64074 0.538 0.91725 0.0
C602 C 0.59463 0.43619 0.91786 0.0
C603 C 0.4936 0.37117 0.92846 0.0
C604 C 0.52843 0.40516 0.92389 0.0
C605 C 0.62953 0.50346 0.91021 0.0
C606 C 0.5948 0.46969 0.91504 0.0
H607 H 0.40258 0.31848 0.91774 0.0
H608 H 0.45967 0.37568 0.91063 0.0
H609 H 0.56233 0.3787 0.9244 0.0
H610 H 0.69977 0.53111 0.88429 0.0
H611 H 0.64324 0.47512 0.89274 0.0
C612 C 0.31081 0.20449 0.19501 0.0
C613 C 0.29178 0.16639 0.19862 0.0
C614 C 0.29479 0.21893 0.18503 0.0
C615 C 0.24694 0.24629 0.16988 0.0
H616 H 0.18476 0.18332 0.13681 0.0
C617 C 0.12603 0.23618 0.12696 0.0
C618 C 0.14279 0.27304 0.12167 0.0
C619 C 0.1466 0.22438 0.13559 0.0
C620 C 0.20193 0.20116 0.14603 0.0
H621 H 0.24008 0.11404 0.19609 0.0
H622 H 0.21158 0.13907 0.17885 0.0
H623 H 0.21659 0.16096 0.15349 0.0
H624 H 0.19458 0.32564 0.11991 0.0
H625 H 0.23078 0.30524 0.13524 0.0
H626 H 0.23298 0.28679 0.1621 0.0
C627 C 0.23954 0.15766 0.18305 0.0
C628 C 0.22005 0.18831 0.15564 0.0
C629 C 0.25564 0.14331 0.19298 0.0
C630 C 0.18084 0.29751 0.12447 0.0
C631 C 0.20149 0.28576 0.13313 0.0
C632 C 0.22925 0.25933 0.16011 0.0
C633 C 0.25913 0.19553 0.17875 0.0
C634 C 0.24212 0.21039 0.16789 0.0
C635 C 0.1845 0.24909 0.13882 0.0
C636 C 0.20588 0.23657 0.14832 0.0
H637 H 0.33819 0.22298 0.19978 0.0
H638 H 0.31071 0.2482 0.18199 0.0
H639 H 0.26348 0.26398 0.17925 0.0
H640 H 0.09685 0.21669 0.12461 0.0
H641 H 0.13267 0.19605 0.13992 0.0
C642 C 0.87882 0.11937 0.29909 0.0
C643 C 0.87203 0.14211 0.28935 0.0
C644 C 0.91002 0.13508 0.30866 0.0
C645 C 0.98469 0.22828 0.3235 0.0
H646 H 0.02282 0.16691 0.33985 0.0
C647 C 0.09844 0.28594 0.37007 0.0
C648 C 0.12351 0.27256 0.37062 0.0
C649 C 0.06747 0.26924 0.36036 0.0
C650 C 0.01325 0.18493 0.33524 0.0
H651 H 0.89376 0.19798 0.28051 0.0
H652 H 0.94978 0.22536 0.2963 0.0
H653 H 0.97343 0.14089 0.32124 0.0
H654 H 0.13554 0.23047 0.36237 0.0
H655 H 0.08371 0.20319 0.34443 0.0
H656 H 0.02669 0.27325 0.33648 0.0
C657 C 0.93002 0.19588 0.29757 0.0
C658 C 0.98394 0.16954 0.32472 0.0
C659 C 0.89808 0.18027 0.2884 0.0
C660 C 0.11671 0.24154 0.36182 0.0
C661 C 0.08654 0.2256 0.35172 0.0
C662 C 0.01485 0.24403 0.33362 0.0
C663 C 0.93609 0.1737 0.30815 0.0
C664 C 0.96876 0.19077 0.31882 0.0
C665 C 0.06141 0.23923 0.35078 0.0
C666 C 0.02942 0.22252 0.33979 0.0
H667 H 0.85919 0.08964 0.29971 0.0
H668 H 0.91279 0.11685 0.31675 0.0
H669 H 0.97379 0.24573 0.31954 0.0
H670 H 0.10268 0.30914 0.37724 0.0
H671 H 0.04834 0.27991 0.36049 0.0
C672 C 0.86289 0.10458 0.53794 0.0
C673 C 0.84263 0.12065 0.54374 0.0
C674 C 0.84541 0.07306 0.52859 0.0
C675 C 0.75254 0.99517 0.51694 0.0
H676 H 0.80854 0.99125 0.48213 0.0
C677 C 0.68766 0.88242 0.46948 0.0
C678 C 0.70901 0.86622 0.46512 0.0
C679 C 0.70278 0.91339 0.47922 0.0
C680 C 0.79266 0.99181 0.49187 0.0
H681 H 0.78784 0.11475 0.54592 0.0
H682 H 0.75712 0.06013 0.52916 0.0
H683 H 0.83678 0.0451 0.4991 0.0
H684 H 0.76318 0.8704 0.46655 0.0
H685 H 0.78973 0.92436 0.48374 0.0
H686 H 0.7081 0.94219 0.50939 0.0
C687 C 0.78657 0.07191 0.53161 0.0
C688 C 0.80886 0.02262 0.50164 0.0
C689 C 0.80416 0.10346 0.54099 0.0
C690 C 0.74607 0.88212 0.47009 0.0
C691 C 0.76124 0.91306 0.4798 0.0
C692 C 0.73618 0.96451 0.50705 0.0
C693 C 0.80718 0.05675 0.52506 0.0
C694 C 0.78922 0.02446 0.51442 0.0
C695 C 0.73978 0.92904 0.48445 0.0
C696 C 0.75629 0.96227 0.49456 0.0
H697 H 0.89242 0.11686 0.5404 0.0
H698 H 0.8619 0.06148 0.52414 0.0
H699 H 0.7367 0.99548 0.52674 0.0
H700 H 0.65944 0.87135 0.46523 0.0
H701 H 0.68579 0.92547 0.48243 0.0
C702 C 0.79013 0.68651 0.62667 0.0
C703 C 0.82879 0.70806 0.62433 0.0
C704 C 0.77171 0.70039 0.63561 0.0
C705 C 0.77999 0.78808 0.64956 0.0
H706 H 0.71593 0.7279 0.68269 0.0
C707 C 0.73638 0.85365 0.69715 0.0
C708 C 0.70015 0.83311 0.70302 0.0
C709 C 0.74979 0.83703 0.68702 0.0
C710 C 0.73319 0.74492 0.67334 0.0
H711 H 0.87825 0.76159 0.62839 0.0
H712 H 0.84626 0.78596 0.64406 0.0
H713 H 0.74207 0.70121 0.66516 0.0
H714 H 0.65072 0.77849 0.70439 0.0
H715 H 0.67343 0.74936 0.68624 0.0
H716 H 0.77045 0.83156 0.65736 0.0
C717 C 0.83017 0.75823 0.63922 0.0
C718 C 0.74835 0.72962 0.66336 0.0
C719 C 0.84851 0.74426 0.63038 0.0
C720 C 0.67824 0.79512 0.69943 0.0
C721 C 0.69154 0.77841 0.68925 0.0
C722 C 0.76437 0.80321 0.65936 0.0
C723 C 0.79161 0.7364 0.64197 0.0
C724 C 0.77262 0.75133 0.65161 0.0
C725 C 0.72732 0.79934 0.68273 0.0
C726 C 0.74149 0.78213 0.67161 0.0
H727 H 0.77422 0.65908 0.62154 0.0
H728 H 0.74189 0.68317 0.63739 0.0
H729 H 0.79799 0.80521 0.64038 0.0
H730 H 0.75414 0.88274 0.70023 0.0
H731 H 0.77792 0.85371 0.68266 0.0
C732 C 0.89074 0.69815 0.87076 0.0
C733 C 0.87124 0.71724 0.87337 0.0
C734 C 0.9214 0.71307 0.86087 0.0
C735 C 0.96551 0.78406 0.83005 0.0
H736 H 0.0513 0.77244 0.83811 0.0
C737 C 0.1071 0.87395 0.80049 0.0
C738 C 0.12573 0.85567 0.79519 0.0
C739 C 0.07549 0.85508 0.8097 0.0
C740 C 0.02749 0.7758 0.8357 0.0
H741 H 0.87001 0.7681 0.86913 0.0
H742 H 0.92386 0.79474 0.85209 0.0
H743 H -0.00215 0.74393 0.85531 0.0
H744 H 0.12473 0.80289 0.79416 0.0
H745 H 0.06968 0.76981 0.81063 0.0
H746 H -0.0041 0.81707 0.81074 0.0
C747 C 0.91469 0.76746 0.85698 0.0
C748 C -0.00331 0.75923 0.84549 0.0
C749 C 0.88404 0.75243 0.8668 0.0
C750 C 0.11158 0.81787 0.79871 0.0
C751 C 0.08005 0.79897 0.80801 0.0
C752 C -0.00345 0.80112 0.82044 0.0
C753 C 0.93343 0.74772 0.85369 0.0
C754 C 0.96549 0.76357 0.84289 0.0
C755 C 0.06168 0.81741 0.81356 0.0
C756 C 0.02804 0.79757 0.82329 0.0
H757 H 0.88207 0.67159 0.87627 0.0
H758 H 0.93507 0.69705 0.85863 0.0
H759 H 0.94156 0.78706 0.82741 0.0
H760 H 0.1172 0.90293 0.79759 0.0
H761 H 0.062 0.87003 0.8139 0.0
C762 C 0.14166 0.88537 0.03127 0.0
C763 C 0.1623 0.87012 0.03747 0.0
C764 C 0.15799 0.91437 0.02067 0.0
C765 C 0.24956 0.98768 0.0056 0.0
H766 H 0.18761 0.9886 0.97248 0.0
C767 C 0.3065 0.10058 0.95825 0.0
C768 C 0.28503 0.11785 0.95619 0.0
C769 C 0.29248 0.06778 0.96686 0.0
C770 C 0.20523 0.98866 0.98167 0.0
H771 H 0.2169 0.87534 0.03899 0.0
H772 H 0.24552 0.92535 0.02005 0.0
H773 H 0.162 0.9368 0.99052 0.0
H774 H 0.23126 0.11328 0.96016 0.0
H775 H 0.2067 0.05615 0.9753 0.0
H776 H 0.29291 0.03911 0.99644 0.0
C777 C 0.21661 0.91485 0.02315 0.0
C778 C 0.19052 0.95916 0.99209 0.0
C779 C 0.20019 0.88587 0.0338 0.0
C780 C 0.24855 0.10076 0.96195 0.0
C781 C 0.23446 0.06798 0.97048 0.0
C782 C 0.26442 0.01684 0.99501 0.0
C783 C 0.19547 0.92896 0.01622 0.0
C784 C 0.21219 0.95879 0.00443 0.0
C785 C 0.25644 0.05142 0.9732 0.0
C786 C 0.24212 0.01815 0.9832 0.0
H787 H 0.11265 0.87432 0.0344 0.0
H788 H 0.1412 0.92539 0.01602 0.0
H789 H 0.26706 0.98856 0.01498 0.0
H790 H 0.33415 0.11261 0.95331 0.0
H791 H 0.30982 0.05531 0.96861 0.0
C792 C 0.09644 0.28502 0.04294 0.0
C793 C 0.12141 0.31091 0.0536 0.0
C794 C 0.1093 0.28091 0.02869 0.0
C795 C 0.15309 0.25617 0.00874 0.0
H796 H 0.23425 0.33549 0.98575 0.0
C797 C 0.27763 0.25128 0.98354 0.0
C798 C 0.27743 0.24787 0.96752 0.0
C799 C 0.25359 0.26089 0.99073 0.0
C800 C 0.21107 0.31313 0.99187 0.0
H801 H 0.17861 0.35496 0.05727 0.0
H802 H 0.201 0.34778 0.03249 0.0
H803 H 0.19902 0.3508 0.00413 0.0
H804 H 0.25245 0.25319 0.94651 0.0
H805 H 0.21064 0.2709 0.95931 0.0
H806 H 0.16693 0.21891 0.99724 0.0
C807 C 0.17153 0.33066 0.03506 0.0
C808 C 0.19112 0.32181 0.00242 0.0
C809 C 0.15877 0.33456 0.04932 0.0
C810 C 0.25325 0.25546 0.95885 0.0
C811 C 0.22939 0.26559 0.96611 0.0
C812 C 0.17321 0.2476 0.99831 0.0
C813 C 0.14725 0.30288 0.02481 0.0
C814 C 0.16278 0.29352 0.01134 0.0
C815 C 0.22917 0.26781 0.9821 0.0
C816 C 0.20299 0.27611 0.99017 0.0
H817 H 0.06742 0.26654 0.04589 0.0
H818 H 0.0899 0.25949 0.02095 0.0
H819 H 0.13179 0.2338 0.01556 0.0
H820 H 0.29577 0.24569 0.99062 0.0
H821 H 0.25377 0.2626 0.0031 0.0
C822 C 0.82212 0.15372 0.2145 0.0
C823 C 0.80822 0.11745 0.22022 0.0
C824 C 0.8326 0.1617 0.19924 0.0
C825 C 0.87175 0.13297 0.16888 0.0
H826 H 0.86572 0.21182 0.14738 0.0
C827 C 0.97587 0.21833 0.12124 0.0
C828 C -0.00437 0.25616 0.12555 0.0
C829 C 0.94195 0.19371 0.12834 0.0
C830 C 0.86719 0.18934 0.15309 0.0
H831 H 0.7929 0.06062 0.21435 0.0
H832 H 0.81213 0.07484 0.18747 0.0
H833 H 0.82358 0.18004 0.16872 0.0
H834 H 0.99443 0.2985 0.13974 0.0
H835 H 0.93513 0.25594 0.15185 0.0
H836 H 0.91692 0.14391 0.15383 0.0
C837 C 0.81464 0.09698 0.19488 0.0
C838 C 0.84318 0.17122 0.16531 0.0
C839 C 0.80363 0.08885 0.21021 0.0
C840 C 0.9798 0.26944 0.13626 0.0
C841 C 0.9457 0.24511 0.14309 0.0
C842 C 0.89567 0.15099 0.15658 0.0
C843 C 0.82974 0.13366 0.18931 0.0
C844 C 0.8467 0.14438 0.17388 0.0
C845 C 0.92697 0.20682 0.13956 0.0
C846 C 0.89494 0.18074 0.14914 0.0
H847 H 0.82572 0.1763 0.22191 0.0
H848 H 0.84472 0.19037 0.19544 0.0
H849 H 0.87523 0.11249 0.17528 0.0
H850 H 0.98766 0.20739 0.11307 0.0
H851 H 0.92806 0.16429 0.12546 0.0
C852 C 0.7327 0.99393 0.29695 0.0
C853 C 0.72227 0.02138 0.29794 0.0
C854 C 0.7171 0.96333 0.3069 0.0
C855 C 0.67579 0.94175 0.34534 0.0
H856 H 0.66417 0.84405 0.3378 0.0
C857 C 0.63511 0.8372 0.39396 0.0
C858 C 0.65833 0.82175 0.39586 0.0
C859 C 0.63546 0.85478 0.38032 0.0
C860 C 0.66731 0.87125 0.34003 0.0
H861 H 0.68489 0.03669 0.30892 0.0
H862 H 0.65644 0.9826 0.32575 0.0
H863 H 0.67681 0.88697 0.31639 0.0
H864 H 0.69838 0.81043 0.38464 0.0
H865 H 0.69948 0.84184 0.36079 0.0
H866 H 0.66709 0.92664 0.3689 0.0
C867 C 0.67771 0.9853 0.31779 0.0
C868 C 0.67458 0.89583 0.3278 0.0
C869 C 0.69377 0.01615 0.30808 0.0
C870 C 0.68029 0.82224 0.38351 0.0
C871 C 0.68076 0.84003 0.36983 0.0
C872 C 0.66832 0.91724 0.35747 0.0
C873 C 0.69044 0.95947 0.31784 0.0
C874 C 0.67925 0.93155 0.33035 0.0
C875 C 0.65922 0.85751 0.3683 0.0
C876 C 0.66433 0.88187 0.355 0.0
H877 H 0.75479 -0.00256 0.28928 0.0
H878 H 0.72773 0.94415 0.30665 0.0
H879 H 0.68027 0.96935 0.34786 0.0
H880 H 0.61745 0.83679 0.40319 0.0
H881 H 0.61801 0.86736 0.37936 0.0
C882 C 0.82015 0.63893 0.55033 0.0
C883 C 0.85357 0.66927 0.55569 0.0
C884 C 0.80667 0.63987 0.53584 0.0
C885 C 0.82697 0.69362 0.49942 0.0
H886 H 0.72237 0.6642 0.50304 0.0
C887 C 0.75101 0.75075 0.46216 0.0
C888 C 0.71213 0.72858 0.46063 0.0
C889 C 0.77111 0.73714 0.47012 0.0
C890 C 0.75131 0.6717 0.50156 0.0
H891 H 0.90056 0.72327 0.54978 0.0
H892 H 0.87622 0.72571 0.52454 0.0
H893 H 0.75295 0.65217 0.52388 0.0
H894 H 0.66413 0.67402 0.46464 0.0
H895 H 0.69932 0.64938 0.47774 0.0
H896 H 0.8252 0.7146 0.47717 0.0
C897 C 0.86078 0.70082 0.53142 0.0
C898 C 0.76897 0.66481 0.51361 0.0
C899 C 0.87466 0.69954 0.54589 0.0
C900 C 0.69415 0.69153 0.46574 0.0
C901 C 0.71428 0.67766 0.47337 0.0
C902 C 0.80914 0.70054 0.48726 0.0
C903 C 0.82586 0.67159 0.5265 0.0
C904 C 0.80709 0.67601 0.51281 0.0
C905 C 0.75255 0.70104 0.47649 0.0
C906 C 0.77114 0.69002 0.48829 0.0
H907 H 0.80369 0.61495 0.55758 0.0
H908 H 0.78022 0.61643 0.53224 0.0
H909 H 0.85634 0.70243 0.49843 0.0
H910 H 0.76526 0.77962 0.45845 0.0
H911 H 0.80047 0.75598 0.47235 0.0
C912 C 0.16862 0.88291 0.71484 0.0
C913 C 0.17397 0.8617 0.72605 0.0
C914 C 0.15028 0.86618 0.70114 0.0
C915 C 0.08003 0.77335 0.68788 0.0
H916 H 0.09856 0.8183 0.6476 0.0
C917 C 0.98231 0.69196 0.6394 0.0
C918 C 0.9689 0.71124 0.6307 0.0
C919 C 0.01413 0.71145 0.64841 0.0
C920 C 0.09305 0.80549 0.6588 0.0
H921 H 0.16752 0.8075 0.73121 0.0
H922 H 0.13644 0.77866 0.70729 0.0
H923 H 0.14275 0.85117 0.66847 0.0
H924 H 0.97923 0.76585 0.62376 0.0
H925 H 0.0345 0.80024 0.64 0.0
H926 H 0.03006 0.72845 0.67863 0.0
C927 C 0.1453 0.80783 0.7092 0.0
C928 C 0.1183 0.82427 0.67073 0.0
C929 C 0.16321 0.82437 0.72288 0.0
C930 C 0.98928 0.75043 0.63033 0.0
C931 C 0.0209 0.77006 0.63961 0.0
C932 C 0.05494 0.75477 0.67607 0.0
C933 C 0.13727 0.82807 0.69844 0.0
C934 C 0.11201 0.80828 0.68539 0.0
C935 C 0.03271 0.75066 0.64923 0.0
C936 C 0.06107 0.77046 0.66137 0.0
H937 H 0.17673 0.9118 0.71699 0.0
H938 H 0.14443 0.88249 0.69309 0.0
H939 H 0.07371 0.76071 0.69913 0.0
H940 H 0.96723 0.6617 0.63973 0.0
H941 H 0.02312 0.69567 0.65534 0.0
C942 C 0.29748 0.19496 0.87911 0.0
C943 C 0.32194 0.19068 0.88896 0.0
C944 C 0.29428 0.18408 0.86377 0.0
C945 C 0.33779 0.15393 0.83372 0.0
H946 H 0.23528 0.08305 0.82282 0.0
C947 C 0.29319 0.01713 0.80338 0.0
C948 C 0.26179 0.0011 0.79377 0.0
C949 C 0.30519 0.05187 0.8101 0.0
C950 C 0.26404 0.10351 0.82539 0.0
H951 H 0.36392 0.17397 0.89029 0.0
H952 H 0.35821 0.15483 0.86374 0.0
H953 H 0.24803 0.12459 0.8445 0.0
H954 H 0.21961 0.00966 0.78286 0.0
H955 H 0.24028 0.07054 0.79493 0.0
H956 H 0.35369 0.13082 0.81523 0.0
C957 C 0.34163 0.16678 0.86771 0.0
C958 C 0.27138 0.12736 0.83786 0.0
C959 C 0.34464 0.17739 0.88301 0.0
C960 C 0.24402 0.02154 0.79018 0.0
C961 C 0.25571 0.05621 0.79714 0.0
C962 C 0.33045 0.13 0.82129 0.0
C963 C 0.31575 0.16907 0.85799 0.0
C964 C 0.30833 0.15147 0.84262 0.0
C965 C 0.28573 0.07114 0.80752 0.0
C966 C 0.29351 0.10327 0.81749 0.0
H967 H 0.27975 0.20529 0.88338 0.0
H968 H 0.27427 0.1864 0.85653 0.0
H969 H 0.36657 0.17281 0.83691 0.0
H970 H 0.30746 0.00198 0.80627 0.0
H971 H 0.32812 0.06232 0.81817 0.0
C972 C 0.63336 0.8044 0.7766 0.0
C973 C 0.65933 0.84156 0.77288 0.0
C974 C 0.63533 0.78951 0.79062 0.0
C975 C 0.68056 0.81145 0.82895 0.0
H976 H 0.67431 0.71551 0.82321 0.0
C977 C 0.74531 0.74796 0.86962 0.0
C978 C 0.72806 0.70888 0.87018 0.0
C979 C 0.73037 0.76498 0.8604 0.0
C980 C 0.67534 0.74188 0.82519 0.0
H981 H 0.70627 0.89303 0.78127 0.0
H982 H 0.71042 0.86665 0.80571 0.0
H983 H 0.6601 0.74397 0.8021 0.0
H984 H 0.68006 0.6569 0.86298 0.0
H985 H 0.65305 0.6864 0.8475 0.0
H986 H 0.69706 0.80949 0.85206 0.0
C987 C 0.68819 0.84917 0.79786 0.0
C988 C 0.6672 0.75828 0.81302 0.0
C989 C 0.68594 0.86424 0.78383 0.0
C990 C 0.694 0.68713 0.86258 0.0
C991 C 0.67875 0.70405 0.85364 0.0
C992 C 0.68873 0.7949 0.84122 0.0
C993 C 0.66365 0.81127 0.80118 0.0
C994 C 0.66989 0.79333 0.81469 0.0
C995 C 0.69778 0.74305 0.85178 0.0
C996 C 0.68638 0.75996 0.83943 0.0
H997 H 0.61215 0.78642 0.76847 0.0
H998 H 0.61544 0.76046 0.79298 0.0
H999 H 0.68275 0.83843 0.8306 0.0
H1000 H 0.77181 0.76524 0.87531 0.0
H1001 H 0.74579 0.79508 0.85919 0.0
C1002 C 0.82183 0.64748 0.94781 0.0
C1003 C 0.81594 0.6765 0.94302 0.0
C1004 C 0.83807 0.64923 0.96195 0.0
C1005 C 0.87083 0.70103 -0.00131 0.0
H1006 H 0.95091 0.67917 0.99293 0.0
C1007 C 0.00294 0.75676 0.03701 0.0
C1008 C 0.02046 0.73521 0.03778 0.0
C1009 C 0.97012 0.74413 0.02847 0.0
C1010 C 0.92821 0.68459 0.99495 0.0
H1011 H 0.81981 0.72881 0.94963 0.0
H1012 H 0.84962 0.73262 0.97433 0.0
H1013 H 0.90734 0.66714 0.97241 0.0
H1014 H 0.01606 0.68241 0.03176 0.0
H1015 H 0.95787 0.65942 0.01758 0.0
H1016 H 0.89298 0.71967 0.02124 0.0
C1017 C 0.84106 0.70819 0.96723 0.0
C1018 C 0.90315 0.67772 0.98311 0.0
C1019 C 0.82416 0.70611 0.95309 0.0
C1020 C 0.00305 0.69954 0.0312 0.0
C1021 C 0.96996 0.6866 0.02298 0.0
C1022 C 0.89608 0.7079 0.01065 0.0
C1023 C 0.84953 0.68043 0.97151 0.0
C1024 C 0.87422 0.68592 0.98477 0.0
C1025 C 0.95426 0.70959 0.02079 0.0
C1026 C 0.92516 0.69984 0.00887 0.0
H1027 H 0.81511 0.62399 0.94036 0.0
H1028 H 0.84328 0.6269 0.9651 0.0
H1029 H 0.84878 0.70761 0.0003 0.0
H1030 H 0.01622 0.78456 0.04191 0.0
H1031 H 0.95886 0.76259 0.02698 0.0
C1032 C 0.18979 0.83944 0.11132 0.0
C1033 C 0.15151 0.82187 0.10788 0.0
C1034 C 0.20288 0.85495 0.12573 0.0
C1035 C 0.17837 0.89659 0.15724 0.0
H1036 H 0.26869 0.9058 0.17489 0.0
C1037 C 0.26065 0.007 0.2032 0.0
C1038 C 0.2977 0.03079 0.19852 0.0
C1039 C 0.23901 0.97215 0.19619 0.0
C1040 C 0.24323 0.90319 0.1702 0.0
H1041 H 0.09667 0.805 0.11712 0.0
H1042 H 0.11961 0.83208 0.14242 0.0
H1043 H 0.2361 0.86008 0.15467 0.0
H1044 H 0.34208 0.03566 0.18379 0.0
H1045 H 0.30468 0.975 0.17174 0.0
H1046 H 0.18642 0.94081 0.1723 0.0
C1047 C 0.13951 0.83419 0.13387 0.0
C1048 C 0.22465 0.87713 0.15859 0.0
C1049 C 0.12637 0.81858 0.11941 0.0
C1050 C 0.31353 0.01799 0.18757 0.0
C1051 C 0.29215 0.98309 0.18075 0.0
C1052 C 0.19686 0.92251 0.16891 0.0
C1053 C 0.17802 0.85325 0.13709 0.0
C1054 C 0.19292 0.87468 0.15152 0.0
C1055 C 0.25432 0.96034 0.18459 0.0
C1056 C 0.23033 0.92714 0.17505 0.0
H1057 H 0.2099 0.84235 0.10271 0.0
H1058 H 0.23276 0.8699 0.12769 0.0
H1059 H 0.15421 0.89568 0.152 0.0
H1060 H 0.24769 0.01622 0.21158 0.0
H1061 H 0.20996 0.95507 0.19942 0.0
C1062 C 0.31513 0.14102 0.27923 0.0
C1063 C 0.3401 0.16418 0.26793 0.0
C1064 C 0.31295 0.15609 0.29329 0.0
C1065 C 0.32926 0.24575 0.30806 0.0
H1066 H 0.30749 0.19757 0.34773 0.0
C1067 C 0.30265 0.31613 0.35804 0.0
C1068 C 0.27037 0.29328 0.36653 0.0
C1069 C 0.31846 0.30036 0.34874 0.0
C1070 C 0.31351 0.2113 0.33671 0.0
H1071 H 0.38461 0.22037 0.2629 0.0
H1072 H 0.38142 0.24636 0.28741 0.0
H1073 H 0.32162 0.16909 0.32602 0.0
H1074 H 0.2306 0.23628 0.37283 0.0
H1075 H 0.25749 0.2084 0.35611 0.0
H1076 H 0.31993 0.28706 0.31831 0.0
C1077 C 0.36273 0.21688 0.28533 0.0
C1078 C 0.32158 0.19501 0.32431 0.0
C1079 C 0.36463 0.20196 0.2713 0.0
C1080 C 0.25572 0.25446 0.36646 0.0
C1081 C 0.27115 0.23854 0.35688 0.0
C1082 C 0.32116 0.26186 0.32035 0.0
C1083 C 0.33592 0.19448 0.29626 0.0
C1084 C 0.32943 0.21208 0.30983 0.0
C1085 C 0.30173 0.26133 0.34741 0.0
C1086 C 0.31306 0.24488 0.33483 0.0
H1087 H 0.29594 0.11175 0.27693 0.0
H1088 H 0.29191 0.13813 0.30145 0.0
H1089 H 0.33415 0.25914 0.29699 0.0
H1090 H 0.31462 0.3462 0.35804 0.0
H1091 H 0.34267 0.31876 0.34194 0.0
C1092 C 0.17021 0.34296 0.44544 0.0
C1093 C 0.17767 0.31503 0.44057 0.0
C1094 C 0.15475 0.34093 0.45978 0.0
C1095 C 0.12805 0.29139 0.49707 0.0
H1096 H 0.04486 0.30915 0.49283 0.0
C1097 C 0.00134 0.23735 0.53853 0.0
C1098 C 0.9835 0.25857 0.53953 0.0
C1099 C 0.03291 0.24942 0.52923 0.0
C1100 C 0.06844 0.30486 0.4944 0.0
H1101 H 0.17731 0.26439 0.44718 0.0
H1102 H 0.14879 0.25998 0.47227 0.0
H1103 H 0.0857 0.3203 0.47136 0.0
H1104 H 0.98623 0.31037 0.53309 0.0
H1105 H 0.04227 0.33242 0.51754 0.0
H1106 H 0.10951 0.2748 0.52017 0.0
C1107 C 0.15553 0.28382 0.46506 0.0
C1108 C 0.09191 0.31121 0.48202 0.0
C1109 C 0.17169 0.28622 0.4507 0.0
C1110 C -0.00046 0.29353 0.53238 0.0
C1111 C 0.03137 0.30591 0.52339 0.0
C1112 C 0.10434 0.285 0.50958 0.0
C1113 C 0.14561 0.31046 0.46948 0.0
C1114 C 0.12204 0.30466 0.48316 0.0
C1115 C 0.04713 0.28304 0.52099 0.0
C1116 C 0.07428 0.29175 0.50836 0.0
H1117 H 0.17524 0.36587 0.43794 0.0
H1118 H 0.14843 0.36247 0.46301 0.0
H1119 H 0.15105 0.28608 0.49828 0.0
H1120 H 0.98908 0.21006 0.54383 0.0
H1121 H 0.0443 0.2311 0.5276 0.0
C1122 C 0.74438 0.99358 0.70362 0.0
C1123 C 0.70522 0.9751 0.70378 0.0
C1124 C 0.76467 0.02711 0.69556 0.0
C1125 C 0.74875 0.07091 0.66221 0.0
H1126 H 0.85067 0.15008 0.66917 0.0
C1127 C 0.82269 0.17826 0.61588 0.0
C1128 C 0.8577 0.18341 0.61168 0.0
C1129 C 0.80693 0.1623 0.62993 0.0
C1130 C 0.82218 0.12816 0.66712 0.0
H1131 H 0.65656 0.97844 0.69716 0.0
H1132 H 0.69183 0.03783 0.68383 0.0
H1133 H 0.81687 0.10464 0.68948 0.0
H1134 H 0.90506 0.17871 0.61924 0.0
H1135 H 0.87689 0.14947 0.64372 0.0
H1136 H 0.75401 0.09316 0.63983 0.0
C1137 C 0.70701 0.02596 0.68932 0.0
C1138 C 0.80284 0.10216 0.67872 0.0
C1139 C 0.68679 0.99216 0.69705 0.0
C1140 C 0.87798 0.17496 0.62224 0.0
C1141 C 0.86189 0.15836 0.63627 0.0
C1142 C 0.76788 0.09676 0.65073 0.0
C1143 C 0.746 0.04278 0.68775 0.0
C1144 C 0.76597 0.07301 0.67633 0.0
C1145 C 0.82551 0.15043 0.63995 0.0
C1146 C 0.8049 0.12551 0.65295 0.0
H1147 H 0.75908 0.98064 0.70865 0.0
H1148 H 0.79462 0.03917 0.69455 0.0
H1149 H 0.72088 0.04827 0.65972 0.0
H1150 H 0.80675 0.18515 0.60804 0.0
H1151 H 0.77928 0.15747 0.6326 0.0
loop_
_geom_bond_atom_site_label_1
_geom_bond_atom_site_label_2
_geom_bond_distance
_geom_bond_site_symmetry_2
_ccdc_geom_bond_type
Mn0 O5 2.095 . S
Mn0 O15 2.162 . S
Mn0 O16 2.297 . S
Mn0 O24 2.385 . S
Mn0 O25 2.209 . S
Mn0 O26 2.094 . S
Mn1 O6 2.121 . S
Mn1 N8 2.257 . S
Mn1 N17 2.282 . S
Mn1 O25 2.215 . S
Mn1 O27 2.117 . S
C2 O24 1.234 . S
C2 O25 1.283 . S
C3 O15 1.281 . S
C3 O16 1.236 . S
C4 O26 1.240 . S
C4 O27 1.264 . S
O5 Mn0 2.095 . S
O5 C14 1.250 . S
O6 Mn1 2.121 . S
O6 C14 1.258 . S
C7 N8 1.326 . S
C7 C11 1.460 . S
C7 H13 0.929 . S
N8 Mn1 2.257 . S
N8 C7 1.326 . S
N8 C12 1.362 . S
C9 C10 1.258 . S
C9 C12 1.431 . S
C9 C29 1.449 . S
C10 C9 1.258 . S
C10 C11 1.477 . S
C10 H30 0.931 . S
C11 C7 1.460 . S
C11 C10 1.477 . S
C11 H31 0.930 . S
C12 N8 1.362 . S
C12 C9 1.431 . S
C12 C22 1.476 . S
H13 C7 0.929 . S
C14 O5 1.250 . S
C14 O6 1.258 . S
O15 Mn0 2.162 . S
O15 C3 1.281 . S
O16 Mn0 2.297 . S
O16 C3 1.236 . S
N17 Mn1 2.282 . S
N17 C18 1.328 . S
N17 C22 1.318 . S
C18 N17 1.328 . S
C18 C19 1.457 . S
C18 H23 0.929 . S
C19 C18 1.457 . S
C19 C20 1.291 . S
C19 H32 0.931 . S
C20 C19 1.291 . S
C20 C21 1.373 . S
C20 H33 0.929 . S
C21 C20 1.373 . S
C21 C22 1.396 . S
C21 C28 1.403 . S
C22 C12 1.476 . S
C22 N17 1.318 . S
C22 C21 1.396 . S
H23 C18 0.929 . S
O24 Mn0 2.385 . S
O24 C2 1.234 . S
O25 Mn0 2.209 . S
O25 Mn1 2.215 . S
O25 C2 1.283 . S
O26 Mn0 2.094 . S
O26 C4 1.240 . S
O27 Mn1 2.117 . S
O27 C4 1.264 . S
C28 C21 1.403 . S
C28 C29 1.399 . S
C28 H34 0.929 . S
C29 C9 1.449 . S
C29 C28 1.399 . S
C29 H35 0.930 . S
H30 C10 0.931 . S
H31 C11 0.930 . S
H32 C19 0.931 . S
H33 C20 0.929 . S
H34 C28 0.929 . S
H35 C29 0.930 . S
Mn36 O41 2.095 . S
Mn36 O51 2.162 . S
Mn36 O52 2.297 . S
Mn36 O60 2.385 . S
Mn36 O61 2.209 . S
Mn36 O62 2.094 . S
Mn37 O42 2.121 . S
Mn37 N44 2.257 . S
Mn37 N53 2.282 . S
Mn37 O61 2.215 . S
Mn37 O63 2.117 . S
C38 O60 1.234 . S
C38 O61 1.283 . S
C39 O51 1.281 . S
C39 O52 1.236 . S
C40 O62 1.240 . S
C40 O63 1.264 . S
O41 Mn36 2.095 . S
O41 C50 1.250 . S
O42 Mn37 2.121 . S
O42 C50 1.258 . S
C43 N44 1.326 . S
C43 C47 1.460 . S
C43 H49 0.929 . S
N44 Mn37 2.257 . S
N44 C43 1.326 . S
N44 C48 1.362 . S
C45 C46 1.258 . S
C45 C48 1.431 . S
C45 C65 1.449 . S
C46 C45 1.258 . S
C46 C47 1.477 . S
C46 H66 0.931 . S
C47 C43 1.460 . S
C47 C46 1.477 . S
C47 H67 0.930 . S
C48 N44 1.362 . S
C48 C45 1.431 . S
C48 C58 1.476 . S
H49 C43 0.929 . S
C50 O41 1.250 . S
C50 O42 1.258 . S
O51 Mn36 2.162 . S
O51 C39 1.281 . S
O52 Mn36 2.297 . S
O52 C39 1.236 . S
N53 Mn37 2.282 . S
N53 C54 1.328 . S
N53 C58 1.318 . S
C54 N53 1.328 . S
C54 C55 1.457 . S
C54 H59 0.929 . S
C55 C54 1.457 . S
C55 C56 1.291 . S
C55 H68 0.931 . S
C56 C55 1.291 . S
C56 C57 1.373 . S
C56 H69 0.929 . S
C57 C56 1.373 . S
C57 C58 1.396 . S
C57 C64 1.403 . S
C58 C48 1.476 . S
C58 N53 1.318 . S
C58 C57 1.396 . S
H59 C54 0.929 . S
O60 Mn36 2.385 . S
O60 C38 1.234 . S
O61 Mn36 2.209 . S
O61 Mn37 2.215 . S
O61 C38 1.283 . S
O62 Mn36 2.094 . S
O62 C40 1.240 . S
O63 Mn37 2.117 . S
O63 C40 1.264 . S
C64 C57 1.403 . S
C64 C65 1.399 . S
C64 H70 0.929 . S
C65 C45 1.449 . S
C65 C64 1.399 . S
C65 H71 0.930 . S
H66 C46 0.931 . S
H67 C47 0.930 . S
H68 C55 0.931 . S
H69 C56 0.929 . S
H70 C64 0.929 . S
H71 C65 0.930 . S
Mn72 O77 2.095 . S
Mn72 O87 2.162 . S
Mn72 O88 2.297 . S
Mn72 O96 2.385 . S
Mn72 O97 2.209 . S
Mn72 O98 2.094 . S
Mn73 O78 2.121 . S
Mn73 N80 2.257 . S
Mn73 N89 2.282 . S
Mn73 O97 2.215 . S
Mn73 O99 2.117 . S
C74 O96 1.234 . S
C74 O97 1.283 . S
C75 O87 1.281 . S
C75 O88 1.236 . S
C76 O98 1.240 . S
C76 O99 1.264 . S
O77 Mn72 2.095 . S
O77 C86 1.250 . S
O78 Mn73 2.121 . S
O78 C86 1.258 . S
C79 N80 1.326 . S
C79 C83 1.460 . S
C79 H85 0.929 . S
N80 Mn73 2.257 . S
N80 C79 1.326 . S
N80 C84 1.362 . S
C81 C82 1.258 . S
C81 C84 1.431 . S
C81 C101 1.449 . S
C82 C81 1.258 . S
C82 C83 1.477 . S
C82 H102 0.931 . S
C83 C79 1.460 . S
C83 C82 1.477 . S
C83 H103 0.930 . S
C84 N80 1.362 . S
C84 C81 1.431 . S
C84 C94 1.476 . S
H85 C79 0.929 . S
C86 O77 1.250 . S
C86 O78 1.258 . S
O87 Mn72 2.162 . S
O87 C75 1.281 . S
O88 Mn72 2.297 . S
O88 C75 1.236 . S
N89 Mn73 2.282 . S
N89 C90 1.328 . S
N89 C94 1.318 . S
C90 N89 1.328 . S
C90 C91 1.457 . S
C90 H95 0.929 . S
C91 C90 1.457 . S
C91 C92 1.291 . S
C91 H104 0.931 . S
C92 C91 1.291 . S
C92 C93 1.373 . S
C92 H105 0.929 . S
C93 C92 1.373 . S
C93 C94 1.396 . S
C93 C100 1.403 . S
C94 C84 1.476 . S
C94 N89 1.318 . S
C94 C93 1.396 . S
H95 C90 0.929 . S
O96 Mn72 2.385 . S
O96 C74 1.234 . S
O97 Mn72 2.209 . S
O97 Mn73 2.215 . S
O97 C74 1.283 . S
O98 Mn72 2.094 . S
O98 C76 1.240 . S
O99 Mn73 2.117 . S
O99 C76 1.264 . S
C100 C93 1.403 . S
C100 C101 1.399 . S
C100 H106 0.929 . S
C101 C81 1.449 . S
C101 C100 1.399 . S
C101 H107 0.930 . S
H102 C82 0.931 . S
H103 C83 0.930 . S
H104 C91 0.931 . S
H105 C92 0.929 . S
H106 C100 0.929 . S
H107 C101 0.930 . S
Mn108 O113 2.095 . S
Mn108 O123 2.162 . S
Mn108 O124 2.297 . S
Mn108 O132 2.385 . S
Mn108 O133 2.209 . S
Mn108 O134 2.094 . S
Mn109 O114 2.121 . S
Mn109 N116 2.257 . S
Mn109 N125 2.282 . S
Mn109 O133 2.215 . S
Mn109 O135 2.117 . S
C110 O132 1.234 . S
C110 O133 1.283 . S
C111 O123 1.281 . S
C111 O124 1.236 . S
C112 O134 1.240 . S
C112 O135 1.264 . S
O113 Mn108 2.095 . S
O113 C122 1.250 . S
O114 Mn109 2.121 . S
O114 C122 1.258 . S
C115 N116 1.326 . S
C115 C119 1.460 . S
C115 H121 0.929 . S
N116 Mn109 2.257 . S
N116 C115 1.326 . S
N116 C120 1.362 . S
C117 C118 1.258 . S
C117 C120 1.431 . S
C117 C137 1.449 . S
C118 C117 1.258 . S
C118 C119 1.477 . S
C118 H138 0.931 . S
C119 C115 1.460 . S
C119 C118 1.477 . S
C119 H139 0.930 . S
C120 N116 1.362 . S
C120 C117 1.431 . S
C120 C130 1.476 . S
H121 C115 0.929 . S
C122 O113 1.250 . S
C122 O114 1.258 . S
O123 Mn108 2.162 . S
O123 C111 1.281 . S
O124 Mn108 2.297 . S
O124 C111 1.236 . S
N125 Mn109 2.282 . S
N125 C126 1.328 . S
N125 C130 1.318 . S
C126 N125 1.328 . S
C126 C127 1.457 . S
C126 H131 0.929 . S
C127 C126 1.457 . S
C127 C128 1.291 . S
C127 H140 0.931 . S
C128 C127 1.291 . S
C128 C129 1.373 . S
C128 H141 0.929 . S
C129 C128 1.373 . S
C129 C130 1.396 . S
C129 C136 1.403 . S
C130 C120 1.476 . S
C130 N125 1.318 . S
C130 C129 1.396 . S
H131 C126 0.929 . S
O132 Mn108 2.385 . S
O132 C110 1.234 . S
O133 Mn108 2.209 . S
O133 Mn109 2.215 . S
O133 C110 1.283 . S
O134 Mn108 2.094 . S
O134 C112 1.240 . S
O135 Mn109 2.117 . S
O135 C112 1.264 . S
C136 C129 1.403 . S
C136 C137 1.399 . S
C136 H142 0.929 . S
C137 C117 1.449 . S
C137 C136 1.399 . S
C137 H143 0.930 . S
H138 C118 0.931 . S
H139 C119 0.930 . S
H140 C127 0.931 . S
H141 C128 0.929 . S
H142 C136 0.929 . S
H143 C137 0.930 . S
Mn144 O149 2.095 . S
Mn144 O159 2.162 . S
Mn144 O160 2.297 . S
Mn144 O168 2.385 . S
Mn144 O169 2.209 . S
Mn144 O170 2.094 . S
Mn145 O150 2.121 . S
Mn145 N152 2.257 . S
Mn145 N161 2.282 . S
Mn145 O169 2.215 . S
Mn145 O171 2.117 . S
C146 O168 1.234 . S
C146 O169 1.283 . S
C147 O159 1.281 . S
C147 O160 1.236 . S
C148 O170 1.240 . S
C148 O171 1.264 . S
O149 Mn144 2.095 . S
O149 C158 1.250 . S
O150 Mn145 2.121 . S
O150 C158 1.258 . S
C151 N152 1.326 . S
C151 C155 1.460 . S
C151 H157 0.929 . S
N152 Mn145 2.257 . S
N152 C151 1.326 . S
N152 C156 1.362 . S
C153 C154 1.258 . S
C153 C156 1.431 . S
C153 C173 1.449 . S
C154 C153 1.258 . S
C154 C155 1.477 . S
C154 H174 0.931 . S
C155 C151 1.460 . S
C155 C154 1.477 . S
C155 H175 0.930 . S
C156 N152 1.362 . S
C156 C153 1.431 . S
C156 C166 1.476 . S
H157 C151 0.929 . S
C158 O149 1.250 . S
C158 O150 1.258 . S
O159 Mn144 2.162 . S
O159 C147 1.281 . S
O160 Mn144 2.297 . S
O160 C147 1.236 . S
N161 Mn145 2.282 . S
N161 C162 1.328 . S
N161 C166 1.318 . S
C162 N161 1.328 . S
C162 C163 1.457 . S
C162 H167 0.929 . S
C163 C162 1.457 . S
C163 C164 1.291 . S
C163 H176 0.931 . S
C164 C163 1.291 . S
C164 C165 1.373 . S
C164 H177 0.929 . S
C165 C164 1.373 . S
C165 C166 1.396 . S
C165 C172 1.403 . S
C166 C156 1.476 . S
C166 N161 1.318 . S
C166 C165 1.396 . S
H167 C162 0.929 . S
O168 Mn144 2.385 . S
O168 C146 1.234 . S
O169 Mn144 2.209 . S
O169 Mn145 2.215 . S
O169 C146 1.283 . S
O170 Mn144 2.094 . S
O170 C148 1.240 . S
O171 Mn145 2.117 . S
O171 C148 1.264 . S
C172 C165 1.403 . S
C172 C173 1.399 . S
C172 H178 0.929 . S
C173 C153 1.449 . S
C173 C172 1.399 . S
C173 H179 0.930 . S
H174 C154 0.931 . S
H175 C155 0.930 . S
H176 C163 0.931 . S
H177 C164 0.929 . S
H178 C172 0.929 . S
H179 C173 0.930 . S
Mn180 O185 2.095 . S
Mn180 O195 2.162 . S
Mn180 O196 2.297 . S
Mn180 O204 2.385 . S
Mn180 O205 2.209 . S
Mn180 O206 2.094 . S
Mn181 O186 2.121 . S
Mn181 N188 2.257 . S
Mn181 N197 2.282 . S
Mn181 O205 2.215 . S
Mn181 O207 2.117 . S
C182 O204 1.234 . S
C182 O205 1.283 . S
C183 O195 1.281 . S
C183 O196 1.236 . S
C184 O206 1.240 . S
C184 O207 1.264 . S
O185 Mn180 2.095 . S
O185 C194 1.250 . S
O186 Mn181 2.121 . S
O186 C194 1.258 . S
C187 N188 1.326 . S
C187 C191 1.460 . S
C187 H193 0.929 . S
N188 Mn181 2.257 . S
N188 C187 1.326 . S
N188 C192 1.362 . S
C189 C190 1.258 1_554 S
C189 C192 1.431 1_554 S
C189 C209 1.449 . S
C190 C189 1.258 1_556 S
C190 C191 1.477 . S
C190 H210 0.931 1_556 S
C191 C187 1.460 . S
C191 C190 1.477 . S
C191 H211 0.930 . S
C192 N188 1.362 . S
C192 C189 1.431 1_556 S
C192 C202 1.490 . S
H193 C187 0.929 . S
C194 O185 1.250 . S
C194 O186 1.258 . S
O195 Mn180 2.162 . S
O195 C183 1.281 . S
O196 Mn180 2.297 . S
O196 C183 1.236 . S
N197 Mn181 2.282 . S
N197 C198 1.328 . S
N197 C202 1.339 . S
C198 N197 1.328 . S
C198 C199 1.457 1_556 S
C198 H203 0.929 . S
C199 C198 1.457 1_554 S
C199 C200 1.291 . S
C199 H212 0.931 . S
C200 C199 1.291 . S
C200 C201 1.373 . S
C200 H213 0.929 . S
C201 C200 1.373 . S
C201 C202 1.362 1_554 S
C201 C208 1.403 . S
C202 C192 1.490 . S
C202 N197 1.339 . S
C202 C201 1.362 1_556 S
H203 C198 0.929 . S
O204 Mn180 2.385 . S
O204 C182 1.234 . S
O205 Mn180 2.209 . S
O205 Mn181 2.215 . S
O205 C182 1.283 . S
O206 Mn180 2.094 . S
O206 C184 1.240 . S
O207 Mn181 2.117 . S
O207 C184 1.264 . S
C208 C201 1.403 . S
C208 C209 1.399 . S
C208 H214 0.929 . S
C209 C189 1.449 . S
C209 C208 1.399 . S
C209 H215 0.930 . S
H210 C190 0.931 1_554 S
H211 C191 0.930 . S
H212 C199 0.931 . S
H213 C200 0.929 . S
H214 C208 0.929 . S
H215 C209 0.930 . S
Mn216 O221 2.095 . S
Mn216 O231 2.162 . S
Mn216 O232 2.297 . S
Mn216 O240 2.385 . S
Mn216 O241 2.209 . S
Mn216 O242 2.094 . S
Mn217 O222 2.121 . S
Mn217 N224 2.257 . S
Mn217 N233 2.282 . S
Mn217 O241 2.215 . S
Mn217 O243 2.117 . S
C218 O240 1.234 . S
C218 O241 1.283 . S
C219 O231 1.281 . S
C219 O232 1.236 . S
C220 O242 1.240 . S
C220 O243 1.264 . S
O221 Mn216 2.095 . S
O221 C230 1.250 . S
O222 Mn217 2.121 . S
O222 C230 1.258 . S
C223 N224 1.326 . S
C223 C227 1.460 . S
C223 H229 0.929 . S
N224 Mn217 2.257 . S
N224 C223 1.326 . S
N224 C228 1.362 . S
C225 C226 1.258 . S
C225 C228 1.431 . S
C225 C245 1.449 . S
C226 C225 1.258 . S
C226 C227 1.477 . S
C226 H246 0.931 . S
C227 C223 1.460 . S
C227 C226 1.477 . S
C227 H247 0.930 . S
C228 N224 1.362 . S
C228 C225 1.431 . S
C228 C238 1.476 . S
H229 C223 0.929 . S
C230 O221 1.250 . S
C230 O222 1.258 . S
O231 Mn216 2.162 . S
O231 C219 1.281 . S
O232 Mn216 2.297 . S
O232 C219 1.236 . S
N233 Mn217 2.282 . S
N233 C234 1.328 . S
N233 C238 1.318 . S
C234 N233 1.328 . S
C234 C235 1.457 . S
C234 H239 0.929 . S
C235 C234 1.457 . S
C235 C236 1.291 . S
C235 H248 0.931 . S
C236 C235 1.291 . S
C236 C237 1.373 . S
C236 H249 0.929 . S
C237 C236 1.373 . S
C237 C238 1.396 . S
C237 C244 1.403 . S
C238 C228 1.476 . S
C238 N233 1.318 . S
C238 C237 1.396 . S
H239 C234 0.929 . S
O240 Mn216 2.385 . S
O240 C218 1.234 . S
O241 Mn216 2.209 . S
O241 Mn217 2.215 . S
O241 C218 1.283 . S
O242 Mn216 2.094 . S
O242 C220 1.240 . S
O243 Mn217 2.117 . S
O243 C220 1.264 . S
C244 C237 1.403 . S
C244 C245 1.399 . S
C244 H250 0.929 . S
C245 C225 1.449 . S
C245 C244 1.399 . S
C245 H251 0.930 . S
H246 C226 0.931 . S
H247 C227 0.930 . S
H248 C235 0.931 . S
H249 C236 0.929 . S
H250 C244 0.929 . S
H251 C245 0.930 . S
Mn252 O257 2.095 . S
Mn252 O267 2.162 . S
Mn252 O268 2.297 . S
Mn252 O276 2.385 . S
Mn252 O277 2.209 . S
Mn252 O278 2.094 . S
Mn253 O258 2.121 . S
Mn253 N260 2.257 . S
Mn253 N269 2.282 . S
Mn253 O277 2.215 . S
Mn253 O279 2.117 . S
C254 O276 1.234 . S
C254 O277 1.283 . S
C255 O267 1.281 . S
C255 O268 1.236 . S
C256 O278 1.240 . S
C256 O279 1.264 . S
O257 Mn252 2.095 . S
O257 C266 1.250 . S
O258 Mn253 2.121 . S
O258 C266 1.258 . S
C259 N260 1.326 . S
C259 C263 1.460 . S
C259 H265 0.929 . S
N260 Mn253 2.257 . S
N260 C259 1.326 . S
N260 C264 1.362 . S
C261 C262 1.258 . S
C261 C264 1.431 . S
C261 C281 1.449 . S
C262 C261 1.258 . S
C262 C263 1.477 . S
C262 H282 0.931 . S
C263 C259 1.460 . S
C263 C262 1.477 . S
C263 H283 0.930 . S
C264 N260 1.362 . S
C264 C261 1.431 . S
C264 C274 1.476 . S
H265 C259 0.929 . S
C266 O257 1.250 . S
C266 O258 1.258 . S
O267 Mn252 2.162 . S
O267 C255 1.281 . S
O268 Mn252 2.297 . S
O268 C255 1.236 . S
N269 Mn253 2.282 . S
N269 C270 1.328 . S
N269 C274 1.318 . S
C270 N269 1.328 . S
C270 C271 1.457 . S
C270 H275 0.929 . S
C271 C270 1.457 . S
C271 C272 1.291 . S
C271 H284 0.931 . S
C272 C271 1.291 . S
C272 C273 1.373 . S
C272 H285 0.929 . S
C273 C272 1.373 . S
C273 C274 1.396 . S
C273 C280 1.403 . S
C274 C264 1.476 . S
C274 N269 1.318 . S
C274 C273 1.396 . S
H275 C270 0.929 . S
O276 Mn252 2.385 . S
O276 C254 1.234 . S
O277 Mn252 2.209 . S
O277 Mn253 2.215 . S
O277 C254 1.283 . S
O278 Mn252 2.094 . S
O278 C256 1.240 . S
O279 Mn253 2.117 . S
O279 C256 1.264 . S
C280 C273 1.403 . S
C280 C281 1.399 . S
C280 H286 0.929 . S
C281 C261 1.449 . S
C281 C280 1.399 . S
C281 H287 0.930 . S
H282 C262 0.931 . S
H283 C263 0.930 . S
H284 C271 0.931 . S
H285 C272 0.929 . S
H286 C280 0.929 . S
H287 C281 0.930 . S
Mn288 O293 2.095 . S
Mn288 O303 2.162 . S
Mn288 O304 2.297 . S
Mn288 O312 2.385 . S
Mn288 O313 2.209 . S
Mn288 O314 2.094 . S
Mn289 O294 2.121 . S
Mn289 N296 2.257 . S
Mn289 N305 2.282 . S
Mn289 O313 2.215 . S
Mn289 O315 2.117 . S
C290 O312 1.234 . S
C290 O313 1.283 . S
C291 O303 1.281 . S
C291 O304 1.236 . S
C292 O314 1.240 . S
C292 O315 1.264 . S
O293 Mn288 2.095 . S
O293 C302 1.250 . S
O294 Mn289 2.121 . S
O294 C302 1.258 . S
C295 N296 1.326 . S
C295 C299 1.460 . S
C295 H301 0.929 . S
N296 Mn289 2.257 . S
N296 C295 1.326 . S
N296 C300 1.362 . S
C297 C298 1.258 1_556 S
C297 C300 1.431 1_556 S
C297 C317 1.449 . S
C298 C297 1.258 1_554 S
C298 C299 1.477 . S
C298 H318 0.931 1_554 S
C299 C295 1.460 . S
C299 C298 1.477 . S
C299 H319 0.930 . S
C300 N296 1.362 . S
C300 C297 1.431 1_554 S
C300 C310 1.490 . S
H301 C295 0.929 . S
C302 O293 1.250 . S
C302 O294 1.258 . S
O303 Mn288 2.162 . S
O303 C291 1.281 . S
O304 Mn288 2.297 . S
O304 C291 1.236 . S
N305 Mn289 2.282 . S
N305 C306 1.328 . S
N305 C310 1.339 . S
C306 N305 1.328 . S
C306 C307 1.457 1_554 S
C306 H311 0.929 . S
C307 C306 1.457 1_556 S
C307 C308 1.291 . S
C307 H320 0.931 . S
C308 C307 1.291 . S
C308 C309 1.373 . S
C308 H321 0.929 . S
C309 C308 1.373 . S
C309 C310 1.363 1_556 S
C309 C316 1.403 . S
C310 C300 1.490 . S
C310 N305 1.339 . S
C310 C309 1.363 1_554 S
H311 C306 0.929 . S
O312 Mn288 2.385 . S
O312 C290 1.234 . S
O313 Mn288 2.209 . S
O313 Mn289 2.215 . S
O313 C290 1.283 . S
O314 Mn288 2.094 . S
O314 C292 1.240 . S
O315 Mn289 2.117 . S
O315 C292 1.264 . S
C316 C309 1.403 . S
C316 C317 1.399 . S
C316 H322 0.929 . S
C317 C297 1.449 . S
C317 C316 1.399 . S
C317 H323 0.930 . S
H318 C298 0.931 1_556 S
H319 C299 0.930 . S
H320 C307 0.931 . S
H321 C308 0.929 . S
H322 C316 0.929 . S
H323 C317 0.930 . S
Mn324 O329 2.095 . S
Mn324 O339 2.162 . S
Mn324 O340 2.297 . S
Mn324 O348 2.385 . S
Mn324 O349 2.209 . S
Mn324 O350 2.094 . S
Mn325 O330 2.121 . S
Mn325 N332 2.257 . S
Mn325 N341 2.282 . S
Mn325 O349 2.215 . S
Mn325 O351 2.117 . S
C326 O348 1.234 . S
C326 O349 1.283 . S
C327 O339 1.281 . S
C327 O340 1.236 . S
C328 O350 1.240 . S
C328 O351 1.264 . S
O329 Mn324 2.095 . S
O329 C338 1.250 . S
O330 Mn325 2.121 . S
O330 C338 1.258 . S
C331 N332 1.326 . S
C331 C335 1.460 . S
C331 H337 0.929 . S
N332 Mn325 2.257 . S
N332 C331 1.326 . S
N332 C336 1.362 . S
C333 C334 1.258 . S
C333 C336 1.431 . S
C333 C353 1.449 . S
C334 C333 1.258 . S
C334 C335 1.477 . S
C334 H354 0.931 . S
C335 C331 1.460 . S
C335 C334 1.477 . S
C335 H355 0.930 . S
C336 N332 1.362 . S
C336 C333 1.431 . S
C336 C346 1.476 . S
H337 C331 0.929 . S
C338 O329 1.250 . S
C338 O330 1.258 . S
O339 Mn324 2.162 . S
O339 C327 1.281 . S
O340 Mn324 2.297 . S
O340 C327 1.236 . S
N341 Mn325 2.282 . S
N341 C342 1.328 . S
N341 C346 1.318 . S
C342 N341 1.328 . S
C342 C343 1.457 . S
C342 H347 0.929 . S
C343 C342 1.457 . S
C343 C344 1.291 . S
C343 H356 0.931 . S
C344 C343 1.291 . S
C344 C345 1.373 . S
C344 H357 0.929 . S
C345 C344 1.373 . S
C345 C346 1.396 . S
C345 C352 1.403 . S
C346 C336 1.476 . S
C346 N341 1.318 . S
C346 C345 1.396 . S
H347 C342 0.929 . S
O348 Mn324 2.385 . S
O348 C326 1.234 . S
O349 Mn324 2.209 . S
O349 Mn325 2.215 . S
O349 C326 1.283 . S
O350 Mn324 2.094 . S
O350 C328 1.240 . S
O351 Mn325 2.117 . S
O351 C328 1.264 . S
C352 C345 1.403 . S
C352 C353 1.399 . S
C352 H358 0.929 . S
C353 C333 1.449 . S
C353 C352 1.399 . S
C353 H359 0.930 . S
H354 C334 0.931 . S
H355 C335 0.930 . S
H356 C343 0.931 . S
H357 C344 0.929 . S
H358 C352 0.929 . S
H359 C353 0.930 . S
Mn360 O365 2.095 . S
Mn360 O375 2.162 . S
Mn360 O376 2.297 . S
Mn360 O384 2.385 . S
Mn360 O385 2.209 . S
Mn360 O386 2.094 . S
Mn361 O366 2.121 . S
Mn361 N368 2.257 . S
Mn361 N377 2.282 . S
Mn361 O385 2.215 . S
Mn361 O387 2.117 . S
C362 O384 1.234 . S
C362 O385 1.283 . S
C363 O375 1.281 . S
C363 O376 1.236 . S
C364 O386 1.240 . S
C364 O387 1.264 . S
O365 Mn360 2.095 . S
O365 C374 1.250 . S
O366 Mn361 2.121 . S
O366 C374 1.258 . S
C367 N368 1.326 . S
C367 C371 1.460 . S
C367 H373 0.929 . S
N368 Mn361 2.257 . S
N368 C367 1.326 . S
N368 C372 1.362 . S
C369 C370 1.258 . S
C369 C372 1.431 . S
C369 C389 1.449 . S
C370 C369 1.258 . S
C370 C371 1.477 . S
C370 H390 0.931 . S
C371 C367 1.460 . S
C371 C370 1.477 . S
C371 H391 0.930 . S
C372 N368 1.362 . S
C372 C369 1.431 . S
C372 C382 1.476 . S
H373 C367 0.929 . S
C374 O365 1.250 . S
C374 O366 1.258 . S
O375 Mn360 2.162 . S
O375 C363 1.281 . S
O376 Mn360 2.297 . S
O376 C363 1.236 . S
N377 Mn361 2.282 . S
N377 C378 1.328 . S
N377 C382 1.318 . S
C378 N377 1.328 . S
C378 C379 1.457 . S
C378 H383 0.929 . S
C379 C378 1.457 . S
C379 C380 1.291 . S
C379 H392 0.931 . S
C380 C379 1.291 . S
C380 C381 1.373 . S
C380 H393 0.929 . S
C381 C380 1.373 . S
C381 C382 1.396 . S
C381 C388 1.403 . S
C382 C372 1.476 . S
C382 N377 1.318 . S
C382 C381 1.396 . S
H383 C378 0.929 . S
O384 Mn360 2.385 . S
O384 C362 1.234 . S
O385 Mn360 2.209 . S
O385 Mn361 2.215 . S
O385 C362 1.283 . S
O386 Mn360 2.094 . S
O386 C364 1.240 . S
O387 Mn361 2.117 . S
O387 C364 1.264 . S
C388 C381 1.403 . S
C388 C389 1.399 . S
C388 H394 0.929 . S
C389 C369 1.449 . S
C389 C388 1.399 . S
C389 H395 0.930 . S
H390 C370 0.931 . S
H391 C371 0.930 . S
H392 C379 0.931 . S
H393 C380 0.929 . S
H394 C388 0.929 . S
H395 C389 0.930 . S
Mn396 O401 2.095 . S
Mn396 O411 2.162 . S
Mn396 O412 2.297 . S
Mn396 O420 2.385 . S
Mn396 O421 2.209 . S
Mn396 O422 2.094 . S
Mn397 O402 2.121 . S
Mn397 N404 2.257 . S
Mn397 N413 2.282 . S
Mn397 O421 2.215 . S
Mn397 O423 2.117 . S
C398 O420 1.234 . S
C398 O421 1.283 . S
C399 O411 1.281 . S
C399 O412 1.236 . S
C400 O422 1.240 . S
C400 O423 1.264 . S
O401 Mn396 2.095 . S
O401 C410 1.250 . S
O402 Mn397 2.121 . S
O402 C410 1.258 . S
C403 N404 1.326 . S
C403 C407 1.460 . S
C403 H409 0.929 . S
N404 Mn397 2.257 . S
N404 C403 1.326 . S
N404 C408 1.362 . S
C405 C406 1.258 . S
C405 C408 1.431 . S
C405 C425 1.449 . S
C406 C405 1.258 . S
C406 C407 1.477 . S
C406 H426 0.931 . S
C407 C403 1.460 . S
C407 C406 1.477 . S
C407 H427 0.930 . S
C408 N404 1.362 . S
C408 C405 1.431 . S
C408 C418 1.476 . S
H409 C403 0.929 . S
C410 O401 1.250 . S
C410 O402 1.258 . S
O411 Mn396 2.162 . S
O411 C399 1.281 . S
O412 Mn396 2.297 . S
O412 C399 1.236 . S
N413 Mn397 2.282 . S
N413 C414 1.328 . S
N413 C418 1.318 . S
C414 N413 1.328 . S
C414 C415 1.457 . S
C414 H419 0.929 . S
C415 C414 1.457 . S
C415 C416 1.291 . S
C415 H428 0.931 . S
C416 C415 1.291 . S
C416 C417 1.373 . S
C416 H429 0.929 . S
C417 C416 1.373 . S
C417 C418 1.396 . S
C417 C424 1.403 . S
C418 C408 1.476 . S
C418 N413 1.318 . S
C418 C417 1.396 . S
H419 C414 0.929 . S
O420 Mn396 2.385 . S
O420 C398 1.234 . S
O421 Mn396 2.209 . S
O421 Mn397 2.215 . S
O421 C398 1.283 . S
O422 Mn396 2.094 . S
O422 C400 1.240 . S
O423 Mn397 2.117 . S
O423 C400 1.264 . S
C424 C417 1.403 . S
C424 C425 1.399 . S
C424 H430 0.929 . S
C425 C405 1.449 . S
C425 C424 1.399 . S
C425 H431 0.930 . S
H426 C406 0.931 . S
H427 C407 0.930 . S
H428 C415 0.931 . S
H429 C416 0.929 . S
H430 C424 0.929 . S
H431 C425 0.930 . S
C432 C433 1.349 . S
C432 C434 1.327 . S
C432 H457 0.950 . S
C433 C432 1.349 . S
C433 C449 1.349 . S
C434 C432 1.327 . S
C434 C453 1.429 . S
C434 H458 0.950 . S
C435 C452 1.574 . S
C435 C454 1.368 . S
C435 H459 0.949 . S
H436 C440 0.949 . S
C437 C438 1.349 . S
C437 C439 1.327 . S
C437 H460 0.950 . S
C438 C437 1.349 . S
C438 C450 1.349 . S
C439 C437 1.327 . S
C439 C455 1.429 . S
C439 H461 0.950 . S
C440 H436 0.949 . S
C440 C448 1.574 . S
C440 C456 1.368 . S
H441 C449 0.950 . S
H442 C447 0.950 . S
H443 C448 0.949 . S
H444 C450 0.950 . S
H445 C451 0.950 . S
H446 C452 0.949 . S
C447 H442 0.950 . S
C447 C449 1.327 . S
C447 C453 1.429 . S
C448 C440 1.574 . S
C448 H443 0.949 . S
C448 C454 1.368 . S
C449 C433 1.349 . S
C449 H441 0.950 . S
C449 C447 1.327 . S
C450 C438 1.349 . S
C450 H444 0.950 . S
C450 C451 1.327 . S
C451 H445 0.950 . S
C451 C450 1.327 . S
C451 C455 1.429 . S
C452 C435 1.574 . S
C452 H446 0.949 . S
C452 C456 1.368 . S
C453 C434 1.429 . S
C453 C447 1.429 . S
C453 C454 1.523 . S
C454 C435 1.368 . S
C454 C448 1.368 . S
C454 C453 1.523 . S
C455 C439 1.429 . S
C455 C451 1.429 . S
C455 C456 1.523 . S
C456 C440 1.368 . S
C456 C452 1.368 . S
C456 C455 1.523 . S
H457 C432 0.950 . S
H458 C434 0.950 . S
H459 C435 0.949 . S
H460 C437 0.950 . S
H461 C439 0.950 . S
C462 C463 1.349 . S
C462 C464 1.327 . S
C462 H487 0.950 . S
C463 C462 1.349 . S
C463 C479 1.349 . S
C464 C462 1.327 . S
C464 C483 1.429 . S
C464 H488 0.950 . S
C465 C482 1.574 . S
C465 C484 1.368 . S
C465 H489 0.949 . S
H466 C470 0.949 . S
C467 C468 1.349 . S
C467 C469 1.327 . S
C467 H490 0.950 . S
C468 C467 1.349 . S
C468 C480 1.349 . S
C469 C467 1.327 . S
C469 C485 1.429 . S
C469 H491 0.950 . S
C470 H466 0.949 . S
C470 C478 1.574 . S
C470 C486 1.368 . S
H471 C479 0.950 . S
H472 C477 0.950 . S
H473 C478 0.949 . S
H474 C480 0.950 . S
H475 C481 0.950 . S
H476 C482 0.949 . S
C477 H472 0.950 . S
C477 C479 1.327 . S
C477 C483 1.429 . S
C478 C470 1.574 . S
C478 H473 0.949 . S
C478 C484 1.368 . S
C479 C463 1.349 . S
C479 H471 0.950 . S
C479 C477 1.327 . S
C480 C468 1.349 . S
C480 H474 0.950 . S
C480 C481 1.327 . S
C481 H475 0.950 . S
C481 C480 1.327 . S
C481 C485 1.429 . S
C482 C465 1.574 . S
C482 H476 0.949 . S
C482 C486 1.368 . S
C483 C464 1.429 . S
C483 C477 1.429 . S
C483 C484 1.523 . S
C484 C465 1.368 . S
C484 C478 1.368 . S
C484 C483 1.523 . S
C485 C469 1.429 . S
C485 C481 1.429 . S
C485 C486 1.523 . S
C486 C470 1.368 . S
C486 C482 1.368 . S
C486 C485 1.523 . S
H487 C462 0.950 . S
H488 C464 0.950 . S
H489 C465 0.949 . S
H490 C467 0.950 . S
H491 C469 0.950 . S
C492 C493 1.349 . S
C492 C494 1.327 . S
C492 H517 0.950 . S
C493 C492 1.349 . S
C493 C509 1.349 . S
C494 C492 1.327 . S
C494 C513 1.429 . S
C494 H518 0.950 . S
C495 C512 1.574 . S
C495 C514 1.368 . S
C495 H519 0.949 . S
H496 C500 0.949 . S
C497 C498 1.349 . S
C497 C499 1.327 . S
C497 H520 0.950 . S
C498 C497 1.349 . S
C498 C510 1.349 . S
C499 C497 1.327 . S
C499 C515 1.429 . S
C499 H521 0.950 . S
C500 H496 0.949 . S
C500 C508 1.574 . S
C500 C516 1.368 . S
H501 C509 0.950 . S
H502 C507 0.950 . S
H503 C508 0.949 . S
H504 C510 0.950 . S
H505 C511 0.950 . S
H506 C512 0.949 . S
C507 H502 0.950 . S
C507 C509 1.327 . S
C507 C513 1.429 . S
C508 C500 1.574 . S
C508 H503 0.949 . S
C508 C514 1.368 . S
C509 C493 1.349 . S
C509 H501 0.950 . S
C509 C507 1.327 . S
C510 C498 1.349 . S
C510 H504 0.950 . S
C510 C511 1.327 . S
C511 H505 0.950 . S
C511 C510 1.327 . S
C511 C515 1.429 . S
C512 C495 1.574 . S
C512 H506 0.949 . S
C512 C516 1.368 . S
C513 C494 1.429 . S
C513 C507 1.429 . S
C513 C514 1.523 . S
C514 C495 1.368 . S
C514 C508 1.368 . S
C514 C513 1.523 . S
C515 C499 1.429 . S
C515 C511 1.429 . S
C515 C516 1.523 . S
C516 C500 1.368 . S
C516 C512 1.368 . S
C516 C515 1.523 . S
H517 C492 0.950 . S
H518 C494 0.950 . S
H519 C495 0.949 . S
H520 C497 0.950 . S
H521 C499 0.950 . S
C522 C523 1.349 . S
C522 C524 1.327 . S
C522 H547 0.950 . S
C523 C522 1.349 . S
C523 C539 1.349 . S
C524 C522 1.327 . S
C524 C543 1.429 . S
C524 H548 0.950 . S
C525 C542 1.574 . S
C525 C544 1.368 . S
C525 H549 0.949 . S
H526 C530 0.949 . S
C527 C528 1.349 . S
C527 C529 1.327 . S
C527 H550 0.950 . S
C528 C527 1.349 . S
C528 C540 1.349 . S
C529 C527 1.327 . S
C529 C545 1.429 . S
C529 H551 0.950 . S
C530 H526 0.949 . S
C530 C538 1.574 . S
C530 C546 1.368 . S
H531 C539 0.950 . S
H532 C537 0.950 . S
H533 C538 0.949 . S
H534 C540 0.950 . S
H535 C541 0.950 . S
H536 C542 0.949 . S
C537 H532 0.950 . S
C537 C539 1.327 . S
C537 C543 1.429 . S
C538 C530 1.574 . S
C538 H533 0.949 . S
C538 C544 1.368 . S
C539 C523 1.349 . S
C539 H531 0.950 . S
C539 C537 1.327 . S
C540 C528 1.349 . S
C540 H534 0.950 . S
C540 C541 1.327 . S
C541 H535 0.950 . S
C541 C540 1.327 . S
C541 C545 1.429 . S
C542 C525 1.574 . S
C542 H536 0.949 . S
C542 C546 1.368 . S
C543 C524 1.429 . S
C543 C537 1.429 . S
C543 C544 1.523 . S
C544 C525 1.368 . S
C544 C538 1.368 . S
C544 C543 1.523 . S
C545 C529 1.429 . S
C545 C541 1.429 . S
C545 C546 1.523 . S
C546 C530 1.368 . S
C546 C542 1.368 . S
C546 C545 1.523 . S
H547 C522 0.950 . S
H548 C524 0.950 . S
H549 C525 0.949 . S
H550 C527 0.950 . S
H551 C529 0.950 . S
C552 C553 1.349 . S
C552 C554 1.327 . S
C552 H577 0.950 . S
C553 C552 1.349 . S
C553 C569 1.349 . S
C554 C552 1.327 . S
C554 C573 1.429 . S
C554 H578 0.950 . S
C555 C572 1.574 . S
C555 C574 1.368 . S
C555 H579 0.949 . S
H556 C560 0.949 . S
C557 C558 1.349 . S
C557 C559 1.327 . S
C557 H580 0.950 . S
C558 C557 1.349 . S
C558 C570 1.349 . S
C559 C557 1.327 . S
C559 C575 1.429 . S
C559 H581 0.950 . S
C560 H556 0.949 . S
C560 C568 1.574 . S
C560 C576 1.368 . S
H561 C569 0.950 . S
H562 C567 0.950 . S
H563 C568 0.949 . S
H564 C570 0.950 . S
H565 C571 0.950 . S
H566 C572 0.949 . S
C567 H562 0.950 . S
C567 C569 1.327 . S
C567 C573 1.429 . S
C568 C560 1.574 . S
C568 H563 0.949 . S
C568 C574 1.368 . S
C569 C553 1.349 . S
C569 H561 0.950 . S
C569 C567 1.327 . S
C570 C558 1.349 . S
C570 H564 0.950 . S
C570 C571 1.327 . S
C571 H565 0.950 . S
C571 C570 1.327 . S
C571 C575 1.429 . S
C572 C555 1.574 . S
C572 H566 0.949 . S
C572 C576 1.368 . S
C573 C554 1.429 . S
C573 C567 1.429 . S
C573 C574 1.523 . S
C574 C555 1.368 . S
C574 C568 1.368 . S
C574 C573 1.523 . S
C575 C559 1.429 . S
C575 C571 1.429 . S
C575 C576 1.523 . S
C576 C560 1.368 . S
C576 C572 1.368 . S
C576 C575 1.523 . S
H577 C552 0.950 . S
H578 C554 0.950 . S
H579 C555 0.949 . S
H580 C557 0.950 . S
H581 C559 0.950 . S
C582 C583 1.349 . S
C582 C584 1.327 . S
C582 H607 0.950 . S
C583 C582 1.349 . S
C583 C599 1.349 . S
C584 C582 1.327 . S
C584 C603 1.429 . S
C584 H608 0.950 . S
C585 C602 1.574 . S
C585 C604 1.368 . S
C585 H609 0.949 . S
H586 C590 0.949 . S
C587 C588 1.349 . S
C587 C589 1.327 . S
C587 H610 0.950 . S
C588 C587 1.349 . S
C588 C600 1.349 . S
C589 C587 1.327 . S
C589 C605 1.429 . S
C589 H611 0.950 . S
C590 H586 0.949 . S
C590 C598 1.574 . S
C590 C606 1.368 . S
H591 C599 0.950 . S
H592 C597 0.950 . S
H593 C598 0.949 . S
H594 C600 0.950 . S
H595 C601 0.950 . S
H596 C602 0.949 . S
C597 H592 0.950 . S
C597 C599 1.327 . S
C597 C603 1.429 . S
C598 C590 1.574 . S
C598 H593 0.949 . S
C598 C604 1.368 . S
C599 C583 1.349 . S
C599 H591 0.950 . S
C599 C597 1.327 . S
C600 C588 1.349 . S
C600 H594 0.950 . S
C600 C601 1.327 . S
C601 H595 0.950 . S
C601 C600 1.327 . S
C601 C605 1.429 . S
C602 C585 1.574 . S
C602 H596 0.949 . S
C602 C606 1.368 . S
C603 C584 1.429 . S
C603 C597 1.429 . S
C603 C604 1.523 . S
C604 C585 1.368 . S
C604 C598 1.368 . S
C604 C603 1.523 . S
C605 C589 1.429 . S
C605 C601 1.429 . S
C605 C606 1.523 . S
C606 C590 1.368 . S
C606 C602 1.368 . S
C606 C605 1.523 . S
H607 C582 0.950 . S
H608 C584 0.950 . S
H609 C585 0.949 . S
H610 C587 0.950 . S
H611 C589 0.950 . S
C612 C613 1.349 . S
C612 C614 1.327 . S
C612 H637 0.950 . S
C613 C612 1.349 . S
C613 C629 1.349 . S
C614 C612 1.327 . S
C614 C633 1.429 . S
C614 H638 0.950 . S
C615 C632 1.574 . S
C615 C634 1.368 . S
C615 H639 0.949 . S
H616 C620 0.949 . S
C617 C618 1.349 . S
C617 C619 1.327 . S
C617 H640 0.950 . S
C618 C617 1.349 . S
C618 C630 1.349 . S
C619 C617 1.327 . S
C619 C635 1.429 . S
C619 H641 0.950 . S
C620 H616 0.949 . S
C620 C628 1.574 . S
C620 C636 1.368 . S
H621 C629 0.950 . S
H622 C627 0.950 . S
H623 C628 0.949 . S
H624 C630 0.950 . S
H625 C631 0.950 . S
H626 C632 0.949 . S
C627 H622 0.950 . S
C627 C629 1.327 . S
C627 C633 1.429 . S
C628 C620 1.574 . S
C628 H623 0.949 . S
C628 C634 1.368 . S
C629 C613 1.349 . S
C629 H621 0.950 . S
C629 C627 1.327 . S
C630 C618 1.349 . S
C630 H624 0.950 . S
C630 C631 1.327 . S
C631 H625 0.950 . S
C631 C630 1.327 . S
C631 C635 1.429 . S
C632 C615 1.574 . S
C632 H626 0.949 . S
C632 C636 1.368 . S
C633 C614 1.429 . S
C633 C627 1.429 . S
C633 C634 1.523 . S
C634 C615 1.368 . S
C634 C628 1.368 . S
C634 C633 1.523 . S
C635 C619 1.429 . S
C635 C631 1.429 . S
C635 C636 1.523 . S
C636 C620 1.368 . S
C636 C632 1.368 . S
C636 C635 1.523 . S
H637 C612 0.950 . S
H638 C614 0.950 . S
H639 C615 0.949 . S
H640 C617 0.950 . S
H641 C619 0.950 . S
C642 C643 1.349 . S
C642 C644 1.327 . S
C642 H667 0.950 . S
C643 C642 1.349 . S
C643 C659 1.349 . S
C644 C642 1.327 . S
C644 C663 1.429 . S
C644 H668 0.950 . S
C645 C662 1.574 1_655 S
C645 C664 1.368 . S
C645 H669 0.949 . S
H646 C650 0.949 . S
C647 C648 1.349 . S
C647 C649 1.327 . S
C647 H670 0.950 . S
C648 C647 1.349 . S
C648 C660 1.349 . S
C649 C647 1.327 . S
C649 C665 1.429 . S
C649 H671 0.950 . S
C650 H646 0.949 . S
C650 C658 1.574 1_455 S
C650 C666 1.368 . S
H651 C659 0.950 . S
H652 C657 0.950 . S
H653 C658 0.949 . S
H654 C660 0.950 . S
H655 C661 0.950 . S
H656 C662 0.949 . S
C657 H652 0.950 . S
C657 C659 1.327 . S
C657 C663 1.429 . S
C658 C650 1.574 1_655 S
C658 H653 0.949 . S
C658 C664 1.368 . S
C659 C643 1.349 . S
C659 H651 0.950 . S
C659 C657 1.327 . S
C660 C648 1.349 . S
C660 H654 0.950 . S
C660 C661 1.327 . S
C661 H655 0.950 . S
C661 C660 1.327 . S
C661 C665 1.429 . S
C662 C645 1.574 1_455 S
C662 H656 0.949 . S
C662 C666 1.368 . S
C663 C644 1.429 . S
C663 C657 1.429 . S
C663 C664 1.523 . S
C664 C645 1.368 . S
C664 C658 1.368 . S
C664 C663 1.523 . S
C665 C649 1.429 . S
C665 C661 1.429 . S
C665 C666 1.523 . S
C666 C650 1.368 . S
C666 C662 1.368 . S
C666 C665 1.523 . S
H667 C642 0.950 . S
H668 C644 0.950 . S
H669 C645 0.949 . S
H670 C647 0.950 . S
H671 C649 0.950 . S
C672 C673 1.349 . S
C672 C674 1.327 . S
C672 H697 0.950 . S
C673 C672 1.349 . S
C673 C689 1.349 . S
C674 C672 1.327 . S
C674 C693 1.429 . S
C674 H698 0.950 . S
C675 C692 1.574 1_545 S
C675 C694 1.368 . S
C675 H699 0.949 . S
H676 C680 0.949 . S
C677 C678 1.349 . S
C677 C679 1.327 . S
C677 H700 0.950 . S
C678 C677 1.349 . S
C678 C690 1.349 . S
C679 C677 1.327 . S
C679 C695 1.429 . S
C679 H701 0.950 . S
C680 H676 0.949 . S
C680 C688 1.574 1_565 S
C680 C696 1.368 . S
H681 C689 0.950 . S
H682 C687 0.950 . S
H683 C688 0.949 . S
H684 C690 0.950 . S
H685 C691 0.950 . S
H686 C692 0.949 . S
C687 H682 0.950 . S
C687 C689 1.327 . S
C687 C693 1.429 . S
C688 C680 1.574 1_545 S
C688 H683 0.949 . S
C688 C694 1.368 . S
C689 C673 1.349 . S
C689 H681 0.950 . S
C689 C687 1.327 . S
C690 C678 1.349 . S
C690 H684 0.950 . S
C690 C691 1.327 . S
C691 H685 0.950 . S
C691 C690 1.327 . S
C691 C695 1.429 . S
C692 C675 1.574 1_565 S
C692 H686 0.949 . S
C692 C696 1.368 . S
C693 C674 1.429 . S
C693 C687 1.429 . S
C693 C694 1.523 . S
C694 C675 1.368 . S
C694 C688 1.368 . S
C694 C693 1.523 . S
C695 C679 1.429 . S
C695 C691 1.429 . S
C695 C696 1.523 . S
C696 C680 1.368 . S
C696 C692 1.368 . S
C696 C695 1.523 . S
H697 C672 0.950 . S
H698 C674 0.950 . S
H699 C675 0.949 . S
H700 C677 0.950 . S
H701 C679 0.950 . S
C702 C703 1.349 . S
C702 C704 1.327 . S
C702 H727 0.950 . S
C703 C702 1.349 . S
C703 C719 1.349 . S
C704 C702 1.327 . S
C704 C723 1.429 . S
C704 H728 0.950 . S
C705 C722 1.574 . S
C705 C724 1.368 . S
C705 H729 0.949 . S
H706 C710 0.949 . S
C707 C708 1.349 . S
C707 C709 1.327 . S
C707 H730 0.950 . S
C708 C707 1.349 . S
C708 C720 1.349 . S
C709 C707 1.327 . S
C709 C725 1.429 . S
C709 H731 0.950 . S
C710 H706 0.949 . S
C710 C718 1.574 . S
C710 C726 1.368 . S
H711 C719 0.950 . S
H712 C717 0.950 . S
H713 C718 0.949 . S
H714 C720 0.950 . S
H715 C721 0.950 . S
H716 C722 0.949 . S
C717 H712 0.950 . S
C717 C719 1.327 . S
C717 C723 1.429 . S
C718 C710 1.574 . S
C718 H713 0.949 . S
C718 C724 1.368 . S
C719 C703 1.349 . S
C719 H711 0.950 . S
C719 C717 1.327 . S
C720 C708 1.349 . S
C720 H714 0.950 . S
C720 C721 1.327 . S
C721 H715 0.950 . S
C721 C720 1.327 . S
C721 C725 1.429 . S
C722 C705 1.574 . S
C722 H716 0.949 . S
C722 C726 1.368 . S
C723 C704 1.429 . S
C723 C717 1.429 . S
C723 C724 1.523 . S
C724 C705 1.368 . S
C724 C718 1.368 . S
C724 C723 1.523 . S
C725 C709 1.429 . S
C725 C721 1.429 . S
C725 C726 1.523 . S
C726 C710 1.368 . S
C726 C722 1.368 . S
C726 C725 1.523 . S
H727 C702 0.950 . S
H728 C704 0.950 . S
H729 C705 0.949 . S
H730 C707 0.950 . S
H731 C709 0.950 . S
C732 C733 1.349 . S
C732 C734 1.327 . S
C732 H757 0.950 . S
C733 C732 1.349 . S
C733 C749 1.349 . S
C734 C732 1.327 . S
C734 C753 1.429 . S
C734 H758 0.950 . S
C735 C752 1.574 . S
C735 C754 1.368 . S
C735 H759 0.949 . S
H736 C740 0.949 . S
C737 C738 1.349 . S
C737 C739 1.327 . S
C737 H760 0.950 . S
C738 C737 1.349 . S
C738 C750 1.349 . S
C739 C737 1.327 . S
C739 C755 1.429 . S
C739 H761 0.950 . S
C740 H736 0.949 . S
C740 C748 1.574 . S
C740 C756 1.368 . S
H741 C749 0.950 . S
H742 C747 0.950 . S
H743 C748 0.949 . S
H744 C750 0.950 . S
H745 C751 0.950 . S
H746 C752 0.949 . S
C747 H742 0.950 . S
C747 C749 1.327 . S
C747 C753 1.429 . S
C748 C740 1.574 . S
C748 H743 0.949 . S
C748 C754 1.368 1_455 S
C749 C733 1.349 . S
C749 H741 0.950 . S
C749 C747 1.327 . S
C750 C738 1.349 . S
C750 H744 0.950 . S
C750 C751 1.327 . S
C751 H745 0.950 . S
C751 C750 1.327 . S
C751 C755 1.429 . S
C752 C735 1.574 . S
C752 H746 0.949 . S
C752 C756 1.368 1_655 S
C753 C734 1.429 . S
C753 C747 1.429 . S
C753 C754 1.523 . S
C754 C735 1.368 . S
C754 C748 1.368 1_655 S
C754 C753 1.523 . S
C755 C739 1.429 . S
C755 C751 1.429 . S
C755 C756 1.523 . S
C756 C740 1.368 . S
C756 C752 1.368 1_455 S
C756 C755 1.523 . S
H757 C732 0.950 . S
H758 C734 0.950 . S
H759 C735 0.949 . S
H760 C737 0.950 . S
H761 C739 0.950 . S
C762 C763 1.349 . S
C762 C764 1.327 . S
C762 H787 0.950 . S
C763 C762 1.349 . S
C763 C779 1.349 . S
C764 C762 1.327 . S
C764 C783 1.429 . S
C764 H788 0.950 . S
C765 C782 1.574 . S
C765 C784 1.368 1_545 S
C765 H789 0.949 . S
H766 C770 0.949 . S
C767 C768 1.349 . S
C767 C769 1.327 . S
C767 H790 0.950 . S
C768 C767 1.349 . S
C768 C780 1.349 . S
C769 C767 1.327 . S
C769 C785 1.429 . S
C769 H791 0.950 . S
C770 H766 0.949 . S
C770 C778 1.574 . S
C770 C786 1.368 1_565 S
H771 C779 0.950 . S
H772 C777 0.950 . S
H773 C778 0.949 . S
H774 C780 0.950 . S
H775 C781 0.950 . S
H776 C782 0.949 . S
C777 H772 0.950 . S
C777 C779 1.327 . S
C777 C783 1.429 . S
C778 C770 1.574 . S
C778 H773 0.949 . S
C778 C784 1.368 1_556 S
C779 C763 1.349 . S
C779 H771 0.950 . S
C779 C777 1.327 . S
C780 C768 1.349 . S
C780 H774 0.950 . S
C780 C781 1.327 . S
C781 H775 0.950 . S
C781 C780 1.327 . S
C781 C785 1.429 . S
C782 C765 1.574 . S
C782 H776 0.949 . S
C782 C786 1.368 1_554 S
C783 C764 1.429 . S
C783 C777 1.429 . S
C783 C784 1.523 . S
C784 C765 1.368 1_565 S
C784 C778 1.368 1_554 S
C784 C783 1.523 . S
C785 C769 1.429 . S
C785 C781 1.429 . S
C785 C786 1.523 . S
C786 C770 1.368 1_545 S
C786 C782 1.368 1_556 S
C786 C785 1.523 . S
H787 C762 0.950 . S
H788 C764 0.950 . S
H789 C765 0.949 . S
H790 C767 0.950 . S
H791 C769 0.950 . S
C792 C793 1.349 . S
C792 C794 1.327 . S
C792 H817 0.950 . S
C793 C792 1.349 . S
C793 C809 1.349 . S
C794 C792 1.327 . S
C794 C813 1.429 . S
C794 H818 0.950 . S
C795 C812 1.574 . S
C795 C814 1.368 . S
C795 H819 0.949 . S
H796 C800 0.949 1_556 S
C797 C798 1.349 . S
C797 C799 1.327 . S
C797 H820 0.950 . S
C798 C797 1.349 . S
C798 C810 1.349 . S
C799 C797 1.327 . S
C799 C815 1.429 . S
C799 H821 0.950 1_556 S
C800 H796 0.949 1_554 S
C800 C808 1.574 . S
C800 C816 1.368 . S
H801 C809 0.950 . S
H802 C807 0.950 . S
H803 C808 0.949 . S
H804 C810 0.950 . S
H805 C811 0.950 . S
H806 C812 0.949 . S
C807 H802 0.950 . S
C807 C809 1.327 . S
C807 C813 1.429 . S
C808 C800 1.574 . S
C808 H803 0.949 . S
C808 C814 1.368 . S
C809 C793 1.349 . S
C809 H801 0.950 . S
C809 C807 1.327 . S
C810 C798 1.349 . S
C810 H804 0.950 . S
C810 C811 1.327 . S
C811 H805 0.950 . S
C811 C810 1.327 . S
C811 C815 1.429 . S
C812 C795 1.574 . S
C812 H806 0.949 . S
C812 C816 1.368 . S
C813 C794 1.429 . S
C813 C807 1.429 . S
C813 C814 1.523 . S
C814 C795 1.368 . S
C814 C808 1.368 . S
C814 C813 1.523 . S
C815 C799 1.429 . S
C815 C811 1.429 . S
C815 C816 1.523 1_556 S
C816 C800 1.368 . S
C816 C812 1.368 . S
C816 C815 1.523 1_554 S
H817 C792 0.950 . S
H818 C794 0.950 . S
H819 C795 0.949 . S
H820 C797 0.950 . S
H821 C799 0.950 1_554 S
C822 C823 1.349 . S
C822 C824 1.327 . S
C822 H847 0.950 . S
C823 C822 1.349 . S
C823 C839 1.349 . S
C824 C822 1.327 . S
C824 C843 1.429 . S
C824 H848 0.950 . S
C825 C842 1.574 1_655 S
C825 C844 1.368 . S
C825 H849 0.949 . S
H826 C830 0.949 . S
C827 C828 1.349 . S
C827 C829 1.327 . S
C827 H850 0.950 . S
C828 C827 1.349 . S
C828 C840 1.349 . S
C829 C827 1.327 . S
C829 C845 1.429 . S
C829 H851 0.950 . S
C830 H826 0.949 . S
C830 C838 1.574 . S
C830 C846 1.368 . S
H831 C839 0.950 . S
H832 C837 0.950 . S
H833 C838 0.949 . S
H834 C840 0.950 . S
H835 C841 0.950 1_655 S
H836 C842 0.949 . S
C837 H832 0.950 . S
C837 C839 1.327 . S
C837 C843 1.429 . S
C838 C830 1.574 . S
C838 H833 0.949 . S
C838 C844 1.368 . S
C839 C823 1.349 . S
C839 H831 0.950 . S
C839 C837 1.327 . S
C840 C828 1.349 . S
C840 H834 0.950 . S
C840 C841 1.327 . S
C841 H835 0.950 1_455 S
C841 C840 1.327 . S
C841 C845 1.429 . S
C842 C825 1.574 1_455 S
C842 H836 0.949 . S
C842 C846 1.368 1_455 S
C843 C824 1.429 . S
C843 C837 1.429 . S
C843 C844 1.523 . S
C844 C825 1.368 . S
C844 C838 1.368 . S
C844 C843 1.523 . S
C845 C829 1.429 . S
C845 C841 1.429 . S
C845 C846 1.523 1_455 S
C846 C830 1.368 . S
C846 C842 1.368 1_655 S
C846 C845 1.523 1_655 S
H847 C822 0.950 . S
H848 C824 0.950 . S
H849 C825 0.949 . S
H850 C827 0.950 . S
H851 C829 0.950 . S
C852 C853 1.349 . S
C852 C854 1.327 . S
C852 H877 0.950 . S
C853 C852 1.349 . S
C853 C869 1.349 . S
C854 C852 1.327 . S
C854 C873 1.429 . S
C854 H878 0.950 1_545 S
C855 C872 1.574 1_545 S
C855 C874 1.368 1_545 S
C855 H879 0.949 . S
H856 C860 0.949 . S
C857 C858 1.349 . S
C857 C859 1.327 . S
C857 H880 0.950 . S
C858 C857 1.349 . S
C858 C870 1.349 . S
C859 C857 1.327 . S
C859 C875 1.429 . S
C859 H881 0.950 . S
C860 H856 0.949 . S
C860 C868 1.574 . S
C860 C876 1.368 . S
H861 C869 0.950 . S
H862 C867 0.950 . S
H863 C868 0.949 . S
H864 C870 0.950 . S
H865 C871 0.950 . S
H866 C872 0.949 . S
C867 H862 0.950 . S
C867 C869 1.327 . S
C867 C873 1.429 . S
C868 C860 1.574 . S
C868 H863 0.949 . S
C868 C874 1.368 . S
C869 C853 1.349 . S
C869 H861 0.950 . S
C869 C867 1.327 . S
C870 C858 1.349 . S
C870 H864 0.950 . S
C870 C871 1.327 . S
C871 H865 0.950 . S
C871 C870 1.327 . S
C871 C875 1.429 . S
C872 C855 1.574 1_565 S
C872 H866 0.949 . S
C872 C876 1.368 . S
C873 C854 1.429 . S
C873 C867 1.429 . S
C873 C874 1.523 1_545 S
C874 C855 1.368 1_565 S
C874 C868 1.368 . S
C874 C873 1.523 1_565 S
C875 C859 1.429 . S
C875 C871 1.429 . S
C875 C876 1.523 . S
C876 C860 1.368 . S
C876 C872 1.368 . S
C876 C875 1.523 . S
H877 C852 0.950 . S
H878 C854 0.950 1_565 S
H879 C855 0.949 . S
H880 C857 0.950 . S
H881 C859 0.950 . S
C882 C883 1.349 . S
C882 C884 1.327 . S
C882 H907 0.950 . S
C883 C882 1.349 . S
C883 C899 1.349 . S
C884 C882 1.327 . S
C884 C903 1.429 . S
C884 H908 0.950 . S
C885 C902 1.574 . S
C885 C904 1.368 . S
C885 H909 0.949 . S
H886 C890 0.949 . S
C887 C888 1.349 . S
C887 C889 1.327 . S
C887 H910 0.950 . S
C888 C887 1.349 . S
C888 C900 1.349 . S
C889 C887 1.327 . S
C889 C905 1.429 . S
C889 H911 0.950 . S
C890 H886 0.949 . S
C890 C898 1.574 . S
C890 C906 1.368 . S
H891 C899 0.950 . S
H892 C897 0.950 . S
H893 C898 0.949 . S
H894 C900 0.950 . S
H895 C901 0.950 . S
H896 C902 0.949 . S
C897 H892 0.950 . S
C897 C899 1.327 . S
C897 C903 1.429 . S
C898 C890 1.574 . S
C898 H893 0.949 . S
C898 C904 1.368 . S
C899 C883 1.349 . S
C899 H891 0.950 . S
C899 C897 1.327 . S
C900 C888 1.349 . S
C900 H894 0.950 . S
C900 C901 1.327 . S
C901 H895 0.950 . S
C901 C900 1.327 . S
C901 C905 1.429 . S
C902 C885 1.574 . S
C902 H896 0.949 . S
C902 C906 1.368 . S
C903 C884 1.429 . S
C903 C897 1.429 . S
C903 C904 1.523 . S
C904 C885 1.368 . S
C904 C898 1.368 . S
C904 C903 1.523 . S
C905 C889 1.429 . S
C905 C901 1.429 . S
C905 C906 1.523 . S
C906 C890 1.368 . S
C906 C902 1.368 . S
C906 C905 1.523 . S
H907 C882 0.950 . S
H908 C884 0.950 . S
H909 C885 0.949 . S
H910 C887 0.950 . S
H911 C889 0.950 . S
C912 C913 1.349 . S
C912 C914 1.327 . S
C912 H937 0.950 . S
C913 C912 1.349 . S
C913 C929 1.349 . S
C914 C912 1.327 . S
C914 C933 1.429 . S
C914 H938 0.950 . S
C915 C932 1.574 1_455 S
C915 C934 1.368 . S
C915 H939 0.949 . S
H916 C920 0.949 . S
C917 C918 1.349 . S
C917 C919 1.327 . S
C917 H940 0.950 . S
C918 C917 1.349 . S
C918 C930 1.349 . S
C919 C917 1.327 . S
C919 C935 1.429 . S
C919 H941 0.950 . S
C920 H916 0.949 . S
C920 C928 1.574 . S
C920 C936 1.368 . S
H921 C929 0.950 . S
H922 C927 0.950 . S
H923 C928 0.949 . S
H924 C930 0.950 . S
H925 C931 0.950 1_455 S
H926 C932 0.949 . S
C927 H922 0.950 . S
C927 C929 1.327 . S
C927 C933 1.429 . S
C928 C920 1.574 . S
C928 H923 0.949 . S
C928 C934 1.368 . S
C929 C913 1.349 . S
C929 H921 0.950 . S
C929 C927 1.327 . S
C930 C918 1.349 . S
C930 H924 0.950 . S
C930 C931 1.327 . S
C931 H925 0.950 1_655 S
C931 C930 1.327 . S
C931 C935 1.429 . S
C932 C915 1.574 1_655 S
C932 H926 0.949 . S
C932 C936 1.368 1_655 S
C933 C914 1.429 . S
C933 C927 1.429 . S
C933 C934 1.523 . S
C934 C915 1.368 . S
C934 C928 1.368 . S
C934 C933 1.523 . S
C935 C919 1.429 . S
C935 C931 1.429 . S
C935 C936 1.523 1_655 S
C936 C920 1.368 . S
C936 C932 1.368 1_455 S
C936 C935 1.523 1_455 S
H937 C912 0.950 . S
H938 C914 0.950 . S
H939 C915 0.949 . S
H940 C917 0.950 . S
H941 C919 0.950 . S
C942 C943 1.349 . S
C942 C944 1.327 . S
C942 H967 0.950 . S
C943 C942 1.349 . S
C943 C959 1.349 . S
C944 C942 1.327 . S
C944 C963 1.429 . S
C944 H968 0.950 . S
C945 C962 1.574 . S
C945 C964 1.368 . S
C945 H969 0.949 . S
H946 C950 0.949 . S
C947 C948 1.349 . S
C947 C949 1.327 . S
C947 H970 0.950 . S
C948 C947 1.349 . S
C948 C960 1.349 . S
C949 C947 1.327 . S
C949 C965 1.429 . S
C949 H971 0.950 1_565 S
C950 H946 0.949 . S
C950 C958 1.574 1_565 S
C950 C966 1.368 1_565 S
H951 C959 0.950 . S
H952 C957 0.950 . S
H953 C958 0.949 . S
H954 C960 0.950 . S
H955 C961 0.950 . S
H956 C962 0.949 . S
C957 H952 0.950 . S
C957 C959 1.327 . S
C957 C963 1.429 . S
C958 C950 1.574 1_545 S
C958 H953 0.949 . S
C958 C964 1.368 . S
C959 C943 1.349 . S
C959 H951 0.950 . S
C959 C957 1.327 . S
C960 C948 1.349 . S
C960 H954 0.950 . S
C960 C961 1.327 . S
C961 H955 0.950 . S
C961 C960 1.327 . S
C961 C965 1.429 . S
C962 C945 1.574 . S
C962 H956 0.949 . S
C962 C966 1.368 . S
C963 C944 1.429 . S
C963 C957 1.429 . S
C963 C964 1.523 . S
C964 C945 1.368 . S
C964 C958 1.368 . S
C964 C963 1.523 . S
C965 C949 1.429 . S
C965 C961 1.429 . S
C965 C966 1.523 1_565 S
C966 C950 1.368 1_545 S
C966 C962 1.368 . S
C966 C965 1.523 1_545 S
H967 C942 0.950 . S
H968 C944 0.950 . S
H969 C945 0.949 . S
H970 C947 0.950 . S
H971 C949 0.950 1_545 S
C972 C973 1.349 . S
C972 C974 1.327 . S
C972 H997 0.950 . S
C973 C972 1.349 . S
C973 C989 1.349 . S
C974 C972 1.327 . S
C974 C993 1.429 . S
C974 H998 0.950 . S
C975 C992 1.574 . S
C975 C994 1.368 . S
C975 H999 0.949 . S
H976 C980 0.949 . S
C977 C978 1.349 . S
C977 C979 1.327 . S
C977 H1000 0.950 . S
C978 C977 1.349 . S
C978 C990 1.349 . S
C979 C977 1.327 . S
C979 C995 1.429 . S
C979 H1001 0.950 . S
C980 H976 0.949 . S
C980 C988 1.574 . S
C980 C996 1.368 . S
H981 C989 0.950 . S
H982 C987 0.950 . S
H983 C988 0.949 . S
H984 C990 0.950 . S
H985 C991 0.950 . S
H986 C992 0.949 . S
C987 H982 0.950 . S
C987 C989 1.327 . S
C987 C993 1.429 . S
C988 C980 1.574 . S
C988 H983 0.949 . S
C988 C994 1.368 . S
C989 C973 1.349 . S
C989 H981 0.950 . S
C989 C987 1.327 . S
C990 C978 1.349 . S
C990 H984 0.950 . S
C990 C991 1.327 . S
C991 H985 0.950 . S
C991 C990 1.327 . S
C991 C995 1.429 . S
C992 C975 1.574 . S
C992 H986 0.949 . S
C992 C996 1.368 . S
C993 C974 1.429 . S
C993 C987 1.429 . S
C993 C994 1.523 . S
C994 C975 1.368 . S
C994 C988 1.368 . S
C994 C993 1.523 . S
C995 C979 1.429 . S
C995 C991 1.429 . S
C995 C996 1.523 . S
C996 C980 1.368 . S
C996 C992 1.368 . S
C996 C995 1.523 . S
H997 C972 0.950 . S
H998 C974 0.950 . S
H999 C975 0.949 . S
H1000 C977 0.950 . S
H1001 C979 0.950 . S
C1002 C1003 1.349 . S
C1002 C1004 1.327 . S
C1002 H1027 0.950 . S
C1003 C1002 1.349 . S
C1003 C1019 1.349 . S
C1004 C1002 1.327 . S
C1004 C1023 1.429 . S
C1004 H1028 0.950 . S
C1005 C1022 1.574 . S
C1005 C1024 1.368 . S
C1005 H1029 0.949 . S
H1006 C1010 0.949 . S
C1007 C1008 1.349 . S
C1007 C1009 1.327 . S
C1007 H1030 0.950 . S
C1008 C1007 1.349 . S
C1008 C1020 1.349 . S
C1009 C1007 1.327 . S
C1009 C1025 1.429 . S
C1009 H1031 0.950 . S
C1010 H1006 0.949 . S
C1010 C1018 1.574 . S
C1010 C1026 1.368 . S
H1011 C1019 0.950 . S
H1012 C1017 0.950 . S
H1013 C1018 0.949 . S
H1014 C1020 0.950 . S
H1015 C1021 0.950 . S
H1016 C1022 0.949 1_455 S
C1017 H1012 0.950 . S
C1017 C1019 1.327 . S
C1017 C1023 1.429 . S
C1018 C1010 1.574 . S
C1018 H1013 0.949 . S
C1018 C1024 1.368 . S
C1019 C1003 1.349 . S
C1019 H1011 0.950 . S
C1019 C1017 1.327 . S
C1020 C1008 1.349 . S
C1020 H1014 0.950 . S
C1020 C1021 1.327 . S
C1021 H1015 0.950 . S
C1021 C1020 1.327 . S
C1021 C1025 1.429 . S
C1022 C1005 1.574 . S
C1022 H1016 0.949 1_655 S
C1022 C1026 1.368 . S
C1023 C1004 1.429 . S
C1023 C1017 1.429 . S
C1023 C1024 1.523 . S
C1024 C1005 1.368 . S
C1024 C1018 1.368 . S
C1024 C1023 1.523 . S
C1025 C1009 1.429 . S
C1025 C1021 1.429 . S
C1025 C1026 1.523 1_454 S
C1026 C1010 1.368 . S
C1026 C1022 1.368 . S
C1026 C1025 1.523 1_656 S
H1027 C1002 0.950 . S
H1028 C1004 0.950 . S
H1029 C1005 0.949 . S
H1030 C1007 0.950 . S
H1031 C1009 0.950 . S
C1032 C1033 1.349 . S
C1032 C1034 1.327 . S
C1032 H1057 0.950 . S
C1033 C1032 1.349 . S
C1033 C1049 1.349 . S
C1034 C1032 1.327 . S
C1034 C1053 1.429 . S
C1034 H1058 0.950 . S
C1035 C1052 1.574 1_565 S
C1035 C1054 1.368 . S
C1035 H1059 0.949 . S
H1036 C1040 0.949 . S
C1037 C1038 1.349 . S
C1037 C1039 1.327 . S
C1037 H1060 0.950 . S
C1038 C1037 1.349 . S
C1038 C1050 1.349 . S
C1039 C1037 1.327 . S
C1039 C1055 1.429 . S
C1039 H1061 0.950 . S
C1040 H1036 0.949 . S
C1040 C1048 1.574 . S
C1040 C1056 1.368 . S
H1041 C1049 0.950 . S
H1042 C1047 0.950 . S
H1043 C1048 0.949 . S
H1044 C1050 0.950 . S
H1045 C1051 0.950 1_565 S
H1046 C1052 0.949 . S
C1047 H1042 0.950 . S
C1047 C1049 1.327 . S
C1047 C1053 1.429 . S
C1048 C1040 1.574 . S
C1048 H1043 0.949 . S
C1048 C1054 1.368 . S
C1049 C1033 1.349 . S
C1049 H1041 0.950 . S
C1049 C1047 1.327 . S
C1050 C1038 1.349 . S
C1050 H1044 0.950 . S
C1050 C1051 1.327 . S
C1051 H1045 0.950 1_545 S
C1051 C1050 1.327 . S
C1051 C1055 1.429 . S
C1052 C1035 1.574 1_545 S
C1052 H1046 0.949 . S
C1052 C1056 1.368 1_545 S
C1053 C1034 1.429 . S
C1053 C1047 1.429 . S
C1053 C1054 1.523 . S
C1054 C1035 1.368 . S
C1054 C1048 1.368 . S
C1054 C1053 1.523 . S
C1055 C1039 1.429 . S
C1055 C1051 1.429 . S
C1055 C1056 1.523 1_545 S
C1056 C1040 1.368 . S
C1056 C1052 1.368 1_565 S
C1056 C1055 1.523 1_565 S
H1057 C1032 0.950 . S
H1058 C1034 0.950 . S
H1059 C1035 0.949 . S
H1060 C1037 0.950 . S
H1061 C1039 0.950 . S
C1062 C1063 1.349 . S
C1062 C1064 1.327 . S
C1062 H1087 0.950 . S
C1063 C1062 1.349 . S
C1063 C1079 1.349 . S
C1064 C1062 1.327 . S
C1064 C1083 1.429 . S
C1064 H1088 0.950 . S
C1065 C1082 1.574 . S
C1065 C1084 1.368 . S
C1065 H1089 0.949 . S
H1066 C1070 0.949 . S
C1067 C1068 1.349 . S
C1067 C1069 1.327 . S
C1067 H1090 0.950 . S
C1068 C1067 1.349 . S
C1068 C1080 1.349 . S
C1069 C1067 1.327 . S
C1069 C1085 1.429 . S
C1069 H1091 0.950 . S
C1070 H1066 0.949 . S
C1070 C1078 1.574 . S
C1070 C1086 1.368 . S
H1071 C1079 0.950 . S
H1072 C1077 0.950 . S
H1073 C1078 0.949 . S
H1074 C1080 0.950 . S
H1075 C1081 0.950 . S
H1076 C1082 0.949 . S
C1077 H1072 0.950 . S
C1077 C1079 1.327 . S
C1077 C1083 1.429 . S
C1078 C1070 1.574 . S
C1078 H1073 0.949 . S
C1078 C1084 1.368 . S
C1079 C1063 1.349 . S
C1079 H1071 0.950 . S
C1079 C1077 1.327 . S
C1080 C1068 1.349 . S
C1080 H1074 0.950 . S
C1080 C1081 1.327 . S
C1081 H1075 0.950 . S
C1081 C1080 1.327 . S
C1081 C1085 1.429 . S
C1082 C1065 1.574 . S
C1082 H1076 0.949 . S
C1082 C1086 1.368 . S
C1083 C1064 1.429 . S
C1083 C1077 1.429 . S
C1083 C1084 1.523 . S
C1084 C1065 1.368 . S
C1084 C1078 1.368 . S
C1084 C1083 1.523 . S
C1085 C1069 1.429 . S
C1085 C1081 1.429 . S
C1085 C1086 1.523 . S
C1086 C1070 1.368 . S
C1086 C1082 1.368 . S
C1086 C1085 1.523 . S
H1087 C1062 0.950 . S
H1088 C1064 0.950 . S
H1089 C1065 0.949 . S
H1090 C1067 0.950 . S
H1091 C1069 0.950 . S
C1092 C1093 1.349 . S
C1092 C1094 1.327 . S
C1092 H1117 0.950 . S
C1093 C1092 1.349 . S
C1093 C1109 1.349 . S
C1094 C1092 1.327 . S
C1094 C1113 1.429 . S
C1094 H1118 0.950 . S
C1095 C1112 1.574 . S
C1095 C1114 1.368 . S
C1095 H1119 0.949 . S
H1096 C1100 0.949 . S
C1097 C1098 1.349 . S
C1097 C1099 1.327 . S
C1097 H1120 0.950 . S
C1098 C1097 1.349 . S
C1098 C1110 1.349 . S
C1099 C1097 1.327 . S
C1099 C1115 1.429 . S
C1099 H1121 0.950 . S
C1100 H1096 0.949 . S
C1100 C1108 1.574 1_655 S
C1100 C1116 1.368 1_655 S
H1101 C1109 0.950 . S
H1102 C1107 0.950 . S
H1103 C1108 0.949 . S
H1104 C1110 0.950 . S
H1105 C1111 0.950 . S
H1106 C1112 0.949 . S
C1107 H1102 0.950 . S
C1107 C1109 1.327 . S
C1107 C1113 1.429 . S
C1108 C1100 1.574 1_455 S
C1108 H1103 0.949 . S
C1108 C1114 1.368 . S
C1109 C1093 1.349 . S
C1109 H1101 0.950 . S
C1109 C1107 1.327 . S
C1110 C1098 1.349 . S
C1110 H1104 0.950 . S
C1110 C1111 1.327 . S
C1111 H1105 0.950 . S
C1111 C1110 1.327 . S
C1111 C1115 1.429 . S
C1112 C1095 1.574 . S
C1112 H1106 0.949 . S
C1112 C1116 1.368 . S
C1113 C1094 1.429 . S
C1113 C1107 1.429 . S
C1113 C1114 1.523 . S
C1114 C1095 1.368 . S
C1114 C1108 1.368 . S
C1114 C1113 1.523 . S
C1115 C1099 1.429 . S
C1115 C1111 1.429 . S
C1115 C1116 1.523 1_655 S
C1116 C1100 1.368 1_455 S
C1116 C1112 1.368 . S
C1116 C1115 1.523 1_455 S
H1117 C1092 0.950 . S
H1118 C1094 0.950 . S
H1119 C1095 0.949 . S
H1120 C1097 0.950 . S
H1121 C1099 0.950 . S
C1122 C1123 1.349 . S
C1122 C1124 1.327 . S
C1122 H1147 0.950 . S
C1123 C1122 1.349 . S
C1123 C1139 1.349 . S
C1124 C1122 1.327 . S
C1124 C1143 1.429 . S
C1124 H1148 0.950 . S
C1125 C1142 1.574 1_565 S
C1125 C1144 1.368 1_565 S
C1125 H1149 0.949 . S
H1126 C1130 0.949 . S
C1127 C1128 1.349 . S
C1127 C1129 1.327 . S
C1127 H1150 0.950 . S
C1128 C1127 1.349 . S
C1128 C1140 1.349 . S
C1129 C1127 1.327 . S
C1129 C1145 1.429 . S
C1129 H1151 0.950 . S
C1130 H1126 0.949 . S
C1130 C1138 1.574 . S
C1130 C1146 1.368 . S
H1131 C1139 0.950 . S
H1132 C1137 0.950 . S
H1133 C1138 0.949 . S
H1134 C1140 0.950 . S
H1135 C1141 0.950 . S
H1136 C1142 0.949 . S
C1137 H1132 0.950 . S
C1137 C1139 1.327 . S
C1137 C1143 1.429 . S
C1138 C1130 1.574 . S
C1138 H1133 0.949 . S
C1138 C1144 1.368 . S
C1139 C1123 1.349 . S
C1139 H1131 0.950 . S
C1139 C1137 1.327 . S
C1140 C1128 1.349 . S
C1140 H1134 0.950 . S
C1140 C1141 1.327 . S
C1141 H1135 0.950 . S
C1141 C1140 1.327 . S
C1141 C1145 1.429 . S
C1142 C1125 1.574 1_545 S
C1142 H1136 0.949 . S
C1142 C1146 1.368 . S
C1143 C1124 1.429 . S
C1143 C1137 1.429 . S
C1143 C1144 1.523 1_565 S
C1144 C1125 1.368 1_545 S
C1144 C1138 1.368 . S
C1144 C1143 1.523 1_545 S
C1145 C1129 1.429 . S
C1145 C1141 1.429 . S
C1145 C1146 1.523 . S
C1146 C1130 1.368 . S
C1146 C1142 1.368 . S
C1146 C1145 1.523 . S
H1147 C1122 0.950 . S
H1148 C1124 0.950 . S
H1149 C1125 0.949 . S
H1150 C1127 0.950 . S
H1151 C1129 0.950 . S
C433 C302 1.064 . S
C438 C14 1.064 . S
C463 C50 1.065 . S
C468 C338 1.065 . S
C493 C86 1.065 . S
C498 C374 1.065 . S
C523 C122 1.064 . S
C528 C410 1.064 . S
C553 C230 1.065 . S
C558 C158 1.065 . S
C583 C194 1.065 . S
C588 C266 1.065 . S
C613 C326 0.682 . S
C618 C2 0.682 . S
C643 C38 0.682 . S
C648 C362 0.682 . S
C673 C398 0.682 . S
C678 C74 0.682 . S
C703 C110 0.682 . S
C708 C218 0.682 . S
C733 C254 0.682 . S
C738 C146 0.682 . S
C763 C290 0.682 . S
C768 C182 0.682 . S
C793 C3 1.400 . S
C798 C184 1.368 . S
C823 C39 1.400 . S
C828 C4 1.368 . S
C853 C40 1.368 . S
C858 C75 1.400 . S
C883 C111 1.400 . S
C888 C76 1.368 . S
C913 C147 1.400 . S
C918 C112 1.368 . S
C943 C183 1.400 . S
C948 C148 1.368 . S
C973 C219 1.400 . S
C978 C256 1.368 . S
C1003 C255 1.400 . S
C1008 C292 1.368 . S
C1033 C291 1.400 . S
C1038 C328 1.368 . S
C1063 C327 1.400 . S
C1068 C364 1.368 . S
C1093 C363 1.400 . S
C1098 C400 1.368 . S
C1123 C220 1.368 . S
C1128 C399 1.400 . S
