# Generated by pormake.
# Topology ukj, (4)-cn, num edge types: 1
# Building blocks:
#     Node 0, Type 0, BuildingBlock: MUDLON_clean_sbu_0, # of connection points: 4
#     Node 1, Type 0, BuildingBlock: MUDLON_clean_sbu_0, # of connection points: 4
#     Node 2, Type 0, BuildingBlock: MUDLON_clean_sbu_0, # of connection points: 4
#     Node 3, Type 0, BuildingBlock: MUDLON_clean_sbu_0, # of connection points: 4
#     Node 4, Type 0, BuildingBlock: MUDLON_clean_sbu_0, # of connection points: 4
#     Node 5, Type 0, BuildingBlock: MUDLON_clean_sbu_0, # of connection points: 4
#     Node 6, Type 0, BuildingBlock: MUDLON_clean_sbu_0, # of connection points: 4
#     Node 7, Type 0, BuildingBlock: MUDLON_clean_sbu_0, # of connection points: 4
#     Node 8, Type 0, BuildingBlock: MUDLON_clean_sbu_0, # of connection points: 4
#     Node 9, Type 0, BuildingBlock: MUDLON_clean_sbu_0, # of connection points: 4
#     Node 10, Type 0, BuildingBlock: MUDLON_clean_sbu_0, # of connection points: 4
#     Node 11, Type 0, BuildingBlock: MUDLON_clean_sbu_0, # of connection points: 4
#     Node 12, Type 0, BuildingBlock: MUDLON_clean_sbu_0, # of connection points: 4
#     Node 13, Type 0, BuildingBlock: MUDLON_clean_sbu_0, # of connection points: 4
#     Node 14, Type 0, BuildingBlock: MUDLON_clean_sbu_0, # of connection points: 4
#     Node 15, Type 0, BuildingBlock: MUDLON_clean_sbu_0, # of connection points: 4
#     Node 16, Type 0, BuildingBlock: MUDLON_clean_sbu_0, # of connection points: 4
#     Node 17, Type 0, BuildingBlock: MUDLON_clean_sbu_0, # of connection points: 4
#     Node 18, Type 0, BuildingBlock: MUDLON_clean_sbu_0, # of connection points: 4
#     Node 19, Type 0, BuildingBlock: MUDLON_clean_sbu_0, # of connection points: 4
#     Node 20, Type 0, BuildingBlock: MUDLON_clean_sbu_0, # of connection points: 4
#     Node 21, Type 0, BuildingBlock: MUDLON_clean_sbu_0, # of connection points: 4
#     Node 22, Type 0, BuildingBlock: MUDLON_clean_sbu_0, # of connection points: 4
#     Node 23, Type 0, BuildingBlock: MUDLON_clean_sbu_0, # of connection points: 4
#     Node 24, Type 0, BuildingBlock: MUDLON_clean_sbu_0, # of connection points: 4
#     Node 25, Type 0, BuildingBlock: MUDLON_clean_sbu_0, # of connection points: 4
#     Node 26, Type 0, BuildingBlock: MUDLON_clean_sbu_0, # of connection points: 4
#     Node 27, Type 0, BuildingBlock: MUDLON_clean_sbu_0, # of connection points: 4
#     Node 28, Type 0, BuildingBlock: MUDLON_clean_sbu_0, # of connection points: 4
#     Node 29, Type 0, BuildingBlock: MUDLON_clean_sbu_0, # of connection points: 4
#     Node 30, Type 0, BuildingBlock: MUDLON_clean_sbu_0, # of connection points: 4
#     Node 31, Type 0, BuildingBlock: MUDLON_clean_sbu_0, # of connection points: 4
#     Edge 32, Type (0, 0), BuildingBlock: UVAHIK_clean_linker_0, # of connection points: 2
#     Edge 33, Type (0, 0), BuildingBlock: UVAHIK_clean_linker_0, # of connection points: 2
#     Edge 34, Type (0, 0), BuildingBlock: UVAHIK_clean_linker_0, # of connection points: 2
#     Edge 35, Type (0, 0), BuildingBlock: UVAHIK_clean_linker_0, # of connection points: 2
#     Edge 36, Type (0, 0), BuildingBlock: UVAHIK_clean_linker_0, # of connection points: 2
#     Edge 37, Type (0, 0), BuildingBlock: UVAHIK_clean_linker_0, # of connection points: 2
#     Edge 38, Type (0, 0), BuildingBlock: UVAHIK_clean_linker_0, # of connection points: 2
#     Edge 39, Type (0, 0), BuildingBlock: UVAHIK_clean_linker_0, # of connection points: 2
#     Edge 40, Type (0, 0), BuildingBlock: UVAHIK_clean_linker_0, # of connection points: 2
#     Edge 41, Type (0, 0), BuildingBlock: UVAHIK_clean_linker_0, # of connection points: 2
#     Edge 42, Type (0, 0), BuildingBlock: UVAHIK_clean_linker_0, # of connection points: 2
#     Edge 43, Type (0, 0), BuildingBlock: UVAHIK_clean_linker_0, # of connection points: 2
#     Edge 44, Type (0, 0), BuildingBlock: UVAHIK_clean_linker_0, # of connection points: 2
#     Edge 45, Type (0, 0), BuildingBlock: UVAHIK_clean_linker_0, # of connection points: 2
#     Edge 46, Type (0, 0), BuildingBlock: UVAHIK_clean_linker_0, # of connection points: 2
#     Edge 47, Type (0, 0), BuildingBlock: UVAHIK_clean_linker_0, # of connection points: 2
#     Edge 48, Type (0, 0), BuildingBlock: UVAHIK_clean_linker_0, # of connection points: 2
#     Edge 49, Type (0, 0), BuildingBlock: UVAHIK_clean_linker_0, # of connection points: 2
#     Edge 50, Type (0, 0), BuildingBlock: UVAHIK_clean_linker_0, # of connection points: 2
#     Edge 51, Type (0, 0), BuildingBlock: UVAHIK_clean_linker_0, # of connection points: 2
#     Edge 52, Type (0, 0), BuildingBlock: UVAHIK_clean_linker_0, # of connection points: 2
#     Edge 53, Type (0, 0), BuildingBlock: UVAHIK_clean_linker_0, # of connection points: 2
#     Edge 54, Type (0, 0), BuildingBlock: UVAHIK_clean_linker_0, # of connection points: 2
#     Edge 55, Type (0, 0), BuildingBlock: UVAHIK_clean_linker_0, # of connection points: 2
#     Edge 56, Type (0, 0), BuildingBlock: UVAHIK_clean_linker_0, # of connection points: 2
#     Edge 57, Type (0, 0), BuildingBlock: UVAHIK_clean_linker_0, # of connection points: 2
#     Edge 58, Type (0, 0), BuildingBlock: UVAHIK_clean_linker_0, # of connection points: 2
#     Edge 59, Type (0, 0), BuildingBlock: UVAHIK_clean_linker_0, # of connection points: 2
#     Edge 60, Type (0, 0), BuildingBlock: UVAHIK_clean_linker_0, # of connection points: 2
#     Edge 61, Type (0, 0), BuildingBlock: UVAHIK_clean_linker_0, # of connection points: 2
#     Edge 62, Type (0, 0), BuildingBlock: UVAHIK_clean_linker_0, # of connection points: 2
#     Edge 63, Type (0, 0), BuildingBlock: UVAHIK_clean_linker_0, # of connection points: 2
#     Edge 64, Type (0, 0), BuildingBlock: UVAHIK_clean_linker_0, # of connection points: 2
#     Edge 65, Type (0, 0), BuildingBlock: UVAHIK_clean_linker_0, # of connection points: 2
#     Edge 66, Type (0, 0), BuildingBlock: UVAHIK_clean_linker_0, # of connection points: 2
#     Edge 67, Type (0, 0), BuildingBlock: UVAHIK_clean_linker_0, # of connection points: 2
#     Edge 68, Type (0, 0), BuildingBlock: UVAHIK_clean_linker_0, # of connection points: 2
#     Edge 69, Type (0, 0), BuildingBlock: UVAHIK_clean_linker_0, # of connection points: 2
#     Edge 70, Type (0, 0), BuildingBlock: UVAHIK_clean_linker_0, # of connection points: 2
#     Edge 71, Type (0, 0), BuildingBlock: UVAHIK_clean_linker_0, # of connection points: 2
#     Edge 72, Type (0, 0), BuildingBlock: UVAHIK_clean_linker_0, # of connection points: 2
#     Edge 73, Type (0, 0), BuildingBlock: UVAHIK_clean_linker_0, # of connection points: 2
#     Edge 74, Type (0, 0), BuildingBlock: UVAHIK_clean_linker_0, # of connection points: 2
#     Edge 75, Type (0, 0), BuildingBlock: UVAHIK_clean_linker_0, # of connection points: 2
#     Edge 76, Type (0, 0), BuildingBlock: UVAHIK_clean_linker_0, # of connection points: 2
#     Edge 77, Type (0, 0), BuildingBlock: UVAHIK_clean_linker_0, # of connection points: 2
#     Edge 78, Type (0, 0), BuildingBlock: UVAHIK_clean_linker_0, # of connection points: 2
#     Edge 79, Type (0, 0), BuildingBlock: UVAHIK_clean_linker_0, # of connection points: 2
#     Edge 80, Type (0, 0), BuildingBlock: UVAHIK_clean_linker_0, # of connection points: 2
#     Edge 81, Type (0, 0), BuildingBlock: UVAHIK_clean_linker_0, # of connection points: 2
#     Edge 82, Type (0, 0), BuildingBlock: UVAHIK_clean_linker_0, # of connection points: 2
#     Edge 83, Type (0, 0), BuildingBlock: UVAHIK_clean_linker_0, # of connection points: 2
#     Edge 84, Type (0, 0), BuildingBlock: UVAHIK_clean_linker_0, # of connection points: 2
#     Edge 85, Type (0, 0), BuildingBlock: UVAHIK_clean_linker_0, # of connection points: 2
#     Edge 86, Type (0, 0), BuildingBlock: UVAHIK_clean_linker_0, # of connection points: 2
#     Edge 87, Type (0, 0), BuildingBlock: UVAHIK_clean_linker_0, # of connection points: 2
#     Edge 88, Type (0, 0), BuildingBlock: UVAHIK_clean_linker_0, # of connection points: 2
#     Edge 89, Type (0, 0), BuildingBlock: UVAHIK_clean_linker_0, # of connection points: 2
#     Edge 90, Type (0, 0), BuildingBlock: UVAHIK_clean_linker_0, # of connection points: 2
#     Edge 91, Type (0, 0), BuildingBlock: UVAHIK_clean_linker_0, # of connection points: 2
#     Edge 92, Type (0, 0), BuildingBlock: UVAHIK_clean_linker_0, # of connection points: 2
#     Edge 93, Type (0, 0), BuildingBlock: UVAHIK_clean_linker_0, # of connection points: 2
#     Edge 94, Type (0, 0), BuildingBlock: UVAHIK_clean_linker_0, # of connection points: 2
#     Edge 95, Type (0, 0), BuildingBlock: UVAHIK_clean_linker_0, # of connection points: 2
# Relax obj value: 0.028
# Max RMSD: 0.216
# Mean RMSD: 0.215
data_MOF--net-ukj--node1-MUDLON_clean_sbu_0--edge1-UVAHIK_clean_linker_0
_symmetry_space_group_name_H-M    P1
_symmetry_Int_Tables_number       1
_symmetry_cell_setting            triclinic
loop_
_symmetry_equiv_pos_as_xyz
'x, y, z'
_cell_length_a     44.854696
_cell_length_b     74.179157
_cell_length_c     77.501317
_cell_angle_alpha  90.015786
_cell_angle_beta   89.95056
_cell_angle_gamma 89.971166
loop_
_atom_site_label
_atom_site_type_symbol
_atom_site_fract_x
_atom_site_fract_y
_atom_site_fract_z
_atom_type_partial_charge
Mg0 Mg 0.16641 0.3435 0.26518 0.0
C1 C 0.14209 0.34825 0.22973 0.0
O2 O 0.13721 0.33107 0.23259 0.0
C3 C 0.15739 0.34638 0.30206 0.0
O4 O 0.16637 0.32976 0.29928 0.0
C5 C 0.11392 0.32035 0.26799 0.0
O6 O 0.1037 0.3369 0.26936 0.0
O7 O 0.14186 0.31809 0.26603 0.0
O8 O 0.15402 0.35772 0.24154 0.0
O9 O 0.2148 0.34184 0.26575 0.0
C10 C 0.23032 0.34119 0.25203 0.0
O11 O 0.21679 0.33936 0.23711 0.0
O12 O 0.15451 0.35686 0.28917 0.0
Mg13 Mg 0.10776 0.90218 0.26399 0.0
C14 C 0.10632 0.89643 0.22717 0.0
O15 O 0.08865 0.91016 0.23045 0.0
C16 C 0.12467 0.90133 0.30041 0.0
O17 O 0.11909 0.91839 0.29718 0.0
C18 C 0.15416 0.929 0.25528 0.0
O19 O 0.16444 0.91407 0.24837 0.0
O20 O 0.12888 0.92867 0.26276 0.0
O21 O 0.11963 0.88892 0.23976 0.0
O22 O 0.059 0.90191 0.26468 0.0
C23 C 0.04745 0.88757 0.25859 0.0
O24 O 0.06517 0.8748 0.25286 0.0
O25 O 0.12258 0.89003 0.28811 0.0
Mg26 Mg 0.16836 0.90771 0.01331 0.0
C27 C 0.14119 0.90038 0.04811 0.0
O28 O 0.12904 0.91599 0.04438 0.0
C29 C 0.15694 0.90372 0.97632 0.0
O30 O 0.16154 0.92107 0.97841 0.0
C31 C 0.11409 0.92948 1.00908 0.0
O32 O 0.10576 0.91289 1.0056 0.0
O33 O 0.14133 0.93231 0.01286 0.0
O34 O 0.15837 0.89297 0.03711 0.0
O35 O 0.21657 0.9108 1.012 0.0
C36 C 0.2328 0.90995 0.02542 0.0
O37 O 0.21997 0.90965 0.04067 0.0
O38 O 0.15772 0.89352 0.98952 0.0
Mg39 Mg 0.10282 0.34457 0.01455 0.0
C40 C 0.10354 0.34926 0.05139 0.0
O41 O 0.08709 0.33501 0.0481 0.0
C42 C 0.10219 0.3494 0.97787 0.0
O43 O 0.08493 0.33555 0.98135 0.0
C44 C 0.15067 0.31816 0.02109 0.0
O45 O 0.16062 0.33296 0.0284 0.0
O46 O 0.12499 0.3184 0.01411 0.0
O47 O 0.11547 0.3575 0.03874 0.0
O48 O 0.05403 0.34438 0.01467 0.0
C49 C 0.04234 0.35847 0.02121 0.0
O50 O 0.05994 0.37109 0.02731 0.0
O51 O 0.11492 0.35743 0.99037 0.0
Mg52 Mg 0.8597 0.65025 0.76148 0.0
C53 C 0.84964 0.64015 0.79792 0.0
O54 O 0.82644 0.65021 0.79416 0.0
C55 C 0.89135 0.64336 0.72775 0.0
O56 O 0.90304 0.659 0.73187 0.0
C57 C 0.89174 0.68396 0.77477 0.0
O58 O 0.88421 0.67736 0.78988 0.0
O59 O 0.88272 0.67613 0.76115 0.0
O60 O 0.86889 0.63713 0.78618 0.0
O61 O 0.81131 0.65165 0.75921 0.0
C62 C 0.79897 0.63627 0.75773 0.0
O63 O 0.81609 0.62189 0.75722 0.0
O64 O 0.87403 0.63563 0.73847 0.0
Mg65 Mg 0.91732 0.09903 0.76372 0.0
C66 C 0.92573 0.11002 0.79965 0.0
O67 O 0.94741 0.09855 0.79655 0.0
C68 C 0.91054 0.10091 0.72654 0.0
O69 O 0.9224 0.08506 0.72979 0.0
C70 C 0.86651 0.07432 0.75868 0.0
O71 O 0.85725 0.08946 0.75172 0.0
O72 O 0.89253 0.07375 0.76522 0.0
O73 O 0.90778 0.11384 0.78747 0.0
O74 O 0.96574 0.09672 0.7624 0.0
C75 C 0.97862 0.11127 0.75791 0.0
O76 O 0.96202 0.12527 0.75397 0.0
O77 O 0.90486 0.11131 0.7392 0.0
Mg78 Mg 0.85626 0.10139 1.01119 0.0
C79 C 0.8919 0.11405 0.98022 0.0
O80 O 0.91176 0.10318 0.98708 0.0
C81 C 0.89015 0.11034 0.0445 0.0
O82 O 0.91033 0.09948 0.03793 0.0
C83 C 0.88332 0.06465 0.0213 0.0
O84 O 0.86925 0.06743 0.03594 0.0
O85 O 0.88022 0.07591 1.00907 0.0
O86 O 0.86757 0.11682 0.98821 0.0
O87 O 0.80781 0.09934 1.01108 0.0
C88 C 0.79471 0.11406 1.00737 0.0
O89 O 0.8111 0.12822 1.00365 0.0
O90 O 0.86718 0.11425 0.03564 0.0
Mg91 Mg 0.91631 0.64992 1.01017 0.0
C92 C 0.8806 0.63687 0.97907 0.0
O93 O 0.8602 0.64745 0.98582 0.0
C94 C 0.91228 0.64798 0.04758 0.0
O95 O 0.92165 0.66438 0.04416 0.0
C96 C 0.86524 0.67406 0.01724 0.0
O97 O 0.85732 0.65874 0.02442 0.0
O98 O 0.8905 0.67498 1.00977 0.0
O99 O 0.90494 0.63447 0.98714 0.0
O100 O 0.96472 0.6524 1.00958 0.0
C101 C 0.9775 0.63732 1.0069 0.0
O102 O 0.96075 0.62303 1.0044 0.0
O103 O 0.90732 0.63733 0.03502 0.0
Mg104 Mg 0.17353 0.84272 0.76234 0.0
C105 C 0.1362 0.8552 0.73202 0.0
O106 O 0.11731 0.84373 0.73889 0.0
C107 C 0.17331 0.84543 0.79982 0.0
O108 O 0.18475 0.8295 0.79644 0.0
C109 C 0.1242 0.81771 0.77154 0.0
O110 O 0.11752 0.83228 0.78037 0.0
O111 O 0.14771 0.81767 0.7623 0.0
O112 O 0.16054 0.85844 0.73982 0.0
O113 O 0.22179 0.83965 0.76105 0.0
C114 C 0.23579 0.84315 0.74717 0.0
O115 O 0.2205 0.84639 0.73306 0.0
O116 O 0.16576 0.85545 0.78724 0.0
Mg117 Mg 0.10237 0.40689 0.76363 0.0
C118 C 0.11181 0.40426 0.72667 0.0
O119 O 0.10687 0.42142 0.72975 0.0
C120 C 0.10785 0.40429 0.80024 0.0
O121 O 0.09517 0.41982 0.79667 0.0
C122 C 0.15374 0.43071 0.76722 0.0
O123 O 0.16395 0.41447 0.77054 0.0
O124 O 0.1262 0.4325 0.76364 0.0
O125 O 0.11311 0.39345 0.73939 0.0
O126 O 0.05382 0.40777 0.76541 0.0
C127 C 0.03594 0.41318 0.75379 0.0
O128 O 0.04662 0.42067 0.73974 0.0
O129 O 0.11524 0.39409 0.78773 0.0
Mg130 Mg 0.1703 0.40737 0.51609 0.0
C131 C 0.13196 0.39701 0.54644 0.0
O132 O 0.11546 0.40988 0.53979 0.0
C133 C 0.17812 0.39751 0.47937 0.0
O134 O 0.20253 0.4066 0.4828 0.0
C135 C 0.13917 0.44097 0.50282 0.0
O136 O 0.14787 0.43415 0.48801 0.0
O137 O 0.14729 0.43331 0.51673 0.0
O138 O 0.15541 0.39213 0.53849 0.0
O139 O 0.21884 0.40859 0.51746 0.0
C140 C 0.23269 0.4036 0.53095 0.0
O141 O 0.21733 0.39966 0.54489 0.0
O142 O 0.15942 0.39485 0.49146 0.0
Mg143 Mg 0.10298 0.84554 0.5145 0.0
C144 C 0.09991 0.85156 0.55146 0.0
O145 O 0.0805 0.83876 0.5481 0.0
C146 C 0.1171 0.84776 0.47797 0.0
O147 O 0.10805 0.83113 0.48054 0.0
C148 C 0.15337 0.82129 0.51644 0.0
O149 O 0.16414 0.83768 0.51809 0.0
O150 O 0.12529 0.81944 0.51484 0.0
O151 O 0.11485 0.85815 0.53899 0.0
O152 O 0.05429 0.84614 0.51337 0.0
C153 C 0.04362 0.86116 0.51843 0.0
O154 O 0.06217 0.87379 0.52349 0.0
O155 O 0.11818 0.85841 0.49085 0.0
Mg156 Mg 0.85711 0.1462 0.26349 0.0
C157 C 0.89366 0.13414 0.29421 0.0
O158 O 0.9123 0.14594 0.28762 0.0
C159 C 0.8522 0.14158 0.2261 0.0
O160 O 0.83223 0.15389 0.22999 0.0
C161 C 0.90074 0.17544 0.25433 0.0
O162 O 0.90566 0.16387 0.24183 0.0
O163 O 0.88034 0.17206 0.2653 0.0
O164 O 0.86987 0.13048 0.28603 0.0
O165 O 0.80869 0.14787 0.26477 0.0
C166 C 0.79596 0.13255 0.26511 0.0
O167 O 0.81272 0.11801 0.26493 0.0
O168 O 0.86725 0.13456 0.23829 0.0
Mg169 Mg 0.91706 0.59766 0.26427 0.0
C170 C 0.88139 0.61478 0.29399 0.0
O171 O 0.85835 0.60849 0.28547 0.0
C172 C 0.91023 0.59869 0.22702 0.0
O173 O 0.91782 0.58203 0.23075 0.0
C174 C 0.86442 0.57435 0.25924 0.0
O175 O 0.85608 0.58995 0.25283 0.0
O176 O 0.8907 0.57289 0.26531 0.0
O177 O 0.90728 0.61323 0.28747 0.0
O178 O 0.96532 0.5947 0.26454 0.0
C179 C 0.97824 0.60992 0.26317 0.0
O180 O 0.96158 0.62442 0.2617 0.0
O181 O 0.90744 0.60993 0.23934 0.0
Mg182 Mg 0.85695 0.59722 0.51114 0.0
C183 C 0.84561 0.61251 0.47628 0.0
O184 O 0.81998 0.60505 0.48025 0.0
C185 C 0.86337 0.59868 0.54795 0.0
O186 O 0.8487 0.58384 0.54424 0.0
C187 C 0.89503 0.56711 0.49646 0.0
O188 O 0.89333 0.57743 0.48272 0.0
O189 O 0.88015 0.5714 0.50983 0.0
O190 O 0.86655 0.61218 0.48737 0.0
O191 O 0.80857 0.59586 0.51386 0.0
C192 C 0.79674 0.61102 0.51744 0.0
O193 O 0.81429 0.62504 0.51948 0.0
O194 O 0.87159 0.60877 0.53554 0.0
Mg195 Mg 0.91184 0.15144 0.51114 0.0
C196 C 0.92103 0.14162 0.47504 0.0
O197 O 0.94104 0.1541 0.47829 0.0
C198 C 0.89514 0.14992 0.54762 0.0
O199 O 0.89845 0.16717 0.54432 0.0
C200 C 0.85771 0.17287 0.50911 0.0
O201 O 0.84898 0.15596 0.50891 0.0
O202 O 0.88556 0.17612 0.50957 0.0
O203 O 0.90372 0.13671 0.48719 0.0
O204 O 0.96014 0.15401 0.51289 0.0
C205 C 0.9727 0.13875 0.51486 0.0
O206 O 0.95573 0.12437 0.51616 0.0
O207 O 0.89865 0.13869 0.53534 0.0
Mg208 Mg 0.66725 0.3453 0.75518 0.0
C209 C 0.67058 0.35084 0.71813 0.0
O210 O 0.6901 0.33816 0.72169 0.0
C211 C 0.65615 0.3485 0.7919 0.0
O212 O 0.66651 0.33212 0.78948 0.0
C213 C 0.61716 0.32067 0.75852 0.0
O214 O 0.60605 0.33688 0.76085 0.0
O215 O 0.64498 0.31918 0.75555 0.0
O216 O 0.65538 0.35749 0.73048 0.0
O217 O 0.71591 0.34576 0.75623 0.0
C218 C 0.72661 0.36077 0.75119 0.0
O219 O 0.70808 0.37341 0.74608 0.0
O220 O 0.65304 0.35871 0.77881 0.0
Mg221 Mg 0.60401 0.90452 0.76282 0.0
C222 C 0.62442 0.90174 0.72688 0.0
O223 O 0.62097 0.91913 0.72939 0.0
C224 C 0.61374 0.90181 0.79977 0.0
O225 O 0.60493 0.91848 0.79714 0.0
C226 C 0.65618 0.92791 0.76245 0.0
O227 O 0.66663 0.91145 0.76077 0.0
O228 O 0.62811 0.93008 0.7638 0.0
O229 O 0.6187 0.89098 0.73924 0.0
O230 O 0.55539 0.90568 0.76252 0.0
C231 C 0.54102 0.90346 0.74853 0.0
O232 O 0.55583 0.90254 0.73394 0.0
O233 O 0.61601 0.89132 0.78684 0.0
Mg234 Mg 0.66702 0.90646 0.51157 0.0
C235 C 0.6584 0.90422 0.54867 0.0
O236 O 0.66207 0.92143 0.54531 0.0
C237 C 0.6523 0.90382 0.4754 0.0
O238 O 0.66066 0.92058 0.47798 0.0
C239 C 0.61474 0.93 0.50968 0.0
O240 O 0.60431 0.91364 0.50726 0.0
O241 O 0.64264 0.93196 0.51205 0.0
O242 O 0.65799 0.89317 0.53611 0.0
O243 O 0.71535 0.90767 0.50857 0.0
C244 C 0.73358 0.91219 0.52036 0.0
O245 O 0.72327 0.91839 0.53507 0.0
O246 O 0.65197 0.89308 0.48821 0.0
Mg247 Mg 0.60011 0.34438 0.50684 0.0
C248 C 0.63849 0.3583 0.53656 0.0
O249 O 0.65935 0.34909 0.52854 0.0
C250 C 0.61237 0.34503 0.46965 0.0
O251 O 0.60696 0.328 0.47305 0.0
C252 C 0.63025 0.30995 0.52099 0.0
O253 O 0.62089 0.31586 0.53604 0.0
O254 O 0.62321 0.31854 0.5074 0.0
O255 O 0.6129 0.35967 0.52965 0.0
O256 O 0.5517 0.34283 0.50752 0.0
C257 C 0.53799 0.34372 0.52187 0.0
O258 O 0.55355 0.34356 0.53623 0.0
O259 O 0.61163 0.35634 0.48202 0.0
Mg260 Mg 0.35859 0.64674 0.26504 0.0
C261 C 0.3956 0.63429 0.2956 0.0
O262 O 0.41474 0.64564 0.28879 0.0
C263 C 0.35926 0.64504 0.22752 0.0
O264 O 0.34619 0.66039 0.23135 0.0
C265 C 0.40655 0.67313 0.25723 0.0
O266 O 0.41457 0.65899 0.24814 0.0
O267 O 0.38259 0.67237 0.26604 0.0
O268 O 0.37137 0.63109 0.28766 0.0
O269 O 0.31022 0.64857 0.26625 0.0
C270 C 0.29774 0.63317 0.26683 0.0
O271 O 0.31476 0.61874 0.2669 0.0
O272 O 0.36782 0.63494 0.23985 0.0
Mg273 Mg 0.41451 0.09979 0.26547 0.0
C274 C 0.42243 0.10987 0.30171 0.0
O275 O 0.44323 0.09781 0.29866 0.0
C276 C 0.40563 0.1015 0.22841 0.0
O277 O 0.41463 0.085 0.23171 0.0
C278 C 0.36182 0.07681 0.2618 0.0
O279 O 0.35268 0.09293 0.25719 0.0
O280 O 0.38882 0.07485 0.26649 0.0
O281 O 0.4052 0.11441 0.28939 0.0
O282 O 0.46282 0.09701 0.26415 0.0
C283 C 0.4759 0.11217 0.26272 0.0
O284 O 0.45944 0.1268 0.2619 0.0
O285 O 0.4026 0.1124 0.24099 0.0
Mg286 Mg 0.35244 0.10119 0.51232 0.0
C287 C 0.39005 0.11455 0.48211 0.0
O288 O 0.40884 0.1026 0.48826 0.0
C289 C 0.37634 0.12191 0.5454 0.0
O290 O 0.39922 0.12762 0.53633 0.0
C291 C 0.40304 0.0763 0.51883 0.0
O292 O 0.41165 0.09136 0.52618 0.0
O293 O 0.37747 0.07583 0.51171 0.0
O294 O 0.36614 0.11777 0.4904 0.0
O295 O 0.30438 0.0986 0.50937 0.0
C296 C 0.29162 0.11388 0.50803 0.0
O297 O 0.30833 0.12843 0.50799 0.0
O298 O 0.35638 0.11231 0.53825 0.0
Mg299 Mg 0.41765 0.65219 0.51215 0.0
C300 C 0.42682 0.6418 0.47614 0.0
O301 O 0.44734 0.654 0.47926 0.0
C302 C 0.39918 0.65131 0.54843 0.0
O303 O 0.40241 0.66854 0.54498 0.0
C304 C 0.36509 0.67492 0.50762 0.0
O305 O 0.35517 0.65831 0.50638 0.0
O306 O 0.39292 0.67736 0.50983 0.0
O307 O 0.40931 0.63728 0.48834 0.0
O308 O 0.46598 0.65403 0.51441 0.0
C309 C 0.47814 0.63852 0.51496 0.0
O310 O 0.46084 0.62424 0.51441 0.0
O311 O 0.40321 0.63996 0.53632 0.0
Mg312 Mg 0.67175 0.84126 0.26371 0.0
C313 C 0.6542 0.84472 0.22715 0.0
O314 O 0.65476 0.82721 0.22955 0.0
C315 C 0.65657 0.84446 0.30007 0.0
O316 O 0.66397 0.82746 0.29795 0.0
C317 C 0.61887 0.8185 0.26243 0.0
O318 O 0.60904 0.83512 0.26093 0.0
O319 O 0.64684 0.81597 0.26391 0.0
O320 O 0.66075 0.85507 0.23968 0.0
O321 O 0.72006 0.83976 0.26578 0.0
C322 C 0.73697 0.83866 0.25265 0.0
O323 O 0.725 0.83632 0.23735 0.0
O324 O 0.65722 0.85488 0.28703 0.0
Mg325 Mg 0.60139 0.40406 0.25531 0.0
C326 C 0.59982 0.39945 0.21813 0.0
O327 O 0.58161 0.41285 0.22162 0.0
C328 C 0.61127 0.4005 0.29213 0.0
O329 O 0.60211 0.41714 0.28968 0.0
C330 C 0.65261 0.42789 0.2592 0.0
O331 O 0.66305 0.41152 0.26159 0.0
O332 O 0.62492 0.42976 0.25602 0.0
O333 O 0.61351 0.39192 0.23059 0.0
O334 O 0.55269 0.40487 0.25584 0.0
C335 C 0.54044 0.39092 0.2494 0.0
O336 O 0.55752 0.37811 0.24313 0.0
O337 O 0.61403 0.39026 0.27902 0.0
Mg338 Mg 0.66721 0.40493 1.00573 0.0
C339 C 0.6306 0.39149 0.03631 0.0
O340 O 0.6092 0.40009 0.02817 0.0
C341 C 0.65111 0.40384 0.9691 0.0
O342 O 0.65649 0.42094 0.97222 0.0
C343 C 0.63802 0.43965 0.0201 0.0
O344 O 0.64718 0.43362 0.03512 0.0
O345 O 0.64495 0.43106 1.00647 0.0
O346 O 0.65613 0.39034 0.02926 0.0
O347 O 0.7156 0.40582 1.00444 0.0
C348 C 0.73152 0.40759 0.01789 0.0
O349 O 0.71843 0.41078 0.03275 0.0
O350 O 0.65314 0.39265 0.98151 0.0
Mg351 Mg 0.60268 0.84443 0.01288 0.0
C352 C 0.60358 0.84881 0.0497 0.0
O353 O 0.58775 0.83433 0.0463 0.0
C354 C 0.62054 0.8459 0.97662 0.0
O355 O 0.6161 0.82869 0.97965 0.0
C356 C 0.65184 0.81935 0.01944 0.0
O357 O 0.66207 0.83517 0.02422 0.0
O358 O 0.62514 0.8183 0.01395 0.0
O359 O 0.61481 0.85747 0.0371 0.0
O360 O 0.55384 0.84442 0.01246 0.0
C361 C 0.54203 0.85821 0.01952 0.0
O362 O 0.5595 0.87061 0.02612 0.0
O363 O 0.61724 0.85703 0.98898 0.0
Mg364 Mg 0.35869 0.14778 0.76488 0.0
C365 C 0.39563 0.13308 0.79552 0.0
O366 O 0.41834 0.14017 0.78727 0.0
C367 C 0.34976 0.12921 0.73031 0.0
O368 O 0.32211 0.12893 0.73586 0.0
C369 C 0.40984 0.17187 0.75853 0.0
O370 O 0.41859 0.1563 0.7522 0.0
O371 O 0.38379 0.173 0.765 0.0
O372 O 0.36995 0.13342 0.7886 0.0
O373 O 0.3102 0.15066 0.76565 0.0
C374 C 0.29653 0.13698 0.77169 0.0
O375 O 0.31239 0.12327 0.77725 0.0
O376 O 0.37012 0.13488 0.74036 0.0
Mg377 Mg 0.41843 0.60017 0.76467 0.0
C378 C 0.38258 0.61652 0.79468 0.0
O379 O 0.35964 0.6105 0.78588 0.0
C380 C 0.41286 0.60234 0.72746 0.0
O381 O 0.42382 0.58627 0.73075 0.0
C382 C 0.36667 0.57627 0.75934 0.0
O383 O 0.35801 0.59173 0.75276 0.0
O384 O 0.3929 0.57512 0.76553 0.0
O385 O 0.40857 0.61507 0.78826 0.0
O386 O 0.46677 0.59758 0.76424 0.0
C387 C 0.47961 0.61288 0.76428 0.0
O388 O 0.4629 0.62744 0.76468 0.0
O389 O 0.40745 0.61281 0.74011 0.0
Mg390 Mg 0.35631 0.5982 1.01124 0.0
C391 C 0.34393 0.61667 0.97732 0.0
O392 O 0.31672 0.61291 0.98239 0.0
C393 C 0.37422 0.59943 0.04764 0.0
O394 O 0.37125 0.58216 0.04429 0.0
C395 C 0.41052 0.5768 1.00901 0.0
O396 O 0.41921 0.59372 1.00886 0.0
O397 O 0.38266 0.57353 1.00951 0.0
O398 O 0.36557 0.61308 0.98739 0.0
O399 O 0.30801 0.59521 0.01352 0.0
C400 C 0.29511 0.60912 0.01963 0.0
O401 O 0.3117 0.62278 0.02455 0.0
O402 O 0.37013 0.61069 0.03546 0.0
Mg403 Mg 0.41467 0.14861 1.01164 0.0
C404 C 0.42656 0.12782 0.97878 0.0
O405 O 0.45381 0.12936 0.98475 0.0
C406 C 0.40197 0.14855 0.04855 0.0
O407 O 0.40907 0.16527 0.04477 0.0
C408 C 0.36121 0.17122 0.0127 0.0
O409 O 0.35172 0.15495 0.01655 0.0
O410 O 0.38883 0.17342 1.00953 0.0
O411 O 0.40497 0.1334 0.98804 0.0
O412 O 0.46293 0.15201 0.01333 0.0
C413 C 0.47649 0.13896 0.02058 0.0
O414 O 0.46057 0.12563 0.02688 0.0
O415 O 0.40151 0.13697 0.0364 0.0
C416 C 0.15236 0.36992 0.20549 0.0
C417 C 0.13545 0.35575 0.21251 0.0
C418 C 0.14831 0.37512 0.18824 0.0
C419 C 0.0957 0.3719 0.15169 0.0
H420 H 0.16577 0.36833 0.12252 0.0
C421 C 0.08879 0.34786 0.0823 0.0
C422 C 0.10699 0.35543 0.06944 0.0
C423 C 0.09195 0.35293 0.09949 0.0
C424 C 0.14607 0.36982 0.13048 0.0
H425 H 0.10016 0.33655 0.20737 0.0
H426 H 0.09268 0.34581 0.1776 0.0
H427 H 0.17142 0.36879 0.15392 0.0
H428 H 0.14267 0.37446 0.06456 0.0
H429 H 0.14847 0.38326 0.09497 0.0
H430 H 0.07022 0.37218 0.12839 0.0
C431 C 0.10913 0.35288 0.18527 0.0
C432 C 0.1493 0.37008 0.14846 0.0
C433 C 0.11353 0.3475 0.2023 0.0
C434 C 0.12831 0.36841 0.07419 0.0
C435 C 0.13168 0.3734 0.09156 0.0
C436 C 0.09248 0.37171 0.13378 0.0
C437 C 0.12684 0.36649 0.17793 0.0
C438 C 0.12405 0.37036 0.15922 0.0
C439 C 0.11348 0.36568 0.10439 0.0
C440 C 0.11752 0.36987 0.123 0.0
H441 H 0.16956 0.37642 0.21307 0.0
H442 H 0.16224 0.38565 0.18288 0.0
H443 H 0.07589 0.37242 0.15968 0.0
H444 H 0.07209 0.33785 0.07913 0.0
H445 H 0.07796 0.34644 0.10905 0.0
C446 C 0.11253 0.89856 0.07556 0.0
C447 C 0.13669 0.89266 0.06551 0.0
C448 C 0.10959 0.89311 0.09269 0.0
C449 C 0.154 0.8801 0.12978 0.0
H450 H 0.07628 0.87132 0.15004 0.0
C451 C 0.13389 0.87909 0.2041 0.0
C452 C 0.1101 0.89028 0.20913 0.0
C453 C 0.13791 0.87455 0.18665 0.0
C454 C 0.09818 0.87367 0.14459 0.0
H455 H 0.17639 0.87597 0.0654 0.0
H456 H 0.17141 0.86654 0.09565 0.0
H457 H 0.08175 0.87174 0.11874 0.0
H458 H 0.07136 0.90494 0.19993 0.0
H459 H 0.07828 0.89708 0.16986 0.0
H460 H 0.1701 0.88291 0.15569 0.0
C461 C 0.1547 0.87537 0.09014 0.0
C462 C 0.10131 0.8739 0.12667 0.0
C463 C 0.15744 0.88067 0.07282 0.0
C464 C 0.09 0.89635 0.19651 0.0
C465 C 0.0938 0.89169 0.17924 0.0
C466 C 0.15085 0.87992 0.14777 0.0
C467 C 0.13089 0.88172 0.10029 0.0
C468 C 0.129 0.8778 0.11906 0.0
C469 C 0.11791 0.88089 0.17404 0.0
C470 C 0.12265 0.87741 0.15534 0.0
H471 H 0.09615 0.90779 0.07031 0.0
H472 H 0.09122 0.89845 0.1002 0.0
H473 H 0.17561 0.88323 0.12429 0.0
H474 H 0.14977 0.87424 0.21354 0.0
H475 H 0.15668 0.86618 0.18302 0.0
C476 C 0.88109 0.62666 0.8216 0.0
C477 C 0.85376 0.63376 0.81589 0.0
C478 C 0.88521 0.62227 0.83904 0.0
C479 C 0.84382 0.61444 0.88016 0.0
H480 H 0.91556 0.63273 0.9018 0.0
C481 C 0.85044 0.63308 0.95211 0.0
C482 C 0.87727 0.63031 0.96109 0.0
C483 C 0.84846 0.62926 0.93449 0.0
C484 C 0.89564 0.62721 0.89595 0.0
H485 H 0.80901 0.64114 0.82389 0.0
H486 H 0.8162 0.63368 0.85404 0.0
H487 H 0.91087 0.6336 0.87048 0.0
H488 H 0.92268 0.62049 0.9587 0.0
H489 H 0.91915 0.61381 0.9279 0.0
H490 H 0.82816 0.60868 0.90568 0.0
C491 C 0.83444 0.63131 0.84515 0.0
C492 C 0.89296 0.6277 0.87796 0.0
C493 C 0.83039 0.63575 0.82783 0.0
C494 C 0.90168 0.62283 0.95218 0.0
C495 C 0.89974 0.61911 0.9345 0.0
C496 C 0.84647 0.614 0.89812 0.0
C497 C 0.86199 0.62476 0.85106 0.0
C498 C 0.86668 0.62176 0.86988 0.0
C499 C 0.8733 0.62264 0.92538 0.0
C500 C 0.8721 0.6208 0.90626 0.0
H501 H 0.89952 0.62495 0.81271 0.0
H502 H 0.90664 0.61711 0.84316 0.0
H503 H 0.82352 0.60942 0.87433 0.0
H504 H 0.83121 0.6388 0.95856 0.0
H505 H 0.82784 0.63231 0.92784 0.0
C506 C 0.8719 0.12862 0.95334 0.0
C507 C 0.89578 0.12059 0.96227 0.0
C508 C 0.87426 0.13246 0.93571 0.0
C509 C 0.92834 0.13692 0.8996 0.0
H510 H 0.86342 0.11888 0.87146 0.0
C511 C 0.94465 0.11465 0.82954 0.0
C512 C 0.92172 0.11704 0.81741 0.0
C513 C 0.94049 0.11941 0.84678 0.0
C514 C 0.88149 0.12436 0.87909 0.0
H515 H 0.94137 0.11118 0.95981 0.0
H516 H 0.94549 0.11788 0.92916 0.0
H517 H 0.85819 0.11956 0.90277 0.0
H518 H 0.87672 0.12697 0.81377 0.0
H519 H 0.86937 0.13536 0.8441 0.0
H520 H 0.95198 0.14123 0.87596 0.0
C521 C 0.92496 0.12127 0.93577 0.0
C522 C 0.87851 0.12473 0.89706 0.0
C523 C 0.92254 0.11734 0.95335 0.0
C524 C 0.8948 0.12496 0.82281 0.0
C525 C 0.89055 0.12965 0.84019 0.0
C526 C 0.93129 0.1366 0.88165 0.0
C527 C 0.90063 0.12849 0.92664 0.0
C528 C 0.90222 0.13054 0.90755 0.0
C529 C 0.91325 0.12669 0.85242 0.0
C530 C 0.90824 0.12981 0.87119 0.0
H531 H 0.85096 0.13134 0.95982 0.0
H532 H 0.85525 0.13821 0.92909 0.0
H533 H 0.9468 0.14179 0.9073 0.0
H534 H 0.96573 0.10865 0.82583 0.0
H535 H 0.95832 0.11668 0.85583 0.0
C536 C 0.10492 0.85763 0.70539 0.0
C537 C 0.13142 0.86182 0.71417 0.0
C538 C 0.10188 0.86155 0.68784 0.0
C539 C 0.14755 0.86736 0.64891 0.0
H540 H 0.07143 0.87938 0.62823 0.0
C541 C 0.12906 0.86763 0.57465 0.0
C542 C 0.10386 0.85774 0.56948 0.0
C543 C 0.13316 0.87217 0.59207 0.0
C544 C 0.09287 0.87605 0.63381 0.0
H545 H 0.17497 0.87426 0.71157 0.0
H546 H 0.16951 0.88122 0.68093 0.0
H547 H 0.077 0.88048 0.65952 0.0
H548 H 0.06274 0.84547 0.57842 0.0
H549 H 0.06981 0.85339 0.6085 0.0
H550 H 0.16311 0.86242 0.62318 0.0
C551 C 0.15124 0.87469 0.68759 0.0
C552 C 0.09605 0.87665 0.65174 0.0
C553 C 0.15427 0.87081 0.70519 0.0
C554 C 0.08248 0.85303 0.58195 0.0
C555 C 0.08639 0.85771 0.59922 0.0
C556 C 0.14438 0.8668 0.63095 0.0
C557 C 0.12525 0.86975 0.67862 0.0
C558 C 0.12317 0.87179 0.65954 0.0
C559 C 0.11191 0.86715 0.60455 0.0
C560 C 0.11673 0.87061 0.62324 0.0
H561 H 0.08687 0.85072 0.71189 0.0
H562 H 0.08167 0.85736 0.68134 0.0
H563 H 0.16868 0.86337 0.65448 0.0
H564 H 0.14592 0.87144 0.56533 0.0
H565 H 0.15301 0.87952 0.59579 0.0
C566 C 0.10253 0.39802 0.57383 0.0
C567 C 0.12605 0.39054 0.56422 0.0
C568 C 0.09933 0.39406 0.59135 0.0
C569 C 0.14427 0.37976 0.62878 0.0
H570 H 0.06746 0.38232 0.65164 0.0
C571 C 0.12759 0.38199 0.7038 0.0
C572 C 0.11259 0.39786 0.70861 0.0
C573 C 0.12858 0.37669 0.68641 0.0
C574 C 0.08903 0.38136 0.64541 0.0
H575 H 0.16365 0.37217 0.56527 0.0
H576 H 0.15763 0.36492 0.59581 0.0
H577 H 0.06964 0.38006 0.62026 0.0
H578 H 0.08611 0.42027 0.69916 0.0
H579 H 0.08722 0.41079 0.66914 0.0
H580 H 0.16348 0.38138 0.6541 0.0
C581 C 0.14205 0.37418 0.58988 0.0
C582 C 0.09034 0.38022 0.62744 0.0
C583 C 0.14535 0.37823 0.57233 0.0
C584 C 0.09804 0.40804 0.69586 0.0
C585 C 0.09845 0.40255 0.67868 0.0
C586 C 0.14291 0.38066 0.64681 0.0
C587 C 0.11941 0.38239 0.59972 0.0
C588 C 0.11798 0.38014 0.61883 0.0
C589 C 0.11386 0.38692 0.67374 0.0
C590 C 0.1153 0.38214 0.65521 0.0
H591 H 0.08726 0.40756 0.56804 0.0
H592 H 0.08189 0.40089 0.59847 0.0
H593 H 0.16596 0.37987 0.62265 0.0
H594 H 0.13901 0.37392 0.71339 0.0
H595 H 0.14069 0.3646 0.68286 0.0
C596 C 0.92384 0.13213 0.32132 0.0
C597 C 0.89777 0.12775 0.3122 0.0
C598 C 0.92612 0.1285 0.33897 0.0
C599 C 0.87875 0.12367 0.37726 0.0
H600 H 0.95337 0.11104 0.39937 0.0
C601 C 0.89271 0.12519 0.45172 0.0
C602 C 0.91829 0.13448 0.45725 0.0
C603 C 0.88956 0.12016 0.43435 0.0
C604 C 0.93234 0.11458 0.3934 0.0
H605 H 0.85419 0.11526 0.31434 0.0
H606 H 0.85824 0.10889 0.34517 0.0
H607 H 0.94936 0.10962 0.36801 0.0
H608 H 0.96113 0.14505 0.44906 0.0
H609 H 0.95565 0.13641 0.41907 0.0
H610 H 0.86207 0.12926 0.40261 0.0
C611 C 0.87679 0.11531 0.33868 0.0
C612 C 0.93006 0.11377 0.37543 0.0
C613 C 0.87458 0.11885 0.32097 0.0
C614 C 0.94106 0.13798 0.44524 0.0
C615 C 0.93804 0.13287 0.42802 0.0
C616 C 0.88105 0.1245 0.39525 0.0
C617 C 0.90234 0.12045 0.34796 0.0
C618 C 0.90349 0.11878 0.3671 0.0
C619 C 0.91209 0.12415 0.42226 0.0
C620 C 0.90814 0.12047 0.4035 0.0
H621 H 0.94215 0.13897 0.31498 0.0
H622 H 0.946 0.13281 0.34573 0.0
H623 H 0.85803 0.12778 0.37127 0.0
H624 H 0.87478 0.1223 0.46067 0.0
H625 H 0.86938 0.11335 0.43034 0.0
C626 C 0.8494 0.62235 0.31952 0.0
C627 C 0.87791 0.62071 0.31217 0.0
C628 C 0.84605 0.62525 0.33724 0.0
C629 C 0.88655 0.63725 0.37776 0.0
H630 H 0.82544 0.60744 0.39866 0.0
C631 C 0.87918 0.62045 0.45132 0.0
C632 C 0.85042 0.61896 0.45841 0.0
C633 C 0.88292 0.62367 0.4336 0.0
C634 C 0.84233 0.61608 0.39305 0.0
H635 H 0.92534 0.62187 0.31759 0.0
H636 H 0.91949 0.6266 0.34851 0.0
H637 H 0.8308 0.60787 0.36753 0.0
H638 H 0.80318 0.62107 0.45278 0.0
H639 H 0.80971 0.62694 0.42217 0.0
H640 H 0.89843 0.64503 0.40356 0.0
C641 C 0.89967 0.62583 0.34058 0.0
C642 C 0.84537 0.61637 0.37514 0.0
C643 C 0.90302 0.62304 0.32282 0.0
C644 C 0.82564 0.62188 0.44768 0.0
C645 C 0.82937 0.62516 0.4301 0.0
C646 C 0.88355 0.63691 0.39578 0.0
C647 C 0.87113 0.62646 0.34809 0.0
C648 C 0.86747 0.62695 0.36722 0.0
C649 C 0.85798 0.62549 0.42272 0.0
C650 C 0.86133 0.62634 0.40362 0.0
H651 H 0.82958 0.62081 0.31168 0.0
H652 H 0.82373 0.62611 0.34251 0.0
H653 H 0.90369 0.64564 0.37209 0.0
H654 H 0.8987 0.61822 0.45925 0.0
H655 H 0.90527 0.62383 0.4283 0.0
C656 C 0.61945 0.37214 0.56404 0.0
C657 C 0.64289 0.36412 0.55471 0.0
C658 C 0.62213 0.37524 0.58179 0.0
C659 C 0.67692 0.37653 0.61795 0.0
H660 H 0.60945 0.36124 0.64565 0.0
C661 C 0.68881 0.3523 0.68779 0.0
C662 C 0.667 0.35693 0.70004 0.0
C663 C 0.68535 0.35696 0.67048 0.0
C664 C 0.6283 0.36589 0.63813 0.0
H665 H 0.68805 0.35385 0.55663 0.0
H666 H 0.69262 0.35907 0.58749 0.0
H667 H 0.60467 0.36276 0.61434 0.0
H668 H 0.62461 0.37042 0.70377 0.0
H669 H 0.61831 0.37842 0.67323 0.0
H670 H 0.70086 0.37896 0.64174 0.0
C671 C 0.67223 0.36316 0.58112 0.0
C672 C 0.62559 0.36678 0.62015 0.0
C673 C 0.66957 0.36008 0.56338 0.0
C674 C 0.6418 0.36667 0.69462 0.0
C675 C 0.63815 0.37118 0.67716 0.0
C676 C 0.67966 0.37557 0.6359 0.0
C677 C 0.64832 0.37041 0.59063 0.0
C678 C 0.65009 0.37169 0.60981 0.0
C679 C 0.65986 0.36627 0.66489 0.0
C680 C 0.65561 0.36981 0.64616 0.0
H681 H 0.59861 0.37549 0.55776 0.0
H682 H 0.60346 0.38112 0.58864 0.0
H683 H 0.69606 0.38073 0.61044 0.0
H684 H 0.70857 0.34487 0.69152 0.0
H685 H 0.70229 0.35274 0.66136 0.0
C686 C 0.64985 0.90693 0.6989 0.0
C687 C 0.63371 0.89528 0.70968 0.0
C688 C 0.65638 0.90205 0.68197 0.0
C689 C 0.62706 0.87629 0.64622 0.0
H690 H 0.70176 0.89073 0.62513 0.0
C691 C 0.64751 0.88081 0.57151 0.0
C692 C 0.65746 0.89813 0.56684 0.0
C693 C 0.64689 0.8756 0.58893 0.0
C694 C 0.68089 0.88642 0.63084 0.0
H695 H 0.6123 0.86917 0.71136 0.0
H696 H 0.62334 0.86068 0.68131 0.0
H697 H 0.69754 0.88975 0.65649 0.0
H698 H 0.67496 0.92338 0.57674 0.0
H699 H 0.67424 0.91424 0.60675 0.0
H700 H 0.61006 0.87387 0.62042 0.0
C701 C 0.63108 0.87355 0.68616 0.0
C702 C 0.67846 0.88588 0.64877 0.0
C703 C 0.62493 0.87835 0.70332 0.0
C704 C 0.66705 0.90997 0.57985 0.0
C705 C 0.66691 0.90469 0.59707 0.0
C706 C 0.62953 0.87679 0.62819 0.0
C707 C 0.64668 0.88546 0.67528 0.0
C708 C 0.65114 0.88163 0.65665 0.0
C709 C 0.65687 0.88748 0.60183 0.0
C710 C 0.65609 0.88267 0.62039 0.0
H711 H 0.65699 0.92005 0.70346 0.0
H712 H 0.66803 0.91166 0.67388 0.0
H713 H 0.60569 0.87302 0.65194 0.0
H714 H 0.63995 0.87142 0.56175 0.0
H715 H 0.63892 0.86228 0.59231 0.0
C716 C 0.3765 0.61933 0.32253 0.0
C717 C 0.39986 0.62784 0.31356 0.0
C718 C 0.379 0.61576 0.34021 0.0
C719 C 0.43305 0.61347 0.37656 0.0
H720 H 0.36628 0.63 0.40419 0.0
C721 C 0.44635 0.63768 0.44628 0.0
C722 C 0.42362 0.63457 0.45841 0.0
C723 C 0.44286 0.63254 0.42909 0.0
C724 C 0.38491 0.62495 0.39671 0.0
H725 H 0.44479 0.63834 0.31596 0.0
H726 H 0.44913 0.63214 0.34668 0.0
H727 H 0.36151 0.62852 0.37289 0.0
H728 H 0.37969 0.62304 0.46209 0.0
H729 H 0.37348 0.61402 0.43184 0.0
H730 H 0.45677 0.61046 0.40034 0.0
C731 C 0.42889 0.62814 0.34009 0.0
C732 C 0.38219 0.62412 0.37874 0.0
C733 C 0.42635 0.63179 0.32246 0.0
C734 C 0.3976 0.62562 0.45305 0.0
C735 C 0.39399 0.62056 0.43572 0.0
C736 C 0.43576 0.61429 0.39452 0.0
C737 C 0.40499 0.62049 0.34928 0.0
C738 C 0.40651 0.61884 0.36842 0.0
C739 C 0.41647 0.62418 0.4235 0.0
C740 C 0.41201 0.62054 0.40478 0.0
H741 H 0.3558 0.61606 0.31607 0.0
H742 H 0.36033 0.60964 0.34687 0.0
H743 H 0.45202 0.60903 0.36902 0.0
H744 H 0.46674 0.64448 0.44997 0.0
H745 H 0.46046 0.63579 0.42004 0.0
C746 C 0.42068 0.11807 0.4553 0.0
C747 C 0.39411 0.12155 0.46432 0.0
C748 C 0.42307 0.12209 0.43773 0.0
C749 C 0.37623 0.12616 0.39921 0.0
H750 H 0.45036 0.14101 0.37776 0.0
C751 C 0.3923 0.1255 0.32483 0.0
C752 C 0.41871 0.11694 0.31948 0.0
C753 C 0.3883 0.13035 0.3422 0.0
C754 C 0.42948 0.13685 0.38354 0.0
H755 H 0.34966 0.13288 0.4621 0.0
H756 H 0.35389 0.13993 0.43139 0.0
H757 H 0.44545 0.14204 0.4091 0.0
H758 H 0.46209 0.10752 0.32798 0.0
H759 H 0.45515 0.11588 0.35795 0.0
H760 H 0.36065 0.12034 0.37369 0.0
C761 C 0.37278 0.13392 0.43791 0.0
C762 C 0.42667 0.13744 0.40151 0.0
C763 C 0.37046 0.13 0.45555 0.0
C764 C 0.4414 0.11402 0.33166 0.0
C765 C 0.43752 0.11897 0.34887 0.0
C766 C 0.37906 0.12555 0.38122 0.0
C767 C 0.39889 0.12964 0.42871 0.0
C768 C 0.40032 0.13161 0.40959 0.0
C769 C 0.41078 0.12693 0.35446 0.0
C770 C 0.40603 0.13038 0.37321 0.0
H771 H 0.43934 0.1116 0.46165 0.0
H772 H 0.44341 0.11845 0.43105 0.0
H773 H 0.35571 0.12141 0.40501 0.0
H774 H 0.3744 0.12791 0.31575 0.0
H775 H 0.36749 0.13657 0.34607 0.0
C776 C 0.65875 0.8678 0.20352 0.0
C777 C 0.64611 0.85184 0.21001 0.0
C778 C 0.65303 0.87319 0.18648 0.0
C779 C 0.60012 0.86755 0.15079 0.0
H780 H 0.66807 0.86927 0.11985 0.0
C781 C 0.59104 0.84592 0.08084 0.0
C782 C 0.60743 0.85462 0.06783 0.0
C783 C 0.59477 0.85059 0.09809 0.0
C784 C 0.64885 0.8693 0.12832 0.0
H785 H 0.6167 0.82949 0.2042 0.0
H786 H 0.60608 0.83914 0.17483 0.0
H787 H 0.67605 0.86898 0.15111 0.0
H788 H 0.64041 0.87531 0.06276 0.0
H789 H 0.64713 0.88349 0.09325 0.0
H790 H 0.57288 0.86723 0.12818 0.0
C791 C 0.62058 0.84739 0.18273 0.0
C792 C 0.65345 0.86912 0.14621 0.0
C793 C 0.6268 0.84181 0.1995 0.0
C794 C 0.62747 0.86836 0.07251 0.0
C795 C 0.63136 0.873 0.08993 0.0
C796 C 0.59552 0.86788 0.133 0.0
C797 C 0.63397 0.86296 0.17594 0.0
C798 C 0.62913 0.86747 0.15754 0.0
C799 C 0.61503 0.86412 0.1029 0.0
C800 C 0.61986 0.8679 0.12154 0.0
H801 H 0.67388 0.87569 0.21136 0.0
H802 H 0.66365 0.88523 0.18149 0.0
H803 H 0.581 0.86649 0.15929 0.0
H804 H 0.57539 0.83528 0.07774 0.0
H805 H 0.58229 0.84318 0.10773 0.0
C806 C 0.60001 0.39002 0.06335 0.0
C807 C 0.62661 0.38598 0.05458 0.0
C808 C 0.59756 0.38707 0.08112 0.0
C809 C 0.64452 0.38341 0.12007 0.0
H810 H 0.56913 0.37164 0.1418 0.0
C811 C 0.62807 0.38321 0.19463 0.0
C812 C 0.60333 0.39341 0.20003 0.0
C813 C 0.63169 0.37873 0.17714 0.0
C814 C 0.59037 0.3749 0.13592 0.0
H815 H 0.67103 0.37479 0.0575 0.0
H816 H 0.66654 0.36935 0.08844 0.0
H817 H 0.57382 0.3698 0.1105 0.0
H818 H 0.56251 0.40631 0.19146 0.0
H819 H 0.56867 0.39841 0.16127 0.0
H820 H 0.66082 0.38881 0.14555 0.0
C821 C 0.64776 0.37514 0.08164 0.0
C822 C 0.59304 0.37392 0.11797 0.0
C823 C 0.65024 0.37814 0.06386 0.0
C824 C 0.58192 0.39852 0.18774 0.0
C825 C 0.5853 0.39386 0.17042 0.0
C826 C 0.64188 0.38428 0.13805 0.0
C827 C 0.6216 0.37993 0.09057 0.0
C828 C 0.6199 0.37864 0.10976 0.0
C829 C 0.61035 0.3841 0.16486 0.0
C830 C 0.61454 0.38051 0.14613 0.0
H831 H 0.58139 0.39612 0.05665 0.0
H832 H 0.5772 0.39115 0.08754 0.0
H833 H 0.66547 0.38733 0.11422 0.0
H834 H 0.64494 0.3791 0.20381 0.0
H835 H 0.65119 0.37115 0.17322 0.0
C836 C 0.42726 0.12557 0.82123 0.0
C837 C 0.3989 0.12727 0.81375 0.0
C838 C 0.43028 0.12223 0.83892 0.0
C839 C 0.38786 0.10923 0.87875 0.0
H840 H 0.4513 0.13561 0.90143 0.0
C841 C 0.39367 0.12372 0.9527 0.0
C842 C 0.42196 0.12264 0.96046 0.0
C843 C 0.39051 0.12144 0.93483 0.0
C844 C 0.43368 0.12797 0.89529 0.0
H845 H 0.35138 0.12616 0.81892 0.0
H846 H 0.35659 0.1209 0.84973 0.0
H847 H 0.44684 0.13688 0.87024 0.0
H848 H 0.4688 0.11721 0.9556 0.0
H849 H 0.46322 0.11332 0.92461 0.0
H850 H 0.3742 0.10094 0.90411 0.0
C851 C 0.37661 0.12176 0.84197 0.0
C852 C 0.43117 0.12862 0.87734 0.0
C853 C 0.3736 0.12487 0.82424 0.0
C854 C 0.4467 0.1183 0.95009 0.0
C855 C 0.44356 0.11615 0.93228 0.0
C856 C 0.39021 0.10875 0.89678 0.0
C857 C 0.405 0.12076 0.84963 0.0
C858 C 0.40822 0.11928 0.86877 0.0
C859 C 0.4156 0.11816 0.92438 0.0
C860 C 0.41317 0.11812 0.90524 0.0
H861 H 0.4472 0.12718 0.8135 0.0
H862 H 0.45252 0.12109 0.84423 0.0
H863 H 0.37013 0.10168 0.87265 0.0
H864 H 0.37415 0.12703 0.96031 0.0
H865 H 0.36867 0.1231 0.92909 0.0
C866 C 0.35016 0.62415 0.82003 0.0
C867 C 0.37879 0.62219 0.81291 0.0
C868 C 0.34646 0.62707 0.83773 0.0
C869 C 0.38685 0.63862 0.87848 0.0
H870 H 0.32306 0.61091 0.89933 0.0
C871 C 0.37785 0.62244 0.95196 0.0
C872 C 0.34909 0.62237 0.95921 0.0
C873 C 0.38178 0.62526 0.93421 0.0
C874 C 0.34074 0.61895 0.89372 0.0
H875 H 0.42609 0.6226 0.81876 0.0
H876 H 0.41964 0.62729 0.84962 0.0
H877 H 0.32898 0.61081 0.86821 0.0
H878 H 0.30213 0.6264 0.95365 0.0
H879 H 0.30904 0.6314 0.92291 0.0
H880 H 0.39901 0.64626 0.90426 0.0
C881 C 0.39998 0.62684 0.84153 0.0
C882 C 0.3441 0.61894 0.87581 0.0
C883 C 0.40369 0.62406 0.8238 0.0
C884 C 0.32458 0.62616 0.9485 0.0
C885 C 0.3285 0.62893 0.93083 0.0
C886 C 0.38358 0.63853 0.89647 0.0
C887 C 0.37129 0.62794 0.84881 0.0
C888 C 0.36719 0.62876 0.86791 0.0
C889 C 0.35702 0.62802 0.92338 0.0
C890 C 0.36046 0.62868 0.90429 0.0
H891 H 0.33051 0.62295 0.812 0.0
H892 H 0.32403 0.62829 0.84279 0.0
H893 H 0.40472 0.64648 0.87285 0.0
H894 H 0.3972 0.61956 0.95985 0.0
H895 H 0.40405 0.62443 0.92885 0.0
C896 C 0.93967 0.19623 0.24271 0.0
C897 C 0.92072 0.1912 0.25633 0.0
C898 C 0.96042 0.21008 0.24483 0.0
C899 C 0.98003 0.24899 0.27279 0.0
H900 H 0.05682 0.24379 0.25028 0.0
C901 C 0.06195 0.30836 0.26704 0.0
C902 C 0.09276 0.30501 0.26788 0.0
C903 C 0.04158 0.29415 0.26661 0.0
C904 C 0.03568 0.24539 0.25686 0.0
H905 H 0.90839 0.19696 0.28281 0.0
H906 H 0.94505 0.22097 0.28665 0.0
H907 H 0.02015 0.2198 0.24795 0.0
H908 H 0.12635 0.28405 0.26915 0.0
H909 H 0.09067 0.25912 0.26881 0.0
H910 H 0.9959 0.27435 0.28213 0.0
C911 C 0.94356 0.2144 0.27421 0.0
C912 C 0.01439 0.23172 0.25529 0.0
C913 C 0.92255 0.20061 0.27203 0.0
C914 C 0.10275 0.28707 0.26842 0.0
C915 C 0.08228 0.27279 0.26814 0.0
C916 C 1.00141 0.2626 0.27447 0.0
C917 C 0.96303 0.21917 0.26068 0.0
C918 C 0.98612 0.23344 0.26303 0.0
C919 C 0.0514 0.27616 0.26718 0.0
C920 C 0.02939 0.26111 0.26633 0.0
H921 H 0.93868 0.18935 0.23039 0.0
H922 H 0.97444 0.21365 0.23397 0.0
H923 H 0.95851 0.25088 0.27885 0.0
H924 H 0.05344 0.32201 0.26647 0.0
H925 H 0.0181 0.29733 0.26549 0.0
C926 C 0.16876 0.95916 0.26747 0.0
C927 C 0.17308 0.94534 0.25531 0.0
C928 C 0.18862 0.97372 0.26831 0.0
C929 C 0.24352 0.99896 0.24275 0.0
H930 H 0.27773 0.01245 0.28687 0.0
C931 C 0.31378 0.06321 0.25212 0.0
C932 C 0.34076 0.06144 0.26119 0.0
C933 C 0.29339 0.04903 0.25152 0.0
C934 C 0.26843 0.00876 0.27447 0.0
H935 H 0.201 0.93622 0.23417 0.0
H936 H 0.23514 0.96172 0.23541 0.0
H937 H 0.24069 0.9882 0.28549 0.0
H938 H 0.36741 0.04339 0.27685 0.0
H939 H 0.33133 0.01853 0.27599 0.0
H940 H 0.2711 0.01951 0.23171 0.0
C941 C 0.21659 0.96127 0.24437 0.0
C942 C 0.24704 0.99504 0.2737 0.0
C943 C 0.19708 0.94664 0.2437 0.0
C944 C 0.34686 0.04513 0.26972 0.0
C945 C 0.32616 0.03097 0.26932 0.0
C946 C 0.26456 0.01282 0.24355 0.0
C947 C 0.21282 0.97486 0.2568 0.0
C948 C 0.23449 0.98995 0.25781 0.0
C949 C 0.29928 0.03278 0.26014 0.0
C950 C 0.27732 0.01783 0.25939 0.0
H951 H 0.15056 0.95847 0.27665 0.0
H952 H 0.18508 0.98409 0.27794 0.0
H953 H 0.23415 0.99537 0.23034 0.0
H954 H 0.30839 0.07558 0.24538 0.0
H955 H 0.27276 0.05087 0.24447 0.0
C956 C 0.06135 0.93992 1.00634 0.0
C957 C 0.09137 0.94401 1.0098 0.0
C958 C 0.03931 0.95313 1.00773 0.0
C959 C 0.02668 0.00219 1.00797 0.0
H960 H 0.95151 0.98887 0.02924 0.0
C961 C 0.92266 0.04803 1.00462 0.0
C962 C 0.90555 0.0499 0.01974 0.0
C963 C 0.94534 0.03513 1.00362 0.0
C964 C 0.97241 0.99286 0.02338 0.0
H965 H 0.12181 0.96536 0.01717 0.0
H966 H 0.08309 0.98856 0.01958 0.0
H967 H 0.99172 0.96683 0.02748 0.0
H968 H 0.89863 0.03941 0.04556 0.0
H969 H 0.9382 0.0169 0.04378 0.0
H970 H 1.00741 0.0283 1.00403 0.0
C971 C 0.07674 0.97506 0.01573 0.0
C972 C 0.99538 0.98017 0.02221 0.0
C973 C 0.09889 0.96177 0.0144 0.0
C974 C 0.91127 0.03829 0.03369 0.0
C975 C 0.93393 0.02535 0.03266 0.0
C976 C 1.00363 0.01488 1.00908 0.0
C977 C 0.04663 0.97082 0.01258 0.0
C978 C 0.02273 0.98463 0.01439 0.0
C979 C 0.95147 0.02375 0.01768 0.0
C980 C 0.97616 0.01034 0.01672 0.0
H981 H 0.0547 0.92643 1.00268 0.0
H982 H 0.01645 0.94946 1.00489 0.0
H983 H 0.04737 0.00603 1.00179 0.0
H984 H 0.91888 0.05672 0.99362 0.0
H985 H 0.95807 0.03405 0.99178 0.0
C986 C 0.311 0.18411 0.01918 0.0
C987 C 0.33986 0.18647 0.01247 0.0
C988 C 0.29046 0.19824 0.01909 0.0
C989 C 0.28514 0.24799 0.01557 0.0
H990 H 0.2011 0.23752 1.00948 0.0
C991 C 0.19562 0.3011 0.03073 0.0
C992 C 0.17031 0.30213 0.02011 0.0
C993 C 0.21572 0.28683 0.02912 0.0
C994 C 0.22448 0.24076 1.01101 0.0
H995 H 0.36972 0.20556 1.00027 0.0
H996 H 0.33357 0.23023 0.9997 0.0
H997 H 0.23751 0.21336 1.00692 0.0
H998 H 0.14597 0.28881 0.99962 0.0
H999 H 0.18146 0.264 0.9965 0.0
H1000 H 0.27223 0.27548 0.0191 0.0
C1001 C 0.32698 0.2175 1.00536 0.0
C1002 C 0.2454 0.22682 1.00978 0.0
C1003 C 0.3477 0.20334 1.00561 0.0
C1004 C 0.16519 0.28833 1.00806 0.0
C1005 C 0.18554 0.27409 1.0063 0.0
C1006 C 0.26425 0.26195 0.01664 0.0
C1007 C 0.29806 0.21513 1.01212 0.0
C1008 C 0.27599 0.2302 1.0123 0.0
C1009 C 0.21128 0.27328 0.0167 0.0
C1010 C 0.23358 0.25849 0.01464 0.0
H1011 H 0.30426 0.17133 0.02471 0.0
H1012 H 0.26873 0.19597 0.02477 0.0
H1013 H 0.30841 0.25114 0.01772 0.0
H1014 H 0.20008 0.31142 0.04027 0.0
H1015 H 0.23478 0.28645 0.03768 0.0
C1016 C 0.92914 0.70206 0.75805 0.0
C1017 C 0.91394 0.69872 0.7736 0.0
C1018 C 0.95247 0.71456 0.75741 0.0
C1019 C 1.00589 0.73843 0.78622 0.0
H1020 H 0.02094 0.76743 0.74551 0.0
C1021 C 0.0835 0.80032 0.78574 0.0
C1022 C 0.10345 0.80222 0.77186 0.0
C1023 C 0.06209 0.78668 0.78572 0.0
C1024 C 0.0172 0.75925 0.75688 0.0
H1025 H 0.91043 0.7065 0.80048 0.0
H1026 H 0.95023 0.72879 0.79925 0.0
H1027 H 0.97871 0.74669 0.74589 0.0
H1028 H 0.11686 0.79117 0.74716 0.0
H1029 H 0.07881 0.76736 0.74699 0.0
H1030 H 0.04386 0.75151 0.79736 0.0
C1031 C 0.9449 0.72132 0.78764 0.0
C1032 C 0.993 0.74734 0.75712 0.0
C1033 C 0.92183 0.70866 0.78833 0.0
C1034 C 0.10187 0.78996 0.75807 0.0
C1035 C 0.08001 0.77645 0.75791 0.0
C1036 C 0.02982 0.75049 0.78604 0.0
C1037 C 0.96097 0.7242 0.77226 0.0
C1038 C 0.98688 0.73683 0.77185 0.0
C1039 C 0.0598 0.77477 0.77171 0.0
C1040 C 0.03563 0.7611 0.77141 0.0
H1041 H 0.92378 0.69456 0.74648 0.0
H1042 H 0.96443 0.7162 0.74538 0.0
H1043 H 1.00246 0.73028 0.79763 0.0
H1044 H 0.0842 0.80954 0.79658 0.0
H1045 H 0.04669 0.7858 0.79647 0.0
C1046 C 0.70563 0.94107 0.75494 0.0
C1047 C 0.67705 0.94335 0.76208 0.0
C1048 C 0.72593 0.9553 0.75465 0.0
C1049 C 0.74731 0.9966 0.77652 0.0
H1050 H 0.78708 0.00844 0.73351 0.0
C1051 C 0.84969 0.04473 0.77124 0.0
C1052 C 0.84638 0.05853 0.75895 0.0
C1053 C 0.82916 0.0305 0.77193 0.0
C1054 C 0.77617 0.00526 0.74561 0.0
H1055 H 0.64739 0.96233 0.77464 0.0
H1056 H 0.68342 0.9873 0.77447 0.0
H1057 H 0.7499 0.98433 0.73414 0.0
H1058 H 0.81953 0.06799 0.73752 0.0
H1059 H 0.78436 0.04296 0.73846 0.0
H1060 H 0.77398 0.01742 0.78802 0.0
C1061 C 0.68984 0.97443 0.769 0.0
C1062 C 0.75499 0.99146 0.74597 0.0
C1063 C 0.66922 0.96021 0.769 0.0
C1064 C 0.82263 0.05759 0.74716 0.0
C1065 C 0.80254 0.04324 0.74765 0.0
C1066 C 0.76893 0.01022 0.77622 0.0
C1067 C 0.71834 0.97209 0.76174 0.0
C1068 C 0.74027 0.98704 0.76141 0.0
C1069 C 0.80541 0.02965 0.76013 0.0
C1070 C 0.78344 0.01472 0.76073 0.0
H1071 H 0.71232 0.92826 0.74945 0.0
H1072 H 0.74779 0.95311 0.74908 0.0
H1073 H 0.73643 0.99335 0.78861 0.0
H1074 H 0.8677 0.04516 0.78053 0.0
H1075 H 0.83193 0.0201 0.78161 0.0
C1076 C 0.66619 0.78805 1.00987 0.0
C1077 C 0.67198 0.80352 0.01981 0.0
C1078 C 0.68679 0.77382 1.00944 0.0
C1079 C 0.74831 0.75349 0.03406 0.0
H1080 H 0.77361 0.73336 0.99022 0.0
C1081 C 0.82001 0.68926 0.02908 0.0
C1082 C 0.84429 0.6895 0.0176 0.0
C1083 C 0.79926 0.70328 0.02922 0.0
C1084 C 0.76685 0.73893 1.00254 0.0
H1085 H 0.70348 0.81598 0.03737 0.0
H1086 H 0.73891 0.79115 0.03682 0.0
H1087 H 0.73561 0.75713 0.99084 0.0
H1088 H 0.86581 0.7047 0.99722 0.0
H1089 H 0.82913 0.72928 0.99736 0.0
H1090 H 0.77941 0.73536 0.04579 0.0
C1091 C 0.71863 0.79001 0.02932 0.0
C1092 C 0.74489 0.75237 1.0029 0.0
C1093 C 0.69834 0.80427 0.02957 0.0
C1094 C 0.84741 0.70417 1.00626 0.0
C1095 C 0.82632 0.71815 1.00625 0.0
C1096 C 0.76995 0.73994 0.03371 0.0
C1097 C 0.71326 0.77469 0.01915 0.0
C1098 C 0.73551 0.75985 0.01868 0.0
C1099 C 0.80204 0.71783 0.01776 0.0
C1100 C 0.77953 0.73254 0.01796 0.0
H1101 H 0.64614 0.78713 1.00215 0.0
H1102 H 0.68199 0.7621 1.00158 0.0
H1103 H 0.74144 0.75893 0.04641 0.0
H1104 H 0.81694 0.67817 0.038 0.0
H1105 H 0.78067 0.70256 0.03814 0.0
C1106 C 0.31633 0.56317 0.75366 0.0
C1107 C 0.34547 0.56095 0.76 0.0
C1108 C 0.29569 0.54913 0.75459 0.0
C1109 C 0.27954 0.50664 0.77768 0.0
H1110 H 0.22451 0.4989 0.73981 0.0
C1111 C 0.20396 0.4439 0.77304 0.0
C1112 C 0.1745 0.44625 0.76727 0.0
C1113 C 0.22426 0.45815 0.7726 0.0
C1114 C 0.23946 0.50103 0.75059 0.0
H1115 H 0.37584 0.54211 0.77216 0.0
H1116 H 0.3398 0.5174 0.77356 0.0
H1117 H 0.26186 0.52266 0.73774 0.0
H1118 H 0.14316 0.46554 0.75666 0.0
H1119 H 0.17877 0.49055 0.75588 0.0
H1120 H 0.25724 0.48487 0.79044 0.0
C1121 C 0.33284 0.53015 0.76809 0.0
C1122 C 0.26093 0.51464 0.7494 0.0
C1123 C 0.35356 0.54426 0.76719 0.0
C1124 C 0.16569 0.46329 0.7612 0.0
C1125 C 0.18613 0.47757 0.76066 0.0
C1126 C 0.25813 0.49299 0.77884 0.0
C1127 C 0.3036 0.53244 0.76182 0.0
C1128 C 0.28123 0.51764 0.76294 0.0
C1129 C 0.21569 0.47513 0.7663 0.0
C1130 C 0.23784 0.49002 0.7653 0.0
H1131 H 0.30923 0.57585 0.74811 0.0
H1132 H 0.27329 0.55151 0.74989 0.0
H1133 H 0.29445 0.50876 0.78848 0.0
H1134 H 0.21153 0.43097 0.77781 0.0
H1135 H 0.24691 0.45574 0.77684 0.0
C1136 C 0.93374 0.54773 0.48232 0.0
C1137 C 0.91744 0.55241 0.49716 0.0
C1138 C 0.95741 0.5355 0.4833 0.0
C1139 C 0.99203 0.50036 0.51096 0.0
H1140 H 0.06296 0.51225 0.48467 0.0
C1141 C 0.1023 0.46054 0.51855 0.0
C1142 C 0.11676 0.45569 0.50311 0.0
C1143 C 0.07874 0.47294 0.5184 0.0
C1144 C 0.04327 0.50866 0.492 0.0
H1145 H 0.91262 0.54737 0.5246 0.0
H1146 H 0.9541 0.52617 0.52634 0.0
H1147 H 0.01941 0.53179 0.48304 0.0
H1148 H 0.11842 0.46055 0.47553 0.0
H1149 H 0.0775 0.48211 0.47529 0.0
H1150 H 0.01604 0.47721 0.51994 0.0
C1151 C 0.94842 0.53183 0.51389 0.0
C1152 C 0.01822 0.51983 0.49102 0.0
C1153 C 0.92465 0.54403 0.51289 0.0
C1154 C 0.10782 0.46399 0.48766 0.0
C1155 C 0.08439 0.47642 0.48752 0.0
C1156 C 0.01715 0.4892 0.51198 0.0
C1157 C 0.96548 0.52769 0.49916 0.0
C1158 C 0.99218 0.51576 0.50038 0.0
C1159 C 0.06923 0.48083 0.50284 0.0
C1160 C 0.04301 0.49315 0.50242 0.0
H1161 H 0.92869 0.55382 0.46997 0.0
H1162 H 0.9696 0.53232 0.47162 0.0
H1163 H 0.97229 0.4967 0.51821 0.0
H1164 H 0.10859 0.4544 0.53068 0.0
H1165 H 0.0678 0.47623 0.53046 0.0
C1166 C 0.35311 0.70799 0.51031 0.0
C1167 C 0.34369 0.69017 0.50744 0.0
C1168 C 0.33232 0.72209 0.51089 0.0
C1169 C 0.25191 0.73084 0.51814 0.0
H1170 H 0.26931 0.77707 0.49716 0.0
C1171 C 0.16391 0.78812 0.51261 0.0
C1172 C 0.17411 0.80572 0.51579 0.0
C1173 C 0.18417 0.77376 0.51141 0.0
C1174 C 0.2642 0.76429 0.50323 0.0
H1175 H 0.30508 0.67329 0.50257 0.0
H1176 H 0.26912 0.69779 0.50339 0.0
H1177 H 0.30585 0.7528 0.49535 0.0
H1178 H 0.21355 0.82194 0.52054 0.0
H1179 H 0.2485 0.79705 0.51867 0.0
H1180 H 0.21028 0.74236 0.52607 0.0
C1181 C 0.29243 0.70088 0.50549 0.0
C1182 C 0.28519 0.75038 0.50221 0.0
C1183 C 0.31314 0.68683 0.50491 0.0
C1184 C 0.20487 0.80859 0.51797 0.0
C1185 C 0.22501 0.79431 0.51677 0.0
C1186 C 0.23091 0.74476 0.51917 0.0
C1187 C 0.30169 0.71867 0.50863 0.0
C1188 C 0.27935 0.73349 0.50968 0.0
C1189 C 0.21501 0.77673 0.51335 0.0
C1190 C 0.23686 0.76169 0.5118 0.0
H1191 H 0.37646 0.71102 0.51237 0.0
H1192 H 0.34018 0.73562 0.51348 0.0
H1193 H 0.24684 0.71808 0.52426 0.0
H1194 H 0.14037 0.78547 0.51083 0.0
H1195 H 0.17574 0.76039 0.50864 0.0
C1196 C 0.85118 0.54202 0.26573 0.0
C1197 C 0.84299 0.55913 0.25956 0.0
C1198 C 0.83042 0.52789 0.26599 0.0
C1199 C 0.75822 0.51367 0.24674 0.0
H1200 H 0.75568 0.4807 0.2855 0.0
C1201 C 0.66397 0.46091 0.2553 0.0
C1202 C 0.67318 0.4435 0.26007 0.0
C1203 C 0.68417 0.47533 0.25566 0.0
C1204 C 0.75623 0.48973 0.27452 0.0
H1205 H 0.80646 0.5748 0.24894 0.0
H1206 H 0.77047 0.55043 0.24965 0.0
H1207 H 0.79254 0.50487 0.28507 0.0
H1208 H 0.7107 0.42768 0.26923 0.0
H1209 H 0.74564 0.45268 0.26982 0.0
H1210 H 0.72183 0.49855 0.23624 0.0
C1211 C 0.79297 0.54774 0.25399 0.0
C1212 C 0.77745 0.50355 0.27425 0.0
C1213 C 0.81365 0.56178 0.25369 0.0
C1214 C 0.70281 0.4409 0.26545 0.0
C1215 C 0.72286 0.45527 0.26591 0.0
C1216 C 0.73694 0.4999 0.24705 0.0
C1217 C 0.80105 0.53059 0.2601 0.0
C1218 C 0.77875 0.51569 0.26034 0.0
C1219 C 0.71388 0.47264 0.26093 0.0
C1220 C 0.73575 0.48773 0.26092 0.0
H1221 H 0.87361 0.53952 0.27031 0.0
H1222 H 0.83751 0.5148 0.27061 0.0
H1223 H 0.75885 0.52258 0.23568 0.0
H1224 H 0.64129 0.46337 0.25112 0.0
H1225 H 0.67649 0.4886 0.2519 0.0
C1226 C 0.66443 0.28995 0.50395 0.0
C1227 C 0.65197 0.2949 0.51994 0.0
C1228 C 0.68685 0.2769 0.50304 0.0
C1229 C 0.72049 0.2389 0.52678 0.0
H1230 H 0.78797 0.24747 0.49652 0.0
C1231 C 0.80465 0.18307 0.51005 0.0
C1232 C 0.83514 0.18747 0.50986 0.0
C1233 C 0.78299 0.19649 0.5115 0.0
C1234 C 0.76941 0.24495 0.50513 0.0
H1235 H 0.65294 0.28964 0.54746 0.0
H1236 H 0.69202 0.26678 0.54584 0.0
H1237 H 0.74855 0.27008 0.49884 0.0
H1238 H 0.86674 0.20956 0.51081 0.0
H1239 H 0.82869 0.23314 0.51333 0.0
H1240 H 0.74139 0.21384 0.53317 0.0
C1241 C 0.68434 0.27299 0.534 0.0
C1242 C 0.74664 0.2578 0.50632 0.0
C1243 C 0.66196 0.28612 0.53494 0.0
C1244 C 0.84345 0.20572 0.51089 0.0
C1245 C 0.82166 0.21921 0.51228 0.0
C1246 C 0.74316 0.22603 0.52553 0.0
C1247 C 0.69732 0.26839 0.51806 0.0
C1248 C 0.72182 0.25488 0.51708 0.0
C1249 C 0.79117 0.21471 0.51277 0.0
C1250 C 0.76779 0.22883 0.5146 0.0
H1251 H 0.65726 0.2964 0.49212 0.0
H1252 H 0.696 0.27345 0.49053 0.0
H1253 H 0.70162 0.23618 0.53511 0.0
H1254 H 0.79738 0.16917 0.50921 0.0
H1255 H 0.75973 0.19257 0.51152 0.0
C1256 C 0.42222 0.20433 0.76494 0.0
C1257 C 0.43075 0.18736 0.75858 0.0
C1258 C 0.44257 0.21868 0.76513 0.0
C1259 C 0.51416 0.23379 0.7456 0.0
H1260 H 0.51621 0.26637 0.7847 0.0
C1261 C 0.60693 0.28752 0.75439 0.0
C1262 C 0.59714 0.30478 0.7593 0.0
C1263 C 0.58721 0.27286 0.75467 0.0
C1264 C 0.51579 0.25745 0.77363 0.0
H1265 H 0.46744 0.17216 0.74747 0.0
H1266 H 0.50276 0.1969 0.74806 0.0
H1267 H 0.48004 0.24183 0.78419 0.0
H1268 H 0.55911 0.32008 0.76862 0.0
H1269 H 0.52502 0.29465 0.76909 0.0
H1270 H 0.55003 0.24939 0.73511 0.0
C1271 C 0.48028 0.19933 0.75262 0.0
C1272 C 0.49496 0.24342 0.7733 0.0
C1273 C 0.45999 0.18507 0.75238 0.0
C1274 C 0.56743 0.30699 0.76473 0.0
C1275 C 0.54788 0.29237 0.76512 0.0
C1276 C 0.53507 0.24777 0.74597 0.0
C1277 C 0.47189 0.21633 0.75898 0.0
C1278 C 0.49382 0.23143 0.75927 0.0
C1279 C 0.55743 0.27515 0.76001 0.0
C1280 C 0.53606 0.25981 0.75995 0.0
H1281 H 0.39985 0.20656 0.76978 0.0
H1282 H 0.43522 0.23165 0.76993 0.0
H1283 H 0.51365 0.225 0.73445 0.0
H1284 H 0.62968 0.28538 0.75016 0.0
H1285 H 0.59531 0.25971 0.75079 0.0
C1286 C 0.45297 0.06266 0.5246 0.0
C1287 C 0.42392 0.06081 0.51803 0.0
C1288 C 0.47337 0.04851 0.52351 0.0
C1289 C 0.48894 0.0061 0.49991 0.0
H1290 H 0.54426 0.99802 0.53757 0.0
C1291 C 0.56424 0.94309 0.50442 0.0
C1292 C 0.59393 0.94552 0.50977 0.0
C1293 C 0.54395 0.95736 0.50494 0.0
C1294 C 0.52921 0.00024 0.52687 0.0
H1295 H 0.39344 0.04246 0.50529 0.0
H1296 H 0.42901 0.01748 0.5037 0.0
H1297 H 0.50704 0.02184 0.5399 0.0
H1298 H 0.62565 0.96493 0.51973 0.0
H1299 H 0.58999 0.98995 0.52075 0.0
H1300 H 0.51094 0.98427 0.48702 0.0
C1301 C 0.43613 0.03007 0.50944 0.0
C1302 C 0.50782 0.0139 0.52818 0.0
C1303 C 0.41567 0.04433 0.51046 0.0
C1304 C 0.60295 0.96263 0.51552 0.0
C1305 C 0.5825 0.97692 0.51619 0.0
C1306 C 0.51022 0.99236 0.49865 0.0
C1307 C 0.4653 0.03201 0.51593 0.0
C1308 C 0.48746 0.01706 0.5147 0.0
C1309 C 0.55273 0.9744 0.51096 0.0
C1310 C 0.53063 0.9893 0.5121 0.0
H1311 H 0.46021 0.07518 0.53042 0.0
H1312 H 0.49573 0.05066 0.52836 0.0
H1313 H 0.474 0.00833 0.48915 0.0
H1314 H 0.55653 0.9301 0.49988 0.0
H1315 H 0.52114 0.95491 0.501 0.0
C1316 C 0.60526 0.78605 0.26784 0.0
C1317 C 0.59745 0.80334 0.26195 0.0
C1318 C 0.58424 0.77206 0.26771 0.0
C1319 C 0.51606 0.75731 0.2459 0.0
H1320 H 0.50233 0.72778 0.28644 0.0
C1321 C 0.44753 0.69158 0.24457 0.0
C1322 C 0.42625 0.68911 0.25768 0.0
C1323 C 0.46758 0.70594 0.24524 0.0
C1324 C 0.50585 0.736 0.27507 0.0
H1325 H 0.56165 0.81943 0.25109 0.0
H1326 H 0.52541 0.79503 0.25058 0.0
H1327 H 0.54014 0.75165 0.28727 0.0
H1328 H 0.4092 0.69982 0.28177 0.0
H1329 H 0.44478 0.72493 0.28308 0.0
H1330 H 0.48209 0.74161 0.23363 0.0
C1331 C 0.54763 0.7923 0.25538 0.0
C1332 C 0.52765 0.74951 0.27549 0.0
C1333 C 0.5684 0.80628 0.25576 0.0
C1334 C 0.42526 0.70145 0.27144 0.0
C1335 C 0.44572 0.7157 0.27226 0.0
C1336 C 0.49463 0.74367 0.24541 0.0
C1337 C 0.55525 0.77506 0.2614 0.0
C1338 C 0.53288 0.76033 0.26092 0.0
C1339 C 0.46712 0.71805 0.25917 0.0
C1340 C 0.48925 0.73289 0.25998 0.0
H1341 H 0.62744 0.7834 0.27274 0.0
H1342 H 0.59073 0.75885 0.27232 0.0
H1343 H 0.51972 0.7654 0.23446 0.0
H1344 H 0.44884 0.68233 0.23378 0.0
H1345 H 0.48394 0.70734 0.23504 0.0
C1346 C 0.60408 0.45985 1.00314 0.0
C1347 C 0.61649 0.45481 0.01909 0.0
C1348 C 0.58171 0.47294 1.00228 0.0
C1349 C 0.54801 0.51084 0.02622 0.0
H1350 H 0.48052 0.50233 0.99601 0.0
C1351 C 0.46361 0.56665 1.00987 0.0
C1352 C 0.43313 0.56221 1.00968 0.0
C1353 C 0.48532 0.55325 1.01124 0.0
C1354 C 0.49908 0.50484 1.0046 0.0
H1355 H 0.61551 0.45998 0.04664 0.0
H1356 H 0.57653 0.48292 0.04512 0.0
H1357 H 0.52003 0.47976 0.99816 0.0
H1358 H 0.40162 0.54008 1.01056 0.0
H1359 H 0.43976 0.51654 0.01293 0.0
H1360 H 0.52702 0.53585 0.03275 0.0
C1361 C 0.58421 0.47674 0.03326 0.0
C1362 C 0.5219 0.49201 1.00569 0.0
C1363 C 0.60653 0.46357 0.03413 0.0
C1364 C 0.42489 0.54395 1.01064 0.0
C1365 C 0.44674 0.53048 1.01195 0.0
C1366 C 0.52529 0.5237 0.02506 0.0
C1367 C 0.57124 0.4814 0.01735 0.0
C1368 C 0.54672 0.49491 0.01644 0.0
C1369 C 0.47721 0.53502 0.01242 0.0
C1370 C 0.50065 0.52092 0.01415 0.0
H1371 H 0.61123 0.45342 0.99128 0.0
H1372 H 0.57258 0.47644 0.98979 0.0
H1373 H 0.56687 0.51354 0.03454 0.0
H1374 H 0.47083 0.58056 1.00908 0.0
H1375 H 0.50857 0.55721 1.01125 0.0
C1376 C 0.14364 0.38529 0.45658 0.0
C1377 C 0.17171 0.39207 0.46137 0.0
C1378 C 0.13745 0.38131 0.43928 0.0
C1379 C 0.16416 0.3912 0.39489 0.0
H1380 H 0.12243 0.34727 0.38275 0.0
C1381 C 0.14569 0.37071 0.3237 0.0
C1382 C 0.1523 0.35261 0.31997 0.0
C1383 C 0.14294 0.37649 0.34085 0.0
C1384 C 0.13411 0.35961 0.38592 0.0
H1385 H 0.21547 0.39956 0.4518 0.0
H1386 H 0.20492 0.39233 0.42189 0.0
H1387 H 0.12854 0.3553 0.41305 0.0
H1388 H 0.16025 0.32627 0.3313 0.0
H1389 H 0.15595 0.33633 0.36094 0.0
H1390 H 0.17101 0.39509 0.36784 0.0
C1391 C 0.1874 0.39048 0.43135 0.0
C1392 C 0.13734 0.3643 0.4033 0.0
C1393 C 0.19355 0.39447 0.44857 0.0
C1394 C 0.15521 0.34034 0.33369 0.0
C1395 C 0.15246 0.34608 0.35074 0.0
C1396 C 0.161 0.38649 0.37753 0.0
C1397 C 0.15921 0.38403 0.42644 0.0
C1398 C 0.15302 0.37993 0.408 0.0
C1399 C 0.14666 0.36425 0.35458 0.0
C1400 C 0.14654 0.37042 0.37285 0.0
H1401 H 0.1263 0.38337 0.46614 0.0
H1402 H 0.11546 0.37642 0.43591 0.0
H1403 H 0.17586 0.40353 0.39805 0.0
H1404 H 0.1432 0.38048 0.31342 0.0
H1405 H 0.13816 0.39056 0.34337 0.0
C1406 C 0.1302 0.87738 0.32323 0.0
C1407 C 0.13074 0.89563 0.3184 0.0
C1408 C 0.13304 0.87246 0.34062 0.0
C1409 C 0.12143 0.89128 0.38425 0.0
H1410 H 0.16408 0.84868 0.39935 0.0
C1411 C 0.12947 0.87207 0.45642 0.0
C1412 C 0.12414 0.85383 0.46021 0.0
C1413 C 0.13397 0.87763 0.43933 0.0
C1414 C 0.15195 0.86058 0.39533 0.0
H1415 H 0.13624 0.92296 0.32792 0.0
H1416 H 0.14158 0.91438 0.35801 0.0
H1417 H 0.16505 0.85719 0.36892 0.0
H1418 H 0.1203 0.82707 0.44907 0.0
H1419 H 0.12782 0.83675 0.41948 0.0
H1420 H 0.10789 0.89454 0.41054 0.0
C1421 C 0.13827 0.90387 0.3485 0.0
C1422 C 0.15247 0.86543 0.37788 0.0
C1423 C 0.13537 0.90877 0.3312 0.0
C1424 C 0.12427 0.84124 0.44663 0.0
C1425 C 0.12883 0.84677 0.42963 0.0
C1426 C 0.1209 0.88644 0.40167 0.0
C1427 C 0.13653 0.8857 0.35349 0.0
C1428 C 0.13703 0.88077 0.37211 0.0
C1429 C 0.13336 0.86505 0.42572 0.0
C1430 C 0.13591 0.87093 0.40741 0.0
H1431 H 0.12663 0.86694 0.31368 0.0
H1432 H 0.13142 0.85834 0.34403 0.0
H1433 H 0.10886 0.90302 0.38022 0.0
H1434 H 0.12958 0.88208 0.46659 0.0
H1435 H 0.13774 0.8918 0.43677 0.0
C1436 C 0.17327 0.83853 0.83135 0.0
C1437 C 0.16859 0.851 0.81797 0.0
C1438 C 0.16923 0.84352 0.84855 0.0
C1439 C 0.13438 0.87818 0.8766 0.0
H1440 H 0.1911 0.86026 0.91025 0.0
C1441 C 0.1477 0.90823 0.94486 0.0
C1442 C 0.15295 0.8964 0.9587 0.0
C1443 C 0.14648 0.90181 0.92795 0.0
C1444 C 0.1748 0.86515 0.90107 0.0
H1445 H 0.15576 0.87851 0.81218 0.0
H1446 H 0.14931 0.88741 0.84234 0.0
H1447 H 0.19579 0.85129 0.88016 0.0
H1448 H 0.1601 0.86844 0.96569 0.0
H1449 H 0.15811 0.85718 0.936 0.0
H1450 H 0.1139 0.89241 0.89756 0.0
C1451 C 0.15564 0.87364 0.83948 0.0
C1452 C 0.17748 0.86003 0.88379 0.0
C1453 C 0.15951 0.86859 0.82219 0.0
C1454 C 0.15605 0.87789 0.9553 0.0
C1455 C 0.15509 0.87147 0.93831 0.0
C1456 C 0.13182 0.88339 0.89389 0.0
C1457 C 0.16061 0.86117 0.85288 0.0
C1458 C 0.15738 0.86652 0.87131 0.0
C1459 C 0.15068 0.88342 0.92444 0.0
C1460 C 0.15209 0.877 0.9063 0.0
H1461 H 0.17998 0.8248 0.82857 0.0
H1462 H 0.17268 0.83345 0.85847 0.0
H1463 H 0.11822 0.8832 0.86741 0.0
H1464 H 0.14509 0.92257 0.94704 0.0
H1465 H 0.14332 0.91139 0.91756 0.0
C1466 C 0.09954 0.40976 0.83159 0.0
C1467 C 0.11162 0.39884 0.8185 0.0
C1468 C 0.10128 0.40458 0.84883 0.0
C1469 C 0.14102 0.37681 0.88015 0.0
H1470 H 0.06597 0.37821 0.90507 0.0
C1471 C 0.12817 0.36758 0.95485 0.0
C1472 C 0.10581 0.35533 0.95976 0.0
C1473 C 0.13112 0.37281 0.93753 0.0
C1474 C 0.08709 0.37775 0.89828 0.0
H1475 H 0.13601 0.37417 0.81334 0.0
H1476 H 0.13928 0.36513 0.84379 0.0
H1477 H 0.06749 0.38719 0.87483 0.0
H1478 H 0.06912 0.33895 0.95037 0.0
H1479 H 0.07401 0.34827 0.92046 0.0
H1480 H 0.16052 0.36738 0.90381 0.0
C1481 C 0.12838 0.3777 0.84052 0.0
C1482 C 0.08799 0.38296 0.88101 0.0
C1483 C 0.12637 0.38282 0.82313 0.0
C1484 C 0.08658 0.34843 0.94706 0.0
C1485 C 0.08928 0.3538 0.92991 0.0
C1486 C 0.14018 0.3718 0.89759 0.0
C1487 C 0.11536 0.38841 0.85348 0.0
C1488 C 0.11491 0.38252 0.87175 0.0
C1489 C 0.11146 0.36607 0.92496 0.0
C1490 C 0.11313 0.37211 0.90676 0.0
H1491 H 0.08815 0.42224 0.82854 0.0
H1492 H 0.09137 0.41319 0.85856 0.0
H1493 H 0.16207 0.37646 0.8733 0.0
H1494 H 0.14339 0.37306 0.96433 0.0
H1495 H 0.14833 0.38237 0.93402 0.0
C1496 C 0.87861 0.62115 0.70441 0.0
C1497 C 0.89428 0.63654 0.70983 0.0
C1498 C 0.87802 0.61631 0.68697 0.0
C1499 C 0.91381 0.62475 0.64428 0.0
H1500 H 0.83643 0.61031 0.62687 0.0
C1501 C 0.88575 0.61859 0.57098 0.0
C1502 C 0.86917 0.60329 0.56626 0.0
C1503 C 0.89048 0.62267 0.58846 0.0
C1504 C 0.85827 0.61417 0.63154 0.0
H1505 H 0.92289 0.65837 0.70124 0.0
H1506 H 0.92155 0.65006 0.67089 0.0
H1507 H 0.84259 0.61638 0.65748 0.0
H1508 H 0.84489 0.58019 0.57621 0.0
H1509 H 0.85312 0.58726 0.60636 0.0
H1510 H 0.92926 0.62271 0.61814 0.0
C1511 C 0.90988 0.64163 0.68009 0.0
C1512 C 0.86185 0.61757 0.64913 0.0
C1513 C 0.91054 0.64644 0.69753 0.0
C1514 C 0.85766 0.59213 0.57933 0.0
C1515 C 0.86223 0.59624 0.59667 0.0
C1516 C 0.91018 0.6214 0.62662 0.0
C1517 C 0.89303 0.62676 0.67452 0.0
C1518 C 0.88969 0.6228 0.65577 0.0
C1519 C 0.8785 0.61159 0.60148 0.0
C1520 C 0.88239 0.61595 0.62008 0.0
H1521 H 0.86598 0.61317 0.71355 0.0
H1522 H 0.86533 0.60454 0.68318 0.0
H1523 H 0.93562 0.62864 0.64897 0.0
H1524 H 0.89494 0.62744 0.56122 0.0
H1525 H 0.90299 0.63466 0.59178 0.0
C1526 C 0.89426 0.12355 0.7042 0.0
C1527 C 0.90428 0.10615 0.70845 0.0
C1528 C 0.88946 0.12834 0.68692 0.0
C1529 C 0.87798 0.10885 0.64323 0.0
H1530 H 0.9088 0.15475 0.62739 0.0
C1531 C 0.89498 0.12613 0.57079 0.0
C1532 C 0.89005 0.14404 0.56565 0.0
C1533 C 0.89331 0.12135 0.58827 0.0
C1534 C 0.89962 0.14199 0.63161 0.0
H1535 H 0.9166 0.08008 0.69787 0.0
H1536 H 0.90847 0.08844 0.66797 0.0
H1537 H 0.91167 0.1471 0.65787 0.0
H1538 H 0.87783 0.17074 0.57467 0.0
H1539 H 0.87435 0.16237 0.6049 0.0
H1540 H 0.86622 0.10368 0.61689 0.0
C1541 C 0.90401 0.09835 0.67791 0.0
C1542 C 0.90127 0.13762 0.64912 0.0
C1543 C 0.9089 0.09361 0.6951 0.0
C1544 C 0.88213 0.15686 0.57821 0.0
C1545 C 0.88031 0.15208 0.59559 0.0
C1546 C 0.87627 0.11325 0.62569 0.0
C1547 C 0.89441 0.11579 0.67357 0.0
C1548 C 0.89073 0.12093 0.65513 0.0
C1549 C 0.88654 0.13438 0.60092 0.0
C1550 C 0.88726 0.12983 0.61964 0.0
H1551 H 0.89043 0.1335 0.71418 0.0
H1552 H 0.88181 0.14185 0.68401 0.0
H1553 H 0.86929 0.09598 0.64747 0.0
H1554 H 0.9012 0.11596 0.56143 0.0
H1555 H 0.89843 0.1076 0.59193 0.0
C1556 C 0.84041 0.14507 0.19481 0.0
C1557 C 0.85838 0.1374 0.20773 0.0
C1558 C 0.84695 0.1424 0.1774 0.0
C1559 C 0.88743 0.11301 0.14699 0.0
H1560 H 0.8779 0.15391 0.11628 0.0
C1561 C 0.91353 0.10838 0.07389 0.0
C1562 C 0.89173 0.11575 0.06291 0.0
C1563 C 0.9128 0.11179 0.09165 0.0
C1564 C 0.88052 0.14233 0.12466 0.0
H1565 H 0.89703 0.12055 0.21242 0.0
H1566 H 0.90855 0.11588 0.18182 0.0
H1567 H 0.87004 0.15776 0.14717 0.0
H1568 H 0.85274 0.13304 0.06196 0.0
H1569 H 0.85151 0.13898 0.09284 0.0
H1570 H 0.89754 0.09753 0.12437 0.0
C1571 C 0.88928 0.12392 0.18526 0.0
C1572 C 0.87598 0.14452 0.14237 0.0
C1573 C 0.88271 0.12661 0.20278 0.0
C1574 C 0.8699 0.12715 0.07002 0.0
C1575 C 0.86926 0.13062 0.08774 0.0
C1576 C 0.89201 0.11081 0.12923 0.0
C1577 C 0.87168 0.13201 0.17238 0.0
C1578 C 0.87883 0.12983 0.15372 0.0
C1579 C 0.89039 0.12274 0.09882 0.0
C1580 C 0.88812 0.12539 0.11782 0.0
H1581 H 0.82134 0.15334 0.19812 0.0
H1582 H 0.83251 0.14849 0.16784 0.0
H1583 H 0.8896 0.10139 0.15535 0.0
H1584 H 0.93066 0.09953 0.06885 0.0
H1585 H 0.92963 0.1057 0.0998 0.0
C1586 C 0.90296 0.62427 0.07019 0.0
C1587 C 0.90785 0.64239 0.06575 0.0
C1588 C 0.90022 0.6192 0.08754 0.0
C1589 C 0.88424 0.6372 0.13117 0.0
H1590 H 0.93022 0.59613 0.14688 0.0
C1591 C 0.9047 0.6221 0.20371 0.0
C1592 C 0.90582 0.60393 0.20877 0.0
C1593 C 0.90256 0.62668 0.1862 0.0
C1594 C 0.91684 0.60747 0.14271 0.0
H1595 H 0.91291 0.66945 0.07601 0.0
H1596 H 0.90811 0.66062 0.10609 0.0
H1597 H 0.92993 0.60385 0.11637 0.0
H1598 H 0.90422 0.57633 0.1995 0.0
H1599 H 0.89978 0.58427 0.16924 0.0
H1600 H 0.87116 0.64084 0.15753 0.0
C1601 C 0.90627 0.65033 0.09623 0.0
C1602 C 0.9167 0.61189 0.12519 0.0
C1603 C 0.90925 0.65535 0.07897 0.0
C1604 C 0.9038 0.59048 0.19604 0.0
C1605 C 0.90143 0.59503 0.17864 0.0
C1606 C 0.88423 0.63272 0.14871 0.0
C1607 C 0.90201 0.63218 0.10075 0.0
C1608 C 0.90059 0.62687 0.11923 0.0
C1609 C 0.90128 0.61317 0.17343 0.0
C1610 C 0.90067 0.61785 0.15473 0.0
H1611 H 0.90174 0.61397 0.0603 0.0
H1612 H 0.8967 0.60512 0.09062 0.0
H1613 H 0.87135 0.64872 0.12694 0.0
H1614 H 0.90628 0.63276 0.21321 0.0
H1615 H 0.90276 0.6408 0.18266 0.0
C1616 C 0.64001 0.41097 0.9383 0.0
C1617 C 0.64505 0.39797 0.95117 0.0
C1618 C 0.63691 0.40592 0.92105 0.0
C1619 C 0.62304 0.367 0.89209 0.0
H1620 H 0.66556 0.39634 0.85875 0.0
C1621 C 0.65071 0.34239 0.82341 0.0
C1622 C 0.64958 0.35474 0.80967 0.0
C1623 C 0.64643 0.34809 0.84039 0.0
C1624 C 0.65313 0.38817 0.86782 0.0
H1625 H 0.6498 0.36935 0.95606 0.0
H1626 H 0.64475 0.36047 0.9258 0.0
H1627 H 0.66514 0.40513 0.889 0.0
H1628 H 0.64226 0.38276 0.80297 0.0
H1629 H 0.63469 0.39279 0.83278 0.0
H1630 H 0.61155 0.34985 0.87088 0.0
C1631 C 0.64289 0.37461 0.92911 0.0
C1632 C 0.65291 0.39319 0.8852 0.0
C1633 C 0.6459 0.37969 0.94645 0.0
C1634 C 0.64334 0.37292 0.81328 0.0
C1635 C 0.63917 0.37867 0.83035 0.0
C1636 C 0.6233 0.36196 0.87469 0.0
C1637 C 0.63889 0.38772 0.91617 0.0
C1638 C 0.63805 0.3826 0.89759 0.0
C1639 C 0.64095 0.36632 0.84411 0.0
C1640 C 0.6386 0.3724 0.86237 0.0
H1641 H 0.6389 0.42518 0.94148 0.0
H1642 H 0.6332 0.41633 0.91149 0.0
H1643 H 0.611 0.35869 0.90123 0.0
H1644 H 0.6554 0.32826 0.82112 0.0
H1645 H 0.64834 0.33825 0.85066 0.0
C1646 C 0.62491 0.87023 0.95413 0.0
C1647 C 0.62667 0.85195 0.95876 0.0
C1648 C 0.62777 0.87543 0.93683 0.0
C1649 C 0.61822 0.85691 0.893 0.0
H1650 H 0.65789 0.90081 0.87861 0.0
C1651 C 0.62635 0.87744 0.82116 0.0
C1652 C 0.61985 0.89559 0.81758 0.0
C1653 C 0.63066 0.87172 0.83821 0.0
C1654 C 0.64659 0.88855 0.88244 0.0
H1655 H 0.6344 0.82491 0.94899 0.0
H1656 H 0.63978 0.83399 0.91904 0.0
H1657 H 0.6592 0.89186 0.90892 0.0
H1658 H 0.61347 0.92202 0.82905 0.0
H1659 H 0.62066 0.91205 0.85858 0.0
H1660 H 0.60519 0.85372 0.86663 0.0
C1661 C 0.6355 0.84428 0.92864 0.0
C1662 C 0.64732 0.88344 0.89981 0.0
C1663 C 0.63257 0.8391 0.94586 0.0
C1664 C 0.6184 0.90793 0.83133 0.0
C1665 C 0.62277 0.90224 0.84829 0.0
C1666 C 0.6175 0.86201 0.87565 0.0
C1667 C 0.63251 0.86245 0.92385 0.0
C1668 C 0.63293 0.86763 0.90531 0.0
C1669 C 0.62869 0.88405 0.85198 0.0
C1670 C 0.63142 0.87798 0.87019 0.0
H1671 H 0.62034 0.88044 0.96377 0.0
H1672 H 0.62516 0.88954 0.93356 0.0
H1673 H 0.60647 0.8448 0.89683 0.0
H1674 H 0.62771 0.86762 0.81085 0.0
H1675 H 0.63549 0.85764 0.84061 0.0
C1676 C 0.64209 0.91061 0.44449 0.0
C1677 C 0.64538 0.89775 0.45767 0.0
C1678 C 0.63842 0.90524 0.42739 0.0
C1679 C 0.62018 0.86651 0.39917 0.0
H1680 H 0.66845 0.89258 0.36596 0.0
C1681 C 0.64763 0.83906 0.33143 0.0
C1682 C 0.64938 0.85121 0.31755 0.0
C1683 C 0.64299 0.84525 0.34822 0.0
C1684 C 0.65441 0.88535 0.37498 0.0
H1685 H 0.64622 0.86915 0.46334 0.0
H1686 H 0.6402 0.8597 0.43328 0.0
H1687 H 0.66801 0.90209 0.39598 0.0
H1688 H 0.64659 0.8794 0.31034 0.0
H1689 H 0.63832 0.89027 0.33976 0.0
H1690 H 0.60707 0.84955 0.37813 0.0
C1691 C 0.64018 0.87397 0.43625 0.0
C1692 C 0.65418 0.89078 0.39222 0.0
C1693 C 0.64373 0.87936 0.45346 0.0
C1694 C 0.64547 0.8697 0.32077 0.0
C1695 C 0.6409 0.87593 0.33762 0.0
C1696 C 0.62042 0.86106 0.38189 0.0
C1697 C 0.63811 0.88688 0.42299 0.0
C1698 C 0.63723 0.88136 0.40456 0.0
C1699 C 0.64001 0.86377 0.35156 0.0
C1700 C 0.63776 0.87033 0.36963 0.0
H1701 H 0.64285 0.9249 0.44732 0.0
H1702 H 0.63622 0.91553 0.41755 0.0
H1703 H 0.60659 0.85912 0.40831 0.0
H1704 H 0.65045 0.82471 0.32942 0.0
H1705 H 0.6428 0.83554 0.35865 0.0
C1706 C 0.6209 0.33757 0.4386 0.0
C1707 C 0.6176 0.3507 0.45155 0.0
C1708 C 0.62389 0.34254 0.42132 0.0
C1709 C 0.64124 0.38099 0.39243 0.0
H1710 H 0.59631 0.35312 0.35901 0.0
C1711 C 0.61662 0.40644 0.32367 0.0
C1712 C 0.61694 0.39406 0.30993 0.0
C1713 C 0.62007 0.40062 0.34067 0.0
C1714 C 0.60939 0.36087 0.36811 0.0
H1715 H 0.6156 0.37943 0.45651 0.0
H1716 H 0.62042 0.38817 0.42621 0.0
H1717 H 0.59571 0.34434 0.38927 0.0
H1718 H 0.62189 0.36584 0.30326 0.0
H1719 H 0.62797 0.3556 0.33312 0.0
H1720 H 0.65444 0.39772 0.37124 0.0
C1721 C 0.62103 0.37399 0.42948 0.0
C1722 C 0.60903 0.35585 0.3855 0.0
C1723 C 0.61814 0.36899 0.44685 0.0
C1724 C 0.62149 0.37571 0.31356 0.0
C1725 C 0.62479 0.36985 0.33066 0.0
C1726 C 0.64155 0.38603 0.37503 0.0
C1727 C 0.62353 0.36079 0.41648 0.0
C1728 C 0.62478 0.36592 0.39791 0.0
C1729 C 0.62386 0.38225 0.34442 0.0
C1730 C 0.62541 0.37612 0.36269 0.0
H1731 H 0.62089 0.32335 0.44177 0.0
H1732 H 0.62639 0.33203 0.41172 0.0
H1733 H 0.654 0.38887 0.40158 0.0
H1734 H 0.61324 0.4207 0.32136 0.0
H1735 H 0.61884 0.41051 0.35093 0.0
C1736 C 0.37659 0.62344 0.20451 0.0
C1737 C 0.36447 0.64021 0.20921 0.0
C1738 C 0.38105 0.61913 0.18708 0.0
C1739 C 0.38841 0.63976 0.14369 0.0
H1740 H 0.36323 0.59282 0.12734 0.0
C1741 C 0.37275 0.62289 0.07109 0.0
C1742 C 0.37938 0.60527 0.06566 0.0
C1743 C 0.37421 0.62747 0.08862 0.0
C1744 C 0.37086 0.60589 0.13169 0.0
H1745 H 0.34784 0.66567 0.19926 0.0
H1746 H 0.35547 0.65812 0.16908 0.0
H1747 H 0.35997 0.59983 0.15795 0.0
H1748 H 0.39447 0.57895 0.0742 0.0
H1749 H 0.39771 0.58702 0.10453 0.0
H1750 H 0.39912 0.64586 0.11738 0.0
C1751 C 0.3618 0.64835 0.17879 0.0
C1752 C 0.36895 0.60991 0.14928 0.0
C1753 C 0.35721 0.65261 0.19614 0.0
C1754 C 0.38885 0.5926 0.07798 0.0
C1755 C 0.39052 0.59719 0.09541 0.0
C1756 C 0.39043 0.63572 0.12608 0.0
C1757 C 0.37367 0.63155 0.17403 0.0
C1758 C 0.37745 0.62694 0.15547 0.0
C1759 C 0.38251 0.61454 0.10104 0.0
C1760 C 0.38149 0.61877 0.11984 0.0
H1761 H 0.38249 0.61362 0.21426 0.0
H1762 H 0.39045 0.60611 0.18383 0.0
H1763 H 0.3955 0.65294 0.14809 0.0
H1764 H 0.36527 0.63293 0.06191 0.0
H1765 H 0.36769 0.64094 0.09249 0.0
C1766 C 0.40081 0.09389 0.19714 0.0
C1767 C 0.40011 0.10697 0.21028 0.0
C1768 C 0.39721 0.09878 0.17988 0.0
C1769 C 0.40642 0.13718 0.15049 0.0
H1770 H 0.36213 0.10708 0.11859 0.0
C1771 C 0.39306 0.15716 0.07925 0.0
C1772 C 0.39651 0.14354 0.06679 0.0
C1773 C 0.39037 0.15289 0.09672 0.0
C1774 C 0.37481 0.11554 0.12729 0.0
H1775 H 0.39445 0.13546 0.21557 0.0
H1776 H 0.38813 0.14405 0.18526 0.0
H1777 H 0.36256 0.09969 0.14929 0.0
H1778 H 0.39897 0.11465 0.06289 0.0
H1779 H 0.39469 0.10712 0.09355 0.0
H1780 H 0.41916 0.15283 0.12855 0.0
C1781 C 0.39169 0.12999 0.1884 0.0
C1782 C 0.37499 0.11133 0.1449 0.0
C1783 C 0.39515 0.12507 0.20576 0.0
C1784 C 0.39627 0.12545 0.07217 0.0
C1785 C 0.39372 0.12115 0.08974 0.0
C1786 C 0.40629 0.14135 0.1329 0.0
C1787 C 0.39291 0.11689 0.17525 0.0
C1788 C 0.39099 0.12203 0.1567 0.0
C1789 C 0.39123 0.13486 0.10226 0.0
C1790 C 0.39062 0.13054 0.12105 0.0
H1791 H 0.40452 0.07981 0.20014 0.0
H1792 H 0.39867 0.08837 0.17011 0.0
H1793 H 0.41938 0.14552 0.15916 0.0
H1794 H 0.3928 0.17124 0.07555 0.0
H1795 H 0.3878 0.16378 0.10592 0.0
C1796 C 0.38359 0.13089 0.70443 0.0
C1797 C 0.356 0.12608 0.71174 0.0
C1798 C 0.38768 0.13049 0.6865 0.0
C1799 C 0.34348 0.13306 0.64642 0.0
H1800 H 0.41596 0.11707 0.62381 0.0
C1801 C 0.34893 0.12005 0.57345 0.0
C1802 C 0.37483 0.12487 0.56432 0.0
C1803 C 0.34788 0.12133 0.5914 0.0
C1804 C 0.39574 0.12183 0.62996 0.0
H1805 H 0.3117 0.11601 0.70599 0.0
H1806 H 0.31898 0.11502 0.6749 0.0
H1807 H 0.4123 0.1159 0.6553 0.0
H1808 H 0.41984 0.13516 0.56698 0.0
H1809 H 0.41792 0.13749 0.5985 0.0
H1810 H 0.3268 0.13891 0.6212 0.0
C1811 C 0.33725 0.11954 0.68295 0.0
C1812 C 0.39361 0.12111 0.64799 0.0
C1813 C 0.33316 0.11997 0.70081 0.0
C1814 C 0.39952 0.13138 0.57361 0.0
C1815 C 0.39851 0.13257 0.59167 0.0
C1816 C 0.34561 0.13378 0.62846 0.0
C1817 C 0.36426 0.12526 0.67553 0.0
C1818 C 0.36727 0.12647 0.65642 0.0
C1819 C 0.37271 0.12743 0.60077 0.0
C1820 C 0.37158 0.12795 0.61997 0.0
H1821 H 0.40164 0.13571 0.71248 0.0
H1822 H 0.40874 0.135 0.68121 0.0
H1823 H 0.32315 0.13774 0.6525 0.0
H1824 H 0.32948 0.11498 0.56674 0.0
H1825 H 0.32778 0.11704 0.59798 0.0
C1826 C 0.39773 0.62525 0.7051 0.0
C1827 C 0.40711 0.60773 0.70935 0.0
C1828 C 0.3932 0.63012 0.68782 0.0
C1829 C 0.381 0.61076 0.64416 0.0
H1830 H 0.41317 0.65628 0.62822 0.0
C1831 C 0.39839 0.62765 0.57172 0.0
C1832 C 0.3939 0.64558 0.56649 0.0
C1833 C 0.39663 0.62296 0.58921 0.0
C1834 C 0.40361 0.64364 0.63247 0.0
H1835 H 0.41865 0.58152 0.69876 0.0
H1836 H 0.41098 0.59003 0.66886 0.0
H1837 H 0.41595 0.64863 0.65872 0.0
H1838 H 0.38243 0.67244 0.57542 0.0
H1839 H 0.37882 0.66422 0.6057 0.0
H1840 H 0.36897 0.60569 0.61785 0.0
C1841 C 0.4068 0.59998 0.6788 0.0
C1842 C 0.40522 0.63926 0.64999 0.0
C1843 C 0.41143 0.59515 0.69599 0.0
C1844 C 0.38635 0.65853 0.57901 0.0
C1845 C 0.38447 0.65384 0.59642 0.0
C1846 C 0.37935 0.61515 0.62663 0.0
C1847 C 0.39778 0.61753 0.67447 0.0
C1848 C 0.3942 0.6227 0.65603 0.0
C1849 C 0.39022 0.6361 0.60181 0.0
C1850 C 0.39084 0.63159 0.62054 0.0
H1851 H 0.39414 0.63524 0.71509 0.0
H1852 H 0.386 0.64372 0.68491 0.0
H1853 H 0.37192 0.59799 0.64843 0.0
H1854 H 0.40433 0.61737 0.56239 0.0
H1855 H 0.40139 0.60918 0.59291 0.0
C1856 C 0.28078 0.34225 0.23811 0.0
C1857 C 0.26271 0.34514 0.25265 0.0
C1858 C 0.31067 0.34765 0.23811 0.0
C1859 C 0.3724 0.36295 0.26708 0.0
H1860 H 0.40522 0.38103 0.22414 0.0
C1861 C 0.48936 0.39653 0.26174 0.0
C1862 C 0.50772 0.38851 0.2492 0.0
C1863 C 0.45882 0.39251 0.26234 0.0
C1864 C 0.39631 0.37602 0.23622 0.0
H1865 H 0.26201 0.35574 0.27874 0.0
H1866 H 0.31366 0.36564 0.27858 0.0
H1867 H 0.35361 0.37087 0.22511 0.0
H1868 H 0.50839 0.37065 0.22705 0.0
H1869 H 0.45517 0.36409 0.2278 0.0
H1870 H 0.41524 0.36853 0.27817 0.0
C1871 C 0.30513 0.35882 0.26727 0.0
C1872 C 0.36679 0.37002 0.23677 0.0
C1873 C 0.27538 0.35317 0.26735 0.0
C1874 C 0.49482 0.37699 0.2369 0.0
C1875 C 0.46433 0.37328 0.23728 0.0
C1876 C 0.40182 0.36922 0.26658 0.0
C1877 C 0.32313 0.35635 0.25257 0.0
C1878 C 0.35449 0.36315 0.25215 0.0
C1879 C 0.44609 0.38075 0.25015 0.0
C1880 C 0.41416 0.37561 0.25109 0.0
H1881 H 0.27175 0.33599 0.22662 0.0
H1882 H 0.32393 0.34506 0.2267 0.0
H1883 H 0.36398 0.35756 0.27912 0.0
H1884 H 0.49877 0.40539 0.27143 0.0
H1885 H 0.44517 0.39851 0.27235 0.0
C1886 C 0.78047 0.85102 0.26916 0.0
C1887 C 0.76925 0.84259 0.25427 0.0
C1888 C 0.81024 0.85657 0.26997 0.0
C1889 C 0.87511 0.86662 0.24139 0.0
H1890 H 0.91924 0.86609 0.2844 0.0
C1891 C 1.00294 0.87289 0.24554 0.0
C1892 C 0.0148 0.8849 0.25777 0.0
C1893 C 0.97244 0.86924 0.24513 0.0
C1894 C 0.90703 0.86651 0.27235 0.0
H1895 H 0.78088 0.83265 0.22885 0.0
H1896 H 0.83304 0.84156 0.2305 0.0
H1897 H 0.86776 0.85543 0.28387 0.0
H1898 H 1.00399 0.90264 0.27908 0.0
H1899 H 0.95033 0.89584 0.27865 0.0
H1900 H 0.91495 0.87703 0.2298 0.0
C1901 C 0.81865 0.84453 0.24136 0.0
C1902 C 0.87749 0.86042 0.27201 0.0
C1903 C 0.78877 0.83922 0.24046 0.0
C1904 C 0.99541 0.89339 0.26948 0.0
C1905 C 0.96483 0.88942 0.2693 0.0
C1906 C 0.90474 0.87244 0.24169 0.0
C1907 C 0.82971 0.85361 0.25599 0.0
C1908 C 0.86114 0.86027 0.25649 0.0
C1909 C 0.95312 0.87726 0.25714 0.0
C1910 C 0.92105 0.87235 0.25714 0.0
H1911 H 0.76597 0.85395 0.27999 0.0
H1912 H 0.81767 0.86369 0.28137 0.0
H1913 H 0.86316 0.8672 0.22927 0.0
H1914 H 0.01731 0.8662 0.23629 0.0
H1915 H 0.96407 0.85973 0.2357 0.0
C1916 C 0.27713 0.89969 1.00826 0.0
C1917 C 0.26519 0.90624 0.02383 0.0
C1918 C 0.30681 0.89393 1.00736 0.0
C1919 C 0.36934 0.87931 0.03589 0.0
H1920 H 0.41628 0.88406 0.9941 0.0
C1921 C 0.49713 0.87152 0.03346 0.0
C1922 C 0.50936 0.86084 0.02025 0.0
C1923 C 0.46672 0.8755 0.03373 0.0
C1924 C 0.40327 0.88245 1.00578 0.0
H1925 H 0.27548 0.91273 0.05042 0.0
H1926 H 0.32751 0.90352 0.04869 0.0
H1927 H 0.36529 0.89557 0.99479 0.0
H1928 H 0.4993 0.84576 0.99704 0.0
H1929 H 0.44582 0.85316 0.99726 0.0
H1930 H 0.40793 0.86686 0.04703 0.0
C1931 C 0.31374 0.90214 0.0373 0.0
C1932 C 0.374 0.88904 1.00621 0.0
C1933 C 0.28394 0.90763 0.03827 0.0
C1934 C 0.49041 0.85394 1.00742 0.0
C1935 C 0.45994 0.85826 1.00749 0.0
C1936 C 0.39871 0.87301 0.03553 0.0
C1937 C 0.32546 0.8948 0.02195 0.0
C1938 C 0.35665 0.88767 0.02132 0.0
C1939 C 0.44788 0.86917 0.02062 0.0
C1940 C 0.41602 0.8746 0.02051 0.0
H1941 H 0.26323 0.8983 0.99692 0.0
H1942 H 0.31474 0.8882 0.99536 0.0
H1943 H 0.35658 0.87752 0.04763 0.0
H1944 H 0.51117 0.87699 0.04355 0.0
H1945 H 0.45809 0.88402 0.04394 0.0
C1946 C 0.99738 0.37338 0.0335 0.0
C1947 C 1.00973 0.3614 0.02142 0.0
C1948 C 0.96715 0.37779 0.03296 0.0
C1949 C 0.89412 0.36453 0.01376 0.0
H1950 H 0.87361 0.41387 0.02548 0.0
C1951 C 0.77649 0.39499 1.00284 0.0
C1952 C 0.76398 0.40385 0.01718 0.0
C1953 C 0.80653 0.38991 1.00284 0.0
C1954 C 0.87899 0.40003 0.02226 0.0
H1955 H 1.0 0.34429 0.9995 0.0
H1956 H 0.94717 0.35243 0.99813 0.0
H1957 H 0.92548 0.40429 0.02641 0.0
H1958 H 0.77347 0.41479 0.04254 0.0
H1959 H 0.82612 0.40627 0.04234 0.0
H1960 H 0.84741 0.36057 1.0092 0.0
C1961 C 0.96071 0.35815 1.0083 0.0
C1962 C 0.90873 0.39446 0.02288 0.0
C1963 C 0.99101 0.35349 1.00904 0.0
C1964 C 0.78241 0.40799 0.03129 0.0
C1965 C 0.81256 0.40315 0.03117 0.0
C1966 C 0.86437 0.3702 0.01291 0.0
C1967 C 0.94849 0.37062 0.02009 0.0
C1968 C 0.91673 0.37657 0.01885 0.0
C1969 C 0.82482 0.39383 0.01705 0.0
C1970 C 0.85648 0.38797 0.01731 0.0
H1971 H 0.01119 0.37952 0.04334 0.0
H1972 H 0.95852 0.38697 0.04261 0.0
H1973 H 0.89926 0.35062 1.01076 0.0
H1974 H 0.76289 0.39153 0.99179 0.0
H1975 H 0.81547 0.38289 0.99172 0.0
C1976 C 0.74707 0.64916 0.75919 0.0
C1977 C 0.76609 0.6342 0.75752 0.0
C1978 C 0.71607 0.64683 0.75964 0.0
C1979 C 0.65629 0.61407 0.74873 0.0
H1980 H 0.6098 0.64183 0.7815 0.0
C1981 C 0.53123 0.59954 0.76229 0.0
C1982 C 0.51253 0.61468 0.76374 0.0
C1983 C 0.56228 0.60164 0.76157 0.0
C1984 C 0.62241 0.63408 0.77216 0.0
H1985 H 0.76737 0.60508 0.75483 0.0
H1986 H 0.71366 0.60105 0.75579 0.0
H1987 H 0.66349 0.64649 0.77965 0.0
H1988 H 0.51188 0.64389 0.76559 0.0
H1989 H 0.56561 0.64749 0.76424 0.0
H1990 H 0.61516 0.60164 0.74128 0.0
C1991 C 0.72253 0.61461 0.75654 0.0
C1992 C 0.6532 0.63679 0.77107 0.0
C1993 C 0.75342 0.61692 0.75609 0.0
C1994 C 0.52556 0.6319 0.76452 0.0
C1995 C 0.55645 0.63398 0.76386 0.0
C1996 C 0.62549 0.61134 0.74984 0.0
C1997 C 0.70344 0.6295 0.7584 0.0
C1998 C 0.67055 0.62684 0.75933 0.0
C1999 C 0.57523 0.61891 0.76237 0.0
C2000 C 0.60815 0.62136 0.76153 0.0
H2001 H 0.7561 0.66265 0.7603 0.0
H2002 H 0.702 0.65863 0.76087 0.0
H2003 H 0.66889 0.60634 0.73937 0.0
H2004 H 0.5219 0.58609 0.76166 0.0
H2005 H 0.57615 0.58973 0.76057 0.0
C2006 C 0.02489 0.12903 0.75207 0.0
C2007 C 0.01153 0.11313 0.75823 0.0
C2008 C 0.05567 0.13155 0.75326 0.0
C2009 C 0.12123 0.11671 0.77799 0.0
H2010 H 0.16569 0.13889 0.74067 0.0
C2011 C 0.24958 0.12003 0.77778 0.0
C2012 C 0.26357 0.13552 0.77115 0.0
C2013 C 0.21877 0.1178 0.77647 0.0
C2014 C 0.15354 0.13293 0.75131 0.0
H2015 H 0.02018 0.08725 0.77021 0.0
H2016 H 0.07414 0.09163 0.77223 0.0
H2017 H 0.11244 0.13326 0.73727 0.0
H2018 H 0.25595 0.161 0.7582 0.0
H2019 H 0.20186 0.15722 0.75611 0.0
H2020 H 0.16223 0.11644 0.79207 0.0
C2021 C 0.06065 0.10222 0.76661 0.0
C2022 C 0.12302 0.12963 0.74934 0.0
C2023 C 0.02978 0.09965 0.76534 0.0
C2024 C 0.24587 0.14891 0.76343 0.0
C2025 C 0.21491 0.14667 0.76212 0.0
C2026 C 0.15171 0.12005 0.77998 0.0
C2027 C 0.07391 0.11827 0.7607 0.0
C2028 C 0.10651 0.12144 0.76264 0.0
C2029 C 0.20102 0.13101 0.76853 0.0
C2030 C 0.1683 0.12814 0.76664 0.0
H2031 H 0.01152 0.13971 0.74651 0.0
H2032 H 0.06507 0.14415 0.74875 0.0
H2033 H 0.10908 0.1107 0.7886 0.0
H2034 H 0.26248 0.1094 0.78378 0.0
H2035 H 0.20898 0.10546 0.78133 0.0
C2036 C 0.52341 0.12227 0.02746 0.0
C2037 C 0.50947 0.13755 0.02036 0.0
C2038 C 0.55424 0.12 0.02627 0.0
C2039 C 0.61962 0.13473 1.00084 0.0
H2040 H 0.66404 0.11287 0.03832 0.0
C2041 C 0.7482 0.13175 1.00204 0.0
C2042 C 0.7618 0.11582 1.00793 0.0
C2043 C 0.71738 0.13408 1.00326 0.0
C2044 C 0.65189 0.11879 0.02766 0.0
H2045 H 0.51721 0.16267 1.00681 0.0
H2046 H 0.57129 0.15889 1.00502 0.0
H2047 H 0.61081 0.11853 0.0417 0.0
H2048 H 0.75354 0.0897 0.01952 0.0
H2049 H 0.69947 0.09378 0.02166 0.0
H2050 H 0.66085 0.13514 0.98688 0.0
C2051 C 0.5582 0.14849 1.01124 0.0
C2052 C 0.62136 0.12207 0.02959 0.0
C2053 C 0.52724 0.15074 0.01238 0.0
C2054 C 0.74375 0.10212 0.01487 0.0
C2055 C 0.71283 0.10452 0.0162 0.0
C2056 C 0.65018 0.13154 0.99894 0.0
C2057 C 0.57206 0.13299 0.01803 0.0
C2058 C 0.60479 0.13005 0.01619 0.0
C2059 C 0.69934 0.12058 1.01048 0.0
C2060 C 0.66667 0.12351 1.01232 0.0
H2061 H 0.51045 0.1118 0.03366 0.0
H2062 H 0.56399 0.10778 0.03144 0.0
H2063 H 0.60753 0.14058 0.99012 0.0
H2064 H 0.7614 0.14259 0.99662 0.0
H2065 H 0.70777 0.14668 0.99891 0.0
C2066 C 0.24906 0.62712 0.02547 0.0
C2067 C 0.26218 0.61103 0.01956 0.0
C2068 C 0.21831 0.62978 0.02434 0.0
C2069 C 0.15173 0.61393 1.00069 0.0
H2070 H 0.10909 0.63978 0.03656 0.0
C2071 C 0.02341 0.61879 1.00256 0.0
C2072 C 1.01039 0.63532 1.00733 0.0
C2073 C 0.05417 0.61622 1.00372 0.0
C2074 C 0.12074 0.63274 0.02633 0.0
H2075 H 0.25304 0.58491 1.0082 0.0
H2076 H 0.19909 0.58942 1.00651 0.0
H2077 H 0.16215 0.63361 0.03999 0.0
H2078 H 0.01965 0.66221 0.01685 0.0
H2079 H 0.07367 0.6577 0.01887 0.0
H2080 H 0.1102 0.61293 0.98712 0.0
C2081 C 0.21276 0.60012 1.01175 0.0
C2082 C 0.15118 0.62916 0.0283 0.0
C2083 C 0.24365 0.59746 0.01285 0.0
C2084 C 0.02898 0.64933 0.01307 0.0
C2085 C 0.05987 0.6467 0.01434 0.0
C2086 C 0.12127 0.61744 0.99876 0.0
C2087 C 0.19974 0.61641 0.01733 0.0
C2088 C 0.1671 0.61972 0.01549 0.0
C2089 C 0.07278 0.63007 1.00975 0.0
C2090 C 0.1054 0.62689 1.01155 0.0
H2091 H 0.26261 0.6379 0.03068 0.0
H2092 H 0.20923 0.64258 0.02854 0.0
H2093 H 0.16333 0.60694 0.99041 0.0
H2094 H 1.0098 0.60769 0.99808 0.0
H2095 H 0.06329 0.60318 1.00027 0.0
C2096 C 0.49296 0.89688 0.73333 0.0
C2097 C 0.50868 0.89925 0.74885 0.0
C2098 C 0.46346 0.89082 0.73346 0.0
C2099 C 0.39716 0.88441 0.76161 0.0
H2100 H 0.37531 0.84924 0.7268 0.0
C2101 C 0.28399 0.84718 0.76321 0.0
C2102 C 0.26841 0.84646 0.74748 0.0
C2103 C 0.31385 0.85264 0.76367 0.0
C2104 C 0.38099 0.85914 0.73654 0.0
H2105 H 0.5053 0.89764 0.77673 0.0
H2106 H 0.45394 0.88687 0.77695 0.0
H2107 H 0.42558 0.86168 0.72706 0.0
H2108 H 0.27246 0.8502 0.71982 0.0
H2109 H 0.32446 0.85962 0.72062 0.0
H2110 H 0.35252 0.88177 0.77111 0.0
C2111 C 0.46431 0.88988 0.76466 0.0
C2112 C 0.4098 0.86634 0.73665 0.0
C2113 C 0.49383 0.89603 0.76454 0.0
C2114 C 0.28376 0.85059 0.73216 0.0
C2115 C 0.31363 0.85595 0.73261 0.0
C2116 C 0.36837 0.87714 0.76153 0.0
C2117 C 0.44893 0.88688 0.7491 0.0
C2118 C 0.41822 0.87917 0.74912 0.0
C2119 C 0.32887 0.85739 0.7484 0.0
C2120 C 0.35989 0.86449 0.74893 0.0
H2121 H 0.50364 0.89935 0.72102 0.0
H2122 H 0.45211 0.88907 0.72124 0.0
H2123 H 0.40272 0.8944 0.77127 0.0
H2124 H 0.27288 0.84408 0.77527 0.0
H2125 H 0.32509 0.85335 0.77601 0.0
C2126 C 0.77019 0.37869 0.74113 0.0
C2127 C 0.75901 0.36455 0.75129 0.0
C2128 C 0.80021 0.3835 0.74192 0.0
C2129 C 0.87484 0.36808 0.75676 0.0
H2130 H 0.89303 0.41907 0.7531 0.0
C2131 C 0.99325 0.3971 0.76797 0.0
C2132 C 1.00369 0.409 0.75518 0.0
C2133 C 0.96334 0.39178 0.76832 0.0
C2134 C 0.88832 0.40478 0.75405 0.0
H2135 H 0.77068 0.34407 0.77001 0.0
H2136 H 0.82325 0.35279 0.7718 0.0
H2137 H 0.84137 0.4091 0.75221 0.0
H2138 H 0.99062 0.42503 0.73304 0.0
H2139 H 0.93829 0.41597 0.73386 0.0
H2140 H 0.92202 0.36393 0.7589 0.0
C2141 C 0.80885 0.35998 0.76296 0.0
C2142 C 0.85869 0.39902 0.75346 0.0
C2143 C 0.77872 0.35498 0.76199 0.0
C2144 C 0.98333 0.41587 0.74307 0.0
C2145 C 0.95333 0.41071 0.74356 0.0
C2146 C 0.90452 0.37389 0.75755 0.0
C2147 C 0.81988 0.3745 0.75311 0.0
C2148 C 0.85152 0.38056 0.75456 0.0
C2149 C 0.94311 0.39842 0.75604 0.0
C2150 C 0.91157 0.39229 0.756 0.0
H2151 H 0.75566 0.38616 0.73256 0.0
H2152 H 0.80794 0.39437 0.73374 0.0
H2153 H 0.87029 0.35376 0.75746 0.0
H2154 H 1.00832 0.39151 0.77748 0.0
H2155 H 0.95603 0.38244 0.7782 0.0
C2156 C 0.28044 0.39975 0.51441 0.0
C2157 C 0.26509 0.39963 0.53024 0.0
C2158 C 0.31006 0.39389 0.51344 0.0
C2159 C 0.3644 0.36539 0.537 0.0
H2160 H 0.42181 0.38757 0.50621 0.0
C2161 C 0.49049 0.34871 0.53827 0.0
C2162 C 0.50554 0.34755 0.52239 0.0
C2163 C 0.46072 0.35429 0.53897 0.0
C2164 C 0.40593 0.38109 0.51472 0.0
H2165 H 0.26931 0.39402 0.55759 0.0
H2166 H 0.32108 0.38424 0.55597 0.0
H2167 H 0.37155 0.39995 0.50828 0.0
H2168 H 0.5007 0.3508 0.4947 0.0
H2169 H 0.44872 0.36047 0.49595 0.0
H2170 H 0.39895 0.34666 0.54356 0.0
C2171 C 0.31004 0.38842 0.54421 0.0
C2172 C 0.3771 0.3882 0.51592 0.0
C2173 C 0.2804 0.39419 0.54517 0.0
C2174 C 0.48982 0.35155 0.50716 0.0
C2175 C 0.46009 0.35724 0.50788 0.0
C2176 C 0.39326 0.35834 0.53585 0.0
C2177 C 0.32509 0.38785 0.52829 0.0
C2178 C 0.35595 0.38046 0.5271 0.0
C2179 C 0.44533 0.35894 0.52381 0.0
C2180 C 0.41438 0.36611 0.52471 0.0
H2181 H 0.26929 0.40378 0.50263 0.0
H2182 H 0.3208 0.3935 0.50093 0.0
H2183 H 0.34857 0.35883 0.54548 0.0
H2184 H 0.5019 0.34574 0.55025 0.0
H2185 H 0.45008 0.35556 0.55147 0.0
C2186 C 1.00012 0.87889 0.52896 0.0
C2187 C 0.01119 0.86489 0.51856 0.0
C2188 C 0.97004 0.88362 0.52847 0.0
C2189 C 0.89517 0.8681 0.51408 0.0
H2190 H 0.87639 0.91891 0.51899 0.0
C2191 C 0.77594 0.89695 0.50499 0.0
C2192 C 0.76583 0.90828 0.51833 0.0
C2193 C 0.80592 0.8918 0.50406 0.0
C2194 C 0.88128 0.90468 0.51768 0.0
H2195 H 0.99925 0.84459 0.49972 0.0
H2196 H 0.94656 0.85318 0.49844 0.0
H2197 H 0.92822 0.90918 0.51906 0.0
H2198 H 0.77953 0.92353 0.54085 0.0
H2199 H 0.83197 0.91483 0.539 0.0
H2200 H 0.84797 0.86379 0.51237 0.0
C2201 C 0.9611 0.86032 0.50724 0.0
C2202 C 0.91101 0.89904 0.51781 0.0
C2203 C 0.99131 0.8554 0.50792 0.0
C2204 C 0.78657 0.9148 0.5304 0.0
C2205 C 0.81662 0.90985 0.52933 0.0
C2206 C 0.86539 0.87379 0.51373 0.0
C2207 C 0.95017 0.87469 0.51736 0.0
C2208 C 0.9184 0.88064 0.51629 0.0
C2209 C 0.82653 0.89809 0.5163 0.0
C2210 C 0.85814 0.89212 0.51575 0.0
H2211 H 0.01479 0.88631 0.53749 0.0
H2212 H 0.96242 0.89436 0.53686 0.0
H2213 H 0.89988 0.85382 0.51306 0.0
H2214 H 0.76056 0.89163 0.4955 0.0
H2215 H 0.81299 0.88286 0.49378 0.0
C2216 C 0.52221 0.13081 0.26122 0.0
C2217 C 0.50885 0.11371 0.26253 0.0
C2218 C 0.55317 0.13264 0.26138 0.0
C2219 C 0.62224 0.10936 0.2746 0.0
H2220 H 0.65999 0.14434 0.24449 0.0
C2221 C 0.74993 0.11359 0.26629 0.0
C2222 C 0.76303 0.13078 0.26531 0.0
C2223 C 0.71898 0.1116 0.26614 0.0
C2224 C 0.64977 0.13468 0.25313 0.0
H2225 H 0.51768 0.08509 0.26494 0.0
H2226 H 0.57199 0.08828 0.26504 0.0
H2227 H 0.60612 0.1402 0.24336 0.0
H2228 H 0.75378 0.1594 0.26352 0.0
H2229 H 0.69953 0.15593 0.26335 0.0
H2230 H 0.66595 0.10381 0.28434 0.0
C2231 C 0.55837 0.1003 0.26409 0.0
C2232 C 0.61887 0.13227 0.25247 0.0
C2233 C 0.52727 0.09845 0.26392 0.0
C2234 C 0.74439 0.14597 0.26427 0.0
C2235 C 0.71333 0.14397 0.26407 0.0
C2236 C 0.65316 0.11175 0.27525 0.0
C2237 C 0.57169 0.11744 0.26283 0.0
C2238 C 0.6047 0.11961 0.26322 0.0
C2239 C 0.70027 0.12674 0.26499 0.0
C2240 C 0.6673 0.12445 0.26453 0.0
H2241 H 0.50875 0.14288 0.26019 0.0
H2242 H 0.56259 0.14607 0.26067 0.0
H2243 H 0.61204 0.09971 0.28327 0.0
H2244 H 0.76358 0.10157 0.26707 0.0
H2245 H 0.70972 0.09812 0.26662 0.0
C2246 C 0.02417 0.6289 0.26201 0.0
C2247 C 0.01117 0.61171 0.26341 0.0
C2248 C 0.05507 0.631 0.26238 0.0
C2249 C 0.1245 0.60859 0.27626 0.0
H2250 H 0.16172 0.64337 0.24571 0.0
C2251 C 0.25214 0.61387 0.26834 0.0
C2252 C 0.26485 0.63115 0.26705 0.0
C2253 C 0.22125 0.6116 0.26817 0.0
C2254 C 0.15165 0.63377 0.25447 0.0
H2255 H 0.02058 0.5832 0.26626 0.0
H2256 H 0.07483 0.58686 0.26675 0.0
H2257 H 0.10799 0.63867 0.24441 0.0
H2258 H 0.25494 0.65965 0.26468 0.0
H2259 H 0.20077 0.65569 0.26447 0.0
H2260 H 0.16821 0.60366 0.28629 0.0
C2261 C 0.06095 0.59874 0.26555 0.0
C2262 C 0.12083 0.63104 0.25372 0.0
C2263 C 0.02989 0.59663 0.26517 0.0
C2264 C 0.24586 0.64616 0.26568 0.0
C2265 C 0.21484 0.64387 0.26546 0.0
C2266 C 0.15534 0.6113 0.277 0.0
C2267 C 0.0739 0.61598 0.26414 0.0
C2268 C 0.10685 0.61845 0.26463 0.0
C2269 C 0.20219 0.62655 0.26667 0.0
C2270 C 0.16929 0.62394 0.26613 0.0
H2271 H 1.01048 0.64085 0.26071 0.0
H2272 H 0.06419 0.64449 0.26155 0.0
H2273 H 0.11443 0.599 0.28503 0.0
H2274 H 0.26606 0.60199 0.26938 0.0
H2275 H 0.21231 0.59806 0.26888 0.0
C2276 C 0.75182 0.63071 0.52057 0.0
C2277 C 0.76394 0.6134 0.51817 0.0
C2278 C 0.721 0.63337 0.52064 0.0
C2279 C 0.65037 0.61236 0.5064 0.0
H2280 H 0.61475 0.6473 0.53747 0.0
C2281 C 0.52327 0.61878 0.51499 0.0
C2282 C 0.51095 0.63621 0.5157 0.0
C2283 C 0.55408 0.61624 0.51542 0.0
C2284 C 0.62441 0.63765 0.52859 0.0
H2285 H 0.75307 0.58523 0.51423 0.0
H2286 H 0.69909 0.58981 0.51467 0.0
H2287 H 0.66836 0.64185 0.53852 0.0
H2288 H 0.52149 0.66466 0.51753 0.0
H2289 H 0.57561 0.66019 0.5183 0.0
H2290 H 0.60635 0.60807 0.4966 0.0
C2291 C 0.71352 0.6014 0.5162 0.0
C2292 C 0.65515 0.6345 0.52918 0.0
C2293 C 0.74445 0.59874 0.51606 0.0
C2294 C 0.53026 0.65107 0.51697 0.0
C2295 C 0.56123 0.6485 0.51749 0.0
C2296 C 0.61964 0.61545 0.50588 0.0
C2297 C 0.70141 0.61878 0.51841 0.0
C2298 C 0.66855 0.62182 0.51808 0.0
C2299 C 0.57346 0.63104 0.51662 0.0
C2300 C 0.60628 0.62812 0.51697 0.0
H2301 H 0.76614 0.64234 0.52216 0.0
H2302 H 0.71258 0.64697 0.52209 0.0
H2303 H 0.65994 0.60277 0.49744 0.0
H2304 H 0.5091 0.607 0.51406 0.0
H2305 H 0.56273 0.60261 0.51499 0.0
C2306 C 0.02455 0.15148 0.51191 0.0
C2307 C 1.00559 0.1367 0.51477 0.0
C2308 C 0.05552 0.14905 0.51113 0.0
C2309 C 0.11554 0.11691 0.52325 0.0
H2310 H 0.16092 0.14192 0.48805 0.0
C2311 C 0.23987 0.10077 0.50984 0.0
C2312 C 0.25871 0.1157 0.50748 0.0
C2313 C 0.20884 0.10302 0.51025 0.0
C2314 C 0.14862 0.13494 0.49805 0.0
H2315 H 1.00439 0.10782 0.51924 0.0
H2316 H 0.05798 0.10361 0.51774 0.0
H2317 H 0.10736 0.14705 0.49038 0.0
H2318 H 0.25963 0.14465 0.50337 0.0
H2319 H 0.20591 0.14853 0.50418 0.0
H2320 H 0.1568 0.1048 0.53092 0.0
C2321 C 0.04912 0.11711 0.5163 0.0
C2322 C 0.11791 0.13793 0.49942 0.0
C2323 C 0.01829 0.11953 0.51705 0.0
C2324 C 0.24583 0.13283 0.50521 0.0
C2325 C 0.21494 0.13506 0.50557 0.0
C2326 C 0.14624 0.11391 0.52187 0.0
C2327 C 0.06816 0.1318 0.51325 0.0
C2328 C 0.10098 0.12896 0.51204 0.0
C2329 C 0.19603 0.12023 0.50822 0.0
C2330 C 0.16317 0.12291 0.50928 0.0
H2331 H 0.01548 0.16488 0.5101 0.0
H2332 H 0.06958 0.16069 0.50896 0.0
H2333 H 0.10327 0.10996 0.53328 0.0
H2334 H 0.24908 0.0874 0.51162 0.0
H2335 H 0.19487 0.09128 0.51213 0.0
loop_
_geom_bond_atom_site_label_1
_geom_bond_atom_site_label_2
_geom_bond_distance
_geom_bond_site_symmetry_2
_ccdc_geom_bond_type
Mg0 O7 2.141 . S
Mg0 O8 2.048 . S
Mg0 O9 2.048 . S
Mg0 O12 2.141 . S
C1 O2 1.313 . S
C1 O8 1.195 . S
O2 C1 1.313 . S
C3 O4 1.245 . S
C3 O12 1.289 . S
O4 C3 1.245 . S
C5 O6 1.245 . S
C5 O7 1.289 . S
O6 C5 1.245 . S
O7 Mg0 2.141 . S
O7 C5 1.289 . S
O8 Mg0 2.048 . S
O8 C1 1.195 . S
O9 Mg0 2.048 . S
O9 C10 1.195 . S
C10 O9 1.195 . S
C10 O11 1.313 . S
O11 C10 1.313 . S
O12 Mg0 2.141 . S
O12 C3 1.289 . S
Mg13 O20 2.141 . S
Mg13 O21 2.048 . S
Mg13 O22 2.048 . S
Mg13 O25 2.141 . S
C14 O15 1.313 . S
C14 O21 1.195 . S
O15 C14 1.313 . S
C16 O17 1.245 . S
C16 O25 1.289 . S
O17 C16 1.245 . S
C18 O19 1.245 . S
C18 O20 1.289 . S
O19 C18 1.245 . S
O20 Mg13 2.141 . S
O20 C18 1.289 . S
O21 Mg13 2.048 . S
O21 C14 1.195 . S
O22 Mg13 2.048 . S
O22 C23 1.195 . S
C23 O22 1.195 . S
C23 O24 1.313 . S
O24 C23 1.313 . S
O25 Mg13 2.141 . S
O25 C16 1.289 . S
Mg26 O33 2.142 1_554 S
Mg26 O34 2.046 . S
Mg26 O35 2.047 . S
Mg26 O38 2.143 1_554 S
C27 O28 1.313 . S
C27 O34 1.195 . S
O28 C27 1.313 . S
C29 O30 1.245 . S
C29 O38 1.289 . S
O30 C29 1.245 . S
C31 O32 1.249 . S
C31 O33 1.289 . S
O32 C31 1.249 . S
O33 Mg26 2.142 1_556 S
O33 C31 1.289 . S
O34 Mg26 2.046 . S
O34 C27 1.195 . S
O35 Mg26 2.047 . S
O35 C36 1.200 . S
C36 O35 1.200 . S
C36 O37 1.313 . S
O37 C36 1.313 . S
O38 Mg26 2.143 1_556 S
O38 C29 1.289 . S
Mg39 O46 2.142 1_554 S
Mg39 O47 2.046 . S
Mg39 O48 2.047 . S
Mg39 O51 2.143 1_554 S
C40 O41 1.313 . S
C40 O47 1.195 . S
O41 C40 1.313 . S
C42 O43 1.245 . S
C42 O51 1.289 . S
O43 C42 1.245 . S
C44 O45 1.249 . S
C44 O46 1.289 . S
O45 C44 1.249 . S
O46 Mg39 2.142 1_556 S
O46 C44 1.289 . S
O47 Mg39 2.046 . S
O47 C40 1.195 . S
O48 Mg39 2.047 . S
O48 C49 1.200 . S
C49 O48 1.200 . S
C49 O50 1.313 . S
O50 C49 1.313 . S
O51 Mg39 2.143 1_556 S
O51 C42 1.289 . S
Mg52 O59 2.141 . S
Mg52 O60 2.048 . S
Mg52 O61 2.048 . S
Mg52 O64 2.141 . S
C53 O54 1.313 . S
C53 O60 1.195 . S
O54 C53 1.313 . S
C55 O56 1.245 . S
C55 O64 1.289 . S
O56 C55 1.245 . S
C57 O58 1.245 . S
C57 O59 1.289 . S
O58 C57 1.245 . S
O59 Mg52 2.141 . S
O59 C57 1.289 . S
O60 Mg52 2.048 . S
O60 C53 1.195 . S
O61 Mg52 2.048 . S
O61 C62 1.195 . S
C62 O61 1.195 . S
C62 O63 1.313 . S
O63 C62 1.313 . S
O64 Mg52 2.141 . S
O64 C55 1.289 . S
Mg65 O72 2.141 . S
Mg65 O73 2.048 . S
Mg65 O74 2.048 . S
Mg65 O77 2.141 . S
C66 O67 1.313 . S
C66 O73 1.195 . S
O67 C66 1.313 . S
C68 O69 1.245 . S
C68 O77 1.289 . S
O69 C68 1.245 . S
C70 O71 1.245 . S
C70 O72 1.289 . S
O71 C70 1.245 . S
O72 Mg65 2.141 . S
O72 C70 1.289 . S
O73 Mg65 2.048 . S
O73 C66 1.195 . S
O74 Mg65 2.048 . S
O74 C75 1.195 . S
C75 O74 1.195 . S
C75 O76 1.313 . S
O76 C75 1.313 . S
O77 Mg65 2.141 . S
O77 C68 1.289 . S
Mg78 O85 2.147 . S
Mg78 O86 1.985 1_554 S
Mg78 O87 2.047 . S
Mg78 O90 2.204 . S
C79 O80 1.313 . S
C79 O86 1.195 . S
O80 C79 1.313 . S
C81 O82 1.245 . S
C81 O90 1.289 . S
O82 C81 1.245 . S
C83 O84 1.238 1_554 S
C83 O85 1.289 . S
O84 C83 1.238 1_556 S
O85 Mg78 2.147 . S
O85 C83 1.289 . S
O86 Mg78 1.985 1_556 S
O86 C79 1.195 . S
O87 Mg78 2.047 . S
O87 C88 1.190 1_554 S
C88 O87 1.190 1_556 S
C88 O89 1.313 . S
O89 C88 1.313 . S
O90 Mg78 2.204 . S
O90 C81 1.289 . S
Mg91 O98 2.147 . S
Mg91 O99 1.985 1_554 S
Mg91 O100 2.047 . S
Mg91 O103 2.204 . S
C92 O93 1.313 . S
C92 O99 1.195 . S
O93 C92 1.313 . S
C94 O95 1.245 . S
C94 O103 1.289 . S
O95 C94 1.245 . S
C96 O97 1.238 1_554 S
C96 O98 1.289 . S
O97 C96 1.238 1_556 S
O98 Mg91 2.147 . S
O98 C96 1.289 . S
O99 Mg91 1.985 1_556 S
O99 C92 1.195 . S
O100 Mg91 2.047 . S
O100 C101 1.190 1_554 S
C101 O100 1.190 1_556 S
C101 O102 1.313 . S
O102 C101 1.313 . S
O103 Mg91 2.204 . S
O103 C94 1.289 . S
Mg104 O111 2.141 . S
Mg104 O112 2.048 . S
Mg104 O113 2.048 . S
Mg104 O116 2.141 . S
C105 O106 1.313 . S
C105 O112 1.195 . S
O106 C105 1.313 . S
C107 O108 1.245 . S
C107 O116 1.289 . S
O108 C107 1.245 . S
C109 O110 1.245 . S
C109 O111 1.289 . S
O110 C109 1.245 . S
O111 Mg104 2.141 . S
O111 C109 1.289 . S
O112 Mg104 2.048 . S
O112 C105 1.195 . S
O113 Mg104 2.048 . S
O113 C114 1.195 . S
C114 O113 1.195 . S
C114 O115 1.313 . S
O115 C114 1.313 . S
O116 Mg104 2.141 . S
O116 C107 1.289 . S
Mg117 O124 2.141 . S
Mg117 O125 2.048 . S
Mg117 O126 2.048 . S
Mg117 O129 2.141 . S
C118 O119 1.313 . S
C118 O125 1.195 . S
O119 C118 1.313 . S
C120 O121 1.245 . S
C120 O129 1.289 . S
O121 C120 1.245 . S
C122 O123 1.245 . S
C122 O124 1.289 . S
O123 C122 1.245 . S
O124 Mg117 2.141 . S
O124 C122 1.289 . S
O125 Mg117 2.048 . S
O125 C118 1.195 . S
O126 Mg117 2.048 . S
O126 C127 1.195 . S
C127 O126 1.195 . S
C127 O128 1.313 . S
O128 C127 1.313 . S
O129 Mg117 2.141 . S
O129 C120 1.289 . S
Mg130 O137 2.141 . S
Mg130 O138 2.048 . S
Mg130 O139 2.048 . S
Mg130 O142 2.141 . S
C131 O132 1.313 . S
C131 O138 1.195 . S
O132 C131 1.313 . S
C133 O134 1.245 . S
C133 O142 1.289 . S
O134 C133 1.245 . S
C135 O136 1.245 . S
C135 O137 1.289 . S
O136 C135 1.245 . S
O137 Mg130 2.141 . S
O137 C135 1.289 . S
O138 Mg130 2.048 . S
O138 C131 1.195 . S
O139 Mg130 2.048 . S
O139 C140 1.195 . S
C140 O139 1.195 . S
C140 O141 1.313 . S
O141 C140 1.313 . S
O142 Mg130 2.141 . S
O142 C133 1.289 . S
Mg143 O150 2.141 . S
Mg143 O151 2.048 . S
Mg143 O152 2.048 . S
Mg143 O155 2.141 . S
C144 O145 1.313 . S
C144 O151 1.195 . S
O145 C144 1.313 . S
C146 O147 1.245 . S
C146 O155 1.289 . S
O147 C146 1.245 . S
C148 O149 1.245 . S
C148 O150 1.289 . S
O149 C148 1.245 . S
O150 Mg143 2.141 . S
O150 C148 1.289 . S
O151 Mg143 2.048 . S
O151 C144 1.195 . S
O152 Mg143 2.048 . S
O152 C153 1.195 . S
C153 O152 1.195 . S
C153 O154 1.313 . S
O154 C153 1.313 . S
O155 Mg143 2.141 . S
O155 C146 1.289 . S
Mg156 O163 2.141 . S
Mg156 O164 2.048 . S
Mg156 O165 2.048 . S
Mg156 O168 2.141 . S
C157 O158 1.313 . S
C157 O164 1.195 . S
O158 C157 1.313 . S
C159 O160 1.245 . S
C159 O168 1.289 . S
O160 C159 1.245 . S
C161 O162 1.245 . S
C161 O163 1.289 . S
O162 C161 1.245 . S
O163 Mg156 2.141 . S
O163 C161 1.289 . S
O164 Mg156 2.048 . S
O164 C157 1.195 . S
O165 Mg156 2.048 . S
O165 C166 1.195 . S
C166 O165 1.195 . S
C166 O167 1.313 . S
O167 C166 1.313 . S
O168 Mg156 2.141 . S
O168 C159 1.289 . S
Mg169 O176 2.141 . S
Mg169 O177 2.048 . S
Mg169 O178 2.048 . S
Mg169 O181 2.141 . S
C170 O171 1.313 . S
C170 O177 1.195 . S
O171 C170 1.313 . S
C172 O173 1.245 . S
C172 O181 1.289 . S
O173 C172 1.245 . S
C174 O175 1.245 . S
C174 O176 1.289 . S
O175 C174 1.245 . S
O176 Mg169 2.141 . S
O176 C174 1.289 . S
O177 Mg169 2.048 . S
O177 C170 1.195 . S
O178 Mg169 2.048 . S
O178 C179 1.195 . S
C179 O178 1.195 . S
C179 O180 1.313 . S
O180 C179 1.313 . S
O181 Mg169 2.141 . S
O181 C172 1.289 . S
Mg182 O189 2.141 . S
Mg182 O190 2.048 . S
Mg182 O191 2.048 . S
Mg182 O194 2.141 . S
C183 O184 1.313 . S
C183 O190 1.195 . S
O184 C183 1.313 . S
C185 O186 1.245 . S
C185 O194 1.289 . S
O186 C185 1.245 . S
C187 O188 1.245 . S
C187 O189 1.289 . S
O188 C187 1.245 . S
O189 Mg182 2.141 . S
O189 C187 1.289 . S
O190 Mg182 2.048 . S
O190 C183 1.195 . S
O191 Mg182 2.048 . S
O191 C192 1.195 . S
C192 O191 1.195 . S
C192 O193 1.313 . S
O193 C192 1.313 . S
O194 Mg182 2.141 . S
O194 C185 1.289 . S
Mg195 O202 2.141 . S
Mg195 O203 2.048 . S
Mg195 O204 2.048 . S
Mg195 O207 2.141 . S
C196 O197 1.313 . S
C196 O203 1.195 . S
O197 C196 1.313 . S
C198 O199 1.245 . S
C198 O207 1.289 . S
O199 C198 1.245 . S
C200 O201 1.245 . S
C200 O202 1.289 . S
O201 C200 1.245 . S
O202 Mg195 2.141 . S
O202 C200 1.289 . S
O203 Mg195 2.048 . S
O203 C196 1.195 . S
O204 Mg195 2.048 . S
O204 C205 1.195 . S
C205 O204 1.195 . S
C205 O206 1.313 . S
O206 C205 1.313 . S
O207 Mg195 2.141 . S
O207 C198 1.289 . S
Mg208 O215 2.141 . S
Mg208 O216 2.048 . S
Mg208 O217 2.048 . S
Mg208 O220 2.141 . S
C209 O210 1.313 . S
C209 O216 1.195 . S
O210 C209 1.313 . S
C211 O212 1.245 . S
C211 O220 1.289 . S
O212 C211 1.245 . S
C213 O214 1.245 . S
C213 O215 1.289 . S
O214 C213 1.245 . S
O215 Mg208 2.141 . S
O215 C213 1.289 . S
O216 Mg208 2.048 . S
O216 C209 1.195 . S
O217 Mg208 2.048 . S
O217 C218 1.195 . S
C218 O217 1.195 . S
C218 O219 1.313 . S
O219 C218 1.313 . S
O220 Mg208 2.141 . S
O220 C211 1.289 . S
Mg221 O228 2.141 . S
Mg221 O229 2.048 . S
Mg221 O230 2.048 . S
Mg221 O233 2.141 . S
C222 O223 1.313 . S
C222 O229 1.195 . S
O223 C222 1.313 . S
C224 O225 1.245 . S
C224 O233 1.289 . S
O225 C224 1.245 . S
C226 O227 1.245 . S
C226 O228 1.289 . S
O227 C226 1.245 . S
O228 Mg221 2.141 . S
O228 C226 1.289 . S
O229 Mg221 2.048 . S
O229 C222 1.195 . S
O230 Mg221 2.048 . S
O230 C231 1.195 . S
C231 O230 1.195 . S
C231 O232 1.313 . S
O232 C231 1.313 . S
O233 Mg221 2.141 . S
O233 C224 1.289 . S
Mg234 O241 2.141 . S
Mg234 O242 2.048 . S
Mg234 O243 2.048 . S
Mg234 O246 2.141 . S
C235 O236 1.313 . S
C235 O242 1.195 . S
O236 C235 1.313 . S
C237 O238 1.245 . S
C237 O246 1.289 . S
O238 C237 1.245 . S
C239 O240 1.245 . S
C239 O241 1.289 . S
O240 C239 1.245 . S
O241 Mg234 2.141 . S
O241 C239 1.289 . S
O242 Mg234 2.048 . S
O242 C235 1.195 . S
O243 Mg234 2.048 . S
O243 C244 1.195 . S
C244 O243 1.195 . S
C244 O245 1.313 . S
O245 C244 1.313 . S
O246 Mg234 2.141 . S
O246 C237 1.289 . S
Mg247 O254 2.141 . S
Mg247 O255 2.048 . S
Mg247 O256 2.048 . S
Mg247 O259 2.141 . S
C248 O249 1.313 . S
C248 O255 1.195 . S
O249 C248 1.313 . S
C250 O251 1.245 . S
C250 O259 1.289 . S
O251 C250 1.245 . S
C252 O253 1.245 . S
C252 O254 1.289 . S
O253 C252 1.245 . S
O254 Mg247 2.141 . S
O254 C252 1.289 . S
O255 Mg247 2.048 . S
O255 C248 1.195 . S
O256 Mg247 2.048 . S
O256 C257 1.195 . S
C257 O256 1.195 . S
C257 O258 1.313 . S
O258 C257 1.313 . S
O259 Mg247 2.141 . S
O259 C250 1.289 . S
Mg260 O267 2.141 . S
Mg260 O268 2.048 . S
Mg260 O269 2.048 . S
Mg260 O272 2.141 . S
C261 O262 1.313 . S
C261 O268 1.195 . S
O262 C261 1.313 . S
C263 O264 1.245 . S
C263 O272 1.289 . S
O264 C263 1.245 . S
C265 O266 1.245 . S
C265 O267 1.289 . S
O266 C265 1.245 . S
O267 Mg260 2.141 . S
O267 C265 1.289 . S
O268 Mg260 2.048 . S
O268 C261 1.195 . S
O269 Mg260 2.048 . S
O269 C270 1.195 . S
C270 O269 1.195 . S
C270 O271 1.313 . S
O271 C270 1.313 . S
O272 Mg260 2.141 . S
O272 C263 1.289 . S
Mg273 O280 2.141 . S
Mg273 O281 2.048 . S
Mg273 O282 2.048 . S
Mg273 O285 2.141 . S
C274 O275 1.313 . S
C274 O281 1.195 . S
O275 C274 1.313 . S
C276 O277 1.245 . S
C276 O285 1.289 . S
O277 C276 1.245 . S
C278 O279 1.245 . S
C278 O280 1.289 . S
O279 C278 1.245 . S
O280 Mg273 2.141 . S
O280 C278 1.289 . S
O281 Mg273 2.048 . S
O281 C274 1.195 . S
O282 Mg273 2.048 . S
O282 C283 1.195 . S
C283 O282 1.195 . S
C283 O284 1.313 . S
O284 C283 1.313 . S
O285 Mg273 2.141 . S
O285 C276 1.289 . S
Mg286 O293 2.141 . S
Mg286 O294 2.048 . S
Mg286 O295 2.048 . S
Mg286 O298 2.141 . S
C287 O288 1.313 . S
C287 O294 1.195 . S
O288 C287 1.313 . S
C289 O290 1.245 . S
C289 O298 1.289 . S
O290 C289 1.245 . S
C291 O292 1.245 . S
C291 O293 1.289 . S
O292 C291 1.245 . S
O293 Mg286 2.141 . S
O293 C291 1.289 . S
O294 Mg286 2.048 . S
O294 C287 1.195 . S
O295 Mg286 2.048 . S
O295 C296 1.195 . S
C296 O295 1.195 . S
C296 O297 1.313 . S
O297 C296 1.313 . S
O298 Mg286 2.141 . S
O298 C289 1.289 . S
Mg299 O306 2.141 . S
Mg299 O307 2.048 . S
Mg299 O308 2.048 . S
Mg299 O311 2.141 . S
C300 O301 1.313 . S
C300 O307 1.195 . S
O301 C300 1.313 . S
C302 O303 1.245 . S
C302 O311 1.289 . S
O303 C302 1.245 . S
C304 O305 1.245 . S
C304 O306 1.289 . S
O305 C304 1.245 . S
O306 Mg299 2.141 . S
O306 C304 1.289 . S
O307 Mg299 2.048 . S
O307 C300 1.195 . S
O308 Mg299 2.048 . S
O308 C309 1.195 . S
C309 O308 1.195 . S
C309 O310 1.313 . S
O310 C309 1.313 . S
O311 Mg299 2.141 . S
O311 C302 1.289 . S
Mg312 O319 2.141 . S
Mg312 O320 2.048 . S
Mg312 O321 2.048 . S
Mg312 O324 2.141 . S
C313 O314 1.313 . S
C313 O320 1.195 . S
O314 C313 1.313 . S
C315 O316 1.245 . S
C315 O324 1.289 . S
O316 C315 1.245 . S
C317 O318 1.245 . S
C317 O319 1.289 . S
O318 C317 1.245 . S
O319 Mg312 2.141 . S
O319 C317 1.289 . S
O320 Mg312 2.048 . S
O320 C313 1.195 . S
O321 Mg312 2.048 . S
O321 C322 1.195 . S
C322 O321 1.195 . S
C322 O323 1.313 . S
O323 C322 1.313 . S
O324 Mg312 2.141 . S
O324 C315 1.289 . S
Mg325 O332 2.141 . S
Mg325 O333 2.048 . S
Mg325 O334 2.048 . S
Mg325 O337 2.141 . S
C326 O327 1.313 . S
C326 O333 1.195 . S
O327 C326 1.313 . S
C328 O329 1.245 . S
C328 O337 1.289 . S
O329 C328 1.245 . S
C330 O331 1.245 . S
C330 O332 1.289 . S
O331 C330 1.245 . S
O332 Mg325 2.141 . S
O332 C330 1.289 . S
O333 Mg325 2.048 . S
O333 C326 1.195 . S
O334 Mg325 2.048 . S
O334 C335 1.195 . S
C335 O334 1.195 . S
C335 O336 1.313 . S
O336 C335 1.313 . S
O337 Mg325 2.141 . S
O337 C328 1.289 . S
Mg338 O345 2.142 1_554 S
Mg338 O346 2.046 . S
Mg338 O347 2.047 . S
Mg338 O350 2.143 1_554 S
C339 O340 1.313 . S
C339 O346 1.195 . S
O340 C339 1.313 . S
C341 O342 1.245 . S
C341 O350 1.289 . S
O342 C341 1.245 . S
C343 O344 1.249 . S
C343 O345 1.289 . S
O344 C343 1.249 . S
O345 Mg338 2.142 1_556 S
O345 C343 1.289 . S
O346 Mg338 2.046 . S
O346 C339 1.195 . S
O347 Mg338 2.047 . S
O347 C348 1.200 . S
C348 O347 1.200 . S
C348 O349 1.313 . S
O349 C348 1.313 . S
O350 Mg338 2.143 1_556 S
O350 C341 1.289 . S
Mg351 O358 2.142 1_554 S
Mg351 O359 2.046 . S
Mg351 O360 2.047 . S
Mg351 O363 2.143 1_554 S
C352 O353 1.313 . S
C352 O359 1.195 . S
O353 C352 1.313 . S
C354 O355 1.245 . S
C354 O363 1.289 . S
O355 C354 1.245 . S
C356 O357 1.249 . S
C356 O358 1.289 . S
O357 C356 1.249 . S
O358 Mg351 2.142 1_556 S
O358 C356 1.289 . S
O359 Mg351 2.046 . S
O359 C352 1.195 . S
O360 Mg351 2.047 . S
O360 C361 1.200 . S
C361 O360 1.200 . S
C361 O362 1.313 . S
O362 C361 1.313 . S
O363 Mg351 2.143 1_556 S
O363 C354 1.289 . S
Mg364 O371 2.141 . S
Mg364 O372 2.048 . S
Mg364 O373 2.048 . S
Mg364 O376 2.141 . S
C365 O366 1.313 . S
C365 O372 1.195 . S
O366 C365 1.313 . S
C367 O368 1.245 . S
C367 O376 1.289 . S
O368 C367 1.245 . S
C369 O370 1.245 . S
C369 O371 1.289 . S
O370 C369 1.245 . S
O371 Mg364 2.141 . S
O371 C369 1.289 . S
O372 Mg364 2.048 . S
O372 C365 1.195 . S
O373 Mg364 2.048 . S
O373 C374 1.195 . S
C374 O373 1.195 . S
C374 O375 1.313 . S
O375 C374 1.313 . S
O376 Mg364 2.141 . S
O376 C367 1.289 . S
Mg377 O384 2.141 . S
Mg377 O385 2.048 . S
Mg377 O386 2.048 . S
Mg377 O389 2.141 . S
C378 O379 1.313 . S
C378 O385 1.195 . S
O379 C378 1.313 . S
C380 O381 1.245 . S
C380 O389 1.289 . S
O381 C380 1.245 . S
C382 O383 1.245 . S
C382 O384 1.289 . S
O383 C382 1.245 . S
O384 Mg377 2.141 . S
O384 C382 1.289 . S
O385 Mg377 2.048 . S
O385 C378 1.195 . S
O386 Mg377 2.048 . S
O386 C387 1.195 . S
C387 O386 1.195 . S
C387 O388 1.313 . S
O388 C387 1.313 . S
O389 Mg377 2.141 . S
O389 C380 1.289 . S
Mg390 O397 2.147 . S
Mg390 O398 1.985 1_554 S
Mg390 O399 2.047 . S
Mg390 O402 2.204 . S
C391 O392 1.313 . S
C391 O398 1.195 . S
O392 C391 1.313 . S
C393 O394 1.245 . S
C393 O402 1.289 . S
O394 C393 1.245 . S
C395 O396 1.238 1_554 S
C395 O397 1.289 . S
O396 C395 1.238 1_556 S
O397 Mg390 2.147 . S
O397 C395 1.289 . S
O398 Mg390 1.985 1_556 S
O398 C391 1.195 . S
O399 Mg390 2.047 . S
O399 C400 1.190 1_554 S
C400 O399 1.190 1_556 S
C400 O401 1.313 . S
O401 C400 1.313 . S
O402 Mg390 2.204 . S
O402 C393 1.289 . S
Mg403 O410 2.147 . S
Mg403 O411 1.985 1_554 S
Mg403 O412 2.047 . S
Mg403 O415 2.204 . S
C404 O405 1.313 . S
C404 O411 1.195 . S
O405 C404 1.313 . S
C406 O407 1.245 . S
C406 O415 1.289 . S
O407 C406 1.245 . S
C408 O409 1.238 1_554 S
C408 O410 1.289 . S
O409 C408 1.238 1_556 S
O410 Mg403 2.147 . S
O410 C408 1.289 . S
O411 Mg403 1.985 1_556 S
O411 C404 1.195 . S
O412 Mg403 2.047 . S
O412 C413 1.190 1_554 S
C413 O412 1.190 1_556 S
C413 O414 1.313 . S
O414 C413 1.313 . S
O415 Mg403 2.204 . S
O415 C406 1.289 . S
C416 C417 1.349 . S
C416 C418 1.327 . S
C416 H441 0.950 . S
C417 C416 1.349 . S
C417 C433 1.349 . S
C418 C416 1.327 . S
C418 C437 1.429 . S
C418 H442 0.950 . S
C419 C436 1.574 . S
C419 C438 1.368 . S
C419 H443 0.949 . S
H420 C424 0.949 . S
C421 C422 1.349 . S
C421 C423 1.327 . S
C421 H444 0.950 . S
C422 C421 1.349 . S
C422 C434 1.349 . S
C423 C421 1.327 . S
C423 C439 1.429 . S
C423 H445 0.950 . S
C424 H420 0.949 . S
C424 C432 1.574 . S
C424 C440 1.368 . S
H425 C433 0.950 . S
H426 C431 0.950 . S
H427 C432 0.949 . S
H428 C434 0.950 . S
H429 C435 0.950 . S
H430 C436 0.949 . S
C431 H426 0.950 . S
C431 C433 1.327 . S
C431 C437 1.429 . S
C432 C424 1.574 . S
C432 H427 0.949 . S
C432 C438 1.368 . S
C433 C417 1.349 . S
C433 H425 0.950 . S
C433 C431 1.327 . S
C434 C422 1.349 . S
C434 H428 0.950 . S
C434 C435 1.327 . S
C435 H429 0.950 . S
C435 C434 1.327 . S
C435 C439 1.429 . S
C436 C419 1.574 . S
C436 H430 0.949 . S
C436 C440 1.368 . S
C437 C418 1.429 . S
C437 C431 1.429 . S
C437 C438 1.523 . S
C438 C419 1.368 . S
C438 C432 1.368 . S
C438 C437 1.523 . S
C439 C423 1.429 . S
C439 C435 1.429 . S
C439 C440 1.523 . S
C440 C424 1.368 . S
C440 C436 1.368 . S
C440 C439 1.523 . S
H441 C416 0.950 . S
H442 C418 0.950 . S
H443 C419 0.949 . S
H444 C421 0.950 . S
H445 C423 0.950 . S
C446 C447 1.349 . S
C446 C448 1.327 . S
C446 H471 0.950 . S
C447 C446 1.349 . S
C447 C463 1.349 . S
C448 C446 1.327 . S
C448 C467 1.429 . S
C448 H472 0.950 . S
C449 C466 1.574 . S
C449 C468 1.368 . S
C449 H473 0.949 . S
H450 C454 0.949 . S
C451 C452 1.349 . S
C451 C453 1.327 . S
C451 H474 0.950 . S
C452 C451 1.349 . S
C452 C464 1.349 . S
C453 C451 1.327 . S
C453 C469 1.429 . S
C453 H475 0.950 . S
C454 H450 0.949 . S
C454 C462 1.574 . S
C454 C470 1.368 . S
H455 C463 0.950 . S
H456 C461 0.950 . S
H457 C462 0.949 . S
H458 C464 0.950 . S
H459 C465 0.950 . S
H460 C466 0.949 . S
C461 H456 0.950 . S
C461 C463 1.327 . S
C461 C467 1.429 . S
C462 C454 1.574 . S
C462 H457 0.949 . S
C462 C468 1.368 . S
C463 C447 1.349 . S
C463 H455 0.950 . S
C463 C461 1.327 . S
C464 C452 1.349 . S
C464 H458 0.950 . S
C464 C465 1.327 . S
C465 H459 0.950 . S
C465 C464 1.327 . S
C465 C469 1.429 . S
C466 C449 1.574 . S
C466 H460 0.949 . S
C466 C470 1.368 . S
C467 C448 1.429 . S
C467 C461 1.429 . S
C467 C468 1.523 . S
C468 C449 1.368 . S
C468 C462 1.368 . S
C468 C467 1.523 . S
C469 C453 1.429 . S
C469 C465 1.429 . S
C469 C470 1.523 . S
C470 C454 1.368 . S
C470 C466 1.368 . S
C470 C469 1.523 . S
H471 C446 0.950 . S
H472 C448 0.950 . S
H473 C449 0.949 . S
H474 C451 0.950 . S
H475 C453 0.950 . S
C476 C477 1.349 . S
C476 C478 1.327 . S
C476 H501 0.950 . S
C477 C476 1.349 . S
C477 C493 1.349 . S
C478 C476 1.327 . S
C478 C497 1.429 . S
C478 H502 0.950 . S
C479 C496 1.574 . S
C479 C498 1.368 . S
C479 H503 0.949 . S
H480 C484 0.949 . S
C481 C482 1.349 . S
C481 C483 1.327 . S
C481 H504 0.950 . S
C482 C481 1.349 . S
C482 C494 1.349 . S
C483 C481 1.327 . S
C483 C499 1.429 . S
C483 H505 0.950 . S
C484 H480 0.949 . S
C484 C492 1.574 . S
C484 C500 1.368 . S
H485 C493 0.950 . S
H486 C491 0.950 . S
H487 C492 0.949 . S
H488 C494 0.950 . S
H489 C495 0.950 . S
H490 C496 0.949 . S
C491 H486 0.950 . S
C491 C493 1.327 . S
C491 C497 1.429 . S
C492 C484 1.574 . S
C492 H487 0.949 . S
C492 C498 1.368 . S
C493 C477 1.349 . S
C493 H485 0.950 . S
C493 C491 1.327 . S
C494 C482 1.349 . S
C494 H488 0.950 . S
C494 C495 1.327 . S
C495 H489 0.950 . S
C495 C494 1.327 . S
C495 C499 1.429 . S
C496 C479 1.574 . S
C496 H490 0.949 . S
C496 C500 1.368 . S
C497 C478 1.429 . S
C497 C491 1.429 . S
C497 C498 1.523 . S
C498 C479 1.368 . S
C498 C492 1.368 . S
C498 C497 1.523 . S
C499 C483 1.429 . S
C499 C495 1.429 . S
C499 C500 1.523 . S
C500 C484 1.368 . S
C500 C496 1.368 . S
C500 C499 1.523 . S
H501 C476 0.950 . S
H502 C478 0.950 . S
H503 C479 0.949 . S
H504 C481 0.950 . S
H505 C483 0.950 . S
C506 C507 1.349 . S
C506 C508 1.327 . S
C506 H531 0.950 . S
C507 C506 1.349 . S
C507 C523 1.349 . S
C508 C506 1.327 . S
C508 C527 1.429 . S
C508 H532 0.950 . S
C509 C526 1.574 . S
C509 C528 1.368 . S
C509 H533 0.949 . S
H510 C514 0.949 . S
C511 C512 1.349 . S
C511 C513 1.327 . S
C511 H534 0.950 . S
C512 C511 1.349 . S
C512 C524 1.349 . S
C513 C511 1.327 . S
C513 C529 1.429 . S
C513 H535 0.950 . S
C514 H510 0.949 . S
C514 C522 1.574 . S
C514 C530 1.368 . S
H515 C523 0.950 . S
H516 C521 0.950 . S
H517 C522 0.949 . S
H518 C524 0.950 . S
H519 C525 0.950 . S
H520 C526 0.949 . S
C521 H516 0.950 . S
C521 C523 1.327 . S
C521 C527 1.429 . S
C522 C514 1.574 . S
C522 H517 0.949 . S
C522 C528 1.368 . S
C523 C507 1.349 . S
C523 H515 0.950 . S
C523 C521 1.327 . S
C524 C512 1.349 . S
C524 H518 0.950 . S
C524 C525 1.327 . S
C525 H519 0.950 . S
C525 C524 1.327 . S
C525 C529 1.429 . S
C526 C509 1.574 . S
C526 H520 0.949 . S
C526 C530 1.368 . S
C527 C508 1.429 . S
C527 C521 1.429 . S
C527 C528 1.523 . S
C528 C509 1.368 . S
C528 C522 1.368 . S
C528 C527 1.523 . S
C529 C513 1.429 . S
C529 C525 1.429 . S
C529 C530 1.523 . S
C530 C514 1.368 . S
C530 C526 1.368 . S
C530 C529 1.523 . S
H531 C506 0.950 . S
H532 C508 0.950 . S
H533 C509 0.949 . S
H534 C511 0.950 . S
H535 C513 0.950 . S
C536 C537 1.349 . S
C536 C538 1.327 . S
C536 H561 0.950 . S
C537 C536 1.349 . S
C537 C553 1.349 . S
C538 C536 1.327 . S
C538 C557 1.429 . S
C538 H562 0.950 . S
C539 C556 1.574 . S
C539 C558 1.368 . S
C539 H563 0.949 . S
H540 C544 0.949 . S
C541 C542 1.349 . S
C541 C543 1.327 . S
C541 H564 0.950 . S
C542 C541 1.349 . S
C542 C554 1.349 . S
C543 C541 1.327 . S
C543 C559 1.429 . S
C543 H565 0.950 . S
C544 H540 0.949 . S
C544 C552 1.574 . S
C544 C560 1.368 . S
H545 C553 0.950 . S
H546 C551 0.950 . S
H547 C552 0.949 . S
H548 C554 0.950 . S
H549 C555 0.950 . S
H550 C556 0.949 . S
C551 H546 0.950 . S
C551 C553 1.327 . S
C551 C557 1.429 . S
C552 C544 1.574 . S
C552 H547 0.949 . S
C552 C558 1.368 . S
C553 C537 1.349 . S
C553 H545 0.950 . S
C553 C551 1.327 . S
C554 C542 1.349 . S
C554 H548 0.950 . S
C554 C555 1.327 . S
C555 H549 0.950 . S
C555 C554 1.327 . S
C555 C559 1.429 . S
C556 C539 1.574 . S
C556 H550 0.949 . S
C556 C560 1.368 . S
C557 C538 1.429 . S
C557 C551 1.429 . S
C557 C558 1.523 . S
C558 C539 1.368 . S
C558 C552 1.368 . S
C558 C557 1.523 . S
C559 C543 1.429 . S
C559 C555 1.429 . S
C559 C560 1.523 . S
C560 C544 1.368 . S
C560 C556 1.368 . S
C560 C559 1.523 . S
H561 C536 0.950 . S
H562 C538 0.950 . S
H563 C539 0.949 . S
H564 C541 0.950 . S
H565 C543 0.950 . S
C566 C567 1.349 . S
C566 C568 1.327 . S
C566 H591 0.950 . S
C567 C566 1.349 . S
C567 C583 1.349 . S
C568 C566 1.327 . S
C568 C587 1.429 . S
C568 H592 0.950 . S
C569 C586 1.574 . S
C569 C588 1.368 . S
C569 H593 0.949 . S
H570 C574 0.949 . S
C571 C572 1.349 . S
C571 C573 1.327 . S
C571 H594 0.950 . S
C572 C571 1.349 . S
C572 C584 1.349 . S
C573 C571 1.327 . S
C573 C589 1.429 . S
C573 H595 0.950 . S
C574 H570 0.949 . S
C574 C582 1.574 . S
C574 C590 1.368 . S
H575 C583 0.950 . S
H576 C581 0.950 . S
H577 C582 0.949 . S
H578 C584 0.950 . S
H579 C585 0.950 . S
H580 C586 0.949 . S
C581 H576 0.950 . S
C581 C583 1.327 . S
C581 C587 1.429 . S
C582 C574 1.574 . S
C582 H577 0.949 . S
C582 C588 1.368 . S
C583 C567 1.349 . S
C583 H575 0.950 . S
C583 C581 1.327 . S
C584 C572 1.349 . S
C584 H578 0.950 . S
C584 C585 1.327 . S
C585 H579 0.950 . S
C585 C584 1.327 . S
C585 C589 1.429 . S
C586 C569 1.574 . S
C586 H580 0.949 . S
C586 C590 1.368 . S
C587 C568 1.429 . S
C587 C581 1.429 . S
C587 C588 1.523 . S
C588 C569 1.368 . S
C588 C582 1.368 . S
C588 C587 1.523 . S
C589 C573 1.429 . S
C589 C585 1.429 . S
C589 C590 1.523 . S
C590 C574 1.368 . S
C590 C586 1.368 . S
C590 C589 1.523 . S
H591 C566 0.950 . S
H592 C568 0.950 . S
H593 C569 0.949 . S
H594 C571 0.950 . S
H595 C573 0.950 . S
C596 C597 1.349 . S
C596 C598 1.327 . S
C596 H621 0.950 . S
C597 C596 1.349 . S
C597 C613 1.349 . S
C598 C596 1.327 . S
C598 C617 1.429 . S
C598 H622 0.950 . S
C599 C616 1.574 . S
C599 C618 1.368 . S
C599 H623 0.949 . S
H600 C604 0.949 . S
C601 C602 1.349 . S
C601 C603 1.327 . S
C601 H624 0.950 . S
C602 C601 1.349 . S
C602 C614 1.349 . S
C603 C601 1.327 . S
C603 C619 1.429 . S
C603 H625 0.950 . S
C604 H600 0.949 . S
C604 C612 1.574 . S
C604 C620 1.368 . S
H605 C613 0.950 . S
H606 C611 0.950 . S
H607 C612 0.949 . S
H608 C614 0.950 . S
H609 C615 0.950 . S
H610 C616 0.949 . S
C611 H606 0.950 . S
C611 C613 1.327 . S
C611 C617 1.429 . S
C612 C604 1.574 . S
C612 H607 0.949 . S
C612 C618 1.368 . S
C613 C597 1.349 . S
C613 H605 0.950 . S
C613 C611 1.327 . S
C614 C602 1.349 . S
C614 H608 0.950 . S
C614 C615 1.327 . S
C615 H609 0.950 . S
C615 C614 1.327 . S
C615 C619 1.429 . S
C616 C599 1.574 . S
C616 H610 0.949 . S
C616 C620 1.368 . S
C617 C598 1.429 . S
C617 C611 1.429 . S
C617 C618 1.523 . S
C618 C599 1.368 . S
C618 C612 1.368 . S
C618 C617 1.523 . S
C619 C603 1.429 . S
C619 C615 1.429 . S
C619 C620 1.523 . S
C620 C604 1.368 . S
C620 C616 1.368 . S
C620 C619 1.523 . S
H621 C596 0.950 . S
H622 C598 0.950 . S
H623 C599 0.949 . S
H624 C601 0.950 . S
H625 C603 0.950 . S
C626 C627 1.349 . S
C626 C628 1.327 . S
C626 H651 0.950 . S
C627 C626 1.349 . S
C627 C643 1.349 . S
C628 C626 1.327 . S
C628 C647 1.429 . S
C628 H652 0.950 . S
C629 C646 1.574 . S
C629 C648 1.368 . S
C629 H653 0.949 . S
H630 C634 0.949 . S
C631 C632 1.349 . S
C631 C633 1.327 . S
C631 H654 0.950 . S
C632 C631 1.349 . S
C632 C644 1.349 . S
C633 C631 1.327 . S
C633 C649 1.429 . S
C633 H655 0.950 . S
C634 H630 0.949 . S
C634 C642 1.574 . S
C634 C650 1.368 . S
H635 C643 0.950 . S
H636 C641 0.950 . S
H637 C642 0.949 . S
H638 C644 0.950 . S
H639 C645 0.950 . S
H640 C646 0.949 . S
C641 H636 0.950 . S
C641 C643 1.327 . S
C641 C647 1.429 . S
C642 C634 1.574 . S
C642 H637 0.949 . S
C642 C648 1.368 . S
C643 C627 1.349 . S
C643 H635 0.950 . S
C643 C641 1.327 . S
C644 C632 1.349 . S
C644 H638 0.950 . S
C644 C645 1.327 . S
C645 H639 0.950 . S
C645 C644 1.327 . S
C645 C649 1.429 . S
C646 C629 1.574 . S
C646 H640 0.949 . S
C646 C650 1.368 . S
C647 C628 1.429 . S
C647 C641 1.429 . S
C647 C648 1.523 . S
C648 C629 1.368 . S
C648 C642 1.368 . S
C648 C647 1.523 . S
C649 C633 1.429 . S
C649 C645 1.429 . S
C649 C650 1.523 . S
C650 C634 1.368 . S
C650 C646 1.368 . S
C650 C649 1.523 . S
H651 C626 0.950 . S
H652 C628 0.950 . S
H653 C629 0.949 . S
H654 C631 0.950 . S
H655 C633 0.950 . S
C656 C657 1.349 . S
C656 C658 1.327 . S
C656 H681 0.950 . S
C657 C656 1.349 . S
C657 C673 1.349 . S
C658 C656 1.327 . S
C658 C677 1.429 . S
C658 H682 0.950 . S
C659 C676 1.574 . S
C659 C678 1.368 . S
C659 H683 0.949 . S
H660 C664 0.949 . S
C661 C662 1.349 . S
C661 C663 1.327 . S
C661 H684 0.950 . S
C662 C661 1.349 . S
C662 C674 1.349 . S
C663 C661 1.327 . S
C663 C679 1.429 . S
C663 H685 0.950 . S
C664 H660 0.949 . S
C664 C672 1.574 . S
C664 C680 1.368 . S
H665 C673 0.950 . S
H666 C671 0.950 . S
H667 C672 0.949 . S
H668 C674 0.950 . S
H669 C675 0.950 . S
H670 C676 0.949 . S
C671 H666 0.950 . S
C671 C673 1.327 . S
C671 C677 1.429 . S
C672 C664 1.574 . S
C672 H667 0.949 . S
C672 C678 1.368 . S
C673 C657 1.349 . S
C673 H665 0.950 . S
C673 C671 1.327 . S
C674 C662 1.349 . S
C674 H668 0.950 . S
C674 C675 1.327 . S
C675 H669 0.950 . S
C675 C674 1.327 . S
C675 C679 1.429 . S
C676 C659 1.574 . S
C676 H670 0.949 . S
C676 C680 1.368 . S
C677 C658 1.429 . S
C677 C671 1.429 . S
C677 C678 1.523 . S
C678 C659 1.368 . S
C678 C672 1.368 . S
C678 C677 1.523 . S
C679 C663 1.429 . S
C679 C675 1.429 . S
C679 C680 1.523 . S
C680 C664 1.368 . S
C680 C676 1.368 . S
C680 C679 1.523 . S
H681 C656 0.950 . S
H682 C658 0.950 . S
H683 C659 0.949 . S
H684 C661 0.950 . S
H685 C663 0.950 . S
C686 C687 1.349 . S
C686 C688 1.327 . S
C686 H711 0.950 . S
C687 C686 1.349 . S
C687 C703 1.349 . S
C688 C686 1.327 . S
C688 C707 1.429 . S
C688 H712 0.950 . S
C689 C706 1.574 . S
C689 C708 1.368 . S
C689 H713 0.949 . S
H690 C694 0.949 . S
C691 C692 1.349 . S
C691 C693 1.327 . S
C691 H714 0.950 . S
C692 C691 1.349 . S
C692 C704 1.349 . S
C693 C691 1.327 . S
C693 C709 1.429 . S
C693 H715 0.950 . S
C694 H690 0.949 . S
C694 C702 1.574 . S
C694 C710 1.368 . S
H695 C703 0.950 . S
H696 C701 0.950 . S
H697 C702 0.949 . S
H698 C704 0.950 . S
H699 C705 0.950 . S
H700 C706 0.949 . S
C701 H696 0.950 . S
C701 C703 1.327 . S
C701 C707 1.429 . S
C702 C694 1.574 . S
C702 H697 0.949 . S
C702 C708 1.368 . S
C703 C687 1.349 . S
C703 H695 0.950 . S
C703 C701 1.327 . S
C704 C692 1.349 . S
C704 H698 0.950 . S
C704 C705 1.327 . S
C705 H699 0.950 . S
C705 C704 1.327 . S
C705 C709 1.429 . S
C706 C689 1.574 . S
C706 H700 0.949 . S
C706 C710 1.368 . S
C707 C688 1.429 . S
C707 C701 1.429 . S
C707 C708 1.523 . S
C708 C689 1.368 . S
C708 C702 1.368 . S
C708 C707 1.523 . S
C709 C693 1.429 . S
C709 C705 1.429 . S
C709 C710 1.523 . S
C710 C694 1.368 . S
C710 C706 1.368 . S
C710 C709 1.523 . S
H711 C686 0.950 . S
H712 C688 0.950 . S
H713 C689 0.949 . S
H714 C691 0.950 . S
H715 C693 0.950 . S
C716 C717 1.349 . S
C716 C718 1.327 . S
C716 H741 0.950 . S
C717 C716 1.349 . S
C717 C733 1.349 . S
C718 C716 1.327 . S
C718 C737 1.429 . S
C718 H742 0.950 . S
C719 C736 1.574 . S
C719 C738 1.368 . S
C719 H743 0.949 . S
H720 C724 0.949 . S
C721 C722 1.349 . S
C721 C723 1.327 . S
C721 H744 0.950 . S
C722 C721 1.349 . S
C722 C734 1.349 . S
C723 C721 1.327 . S
C723 C739 1.429 . S
C723 H745 0.950 . S
C724 H720 0.949 . S
C724 C732 1.574 . S
C724 C740 1.368 . S
H725 C733 0.950 . S
H726 C731 0.950 . S
H727 C732 0.949 . S
H728 C734 0.950 . S
H729 C735 0.950 . S
H730 C736 0.949 . S
C731 H726 0.950 . S
C731 C733 1.327 . S
C731 C737 1.429 . S
C732 C724 1.574 . S
C732 H727 0.949 . S
C732 C738 1.368 . S
C733 C717 1.349 . S
C733 H725 0.950 . S
C733 C731 1.327 . S
C734 C722 1.349 . S
C734 H728 0.950 . S
C734 C735 1.327 . S
C735 H729 0.950 . S
C735 C734 1.327 . S
C735 C739 1.429 . S
C736 C719 1.574 . S
C736 H730 0.949 . S
C736 C740 1.368 . S
C737 C718 1.429 . S
C737 C731 1.429 . S
C737 C738 1.523 . S
C738 C719 1.368 . S
C738 C732 1.368 . S
C738 C737 1.523 . S
C739 C723 1.429 . S
C739 C735 1.429 . S
C739 C740 1.523 . S
C740 C724 1.368 . S
C740 C736 1.368 . S
C740 C739 1.523 . S
H741 C716 0.950 . S
H742 C718 0.950 . S
H743 C719 0.949 . S
H744 C721 0.950 . S
H745 C723 0.950 . S
C746 C747 1.349 . S
C746 C748 1.327 . S
C746 H771 0.950 . S
C747 C746 1.349 . S
C747 C763 1.349 . S
C748 C746 1.327 . S
C748 C767 1.429 . S
C748 H772 0.950 . S
C749 C766 1.574 . S
C749 C768 1.368 . S
C749 H773 0.949 . S
H750 C754 0.949 . S
C751 C752 1.349 . S
C751 C753 1.327 . S
C751 H774 0.950 . S
C752 C751 1.349 . S
C752 C764 1.349 . S
C753 C751 1.327 . S
C753 C769 1.429 . S
C753 H775 0.950 . S
C754 H750 0.949 . S
C754 C762 1.574 . S
C754 C770 1.368 . S
H755 C763 0.950 . S
H756 C761 0.950 . S
H757 C762 0.949 . S
H758 C764 0.950 . S
H759 C765 0.950 . S
H760 C766 0.949 . S
C761 H756 0.950 . S
C761 C763 1.327 . S
C761 C767 1.429 . S
C762 C754 1.574 . S
C762 H757 0.949 . S
C762 C768 1.368 . S
C763 C747 1.349 . S
C763 H755 0.950 . S
C763 C761 1.327 . S
C764 C752 1.349 . S
C764 H758 0.950 . S
C764 C765 1.327 . S
C765 H759 0.950 . S
C765 C764 1.327 . S
C765 C769 1.429 . S
C766 C749 1.574 . S
C766 H760 0.949 . S
C766 C770 1.368 . S
C767 C748 1.429 . S
C767 C761 1.429 . S
C767 C768 1.523 . S
C768 C749 1.368 . S
C768 C762 1.368 . S
C768 C767 1.523 . S
C769 C753 1.429 . S
C769 C765 1.429 . S
C769 C770 1.523 . S
C770 C754 1.368 . S
C770 C766 1.368 . S
C770 C769 1.523 . S
H771 C746 0.950 . S
H772 C748 0.950 . S
H773 C749 0.949 . S
H774 C751 0.950 . S
H775 C753 0.950 . S
C776 C777 1.349 . S
C776 C778 1.327 . S
C776 H801 0.950 . S
C777 C776 1.349 . S
C777 C793 1.349 . S
C778 C776 1.327 . S
C778 C797 1.429 . S
C778 H802 0.950 . S
C779 C796 1.574 . S
C779 C798 1.368 . S
C779 H803 0.949 . S
H780 C784 0.949 . S
C781 C782 1.349 . S
C781 C783 1.327 . S
C781 H804 0.950 . S
C782 C781 1.349 . S
C782 C794 1.349 . S
C783 C781 1.327 . S
C783 C799 1.429 . S
C783 H805 0.950 . S
C784 H780 0.949 . S
C784 C792 1.574 . S
C784 C800 1.368 . S
H785 C793 0.950 . S
H786 C791 0.950 . S
H787 C792 0.949 . S
H788 C794 0.950 . S
H789 C795 0.950 . S
H790 C796 0.949 . S
C791 H786 0.950 . S
C791 C793 1.327 . S
C791 C797 1.429 . S
C792 C784 1.574 . S
C792 H787 0.949 . S
C792 C798 1.368 . S
C793 C777 1.349 . S
C793 H785 0.950 . S
C793 C791 1.327 . S
C794 C782 1.349 . S
C794 H788 0.950 . S
C794 C795 1.327 . S
C795 H789 0.950 . S
C795 C794 1.327 . S
C795 C799 1.429 . S
C796 C779 1.574 . S
C796 H790 0.949 . S
C796 C800 1.368 . S
C797 C778 1.429 . S
C797 C791 1.429 . S
C797 C798 1.523 . S
C798 C779 1.368 . S
C798 C792 1.368 . S
C798 C797 1.523 . S
C799 C783 1.429 . S
C799 C795 1.429 . S
C799 C800 1.523 . S
C800 C784 1.368 . S
C800 C796 1.368 . S
C800 C799 1.523 . S
H801 C776 0.950 . S
H802 C778 0.950 . S
H803 C779 0.949 . S
H804 C781 0.950 . S
H805 C783 0.950 . S
C806 C807 1.349 . S
C806 C808 1.327 . S
C806 H831 0.950 . S
C807 C806 1.349 . S
C807 C823 1.349 . S
C808 C806 1.327 . S
C808 C827 1.429 . S
C808 H832 0.950 . S
C809 C826 1.574 . S
C809 C828 1.368 . S
C809 H833 0.949 . S
H810 C814 0.949 . S
C811 C812 1.349 . S
C811 C813 1.327 . S
C811 H834 0.950 . S
C812 C811 1.349 . S
C812 C824 1.349 . S
C813 C811 1.327 . S
C813 C829 1.429 . S
C813 H835 0.950 . S
C814 H810 0.949 . S
C814 C822 1.574 . S
C814 C830 1.368 . S
H815 C823 0.950 . S
H816 C821 0.950 . S
H817 C822 0.949 . S
H818 C824 0.950 . S
H819 C825 0.950 . S
H820 C826 0.949 . S
C821 H816 0.950 . S
C821 C823 1.327 . S
C821 C827 1.429 . S
C822 C814 1.574 . S
C822 H817 0.949 . S
C822 C828 1.368 . S
C823 C807 1.349 . S
C823 H815 0.950 . S
C823 C821 1.327 . S
C824 C812 1.349 . S
C824 H818 0.950 . S
C824 C825 1.327 . S
C825 H819 0.950 . S
C825 C824 1.327 . S
C825 C829 1.429 . S
C826 C809 1.574 . S
C826 H820 0.949 . S
C826 C830 1.368 . S
C827 C808 1.429 . S
C827 C821 1.429 . S
C827 C828 1.523 . S
C828 C809 1.368 . S
C828 C822 1.368 . S
C828 C827 1.523 . S
C829 C813 1.429 . S
C829 C825 1.429 . S
C829 C830 1.523 . S
C830 C814 1.368 . S
C830 C826 1.368 . S
C830 C829 1.523 . S
H831 C806 0.950 . S
H832 C808 0.950 . S
H833 C809 0.949 . S
H834 C811 0.950 . S
H835 C813 0.950 . S
C836 C837 1.349 . S
C836 C838 1.327 . S
C836 H861 0.950 . S
C837 C836 1.349 . S
C837 C853 1.349 . S
C838 C836 1.327 . S
C838 C857 1.429 . S
C838 H862 0.950 . S
C839 C856 1.574 . S
C839 C858 1.368 . S
C839 H863 0.949 . S
H840 C844 0.949 . S
C841 C842 1.349 . S
C841 C843 1.327 . S
C841 H864 0.950 . S
C842 C841 1.349 . S
C842 C854 1.349 . S
C843 C841 1.327 . S
C843 C859 1.429 . S
C843 H865 0.950 . S
C844 H840 0.949 . S
C844 C852 1.574 . S
C844 C860 1.368 . S
H845 C853 0.950 . S
H846 C851 0.950 . S
H847 C852 0.949 . S
H848 C854 0.950 . S
H849 C855 0.950 . S
H850 C856 0.949 . S
C851 H846 0.950 . S
C851 C853 1.327 . S
C851 C857 1.429 . S
C852 C844 1.574 . S
C852 H847 0.949 . S
C852 C858 1.368 . S
C853 C837 1.349 . S
C853 H845 0.950 . S
C853 C851 1.327 . S
C854 C842 1.349 . S
C854 H848 0.950 . S
C854 C855 1.327 . S
C855 H849 0.950 . S
C855 C854 1.327 . S
C855 C859 1.429 . S
C856 C839 1.574 . S
C856 H850 0.949 . S
C856 C860 1.368 . S
C857 C838 1.429 . S
C857 C851 1.429 . S
C857 C858 1.523 . S
C858 C839 1.368 . S
C858 C852 1.368 . S
C858 C857 1.523 . S
C859 C843 1.429 . S
C859 C855 1.429 . S
C859 C860 1.523 . S
C860 C844 1.368 . S
C860 C856 1.368 . S
C860 C859 1.523 . S
H861 C836 0.950 . S
H862 C838 0.950 . S
H863 C839 0.949 . S
H864 C841 0.950 . S
H865 C843 0.950 . S
C866 C867 1.349 . S
C866 C868 1.327 . S
C866 H891 0.950 . S
C867 C866 1.349 . S
C867 C883 1.349 . S
C868 C866 1.327 . S
C868 C887 1.429 . S
C868 H892 0.950 . S
C869 C886 1.574 . S
C869 C888 1.368 . S
C869 H893 0.949 . S
H870 C874 0.949 . S
C871 C872 1.349 . S
C871 C873 1.327 . S
C871 H894 0.950 . S
C872 C871 1.349 . S
C872 C884 1.349 . S
C873 C871 1.327 . S
C873 C889 1.429 . S
C873 H895 0.950 . S
C874 H870 0.949 . S
C874 C882 1.574 . S
C874 C890 1.368 . S
H875 C883 0.950 . S
H876 C881 0.950 . S
H877 C882 0.949 . S
H878 C884 0.950 . S
H879 C885 0.950 . S
H880 C886 0.949 . S
C881 H876 0.950 . S
C881 C883 1.327 . S
C881 C887 1.429 . S
C882 C874 1.574 . S
C882 H877 0.949 . S
C882 C888 1.368 . S
C883 C867 1.349 . S
C883 H875 0.950 . S
C883 C881 1.327 . S
C884 C872 1.349 . S
C884 H878 0.950 . S
C884 C885 1.327 . S
C885 H879 0.950 . S
C885 C884 1.327 . S
C885 C889 1.429 . S
C886 C869 1.574 . S
C886 H880 0.949 . S
C886 C890 1.368 . S
C887 C868 1.429 . S
C887 C881 1.429 . S
C887 C888 1.523 . S
C888 C869 1.368 . S
C888 C882 1.368 . S
C888 C887 1.523 . S
C889 C873 1.429 . S
C889 C885 1.429 . S
C889 C890 1.523 . S
C890 C874 1.368 . S
C890 C886 1.368 . S
C890 C889 1.523 . S
H891 C866 0.950 . S
H892 C868 0.950 . S
H893 C869 0.949 . S
H894 C871 0.950 . S
H895 C873 0.950 . S
C896 C897 1.349 . S
C896 C898 1.327 . S
C896 H921 0.950 . S
C897 C896 1.349 . S
C897 C913 1.349 . S
C898 C896 1.327 . S
C898 C917 1.429 . S
C898 H922 0.950 . S
C899 C916 1.574 . S
C899 C918 1.368 . S
C899 H923 0.949 . S
H900 C904 0.949 . S
C901 C902 1.349 . S
C901 C903 1.327 . S
C901 H924 0.950 . S
C902 C901 1.349 . S
C902 C914 1.349 . S
C903 C901 1.327 . S
C903 C919 1.429 . S
C903 H925 0.950 . S
C904 H900 0.949 . S
C904 C912 1.574 . S
C904 C920 1.368 . S
H905 C913 0.950 . S
H906 C911 0.950 . S
H907 C912 0.949 . S
H908 C914 0.950 . S
H909 C915 0.950 . S
H910 C916 0.949 . S
C911 H906 0.950 . S
C911 C913 1.327 . S
C911 C917 1.429 . S
C912 C904 1.574 . S
C912 H907 0.949 . S
C912 C918 1.368 1_455 S
C913 C897 1.349 . S
C913 H905 0.950 . S
C913 C911 1.327 . S
C914 C902 1.349 . S
C914 H908 0.950 . S
C914 C915 1.327 . S
C915 H909 0.950 . S
C915 C914 1.327 . S
C915 C919 1.429 . S
C916 C899 1.574 . S
C916 H910 0.949 . S
C916 C920 1.368 1_655 S
C917 C898 1.429 . S
C917 C911 1.429 . S
C917 C918 1.523 . S
C918 C899 1.368 . S
C918 C912 1.368 1_655 S
C918 C917 1.523 . S
C919 C903 1.429 . S
C919 C915 1.429 . S
C919 C920 1.523 . S
C920 C904 1.368 . S
C920 C916 1.368 1_455 S
C920 C919 1.523 . S
H921 C896 0.950 . S
H922 C898 0.950 . S
H923 C899 0.949 . S
H924 C901 0.950 . S
H925 C903 0.950 . S
C926 C927 1.349 . S
C926 C928 1.327 . S
C926 H951 0.950 . S
C927 C926 1.349 . S
C927 C943 1.349 . S
C928 C926 1.327 . S
C928 C947 1.429 . S
C928 H952 0.950 . S
C929 C946 1.574 1_565 S
C929 C948 1.368 . S
C929 H953 0.949 . S
H930 C934 0.949 . S
C931 C932 1.349 . S
C931 C933 1.327 . S
C931 H954 0.950 . S
C932 C931 1.349 . S
C932 C944 1.349 . S
C933 C931 1.327 . S
C933 C949 1.429 . S
C933 H955 0.950 . S
C934 H930 0.949 . S
C934 C942 1.574 1_545 S
C934 C950 1.368 . S
H935 C943 0.950 . S
H936 C941 0.950 . S
H937 C942 0.949 . S
H938 C944 0.950 . S
H939 C945 0.950 . S
H940 C946 0.949 . S
C941 H936 0.950 . S
C941 C943 1.327 . S
C941 C947 1.429 . S
C942 C934 1.574 1_565 S
C942 H937 0.949 . S
C942 C948 1.368 . S
C943 C927 1.349 . S
C943 H935 0.950 . S
C943 C941 1.327 . S
C944 C932 1.349 . S
C944 H938 0.950 . S
C944 C945 1.327 . S
C945 H939 0.950 . S
C945 C944 1.327 . S
C945 C949 1.429 . S
C946 C929 1.574 1_545 S
C946 H940 0.949 . S
C946 C950 1.368 . S
C947 C928 1.429 . S
C947 C941 1.429 . S
C947 C948 1.523 . S
C948 C929 1.368 . S
C948 C942 1.368 . S
C948 C947 1.523 . S
C949 C933 1.429 . S
C949 C945 1.429 . S
C949 C950 1.523 . S
C950 C934 1.368 . S
C950 C946 1.368 . S
C950 C949 1.523 . S
H951 C926 0.950 . S
H952 C928 0.950 . S
H953 C929 0.949 . S
H954 C931 0.950 . S
H955 C933 0.950 . S
C956 C957 1.349 1_554 S
C956 C958 1.327 . S
C956 H981 0.950 . S
C957 C956 1.349 1_556 S
C957 C973 1.349 . S
C958 C956 1.327 . S
C958 C977 1.402 1_554 S
C958 H982 0.950 . S
C959 C976 1.574 1_565 S
C959 C978 1.382 1_655 S
C959 H983 0.949 . S
H960 C964 0.949 . S
C961 C962 1.305 1_556 S
C961 C963 1.327 . S
C961 H984 0.950 . S
C962 C961 1.305 1_554 S
C962 C974 1.394 . S
C963 C961 1.327 . S
C963 C979 1.412 1_556 S
C963 H985 0.950 . S
C964 H960 0.949 . S
C964 C972 1.574 1_545 S
C964 C980 1.370 1_455 S
H965 C973 0.950 . S
H966 C971 0.950 . S
H967 C972 0.949 . S
H968 C974 0.950 . S
H969 C975 0.950 . S
H970 C976 0.949 . S
C971 H966 0.950 . S
C971 C973 1.327 . S
C971 C977 1.457 . S
C972 C964 1.574 1_565 S
C972 H967 0.949 . S
C972 C978 1.354 1_554 S
C973 C957 1.349 . S
C973 H965 0.950 . S
C973 C971 1.327 . S
C974 C962 1.394 . S
C974 H968 0.950 . S
C974 C975 1.327 . S
C975 H969 0.950 . S
C975 C974 1.327 . S
C975 C979 1.445 . S
C976 C959 1.574 1_545 S
C976 H970 0.949 . S
C976 C980 1.366 1_556 S
C977 C958 1.402 1_556 S
C977 C971 1.457 . S
C977 C978 1.523 . S
C978 C959 1.382 1_455 S
C978 C972 1.354 1_556 S
C978 C977 1.523 . S
C979 C963 1.412 1_554 S
C979 C975 1.445 . S
C979 C980 1.523 . S
C980 C964 1.370 1_655 S
C980 C976 1.366 1_554 S
C980 C979 1.523 . S
H981 C956 0.950 . S
H982 C958 0.950 . S
H983 C959 0.949 . S
H984 C961 0.950 . S
H985 C963 0.950 . S
C986 C987 1.349 1_556 S
C986 C988 1.327 . S
C986 H1011 0.950 . S
C987 C986 1.349 1_554 S
C987 C1003 1.349 . S
C988 C986 1.327 . S
C988 C1007 1.402 1_556 S
C988 H1012 0.950 . S
C989 C1006 1.574 . S
C989 C1008 1.382 . S
C989 H1013 0.949 . S
H990 C994 0.949 . S
C991 C992 1.306 1_554 S
C991 C993 1.327 . S
C991 H1014 0.950 . S
C992 C991 1.306 1_556 S
C992 C1004 1.393 . S
C993 C991 1.327 . S
C993 C1009 1.413 1_554 S
C993 H1015 0.950 . S
C994 H990 0.949 . S
C994 C1002 1.574 . S
C994 C1010 1.370 . S
H995 C1003 0.950 . S
H996 C1001 0.950 . S
H997 C1002 0.949 . S
H998 C1004 0.950 . S
H999 C1005 0.950 . S
H1000 C1006 0.949 . S
C1001 H996 0.950 . S
C1001 C1003 1.327 . S
C1001 C1007 1.456 . S
C1002 C994 1.574 . S
C1002 H997 0.949 . S
C1002 C1008 1.355 1_556 S
C1003 C987 1.349 . S
C1003 H995 0.950 . S
C1003 C1001 1.327 . S
C1004 C992 1.393 . S
C1004 H998 0.950 . S
C1004 C1005 1.327 . S
C1005 H999 0.950 . S
C1005 C1004 1.327 . S
C1005 C1009 1.445 . S
C1006 C989 1.574 . S
C1006 H1000 0.949 . S
C1006 C1010 1.367 1_554 S
C1007 C988 1.402 1_554 S
C1007 C1001 1.456 . S
C1007 C1008 1.523 . S
C1008 C989 1.382 . S
C1008 C1002 1.355 1_554 S
C1008 C1007 1.523 . S
C1009 C993 1.413 1_556 S
C1009 C1005 1.445 . S
C1009 C1010 1.523 . S
C1010 C994 1.370 . S
C1010 C1006 1.367 1_556 S
C1010 C1009 1.523 . S
H1011 C986 0.950 . S
H1012 C988 0.950 . S
H1013 C989 0.949 . S
H1014 C991 0.950 . S
H1015 C993 0.950 . S
C1016 C1017 1.349 . S
C1016 C1018 1.327 . S
C1016 H1041 0.950 . S
C1017 C1016 1.349 . S
C1017 C1033 1.349 . S
C1018 C1016 1.327 . S
C1018 C1037 1.429 . S
C1018 H1042 0.950 . S
C1019 C1036 1.574 . S
C1019 C1038 1.368 1_455 S
C1019 H1043 0.949 . S
H1020 C1024 0.949 . S
C1021 C1022 1.349 . S
C1021 C1023 1.327 . S
C1021 H1044 0.950 . S
C1022 C1021 1.349 . S
C1022 C1034 1.349 . S
C1023 C1021 1.327 . S
C1023 C1039 1.429 . S
C1023 H1045 0.950 . S
C1024 H1020 0.949 . S
C1024 C1032 1.574 . S
C1024 C1040 1.368 1_655 S
H1025 C1033 0.950 . S
H1026 C1031 0.950 . S
H1027 C1032 0.949 . S
H1028 C1034 0.950 . S
H1029 C1035 0.950 . S
H1030 C1036 0.949 . S
C1031 H1026 0.950 . S
C1031 C1033 1.327 . S
C1031 C1037 1.429 . S
C1032 C1024 1.574 . S
C1032 H1027 0.949 . S
C1032 C1038 1.368 . S
C1033 C1017 1.349 . S
C1033 H1025 0.950 . S
C1033 C1031 1.327 . S
C1034 C1022 1.349 . S
C1034 H1028 0.950 . S
C1034 C1035 1.327 . S
C1035 H1029 0.950 . S
C1035 C1034 1.327 . S
C1035 C1039 1.429 . S
C1036 C1019 1.574 . S
C1036 H1030 0.949 . S
C1036 C1040 1.368 . S
C1037 C1018 1.429 . S
C1037 C1031 1.429 . S
C1037 C1038 1.523 . S
C1038 C1019 1.368 1_655 S
C1038 C1032 1.368 . S
C1038 C1037 1.523 . S
C1039 C1023 1.429 . S
C1039 C1035 1.429 . S
C1039 C1040 1.523 . S
C1040 C1024 1.368 1_455 S
C1040 C1036 1.368 . S
C1040 C1039 1.523 . S
H1041 C1016 0.950 . S
H1042 C1018 0.950 . S
H1043 C1019 0.949 . S
H1044 C1021 0.950 . S
H1045 C1023 0.950 . S
C1046 C1047 1.349 . S
C1046 C1048 1.327 . S
C1046 H1071 0.950 . S
C1047 C1046 1.349 . S
C1047 C1063 1.349 . S
C1048 C1046 1.327 . S
C1048 C1067 1.429 . S
C1048 H1072 0.950 . S
C1049 C1066 1.574 1_565 S
C1049 C1068 1.368 . S
C1049 H1073 0.949 . S
H1050 C1054 0.949 . S
C1051 C1052 1.349 . S
C1051 C1053 1.327 . S
C1051 H1074 0.950 . S
C1052 C1051 1.349 . S
C1052 C1064 1.349 . S
C1053 C1051 1.327 . S
C1053 C1069 1.429 . S
C1053 H1075 0.950 . S
C1054 H1050 0.949 . S
C1054 C1062 1.574 1_545 S
C1054 C1070 1.368 . S
H1055 C1063 0.950 . S
H1056 C1061 0.950 . S
H1057 C1062 0.949 . S
H1058 C1064 0.950 . S
H1059 C1065 0.950 . S
H1060 C1066 0.949 . S
C1061 H1056 0.950 . S
C1061 C1063 1.327 . S
C1061 C1067 1.429 . S
C1062 C1054 1.574 1_565 S
C1062 H1057 0.949 . S
C1062 C1068 1.368 . S
C1063 C1047 1.349 . S
C1063 H1055 0.950 . S
C1063 C1061 1.327 . S
C1064 C1052 1.349 . S
C1064 H1058 0.950 . S
C1064 C1065 1.327 . S
C1065 H1059 0.950 . S
C1065 C1064 1.327 . S
C1065 C1069 1.429 . S
C1066 C1049 1.574 1_545 S
C1066 H1060 0.949 . S
C1066 C1070 1.368 . S
C1067 C1048 1.429 . S
C1067 C1061 1.429 . S
C1067 C1068 1.523 . S
C1068 C1049 1.368 . S
C1068 C1062 1.368 . S
C1068 C1067 1.523 . S
C1069 C1053 1.429 . S
C1069 C1065 1.429 . S
C1069 C1070 1.523 . S
C1070 C1054 1.368 . S
C1070 C1066 1.368 . S
C1070 C1069 1.523 . S
H1071 C1046 0.950 . S
H1072 C1048 0.950 . S
H1073 C1049 0.949 . S
H1074 C1051 0.950 . S
H1075 C1053 0.950 . S
C1076 C1077 1.349 . S
C1076 C1078 1.327 . S
C1076 H1101 0.950 . S
C1077 C1076 1.349 . S
C1077 C1093 1.349 1_556 S
C1078 C1076 1.327 . S
C1078 C1097 1.456 . S
C1078 H1102 0.950 . S
C1079 C1096 1.574 . S
C1079 C1098 1.354 1_554 S
C1079 H1103 0.949 . S
H1080 C1084 0.949 . S
C1081 C1082 1.393 . S
C1081 C1083 1.327 . S
C1081 H1104 0.950 . S
C1082 C1081 1.393 . S
C1082 C1094 1.305 1_554 S
C1083 C1081 1.327 . S
C1083 C1099 1.445 . S
C1083 H1105 0.950 . S
C1084 H1080 0.949 . S
C1084 C1092 1.574 . S
C1084 C1100 1.366 1_556 S
H1085 C1093 0.950 . S
H1086 C1091 0.950 . S
H1087 C1092 0.949 . S
H1088 C1094 0.950 . S
H1089 C1095 0.950 . S
H1090 C1096 0.949 . S
C1091 H1086 0.950 . S
C1091 C1093 1.327 . S
C1091 C1097 1.402 1_554 S
C1092 C1084 1.574 . S
C1092 H1087 0.949 . S
C1092 C1098 1.382 . S
C1093 C1077 1.349 1_554 S
C1093 H1085 0.950 . S
C1093 C1091 1.327 . S
C1094 C1082 1.305 1_556 S
C1094 H1088 0.950 . S
C1094 C1095 1.327 . S
C1095 H1089 0.950 . S
C1095 C1094 1.327 . S
C1095 C1099 1.413 1_556 S
C1096 C1079 1.574 . S
C1096 H1090 0.949 . S
C1096 C1100 1.370 . S
C1097 C1078 1.456 . S
C1097 C1091 1.402 1_556 S
C1097 C1098 1.523 . S
C1098 C1079 1.354 1_556 S
C1098 C1092 1.382 . S
C1098 C1097 1.523 . S
C1099 C1083 1.445 . S
C1099 C1095 1.413 1_554 S
C1099 C1100 1.523 . S
C1100 C1084 1.366 1_554 S
C1100 C1096 1.370 . S
C1100 C1099 1.523 . S
H1101 C1076 0.950 . S
H1102 C1078 0.950 . S
H1103 C1079 0.949 . S
H1104 C1081 0.950 . S
H1105 C1083 0.950 . S
C1106 C1107 1.349 . S
C1106 C1108 1.327 . S
C1106 H1131 0.950 . S
C1107 C1106 1.349 . S
C1107 C1123 1.349 . S
C1108 C1106 1.327 . S
C1108 C1127 1.429 . S
C1108 H1132 0.950 . S
C1109 C1126 1.574 . S
C1109 C1128 1.368 . S
C1109 H1133 0.949 . S
H1110 C1114 0.949 . S
C1111 C1112 1.349 . S
C1111 C1113 1.327 . S
C1111 H1134 0.950 . S
C1112 C1111 1.349 . S
C1112 C1124 1.349 . S
C1113 C1111 1.327 . S
C1113 C1129 1.429 . S
C1113 H1135 0.950 . S
C1114 H1110 0.949 . S
C1114 C1122 1.574 . S
C1114 C1130 1.368 . S
H1115 C1123 0.950 . S
H1116 C1121 0.950 . S
H1117 C1122 0.949 . S
H1118 C1124 0.950 . S
H1119 C1125 0.950 . S
H1120 C1126 0.949 . S
C1121 H1116 0.950 . S
C1121 C1123 1.327 . S
C1121 C1127 1.429 . S
C1122 C1114 1.574 . S
C1122 H1117 0.949 . S
C1122 C1128 1.368 . S
C1123 C1107 1.349 . S
C1123 H1115 0.950 . S
C1123 C1121 1.327 . S
C1124 C1112 1.349 . S
C1124 H1118 0.950 . S
C1124 C1125 1.327 . S
C1125 H1119 0.950 . S
C1125 C1124 1.327 . S
C1125 C1129 1.429 . S
C1126 C1109 1.574 . S
C1126 H1120 0.949 . S
C1126 C1130 1.368 . S
C1127 C1108 1.429 . S
C1127 C1121 1.429 . S
C1127 C1128 1.523 . S
C1128 C1109 1.368 . S
C1128 C1122 1.368 . S
C1128 C1127 1.523 . S
C1129 C1113 1.429 . S
C1129 C1125 1.429 . S
C1129 C1130 1.523 . S
C1130 C1114 1.368 . S
C1130 C1126 1.368 . S
C1130 C1129 1.523 . S
H1131 C1106 0.950 . S
H1132 C1108 0.950 . S
H1133 C1109 0.949 . S
H1134 C1111 0.950 . S
H1135 C1113 0.950 . S
C1136 C1137 1.349 . S
C1136 C1138 1.327 . S
C1136 H1161 0.950 . S
C1137 C1136 1.349 . S
C1137 C1153 1.349 . S
C1138 C1136 1.327 . S
C1138 C1157 1.429 . S
C1138 H1162 0.950 . S
C1139 C1156 1.574 . S
C1139 C1158 1.368 . S
C1139 H1163 0.949 . S
H1140 C1144 0.949 . S
C1141 C1142 1.349 . S
C1141 C1143 1.327 . S
C1141 H1164 0.950 . S
C1142 C1141 1.349 . S
C1142 C1154 1.349 . S
C1143 C1141 1.327 . S
C1143 C1159 1.429 . S
C1143 H1165 0.950 . S
C1144 H1140 0.949 . S
C1144 C1152 1.574 . S
C1144 C1160 1.368 . S
H1145 C1153 0.950 . S
H1146 C1151 0.950 . S
H1147 C1152 0.949 . S
H1148 C1154 0.950 . S
H1149 C1155 0.950 . S
H1150 C1156 0.949 . S
C1151 H1146 0.950 . S
C1151 C1153 1.327 . S
C1151 C1157 1.429 . S
C1152 C1144 1.574 . S
C1152 H1147 0.949 . S
C1152 C1158 1.368 1_455 S
C1153 C1137 1.349 . S
C1153 H1145 0.950 . S
C1153 C1151 1.327 . S
C1154 C1142 1.349 . S
C1154 H1148 0.950 . S
C1154 C1155 1.327 . S
C1155 H1149 0.950 . S
C1155 C1154 1.327 . S
C1155 C1159 1.429 . S
C1156 C1139 1.574 . S
C1156 H1150 0.949 . S
C1156 C1160 1.368 1_655 S
C1157 C1138 1.429 . S
C1157 C1151 1.429 . S
C1157 C1158 1.523 . S
C1158 C1139 1.368 . S
C1158 C1152 1.368 1_655 S
C1158 C1157 1.523 . S
C1159 C1143 1.429 . S
C1159 C1155 1.429 . S
C1159 C1160 1.523 . S
C1160 C1144 1.368 . S
C1160 C1156 1.368 1_455 S
C1160 C1159 1.523 . S
H1161 C1136 0.950 . S
H1162 C1138 0.950 . S
H1163 C1139 0.949 . S
H1164 C1141 0.950 . S
H1165 C1143 0.950 . S
C1166 C1167 1.349 . S
C1166 C1168 1.327 . S
C1166 H1191 0.950 . S
C1167 C1166 1.349 . S
C1167 C1183 1.349 . S
C1168 C1166 1.327 . S
C1168 C1187 1.429 . S
C1168 H1192 0.950 . S
C1169 C1186 1.574 . S
C1169 C1188 1.368 . S
C1169 H1193 0.949 . S
H1170 C1174 0.949 . S
C1171 C1172 1.349 . S
C1171 C1173 1.327 . S
C1171 H1194 0.950 . S
C1172 C1171 1.349 . S
C1172 C1184 1.349 . S
C1173 C1171 1.327 . S
C1173 C1189 1.429 . S
C1173 H1195 0.950 . S
C1174 H1170 0.949 . S
C1174 C1182 1.574 . S
C1174 C1190 1.368 . S
H1175 C1183 0.950 . S
H1176 C1181 0.950 . S
H1177 C1182 0.949 . S
H1178 C1184 0.950 . S
H1179 C1185 0.950 . S
H1180 C1186 0.949 . S
C1181 H1176 0.950 . S
C1181 C1183 1.327 . S
C1181 C1187 1.429 . S
C1182 C1174 1.574 . S
C1182 H1177 0.949 . S
C1182 C1188 1.368 . S
C1183 C1167 1.349 . S
C1183 H1175 0.950 . S
C1183 C1181 1.327 . S
C1184 C1172 1.349 . S
C1184 H1178 0.950 . S
C1184 C1185 1.327 . S
C1185 H1179 0.950 . S
C1185 C1184 1.327 . S
C1185 C1189 1.429 . S
C1186 C1169 1.574 . S
C1186 H1180 0.949 . S
C1186 C1190 1.368 . S
C1187 C1168 1.429 . S
C1187 C1181 1.429 . S
C1187 C1188 1.523 . S
C1188 C1169 1.368 . S
C1188 C1182 1.368 . S
C1188 C1187 1.523 . S
C1189 C1173 1.429 . S
C1189 C1185 1.429 . S
C1189 C1190 1.523 . S
C1190 C1174 1.368 . S
C1190 C1186 1.368 . S
C1190 C1189 1.523 . S
H1191 C1166 0.950 . S
H1192 C1168 0.950 . S
H1193 C1169 0.949 . S
H1194 C1171 0.950 . S
H1195 C1173 0.950 . S
C1196 C1197 1.349 . S
C1196 C1198 1.327 . S
C1196 H1221 0.950 . S
C1197 C1196 1.349 . S
C1197 C1213 1.349 . S
C1198 C1196 1.327 . S
C1198 C1217 1.429 . S
C1198 H1222 0.950 . S
C1199 C1216 1.574 . S
C1199 C1218 1.368 . S
C1199 H1223 0.949 . S
H1200 C1204 0.949 . S
C1201 C1202 1.349 . S
C1201 C1203 1.327 . S
C1201 H1224 0.950 . S
C1202 C1201 1.349 . S
C1202 C1214 1.349 . S
C1203 C1201 1.327 . S
C1203 C1219 1.429 . S
C1203 H1225 0.950 . S
C1204 H1200 0.949 . S
C1204 C1212 1.574 . S
C1204 C1220 1.368 . S
H1205 C1213 0.950 . S
H1206 C1211 0.950 . S
H1207 C1212 0.949 . S
H1208 C1214 0.950 . S
H1209 C1215 0.950 . S
H1210 C1216 0.949 . S
C1211 H1206 0.950 . S
C1211 C1213 1.327 . S
C1211 C1217 1.429 . S
C1212 C1204 1.574 . S
C1212 H1207 0.949 . S
C1212 C1218 1.368 . S
C1213 C1197 1.349 . S
C1213 H1205 0.950 . S
C1213 C1211 1.327 . S
C1214 C1202 1.349 . S
C1214 H1208 0.950 . S
C1214 C1215 1.327 . S
C1215 H1209 0.950 . S
C1215 C1214 1.327 . S
C1215 C1219 1.429 . S
C1216 C1199 1.574 . S
C1216 H1210 0.949 . S
C1216 C1220 1.368 . S
C1217 C1198 1.429 . S
C1217 C1211 1.429 . S
C1217 C1218 1.523 . S
C1218 C1199 1.368 . S
C1218 C1212 1.368 . S
C1218 C1217 1.523 . S
C1219 C1203 1.429 . S
C1219 C1215 1.429 . S
C1219 C1220 1.523 . S
C1220 C1204 1.368 . S
C1220 C1216 1.368 . S
C1220 C1219 1.523 . S
H1221 C1196 0.950 . S
H1222 C1198 0.950 . S
H1223 C1199 0.949 . S
H1224 C1201 0.950 . S
H1225 C1203 0.950 . S
C1226 C1227 1.349 . S
C1226 C1228 1.327 . S
C1226 H1251 0.950 . S
C1227 C1226 1.349 . S
C1227 C1243 1.349 . S
C1228 C1226 1.327 . S
C1228 C1247 1.429 . S
C1228 H1252 0.950 . S
C1229 C1246 1.574 . S
C1229 C1248 1.368 . S
C1229 H1253 0.949 . S
H1230 C1234 0.949 . S
C1231 C1232 1.349 . S
C1231 C1233 1.327 . S
C1231 H1254 0.950 . S
C1232 C1231 1.349 . S
C1232 C1244 1.349 . S
C1233 C1231 1.327 . S
C1233 C1249 1.429 . S
C1233 H1255 0.950 . S
C1234 H1230 0.949 . S
C1234 C1242 1.574 . S
C1234 C1250 1.368 . S
H1235 C1243 0.950 . S
H1236 C1241 0.950 . S
H1237 C1242 0.949 . S
H1238 C1244 0.950 . S
H1239 C1245 0.950 . S
H1240 C1246 0.949 . S
C1241 H1236 0.950 . S
C1241 C1243 1.327 . S
C1241 C1247 1.429 . S
C1242 C1234 1.574 . S
C1242 H1237 0.949 . S
C1242 C1248 1.368 . S
C1243 C1227 1.349 . S
C1243 H1235 0.950 . S
C1243 C1241 1.327 . S
C1244 C1232 1.349 . S
C1244 H1238 0.950 . S
C1244 C1245 1.327 . S
C1245 H1239 0.950 . S
C1245 C1244 1.327 . S
C1245 C1249 1.429 . S
C1246 C1229 1.574 . S
C1246 H1240 0.949 . S
C1246 C1250 1.368 . S
C1247 C1228 1.429 . S
C1247 C1241 1.429 . S
C1247 C1248 1.523 . S
C1248 C1229 1.368 . S
C1248 C1242 1.368 . S
C1248 C1247 1.523 . S
C1249 C1233 1.429 . S
C1249 C1245 1.429 . S
C1249 C1250 1.523 . S
C1250 C1234 1.368 . S
C1250 C1246 1.368 . S
C1250 C1249 1.523 . S
H1251 C1226 0.950 . S
H1252 C1228 0.950 . S
H1253 C1229 0.949 . S
H1254 C1231 0.950 . S
H1255 C1233 0.950 . S
C1256 C1257 1.349 . S
C1256 C1258 1.327 . S
C1256 H1281 0.950 . S
C1257 C1256 1.349 . S
C1257 C1273 1.349 . S
C1258 C1256 1.327 . S
C1258 C1277 1.429 . S
C1258 H1282 0.950 . S
C1259 C1276 1.574 . S
C1259 C1278 1.368 . S
C1259 H1283 0.949 . S
H1260 C1264 0.949 . S
C1261 C1262 1.349 . S
C1261 C1263 1.327 . S
C1261 H1284 0.950 . S
C1262 C1261 1.349 . S
C1262 C1274 1.349 . S
C1263 C1261 1.327 . S
C1263 C1279 1.429 . S
C1263 H1285 0.950 . S
C1264 H1260 0.949 . S
C1264 C1272 1.574 . S
C1264 C1280 1.368 . S
H1265 C1273 0.950 . S
H1266 C1271 0.950 . S
H1267 C1272 0.949 . S
H1268 C1274 0.950 . S
H1269 C1275 0.950 . S
H1270 C1276 0.949 . S
C1271 H1266 0.950 . S
C1271 C1273 1.327 . S
C1271 C1277 1.429 . S
C1272 C1264 1.574 . S
C1272 H1267 0.949 . S
C1272 C1278 1.368 . S
C1273 C1257 1.349 . S
C1273 H1265 0.950 . S
C1273 C1271 1.327 . S
C1274 C1262 1.349 . S
C1274 H1268 0.950 . S
C1274 C1275 1.327 . S
C1275 H1269 0.950 . S
C1275 C1274 1.327 . S
C1275 C1279 1.429 . S
C1276 C1259 1.574 . S
C1276 H1270 0.949 . S
C1276 C1280 1.368 . S
C1277 C1258 1.429 . S
C1277 C1271 1.429 . S
C1277 C1278 1.523 . S
C1278 C1259 1.368 . S
C1278 C1272 1.368 . S
C1278 C1277 1.523 . S
C1279 C1263 1.429 . S
C1279 C1275 1.429 . S
C1279 C1280 1.523 . S
C1280 C1264 1.368 . S
C1280 C1276 1.368 . S
C1280 C1279 1.523 . S
H1281 C1256 0.950 . S
H1282 C1258 0.950 . S
H1283 C1259 0.949 . S
H1284 C1261 0.950 . S
H1285 C1263 0.950 . S
C1286 C1287 1.349 . S
C1286 C1288 1.327 . S
C1286 H1311 0.950 . S
C1287 C1286 1.349 . S
C1287 C1303 1.349 . S
C1288 C1286 1.327 . S
C1288 C1307 1.429 . S
C1288 H1312 0.950 . S
C1289 C1306 1.574 1_545 S
C1289 C1308 1.368 . S
C1289 H1313 0.949 . S
H1290 C1294 0.949 . S
C1291 C1292 1.349 . S
C1291 C1293 1.327 . S
C1291 H1314 0.950 . S
C1292 C1291 1.349 . S
C1292 C1304 1.349 . S
C1293 C1291 1.327 . S
C1293 C1309 1.429 . S
C1293 H1315 0.950 . S
C1294 H1290 0.949 . S
C1294 C1302 1.574 1_565 S
C1294 C1310 1.368 . S
H1295 C1303 0.950 . S
H1296 C1301 0.950 . S
H1297 C1302 0.949 . S
H1298 C1304 0.950 . S
H1299 C1305 0.950 . S
H1300 C1306 0.949 . S
C1301 H1296 0.950 . S
C1301 C1303 1.327 . S
C1301 C1307 1.429 . S
C1302 C1294 1.574 1_545 S
C1302 H1297 0.949 . S
C1302 C1308 1.368 . S
C1303 C1287 1.349 . S
C1303 H1295 0.950 . S
C1303 C1301 1.327 . S
C1304 C1292 1.349 . S
C1304 H1298 0.950 . S
C1304 C1305 1.327 . S
C1305 H1299 0.950 . S
C1305 C1304 1.327 . S
C1305 C1309 1.429 . S
C1306 C1289 1.574 1_565 S
C1306 H1300 0.949 . S
C1306 C1310 1.368 . S
C1307 C1288 1.429 . S
C1307 C1301 1.429 . S
C1307 C1308 1.523 . S
C1308 C1289 1.368 . S
C1308 C1302 1.368 . S
C1308 C1307 1.523 . S
C1309 C1293 1.429 . S
C1309 C1305 1.429 . S
C1309 C1310 1.523 . S
C1310 C1294 1.368 . S
C1310 C1306 1.368 . S
C1310 C1309 1.523 . S
H1311 C1286 0.950 . S
H1312 C1288 0.950 . S
H1313 C1289 0.949 . S
H1314 C1291 0.950 . S
H1315 C1293 0.950 . S
C1316 C1317 1.349 . S
C1316 C1318 1.327 . S
C1316 H1341 0.950 . S
C1317 C1316 1.349 . S
C1317 C1333 1.349 . S
C1318 C1316 1.327 . S
C1318 C1337 1.429 . S
C1318 H1342 0.950 . S
C1319 C1336 1.574 . S
C1319 C1338 1.368 . S
C1319 H1343 0.949 . S
H1320 C1324 0.949 . S
C1321 C1322 1.349 . S
C1321 C1323 1.327 . S
C1321 H1344 0.950 . S
C1322 C1321 1.349 . S
C1322 C1334 1.349 . S
C1323 C1321 1.327 . S
C1323 C1339 1.429 . S
C1323 H1345 0.950 . S
C1324 H1320 0.949 . S
C1324 C1332 1.574 . S
C1324 C1340 1.368 . S
H1325 C1333 0.950 . S
H1326 C1331 0.950 . S
H1327 C1332 0.949 . S
H1328 C1334 0.950 . S
H1329 C1335 0.950 . S
H1330 C1336 0.949 . S
C1331 H1326 0.950 . S
C1331 C1333 1.327 . S
C1331 C1337 1.429 . S
C1332 C1324 1.574 . S
C1332 H1327 0.949 . S
C1332 C1338 1.368 . S
C1333 C1317 1.349 . S
C1333 H1325 0.950 . S
C1333 C1331 1.327 . S
C1334 C1322 1.349 . S
C1334 H1328 0.950 . S
C1334 C1335 1.327 . S
C1335 H1329 0.950 . S
C1335 C1334 1.327 . S
C1335 C1339 1.429 . S
C1336 C1319 1.574 . S
C1336 H1330 0.949 . S
C1336 C1340 1.368 . S
C1337 C1318 1.429 . S
C1337 C1331 1.429 . S
C1337 C1338 1.523 . S
C1338 C1319 1.368 . S
C1338 C1332 1.368 . S
C1338 C1337 1.523 . S
C1339 C1323 1.429 . S
C1339 C1335 1.429 . S
C1339 C1340 1.523 . S
C1340 C1324 1.368 . S
C1340 C1336 1.368 . S
C1340 C1339 1.523 . S
H1341 C1316 0.950 . S
H1342 C1318 0.950 . S
H1343 C1319 0.949 . S
H1344 C1321 0.950 . S
H1345 C1323 0.950 . S
C1346 C1347 1.349 . S
C1346 C1348 1.327 . S
C1346 H1371 0.950 . S
C1347 C1346 1.349 . S
C1347 C1363 1.349 1_556 S
C1348 C1346 1.327 . S
C1348 C1367 1.456 . S
C1348 H1372 0.950 . S
C1349 C1366 1.574 . S
C1349 C1368 1.354 1_554 S
C1349 H1373 0.949 . S
H1350 C1354 0.949 . S
C1351 C1352 1.394 . S
C1351 C1353 1.327 . S
C1351 H1374 0.950 . S
C1352 C1351 1.394 . S
C1352 C1364 1.305 1_554 S
C1353 C1351 1.327 . S
C1353 C1369 1.445 . S
C1353 H1375 0.950 . S
C1354 H1350 0.949 . S
C1354 C1362 1.574 . S
C1354 C1370 1.366 1_556 S
H1355 C1363 0.950 . S
H1356 C1361 0.950 . S
H1357 C1362 0.949 . S
H1358 C1364 0.950 . S
H1359 C1365 0.950 . S
H1360 C1366 0.949 . S
C1361 H1356 0.950 . S
C1361 C1363 1.327 . S
C1361 C1367 1.402 1_554 S
C1362 C1354 1.574 . S
C1362 H1357 0.949 . S
C1362 C1368 1.382 . S
C1363 C1347 1.349 1_554 S
C1363 H1355 0.950 . S
C1363 C1361 1.327 . S
C1364 C1352 1.305 1_556 S
C1364 H1358 0.950 . S
C1364 C1365 1.327 . S
C1365 H1359 0.950 . S
C1365 C1364 1.327 . S
C1365 C1369 1.413 1_556 S
C1366 C1349 1.574 . S
C1366 H1360 0.949 . S
C1366 C1370 1.370 . S
C1367 C1348 1.456 . S
C1367 C1361 1.402 1_556 S
C1367 C1368 1.523 . S
C1368 C1349 1.354 1_556 S
C1368 C1362 1.382 . S
C1368 C1367 1.523 . S
C1369 C1353 1.445 . S
C1369 C1365 1.413 1_554 S
C1369 C1370 1.523 . S
C1370 C1354 1.366 1_554 S
C1370 C1366 1.370 . S
C1370 C1369 1.523 . S
H1371 C1346 0.950 . S
H1372 C1348 0.950 . S
H1373 C1349 0.949 . S
H1374 C1351 0.950 . S
H1375 C1353 0.950 . S
C1376 C1377 1.349 . S
C1376 C1378 1.327 . S
C1376 H1401 0.950 . S
C1377 C1376 1.349 . S
C1377 C1393 1.349 . S
C1378 C1376 1.327 . S
C1378 C1397 1.429 . S
C1378 H1402 0.950 . S
C1379 C1396 1.574 . S
C1379 C1398 1.368 . S
C1379 H1403 0.949 . S
H1380 C1384 0.949 . S
C1381 C1382 1.349 . S
C1381 C1383 1.327 . S
C1381 H1404 0.950 . S
C1382 C1381 1.349 . S
C1382 C1394 1.349 . S
C1383 C1381 1.327 . S
C1383 C1399 1.429 . S
C1383 H1405 0.950 . S
C1384 H1380 0.949 . S
C1384 C1392 1.574 . S
C1384 C1400 1.368 . S
H1385 C1393 0.950 . S
H1386 C1391 0.950 . S
H1387 C1392 0.949 . S
H1388 C1394 0.950 . S
H1389 C1395 0.950 . S
H1390 C1396 0.949 . S
C1391 H1386 0.950 . S
C1391 C1393 1.327 . S
C1391 C1397 1.429 . S
C1392 C1384 1.574 . S
C1392 H1387 0.949 . S
C1392 C1398 1.368 . S
C1393 C1377 1.349 . S
C1393 H1385 0.950 . S
C1393 C1391 1.327 . S
C1394 C1382 1.349 . S
C1394 H1388 0.950 . S
C1394 C1395 1.327 . S
C1395 H1389 0.950 . S
C1395 C1394 1.327 . S
C1395 C1399 1.429 . S
C1396 C1379 1.574 . S
C1396 H1390 0.949 . S
C1396 C1400 1.368 . S
C1397 C1378 1.429 . S
C1397 C1391 1.429 . S
C1397 C1398 1.523 . S
C1398 C1379 1.368 . S
C1398 C1392 1.368 . S
C1398 C1397 1.523 . S
C1399 C1383 1.429 . S
C1399 C1395 1.429 . S
C1399 C1400 1.523 . S
C1400 C1384 1.368 . S
C1400 C1396 1.368 . S
C1400 C1399 1.523 . S
H1401 C1376 0.950 . S
H1402 C1378 0.950 . S
H1403 C1379 0.949 . S
H1404 C1381 0.950 . S
H1405 C1383 0.950 . S
C1406 C1407 1.349 . S
C1406 C1408 1.327 . S
C1406 H1431 0.950 . S
C1407 C1406 1.349 . S
C1407 C1423 1.349 . S
C1408 C1406 1.327 . S
C1408 C1427 1.429 . S
C1408 H1432 0.950 . S
C1409 C1426 1.574 . S
C1409 C1428 1.368 . S
C1409 H1433 0.949 . S
H1410 C1414 0.949 . S
C1411 C1412 1.349 . S
C1411 C1413 1.327 . S
C1411 H1434 0.950 . S
C1412 C1411 1.349 . S
C1412 C1424 1.349 . S
C1413 C1411 1.327 . S
C1413 C1429 1.429 . S
C1413 H1435 0.950 . S
C1414 H1410 0.949 . S
C1414 C1422 1.574 . S
C1414 C1430 1.368 . S
H1415 C1423 0.950 . S
H1416 C1421 0.950 . S
H1417 C1422 0.949 . S
H1418 C1424 0.950 . S
H1419 C1425 0.950 . S
H1420 C1426 0.949 . S
C1421 H1416 0.950 . S
C1421 C1423 1.327 . S
C1421 C1427 1.429 . S
C1422 C1414 1.574 . S
C1422 H1417 0.949 . S
C1422 C1428 1.368 . S
C1423 C1407 1.349 . S
C1423 H1415 0.950 . S
C1423 C1421 1.327 . S
C1424 C1412 1.349 . S
C1424 H1418 0.950 . S
C1424 C1425 1.327 . S
C1425 H1419 0.950 . S
C1425 C1424 1.327 . S
C1425 C1429 1.429 . S
C1426 C1409 1.574 . S
C1426 H1420 0.949 . S
C1426 C1430 1.368 . S
C1427 C1408 1.429 . S
C1427 C1421 1.429 . S
C1427 C1428 1.523 . S
C1428 C1409 1.368 . S
C1428 C1422 1.368 . S
C1428 C1427 1.523 . S
C1429 C1413 1.429 . S
C1429 C1425 1.429 . S
C1429 C1430 1.523 . S
C1430 C1414 1.368 . S
C1430 C1426 1.368 . S
C1430 C1429 1.523 . S
H1431 C1406 0.950 . S
H1432 C1408 0.950 . S
H1433 C1409 0.949 . S
H1434 C1411 0.950 . S
H1435 C1413 0.950 . S
C1436 C1437 1.349 . S
C1436 C1438 1.327 . S
C1436 H1461 0.950 . S
C1437 C1436 1.349 . S
C1437 C1453 1.349 . S
C1438 C1436 1.327 . S
C1438 C1457 1.429 . S
C1438 H1462 0.950 . S
C1439 C1456 1.574 . S
C1439 C1458 1.368 . S
C1439 H1463 0.949 . S
H1440 C1444 0.949 . S
C1441 C1442 1.349 . S
C1441 C1443 1.327 . S
C1441 H1464 0.950 . S
C1442 C1441 1.349 . S
C1442 C1454 1.349 . S
C1443 C1441 1.327 . S
C1443 C1459 1.429 . S
C1443 H1465 0.950 . S
C1444 H1440 0.949 . S
C1444 C1452 1.574 . S
C1444 C1460 1.368 . S
H1445 C1453 0.950 . S
H1446 C1451 0.950 . S
H1447 C1452 0.949 . S
H1448 C1454 0.950 . S
H1449 C1455 0.950 . S
H1450 C1456 0.949 . S
C1451 H1446 0.950 . S
C1451 C1453 1.327 . S
C1451 C1457 1.429 . S
C1452 C1444 1.574 . S
C1452 H1447 0.949 . S
C1452 C1458 1.368 . S
C1453 C1437 1.349 . S
C1453 H1445 0.950 . S
C1453 C1451 1.327 . S
C1454 C1442 1.349 . S
C1454 H1448 0.950 . S
C1454 C1455 1.327 . S
C1455 H1449 0.950 . S
C1455 C1454 1.327 . S
C1455 C1459 1.429 . S
C1456 C1439 1.574 . S
C1456 H1450 0.949 . S
C1456 C1460 1.368 . S
C1457 C1438 1.429 . S
C1457 C1451 1.429 . S
C1457 C1458 1.523 . S
C1458 C1439 1.368 . S
C1458 C1452 1.368 . S
C1458 C1457 1.523 . S
C1459 C1443 1.429 . S
C1459 C1455 1.429 . S
C1459 C1460 1.523 . S
C1460 C1444 1.368 . S
C1460 C1456 1.368 . S
C1460 C1459 1.523 . S
H1461 C1436 0.950 . S
H1462 C1438 0.950 . S
H1463 C1439 0.949 . S
H1464 C1441 0.950 . S
H1465 C1443 0.950 . S
C1466 C1467 1.349 . S
C1466 C1468 1.327 . S
C1466 H1491 0.950 . S
C1467 C1466 1.349 . S
C1467 C1483 1.349 . S
C1468 C1466 1.327 . S
C1468 C1487 1.429 . S
C1468 H1492 0.950 . S
C1469 C1486 1.574 . S
C1469 C1488 1.368 . S
C1469 H1493 0.949 . S
H1470 C1474 0.949 . S
C1471 C1472 1.349 . S
C1471 C1473 1.327 . S
C1471 H1494 0.950 . S
C1472 C1471 1.349 . S
C1472 C1484 1.349 . S
C1473 C1471 1.327 . S
C1473 C1489 1.429 . S
C1473 H1495 0.950 . S
C1474 H1470 0.949 . S
C1474 C1482 1.574 . S
C1474 C1490 1.368 . S
H1475 C1483 0.950 . S
H1476 C1481 0.950 . S
H1477 C1482 0.949 . S
H1478 C1484 0.950 . S
H1479 C1485 0.950 . S
H1480 C1486 0.949 . S
C1481 H1476 0.950 . S
C1481 C1483 1.327 . S
C1481 C1487 1.429 . S
C1482 C1474 1.574 . S
C1482 H1477 0.949 . S
C1482 C1488 1.368 . S
C1483 C1467 1.349 . S
C1483 H1475 0.950 . S
C1483 C1481 1.327 . S
C1484 C1472 1.349 . S
C1484 H1478 0.950 . S
C1484 C1485 1.327 . S
C1485 H1479 0.950 . S
C1485 C1484 1.327 . S
C1485 C1489 1.429 . S
C1486 C1469 1.574 . S
C1486 H1480 0.949 . S
C1486 C1490 1.368 . S
C1487 C1468 1.429 . S
C1487 C1481 1.429 . S
C1487 C1488 1.523 . S
C1488 C1469 1.368 . S
C1488 C1482 1.368 . S
C1488 C1487 1.523 . S
C1489 C1473 1.429 . S
C1489 C1485 1.429 . S
C1489 C1490 1.523 . S
C1490 C1474 1.368 . S
C1490 C1486 1.368 . S
C1490 C1489 1.523 . S
H1491 C1466 0.950 . S
H1492 C1468 0.950 . S
H1493 C1469 0.949 . S
H1494 C1471 0.950 . S
H1495 C1473 0.950 . S
C1496 C1497 1.349 . S
C1496 C1498 1.327 . S
C1496 H1521 0.950 . S
C1497 C1496 1.349 . S
C1497 C1513 1.349 . S
C1498 C1496 1.327 . S
C1498 C1517 1.429 . S
C1498 H1522 0.950 . S
C1499 C1516 1.574 . S
C1499 C1518 1.368 . S
C1499 H1523 0.949 . S
H1500 C1504 0.949 . S
C1501 C1502 1.349 . S
C1501 C1503 1.327 . S
C1501 H1524 0.950 . S
C1502 C1501 1.349 . S
C1502 C1514 1.349 . S
C1503 C1501 1.327 . S
C1503 C1519 1.429 . S
C1503 H1525 0.950 . S
C1504 H1500 0.949 . S
C1504 C1512 1.574 . S
C1504 C1520 1.368 . S
H1505 C1513 0.950 . S
H1506 C1511 0.950 . S
H1507 C1512 0.949 . S
H1508 C1514 0.950 . S
H1509 C1515 0.950 . S
H1510 C1516 0.949 . S
C1511 H1506 0.950 . S
C1511 C1513 1.327 . S
C1511 C1517 1.429 . S
C1512 C1504 1.574 . S
C1512 H1507 0.949 . S
C1512 C1518 1.368 . S
C1513 C1497 1.349 . S
C1513 H1505 0.950 . S
C1513 C1511 1.327 . S
C1514 C1502 1.349 . S
C1514 H1508 0.950 . S
C1514 C1515 1.327 . S
C1515 H1509 0.950 . S
C1515 C1514 1.327 . S
C1515 C1519 1.429 . S
C1516 C1499 1.574 . S
C1516 H1510 0.949 . S
C1516 C1520 1.368 . S
C1517 C1498 1.429 . S
C1517 C1511 1.429 . S
C1517 C1518 1.523 . S
C1518 C1499 1.368 . S
C1518 C1512 1.368 . S
C1518 C1517 1.523 . S
C1519 C1503 1.429 . S
C1519 C1515 1.429 . S
C1519 C1520 1.523 . S
C1520 C1504 1.368 . S
C1520 C1516 1.368 . S
C1520 C1519 1.523 . S
H1521 C1496 0.950 . S
H1522 C1498 0.950 . S
H1523 C1499 0.949 . S
H1524 C1501 0.950 . S
H1525 C1503 0.950 . S
C1526 C1527 1.349 . S
C1526 C1528 1.327 . S
C1526 H1551 0.950 . S
C1527 C1526 1.349 . S
C1527 C1543 1.349 . S
C1528 C1526 1.327 . S
C1528 C1547 1.429 . S
C1528 H1552 0.950 . S
C1529 C1546 1.574 . S
C1529 C1548 1.368 . S
C1529 H1553 0.949 . S
H1530 C1534 0.949 . S
C1531 C1532 1.349 . S
C1531 C1533 1.327 . S
C1531 H1554 0.950 . S
C1532 C1531 1.349 . S
C1532 C1544 1.349 . S
C1533 C1531 1.327 . S
C1533 C1549 1.429 . S
C1533 H1555 0.950 . S
C1534 H1530 0.949 . S
C1534 C1542 1.574 . S
C1534 C1550 1.368 . S
H1535 C1543 0.950 . S
H1536 C1541 0.950 . S
H1537 C1542 0.949 . S
H1538 C1544 0.950 . S
H1539 C1545 0.950 . S
H1540 C1546 0.949 . S
C1541 H1536 0.950 . S
C1541 C1543 1.327 . S
C1541 C1547 1.429 . S
C1542 C1534 1.574 . S
C1542 H1537 0.949 . S
C1542 C1548 1.368 . S
C1543 C1527 1.349 . S
C1543 H1535 0.950 . S
C1543 C1541 1.327 . S
C1544 C1532 1.349 . S
C1544 H1538 0.950 . S
C1544 C1545 1.327 . S
C1545 H1539 0.950 . S
C1545 C1544 1.327 . S
C1545 C1549 1.429 . S
C1546 C1529 1.574 . S
C1546 H1540 0.949 . S
C1546 C1550 1.368 . S
C1547 C1528 1.429 . S
C1547 C1541 1.429 . S
C1547 C1548 1.523 . S
C1548 C1529 1.368 . S
C1548 C1542 1.368 . S
C1548 C1547 1.523 . S
C1549 C1533 1.429 . S
C1549 C1545 1.429 . S
C1549 C1550 1.523 . S
C1550 C1534 1.368 . S
C1550 C1546 1.368 . S
C1550 C1549 1.523 . S
H1551 C1526 0.950 . S
H1552 C1528 0.950 . S
H1553 C1529 0.949 . S
H1554 C1531 0.950 . S
H1555 C1533 0.950 . S
C1556 C1557 1.349 . S
C1556 C1558 1.327 . S
C1556 H1581 0.950 . S
C1557 C1556 1.349 . S
C1557 C1573 1.349 . S
C1558 C1556 1.327 . S
C1558 C1577 1.429 . S
C1558 H1582 0.950 . S
C1559 C1576 1.574 . S
C1559 C1578 1.368 . S
C1559 H1583 0.949 . S
H1560 C1564 0.949 . S
C1561 C1562 1.349 . S
C1561 C1563 1.327 . S
C1561 H1584 0.950 . S
C1562 C1561 1.349 . S
C1562 C1574 1.349 . S
C1563 C1561 1.327 . S
C1563 C1579 1.429 . S
C1563 H1585 0.950 . S
C1564 H1560 0.949 . S
C1564 C1572 1.574 . S
C1564 C1580 1.368 . S
H1565 C1573 0.950 . S
H1566 C1571 0.950 . S
H1567 C1572 0.949 . S
H1568 C1574 0.950 . S
H1569 C1575 0.950 . S
H1570 C1576 0.949 . S
C1571 H1566 0.950 . S
C1571 C1573 1.327 . S
C1571 C1577 1.429 . S
C1572 C1564 1.574 . S
C1572 H1567 0.949 . S
C1572 C1578 1.368 . S
C1573 C1557 1.349 . S
C1573 H1565 0.950 . S
C1573 C1571 1.327 . S
C1574 C1562 1.349 . S
C1574 H1568 0.950 . S
C1574 C1575 1.327 . S
C1575 H1569 0.950 . S
C1575 C1574 1.327 . S
C1575 C1579 1.429 . S
C1576 C1559 1.574 . S
C1576 H1570 0.949 . S
C1576 C1580 1.368 . S
C1577 C1558 1.429 . S
C1577 C1571 1.429 . S
C1577 C1578 1.523 . S
C1578 C1559 1.368 . S
C1578 C1572 1.368 . S
C1578 C1577 1.523 . S
C1579 C1563 1.429 . S
C1579 C1575 1.429 . S
C1579 C1580 1.523 . S
C1580 C1564 1.368 . S
C1580 C1576 1.368 . S
C1580 C1579 1.523 . S
H1581 C1556 0.950 . S
H1582 C1558 0.950 . S
H1583 C1559 0.949 . S
H1584 C1561 0.950 . S
H1585 C1563 0.950 . S
C1586 C1587 1.349 . S
C1586 C1588 1.327 . S
C1586 H1611 0.950 . S
C1587 C1586 1.349 . S
C1587 C1603 1.349 . S
C1588 C1586 1.327 . S
C1588 C1607 1.429 . S
C1588 H1612 0.950 . S
C1589 C1606 1.574 . S
C1589 C1608 1.368 . S
C1589 H1613 0.949 . S
H1590 C1594 0.949 . S
C1591 C1592 1.349 . S
C1591 C1593 1.327 . S
C1591 H1614 0.950 . S
C1592 C1591 1.349 . S
C1592 C1604 1.349 . S
C1593 C1591 1.327 . S
C1593 C1609 1.429 . S
C1593 H1615 0.950 . S
C1594 H1590 0.949 . S
C1594 C1602 1.574 . S
C1594 C1610 1.368 . S
H1595 C1603 0.950 . S
H1596 C1601 0.950 . S
H1597 C1602 0.949 . S
H1598 C1604 0.950 . S
H1599 C1605 0.950 . S
H1600 C1606 0.949 . S
C1601 H1596 0.950 . S
C1601 C1603 1.327 . S
C1601 C1607 1.429 . S
C1602 C1594 1.574 . S
C1602 H1597 0.949 . S
C1602 C1608 1.368 . S
C1603 C1587 1.349 . S
C1603 H1595 0.950 . S
C1603 C1601 1.327 . S
C1604 C1592 1.349 . S
C1604 H1598 0.950 . S
C1604 C1605 1.327 . S
C1605 H1599 0.950 . S
C1605 C1604 1.327 . S
C1605 C1609 1.429 . S
C1606 C1589 1.574 . S
C1606 H1600 0.949 . S
C1606 C1610 1.368 . S
C1607 C1588 1.429 . S
C1607 C1601 1.429 . S
C1607 C1608 1.523 . S
C1608 C1589 1.368 . S
C1608 C1602 1.368 . S
C1608 C1607 1.523 . S
C1609 C1593 1.429 . S
C1609 C1605 1.429 . S
C1609 C1610 1.523 . S
C1610 C1594 1.368 . S
C1610 C1606 1.368 . S
C1610 C1609 1.523 . S
H1611 C1586 0.950 . S
H1612 C1588 0.950 . S
H1613 C1589 0.949 . S
H1614 C1591 0.950 . S
H1615 C1593 0.950 . S
C1616 C1617 1.349 . S
C1616 C1618 1.327 . S
C1616 H1641 0.950 . S
C1617 C1616 1.349 . S
C1617 C1633 1.349 . S
C1618 C1616 1.327 . S
C1618 C1637 1.429 . S
C1618 H1642 0.950 . S
C1619 C1636 1.574 . S
C1619 C1638 1.368 . S
C1619 H1643 0.949 . S
H1620 C1624 0.949 . S
C1621 C1622 1.349 . S
C1621 C1623 1.327 . S
C1621 H1644 0.950 . S
C1622 C1621 1.349 . S
C1622 C1634 1.349 . S
C1623 C1621 1.327 . S
C1623 C1639 1.429 . S
C1623 H1645 0.950 . S
C1624 H1620 0.949 . S
C1624 C1632 1.574 . S
C1624 C1640 1.368 . S
H1625 C1633 0.950 . S
H1626 C1631 0.950 . S
H1627 C1632 0.949 . S
H1628 C1634 0.950 . S
H1629 C1635 0.950 . S
H1630 C1636 0.949 . S
C1631 H1626 0.950 . S
C1631 C1633 1.327 . S
C1631 C1637 1.429 . S
C1632 C1624 1.574 . S
C1632 H1627 0.949 . S
C1632 C1638 1.368 . S
C1633 C1617 1.349 . S
C1633 H1625 0.950 . S
C1633 C1631 1.327 . S
C1634 C1622 1.349 . S
C1634 H1628 0.950 . S
C1634 C1635 1.327 . S
C1635 H1629 0.950 . S
C1635 C1634 1.327 . S
C1635 C1639 1.429 . S
C1636 C1619 1.574 . S
C1636 H1630 0.949 . S
C1636 C1640 1.368 . S
C1637 C1618 1.429 . S
C1637 C1631 1.429 . S
C1637 C1638 1.523 . S
C1638 C1619 1.368 . S
C1638 C1632 1.368 . S
C1638 C1637 1.523 . S
C1639 C1623 1.429 . S
C1639 C1635 1.429 . S
C1639 C1640 1.523 . S
C1640 C1624 1.368 . S
C1640 C1636 1.368 . S
C1640 C1639 1.523 . S
H1641 C1616 0.950 . S
H1642 C1618 0.950 . S
H1643 C1619 0.949 . S
H1644 C1621 0.950 . S
H1645 C1623 0.950 . S
C1646 C1647 1.349 . S
C1646 C1648 1.327 . S
C1646 H1671 0.950 . S
C1647 C1646 1.349 . S
C1647 C1663 1.349 . S
C1648 C1646 1.327 . S
C1648 C1667 1.429 . S
C1648 H1672 0.950 . S
C1649 C1666 1.574 . S
C1649 C1668 1.368 . S
C1649 H1673 0.949 . S
H1650 C1654 0.949 . S
C1651 C1652 1.349 . S
C1651 C1653 1.327 . S
C1651 H1674 0.950 . S
C1652 C1651 1.349 . S
C1652 C1664 1.349 . S
C1653 C1651 1.327 . S
C1653 C1669 1.429 . S
C1653 H1675 0.950 . S
C1654 H1650 0.949 . S
C1654 C1662 1.574 . S
C1654 C1670 1.368 . S
H1655 C1663 0.950 . S
H1656 C1661 0.950 . S
H1657 C1662 0.949 . S
H1658 C1664 0.950 . S
H1659 C1665 0.950 . S
H1660 C1666 0.949 . S
C1661 H1656 0.950 . S
C1661 C1663 1.327 . S
C1661 C1667 1.429 . S
C1662 C1654 1.574 . S
C1662 H1657 0.949 . S
C1662 C1668 1.368 . S
C1663 C1647 1.349 . S
C1663 H1655 0.950 . S
C1663 C1661 1.327 . S
C1664 C1652 1.349 . S
C1664 H1658 0.950 . S
C1664 C1665 1.327 . S
C1665 H1659 0.950 . S
C1665 C1664 1.327 . S
C1665 C1669 1.429 . S
C1666 C1649 1.574 . S
C1666 H1660 0.949 . S
C1666 C1670 1.368 . S
C1667 C1648 1.429 . S
C1667 C1661 1.429 . S
C1667 C1668 1.523 . S
C1668 C1649 1.368 . S
C1668 C1662 1.368 . S
C1668 C1667 1.523 . S
C1669 C1653 1.429 . S
C1669 C1665 1.429 . S
C1669 C1670 1.523 . S
C1670 C1654 1.368 . S
C1670 C1666 1.368 . S
C1670 C1669 1.523 . S
H1671 C1646 0.950 . S
H1672 C1648 0.950 . S
H1673 C1649 0.949 . S
H1674 C1651 0.950 . S
H1675 C1653 0.950 . S
C1676 C1677 1.349 . S
C1676 C1678 1.327 . S
C1676 H1701 0.950 . S
C1677 C1676 1.349 . S
C1677 C1693 1.349 . S
C1678 C1676 1.327 . S
C1678 C1697 1.429 . S
C1678 H1702 0.950 . S
C1679 C1696 1.574 . S
C1679 C1698 1.368 . S
C1679 H1703 0.949 . S
H1680 C1684 0.949 . S
C1681 C1682 1.349 . S
C1681 C1683 1.327 . S
C1681 H1704 0.950 . S
C1682 C1681 1.349 . S
C1682 C1694 1.349 . S
C1683 C1681 1.327 . S
C1683 C1699 1.429 . S
C1683 H1705 0.950 . S
C1684 H1680 0.949 . S
C1684 C1692 1.574 . S
C1684 C1700 1.368 . S
H1685 C1693 0.950 . S
H1686 C1691 0.950 . S
H1687 C1692 0.949 . S
H1688 C1694 0.950 . S
H1689 C1695 0.950 . S
H1690 C1696 0.949 . S
C1691 H1686 0.950 . S
C1691 C1693 1.327 . S
C1691 C1697 1.429 . S
C1692 C1684 1.574 . S
C1692 H1687 0.949 . S
C1692 C1698 1.368 . S
C1693 C1677 1.349 . S
C1693 H1685 0.950 . S
C1693 C1691 1.327 . S
C1694 C1682 1.349 . S
C1694 H1688 0.950 . S
C1694 C1695 1.327 . S
C1695 H1689 0.950 . S
C1695 C1694 1.327 . S
C1695 C1699 1.429 . S
C1696 C1679 1.574 . S
C1696 H1690 0.949 . S
C1696 C1700 1.368 . S
C1697 C1678 1.429 . S
C1697 C1691 1.429 . S
C1697 C1698 1.523 . S
C1698 C1679 1.368 . S
C1698 C1692 1.368 . S
C1698 C1697 1.523 . S
C1699 C1683 1.429 . S
C1699 C1695 1.429 . S
C1699 C1700 1.523 . S
C1700 C1684 1.368 . S
C1700 C1696 1.368 . S
C1700 C1699 1.523 . S
H1701 C1676 0.950 . S
H1702 C1678 0.950 . S
H1703 C1679 0.949 . S
H1704 C1681 0.950 . S
H1705 C1683 0.950 . S
C1706 C1707 1.349 . S
C1706 C1708 1.327 . S
C1706 H1731 0.950 . S
C1707 C1706 1.349 . S
C1707 C1723 1.349 . S
C1708 C1706 1.327 . S
C1708 C1727 1.429 . S
C1708 H1732 0.950 . S
C1709 C1726 1.574 . S
C1709 C1728 1.368 . S
C1709 H1733 0.949 . S
H1710 C1714 0.949 . S
C1711 C1712 1.349 . S
C1711 C1713 1.327 . S
C1711 H1734 0.950 . S
C1712 C1711 1.349 . S
C1712 C1724 1.349 . S
C1713 C1711 1.327 . S
C1713 C1729 1.429 . S
C1713 H1735 0.950 . S
C1714 H1710 0.949 . S
C1714 C1722 1.574 . S
C1714 C1730 1.368 . S
H1715 C1723 0.950 . S
H1716 C1721 0.950 . S
H1717 C1722 0.949 . S
H1718 C1724 0.950 . S
H1719 C1725 0.950 . S
H1720 C1726 0.949 . S
C1721 H1716 0.950 . S
C1721 C1723 1.327 . S
C1721 C1727 1.429 . S
C1722 C1714 1.574 . S
C1722 H1717 0.949 . S
C1722 C1728 1.368 . S
C1723 C1707 1.349 . S
C1723 H1715 0.950 . S
C1723 C1721 1.327 . S
C1724 C1712 1.349 . S
C1724 H1718 0.950 . S
C1724 C1725 1.327 . S
C1725 H1719 0.950 . S
C1725 C1724 1.327 . S
C1725 C1729 1.429 . S
C1726 C1709 1.574 . S
C1726 H1720 0.949 . S
C1726 C1730 1.368 . S
C1727 C1708 1.429 . S
C1727 C1721 1.429 . S
C1727 C1728 1.523 . S
C1728 C1709 1.368 . S
C1728 C1722 1.368 . S
C1728 C1727 1.523 . S
C1729 C1713 1.429 . S
C1729 C1725 1.429 . S
C1729 C1730 1.523 . S
C1730 C1714 1.368 . S
C1730 C1726 1.368 . S
C1730 C1729 1.523 . S
H1731 C1706 0.950 . S
H1732 C1708 0.950 . S
H1733 C1709 0.949 . S
H1734 C1711 0.950 . S
H1735 C1713 0.950 . S
C1736 C1737 1.349 . S
C1736 C1738 1.327 . S
C1736 H1761 0.950 . S
C1737 C1736 1.349 . S
C1737 C1753 1.349 . S
C1738 C1736 1.327 . S
C1738 C1757 1.429 . S
C1738 H1762 0.950 . S
C1739 C1756 1.574 . S
C1739 C1758 1.368 . S
C1739 H1763 0.949 . S
H1740 C1744 0.949 . S
C1741 C1742 1.349 . S
C1741 C1743 1.327 . S
C1741 H1764 0.950 . S
C1742 C1741 1.349 . S
C1742 C1754 1.349 . S
C1743 C1741 1.327 . S
C1743 C1759 1.429 . S
C1743 H1765 0.950 . S
C1744 H1740 0.949 . S
C1744 C1752 1.574 . S
C1744 C1760 1.368 . S
H1745 C1753 0.950 . S
H1746 C1751 0.950 . S
H1747 C1752 0.949 . S
H1748 C1754 0.950 . S
H1749 C1755 0.950 . S
H1750 C1756 0.949 . S
C1751 H1746 0.950 . S
C1751 C1753 1.327 . S
C1751 C1757 1.429 . S
C1752 C1744 1.574 . S
C1752 H1747 0.949 . S
C1752 C1758 1.368 . S
C1753 C1737 1.349 . S
C1753 H1745 0.950 . S
C1753 C1751 1.327 . S
C1754 C1742 1.349 . S
C1754 H1748 0.950 . S
C1754 C1755 1.327 . S
C1755 H1749 0.950 . S
C1755 C1754 1.327 . S
C1755 C1759 1.429 . S
C1756 C1739 1.574 . S
C1756 H1750 0.949 . S
C1756 C1760 1.368 . S
C1757 C1738 1.429 . S
C1757 C1751 1.429 . S
C1757 C1758 1.523 . S
C1758 C1739 1.368 . S
C1758 C1752 1.368 . S
C1758 C1757 1.523 . S
C1759 C1743 1.429 . S
C1759 C1755 1.429 . S
C1759 C1760 1.523 . S
C1760 C1744 1.368 . S
C1760 C1756 1.368 . S
C1760 C1759 1.523 . S
H1761 C1736 0.950 . S
H1762 C1738 0.950 . S
H1763 C1739 0.949 . S
H1764 C1741 0.950 . S
H1765 C1743 0.950 . S
C1766 C1767 1.349 . S
C1766 C1768 1.327 . S
C1766 H1791 0.950 . S
C1767 C1766 1.349 . S
C1767 C1783 1.349 . S
C1768 C1766 1.327 . S
C1768 C1787 1.429 . S
C1768 H1792 0.950 . S
C1769 C1786 1.574 . S
C1769 C1788 1.368 . S
C1769 H1793 0.949 . S
H1770 C1774 0.949 . S
C1771 C1772 1.349 . S
C1771 C1773 1.327 . S
C1771 H1794 0.950 . S
C1772 C1771 1.349 . S
C1772 C1784 1.349 . S
C1773 C1771 1.327 . S
C1773 C1789 1.429 . S
C1773 H1795 0.950 . S
C1774 H1770 0.949 . S
C1774 C1782 1.574 . S
C1774 C1790 1.368 . S
H1775 C1783 0.950 . S
H1776 C1781 0.950 . S
H1777 C1782 0.949 . S
H1778 C1784 0.950 . S
H1779 C1785 0.950 . S
H1780 C1786 0.949 . S
C1781 H1776 0.950 . S
C1781 C1783 1.327 . S
C1781 C1787 1.429 . S
C1782 C1774 1.574 . S
C1782 H1777 0.949 . S
C1782 C1788 1.368 . S
C1783 C1767 1.349 . S
C1783 H1775 0.950 . S
C1783 C1781 1.327 . S
C1784 C1772 1.349 . S
C1784 H1778 0.950 . S
C1784 C1785 1.327 . S
C1785 H1779 0.950 . S
C1785 C1784 1.327 . S
C1785 C1789 1.429 . S
C1786 C1769 1.574 . S
C1786 H1780 0.949 . S
C1786 C1790 1.368 . S
C1787 C1768 1.429 . S
C1787 C1781 1.429 . S
C1787 C1788 1.523 . S
C1788 C1769 1.368 . S
C1788 C1782 1.368 . S
C1788 C1787 1.523 . S
C1789 C1773 1.429 . S
C1789 C1785 1.429 . S
C1789 C1790 1.523 . S
C1790 C1774 1.368 . S
C1790 C1786 1.368 . S
C1790 C1789 1.523 . S
H1791 C1766 0.950 . S
H1792 C1768 0.950 . S
H1793 C1769 0.949 . S
H1794 C1771 0.950 . S
H1795 C1773 0.950 . S
C1796 C1797 1.349 . S
C1796 C1798 1.327 . S
C1796 H1821 0.950 . S
C1797 C1796 1.349 . S
C1797 C1813 1.349 . S
C1798 C1796 1.327 . S
C1798 C1817 1.429 . S
C1798 H1822 0.950 . S
C1799 C1816 1.574 . S
C1799 C1818 1.368 . S
C1799 H1823 0.949 . S
H1800 C1804 0.949 . S
C1801 C1802 1.349 . S
C1801 C1803 1.327 . S
C1801 H1824 0.950 . S
C1802 C1801 1.349 . S
C1802 C1814 1.349 . S
C1803 C1801 1.327 . S
C1803 C1819 1.429 . S
C1803 H1825 0.950 . S
C1804 H1800 0.949 . S
C1804 C1812 1.574 . S
C1804 C1820 1.368 . S
H1805 C1813 0.950 . S
H1806 C1811 0.950 . S
H1807 C1812 0.949 . S
H1808 C1814 0.950 . S
H1809 C1815 0.950 . S
H1810 C1816 0.949 . S
C1811 H1806 0.950 . S
C1811 C1813 1.327 . S
C1811 C1817 1.429 . S
C1812 C1804 1.574 . S
C1812 H1807 0.949 . S
C1812 C1818 1.368 . S
C1813 C1797 1.349 . S
C1813 H1805 0.950 . S
C1813 C1811 1.327 . S
C1814 C1802 1.349 . S
C1814 H1808 0.950 . S
C1814 C1815 1.327 . S
C1815 H1809 0.950 . S
C1815 C1814 1.327 . S
C1815 C1819 1.429 . S
C1816 C1799 1.574 . S
C1816 H1810 0.949 . S
C1816 C1820 1.368 . S
C1817 C1798 1.429 . S
C1817 C1811 1.429 . S
C1817 C1818 1.523 . S
C1818 C1799 1.368 . S
C1818 C1812 1.368 . S
C1818 C1817 1.523 . S
C1819 C1803 1.429 . S
C1819 C1815 1.429 . S
C1819 C1820 1.523 . S
C1820 C1804 1.368 . S
C1820 C1816 1.368 . S
C1820 C1819 1.523 . S
H1821 C1796 0.950 . S
H1822 C1798 0.950 . S
H1823 C1799 0.949 . S
H1824 C1801 0.950 . S
H1825 C1803 0.950 . S
C1826 C1827 1.349 . S
C1826 C1828 1.327 . S
C1826 H1851 0.950 . S
C1827 C1826 1.349 . S
C1827 C1843 1.349 . S
C1828 C1826 1.327 . S
C1828 C1847 1.429 . S
C1828 H1852 0.950 . S
C1829 C1846 1.574 . S
C1829 C1848 1.368 . S
C1829 H1853 0.949 . S
H1830 C1834 0.949 . S
C1831 C1832 1.349 . S
C1831 C1833 1.327 . S
C1831 H1854 0.950 . S
C1832 C1831 1.349 . S
C1832 C1844 1.349 . S
C1833 C1831 1.327 . S
C1833 C1849 1.429 . S
C1833 H1855 0.950 . S
C1834 H1830 0.949 . S
C1834 C1842 1.574 . S
C1834 C1850 1.368 . S
H1835 C1843 0.950 . S
H1836 C1841 0.950 . S
H1837 C1842 0.949 . S
H1838 C1844 0.950 . S
H1839 C1845 0.950 . S
H1840 C1846 0.949 . S
C1841 H1836 0.950 . S
C1841 C1843 1.327 . S
C1841 C1847 1.429 . S
C1842 C1834 1.574 . S
C1842 H1837 0.949 . S
C1842 C1848 1.368 . S
C1843 C1827 1.349 . S
C1843 H1835 0.950 . S
C1843 C1841 1.327 . S
C1844 C1832 1.349 . S
C1844 H1838 0.950 . S
C1844 C1845 1.327 . S
C1845 H1839 0.950 . S
C1845 C1844 1.327 . S
C1845 C1849 1.429 . S
C1846 C1829 1.574 . S
C1846 H1840 0.949 . S
C1846 C1850 1.368 . S
C1847 C1828 1.429 . S
C1847 C1841 1.429 . S
C1847 C1848 1.523 . S
C1848 C1829 1.368 . S
C1848 C1842 1.368 . S
C1848 C1847 1.523 . S
C1849 C1833 1.429 . S
C1849 C1845 1.429 . S
C1849 C1850 1.523 . S
C1850 C1834 1.368 . S
C1850 C1846 1.368 . S
C1850 C1849 1.523 . S
H1851 C1826 0.950 . S
H1852 C1828 0.950 . S
H1853 C1829 0.949 . S
H1854 C1831 0.950 . S
H1855 C1833 0.950 . S
C1856 C1857 1.349 . S
C1856 C1858 1.327 . S
C1856 H1881 0.950 . S
C1857 C1856 1.349 . S
C1857 C1873 1.349 . S
C1858 C1856 1.327 . S
C1858 C1877 1.429 . S
C1858 H1882 0.950 . S
C1859 C1876 1.574 . S
C1859 C1878 1.368 . S
C1859 H1883 0.949 . S
H1860 C1864 0.949 . S
C1861 C1862 1.349 . S
C1861 C1863 1.327 . S
C1861 H1884 0.950 . S
C1862 C1861 1.349 . S
C1862 C1874 1.349 . S
C1863 C1861 1.327 . S
C1863 C1879 1.429 . S
C1863 H1885 0.950 . S
C1864 H1860 0.949 . S
C1864 C1872 1.574 . S
C1864 C1880 1.368 . S
H1865 C1873 0.950 . S
H1866 C1871 0.950 . S
H1867 C1872 0.949 . S
H1868 C1874 0.950 . S
H1869 C1875 0.950 . S
H1870 C1876 0.949 . S
C1871 H1866 0.950 . S
C1871 C1873 1.327 . S
C1871 C1877 1.429 . S
C1872 C1864 1.574 . S
C1872 H1867 0.949 . S
C1872 C1878 1.368 . S
C1873 C1857 1.349 . S
C1873 H1865 0.950 . S
C1873 C1871 1.327 . S
C1874 C1862 1.349 . S
C1874 H1868 0.950 . S
C1874 C1875 1.327 . S
C1875 H1869 0.950 . S
C1875 C1874 1.327 . S
C1875 C1879 1.429 . S
C1876 C1859 1.574 . S
C1876 H1870 0.949 . S
C1876 C1880 1.368 . S
C1877 C1858 1.429 . S
C1877 C1871 1.429 . S
C1877 C1878 1.523 . S
C1878 C1859 1.368 . S
C1878 C1872 1.368 . S
C1878 C1877 1.523 . S
C1879 C1863 1.429 . S
C1879 C1875 1.429 . S
C1879 C1880 1.523 . S
C1880 C1864 1.368 . S
C1880 C1876 1.368 . S
C1880 C1879 1.523 . S
H1881 C1856 0.950 . S
H1882 C1858 0.950 . S
H1883 C1859 0.949 . S
H1884 C1861 0.950 . S
H1885 C1863 0.950 . S
C1886 C1887 1.349 . S
C1886 C1888 1.327 . S
C1886 H1911 0.950 . S
C1887 C1886 1.349 . S
C1887 C1903 1.349 . S
C1888 C1886 1.327 . S
C1888 C1907 1.429 . S
C1888 H1912 0.950 . S
C1889 C1906 1.574 . S
C1889 C1908 1.368 . S
C1889 H1913 0.949 . S
H1890 C1894 0.949 . S
C1891 C1892 1.349 . S
C1891 C1893 1.327 . S
C1891 H1914 0.950 . S
C1892 C1891 1.349 . S
C1892 C1904 1.349 . S
C1893 C1891 1.327 . S
C1893 C1909 1.429 . S
C1893 H1915 0.950 . S
C1894 H1890 0.949 . S
C1894 C1902 1.574 . S
C1894 C1910 1.368 . S
H1895 C1903 0.950 . S
H1896 C1901 0.950 . S
H1897 C1902 0.949 . S
H1898 C1904 0.950 . S
H1899 C1905 0.950 . S
H1900 C1906 0.949 . S
C1901 H1896 0.950 . S
C1901 C1903 1.327 . S
C1901 C1907 1.429 . S
C1902 C1894 1.574 . S
C1902 H1897 0.949 . S
C1902 C1908 1.368 . S
C1903 C1887 1.349 . S
C1903 H1895 0.950 . S
C1903 C1901 1.327 . S
C1904 C1892 1.349 . S
C1904 H1898 0.950 . S
C1904 C1905 1.327 . S
C1905 H1899 0.950 . S
C1905 C1904 1.327 . S
C1905 C1909 1.429 . S
C1906 C1889 1.574 . S
C1906 H1900 0.949 . S
C1906 C1910 1.368 . S
C1907 C1888 1.429 . S
C1907 C1901 1.429 . S
C1907 C1908 1.523 . S
C1908 C1889 1.368 . S
C1908 C1902 1.368 . S
C1908 C1907 1.523 . S
C1909 C1893 1.429 . S
C1909 C1905 1.429 . S
C1909 C1910 1.523 . S
C1910 C1894 1.368 . S
C1910 C1906 1.368 . S
C1910 C1909 1.523 . S
H1911 C1886 0.950 . S
H1912 C1888 0.950 . S
H1913 C1889 0.949 . S
H1914 C1891 0.950 . S
H1915 C1893 0.950 . S
C1916 C1917 1.349 1_556 S
C1916 C1918 1.327 . S
C1916 H1941 0.950 . S
C1917 C1916 1.349 1_554 S
C1917 C1933 1.349 . S
C1918 C1916 1.327 . S
C1918 C1937 1.429 1_556 S
C1918 H1942 0.950 . S
C1919 C1936 1.574 . S
C1919 C1938 1.368 . S
C1919 H1943 0.949 . S
H1920 C1924 0.949 . S
C1921 C1922 1.349 . S
C1921 C1923 1.327 . S
C1921 H1944 0.950 . S
C1922 C1921 1.349 . S
C1922 C1934 1.349 1_554 S
C1923 C1921 1.327 . S
C1923 C1939 1.429 . S
C1923 H1945 0.950 . S
C1924 H1920 0.949 . S
C1924 C1932 1.574 . S
C1924 C1940 1.368 1_556 S
H1925 C1933 0.950 . S
H1926 C1931 0.950 . S
H1927 C1932 0.949 . S
H1928 C1934 0.950 . S
H1929 C1935 0.950 . S
H1930 C1936 0.949 . S
C1931 H1926 0.950 . S
C1931 C1933 1.327 . S
C1931 C1937 1.429 . S
C1932 C1924 1.574 . S
C1932 H1927 0.949 . S
C1932 C1938 1.368 1_556 S
C1933 C1917 1.349 . S
C1933 H1925 0.950 . S
C1933 C1931 1.327 . S
C1934 C1922 1.349 1_556 S
C1934 H1928 0.950 . S
C1934 C1935 1.327 . S
C1935 H1929 0.950 . S
C1935 C1934 1.327 . S
C1935 C1939 1.429 1_556 S
C1936 C1919 1.574 . S
C1936 H1930 0.949 . S
C1936 C1940 1.368 . S
C1937 C1918 1.429 1_554 S
C1937 C1931 1.429 . S
C1937 C1938 1.523 . S
C1938 C1919 1.368 . S
C1938 C1932 1.368 1_554 S
C1938 C1937 1.523 . S
C1939 C1923 1.429 . S
C1939 C1935 1.429 1_554 S
C1939 C1940 1.523 . S
C1940 C1924 1.368 1_554 S
C1940 C1936 1.368 . S
C1940 C1939 1.523 . S
H1941 C1916 0.950 . S
H1942 C1918 0.950 . S
H1943 C1919 0.949 . S
H1944 C1921 0.950 . S
H1945 C1923 0.950 . S
C1946 C1947 1.349 . S
C1946 C1948 1.327 . S
C1946 H1971 0.950 . S
C1947 C1946 1.349 . S
C1947 C1963 1.349 1_554 S
C1948 C1946 1.327 . S
C1948 C1967 1.429 . S
C1948 H1972 0.950 . S
C1949 C1966 1.574 . S
C1949 C1968 1.368 1_556 S
C1949 H1973 0.949 . S
H1950 C1954 0.949 . S
C1951 C1952 1.349 1_556 S
C1951 C1953 1.327 . S
C1951 H1974 0.950 . S
C1952 C1951 1.349 1_554 S
C1952 C1964 1.349 . S
C1953 C1951 1.327 . S
C1953 C1969 1.429 1_556 S
C1953 H1975 0.950 . S
C1954 H1950 0.949 . S
C1954 C1962 1.574 . S
C1954 C1970 1.368 . S
H1955 C1963 0.950 . S
H1956 C1961 0.950 . S
H1957 C1962 0.949 . S
H1958 C1964 0.950 . S
H1959 C1965 0.950 . S
H1960 C1966 0.949 . S
C1961 H1956 0.950 . S
C1961 C1963 1.327 . S
C1961 C1967 1.429 1_556 S
C1962 C1954 1.574 . S
C1962 H1957 0.949 . S
C1962 C1968 1.368 . S
C1963 C1947 1.349 1_556 S
C1963 H1955 0.950 . S
C1963 C1961 1.327 . S
C1964 C1952 1.349 . S
C1964 H1958 0.950 . S
C1964 C1965 1.327 . S
C1965 H1959 0.950 . S
C1965 C1964 1.327 . S
C1965 C1969 1.429 . S
C1966 C1949 1.574 . S
C1966 H1960 0.949 . S
C1966 C1970 1.368 1_556 S
C1967 C1948 1.429 . S
C1967 C1961 1.429 1_554 S
C1967 C1968 1.523 . S
C1968 C1949 1.368 1_554 S
C1968 C1962 1.368 . S
C1968 C1967 1.523 . S
C1969 C1953 1.429 1_554 S
C1969 C1965 1.429 . S
C1969 C1970 1.523 . S
C1970 C1954 1.368 . S
C1970 C1966 1.368 1_554 S
C1970 C1969 1.523 . S
H1971 C1946 0.950 . S
H1972 C1948 0.950 . S
H1973 C1949 0.949 . S
H1974 C1951 0.950 . S
H1975 C1953 0.950 . S
C1976 C1977 1.349 . S
C1976 C1978 1.327 . S
C1976 H2001 0.950 . S
C1977 C1976 1.349 . S
C1977 C1993 1.349 . S
C1978 C1976 1.327 . S
C1978 C1997 1.429 . S
C1978 H2002 0.950 . S
C1979 C1996 1.574 . S
C1979 C1998 1.368 . S
C1979 H2003 0.949 . S
H1980 C1984 0.949 . S
C1981 C1982 1.349 . S
C1981 C1983 1.327 . S
C1981 H2004 0.950 . S
C1982 C1981 1.349 . S
C1982 C1994 1.349 . S
C1983 C1981 1.327 . S
C1983 C1999 1.429 . S
C1983 H2005 0.950 . S
C1984 H1980 0.949 . S
C1984 C1992 1.574 . S
C1984 C2000 1.368 . S
H1985 C1993 0.950 . S
H1986 C1991 0.950 . S
H1987 C1992 0.949 . S
H1988 C1994 0.950 . S
H1989 C1995 0.950 . S
H1990 C1996 0.949 . S
C1991 H1986 0.950 . S
C1991 C1993 1.327 . S
C1991 C1997 1.429 . S
C1992 C1984 1.574 . S
C1992 H1987 0.949 . S
C1992 C1998 1.368 . S
C1993 C1977 1.349 . S
C1993 H1985 0.950 . S
C1993 C1991 1.327 . S
C1994 C1982 1.349 . S
C1994 H1988 0.950 . S
C1994 C1995 1.327 . S
C1995 H1989 0.950 . S
C1995 C1994 1.327 . S
C1995 C1999 1.429 . S
C1996 C1979 1.574 . S
C1996 H1990 0.949 . S
C1996 C2000 1.368 . S
C1997 C1978 1.429 . S
C1997 C1991 1.429 . S
C1997 C1998 1.523 . S
C1998 C1979 1.368 . S
C1998 C1992 1.368 . S
C1998 C1997 1.523 . S
C1999 C1983 1.429 . S
C1999 C1995 1.429 . S
C1999 C2000 1.523 . S
C2000 C1984 1.368 . S
C2000 C1996 1.368 . S
C2000 C1999 1.523 . S
H2001 C1976 0.950 . S
H2002 C1978 0.950 . S
H2003 C1979 0.949 . S
H2004 C1981 0.950 . S
H2005 C1983 0.950 . S
C2006 C2007 1.349 . S
C2006 C2008 1.327 . S
C2006 H2031 0.950 . S
C2007 C2006 1.349 . S
C2007 C2023 1.349 . S
C2008 C2006 1.327 . S
C2008 C2027 1.429 . S
C2008 H2032 0.950 . S
C2009 C2026 1.574 . S
C2009 C2028 1.368 . S
C2009 H2033 0.949 . S
H2010 C2014 0.949 . S
C2011 C2012 1.349 . S
C2011 C2013 1.327 . S
C2011 H2034 0.950 . S
C2012 C2011 1.349 . S
C2012 C2024 1.349 . S
C2013 C2011 1.327 . S
C2013 C2029 1.429 . S
C2013 H2035 0.950 . S
C2014 H2010 0.949 . S
C2014 C2022 1.574 . S
C2014 C2030 1.368 . S
H2015 C2023 0.950 . S
H2016 C2021 0.950 . S
H2017 C2022 0.949 . S
H2018 C2024 0.950 . S
H2019 C2025 0.950 . S
H2020 C2026 0.949 . S
C2021 H2016 0.950 . S
C2021 C2023 1.327 . S
C2021 C2027 1.429 . S
C2022 C2014 1.574 . S
C2022 H2017 0.949 . S
C2022 C2028 1.368 . S
C2023 C2007 1.349 . S
C2023 H2015 0.950 . S
C2023 C2021 1.327 . S
C2024 C2012 1.349 . S
C2024 H2018 0.950 . S
C2024 C2025 1.327 . S
C2025 H2019 0.950 . S
C2025 C2024 1.327 . S
C2025 C2029 1.429 . S
C2026 C2009 1.574 . S
C2026 H2020 0.949 . S
C2026 C2030 1.368 . S
C2027 C2008 1.429 . S
C2027 C2021 1.429 . S
C2027 C2028 1.523 . S
C2028 C2009 1.368 . S
C2028 C2022 1.368 . S
C2028 C2027 1.523 . S
C2029 C2013 1.429 . S
C2029 C2025 1.429 . S
C2029 C2030 1.523 . S
C2030 C2014 1.368 . S
C2030 C2026 1.368 . S
C2030 C2029 1.523 . S
H2031 C2006 0.950 . S
H2032 C2008 0.950 . S
H2033 C2009 0.949 . S
H2034 C2011 0.950 . S
H2035 C2013 0.950 . S
C2036 C2037 1.349 1_554 S
C2036 C2038 1.327 . S
C2036 H2061 0.950 . S
C2037 C2036 1.349 1_556 S
C2037 C2053 1.349 . S
C2038 C2036 1.327 . S
C2038 C2057 1.429 1_554 S
C2038 H2062 0.950 . S
C2039 C2056 1.574 . S
C2039 C2058 1.368 . S
C2039 H2063 0.949 . S
H2040 C2044 0.949 . S
C2041 C2042 1.349 . S
C2041 C2043 1.327 . S
C2041 H2064 0.950 . S
C2042 C2041 1.349 . S
C2042 C2054 1.349 1_556 S
C2043 C2041 1.327 . S
C2043 C2059 1.429 . S
C2043 H2065 0.950 . S
C2044 H2040 0.949 . S
C2044 C2052 1.574 . S
C2044 C2060 1.368 1_554 S
H2045 C2053 0.950 . S
H2046 C2051 0.950 . S
H2047 C2052 0.949 . S
H2048 C2054 0.950 . S
H2049 C2055 0.950 . S
H2050 C2056 0.949 . S
C2051 H2046 0.950 . S
C2051 C2053 1.327 . S
C2051 C2057 1.429 . S
C2052 C2044 1.574 . S
C2052 H2047 0.949 . S
C2052 C2058 1.368 1_554 S
C2053 C2037 1.349 . S
C2053 H2045 0.950 . S
C2053 C2051 1.327 . S
C2054 C2042 1.349 1_554 S
C2054 H2048 0.950 . S
C2054 C2055 1.327 . S
C2055 H2049 0.950 . S
C2055 C2054 1.327 . S
C2055 C2059 1.429 1_554 S
C2056 C2039 1.574 . S
C2056 H2050 0.949 . S
C2056 C2060 1.368 . S
C2057 C2038 1.429 1_556 S
C2057 C2051 1.429 . S
C2057 C2058 1.523 . S
C2058 C2039 1.368 . S
C2058 C2052 1.368 1_556 S
C2058 C2057 1.523 . S
C2059 C2043 1.429 . S
C2059 C2055 1.429 1_556 S
C2059 C2060 1.523 . S
C2060 C2044 1.368 1_556 S
C2060 C2056 1.368 . S
C2060 C2059 1.523 . S
H2061 C2036 0.950 . S
H2062 C2038 0.950 . S
H2063 C2039 0.949 . S
H2064 C2041 0.950 . S
H2065 C2043 0.950 . S
C2066 C2067 1.349 1_554 S
C2066 C2068 1.327 . S
C2066 H2091 0.950 . S
C2067 C2066 1.349 1_556 S
C2067 C2083 1.349 . S
C2068 C2066 1.327 . S
C2068 C2087 1.429 1_554 S
C2068 H2092 0.950 . S
C2069 C2086 1.574 . S
C2069 C2088 1.368 . S
C2069 H2093 0.949 . S
H2070 C2074 0.949 . S
C2071 C2072 1.349 . S
C2071 C2073 1.327 . S
C2071 H2094 0.950 . S
C2072 C2071 1.349 . S
C2072 C2084 1.349 1_556 S
C2073 C2071 1.327 . S
C2073 C2089 1.429 . S
C2073 H2095 0.950 . S
C2074 H2070 0.949 . S
C2074 C2082 1.574 . S
C2074 C2090 1.368 1_554 S
H2075 C2083 0.950 . S
H2076 C2081 0.950 . S
H2077 C2082 0.949 . S
H2078 C2084 0.950 . S
H2079 C2085 0.950 . S
H2080 C2086 0.949 . S
C2081 H2076 0.950 . S
C2081 C2083 1.327 . S
C2081 C2087 1.429 . S
C2082 C2074 1.574 . S
C2082 H2077 0.949 . S
C2082 C2088 1.368 1_554 S
C2083 C2067 1.349 . S
C2083 H2075 0.950 . S
C2083 C2081 1.327 . S
C2084 C2072 1.349 1_554 S
C2084 H2078 0.950 . S
C2084 C2085 1.327 . S
C2085 H2079 0.950 . S
C2085 C2084 1.327 . S
C2085 C2089 1.429 1_554 S
C2086 C2069 1.574 . S
C2086 H2080 0.949 . S
C2086 C2090 1.368 . S
C2087 C2068 1.429 1_556 S
C2087 C2081 1.429 . S
C2087 C2088 1.523 . S
C2088 C2069 1.368 . S
C2088 C2082 1.368 1_556 S
C2088 C2087 1.523 . S
C2089 C2073 1.429 . S
C2089 C2085 1.429 1_556 S
C2089 C2090 1.523 . S
C2090 C2074 1.368 1_556 S
C2090 C2086 1.368 . S
C2090 C2089 1.523 . S
H2091 C2066 0.950 . S
H2092 C2068 0.950 . S
H2093 C2069 0.949 . S
H2094 C2071 0.950 . S
H2095 C2073 0.950 . S
C2096 C2097 1.349 . S
C2096 C2098 1.327 . S
C2096 H2121 0.950 . S
C2097 C2096 1.349 . S
C2097 C2113 1.349 . S
C2098 C2096 1.327 . S
C2098 C2117 1.429 . S
C2098 H2122 0.950 . S
C2099 C2116 1.574 . S
C2099 C2118 1.368 . S
C2099 H2123 0.949 . S
H2100 C2104 0.949 . S
C2101 C2102 1.349 . S
C2101 C2103 1.327 . S
C2101 H2124 0.950 . S
C2102 C2101 1.349 . S
C2102 C2114 1.349 . S
C2103 C2101 1.327 . S
C2103 C2119 1.429 . S
C2103 H2125 0.950 . S
C2104 H2100 0.949 . S
C2104 C2112 1.574 . S
C2104 C2120 1.368 . S
H2105 C2113 0.950 . S
H2106 C2111 0.950 . S
H2107 C2112 0.949 . S
H2108 C2114 0.950 . S
H2109 C2115 0.950 . S
H2110 C2116 0.949 . S
C2111 H2106 0.950 . S
C2111 C2113 1.327 . S
C2111 C2117 1.429 . S
C2112 C2104 1.574 . S
C2112 H2107 0.949 . S
C2112 C2118 1.368 . S
C2113 C2097 1.349 . S
C2113 H2105 0.950 . S
C2113 C2111 1.327 . S
C2114 C2102 1.349 . S
C2114 H2108 0.950 . S
C2114 C2115 1.327 . S
C2115 H2109 0.950 . S
C2115 C2114 1.327 . S
C2115 C2119 1.429 . S
C2116 C2099 1.574 . S
C2116 H2110 0.949 . S
C2116 C2120 1.368 . S
C2117 C2098 1.429 . S
C2117 C2111 1.429 . S
C2117 C2118 1.523 . S
C2118 C2099 1.368 . S
C2118 C2112 1.368 . S
C2118 C2117 1.523 . S
C2119 C2103 1.429 . S
C2119 C2115 1.429 . S
C2119 C2120 1.523 . S
C2120 C2104 1.368 . S
C2120 C2116 1.368 . S
C2120 C2119 1.523 . S
H2121 C2096 0.950 . S
H2122 C2098 0.950 . S
H2123 C2099 0.949 . S
H2124 C2101 0.950 . S
H2125 C2103 0.950 . S
C2126 C2127 1.349 . S
C2126 C2128 1.327 . S
C2126 H2151 0.950 . S
C2127 C2126 1.349 . S
C2127 C2143 1.349 . S
C2128 C2126 1.327 . S
C2128 C2147 1.429 . S
C2128 H2152 0.950 . S
C2129 C2146 1.574 . S
C2129 C2148 1.368 . S
C2129 H2153 0.949 . S
H2130 C2134 0.949 . S
C2131 C2132 1.349 . S
C2131 C2133 1.327 . S
C2131 H2154 0.950 . S
C2132 C2131 1.349 . S
C2132 C2144 1.349 . S
C2133 C2131 1.327 . S
C2133 C2149 1.429 . S
C2133 H2155 0.950 . S
C2134 H2130 0.949 . S
C2134 C2142 1.574 . S
C2134 C2150 1.368 . S
H2135 C2143 0.950 . S
H2136 C2141 0.950 . S
H2137 C2142 0.949 . S
H2138 C2144 0.950 . S
H2139 C2145 0.950 . S
H2140 C2146 0.949 . S
C2141 H2136 0.950 . S
C2141 C2143 1.327 . S
C2141 C2147 1.429 . S
C2142 C2134 1.574 . S
C2142 H2137 0.949 . S
C2142 C2148 1.368 . S
C2143 C2127 1.349 . S
C2143 H2135 0.950 . S
C2143 C2141 1.327 . S
C2144 C2132 1.349 . S
C2144 H2138 0.950 . S
C2144 C2145 1.327 . S
C2145 H2139 0.950 . S
C2145 C2144 1.327 . S
C2145 C2149 1.429 . S
C2146 C2129 1.574 . S
C2146 H2140 0.949 . S
C2146 C2150 1.368 . S
C2147 C2128 1.429 . S
C2147 C2141 1.429 . S
C2147 C2148 1.523 . S
C2148 C2129 1.368 . S
C2148 C2142 1.368 . S
C2148 C2147 1.523 . S
C2149 C2133 1.429 . S
C2149 C2145 1.429 . S
C2149 C2150 1.523 . S
C2150 C2134 1.368 . S
C2150 C2146 1.368 . S
C2150 C2149 1.523 . S
H2151 C2126 0.950 . S
H2152 C2128 0.950 . S
H2153 C2129 0.949 . S
H2154 C2131 0.950 . S
H2155 C2133 0.950 . S
C2156 C2157 1.349 . S
C2156 C2158 1.327 . S
C2156 H2181 0.950 . S
C2157 C2156 1.349 . S
C2157 C2173 1.349 . S
C2158 C2156 1.327 . S
C2158 C2177 1.429 . S
C2158 H2182 0.950 . S
C2159 C2176 1.574 . S
C2159 C2178 1.368 . S
C2159 H2183 0.949 . S
H2160 C2164 0.949 . S
C2161 C2162 1.349 . S
C2161 C2163 1.327 . S
C2161 H2184 0.950 . S
C2162 C2161 1.349 . S
C2162 C2174 1.349 . S
C2163 C2161 1.327 . S
C2163 C2179 1.429 . S
C2163 H2185 0.950 . S
C2164 H2160 0.949 . S
C2164 C2172 1.574 . S
C2164 C2180 1.368 . S
H2165 C2173 0.950 . S
H2166 C2171 0.950 . S
H2167 C2172 0.949 . S
H2168 C2174 0.950 . S
H2169 C2175 0.950 . S
H2170 C2176 0.949 . S
C2171 H2166 0.950 . S
C2171 C2173 1.327 . S
C2171 C2177 1.429 . S
C2172 C2164 1.574 . S
C2172 H2167 0.949 . S
C2172 C2178 1.368 . S
C2173 C2157 1.349 . S
C2173 H2165 0.950 . S
C2173 C2171 1.327 . S
C2174 C2162 1.349 . S
C2174 H2168 0.950 . S
C2174 C2175 1.327 . S
C2175 H2169 0.950 . S
C2175 C2174 1.327 . S
C2175 C2179 1.429 . S
C2176 C2159 1.574 . S
C2176 H2170 0.949 . S
C2176 C2180 1.368 . S
C2177 C2158 1.429 . S
C2177 C2171 1.429 . S
C2177 C2178 1.523 . S
C2178 C2159 1.368 . S
C2178 C2172 1.368 . S
C2178 C2177 1.523 . S
C2179 C2163 1.429 . S
C2179 C2175 1.429 . S
C2179 C2180 1.523 . S
C2180 C2164 1.368 . S
C2180 C2176 1.368 . S
C2180 C2179 1.523 . S
H2181 C2156 0.950 . S
H2182 C2158 0.950 . S
H2183 C2159 0.949 . S
H2184 C2161 0.950 . S
H2185 C2163 0.950 . S
C2186 C2187 1.349 . S
C2186 C2188 1.327 . S
C2186 H2211 0.950 . S
C2187 C2186 1.349 . S
C2187 C2203 1.349 . S
C2188 C2186 1.327 . S
C2188 C2207 1.429 . S
C2188 H2212 0.950 . S
C2189 C2206 1.574 . S
C2189 C2208 1.368 . S
C2189 H2213 0.949 . S
H2190 C2194 0.949 . S
C2191 C2192 1.349 . S
C2191 C2193 1.327 . S
C2191 H2214 0.950 . S
C2192 C2191 1.349 . S
C2192 C2204 1.349 . S
C2193 C2191 1.327 . S
C2193 C2209 1.429 . S
C2193 H2215 0.950 . S
C2194 H2190 0.949 . S
C2194 C2202 1.574 . S
C2194 C2210 1.368 . S
H2195 C2203 0.950 . S
H2196 C2201 0.950 . S
H2197 C2202 0.949 . S
H2198 C2204 0.950 . S
H2199 C2205 0.950 . S
H2200 C2206 0.949 . S
C2201 H2196 0.950 . S
C2201 C2203 1.327 . S
C2201 C2207 1.429 . S
C2202 C2194 1.574 . S
C2202 H2197 0.949 . S
C2202 C2208 1.368 . S
C2203 C2187 1.349 . S
C2203 H2195 0.950 . S
C2203 C2201 1.327 . S
C2204 C2192 1.349 . S
C2204 H2198 0.950 . S
C2204 C2205 1.327 . S
C2205 H2199 0.950 . S
C2205 C2204 1.327 . S
C2205 C2209 1.429 . S
C2206 C2189 1.574 . S
C2206 H2200 0.949 . S
C2206 C2210 1.368 . S
C2207 C2188 1.429 . S
C2207 C2201 1.429 . S
C2207 C2208 1.523 . S
C2208 C2189 1.368 . S
C2208 C2202 1.368 . S
C2208 C2207 1.523 . S
C2209 C2193 1.429 . S
C2209 C2205 1.429 . S
C2209 C2210 1.523 . S
C2210 C2194 1.368 . S
C2210 C2206 1.368 . S
C2210 C2209 1.523 . S
H2211 C2186 0.950 . S
H2212 C2188 0.950 . S
H2213 C2189 0.949 . S
H2214 C2191 0.950 . S
H2215 C2193 0.950 . S
C2216 C2217 1.349 . S
C2216 C2218 1.327 . S
C2216 H2241 0.950 . S
C2217 C2216 1.349 . S
C2217 C2233 1.349 . S
C2218 C2216 1.327 . S
C2218 C2237 1.429 . S
C2218 H2242 0.950 . S
C2219 C2236 1.574 . S
C2219 C2238 1.368 . S
C2219 H2243 0.949 . S
H2220 C2224 0.949 . S
C2221 C2222 1.349 . S
C2221 C2223 1.327 . S
C2221 H2244 0.950 . S
C2222 C2221 1.349 . S
C2222 C2234 1.349 . S
C2223 C2221 1.327 . S
C2223 C2239 1.429 . S
C2223 H2245 0.950 . S
C2224 H2220 0.949 . S
C2224 C2232 1.574 . S
C2224 C2240 1.368 . S
H2225 C2233 0.950 . S
H2226 C2231 0.950 . S
H2227 C2232 0.949 . S
H2228 C2234 0.950 . S
H2229 C2235 0.950 . S
H2230 C2236 0.949 . S
C2231 H2226 0.950 . S
C2231 C2233 1.327 . S
C2231 C2237 1.429 . S
C2232 C2224 1.574 . S
C2232 H2227 0.949 . S
C2232 C2238 1.368 . S
C2233 C2217 1.349 . S
C2233 H2225 0.950 . S
C2233 C2231 1.327 . S
C2234 C2222 1.349 . S
C2234 H2228 0.950 . S
C2234 C2235 1.327 . S
C2235 H2229 0.950 . S
C2235 C2234 1.327 . S
C2235 C2239 1.429 . S
C2236 C2219 1.574 . S
C2236 H2230 0.949 . S
C2236 C2240 1.368 . S
C2237 C2218 1.429 . S
C2237 C2231 1.429 . S
C2237 C2238 1.523 . S
C2238 C2219 1.368 . S
C2238 C2232 1.368 . S
C2238 C2237 1.523 . S
C2239 C2223 1.429 . S
C2239 C2235 1.429 . S
C2239 C2240 1.523 . S
C2240 C2224 1.368 . S
C2240 C2236 1.368 . S
C2240 C2239 1.523 . S
H2241 C2216 0.950 . S
H2242 C2218 0.950 . S
H2243 C2219 0.949 . S
H2244 C2221 0.950 . S
H2245 C2223 0.950 . S
C2246 C2247 1.349 . S
C2246 C2248 1.327 . S
C2246 H2271 0.950 . S
C2247 C2246 1.349 . S
C2247 C2263 1.349 . S
C2248 C2246 1.327 . S
C2248 C2267 1.429 . S
C2248 H2272 0.950 . S
C2249 C2266 1.574 . S
C2249 C2268 1.368 . S
C2249 H2273 0.949 . S
H2250 C2254 0.949 . S
C2251 C2252 1.349 . S
C2251 C2253 1.327 . S
C2251 H2274 0.950 . S
C2252 C2251 1.349 . S
C2252 C2264 1.349 . S
C2253 C2251 1.327 . S
C2253 C2269 1.429 . S
C2253 H2275 0.950 . S
C2254 H2250 0.949 . S
C2254 C2262 1.574 . S
C2254 C2270 1.368 . S
H2255 C2263 0.950 . S
H2256 C2261 0.950 . S
H2257 C2262 0.949 . S
H2258 C2264 0.950 . S
H2259 C2265 0.950 . S
H2260 C2266 0.949 . S
C2261 H2256 0.950 . S
C2261 C2263 1.327 . S
C2261 C2267 1.429 . S
C2262 C2254 1.574 . S
C2262 H2257 0.949 . S
C2262 C2268 1.368 . S
C2263 C2247 1.349 . S
C2263 H2255 0.950 . S
C2263 C2261 1.327 . S
C2264 C2252 1.349 . S
C2264 H2258 0.950 . S
C2264 C2265 1.327 . S
C2265 H2259 0.950 . S
C2265 C2264 1.327 . S
C2265 C2269 1.429 . S
C2266 C2249 1.574 . S
C2266 H2260 0.949 . S
C2266 C2270 1.368 . S
C2267 C2248 1.429 . S
C2267 C2261 1.429 . S
C2267 C2268 1.523 . S
C2268 C2249 1.368 . S
C2268 C2262 1.368 . S
C2268 C2267 1.523 . S
C2269 C2253 1.429 . S
C2269 C2265 1.429 . S
C2269 C2270 1.523 . S
C2270 C2254 1.368 . S
C2270 C2266 1.368 . S
C2270 C2269 1.523 . S
H2271 C2246 0.950 . S
H2272 C2248 0.950 . S
H2273 C2249 0.949 . S
H2274 C2251 0.950 . S
H2275 C2253 0.950 . S
C2276 C2277 1.349 . S
C2276 C2278 1.327 . S
C2276 H2301 0.950 . S
C2277 C2276 1.349 . S
C2277 C2293 1.349 . S
C2278 C2276 1.327 . S
C2278 C2297 1.429 . S
C2278 H2302 0.950 . S
C2279 C2296 1.574 . S
C2279 C2298 1.368 . S
C2279 H2303 0.949 . S
H2280 C2284 0.949 . S
C2281 C2282 1.349 . S
C2281 C2283 1.327 . S
C2281 H2304 0.950 . S
C2282 C2281 1.349 . S
C2282 C2294 1.349 . S
C2283 C2281 1.327 . S
C2283 C2299 1.429 . S
C2283 H2305 0.950 . S
C2284 H2280 0.949 . S
C2284 C2292 1.574 . S
C2284 C2300 1.368 . S
H2285 C2293 0.950 . S
H2286 C2291 0.950 . S
H2287 C2292 0.949 . S
H2288 C2294 0.950 . S
H2289 C2295 0.950 . S
H2290 C2296 0.949 . S
C2291 H2286 0.950 . S
C2291 C2293 1.327 . S
C2291 C2297 1.429 . S
C2292 C2284 1.574 . S
C2292 H2287 0.949 . S
C2292 C2298 1.368 . S
C2293 C2277 1.349 . S
C2293 H2285 0.950 . S
C2293 C2291 1.327 . S
C2294 C2282 1.349 . S
C2294 H2288 0.950 . S
C2294 C2295 1.327 . S
C2295 H2289 0.950 . S
C2295 C2294 1.327 . S
C2295 C2299 1.429 . S
C2296 C2279 1.574 . S
C2296 H2290 0.949 . S
C2296 C2300 1.368 . S
C2297 C2278 1.429 . S
C2297 C2291 1.429 . S
C2297 C2298 1.523 . S
C2298 C2279 1.368 . S
C2298 C2292 1.368 . S
C2298 C2297 1.523 . S
C2299 C2283 1.429 . S
C2299 C2295 1.429 . S
C2299 C2300 1.523 . S
C2300 C2284 1.368 . S
C2300 C2296 1.368 . S
C2300 C2299 1.523 . S
H2301 C2276 0.950 . S
H2302 C2278 0.950 . S
H2303 C2279 0.949 . S
H2304 C2281 0.950 . S
H2305 C2283 0.950 . S
C2306 C2307 1.349 . S
C2306 C2308 1.327 . S
C2306 H2331 0.950 . S
C2307 C2306 1.349 . S
C2307 C2323 1.349 . S
C2308 C2306 1.327 . S
C2308 C2327 1.429 . S
C2308 H2332 0.950 . S
C2309 C2326 1.574 . S
C2309 C2328 1.368 . S
C2309 H2333 0.949 . S
H2310 C2314 0.949 . S
C2311 C2312 1.349 . S
C2311 C2313 1.327 . S
C2311 H2334 0.950 . S
C2312 C2311 1.349 . S
C2312 C2324 1.349 . S
C2313 C2311 1.327 . S
C2313 C2329 1.429 . S
C2313 H2335 0.950 . S
C2314 H2310 0.949 . S
C2314 C2322 1.574 . S
C2314 C2330 1.368 . S
H2315 C2323 0.950 . S
H2316 C2321 0.950 . S
H2317 C2322 0.949 . S
H2318 C2324 0.950 . S
H2319 C2325 0.950 . S
H2320 C2326 0.949 . S
C2321 H2316 0.950 . S
C2321 C2323 1.327 . S
C2321 C2327 1.429 . S
C2322 C2314 1.574 . S
C2322 H2317 0.949 . S
C2322 C2328 1.368 . S
C2323 C2307 1.349 . S
C2323 H2315 0.950 . S
C2323 C2321 1.327 . S
C2324 C2312 1.349 . S
C2324 H2318 0.950 . S
C2324 C2325 1.327 . S
C2325 H2319 0.950 . S
C2325 C2324 1.327 . S
C2325 C2329 1.429 . S
C2326 C2309 1.574 . S
C2326 H2320 0.949 . S
C2326 C2330 1.368 . S
C2327 C2308 1.429 . S
C2327 C2321 1.429 . S
C2327 C2328 1.523 . S
C2328 C2309 1.368 . S
C2328 C2322 1.368 . S
C2328 C2327 1.523 . S
C2329 C2313 1.429 . S
C2329 C2325 1.429 . S
C2329 C2330 1.523 . S
C2330 C2314 1.368 . S
C2330 C2326 1.368 . S
C2330 C2329 1.523 . S
H2331 C2306 0.950 . S
H2332 C2308 0.950 . S
H2333 C2309 0.949 . S
H2334 C2311 0.950 . S
H2335 C2313 0.950 . S
C417 C1 1.475 . S
C422 C40 1.483 . S
C447 C27 1.475 . S
C452 C14 1.483 . S
C477 C53 1.456 . S
C482 C92 1.462 . S
C507 C79 1.455 . S
C512 C66 1.463 . S
C537 C105 1.430 . S
C542 C144 1.430 . S
C567 C131 1.429 . S
C572 C118 1.429 . S
C597 C157 1.410 . S
C602 C196 1.410 . S
C627 C170 1.410 . S
C632 C183 1.410 . S
C657 C248 1.430 . S
C662 C209 1.430 . S
C687 C222 1.429 . S
C692 C235 1.429 . S
C717 C261 1.410 . S
C722 C300 1.410 . S
C747 C287 1.410 . S
C752 C274 1.410 . S
C777 C313 1.475 . S
C782 C352 1.483 . S
C807 C339 1.475 . S
C812 C326 1.483 . S
C837 C365 1.456 . S
C842 C404 1.462 . S
C867 C378 1.456 . S
C872 C391 1.462 . S
C897 C161 1.820 . S
C902 C5 1.721 . S
C927 C18 1.721 . S
C932 C278 1.820 . S
C957 C31 1.676 . S
C962 C83 1.771 . S
C987 C408 1.769 . S
C992 C44 1.679 . S
C1017 C57 1.819 . S
C1022 C109 1.722 . S
C1047 C226 1.722 . S
C1052 C70 1.819 . S
C1077 C356 1.676 . S
C1082 C96 1.771 . S
C1107 C382 1.819 . S
C1112 C122 1.722 . S
C1137 C187 1.775 . S
C1142 C135 1.682 . S
C1167 C304 1.775 . S
C1172 C148 1.682 . S
C1197 C174 1.820 . S
C1202 C330 1.721 . S
C1227 C252 1.682 . S
C1232 C200 1.775 . S
C1257 C369 1.819 . S
C1262 C213 1.722 . S
C1287 C291 1.775 . S
C1292 C239 1.682 . S
C1317 C317 1.721 . S
C1322 C265 1.820 . S
C1347 C343 1.676 . S
C1352 C395 1.771 . S
C1377 C133 1.744 . S
C1382 C3 1.744 . S
C1407 C16 1.744 . S
C1412 C146 1.744 . S
C1437 C107 1.703 . S
C1442 C29 1.695 . S
C1467 C120 1.703 . S
C1472 C42 1.695 . S
C1497 C55 1.711 . S
C1502 C185 1.710 . S
C1527 C68 1.711 . S
C1532 C198 1.710 . S
C1557 C159 1.670 . S
C1562 C81 1.661 . S
C1587 C94 1.669 . S
C1592 C172 1.662 . S
C1617 C341 1.703 . S
C1622 C211 1.695 . S
C1647 C354 1.703 . S
C1652 C224 1.695 . S
C1677 C237 1.744 . S
C1682 C315 1.744 . S
C1707 C250 1.744 . S
C1712 C328 1.744 . S
C1737 C263 1.670 . S
C1742 C393 1.661 . S
C1767 C276 1.670 . S
C1772 C406 1.661 . S
C1797 C367 1.711 . S
C1802 C289 1.710 . S
C1827 C380 1.711 . S
C1832 C302 1.710 . S
C1857 C10 2.030 . S
C1862 C335 2.030 . S
C1887 C322 2.030 . S
C1892 C23 2.030 1_655 S
C1917 C36 1.987 . S
C1922 C361 1.987 . S
C1947 C49 1.987 1_655 S
C1952 C348 1.987 . S
C1977 C62 2.109 . S
C1982 C387 2.109 . S
C2007 C75 2.109 1_455 S
C2012 C374 2.109 . S
C2037 C413 2.063 . S
C2042 C88 2.063 . S
C2067 C400 2.063 . S
C2072 C101 2.063 1_455 S
C2097 C231 2.025 . S
C2102 C114 2.025 . S
C2127 C218 2.025 . S
C2132 C127 2.025 1_655 S
C2157 C140 1.988 . S
C2162 C257 1.988 . S
C2187 C153 1.988 1_655 S
C2192 C244 1.988 . S
C2217 C283 2.104 . S
C2222 C166 2.104 . S
C2247 C179 2.104 1_455 S
C2252 C270 2.104 . S
C2277 C192 2.064 . S
C2282 C309 2.064 . S
C2307 C205 2.064 1_455 S
C2312 C296 2.064 . S
