# Generated by pormake.
# Topology bto, (3)-cn, num edge types: 1
# Building blocks:
#     Node 0, Type 0, BuildingBlock: OLANEW_clean_sbu_2, # of connection points: 3
#     Node 1, Type 0, BuildingBlock: OLANEW_clean_sbu_2, # of connection points: 3
#     Node 2, Type 0, BuildingBlock: OLANEW_clean_sbu_2, # of connection points: 3
#     Node 3, Type 0, BuildingBlock: OLANEW_clean_sbu_2, # of connection points: 3
#     Node 4, Type 0, BuildingBlock: OLANEW_clean_sbu_2, # of connection points: 3
#     Node 5, Type 0, BuildingBlock: OLANEW_clean_sbu_2, # of connection points: 3
#     Edge 6, Type (0, 0), BuildingBlock: MIFKUJ_clean_linker_0, # of connection points: 2
#     Edge 7, Type (0, 0), BuildingBlock: MIFKUJ_clean_linker_0, # of connection points: 2
#     Edge 8, Type (0, 0), BuildingBlock: MIFKUJ_clean_linker_0, # of connection points: 2
#     Edge 9, Type (0, 0), BuildingBlock: MIFKUJ_clean_linker_0, # of connection points: 2
#     Edge 10, Type (0, 0), BuildingBlock: MIFKUJ_clean_linker_0, # of connection points: 2
#     Edge 11, Type (0, 0), BuildingBlock: MIFKUJ_clean_linker_0, # of connection points: 2
#     Edge 12, Type (0, 0), BuildingBlock: MIFKUJ_clean_linker_0, # of connection points: 2
#     Edge 13, Type (0, 0), BuildingBlock: MIFKUJ_clean_linker_0, # of connection points: 2
#     Edge 14, Type (0, 0), BuildingBlock: MIFKUJ_clean_linker_0, # of connection points: 2
# Relax obj value: 0.000
# Max RMSD: 0.062
# Mean RMSD: 0.062
data_MOF--net-bto--node1-OLANEW_clean_sbu_2--edge1-MIFKUJ_clean_linker_0
_symmetry_space_group_name_H-M    P1
_symmetry_Int_Tables_number       1
_symmetry_cell_setting            triclinic
loop_
_symmetry_equiv_pos_as_xyz
'x, y, z'
_cell_length_a     40.802771
_cell_length_b     40.919697
_cell_length_c     75.757559
_cell_angle_alpha  81.588659
_cell_angle_beta   90.046603
_cell_angle_gamma 120.12401
loop_
_atom_site_label
_atom_site_type_symbol
_atom_site_fract_x
_atom_site_fract_y
_atom_site_fract_z
_atom_type_partial_charge
O0 O 0.13136 0.67472 0.0603 0.0
Cd1 Cd 0.13145 0.66206 0.02981 0.0
O2 O 0.07239 0.62754 0.06738 0.0
Cd3 Cd 0.05983 0.61443 0.04045 0.0
O4 O 0.01811 0.60447 0.02081 0.0
C5 C 0.01972 0.63312 0.01082 0.0
O6 O 0.04851 0.66754 0.0115 0.0
C7 C 0.10304 0.65445 0.07184 0.0
C8 C 0.19096 0.64961 0.02268 0.0
O9 O 0.19548 0.68331 0.01929 0.0
O10 O 0.15818 0.62177 0.02931 0.0
O11 O 0.49585 0.21583 0.40236 0.0
Cd12 Cd 0.50626 0.24166 0.37037 0.0
O13 O 0.52466 0.18343 0.39949 0.0
Cd14 Cd 0.52079 0.18771 0.37061 0.0
O15 O 0.48601 0.15432 0.35085 0.0
C16 C 0.45569 0.15456 0.34723 0.0
O17 O 0.44795 0.17769 0.35425 0.0
C18 C 0.50898 0.1951 0.40944 0.0
C19 C 0.57916 0.30548 0.36202 0.0
O20 O 0.55096 0.3092 0.3663 0.0
O21 O 0.5728 0.27161 0.36157 0.0
O22 O 0.50673 0.50197 0.72019 0.0
Cd23 Cd 0.49669 0.5138 0.6886 0.0
O24 O 0.44588 0.47133 0.72935 0.0
Cd25 Cd 0.42955 0.48483 0.70312 0.0
O26 O 0.41595 0.51985 0.68348 0.0
C27 C 0.43871 0.55582 0.68141 0.0
O28 O 0.46924 0.56891 0.69031 0.0
C29 C 0.48025 0.48356 0.73277 0.0
C30 C 0.48432 0.45319 0.6715 0.0
O31 O 0.51801 0.48126 0.67214 0.0
O32 O 0.45649 0.45393 0.67888 0.0
O33 O 0.3434 0.93299 0.58368 0.0
Cd34 Cd 0.31461 0.89063 0.6123 0.0
O35 O 0.37246 0.98091 0.59841 0.0
Cd36 Cd 0.40484 0.04197 0.60002 0.0
O37 O 0.4253 0.10085 0.60367 0.0
C38 C 0.40026 0.10985 0.60618 0.0
O39 O 0.36423 0.08386 0.60604 0.0
C40 C 0.36577 0.96853 0.58361 0.0
C41 C 0.33527 0.83487 0.6185 0.0
O42 O 0.30498 0.82835 0.6109 0.0
O43 O 0.35574 0.86778 0.62314 0.0
O44 O 0.5861 0.56266 0.91659 0.0
Cd45 Cd 0.60008 0.58739 0.94474 0.0
O46 O 0.52427 0.53836 0.92064 0.0
Cd47 Cd 0.52493 0.56165 0.94488 0.0
O48 O 0.49977 0.58349 0.96188 0.0
C49 C 0.46988 0.55958 0.97198 0.0
O50 O 0.45703 0.52277 0.97281 0.0
C51 C 0.55305 0.54386 0.91135 0.0
C52 C 0.66991 0.59646 0.95418 0.0
O53 O 0.6388 0.56487 0.95938 0.0
O54 O 0.66791 0.62403 0.94478 0.0
O55 O 0.0948 0.74337 0.25782 0.0
Cd56 Cd 0.08636 0.74933 0.28883 0.0
O57 O 0.03426 0.70211 0.25604 0.0
Cd58 Cd 0.01267 0.69456 0.28356 0.0
O59 O 0.96338 0.65557 0.30256 0.0
C60 C 0.95455 0.62061 0.30518 0.0
O61 O 0.97684 0.6112 0.29754 0.0
C62 C 0.06814 0.7225 0.24882 0.0
C63 C 0.14647 0.81853 0.2959 0.0
O64 O 0.14883 0.78815 0.29786 0.0
O65 O 0.11545 0.81608 0.29082 0.0
H66 H 0.16469 0.70634 0.0872 0.0
H67 H 0.16533 0.72352 0.11694 0.0
H68 H 0.04565 0.64035 0.12745 0.0
H69 H 0.04467 0.62291 0.09796 0.0
H70 H 0.06479 0.71252 0.13445 0.0
H71 H 0.10764 0.6211 0.14691 0.0
H72 H 0.15029 0.59598 0.14267 0.0
H73 H 0.24504 0.6991 0.15518 0.0
H74 H 0.20299 0.72505 0.15926 0.0
H75 H 0.01755 0.6804 0.22627 0.0
H76 H 0.03054 0.67594 0.19565 0.0
H77 H 0.14975 0.75637 0.19784 0.0
H78 H 0.13707 0.76065 0.2288 0.0
H79 H 0.13934 0.69586 0.18308 0.0
H80 H 0.09601 0.7848 0.17381 0.0
H81 H 0.05402 0.81067 0.17803 0.0
H82 H 0.96178 0.71483 0.15906 0.0
H83 H 0.00305 0.68806 0.15497 0.0
C84 C 0.13859 0.69151 0.09591 0.0
C85 C 0.10461 0.66332 0.09019 0.0
C86 C 0.13904 0.70132 0.11288 0.0
C87 C 0.10551 0.68322 0.12433 0.0
C88 C 0.07177 0.65474 0.11876 0.0
C89 C 0.07135 0.64472 0.10191 0.0
C90 C 0.10488 0.69447 0.14197 0.0
C91 C 0.08089 0.70867 0.14514 0.0
C92 C 0.12701 0.69078 0.15563 0.0
C93 C 0.15228 0.67521 0.15316 0.0
C94 C 0.13764 0.63857 0.14858 0.0
C95 C 0.16168 0.62415 0.14625 0.0
C96 C 0.20038 0.64598 0.14859 0.0
C97 C 0.21508 0.68225 0.15333 0.0
C98 C 0.19115 0.69682 0.15566 0.0
C99 C 0.04656 0.69735 0.22028 0.0
C100 C 0.07626 0.72099 0.23 0.0
C101 C 0.05391 0.69488 0.20271 0.0
C102 C 0.09103 0.71623 0.19438 0.0
C103 C 0.12087 0.73978 0.20401 0.0
C104 C 0.11354 0.74226 0.22167 0.0
C105 C 0.09834 0.71288 0.17575 0.0
C106 C 0.12365 0.70029 0.17234 0.0
C107 C 0.07757 0.71828 0.16179 0.0
C108 C 0.0526 0.73429 0.1642 0.0
C109 C 0.06669 0.76908 0.17066 0.0
C110 C 0.04303 0.78394 0.17301 0.0
C111 C 0.00524 0.76437 0.16885 0.0
C112 C 0.99105 0.72995 0.16229 0.0
C113 C 0.01459 0.71495 0.15993 0.0
H114 H 0.98697 0.77593 0.17067 0.0
H115 H 0.21894 0.63476 0.14679 0.0
H116 H 0.43699 0.03139 0.57622 0.0
H117 H 0.46466 0.07491 0.54766 0.0
H118 H 0.36034 0.00817 0.52372 0.0
H119 H 0.33283 0.96437 0.55222 0.0
H120 H 0.41761 0.02398 0.50234 0.0
H121 H 0.38594 0.09648 0.5358 0.0
H122 H 0.38615 0.1273 0.56149 0.0
H123 H 0.50744 0.19982 0.55268 0.0
H124 H 0.50807 0.16898 0.52713 0.0
H125 H 0.4645 0.2021 0.43391 0.0
H126 H 0.44483 0.16892 0.46489 0.0
H127 H 0.51888 0.12325 0.46026 0.0
H128 H 0.53809 0.15561 0.42918 0.0
H129 H 0.4762 0.16512 0.49602 0.0
H130 H 0.47208 0.02994 0.47921 0.0
H131 H 0.46585 -0.0018 0.45307 0.0
H132 H 0.40437 0.04956 0.42797 0.0
H133 H 0.4098 0.08116 0.45405 0.0
C134 C 0.41976 0.0265 0.56494 0.0
C135 C 0.38251 0.99505 0.56648 0.0
C136 C 0.43563 0.05127 0.54861 0.0
C137 C 0.41436 0.0452 0.5336 0.0
C138 C 0.37726 0.0135 0.53512 0.0
C139 C 0.36155 0.98853 0.55139 0.0
C140 C 0.43103 0.07112 0.51615 0.0
C141 C 0.43046 0.05484 0.50101 0.0
C142 C 0.44742 0.11139 0.51433 0.0
C143 C 0.44708 0.13017 0.52963 0.0
C144 C 0.4127 0.1188 0.53942 0.0
C145 C 0.41266 0.13629 0.55395 0.0
C146 C 0.44679 0.16547 0.55872 0.0
C147 C 0.48103 0.1772 0.54897 0.0
C148 C 0.48124 0.15974 0.53446 0.0
C149 C 0.47714 0.18557 0.43957 0.0
C150 C 0.50238 0.18097 0.42898 0.0
C151 C 0.46593 0.1667 0.45731 0.0
C152 C 0.47983 0.14303 0.46476 0.0
C153 C 0.50727 0.14082 0.45466 0.0
C154 C 0.51826 0.1594 0.4369 0.0
C155 C 0.46299 0.11788 0.48236 0.0
C156 C 0.46354 0.13428 0.49746 0.0
C157 C 0.44567 0.07756 0.48413 0.0
C158 C 0.44173 0.05822 0.46849 0.0
C159 C 0.45713 0.03433 0.46813 0.0
C160 C 0.45374 0.01638 0.45333 0.0
C161 C 0.43484 0.02197 0.43885 0.0
C162 C 0.41913 0.04538 0.43917 0.0
C163 C 0.42238 0.06333 0.45395 0.0
H164 H 0.4323 0.00809 0.42739 0.0
H165 H 0.44669 0.17909 0.56991 0.0
H166 H 0.48665 0.50384 0.89603 0.0
H167 H 0.47879 0.48522 0.8665 0.0
H168 H 0.59994 0.53308 0.85785 0.0
H169 H 0.60819 0.55241 0.88736 0.0
H170 H 0.57304 0.55783 0.83016 0.0
H171 H 0.53907 0.43585 0.86414 0.0
H172 H 0.50523 0.38028 0.88837 0.0
H173 H 0.3983 0.35604 0.86822 0.0
H174 H 0.43145 0.41179 0.844 0.0
H175 H 0.54983 0.50267 0.74501 0.0
H176 H 0.56624 0.50387 0.77605 0.0
H177 H 0.44863 0.45779 0.794 0.0
H178 H 0.43183 0.45554 0.76313 0.0
H179 H 0.48054 0.4288 0.8171 0.0
H180 H 0.51261 0.55501 0.78672 0.0
H181 H 0.54464 0.61182 0.76295 0.0
H182 H 0.65347 0.62884 0.77698 0.0
H183 H 0.62202 0.5718 0.80071 0.0
C184 C 0.51164 0.51007 0.88796 0.0
C185 C 0.54808 0.52977 0.89405 0.0
C186 C 0.50705 0.49915 0.87111 0.0
C187 C 0.53874 0.50738 0.86004 0.0
C188 C 0.57509 0.52633 0.86621 0.0
C189 C 0.57973 0.53732 0.88308 0.0
C190 C 0.53402 0.49884 0.84154 0.0
C191 C 0.55349 0.52941 0.82731 0.0
C192 C 0.50782 0.46195 0.83783 0.0
C193 C 0.48777 0.42817 0.8523 0.0
C194 C 0.50832 0.41883 0.86493 0.0
C195 C 0.48926 0.38727 0.87866 0.0
C196 C 0.44964 0.36468 0.87985 0.0
C197 C 0.429 0.37356 0.86728 0.0
C198 C 0.44792 0.4051 0.85353 0.0
C199 C 0.52736 0.49221 0.75558 0.0
C200 C 0.48959 0.47947 0.75156 0.0
C201 C 0.53681 0.49302 0.77331 0.0
C202 C 0.50877 0.48165 0.78731 0.0
C203 C 0.47075 0.46682 0.78342 0.0
C204 C 0.46122 0.46568 0.76573 0.0
C205 C 0.51917 0.4879 0.80579 0.0
C206 C 0.50067 0.45701 0.81999 0.0
C207 C 0.54605 0.52457 0.80953 0.0
C208 C 0.56497 0.55891 0.79532 0.0
C209 C 0.54336 0.57072 0.78464 0.0
C210 C 0.56141 0.60298 0.7712 0.0
C211 C 0.60106 0.62386 0.76842 0.0
C212 C 0.62276 0.61259 0.77912 0.0
C213 C 0.60485 0.58031 0.79257 0.0
H214 H 0.61498 0.64883 0.758 0.0
H215 H 0.43493 0.34027 0.89049 0.0
H216 H 0.26309 0.70243 0.00803 0.0
H217 H 0.31507 0.69122 0.00172 0.0
H218 H 0.24265 0.57093 0.02271 0.0
H219 H 0.19062 0.58193 0.02925 0.0
H220 H 0.31373 0.59913 0.03425 0.0
H221 H 0.25861 0.60195 0.97813 0.0
H222 H 0.23681 0.62982 0.95306 0.0
H223 H 0.34981 0.72692 0.94096 0.0
H224 H 0.37218 0.69983 0.96613 0.0
H225 H 0.40403 0.51572 -0.00624 0.0
H226 H 0.36226 0.53605 0.00499 0.0
H227 H 0.44185 0.65311 0.9812 0.0
H228 H 0.48372 0.63294 0.96972 0.0
H229 H 0.37151 0.6318 0.97198 0.0
H230 H 0.428 0.6261 0.02655 0.0
H231 H 0.44972 0.59788 0.0515 0.0
H232 H 0.33486 0.50632 0.06656 0.0
H233 H 0.31249 0.5337 0.04153 0.0
C234 C 0.25822 0.67359 0.01134 0.0
C235 C 0.22264 0.64302 0.01905 0.0
C236 C 0.28795 0.66724 0.00769 0.0
C237 C 0.28261 0.63019 0.0116 0.0
C238 C 0.24737 0.59975 0.0196 0.0
C239 C 0.21762 0.60606 0.02324 0.0
C240 C 0.31343 0.62291 0.00699 0.0
C241 C 0.32617 0.60594 0.02062 0.0
C242 C 0.33035 0.63279 0.98928 0.0
C243 C 0.31697 0.64908 0.97413 0.0
C244 C 0.27874 0.6294 0.97021 0.0
C245 C 0.26629 0.64502 0.95597 0.0
C246 C 0.29188 0.68018 0.94546 0.0
C247 C 0.33 0.69973 0.94914 0.0
C248 C 0.34259 0.68424 0.96338 0.0
C249 C 0.41299 0.54589 -0.00886 0.0
C250 C 0.44712 0.57266 0.98075 0.0
C251 C 0.38912 0.5575 -0.00235 0.0
C252 C 0.399 0.59614 -0.006 0.0
C253 C 0.43368 0.62315 0.98417 0.0
C254 C 0.45761 0.61157 0.97766 0.0
C255 C 0.37168 0.60766 -0.00079 0.0
C256 C 0.35947 0.62536 0.98567 0.0
C257 C 0.35529 0.59843 0.01699 0.0
C258 C 0.36861 0.5818 0.03206 0.0
C259 C 0.4074 0.59977 0.03508 0.0
C260 C 0.41983 0.58396 0.04926 0.0
C261 C 0.3937 0.55029 0.06058 0.0
C262 C 0.35507 0.53239 0.05777 0.0
C263 C 0.3425 0.54807 0.0436 0.0
H264 H 0.40337 0.5381 0.07156 0.0
H265 H 0.28219 0.69223 0.93443 0.0
H266 H 0.60152 0.38089 0.36145 0.0
H267 H 0.66564 0.43654 0.35439 0.0
H268 H 0.70852 0.36232 0.34589 0.0
H269 H 0.64461 0.30649 0.35312 0.0
H270 H 0.75461 0.41597 0.36532 0.0
H271 H 0.69345 0.41335 0.3107 0.0
H272 H 0.64342 0.41227 0.29209 0.0
H273 H 0.66604 0.51942 0.30587 0.0
H274 H 0.7159 0.52087 0.32476 0.0
H275 H 0.92811 0.54382 0.31293 0.0
H276 H 0.86487 0.49305 0.32567 0.0
H277 H 0.8339 0.57751 0.33179 0.0
H278 H 0.89721 0.62869 0.3188 0.0
H279 H 0.78117 0.52176 0.31563 0.0
H280 H 0.84645 0.52684 0.36836 0.0
H281 H 0.89705 0.52786 0.3865 0.0
H282 H 0.86734 0.41628 0.37607 0.0
H283 H 0.81688 0.4148 0.35765 0.0
C284 C 0.62459 0.37639 0.35808 0.0
C285 C 0.61793 0.33926 0.35778 0.0
C286 C 0.6612 0.40825 0.35401 0.0
C287 C 0.6918 0.4036 0.34947 0.0
C288 C 0.68532 0.36655 0.34937 0.0
C289 C 0.64873 0.33469 0.35344 0.0
C290 C 0.73057 0.43733 0.34464 0.0
C291 C 0.76052 0.43895 0.35435 0.0
C292 C 0.73805 0.46782 0.33066 0.0
C293 C 0.70809 0.46699 0.31931 0.0
C294 C 0.68752 0.43651 0.30989 0.0
C295 C 0.65924 0.43587 0.29926 0.0
C296 C 0.65147 0.4657 0.29784 0.0
C297 C 0.67204 0.49629 0.30701 0.0
C298 C 0.70033 0.49705 0.31767 0.0
C299 C 0.90807 0.55172 0.31719 0.0
C300 C 0.9177 0.59033 0.3148 0.0
C301 C 0.87193 0.52261 0.32456 0.0
C302 C 0.8447 0.53147 0.3298 0.0
C303 C 0.8545 0.57004 0.32785 0.0
C304 C 0.89074 0.59925 0.32049 0.0
C305 C 0.80537 0.50026 0.33618 0.0
C306 C 0.77527 0.49904 0.32674 0.0
C307 C 0.79779 0.47013 0.35039 0.0
C308 C 0.82805 0.47085 0.3615 0.0
C309 C 0.85089 0.50264 0.36982 0.0
C310 C 0.87951 0.50328 0.38017 0.0
C311 C 0.88545 0.47219 0.38241 0.0
C312 C 0.86272 0.44035 0.37432 0.0
C313 C 0.83406 0.43958 0.36394 0.0
H314 H 0.90763 0.47274 0.39043 0.0
H315 H 0.62958 0.46516 0.2896 0.0
H316 H 0.29451 0.76034 0.61326 0.0
H317 H 0.31154 0.71071 0.62025 0.0
H318 H 0.41714 0.79233 0.63876 0.0
H319 H 0.40044 0.84214 0.63178 0.0
H320 H 0.42633 0.74707 0.6178 0.0
H321 H 0.34438 0.73084 0.66839 0.0
H322 H 0.28556 0.72102 0.68319 0.0
H323 H 0.22057 0.61472 0.66366 0.0
H324 H 0.27899 0.6242 0.64854 0.0
H325 H 0.48051 0.63394 0.67546 0.0
H326 H 0.46208 0.67855 0.66063 0.0
H327 H 0.35709 0.58384 0.64838 0.0
H328 H 0.3751 0.53877 0.66351 0.0
H329 H 0.34419 0.63196 0.66305 0.0
H330 H 0.4272 0.6445 0.61516 0.0
H331 H 0.48606 0.65406 0.60057 0.0
H332 H 0.54896 0.76638 0.61464 0.0
H333 H 0.49057 0.75731 0.62955 0.0
C334 C 0.32144 0.76779 0.61874 0.0
C335 C 0.34604 0.80512 0.62207 0.0
C336 C 0.33108 0.73938 0.62274 0.0
C337 C 0.36546 0.74782 0.63014 0.0
C338 C 0.39049 0.78527 0.63305 0.0
C339 C 0.3808 0.81364 0.62913 0.0
C340 C 0.37491 0.71741 0.63543 0.0
C341 C 0.40856 0.72199 0.62778 0.0
C342 C 0.35108 0.68421 0.64806 0.0
C343 C 0.31597 0.67846 0.65716 0.0
C344 C 0.3175 0.70554 0.66713 0.0
C345 C 0.28425 0.70001 0.6756 0.0
C346 C 0.24933 0.66733 0.67432 0.0
C347 C 0.24762 0.64006 0.66461 0.0
C348 C 0.28079 0.64549 0.65609 0.0
C349 C 0.4537 0.62253 0.66942 0.0
C350 C 0.4292 0.58277 0.67073 0.0
C351 C 0.44329 0.64813 0.66084 0.0
C352 C 0.40834 0.63457 0.65325 0.0
C353 C 0.38422 0.59492 0.65412 0.0
C354 C 0.39461 0.56923 0.66273 0.0
C355 C 0.39599 0.66176 0.64562 0.0
C356 C 0.36177 0.65667 0.65286 0.0
C357 C 0.41929 0.69443 0.63259 0.0
C358 C 0.45451 0.70009 0.62359 0.0
C359 C 0.45363 0.67113 0.61527 0.0
C360 C 0.48691 0.67648 0.60692 0.0
C361 C 0.52124 0.71078 0.60671 0.0
C362 C 0.52235 0.73982 0.61482 0.0
C363 C 0.48915 0.73461 0.6232 0.0
H364 H 0.54697 0.71486 0.60023 0.0
H365 H 0.22362 0.66308 0.68089 0.0
H366 H 0.95097 0.56768 0.01102 0.0
H367 H 0.89401 0.56222 -0.0019 0.0
H368 H 0.95685 0.68227 0.97501 0.0
H369 H 0.01383 0.68818 0.98825 0.0
H370 H 0.89362 0.66573 -0.00732 0.0
H371 H 0.92492 0.61077 0.94881 0.0
H372 H 0.94191 0.56716 0.93756 0.0
H373 H 0.83705 0.47003 0.96257 0.0
H374 H 0.81963 0.51303 0.97419 0.0
H375 H 0.74052 0.66011 0.94557 0.0
H376 H 0.80187 0.6667 0.95253 0.0
H377 H 0.74489 0.54932 0.97964 0.0
H378 H 0.68342 0.54235 0.9726 0.0
H379 H 0.80676 0.56657 0.95799 0.0
H380 H 0.77794 0.62156 0.00337 0.0
H381 H 0.76106 0.66511 0.01479 0.0
H382 H 0.86209 0.76246 0.98671 0.0
H383 H 0.87932 0.71945 0.97493 0.0
C384 C 0.9529 0.5928 0.00293 0.0
C385 C 0.98691 0.62844 0.00077 0.0
C386 C 0.92028 0.58959 -0.00452 0.0
C387 C 0.92114 0.62181 0.98551 0.0
C388 C 0.95549 0.65705 0.98269 0.0
C389 C 0.98807 0.66035 -0.00977 0.0
C390 C 0.88555 0.61944 0.97936 0.0
C391 C 0.87503 0.64453 0.98478 0.0
C392 C 0.86075 0.59111 0.96947 0.0
C393 C 0.87112 0.56514 0.9625 0.0
C394 C 0.90561 0.5801 0.95204 0.0
C395 C 0.91529 0.55549 0.94557 0.0
C396 C 0.89062 0.51585 0.94938 0.0
C397 C 0.85615 0.50074 0.95964 0.0
C398 C 0.84634 0.52523 0.96615 0.0
C399 C 0.74101 0.6357 0.95304 0.0
C400 C 0.70706 0.60075 0.95861 0.0
C401 C 0.7761 0.63954 0.95702 0.0
C402 C 0.7779 0.60858 0.96671 0.0
C403 C 0.74412 0.57355 0.97213 0.0
C404 C 0.70901 0.56969 0.96817 0.0
C405 C 0.81499 0.61277 0.97136 0.0
C406 C 0.82565 0.58799 0.96572 0.0
C407 C 0.84001 0.64139 0.98104 0.0
C408 C 0.82969 0.66729 0.98811 0.0
C409 C 0.79638 0.65225 -0.00049 0.0
C410 C 0.78679 0.67684 0.00607 0.0
C411 C 0.81043 0.71652 0.00144 0.0
C412 C 0.84377 0.73171 -0.00974 0.0
C413 C 0.85348 0.70724 0.98365 0.0
H414 H 0.80296 0.73551 0.00654 0.0
H415 H 0.89817 0.49685 0.94436 0.0
H416 H 0.38934 0.1486 0.33625 0.0
H417 H 0.33788 0.0954 0.32419 0.0
H418 H 0.40451 0.04022 0.32506 0.0
H419 H 0.45646 0.09373 0.33669 0.0
H420 H 0.36548 0.02944 0.29618 0.0
H421 H 0.33723 0.01597 0.35932 0.0
H422 H 0.32758 0.03645 0.38695 0.0
H423 H 0.23633 0.04862 0.36518 0.0
H424 H 0.24579 0.02869 0.33732 0.0
H425 H 0.21836 0.83471 0.30283 0.0
H426 H 0.27162 0.89559 0.30839 0.0
H427 H 0.20107 0.94658 0.30218 0.0
H428 H 0.14757 0.88574 0.29658 0.0
H429 H 0.24093 0.96162 0.33222 0.0
H430 H 0.26714 0.96926 0.2696 0.0
H431 H 0.27709 0.94661 0.24279 0.0
H432 H 0.37252 0.94271 0.26454 0.0
H433 H 0.36281 0.96483 0.29161 0.0
C434 C 0.39329 0.12543 0.33362 0.0
C435 C 0.42683 0.12519 0.33763 0.0
C436 C 0.36377 0.09495 0.3268 0.0
C437 C 0.367 0.06342 0.3241 0.0
C438 C 0.40129 0.06414 0.32712 0.0
C439 C 0.43096 0.09476 0.33381 0.0
C440 C 0.33397 0.02869 0.31918 0.0
C441 C 0.33835 0.01444 0.30414 0.0
C442 C 0.29834 0.00941 0.32941 0.0
C443 C 0.29249 0.02125 0.34617 0.0
C444 C 0.31529 0.02329 0.36038 0.0
C445 C 0.30983 0.03475 0.37609 0.0
C446 C 0.28144 0.04394 0.3778 0.0
C447 C 0.25836 0.04157 0.36382 0.0
C448 C 0.26375 0.03017 0.34808 0.0
C449 C 0.21416 0.85887 0.30262 0.0
C450 C 0.17873 0.85539 0.29927 0.0
C451 C 0.24469 0.8937 0.3057 0.0
C452 C 0.24038 0.92568 0.30552 0.0
C453 C 0.205 0.92225 0.30231 0.0
C454 C 0.1745 0.88749 0.2991 0.0
C455 C 0.27249 0.96233 0.30927 0.0
C456 C 0.26796 0.97685 0.32415 0.0
C457 C 0.30802 0.98156 0.299 0.0
C458 C 0.31402 0.96838 0.28271 0.0
C459 C 0.29005 0.96328 0.26874 0.0
C460 C 0.29569 0.95059 0.25348 0.0
C461 C 0.32536 0.94314 0.25198 0.0
C462 C 0.34952 0.94846 0.26572 0.0
C463 C 0.34399 0.96111 0.28102 0.0
H464 H 0.32968 0.93332 0.24016 0.0
H465 H 0.27725 0.05281 0.38997 0.0
H466 H 0.47195 0.172 0.60527 0.0
H467 H 0.48955 0.23401 0.61358 0.0
H468 H 0.37099 0.19576 0.6251 0.0
H469 H 0.35318 0.13428 0.61635 0.0
H470 H 0.40681 0.2673 0.60859 0.0
H471 H 0.42963 0.19563 0.65856 0.0
H472 H 0.45789 0.15903 0.67346 0.0
H473 H 0.56988 0.2558 0.65781 0.0
H474 H 0.54226 0.29282 0.64262 0.0
H475 H 0.41626 0.3903 0.66763 0.0
H476 H 0.4055 0.33573 0.65386 0.0
H477 H 0.52639 0.38767 0.64167 0.0
H478 H 0.53747 0.44227 0.65561 0.0
H479 H 0.4941 0.31294 0.65647 0.0
H480 H 0.46974 0.38637 0.60869 0.0
H481 H 0.44019 0.42238 0.59466 0.0
H482 H 0.32959 0.32165 0.607 0.0
H483 H 0.35844 0.28515 0.62134 0.0
C484 C 0.44964 0.17689 0.6095 0.0
C485 C 0.41117 0.1481 0.6103 0.0
C486 C 0.45974 0.2123 0.61429 0.0
C487 C 0.43162 0.21932 0.62025 0.0
C488 C 0.3932 0.19099 0.62058 0.0
C489 C 0.38307 0.15578 0.61562 0.0
C490 C 0.44197 0.2557 0.62662 0.0
C491 C 0.42565 0.27711 0.61916 0.0
C492 C 0.46727 0.26902 0.64013 0.0
C493 C 0.48389 0.24682 0.64928 0.0
C494 C 0.46029 0.20899 0.65818 0.0
C495 C 0.47619 0.18819 0.6667 0.0
C496 C 0.51566 0.20504 0.66653 0.0
C497 C 0.53932 0.24276 0.6579 0.0
C498 C 0.52356 0.26367 0.64934 0.0
C499 C 0.44057 0.39024 0.66195 0.0
C500 C 0.47773 0.42065 0.66271 0.0
C501 C 0.43436 0.3591 0.654 0.0
C502 C 0.46513 0.35784 0.64656 0.0
C503 C 0.50225 0.38813 0.64729 0.0
C504 C 0.5085 0.41933 0.65523 0.0
C505 C 0.45853 0.32423 0.6386 0.0
C506 C 0.47556 0.30334 0.64577 0.0
C507 C 0.43369 0.31127 0.62492 0.0
C508 C 0.41626 0.33311 0.61622 0.0
C509 C 0.4391 0.37196 0.60853 0.0
C510 C 0.42247 0.39245 0.6005 0.0
C511 C 0.38303 0.37434 0.59997 0.0
C512 C 0.36014 0.33566 0.60743 0.0
C513 C 0.37662 0.31504 0.6155 0.0
H514 H 0.37021 0.39025 0.59375 0.0
H515 H 0.52792 0.18889 0.67314 0.0
loop_
_geom_bond_atom_site_label_1
_geom_bond_atom_site_label_2
_geom_bond_distance
_geom_bond_site_symmetry_2
_ccdc_geom_bond_type
O0 Cd1 2.300 . S
O0 C7 1.275 . S
Cd1 O0 2.300 . S
Cd1 O9 2.381 . S
Cd1 O10 2.378 . S
O2 Cd3 2.385 . S
O2 C7 1.255 . S
Cd3 O2 2.385 . S
Cd3 O4 2.317 . S
O4 Cd3 2.317 . S
O4 C5 1.232 . S
C5 O4 1.232 . S
C5 O6 1.218 1_455 S
O6 C5 1.218 1_655 S
C7 O0 1.275 . S
C7 O2 1.255 . S
C8 O9 1.258 . S
C8 O10 1.256 . S
O9 Cd1 2.381 . S
O9 C8 1.258 . S
O10 Cd1 2.378 . S
O10 C8 1.256 . S
O11 Cd12 2.300 . S
O11 C18 1.275 . S
Cd12 O11 2.300 . S
Cd12 O20 2.381 . S
Cd12 O21 2.378 . S
O13 Cd14 2.385 . S
O13 C18 1.255 . S
Cd14 O13 2.385 . S
Cd14 O15 2.317 . S
O15 Cd14 2.317 . S
O15 C16 1.232 . S
C16 O15 1.232 . S
C16 O17 1.218 . S
O17 C16 1.218 . S
C18 O11 1.275 . S
C18 O13 1.255 . S
C19 O20 1.258 . S
C19 O21 1.256 . S
O20 Cd12 2.381 . S
O20 C19 1.258 . S
O21 Cd12 2.378 . S
O21 C19 1.256 . S
O22 Cd23 2.300 . S
O22 C29 1.275 . S
Cd23 O22 2.300 . S
Cd23 O31 2.381 . S
Cd23 O32 2.378 . S
O24 Cd25 2.385 . S
O24 C29 1.255 . S
Cd25 O24 2.385 . S
Cd25 O26 2.317 . S
O26 Cd25 2.317 . S
O26 C27 1.232 . S
C27 O26 1.232 . S
C27 O28 1.218 . S
O28 C27 1.218 . S
C29 O22 1.275 . S
C29 O24 1.255 . S
C30 O31 1.258 . S
C30 O32 1.256 . S
O31 Cd23 2.381 . S
O31 C30 1.258 . S
O32 Cd23 2.378 . S
O32 C30 1.256 . S
O33 Cd34 2.300 . S
O33 C40 1.275 1_565 S
Cd34 O33 2.300 . S
Cd34 O42 2.381 . S
Cd34 O43 2.378 . S
O35 Cd36 2.385 . S
O35 C40 1.255 . S
Cd36 O35 2.385 . S
Cd36 O37 2.317 . S
O37 Cd36 2.317 . S
O37 C38 1.232 . S
C38 O37 1.232 . S
C38 O39 1.218 . S
O39 C38 1.218 . S
C40 O33 1.275 1_545 S
C40 O35 1.255 . S
C41 O42 1.258 . S
C41 O43 1.256 . S
O42 Cd34 2.381 . S
O42 C41 1.258 . S
O43 Cd34 2.378 . S
O43 C41 1.256 . S
O44 Cd45 2.300 . S
O44 C51 1.275 . S
Cd45 O44 2.300 . S
Cd45 O53 2.381 . S
Cd45 O54 2.378 . S
O46 Cd47 2.385 . S
O46 C51 1.255 . S
Cd47 O46 2.385 . S
Cd47 O48 2.317 . S
O48 Cd47 2.317 . S
O48 C49 1.232 . S
C49 O48 1.232 . S
C49 O50 1.218 . S
O50 C49 1.218 . S
C51 O44 1.275 . S
C51 O46 1.255 . S
C52 O53 1.258 . S
C52 O54 1.256 . S
O53 Cd45 2.381 . S
O53 C52 1.258 . S
O54 Cd45 2.378 . S
O54 C52 1.256 . S
O55 Cd56 2.300 . S
O55 C62 1.275 . S
Cd56 O55 2.300 . S
Cd56 O64 2.381 . S
Cd56 O65 2.378 . S
O57 Cd58 2.385 1_455 S
O57 C62 1.255 . S
Cd58 O57 2.385 1_655 S
Cd58 O59 2.317 . S
O59 Cd58 2.317 . S
O59 C60 1.232 . S
C60 O59 1.232 . S
C60 O61 1.218 . S
O61 C60 1.218 . S
C62 O55 1.275 . S
C62 O57 1.255 . S
C63 O64 1.258 . S
C63 O65 1.256 . S
O64 Cd56 2.381 . S
O64 C63 1.258 . S
O65 Cd56 2.378 . S
O65 C63 1.256 . S
H66 C84 0.951 . S
H67 C86 0.951 . S
H68 C88 0.950 . S
H69 C89 0.950 . S
H70 C91 0.950 . S
H71 C94 0.950 . S
H72 C95 0.950 . S
H73 C97 0.950 . S
H74 C98 0.950 . S
H75 C99 0.951 . S
H76 C101 0.951 . S
H77 C103 0.950 . S
H78 C104 0.950 . S
H79 C106 0.950 . S
H80 C109 0.950 . S
H81 C110 0.950 . S
H82 C112 0.950 . S
H83 C113 0.950 1_655 S
C84 H66 0.951 . S
C84 C85 1.366 . S
C84 C86 1.388 . S
C85 C84 1.366 . S
C85 C89 1.385 . S
C86 H67 0.951 . S
C86 C84 1.388 . S
C86 C87 1.366 . S
C87 C86 1.366 . S
C87 C88 1.414 . S
C87 C90 1.499 . S
C88 H68 0.950 . S
C88 C87 1.414 . S
C88 C89 1.374 . S
C89 H69 0.950 . S
C89 C85 1.385 . S
C89 C88 1.374 . S
C90 C87 1.499 . S
C90 C91 1.373 . S
C90 C92 1.389 . S
C91 H70 0.950 . S
C91 C90 1.373 . S
C91 C107 1.377 . S
C92 C90 1.389 . S
C92 C93 1.524 . S
C92 C106 1.377 . S
C93 C92 1.524 . S
C93 C94 1.397 . S
C93 C98 1.363 . S
C94 H71 0.950 . S
C94 C93 1.397 . S
C94 C95 1.334 . S
C95 H72 0.950 . S
C95 C94 1.334 . S
C95 C96 1.287 . S
C96 C95 1.287 . S
C96 C97 1.524 . S
C96 H115 0.913 . S
C97 H73 0.950 . S
C97 C96 1.524 . S
C97 C98 1.415 . S
C98 H74 0.950 . S
C98 C93 1.363 . S
C98 C97 1.415 . S
C99 H75 0.951 . S
C99 C100 1.366 . S
C99 C101 1.388 . S
C100 C99 1.366 . S
C100 C104 1.385 . S
C101 H76 0.951 . S
C101 C99 1.388 . S
C101 C102 1.366 . S
C102 C101 1.366 . S
C102 C103 1.414 . S
C102 C105 1.499 . S
C103 H77 0.950 . S
C103 C102 1.414 . S
C103 C104 1.374 . S
C104 H78 0.950 . S
C104 C100 1.385 . S
C104 C103 1.374 . S
C105 C102 1.499 . S
C105 C106 1.373 . S
C105 C107 1.389 . S
C106 H79 0.950 . S
C106 C92 1.377 . S
C106 C105 1.373 . S
C107 C91 1.377 . S
C107 C105 1.389 . S
C107 C108 1.524 . S
C108 C107 1.524 . S
C108 C109 1.397 . S
C108 C113 1.363 . S
C109 H80 0.950 . S
C109 C108 1.397 . S
C109 C110 1.334 . S
C110 H81 0.950 . S
C110 C109 1.334 . S
C110 C111 1.287 . S
C111 C110 1.287 . S
C111 C112 1.524 1_455 S
C111 H114 0.999 . S
C112 H82 0.950 . S
C112 C111 1.524 1_655 S
C112 C113 1.415 1_655 S
C113 H83 0.950 1_455 S
C113 C108 1.363 . S
C113 C112 1.415 1_455 S
H114 C111 0.999 . S
H115 C96 0.913 . S
H116 C134 0.951 . S
H117 C136 0.951 . S
H118 C138 0.950 . S
H119 C139 0.950 . S
H120 C141 0.950 . S
H121 C144 0.950 . S
H122 C145 0.950 . S
H123 C147 0.950 . S
H124 C148 0.950 . S
H125 C149 0.951 . S
H126 C151 0.951 . S
H127 C153 0.950 . S
H128 C154 0.950 . S
H129 C156 0.950 . S
H130 C159 0.950 . S
H131 C160 0.950 . S
H132 C162 0.950 . S
H133 C163 0.950 . S
C134 H116 0.951 . S
C134 C135 1.366 . S
C134 C136 1.388 . S
C135 C134 1.366 . S
C135 C139 1.385 . S
C136 H117 0.951 . S
C136 C134 1.388 . S
C136 C137 1.366 . S
C137 C136 1.366 . S
C137 C138 1.414 . S
C137 C140 1.499 . S
C138 H118 0.950 . S
C138 C137 1.414 . S
C138 C139 1.374 . S
C139 H119 0.950 . S
C139 C135 1.385 . S
C139 C138 1.374 . S
C140 C137 1.499 . S
C140 C141 1.373 . S
C140 C142 1.389 . S
C141 H120 0.950 . S
C141 C140 1.373 . S
C141 C157 1.377 . S
C142 C140 1.389 . S
C142 C143 1.524 . S
C142 C156 1.377 . S
C143 C142 1.524 . S
C143 C144 1.397 . S
C143 C148 1.363 . S
C144 H121 0.950 . S
C144 C143 1.397 . S
C144 C145 1.334 . S
C145 H122 0.950 . S
C145 C144 1.334 . S
C145 C146 1.287 . S
C146 C145 1.287 . S
C146 C147 1.524 . S
C146 H165 0.913 . S
C147 H123 0.950 . S
C147 C146 1.524 . S
C147 C148 1.415 . S
C148 H124 0.950 . S
C148 C143 1.363 . S
C148 C147 1.415 . S
C149 H125 0.951 . S
C149 C150 1.366 . S
C149 C151 1.388 . S
C150 C149 1.366 . S
C150 C154 1.385 . S
C151 H126 0.951 . S
C151 C149 1.388 . S
C151 C152 1.366 . S
C152 C151 1.366 . S
C152 C153 1.414 . S
C152 C155 1.499 . S
C153 H127 0.950 . S
C153 C152 1.414 . S
C153 C154 1.374 . S
C154 H128 0.950 . S
C154 C150 1.385 . S
C154 C153 1.374 . S
C155 C152 1.499 . S
C155 C156 1.373 . S
C155 C157 1.389 . S
C156 H129 0.950 . S
C156 C142 1.377 . S
C156 C155 1.373 . S
C157 C141 1.377 . S
C157 C155 1.389 . S
C157 C158 1.524 . S
C158 C157 1.524 . S
C158 C159 1.397 . S
C158 C163 1.363 . S
C159 H130 0.950 . S
C159 C158 1.397 . S
C159 C160 1.334 . S
C160 H131 0.950 . S
C160 C159 1.334 . S
C160 C161 1.287 . S
C161 C160 1.287 . S
C161 C162 1.524 1_545 S
C161 H164 0.999 1_545 S
C162 H132 0.950 . S
C162 C161 1.524 1_565 S
C162 C163 1.415 1_565 S
C163 H133 0.950 . S
C163 C158 1.363 . S
C163 C162 1.415 1_545 S
H164 C161 0.999 1_565 S
H165 C146 0.913 . S
H166 C184 0.951 . S
H167 C186 0.951 . S
H168 C188 0.950 . S
H169 C189 0.950 . S
H170 C191 0.950 . S
H171 C194 0.950 . S
H172 C195 0.950 . S
H173 C197 0.950 . S
H174 C198 0.950 . S
H175 C199 0.951 . S
H176 C201 0.951 . S
H177 C203 0.950 . S
H178 C204 0.950 . S
H179 C206 0.950 . S
H180 C209 0.950 . S
H181 C210 0.950 . S
H182 C212 0.950 . S
H183 C213 0.950 . S
C184 H166 0.951 . S
C184 C185 1.366 . S
C184 C186 1.388 . S
C185 C184 1.366 . S
C185 C189 1.385 . S
C186 H167 0.951 . S
C186 C184 1.388 . S
C186 C187 1.366 . S
C187 C186 1.366 . S
C187 C188 1.414 . S
C187 C190 1.499 . S
C188 H168 0.950 . S
C188 C187 1.414 . S
C188 C189 1.374 . S
C189 H169 0.950 . S
C189 C185 1.385 . S
C189 C188 1.374 . S
C190 C187 1.499 . S
C190 C191 1.373 . S
C190 C192 1.389 . S
C191 H170 0.950 . S
C191 C190 1.373 . S
C191 C207 1.377 . S
C192 C190 1.389 . S
C192 C193 1.524 . S
C192 C206 1.377 . S
C193 C192 1.524 . S
C193 C194 1.397 . S
C193 C198 1.363 . S
C194 H171 0.950 . S
C194 C193 1.397 . S
C194 C195 1.334 . S
C195 H172 0.950 . S
C195 C194 1.334 . S
C195 C196 1.287 . S
C196 C195 1.287 . S
C196 C197 1.524 . S
C196 H215 0.913 . S
C197 H173 0.950 . S
C197 C196 1.524 . S
C197 C198 1.415 . S
C198 H174 0.950 . S
C198 C193 1.363 . S
C198 C197 1.415 . S
C199 H175 0.951 . S
C199 C200 1.366 . S
C199 C201 1.388 . S
C200 C199 1.366 . S
C200 C204 1.385 . S
C201 H176 0.951 . S
C201 C199 1.388 . S
C201 C202 1.366 . S
C202 C201 1.366 . S
C202 C203 1.414 . S
C202 C205 1.499 . S
C203 H177 0.950 . S
C203 C202 1.414 . S
C203 C204 1.374 . S
C204 H178 0.950 . S
C204 C200 1.385 . S
C204 C203 1.374 . S
C205 C202 1.499 . S
C205 C206 1.373 . S
C205 C207 1.389 . S
C206 H179 0.950 . S
C206 C192 1.377 . S
C206 C205 1.373 . S
C207 C191 1.377 . S
C207 C205 1.389 . S
C207 C208 1.524 . S
C208 C207 1.524 . S
C208 C209 1.397 . S
C208 C213 1.363 . S
C209 H180 0.950 . S
C209 C208 1.397 . S
C209 C210 1.334 . S
C210 H181 0.950 . S
C210 C209 1.334 . S
C210 C211 1.287 . S
C211 C210 1.287 . S
C211 C212 1.524 . S
C211 H214 0.999 . S
C212 H182 0.950 . S
C212 C211 1.524 . S
C212 C213 1.415 . S
C213 H183 0.950 . S
C213 C208 1.363 . S
C213 C212 1.415 . S
H214 C211 0.999 . S
H215 C196 0.913 . S
H216 C234 0.951 . S
H217 C236 0.951 1_556 S
H218 C238 0.950 . S
H219 C239 0.950 . S
H220 C241 0.950 . S
H221 C244 0.950 . S
H222 C245 0.950 . S
H223 C247 0.950 . S
H224 C248 0.950 . S
H225 C249 0.951 . S
H226 C251 0.951 . S
H227 C253 0.950 . S
H228 C254 0.950 . S
H229 C256 0.950 . S
H230 C259 0.950 . S
H231 C260 0.950 . S
H232 C262 0.950 . S
H233 C263 0.950 . S
C234 H216 0.951 . S
C234 C235 1.366 . S
C234 C236 1.388 . S
C235 C234 1.366 . S
C235 C239 1.385 . S
C236 H217 0.951 1_554 S
C236 C234 1.388 . S
C236 C237 1.366 . S
C237 C236 1.366 . S
C237 C238 1.414 . S
C237 C240 1.499 . S
C238 H218 0.950 . S
C238 C237 1.414 . S
C238 C239 1.374 . S
C239 H219 0.950 . S
C239 C235 1.385 . S
C239 C238 1.374 . S
C240 C237 1.499 . S
C240 C241 1.373 . S
C240 C242 1.389 1_554 S
C241 H220 0.950 . S
C241 C240 1.373 . S
C241 C257 1.377 . S
C242 C240 1.389 1_556 S
C242 C243 1.524 . S
C242 C256 1.377 . S
C243 C242 1.524 . S
C243 C244 1.397 . S
C243 C248 1.363 . S
C244 H221 0.950 . S
C244 C243 1.397 . S
C244 C245 1.334 . S
C245 H222 0.950 . S
C245 C244 1.334 . S
C245 C246 1.287 . S
C246 C245 1.287 . S
C246 C247 1.524 . S
C246 H265 0.913 . S
C247 H223 0.950 . S
C247 C246 1.524 . S
C247 C248 1.415 . S
C248 H224 0.950 . S
C248 C243 1.363 . S
C248 C247 1.415 . S
C249 H225 0.951 . S
C249 C250 1.366 . S
C249 C251 1.388 . S
C250 C249 1.366 . S
C250 C254 1.385 . S
C251 H226 0.951 . S
C251 C249 1.388 . S
C251 C252 1.366 . S
C252 C251 1.366 . S
C252 C253 1.414 . S
C252 C255 1.499 . S
C253 H227 0.950 . S
C253 C252 1.414 . S
C253 C254 1.374 . S
C254 H228 0.950 . S
C254 C250 1.385 . S
C254 C253 1.374 . S
C255 C252 1.499 . S
C255 C256 1.373 . S
C255 C257 1.389 1_556 S
C256 H229 0.950 . S
C256 C242 1.377 . S
C256 C255 1.373 . S
C257 C241 1.377 . S
C257 C255 1.389 1_554 S
C257 C258 1.524 . S
C258 C257 1.524 . S
C258 C259 1.397 . S
C258 C263 1.363 . S
C259 H230 0.950 . S
C259 C258 1.397 . S
C259 C260 1.334 . S
C260 H231 0.950 . S
C260 C259 1.334 . S
C260 C261 1.287 . S
C261 C260 1.287 . S
C261 C262 1.524 . S
C261 H264 0.999 . S
C262 H232 0.950 . S
C262 C261 1.524 . S
C262 C263 1.415 . S
C263 H233 0.950 . S
C263 C258 1.363 . S
C263 C262 1.415 . S
H264 C261 0.999 . S
H265 C246 0.913 . S
H266 C284 0.951 . S
H267 C286 0.951 . S
H268 C288 0.950 . S
H269 C289 0.950 . S
H270 C291 0.950 . S
H271 C294 0.950 . S
H272 C295 0.950 . S
H273 C297 0.950 . S
H274 C298 0.950 . S
H275 C299 0.951 . S
H276 C301 0.951 . S
H277 C303 0.950 . S
H278 C304 0.950 . S
H279 C306 0.950 . S
H280 C309 0.950 . S
H281 C310 0.950 . S
H282 C312 0.950 . S
H283 C313 0.950 . S
C284 H266 0.951 . S
C284 C285 1.366 . S
C284 C286 1.388 . S
C285 C284 1.366 . S
C285 C289 1.385 . S
C286 H267 0.951 . S
C286 C284 1.388 . S
C286 C287 1.366 . S
C287 C286 1.366 . S
C287 C288 1.414 . S
C287 C290 1.499 . S
C288 H268 0.950 . S
C288 C287 1.414 . S
C288 C289 1.374 . S
C289 H269 0.950 . S
C289 C285 1.385 . S
C289 C288 1.374 . S
C290 C287 1.499 . S
C290 C291 1.373 . S
C290 C292 1.389 . S
C291 H270 0.950 . S
C291 C290 1.373 . S
C291 C307 1.377 . S
C292 C290 1.389 . S
C292 C293 1.524 . S
C292 C306 1.377 . S
C293 C292 1.524 . S
C293 C294 1.397 . S
C293 C298 1.363 . S
C294 H271 0.950 . S
C294 C293 1.397 . S
C294 C295 1.334 . S
C295 H272 0.950 . S
C295 C294 1.334 . S
C295 C296 1.287 . S
C296 C295 1.287 . S
C296 C297 1.524 . S
C296 H315 0.913 . S
C297 H273 0.950 . S
C297 C296 1.524 . S
C297 C298 1.415 . S
C298 H274 0.950 . S
C298 C293 1.363 . S
C298 C297 1.415 . S
C299 H275 0.951 . S
C299 C300 1.366 . S
C299 C301 1.388 . S
C300 C299 1.366 . S
C300 C304 1.385 . S
C301 H276 0.951 . S
C301 C299 1.388 . S
C301 C302 1.366 . S
C302 C301 1.366 . S
C302 C303 1.414 . S
C302 C305 1.499 . S
C303 H277 0.950 . S
C303 C302 1.414 . S
C303 C304 1.374 . S
C304 H278 0.950 . S
C304 C300 1.385 . S
C304 C303 1.374 . S
C305 C302 1.499 . S
C305 C306 1.373 . S
C305 C307 1.389 . S
C306 H279 0.950 . S
C306 C292 1.377 . S
C306 C305 1.373 . S
C307 C291 1.377 . S
C307 C305 1.389 . S
C307 C308 1.524 . S
C308 C307 1.524 . S
C308 C309 1.397 . S
C308 C313 1.363 . S
C309 H280 0.950 . S
C309 C308 1.397 . S
C309 C310 1.334 . S
C310 H281 0.950 . S
C310 C309 1.334 . S
C310 C311 1.287 . S
C311 C310 1.287 . S
C311 C312 1.524 . S
C311 H314 0.999 . S
C312 H282 0.950 . S
C312 C311 1.524 . S
C312 C313 1.415 . S
C313 H283 0.950 . S
C313 C308 1.363 . S
C313 C312 1.415 . S
H314 C311 0.999 . S
H315 C296 0.913 . S
H316 C334 0.951 . S
H317 C336 0.951 . S
H318 C338 0.950 . S
H319 C339 0.950 . S
H320 C341 0.950 . S
H321 C344 0.950 . S
H322 C345 0.950 . S
H323 C347 0.950 . S
H324 C348 0.950 . S
H325 C349 0.951 . S
H326 C351 0.951 . S
H327 C353 0.950 . S
H328 C354 0.950 . S
H329 C356 0.950 . S
H330 C359 0.950 . S
H331 C360 0.950 . S
H332 C362 0.950 . S
H333 C363 0.950 . S
C334 H316 0.951 . S
C334 C335 1.366 . S
C334 C336 1.388 . S
C335 C334 1.366 . S
C335 C339 1.385 . S
C336 H317 0.951 . S
C336 C334 1.388 . S
C336 C337 1.366 . S
C337 C336 1.366 . S
C337 C338 1.414 . S
C337 C340 1.499 . S
C338 H318 0.950 . S
C338 C337 1.414 . S
C338 C339 1.374 . S
C339 H319 0.950 . S
C339 C335 1.385 . S
C339 C338 1.374 . S
C340 C337 1.499 . S
C340 C341 1.373 . S
C340 C342 1.389 . S
C341 H320 0.950 . S
C341 C340 1.373 . S
C341 C357 1.377 . S
C342 C340 1.389 . S
C342 C343 1.524 . S
C342 C356 1.377 . S
C343 C342 1.524 . S
C343 C344 1.397 . S
C343 C348 1.363 . S
C344 H321 0.950 . S
C344 C343 1.397 . S
C344 C345 1.334 . S
C345 H322 0.950 . S
C345 C344 1.334 . S
C345 C346 1.287 . S
C346 C345 1.287 . S
C346 C347 1.524 . S
C346 H365 0.913 . S
C347 H323 0.950 . S
C347 C346 1.524 . S
C347 C348 1.415 . S
C348 H324 0.950 . S
C348 C343 1.363 . S
C348 C347 1.415 . S
C349 H325 0.951 . S
C349 C350 1.366 . S
C349 C351 1.388 . S
C350 C349 1.366 . S
C350 C354 1.385 . S
C351 H326 0.951 . S
C351 C349 1.388 . S
C351 C352 1.366 . S
C352 C351 1.366 . S
C352 C353 1.414 . S
C352 C355 1.499 . S
C353 H327 0.950 . S
C353 C352 1.414 . S
C353 C354 1.374 . S
C354 H328 0.950 . S
C354 C350 1.385 . S
C354 C353 1.374 . S
C355 C352 1.499 . S
C355 C356 1.373 . S
C355 C357 1.389 . S
C356 H329 0.950 . S
C356 C342 1.377 . S
C356 C355 1.373 . S
C357 C341 1.377 . S
C357 C355 1.389 . S
C357 C358 1.524 . S
C358 C357 1.524 . S
C358 C359 1.397 . S
C358 C363 1.363 . S
C359 H330 0.950 . S
C359 C358 1.397 . S
C359 C360 1.334 . S
C360 H331 0.950 . S
C360 C359 1.334 . S
C360 C361 1.287 . S
C361 C360 1.287 . S
C361 C362 1.524 . S
C361 H364 0.999 . S
C362 H332 0.950 . S
C362 C361 1.524 . S
C362 C363 1.415 . S
C363 H333 0.950 . S
C363 C358 1.363 . S
C363 C362 1.415 . S
H364 C361 0.999 . S
H365 C346 0.913 . S
H366 C384 0.951 . S
H367 C386 0.951 . S
H368 C388 0.950 . S
H369 C389 0.950 1_455 S
H370 C391 0.950 . S
H371 C394 0.950 . S
H372 C395 0.950 . S
H373 C397 0.950 . S
H374 C398 0.950 . S
H375 C399 0.951 . S
H376 C401 0.951 . S
H377 C403 0.950 . S
H378 C404 0.950 . S
H379 C406 0.950 . S
H380 C409 0.950 . S
H381 C410 0.950 . S
H382 C412 0.950 . S
H383 C413 0.950 . S
C384 H366 0.951 . S
C384 C385 1.366 . S
C384 C386 1.388 . S
C385 C384 1.366 . S
C385 C389 1.385 . S
C386 H367 0.951 . S
C386 C384 1.388 . S
C386 C387 1.366 . S
C387 C386 1.366 . S
C387 C388 1.414 . S
C387 C390 1.499 . S
C388 H368 0.950 . S
C388 C387 1.414 . S
C388 C389 1.374 . S
C389 H369 0.950 1_655 S
C389 C385 1.385 . S
C389 C388 1.374 . S
C390 C387 1.499 . S
C390 C391 1.373 . S
C390 C392 1.389 1_554 S
C391 H370 0.950 . S
C391 C390 1.373 . S
C391 C407 1.377 . S
C392 C390 1.389 1_556 S
C392 C393 1.524 . S
C392 C406 1.377 . S
C393 C392 1.524 . S
C393 C394 1.397 . S
C393 C398 1.363 . S
C394 H371 0.950 . S
C394 C393 1.397 . S
C394 C395 1.334 . S
C395 H372 0.950 . S
C395 C394 1.334 . S
C395 C396 1.287 . S
C396 C395 1.287 . S
C396 C397 1.524 . S
C396 H415 0.913 . S
C397 H373 0.950 . S
C397 C396 1.524 . S
C397 C398 1.415 . S
C398 H374 0.950 . S
C398 C393 1.363 . S
C398 C397 1.415 . S
C399 H375 0.951 . S
C399 C400 1.366 . S
C399 C401 1.388 . S
C400 C399 1.366 . S
C400 C404 1.385 . S
C401 H376 0.951 . S
C401 C399 1.388 . S
C401 C402 1.366 . S
C402 C401 1.366 . S
C402 C403 1.414 . S
C402 C405 1.499 . S
C403 H377 0.950 . S
C403 C402 1.414 . S
C403 C404 1.374 . S
C404 H378 0.950 . S
C404 C400 1.385 . S
C404 C403 1.374 . S
C405 C402 1.499 . S
C405 C406 1.373 . S
C405 C407 1.389 1_556 S
C406 H379 0.950 . S
C406 C392 1.377 . S
C406 C405 1.373 . S
C407 C391 1.377 . S
C407 C405 1.389 1_554 S
C407 C408 1.524 . S
C408 C407 1.524 . S
C408 C409 1.397 . S
C408 C413 1.363 . S
C409 H380 0.950 . S
C409 C408 1.397 . S
C409 C410 1.334 . S
C410 H381 0.950 . S
C410 C409 1.334 . S
C410 C411 1.287 . S
C411 C410 1.287 . S
C411 C412 1.524 . S
C411 H414 0.999 . S
C412 H382 0.950 . S
C412 C411 1.524 . S
C412 C413 1.415 . S
C413 H383 0.950 . S
C413 C408 1.363 . S
C413 C412 1.415 . S
H414 C411 0.999 . S
H415 C396 0.913 . S
H416 C434 0.951 . S
H417 C436 0.951 . S
H418 C438 0.950 . S
H419 C439 0.950 . S
H420 C441 0.952 1_545 S
H421 C444 0.950 1_565 S
H422 C445 0.950 . S
H423 C447 0.950 . S
H424 C448 0.950 . S
H425 C449 0.951 . S
H426 C451 0.951 . S
H427 C453 0.950 . S
H428 C454 0.950 . S
H429 C456 0.950 . S
H430 C459 0.950 . S
H431 C460 0.950 . S
H432 C462 0.950 . S
H433 C463 0.950 . S
C434 H416 0.951 . S
C434 C435 1.366 . S
C434 C436 1.388 . S
C435 C434 1.366 . S
C435 C439 1.385 . S
C436 H417 0.951 . S
C436 C434 1.388 . S
C436 C437 1.366 . S
C437 C436 1.366 . S
C437 C438 1.414 . S
C437 C440 1.499 . S
C438 H418 0.950 . S
C438 C437 1.414 . S
C438 C439 1.374 . S
C439 H419 0.950 . S
C439 C435 1.385 . S
C439 C438 1.374 . S
C440 C437 1.499 . S
C440 C441 1.366 1_545 S
C440 C442 1.389 1_545 S
C441 H420 0.952 1_565 S
C441 C440 1.366 1_565 S
C441 C457 1.382 . S
C442 C440 1.389 1_565 S
C442 C443 1.524 1_565 S
C442 C456 1.377 . S
C443 C442 1.524 1_545 S
C443 C444 1.397 . S
C443 C448 1.363 . S
C444 H421 0.950 1_545 S
C444 C443 1.397 . S
C444 C445 1.334 . S
C445 H422 0.950 . S
C445 C444 1.334 . S
C445 C446 1.287 . S
C446 C445 1.287 . S
C446 C447 1.524 . S
C446 H465 0.913 . S
C447 H423 0.950 . S
C447 C446 1.524 . S
C447 C448 1.415 . S
C448 H424 0.950 . S
C448 C443 1.363 . S
C448 C447 1.415 . S
C449 H425 0.951 . S
C449 C450 1.366 . S
C449 C451 1.388 . S
C450 C449 1.366 . S
C450 C454 1.385 . S
C451 H426 0.951 . S
C451 C449 1.388 . S
C451 C452 1.366 . S
C452 C451 1.366 . S
C452 C453 1.414 . S
C452 C455 1.499 . S
C453 H427 0.950 . S
C453 C452 1.414 . S
C453 C454 1.374 . S
C454 H428 0.950 . S
C454 C450 1.385 . S
C454 C453 1.374 . S
C455 C452 1.499 . S
C455 C456 1.373 . S
C455 C457 1.389 . S
C456 H429 0.950 . S
C456 C442 1.377 . S
C456 C455 1.373 . S
C457 C441 1.382 . S
C457 C455 1.389 . S
C457 C458 1.524 . S
C458 C457 1.524 . S
C458 C459 1.397 . S
C458 C463 1.363 . S
C459 H430 0.950 . S
C459 C458 1.397 . S
C459 C460 1.334 . S
C460 H431 0.950 . S
C460 C459 1.334 . S
C460 C461 1.287 . S
C461 C460 1.287 . S
C461 C462 1.524 . S
C461 H464 0.999 . S
C462 H432 0.950 . S
C462 C461 1.524 . S
C462 C463 1.415 . S
C463 H433 0.950 . S
C463 C458 1.363 . S
C463 C462 1.415 . S
H464 C461 0.999 . S
H465 C446 0.913 . S
H466 C484 0.951 . S
H467 C486 0.951 . S
H468 C488 0.950 . S
H469 C489 0.950 . S
H470 C491 0.950 . S
H471 C494 0.950 . S
H472 C495 0.950 . S
H473 C497 0.950 . S
H474 C498 0.950 . S
H475 C499 0.951 . S
H476 C501 0.951 . S
H477 C503 0.950 . S
H478 C504 0.950 . S
H479 C506 0.950 . S
H480 C509 0.950 . S
H481 C510 0.950 . S
H482 C512 0.950 . S
H483 C513 0.950 . S
C484 H466 0.951 . S
C484 C485 1.366 . S
C484 C486 1.388 . S
C485 C484 1.366 . S
C485 C489 1.385 . S
C486 H467 0.951 . S
C486 C484 1.388 . S
C486 C487 1.366 . S
C487 C486 1.366 . S
C487 C488 1.414 . S
C487 C490 1.499 . S
C488 H468 0.950 . S
C488 C487 1.414 . S
C488 C489 1.374 . S
C489 H469 0.950 . S
C489 C485 1.385 . S
C489 C488 1.374 . S
C490 C487 1.499 . S
C490 C491 1.373 . S
C490 C492 1.389 . S
C491 H470 0.950 . S
C491 C490 1.373 . S
C491 C507 1.377 . S
C492 C490 1.389 . S
C492 C493 1.524 . S
C492 C506 1.377 . S
C493 C492 1.524 . S
C493 C494 1.397 . S
C493 C498 1.363 . S
C494 H471 0.950 . S
C494 C493 1.397 . S
C494 C495 1.334 . S
C495 H472 0.950 . S
C495 C494 1.334 . S
C495 C496 1.287 . S
C496 C495 1.287 . S
C496 C497 1.524 . S
C496 H515 0.913 . S
C497 H473 0.950 . S
C497 C496 1.524 . S
C497 C498 1.415 . S
C498 H474 0.950 . S
C498 C493 1.363 . S
C498 C497 1.415 . S
C499 H475 0.951 . S
C499 C500 1.366 . S
C499 C501 1.388 . S
C500 C499 1.366 . S
C500 C504 1.385 . S
C501 H476 0.951 . S
C501 C499 1.388 . S
C501 C502 1.366 . S
C502 C501 1.366 . S
C502 C503 1.414 . S
C502 C505 1.499 . S
C503 H477 0.950 . S
C503 C502 1.414 . S
C503 C504 1.374 . S
C504 H478 0.950 . S
C504 C500 1.385 . S
C504 C503 1.374 . S
C505 C502 1.499 . S
C505 C506 1.373 . S
C505 C507 1.389 . S
C506 H479 0.950 . S
C506 C492 1.377 . S
C506 C505 1.373 . S
C507 C491 1.377 . S
C507 C505 1.389 . S
C507 C508 1.524 . S
C508 C507 1.524 . S
C508 C509 1.397 . S
C508 C513 1.363 . S
C509 H480 0.950 . S
C509 C508 1.397 . S
C509 C510 1.334 . S
C510 H481 0.950 . S
C510 C509 1.334 . S
C510 C511 1.287 . S
C511 C510 1.287 . S
C511 C512 1.524 . S
C511 H514 0.999 . S
C512 H482 0.950 . S
C512 C511 1.524 . S
C512 C513 1.415 . S
C513 H483 0.950 . S
C513 C508 1.363 . S
C513 C512 1.415 . S
H514 C511 0.999 . S
H515 C496 0.913 . S
C85 C7 1.476 . S
C100 C62 1.480 . S
C135 C40 1.467 . S
C150 C18 1.467 . S
C185 C51 1.475 . S
C200 C29 1.480 . S
C235 C8 1.495 . S
C250 C49 1.311 . S
C285 C19 1.505 . S
C300 C60 1.337 . S
C335 C41 1.505 . S
C350 C27 1.336 . S
C385 C5 1.311 1_655 S
C400 C52 1.494 . S
C435 C16 1.296 . S
C450 C63 1.516 . S
C485 C38 1.297 . S
C500 C30 1.515 . S
