# Generated by pormake.
# Topology can, (4)-cn, num edge types: 1
# Building blocks:
#     Node 0, Type 0, BuildingBlock: ICAMEG_clean_sbu_1, # of connection points: 4
#     Node 1, Type 0, BuildingBlock: ICAMEG_clean_sbu_1, # of connection points: 4
#     Node 2, Type 0, BuildingBlock: ICAMEG_clean_sbu_1, # of connection points: 4
#     Node 3, Type 0, BuildingBlock: ICAMEG_clean_sbu_1, # of connection points: 4
#     Node 4, Type 0, BuildingBlock: ICAMEG_clean_sbu_1, # of connection points: 4
#     Node 5, Type 0, BuildingBlock: ICAMEG_clean_sbu_1, # of connection points: 4
#     Node 6, Type 0, BuildingBlock: ICAMEG_clean_sbu_1, # of connection points: 4
#     Node 7, Type 0, BuildingBlock: ICAMEG_clean_sbu_1, # of connection points: 4
#     Node 8, Type 0, BuildingBlock: ICAMEG_clean_sbu_1, # of connection points: 4
#     Node 9, Type 0, BuildingBlock: ICAMEG_clean_sbu_1, # of connection points: 4
#     Node 10, Type 0, BuildingBlock: ICAMEG_clean_sbu_1, # of connection points: 4
#     Node 11, Type 0, BuildingBlock: ICAMEG_clean_sbu_1, # of connection points: 4
#     Edge 12, Type (0, 0), BuildingBlock: MIFKUJ_clean_linker_0, # of connection points: 2
#     Edge 13, Type (0, 0), BuildingBlock: MIFKUJ_clean_linker_0, # of connection points: 2
#     Edge 14, Type (0, 0), BuildingBlock: MIFKUJ_clean_linker_0, # of connection points: 2
#     Edge 15, Type (0, 0), BuildingBlock: MIFKUJ_clean_linker_0, # of connection points: 2
#     Edge 16, Type (0, 0), BuildingBlock: MIFKUJ_clean_linker_0, # of connection points: 2
#     Edge 17, Type (0, 0), BuildingBlock: MIFKUJ_clean_linker_0, # of connection points: 2
#     Edge 18, Type (0, 0), BuildingBlock: MIFKUJ_clean_linker_0, # of connection points: 2
#     Edge 19, Type (0, 0), BuildingBlock: MIFKUJ_clean_linker_0, # of connection points: 2
#     Edge 20, Type (0, 0), BuildingBlock: MIFKUJ_clean_linker_0, # of connection points: 2
#     Edge 21, Type (0, 0), BuildingBlock: MIFKUJ_clean_linker_0, # of connection points: 2
#     Edge 22, Type (0, 0), BuildingBlock: MIFKUJ_clean_linker_0, # of connection points: 2
#     Edge 23, Type (0, 0), BuildingBlock: MIFKUJ_clean_linker_0, # of connection points: 2
#     Edge 24, Type (0, 0), BuildingBlock: MIFKUJ_clean_linker_0, # of connection points: 2
#     Edge 25, Type (0, 0), BuildingBlock: MIFKUJ_clean_linker_0, # of connection points: 2
#     Edge 26, Type (0, 0), BuildingBlock: MIFKUJ_clean_linker_0, # of connection points: 2
#     Edge 27, Type (0, 0), BuildingBlock: MIFKUJ_clean_linker_0, # of connection points: 2
#     Edge 28, Type (0, 0), BuildingBlock: MIFKUJ_clean_linker_0, # of connection points: 2
#     Edge 29, Type (0, 0), BuildingBlock: MIFKUJ_clean_linker_0, # of connection points: 2
#     Edge 30, Type (0, 0), BuildingBlock: MIFKUJ_clean_linker_0, # of connection points: 2
#     Edge 31, Type (0, 0), BuildingBlock: MIFKUJ_clean_linker_0, # of connection points: 2
#     Edge 32, Type (0, 0), BuildingBlock: MIFKUJ_clean_linker_0, # of connection points: 2
#     Edge 33, Type (0, 0), BuildingBlock: MIFKUJ_clean_linker_0, # of connection points: 2
#     Edge 34, Type (0, 0), BuildingBlock: MIFKUJ_clean_linker_0, # of connection points: 2
#     Edge 35, Type (0, 0), BuildingBlock: MIFKUJ_clean_linker_0, # of connection points: 2
# Relax obj value: 0.053
# Max RMSD: 0.076
# Mean RMSD: 0.076
data_MOF--net-can--node1-ICAMEG_clean_sbu_1--edge1-MIFKUJ_clean_linker_0
_symmetry_space_group_name_H-M    P1
_symmetry_Int_Tables_number       1
_symmetry_cell_setting            triclinic
loop_
_symmetry_equiv_pos_as_xyz
'x, y, z'
_cell_length_a     72.747097
_cell_length_b     72.80018
_cell_length_c     38.631956
_cell_angle_alpha  89.913675
_cell_angle_beta   90.034031
_cell_angle_gamma 120.01022
loop_
_atom_site_label
_atom_site_type_symbol
_atom_site_fract_x
_atom_site_fract_y
_atom_site_fract_z
_atom_type_partial_charge
Co0 Co 0.03187 0.37777 0.25667 0.0
Co1 Co 0.08148 0.41351 0.22511 0.0
O2 O 0.06291 0.39132 0.25799 0.0
C3 C 0.04075 0.39211 0.32985 0.0
O4 O 0.05481 0.41103 0.31846 0.0
C5 C 0.09841 0.3834 0.22822 0.0
O6 O 0.07906 0.3675 0.23271 0.0
O7 O 0.06546 0.39515 0.18501 0.0
O8 O 0.03196 0.37814 0.20479 0.0
H9 H 0.09705 0.46009 0.12049 0.0
H10 H 0.05097 0.35758 0.29887 0.0
O11 O 0.03075 0.37694 0.30858 0.0
H12 H 0.0069 0.30408 0.21173 0.0
H13 H 0.95758 0.32618 0.29647 0.0
H14 H 1.00123 0.38446 0.21568 0.0
H15 H 0.00891 0.3389 0.21307 0.0
H16 H 0.99658 0.34271 0.29648 0.0
O17 O 0.10168 0.40217 0.22405 0.0
H18 H 0.07415 0.43258 0.16255 0.0
H19 H 0.12844 0.44112 0.2176 0.0
H20 H 0.96227 0.36821 0.21449 0.0
H21 H 0.04915 0.32283 0.29881 0.0
H22 H 0.94017 0.33887 0.25515 0.0
H23 H 0.02707 0.29583 0.2549 0.0
O24 O 0.03355 0.40588 0.25742 0.0
H25 H 0.11813 0.42882 0.3405 0.0
H26 H 0.09655 0.45857 0.24439 0.0
H27 H 0.11522 0.48106 0.29464 0.0
H28 H 0.12619 0.46622 0.34314 0.0
H29 H 0.09922 0.40682 0.28991 0.0
H30 H 0.15193 0.4686 0.17597 0.0
H31 H 0.13624 0.4783 0.12706 0.0
O32 O 0.06252 0.42618 0.22549 0.0
C33 C 0.04546 0.38376 0.18023 0.0
C34 C 0.10407 0.45604 0.14174 0.0
C35 C 0.13487 0.4608 0.17286 0.0
N36 N 0.09993 0.43534 0.19262 0.0
C37 C 0.09118 0.44051 0.16569 0.0
C38 C 0.12149 0.44518 0.1963 0.0
C39 C 0.12606 0.46624 0.14543 0.0
C40 C 0.04115 0.34583 0.27992 0.0
N41 N 0.03009 0.35028 0.25599 0.0
C42 C 0.04026 0.32622 0.27991 0.0
C43 C 0.0279 0.31109 0.25522 0.0
C44 C 0.01661 0.31573 0.23096 0.0
C45 C 0.01789 0.33552 0.23173 0.0
C46 C 0.96703 0.33892 0.27857 0.0
C47 C 0.99171 0.37158 0.23325 0.0
C48 C 0.98913 0.34836 0.2785 0.0
N49 N 1.00116 0.36442 0.25591 0.0
C50 C 0.96966 0.36249 0.23254 0.0
C51 C 0.95727 0.34604 0.25538 0.0
C52 C 0.0458 0.42303 0.24136 0.0
C53 C 0.11349 0.43549 0.31948 0.0
C54 C 0.1012 0.45196 0.26542 0.0
C55 C 0.11182 0.4648 0.29378 0.0
C56 C 0.11798 0.45646 0.32097 0.0
N57 N 0.0969 0.43142 0.2641 0.0
C58 C 0.10286 0.42313 0.29069 0.0
Co59 Co 0.65078 0.03123 0.75728 0.0
Co60 Co 0.66341 0.08011 0.72569 0.0
O61 O 0.66782 0.06218 0.75865 0.0
C62 C 0.6471 0.0402 0.83092 0.0
O63 O 0.64285 0.05485 0.82044 0.0
C64 C 0.71055 0.09823 0.72576 0.0
O65 O 0.7076 0.079 0.72225 0.0
O66 O 0.66718 0.06482 0.68593 0.0
O67 O 0.64945 0.03135 0.70552 0.0
H68 H 0.63273 0.09466 0.61959 0.0
H69 H 0.69123 0.05142 0.79618 0.0
O70 O 0.65147 0.02991 0.80899 0.0
H71 H 0.69937 0.00736 0.70745 0.0
H72 H 0.63018 0.95705 0.7945 0.0
H73 H 0.61255 1.00048 0.71836 0.0
H74 H 0.66607 0.00835 0.71201 0.0
H75 H 0.65212 0.99608 0.79489 0.0
O76 O 0.69468 0.10115 0.72647 0.0
H77 H 0.6378 0.0722 0.66196 0.0
H78 H 0.68103 0.12682 0.71886 0.0
H79 H 0.59028 0.96149 0.71693 0.0
H80 H 0.72475 0.05072 0.79279 0.0
H81 H 0.59906 0.9395 0.75521 0.0
H82 H 0.72899 0.02862 0.7481 0.0
O83 O 0.62436 0.0328 0.76034 0.0
H84 H 0.68189 0.11661 0.84127 0.0
H85 H 0.63139 0.09281 0.74378 0.0
H86 H 0.62576 0.11051 0.79366 0.0
H87 H 0.65115 0.12259 0.84284 0.0
H88 H 0.68679 0.09861 0.79106 0.0
H89 H 0.67655 0.14987 0.67697 0.0
H90 H 0.65219 0.1338 0.62696 0.0
O91 O 0.63186 0.06003 0.72471 0.0
C92 C 0.65801 0.04481 0.68106 0.0
C93 C 0.64334 0.10185 0.64132 0.0
C94 C 0.66796 0.13284 0.6735 0.0
N95 N 0.6596 0.09817 0.69297 0.0
C96 C 0.64624 0.08921 0.66544 0.0
C97 C 0.67048 0.11971 0.69709 0.0
C98 C 0.65428 0.12381 0.64545 0.0
C99 C 0.69291 0.04162 0.77688 0.0
N100 N 0.67671 0.02991 0.75439 0.0
C101 C 0.71194 0.04135 0.77499 0.0
C102 C 0.71432 0.02897 0.74987 0.0
C103 C 0.69772 0.01705 0.72704 0.0
C104 C 0.67892 0.01773 0.72967 0.0
C105 C 0.62622 0.96645 0.77766 0.0
C106 C 0.61654 0.99101 0.73495 0.0
C107 C 0.63856 0.98856 0.77782 0.0
N108 N 0.6337 1.00053 0.75648 0.0
C109 C 0.60384 0.96894 0.73409 0.0
C110 C 0.60877 0.95662 0.75559 0.0
C111 C 0.61887 0.04416 0.74296 0.0
C112 C 0.67075 0.11147 0.81995 0.0
C113 C 0.64247 0.09794 0.76513 0.0
C114 C 0.63923 0.10801 0.79327 0.0
C115 C 0.65348 0.1148 0.82084 0.0
N116 N 0.65946 0.09474 0.76443 0.0
C117 C 0.6735 0.10135 0.79138 0.0
Co118 Co 0.62734 0.65401 0.2551 0.0
Co119 Co 0.59223 0.66813 0.22301 0.0
O120 O 0.61368 0.67135 0.25705 0.0
C121 C 0.61322 0.64922 0.32813 0.0
O122 O 0.59501 0.64664 0.31703 0.0
C123 C 0.6215 0.7151 0.22687 0.0
O124 O 0.63778 0.71199 0.2257 0.0
O125 O 0.61225 0.67285 0.18438 0.0
O126 O 0.62717 0.6542 0.20324 0.0
H127 H 0.55019 0.64086 0.11317 0.0
H128 H 0.64707 0.6932 0.29715 0.0
O129 O 0.62807 0.65308 0.30684 0.0
H130 H 0.70119 0.70324 0.2107 0.0
H131 H 0.67935 0.63141 0.29288 0.0
H132 H 0.62042 0.61686 0.21364 0.0
H133 H 0.66654 0.67018 0.21199 0.0
H134 H 0.66263 0.65369 0.29403 0.0
O135 O 0.60265 0.69938 0.22546 0.0
H136 H 0.57627 0.6444 0.15729 0.0
H137 H 0.56346 0.68615 0.21566 0.0
H138 H 0.6368 0.59429 0.21141 0.0
H139 H 0.68162 0.72645 0.29702 0.0
H140 H 0.66648 0.60151 0.25125 0.0
H141 H 0.70893 0.73165 0.25348 0.0
O142 O 0.59914 0.62776 0.25574 0.0
H143 H 0.57144 0.6836 0.33872 0.0
H144 H 0.54693 0.63605 0.23751 0.0
H145 H 0.52241 0.62914 0.28615 0.0
H146 H 0.53462 0.653 0.33727 0.0
H147 H 0.59554 0.68979 0.28962 0.0
H148 H 0.5373 0.68314 0.17206 0.0
H149 H 0.53049 0.66032 0.12042 0.0
O150 O 0.58053 0.63665 0.22009 0.0
C151 C 0.62303 0.66365 0.17925 0.0
C152 C 0.55297 0.65081 0.13561 0.0
C153 C 0.54576 0.67456 0.16864 0.0
N154 N 0.5713 0.66537 0.18912 0.0
C155 C 0.56769 0.65284 0.16072 0.0
C156 C 0.56062 0.67624 0.1932 0.0
C157 C 0.54194 0.66174 0.13967 0.0
C158 C 0.65896 0.69529 0.27834 0.0
N159 N 0.65482 0.67976 0.25468 0.0
C160 C 0.67845 0.71417 0.2783 0.0
C161 C 0.69376 0.71709 0.25383 0.0
C162 C 0.68942 0.70117 0.22979 0.0
C163 C 0.66974 0.6825 0.23058 0.0
C164 C 0.66646 0.62813 0.27534 0.0
C165 C 0.63342 0.62018 0.2309 0.0
C166 C 0.65691 0.64067 0.27591 0.0
N167 N 0.64069 0.63668 0.25372 0.0
C168 C 0.6426 0.60732 0.22959 0.0
C169 C 0.65924 0.61136 0.25197 0.0
C170 C 0.58271 0.62298 0.23763 0.0
C171 C 0.56592 0.67311 0.31657 0.0
C172 C 0.55241 0.64647 0.25968 0.0
C173 C 0.53842 0.64251 0.28712 0.0
C174 C 0.54528 0.65592 0.31577 0.0
N175 N 0.57266 0.66333 0.26069 0.0
C176 C 0.57947 0.67659 0.28862 0.0
Co177 Co 0.9777 0.62484 0.74921 0.0
Co178 Co 0.92693 0.58999 0.72061 0.0
O179 O 0.94679 0.6128 0.75154 0.0
C180 C 0.96856 0.61326 0.82332 0.0
O181 O 0.95201 0.59531 0.81368 0.0
C182 C 0.91172 0.62169 0.72234 0.0
O183 O 0.93102 0.63708 0.72891 0.0
O184 O 0.94301 0.60647 0.67892 0.0
O185 O 0.97672 0.62287 0.69764 0.0
H186 H 0.90753 0.53933 0.62096 0.0
H187 H 0.96151 0.64818 0.79008 0.0
O188 O 0.97993 0.62712 0.80084 0.0
H189 H 0.00517 0.69755 0.69763 0.0
H190 H 0.05349 0.67514 0.78344 0.0
H191 H 0.00621 0.61455 0.7094 0.0
H192 H 1.00116 0.66194 0.70189 0.0
H193 H 0.01471 0.66032 0.78528 0.0
O194 O 0.90804 0.60282 0.71761 0.0
H195 H 0.93198 0.56769 0.66043 0.0
H196 H 0.87968 0.5643 0.715 0.0
H197 H 0.04491 0.62899 0.70654 0.0
H198 H 0.96541 0.68381 0.78715 0.0
H199 H 0.06884 0.65951 0.74375 0.0
H200 H 0.98728 0.70873 0.74055 0.0
O201 O 0.97442 0.59615 0.75249 0.0
H202 H 0.89095 0.58028 0.83571 0.0
H203 H 0.90986 0.54531 0.74454 0.0
H204 H 0.89042 0.52493 0.79616 0.0
H205 H 0.88073 0.54239 0.84214 0.0
H206 H 0.91071 0.60016 0.78395 0.0
H207 H 0.85469 0.53605 0.67595 0.0
H208 H 0.86858 0.52331 0.6286 0.0
O209 O 0.94448 0.57577 0.72285 0.0
C210 C 0.963 0.617 0.67345 0.0
C211 C 0.90128 0.5447 0.64155 0.0
C212 C 0.87162 0.54288 0.67238 0.0
N213 N 0.90728 0.56756 0.69013 0.0
C214 C 0.91505 0.56072 0.66403 0.0
C215 C 0.88586 0.55893 0.69436 0.0
C216 C 0.87943 0.53574 0.64583 0.0
C217 C 0.97125 0.65902 0.76997 0.0
N218 N 0.98105 0.65296 0.74617 0.0
C219 C 0.97331 0.67914 0.76833 0.0
C220 C 0.98555 0.6931 0.74214 0.0
C221 C 0.99556 0.68682 0.71802 0.0
C222 C 0.99313 0.66658 0.72045 0.0
C223 C 0.04324 0.66188 0.76703 0.0
C224 C 0.01653 0.62792 0.72551 0.0
C225 C 0.02126 0.6534 0.76799 0.0
N226 N 0.00822 0.6367 0.74724 0.0
C227 C 0.03843 0.63599 0.72385 0.0
C228 C 0.05184 0.6531 0.74476 0.0
C229 C 0.96128 0.57868 0.7382 0.0
C230 C 0.89502 0.57247 0.8158 0.0
C231 C 0.90585 0.55308 0.76452 0.0
C232 C 0.89476 0.54143 0.79365 0.0
C233 C 0.88932 0.55123 0.81942 0.0
N234 N 0.91132 0.5739 0.76108 0.0
C235 C 0.90612 0.58363 0.78633 0.0
Co236 Co 0.35172 0.97316 0.25154 0.0
Co237 Co 0.34255 0.92478 0.22228 0.0
O238 O 0.33681 0.94227 0.25383 0.0
C239 C 0.35913 0.96623 0.32443 0.0
O240 O 0.36652 0.95423 0.31281 0.0
C241 C 0.29541 0.90494 0.21974 0.0
O242 O 0.29786 0.92385 0.21431 0.0
O243 O 0.33824 0.93887 0.18116 0.0
O244 O 0.3519 0.97246 0.19972 0.0
H245 H 0.37686 0.91097 0.12045 0.0
H246 H 0.31225 0.9504 0.29284 0.0
O247 O 0.35188 0.97458 0.30344 0.0
H248 H 0.29741 0.99029 0.20461 0.0
H249 H 0.36679 0.0457 0.28839 0.0
H250 H 0.3874 0.00572 0.20985 0.0
H251 H 0.33247 0.99279 0.20732 0.0
H252 H 0.34793 0.00658 0.29005 0.0
O253 O 0.31161 0.90267 0.22272 0.0
H254 H 0.369 0.93295 0.15946 0.0
H255 H 0.32742 0.87847 0.21837 0.0
H256 H 0.40657 0.04482 0.2071 0.0
H257 H 0.27701 0.94756 0.29124 0.0
H258 H 0.39628 0.06507 0.24658 0.0
H259 H 0.2694 0.96756 0.24681 0.0
O260 O 0.37979 0.97455 0.25263 0.0
H261 H 0.32444 0.89039 0.33963 0.0
H262 H 0.37649 0.91542 0.24426 0.0
H263 H 0.38315 0.90034 0.29691 0.0
H264 H 0.35696 0.88757 0.34482 0.0
H265 H 0.31863 0.90605 0.28708 0.0
H266 H 0.33467 0.85586 0.17979 0.0
H267 H 0.35968 0.87214 0.13057 0.0
O268 O 0.37362 0.94607 0.22133 0.0
C269 C 0.34506 0.95857 0.17565 0.0
C270 C 0.36598 0.9037 0.14186 0.0
C271 C 0.34228 0.87277 0.17514 0.0
N272 N 0.34788 0.90702 0.1913 0.0
C273 C 0.36149 0.91607 0.16407 0.0
C274 C 0.33818 0.88564 0.19683 0.0
C275 C 0.35632 0.88191 0.14754 0.0
C276 C 0.30911 0.9593 0.27364 0.0
N277 N 0.32441 0.97181 0.2503 0.0
C278 C 0.28911 0.95756 0.27277 0.0
C279 C 0.28484 0.96876 0.24781 0.0
C280 C 0.30054 0.98151 0.2241 0.0
C281 C 0.32034 0.98282 0.22571 0.0
C282 C 0.37139 0.03705 0.27101 0.0
C283 C 0.38276 0.01443 0.22697 0.0
C284 C 0.3608 0.01491 0.27188 0.0
N285 N 0.36647 0.00389 0.24987 0.0
C286 C 0.3937 0.03656 0.22536 0.0
C287 C 0.38793 0.04791 0.24754 0.0
C288 C 0.38611 0.96345 0.23655 0.0
C289 C 0.33591 0.89578 0.31878 0.0
C290 C 0.36504 0.90996 0.26509 0.0
C291 C 0.36887 0.90137 0.29474 0.0
C292 C 0.35417 0.89423 0.3217 0.0
N293 N 0.3471 0.91148 0.26246 0.0
C294 C 0.33265 0.90455 0.28885 0.0
Co295 Co 0.38364 0.3538 0.75507 0.0
Co296 Co 0.42024 0.33979 0.72856 0.0
O297 O 0.39776 0.33699 0.7599 0.0
C298 C 0.39836 0.36178 0.82794 0.0
O299 O 0.41661 0.36428 0.81729 0.0
C300 C 0.39028 0.29271 0.73011 0.0
O301 O 0.3741 0.29577 0.72575 0.0
O302 O 0.40217 0.33592 0.68706 0.0
O303 O 0.38347 0.3513 0.70365 0.0
H304 H 0.46758 0.36733 0.62412 0.0
H305 H 0.36537 0.31635 0.8013 0.0
O306 O 0.3833 0.35689 0.80653 0.0
H307 H 0.30961 0.30146 0.71511 0.0
H308 H 0.33074 0.3764 0.78688 0.0
H309 H 0.38907 0.3884 0.70815 0.0
H310 H 0.34374 0.33508 0.7133 0.0
H311 H 0.34838 0.3551 0.79241 0.0
O312 O 0.40911 0.30845 0.7312 0.0
H313 H 0.43968 0.36398 0.66419 0.0
H314 H 0.4483 0.32076 0.7265 0.0
H315 H 0.37171 0.40988 0.70143 0.0
H316 H 0.33138 0.28259 0.80433 0.0
H317 H 0.34233 0.40395 0.74103 0.0
H318 H 0.30324 0.27495 0.76093 0.0
O319 O 0.41148 0.38066 0.75315 0.0
H320 H 0.43481 0.32244 0.84779 0.0
H321 H 0.46507 0.37082 0.74808 0.0
H322 H 0.48708 0.37666 0.79992 0.0
H323 H 0.47197 0.35233 0.85026 0.0
H324 H 0.41325 0.31737 0.79559 0.0
H325 H 0.47615 0.32348 0.68694 0.0
H326 H 0.48601 0.34697 0.63538 0.0
O327 O 0.43262 0.37122 0.72567 0.0
C328 C 0.38979 0.3432 0.68057 0.0
C329 C 0.46345 0.35707 0.64653 0.0
C330 C 0.46824 0.33244 0.68177 0.0
N331 N 0.44242 0.34225 0.69772 0.0
C332 C 0.4477 0.35515 0.66935 0.0
C333 C 0.45241 0.33091 0.70402 0.0
C334 C 0.47378 0.34563 0.65285 0.0
C335 C 0.35314 0.31319 0.78249 0.0
N336 N 0.35653 0.32766 0.75716 0.0
C337 C 0.33395 0.29403 0.78427 0.0
C338 C 0.31818 0.28974 0.75988 0.0
C339 C 0.32175 0.3046 0.73414 0.0
C340 C 0.34114 0.32357 0.73315 0.0
C341 C 0.3435 0.37911 0.76945 0.0
C342 C 0.3762 0.38563 0.72533 0.0
C343 C 0.35359 0.36714 0.77251 0.0
N344 N 0.36964 0.37041 0.75047 0.0
C345 C 0.36648 0.39789 0.72147 0.0
C346 C 0.35001 0.39456 0.74371 0.0
C347 C 0.42893 0.3852 0.73843 0.0
C348 C 0.44159 0.33312 0.826 0.0
C349 C 0.45833 0.36024 0.76992 0.0
C350 C 0.4709 0.36358 0.79917 0.0
C351 C 0.46243 0.34991 0.82739 0.0
N352 N 0.43788 0.34377 0.76877 0.0
C353 C 0.42949 0.33027 0.79631 0.0
Co354 Co 0.62613 0.97614 0.25905 0.0
Co355 Co 0.58997 0.92635 0.28786 0.0
O356 O 0.61236 0.94524 0.25579 0.0
C357 C 0.61329 0.96881 0.18527 0.0
O358 O 0.59427 0.95423 0.19541 0.0
C359 C 0.61941 0.90872 0.28745 0.0
O360 O 0.63553 0.92781 0.2931 0.0
O361 O 0.60864 0.941 0.32838 0.0
O362 O 0.62484 0.97489 0.31075 0.0
H363 H 0.54409 0.90915 0.39366 0.0
H364 H 0.64626 0.9567 0.21788 0.0
O365 O 0.62801 0.97852 0.2074 0.0
H366 H 0.69892 0.99939 0.30709 0.0
H367 H 0.67937 0.05114 0.22508 0.0
H368 H 0.61875 0.00595 0.30089 0.0
H369 H 0.66455 0.99835 0.30404 0.0
H370 H 0.66237 0.01216 0.22241 0.0
O371 O 0.60063 0.90574 0.28567 0.0
H372 H 0.57161 0.93265 0.35214 0.0
H373 H 0.56139 0.87941 0.29241 0.0
H374 H 0.63538 0.04487 0.30461 0.0
H375 H 0.68052 0.95743 0.21979 0.0
H376 H 0.66591 0.06774 0.26651 0.0
H377 H 0.7071 0.97886 0.2647 0.0
O378 O 0.59805 0.9746 0.25732 0.0
H379 H 0.57346 0.89266 0.17005 0.0
H380 H 0.54503 0.91285 0.26963 0.0
H381 H 0.52221 0.89598 0.21887 0.0
H382 H 0.53639 0.88571 0.16862 0.0
H383 H 0.59584 0.90982 0.22118 0.0
H384 H 0.53381 0.8553 0.3334 0.0
H385 H 0.52496 0.87016 0.3844 0.0
O386 O 0.57805 0.94593 0.29003 0.0
C387 C 0.61966 0.96088 0.33435 0.0
C388 C 0.54775 0.90248 0.37148 0.0
C389 C 0.54201 0.87226 0.33768 0.0
N390 N 0.56801 0.90743 0.31976 0.0
C391 C 0.5633 0.91572 0.34783 0.0
C392 C 0.55768 0.88599 0.3146 0.0
C393 C 0.53705 0.88061 0.36629 0.0
C394 C 0.65782 0.96619 0.23732 0.0
N395 N 0.65344 0.97751 0.26075 0.0
C396 C 0.67716 0.96649 0.23835 0.0
C397 C 0.69206 0.97849 0.26359 0.0
C398 C 0.68747 0.99 0.2874 0.0
C399 C 0.66795 0.9893 0.28561 0.0
C400 C 0.6661 0.04135 0.24186 0.0
C401 C 0.63211 0.0158 0.28437 0.0
C402 C 0.65638 0.01926 0.24042 0.0
N403 N 0.63969 0.0068 0.26166 0.0
C404 C 0.64143 0.03783 0.28653 0.0
C405 C 0.65855 0.05065 0.26512 0.0
C406 C 0.58099 0.96246 0.27375 0.0
C407 C 0.56709 0.89702 0.19181 0.0
C408 C 0.55137 0.90855 0.24782 0.0
C409 C 0.53834 0.89893 0.21918 0.0
C410 C 0.5463 0.89315 0.19101 0.0
N411 N 0.57175 0.91231 0.24842 0.0
C412 C 0.57966 0.90667 0.2209 0.0
Co413 Co 0.65345 0.62773 0.75602 0.0
Co414 Co 0.66853 0.59232 0.78504 0.0
O415 O 0.67103 0.61431 0.7525 0.0
C416 C 0.64687 0.61335 0.68289 0.0
O417 O 0.64497 0.59531 0.69329 0.0
C418 C 0.71561 0.62193 0.77573 0.0
O419 O 0.7122 0.6374 0.76711 0.0
O420 O 0.67197 0.61082 0.8255 0.0
O421 O 0.65497 0.62772 0.80765 0.0
H422 H 0.64076 0.54625 0.8909 0.0
H423 H 0.69093 0.64798 0.70979 0.0
O424 O 0.65107 0.62813 0.70447 0.0
H425 H 0.70349 0.70185 0.79815 0.0
H426 H 0.62944 0.67917 0.72162 0.0
H427 H 0.61738 0.62087 0.80056 0.0
H428 H 0.67089 0.66685 0.79946 0.0
H429 H 0.65182 0.66263 0.71804 0.0
O430 O 0.70018 0.60376 0.78396 0.0
H431 H 0.64407 0.57354 0.84945 0.0
H432 H 0.68806 0.56477 0.78964 0.0
H433 H 0.59474 0.63709 0.80524 0.0
H434 H 0.72357 0.68296 0.70708 0.0
H435 H 0.60071 0.66646 0.76556 0.0
H436 H 0.73008 0.71013 0.75162 0.0
O437 O 0.62719 0.59954 0.75685 0.0
H438 H 0.68628 0.57639 0.66713 0.0
H439 H 0.6378 0.54725 0.76692 0.0
H440 H 0.63209 0.52465 0.71602 0.0
H441 H 0.65647 0.53918 0.66567 0.0
H442 H 0.69118 0.59857 0.7183 0.0
H443 H 0.68534 0.5375 0.83059 0.0
H444 H 0.66149 0.52802 0.88159 0.0
O445 O 0.6369 0.57952 0.78722 0.0
C446 C 0.66354 0.62226 0.8313 0.0
C447 C 0.65116 0.5502 0.86873 0.0
C448 C 0.6762 0.54531 0.8349 0.0
N449 N 0.66614 0.57066 0.81705 0.0
C450 C 0.65307 0.56561 0.84513 0.0
C451 C 0.67772 0.5608 0.81185 0.0
C452 C 0.66282 0.53999 0.86351 0.0
C453 C 0.69354 0.65981 0.72904 0.0
N454 N 0.67905 0.65533 0.75483 0.0
C455 C 0.71211 0.67955 0.72748 0.0
C456 C 0.71576 0.69477 0.7525 0.0
C457 C 0.70087 0.69012 0.77866 0.0
C458 C 0.68249 0.67021 0.77941 0.0
C459 C 0.62671 0.66642 0.73911 0.0
C460 C 0.62016 0.63373 0.78335 0.0
C461 C 0.63931 0.65696 0.73716 0.0
N462 N 0.63601 0.64091 0.75925 0.0
C463 C 0.60725 0.64282 0.78606 0.0
C464 C 0.6106 0.65928 0.76377 0.0
C465 C 0.62283 0.5825 0.77273 0.0
C466 C 0.67561 0.56985 0.68898 0.0
C467 C 0.64846 0.55373 0.74511 0.0
C468 C 0.64517 0.54082 0.71638 0.0
C469 C 0.65886 0.54898 0.68814 0.0
N470 N 0.66492 0.57421 0.74574 0.0
C471 C 0.6784 0.5823 0.71814 0.0
Co472 Co 0.0324 0.6503 0.25036 0.0
Co473 Co 0.08245 0.66402 0.2797 0.0
O474 O 0.06347 0.66772 0.24784 0.0
C475 C 0.04119 0.64626 0.17649 0.0
O476 O 0.05764 0.64468 0.18619 0.0
C477 C 0.09919 0.71104 0.28022 0.0
O478 O 0.07972 0.70774 0.28026 0.0
O479 O 0.06697 0.66619 0.32073 0.0
O480 O 0.03329 0.65043 0.302 0.0
H481 H 0.09928 0.6328 0.38266 0.0
H482 H 0.05168 0.68949 0.20814 0.0
O483 O 0.03015 0.64937 0.19873 0.0
H484 H 0.0086 0.69983 0.29611 0.0
H485 H 0.95751 0.62814 0.21486 0.0
H486 H 1.00237 0.61324 0.29241 0.0
H487 H 0.00996 0.66668 0.2944 0.0
H488 H 0.99652 0.65022 0.21264 0.0
O489 O 0.10249 0.69544 0.28071 0.0
H490 H 0.07589 0.63752 0.34183 0.0
H491 H 0.1295 0.68319 0.28533 0.0
H492 H 0.96341 0.59087 0.29571 0.0
H493 H 0.05059 0.72283 0.20862 0.0
H494 H 0.9407 0.59827 0.25672 0.0
H495 H 0.02898 0.72818 0.25293 0.0
O496 O 0.03391 0.62375 0.24925 0.0
H497 H 0.11941 0.68728 0.16475 0.0
H498 H 0.09702 0.63396 0.25794 0.0
H499 H 0.11586 0.63103 0.20711 0.0
H500 H 0.1273 0.65788 0.16014 0.0
H501 H 0.10015 0.68936 0.21569 0.0
H502 H 0.15348 0.67907 0.3257 0.0
H503 H 0.13839 0.65368 0.37471 0.0
O504 O 0.06358 0.63249 0.27921 0.0
C505 C 0.04708 0.65806 0.3261 0.0
C506 C 0.10605 0.64388 0.36135 0.0
C507 C 0.13647 0.66988 0.32941 0.0
N508 N 0.1013 0.66054 0.31113 0.0
C509 C 0.09288 0.64659 0.33811 0.0
C510 C 0.12281 0.67218 0.30669 0.0
C511 C 0.12799 0.65561 0.3569 0.0
C512 C 0.0421 0.69165 0.2273 0.0
N513 N 0.03089 0.67616 0.25118 0.0
C514 C 0.04161 0.71058 0.22753 0.0
C515 C 0.02951 0.71358 0.25243 0.0
C516 C 0.01809 0.6977 0.27669 0.0
C517 C 0.01899 0.67898 0.27569 0.0
C518 C 0.96723 0.62478 0.23203 0.0
C519 C 0.99259 0.61664 0.27552 0.0
C520 C 0.98933 0.63721 0.23086 0.0
N521 N 1.0017 0.63312 0.25257 0.0
C522 C 0.97054 0.60388 0.27743 0.0
C523 C 0.95781 0.60803 0.25553 0.0
C524 C 0.04649 0.61888 0.26432 0.0
C525 C 0.11453 0.67549 0.18507 0.0
C526 C 0.10174 0.64559 0.23747 0.0
C527 C 0.1125 0.6439 0.20881 0.0
C528 C 0.11893 0.65898 0.18248 0.0
N529 N 0.09751 0.66185 0.23986 0.0
C530 C 0.10371 0.67665 0.21407 0.0
Co531 Co 0.37634 0.02781 0.75074 0.0
Co532 Co 0.41441 0.07516 0.78457 0.0
O533 O 0.39246 0.05877 0.75023 0.0
C534 C 0.39208 0.03622 0.67856 0.0
O535 O 0.41125 0.04808 0.69116 0.0
C536 C 0.38781 0.09569 0.78312 0.0
O537 O 0.37099 0.07674 0.78605 0.0
O538 O 0.39397 0.06051 0.82299 0.0
O539 O 0.3761 0.0272 0.80272 0.0
H540 H 0.45714 0.08509 0.89228 0.0
H541 H 0.36029 0.05127 0.70977 0.0
O542 O 0.3761 0.02753 0.69877 0.0
H543 H 0.3038 0.00921 0.79429 0.0
H544 H 0.31977 0.95607 0.70885 0.0
H545 H 0.37887 0.99441 0.79087 0.0
H546 H 0.33658 0.00708 0.79281 0.0
H547 H 0.3399 0.9952 0.70964 0.0
O548 O 0.4063 0.0978 0.78295 0.0
H549 H 0.42918 0.06471 0.84934 0.0
H550 H 0.446 0.12115 0.79308 0.0
H551 H 0.35905 0.95528 0.79118 0.0
H552 H 0.32767 0.05374 0.71014 0.0
H553 H 0.32926 0.93585 0.74994 0.0
H554 H 0.29918 0.03265 0.7527 0.0
O555 O 0.40312 0.02673 0.75038 0.0
H556 H 0.43765 0.11247 0.66985 0.0
H557 H 0.45844 0.08431 0.76927 0.0
H558 H 0.48332 0.10074 0.72057 0.0
H559 H 0.47301 0.11505 0.67047 0.0
H560 H 0.4131 0.09559 0.71885 0.0
H561 H 0.47402 0.14218 0.83567 0.0
H562 H 0.47984 0.12411 0.88556 0.0
O563 O 0.42346 0.05328 0.7867 0.0
C564 C 0.38167 0.04062 0.82738 0.0
C565 C 0.4548 0.09314 0.87062 0.0
C566 C 0.46425 0.12518 0.83886 0.0
N567 N 0.43606 0.09171 0.81859 0.0
C568 C 0.43901 0.08168 0.84617 0.0
C569 C 0.44831 0.1132 0.8149 0.0
C570 C 0.46752 0.11504 0.86684 0.0
C571 C 0.34786 0.0419 0.72815 0.0
N572 N 0.35029 0.029 0.75115 0.0
C573 C 0.32947 0.04342 0.72833 0.0
C574 C 0.31351 0.03161 0.75225 0.0
C575 C 0.3161 0.01847 0.77562 0.0
C576 C 0.33472 0.01738 0.77472 0.0
C577 C 0.33269 0.96435 0.727 0.0
C578 C 0.36584 0.98606 0.77301 0.0
C579 C 0.34417 0.9865 0.72752 0.0
N580 N 0.36042 0.99706 0.75049 0.0
C581 C 0.35472 0.96391 0.77323 0.0
C582 C 0.33802 0.95302 0.75006 0.0
C583 C 0.41964 0.03698 0.769 0.0
C584 C 0.44236 0.10638 0.69161 0.0
C585 C 0.45379 0.09043 0.74753 0.0
C586 C 0.46798 0.09977 0.72006 0.0
C587 C 0.46218 0.10779 0.69195 0.0
N588 N 0.43437 0.0891 0.74701 0.0
C589 C 0.42856 0.09689 0.71951 0.0
Co590 Co 0.35912 0.38034 0.25731 0.0
Co591 Co 0.33859 0.41159 0.28558 0.0
O592 O 0.33845 0.39018 0.25426 0.0
C593 C 0.36232 0.39357 0.18387 0.0
O594 O 0.36119 0.41013 0.19426 0.0
C595 C 0.29214 0.37815 0.27647 0.0
O596 O 0.29719 0.36513 0.26149 0.0
O597 O 0.33926 0.39546 0.32709 0.0
O598 O 0.35826 0.38075 0.30887 0.0
H599 H 0.36445 0.46136 0.38705 0.0
H600 H 0.32152 0.35567 0.21253 0.0
O601 O 0.361 0.3798 0.20561 0.0
H602 H 0.31693 0.30569 0.30303 0.0
H603 H 0.39125 0.33578 0.22275 0.0
H604 H 0.39722 0.39225 0.30034 0.0
H605 H 0.34669 0.34252 0.30233 0.0
H606 H 0.36512 0.34791 0.21977 0.0
O607 O 0.30655 0.3961 0.28775 0.0
H608 H 0.36405 0.43482 0.34696 0.0
H609 H 0.31305 0.43332 0.29089 0.0
H610 H 0.4236 0.38049 0.30438 0.0
H611 H 0.29165 0.31882 0.21187 0.0
H612 H 0.4207 0.35206 0.26539 0.0
H613 H 0.28917 0.29358 0.25748 0.0
O614 O 0.38312 0.40993 0.25704 0.0
H615 H 0.31297 0.41977 0.16852 0.0
H616 H 0.36257 0.45706 0.26428 0.0
H617 H 0.36253 0.4773 0.21315 0.0
H618 H 0.3375 0.45867 0.16486 0.0
H619 H 0.31384 0.40011 0.21974 0.0
H620 H 0.31277 0.45967 0.33054 0.0
H621 H 0.33867 0.47395 0.37897 0.0
O622 O 0.37046 0.4284 0.28455 0.0
C623 C 0.34938 0.3856 0.33276 0.0
C624 C 0.35313 0.4553 0.36599 0.0
C625 C 0.32411 0.45433 0.33431 0.0
N626 N 0.33865 0.43262 0.31648 0.0
C627 C 0.35287 0.44032 0.34316 0.0
C628 C 0.32431 0.43936 0.312 0.0
C629 C 0.33865 0.46234 0.36146 0.0
C630 C 0.32065 0.34472 0.23225 0.0
N631 N 0.33578 0.35128 0.25749 0.0
C632 C 0.30365 0.3239 0.23184 0.0
C633 C 0.30225 0.30976 0.25747 0.0
C634 C 0.3178 0.31655 0.28306 0.0
C635 C 0.33456 0.33748 0.28265 0.0
C636 C 0.39265 0.34815 0.23995 0.0
C637 C 0.39577 0.37977 0.28345 0.0
C638 C 0.37791 0.3551 0.23835 0.0
N639 N 0.37953 0.37063 0.26009 0.0
C640 C 0.41079 0.37322 0.28578 0.0
C641 C 0.40917 0.35728 0.26388 0.0
C642 C 0.38564 0.42686 0.27101 0.0
C643 C 0.32386 0.4281 0.18949 0.0
C644 C 0.35171 0.44879 0.24334 0.0
C645 C 0.35171 0.46036 0.21448 0.0
C646 C 0.33766 0.44991 0.18741 0.0
N647 N 0.33804 0.4274 0.24534 0.0
C648 C 0.32431 0.41705 0.21877 0.0
Co649 Co 0.97491 0.35161 0.75669 0.0
Co650 Co 0.92565 0.33895 0.78714 0.0
O651 O 0.94392 0.33477 0.7547 0.0
C652 C 0.96687 0.35711 0.68311 0.0
O653 O 0.95326 0.36269 0.69398 0.0
C654 C 0.90731 0.29172 0.78652 0.0
O655 O 0.92649 0.29439 0.78911 0.0
O656 O 0.94074 0.33524 0.82741 0.0
O657 O 0.97445 0.35219 0.80859 0.0
H658 H 0.9103 0.3694 0.89251 0.0
H659 H 0.95466 0.31173 0.71624 0.0
O660 O 0.97635 0.35151 0.70479 0.0
H661 H 0.99788 0.3019 0.80476 0.0
H662 H 0.04902 0.37231 0.71878 0.0
H663 H 0.00587 0.38888 0.79732 0.0
H664 H 0.9972 0.33538 0.8014 0.0
H665 H 0.00994 0.3506 0.71823 0.0
O666 O 0.90462 0.30772 0.78633 0.0
H667 H 0.93308 0.36446 0.85075 0.0
H668 H 0.87884 0.32127 0.79294 0.0
H669 H 0.04491 0.41084 0.79903 0.0
H670 H 0.95507 0.27806 0.71841 0.0
H671 H 0.06675 0.40262 0.75951 0.0
H672 H 0.97675 0.27296 0.763 0.0
O673 O 0.97385 0.37837 0.75489 0.0
H674 H 0.89035 0.32065 0.67051 0.0
H675 H 0.91256 0.37062 0.76844 0.0
H676 H 0.8952 0.3762 0.71795 0.0
H677 H 0.88391 0.35107 0.66853 0.0
H678 H 0.90799 0.31579 0.72137 0.0
H679 H 0.85546 0.32561 0.83425 0.0
H680 H 0.87118 0.34989 0.8844 0.0
O681 O 0.94558 0.37039 0.78817 0.0
C682 C 0.96071 0.34395 0.83277 0.0
C683 C 0.90326 0.35882 0.87072 0.0
C684 C 0.87248 0.33422 0.83805 0.0
N685 N 0.90732 0.34267 0.81934 0.0
C686 C 0.91608 0.35599 0.84695 0.0
C687 C 0.8858 0.33177 0.8148 0.0
C688 C 0.88131 0.34785 0.86617 0.0
C689 C 0.96428 0.30969 0.7355 0.0
N690 N 0.97592 0.32551 0.75859 0.0
C691 C 0.96439 0.29057 0.73669 0.0
C692 C 0.97653 0.28771 0.76175 0.0
C693 C 0.98838 0.30393 0.78521 0.0
C694 C 0.98787 0.32283 0.78325 0.0
C695 C 0.03967 0.37602 0.73619 0.0
C696 C 0.01527 0.38509 0.78026 0.0
C697 C 0.01754 0.36381 0.73596 0.0
N698 N 0.00565 0.36837 0.75793 0.0
C699 C 0.03737 0.39763 0.78126 0.0
C700 C 0.04962 0.39302 0.75905 0.0
C701 C 0.9621 0.38368 0.77154 0.0
C702 C 0.89515 0.33167 0.69192 0.0
C703 C 0.90779 0.35966 0.747 0.0
C704 C 0.8979 0.36287 0.71851 0.0
C705 C 0.89156 0.34876 0.6908 0.0
N706 N 0.91124 0.34285 0.74793 0.0
C707 C 0.90507 0.32896 0.72085 0.0
H708 H 0.06773 0.39434 0.11874 0.0
H709 H 0.05319 0.38607 0.05989 0.0
H710 H 0.98982 0.35097 0.10154 0.0
H711 H 0.00403 0.35916 0.16009 0.0
H712 H 0.02844 0.34855 0.02474 0.0
H713 H 0.95653 0.35975 0.05111 0.0
H714 H 0.94635 0.37985 0.09041 0.0
H715 H 0.01181 0.42793 0.10142 0.0
H716 H 0.02235 0.40827 0.06182 0.0
H717 H 0.93783 0.33072 0.89361 0.0
H718 H 0.95176 0.33531 0.95272 0.0
H719 H 0.01567 0.36661 0.91269 0.0
H720 H 1.00203 0.3617 0.85395 0.0
H721 H 0.97638 0.37012 0.98921 0.0
H722 H 0.04818 0.35802 0.96382 0.0
H723 H 0.05809 0.33763 0.9247 0.0
H724 H 0.99236 0.29076 0.9118 0.0
H725 H 0.98207 0.31068 0.95124 0.0
C726 C 0.05071 0.38471 0.11542 0.0
C727 C 0.03711 0.37754 0.14434 0.0
C728 C 0.04242 0.37999 0.08172 0.0
C729 C 0.02038 0.36815 0.07625 0.0
C730 C 0.00685 0.36042 0.10504 0.0
C731 C 0.01507 0.36509 0.13862 0.0
C732 C 0.0114 0.36422 0.04057 0.0
C733 C 0.01727 0.35351 0.0168 0.0
C734 C 0.99639 0.3702 0.03045 0.0
C735 C 0.99022 0.3824 0.05377 0.0
C736 C 0.96874 0.37465 0.0618 0.0
C737 C 0.96291 0.38596 0.08415 0.0
C738 C 0.97843 0.40511 0.0985 0.0
C739 C 0.99981 0.41305 0.0904 0.0
C740 C 0.00572 0.40182 0.06803 0.0
C741 C 0.95484 0.33835 0.89736 0.0
C742 C 0.96874 0.34568 0.86882 0.0
C743 C 0.96279 0.34107 0.93122 0.0
C744 C 0.98478 0.35109 0.93727 0.0
C745 C 0.99864 0.35845 0.90882 0.0
C746 C 0.99075 0.35568 0.8751 0.0
C747 C 0.99339 0.35441 0.97324 0.0
C748 C 0.98748 0.36507 0.9971 0.0
C749 C 0.00832 0.34833 0.98345 0.0
C750 C 0.01436 0.33598 0.96025 0.0
C751 C 0.03585 0.34331 0.95278 0.0
C752 C 0.04153 0.33184 0.93052 0.0
C753 C 0.02586 0.31295 0.91568 0.0
C754 C 0.00448 0.30543 0.92321 0.0
C755 C 0.99871 0.31682 0.94549 0.0
H756 H 0.03029 0.30412 0.89841 0.0
H757 H 0.97386 0.41379 0.11584 0.0
H758 H 0.6091 0.93749 0.3947 0.0
H759 H 0.61755 0.95103 0.45406 0.0
H760 H 0.65235 0.01508 0.41503 0.0
H761 H 0.64441 1.00184 0.35603 0.0
H762 H 0.67292 0.0105 0.46832 0.0
H763 H 0.60131 0.99378 0.44396 0.0
H764 H 0.56425 0.97036 0.42559 0.0
H765 H 0.55484 0.92795 0.50978 0.0
H766 H 0.59198 0.95097 0.52834 0.0
H767 H 0.67217 0.06696 0.61967 0.0
H768 H 0.66725 0.05224 0.56112 0.0
H769 H 0.63444 0.98886 0.60322 0.0
H770 H 0.63912 0.00324 0.66139 0.0
H771 H 0.61316 0.99245 0.54894 0.0
H772 H 0.68483 0.01014 0.57424 0.0
H773 H 0.72203 0.03362 0.59179 0.0
H774 H 0.73132 0.07465 0.50552 0.0
H775 H 0.69405 0.05156 0.48773 0.0
C776 C 0.61876 0.95444 0.39873 0.0
C777 C 0.62595 0.96853 0.37045 0.0
C778 C 0.62349 0.96217 0.43271 0.0
C779 C 0.63536 0.98412 0.43905 0.0
C780 C 0.64317 0.99811 0.41086 0.0
C781 C 0.63851 0.99044 0.37702 0.0
C782 C 0.63897 0.99274 0.47488 0.0
C783 C 0.65984 0.0067 0.48584 0.0
C784 C 0.62194 0.98759 0.49796 0.0
C785 C 0.59948 0.97398 0.48733 0.0
C786 C 0.59137 0.9794 0.45844 0.0
C787 C 0.57035 0.9662 0.448 0.0
C788 C 0.55722 0.94765 0.46645 0.0
C789 C 0.56505 0.94231 0.49548 0.0
C790 C 0.58608 0.95543 0.50599 0.0
C791 C 0.66404 0.0499 0.61649 0.0
C792 C 0.65611 0.03635 0.6454 0.0
C793 C 0.66126 0.0415 0.583 0.0
C794 C 0.65054 0.01942 0.57778 0.0
C795 C 0.6427 0.00592 0.60656 0.0
C796 C 0.64551 0.01425 0.63991 0.0
C797 C 0.64713 0.01023 0.54239 0.0
C798 C 0.62626 0.99619 0.53148 0.0
C799 C 0.66415 0.01538 0.51933 0.0
C800 C 0.68659 0.02923 0.52986 0.0
C801 C 0.69475 0.02426 0.55917 0.0
C802 C 0.71586 0.03748 0.56914 0.0
C803 C 0.72901 0.05565 0.54984 0.0
C804 C 0.7211 0.06059 0.52047 0.0
C805 C 0.69999 0.04743 0.51042 0.0
H806 H 0.74535 0.06587 0.55759 0.0
H807 H 0.54096 0.93743 0.45829 0.0
H808 H 0.61717 0.68056 0.11923 0.0
H809 H 0.62667 0.67617 0.06028 0.0
H810 H 0.65359 0.63922 0.09942 0.0
H811 H 0.64478 0.644 0.1582 0.0
H812 H 0.67773 0.66425 0.04923 0.0
H813 H 0.60302 0.61592 0.06486 0.0
H814 H 0.56639 0.60649 0.07999 0.0
H815 H 0.5662 0.64629 0.99802 0.0
H816 H 0.60298 0.65626 0.98279 0.0
H817 H 0.67492 0.61054 0.892 0.0
H818 H 0.67016 0.6195 0.95121 0.0
H819 H 0.64466 0.65754 0.91133 0.0
H820 H 0.64901 0.64852 0.85253 0.0
H821 H 0.62018 0.63246 0.96179 0.0
H822 H 0.69497 0.68021 0.94565 0.0
H823 H 0.73178 0.68985 0.93153 0.0
H824 H 0.73168 0.65057 0.01464 0.0
H825 H 0.69475 0.64047 0.02897 0.0
C826 C 0.62531 0.6717 0.11535 0.0
C827 C 0.63004 0.66252 0.14357 0.0
C828 C 0.63065 0.6691 0.08158 0.0
C829 C 0.64054 0.65705 0.0753 0.0
C830 C 0.64594 0.64854 0.10352 0.0
C831 C 0.64077 0.65124 0.13722 0.0
C832 C 0.64453 0.65248 0.03939 0.0
C833 C 0.6651 0.65711 0.03021 0.0
C834 C 0.62814 0.64341 0.01436 0.0
C835 C 0.60582 0.63699 0.02289 0.0
C836 C 0.5952 0.62274 0.05017 0.0
C837 C 0.57442 0.61731 0.05878 0.0
C838 C 0.56399 0.62582 0.04003 0.0
C839 C 0.5743 0.63973 0.01255 0.0
C840 C 0.59512 0.64528 1.00391 0.0
C841 C 0.66852 0.621 0.89582 0.0
C842 C 0.66243 0.62882 0.86734 0.0
C843 C 0.66582 0.62613 0.92971 0.0
C844 C 0.65712 0.63929 0.93576 0.0
C845 C 0.65133 0.64732 0.90738 0.0
C846 C 0.65396 0.64219 0.87365 0.0
C847 C 0.65342 0.6443 0.97155 0.0
C848 C 0.63285 0.63967 0.98075 0.0
C849 C 0.66979 0.65327 0.9966 0.0
C850 C 0.69203 0.65943 0.98816 0.0
C851 C 0.70274 0.67351 0.96075 0.0
C852 C 0.72364 0.67908 0.95273 0.0
C853 C 0.73404 0.67079 0.97211 0.0
C854 C 0.72359 0.65696 0.99962 0.0
C855 C 0.70269 0.65132 0.00772 0.0
H856 H 0.75022 0.67511 0.96587 0.0
H857 H 0.54791 0.62162 0.04677 0.0
H858 H 0.06945 0.66684 0.38724 0.0
H859 H 0.05518 0.66101 0.44621 0.0
H860 H 0.99237 0.63886 0.40536 0.0
H861 H 0.00635 0.64471 0.34673 0.0
H862 H 0.9994 0.66398 0.46038 0.0
H863 H 0.00674 0.60395 0.43243 0.0
H864 H 0.02567 0.58571 0.41264 0.0
H865 H 0.06928 0.61231 0.49756 0.0
H866 H 0.05077 0.63099 0.51758 0.0
H867 H 0.94035 0.60961 0.61272 0.0
H868 H 0.95447 0.61745 0.55351 0.0
H869 H 0.01806 0.64343 0.5933 0.0
H870 H 0.00431 0.63588 0.6521 0.0
H871 H 0.01019 0.61608 0.53863 0.0
H872 H 1.00167 0.676 0.56612 0.0
H873 H 0.98173 0.69341 0.58487 0.0
H874 H 0.93873 0.66537 0.49954 0.0
H875 H 0.95826 0.64752 0.48057 0.0
C876 C 0.05265 0.66095 0.3908 0.0
C877 C 0.0391 0.65624 0.36209 0.0
C878 C 0.04449 0.65752 0.42453 0.0
C879 C 0.02265 0.64928 0.4302 0.0
C880 C 0.00925 0.64522 0.40167 0.0
C881 C 0.01734 0.64857 0.36805 0.0
C882 C 0.01353 0.64423 0.46572 0.0
C883 C 1.00158 0.65333 0.47735 0.0
C884 C 0.01648 0.63046 0.488 0.0
C885 C 0.0275 0.61905 0.4763 0.0
C886 C 0.02046 0.60604 0.44675 0.0
C887 C 0.0311 0.5956 0.43551 0.0
C888 C 0.0487 0.5979 0.45377 0.0
C889 C 0.05566 0.61058 0.4834 0.0
C890 C 0.04509 0.62108 0.49473 0.0
C891 C 0.95734 0.61709 0.60888 0.0
C892 C 0.97113 0.62215 0.63734 0.0
C893 C 0.96539 0.62156 0.57503 0.0
C894 C 0.98734 0.63107 0.56901 0.0
C895 C 1.00108 0.63604 0.5973 0.0
C896 C 0.99312 0.63176 0.63101 0.0
C897 C 0.99618 0.63593 0.53333 0.0
C898 C 0.00804 0.62674 0.52165 0.0
C899 C 0.99297 0.64945 0.51089 0.0
C900 C 0.98129 0.66025 0.52215 0.0
C901 C 0.98786 0.6734 0.55152 0.0
C902 C 0.97665 0.68338 0.56216 0.0
C903 C 0.95894 0.68045 0.54346 0.0
C904 C 0.95243 0.66759 0.51403 0.0
C905 C 0.96357 0.65756 0.50331 0.0
H906 H 0.95028 0.68819 0.55173 0.0
H907 H 0.05693 0.58982 0.44502 0.0
H908 H 0.38973 0.06312 0.88805 0.0
H909 H 0.38105 0.04896 0.94692 0.0
H910 H 0.35012 0.9852 0.9066 0.0
H911 H 0.35807 0.99913 0.84779 0.0
H912 H 0.3283 0.98688 0.95943 0.0
H913 H 0.40162 0.01006 0.93779 0.0
H914 H 0.43837 0.0357 0.92054 0.0
H915 H 0.44342 0.07655 0.00451 0.0
H916 H 0.40654 0.05134 0.02186 0.0
H917 H 0.33352 0.9354 0.11513 0.0
H918 H 0.33768 0.94896 0.05582 0.0
H919 H 0.36372 0.01259 0.09507 0.0
H920 H 0.35967 0.99936 0.15406 0.0
H921 H 0.3878 0.01059 0.04279 0.0
H922 H 0.31393 0.98651 0.06411 0.0
H923 H 0.27718 0.96038 0.08048 0.0
H924 H 0.27361 0.92009 0.99659 0.0
H925 H 0.31048 0.94587 0.98 0.0
C926 C 0.38085 0.04609 0.89164 0.0
C927 C 0.37479 0.03231 0.86305 0.0
C928 C 0.376 0.038 0.92538 0.0
C929 C 0.36529 0.01598 0.9313 0.0
C930 C 0.35846 1.00222 0.90278 0.0
C931 C 0.36312 0.01027 0.86908 0.0
C932 C 0.36193 0.00723 0.9671 0.0
C933 C 0.34136 0.99191 0.97751 0.0
C934 C 0.37891 0.0139 0.99093 0.0
C935 C 0.40124 0.0289 0.98094 0.0
C936 C 0.41052 0.02457 0.95246 0.0
C937 C 0.43137 0.03902 0.94266 0.0
C938 C 0.44321 0.05775 0.96139 0.0
C939 C 0.43422 0.06205 0.99 0.0
C940 C 0.41334 0.04768 0.99984 0.0
C941 C 0.33996 0.95225 0.11118 0.0
C942 C 0.34622 0.96623 0.13954 0.0
C943 C 0.34232 0.95998 0.07723 0.0
C944 C 0.35098 0.98181 0.07099 0.0
C945 C 0.35707 0.99572 0.09922 0.0
C946 C 0.35464 0.98805 0.13303 0.0
C947 C 0.35416 0.99036 0.03513 0.0
C948 C 0.37474 0.00559 0.02469 0.0
C949 C 0.33724 0.98347 0.01122 0.0
C950 C 0.31504 0.96802 0.02103 0.0
C951 C 0.30537 0.972 0.04932 0.0
C952 C 0.28451 0.95727 0.05861 0.0
C953 C 0.27308 0.93856 0.03965 0.0
C954 C 0.28249 0.93458 0.01128 0.0
C955 C 0.30336 0.94925 1.00191 0.0
H956 H 0.25693 0.92717 0.04688 0.0
H957 H 0.45935 0.06892 0.95378 0.0
H958 H 0.37348 0.36874 0.35487 0.0
H959 H 0.37843 0.36001 0.41345 0.0
H960 H 0.33557 0.38006 0.45171 0.0
H961 H 0.33098 0.38962 0.39267 0.0
H962 H 0.3691 0.39427 0.49263 0.0
H963 H 0.32077 0.32659 0.4439 0.0
H964 H 0.30782 0.29815 0.40021 0.0
H965 H 0.36257 0.29152 0.41695 0.0
H966 H 0.37604 0.32017 0.46035 0.0
H967 H 0.3592 0.35183 0.65869 0.0
H968 H 0.35052 0.35638 0.5998 0.0
H969 H 0.3968 0.34116 0.56066 0.0
H970 H 0.40534 0.33598 0.62009 0.0
H971 H 0.36059 0.32384 0.52061 0.0
H972 H 0.40912 0.39235 0.5684 0.0
H973 H 0.42141 0.42027 0.61294 0.0
H974 H 0.36527 0.42477 0.59838 0.0
H975 H 0.35248 0.39663 0.55411 0.0
C976 C 0.36496 0.37127 0.37556 0.0
C977 C 0.35167 0.3798 0.36882 0.0
C978 C 0.36776 0.36612 0.40919 0.0
C979 C 0.35707 0.36895 0.43705 0.0
C980 C 0.34391 0.37761 0.43061 0.0
C981 C 0.34123 0.383 0.39682 0.0
C982 C 0.36011 0.36324 0.47284 0.0
C983 C 0.36688 0.37874 0.49882 0.0
C984 C 0.35773 0.34314 0.48089 0.0
C985 C 0.34949 0.32565 0.4552 0.0
C986 C 0.33012 0.31916 0.43812 0.0
C987 C 0.32268 0.30299 0.41341 0.0
C988 C 0.33439 0.29306 0.40576 0.0
C989 C 0.35353 0.29924 0.42288 0.0
C990 C 0.36106 0.31542 0.44757 0.0
C991 C 0.3674 0.34911 0.63772 0.0
C992 C 0.38311 0.34362 0.64433 0.0
C993 C 0.36245 0.35185 0.60393 0.0
C994 C 0.3733 0.34956 0.5758 0.0
C995 C 0.3883 0.34313 0.58202 0.0
C996 C 0.39317 0.34018 0.61601 0.0
C997 C 0.36956 0.35486 0.54022 0.0
C998 C 0.36271 0.33931 0.51434 0.0
C999 C 0.37179 0.37489 0.53226 0.0
C1000 C 0.37976 0.39227 0.55813 0.0
C1001 C 0.39935 0.39923 0.5748 0.0
C1002 C 0.40641 0.41509 0.6 0.0
C1003 C 0.39411 0.42425 0.60854 0.0
C1004 C 0.37477 0.41764 0.59177 0.0
C1005 C 0.36762 0.40176 0.56659 0.0
H1006 H 0.39957 0.4365 0.62812 0.0
H1007 H 0.32861 0.28057 0.3866 0.0
H1008 H 0.00789 0.64082 0.8484 0.0
H1009 H 0.01983 0.64597 0.90854 0.0
H1010 H 0.95676 0.59958 0.94158 0.0
H1011 H 0.94468 0.59388 0.88105 0.0
H1012 H 0.98023 0.64247 0.97949 0.0
H1013 H 0.98657 0.58217 0.94244 0.0
H1014 H 0.99864 0.56392 0.9026 0.0
H1015 H 0.06344 0.61239 0.91901 0.0
H1016 H 0.05171 0.63111 0.95855 0.0
H1017 H 1.00105 0.63061 0.15267 0.0
H1018 H 0.98888 0.62481 0.0929 0.0
H1019 H 0.05335 0.64944 0.05769 0.0
H1020 H 0.06545 0.65409 0.11807 0.0
H1021 H 0.02942 0.61816 0.01941 0.0
H1022 H 0.02577 0.67885 0.05499 0.0
H1023 H 0.01617 0.70024 0.09223 0.0
H1024 H 0.95 0.65602 0.07581 0.0
H1025 H 0.95921 0.63419 0.03884 0.0
C1026 C 0.99648 0.63177 0.86841 0.0
C1027 C 0.97531 0.61693 0.85999 0.0
C1028 C 1.00338 0.6347 0.90273 0.0
C1029 C 0.98919 0.62311 0.92935 0.0
C1030 C 0.96792 0.60864 0.92126 0.0
C1031 C 0.96107 0.60538 0.88676 0.0
C1032 C 0.99679 0.62603 0.96555 0.0
C1033 C 0.99071 0.6369 0.98853 0.0
C1034 C 0.01117 0.61953 0.97663 0.0
C1035 C 0.01824 0.60815 0.95317 0.0
C1036 C 1.00338 0.58904 0.93731 0.0
C1037 C 0.01016 0.57859 0.91483 0.0
C1038 C 0.03179 0.58702 0.9082 0.0
C1039 C 0.04669 0.60589 0.92413 0.0
C1040 C 0.03998 0.61642 0.9466 0.0
C1041 C 0.01267 0.63485 0.13219 0.0
C1042 C 0.03425 0.64301 0.13997 0.0
C1043 C 0.0057 0.63164 0.09794 0.0
C1044 C 0.02022 0.63722 0.07054 0.0
C1045 C 0.04181 0.64511 0.07829 0.0
C1046 C 0.04874 0.64783 0.11275 0.0
C1047 C 0.01273 0.63451 0.03399 0.0
C1048 C 0.0189 0.62377 0.01071 0.0
C1049 C 0.9988 0.6416 0.02238 0.0
C1050 C 0.99319 0.65478 0.04438 0.0
C1051 C 0.00917 0.67361 0.05949 0.0
C1052 C 1.0038 0.68583 0.08054 0.0
C1053 C 0.98249 0.67947 0.08645 0.0
C1054 C 0.96651 0.66092 0.07124 0.0
C1055 C 0.97179 0.64863 0.05021 0.0
H1056 H 0.97836 0.68894 0.10276 0.0
H1057 H 0.03701 0.57891 0.89079 0.0
H1058 H 0.38679 0.96571 0.37155 0.0
H1059 H 0.39193 0.97776 0.43153 0.0
H1060 H 0.34034 0.99069 0.42158 0.0
H1061 H 0.336 0.97977 0.36088 0.0
H1062 H 0.36957 0.02123 0.45408 0.0
H1063 H 0.33702 0.94644 0.46869 0.0
H1064 H 0.33168 0.91052 0.46031 0.0
H1065 H 0.39301 0.93033 0.50427 0.0
H1066 H 0.39886 0.96647 0.51247 0.0
H1067 H 0.35596 0.02263 0.64041 0.0
H1068 H 0.35026 0.01128 0.57969 0.0
H1069 H 0.41519 0.02546 0.57238 0.0
H1070 H 0.42123 0.03743 0.63276 0.0
H1071 H 0.37843 0.98102 0.55015 0.0
H1072 H 0.40922 0.0571 0.53389 0.0
H1073 H 0.41107 0.09139 0.54436 0.0
H1074 H 0.34753 0.066 0.50593 0.0
H1075 H 0.3452 0.03144 0.49574 0.0
C1076 C 0.37641 0.97092 0.38227 0.0
C1077 C 0.36093 0.97171 0.36159 0.0
C1078 C 0.37929 0.97773 0.41668 0.0
C1079 C 0.36631 0.98485 0.4315 0.0
C1080 C 0.3506 0.98532 0.4109 0.0
C1081 C 0.34805 0.97897 0.37624 0.0
C1082 C 0.3696 0.99251 0.468 0.0
C1083 C 0.37119 0.01221 0.47504 0.0
C1084 C 0.37194 0.98097 0.49562 0.0
C1085 C 0.36845 0.95922 0.4909 0.0
C1086 C 0.34943 0.94318 0.47635 0.0
C1087 C 0.3463 0.92277 0.47167 0.0
C1088 C 0.36202 0.91816 0.48168 0.0
C1089 C 0.38087 0.93393 0.49649 0.0
C1090 C 0.38409 0.95438 0.5012 0.0
C1091 C 0.36909 0.02356 0.62573 0.0
C1092 C 0.38906 0.03098 0.64127 0.0
C1093 C 0.36579 0.01706 0.59113 0.0
C1094 C 0.3823 0.0175 0.57174 0.0
C1095 C 0.40228 0.02502 0.58704 0.0
C1096 C 0.40572 0.03196 0.62142 0.0
C1097 C 0.3785 0.00959 0.53569 0.0
C1098 C 0.37676 0.98987 0.52894 0.0
C1099 C 0.3755 0.02082 0.50854 0.0
C1100 C 0.37695 0.04162 0.51443 0.0
C1101 C 0.39557 0.05877 0.52801 0.0
C1102 C 0.39672 0.07827 0.53381 0.0
C1103 C 0.37941 0.08086 0.52591 0.0
C1104 C 0.36092 0.06397 0.51209 0.0
C1105 C 0.35968 0.04442 0.50627 0.0
H1106 H 0.38033 0.09597 0.53042 0.0
H1107 H 0.35957 0.90235 0.47802 0.0
H1108 H 0.42067 0.36116 0.88473 0.0
H1109 H 0.41503 0.36727 0.94536 0.0
H1110 H 0.36411 0.37777 0.9141 0.0
H1111 H 0.36928 0.37125 0.85381 0.0
H1112 H 0.39551 0.40915 0.96216 0.0
H1113 H 0.3494 0.33367 0.9466 0.0
H1114 H 0.34146 0.29771 0.9302 0.0
H1115 H 0.38597 0.30038 0.00593 0.0
H1116 H 0.39442 0.33652 0.02241 0.0
H1117 H 0.35067 0.40752 0.1266 0.0
H1118 H 0.35697 0.40272 0.06586 0.0
H1119 H 0.39087 0.37097 0.09807 0.0
H1120 H 0.38332 0.37448 0.1584 0.0
H1121 H 0.36853 0.35069 0.0481 0.0
H1122 H 0.41545 0.42578 0.0645 0.0
H1123 H 0.42534 0.46251 0.07974 0.0
H1124 H 0.38222 0.4618 1.00324 0.0
H1125 H 0.37197 0.42506 0.98757 0.0
C1126 C 0.40829 0.36477 0.89082 0.0
C1127 C 0.39534 0.3656 0.86456 0.0
C1128 C 0.40509 0.36824 0.9254 0.0
C1129 C 0.38915 0.37296 0.9341 0.0
C1130 C 0.3765 0.37418 0.90786 0.0
C1131 C 0.37941 0.37032 0.87347 0.0
C1132 C 0.38533 0.37623 0.97065 0.0
C1133 C 0.38946 0.39639 0.98102 0.0
C1134 C 0.37787 0.35964 0.9952 0.0
C1135 C 0.37272 0.33789 0.98545 0.0
C1136 C 0.35765 0.32667 0.95952 0.0
C1137 C 0.35302 0.30624 0.95026 0.0
C1138 C 0.36325 0.29679 0.96694 0.0
C1139 C 0.37809 0.30774 0.99299 0.0
C1140 C 0.38279 0.32819 1.00231 0.0
C1141 C 0.35947 0.39953 0.12057 0.0
C1142 C 0.36645 0.39132 0.14713 0.0
C1143 C 0.36325 0.39694 0.08584 0.0
C1144 C 0.37478 0.3868 0.07711 0.0
C1145 C 0.38189 0.37879 0.10387 0.0
C1146 C 0.37759 0.38083 0.13842 0.0
C1147 C 0.37896 0.38386 0.04027 0.0
C1148 C 0.37477 0.36365 0.02961 0.0
C1149 C 0.38669 0.40053 0.01558 0.0
C1150 C 0.3928 0.4226 0.0251 0.0
C1151 C 0.40797 0.4334 0.05109 0.0
C1152 C 0.41366 0.45422 0.05978 0.0
C1153 C 0.40435 0.46443 0.04261 0.0
C1154 C 0.38939 0.45387 0.01657 0.0
C1155 C 0.38367 0.43307 0.00772 0.0
H1156 H 0.40878 0.48054 0.04941 0.0
H1157 H 0.35965 0.28097 0.95974 0.0
H1158 H 0.99185 0.34393 0.65137 0.0
H1159 H 0.00408 0.3498 0.59142 0.0
H1160 H 0.96824 0.38121 0.57087 0.0
H1161 H 0.9555 0.37494 0.63074 0.0
H1162 H 0.96531 0.35715 0.51757 0.0
H1163 H 0.02211 0.40957 0.58614 0.0
H1164 H 0.04769 0.42238 0.63445 0.0
H1165 H 0.07593 0.38694 0.59565 0.0
H1166 H 0.05029 0.37366 0.54738 0.0
H1167 H 0.05395 0.42167 0.3819 0.0
H1168 H 0.04149 0.416 0.44196 0.0
H1169 H 1.00226 0.349 0.42216 0.0
H1170 H 0.01427 0.35455 0.36214 0.0
H1171 H 0.04291 0.39359 0.49561 0.0
H1172 H 0.95597 0.32966 0.46557 0.0
H1173 H 0.93045 0.31922 0.41731 0.0
H1174 H 0.96281 0.3832 0.37904 0.0
H1175 H 0.98831 0.39408 0.42733 0.0
C1176 C 0.98641 0.35195 0.63407 0.0
C1177 C 0.97281 0.35912 0.64598 0.0
C1178 C 0.99352 0.35539 0.59979 0.0
C1179 C 0.98744 0.36633 0.57674 0.0
C1180 C 0.97324 0.37282 0.58819 0.0
C1181 C 0.96598 0.36924 0.62246 0.0
C1182 C 0.9963 0.37143 0.54101 0.0
C1183 C 0.98227 0.3651 0.51281 0.0
C1184 C 0.01847 0.38221 0.53467 0.0
C1185 C 0.03417 0.39049 0.5633 0.0
C1186 C 0.0337 0.40442 0.58801 0.0
C1187 C 0.04821 0.41177 0.61539 0.0
C1188 C 0.0634 0.40544 0.61816 0.0
C1189 C 0.06415 0.39181 0.59349 0.0
C1190 C 0.04964 0.38439 0.5661 0.0
C1191 C 0.04279 0.40571 0.3904 0.0
C1192 C 0.03496 0.38861 0.36708 0.0
C1193 C 0.0357 0.40248 0.42477 0.0
C1194 C 0.02065 0.38213 0.43646 0.0
C1195 C 0.01353 0.36492 0.4136 0.0
C1196 C 0.02051 0.36813 0.37927 0.0
C1197 C 0.0119 0.3789 0.4722 0.0
C1198 C 0.02595 0.38562 0.50039 0.0
C1199 C 0.98977 0.36888 0.47854 0.0
C1200 C 0.97416 0.36262 0.44991 0.0
C1201 C 0.95756 0.34152 0.44697 0.0
C1202 C 0.94311 0.33552 0.41958 0.0
C1203 C 0.94505 0.35052 0.39506 0.0
C1204 C 0.96137 0.37158 0.39798 0.0
C1205 C 0.97583 0.37767 0.42534 0.0
H1206 H 0.93388 0.34584 0.37383 0.0
H1207 H 0.0746 0.41112 0.6394 0.0
H1208 H 0.64221 0.06072 0.88666 0.0
H1209 H 0.63787 0.04979 0.94754 0.0
H1210 H 0.6422 0.99475 0.91931 0.0
H1211 H 0.64719 0.00585 0.85898 0.0
H1212 H 0.60853 0.01658 0.98027 0.0
H1213 H 0.66408 0.98064 0.98248 0.0
H1214 H 0.69699 0.9864 0.95438 0.0
H1215 H 0.71577 0.05164 0.93587 0.0
H1216 H 0.68312 0.04635 0.96427 0.0
H1217 H 0.5862 0.95215 0.12989 0.0
H1218 H 0.59285 0.96487 0.06995 0.0
H1219 H 0.65618 0.01351 0.09788 0.0
H1220 H 0.64989 1.00065 0.15733 0.0
H1221 H 0.65744 0.99743 0.03854 0.0
H1222 H 0.6155 0.02447 0.08783 0.0
H1223 H 0.58481 0.02253 0.11835 0.0
H1224 H 0.54314 0.98241 0.03832 0.0
H1225 H 0.57356 0.98387 0.00755 0.0
C1226 C 0.64242 0.0464 0.89351 0.0
C1227 C 0.64521 0.03426 0.86798 0.0
C1228 C 0.63985 0.04011 0.92829 0.0
C1229 C 0.63995 0.02157 0.93813 0.0
C1230 C 0.64253 0.00936 0.91257 0.0
C1231 C 0.64533 0.01573 0.87797 0.0
C1232 C 0.63703 0.0147 0.97497 0.0
C1233 C 0.61925 0.01243 0.99301 0.0
C1234 C 0.65119 0.0096 0.9919 0.0
C1235 C 0.67104 0.01303 0.97523 0.0
C1236 C 0.67528 0.99624 0.97256 0.0
C1237 C 0.69388 0.99941 0.95655 0.0
C1238 C 0.70843 0.01935 0.94326 0.0
C1239 C 0.70445 0.03618 0.94606 0.0
C1240 C 0.68588 0.0331 0.96208 0.0
C1241 C 0.60159 0.96546 0.12319 0.0
C1242 C 0.61746 0.97543 0.14848 0.0
C1243 C 0.60533 0.97279 0.08896 0.0
C1244 C 0.62492 0.99036 0.07948 0.0
C1245 C 0.64094 0.99995 0.10452 0.0
C1246 C 0.63727 0.99258 0.1386 0.0
C1247 C 0.62877 0.999 0.04365 0.0
C1248 C 0.64672 1.00157 0.02579 0.0
C1249 C 0.6151 0.00493 0.02726 0.0
C1250 C 0.59678 0.00411 0.04557 0.0
C1251 C 0.59977 0.01511 0.07687 0.0
C1252 C 0.58243 0.01411 0.09419 0.0
C1253 C 0.56203 1.00231 0.08033 0.0
C1254 C 0.55894 0.99152 0.04905 0.0
C1255 C 0.57623 0.99244 0.03165 0.0
H1256 H 0.54862 1.00155 0.09378 0.0
H1257 H 0.72281 0.02177 0.93084 0.0
H1258 H 0.641 0.63845 0.35547 0.0
H1259 H 0.64537 0.63202 0.41625 0.0
H1260 H 0.59711 0.6469 0.44539 0.0
H1261 H 0.5921 0.65275 0.38419 0.0
H1262 H 0.64444 0.66787 0.48264 0.0
H1263 H 0.57795 0.60377 0.45332 0.0
H1264 H 0.55636 0.57332 0.4153 0.0
H1265 H 0.60051 0.55104 0.42909 0.0
H1266 H 0.62269 0.58174 0.46659 0.0
H1267 H 0.63407 0.64009 0.65829 0.0
H1268 H 0.62734 0.64554 0.59851 0.0
H1269 H 0.64453 0.59962 0.56474 0.0
H1270 H 0.65022 0.59327 0.6252 0.0
H1271 H 0.61285 0.5945 0.52846 0.0
H1272 H 0.67885 0.65551 0.55744 0.0
H1273 H 0.7039 0.68656 0.59183 0.0
H1274 H 0.66543 0.71527 0.57564 0.0
H1275 H 0.63997 0.68424 0.54155 0.0
C1276 C 0.63134 0.64044 0.37477 0.0
C1277 C 0.6162 0.64613 0.3651 0.0
C1278 C 0.63384 0.63671 0.40943 0.0
C1279 C 0.62153 0.63895 0.4351 0.0
C1280 C 0.60671 0.64507 0.42577 0.0
C1281 C 0.60384 0.64835 0.39091 0.0
C1282 C 0.62422 0.63473 0.47164 0.0
C1283 C 0.63726 0.65189 0.49301 0.0
C1284 C 0.61559 0.61382 0.48437 0.0
C1285 C 0.6021 0.59518 0.46238 0.0
C1286 C 0.58318 0.59251 0.44793 0.0
C1287 C 0.5708 0.57518 0.42653 0.0
C1288 C 0.57706 0.56025 0.4197 0.0
C1289 C 0.5957 0.56263 0.43435 0.0
C1290 C 0.60818 0.58 0.45567 0.0
C1291 C 0.63648 0.63117 0.63815 0.0
C1292 C 0.64293 0.61643 0.64637 0.0
C1293 C 0.63271 0.63438 0.60389 0.0
C1294 C 0.63595 0.62343 0.57686 0.0
C1295 C 0.64203 0.60837 0.58506 0.0
C1296 C 0.64535 0.60479 0.61957 0.0
C1297 C 0.6329 0.62773 0.54021 0.0
C1298 C 0.61996 0.61056 0.51851 0.0
C1299 C 0.64203 0.64868 0.52694 0.0
C1300 C 0.6574 0.66746 0.5472 0.0
C1301 C 0.67566 0.66839 0.5614 0.0
C1302 C 0.68994 0.68599 0.58082 0.0
C1303 C 0.68623 0.70285 0.58598 0.0
C1304 C 0.66826 0.70218 0.57165 0.0
C1305 C 0.65391 0.6846 0.55225 0.0
H1306 H 0.6973 0.71646 0.60103 0.0
H1307 H 0.56744 0.54684 0.40313 0.0
H1308 H 0.01285 0.58444 0.23319 0.0
H1309 H 0.00632 0.54802 0.23033 0.0
H1310 H 0.06302 0.56647 0.29009 0.0
H1311 H 0.06937 0.60249 0.29388 0.0
H1312 H 0.02883 0.53252 0.20194 0.0
H1313 H 0.05832 0.52697 0.3397 0.0
H1314 H 0.05873 0.54043 0.39841 0.0
H1315 H 0.00424 0.54611 0.37364 0.0
H1316 H 1.00327 0.53235 0.31498 0.0
H1317 H 0.06736 0.46153 0.2088 0.0
H1318 H 0.06121 0.49137 0.21313 0.0
H1319 H 0.0074 0.45472 0.27972 0.0
H1320 H 0.01366 0.4247 0.27609 0.0
H1321 H 0.03164 0.4935 0.30539 0.0
H1322 H 0.99985 0.46528 0.19664 0.0
H1323 H 0.99731 0.45089 0.13804 0.0
H1324 H 0.05065 0.50992 0.10534 0.0
H1325 H 0.05369 0.52462 0.16393 0.0
C1326 C 0.02381 0.58069 0.24604 0.0
C1327 C 0.04165 0.59648 0.26375 0.0
C1328 C 0.02008 0.55988 0.24426 0.0
C1329 C 0.03404 0.55442 0.26031 0.0
C1330 C 0.05178 0.57014 0.27807 0.0
C1331 C 0.05546 0.59084 0.28 0.0
C1332 C 0.03072 0.53258 0.25759 0.0
C1333 C 0.02927 0.52392 0.22457 0.0
C1334 C 0.03076 0.52106 0.28717 0.0
C1335 C 0.03082 0.52873 0.32282 0.0
C1336 C 0.04632 0.53092 0.34685 0.0
C1337 C 0.04667 0.53864 0.38011 0.0
C1338 C 0.03155 0.54416 0.38972 0.0
C1339 C 0.01597 0.54187 0.36614 0.0
C1340 C 0.01553 0.53412 0.33287 0.0
C1341 C 0.0541 0.45966 0.22425 0.0
C1342 C 0.04103 0.44064 0.24214 0.0
C1343 C 0.05055 0.47677 0.22654 0.0
C1344 C 0.03371 0.47525 0.24647 0.0
C1345 C 0.02047 0.45625 0.26414 0.0
C1346 C 0.02404 0.43907 0.26191 0.0
C1347 C 0.03058 0.49387 0.24969 0.0
C1348 C 0.03086 0.50194 0.2828 0.0
C1349 C 0.02901 0.50463 0.22025 0.0
C1350 C 0.02707 0.49601 0.18477 0.0
C1351 C 0.01111 0.47517 0.17701 0.0
C1352 C 0.00957 0.46695 0.14379 0.0
C1353 C 0.02383 0.47946 0.11799 0.0
C1354 C 0.03961 0.50025 0.12535 0.0
C1355 C 0.04123 0.50855 0.15856 0.0
H1356 H 0.02263 0.47304 0.09229 0.0
H1357 H 0.03187 0.55018 0.41545 0.0
H1358 H 0.44292 0.0357 0.82299 0.0
H1359 H 0.47442 0.03187 0.82005 0.0
H1360 H 0.46687 0.02384 0.70924 0.0
H1361 H 0.43445 0.02609 0.71263 0.0
H1362 H 0.48256 1.00154 0.7302 0.0
H1363 H 0.50093 0.07371 0.75078 0.0
H1364 H 0.49931 0.10256 0.78154 0.0
H1365 H 0.52302 0.08875 0.87384 0.0
H1366 H 0.52465 0.05971 0.84377 0.0
H1367 H 0.59712 0.05416 0.69595 0.0
H1368 H 0.56111 0.0486 0.70166 0.0
H1369 H 0.55478 0.01923 0.80122 0.0
H1370 H 0.59053 0.02412 0.79535 0.0
H1371 H 0.54655 0.05964 0.78667 0.0
H1372 H 0.52737 0.98618 0.76059 0.0
H1373 H 0.52996 0.95956 0.72475 0.0
H1374 H 0.50933 0.97973 0.63565 0.0
H1375 H 0.50698 0.00674 0.67091 0.0
C1376 C 0.44774 0.03258 0.79818 0.0
C1377 C 0.43636 0.03121 0.76803 0.0
C1378 C 0.46586 0.03062 0.79641 0.0
C1379 C 0.47351 0.02829 0.76425 0.0
C1380 C 0.46144 0.02577 0.73435 0.0
C1381 C 0.44289 0.02702 0.73628 0.0
C1382 C 0.49465 0.02977 0.76152 0.0
C1383 C 0.49651 0.01433 0.74246 0.0
C1384 C 0.51305 0.0465 0.77731 0.0
C1385 C 0.51274 0.06441 0.79511 0.0
C1386 C 0.50576 0.0768 0.77766 0.0
C1387 C 0.50481 0.09316 0.79497 0.0
C1388 C 0.51095 0.09741 0.82964 0.0
C1389 C 0.51823 0.08541 0.84701 0.0
C1390 C 0.51921 0.06903 0.82983 0.0
C1391 C 0.58797 0.04628 0.71887 0.0
C1392 C 0.59661 0.03946 0.74513 0.0
C1393 C 0.56745 0.04315 0.72208 0.0
C1394 C 0.55538 0.0335 0.75181 0.0
C1395 C 0.56388 0.02663 0.77802 0.0
C1396 C 0.58423 0.02933 0.77453 0.0
C1397 C 0.53416 0.0313 0.75593 0.0
C1398 C 0.53245 0.04678 0.77486 0.0
C1399 C 0.51606 0.01498 0.73935 0.0
C1400 C 0.51726 0.99863 0.71828 0.0
C1401 C 0.52362 0.98509 0.73328 0.0
C1402 C 0.52499 0.9699 0.71309 0.0
C1403 C 0.51988 0.968 0.67791 0.0
C1404 C 0.51332 0.98125 0.66288 0.0
C1405 C 0.51195 0.99649 0.68296 0.0
H1406 H 0.52094 0.95622 0.66233 0.0
H1407 H 0.51012 0.11003 0.84302 0.0
H1408 H 0.54729 0.60539 0.19663 0.0
H1409 H 0.5156 0.57058 0.20275 0.0
H1410 H 0.54514 0.55556 0.28643 0.0
H1411 H 0.57697 0.59052 0.28075 0.0
H1412 H 0.50697 0.52964 0.19907 0.0
H1413 H 0.50497 0.52789 0.34865 0.0
H1414 H 0.51839 0.55269 0.39788 0.0
H1415 H 0.52042 0.60202 0.33413 0.0
H1416 H 0.50635 0.57733 0.28478 0.0
H1417 H 0.42321 0.42931 0.25255 0.0
H1418 H 0.45824 0.46103 0.24869 0.0
H1419 H 0.43194 0.49934 0.2836 0.0
H1420 H 0.39709 0.46765 0.28904 0.0
H1421 H 0.4692 0.51324 0.31171 0.0
H1422 H 0.44103 0.49368 0.19567 0.0
H1423 H 0.42587 0.46858 0.14698 0.0
H1424 H 0.48231 0.46383 0.14174 0.0
H1425 H 0.49764 0.48861 0.19082 0.0
C1426 C 0.54721 0.59464 0.21611 0.0
C1427 C 0.56465 0.60087 0.23841 0.0
C1428 C 0.52907 0.57468 0.21947 0.0
C1429 C 0.5279 0.56057 0.2453 0.0
C1430 C 0.54563 0.56631 0.26656 0.0
C1431 C 0.56384 0.58627 0.26316 0.0
C1432 C 0.50765 0.54046 0.25116 0.0
C1433 C 0.49877 0.52599 0.22375 0.0
C1434 C 0.49681 0.53583 0.28324 0.0
C1435 C 0.50491 0.55081 0.31286 0.0
C1436 C 0.5082 0.544 0.34516 0.0
C1437 C 0.51592 0.55805 0.37309 0.0
C1438 C 0.52045 0.57898 0.36905 0.0
C1439 C 0.51704 0.58585 0.33714 0.0
C1440 C 0.50915 0.57181 0.30919 0.0
C1441 C 0.42486 0.44446 0.25961 0.0
C1442 C 0.40718 0.44592 0.27055 0.0
C1443 C 0.44493 0.46262 0.25726 0.0
C1444 C 0.44768 0.48268 0.26511 0.0
C1445 C 0.43022 0.48408 0.27721 0.0
C1446 C 0.41023 0.4659 0.28008 0.0
C1447 C 0.46851 0.50232 0.25968 0.0
C1448 C 0.47749 0.51675 0.28713 0.0
C1449 C 0.47929 0.50707 0.22748 0.0
C1450 C 0.4704 0.49285 0.1971 0.0
C1451 C 0.45018 0.48724 0.18418 0.0
C1452 C 0.44155 0.47305 0.15654 0.0
C1453 C 0.4531 0.46456 0.14135 0.0
C1454 C 0.47337 0.47038 0.15359 0.0
C1455 C 0.48204 0.4845 0.1813 0.0
H1456 H 0.44637 0.45347 0.12011 0.0
H1457 H 0.52652 0.58986 0.39067 0.0
H1458 H 0.99492 0.57773 0.76874 0.0
H1459 H 1.00078 0.54754 0.77338 0.0
H1460 H 0.94259 0.50852 0.71762 0.0
H1461 H 0.93682 0.53858 0.71216 0.0
H1462 H 0.97866 0.51069 0.80478 0.0
H1463 H 0.94592 0.47164 0.6706 0.0
H1464 H 0.94434 0.48274 0.61084 0.0
H1465 H 0.99951 0.54346 0.62963 0.0
H1466 H 1.00161 0.53264 0.68933 0.0
H1467 H 0.94177 0.40128 0.80578 0.0
H1468 H 0.94744 0.437 0.79995 0.0
H1469 H 0.99917 0.45297 0.72922 0.0
H1470 H 0.99329 0.41688 0.73426 0.0
H1471 H 0.97389 0.46613 0.7043 0.0
H1472 H 0.00854 0.47328 0.81168 0.0
H1473 H 0.01293 0.46367 0.8711 0.0
H1474 H 0.96012 0.46988 0.90508 0.0
H1475 H 0.95519 0.47922 0.84575 0.0
C1476 C 0.98343 0.56277 0.75721 0.0
C1477 C 0.96537 0.56065 0.74008 0.0
C1478 C 0.98679 0.5455 0.75998 0.0
C1479 C 0.97225 0.52579 0.74557 0.0
C1480 C 0.95425 0.52365 0.72842 0.0
C1481 C 0.95091 0.54088 0.72551 0.0
C1482 C 0.97539 0.5072 0.7494 0.0
C1483 C 0.97774 0.50102 0.78279 0.0
C1484 C 0.97474 0.49484 0.72065 0.0
C1485 C 0.97381 0.50136 0.68455 0.0
C1486 C 0.95779 0.48732 0.66193 0.0
C1487 C 0.95678 0.49357 0.62807 0.0
C1488 C 0.97178 0.51381 0.61647 0.0
C1489 C 0.98786 0.52782 0.63867 0.0
C1490 C 0.98895 0.52163 0.67254 0.0
C1491 C 0.9545 0.41236 0.78914 0.0
C1492 C 0.96703 0.40609 0.7704 0.0
C1493 C 0.9578 0.43289 0.78601 0.0
C1494 C 0.97387 0.44779 0.7644 0.0
C1495 C 0.98669 0.44176 0.74609 0.0
C1496 C 0.98336 0.42113 0.74913 0.0
C1497 C 0.97642 0.46924 0.75979 0.0
C1498 C 0.97509 0.47594 0.72626 0.0
C1499 C 0.97845 0.4823 0.78835 0.0
C1500 C 0.98142 0.47683 0.82418 0.0
C1501 C 0.99777 0.47246 0.83177 0.0
C1502 C 1.00037 0.46708 0.86545 0.0
C1503 C 0.98679 0.46613 0.89184 0.0
C1504 C 0.97062 0.47061 0.88461 0.0
C1505 C 0.96794 0.47598 0.85096 0.0
H1506 H 0.98883 0.46196 0.91789 0.0
H1507 H 0.97096 0.51863 0.59026 0.0
H1508 H 0.40935 0.95959 0.18502 0.0
H1509 H 0.44515 0.96472 0.18924 0.0
H1510 H 0.44914 0.98493 0.29533 0.0
H1511 H 0.41377 0.98104 0.2904 0.0
H1512 H 0.48682 0.00582 0.26739 0.0
H1513 H 0.43186 0.9309 0.27004 0.0
H1514 H 0.40122 0.89883 0.24563 0.0
H1515 H 0.43749 0.90373 0.15508 0.0
H1516 H 0.46833 0.93581 0.17878 0.0
H1517 H 0.54267 0.94076 0.30669 0.0
H1518 H 0.51181 0.94512 0.29973 0.0
H1519 H 0.5473 0.99804 0.23098 0.0
H1520 H 0.57846 0.99374 0.23754 0.0
H1521 H 0.49062 0.94132 0.23928 0.0
H1522 H 0.52636 0.03198 0.24192 0.0
H1523 H 0.55692 0.06361 0.26732 0.0
H1524 H 0.55852 0.0259 0.35158 0.0
H1525 H 0.52781 0.99414 0.32696 0.0
C1526 C 0.41809 0.96558 0.20898 0.0
C1527 C 0.4088 0.9698 0.23747 0.0
C1528 C 0.43848 0.96836 0.21148 0.0
C1529 C 0.44963 0.97456 0.24296 0.0
C1530 C 0.44084 0.97999 0.27082 0.0
C1531 C 0.42064 0.97778 0.26801 0.0
C1532 C 0.4696 0.97387 0.2477 0.0
C1533 C 0.48765 0.99174 0.26112 0.0
C1534 C 0.47076 0.95546 0.23977 0.0
C1535 C 0.45234 0.93584 0.22606 0.0
C1536 C 0.43328 0.92516 0.2449 0.0
C1537 C 0.41588 0.90701 0.23119 0.0
C1538 C 0.41737 0.89935 0.19881 0.0
C1539 C 0.43633 0.90971 0.18014 0.0
C1540 C 0.4538 0.92783 0.19372 0.0
C1541 C 0.54408 0.95346 0.29022 0.0
C1542 C 0.56309 0.96678 0.27242 0.0
C1543 C 0.52634 0.95589 0.28626 0.0
C1544 C 0.52721 0.97184 0.26477 0.0
C1545 C 0.54632 0.98568 0.24785 0.0
C1546 C 0.56412 0.98319 0.25164 0.0
C1547 C 0.50774 0.97321 0.25905 0.0
C1548 C 0.4898 0.95544 0.24538 0.0
C1549 C 0.50667 0.99161 0.267 0.0
C1550 C 0.52494 0.01066 0.28236 0.0
C1551 C 0.53319 0.03047 0.26593 0.0
C1552 C 0.55054 0.04841 0.28018 0.0
C1553 C 0.5597 0.04675 0.31098 0.0
C1554 C 0.55147 0.02716 0.32766 0.0
C1555 C 0.53411 0.00917 0.31353 0.0
H1556 H 0.57315 0.06066 0.32195 0.0
H1557 H 0.40384 0.88535 0.18822 0.0
H1558 H 0.60623 0.54528 0.8092 0.0
H1559 H 0.57081 0.51429 0.80386 0.0
H1560 H 0.55351 0.54801 0.73103 0.0
H1561 H 0.58898 0.57914 0.73599 0.0
H1562 H 0.52986 0.50543 0.8139 0.0
H1563 H 0.52583 0.51284 0.66541 0.0
H1564 H 0.55044 0.52895 0.61617 0.0
H1565 H 0.59883 0.52382 0.67176 0.0
H1566 H 0.5744 0.50735 0.72099 0.0
H1567 H 0.42902 0.42063 0.76359 0.0
H1568 H 0.45939 0.45667 0.7679 0.0
H1569 H 0.49912 0.43623 0.7179 0.0
H1570 H 0.46889 0.40069 0.71206 0.0
H1571 H 0.51044 0.47379 0.69651 0.0
H1572 H 0.49624 0.43999 0.8085 0.0
H1573 H 0.47394 0.42167 0.85925 0.0
H1574 H 0.46627 0.47541 0.87974 0.0
H1575 H 0.48827 0.49393 0.82877 0.0
C1576 C 0.59485 0.54626 0.79233 0.0
C1577 C 0.60058 0.56467 0.77272 0.0
C1578 C 0.57454 0.52853 0.78949 0.0
C1579 C 0.55959 0.52877 0.76682 0.0
C1580 C 0.56488 0.54744 0.74847 0.0
C1581 C 0.58517 0.56523 0.75139 0.0
C1582 C 0.5392 0.50895 0.76033 0.0
C1583 C 0.52549 0.4986 0.7882 0.0
C1584 C 0.53375 0.49979 0.72694 0.0
C1585 C 0.54836 0.50912 0.69703 0.0
C1586 C 0.54169 0.51507 0.66703 0.0
C1587 C 0.55561 0.52426 0.63913 0.0
C1588 C 0.57621 0.52749 0.64089 0.0
C1589 C 0.58289 0.52139 0.67047 0.0
C1590 C 0.56902 0.51213 0.69837 0.0
C1591 C 0.44416 0.42388 0.75309 0.0
C1592 C 0.44652 0.40759 0.73801 0.0
C1593 C 0.46155 0.44449 0.75574 0.0
C1594 C 0.48171 0.44912 0.74389 0.0
C1595 C 0.48381 0.43312 0.72738 0.0
C1596 C 0.46644 0.41266 0.7243 0.0
C1597 C 0.50092 0.47018 0.75009 0.0
C1598 C 0.51453 0.48077 0.72214 0.0
C1599 C 0.50659 0.47919 0.78363 0.0
C1600 C 0.49371 0.46825 0.81464 0.0
C1601 C 0.48971 0.44785 0.82374 0.0
C1602 C 0.47712 0.43743 0.85254 0.0
C1603 C 0.46865 0.44735 0.87266 0.0
C1604 C 0.47281 0.46774 0.8641 0.0
C1605 C 0.48534 0.4782 0.83527 0.0
H1606 H 0.45889 0.43925 0.89492 0.0
H1607 H 0.58698 0.53466 0.61932 0.0
H1608 H 0.13733 0.40704 0.19841 0.0
H1609 H 0.16858 0.40313 0.20515 0.0
H1610 H 0.1332 0.34972 0.27335 0.0
H1611 H 0.10153 0.35281 0.26474 0.0
H1612 H 0.19251 0.4082 0.25383 0.0
H1613 H 0.15341 0.31732 0.27746 0.0
H1614 H 0.12177 0.28414 0.25888 0.0
H1615 H 0.11854 0.31451 0.16555 0.0
H1616 H 0.15029 0.34778 0.18336 0.0
H1617 H 0.27287 0.39263 0.32033 0.0
H1618 H 0.23824 0.39 0.31325 0.0
H1619 H 0.22761 0.35337 0.22008 0.0
H1620 H 0.26171 0.35489 0.22833 0.0
H1621 H 0.1917 0.33971 0.24916 0.0
H1622 H 0.24757 0.40886 0.22002 0.0
H1623 H 0.28114 0.44229 0.22973 0.0
H1624 H 0.25327 0.45678 0.31581 0.0
H1625 H 0.21964 0.42322 0.30701 0.0
C1626 C 0.13614 0.39425 0.21441 0.0
C1627 C 0.11691 0.38011 0.23079 0.0
C1628 C 0.15409 0.39209 0.21845 0.0
C1629 C 0.15342 0.376 0.23956 0.0
C1630 C 0.13417 0.36192 0.25613 0.0
C1631 C 0.11603 0.36374 0.25134 0.0
C1632 C 0.17305 0.37453 0.24507 0.0
C1633 C 0.19222 0.39317 0.25269 0.0
C1634 C 0.17309 0.35508 0.24303 0.0
C1635 C 0.15409 0.33509 0.23194 0.0
C1636 C 0.14598 0.31689 0.25292 0.0
C1637 C 0.12803 0.29807 0.24253 0.0
C1638 C 0.11811 0.29724 0.21111 0.0
C1639 C 0.12618 0.3152 0.18995 0.0
C1640 C 0.14414 0.33404 0.2002 0.0
C1641 C 0.26294 0.38366 0.29873 0.0
C1642 C 0.27004 0.37404 0.27481 0.0
C1643 C 0.2432 0.38231 0.2945 0.0
C1644 C 0.23046 0.37202 0.26553 0.0
C1645 C 0.23709 0.36149 0.24257 0.0
C1646 C 0.25662 0.36237 0.2473 0.0
C1647 C 0.21094 0.3733 0.25813 0.0
C1648 C 0.19187 0.35469 0.25022 0.0
C1649 C 0.21118 0.3929 0.25835 0.0
C1650 C 0.23114 0.41344 0.26303 0.0
C1651 C 0.24862 0.41915 0.24109 0.0
C1652 C 0.26767 0.4381 0.24645 0.0
C1653 C 0.26935 0.45162 0.27342 0.0
C1654 C 0.25195 0.44627 0.29497 0.0
C1655 C 0.23289 0.42728 0.2898 0.0
H1656 H 0.28412 0.46626 0.27759 0.0
H1657 H 0.1042 0.28266 0.20313 0.0
H1658 H 0.86583 0.28142 0.78151 0.0
H1659 H 0.83474 0.24664 0.77305 0.0
H1660 H 0.87428 0.21805 0.77312 0.0
H1661 H 0.90587 0.2532 0.7812 0.0
H1662 H 0.84445 0.20181 0.72157 0.0
H1663 H 0.84401 0.21255 0.84312 0.0
H1664 H 0.84602 0.23202 0.89646 0.0
H1665 H 0.79059 0.2345 0.86558 0.0
H1666 H 0.78842 0.2153 0.81179 0.0
H1667 H 0.74874 0.09889 0.72947 0.0
H1668 H 0.78392 0.12957 0.74128 0.0
H1669 H 0.75638 0.16997 0.74621 0.0
H1670 H 0.72142 0.13963 0.7348 0.0
H1671 H 0.78243 0.1773 0.79978 0.0
H1672 H 0.78522 0.16984 0.67582 0.0
H1673 H 0.78338 0.15079 0.62203 0.0
H1674 H 0.83435 0.14199 0.65779 0.0
H1675 H 0.83631 0.16076 0.71203 0.0
C1676 C 0.86805 0.2678 0.77991 0.0
C1677 C 0.88844 0.27018 0.78232 0.0
C1678 C 0.85015 0.24784 0.77516 0.0
C1679 C 0.85206 0.22962 0.77294 0.0
C1680 C 0.87239 0.23186 0.77492 0.0
C1681 C 0.89042 0.25195 0.77971 0.0
C1682 C 0.83267 0.20842 0.76828 0.0
C1683 C 0.83103 0.19622 0.73906 0.0
C1684 C 0.81502 0.20121 0.7908 0.0
C1685 C 0.81614 0.21259 0.8233 0.0
C1686 C 0.83233 0.21736 0.84759 0.0
C1687 C 0.83348 0.22834 0.87793 0.0
C1688 C 0.81846 0.23453 0.88438 0.0
C1689 C 0.80222 0.2297 0.86054 0.0
C1690 C 0.801 0.21875 0.83015 0.0
C1691 C 0.75022 0.11434 0.73284 0.0
C1692 C 0.73219 0.11674 0.73111 0.0
C1693 C 0.77036 0.13188 0.73954 0.0
C1694 C 0.77286 0.15215 0.74456 0.0
C1695 C 0.7549 0.15453 0.74259 0.0
C1696 C 0.73487 0.1371 0.73589 0.0
C1697 C 0.79397 0.17096 0.75255 0.0
C1698 C 0.79593 0.18271 0.78252 0.0
C1699 C 0.81187 0.1777 0.73074 0.0
C1700 C 0.81073 0.16647 0.69814 0.0
C1701 C 0.79591 0.16368 0.67234 0.0
C1702 C 0.79487 0.15297 0.64175 0.0
C1703 C 0.80869 0.14512 0.63655 0.0
C1704 C 0.82363 0.14803 0.66189 0.0
C1705 C 0.82472 0.15872 0.69255 0.0
H1706 H 0.80786 0.13683 0.61285 0.0
H1707 H 0.81939 0.24303 0.90788 0.0
H1708 H 0.59138 0.7269 0.22321 0.0
H1709 H 0.59578 0.762 0.23169 0.0
H1710 H 0.66283 0.78782 0.24888 0.0
H1711 H 0.65853 0.7524 0.24057 0.0
H1712 H 0.64485 0.8024 0.29685 0.0
H1713 H 0.64678 0.79805 0.17408 0.0
H1714 H 0.63494 0.78179 0.11649 0.0
H1715 H 0.57588 0.78085 0.12984 0.0
H1716 H 0.58724 0.79683 0.18774 0.0
H1717 H 0.65655 0.90728 0.29176 0.0
H1718 H 0.66133 0.87675 0.28013 0.0
H1719 H 0.59455 0.83837 0.25752 0.0
H1720 H 0.58965 0.86851 0.26887 0.0
H1721 H 0.61836 0.83331 0.20897 0.0
H1722 H 0.61483 0.8337 0.33392 0.0
H1723 H 0.62615 0.84934 0.39203 0.0
H1724 H 0.68815 0.85767 0.37441 0.0
H1725 H 0.67727 0.84232 0.31597 0.0
C1726 C 0.60713 0.73999 0.22865 0.0
C1727 C 0.62463 0.73679 0.23103 0.0
C1728 C 0.60962 0.76012 0.23339 0.0
C1729 C 0.62968 0.77764 0.24054 0.0
C1730 C 0.64721 0.77455 0.24325 0.0
C1731 C 0.64475 0.75433 0.23833 0.0
C1732 C 0.63195 0.79898 0.24553 0.0
C1733 C 0.63949 0.8094 0.27735 0.0
C1734 C 0.62469 0.80801 0.22031 0.0
C1735 C 0.61782 0.79852 0.18538 0.0
C1736 C 0.63121 0.79424 0.16484 0.0
C1737 C 0.62459 0.7851 0.13212 0.0
C1738 C 0.60465 0.78026 0.11954 0.0
C1739 C 0.59132 0.7846 0.13963 0.0
C1740 C 0.59785 0.79373 0.17238 0.0
C1741 C 0.64289 0.89231 0.28443 0.0
C1742 C 0.62271 0.89039 0.28139 0.0
C1743 C 0.64564 0.87486 0.27785 0.0
C1744 C 0.62827 0.85521 0.26803 0.0
C1745 C 0.6082 0.85334 0.26494 0.0
C1746 C 0.60542 0.87064 0.27164 0.0
C1747 C 0.63072 0.83645 0.26062 0.0
C1748 C 0.62406 0.82651 0.22827 0.0
C1749 C 0.63878 0.8279 0.28535 0.0
C1750 C 0.64533 0.83713 0.32043 0.0
C1751 C 0.63094 0.83905 0.34232 0.0
C1752 C 0.63726 0.84782 0.37533 0.0
C1753 C 0.65788 0.85457 0.38686 0.0
C1754 C 0.6722 0.85249 0.36542 0.0
C1755 C 0.66596 0.84375 0.33235 0.0
H1756 H 0.66275 0.86134 0.41243 0.0
H1757 H 0.59956 0.77318 0.0942 0.0
H1758 H 0.90824 0.65114 0.76148 0.0
H1759 H 0.87614 0.65329 0.77186 0.0
H1760 H 0.84205 0.60303 0.69796 0.0
H1761 H 0.87369 0.60002 0.68921 0.0
H1762 H 0.85069 0.66172 0.74047 0.0
H1763 H 0.79166 0.57158 0.71946 0.0
H1764 H 0.79143 0.53771 0.72539 0.0
H1765 H 0.84128 0.56572 0.80096 0.0
H1766 H 0.84154 0.59962 0.79596 0.0
H1767 H 0.74682 0.64678 0.72981 0.0
H1768 H 0.781 0.64862 0.72124 0.0
H1769 H 0.7676 0.60585 0.80739 0.0
H1770 H 0.73275 0.60277 0.81411 0.0
H1771 H 0.78386 0.59447 0.76371 0.0
H1772 H 0.80599 0.66331 0.80788 0.0
H1773 H 0.80825 0.69818 0.81223 0.0
H1774 H 0.83494 0.71428 0.71007 0.0
H1775 H 0.83258 0.67939 0.70493 0.0
C1776 C 0.89393 0.64071 0.74722 0.0
C1777 C 0.89342 0.62528 0.72477 0.0
C1778 C 0.87556 0.64194 0.75316 0.0
C1779 C 0.85639 0.62796 0.73639 0.0
C1780 C 0.85635 0.61354 0.71216 0.0
C1781 C 0.87452 0.61194 0.70691 0.0
C1782 C 0.83627 0.62781 0.74517 0.0
C1783 C 0.83608 0.64701 0.74558 0.0
C1784 C 0.81726 0.60875 0.7531 0.0
C1785 C 0.81674 0.5882 0.75705 0.0
C1786 C 0.80246 0.57046 0.73751 0.0
C1787 C 0.80234 0.55127 0.74069 0.0
C1788 C 0.81637 0.54958 0.76346 0.0
C1789 C 0.83045 0.56705 0.78327 0.0
C1790 C 0.83059 0.58626 0.78028 0.0
C1791 C 0.75131 0.63795 0.7471 0.0
C1792 C 0.73718 0.62473 0.77276 0.0
C1793 C 0.77096 0.63909 0.74234 0.0
C1794 C 0.7773 0.62768 0.76401 0.0
C1795 C 0.76325 0.61479 0.79013 0.0
C1796 C 0.74334 0.61313 0.79416 0.0
C1797 C 0.79808 0.62841 0.75862 0.0
C1798 C 0.79842 0.60925 0.75878 0.0
C1799 C 0.81743 0.64763 0.75293 0.0
C1800 C 0.81893 0.66866 0.75592 0.0
C1801 C 0.81221 0.67423 0.78626 0.0
C1802 C 0.81353 0.69401 0.78887 0.0
C1803 C 0.82169 0.70841 0.76141 0.0
C1804 C 0.8286 0.70309 0.73131 0.0
C1805 C 0.8273 0.68333 0.72854 0.0
H1806 H 0.82269 0.72371 0.76348 0.0
H1807 H 0.8163 0.53473 0.76579 0.0
H1808 H 0.25662 0.90284 0.21501 0.0
H1809 H 0.22138 0.87157 0.22323 0.0
H1810 H 0.25032 0.83336 0.24297 0.0
H1811 H 0.28535 0.86423 0.23415 0.0
H1812 H 0.2173 0.81261 0.20214 0.0
H1813 H 0.23105 0.85196 0.30877 0.0
H1814 H 0.23952 0.88342 0.34406 0.0
H1815 H 0.18352 0.88256 0.30652 0.0
H1816 H 0.17487 0.85124 0.27061 0.0
H1817 H 0.14089 0.72314 0.28879 0.0
H1818 H 0.17182 0.75769 0.27746 0.0
H1819 H 0.13112 0.783 0.25185 0.0
H1820 H 0.09973 0.74818 0.26355 0.0
H1821 H 0.16717 0.81149 0.29033 0.0
H1822 H 0.15182 0.76925 0.18813 0.0
H1823 H 0.14319 0.7367 0.15592 0.0
H1824 H 0.20262 0.74256 0.18667 0.0
H1825 H 0.21143 0.77493 0.21965 0.0
C1826 C 0.25546 0.88775 0.22096 0.0
C1827 C 0.27386 0.8861 0.2239 0.0
C1828 C 0.23529 0.86989 0.22583 0.0
C1829 C 0.23313 0.85007 0.23406 0.0
C1830 C 0.2515 0.84841 0.23658 0.0
C1831 C 0.27158 0.86615 0.2316 0.0
C1832 C 0.2119 0.83097 0.24027 0.0
C1833 C 0.20643 0.81239 0.22157 0.0
C1834 C 0.19735 0.8307 0.26496 0.0
C1835 C 0.20245 0.84942 0.28671 0.0
C1836 C 0.22063 0.85858 0.30784 0.0
C1837 C 0.22545 0.87637 0.32799 0.0
C1838 C 0.2121 0.88503 0.32745 0.0
C1839 C 0.19386 0.87586 0.30685 0.0
C1840 C 0.18899 0.85809 0.28661 0.0
C1841 C 0.13839 0.73603 0.281 0.0
C1842 C 0.11776 0.73278 0.27672 0.0
C1843 C 0.15616 0.75581 0.27448 0.0
C1844 C 0.15382 0.77285 0.26316 0.0
C1845 C 0.13329 0.77004 0.26039 0.0
C1846 C 0.11538 0.75013 0.26707 0.0
C1847 C 0.17293 0.79313 0.25279 0.0
C1848 C 0.17795 0.81186 0.27058 0.0
C1849 C 0.18715 0.79355 0.22735 0.0
C1850 C 0.18223 0.77447 0.20655 0.0
C1851 C 0.16302 0.76356 0.18815 0.0
C1852 C 0.15808 0.74513 0.16977 0.0
C1853 C 0.17234 0.73755 0.16929 0.0
C1854 C 0.19159 0.74845 0.18707 0.0
C1855 C 0.19658 0.76685 0.20559 0.0
H1856 H 0.16846 0.72325 0.15511 0.0
H1857 H 0.21586 0.8988 0.34306 0.0
H1858 H 0.42074 0.28193 0.74065 0.0
H1859 H 0.41634 0.2468 0.74775 0.0
H1860 H 0.34855 0.21873 0.73681 0.0
H1861 H 0.3528 0.25426 0.73 0.0
H1862 H 0.35918 0.20021 0.78965 0.0
H1863 H 0.37707 0.21612 0.67039 0.0
H1864 H 0.39756 0.23792 0.62053 0.0
H1865 H 0.45342 0.2387 0.65854 0.0
H1866 H 0.43334 0.21716 0.70892 0.0
H1867 H 0.35112 0.09753 0.77605 0.0
H1868 H 0.34793 0.12904 0.76549 0.0
H1869 H 0.41611 0.16833 0.76863 0.0
H1870 H 0.41944 0.13706 0.77863 0.0
H1871 H 0.40059 0.17872 0.71481 0.0
H1872 H 0.38368 0.16593 0.83657 0.0
H1873 H 0.3636 0.14476 0.88724 0.0
H1874 H 0.30609 0.13821 0.84462 0.0
H1875 H 0.3258 0.15912 0.79345 0.0
C1876 C 0.40483 0.26837 0.73962 0.0
C1877 C 0.38712 0.271 0.73441 0.0
C1878 C 0.40236 0.24821 0.74361 0.0
C1879 C 0.38215 0.23005 0.74226 0.0
C1880 C 0.36432 0.23252 0.73775 0.0
C1881 C 0.36678 0.25282 0.73373 0.0
C1882 C 0.38001 0.20866 0.74561 0.0
C1883 C 0.36789 0.1953 0.77286 0.0
C1884 C 0.39161 0.20235 0.72405 0.0
C1885 C 0.40371 0.21512 0.69356 0.0
C1886 C 0.39375 0.22105 0.66824 0.0
C1887 C 0.40529 0.23335 0.63986 0.0
C1888 C 0.42678 0.23972 0.6364 0.0
C1889 C 0.43677 0.23376 0.66126 0.0
C1890 C 0.42531 0.22147 0.68971 0.0
C1891 C 0.36542 0.1129 0.77471 0.0
C1892 C 0.38554 0.11472 0.77827 0.0
C1893 C 0.36357 0.13092 0.76874 0.0
C1894 C 0.38178 0.15114 0.76644 0.0
C1895 C 0.40182 0.15295 0.77018 0.0
C1896 C 0.40369 0.135 0.77604 0.0
C1897 C 0.38023 0.17049 0.75944 0.0
C1898 C 0.39166 0.18347 0.73137 0.0
C1899 C 0.368 0.1764 0.78026 0.0
C1900 C 0.35616 0.16387 0.81101 0.0
C1901 C 0.36672 0.15982 0.83787 0.0
C1902 C 0.35542 0.1479 0.8667 0.0
C1903 C 0.33358 0.14008 0.86909 0.0
C1904 C 0.323 0.14423 0.8427 0.0
C1905 C 0.33423 0.15613 0.81379 0.0
H1906 H 0.32485 0.13086 0.89144 0.0
H1907 H 0.43569 0.24925 0.61442 0.0
loop_
_geom_bond_atom_site_label_1
_geom_bond_atom_site_label_2
_geom_bond_distance
_geom_bond_site_symmetry_2
_ccdc_geom_bond_type
Co0 O2 2.143 . S
Co0 O8 2.074 . S
Co0 O11 2.093 . S
Co0 O24 2.097 . S
Co0 N41 2.155 1_455 S
Co0 N49 2.214 1_455 S
Co1 O2 2.160 . S
Co1 O7 2.058 . S
Co1 O17 2.057 . S
Co1 O32 2.037 . S
Co1 N36 2.145 . S
Co1 N57 2.257 . S
O2 Co0 2.143 . S
O2 Co1 2.160 . S
C3 O4 1.278 . S
C3 O11 1.224 . S
O4 C3 1.278 . S
C5 O6 1.245 . S
C5 O17 1.232 . S
O6 C5 1.245 . S
O7 Co1 2.058 . S
O7 C33 1.269 . S
O8 Co0 2.074 . S
O8 C33 1.257 . S
H9 C34 0.930 . S
H10 C40 0.930 . S
O11 Co0 2.093 . S
O11 C3 1.224 . S
H12 C44 0.929 . S
H13 C46 0.930 . S
H14 C47 0.930 . S
H15 C45 0.929 . S
H16 C48 0.928 . S
O17 Co1 2.057 . S
O17 C5 1.232 . S
H18 C37 0.929 . S
H19 C38 0.929 . S
H20 C50 0.931 . S
H21 C42 0.929 . S
H22 C51 0.930 . S
H23 C43 0.931 . S
O24 Co0 2.097 . S
O24 C52 1.214 . S
H25 C53 0.929 . S
H26 C54 0.929 . S
H27 C55 0.930 . S
H28 C56 0.929 . S
H29 C58 0.930 . S
H30 C35 0.930 . S
H31 C39 0.930 . S
O32 Co1 2.037 . S
O32 C52 1.234 . S
C33 O7 1.269 . S
C33 O8 1.257 . S
C34 H9 0.930 . S
C34 C37 1.388 . S
C34 C39 1.418 . S
C35 H30 0.930 . S
C35 C38 1.404 . S
C35 C39 1.353 . S
N36 Co1 2.145 . S
N36 C37 1.397 . S
N36 C38 1.334 . S
C37 H18 0.929 . S
C37 C34 1.388 . S
C37 N36 1.397 . S
C38 H19 0.929 . S
C38 C35 1.404 . S
C38 N36 1.334 . S
C39 H31 0.930 . S
C39 C34 1.418 . S
C39 C35 1.353 . S
C40 H10 0.930 . S
C40 N41 1.317 1_455 S
C40 C42 1.446 1_455 S
N41 Co0 2.155 1_655 S
N41 C40 1.317 1_655 S
N41 C45 1.430 . S
C42 H21 0.929 . S
C42 C40 1.446 1_655 S
C42 C43 1.332 . S
C43 H23 0.931 . S
C43 C42 1.332 . S
C43 C44 1.267 . S
C44 H12 0.929 . S
C44 C43 1.267 . S
C44 C45 1.251 . S
C45 H15 0.929 . S
C45 N41 1.430 . S
C45 C44 1.251 . S
C46 H13 0.930 . S
C46 C48 1.406 . S
C46 C51 1.261 . S
C47 H14 0.930 . S
C47 N49 1.325 . S
C47 C50 1.357 . S
C48 H16 0.928 . S
C48 C46 1.406 . S
C48 N49 1.261 . S
N49 Co0 2.214 1_655 S
N49 C47 1.325 . S
N49 C48 1.261 . S
C50 H20 0.931 . S
C50 C47 1.357 . S
C50 C51 1.312 . S
C51 H22 0.930 . S
C51 C46 1.261 . S
C51 C50 1.312 . S
C52 O24 1.214 . S
C52 O32 1.234 . S
C53 H25 0.929 . S
C53 C56 1.391 . S
C53 C58 1.391 . S
C54 H26 0.929 . S
C54 C55 1.390 . S
C54 N57 1.391 . S
C55 H27 0.930 . S
C55 C54 1.390 . S
C55 C56 1.392 . S
C56 H28 0.929 . S
C56 C53 1.391 . S
C56 C55 1.392 . S
N57 Co1 2.257 . S
N57 C54 1.391 . S
N57 C58 1.388 . S
C58 H29 0.930 . S
C58 C53 1.391 . S
C58 N57 1.388 . S
Co59 O61 2.143 . S
Co59 O67 2.074 . S
Co59 O70 2.093 . S
Co59 O83 2.097 . S
Co59 N100 2.130 1_545 S
Co59 N108 2.214 1_545 S
Co60 O61 2.160 . S
Co60 O66 2.058 . S
Co60 O76 2.057 . S
Co60 O91 2.037 . S
Co60 N95 2.145 . S
Co60 N116 2.257 . S
O61 Co59 2.143 . S
O61 Co60 2.160 . S
C62 O63 1.278 . S
C62 O70 1.224 . S
O63 C62 1.278 . S
C64 O65 1.245 . S
C64 O76 1.232 . S
O65 C64 1.245 . S
O66 Co60 2.058 . S
O66 C92 1.269 . S
O67 Co59 2.074 . S
O67 C92 1.257 . S
H68 C93 0.930 . S
H69 C99 0.930 . S
O70 Co59 2.093 . S
O70 C62 1.224 . S
H71 C103 0.929 . S
H72 C105 0.930 . S
H73 C106 0.930 . S
H74 C104 0.929 . S
H75 C107 0.928 . S
O76 Co60 2.057 . S
O76 C64 1.232 . S
H77 C96 0.929 . S
H78 C97 0.929 . S
H79 C109 0.931 . S
H80 C101 0.929 . S
H81 C110 0.930 . S
H82 C102 0.931 . S
O83 Co59 2.097 . S
O83 C111 1.214 . S
H84 C112 0.929 . S
H85 C113 0.929 . S
H86 C114 0.930 . S
H87 C115 0.929 . S
H88 C117 0.930 . S
H89 C94 0.930 . S
H90 C98 0.930 . S
O91 Co60 2.037 . S
O91 C111 1.234 . S
C92 O66 1.269 . S
C92 O67 1.257 . S
C93 H68 0.930 . S
C93 C96 1.388 . S
C93 C98 1.418 . S
C94 H89 0.930 . S
C94 C97 1.404 . S
C94 C98 1.353 . S
N95 Co60 2.145 . S
N95 C96 1.397 . S
N95 C97 1.334 . S
C96 H77 0.929 . S
C96 C93 1.388 . S
C96 N95 1.397 . S
C97 H78 0.929 . S
C97 C94 1.404 . S
C97 N95 1.334 . S
C98 H90 0.930 . S
C98 C93 1.418 . S
C98 C94 1.353 . S
C99 H69 0.930 . S
C99 N100 1.335 1_545 S
C99 C101 1.446 1_545 S
N100 Co59 2.130 1_565 S
N100 C99 1.335 1_565 S
N100 C104 1.437 . S
C101 H80 0.929 . S
C101 C99 1.446 1_565 S
C101 C102 1.332 . S
C102 H82 0.931 . S
C102 C101 1.332 . S
C102 C103 1.267 . S
C103 H71 0.929 . S
C103 C102 1.267 . S
C103 C104 1.251 . S
C104 H74 0.929 . S
C104 N100 1.437 . S
C104 C103 1.251 . S
C105 H72 0.930 . S
C105 C107 1.406 . S
C105 C110 1.261 . S
C106 H73 0.930 . S
C106 N108 1.325 . S
C106 C109 1.357 . S
C107 H75 0.928 . S
C107 C105 1.406 . S
C107 N108 1.261 . S
N108 Co59 2.214 1_565 S
N108 C106 1.325 . S
N108 C107 1.261 . S
C109 H79 0.931 . S
C109 C106 1.357 . S
C109 C110 1.312 . S
C110 H81 0.930 . S
C110 C105 1.261 . S
C110 C109 1.312 . S
C111 O83 1.214 . S
C111 O91 1.234 . S
C112 H84 0.929 . S
C112 C115 1.391 . S
C112 C117 1.391 . S
C113 H85 0.929 . S
C113 C114 1.390 . S
C113 N116 1.391 . S
C114 H86 0.930 . S
C114 C113 1.390 . S
C114 C115 1.392 . S
C115 H87 0.929 . S
C115 C112 1.391 . S
C115 C114 1.392 . S
N116 Co60 2.257 . S
N116 C113 1.391 . S
N116 C117 1.388 . S
C117 H88 0.930 . S
C117 C112 1.391 . S
C117 N116 1.388 . S
Co118 O120 2.143 . S
Co118 O126 2.074 . S
Co118 O129 2.093 . S
Co118 O142 2.097 . S
Co118 N159 2.151 . S
Co118 N167 2.214 . S
Co119 O120 2.160 . S
Co119 O125 2.058 . S
Co119 O135 2.057 . S
Co119 O150 2.037 . S
Co119 N154 2.145 . S
Co119 N175 2.257 . S
O120 Co118 2.143 . S
O120 Co119 2.160 . S
C121 O122 1.278 . S
C121 O129 1.224 . S
O122 C121 1.278 . S
C123 O124 1.245 . S
C123 O135 1.232 . S
O124 C123 1.245 . S
O125 Co119 2.058 . S
O125 C151 1.269 . S
O126 Co118 2.074 . S
O126 C151 1.257 . S
H127 C152 0.930 . S
H128 C158 0.930 . S
O129 Co118 2.093 . S
O129 C121 1.224 . S
H130 C162 0.929 . S
H131 C164 0.930 . S
H132 C165 0.930 . S
H133 C163 0.929 . S
H134 C166 0.928 . S
O135 Co119 2.057 . S
O135 C123 1.232 . S
H136 C155 0.929 . S
H137 C156 0.929 . S
H138 C168 0.931 . S
H139 C160 0.929 . S
H140 C169 0.930 . S
H141 C161 0.931 . S
O142 Co118 2.097 . S
O142 C170 1.214 . S
H143 C171 0.929 . S
H144 C172 0.929 . S
H145 C173 0.930 . S
H146 C174 0.929 . S
H147 C176 0.930 . S
H148 C153 0.930 . S
H149 C157 0.930 . S
O150 Co119 2.037 . S
O150 C170 1.234 . S
C151 O125 1.269 . S
C151 O126 1.257 . S
C152 H127 0.930 . S
C152 C155 1.388 . S
C152 C157 1.418 . S
C153 H148 0.930 . S
C153 C156 1.404 . S
C153 C157 1.353 . S
N154 Co119 2.145 . S
N154 C155 1.397 . S
N154 C156 1.334 . S
C155 H136 0.929 . S
C155 C152 1.388 . S
C155 N154 1.397 . S
C156 H137 0.929 . S
C156 C153 1.404 . S
C156 N154 1.334 . S
C157 H149 0.930 . S
C157 C152 1.418 . S
C157 C153 1.353 . S
C158 H128 0.930 . S
C158 N159 1.330 . S
C158 C160 1.446 . S
N159 Co118 2.151 . S
N159 C158 1.330 . S
N159 C163 1.418 . S
C160 H139 0.929 . S
C160 C158 1.446 . S
C160 C161 1.332 . S
C161 H141 0.931 . S
C161 C160 1.332 . S
C161 C162 1.267 . S
C162 H130 0.929 . S
C162 C161 1.267 . S
C162 C163 1.251 . S
C163 H133 0.929 . S
C163 N159 1.418 . S
C163 C162 1.251 . S
C164 H131 0.930 . S
C164 C166 1.406 . S
C164 C169 1.261 . S
C165 H132 0.930 . S
C165 N167 1.325 . S
C165 C168 1.357 . S
C166 H134 0.928 . S
C166 C164 1.406 . S
C166 N167 1.261 . S
N167 Co118 2.214 . S
N167 C165 1.325 . S
N167 C166 1.261 . S
C168 H138 0.931 . S
C168 C165 1.357 . S
C168 C169 1.312 . S
C169 H140 0.930 . S
C169 C164 1.261 . S
C169 C168 1.312 . S
C170 O142 1.214 . S
C170 O150 1.234 . S
C171 H143 0.929 . S
C171 C174 1.391 . S
C171 C176 1.391 . S
C172 H144 0.929 . S
C172 C173 1.390 . S
C172 N175 1.391 . S
C173 H145 0.930 . S
C173 C172 1.390 . S
C173 C174 1.392 . S
C174 H146 0.929 . S
C174 C171 1.391 . S
C174 C173 1.392 . S
N175 Co119 2.257 . S
N175 C172 1.391 . S
N175 C176 1.388 . S
C176 H147 0.930 . S
C176 C171 1.391 . S
C176 N175 1.388 . S
Co177 O179 2.143 . S
Co177 O185 2.074 . S
Co177 O188 2.093 . S
Co177 O201 2.097 . S
Co177 N218 2.155 1_655 S
Co177 N226 2.214 1_655 S
Co178 O179 2.160 . S
Co178 O184 2.058 . S
Co178 O194 2.057 . S
Co178 O209 2.037 . S
Co178 N213 2.145 . S
Co178 N234 2.257 . S
O179 Co177 2.143 . S
O179 Co178 2.160 . S
C180 O181 1.278 . S
C180 O188 1.224 . S
O181 C180 1.278 . S
C182 O183 1.245 . S
C182 O194 1.232 . S
O183 C182 1.245 . S
O184 Co178 2.058 . S
O184 C210 1.269 . S
O185 Co177 2.074 . S
O185 C210 1.257 . S
H186 C211 0.930 . S
H187 C217 0.930 . S
O188 Co177 2.093 . S
O188 C180 1.224 . S
H189 C221 0.929 . S
H190 C223 0.930 . S
H191 C224 0.930 . S
H192 C222 0.929 . S
H193 C225 0.928 . S
O194 Co178 2.057 . S
O194 C182 1.232 . S
H195 C214 0.929 . S
H196 C215 0.929 . S
H197 C227 0.931 . S
H198 C219 0.929 . S
H199 C228 0.930 . S
H200 C220 0.931 . S
O201 Co177 2.097 . S
O201 C229 1.214 . S
H202 C230 0.929 . S
H203 C231 0.929 . S
H204 C232 0.930 . S
H205 C233 0.929 . S
H206 C235 0.930 . S
H207 C212 0.930 . S
H208 C216 0.930 . S
O209 Co178 2.037 . S
O209 C229 1.234 . S
C210 O184 1.269 . S
C210 O185 1.257 . S
C211 H186 0.930 . S
C211 C214 1.388 . S
C211 C216 1.418 . S
C212 H207 0.930 . S
C212 C215 1.404 . S
C212 C216 1.353 . S
N213 Co178 2.145 . S
N213 C214 1.397 . S
N213 C215 1.334 . S
C214 H195 0.929 . S
C214 C211 1.388 . S
C214 N213 1.397 . S
C215 H196 0.929 . S
C215 C212 1.404 . S
C215 N213 1.334 . S
C216 H208 0.930 . S
C216 C211 1.418 . S
C216 C212 1.353 . S
C217 H187 0.930 . S
C217 N218 1.317 1_655 S
C217 C219 1.446 1_655 S
N218 Co177 2.155 1_455 S
N218 C217 1.317 1_455 S
N218 C222 1.430 . S
C219 H198 0.929 . S
C219 C217 1.446 1_455 S
C219 C220 1.332 . S
C220 H200 0.931 . S
C220 C219 1.332 . S
C220 C221 1.267 . S
C221 H189 0.929 . S
C221 C220 1.267 . S
C221 C222 1.251 . S
C222 H192 0.929 . S
C222 N218 1.430 . S
C222 C221 1.251 . S
C223 H190 0.930 . S
C223 C225 1.406 . S
C223 C228 1.261 . S
C224 H191 0.930 . S
C224 N226 1.325 . S
C224 C227 1.357 . S
C225 H193 0.928 . S
C225 C223 1.406 . S
C225 N226 1.261 . S
N226 Co177 2.214 1_455 S
N226 C224 1.325 . S
N226 C225 1.261 . S
C227 H197 0.931 . S
C227 C224 1.357 . S
C227 C228 1.312 . S
C228 H199 0.930 . S
C228 C223 1.261 . S
C228 C227 1.312 . S
C229 O201 1.214 . S
C229 O209 1.234 . S
C230 H202 0.929 . S
C230 C233 1.391 . S
C230 C235 1.391 . S
C231 H203 0.929 . S
C231 C232 1.390 . S
C231 N234 1.391 . S
C232 H204 0.930 . S
C232 C231 1.390 . S
C232 C233 1.392 . S
C233 H205 0.929 . S
C233 C230 1.391 . S
C233 C232 1.392 . S
N234 Co178 2.257 . S
N234 C231 1.391 . S
N234 C235 1.388 . S
C235 H206 0.930 . S
C235 C230 1.391 . S
C235 N234 1.388 . S
Co236 O238 2.143 . S
Co236 O244 2.074 . S
Co236 O247 2.093 . S
Co236 O260 2.097 . S
Co236 N277 2.130 1_565 S
Co236 N285 2.214 1_565 S
Co237 O238 2.160 . S
Co237 O243 2.058 . S
Co237 O253 2.057 . S
Co237 O268 2.037 . S
Co237 N272 2.145 . S
Co237 N293 2.257 . S
O238 Co236 2.143 . S
O238 Co237 2.160 . S
C239 O240 1.278 . S
C239 O247 1.224 . S
O240 C239 1.278 . S
C241 O242 1.245 . S
C241 O253 1.232 . S
O242 C241 1.245 . S
O243 Co237 2.058 . S
O243 C269 1.269 . S
O244 Co236 2.074 . S
O244 C269 1.257 . S
H245 C270 0.930 . S
H246 C276 0.930 . S
O247 Co236 2.093 . S
O247 C239 1.224 . S
H248 C280 0.929 . S
H249 C282 0.930 . S
H250 C283 0.930 . S
H251 C281 0.929 . S
H252 C284 0.928 . S
O253 Co237 2.057 . S
O253 C241 1.232 . S
H254 C273 0.929 . S
H255 C274 0.929 . S
H256 C286 0.931 . S
H257 C278 0.929 . S
H258 C287 0.930 . S
H259 C279 0.931 . S
O260 Co236 2.097 . S
O260 C288 1.214 . S
H261 C289 0.929 . S
H262 C290 0.929 . S
H263 C291 0.930 . S
H264 C292 0.929 . S
H265 C294 0.930 . S
H266 C271 0.930 . S
H267 C275 0.930 . S
O268 Co237 2.037 . S
O268 C288 1.234 . S
C269 O243 1.269 . S
C269 O244 1.257 . S
C270 H245 0.930 . S
C270 C273 1.388 . S
C270 C275 1.418 . S
C271 H266 0.930 . S
C271 C274 1.404 . S
C271 C275 1.353 . S
N272 Co237 2.145 . S
N272 C273 1.397 . S
N272 C274 1.334 . S
C273 H254 0.929 . S
C273 C270 1.388 . S
C273 N272 1.397 . S
C274 H255 0.929 . S
C274 C271 1.404 . S
C274 N272 1.334 . S
C275 H267 0.930 . S
C275 C270 1.418 . S
C275 C271 1.353 . S
C276 H246 0.930 . S
C276 N277 1.335 1_565 S
C276 C278 1.446 1_565 S
N277 Co236 2.130 1_545 S
N277 C276 1.335 1_545 S
N277 C281 1.437 . S
C278 H257 0.929 . S
C278 C276 1.446 1_545 S
C278 C279 1.332 . S
C279 H259 0.931 . S
C279 C278 1.332 . S
C279 C280 1.267 . S
C280 H248 0.929 . S
C280 C279 1.267 . S
C280 C281 1.251 . S
C281 H251 0.929 . S
C281 N277 1.437 . S
C281 C280 1.251 . S
C282 H249 0.930 . S
C282 C284 1.406 . S
C282 C287 1.261 . S
C283 H250 0.930 . S
C283 N285 1.325 . S
C283 C286 1.357 . S
C284 H252 0.928 . S
C284 C282 1.406 . S
C284 N285 1.261 . S
N285 Co236 2.214 1_545 S
N285 C283 1.325 . S
N285 C284 1.261 . S
C286 H256 0.931 . S
C286 C283 1.357 . S
C286 C287 1.312 . S
C287 H258 0.930 . S
C287 C282 1.261 . S
C287 C286 1.312 . S
C288 O260 1.214 . S
C288 O268 1.234 . S
C289 H261 0.929 . S
C289 C292 1.391 . S
C289 C294 1.391 . S
C290 H262 0.929 . S
C290 C291 1.390 . S
C290 N293 1.391 . S
C291 H263 0.930 . S
C291 C290 1.390 . S
C291 C292 1.392 . S
C292 H264 0.929 . S
C292 C289 1.391 . S
C292 C291 1.392 . S
N293 Co237 2.257 . S
N293 C290 1.391 . S
N293 C294 1.388 . S
C294 H265 0.930 . S
C294 C289 1.391 . S
C294 N293 1.388 . S
Co295 O297 2.143 . S
Co295 O303 2.074 . S
Co295 O306 2.093 . S
Co295 O319 2.097 . S
Co295 N336 2.151 . S
Co295 N344 2.214 . S
Co296 O297 2.160 . S
Co296 O302 2.058 . S
Co296 O312 2.057 . S
Co296 O327 2.037 . S
Co296 N331 2.145 . S
Co296 N352 2.257 . S
O297 Co295 2.143 . S
O297 Co296 2.160 . S
C298 O299 1.278 . S
C298 O306 1.224 . S
O299 C298 1.278 . S
C300 O301 1.245 . S
C300 O312 1.232 . S
O301 C300 1.245 . S
O302 Co296 2.058 . S
O302 C328 1.269 . S
O303 Co295 2.074 . S
O303 C328 1.257 . S
H304 C329 0.930 . S
H305 C335 0.930 . S
O306 Co295 2.093 . S
O306 C298 1.224 . S
H307 C339 0.929 . S
H308 C341 0.930 . S
H309 C342 0.930 . S
H310 C340 0.929 . S
H311 C343 0.928 . S
O312 Co296 2.057 . S
O312 C300 1.232 . S
H313 C332 0.929 . S
H314 C333 0.929 . S
H315 C345 0.931 . S
H316 C337 0.929 . S
H317 C346 0.930 . S
H318 C338 0.931 . S
O319 Co295 2.097 . S
O319 C347 1.214 . S
H320 C348 0.929 . S
H321 C349 0.929 . S
H322 C350 0.930 . S
H323 C351 0.929 . S
H324 C353 0.930 . S
H325 C330 0.930 . S
H326 C334 0.930 . S
O327 Co296 2.037 . S
O327 C347 1.234 . S
C328 O302 1.269 . S
C328 O303 1.257 . S
C329 H304 0.930 . S
C329 C332 1.388 . S
C329 C334 1.418 . S
C330 H325 0.930 . S
C330 C333 1.404 . S
C330 C334 1.353 . S
N331 Co296 2.145 . S
N331 C332 1.397 . S
N331 C333 1.334 . S
C332 H313 0.929 . S
C332 C329 1.388 . S
C332 N331 1.397 . S
C333 H314 0.929 . S
C333 C330 1.404 . S
C333 N331 1.334 . S
C334 H326 0.930 . S
C334 C329 1.418 . S
C334 C330 1.353 . S
C335 H305 0.930 . S
C335 N336 1.330 . S
C335 C337 1.446 . S
N336 Co295 2.151 . S
N336 C335 1.330 . S
N336 C340 1.418 . S
C337 H316 0.929 . S
C337 C335 1.446 . S
C337 C338 1.332 . S
C338 H318 0.931 . S
C338 C337 1.332 . S
C338 C339 1.267 . S
C339 H307 0.929 . S
C339 C338 1.267 . S
C339 C340 1.251 . S
C340 H310 0.929 . S
C340 N336 1.418 . S
C340 C339 1.251 . S
C341 H308 0.930 . S
C341 C343 1.406 . S
C341 C346 1.261 . S
C342 H309 0.930 . S
C342 N344 1.325 . S
C342 C345 1.357 . S
C343 H311 0.928 . S
C343 C341 1.406 . S
C343 N344 1.261 . S
N344 Co295 2.214 . S
N344 C342 1.325 . S
N344 C343 1.261 . S
C345 H315 0.931 . S
C345 C342 1.357 . S
C345 C346 1.312 . S
C346 H317 0.930 . S
C346 C341 1.261 . S
C346 C345 1.312 . S
C347 O319 1.214 . S
C347 O327 1.234 . S
C348 H320 0.929 . S
C348 C351 1.391 . S
C348 C353 1.391 . S
C349 H321 0.929 . S
C349 C350 1.390 . S
C349 N352 1.391 . S
C350 H322 0.930 . S
C350 C349 1.390 . S
C350 C351 1.392 . S
C351 H323 0.929 . S
C351 C348 1.391 . S
C351 C350 1.392 . S
N352 Co296 2.257 . S
N352 C349 1.391 . S
N352 C353 1.388 . S
C353 H324 0.930 . S
C353 C348 1.391 . S
C353 N352 1.388 . S
Co354 O356 2.143 . S
Co354 O362 2.074 . S
Co354 O365 2.093 . S
Co354 O378 2.097 . S
Co354 N395 2.155 1_565 S
Co354 N403 2.214 1_565 S
Co355 O356 2.160 . S
Co355 O361 2.058 . S
Co355 O371 2.057 . S
Co355 O386 2.037 . S
Co355 N390 2.145 . S
Co355 N411 2.257 . S
O356 Co354 2.143 . S
O356 Co355 2.160 . S
C357 O358 1.278 . S
C357 O365 1.224 . S
O358 C357 1.278 . S
C359 O360 1.245 . S
C359 O371 1.232 . S
O360 C359 1.245 . S
O361 Co355 2.058 . S
O361 C387 1.269 . S
O362 Co354 2.074 . S
O362 C387 1.257 . S
H363 C388 0.930 . S
H364 C394 0.930 . S
O365 Co354 2.093 . S
O365 C357 1.224 . S
H366 C398 0.929 . S
H367 C400 0.930 . S
H368 C401 0.930 . S
H369 C399 0.929 . S
H370 C402 0.928 . S
O371 Co355 2.057 . S
O371 C359 1.232 . S
H372 C391 0.929 . S
H373 C392 0.929 . S
H374 C404 0.931 . S
H375 C396 0.929 . S
H376 C405 0.930 . S
H377 C397 0.931 . S
O378 Co354 2.097 . S
O378 C406 1.214 . S
H379 C407 0.929 . S
H380 C408 0.929 . S
H381 C409 0.930 . S
H382 C410 0.929 . S
H383 C412 0.930 . S
H384 C389 0.930 . S
H385 C393 0.930 . S
O386 Co355 2.037 . S
O386 C406 1.234 . S
C387 O361 1.269 . S
C387 O362 1.257 . S
C388 H363 0.930 . S
C388 C391 1.388 . S
C388 C393 1.418 . S
C389 H384 0.930 . S
C389 C392 1.404 . S
C389 C393 1.353 . S
N390 Co355 2.145 . S
N390 C391 1.397 . S
N390 C392 1.334 . S
C391 H372 0.929 . S
C391 C388 1.388 . S
C391 N390 1.397 . S
C392 H373 0.929 . S
C392 C389 1.404 . S
C392 N390 1.334 . S
C393 H385 0.930 . S
C393 C388 1.418 . S
C393 C389 1.353 . S
C394 H364 0.930 . S
C394 N395 1.317 1_565 S
C394 C396 1.446 1_565 S
N395 Co354 2.155 1_545 S
N395 C394 1.317 1_545 S
N395 C399 1.430 . S
C396 H375 0.929 . S
C396 C394 1.446 1_545 S
C396 C397 1.332 . S
C397 H377 0.931 . S
C397 C396 1.332 . S
C397 C398 1.267 . S
C398 H366 0.929 . S
C398 C397 1.267 . S
C398 C399 1.251 . S
C399 H369 0.929 . S
C399 N395 1.430 . S
C399 C398 1.251 . S
C400 H367 0.930 . S
C400 C402 1.406 . S
C400 C405 1.261 . S
C401 H368 0.930 . S
C401 N403 1.325 . S
C401 C404 1.357 . S
C402 H370 0.928 . S
C402 C400 1.406 . S
C402 N403 1.261 . S
N403 Co354 2.214 1_545 S
N403 C401 1.325 . S
N403 C402 1.261 . S
C404 H374 0.931 . S
C404 C401 1.357 . S
C404 C405 1.312 . S
C405 H376 0.930 . S
C405 C400 1.261 . S
C405 C404 1.312 . S
C406 O378 1.214 . S
C406 O386 1.234 . S
C407 H379 0.929 . S
C407 C410 1.391 . S
C407 C412 1.391 . S
C408 H380 0.929 . S
C408 C409 1.390 . S
C408 N411 1.391 . S
C409 H381 0.930 . S
C409 C408 1.390 . S
C409 C410 1.392 . S
C410 H382 0.929 . S
C410 C407 1.391 . S
C410 C409 1.392 . S
N411 Co355 2.257 . S
N411 C408 1.391 . S
N411 C412 1.388 . S
C412 H383 0.930 . S
C412 C407 1.391 . S
C412 N411 1.388 . S
Co413 O415 2.143 . S
Co413 O421 2.074 . S
Co413 O424 2.093 . S
Co413 O437 2.097 . S
Co413 N454 2.151 . S
Co413 N462 2.214 . S
Co414 O415 2.160 . S
Co414 O420 2.058 . S
Co414 O430 2.057 . S
Co414 O445 2.037 . S
Co414 N449 2.145 . S
Co414 N470 2.257 . S
O415 Co413 2.143 . S
O415 Co414 2.160 . S
C416 O417 1.278 . S
C416 O424 1.224 . S
O417 C416 1.278 . S
C418 O419 1.245 . S
C418 O430 1.232 . S
O419 C418 1.245 . S
O420 Co414 2.058 . S
O420 C446 1.269 . S
O421 Co413 2.074 . S
O421 C446 1.257 . S
H422 C447 0.930 . S
H423 C453 0.930 . S
O424 Co413 2.093 . S
O424 C416 1.224 . S
H425 C457 0.929 . S
H426 C459 0.930 . S
H427 C460 0.930 . S
H428 C458 0.929 . S
H429 C461 0.928 . S
O430 Co414 2.057 . S
O430 C418 1.232 . S
H431 C450 0.929 . S
H432 C451 0.929 . S
H433 C463 0.931 . S
H434 C455 0.929 . S
H435 C464 0.930 . S
H436 C456 0.931 . S
O437 Co413 2.097 . S
O437 C465 1.214 . S
H438 C466 0.929 . S
H439 C467 0.929 . S
H440 C468 0.930 . S
H441 C469 0.929 . S
H442 C471 0.930 . S
H443 C448 0.930 . S
H444 C452 0.930 . S
O445 Co414 2.037 . S
O445 C465 1.234 . S
C446 O420 1.269 . S
C446 O421 1.257 . S
C447 H422 0.930 . S
C447 C450 1.388 . S
C447 C452 1.418 . S
C448 H443 0.930 . S
C448 C451 1.404 . S
C448 C452 1.353 . S
N449 Co414 2.145 . S
N449 C450 1.397 . S
N449 C451 1.334 . S
C450 H431 0.929 . S
C450 C447 1.388 . S
C450 N449 1.397 . S
C451 H432 0.929 . S
C451 C448 1.404 . S
C451 N449 1.334 . S
C452 H444 0.930 . S
C452 C447 1.418 . S
C452 C448 1.353 . S
C453 H423 0.930 . S
C453 N454 1.330 . S
C453 C455 1.446 . S
N454 Co413 2.151 . S
N454 C453 1.330 . S
N454 C458 1.418 . S
C455 H434 0.929 . S
C455 C453 1.446 . S
C455 C456 1.332 . S
C456 H436 0.931 . S
C456 C455 1.332 . S
C456 C457 1.267 . S
C457 H425 0.929 . S
C457 C456 1.267 . S
C457 C458 1.251 . S
C458 H428 0.929 . S
C458 N454 1.418 . S
C458 C457 1.251 . S
C459 H426 0.930 . S
C459 C461 1.406 . S
C459 C464 1.261 . S
C460 H427 0.930 . S
C460 N462 1.325 . S
C460 C463 1.357 . S
C461 H429 0.928 . S
C461 C459 1.406 . S
C461 N462 1.261 . S
N462 Co413 2.214 . S
N462 C460 1.325 . S
N462 C461 1.261 . S
C463 H433 0.931 . S
C463 C460 1.357 . S
C463 C464 1.312 . S
C464 H435 0.930 . S
C464 C459 1.261 . S
C464 C463 1.312 . S
C465 O437 1.214 . S
C465 O445 1.234 . S
C466 H438 0.929 . S
C466 C469 1.391 . S
C466 C471 1.391 . S
C467 H439 0.929 . S
C467 C468 1.390 . S
C467 N470 1.391 . S
C468 H440 0.930 . S
C468 C467 1.390 . S
C468 C469 1.392 . S
C469 H441 0.929 . S
C469 C466 1.391 . S
C469 C468 1.392 . S
N470 Co414 2.257 . S
N470 C467 1.391 . S
N470 C471 1.388 . S
C471 H442 0.930 . S
C471 C466 1.391 . S
C471 N470 1.388 . S
Co472 O474 2.143 . S
Co472 O480 2.074 . S
Co472 O483 2.093 . S
Co472 O496 2.097 . S
Co472 N513 2.130 1_455 S
Co472 N521 2.214 1_455 S
Co473 O474 2.160 . S
Co473 O479 2.058 . S
Co473 O489 2.057 . S
Co473 O504 2.037 . S
Co473 N508 2.145 . S
Co473 N529 2.257 . S
O474 Co472 2.143 . S
O474 Co473 2.160 . S
C475 O476 1.278 . S
C475 O483 1.224 . S
O476 C475 1.278 . S
C477 O478 1.245 . S
C477 O489 1.232 . S
O478 C477 1.245 . S
O479 Co473 2.058 . S
O479 C505 1.269 . S
O480 Co472 2.074 . S
O480 C505 1.257 . S
H481 C506 0.930 . S
H482 C512 0.930 . S
O483 Co472 2.093 . S
O483 C475 1.224 . S
H484 C516 0.929 . S
H485 C518 0.930 . S
H486 C519 0.930 . S
H487 C517 0.929 . S
H488 C520 0.928 . S
O489 Co473 2.057 . S
O489 C477 1.232 . S
H490 C509 0.929 . S
H491 C510 0.929 . S
H492 C522 0.931 . S
H493 C514 0.929 . S
H494 C523 0.930 . S
H495 C515 0.931 . S
O496 Co472 2.097 . S
O496 C524 1.214 . S
H497 C525 0.929 . S
H498 C526 0.929 . S
H499 C527 0.930 . S
H500 C528 0.929 . S
H501 C530 0.930 . S
H502 C507 0.930 . S
H503 C511 0.930 . S
O504 Co473 2.037 . S
O504 C524 1.234 . S
C505 O479 1.269 . S
C505 O480 1.257 . S
C506 H481 0.930 . S
C506 C509 1.388 . S
C506 C511 1.418 . S
C507 H502 0.930 . S
C507 C510 1.404 . S
C507 C511 1.353 . S
N508 Co473 2.145 . S
N508 C509 1.397 . S
N508 C510 1.334 . S
C509 H490 0.929 . S
C509 C506 1.388 . S
C509 N508 1.397 . S
C510 H491 0.929 . S
C510 C507 1.404 . S
C510 N508 1.334 . S
C511 H503 0.930 . S
C511 C506 1.418 . S
C511 C507 1.353 . S
C512 H482 0.930 . S
C512 N513 1.335 1_455 S
C512 C514 1.446 1_455 S
N513 Co472 2.130 1_655 S
N513 C512 1.335 1_655 S
N513 C517 1.437 . S
C514 H493 0.929 . S
C514 C512 1.446 1_655 S
C514 C515 1.332 . S
C515 H495 0.931 . S
C515 C514 1.332 . S
C515 C516 1.267 . S
C516 H484 0.929 . S
C516 C515 1.267 . S
C516 C517 1.251 . S
C517 H487 0.929 . S
C517 N513 1.437 . S
C517 C516 1.251 . S
C518 H485 0.930 . S
C518 C520 1.406 . S
C518 C523 1.261 . S
C519 H486 0.930 . S
C519 N521 1.325 . S
C519 C522 1.357 . S
C520 H488 0.928 . S
C520 C518 1.406 . S
C520 N521 1.261 . S
N521 Co472 2.214 1_655 S
N521 C519 1.325 . S
N521 C520 1.261 . S
C522 H492 0.931 . S
C522 C519 1.357 . S
C522 C523 1.312 . S
C523 H494 0.930 . S
C523 C518 1.261 . S
C523 C522 1.312 . S
C524 O496 1.214 . S
C524 O504 1.234 . S
C525 H497 0.929 . S
C525 C528 1.391 . S
C525 C530 1.391 . S
C526 H498 0.929 . S
C526 C527 1.390 . S
C526 N529 1.391 . S
C527 H499 0.930 . S
C527 C526 1.390 . S
C527 C528 1.392 . S
C528 H500 0.929 . S
C528 C525 1.391 . S
C528 C527 1.392 . S
N529 Co473 2.257 . S
N529 C526 1.391 . S
N529 C530 1.388 . S
C530 H501 0.930 . S
C530 C525 1.391 . S
C530 N529 1.388 . S
Co531 O533 2.143 . S
Co531 O539 2.074 . S
Co531 O542 2.093 . S
Co531 O555 2.097 . S
Co531 N572 2.155 1_545 S
Co531 N580 2.214 1_545 S
Co532 O533 2.160 . S
Co532 O538 2.058 . S
Co532 O548 2.057 . S
Co532 O563 2.037 . S
Co532 N567 2.145 . S
Co532 N588 2.257 . S
O533 Co531 2.143 . S
O533 Co532 2.160 . S
C534 O535 1.278 . S
C534 O542 1.224 . S
O535 C534 1.278 . S
C536 O537 1.245 . S
C536 O548 1.232 . S
O537 C536 1.245 . S
O538 Co532 2.058 . S
O538 C564 1.269 . S
O539 Co531 2.074 . S
O539 C564 1.257 . S
H540 C565 0.930 . S
H541 C571 0.930 . S
O542 Co531 2.093 . S
O542 C534 1.224 . S
H543 C575 0.929 . S
H544 C577 0.930 . S
H545 C578 0.930 . S
H546 C576 0.929 . S
H547 C579 0.928 . S
O548 Co532 2.057 . S
O548 C536 1.232 . S
H549 C568 0.929 . S
H550 C569 0.929 . S
H551 C581 0.931 . S
H552 C573 0.929 . S
H553 C582 0.930 . S
H554 C574 0.931 . S
O555 Co531 2.097 . S
O555 C583 1.214 . S
H556 C584 0.929 . S
H557 C585 0.929 . S
H558 C586 0.930 . S
H559 C587 0.929 . S
H560 C589 0.930 . S
H561 C566 0.930 . S
H562 C570 0.930 . S
O563 Co532 2.037 . S
O563 C583 1.234 . S
C564 O538 1.269 . S
C564 O539 1.257 . S
C565 H540 0.930 . S
C565 C568 1.388 . S
C565 C570 1.418 . S
C566 H561 0.930 . S
C566 C569 1.404 . S
C566 C570 1.353 . S
N567 Co532 2.145 . S
N567 C568 1.397 . S
N567 C569 1.334 . S
C568 H549 0.929 . S
C568 C565 1.388 . S
C568 N567 1.397 . S
C569 H550 0.929 . S
C569 C566 1.404 . S
C569 N567 1.334 . S
C570 H562 0.930 . S
C570 C565 1.418 . S
C570 C566 1.353 . S
C571 H541 0.930 . S
C571 N572 1.317 1_545 S
C571 C573 1.446 1_545 S
N572 Co531 2.155 1_565 S
N572 C571 1.317 1_565 S
N572 C576 1.430 . S
C573 H552 0.929 . S
C573 C571 1.446 1_565 S
C573 C574 1.332 . S
C574 H554 0.931 . S
C574 C573 1.332 . S
C574 C575 1.267 . S
C575 H543 0.929 . S
C575 C574 1.267 . S
C575 C576 1.251 . S
C576 H546 0.929 . S
C576 N572 1.430 . S
C576 C575 1.251 . S
C577 H544 0.930 . S
C577 C579 1.406 . S
C577 C582 1.261 . S
C578 H545 0.930 . S
C578 N580 1.325 . S
C578 C581 1.357 . S
C579 H547 0.928 . S
C579 C577 1.406 . S
C579 N580 1.261 . S
N580 Co531 2.214 1_565 S
N580 C578 1.325 . S
N580 C579 1.261 . S
C581 H551 0.931 . S
C581 C578 1.357 . S
C581 C582 1.312 . S
C582 H553 0.930 . S
C582 C577 1.261 . S
C582 C581 1.312 . S
C583 O555 1.214 . S
C583 O563 1.234 . S
C584 H556 0.929 . S
C584 C587 1.391 . S
C584 C589 1.391 . S
C585 H557 0.929 . S
C585 C586 1.390 . S
C585 N588 1.391 . S
C586 H558 0.930 . S
C586 C585 1.390 . S
C586 C587 1.392 . S
C587 H559 0.929 . S
C587 C584 1.391 . S
C587 C586 1.392 . S
N588 Co532 2.257 . S
N588 C585 1.391 . S
N588 C589 1.388 . S
C589 H560 0.930 . S
C589 C584 1.391 . S
C589 N588 1.388 . S
Co590 O592 2.143 . S
Co590 O598 2.074 . S
Co590 O601 2.093 . S
Co590 O614 2.097 . S
Co590 N631 2.151 . S
Co590 N639 2.214 . S
Co591 O592 2.160 . S
Co591 O597 2.058 . S
Co591 O607 2.057 . S
Co591 O622 2.037 . S
Co591 N626 2.145 . S
Co591 N647 2.257 . S
O592 Co590 2.143 . S
O592 Co591 2.160 . S
C593 O594 1.278 . S
C593 O601 1.224 . S
O594 C593 1.278 . S
C595 O596 1.245 . S
C595 O607 1.232 . S
O596 C595 1.245 . S
O597 Co591 2.058 . S
O597 C623 1.269 . S
O598 Co590 2.074 . S
O598 C623 1.257 . S
H599 C624 0.930 . S
H600 C630 0.930 . S
O601 Co590 2.093 . S
O601 C593 1.224 . S
H602 C634 0.929 . S
H603 C636 0.930 . S
H604 C637 0.930 . S
H605 C635 0.929 . S
H606 C638 0.928 . S
O607 Co591 2.057 . S
O607 C595 1.232 . S
H608 C627 0.929 . S
H609 C628 0.929 . S
H610 C640 0.931 . S
H611 C632 0.929 . S
H612 C641 0.930 . S
H613 C633 0.931 . S
O614 Co590 2.097 . S
O614 C642 1.214 . S
H615 C643 0.929 . S
H616 C644 0.929 . S
H617 C645 0.930 . S
H618 C646 0.929 . S
H619 C648 0.930 . S
H620 C625 0.930 . S
H621 C629 0.930 . S
O622 Co591 2.037 . S
O622 C642 1.234 . S
C623 O597 1.269 . S
C623 O598 1.257 . S
C624 H599 0.930 . S
C624 C627 1.388 . S
C624 C629 1.418 . S
C625 H620 0.930 . S
C625 C628 1.404 . S
C625 C629 1.353 . S
N626 Co591 2.145 . S
N626 C627 1.397 . S
N626 C628 1.334 . S
C627 H608 0.929 . S
C627 C624 1.388 . S
C627 N626 1.397 . S
C628 H609 0.929 . S
C628 C625 1.404 . S
C628 N626 1.334 . S
C629 H621 0.930 . S
C629 C624 1.418 . S
C629 C625 1.353 . S
C630 H600 0.930 . S
C630 N631 1.330 . S
C630 C632 1.446 . S
N631 Co590 2.151 . S
N631 C630 1.330 . S
N631 C635 1.418 . S
C632 H611 0.929 . S
C632 C630 1.446 . S
C632 C633 1.332 . S
C633 H613 0.931 . S
C633 C632 1.332 . S
C633 C634 1.267 . S
C634 H602 0.929 . S
C634 C633 1.267 . S
C634 C635 1.251 . S
C635 H605 0.929 . S
C635 N631 1.418 . S
C635 C634 1.251 . S
C636 H603 0.930 . S
C636 C638 1.406 . S
C636 C641 1.261 . S
C637 H604 0.930 . S
C637 N639 1.325 . S
C637 C640 1.357 . S
C638 H606 0.928 . S
C638 C636 1.406 . S
C638 N639 1.261 . S
N639 Co590 2.214 . S
N639 C637 1.325 . S
N639 C638 1.261 . S
C640 H610 0.931 . S
C640 C637 1.357 . S
C640 C641 1.312 . S
C641 H612 0.930 . S
C641 C636 1.261 . S
C641 C640 1.312 . S
C642 O614 1.214 . S
C642 O622 1.234 . S
C643 H615 0.929 . S
C643 C646 1.391 . S
C643 C648 1.391 . S
C644 H616 0.929 . S
C644 C645 1.390 . S
C644 N647 1.391 . S
C645 H617 0.930 . S
C645 C644 1.390 . S
C645 C646 1.392 . S
C646 H618 0.929 . S
C646 C643 1.391 . S
C646 C645 1.392 . S
N647 Co591 2.257 . S
N647 C644 1.391 . S
N647 C648 1.388 . S
C648 H619 0.930 . S
C648 C643 1.391 . S
C648 N647 1.388 . S
Co649 O651 2.143 . S
Co649 O657 2.074 . S
Co649 O660 2.093 . S
Co649 O673 2.097 . S
Co649 N690 2.130 1_655 S
Co649 N698 2.214 1_655 S
Co650 O651 2.160 . S
Co650 O656 2.058 . S
Co650 O666 2.057 . S
Co650 O681 2.037 . S
Co650 N685 2.145 . S
Co650 N706 2.257 . S
O651 Co649 2.143 . S
O651 Co650 2.160 . S
C652 O653 1.278 . S
C652 O660 1.224 . S
O653 C652 1.278 . S
C654 O655 1.245 . S
C654 O666 1.232 . S
O655 C654 1.245 . S
O656 Co650 2.058 . S
O656 C682 1.269 . S
O657 Co649 2.074 . S
O657 C682 1.257 . S
H658 C683 0.930 . S
H659 C689 0.930 . S
O660 Co649 2.093 . S
O660 C652 1.224 . S
H661 C693 0.929 . S
H662 C695 0.930 . S
H663 C696 0.930 . S
H664 C694 0.929 . S
H665 C697 0.928 . S
O666 Co650 2.057 . S
O666 C654 1.232 . S
H667 C686 0.929 . S
H668 C687 0.929 . S
H669 C699 0.931 . S
H670 C691 0.929 . S
H671 C700 0.930 . S
H672 C692 0.931 . S
O673 Co649 2.097 . S
O673 C701 1.214 . S
H674 C702 0.929 . S
H675 C703 0.929 . S
H676 C704 0.930 . S
H677 C705 0.929 . S
H678 C707 0.930 . S
H679 C684 0.930 . S
H680 C688 0.930 . S
O681 Co650 2.037 . S
O681 C701 1.234 . S
C682 O656 1.269 . S
C682 O657 1.257 . S
C683 H658 0.930 . S
C683 C686 1.388 . S
C683 C688 1.418 . S
C684 H679 0.930 . S
C684 C687 1.404 . S
C684 C688 1.353 . S
N685 Co650 2.145 . S
N685 C686 1.397 . S
N685 C687 1.334 . S
C686 H667 0.929 . S
C686 C683 1.388 . S
C686 N685 1.397 . S
C687 H668 0.929 . S
C687 C684 1.404 . S
C687 N685 1.334 . S
C688 H680 0.930 . S
C688 C683 1.418 . S
C688 C684 1.353 . S
C689 H659 0.930 . S
C689 N690 1.335 1_655 S
C689 C691 1.446 1_655 S
N690 Co649 2.130 1_455 S
N690 C689 1.335 1_455 S
N690 C694 1.437 . S
C691 H670 0.929 . S
C691 C689 1.446 1_455 S
C691 C692 1.332 . S
C692 H672 0.931 . S
C692 C691 1.332 . S
C692 C693 1.267 . S
C693 H661 0.929 . S
C693 C692 1.267 . S
C693 C694 1.251 . S
C694 H664 0.929 . S
C694 N690 1.437 . S
C694 C693 1.251 . S
C695 H662 0.930 . S
C695 C697 1.406 . S
C695 C700 1.261 . S
C696 H663 0.930 . S
C696 N698 1.325 . S
C696 C699 1.357 . S
C697 H665 0.928 . S
C697 C695 1.406 . S
C697 N698 1.261 . S
N698 Co649 2.214 1_455 S
N698 C696 1.325 . S
N698 C697 1.261 . S
C699 H669 0.931 . S
C699 C696 1.357 . S
C699 C700 1.312 . S
C700 H671 0.930 . S
C700 C695 1.261 . S
C700 C699 1.312 . S
C701 O673 1.214 . S
C701 O681 1.234 . S
C702 H674 0.929 . S
C702 C705 1.391 . S
C702 C707 1.391 . S
C703 H675 0.929 . S
C703 C704 1.390 . S
C703 N706 1.391 . S
C704 H676 0.930 . S
C704 C703 1.390 . S
C704 C705 1.392 . S
C705 H677 0.929 . S
C705 C702 1.391 . S
C705 C704 1.392 . S
N706 Co650 2.257 . S
N706 C703 1.391 . S
N706 C707 1.388 . S
C707 H678 0.930 . S
C707 C702 1.391 . S
C707 N706 1.388 . S
H708 C726 0.951 . S
H709 C728 0.951 . S
H710 C730 0.950 . S
H711 C731 0.950 . S
H712 C733 0.950 . S
H713 C736 0.950 . S
H714 C737 0.950 . S
H715 C739 0.950 . S
H716 C740 0.950 . S
H717 C741 0.951 . S
H718 C743 0.951 . S
H719 C745 0.950 . S
H720 C746 0.950 . S
H721 C748 0.950 . S
H722 C751 0.950 . S
H723 C752 0.950 . S
H724 C754 0.950 . S
H725 C755 0.950 . S
C726 H708 0.951 . S
C726 C727 1.366 . S
C726 C728 1.388 . S
C727 C726 1.366 . S
C727 C731 1.385 . S
C728 H709 0.951 . S
C728 C726 1.388 . S
C728 C729 1.366 . S
C729 C728 1.366 . S
C729 C730 1.414 . S
C729 C732 1.499 . S
C730 H710 0.950 . S
C730 C729 1.414 . S
C730 C731 1.374 . S
C731 H711 0.950 . S
C731 C727 1.385 . S
C731 C730 1.374 . S
C732 C729 1.499 . S
C732 C733 1.373 . S
C732 C734 1.389 1_455 S
C733 H712 0.950 . S
C733 C732 1.373 . S
C733 C749 1.377 1_554 S
C734 C732 1.389 1_655 S
C734 C735 1.524 . S
C734 C748 1.377 1_554 S
C735 C734 1.524 . S
C735 C736 1.397 . S
C735 C740 1.363 . S
C736 H713 0.950 . S
C736 C735 1.397 . S
C736 C737 1.334 . S
C737 H714 0.950 . S
C737 C736 1.334 . S
C737 C738 1.287 . S
C738 C737 1.287 . S
C738 C739 1.524 . S
C738 H757 0.913 . S
C739 H715 0.950 . S
C739 C738 1.524 . S
C739 C740 1.415 . S
C740 H716 0.950 . S
C740 C735 1.363 . S
C740 C739 1.415 . S
C741 H717 0.951 . S
C741 C742 1.366 . S
C741 C743 1.388 . S
C742 C741 1.366 . S
C742 C746 1.385 . S
C743 H718 0.951 . S
C743 C741 1.388 . S
C743 C744 1.366 . S
C744 C743 1.366 . S
C744 C745 1.414 . S
C744 C747 1.499 . S
C745 H719 0.950 . S
C745 C744 1.414 . S
C745 C746 1.374 . S
C746 H720 0.950 . S
C746 C742 1.385 . S
C746 C745 1.374 . S
C747 C744 1.499 . S
C747 C748 1.373 . S
C747 C749 1.389 1_655 S
C748 H721 0.950 . S
C748 C734 1.377 1_556 S
C748 C747 1.373 . S
C749 C733 1.377 1_556 S
C749 C747 1.389 1_455 S
C749 C750 1.524 . S
C750 C749 1.524 . S
C750 C751 1.397 . S
C750 C755 1.363 . S
C751 H722 0.950 . S
C751 C750 1.397 . S
C751 C752 1.334 . S
C752 H723 0.950 . S
C752 C751 1.334 . S
C752 C753 1.287 . S
C753 C752 1.287 . S
C753 C754 1.524 . S
C753 H756 0.999 . S
C754 H724 0.950 . S
C754 C753 1.524 . S
C754 C755 1.415 . S
C755 H725 0.950 . S
C755 C750 1.363 . S
C755 C754 1.415 . S
H756 C753 0.999 . S
H757 C738 0.913 . S
H758 C776 0.951 . S
H759 C778 0.951 . S
H760 C780 0.950 1_545 S
H761 C781 0.950 . S
H762 C783 0.950 . S
H763 C786 0.950 . S
H764 C787 0.950 . S
H765 C789 0.948 . S
H766 C790 0.948 1_565 S
H767 C791 0.951 . S
H768 C793 0.951 . S
H769 C795 0.950 1_565 S
H770 C796 0.950 . S
H771 C798 0.950 . S
H772 C801 0.950 . S
H773 C802 0.950 . S
H774 C804 0.947 . S
H775 C805 0.948 1_545 S
C776 H758 0.951 . S
C776 C777 1.366 . S
C776 C778 1.388 . S
C777 C776 1.366 . S
C777 C781 1.385 . S
C778 H759 0.951 . S
C778 C776 1.388 . S
C778 C779 1.366 . S
C779 C778 1.366 . S
C779 C780 1.414 . S
C779 C782 1.499 . S
C780 H760 0.950 1_565 S
C780 C779 1.414 . S
C780 C781 1.374 . S
C781 H761 0.950 . S
C781 C777 1.385 . S
C781 C780 1.374 . S
C782 C779 1.499 . S
C782 C783 1.373 . S
C782 C784 1.389 1_565 S
C783 H762 0.950 . S
C783 C782 1.373 . S
C783 C799 1.377 . S
C784 C782 1.389 1_545 S
C784 C785 1.524 . S
C784 C798 1.377 . S
C785 C784 1.524 . S
C785 C786 1.397 . S
C785 C790 1.362 . S
C786 H763 0.950 . S
C786 C785 1.397 . S
C786 C787 1.334 . S
C787 H764 0.950 . S
C787 C786 1.334 . S
C787 C788 1.287 . S
C788 C787 1.287 . S
C788 C789 1.524 . S
C788 H807 0.913 . S
C789 H765 0.948 . S
C789 C788 1.524 . S
C789 C790 1.418 . S
C790 H766 0.948 1_545 S
C790 C785 1.362 . S
C790 C789 1.418 . S
C791 H767 0.951 . S
C791 C792 1.366 . S
C791 C793 1.388 . S
C792 C791 1.366 . S
C792 C796 1.385 . S
C793 H768 0.951 . S
C793 C791 1.388 . S
C793 C794 1.366 . S
C794 C793 1.366 . S
C794 C795 1.414 . S
C794 C797 1.499 . S
C795 H769 0.950 1_545 S
C795 C794 1.414 . S
C795 C796 1.374 . S
C796 H770 0.950 . S
C796 C792 1.385 . S
C796 C795 1.374 . S
C797 C794 1.499 . S
C797 C798 1.373 . S
C797 C799 1.389 1_545 S
C798 H771 0.950 . S
C798 C784 1.377 . S
C798 C797 1.373 . S
C799 C783 1.377 . S
C799 C797 1.389 1_565 S
C799 C800 1.524 . S
C800 C799 1.524 . S
C800 C801 1.397 . S
C800 C805 1.362 . S
C801 H772 0.950 . S
C801 C800 1.397 . S
C801 C802 1.334 . S
C802 H773 0.950 . S
C802 C801 1.334 . S
C802 C803 1.287 . S
C803 C802 1.287 . S
C803 C804 1.524 . S
C803 H806 0.999 . S
C804 H774 0.947 . S
C804 C803 1.524 . S
C804 C805 1.418 . S
C805 H775 0.948 1_565 S
C805 C800 1.362 . S
C805 C804 1.418 . S
H806 C803 0.999 . S
H807 C788 0.913 . S
H808 C826 0.951 . S
H809 C828 0.951 . S
H810 C830 0.950 . S
H811 C831 0.950 . S
H812 C833 0.950 . S
H813 C836 0.950 . S
H814 C837 0.950 . S
H815 C839 0.950 . S
H816 C840 0.950 1_556 S
H817 C841 0.951 . S
H818 C843 0.951 . S
H819 C845 0.950 . S
H820 C846 0.950 . S
H821 C848 0.950 . S
H822 C851 0.950 . S
H823 C852 0.950 . S
H824 C854 0.950 . S
H825 C855 0.950 1_554 S
C826 H808 0.951 . S
C826 C827 1.366 . S
C826 C828 1.388 . S
C827 C826 1.366 . S
C827 C831 1.385 . S
C828 H809 0.951 . S
C828 C826 1.388 . S
C828 C829 1.366 . S
C829 C828 1.366 . S
C829 C830 1.414 . S
C829 C832 1.499 . S
C830 H810 0.950 . S
C830 C829 1.414 . S
C830 C831 1.374 . S
C831 H811 0.950 . S
C831 C827 1.385 . S
C831 C830 1.374 . S
C832 C829 1.499 . S
C832 C833 1.373 . S
C832 C834 1.389 . S
C833 H812 0.950 . S
C833 C832 1.373 . S
C833 C849 1.377 1_554 S
C834 C832 1.389 . S
C834 C835 1.524 . S
C834 C848 1.377 1_554 S
C835 C834 1.524 . S
C835 C836 1.397 . S
C835 C840 1.363 . S
C836 H813 0.950 . S
C836 C835 1.397 . S
C836 C837 1.334 . S
C837 H814 0.950 . S
C837 C836 1.334 . S
C837 C838 1.287 . S
C838 C837 1.287 . S
C838 C839 1.524 . S
C838 H857 0.913 . S
C839 H815 0.950 . S
C839 C838 1.524 . S
C839 C840 1.415 . S
C840 H816 0.950 1_554 S
C840 C835 1.363 . S
C840 C839 1.415 . S
C841 H817 0.951 . S
C841 C842 1.366 . S
C841 C843 1.388 . S
C842 C841 1.366 . S
C842 C846 1.385 . S
C843 H818 0.951 . S
C843 C841 1.388 . S
C843 C844 1.366 . S
C844 C843 1.366 . S
C844 C845 1.414 . S
C844 C847 1.499 . S
C845 H819 0.950 . S
C845 C844 1.414 . S
C845 C846 1.374 . S
C846 H820 0.950 . S
C846 C842 1.385 . S
C846 C845 1.374 . S
C847 C844 1.499 . S
C847 C848 1.373 . S
C847 C849 1.389 . S
C848 H821 0.950 . S
C848 C834 1.377 1_556 S
C848 C847 1.373 . S
C849 C833 1.377 1_556 S
C849 C847 1.389 . S
C849 C850 1.524 . S
C850 C849 1.524 . S
C850 C851 1.397 . S
C850 C855 1.363 . S
C851 H822 0.950 . S
C851 C850 1.397 . S
C851 C852 1.334 . S
C852 H823 0.950 . S
C852 C851 1.334 . S
C852 C853 1.287 . S
C853 C852 1.287 . S
C853 C854 1.524 . S
C853 H856 0.999 . S
C854 H824 0.950 . S
C854 C853 1.524 . S
C854 C855 1.415 . S
C855 H825 0.950 1_556 S
C855 C850 1.363 . S
C855 C854 1.415 . S
H856 C853 0.999 . S
H857 C838 0.913 . S
H858 C876 0.951 . S
H859 C878 0.951 . S
H860 C880 0.950 . S
H861 C881 0.934 1_655 S
H862 C883 0.950 . S
H863 C886 0.950 1_655 S
H864 C887 0.950 . S
H865 C889 0.950 . S
H866 C890 0.950 . S
H867 C891 0.951 . S
H868 C893 0.951 . S
H869 C895 0.950 . S
H870 C896 0.934 1_455 S
H871 C898 0.950 . S
H872 C901 0.950 1_455 S
H873 C902 0.950 . S
H874 C904 0.950 . S
H875 C905 0.950 . S
C876 H858 0.951 . S
C876 C877 1.366 . S
C876 C878 1.388 . S
C877 C876 1.366 . S
C877 C881 1.405 . S
C878 H859 0.951 . S
C878 C876 1.388 . S
C878 C879 1.366 . S
C879 C878 1.366 . S
C879 C880 1.414 1_455 S
C879 C882 1.499 . S
C880 H860 0.950 . S
C880 C879 1.414 1_655 S
C880 C881 1.369 1_655 S
C881 H861 0.934 1_455 S
C881 C877 1.405 . S
C881 C880 1.369 1_455 S
C882 C879 1.499 . S
C882 C883 1.373 1_455 S
C882 C884 1.389 . S
C883 H862 0.950 . S
C883 C882 1.373 1_655 S
C883 C899 1.377 . S
C884 C882 1.389 . S
C884 C885 1.524 . S
C884 C898 1.377 . S
C885 C884 1.524 . S
C885 C886 1.397 . S
C885 C890 1.363 . S
C886 H863 0.950 1_455 S
C886 C885 1.397 . S
C886 C887 1.334 . S
C887 H864 0.950 . S
C887 C886 1.334 . S
C887 C888 1.287 . S
C888 C887 1.287 . S
C888 C889 1.524 . S
C888 H907 0.913 . S
C889 H865 0.950 . S
C889 C888 1.524 . S
C889 C890 1.415 . S
C890 H866 0.950 . S
C890 C885 1.363 . S
C890 C889 1.415 . S
C891 H867 0.951 . S
C891 C892 1.366 . S
C891 C893 1.388 . S
C892 C891 1.366 . S
C892 C896 1.405 . S
C893 H868 0.951 . S
C893 C891 1.388 . S
C893 C894 1.366 . S
C894 C893 1.366 . S
C894 C895 1.414 1_655 S
C894 C897 1.499 . S
C895 H869 0.950 . S
C895 C894 1.414 1_455 S
C895 C896 1.369 1_455 S
C896 H870 0.934 1_655 S
C896 C892 1.405 . S
C896 C895 1.369 1_655 S
C897 C894 1.499 . S
C897 C898 1.373 1_655 S
C897 C899 1.389 . S
C898 H871 0.950 . S
C898 C884 1.377 . S
C898 C897 1.373 1_455 S
C899 C883 1.377 . S
C899 C897 1.389 . S
C899 C900 1.524 . S
C900 C899 1.524 . S
C900 C901 1.397 . S
C900 C905 1.363 . S
C901 H872 0.950 1_655 S
C901 C900 1.397 . S
C901 C902 1.334 . S
C902 H873 0.950 . S
C902 C901 1.334 . S
C902 C903 1.287 . S
C903 C902 1.287 . S
C903 C904 1.524 . S
C903 H906 0.999 . S
C904 H874 0.950 . S
C904 C903 1.524 . S
C904 C905 1.415 . S
C905 H875 0.950 . S
C905 C900 1.363 . S
C905 C904 1.415 . S
H906 C903 0.999 . S
H907 C888 0.913 . S
H908 C926 0.951 . S
H909 C928 0.951 . S
H910 C930 0.950 . S
H911 C931 0.946 . S
H912 C933 0.950 . S
H913 C936 0.950 . S
H914 C937 0.950 . S
H915 C939 0.950 . S
H916 C940 0.950 1_554 S
H917 C941 0.951 . S
H918 C943 0.951 . S
H919 C945 0.950 . S
H920 C946 0.946 . S
H921 C948 0.950 . S
H922 C951 0.950 . S
H923 C952 0.950 . S
H924 C954 0.950 . S
H925 C955 0.950 1_556 S
C926 H908 0.951 . S
C926 C927 1.366 . S
C926 C928 1.388 . S
C927 C926 1.366 . S
C927 C931 1.390 1_545 S
C928 H909 0.951 . S
C928 C926 1.388 . S
C928 C929 1.366 . S
C929 C928 1.366 . S
C929 C930 1.414 1_545 S
C929 C932 1.499 . S
C930 H910 0.950 . S
C930 C929 1.414 1_565 S
C930 C931 1.372 . S
C931 H911 0.946 . S
C931 C927 1.390 1_565 S
C931 C930 1.372 . S
C932 C929 1.499 . S
C932 C933 1.373 1_545 S
C932 C934 1.389 . S
C933 H912 0.950 . S
C933 C932 1.373 1_565 S
C933 C949 1.377 1_556 S
C934 C932 1.389 . S
C934 C935 1.524 . S
C934 C948 1.377 1_556 S
C935 C934 1.524 . S
C935 C936 1.397 . S
C935 C940 1.363 . S
C936 H913 0.950 . S
C936 C935 1.397 . S
C936 C937 1.334 . S
C937 H914 0.950 . S
C937 C936 1.334 . S
C937 C938 1.287 . S
C938 C937 1.287 . S
C938 C939 1.524 . S
C938 H957 0.913 . S
C939 H915 0.950 . S
C939 C938 1.524 . S
C939 C940 1.415 . S
C940 H916 0.950 1_556 S
C940 C935 1.363 . S
C940 C939 1.415 . S
C941 H917 0.951 . S
C941 C942 1.366 . S
C941 C943 1.388 . S
C942 C941 1.366 . S
C942 C946 1.389 1_565 S
C943 H918 0.951 . S
C943 C941 1.388 . S
C943 C944 1.366 . S
C944 C943 1.366 . S
C944 C945 1.414 1_565 S
C944 C947 1.499 . S
C945 H919 0.950 . S
C945 C944 1.414 1_545 S
C945 C946 1.373 . S
C946 H920 0.946 . S
C946 C942 1.389 1_545 S
C946 C945 1.373 . S
C947 C944 1.499 . S
C947 C948 1.373 1_565 S
C947 C949 1.389 . S
C948 H921 0.950 . S
C948 C934 1.377 1_554 S
C948 C947 1.373 1_545 S
C949 C933 1.377 1_554 S
C949 C947 1.389 . S
C949 C950 1.524 . S
C950 C949 1.524 . S
C950 C951 1.397 . S
C950 C955 1.363 . S
C951 H922 0.950 . S
C951 C950 1.397 . S
C951 C952 1.334 . S
C952 H923 0.950 . S
C952 C951 1.334 . S
C952 C953 1.287 . S
C953 C952 1.287 . S
C953 C954 1.524 . S
C953 H956 0.999 . S
C954 H924 0.950 . S
C954 C953 1.524 . S
C954 C955 1.415 . S
C955 H925 0.950 1_554 S
C955 C950 1.363 . S
C955 C954 1.415 . S
H956 C953 0.999 . S
H957 C938 0.913 . S
H958 C976 0.951 . S
H959 C978 0.951 . S
H960 C980 0.950 . S
H961 C981 0.950 . S
H962 C983 0.950 . S
H963 C986 0.950 . S
H964 C987 0.950 . S
H965 C989 0.950 . S
H966 C990 0.950 . S
H967 C991 0.951 . S
H968 C993 0.951 . S
H969 C995 0.950 . S
H970 C996 0.950 . S
H971 C998 0.950 . S
H972 C1001 0.950 . S
H973 C1002 0.950 . S
H974 C1004 0.950 . S
H975 C1005 0.950 . S
C976 H958 0.951 . S
C976 C977 1.366 . S
C976 C978 1.388 . S
C977 C976 1.366 . S
C977 C981 1.385 . S
C978 H959 0.951 . S
C978 C976 1.388 . S
C978 C979 1.366 . S
C979 C978 1.366 . S
C979 C980 1.414 . S
C979 C982 1.499 . S
C980 H960 0.950 . S
C980 C979 1.414 . S
C980 C981 1.374 . S
C981 H961 0.950 . S
C981 C977 1.385 . S
C981 C980 1.374 . S
C982 C979 1.499 . S
C982 C983 1.373 . S
C982 C984 1.389 . S
C983 H962 0.950 . S
C983 C982 1.373 . S
C983 C999 1.377 . S
C984 C982 1.389 . S
C984 C985 1.524 . S
C984 C998 1.377 . S
C985 C984 1.524 . S
C985 C986 1.397 . S
C985 C990 1.363 . S
C986 H963 0.950 . S
C986 C985 1.397 . S
C986 C987 1.334 . S
C987 H964 0.950 . S
C987 C986 1.334 . S
C987 C988 1.287 . S
C988 C987 1.287 . S
C988 C989 1.524 . S
C988 H1007 0.913 . S
C989 H965 0.950 . S
C989 C988 1.524 . S
C989 C990 1.415 . S
C990 H966 0.950 . S
C990 C985 1.363 . S
C990 C989 1.415 . S
C991 H967 0.951 . S
C991 C992 1.366 . S
C991 C993 1.388 . S
C992 C991 1.366 . S
C992 C996 1.385 . S
C993 H968 0.951 . S
C993 C991 1.388 . S
C993 C994 1.366 . S
C994 C993 1.366 . S
C994 C995 1.414 . S
C994 C997 1.499 . S
C995 H969 0.950 . S
C995 C994 1.414 . S
C995 C996 1.374 . S
C996 H970 0.950 . S
C996 C992 1.385 . S
C996 C995 1.374 . S
C997 C994 1.499 . S
C997 C998 1.373 . S
C997 C999 1.389 . S
C998 H971 0.950 . S
C998 C984 1.377 . S
C998 C997 1.373 . S
C999 C983 1.377 . S
C999 C997 1.389 . S
C999 C1000 1.524 . S
C1000 C999 1.524 . S
C1000 C1001 1.397 . S
C1000 C1005 1.363 . S
C1001 H972 0.950 . S
C1001 C1000 1.397 . S
C1001 C1002 1.334 . S
C1002 H973 0.950 . S
C1002 C1001 1.334 . S
C1002 C1003 1.287 . S
C1003 C1002 1.287 . S
C1003 C1004 1.524 . S
C1003 H1006 0.999 . S
C1004 H974 0.950 . S
C1004 C1003 1.524 . S
C1004 C1005 1.415 . S
C1005 H975 0.950 . S
C1005 C1000 1.363 . S
C1005 C1004 1.415 . S
H1006 C1003 0.999 . S
H1007 C988 0.913 . S
H1008 C1026 0.951 1_455 S
H1009 C1028 0.951 . S
H1010 C1030 0.950 . S
H1011 C1031 0.950 . S
H1012 C1033 0.950 . S
H1013 C1036 0.950 . S
H1014 C1037 0.950 . S
H1015 C1039 0.950 . S
H1016 C1040 0.950 . S
H1017 C1041 0.951 1_655 S
H1018 C1043 0.951 . S
H1019 C1045 0.950 . S
H1020 C1046 0.950 . S
H1021 C1048 0.950 . S
H1022 C1051 0.950 . S
H1023 C1052 0.950 . S
H1024 C1054 0.950 . S
H1025 C1055 0.950 . S
C1026 H1008 0.951 1_655 S
C1026 C1027 1.366 . S
C1026 C1028 1.388 1_655 S
C1027 C1026 1.366 . S
C1027 C1031 1.385 . S
C1028 H1009 0.951 . S
C1028 C1026 1.388 1_455 S
C1028 C1029 1.366 1_455 S
C1029 C1028 1.366 1_655 S
C1029 C1030 1.414 . S
C1029 C1032 1.499 . S
C1030 H1010 0.950 . S
C1030 C1029 1.414 . S
C1030 C1031 1.374 . S
C1031 H1011 0.950 . S
C1031 C1027 1.385 . S
C1031 C1030 1.374 . S
C1032 C1029 1.499 . S
C1032 C1033 1.373 . S
C1032 C1034 1.389 1_655 S
C1033 H1012 0.950 . S
C1033 C1032 1.373 . S
C1033 C1049 1.377 1_556 S
C1034 C1032 1.389 1_455 S
C1034 C1035 1.524 . S
C1034 C1048 1.377 1_556 S
C1035 C1034 1.524 . S
C1035 C1036 1.397 . S
C1035 C1040 1.363 . S
C1036 H1013 0.950 . S
C1036 C1035 1.397 . S
C1036 C1037 1.334 . S
C1037 H1014 0.950 . S
C1037 C1036 1.334 . S
C1037 C1038 1.287 . S
C1038 C1037 1.287 . S
C1038 C1039 1.524 . S
C1038 H1057 0.913 . S
C1039 H1015 0.950 . S
C1039 C1038 1.524 . S
C1039 C1040 1.415 . S
C1040 H1016 0.950 . S
C1040 C1035 1.363 . S
C1040 C1039 1.415 . S
C1041 H1017 0.951 1_455 S
C1041 C1042 1.366 . S
C1041 C1043 1.388 1_455 S
C1042 C1041 1.366 . S
C1042 C1046 1.385 . S
C1043 H1018 0.951 . S
C1043 C1041 1.388 1_655 S
C1043 C1044 1.366 1_655 S
C1044 C1043 1.366 1_455 S
C1044 C1045 1.414 . S
C1044 C1047 1.499 . S
C1045 H1019 0.950 . S
C1045 C1044 1.414 . S
C1045 C1046 1.374 . S
C1046 H1020 0.950 . S
C1046 C1042 1.385 . S
C1046 C1045 1.374 . S
C1047 C1044 1.499 . S
C1047 C1048 1.373 . S
C1047 C1049 1.389 1_455 S
C1048 H1021 0.950 . S
C1048 C1034 1.377 1_554 S
C1048 C1047 1.373 . S
C1049 C1033 1.377 1_554 S
C1049 C1047 1.389 1_655 S
C1049 C1050 1.524 . S
C1050 C1049 1.524 . S
C1050 C1051 1.397 . S
C1050 C1055 1.363 . S
C1051 H1022 0.950 . S
C1051 C1050 1.397 . S
C1051 C1052 1.334 . S
C1052 H1023 0.950 . S
C1052 C1051 1.334 . S
C1052 C1053 1.287 . S
C1053 C1052 1.287 . S
C1053 C1054 1.524 . S
C1053 H1056 0.999 . S
C1054 H1024 0.950 . S
C1054 C1053 1.524 . S
C1054 C1055 1.415 . S
C1055 H1025 0.950 . S
C1055 C1050 1.363 . S
C1055 C1054 1.415 . S
H1056 C1053 0.999 . S
H1057 C1038 0.913 . S
H1058 C1076 0.951 . S
H1059 C1078 0.951 . S
H1060 C1080 0.950 . S
H1061 C1081 0.950 . S
H1062 C1083 0.950 . S
H1063 C1086 0.950 . S
H1064 C1087 0.950 . S
H1065 C1089 0.950 . S
H1066 C1090 0.950 . S
H1067 C1091 0.951 . S
H1068 C1093 0.951 . S
H1069 C1095 0.950 . S
H1070 C1096 0.950 . S
H1071 C1098 0.950 . S
H1072 C1101 0.950 . S
H1073 C1102 0.950 . S
H1074 C1104 0.950 . S
H1075 C1105 0.950 . S
C1076 H1058 0.951 . S
C1076 C1077 1.366 . S
C1076 C1078 1.388 . S
C1077 C1076 1.366 . S
C1077 C1081 1.385 . S
C1078 H1059 0.951 . S
C1078 C1076 1.388 . S
C1078 C1079 1.366 . S
C1079 C1078 1.366 . S
C1079 C1080 1.414 . S
C1079 C1082 1.499 . S
C1080 H1060 0.950 . S
C1080 C1079 1.414 . S
C1080 C1081 1.374 . S
C1081 H1061 0.950 . S
C1081 C1077 1.385 . S
C1081 C1080 1.374 . S
C1082 C1079 1.499 . S
C1082 C1083 1.373 1_565 S
C1082 C1084 1.389 . S
C1083 H1062 0.950 . S
C1083 C1082 1.373 1_545 S
C1083 C1099 1.377 . S
C1084 C1082 1.389 . S
C1084 C1085 1.524 . S
C1084 C1098 1.377 . S
C1085 C1084 1.524 . S
C1085 C1086 1.397 . S
C1085 C1090 1.363 . S
C1086 H1063 0.950 . S
C1086 C1085 1.397 . S
C1086 C1087 1.334 . S
C1087 H1064 0.950 . S
C1087 C1086 1.334 . S
C1087 C1088 1.287 . S
C1088 C1087 1.287 . S
C1088 C1089 1.524 . S
C1088 H1107 0.913 . S
C1089 H1065 0.950 . S
C1089 C1088 1.524 . S
C1089 C1090 1.415 . S
C1090 H1066 0.950 . S
C1090 C1085 1.363 . S
C1090 C1089 1.415 . S
C1091 H1067 0.951 . S
C1091 C1092 1.366 . S
C1091 C1093 1.388 . S
C1092 C1091 1.366 . S
C1092 C1096 1.385 . S
C1093 H1068 0.951 . S
C1093 C1091 1.388 . S
C1093 C1094 1.366 . S
C1094 C1093 1.366 . S
C1094 C1095 1.414 . S
C1094 C1097 1.499 . S
C1095 H1069 0.950 . S
C1095 C1094 1.414 . S
C1095 C1096 1.374 . S
C1096 H1070 0.950 . S
C1096 C1092 1.385 . S
C1096 C1095 1.374 . S
C1097 C1094 1.499 . S
C1097 C1098 1.373 1_545 S
C1097 C1099 1.389 . S
C1098 H1071 0.950 . S
C1098 C1084 1.377 . S
C1098 C1097 1.373 1_565 S
C1099 C1083 1.377 . S
C1099 C1097 1.389 . S
C1099 C1100 1.524 . S
C1100 C1099 1.524 . S
C1100 C1101 1.397 . S
C1100 C1105 1.363 . S
C1101 H1072 0.950 . S
C1101 C1100 1.397 . S
C1101 C1102 1.334 . S
C1102 H1073 0.950 . S
C1102 C1101 1.334 . S
C1102 C1103 1.287 . S
C1103 C1102 1.287 . S
C1103 C1104 1.524 . S
C1103 H1106 0.999 . S
C1104 H1074 0.950 . S
C1104 C1103 1.524 . S
C1104 C1105 1.415 . S
C1105 H1075 0.950 . S
C1105 C1100 1.363 . S
C1105 C1104 1.415 . S
H1106 C1103 0.999 . S
H1107 C1088 0.913 . S
H1108 C1126 0.951 . S
H1109 C1128 0.951 . S
H1110 C1130 0.950 . S
H1111 C1131 0.950 . S
H1112 C1133 0.950 . S
H1113 C1136 0.950 . S
H1114 C1137 0.950 . S
H1115 C1139 0.950 . S
H1116 C1140 0.950 1_554 S
H1117 C1141 0.951 . S
H1118 C1143 0.951 . S
H1119 C1145 0.950 . S
H1120 C1146 0.950 . S
H1121 C1148 0.950 . S
H1122 C1151 0.950 . S
H1123 C1152 0.950 . S
H1124 C1154 0.950 . S
H1125 C1155 0.950 1_556 S
C1126 H1108 0.951 . S
C1126 C1127 1.366 . S
C1126 C1128 1.388 . S
C1127 C1126 1.366 . S
C1127 C1131 1.385 . S
C1128 H1109 0.951 . S
C1128 C1126 1.388 . S
C1128 C1129 1.366 . S
C1129 C1128 1.366 . S
C1129 C1130 1.414 . S
C1129 C1132 1.499 . S
C1130 H1110 0.950 . S
C1130 C1129 1.414 . S
C1130 C1131 1.374 . S
C1131 H1111 0.950 . S
C1131 C1127 1.385 . S
C1131 C1130 1.374 . S
C1132 C1129 1.499 . S
C1132 C1133 1.373 . S
C1132 C1134 1.389 . S
C1133 H1112 0.950 . S
C1133 C1132 1.373 . S
C1133 C1149 1.377 1_556 S
C1134 C1132 1.389 . S
C1134 C1135 1.524 . S
C1134 C1148 1.377 1_556 S
C1135 C1134 1.524 . S
C1135 C1136 1.397 . S
C1135 C1140 1.363 . S
C1136 H1113 0.950 . S
C1136 C1135 1.397 . S
C1136 C1137 1.334 . S
C1137 H1114 0.950 . S
C1137 C1136 1.334 . S
C1137 C1138 1.287 . S
C1138 C1137 1.287 . S
C1138 C1139 1.524 . S
C1138 H1157 0.913 . S
C1139 H1115 0.950 . S
C1139 C1138 1.524 . S
C1139 C1140 1.415 . S
C1140 H1116 0.950 1_556 S
C1140 C1135 1.363 . S
C1140 C1139 1.415 . S
C1141 H1117 0.951 . S
C1141 C1142 1.366 . S
C1141 C1143 1.388 . S
C1142 C1141 1.366 . S
C1142 C1146 1.385 . S
C1143 H1118 0.951 . S
C1143 C1141 1.388 . S
C1143 C1144 1.366 . S
C1144 C1143 1.366 . S
C1144 C1145 1.414 . S
C1144 C1147 1.499 . S
C1145 H1119 0.950 . S
C1145 C1144 1.414 . S
C1145 C1146 1.374 . S
C1146 H1120 0.950 . S
C1146 C1142 1.385 . S
C1146 C1145 1.374 . S
C1147 C1144 1.499 . S
C1147 C1148 1.373 . S
C1147 C1149 1.389 . S
C1148 H1121 0.950 . S
C1148 C1134 1.377 1_554 S
C1148 C1147 1.373 . S
C1149 C1133 1.377 1_554 S
C1149 C1147 1.389 . S
C1149 C1150 1.524 . S
C1150 C1149 1.524 . S
C1150 C1151 1.397 . S
C1150 C1155 1.363 . S
C1151 H1122 0.950 . S
C1151 C1150 1.397 . S
C1151 C1152 1.334 . S
C1152 H1123 0.950 . S
C1152 C1151 1.334 . S
C1152 C1153 1.287 . S
C1153 C1152 1.287 . S
C1153 C1154 1.524 . S
C1153 H1156 0.999 . S
C1154 H1124 0.950 . S
C1154 C1153 1.524 . S
C1154 C1155 1.415 . S
C1155 H1125 0.950 1_554 S
C1155 C1150 1.363 . S
C1155 C1154 1.415 . S
H1156 C1153 0.999 . S
H1157 C1138 0.913 . S
H1158 C1176 0.951 . S
H1159 C1178 0.951 . S
H1160 C1180 0.950 . S
H1161 C1181 0.950 . S
H1162 C1183 0.950 . S
H1163 C1186 0.950 . S
H1164 C1187 0.950 . S
H1165 C1189 0.950 . S
H1166 C1190 0.950 . S
H1167 C1191 0.951 . S
H1168 C1193 0.951 . S
H1169 C1195 0.950 . S
H1170 C1196 0.950 . S
H1171 C1198 0.950 . S
H1172 C1201 0.950 . S
H1173 C1202 0.950 . S
H1174 C1204 0.950 . S
H1175 C1205 0.950 . S
C1176 H1158 0.951 . S
C1176 C1177 1.366 . S
C1176 C1178 1.388 . S
C1177 C1176 1.366 . S
C1177 C1181 1.385 . S
C1178 H1159 0.951 . S
C1178 C1176 1.388 . S
C1178 C1179 1.366 . S
C1179 C1178 1.366 . S
C1179 C1180 1.414 . S
C1179 C1182 1.499 . S
C1180 H1160 0.950 . S
C1180 C1179 1.414 . S
C1180 C1181 1.374 . S
C1181 H1161 0.950 . S
C1181 C1177 1.385 . S
C1181 C1180 1.374 . S
C1182 C1179 1.499 . S
C1182 C1183 1.373 . S
C1182 C1184 1.389 1_655 S
C1183 H1162 0.950 . S
C1183 C1182 1.373 . S
C1183 C1199 1.377 . S
C1184 C1182 1.389 1_455 S
C1184 C1185 1.524 . S
C1184 C1198 1.377 . S
C1185 C1184 1.524 . S
C1185 C1186 1.397 . S
C1185 C1190 1.363 . S
C1186 H1163 0.950 . S
C1186 C1185 1.397 . S
C1186 C1187 1.334 . S
C1187 H1164 0.950 . S
C1187 C1186 1.334 . S
C1187 C1188 1.287 . S
C1188 C1187 1.287 . S
C1188 C1189 1.524 . S
C1188 H1207 0.913 . S
C1189 H1165 0.950 . S
C1189 C1188 1.524 . S
C1189 C1190 1.415 . S
C1190 H1166 0.950 . S
C1190 C1185 1.363 . S
C1190 C1189 1.415 . S
C1191 H1167 0.951 . S
C1191 C1192 1.366 . S
C1191 C1193 1.388 . S
C1192 C1191 1.366 . S
C1192 C1196 1.385 . S
C1193 H1168 0.951 . S
C1193 C1191 1.388 . S
C1193 C1194 1.366 . S
C1194 C1193 1.366 . S
C1194 C1195 1.414 . S
C1194 C1197 1.499 . S
C1195 H1169 0.950 . S
C1195 C1194 1.414 . S
C1195 C1196 1.374 . S
C1196 H1170 0.950 . S
C1196 C1192 1.385 . S
C1196 C1195 1.374 . S
C1197 C1194 1.499 . S
C1197 C1198 1.373 . S
C1197 C1199 1.389 1_455 S
C1198 H1171 0.950 . S
C1198 C1184 1.377 . S
C1198 C1197 1.373 . S
C1199 C1183 1.377 . S
C1199 C1197 1.389 1_655 S
C1199 C1200 1.524 . S
C1200 C1199 1.524 . S
C1200 C1201 1.397 . S
C1200 C1205 1.363 . S
C1201 H1172 0.950 . S
C1201 C1200 1.397 . S
C1201 C1202 1.334 . S
C1202 H1173 0.950 . S
C1202 C1201 1.334 . S
C1202 C1203 1.287 . S
C1203 C1202 1.287 . S
C1203 C1204 1.524 . S
C1203 H1206 0.999 . S
C1204 H1174 0.950 . S
C1204 C1203 1.524 . S
C1204 C1205 1.415 . S
C1205 H1175 0.950 . S
C1205 C1200 1.363 . S
C1205 C1204 1.415 . S
H1206 C1203 0.999 . S
H1207 C1188 0.913 . S
H1208 C1226 0.951 . S
H1209 C1228 0.951 . S
H1210 C1230 0.950 . S
H1211 C1231 0.950 . S
H1212 C1233 0.950 . S
H1213 C1236 0.950 . S
H1214 C1237 0.950 . S
H1215 C1239 0.950 . S
H1216 C1240 0.950 . S
H1217 C1241 0.951 . S
H1218 C1243 0.951 . S
H1219 C1245 0.950 . S
H1220 C1246 0.950 . S
H1221 C1248 0.950 . S
H1222 C1251 0.950 . S
H1223 C1252 0.950 . S
H1224 C1254 0.950 . S
H1225 C1255 0.950 . S
C1226 H1208 0.951 . S
C1226 C1227 1.366 . S
C1226 C1228 1.388 . S
C1227 C1226 1.366 . S
C1227 C1231 1.385 . S
C1228 H1209 0.951 . S
C1228 C1226 1.388 . S
C1228 C1229 1.366 . S
C1229 C1228 1.366 . S
C1229 C1230 1.414 . S
C1229 C1232 1.499 . S
C1230 H1210 0.950 . S
C1230 C1229 1.414 . S
C1230 C1231 1.374 . S
C1231 H1211 0.950 . S
C1231 C1227 1.385 . S
C1231 C1230 1.374 . S
C1232 C1229 1.499 . S
C1232 C1233 1.373 . S
C1232 C1234 1.389 1_545 S
C1233 H1212 0.950 . S
C1233 C1232 1.373 . S
C1233 C1249 1.377 1_556 S
C1234 C1232 1.389 1_565 S
C1234 C1235 1.524 . S
C1234 C1248 1.377 1_556 S
C1235 C1234 1.524 . S
C1235 C1236 1.397 . S
C1235 C1240 1.363 . S
C1236 H1213 0.950 . S
C1236 C1235 1.397 . S
C1236 C1237 1.334 . S
C1237 H1214 0.950 . S
C1237 C1236 1.334 . S
C1237 C1238 1.287 . S
C1238 C1237 1.287 . S
C1238 C1239 1.524 . S
C1238 H1257 0.913 . S
C1239 H1215 0.950 . S
C1239 C1238 1.524 . S
C1239 C1240 1.415 . S
C1240 H1216 0.950 . S
C1240 C1235 1.363 . S
C1240 C1239 1.415 . S
C1241 H1217 0.951 . S
C1241 C1242 1.366 . S
C1241 C1243 1.388 . S
C1242 C1241 1.366 . S
C1242 C1246 1.385 . S
C1243 H1218 0.951 . S
C1243 C1241 1.388 . S
C1243 C1244 1.366 . S
C1244 C1243 1.366 . S
C1244 C1245 1.414 . S
C1244 C1247 1.499 . S
C1245 H1219 0.950 . S
C1245 C1244 1.414 . S
C1245 C1246 1.374 . S
C1246 H1220 0.950 . S
C1246 C1242 1.385 . S
C1246 C1245 1.374 . S
C1247 C1244 1.499 . S
C1247 C1248 1.373 . S
C1247 C1249 1.389 1_565 S
C1248 H1221 0.950 . S
C1248 C1234 1.377 1_554 S
C1248 C1247 1.373 . S
C1249 C1233 1.377 1_554 S
C1249 C1247 1.389 1_545 S
C1249 C1250 1.524 . S
C1250 C1249 1.524 . S
C1250 C1251 1.397 . S
C1250 C1255 1.363 . S
C1251 H1222 0.950 . S
C1251 C1250 1.397 . S
C1251 C1252 1.334 . S
C1252 H1223 0.950 . S
C1252 C1251 1.334 . S
C1252 C1253 1.287 . S
C1253 C1252 1.287 . S
C1253 C1254 1.524 . S
C1253 H1256 0.999 . S
C1254 H1224 0.950 . S
C1254 C1253 1.524 . S
C1254 C1255 1.415 . S
C1255 H1225 0.950 . S
C1255 C1250 1.363 . S
C1255 C1254 1.415 . S
H1256 C1253 0.999 . S
H1257 C1238 0.913 . S
H1258 C1276 0.951 . S
H1259 C1278 0.951 . S
H1260 C1280 0.950 . S
H1261 C1281 0.950 . S
H1262 C1283 0.950 . S
H1263 C1286 0.950 . S
H1264 C1287 0.950 . S
H1265 C1289 0.950 . S
H1266 C1290 0.950 . S
H1267 C1291 0.951 . S
H1268 C1293 0.951 . S
H1269 C1295 0.950 . S
H1270 C1296 0.950 . S
H1271 C1298 0.950 . S
H1272 C1301 0.950 . S
H1273 C1302 0.950 . S
H1274 C1304 0.950 . S
H1275 C1305 0.950 . S
C1276 H1258 0.951 . S
C1276 C1277 1.366 . S
C1276 C1278 1.388 . S
C1277 C1276 1.366 . S
C1277 C1281 1.385 . S
C1278 H1259 0.951 . S
C1278 C1276 1.388 . S
C1278 C1279 1.366 . S
C1279 C1278 1.366 . S
C1279 C1280 1.414 . S
C1279 C1282 1.499 . S
C1280 H1260 0.950 . S
C1280 C1279 1.414 . S
C1280 C1281 1.374 . S
C1281 H1261 0.950 . S
C1281 C1277 1.385 . S
C1281 C1280 1.374 . S
C1282 C1279 1.499 . S
C1282 C1283 1.373 . S
C1282 C1284 1.389 . S
C1283 H1262 0.950 . S
C1283 C1282 1.373 . S
C1283 C1299 1.377 . S
C1284 C1282 1.389 . S
C1284 C1285 1.524 . S
C1284 C1298 1.377 . S
C1285 C1284 1.524 . S
C1285 C1286 1.397 . S
C1285 C1290 1.363 . S
C1286 H1263 0.950 . S
C1286 C1285 1.397 . S
C1286 C1287 1.334 . S
C1287 H1264 0.950 . S
C1287 C1286 1.334 . S
C1287 C1288 1.287 . S
C1288 C1287 1.287 . S
C1288 C1289 1.524 . S
C1288 H1307 0.913 . S
C1289 H1265 0.950 . S
C1289 C1288 1.524 . S
C1289 C1290 1.415 . S
C1290 H1266 0.950 . S
C1290 C1285 1.363 . S
C1290 C1289 1.415 . S
C1291 H1267 0.951 . S
C1291 C1292 1.366 . S
C1291 C1293 1.388 . S
C1292 C1291 1.366 . S
C1292 C1296 1.385 . S
C1293 H1268 0.951 . S
C1293 C1291 1.388 . S
C1293 C1294 1.366 . S
C1294 C1293 1.366 . S
C1294 C1295 1.414 . S
C1294 C1297 1.499 . S
C1295 H1269 0.950 . S
C1295 C1294 1.414 . S
C1295 C1296 1.374 . S
C1296 H1270 0.950 . S
C1296 C1292 1.385 . S
C1296 C1295 1.374 . S
C1297 C1294 1.499 . S
C1297 C1298 1.373 . S
C1297 C1299 1.389 . S
C1298 H1271 0.950 . S
C1298 C1284 1.377 . S
C1298 C1297 1.373 . S
C1299 C1283 1.377 . S
C1299 C1297 1.389 . S
C1299 C1300 1.524 . S
C1300 C1299 1.524 . S
C1300 C1301 1.397 . S
C1300 C1305 1.363 . S
C1301 H1272 0.950 . S
C1301 C1300 1.397 . S
C1301 C1302 1.334 . S
C1302 H1273 0.950 . S
C1302 C1301 1.334 . S
C1302 C1303 1.287 . S
C1303 C1302 1.287 . S
C1303 C1304 1.524 . S
C1303 H1306 0.999 . S
C1304 H1274 0.950 . S
C1304 C1303 1.524 . S
C1304 C1305 1.415 . S
C1305 H1275 0.950 . S
C1305 C1300 1.363 . S
C1305 C1304 1.415 . S
H1306 C1303 0.999 . S
H1307 C1288 0.913 . S
H1308 C1326 0.989 . S
H1309 C1328 0.975 . S
H1310 C1330 0.950 . S
H1311 C1331 0.950 . S
H1312 C1333 0.950 . S
H1313 C1336 0.950 . S
H1314 C1337 0.950 . S
H1315 C1339 0.950 . S
H1316 C1340 0.950 . S
H1317 C1341 0.951 . S
H1318 C1343 0.951 . S
H1319 C1345 0.949 1_655 S
H1320 C1346 0.956 . S
H1321 C1348 0.950 . S
H1322 C1351 0.950 . S
H1323 C1352 0.950 . S
H1324 C1354 0.950 . S
H1325 C1355 0.950 . S
C1326 H1308 0.989 . S
C1326 C1327 1.366 . S
C1326 C1328 1.388 . S
C1327 C1326 1.366 . S
C1327 C1331 1.385 . S
C1328 H1309 0.975 . S
C1328 C1326 1.388 . S
C1328 C1329 1.366 . S
C1329 C1328 1.366 . S
C1329 C1330 1.414 . S
C1329 C1332 1.499 . S
C1330 H1310 0.950 . S
C1330 C1329 1.414 . S
C1330 C1331 1.374 . S
C1331 H1311 0.950 . S
C1331 C1327 1.385 . S
C1331 C1330 1.374 . S
C1332 C1329 1.499 . S
C1332 C1333 1.373 . S
C1332 C1334 1.389 . S
C1333 H1312 0.950 . S
C1333 C1332 1.373 . S
C1333 C1349 1.377 . S
C1334 C1332 1.389 . S
C1334 C1335 1.524 . S
C1334 C1348 1.377 . S
C1335 C1334 1.524 . S
C1335 C1336 1.397 . S
C1335 C1340 1.363 1_455 S
C1336 H1313 0.950 . S
C1336 C1335 1.397 . S
C1336 C1337 1.334 . S
C1337 H1314 0.950 . S
C1337 C1336 1.334 . S
C1337 C1338 1.287 1_455 S
C1338 C1337 1.287 1_655 S
C1338 C1339 1.524 . S
C1338 H1357 0.913 . S
C1339 H1315 0.950 . S
C1339 C1338 1.524 . S
C1339 C1340 1.415 . S
C1340 H1316 0.950 . S
C1340 C1335 1.363 1_655 S
C1340 C1339 1.415 . S
C1341 H1317 0.951 . S
C1341 C1342 1.366 . S
C1341 C1343 1.388 . S
C1342 C1341 1.366 . S
C1342 C1346 1.385 . S
C1343 H1318 0.951 . S
C1343 C1341 1.388 . S
C1343 C1344 1.366 . S
C1344 C1343 1.366 . S
C1344 C1345 1.414 . S
C1344 C1347 1.499 . S
C1345 H1319 0.949 1_455 S
C1345 C1344 1.414 . S
C1345 C1346 1.374 . S
C1346 H1320 0.956 . S
C1346 C1342 1.385 . S
C1346 C1345 1.374 . S
C1347 C1344 1.499 . S
C1347 C1348 1.373 . S
C1347 C1349 1.389 . S
C1348 H1321 0.950 . S
C1348 C1334 1.377 . S
C1348 C1347 1.373 . S
C1349 C1333 1.377 . S
C1349 C1347 1.389 . S
C1349 C1350 1.524 . S
C1350 C1349 1.524 . S
C1350 C1351 1.397 . S
C1350 C1355 1.363 . S
C1351 H1322 0.950 . S
C1351 C1350 1.397 . S
C1351 C1352 1.334 . S
C1352 H1323 0.950 . S
C1352 C1351 1.334 . S
C1352 C1353 1.287 . S
C1353 C1352 1.287 . S
C1353 C1354 1.524 . S
C1353 H1356 0.999 . S
C1354 H1324 0.950 . S
C1354 C1353 1.524 . S
C1354 C1355 1.415 . S
C1355 H1325 0.950 . S
C1355 C1350 1.363 . S
C1355 C1354 1.415 . S
H1356 C1353 0.999 . S
H1357 C1338 0.913 . S
H1358 C1376 0.951 . S
H1359 C1378 0.951 . S
H1360 C1380 0.950 . S
H1361 C1381 0.950 . S
H1362 C1383 0.950 . S
H1363 C1386 0.950 . S
H1364 C1387 0.950 . S
H1365 C1389 0.950 . S
H1366 C1390 0.950 . S
H1367 C1391 0.951 . S
H1368 C1393 0.951 . S
H1369 C1395 0.950 . S
H1370 C1396 0.950 . S
H1371 C1398 0.950 . S
H1372 C1401 0.950 . S
H1373 C1402 0.950 . S
H1374 C1404 0.950 . S
H1375 C1405 0.950 1_545 S
C1376 H1358 0.951 . S
C1376 C1377 1.366 . S
C1376 C1378 1.388 . S
C1377 C1376 1.366 . S
C1377 C1381 1.385 . S
C1378 H1359 0.951 . S
C1378 C1376 1.388 . S
C1378 C1379 1.366 . S
C1379 C1378 1.366 . S
C1379 C1380 1.414 . S
C1379 C1382 1.499 . S
C1380 H1360 0.950 . S
C1380 C1379 1.414 . S
C1380 C1381 1.374 . S
C1381 H1361 0.950 . S
C1381 C1377 1.385 . S
C1381 C1380 1.374 . S
C1382 C1379 1.499 . S
C1382 C1383 1.373 . S
C1382 C1384 1.389 . S
C1383 H1362 0.950 . S
C1383 C1382 1.373 . S
C1383 C1399 1.377 . S
C1384 C1382 1.389 . S
C1384 C1385 1.524 . S
C1384 C1398 1.377 . S
C1385 C1384 1.524 . S
C1385 C1386 1.397 . S
C1385 C1390 1.363 . S
C1386 H1363 0.950 . S
C1386 C1385 1.397 . S
C1386 C1387 1.334 . S
C1387 H1364 0.950 . S
C1387 C1386 1.334 . S
C1387 C1388 1.287 . S
C1388 C1387 1.287 . S
C1388 C1389 1.524 . S
C1388 H1407 0.913 . S
C1389 H1365 0.950 . S
C1389 C1388 1.524 . S
C1389 C1390 1.415 . S
C1390 H1366 0.950 . S
C1390 C1385 1.363 . S
C1390 C1389 1.415 . S
C1391 H1367 0.951 . S
C1391 C1392 1.366 . S
C1391 C1393 1.388 . S
C1392 C1391 1.366 . S
C1392 C1396 1.385 . S
C1393 H1368 0.951 . S
C1393 C1391 1.388 . S
C1393 C1394 1.366 . S
C1394 C1393 1.366 . S
C1394 C1395 1.414 . S
C1394 C1397 1.499 . S
C1395 H1369 0.950 . S
C1395 C1394 1.414 . S
C1395 C1396 1.374 . S
C1396 H1370 0.950 . S
C1396 C1392 1.385 . S
C1396 C1395 1.374 . S
C1397 C1394 1.499 . S
C1397 C1398 1.373 . S
C1397 C1399 1.389 . S
C1398 H1371 0.950 . S
C1398 C1384 1.377 . S
C1398 C1397 1.373 . S
C1399 C1383 1.377 . S
C1399 C1397 1.389 . S
C1399 C1400 1.542 . S
C1400 C1399 1.542 . S
C1400 C1401 1.379 1_545 S
C1400 C1405 1.364 1_545 S
C1401 H1372 0.950 . S
C1401 C1400 1.379 1_565 S
C1401 C1402 1.334 . S
C1402 H1373 0.950 . S
C1402 C1401 1.334 . S
C1402 C1403 1.287 . S
C1403 C1402 1.287 . S
C1403 C1404 1.524 . S
C1403 H1406 0.999 . S
C1404 H1374 0.950 . S
C1404 C1403 1.524 . S
C1404 C1405 1.415 . S
C1405 H1375 0.950 1_565 S
C1405 C1400 1.364 1_565 S
C1405 C1404 1.415 . S
H1406 C1403 0.999 . S
H1407 C1388 0.913 . S
H1408 C1426 0.951 . S
H1409 C1428 0.951 . S
H1410 C1430 0.950 . S
H1411 C1431 0.950 . S
H1412 C1433 0.950 . S
H1413 C1436 0.950 . S
H1414 C1437 0.950 . S
H1415 C1439 0.950 . S
H1416 C1440 0.950 . S
H1417 C1441 0.951 . S
H1418 C1443 0.951 . S
H1419 C1445 0.950 . S
H1420 C1446 0.950 . S
H1421 C1448 0.950 . S
H1422 C1451 0.950 . S
H1423 C1452 0.950 . S
H1424 C1454 0.950 . S
H1425 C1455 0.950 . S
C1426 H1408 0.951 . S
C1426 C1427 1.366 . S
C1426 C1428 1.388 . S
C1427 C1426 1.366 . S
C1427 C1431 1.385 . S
C1428 H1409 0.951 . S
C1428 C1426 1.388 . S
C1428 C1429 1.366 . S
C1429 C1428 1.366 . S
C1429 C1430 1.414 . S
C1429 C1432 1.499 . S
C1430 H1410 0.950 . S
C1430 C1429 1.414 . S
C1430 C1431 1.374 . S
C1431 H1411 0.950 . S
C1431 C1427 1.385 . S
C1431 C1430 1.374 . S
C1432 C1429 1.499 . S
C1432 C1433 1.373 . S
C1432 C1434 1.389 . S
C1433 H1412 0.950 . S
C1433 C1432 1.373 . S
C1433 C1449 1.377 . S
C1434 C1432 1.389 . S
C1434 C1435 1.524 . S
C1434 C1448 1.377 . S
C1435 C1434 1.524 . S
C1435 C1436 1.397 . S
C1435 C1440 1.363 . S
C1436 H1413 0.950 . S
C1436 C1435 1.397 . S
C1436 C1437 1.334 . S
C1437 H1414 0.950 . S
C1437 C1436 1.334 . S
C1437 C1438 1.287 . S
C1438 C1437 1.287 . S
C1438 C1439 1.524 . S
C1438 H1457 0.913 . S
C1439 H1415 0.950 . S
C1439 C1438 1.524 . S
C1439 C1440 1.415 . S
C1440 H1416 0.950 . S
C1440 C1435 1.363 . S
C1440 C1439 1.415 . S
C1441 H1417 0.951 . S
C1441 C1442 1.366 . S
C1441 C1443 1.388 . S
C1442 C1441 1.366 . S
C1442 C1446 1.385 . S
C1443 H1418 0.951 . S
C1443 C1441 1.388 . S
C1443 C1444 1.366 . S
C1444 C1443 1.366 . S
C1444 C1445 1.414 . S
C1444 C1447 1.499 . S
C1445 H1419 0.950 . S
C1445 C1444 1.414 . S
C1445 C1446 1.374 . S
C1446 H1420 0.950 . S
C1446 C1442 1.385 . S
C1446 C1445 1.374 . S
C1447 C1444 1.499 . S
C1447 C1448 1.373 . S
C1447 C1449 1.389 . S
C1448 H1421 0.950 . S
C1448 C1434 1.377 . S
C1448 C1447 1.373 . S
C1449 C1433 1.377 . S
C1449 C1447 1.389 . S
C1449 C1450 1.524 . S
C1450 C1449 1.524 . S
C1450 C1451 1.397 . S
C1450 C1455 1.363 . S
C1451 H1422 0.950 . S
C1451 C1450 1.397 . S
C1451 C1452 1.334 . S
C1452 H1423 0.950 . S
C1452 C1451 1.334 . S
C1452 C1453 1.287 . S
C1453 C1452 1.287 . S
C1453 C1454 1.524 . S
C1453 H1456 0.999 . S
C1454 H1424 0.950 . S
C1454 C1453 1.524 . S
C1454 C1455 1.415 . S
C1455 H1425 0.950 . S
C1455 C1450 1.363 . S
C1455 C1454 1.415 . S
H1456 C1453 0.999 . S
H1457 C1438 0.913 . S
H1458 C1476 0.951 . S
H1459 C1478 0.951 . S
H1460 C1480 0.950 . S
H1461 C1481 0.950 . S
H1462 C1483 0.950 . S
H1463 C1486 0.950 . S
H1464 C1487 0.950 . S
H1465 C1489 0.950 . S
H1466 C1490 0.950 . S
H1467 C1491 0.951 . S
H1468 C1493 0.951 . S
H1469 C1495 0.950 . S
H1470 C1496 0.950 . S
H1471 C1498 0.950 . S
H1472 C1501 0.950 . S
H1473 C1502 0.950 1_455 S
H1474 C1504 0.950 . S
H1475 C1505 0.950 . S
C1476 H1458 0.951 . S
C1476 C1477 1.366 . S
C1476 C1478 1.388 . S
C1477 C1476 1.366 . S
C1477 C1481 1.385 . S
C1478 H1459 0.951 . S
C1478 C1476 1.388 . S
C1478 C1479 1.366 . S
C1479 C1478 1.366 . S
C1479 C1480 1.414 . S
C1479 C1482 1.499 . S
C1480 H1460 0.950 . S
C1480 C1479 1.414 . S
C1480 C1481 1.374 . S
C1481 H1461 0.950 . S
C1481 C1477 1.385 . S
C1481 C1480 1.374 . S
C1482 C1479 1.499 . S
C1482 C1483 1.373 . S
C1482 C1484 1.389 . S
C1483 H1462 0.950 . S
C1483 C1482 1.373 . S
C1483 C1499 1.377 . S
C1484 C1482 1.389 . S
C1484 C1485 1.524 . S
C1484 C1498 1.377 . S
C1485 C1484 1.524 . S
C1485 C1486 1.397 . S
C1485 C1490 1.363 . S
C1486 H1463 0.950 . S
C1486 C1485 1.397 . S
C1486 C1487 1.334 . S
C1487 H1464 0.950 . S
C1487 C1486 1.334 . S
C1487 C1488 1.287 . S
C1488 C1487 1.287 . S
C1488 C1489 1.524 . S
C1488 H1507 0.913 . S
C1489 H1465 0.950 . S
C1489 C1488 1.524 . S
C1489 C1490 1.415 . S
C1490 H1466 0.950 . S
C1490 C1485 1.363 . S
C1490 C1489 1.415 . S
C1491 H1467 0.951 . S
C1491 C1492 1.366 . S
C1491 C1493 1.388 . S
C1492 C1491 1.366 . S
C1492 C1496 1.385 . S
C1493 H1468 0.951 . S
C1493 C1491 1.388 . S
C1493 C1494 1.366 . S
C1494 C1493 1.366 . S
C1494 C1495 1.414 . S
C1494 C1497 1.499 . S
C1495 H1469 0.950 . S
C1495 C1494 1.414 . S
C1495 C1496 1.374 . S
C1496 H1470 0.950 . S
C1496 C1492 1.385 . S
C1496 C1495 1.374 . S
C1497 C1494 1.499 . S
C1497 C1498 1.373 . S
C1497 C1499 1.389 . S
C1498 H1471 0.950 . S
C1498 C1484 1.377 . S
C1498 C1497 1.373 . S
C1499 C1483 1.377 . S
C1499 C1497 1.389 . S
C1499 C1500 1.524 . S
C1500 C1499 1.524 . S
C1500 C1501 1.397 . S
C1500 C1505 1.363 . S
C1501 H1472 0.950 . S
C1501 C1500 1.397 . S
C1501 C1502 1.334 . S
C1502 H1473 0.950 1_655 S
C1502 C1501 1.334 . S
C1502 C1503 1.287 . S
C1503 C1502 1.287 . S
C1503 C1504 1.524 . S
C1503 H1506 0.999 . S
C1504 H1474 0.950 . S
C1504 C1503 1.524 . S
C1504 C1505 1.415 . S
C1505 H1475 0.950 . S
C1505 C1500 1.363 . S
C1505 C1504 1.415 . S
H1506 C1503 0.999 . S
H1507 C1488 0.913 . S
H1508 C1526 0.951 . S
H1509 C1528 0.951 . S
H1510 C1530 0.950 . S
H1511 C1531 0.950 . S
H1512 C1533 0.950 . S
H1513 C1536 0.950 . S
H1514 C1537 0.950 . S
H1515 C1539 0.950 . S
H1516 C1540 0.950 . S
H1517 C1541 0.951 . S
H1518 C1543 0.951 . S
H1519 C1545 0.950 . S
H1520 C1546 0.950 . S
H1521 C1548 0.950 . S
H1522 C1551 0.950 . S
H1523 C1552 0.950 . S
H1524 C1554 0.950 . S
H1525 C1555 0.950 . S
C1526 H1508 0.951 . S
C1526 C1527 1.366 . S
C1526 C1528 1.388 . S
C1527 C1526 1.366 . S
C1527 C1531 1.385 . S
C1528 H1509 0.951 . S
C1528 C1526 1.388 . S
C1528 C1529 1.366 . S
C1529 C1528 1.366 . S
C1529 C1530 1.414 . S
C1529 C1532 1.499 . S
C1530 H1510 0.950 . S
C1530 C1529 1.414 . S
C1530 C1531 1.374 . S
C1531 H1511 0.950 . S
C1531 C1527 1.385 . S
C1531 C1530 1.374 . S
C1532 C1529 1.499 . S
C1532 C1533 1.373 . S
C1532 C1534 1.389 . S
C1533 H1512 0.950 . S
C1533 C1532 1.373 . S
C1533 C1549 1.377 . S
C1534 C1532 1.389 . S
C1534 C1535 1.524 . S
C1534 C1548 1.377 . S
C1535 C1534 1.524 . S
C1535 C1536 1.397 . S
C1535 C1540 1.363 . S
C1536 H1513 0.950 . S
C1536 C1535 1.397 . S
C1536 C1537 1.334 . S
C1537 H1514 0.950 . S
C1537 C1536 1.334 . S
C1537 C1538 1.287 . S
C1538 C1537 1.287 . S
C1538 C1539 1.524 . S
C1538 H1557 0.913 . S
C1539 H1515 0.950 . S
C1539 C1538 1.524 . S
C1539 C1540 1.415 . S
C1540 H1516 0.950 . S
C1540 C1535 1.363 . S
C1540 C1539 1.415 . S
C1541 H1517 0.951 . S
C1541 C1542 1.366 . S
C1541 C1543 1.388 . S
C1542 C1541 1.366 . S
C1542 C1546 1.385 . S
C1543 H1518 0.951 . S
C1543 C1541 1.388 . S
C1543 C1544 1.366 . S
C1544 C1543 1.366 . S
C1544 C1545 1.414 . S
C1544 C1547 1.499 . S
C1545 H1519 0.950 . S
C1545 C1544 1.414 . S
C1545 C1546 1.374 . S
C1546 H1520 0.950 . S
C1546 C1542 1.385 . S
C1546 C1545 1.374 . S
C1547 C1544 1.499 . S
C1547 C1548 1.373 . S
C1547 C1549 1.389 . S
C1548 H1521 0.950 . S
C1548 C1534 1.377 . S
C1548 C1547 1.373 . S
C1549 C1533 1.377 . S
C1549 C1547 1.389 . S
C1549 C1550 1.524 1_565 S
C1550 C1549 1.524 1_545 S
C1550 C1551 1.397 . S
C1550 C1555 1.363 . S
C1551 H1522 0.950 . S
C1551 C1550 1.397 . S
C1551 C1552 1.334 . S
C1552 H1523 0.950 . S
C1552 C1551 1.334 . S
C1552 C1553 1.287 . S
C1553 C1552 1.287 . S
C1553 C1554 1.524 . S
C1553 H1556 0.999 . S
C1554 H1524 0.950 . S
C1554 C1553 1.524 . S
C1554 C1555 1.415 . S
C1555 H1525 0.950 . S
C1555 C1550 1.363 . S
C1555 C1554 1.415 . S
H1556 C1553 0.999 . S
H1557 C1538 0.913 . S
H1558 C1576 0.951 . S
H1559 C1578 0.951 . S
H1560 C1580 0.950 . S
H1561 C1581 0.950 . S
H1562 C1583 0.950 . S
H1563 C1586 0.950 . S
H1564 C1587 0.950 . S
H1565 C1589 0.950 . S
H1566 C1590 0.950 . S
H1567 C1591 0.951 . S
H1568 C1593 0.951 . S
H1569 C1595 0.950 . S
H1570 C1596 0.950 . S
H1571 C1598 0.950 . S
H1572 C1601 0.950 . S
H1573 C1602 0.950 . S
H1574 C1604 0.950 . S
H1575 C1605 0.950 . S
C1576 H1558 0.951 . S
C1576 C1577 1.366 . S
C1576 C1578 1.388 . S
C1577 C1576 1.366 . S
C1577 C1581 1.385 . S
C1578 H1559 0.951 . S
C1578 C1576 1.388 . S
C1578 C1579 1.366 . S
C1579 C1578 1.366 . S
C1579 C1580 1.414 . S
C1579 C1582 1.499 . S
C1580 H1560 0.950 . S
C1580 C1579 1.414 . S
C1580 C1581 1.374 . S
C1581 H1561 0.950 . S
C1581 C1577 1.385 . S
C1581 C1580 1.374 . S
C1582 C1579 1.499 . S
C1582 C1583 1.373 . S
C1582 C1584 1.389 . S
C1583 H1562 0.950 . S
C1583 C1582 1.373 . S
C1583 C1599 1.377 . S
C1584 C1582 1.389 . S
C1584 C1585 1.524 . S
C1584 C1598 1.377 . S
C1585 C1584 1.524 . S
C1585 C1586 1.397 . S
C1585 C1590 1.363 . S
C1586 H1563 0.950 . S
C1586 C1585 1.397 . S
C1586 C1587 1.334 . S
C1587 H1564 0.950 . S
C1587 C1586 1.334 . S
C1587 C1588 1.287 . S
C1588 C1587 1.287 . S
C1588 C1589 1.524 . S
C1588 H1607 0.913 . S
C1589 H1565 0.950 . S
C1589 C1588 1.524 . S
C1589 C1590 1.415 . S
C1590 H1566 0.950 . S
C1590 C1585 1.363 . S
C1590 C1589 1.415 . S
C1591 H1567 0.951 . S
C1591 C1592 1.366 . S
C1591 C1593 1.388 . S
C1592 C1591 1.366 . S
C1592 C1596 1.385 . S
C1593 H1568 0.951 . S
C1593 C1591 1.388 . S
C1593 C1594 1.366 . S
C1594 C1593 1.366 . S
C1594 C1595 1.414 . S
C1594 C1597 1.499 . S
C1595 H1569 0.950 . S
C1595 C1594 1.414 . S
C1595 C1596 1.374 . S
C1596 H1570 0.950 . S
C1596 C1592 1.385 . S
C1596 C1595 1.374 . S
C1597 C1594 1.499 . S
C1597 C1598 1.373 . S
C1597 C1599 1.389 . S
C1598 H1571 0.950 . S
C1598 C1584 1.377 . S
C1598 C1597 1.373 . S
C1599 C1583 1.377 . S
C1599 C1597 1.389 . S
C1599 C1600 1.524 . S
C1600 C1599 1.524 . S
C1600 C1601 1.397 . S
C1600 C1605 1.363 . S
C1601 H1572 0.950 . S
C1601 C1600 1.397 . S
C1601 C1602 1.334 . S
C1602 H1573 0.950 . S
C1602 C1601 1.334 . S
C1602 C1603 1.287 . S
C1603 C1602 1.287 . S
C1603 C1604 1.524 . S
C1603 H1606 0.999 . S
C1604 H1574 0.950 . S
C1604 C1603 1.524 . S
C1604 C1605 1.415 . S
C1605 H1575 0.950 . S
C1605 C1600 1.363 . S
C1605 C1604 1.415 . S
H1606 C1603 0.999 . S
H1607 C1588 0.913 . S
H1608 C1626 0.951 . S
H1609 C1628 0.951 . S
H1610 C1630 0.950 . S
H1611 C1631 0.950 . S
H1612 C1633 0.950 . S
H1613 C1636 0.950 . S
H1614 C1637 0.950 . S
H1615 C1639 0.950 . S
H1616 C1640 0.950 . S
H1617 C1641 0.951 . S
H1618 C1643 0.951 . S
H1619 C1645 0.950 . S
H1620 C1646 0.950 . S
H1621 C1648 0.950 . S
H1622 C1651 0.950 . S
H1623 C1652 0.950 . S
H1624 C1654 0.950 . S
H1625 C1655 0.950 . S
C1626 H1608 0.951 . S
C1626 C1627 1.366 . S
C1626 C1628 1.388 . S
C1627 C1626 1.366 . S
C1627 C1631 1.385 . S
C1628 H1609 0.951 . S
C1628 C1626 1.388 . S
C1628 C1629 1.366 . S
C1629 C1628 1.366 . S
C1629 C1630 1.414 . S
C1629 C1632 1.499 . S
C1630 H1610 0.950 . S
C1630 C1629 1.414 . S
C1630 C1631 1.374 . S
C1631 H1611 0.950 . S
C1631 C1627 1.385 . S
C1631 C1630 1.374 . S
C1632 C1629 1.499 . S
C1632 C1633 1.373 . S
C1632 C1634 1.389 . S
C1633 H1612 0.950 . S
C1633 C1632 1.373 . S
C1633 C1649 1.377 . S
C1634 C1632 1.389 . S
C1634 C1635 1.524 . S
C1634 C1648 1.377 . S
C1635 C1634 1.524 . S
C1635 C1636 1.397 . S
C1635 C1640 1.363 . S
C1636 H1613 0.950 . S
C1636 C1635 1.397 . S
C1636 C1637 1.334 . S
C1637 H1614 0.950 . S
C1637 C1636 1.334 . S
C1637 C1638 1.287 . S
C1638 C1637 1.287 . S
C1638 C1639 1.524 . S
C1638 H1657 0.913 . S
C1639 H1615 0.950 . S
C1639 C1638 1.524 . S
C1639 C1640 1.415 . S
C1640 H1616 0.950 . S
C1640 C1635 1.363 . S
C1640 C1639 1.415 . S
C1641 H1617 0.951 . S
C1641 C1642 1.366 . S
C1641 C1643 1.388 . S
C1642 C1641 1.366 . S
C1642 C1646 1.385 . S
C1643 H1618 0.951 . S
C1643 C1641 1.388 . S
C1643 C1644 1.366 . S
C1644 C1643 1.366 . S
C1644 C1645 1.414 . S
C1644 C1647 1.499 . S
C1645 H1619 0.950 . S
C1645 C1644 1.414 . S
C1645 C1646 1.374 . S
C1646 H1620 0.950 . S
C1646 C1642 1.385 . S
C1646 C1645 1.374 . S
C1647 C1644 1.499 . S
C1647 C1648 1.373 . S
C1647 C1649 1.389 . S
C1648 H1621 0.950 . S
C1648 C1634 1.377 . S
C1648 C1647 1.373 . S
C1649 C1633 1.377 . S
C1649 C1647 1.389 . S
C1649 C1650 1.524 . S
C1650 C1649 1.524 . S
C1650 C1651 1.397 . S
C1650 C1655 1.363 . S
C1651 H1622 0.950 . S
C1651 C1650 1.397 . S
C1651 C1652 1.334 . S
C1652 H1623 0.950 . S
C1652 C1651 1.334 . S
C1652 C1653 1.287 . S
C1653 C1652 1.287 . S
C1653 C1654 1.524 . S
C1653 H1656 0.999 . S
C1654 H1624 0.950 . S
C1654 C1653 1.524 . S
C1654 C1655 1.415 . S
C1655 H1625 0.950 . S
C1655 C1650 1.363 . S
C1655 C1654 1.415 . S
H1656 C1653 0.999 . S
H1657 C1638 0.913 . S
H1658 C1676 0.951 . S
H1659 C1678 0.951 . S
H1660 C1680 0.950 . S
H1661 C1681 0.950 . S
H1662 C1683 0.950 . S
H1663 C1686 0.950 . S
H1664 C1687 0.950 . S
H1665 C1689 0.950 . S
H1666 C1690 0.950 . S
H1667 C1691 0.951 . S
H1668 C1693 0.951 . S
H1669 C1695 0.950 . S
H1670 C1696 0.950 . S
H1671 C1698 0.950 . S
H1672 C1701 0.950 . S
H1673 C1702 0.950 . S
H1674 C1704 0.950 . S
H1675 C1705 0.950 . S
C1676 H1658 0.951 . S
C1676 C1677 1.366 . S
C1676 C1678 1.388 . S
C1677 C1676 1.366 . S
C1677 C1681 1.385 . S
C1678 H1659 0.951 . S
C1678 C1676 1.388 . S
C1678 C1679 1.366 . S
C1679 C1678 1.366 . S
C1679 C1680 1.414 . S
C1679 C1682 1.499 . S
C1680 H1660 0.950 . S
C1680 C1679 1.414 . S
C1680 C1681 1.374 . S
C1681 H1661 0.950 . S
C1681 C1677 1.385 . S
C1681 C1680 1.374 . S
C1682 C1679 1.499 . S
C1682 C1683 1.373 . S
C1682 C1684 1.389 . S
C1683 H1662 0.950 . S
C1683 C1682 1.373 . S
C1683 C1699 1.377 . S
C1684 C1682 1.389 . S
C1684 C1685 1.524 . S
C1684 C1698 1.377 . S
C1685 C1684 1.524 . S
C1685 C1686 1.397 . S
C1685 C1690 1.363 . S
C1686 H1663 0.950 . S
C1686 C1685 1.397 . S
C1686 C1687 1.334 . S
C1687 H1664 0.950 . S
C1687 C1686 1.334 . S
C1687 C1688 1.287 . S
C1688 C1687 1.287 . S
C1688 C1689 1.524 . S
C1688 H1707 0.913 . S
C1689 H1665 0.950 . S
C1689 C1688 1.524 . S
C1689 C1690 1.415 . S
C1690 H1666 0.950 . S
C1690 C1685 1.363 . S
C1690 C1689 1.415 . S
C1691 H1667 0.951 . S
C1691 C1692 1.366 . S
C1691 C1693 1.388 . S
C1692 C1691 1.366 . S
C1692 C1696 1.385 . S
C1693 H1668 0.951 . S
C1693 C1691 1.388 . S
C1693 C1694 1.366 . S
C1694 C1693 1.366 . S
C1694 C1695 1.414 . S
C1694 C1697 1.499 . S
C1695 H1669 0.950 . S
C1695 C1694 1.414 . S
C1695 C1696 1.374 . S
C1696 H1670 0.950 . S
C1696 C1692 1.385 . S
C1696 C1695 1.374 . S
C1697 C1694 1.499 . S
C1697 C1698 1.373 . S
C1697 C1699 1.389 . S
C1698 H1671 0.950 . S
C1698 C1684 1.377 . S
C1698 C1697 1.373 . S
C1699 C1683 1.377 . S
C1699 C1697 1.389 . S
C1699 C1700 1.524 . S
C1700 C1699 1.524 . S
C1700 C1701 1.397 . S
C1700 C1705 1.363 . S
C1701 H1672 0.950 . S
C1701 C1700 1.397 . S
C1701 C1702 1.334 . S
C1702 H1673 0.950 . S
C1702 C1701 1.334 . S
C1702 C1703 1.287 . S
C1703 C1702 1.287 . S
C1703 C1704 1.524 . S
C1703 H1706 0.999 . S
C1704 H1674 0.950 . S
C1704 C1703 1.524 . S
C1704 C1705 1.415 . S
C1705 H1675 0.950 . S
C1705 C1700 1.363 . S
C1705 C1704 1.415 . S
H1706 C1703 0.999 . S
H1707 C1688 0.913 . S
H1708 C1726 0.951 . S
H1709 C1728 0.951 . S
H1710 C1730 0.950 . S
H1711 C1731 0.950 . S
H1712 C1733 0.950 . S
H1713 C1736 0.950 . S
H1714 C1737 0.950 . S
H1715 C1739 0.950 . S
H1716 C1740 0.950 . S
H1717 C1741 0.951 . S
H1718 C1743 0.951 . S
H1719 C1745 0.950 . S
H1720 C1746 0.950 . S
H1721 C1748 0.950 . S
H1722 C1751 0.950 . S
H1723 C1752 0.950 . S
H1724 C1754 0.950 . S
H1725 C1755 0.950 . S
C1726 H1708 0.951 . S
C1726 C1727 1.366 . S
C1726 C1728 1.388 . S
C1727 C1726 1.366 . S
C1727 C1731 1.385 . S
C1728 H1709 0.951 . S
C1728 C1726 1.388 . S
C1728 C1729 1.366 . S
C1729 C1728 1.366 . S
C1729 C1730 1.414 . S
C1729 C1732 1.499 . S
C1730 H1710 0.950 . S
C1730 C1729 1.414 . S
C1730 C1731 1.374 . S
C1731 H1711 0.950 . S
C1731 C1727 1.385 . S
C1731 C1730 1.374 . S
C1732 C1729 1.499 . S
C1732 C1733 1.373 . S
C1732 C1734 1.389 . S
C1733 H1712 0.950 . S
C1733 C1732 1.373 . S
C1733 C1749 1.377 . S
C1734 C1732 1.389 . S
C1734 C1735 1.524 . S
C1734 C1748 1.377 . S
C1735 C1734 1.524 . S
C1735 C1736 1.397 . S
C1735 C1740 1.363 . S
C1736 H1713 0.950 . S
C1736 C1735 1.397 . S
C1736 C1737 1.334 . S
C1737 H1714 0.950 . S
C1737 C1736 1.334 . S
C1737 C1738 1.287 . S
C1738 C1737 1.287 . S
C1738 C1739 1.524 . S
C1738 H1757 0.913 . S
C1739 H1715 0.950 . S
C1739 C1738 1.524 . S
C1739 C1740 1.415 . S
C1740 H1716 0.950 . S
C1740 C1735 1.363 . S
C1740 C1739 1.415 . S
C1741 H1717 0.951 . S
C1741 C1742 1.366 . S
C1741 C1743 1.388 . S
C1742 C1741 1.366 . S
C1742 C1746 1.385 . S
C1743 H1718 0.951 . S
C1743 C1741 1.388 . S
C1743 C1744 1.366 . S
C1744 C1743 1.366 . S
C1744 C1745 1.414 . S
C1744 C1747 1.499 . S
C1745 H1719 0.950 . S
C1745 C1744 1.414 . S
C1745 C1746 1.374 . S
C1746 H1720 0.950 . S
C1746 C1742 1.385 . S
C1746 C1745 1.374 . S
C1747 C1744 1.499 . S
C1747 C1748 1.373 . S
C1747 C1749 1.389 . S
C1748 H1721 0.950 . S
C1748 C1734 1.377 . S
C1748 C1747 1.373 . S
C1749 C1733 1.377 . S
C1749 C1747 1.389 . S
C1749 C1750 1.524 . S
C1750 C1749 1.524 . S
C1750 C1751 1.397 . S
C1750 C1755 1.363 . S
C1751 H1722 0.950 . S
C1751 C1750 1.397 . S
C1751 C1752 1.334 . S
C1752 H1723 0.950 . S
C1752 C1751 1.334 . S
C1752 C1753 1.287 . S
C1753 C1752 1.287 . S
C1753 C1754 1.524 . S
C1753 H1756 0.999 . S
C1754 H1724 0.950 . S
C1754 C1753 1.524 . S
C1754 C1755 1.415 . S
C1755 H1725 0.950 . S
C1755 C1750 1.363 . S
C1755 C1754 1.415 . S
H1756 C1753 0.999 . S
H1757 C1738 0.913 . S
H1758 C1776 0.951 . S
H1759 C1778 0.951 . S
H1760 C1780 0.950 . S
H1761 C1781 0.950 . S
H1762 C1783 0.950 . S
H1763 C1786 0.950 . S
H1764 C1787 0.950 . S
H1765 C1789 0.950 . S
H1766 C1790 0.950 . S
H1767 C1791 0.951 . S
H1768 C1793 0.951 . S
H1769 C1795 0.950 . S
H1770 C1796 0.950 . S
H1771 C1798 0.950 . S
H1772 C1801 0.950 . S
H1773 C1802 0.950 . S
H1774 C1804 0.950 . S
H1775 C1805 0.950 . S
C1776 H1758 0.951 . S
C1776 C1777 1.366 . S
C1776 C1778 1.388 . S
C1777 C1776 1.366 . S
C1777 C1781 1.385 . S
C1778 H1759 0.951 . S
C1778 C1776 1.388 . S
C1778 C1779 1.366 . S
C1779 C1778 1.366 . S
C1779 C1780 1.414 . S
C1779 C1782 1.499 . S
C1780 H1760 0.950 . S
C1780 C1779 1.414 . S
C1780 C1781 1.374 . S
C1781 H1761 0.950 . S
C1781 C1777 1.385 . S
C1781 C1780 1.374 . S
C1782 C1779 1.499 . S
C1782 C1783 1.373 . S
C1782 C1784 1.389 . S
C1783 H1762 0.950 . S
C1783 C1782 1.373 . S
C1783 C1799 1.377 . S
C1784 C1782 1.389 . S
C1784 C1785 1.524 . S
C1784 C1798 1.377 . S
C1785 C1784 1.524 . S
C1785 C1786 1.397 . S
C1785 C1790 1.363 . S
C1786 H1763 0.950 . S
C1786 C1785 1.397 . S
C1786 C1787 1.334 . S
C1787 H1764 0.950 . S
C1787 C1786 1.334 . S
C1787 C1788 1.287 . S
C1788 C1787 1.287 . S
C1788 C1789 1.524 . S
C1788 H1807 0.913 . S
C1789 H1765 0.950 . S
C1789 C1788 1.524 . S
C1789 C1790 1.415 . S
C1790 H1766 0.950 . S
C1790 C1785 1.363 . S
C1790 C1789 1.415 . S
C1791 H1767 0.951 . S
C1791 C1792 1.366 . S
C1791 C1793 1.388 . S
C1792 C1791 1.366 . S
C1792 C1796 1.385 . S
C1793 H1768 0.951 . S
C1793 C1791 1.388 . S
C1793 C1794 1.366 . S
C1794 C1793 1.366 . S
C1794 C1795 1.414 . S
C1794 C1797 1.499 . S
C1795 H1769 0.950 . S
C1795 C1794 1.414 . S
C1795 C1796 1.374 . S
C1796 H1770 0.950 . S
C1796 C1792 1.385 . S
C1796 C1795 1.374 . S
C1797 C1794 1.499 . S
C1797 C1798 1.373 . S
C1797 C1799 1.389 . S
C1798 H1771 0.950 . S
C1798 C1784 1.377 . S
C1798 C1797 1.373 . S
C1799 C1783 1.377 . S
C1799 C1797 1.389 . S
C1799 C1800 1.524 . S
C1800 C1799 1.524 . S
C1800 C1801 1.397 . S
C1800 C1805 1.363 . S
C1801 H1772 0.950 . S
C1801 C1800 1.397 . S
C1801 C1802 1.334 . S
C1802 H1773 0.950 . S
C1802 C1801 1.334 . S
C1802 C1803 1.287 . S
C1803 C1802 1.287 . S
C1803 C1804 1.524 . S
C1803 H1806 0.999 . S
C1804 H1774 0.950 . S
C1804 C1803 1.524 . S
C1804 C1805 1.415 . S
C1805 H1775 0.950 . S
C1805 C1800 1.363 . S
C1805 C1804 1.415 . S
H1806 C1803 0.999 . S
H1807 C1788 0.913 . S
H1808 C1826 0.951 . S
H1809 C1828 0.951 . S
H1810 C1830 0.950 . S
H1811 C1831 0.950 . S
H1812 C1833 0.950 . S
H1813 C1836 0.950 . S
H1814 C1837 0.950 . S
H1815 C1839 0.950 . S
H1816 C1840 0.950 . S
H1817 C1841 0.951 . S
H1818 C1843 0.951 . S
H1819 C1845 0.950 . S
H1820 C1846 0.950 . S
H1821 C1848 0.950 . S
H1822 C1851 0.950 . S
H1823 C1852 0.950 . S
H1824 C1854 0.950 . S
H1825 C1855 0.950 . S
C1826 H1808 0.951 . S
C1826 C1827 1.366 . S
C1826 C1828 1.388 . S
C1827 C1826 1.366 . S
C1827 C1831 1.385 . S
C1828 H1809 0.951 . S
C1828 C1826 1.388 . S
C1828 C1829 1.366 . S
C1829 C1828 1.366 . S
C1829 C1830 1.414 . S
C1829 C1832 1.499 . S
C1830 H1810 0.950 . S
C1830 C1829 1.414 . S
C1830 C1831 1.374 . S
C1831 H1811 0.950 . S
C1831 C1827 1.385 . S
C1831 C1830 1.374 . S
C1832 C1829 1.499 . S
C1832 C1833 1.373 . S
C1832 C1834 1.389 . S
C1833 H1812 0.950 . S
C1833 C1832 1.373 . S
C1833 C1849 1.377 . S
C1834 C1832 1.389 . S
C1834 C1835 1.524 . S
C1834 C1848 1.377 . S
C1835 C1834 1.524 . S
C1835 C1836 1.397 . S
C1835 C1840 1.363 . S
C1836 H1813 0.950 . S
C1836 C1835 1.397 . S
C1836 C1837 1.334 . S
C1837 H1814 0.950 . S
C1837 C1836 1.334 . S
C1837 C1838 1.287 . S
C1838 C1837 1.287 . S
C1838 C1839 1.524 . S
C1838 H1857 0.913 . S
C1839 H1815 0.950 . S
C1839 C1838 1.524 . S
C1839 C1840 1.415 . S
C1840 H1816 0.950 . S
C1840 C1835 1.363 . S
C1840 C1839 1.415 . S
C1841 H1817 0.951 . S
C1841 C1842 1.366 . S
C1841 C1843 1.388 . S
C1842 C1841 1.366 . S
C1842 C1846 1.385 . S
C1843 H1818 0.951 . S
C1843 C1841 1.388 . S
C1843 C1844 1.366 . S
C1844 C1843 1.366 . S
C1844 C1845 1.414 . S
C1844 C1847 1.499 . S
C1845 H1819 0.950 . S
C1845 C1844 1.414 . S
C1845 C1846 1.374 . S
C1846 H1820 0.950 . S
C1846 C1842 1.385 . S
C1846 C1845 1.374 . S
C1847 C1844 1.499 . S
C1847 C1848 1.373 . S
C1847 C1849 1.389 . S
C1848 H1821 0.950 . S
C1848 C1834 1.377 . S
C1848 C1847 1.373 . S
C1849 C1833 1.377 . S
C1849 C1847 1.389 . S
C1849 C1850 1.524 . S
C1850 C1849 1.524 . S
C1850 C1851 1.397 . S
C1850 C1855 1.363 . S
C1851 H1822 0.950 . S
C1851 C1850 1.397 . S
C1851 C1852 1.334 . S
C1852 H1823 0.950 . S
C1852 C1851 1.334 . S
C1852 C1853 1.287 . S
C1853 C1852 1.287 . S
C1853 C1854 1.524 . S
C1853 H1856 0.999 . S
C1854 H1824 0.950 . S
C1854 C1853 1.524 . S
C1854 C1855 1.415 . S
C1855 H1825 0.950 . S
C1855 C1850 1.363 . S
C1855 C1854 1.415 . S
H1856 C1853 0.999 . S
H1857 C1838 0.913 . S
H1858 C1876 0.951 . S
H1859 C1878 0.951 . S
H1860 C1880 0.950 . S
H1861 C1881 0.950 . S
H1862 C1883 0.950 . S
H1863 C1886 0.950 . S
H1864 C1887 0.950 . S
H1865 C1889 0.950 . S
H1866 C1890 0.950 . S
H1867 C1891 0.951 . S
H1868 C1893 0.951 . S
H1869 C1895 0.950 . S
H1870 C1896 0.950 . S
H1871 C1898 0.950 . S
H1872 C1901 0.950 . S
H1873 C1902 0.950 . S
H1874 C1904 0.950 . S
H1875 C1905 0.950 . S
C1876 H1858 0.951 . S
C1876 C1877 1.366 . S
C1876 C1878 1.388 . S
C1877 C1876 1.366 . S
C1877 C1881 1.385 . S
C1878 H1859 0.951 . S
C1878 C1876 1.388 . S
C1878 C1879 1.366 . S
C1879 C1878 1.366 . S
C1879 C1880 1.414 . S
C1879 C1882 1.499 . S
C1880 H1860 0.950 . S
C1880 C1879 1.414 . S
C1880 C1881 1.374 . S
C1881 H1861 0.950 . S
C1881 C1877 1.385 . S
C1881 C1880 1.374 . S
C1882 C1879 1.499 . S
C1882 C1883 1.373 . S
C1882 C1884 1.389 . S
C1883 H1862 0.950 . S
C1883 C1882 1.373 . S
C1883 C1899 1.377 . S
C1884 C1882 1.389 . S
C1884 C1885 1.524 . S
C1884 C1898 1.377 . S
C1885 C1884 1.524 . S
C1885 C1886 1.397 . S
C1885 C1890 1.363 . S
C1886 H1863 0.950 . S
C1886 C1885 1.397 . S
C1886 C1887 1.334 . S
C1887 H1864 0.950 . S
C1887 C1886 1.334 . S
C1887 C1888 1.287 . S
C1888 C1887 1.287 . S
C1888 C1889 1.524 . S
C1888 H1907 0.913 . S
C1889 H1865 0.950 . S
C1889 C1888 1.524 . S
C1889 C1890 1.415 . S
C1890 H1866 0.950 . S
C1890 C1885 1.363 . S
C1890 C1889 1.415 . S
C1891 H1867 0.951 . S
C1891 C1892 1.366 . S
C1891 C1893 1.388 . S
C1892 C1891 1.366 . S
C1892 C1896 1.385 . S
C1893 H1868 0.951 . S
C1893 C1891 1.388 . S
C1893 C1894 1.366 . S
C1894 C1893 1.366 . S
C1894 C1895 1.414 . S
C1894 C1897 1.499 . S
C1895 H1869 0.950 . S
C1895 C1894 1.414 . S
C1895 C1896 1.374 . S
C1896 H1870 0.950 . S
C1896 C1892 1.385 . S
C1896 C1895 1.374 . S
C1897 C1894 1.499 . S
C1897 C1898 1.373 . S
C1897 C1899 1.389 . S
C1898 H1871 0.950 . S
C1898 C1884 1.377 . S
C1898 C1897 1.373 . S
C1899 C1883 1.377 . S
C1899 C1897 1.389 . S
C1899 C1900 1.524 . S
C1900 C1899 1.524 . S
C1900 C1901 1.397 . S
C1900 C1905 1.363 . S
C1901 H1872 0.950 . S
C1901 C1900 1.397 . S
C1901 C1902 1.334 . S
C1902 H1873 0.950 . S
C1902 C1901 1.334 . S
C1902 C1903 1.287 . S
C1903 C1902 1.287 . S
C1903 C1904 1.524 . S
C1903 H1906 0.999 . S
C1904 H1874 0.950 . S
C1904 C1903 1.524 . S
C1904 C1905 1.415 . S
C1905 H1875 0.950 . S
C1905 C1900 1.363 . S
C1905 C1904 1.415 . S
H1906 C1903 0.999 . S
H1907 C1888 0.913 . S
C727 C33 1.731 . S
C742 C682 1.731 . S
C777 C387 1.731 . S
C792 C92 1.731 . S
C827 C151 1.731 . S
C842 C446 1.731 . S
C877 C505 1.731 . S
C892 C210 1.731 . S
C927 C564 1.731 . S
C942 C269 1.731 . S
C977 C623 1.731 . S
C992 C328 1.731 . S
C1027 C180 0.984 . S
C1042 C475 0.983 . S
C1077 C239 0.984 . S
C1092 C534 0.983 . S
C1127 C298 0.983 . S
C1142 C593 0.984 . S
C1177 C652 0.983 . S
C1192 C3 0.983 . S
C1227 C62 0.983 . S
C1242 C357 0.983 . S
C1277 C121 0.984 . S
C1292 C416 0.983 . S
C1327 C524 1.894 . S
C1342 C52 1.894 . S
C1377 C583 1.894 . S
C1392 C111 1.894 . S
C1427 C170 1.894 . S
C1442 C642 1.894 . S
C1477 C229 1.893 . S
C1492 C701 1.893 . S
C1527 C288 1.894 . S
C1542 C406 1.894 . S
C1577 C465 1.894 . S
C1592 C347 1.894 . S
C1627 C5 1.823 . S
C1642 C595 1.824 . S
C1677 C654 1.824 . S
C1692 C64 1.824 . S
C1727 C123 1.823 . S
C1742 C359 1.824 . S
C1777 C182 1.824 . S
C1792 C418 1.824 . S
C1827 C241 1.824 . S
C1842 C477 1.824 . S
C1877 C300 1.824 . S
C1892 C536 1.823 . S
