# Generated by pormake.
# Topology upc, (4)-cn, num edge types: 1
# Building blocks:
#     Node 0, Type 0, BuildingBlock: GALJAG_clean_sbu_0, # of connection points: 4
#     Node 1, Type 0, BuildingBlock: GALJAG_clean_sbu_0, # of connection points: 4
#     Node 2, Type 0, BuildingBlock: GALJAG_clean_sbu_0, # of connection points: 4
#     Node 3, Type 0, BuildingBlock: GALJAG_clean_sbu_0, # of connection points: 4
#     Node 4, Type 0, BuildingBlock: GALJAG_clean_sbu_0, # of connection points: 4
#     Node 5, Type 0, BuildingBlock: GALJAG_clean_sbu_0, # of connection points: 4
#     Node 6, Type 0, BuildingBlock: GALJAG_clean_sbu_0, # of connection points: 4
#     Node 7, Type 0, BuildingBlock: GALJAG_clean_sbu_0, # of connection points: 4
#     Node 8, Type 0, BuildingBlock: GALJAG_clean_sbu_0, # of connection points: 4
#     Node 9, Type 0, BuildingBlock: GALJAG_clean_sbu_0, # of connection points: 4
#     Node 10, Type 0, BuildingBlock: GALJAG_clean_sbu_0, # of connection points: 4
#     Node 11, Type 0, BuildingBlock: GALJAG_clean_sbu_0, # of connection points: 4
#     Node 12, Type 0, BuildingBlock: GALJAG_clean_sbu_0, # of connection points: 4
#     Node 13, Type 0, BuildingBlock: GALJAG_clean_sbu_0, # of connection points: 4
#     Node 14, Type 0, BuildingBlock: GALJAG_clean_sbu_0, # of connection points: 4
#     Node 15, Type 0, BuildingBlock: GALJAG_clean_sbu_0, # of connection points: 4
#     Edge 16, Type (0, 0), BuildingBlock: EZIPEK_clean_linker_0, # of connection points: 2
#     Edge 17, Type (0, 0), BuildingBlock: EZIPEK_clean_linker_0, # of connection points: 2
#     Edge 18, Type (0, 0), BuildingBlock: EZIPEK_clean_linker_0, # of connection points: 2
#     Edge 19, Type (0, 0), BuildingBlock: EZIPEK_clean_linker_0, # of connection points: 2
#     Edge 20, Type (0, 0), BuildingBlock: EZIPEK_clean_linker_0, # of connection points: 2
#     Edge 21, Type (0, 0), BuildingBlock: EZIPEK_clean_linker_0, # of connection points: 2
#     Edge 22, Type (0, 0), BuildingBlock: EZIPEK_clean_linker_0, # of connection points: 2
#     Edge 23, Type (0, 0), BuildingBlock: EZIPEK_clean_linker_0, # of connection points: 2
#     Edge 24, Type (0, 0), BuildingBlock: EZIPEK_clean_linker_0, # of connection points: 2
#     Edge 25, Type (0, 0), BuildingBlock: EZIPEK_clean_linker_0, # of connection points: 2
#     Edge 26, Type (0, 0), BuildingBlock: EZIPEK_clean_linker_0, # of connection points: 2
#     Edge 27, Type (0, 0), BuildingBlock: EZIPEK_clean_linker_0, # of connection points: 2
#     Edge 28, Type (0, 0), BuildingBlock: EZIPEK_clean_linker_0, # of connection points: 2
#     Edge 29, Type (0, 0), BuildingBlock: EZIPEK_clean_linker_0, # of connection points: 2
#     Edge 30, Type (0, 0), BuildingBlock: EZIPEK_clean_linker_0, # of connection points: 2
#     Edge 31, Type (0, 0), BuildingBlock: EZIPEK_clean_linker_0, # of connection points: 2
#     Edge 32, Type (0, 0), BuildingBlock: EZIPEK_clean_linker_0, # of connection points: 2
#     Edge 33, Type (0, 0), BuildingBlock: EZIPEK_clean_linker_0, # of connection points: 2
#     Edge 34, Type (0, 0), BuildingBlock: EZIPEK_clean_linker_0, # of connection points: 2
#     Edge 35, Type (0, 0), BuildingBlock: EZIPEK_clean_linker_0, # of connection points: 2
#     Edge 36, Type (0, 0), BuildingBlock: EZIPEK_clean_linker_0, # of connection points: 2
#     Edge 37, Type (0, 0), BuildingBlock: EZIPEK_clean_linker_0, # of connection points: 2
#     Edge 38, Type (0, 0), BuildingBlock: EZIPEK_clean_linker_0, # of connection points: 2
#     Edge 39, Type (0, 0), BuildingBlock: EZIPEK_clean_linker_0, # of connection points: 2
#     Edge 40, Type (0, 0), BuildingBlock: EZIPEK_clean_linker_0, # of connection points: 2
#     Edge 41, Type (0, 0), BuildingBlock: EZIPEK_clean_linker_0, # of connection points: 2
#     Edge 42, Type (0, 0), BuildingBlock: EZIPEK_clean_linker_0, # of connection points: 2
#     Edge 43, Type (0, 0), BuildingBlock: EZIPEK_clean_linker_0, # of connection points: 2
#     Edge 44, Type (0, 0), BuildingBlock: EZIPEK_clean_linker_0, # of connection points: 2
#     Edge 45, Type (0, 0), BuildingBlock: EZIPEK_clean_linker_0, # of connection points: 2
#     Edge 46, Type (0, 0), BuildingBlock: EZIPEK_clean_linker_0, # of connection points: 2
#     Edge 47, Type (0, 0), BuildingBlock: EZIPEK_clean_linker_0, # of connection points: 2
# Relax obj value: 0.220
# Max RMSD: 0.228
# Mean RMSD: 0.228
data_MOF--net-upc--node1-GALJAG_clean_sbu_0--edge1-EZIPEK_clean_linker_0
_symmetry_space_group_name_H-M    P1
_symmetry_Int_Tables_number       1
_symmetry_cell_setting            triclinic
loop_
_symmetry_equiv_pos_as_xyz
'x, y, z'
_cell_length_a     25.889249
_cell_length_b     25.907144
_cell_length_c     29.432614
_cell_angle_alpha  90.123675
_cell_angle_beta   90.236172
_cell_angle_gamma 89.735045
loop_
_atom_site_label
_atom_site_type_symbol
_atom_site_fract_x
_atom_site_fract_y
_atom_site_fract_z
_atom_type_partial_charge
In0 In 0.07995 0.622 0.11247 0.0
O1 O 0.10907 0.54612 0.14494 0.0
O2 O 0.03642 0.57708 0.16524 0.0
C3 C 0.16675 0.6783 0.09903 0.0
C4 C 0.04048 0.56999 0.04115 0.0
C5 C 0.02871 0.69949 0.15281 0.0
O6 O 0.16147 0.64829 0.13246 0.0
O7 O 0.13031 0.67652 0.07045 0.0
O8 O 0.02277 0.69001 0.11092 0.0
O9 O 0.05936 0.66964 0.17348 0.0
C10 C 0.0688 0.54092 0.16873 0.0
O11 O 0.01412 0.60134 0.06449 0.0
O12 O 0.08795 0.56821 0.05118 0.0
In13 In 0.89898 0.10233 0.15116 0.0
O14 O 0.91533 0.04493 0.09514 0.0
O15 O 0.95887 0.11484 0.0962 0.0
C16 C 0.83593 0.03769 0.19399 0.0
C17 C 0.98309 0.10212 0.20511 0.0
C18 C 0.82747 0.17692 0.13374 0.0
O19 O 0.85564 0.07674 0.21285 0.0
O20 O 0.84918 0.03006 0.15332 0.0
O21 O 0.85515 0.17715 0.16915 0.0
O22 O 0.83817 0.14151 0.10589 0.0
C23 C 0.95171 0.07094 0.07852 0.0
O24 O 0.96725 0.14347 0.18673 0.0
O25 O 0.95602 0.06286 0.19735 0.0
In26 In 0.41346 0.8915 0.12149 0.0
O27 O 0.37901 0.96192 0.15975 0.0
O28 O 0.46014 0.94801 0.16228 0.0
C29 C 0.33255 0.82947 0.10168 0.0
C30 C 0.45315 0.93467 0.04666 0.0
C31 C 0.4588 0.82301 0.17662 0.0
O32 O 0.32762 0.87024 0.12509 0.0
O33 O 0.37716 0.82221 0.08561 0.0
O34 O 0.47527 0.83054 0.13683 0.0
O35 O 0.42051 0.85026 0.1881 0.0
C36 C 0.42281 0.97582 0.17463 0.0
O37 O 0.47917 0.90655 0.07322 0.0
O38 O 0.40549 0.93735 0.05551 0.0
In39 In 0.60323 0.40457 0.16101 0.0
O40 O 0.56688 0.38999 0.23047 0.0
O41 O 0.51682 0.39629 0.17424 0.0
C42 C 0.65541 0.31804 0.13348 0.0
C43 C 0.56611 0.45885 0.09039 0.0
C44 C 0.67015 0.46071 0.21039 0.0
O45 O 0.62335 0.31822 0.16577 0.0
O46 O 0.66023 0.36172 0.11518 0.0
O47 O 0.68291 0.42036 0.18929 0.0
O48 O 0.62389 0.47477 0.20496 0.0
C49 C 0.52071 0.39202 0.21671 0.0
O50 O 0.59715 0.47802 0.11889 0.0
O51 O 0.55627 0.41163 0.09583 0.0
In52 In 0.08576 0.90066 0.34883 0.0
O53 O 0.0057 0.90535 0.38126 0.0
O54 O 0.0696 0.93515 0.41858 0.0
C55 C 0.0345 0.84878 0.28329 0.0
C56 C 0.10987 0.99222 0.30994 0.0
C57 C 0.16704 0.83895 0.37202 0.0
O58 O 0.0617 0.82669 0.3131 0.0
O59 O 0.0303 0.89691 0.28802 0.0
O60 O 0.17197 0.87856 0.34748 0.0
O61 O 0.12206 0.8322 0.38703 0.0
C62 C 0.02141 0.92874 0.41625 0.0
O63 O 0.09915 0.98761 0.35146 0.0
O64 O 0.11297 0.94957 0.28924 0.0
In65 In 0.61301 0.08555 0.35994 0.0
O66 O 0.60182 0.02394 0.41309 0.0
O67 O 0.55802 0.09331 0.42007 0.0
C68 C 0.67924 0.03112 0.30955 0.0
C69 C 0.53131 0.08153 0.30317 0.0
C70 C 0.67841 0.16454 0.37765 0.0
O71 O 0.66646 0.01668 0.34883 0.0
O72 O 0.65788 0.07218 0.29587 0.0
O73 O 0.6369 0.17046 0.35551 0.0
O74 O 0.68489 0.11995 0.39377 0.0
C75 C 0.56757 0.04842 0.43446 0.0
O76 O 0.54518 0.12376 0.32094 0.0
O77 O 0.55838 0.04295 0.31371 0.0
In78 In 0.41035 0.61769 0.37356 0.0
O79 O 0.37608 0.5448 0.33991 0.0
O80 O 0.45713 0.55786 0.33587 0.0
C81 C 0.32791 0.68148 0.38675 0.0
C82 C 0.45153 0.58249 0.4516 0.0
C83 C 0.45716 0.67795 0.3132 0.0
O84 O 0.32289 0.63492 0.37456 0.0
O85 O 0.37371 0.69429 0.39578 0.0
O86 O 0.47575 0.67079 0.35246 0.0
O87 O 0.41642 0.65328 0.30419 0.0
C88 C 0.41968 0.52899 0.32623 0.0
O89 O 0.47092 0.61954 0.42996 0.0
O90 O 0.4088 0.56663 0.43649 0.0
In91 In 0.90684 0.39623 0.36046 0.0
O92 O 0.96508 0.3675 0.3069 0.0
O93 O 0.95634 0.44847 0.31829 0.0
C94 C 0.84456 0.31462 0.37623 0.0
C95 C 0.96535 0.41753 0.43331 0.0
C96 C 0.83386 0.456 0.3225 0.0
O97 O 0.88097 0.31293 0.34777 0.0
O98 O 0.84193 0.35589 0.39887 0.0
O99 O 0.84964 0.46392 0.36258 0.0
O100 O 0.85516 0.41866 0.30227 0.0
C101 C 0.97843 0.41291 0.29645 0.0
O102 O 0.92756 0.44527 0.42141 0.0
O103 O 0.97261 0.37738 0.40978 0.0
In104 In 0.90636 0.38911 0.83397 0.0
O105 O 0.96988 0.41409 0.88233 0.0
O106 O 0.89275 0.43024 0.90232 0.0
C107 C 0.96931 0.33072 0.78179 0.0
C108 C 0.89935 0.47327 0.78039 0.0
C109 C 0.82996 0.31979 0.84817 0.0
O110 O 0.97288 0.33187 0.82454 0.0
O111 O 0.93284 0.35783 0.76605 0.0
O112 O 0.82095 0.3653 0.83475 0.0
O113 O 0.87675 0.31036 0.85704 0.0
C114 C 0.94039 0.4356 0.91055 0.0
O115 O 0.86132 0.44342 0.78545 0.0
O116 O 0.93894 0.46126 0.80296 0.0
In117 In 0.13699 0.93795 0.87614 0.0
O118 O 0.12249 1.00362 0.92534 0.0
O119 O 0.08349 0.9322 0.93663 0.0
C120 C 0.19592 0.98185 0.81361 0.0
C121 C 0.05219 0.93535 0.82344 0.0
C122 C 0.20945 0.86973 0.90485 0.0
O123 O 0.17551 0.93808 0.8085 0.0
O124 O 0.18635 0.00457 0.85072 0.0
O125 O 0.1693 0.85543 0.88366 0.0
O126 O 0.21123 0.91732 0.9138 0.0
C127 C 0.08966 0.97881 0.94807 0.0
O128 O 0.07133 0.89404 0.83953 0.0
O129 O 0.07545 0.97615 0.83422 0.0
In130 In 0.59799 0.0888 0.83229 0.0
O131 O 0.5361 0.0723 0.8839 0.0
O132 O 0.61223 0.04749 0.90018 0.0
C133 C 0.53748 0.14912 0.77971 0.0
C134 C 0.59458 1.0003 0.78416 0.0
C135 C 0.67714 0.1558 0.84461 0.0
O136 O 0.57323 0.12109 0.764 0.0
O137 O 0.53383 0.14793 0.82241 0.0
O138 O 0.68301 0.11289 0.82464 0.0
O139 O 0.63248 0.16359 0.86015 0.0
C140 C 0.56501 0.04784 0.91083 0.0
O141 O 0.63716 0.02256 0.79192 0.0
O142 O 0.55554 0.02234 0.80065 0.0
In143 In 0.41675 0.63097 0.8856 0.0
O144 O 0.49075 0.65231 0.84651 0.0
O145 O 0.46082 0.57568 0.84148 0.0
C146 C 0.37193 0.71933 0.91687 0.0
C147 C 0.45632 0.57998 0.95663 0.0
C148 C 0.3383 0.6073 0.83051 0.0
O149 O 0.4091 0.71942 0.889 0.0
O150 O 0.3595 0.67463 0.92952 0.0
O151 O 0.34317 0.58654 0.86916 0.0
O152 O 0.37347 0.63847 0.8197 0.0
C153 C 0.4955 0.60711 0.83033 0.0
O154 O 0.41744 0.56371 0.93493 0.0
O155 O 0.47334 0.62335 0.94433 0.0
In156 In 0.90802 0.09905 0.63244 0.0
O157 O 0.95465 0.07712 0.57031 0.0
O158 O 0.87994 0.04392 0.57655 0.0
C159 C 0.9711 0.16749 0.67207 0.0
C160 C 0.92712 0.02231 0.69199 0.0
C161 C 0.82973 0.16822 0.62388 0.0
O162 O 0.97584 0.15505 0.63073 0.0
O163 O 0.93517 0.14489 0.69279 0.0
O164 O 0.82592 0.12835 0.64842 0.0
O165 O 0.871 0.17101 0.60144 0.0
C166 C 0.92172 0.04605 0.55461 0.0
O167 O 0.88153 0.0385 0.68482 0.0
O168 O 0.96134 0.0433 0.66812 0.0
In169 In 0.39123 0.89102 0.62826 0.0
O170 O 0.40652 0.96147 0.5853 0.0
O171 O 0.44766 0.89206 0.56961 0.0
C172 C 0.32986 0.95156 0.67758 0.0
C173 C 0.47681 0.88107 0.67987 0.0
C174 C 0.32339 0.81713 0.60244 0.0
O175 O 0.34342 0.96414 0.63797 0.0
O176 O 0.34718 0.90889 0.69192 0.0
O177 O 0.35442 0.81075 0.63511 0.0
O178 O 0.32838 0.85911 0.58153 0.0
C179 C 0.44057 0.93942 0.56163 0.0
O180 O 0.46982 0.85298 0.64528 0.0
O181 O 0.4397 0.91046 0.68959 0.0
In182 In 0.5979 0.39887 0.65186 0.0
O183 O 0.53039 0.42434 0.60792 0.0
O184 O 0.60427 0.45583 0.59286 0.0
C185 C 0.53832 0.32216 0.6823 0.0
C186 C 0.59758 0.47703 0.71249 0.0
C187 C 0.6803 0.33638 0.63474 0.0
O188 O 0.53455 0.33904 0.64224 0.0
O189 O 0.57101 0.34512 0.70697 0.0
O190 O 0.67595 0.36204 0.67101 0.0
O191 O 0.64561 0.3455 0.60559 0.0
C192 C 0.55639 0.45515 0.58424 0.0
O193 O 0.63423 0.47124 0.68468 0.0
O194 O 0.56345 0.44265 0.71098 0.0
In195 In 0.10709 0.59257 0.63122 0.0
O196 O 0.02635 0.6252 0.64777 0.0
O197 O 0.04961 0.55186 0.67459 0.0
C198 C 0.16157 0.66887 0.59116 0.0
C199 C 0.08252 0.525 0.56636 0.0
C200 C 0.17195 0.58627 0.70157 0.0
O201 O 0.1195 0.67728 0.61186 0.0
O202 O 0.17426 0.62185 0.59004 0.0
O203 O 0.17576 0.55637 0.6677 0.0
O204 O 0.13384 0.61682 0.70088 0.0
C205 C 0.01473 0.58571 0.67088 0.0
O206 O 0.11075 0.51229 0.59969 0.0
O207 O 0.06967 0.57202 0.56448 0.0
C208 C 0.26137 0.70039 0.10479 0.0
C209 C 0.20977 0.71644 0.09624 0.0
C210 C 0.24073 0.80489 0.0831 0.0
C211 C 0.29083 0.79016 0.09782 0.0
N212 N 0.34585 0.72515 0.13214 0.0
N213 N 0.14932 0.78738 0.08691 0.0
C214 C 0.30049 0.73817 0.11107 0.0
C215 C 0.19909 0.76961 0.08776 0.0
N216 N 0.27353 0.64902 0.10542 0.0
N217 N 0.23298 0.85213 0.06361 0.0
H218 H 0.11752 0.76391 0.09266 0.0
H219 H 0.13987 0.82649 0.08549 0.0
H220 H 0.26275 0.87856 0.05884 0.0
H221 H 0.19834 0.86279 0.048 0.0
H222 H 0.31143 0.63537 0.10689 0.0
H223 H 0.24634 0.62018 0.09947 0.0
H224 H 0.35258 0.68902 0.14654 0.0
H225 H 0.37458 0.75183 0.13975 0.0
C226 C 0.77832 0.2498 0.09672 0.0
C227 C 0.78009 0.20921 0.1289 0.0
C228 C 0.68997 0.22787 0.15024 0.0
C229 C 0.69155 0.27353 0.12365 0.0
N230 N 0.72462 0.30971 0.0543 0.0
N231 N 0.73664 0.15539 0.18345 0.0
C232 C 0.73209 0.27931 0.09163 0.0
C233 C 0.73542 0.19681 0.15468 0.0
N234 N 0.82141 0.26136 0.07212 0.0
N235 N 0.64392 0.21209 0.16787 0.0
H236 H 0.76798 0.13016 0.18569 0.0
H237 H 0.70767 0.14671 0.20654 0.0
H238 H 0.60899 0.22965 0.15908 0.0
H239 H 0.6388 0.17809 0.18596 0.0
H240 H 0.82452 0.2942 0.052 0.0
H241 H 0.85557 0.23996 0.07435 0.0
H242 H 0.75104 0.31256 0.02786 0.0
H243 H 0.68876 0.32596 0.04646 0.0
C244 C 0.23146 0.78835 0.41899 0.0
C245 C 0.20814 0.79868 0.37623 0.0
C246 C 0.26028 0.72942 0.34116 0.0
C247 C 0.28524 0.7205 0.38371 0.0
N248 N 0.30005 0.74618 0.46144 0.0
N249 N 0.20079 0.78122 0.29591 0.0
C250 C 0.27234 0.75133 0.42211 0.0
C251 C 0.22265 0.7697 0.33715 0.0
N252 N 0.21377 0.81322 0.45693 0.0
N253 N 0.27299 0.69975 0.30426 0.0
H254 H 0.17024 0.80716 0.29188 0.0
H255 H 0.21378 0.76688 0.26496 0.0
H256 H 0.30439 0.67453 0.30356 0.0
H257 H 0.25179 0.69867 0.2742 0.0
H258 H 0.2244 0.80301 0.48988 0.0
H259 H 0.18574 0.84224 0.45575 0.0
H260 H 0.29878 0.77318 0.48763 0.0
H261 H 0.32698 0.71675 0.46682 0.0
C262 C 0.78888 0.25097 0.41849 0.0
C263 C 0.8026 0.27563 0.37723 0.0
C264 C 0.73785 0.22459 0.33636 0.0
C265 C 0.72024 0.2038 0.37814 0.0
N266 N 0.72394 0.20309 0.46005 0.0
N267 N 0.78041 0.2955 0.29925 0.0
C268 C 0.74444 0.21855 0.4196 0.0
C269 C 0.77434 0.2652 0.33683 0.0
N270 N 0.81916 0.25728 0.45623 0.0
N271 N 0.72204 0.2039 0.29587 0.0
H272 H 0.80545 0.32682 0.29813 0.0
H273 H 0.75645 0.29301 0.27078 0.0
H274 H 0.69735 0.1724 0.29332 0.0
H275 H 0.73809 0.21439 0.26486 0.0
H276 H 0.81432 0.23628 0.48603 0.0
H277 H 0.85204 0.28042 0.45646 0.0
H278 H 0.73665 0.21666 0.49147 0.0
H279 H 0.69102 0.18016 0.46212 0.0
C280 C 0.77576 0.25387 0.88887 0.0
C281 C 0.79019 0.27838 0.84771 0.0
C282 C 0.73344 0.21992 0.80431 0.0
C283 C 0.71758 0.19661 0.84569 0.0
N284 N 0.71986 0.19287 0.92748 0.0
N285 N 0.78226 0.28701 0.76632 0.0
C286 C 0.7377 0.21408 0.88803 0.0
C287 C 0.76884 0.26199 0.80545 0.0
N288 N 0.79897 0.26841 0.92872 0.0
N289 N 0.71473 0.20158 0.7638 0.0
H290 H 0.81134 0.31461 0.76472 0.0
H291 H 0.76344 0.2823 0.73535 0.0
H292 H 0.68561 0.17407 0.76137 0.0
H293 H 0.72905 0.21181 0.73213 0.0
H294 H 0.79503 0.24882 0.95931 0.0
H295 H 0.82446 0.29937 0.93104 0.0
H296 H 0.72789 0.20734 0.95971 0.0
H297 H 0.69482 0.16147 0.92812 0.0
C298 C 0.3454 0.81204 0.90185 0.0
C299 C 0.33798 0.76555 0.92609 0.0
C300 C 0.24933 0.79317 0.94488 0.0
C301 C 0.25414 0.83485 0.91399 0.0
N302 N 0.30564 0.88186 0.85976 0.0
N303 N 0.29268 0.72529 0.9876 0.0
C304 C 0.30213 0.84425 0.89211 0.0
C305 C 0.29264 0.75995 0.95272 0.0
N306 N 0.39422 0.82704 0.89068 0.0
N307 N 0.20323 0.78509 0.96617 0.0
H308 H 0.32639 0.70679 -0.00151 0.0
H309 H 0.26159 0.71918 0.00904 0.0
H310 H 0.17201 0.81049 0.96336 0.0
H311 H 0.19477 0.75224 0.98493 0.0
H312 H 0.40262 0.86259 0.87606 0.0
H313 H 0.4269 0.80731 0.90226 0.0
H314 H 0.33781 0.88644 0.83902 0.0
H315 H 0.27473 0.90553 0.85051 0.0
C316 C 0.70204 0.24255 0.62067 0.0
C317 C 0.71894 0.29387 0.62951 0.0
C318 C 0.80771 0.26166 0.63876 0.0
C319 C 0.79157 0.21146 0.62513 0.0
N320 N 0.7249 0.15654 0.59483 0.0
N321 N 0.78929 0.35353 0.63919 0.0
C322 C 0.73915 0.20262 0.61364 0.0
C323 C 0.77225 0.30378 0.63625 0.0
N324 N 0.65059 0.23107 0.62166 0.0
N325 N 0.85608 0.26879 0.65647 0.0
H326 H 0.76457 0.38535 0.63709 0.0
H327 H 0.82828 0.36331 0.6393 0.0
H328 H 0.88282 0.23894 0.66028 0.0
H329 H 0.86794 0.30316 0.6716 0.0
H330 H 0.63656 0.19346 0.62044 0.0
H331 H 0.62204 0.25843 0.62843 0.0
H332 H 0.68831 0.14996 0.58115 0.0
H333 H 0.75101 0.12649 0.58896 0.0
C334 C 0.24968 0.69727 0.56477 0.0
C335 C 0.19894 0.71065 0.57879 0.0
C336 C 0.22863 0.79724 0.59944 0.0
C337 C 0.28057 0.78099 0.59236 0.0
N338 N 0.34139 0.71549 0.56899 0.0
N339 N 0.13776 0.78017 0.58601 0.0
C340 C 0.29136 0.73099 0.57508 0.0
C341 C 0.18754 0.76285 0.58909 0.0
N342 N 0.25714 0.65448 0.53837 0.0
N343 N 0.21863 0.84421 0.61889 0.0
H344 H 0.1081 0.75697 0.57345 0.0
H345 H 0.12717 0.81878 0.58954 0.0
H346 H 0.24751 0.87023 0.62794 0.0
H347 H 0.18209 0.85565 0.62975 0.0
H348 H 0.29254 0.64431 0.5242 0.0
H349 H 0.2263 0.63327 0.52528 0.0
H350 H 0.35194 0.67752 0.56182 0.0
H351 H 0.37279 0.74005 0.57365 0.0
C352 C 0.98937 0.43059 0.21465 0.0
C353 C 0.01238 0.42581 0.25798 0.0
C354 C 0.08449 0.48055 0.23435 0.0
C355 C 0.05592 0.49377 0.19475 0.0
N356 N 0.98345 0.47895 0.14445 0.0
N357 N 0.08457 0.43747 0.30798 0.0
C358 C 0.00954 0.46715 0.18362 0.0
C359 C 0.06148 0.44738 0.26709 0.0
N360 N 0.94751 0.40092 0.20393 0.0
N361 N 0.13244 0.50109 0.24117 0.0
H362 H 0.06939 0.41065 0.3307 0.0
H363 H 0.11789 0.45546 0.31972 0.0
H364 H 0.14955 0.52629 0.21822 0.0
H365 H 0.15673 0.49122 0.26802 0.0
H366 H 0.93073 0.39929 0.17179 0.0
H367 H 0.93225 0.37407 0.22652 0.0
H368 H 0.94647 0.46596 0.13677 0.0
H369 H 0.99805 0.50381 0.11993 0.0
C370 C 0.07324 0.06947 0.20936 0.0
C371 C 0.03223 0.09687 0.23043 0.0
C372 C 0.07127 0.08101 0.30478 0.0
C373 C 0.1017 0.04162 0.2847 0.0
N374 N 0.14955 0.01484 0.21929 0.0
N375 N 0.99554 0.13612 0.29702 0.0
C376 C 0.109 0.04184 0.23712 0.0
C377 C 0.03313 0.10622 0.2778 0.0
N378 N 0.07569 0.06796 0.16303 0.0
N379 N 0.0792 0.09397 0.34919 0.0
H380 H 0.96837 0.15614 0.27745 0.0
H381 H 0.99037 0.13975 0.33194 0.0
H382 H 0.1097 0.07813 0.36792 0.0
H383 H 0.05994 0.12407 0.36548 0.0
H384 H 0.1021 0.04603 0.14466 0.0
H385 H 0.05072 0.0898 0.14272 0.0
H386 H 0.15809 0.01268 0.18485 0.0
H387 H 0.17694 0.99701 0.24026 0.0
C388 C 0.49891 0.08382 0.22356 0.0
C389 C 0.48864 0.07598 0.27016 0.0
C390 C 0.41773 0.0174 0.25154 0.0
C391 C 0.43212 0.02033 0.2052 0.0
N392 N 0.4732 0.06744 0.14539 0.0
N393 N 0.42922 0.05112 0.3282 0.0
C394 C 0.46805 0.05793 0.19072 0.0
C395 C 0.44443 0.04835 0.28391 0.0
N396 N 0.54039 0.11288 0.21109 0.0
N397 N 0.38169 0.98228 0.2649 0.0
H398 H 0.44872 0.07408 0.35186 0.0
H399 H 0.3954 0.03473 0.34044 0.0
H400 H 0.36045 0.96032 0.2418 0.0
H401 H 0.37401 0.97363 0.29872 0.0
H402 H 0.55408 0.11527 0.17797 0.0
H403 H 0.56224 0.13368 0.23465 0.0
H404 H 0.49611 0.09659 0.13208 0.0
H405 H 0.45049 0.04851 0.12132 0.0
C406 C 0.48634 0.40434 0.29557 0.0
C407 C 0.47725 0.40491 0.24816 0.0
C408 C 0.41157 0.4722 0.25722 0.0
C409 C 0.42848 0.47916 0.3027 0.0
N410 N 0.47253 0.44615 0.36876 0.0
N411 N 0.4123 0.41686 0.19051 0.0
C412 C 0.46226 0.44257 0.32326 0.0
C413 C 0.43337 0.43144 0.23107 0.0
N414 N 0.51753 0.36681 0.3134 0.0
N415 N 0.37788 0.50662 0.23806 0.0
H416 H 0.42534 0.38417 0.17313 0.0
H417 H 0.37833 0.43263 0.17737 0.0
H418 H 0.36036 0.53627 0.2565 0.0
H419 H 0.36935 0.50734 0.20345 0.0
H420 H 0.52585 0.3627 0.34779 0.0
H421 H 0.53199 0.33685 0.29326 0.0
H422 H 0.50002 0.42404 0.3858 0.0
H423 H 0.45287 0.472 0.38984 0.0
C424 C 0.9546 0.59293 0.73623 0.0
C425 C 0.96367 0.57654 0.69118 0.0
C426 C 0.90417 0.50444 0.7002 0.0
C427 C 0.90182 0.51604 0.74724 0.0
N428 N 0.90594 0.58009 0.80583 0.0
N429 N 0.93338 0.53123 0.62538 0.0
C430 C 0.92023 0.56395 0.76358 0.0
C431 C 0.933 0.53745 0.67142 0.0
N432 N 0.98168 0.63365 0.75345 0.0
N433 N 0.88297 0.45985 0.684 0.0
H434 H 0.95512 0.55524 0.60442 0.0
H435 H 0.90933 0.50578 0.608 0.0
H436 H 0.85973 0.43624 0.70386 0.0
H437 H 0.88926 0.44573 0.65134 0.0
H438 H 0.9813 0.64438 0.78754 0.0
H439 H 0.00575 0.65602 0.73311 0.0
H440 H 0.91589 0.61572 0.81966 0.0
H441 H 0.87968 0.55898 0.82508 0.0
C442 C 0.011 0.92289 0.74711 0.0
C443 C 0.00657 0.93813 0.79313 0.0
C444 C 0.93461 0.99607 0.77422 0.0
C445 C 0.94214 0.98441 0.72752 0.0
N446 N 0.97394 0.92519 0.67121 0.0
N447 N 0.95469 0.97418 0.85268 0.0
C448 C 0.97564 0.94347 0.71471 0.0
C449 C 0.96463 0.96936 0.80732 0.0
N450 N 0.05119 0.89207 0.73388 0.0
N451 N 0.90227 0.03535 0.7868 0.0
H452 H 0.97661 0.95468 0.87716 0.0
H453 H 0.92239 0.99313 0.86565 0.0
H454 H 0.8785 0.05497 0.764 0.0
H455 H 0.90061 0.05018 0.81967 0.0
H456 H 0.06057 0.88503 0.70006 0.0
H457 H 0.07669 0.87511 0.75701 0.0
H458 H 0.99441 0.89287 0.66014 0.0
H459 H 0.94782 0.93981 0.64738 0.0
C460 C 0.59242 0.95514 0.70887 0.0
C461 C 0.58815 0.95277 0.75678 0.0
C462 C 0.52843 0.88027 0.75077 0.0
C463 C 0.52687 0.88776 0.70328 0.0
N464 N 0.57037 0.9164 0.63601 0.0
N465 N 0.56864 0.90282 0.82287 0.0
C466 C 0.5641 0.9193 0.68196 0.0
C467 C 0.5621 0.91113 0.77747 0.0
N468 N 0.61975 0.99411 0.68929 0.0
N469 N 0.49509 0.84614 0.77012 0.0
H470 H 0.59426 0.92511 0.84194 0.0
H471 H 0.55282 0.87183 0.84035 0.0
H472 H 0.47173 0.82205 0.75039 0.0
H473 H 0.48973 0.84251 0.805 0.0
H474 H 0.61892 1.00216 0.65465 0.0
H475 H 0.64217 0.01969 0.70825 0.0
H476 H 0.59888 0.9362 0.61842 0.0
H477 H 0.54988 0.89015 0.61608 0.0
C478 C 0.56729 0.56732 0.72475 0.0
C479 C 0.59126 0.52238 0.74258 0.0
C480 C 0.57294 0.55208 0.81979 0.0
C481 C 0.5389 0.58965 0.80156 0.0
N482 N 0.50604 0.63725 0.73759 0.0
N483 N 0.62227 0.4735 0.80645 0.0
C484 C 0.53787 0.59954 0.75427 0.0
C485 C 0.59668 0.51583 0.79008 0.0
N486 N 0.57161 0.57806 0.67952 0.0
N487 N 0.58157 0.55101 0.86558 0.0
H488 H 0.642 0.44792 0.78515 0.0
H489 H 0.62269 0.46288 0.84053 0.0
H490 H 0.56458 0.57787 0.88749 0.0
H491 H 0.60841 0.52683 0.88128 0.0
H492 H 0.55805 0.61192 0.66462 0.0
H493 H 0.59278 0.55464 0.65745 0.0
H494 H 0.49845 0.6426 0.70317 0.0
H495 H 0.4856 0.66236 0.75877 0.0
C496 C 0.01893 0.79418 0.1645 0.0
C497 C 0.00504 0.74359 0.17714 0.0
C498 C 0.98482 0.77411 0.25371 0.0
C499 C 0.01273 0.81973 0.24443 0.0
N500 N 0.05481 0.87525 0.18981 0.0
N501 N 0.96494 0.68639 0.23027 0.0
C502 C 0.02793 0.8313 0.19917 0.0
C503 C 0.98372 0.73427 0.22054 0.0
N504 N 0.02443 0.80633 0.1197 0.0
N505 N 0.96024 0.7691 0.29444 0.0
H506 H 0.9612 0.65792 0.20528 0.0
H507 H 0.95425 0.67456 0.26265 0.0
H508 H 0.96019 0.79858 0.3187 0.0
H509 H 0.93647 0.73822 0.30257 0.0
H510 H 0.0309 0.84374 0.10821 0.0
H511 H 0.01659 0.77996 0.09383 0.0
H512 H 0.07331 0.88149 0.15895 0.0
H513 H 0.06142 0.90438 0.21346 0.0
C514 C 0.74574 0.005 0.20201 0.0
C515 C 0.79732 0.00671 0.21821 0.0
C516 C 0.76865 0.99626 0.29641 0.0
C517 C 0.71728 0.00408 0.28084 0.0
N518 N 0.65525 0.9931 0.2209 0.0
N519 N 0.8585 0.9822 0.27556 0.0
C520 C 0.7054 1.00003 0.23407 0.0
C521 C 0.80878 0.99411 0.26381 0.0
N522 N 0.73511 0.0125 0.15703 0.0
N523 N 0.77956 0.99518 0.34183 0.0
H524 H 0.88788 0.98084 0.25134 0.0
H525 H 0.86957 0.96931 0.30765 0.0
H526 H 0.75116 0.99336 0.36667 0.0
H527 H 0.81687 0.99679 0.35506 0.0
H528 H 0.69809 0.01916 0.14434 0.0
H529 H 0.7636 0.01288 0.1322 0.0
H530 H 0.64387 0.98643 0.18744 0.0
H531 H 0.6256 0.98922 0.24462 0.0
C532 C 0.48321 0.76743 0.29016 0.0
C533 C 0.47912 0.71404 0.27988 0.0
C534 C 0.48247 0.73208 0.19849 0.0
C535 C 0.48134 0.78555 0.20884 0.0
N536 N 0.50172 0.85322 0.26173 0.0
N537 N 0.49421 0.64485 0.22697 0.0
C538 C 0.48939 0.80274 0.25393 0.0
C539 C 0.48567 0.6962 0.23476 0.0
N540 N 0.47677 0.78499 0.33361 0.0
N541 N 0.47662 0.71544 0.15474 0.0
H542 H 0.49711 0.61819 0.25343 0.0
H543 H 0.50348 0.62968 0.19522 0.0
H544 H 0.4762 0.74016 0.12693 0.0
H545 H 0.46982 0.67708 0.14621 0.0
H546 H 0.47259 0.82392 0.34176 0.0
H547 H 0.47268 0.76083 0.36153 0.0
H548 H 0.51212 0.86755 0.29356 0.0
H549 H 0.5067 0.87942 0.2352 0.0
C550 C 0.75504 0.50076 0.22468 0.0
C551 C 0.70656 0.48577 0.242 0.0
C552 C 0.74202 0.48542 0.31911 0.0
C553 C 0.79203 0.48543 0.29993 0.0
N554 N 0.84775 0.50582 0.23758 0.0
N555 N 0.65078 0.47039 0.30608 0.0
C556 C 0.79889 0.49853 0.25368 0.0
C557 C 0.69864 0.48179 0.28956 0.0
N558 N 0.75866 0.51548 0.18028 0.0
N559 N 0.73627 0.48766 0.36515 0.0
H560 H 0.61775 0.46972 0.28577 0.0
H561 H 0.64386 0.45997 0.33964 0.0
H562 H 0.76752 0.49203 0.38719 0.0
H563 H 0.70064 0.49114 0.38117 0.0
H564 H 0.79228 0.52913 0.16538 0.0
H565 H 0.7262 0.51753 0.15914 0.0
H566 H 0.8568 0.51019 0.2034 0.0
H567 H 0.87976 0.50696 0.25928 0.0
C568 C 1.00185 0.2589 0.67523 0.0
C569 C 1.0005 0.20909 0.69487 0.0
C570 C 0.01685 0.24691 0.76963 0.0
C571 C 0.99912 0.29469 0.7522 0.0
N572 N 0.99312 0.35132 0.68785 0.0
N573 N 0.01999 0.15407 0.75839 0.0
C574 C 0.99846 0.30248 0.70453 0.0
C575 C 0.0134 0.20265 0.74135 0.0
N576 N 0.00591 0.26427 0.62926 0.0
N577 N 0.03742 0.24423 0.8123 0.0
H578 H 0.02093 0.12157 0.73732 0.0
H579 H 0.02315 0.14601 0.79294 0.0
H580 H 0.04506 0.27725 0.83144 0.0
H581 H 0.05311 0.21065 0.8261 0.0
H582 H 0.00896 0.29962 0.61283 0.0
H583 H 0.01208 0.23294 0.60773 0.0
H584 H 0.9852 0.35956 0.65401 0.0
H585 H 0.99647 0.38382 0.70871 0.0
C586 C 0.31769 0.99937 0.74927 0.0
C587 C 0.29731 0.98423 0.70666 0.0
C588 C 0.21009 1.0018 0.73324 0.0
C589 C 0.22972 1.00247 0.77811 0.0
N590 N 0.30167 0.01092 0.82977 0.0
N591 N 0.22547 0.9782 0.65464 0.0
C592 C 0.28351 0.00585 0.78637 0.0
C593 C 0.24393 0.98929 0.69708 0.0
N594 N 0.36974 0.00622 0.7539 0.0
N595 N 0.15872 0.01113 0.72613 0.0
H596 H 0.24969 0.97066 0.62719 0.0
H597 H 0.18639 0.97504 0.64679 0.0
H598 H 0.13393 0.02023 0.75294 0.0
H599 H 0.14178 0.01423 0.69412 0.0
H600 H 0.3873 0.02041 0.78322 0.0
H601 H 0.39487 1.00197 0.72646 0.0
H602 H 0.34038 0.00678 0.83878 0.0
H603 H 0.27749 0.01814 0.85728 0.0
C604 C 0.48803 0.23215 0.76989 0.0
C605 C 0.50897 0.18667 0.75066 0.0
C606 C 0.51362 0.2286 0.67658 0.0
C607 C 0.51008 0.27674 0.69963 0.0
N608 N 0.48027 0.32534 0.76417 0.0
N609 N 0.51497 0.1347 0.68345 0.0
C610 C 0.49173 0.27869 0.7449 0.0
C611 C 0.51285 0.18259 0.70287 0.0
N612 N 0.46371 0.23025 0.81088 0.0
N613 N 0.52011 0.22716 0.63057 0.0
H614 H 0.51049 0.10124 0.70274 0.0
H615 H 0.51703 0.12783 0.64871 0.0
H616 H 0.51569 0.25961 0.61015 0.0
H617 H 0.52837 0.19389 0.61213 0.0
H618 H 0.44555 0.26184 0.8259 0.0
H619 H 0.456 0.1953 0.82696 0.0
H620 H 0.4727 0.33047 0.79859 0.0
H621 H 0.47949 0.35934 0.74515 0.0
C622 C 0.26745 0.64491 0.78408 0.0
C623 C 0.29246 0.60029 0.8013 0.0
C624 C 0.23197 0.54586 0.75891 0.0
C625 C 0.21281 0.59048 0.73646 0.0
N626 N 0.22277 0.68155 0.7199 0.0
N627 N 0.30345 0.50761 0.80041 0.0
C628 C 0.23324 0.63987 0.74693 0.0
C629 C 0.27596 0.5504 0.78772 0.0
N630 N 0.27526 0.69204 0.8039 0.0
N631 N 0.20743 0.49962 0.75381 0.0
H632 H 0.33639 0.50931 0.82082 0.0
H633 H 0.29617 0.47091 0.78742 0.0
H634 H 0.17441 0.49515 0.73379 0.0
H635 H 0.21684 0.46703 0.77285 0.0
H636 H 0.25417 0.72486 0.79486 0.0
H637 H 0.29819 0.6971 0.83278 0.0
H638 H 0.24101 0.71705 0.72409 0.0
H639 H 0.20094 0.67935 0.69015 0.0
C640 C 0.02199 0.48055 0.01108 0.0
C641 C 0.01608 0.53507 0.00723 0.0
C642 C 0.9521 0.523 0.94638 0.0
C643 C 0.96148 0.46886 0.94733 0.0
N644 N 0.00814 0.39595 0.97784 0.0
N645 N 0.9836 0.60833 0.96557 0.0
C646 C 0.99741 0.44769 0.97881 0.0
C647 C 0.98307 0.55631 0.97352 0.0
N648 N 0.0489 0.45981 0.04679 0.0
N649 N 0.91388 0.54294 0.91938 0.0
H650 H 0.00717 0.63379 0.98359 0.0
H651 H 0.96495 0.62571 0.93814 0.0
H652 H 0.89148 0.52073 0.8975 0.0
H653 H 0.90134 0.58112 0.92133 0.0
H654 H 0.04886 0.42066 0.05468 0.0
H655 H 0.0681 0.48175 0.07116 0.0
H656 H 0.03912 0.37918 0.99508 0.0
H657 H 0.9874 0.36979 0.95798 0.0
C658 C 0.02253 0.04466 0.96825 0.0
C659 C 0.05627 0.00407 0.98202 0.0
C660 C 0.01937 0.00575 0.05838 0.0
C661 C 0.98793 0.04848 0.04533 0.0
N662 N 0.96417 0.11354 0.99055 0.0
N663 N 0.09317 0.95111 0.04108 0.0
C664 C 0.99121 0.06967 0.00116 0.0
C665 C 0.05631 0.98583 0.02732 0.0
N666 N 0.01805 0.05725 0.92327 0.0
N667 N 0.01401 0.98417 0.10048 0.0
H668 H 0.12116 0.93611 0.01925 0.0
H669 H 0.099 0.94028 0.07475 0.0
H670 H 0.99098 0.99998 0.12594 0.0
H671 H 0.0305 0.94901 0.10968 0.0
H672 H 0.98969 0.08194 0.91049 0.0
H673 H 0.03967 0.0397 0.89776 0.0
H674 H 0.96992 0.13445 0.96084 0.0
H675 H 0.93822 0.13118 0.01278 0.0
C676 C 0.47331 0.01856 0.00672 0.0
C677 C 0.47868 0.96392 0.00974 0.0
C678 C 0.54923 0.96568 0.95428 0.0
C679 C 0.5428 0.01994 0.95011 0.0
N680 N 0.50893 0.09952 0.9798 0.0
N681 N 0.51194 0.88466 0.97836 0.0
C682 C 0.50736 0.04673 0.97826 0.0
C683 C 0.51423 0.93732 0.98151 0.0
N684 N 0.43495 0.04361 0.02988 0.0
N685 N 0.58958 0.94117 0.93348 0.0
H686 H 0.48495 0.86274 -0.00397 0.0
H687 H 0.53246 0.86309 0.95455 0.0
H688 H 0.61689 0.96001 0.91388 0.0
H689 H 0.5994 0.90275 0.93942 0.0
H690 H 0.42497 0.08207 0.02459 0.0
H691 H 0.40992 0.02566 0.05227 0.0
H692 H 0.48844 0.122 0.00292 0.0
H693 H 0.5352 0.121 0.9609 0.0
C694 C 0.51244 0.50462 0.97716 0.0
C695 C 0.48319 0.54836 0.99115 0.0
C696 C 0.5056 0.53122 0.07061 0.0
C697 C 0.53876 0.49052 0.05616 0.0
N698 N 0.58016 0.44314 -0.00418 0.0
N699 N 0.45536 0.60698 0.04988 0.0
C700 C 0.54378 0.47831 0.00945 0.0
C701 C 0.48105 0.56294 0.03751 0.0
N702 N 0.51001 0.48793 0.93309 0.0
N703 N 0.49532 0.53776 0.11585 0.0
H704 H 0.43447 0.62964 0.02695 0.0
H705 H 0.45716 0.6228 0.08234 0.0
H706 H 0.5115 0.51471 0.14122 0.0
H707 H 0.46727 0.563 0.12819 0.0
H708 H 0.52563 0.45301 0.92206 0.0
H709 H 0.48933 0.50719 0.90781 0.0
H710 H 0.58983 0.43673 0.96197 0.0
H711 H 0.60416 0.42345 0.01854 0.0
C712 C 0.97055 0.93084 0.48854 0.0
C713 C 0.98583 0.95522 0.44782 0.0
C714 C 0.94731 0.0369 0.47314 0.0
C715 C 0.93368 0.01308 0.51471 0.0
N716 N 0.91851 0.93469 0.55676 0.0
N717 N 0.97781 0.02653 0.39573 0.0
C718 C 0.94054 0.95903 0.52061 0.0
C719 C 0.97048 0.00673 0.43826 0.0
N720 N 0.98649 0.88144 0.49725 0.0
N721 N 0.9391 0.08869 0.4676 0.0
H722 H 0.99483 0.0055 0.36946 0.0
H723 H 0.96331 0.06208 0.38516 0.0
H724 H 0.91855 0.11094 0.49104 0.0
H725 H 0.954 0.11002 0.44078 0.0
H726 H 0.98228 0.86347 0.52862 0.0
H727 H 0.00679 0.85922 0.47364 0.0
H728 H 0.91832 0.89478 0.56078 0.0
H729 H 0.89601 0.95384 0.58073 0.0
C730 C 0.54011 0.03202 0.51447 0.0
C731 C 0.53419 0.02222 0.46741 0.0
C732 C 0.46858 0.95656 0.48232 0.0
C733 C 0.47257 0.96801 0.52923 0.0
N734 N 0.50982 0.01669 0.59127 0.0
N735 N 0.48925 0.98096 0.40522 0.0
C736 C 0.50752 0.00603 0.54572 0.0
C737 C 0.49759 0.98591 0.45096 0.0
N738 N 0.57811 0.06476 0.52906 0.0
N739 N 0.43731 0.9173 0.46781 0.0
H740 H 0.51016 1.00118 0.38102 0.0
H741 H 0.45916 0.95983 0.39096 0.0
H742 H 0.41259 0.89725 0.48931 0.0
H743 H 0.43772 0.90237 0.43497 0.0
H744 H 0.58826 0.07038 0.56292 0.0
H745 H 0.60188 0.08491 0.50678 0.0
H746 H 0.5308 0.04686 0.60539 0.0
H747 H 0.48938 0.99605 0.61561 0.0
C748 C 0.54717 0.4885 0.50465 0.0
C749 C 0.53161 0.49 0.55073 0.0
C750 C 0.46315 0.55253 0.53197 0.0
C751 C 0.48084 0.55346 0.48651 0.0
N752 N 0.54426 0.52816 0.43035 0.0
N753 N 0.48167 0.53034 0.61032 0.0
C754 C 0.52453 0.52356 0.4732 0.0
C755 C 0.4914 0.52388 0.565 0.0
N756 N 0.58122 0.45139 0.49031 0.0
N757 N 0.41907 0.57866 0.54348 0.0
H758 H 0.50184 0.51067 0.6357 0.0
H759 H 0.45691 0.55856 0.62313 0.0
H760 H 0.39899 0.6023 0.52076 0.0
H761 H 0.40063 0.57453 0.57462 0.0
H762 H 0.58934 0.44416 0.45626 0.0
H763 H 0.5981 0.42442 0.5121 0.0
H764 H 0.5796 0.51241 0.42062 0.0
H765 H 0.52726 0.5505 0.40498 0.0
C766 C 0.04136 0.47184 0.45344 0.0
C767 C 1.00311 0.43601 0.46707 0.0
C768 C 0.0242 0.45121 0.54691 0.0
C769 C 0.06203 0.48753 0.53325 0.0
N770 N 0.11604 0.52282 0.47493 0.0
N771 N 0.96599 0.38226 0.52476 0.0
C772 C 0.07373 0.49457 0.48683 0.0
C773 C 0.99736 0.42241 0.51323 0.0
N774 N 0.04511 0.48587 0.40884 0.0
N775 N 0.01125 0.44687 0.59168 0.0
H776 H 0.94534 0.36104 0.50064 0.0
H777 H 0.96382 0.36725 0.55749 0.0
H778 H 0.03082 0.46588 0.61774 0.0
H779 H 0.97847 0.42753 0.60264 0.0
H780 H 0.06785 0.5162 0.39744 0.0
H781 H 0.02296 0.46902 0.38325 0.0
H782 H 0.12959 0.5257 0.44178 0.0
H783 H 0.14057 0.53951 0.49901 0.0
loop_
_geom_bond_atom_site_label_1
_geom_bond_atom_site_label_2
_geom_bond_distance
_geom_bond_site_symmetry_2
_ccdc_geom_bond_type
In0 O1 2.294 . S
In0 O2 2.326 . S
In0 O6 2.266 . S
In0 O7 2.326 . S
In0 O8 2.266 . S
In0 O9 2.326 . S
In0 O11 2.294 . S
In0 O12 2.326 . S
O1 In0 2.294 . S
O1 C10 1.240 . S
O2 In0 2.326 . S
O2 C10 1.252 . S
C3 O6 1.252 . S
C3 O7 1.260 . S
C4 O11 1.240 . S
C4 O12 1.252 . S
C5 O8 1.252 . S
C5 O9 1.260 . S
O6 In0 2.266 . S
O6 C3 1.252 . S
O7 In0 2.326 . S
O7 C3 1.260 . S
O8 In0 2.266 . S
O8 C5 1.252 . S
O9 In0 2.326 . S
O9 C5 1.260 . S
C10 O1 1.240 . S
C10 O2 1.252 . S
O11 In0 2.294 . S
O11 C4 1.240 . S
O12 In0 2.326 . S
O12 C4 1.252 . S
In13 O14 2.294 . S
In13 O15 2.326 . S
In13 O19 2.266 . S
In13 O20 2.326 . S
In13 O21 2.266 . S
In13 O22 2.326 . S
In13 O24 2.294 . S
In13 O25 2.326 . S
O14 In13 2.294 . S
O14 C23 1.240 . S
O15 In13 2.326 . S
O15 C23 1.252 . S
C16 O19 1.252 . S
C16 O20 1.260 . S
C17 O24 1.240 . S
C17 O25 1.252 . S
C18 O21 1.252 . S
C18 O22 1.260 . S
O19 In13 2.266 . S
O19 C16 1.252 . S
O20 In13 2.326 . S
O20 C16 1.260 . S
O21 In13 2.266 . S
O21 C18 1.252 . S
O22 In13 2.326 . S
O22 C18 1.260 . S
C23 O14 1.240 . S
C23 O15 1.252 . S
O24 In13 2.294 . S
O24 C17 1.240 . S
O25 In13 2.326 . S
O25 C17 1.252 . S
In26 O27 2.294 . S
In26 O28 2.326 . S
In26 O32 2.266 . S
In26 O33 2.326 . S
In26 O34 2.266 . S
In26 O35 2.326 . S
In26 O37 2.294 . S
In26 O38 2.326 . S
O27 In26 2.294 . S
O27 C36 1.240 . S
O28 In26 2.326 . S
O28 C36 1.252 . S
C29 O32 1.252 . S
C29 O33 1.260 . S
C30 O37 1.240 . S
C30 O38 1.252 . S
C31 O34 1.252 . S
C31 O35 1.260 . S
O32 In26 2.266 . S
O32 C29 1.252 . S
O33 In26 2.326 . S
O33 C29 1.260 . S
O34 In26 2.266 . S
O34 C31 1.252 . S
O35 In26 2.326 . S
O35 C31 1.260 . S
C36 O27 1.240 . S
C36 O28 1.252 . S
O37 In26 2.294 . S
O37 C30 1.240 . S
O38 In26 2.326 . S
O38 C30 1.252 . S
In39 O40 2.294 . S
In39 O41 2.326 . S
In39 O45 2.266 . S
In39 O46 2.326 . S
In39 O47 2.266 . S
In39 O48 2.326 . S
In39 O50 2.294 . S
In39 O51 2.326 . S
O40 In39 2.294 . S
O40 C49 1.240 . S
O41 In39 2.326 . S
O41 C49 1.252 . S
C42 O45 1.252 . S
C42 O46 1.260 . S
C43 O50 1.240 . S
C43 O51 1.252 . S
C44 O47 1.252 . S
C44 O48 1.260 . S
O45 In39 2.266 . S
O45 C42 1.252 . S
O46 In39 2.326 . S
O46 C42 1.260 . S
O47 In39 2.266 . S
O47 C44 1.252 . S
O48 In39 2.326 . S
O48 C44 1.260 . S
C49 O40 1.240 . S
C49 O41 1.252 . S
O50 In39 2.294 . S
O50 C43 1.240 . S
O51 In39 2.326 . S
O51 C43 1.252 . S
In52 O53 2.294 . S
In52 O54 2.326 . S
In52 O58 2.266 . S
In52 O59 2.326 . S
In52 O60 2.266 . S
In52 O61 2.326 . S
In52 O63 2.294 . S
In52 O64 2.326 . S
O53 In52 2.294 . S
O53 C62 1.240 . S
O54 In52 2.326 . S
O54 C62 1.252 . S
C55 O58 1.252 . S
C55 O59 1.260 . S
C56 O63 1.240 . S
C56 O64 1.252 . S
C57 O60 1.252 . S
C57 O61 1.260 . S
O58 In52 2.266 . S
O58 C55 1.252 . S
O59 In52 2.326 . S
O59 C55 1.260 . S
O60 In52 2.266 . S
O60 C57 1.252 . S
O61 In52 2.326 . S
O61 C57 1.260 . S
C62 O53 1.240 . S
C62 O54 1.252 . S
O63 In52 2.294 . S
O63 C56 1.240 . S
O64 In52 2.326 . S
O64 C56 1.252 . S
In65 O66 2.294 . S
In65 O67 2.326 . S
In65 O71 2.266 . S
In65 O72 2.326 . S
In65 O73 2.266 . S
In65 O74 2.326 . S
In65 O76 2.294 . S
In65 O77 2.326 . S
O66 In65 2.294 . S
O66 C75 1.240 . S
O67 In65 2.326 . S
O67 C75 1.252 . S
C68 O71 1.252 . S
C68 O72 1.260 . S
C69 O76 1.240 . S
C69 O77 1.252 . S
C70 O73 1.252 . S
C70 O74 1.260 . S
O71 In65 2.266 . S
O71 C68 1.252 . S
O72 In65 2.326 . S
O72 C68 1.260 . S
O73 In65 2.266 . S
O73 C70 1.252 . S
O74 In65 2.326 . S
O74 C70 1.260 . S
C75 O66 1.240 . S
C75 O67 1.252 . S
O76 In65 2.294 . S
O76 C69 1.240 . S
O77 In65 2.326 . S
O77 C69 1.252 . S
In78 O79 2.294 . S
In78 O80 2.326 . S
In78 O84 2.266 . S
In78 O85 2.326 . S
In78 O86 2.266 . S
In78 O87 2.326 . S
In78 O89 2.294 . S
In78 O90 2.326 . S
O79 In78 2.294 . S
O79 C88 1.240 . S
O80 In78 2.326 . S
O80 C88 1.252 . S
C81 O84 1.252 . S
C81 O85 1.260 . S
C82 O89 1.240 . S
C82 O90 1.252 . S
C83 O86 1.252 . S
C83 O87 1.260 . S
O84 In78 2.266 . S
O84 C81 1.252 . S
O85 In78 2.326 . S
O85 C81 1.260 . S
O86 In78 2.266 . S
O86 C83 1.252 . S
O87 In78 2.326 . S
O87 C83 1.260 . S
C88 O79 1.240 . S
C88 O80 1.252 . S
O89 In78 2.294 . S
O89 C82 1.240 . S
O90 In78 2.326 . S
O90 C82 1.252 . S
In91 O92 2.294 . S
In91 O93 2.326 . S
In91 O97 2.266 . S
In91 O98 2.326 . S
In91 O99 2.266 . S
In91 O100 2.326 . S
In91 O102 2.294 . S
In91 O103 2.326 . S
O92 In91 2.294 . S
O92 C101 1.240 . S
O93 In91 2.326 . S
O93 C101 1.252 . S
C94 O97 1.252 . S
C94 O98 1.260 . S
C95 O102 1.240 . S
C95 O103 1.252 . S
C96 O99 1.252 . S
C96 O100 1.260 . S
O97 In91 2.266 . S
O97 C94 1.252 . S
O98 In91 2.326 . S
O98 C94 1.260 . S
O99 In91 2.266 . S
O99 C96 1.252 . S
O100 In91 2.326 . S
O100 C96 1.260 . S
C101 O92 1.240 . S
C101 O93 1.252 . S
O102 In91 2.294 . S
O102 C95 1.240 . S
O103 In91 2.326 . S
O103 C95 1.252 . S
In104 O105 2.294 . S
In104 O106 2.326 . S
In104 O110 2.266 . S
In104 O111 2.326 . S
In104 O112 2.266 . S
In104 O113 2.326 . S
In104 O115 2.294 . S
In104 O116 2.326 . S
O105 In104 2.294 . S
O105 C114 1.240 . S
O106 In104 2.326 . S
O106 C114 1.252 . S
C107 O110 1.252 . S
C107 O111 1.260 . S
C108 O115 1.240 . S
C108 O116 1.252 . S
C109 O112 1.252 . S
C109 O113 1.260 . S
O110 In104 2.266 . S
O110 C107 1.252 . S
O111 In104 2.326 . S
O111 C107 1.260 . S
O112 In104 2.266 . S
O112 C109 1.252 . S
O113 In104 2.326 . S
O113 C109 1.260 . S
C114 O105 1.240 . S
C114 O106 1.252 . S
O115 In104 2.294 . S
O115 C108 1.240 . S
O116 In104 2.326 . S
O116 C108 1.252 . S
In117 O118 2.294 . S
In117 O119 2.326 . S
In117 O123 2.266 . S
In117 O124 2.326 . S
In117 O125 2.266 . S
In117 O126 2.326 . S
In117 O128 2.294 . S
In117 O129 2.326 . S
O118 In117 2.294 . S
O118 C127 1.240 . S
O119 In117 2.326 . S
O119 C127 1.252 . S
C120 O123 1.252 . S
C120 O124 1.260 . S
C121 O128 1.240 . S
C121 O129 1.252 . S
C122 O125 1.252 . S
C122 O126 1.260 . S
O123 In117 2.266 . S
O123 C120 1.252 . S
O124 In117 2.326 . S
O124 C120 1.260 . S
O125 In117 2.266 . S
O125 C122 1.252 . S
O126 In117 2.326 . S
O126 C122 1.260 . S
C127 O118 1.240 . S
C127 O119 1.252 . S
O128 In117 2.294 . S
O128 C121 1.240 . S
O129 In117 2.326 . S
O129 C121 1.252 . S
In130 O131 2.294 . S
In130 O132 2.326 . S
In130 O136 2.266 . S
In130 O137 2.326 . S
In130 O138 2.266 . S
In130 O139 2.326 . S
In130 O141 2.294 . S
In130 O142 2.326 . S
O131 In130 2.294 . S
O131 C140 1.240 . S
O132 In130 2.326 . S
O132 C140 1.252 . S
C133 O136 1.252 . S
C133 O137 1.260 . S
C134 O141 1.240 . S
C134 O142 1.252 . S
C135 O138 1.252 . S
C135 O139 1.260 . S
O136 In130 2.266 . S
O136 C133 1.252 . S
O137 In130 2.326 . S
O137 C133 1.260 . S
O138 In130 2.266 . S
O138 C135 1.252 . S
O139 In130 2.326 . S
O139 C135 1.260 . S
C140 O131 1.240 . S
C140 O132 1.252 . S
O141 In130 2.294 . S
O141 C134 1.240 . S
O142 In130 2.326 . S
O142 C134 1.252 . S
In143 O144 2.294 . S
In143 O145 2.326 . S
In143 O149 2.266 . S
In143 O150 2.326 . S
In143 O151 2.266 . S
In143 O152 2.326 . S
In143 O154 2.294 . S
In143 O155 2.326 . S
O144 In143 2.294 . S
O144 C153 1.240 . S
O145 In143 2.326 . S
O145 C153 1.252 . S
C146 O149 1.252 . S
C146 O150 1.260 . S
C147 O154 1.240 . S
C147 O155 1.252 . S
C148 O151 1.252 . S
C148 O152 1.260 . S
O149 In143 2.266 . S
O149 C146 1.252 . S
O150 In143 2.326 . S
O150 C146 1.260 . S
O151 In143 2.266 . S
O151 C148 1.252 . S
O152 In143 2.326 . S
O152 C148 1.260 . S
C153 O144 1.240 . S
C153 O145 1.252 . S
O154 In143 2.294 . S
O154 C147 1.240 . S
O155 In143 2.326 . S
O155 C147 1.252 . S
In156 O157 2.294 . S
In156 O158 2.326 . S
In156 O162 2.266 . S
In156 O163 2.326 . S
In156 O164 2.266 . S
In156 O165 2.326 . S
In156 O167 2.294 . S
In156 O168 2.326 . S
O157 In156 2.294 . S
O157 C166 1.240 . S
O158 In156 2.326 . S
O158 C166 1.252 . S
C159 O162 1.252 . S
C159 O163 1.260 . S
C160 O167 1.240 . S
C160 O168 1.252 . S
C161 O164 1.252 . S
C161 O165 1.260 . S
O162 In156 2.266 . S
O162 C159 1.252 . S
O163 In156 2.326 . S
O163 C159 1.260 . S
O164 In156 2.266 . S
O164 C161 1.252 . S
O165 In156 2.326 . S
O165 C161 1.260 . S
C166 O157 1.240 . S
C166 O158 1.252 . S
O167 In156 2.294 . S
O167 C160 1.240 . S
O168 In156 2.326 . S
O168 C160 1.252 . S
In169 O170 2.294 . S
In169 O171 2.326 . S
In169 O175 2.266 . S
In169 O176 2.326 . S
In169 O177 2.266 . S
In169 O178 2.326 . S
In169 O180 2.294 . S
In169 O181 2.326 . S
O170 In169 2.294 . S
O170 C179 1.240 . S
O171 In169 2.326 . S
O171 C179 1.252 . S
C172 O175 1.252 . S
C172 O176 1.260 . S
C173 O180 1.240 . S
C173 O181 1.252 . S
C174 O177 1.252 . S
C174 O178 1.260 . S
O175 In169 2.266 . S
O175 C172 1.252 . S
O176 In169 2.326 . S
O176 C172 1.260 . S
O177 In169 2.266 . S
O177 C174 1.252 . S
O178 In169 2.326 . S
O178 C174 1.260 . S
C179 O170 1.240 . S
C179 O171 1.252 . S
O180 In169 2.294 . S
O180 C173 1.240 . S
O181 In169 2.326 . S
O181 C173 1.252 . S
In182 O183 2.294 . S
In182 O184 2.326 . S
In182 O188 2.266 . S
In182 O189 2.326 . S
In182 O190 2.266 . S
In182 O191 2.326 . S
In182 O193 2.294 . S
In182 O194 2.326 . S
O183 In182 2.294 . S
O183 C192 1.240 . S
O184 In182 2.326 . S
O184 C192 1.252 . S
C185 O188 1.252 . S
C185 O189 1.260 . S
C186 O193 1.240 . S
C186 O194 1.252 . S
C187 O190 1.252 . S
C187 O191 1.260 . S
O188 In182 2.266 . S
O188 C185 1.252 . S
O189 In182 2.326 . S
O189 C185 1.260 . S
O190 In182 2.266 . S
O190 C187 1.252 . S
O191 In182 2.326 . S
O191 C187 1.260 . S
C192 O183 1.240 . S
C192 O184 1.252 . S
O193 In182 2.294 . S
O193 C186 1.240 . S
O194 In182 2.326 . S
O194 C186 1.252 . S
In195 O196 2.294 . S
In195 O197 2.326 . S
In195 O201 2.266 . S
In195 O202 2.326 . S
In195 O203 2.266 . S
In195 O204 2.326 . S
In195 O206 2.294 . S
In195 O207 2.326 . S
O196 In195 2.294 . S
O196 C205 1.240 . S
O197 In195 2.326 . S
O197 C205 1.252 . S
C198 O201 1.252 . S
C198 O202 1.260 . S
C199 O206 1.240 . S
C199 O207 1.252 . S
C200 O203 1.252 . S
C200 O204 1.260 . S
O201 In195 2.266 . S
O201 C198 1.252 . S
O202 In195 2.326 . S
O202 C198 1.260 . S
O203 In195 2.266 . S
O203 C200 1.252 . S
O204 In195 2.326 . S
O204 C200 1.260 . S
C205 O196 1.240 . S
C205 O197 1.252 . S
O206 In195 2.294 . S
O206 C199 1.240 . S
O207 In195 2.326 . S
O207 C199 1.252 . S
C208 C209 1.363 . S
C208 C214 1.379 . S
C208 N216 1.356 . S
C209 C208 1.363 . S
C209 C215 1.363 . S
C210 C211 1.363 . S
C210 C215 1.379 . S
C210 N217 1.356 . S
C211 C210 1.363 . S
C211 C214 1.363 . S
N212 C214 1.356 . S
N212 H224 0.984 . S
N212 H225 0.985 . S
N213 C215 1.356 . S
N213 H218 0.984 . S
N213 H219 0.985 . S
C214 C208 1.379 . S
C214 C211 1.363 . S
C214 N212 1.356 . S
C215 C209 1.363 . S
C215 C210 1.379 . S
C215 N213 1.356 . S
N216 C208 1.356 . S
N216 H222 0.984 . S
N216 H223 0.984 . S
N217 C210 1.356 . S
N217 H220 0.984 . S
N217 H221 0.985 . S
H218 N213 0.984 . S
H219 N213 0.985 . S
H220 N217 0.984 . S
H221 N217 0.985 . S
H222 N216 0.984 . S
H223 N216 0.984 . S
H224 N212 0.984 . S
H225 N212 0.985 . S
C226 C227 1.363 . S
C226 C232 1.379 . S
C226 N234 1.356 . S
C227 C226 1.363 . S
C227 C233 1.363 . S
C228 C229 1.363 . S
C228 C233 1.379 . S
C228 N235 1.356 . S
C229 C228 1.363 . S
C229 C232 1.363 . S
N230 C232 1.356 . S
N230 H242 0.984 . S
N230 H243 0.985 . S
N231 C233 1.356 . S
N231 H236 0.984 . S
N231 H237 0.985 . S
C232 C226 1.379 . S
C232 C229 1.363 . S
C232 N230 1.356 . S
C233 C227 1.363 . S
C233 C228 1.379 . S
C233 N231 1.356 . S
N234 C226 1.356 . S
N234 H240 0.984 . S
N234 H241 0.984 . S
N235 C228 1.356 . S
N235 H238 0.984 . S
N235 H239 0.985 . S
H236 N231 0.984 . S
H237 N231 0.985 . S
H238 N235 0.984 . S
H239 N235 0.985 . S
H240 N234 0.984 . S
H241 N234 0.984 . S
H242 N230 0.984 . S
H243 N230 0.985 . S
C244 C245 1.363 . S
C244 C250 1.379 . S
C244 N252 1.356 . S
C245 C244 1.363 . S
C245 C251 1.363 . S
C246 C247 1.363 . S
C246 C251 1.379 . S
C246 N253 1.356 . S
C247 C246 1.363 . S
C247 C250 1.363 . S
N248 C250 1.356 . S
N248 H260 0.984 . S
N248 H261 0.985 . S
N249 C251 1.356 . S
N249 H254 0.984 . S
N249 H255 0.985 . S
C250 C244 1.379 . S
C250 C247 1.363 . S
C250 N248 1.356 . S
C251 C245 1.363 . S
C251 C246 1.379 . S
C251 N249 1.356 . S
N252 C244 1.356 . S
N252 H258 0.984 . S
N252 H259 0.984 . S
N253 C246 1.356 . S
N253 H256 0.984 . S
N253 H257 0.985 . S
H254 N249 0.984 . S
H255 N249 0.985 . S
H256 N253 0.984 . S
H257 N253 0.985 . S
H258 N252 0.984 . S
H259 N252 0.984 . S
H260 N248 0.984 . S
H261 N248 0.985 . S
C262 C263 1.363 . S
C262 C268 1.379 . S
C262 N270 1.356 . S
C263 C262 1.363 . S
C263 C269 1.363 . S
C264 C265 1.363 . S
C264 C269 1.379 . S
C264 N271 1.356 . S
C265 C264 1.363 . S
C265 C268 1.363 . S
N266 C268 1.356 . S
N266 H278 0.984 . S
N266 H279 0.985 . S
N267 C269 1.356 . S
N267 H272 0.984 . S
N267 H273 0.985 . S
C268 C262 1.379 . S
C268 C265 1.363 . S
C268 N266 1.356 . S
C269 C263 1.363 . S
C269 C264 1.379 . S
C269 N267 1.356 . S
N270 C262 1.356 . S
N270 H276 0.984 . S
N270 H277 0.984 . S
N271 C264 1.356 . S
N271 H274 0.984 . S
N271 H275 0.985 . S
H272 N267 0.984 . S
H273 N267 0.985 . S
H274 N271 0.984 . S
H275 N271 0.985 . S
H276 N270 0.984 . S
H277 N270 0.984 . S
H278 N266 0.984 . S
H279 N266 0.985 . S
C280 C281 1.363 . S
C280 C286 1.379 . S
C280 N288 1.356 . S
C281 C280 1.363 . S
C281 C287 1.363 . S
C282 C283 1.363 . S
C282 C287 1.379 . S
C282 N289 1.356 . S
C283 C282 1.363 . S
C283 C286 1.363 . S
N284 C286 1.356 . S
N284 H296 0.984 . S
N284 H297 0.985 . S
N285 C287 1.356 . S
N285 H290 0.984 . S
N285 H291 0.985 . S
C286 C280 1.379 . S
C286 C283 1.363 . S
C286 N284 1.356 . S
C287 C281 1.363 . S
C287 C282 1.379 . S
C287 N285 1.356 . S
N288 C280 1.356 . S
N288 H294 0.984 . S
N288 H295 0.984 . S
N289 C282 1.356 . S
N289 H292 0.984 . S
N289 H293 0.985 . S
H290 N285 0.984 . S
H291 N285 0.985 . S
H292 N289 0.984 . S
H293 N289 0.985 . S
H294 N288 0.984 . S
H295 N288 0.984 . S
H296 N284 0.984 . S
H297 N284 0.985 . S
C298 C299 1.363 . S
C298 C304 1.379 . S
C298 N306 1.356 . S
C299 C298 1.363 . S
C299 C305 1.363 . S
C300 C301 1.363 . S
C300 C305 1.379 . S
C300 N307 1.356 . S
C301 C300 1.363 . S
C301 C304 1.363 . S
N302 C304 1.356 . S
N302 H314 0.984 . S
N302 H315 0.985 . S
N303 C305 1.356 . S
N303 H308 0.984 . S
N303 H309 0.985 . S
C304 C298 1.379 . S
C304 C301 1.363 . S
C304 N302 1.356 . S
C305 C299 1.363 . S
C305 C300 1.379 . S
C305 N303 1.356 . S
N306 C298 1.356 . S
N306 H312 0.984 . S
N306 H313 0.984 . S
N307 C300 1.356 . S
N307 H310 0.984 . S
N307 H311 0.985 . S
H308 N303 0.984 . S
H309 N303 0.985 . S
H310 N307 0.984 . S
H311 N307 0.985 . S
H312 N306 0.984 . S
H313 N306 0.984 . S
H314 N302 0.984 . S
H315 N302 0.985 . S
C316 C317 1.363 . S
C316 C322 1.379 . S
C316 N324 1.356 . S
C317 C316 1.363 . S
C317 C323 1.363 . S
C318 C319 1.363 . S
C318 C323 1.379 . S
C318 N325 1.356 . S
C319 C318 1.363 . S
C319 C322 1.363 . S
N320 C322 1.356 . S
N320 H332 0.984 . S
N320 H333 0.985 . S
N321 C323 1.356 . S
N321 H326 0.984 . S
N321 H327 0.985 . S
C322 C316 1.379 . S
C322 C319 1.363 . S
C322 N320 1.356 . S
C323 C317 1.363 . S
C323 C318 1.379 . S
C323 N321 1.356 . S
N324 C316 1.356 . S
N324 H330 0.984 . S
N324 H331 0.984 . S
N325 C318 1.356 . S
N325 H328 0.984 . S
N325 H329 0.985 . S
H326 N321 0.984 . S
H327 N321 0.985 . S
H328 N325 0.984 . S
H329 N325 0.985 . S
H330 N324 0.984 . S
H331 N324 0.984 . S
H332 N320 0.984 . S
H333 N320 0.985 . S
C334 C335 1.363 . S
C334 C340 1.379 . S
C334 N342 1.356 . S
C335 C334 1.363 . S
C335 C341 1.363 . S
C336 C337 1.363 . S
C336 C341 1.379 . S
C336 N343 1.356 . S
C337 C336 1.363 . S
C337 C340 1.363 . S
N338 C340 1.356 . S
N338 H350 0.984 . S
N338 H351 0.985 . S
N339 C341 1.356 . S
N339 H344 0.984 . S
N339 H345 0.985 . S
C340 C334 1.379 . S
C340 C337 1.363 . S
C340 N338 1.356 . S
C341 C335 1.363 . S
C341 C336 1.379 . S
C341 N339 1.356 . S
N342 C334 1.356 . S
N342 H348 0.984 . S
N342 H349 0.984 . S
N343 C336 1.356 . S
N343 H346 0.984 . S
N343 H347 0.985 . S
H344 N339 0.984 . S
H345 N339 0.985 . S
H346 N343 0.984 . S
H347 N343 0.985 . S
H348 N342 0.984 . S
H349 N342 0.984 . S
H350 N338 0.984 . S
H351 N338 0.985 . S
C352 C353 1.363 . S
C352 C358 1.379 . S
C352 N360 1.356 . S
C353 C352 1.363 . S
C353 C359 1.363 1_655 S
C354 C355 1.363 . S
C354 C359 1.379 . S
C354 N361 1.356 . S
C355 C354 1.363 . S
C355 C358 1.363 1_455 S
N356 C358 1.356 . S
N356 H368 0.984 . S
N356 H369 0.985 . S
N357 C359 1.356 . S
N357 H362 0.984 . S
N357 H363 0.985 . S
C358 C352 1.379 . S
C358 C355 1.363 1_655 S
C358 N356 1.356 . S
C359 C353 1.363 1_455 S
C359 C354 1.379 . S
C359 N357 1.356 . S
N360 C352 1.356 . S
N360 H366 0.984 . S
N360 H367 0.984 . S
N361 C354 1.356 . S
N361 H364 0.984 . S
N361 H365 0.985 . S
H362 N357 0.984 . S
H363 N357 0.985 . S
H364 N361 0.984 . S
H365 N361 0.985 . S
H366 N360 0.984 . S
H367 N360 0.984 . S
H368 N356 0.984 . S
H369 N356 0.985 . S
C370 C371 1.363 1_565 S
C370 C376 1.379 1_655 S
C370 N378 1.356 . S
C371 C370 1.363 1_545 S
C371 C377 1.363 1_655 S
C372 C373 1.363 1_545 S
C372 C377 1.379 . S
C372 N379 1.356 . S
C373 C372 1.363 1_565 S
C373 C376 1.363 . S
N374 C376 1.356 . S
N374 H386 0.984 . S
N374 H387 0.985 . S
N375 C377 1.356 . S
N375 H380 0.984 1_455 S
N375 H381 0.985 . S
C376 C370 1.379 1_455 S
C376 C373 1.363 . S
C376 N374 1.356 . S
C377 C371 1.363 1_455 S
C377 C372 1.379 . S
C377 N375 1.356 . S
N378 C370 1.356 . S
N378 H384 0.984 . S
N378 H385 0.984 . S
N379 C372 1.356 . S
N379 H382 0.984 . S
N379 H383 0.985 . S
H380 N375 0.984 1_655 S
H381 N375 0.985 . S
H382 N379 0.984 . S
H383 N379 0.985 . S
H384 N378 0.984 . S
H385 N378 0.984 . S
H386 N374 0.984 . S
H387 N374 0.985 . S
C388 C389 1.363 . S
C388 C394 1.379 1_545 S
C388 N396 1.356 . S
C389 C388 1.363 . S
C389 C395 1.363 . S
C390 C391 1.363 1_545 S
C390 C395 1.379 . S
C390 N397 1.356 1_545 S
C391 C390 1.363 1_565 S
C391 C394 1.363 . S
N392 C394 1.356 . S
N392 H404 0.984 . S
N392 H405 0.985 . S
N393 C395 1.356 . S
N393 H398 0.984 . S
N393 H399 0.985 . S
C394 C388 1.379 1_565 S
C394 C391 1.363 . S
C394 N392 1.356 . S
C395 C389 1.363 . S
C395 C390 1.379 . S
C395 N393 1.356 . S
N396 C388 1.356 . S
N396 H402 0.984 . S
N396 H403 0.984 . S
N397 C390 1.356 1_565 S
N397 H400 0.984 . S
N397 H401 0.985 . S
H398 N393 0.984 . S
H399 N393 0.985 . S
H400 N397 0.984 . S
H401 N397 0.985 . S
H402 N396 0.984 . S
H403 N396 0.984 . S
H404 N392 0.984 . S
H405 N392 0.985 . S
C406 C407 1.363 . S
C406 C412 1.379 . S
C406 N414 1.356 . S
C407 C406 1.363 . S
C407 C413 1.363 . S
C408 C409 1.363 . S
C408 C413 1.379 . S
C408 N415 1.356 . S
C409 C408 1.363 . S
C409 C412 1.363 . S
N410 C412 1.356 . S
N410 H422 0.984 . S
N410 H423 0.985 . S
N411 C413 1.356 . S
N411 H416 0.984 . S
N411 H417 0.985 . S
C412 C406 1.379 . S
C412 C409 1.363 . S
C412 N410 1.356 . S
C413 C407 1.363 . S
C413 C408 1.379 . S
C413 N411 1.356 . S
N414 C406 1.356 . S
N414 H420 0.984 . S
N414 H421 0.984 . S
N415 C408 1.356 . S
N415 H418 0.984 . S
N415 H419 0.985 . S
H416 N411 0.984 . S
H417 N411 0.985 . S
H418 N415 0.984 . S
H419 N415 0.985 . S
H420 N414 0.984 . S
H421 N414 0.984 . S
H422 N410 0.984 . S
H423 N410 0.985 . S
C424 C425 1.363 . S
C424 C430 1.379 . S
C424 N432 1.356 . S
C425 C424 1.363 . S
C425 C431 1.363 1_455 S
C426 C427 1.363 . S
C426 C431 1.379 . S
C426 N433 1.356 . S
C427 C426 1.363 . S
C427 C430 1.363 1_655 S
N428 C430 1.356 . S
N428 H440 0.984 . S
N428 H441 0.985 1_455 S
N429 C431 1.356 . S
N429 H434 0.984 . S
N429 H435 0.985 . S
C430 C424 1.379 . S
C430 C427 1.363 1_455 S
C430 N428 1.356 . S
C431 C425 1.363 1_655 S
C431 C426 1.379 . S
C431 N429 1.356 . S
N432 C424 1.356 . S
N432 H438 0.984 . S
N432 H439 0.984 . S
N433 C426 1.356 . S
N433 H436 0.984 . S
N433 H437 0.985 . S
H434 N429 0.984 . S
H435 N429 0.985 . S
H436 N433 0.984 . S
H437 N433 0.985 . S
H438 N432 0.984 . S
H439 N432 0.984 . S
H440 N428 0.984 . S
H441 N428 0.985 1_655 S
C442 C443 1.363 . S
C442 C448 1.379 . S
C442 N450 1.356 . S
C443 C442 1.363 . S
C443 C449 1.369 1_455 S
C444 C445 1.363 . S
C444 C449 1.374 1_545 S
C444 N451 1.356 . S
C445 C444 1.363 . S
C445 C448 1.363 1_645 S
N446 C448 1.356 . S
N446 H458 0.984 . S
N446 H459 0.985 1_465 S
N447 C449 1.356 . S
N447 H452 0.984 . S
N447 H453 0.985 1_565 S
C448 C442 1.379 . S
C448 C445 1.363 1_465 S
C448 N446 1.356 . S
C449 C443 1.369 1_655 S
C449 C444 1.374 1_565 S
C449 N447 1.356 . S
N450 C442 1.356 . S
N450 H456 0.984 . S
N450 H457 0.984 . S
N451 C444 1.356 . S
N451 H454 0.984 . S
N451 H455 0.985 . S
H452 N447 0.984 . S
H453 N447 0.985 1_545 S
H454 N451 0.984 . S
H455 N451 0.985 . S
H456 N450 0.984 . S
H457 N450 0.984 . S
H458 N446 0.984 . S
H459 N446 0.985 1_645 S
C460 C461 1.363 1_565 S
C460 C466 1.379 . S
C460 N468 1.356 . S
C461 C460 1.363 1_545 S
C461 C467 1.363 . S
C462 C463 1.363 . S
C462 C467 1.379 1_565 S
C462 N469 1.356 . S
C463 C462 1.363 . S
C463 C466 1.363 . S
N464 C466 1.356 . S
N464 H476 0.984 . S
N464 H477 0.985 . S
N465 C467 1.356 . S
N465 H470 0.984 . S
N465 H471 0.985 . S
C466 C460 1.379 . S
C466 C463 1.363 . S
C466 N464 1.356 . S
C467 C461 1.363 . S
C467 C462 1.379 1_545 S
C467 N465 1.356 . S
N468 C460 1.356 . S
N468 H474 0.984 . S
N468 H475 0.984 1_565 S
N469 C462 1.356 . S
N469 H472 0.984 . S
N469 H473 0.985 . S
H470 N465 0.984 . S
H471 N465 0.985 . S
H472 N469 0.984 . S
H473 N469 0.985 . S
H474 N468 0.984 . S
H475 N468 0.984 1_545 S
H476 N464 0.984 . S
H477 N464 0.985 . S
C478 C479 1.363 . S
C478 C484 1.379 . S
C478 N486 1.356 . S
C479 C478 1.363 . S
C479 C485 1.363 . S
C480 C481 1.363 . S
C480 C485 1.379 . S
C480 N487 1.356 . S
C481 C480 1.363 . S
C481 C484 1.363 . S
N482 C484 1.356 . S
N482 H494 0.984 . S
N482 H495 0.985 . S
N483 C485 1.356 . S
N483 H488 0.984 . S
N483 H489 0.985 . S
C484 C478 1.379 . S
C484 C481 1.363 . S
C484 N482 1.356 . S
C485 C479 1.363 . S
C485 C480 1.379 . S
C485 N483 1.356 . S
N486 C478 1.356 . S
N486 H492 0.984 . S
N486 H493 0.984 . S
N487 C480 1.356 . S
N487 H490 0.984 . S
N487 H491 0.985 . S
H488 N483 0.984 . S
H489 N483 0.985 . S
H490 N487 0.984 . S
H491 N487 0.985 . S
H492 N486 0.984 . S
H493 N486 0.984 . S
H494 N482 0.984 . S
H495 N482 0.985 . S
C496 C497 1.363 . S
C496 C502 1.379 . S
C496 N504 1.356 . S
C497 C496 1.363 . S
C497 C503 1.363 . S
C498 C499 1.363 . S
C498 C503 1.379 . S
C498 N505 1.356 . S
C499 C498 1.363 . S
C499 C502 1.363 . S
N500 C502 1.356 . S
N500 H512 0.984 . S
N500 H513 0.985 . S
N501 C503 1.356 . S
N501 H506 0.984 . S
N501 H507 0.985 1_455 S
C502 C496 1.379 . S
C502 C499 1.363 . S
C502 N500 1.356 . S
C503 C497 1.363 . S
C503 C498 1.379 . S
C503 N501 1.356 . S
N504 C496 1.356 . S
N504 H510 0.984 . S
N504 H511 0.984 . S
N505 C498 1.356 . S
N505 H508 0.984 . S
N505 H509 0.985 1_455 S
H506 N501 0.984 . S
H507 N501 0.985 1_655 S
H508 N505 0.984 . S
H509 N505 0.985 1_655 S
H510 N504 0.984 . S
H511 N504 0.984 . S
H512 N500 0.984 . S
H513 N500 0.985 . S
C514 C515 1.363 . S
C514 C520 1.379 . S
C514 N522 1.356 . S
C515 C514 1.363 . S
C515 C521 1.363 . S
C516 C517 1.363 . S
C516 C521 1.379 . S
C516 N523 1.356 . S
C517 C516 1.363 . S
C517 C520 1.363 . S
N518 C520 1.356 . S
N518 H530 0.984 1_545 S
N518 H531 0.985 . S
N519 C521 1.356 . S
N519 H524 0.984 . S
N519 H525 0.985 . S
C520 C514 1.379 . S
C520 C517 1.363 . S
C520 N518 1.356 . S
C521 C515 1.363 . S
C521 C516 1.379 . S
C521 N519 1.356 . S
N522 C514 1.356 . S
N522 H528 0.984 1_545 S
N522 H529 0.984 . S
N523 C516 1.356 . S
N523 H526 0.984 . S
N523 H527 0.985 . S
H524 N519 0.984 . S
H525 N519 0.985 . S
H526 N523 0.984 . S
H527 N523 0.985 . S
H528 N522 0.984 1_565 S
H529 N522 0.984 . S
H530 N518 0.984 1_565 S
H531 N518 0.985 . S
C532 C533 1.363 . S
C532 C538 1.379 . S
C532 N540 1.356 . S
C533 C532 1.363 . S
C533 C539 1.363 . S
C534 C535 1.363 . S
C534 C539 1.379 . S
C534 N541 1.356 . S
C535 C534 1.363 . S
C535 C538 1.363 . S
N536 C538 1.356 . S
N536 H548 0.984 . S
N536 H549 0.985 . S
N537 C539 1.356 . S
N537 H542 0.984 . S
N537 H543 0.985 . S
C538 C532 1.379 . S
C538 C535 1.363 . S
C538 N536 1.356 . S
C539 C533 1.363 . S
C539 C534 1.379 . S
C539 N537 1.356 . S
N540 C532 1.356 . S
N540 H546 0.984 . S
N540 H547 0.984 . S
N541 C534 1.356 . S
N541 H544 0.984 . S
N541 H545 0.985 . S
H542 N537 0.984 . S
H543 N537 0.985 . S
H544 N541 0.984 . S
H545 N541 0.985 . S
H546 N540 0.984 . S
H547 N540 0.984 . S
H548 N536 0.984 . S
H549 N536 0.985 . S
C550 C551 1.363 . S
C550 C556 1.379 . S
C550 N558 1.356 . S
C551 C550 1.363 . S
C551 C557 1.363 . S
C552 C553 1.363 . S
C552 C557 1.379 . S
C552 N559 1.356 . S
C553 C552 1.363 . S
C553 C556 1.363 . S
N554 C556 1.356 . S
N554 H566 0.984 . S
N554 H567 0.985 . S
N555 C557 1.356 . S
N555 H560 0.984 . S
N555 H561 0.985 . S
C556 C550 1.379 . S
C556 C553 1.363 . S
C556 N554 1.356 . S
C557 C551 1.363 . S
C557 C552 1.379 . S
C557 N555 1.356 . S
N558 C550 1.356 . S
N558 H564 0.984 . S
N558 H565 0.984 . S
N559 C552 1.356 . S
N559 H562 0.984 . S
N559 H563 0.985 . S
H560 N555 0.984 . S
H561 N555 0.985 . S
H562 N559 0.984 . S
H563 N559 0.985 . S
H564 N558 0.984 . S
H565 N558 0.984 . S
H566 N554 0.984 . S
H567 N554 0.985 . S
C568 C569 1.363 . S
C568 C574 1.379 . S
C568 N576 1.356 . S
C569 C568 1.363 . S
C569 C575 1.363 . S
C570 C571 1.363 . S
C570 C575 1.379 . S
C570 N577 1.356 . S
C571 C570 1.363 . S
C571 C574 1.363 . S
N572 C574 1.356 . S
N572 H584 0.984 . S
N572 H585 0.985 . S
N573 C575 1.356 . S
N573 H578 0.984 . S
N573 H579 0.985 . S
C574 C568 1.379 . S
C574 C571 1.363 . S
C574 N572 1.356 . S
C575 C569 1.363 . S
C575 C570 1.379 . S
C575 N573 1.356 . S
N576 C568 1.356 . S
N576 H582 0.984 . S
N576 H583 0.984 . S
N577 C570 1.356 . S
N577 H580 0.984 . S
N577 H581 0.985 . S
H578 N573 0.984 . S
H579 N573 0.985 . S
H580 N577 0.984 . S
H581 N577 0.985 . S
H582 N576 0.984 . S
H583 N576 0.984 . S
H584 N572 0.984 . S
H585 N572 0.985 . S
C586 C587 1.363 . S
C586 C592 1.379 . S
C586 N594 1.356 . S
C587 C586 1.363 . S
C587 C593 1.363 . S
C588 C589 1.363 . S
C588 C593 1.379 . S
C588 N595 1.356 . S
C589 C588 1.363 . S
C589 C592 1.363 . S
N590 C592 1.356 . S
N590 H602 0.984 1_565 S
N590 H603 0.985 . S
N591 C593 1.356 . S
N591 H596 0.984 . S
N591 H597 0.985 . S
C592 C586 1.379 . S
C592 C589 1.363 . S
C592 N590 1.356 . S
C593 C587 1.363 . S
C593 C588 1.379 . S
C593 N591 1.356 . S
N594 C586 1.356 . S
N594 H600 0.984 1_565 S
N594 H601 0.984 . S
N595 C588 1.356 . S
N595 H598 0.984 . S
N595 H599 0.985 . S
H596 N591 0.984 . S
H597 N591 0.985 . S
H598 N595 0.984 . S
H599 N595 0.985 . S
H600 N594 0.984 1_545 S
H601 N594 0.984 . S
H602 N590 0.984 1_545 S
H603 N590 0.985 . S
C604 C605 1.363 . S
C604 C610 1.379 . S
C604 N612 1.356 . S
C605 C604 1.363 . S
C605 C611 1.363 . S
C606 C607 1.363 . S
C606 C611 1.379 . S
C606 N613 1.356 . S
C607 C606 1.363 . S
C607 C610 1.363 . S
N608 C610 1.356 . S
N608 H620 0.984 . S
N608 H621 0.985 . S
N609 C611 1.356 . S
N609 H614 0.984 . S
N609 H615 0.985 . S
C610 C604 1.379 . S
C610 C607 1.363 . S
C610 N608 1.356 . S
C611 C605 1.363 . S
C611 C606 1.379 . S
C611 N609 1.356 . S
N612 C604 1.356 . S
N612 H618 0.984 . S
N612 H619 0.984 . S
N613 C606 1.356 . S
N613 H616 0.984 . S
N613 H617 0.985 . S
H614 N609 0.984 . S
H615 N609 0.985 . S
H616 N613 0.984 . S
H617 N613 0.985 . S
H618 N612 0.984 . S
H619 N612 0.984 . S
H620 N608 0.984 . S
H621 N608 0.985 . S
C622 C623 1.363 . S
C622 C628 1.379 . S
C622 N630 1.356 . S
C623 C622 1.363 . S
C623 C629 1.363 . S
C624 C625 1.363 . S
C624 C629 1.379 . S
C624 N631 1.356 . S
C625 C624 1.363 . S
C625 C628 1.363 . S
N626 C628 1.356 . S
N626 H638 0.984 . S
N626 H639 0.985 . S
N627 C629 1.356 . S
N627 H632 0.984 . S
N627 H633 0.985 . S
C628 C622 1.379 . S
C628 C625 1.363 . S
C628 N626 1.356 . S
C629 C623 1.363 . S
C629 C624 1.379 . S
C629 N627 1.356 . S
N630 C622 1.356 . S
N630 H636 0.984 . S
N630 H637 0.984 . S
N631 C624 1.356 . S
N631 H634 0.984 . S
N631 H635 0.985 . S
H632 N627 0.984 . S
H633 N627 0.985 . S
H634 N631 0.984 . S
H635 N631 0.985 . S
H636 N630 0.984 . S
H637 N630 0.984 . S
H638 N626 0.984 . S
H639 N626 0.985 . S
C640 C641 1.363 . S
C640 C646 1.379 . S
C640 N648 1.356 . S
C641 C640 1.363 . S
C641 C647 1.363 1_454 S
C642 C643 1.363 . S
C642 C647 1.379 . S
C642 N649 1.356 . S
C643 C642 1.363 . S
C643 C646 1.363 1_656 S
N644 C646 1.356 1_655 S
N644 H656 0.984 1_655 S
N644 H657 0.985 . S
N645 C647 1.356 1_455 S
N645 H650 0.984 . S
N645 H651 0.985 1_455 S
C646 C640 1.379 . S
C646 C643 1.363 1_454 S
C646 N644 1.356 1_455 S
C647 C641 1.363 1_656 S
C647 C642 1.379 . S
C647 N645 1.356 1_655 S
N648 C640 1.356 . S
N648 H654 0.984 . S
N648 H655 0.984 . S
N649 C642 1.356 . S
N649 H652 0.984 . S
N649 H653 0.985 . S
H650 N645 0.984 . S
H651 N645 0.985 1_655 S
H652 N649 0.984 . S
H653 N649 0.985 . S
H654 N648 0.984 . S
H655 N648 0.984 . S
H656 N644 0.984 1_455 S
H657 N644 0.985 . S
C658 C659 1.363 1_545 S
C658 C664 1.379 1_455 S
C658 N666 1.356 . S
C659 C658 1.363 1_565 S
C659 C665 1.363 1_556 S
C660 C661 1.363 1_565 S
C660 C665 1.379 1_655 S
C660 N667 1.356 . S
C661 C660 1.363 1_545 S
C661 C664 1.363 1_554 S
N662 C664 1.356 1_554 S
N662 H674 0.984 1_554 S
N662 H675 0.985 . S
N663 C665 1.356 1_556 S
N663 H668 0.984 . S
N663 H669 0.985 1_556 S
C664 C658 1.379 1_655 S
C664 C661 1.363 1_556 S
C664 N662 1.356 1_556 S
C665 C659 1.363 1_554 S
C665 C660 1.379 1_455 S
C665 N663 1.356 1_554 S
N666 C658 1.356 . S
N666 H672 0.984 . S
N666 H673 0.984 . S
N667 C660 1.356 . S
N667 H670 0.984 . S
N667 H671 0.985 . S
H668 N663 0.984 . S
H669 N663 0.985 1_554 S
H670 N667 0.984 . S
H671 N667 0.985 . S
H672 N666 0.984 . S
H673 N666 0.984 . S
H674 N662 0.984 1_556 S
H675 N662 0.985 . S
C676 C677 1.363 1_545 S
C676 C682 1.379 . S
C676 N684 1.356 . S
C677 C676 1.363 1_565 S
C677 C683 1.363 1_554 S
C678 C679 1.363 1_565 S
C678 C683 1.379 . S
C678 N685 1.356 . S
C679 C678 1.363 1_545 S
C679 C682 1.363 1_556 S
N680 C682 1.356 . S
N680 H692 0.984 . S
N680 H693 0.985 1_554 S
N681 C683 1.356 . S
N681 H686 0.984 1_556 S
N681 H687 0.985 . S
C682 C676 1.379 . S
C682 C679 1.363 1_554 S
C682 N680 1.356 . S
C683 C677 1.363 1_556 S
C683 C678 1.379 . S
C683 N681 1.356 . S
N684 C676 1.356 . S
N684 H690 0.984 . S
N684 H691 0.984 1_545 S
N685 C678 1.356 . S
N685 H688 0.984 1_565 S
N685 H689 0.985 . S
H686 N681 0.984 1_554 S
H687 N681 0.985 . S
H688 N685 0.984 1_545 S
H689 N685 0.985 . S
H690 N684 0.984 . S
H691 N684 0.984 1_565 S
H692 N680 0.984 . S
H693 N680 0.985 1_556 S
C694 C695 1.363 . S
C694 C700 1.379 1_556 S
C694 N702 1.356 . S
C695 C694 1.363 . S
C695 C701 1.363 . S
C696 C697 1.363 . S
C696 C701 1.379 1_554 S
C696 N703 1.356 . S
C697 C696 1.363 . S
C697 C700 1.363 . S
N698 C700 1.356 . S
N698 H710 0.981 1_554 S
N698 H711 0.985 . S
N699 C701 1.356 . S
N699 H704 0.984 . S
N699 H705 0.981 1_556 S
C700 C694 1.379 1_554 S
C700 C697 1.363 . S
C700 N698 1.356 . S
C701 C695 1.363 . S
C701 C696 1.379 1_556 S
C701 N699 1.356 . S
N702 C694 1.356 . S
N702 H708 0.984 . S
N702 H709 0.984 . S
N703 C696 1.356 . S
N703 H706 0.984 . S
N703 H707 0.985 . S
H704 N699 0.984 . S
H705 N699 0.981 1_554 S
H706 N703 0.984 . S
H707 N703 0.985 . S
H708 N702 0.984 . S
H709 N702 0.984 . S
H710 N698 0.981 1_556 S
H711 N698 0.985 . S
C712 C713 1.362 1_655 S
C712 C718 1.380 . S
C712 N720 1.356 1_655 S
C713 C712 1.362 1_455 S
C713 C719 1.363 1_565 S
C714 C715 1.362 1_455 S
C714 C719 1.380 . S
C714 N721 1.356 1_455 S
C715 C714 1.362 1_655 S
C715 C718 1.363 1_545 S
N716 C718 1.358 . S
N716 H728 0.992 . S
N716 H729 0.975 1_565 S
N717 C719 1.358 . S
N717 H722 0.975 1_545 S
N717 H723 0.992 . S
C718 C712 1.380 . S
C718 C715 1.363 1_565 S
C718 N716 1.358 . S
C719 C713 1.363 1_545 S
C719 C714 1.380 . S
C719 N717 1.358 . S
N720 C712 1.356 1_455 S
N720 H726 0.984 1_455 S
N720 H727 0.984 . S
N721 C714 1.356 1_655 S
N721 H724 0.984 . S
N721 H725 0.985 1_655 S
H722 N717 0.975 1_565 S
H723 N717 0.992 . S
H724 N721 0.984 . S
H725 N721 0.985 1_455 S
H726 N720 0.984 1_655 S
H727 N720 0.984 . S
H728 N716 0.992 . S
H729 N716 0.975 1_545 S
C730 C731 1.363 . S
C730 C736 1.379 1_545 S
C730 N738 1.356 . S
C731 C730 1.363 . S
C731 C737 1.363 . S
C732 C733 1.363 . S
C732 C737 1.379 1_565 S
C732 N739 1.356 . S
C733 C732 1.363 . S
C733 C736 1.363 . S
N734 C736 1.356 . S
N734 H746 0.984 . S
N734 H747 0.985 . S
N735 C737 1.356 . S
N735 H740 0.984 . S
N735 H741 0.985 . S
C736 C730 1.379 1_565 S
C736 C733 1.363 . S
C736 N734 1.356 . S
C737 C731 1.363 . S
C737 C732 1.379 1_545 S
C737 N735 1.356 . S
N738 C730 1.356 . S
N738 H744 0.984 . S
N738 H745 0.984 . S
N739 C732 1.356 . S
N739 H742 0.984 . S
N739 H743 0.985 . S
H740 N735 0.984 . S
H741 N735 0.985 . S
H742 N739 0.984 . S
H743 N739 0.985 . S
H744 N738 0.984 . S
H745 N738 0.984 . S
H746 N734 0.984 . S
H747 N734 0.985 . S
C748 C749 1.363 . S
C748 C754 1.379 . S
C748 N756 1.356 . S
C749 C748 1.363 . S
C749 C755 1.363 . S
C750 C751 1.363 . S
C750 C755 1.379 . S
C750 N757 1.356 . S
C751 C750 1.363 . S
C751 C754 1.363 . S
N752 C754 1.356 . S
N752 H764 0.984 . S
N752 H765 0.985 . S
N753 C755 1.356 . S
N753 H758 0.984 . S
N753 H759 0.985 . S
C754 C748 1.379 . S
C754 C751 1.363 . S
C754 N752 1.356 . S
C755 C749 1.363 . S
C755 C750 1.379 . S
C755 N753 1.356 . S
N756 C748 1.356 . S
N756 H762 0.984 . S
N756 H763 0.984 . S
N757 C750 1.356 . S
N757 H760 0.984 . S
N757 H761 0.985 . S
H758 N753 0.984 . S
H759 N753 0.985 . S
H760 N757 0.984 . S
H761 N757 0.985 . S
H762 N756 0.984 . S
H763 N756 0.984 . S
H764 N752 0.984 . S
H765 N752 0.985 . S
C766 C767 1.363 . S
C766 C772 1.379 1_655 S
C766 N774 1.356 . S
C767 C766 1.363 . S
C767 C773 1.363 . S
C768 C769 1.363 . S
C768 C773 1.379 1_455 S
C768 N775 1.356 . S
C769 C768 1.363 . S
C769 C772 1.363 . S
N770 C772 1.356 . S
N770 H782 0.984 . S
N770 H783 0.985 . S
N771 C773 1.356 . S
N771 H776 0.984 . S
N771 H777 0.985 . S
C772 C766 1.379 1_455 S
C772 C769 1.363 . S
C772 N770 1.356 . S
C773 C767 1.363 . S
C773 C768 1.379 1_655 S
C773 N771 1.356 . S
N774 C766 1.356 . S
N774 H780 0.984 . S
N774 H781 0.984 . S
N775 C768 1.356 . S
N775 H778 0.984 . S
N775 H779 0.985 . S
H776 N771 0.984 . S
H777 N771 0.985 . S
H778 N775 0.984 . S
H779 N775 0.985 . S
H780 N774 0.984 . S
H781 N774 0.984 . S
H782 N770 0.984 . S
H783 N770 0.985 . S
C209 C3 1.633 . S
C211 C29 1.633 . S
C227 C18 1.633 . S
C229 C42 1.633 . S
C245 C57 1.633 . S
C247 C81 1.633 . S
C263 C94 1.633 . S
C265 C70 1.633 . S
C281 C109 1.633 . S
C283 C135 1.633 . S
C299 C146 1.633 . S
C301 C122 1.633 . S
C317 C187 1.633 . S
C319 C161 1.633 . S
C335 C198 1.633 . S
C337 C174 1.633 . S
C353 C101 1.292 . S
C355 C10 1.292 . S
C371 C17 1.292 . S
C373 C56 1.292 . S
C389 C69 1.292 . S
C391 C36 1.292 . S
C407 C49 1.292 . S
C409 C88 1.292 . S
C425 C205 1.292 . S
C427 C108 1.292 . S
C443 C121 1.292 . S
C445 C160 1.292 . S
C461 C134 1.292 . S
C463 C173 1.292 . S
C479 C186 1.292 . S
C481 C153 1.292 . S
C497 C5 0.999 . S
C499 C55 0.999 . S
C515 C16 0.999 . S
C517 C68 0.999 . S
C533 C83 0.999 . S
C535 C31 0.999 . S
C551 C44 0.999 . S
C553 C96 0.999 . S
C569 C159 0.999 . S
C571 C107 0.999 . S
C587 C172 0.999 . S
C589 C120 0.999 . S
C605 C133 0.999 . S
C607 C185 0.999 . S
C623 C148 0.999 . S
C625 C200 0.999 . S
C641 C4 1.593 . S
C643 C114 1.593 . S
C659 C127 1.593 . S
C661 C23 1.593 . S
C677 C30 1.593 . S
C679 C140 1.593 . S
C695 C147 1.593 . S
C697 C43 1.593 . S
C713 C62 1.593 . S
C715 C166 1.593 . S
C731 C75 1.593 . S
C733 C179 1.593 . S
C749 C192 1.593 . S
C751 C82 1.593 . S
C767 C95 1.593 . S
C769 C199 1.593 . S
