# Generated by pormake.
# Topology une, (4)-cn, num edge types: 1
# Building blocks:
#     Node 0, Type 0, BuildingBlock: QUQFOY_clean_sbu_1, # of connection points: 4
#     Node 1, Type 0, BuildingBlock: QUQFOY_clean_sbu_1, # of connection points: 4
#     Node 2, Type 0, BuildingBlock: QUQFOY_clean_sbu_1, # of connection points: 4
#     Node 3, Type 0, BuildingBlock: QUQFOY_clean_sbu_1, # of connection points: 4
#     Node 4, Type 0, BuildingBlock: QUQFOY_clean_sbu_1, # of connection points: 4
#     Node 5, Type 0, BuildingBlock: QUQFOY_clean_sbu_1, # of connection points: 4
#     Node 6, Type 0, BuildingBlock: QUQFOY_clean_sbu_1, # of connection points: 4
#     Node 7, Type 0, BuildingBlock: QUQFOY_clean_sbu_1, # of connection points: 4
#     Node 8, Type 0, BuildingBlock: QUQFOY_clean_sbu_1, # of connection points: 4
#     Node 9, Type 0, BuildingBlock: QUQFOY_clean_sbu_1, # of connection points: 4
#     Node 10, Type 0, BuildingBlock: QUQFOY_clean_sbu_1, # of connection points: 4
#     Node 11, Type 0, BuildingBlock: QUQFOY_clean_sbu_1, # of connection points: 4
#     Node 12, Type 0, BuildingBlock: QUQFOY_clean_sbu_1, # of connection points: 4
#     Node 13, Type 0, BuildingBlock: QUQFOY_clean_sbu_1, # of connection points: 4
#     Node 14, Type 0, BuildingBlock: QUQFOY_clean_sbu_1, # of connection points: 4
#     Node 15, Type 0, BuildingBlock: QUQFOY_clean_sbu_1, # of connection points: 4
#     Node 16, Type 0, BuildingBlock: QUQFOY_clean_sbu_1, # of connection points: 4
#     Node 17, Type 0, BuildingBlock: QUQFOY_clean_sbu_1, # of connection points: 4
#     Edge 18, Type (0, 0), BuildingBlock: AJUNOK_clean_linker_0, # of connection points: 2
#     Edge 19, Type (0, 0), BuildingBlock: AJUNOK_clean_linker_0, # of connection points: 2
#     Edge 20, Type (0, 0), BuildingBlock: AJUNOK_clean_linker_0, # of connection points: 2
#     Edge 21, Type (0, 0), BuildingBlock: AJUNOK_clean_linker_0, # of connection points: 2
#     Edge 22, Type (0, 0), BuildingBlock: AJUNOK_clean_linker_0, # of connection points: 2
#     Edge 23, Type (0, 0), BuildingBlock: AJUNOK_clean_linker_0, # of connection points: 2
#     Edge 24, Type (0, 0), BuildingBlock: AJUNOK_clean_linker_0, # of connection points: 2
#     Edge 25, Type (0, 0), BuildingBlock: AJUNOK_clean_linker_0, # of connection points: 2
#     Edge 26, Type (0, 0), BuildingBlock: AJUNOK_clean_linker_0, # of connection points: 2
#     Edge 27, Type (0, 0), BuildingBlock: AJUNOK_clean_linker_0, # of connection points: 2
#     Edge 28, Type (0, 0), BuildingBlock: AJUNOK_clean_linker_0, # of connection points: 2
#     Edge 29, Type (0, 0), BuildingBlock: AJUNOK_clean_linker_0, # of connection points: 2
#     Edge 30, Type (0, 0), BuildingBlock: AJUNOK_clean_linker_0, # of connection points: 2
#     Edge 31, Type (0, 0), BuildingBlock: AJUNOK_clean_linker_0, # of connection points: 2
#     Edge 32, Type (0, 0), BuildingBlock: AJUNOK_clean_linker_0, # of connection points: 2
#     Edge 33, Type (0, 0), BuildingBlock: AJUNOK_clean_linker_0, # of connection points: 2
#     Edge 34, Type (0, 0), BuildingBlock: AJUNOK_clean_linker_0, # of connection points: 2
#     Edge 35, Type (0, 0), BuildingBlock: AJUNOK_clean_linker_0, # of connection points: 2
#     Edge 36, Type (0, 0), BuildingBlock: AJUNOK_clean_linker_0, # of connection points: 2
#     Edge 37, Type (0, 0), BuildingBlock: AJUNOK_clean_linker_0, # of connection points: 2
#     Edge 38, Type (0, 0), BuildingBlock: AJUNOK_clean_linker_0, # of connection points: 2
#     Edge 39, Type (0, 0), BuildingBlock: AJUNOK_clean_linker_0, # of connection points: 2
#     Edge 40, Type (0, 0), BuildingBlock: AJUNOK_clean_linker_0, # of connection points: 2
#     Edge 41, Type (0, 0), BuildingBlock: AJUNOK_clean_linker_0, # of connection points: 2
#     Edge 42, Type (0, 0), BuildingBlock: AJUNOK_clean_linker_0, # of connection points: 2
#     Edge 43, Type (0, 0), BuildingBlock: AJUNOK_clean_linker_0, # of connection points: 2
#     Edge 44, Type (0, 0), BuildingBlock: AJUNOK_clean_linker_0, # of connection points: 2
#     Edge 45, Type (0, 0), BuildingBlock: AJUNOK_clean_linker_0, # of connection points: 2
#     Edge 46, Type (0, 0), BuildingBlock: AJUNOK_clean_linker_0, # of connection points: 2
#     Edge 47, Type (0, 0), BuildingBlock: AJUNOK_clean_linker_0, # of connection points: 2
#     Edge 48, Type (0, 0), BuildingBlock: AJUNOK_clean_linker_0, # of connection points: 2
#     Edge 49, Type (0, 0), BuildingBlock: AJUNOK_clean_linker_0, # of connection points: 2
#     Edge 50, Type (0, 0), BuildingBlock: AJUNOK_clean_linker_0, # of connection points: 2
#     Edge 51, Type (0, 0), BuildingBlock: AJUNOK_clean_linker_0, # of connection points: 2
#     Edge 52, Type (0, 0), BuildingBlock: AJUNOK_clean_linker_0, # of connection points: 2
#     Edge 53, Type (0, 0), BuildingBlock: AJUNOK_clean_linker_0, # of connection points: 2
# Relax obj value: 0.111
# Max RMSD: 0.146
# Mean RMSD: 0.139
data_MOF--net-une--node1-QUQFOY_clean_sbu_1--edge1-AJUNOK_clean_linker_0
_symmetry_space_group_name_H-M    P1
_symmetry_Int_Tables_number       1
_symmetry_cell_setting            triclinic
loop_
_symmetry_equiv_pos_as_xyz
'x, y, z'
_cell_length_a     31.104607
_cell_length_b     31.071269
_cell_length_c     44.758942
_cell_angle_alpha  89.870886
_cell_angle_beta   90.03996
_cell_angle_gamma 120.20199
loop_
_atom_site_label
_atom_site_type_symbol
_atom_site_fract_x
_atom_site_fract_y
_atom_site_fract_z
_atom_type_partial_charge
O0 O 0.27518 0.09258 0.05444 0.0
Cd1 Cd 0.2717 0.05324 0.09221 0.0
Cd2 Cd 0.33484 0.03185 0.05149 0.0
O3 O 0.33374 0.08879 0.02835 0.0
O4 O 0.24303 0.078 0.12321 0.0
O5 O 0.31783 0.0871 0.12703 0.0
C6 C 0.28394 0.09497 0.13797 0.0
C7 C 0.39922 0.01678 0.03818 0.0
C8 C 0.30362 0.10468 0.03183 0.0
C9 C 0.22983 0.94951 0.0715 0.0
O10 O 0.26912 0.96568 0.05598 0.0
O11 O 0.22382 0.97786 0.08927 0.0
O12 O 0.36436 0.00943 0.01996 0.0
O13 O 0.39879 0.03462 0.06412 0.0
O14 O 0.88501 0.19809 0.04288 0.0
Cd15 Cd 0.92451 0.23826 0.07934 0.0
Cd16 Cd 0.94023 0.31677 0.03689 0.0
O17 O 0.88232 0.25635 1.0157 0.0
O18 O 0.90127 0.18705 0.11182 0.0
O19 O 0.88911 0.25112 0.11284 0.0
C20 C 0.88227 0.21041 0.12505 0.0
C21 C 0.9506 0.39546 0.02673 0.0
C22 C 0.86953 0.21112 0.0203 0.0
C23 C 0.02647 0.30113 0.05673 0.0
O24 O 0.00798 0.32049 0.03982 0.0
O25 O 8e-05 0.26864 0.07616 0.0
O26 O 0.95806 0.37037 1.0067 0.0
O27 O 0.93499 0.37484 0.05255 0.0
O28 O 0.778 0.69481 0.04873 0.0
Cd29 Cd 0.74103 0.6914 0.08738 0.0
Cd30 Cd 0.657 0.63174 0.04544 0.0
O31 O 0.71635 0.63898 0.02079 0.0
O32 O 0.79388 0.71596 0.11878 0.0
O33 O 0.72886 0.63987 0.11878 0.0
C34 C 0.7702 0.6725 0.131 0.0
C35 C 0.57903 0.56514 0.0315 0.0
C36 C 0.76227 0.66946 0.02491 0.0
C37 C 0.67487 0.7311 0.07267 0.0
O38 O 0.6527 0.69413 0.0552 0.0
O39 O 0.71093 0.73684 0.08884 0.0
O40 O 0.60399 0.60289 1.01435 0.0
O41 O 0.59902 0.56435 0.05662 0.0
O42 O 0.67522 0.89095 0.99516 0.0
Cd43 Cd 0.67351 0.92469 0.95612 0.0
Cd44 Cd 0.61496 0.95007 0.99783 0.0
O45 O 0.61793 0.89519 0.02228 0.0
O46 O 0.7016 0.89698 0.92672 0.0
O47 O 0.62518 0.88379 0.92355 0.0
C48 C 0.65926 0.87564 0.9133 0.0
C49 C 0.54873 0.96317 1.00869 0.0
C50 C 0.64855 0.88002 0.0185 0.0
C51 C 0.71577 0.03086 0.97173 0.0
O52 O 0.67946 0.01628 0.98971 0.0
O53 O 0.71934 0.0005 0.95441 0.0
O54 O 0.58395 0.97399 0.02748 0.0
O55 O 0.55012 0.94311 0.98374 0.0
O56 O 0.07508 0.79946 0.98309 0.0
Cd57 Cd 0.03791 0.76423 0.9448 0.0
Cd58 Cd 0.01563 0.67827 0.98531 0.0
O59 O 0.07009 0.73676 1.00964 0.0
O60 O 0.06391 0.81856 0.91416 0.0
O61 O 0.07358 0.75313 0.91068 0.0
C62 C 0.08176 0.79516 0.89979 0.0
C63 C 0.00179 0.59899 0.99847 0.0
C64 C 0.08572 0.78288 1.00618 0.0
C65 C 0.93321 0.6988 0.96275 0.0
O66 O 0.94898 0.67556 0.97847 0.0
O67 O 0.96242 0.73531 0.94636 0.0
O68 O -0.00799 0.62509 1.01639 0.0
O69 O 0.02129 0.61861 0.97299 0.0
O70 O 0.17961 0.28737 0.97515 0.0
Cd71 Cd 0.2153 0.28111 0.93838 0.0
Cd72 Cd 0.30084 0.3507 0.97892 0.0
O73 O 0.24123 0.35074 0.9992 0.0
O74 O 0.16074 0.24814 0.90819 0.0
O75 O 0.22503 0.32368 0.90201 0.0
C76 C 0.18298 0.28808 0.89226 0.0
C77 C 0.37942 0.4147 0.99458 0.0
C78 C 0.19535 0.31896 0.9962 0.0
C79 C 0.27973 0.24455 0.96203 0.0
O80 O 0.30182 0.28519 0.97639 0.0
O81 O 0.24466 0.23545 0.94397 0.0
O82 O 0.34965 0.37987 1.01225 0.0
O83 O 0.36389 0.41464 0.96783 0.0
O84 O 0.9243 0.39718 0.38304 0.0
Cd85 Cd 0.93087 0.36279 0.42053 0.0
Cd86 Cd -0.00258 0.35291 0.38018 0.0
O87 O -0.01066 0.40646 0.35757 0.0
O88 O 0.90446 0.38608 0.45361 0.0
O89 O -0.0173 0.40412 0.45115 0.0
C90 C 0.94878 0.40926 0.4646 0.0
C91 C 0.06865 0.34724 0.37135 0.0
C92 C 0.95335 0.41448 0.36073 0.0
C93 C 0.89953 0.26148 0.40084 0.0
O94 O 0.93684 0.28269 0.38356 0.0
O95 O 0.89093 0.28637 0.41995 0.0
O96 O 0.03619 0.33788 0.35085 0.0
O97 O 0.06234 0.36306 0.39669 0.0
O98 O 0.56301 0.5218 0.39266 0.0
Cd99 Cd 0.60009 0.56744 0.42817 0.0
Cd100 Cd 0.60235 0.6383 0.3842 0.0
O101 O 0.54563 0.57245 0.3675 0.0
O102 O 0.58102 0.52098 0.46294 0.0
O103 O 0.55973 0.57868 0.45906 0.0
C104 C 0.55697 0.54131 0.47356 0.0
C105 C 0.60748 0.7115 0.36567 0.0
C106 C 0.54045 0.52965 0.37158 0.0
C107 C 0.69763 0.63674 0.40347 0.0
O108 O 0.67274 0.64856 0.38627 0.0
O109 O 0.67647 0.60679 0.42505 0.0
O110 O 0.61418 0.682 0.34887 0.0
O111 O 0.59508 0.69818 0.39311 0.0
O112 O 0.45378 0.02437 0.38025 0.0
Cd113 Cd 0.4158 0.0173 0.41921 0.0
Cd114 Cd 0.33322 0.95451 0.37816 0.0
O115 O 0.39349 0.96503 0.35331 0.0
O116 O 0.46775 0.04164 0.45112 0.0
O117 O 0.40548 0.96412 0.44895 0.0
C118 C 0.44576 -0.00283 0.46199 0.0
C119 C 0.25647 0.8869 0.36372 0.0
C120 C 0.43886 -0.00198 0.35674 0.0
C121 C 0.3443 0.05079 0.40585 0.0
O122 O 0.32459 0.01418 0.38801 0.0
O123 O 0.38111 0.05864 0.42202 0.0
O124 O 0.28106 0.92495 0.34677 0.0
O125 O 0.27649 0.88608 0.38883 0.0
O126 O 0.33318 0.20622 0.33164 0.0
Cd127 Cd 0.33787 0.24852 0.29525 0.0
Cd128 Cd 0.28198 0.27329 0.33915 0.0
O129 O 0.28143 0.21495 0.36175 0.0
O130 O 0.36261 0.22237 0.2627 0.0
O131 O 0.28977 0.21817 0.26088 0.0
C132 C 0.32139 0.20814 0.24874 0.0
C133 C 0.21825 0.29053 0.34963 0.0
C134 C 0.30807 0.19581 0.35562 0.0
C135 C 0.38681 0.35206 0.31758 0.0
O136 O 0.34898 0.33783 0.3342 0.0
O137 O 0.38967 0.32281 0.29898 0.0
O138 O 0.25117 0.29692 0.36918 0.0
O139 O 0.22011 0.27208 0.32416 0.0
O140 O 0.75111 0.11436 0.31379 0.0
Cd141 Cd 0.71282 0.08498 0.27488 0.0
Cd142 Cd 0.68251 -0.00708 0.31365 0.0
O143 O 0.73904 0.04752 0.33895 0.0
O144 O 0.74192 0.14321 0.24688 0.0
O145 O 0.74736 0.07606 0.23923 0.0
C146 C 0.75819 0.12017 0.23074 0.0
C147 C 0.6618 0.91131 0.32649 0.0
C148 C 0.75898 0.09438 0.33631 0.0
C149 C 0.60682 0.02399 0.29221 0.0
O150 O 0.61938 -0.00312 0.30668 0.0
O151 O 0.63822 0.06112 0.27699 0.0
O152 O 0.65432 0.93908 0.34439 0.0
O153 O 0.68244 0.93026 0.30114 0.0
O154 O 0.85506 0.64313 0.31932 0.0
Cd155 Cd 0.88491 0.625 0.28388 0.0
Cd156 Cd 0.96982 0.67445 0.32827 0.0
O157 O 0.91521 0.67631 0.35316 0.0
O158 O 0.82826 0.59687 0.25488 0.0
O159 O 0.89949 0.66528 0.24583 0.0
C160 C 0.8547 0.63387 0.2374 0.0
C161 C 0.05171 0.73753 0.33679 0.0
C162 C 0.87106 0.66208 0.34491 0.0
C163 C 0.93523 0.56925 0.30549 0.0
O164 O 0.96438 0.60729 0.32068 0.0
O165 O 0.90071 0.56818 0.28969 0.0
O166 O 0.02694 0.70376 0.35645 0.0
O167 O 0.02927 0.7364 0.31227 0.0
O168 O 0.62195 0.75009 0.72812 0.0
Cd169 Cd 0.60527 0.70377 0.76435 0.0
Cd170 Cd 0.65035 0.66383 0.72039 0.0
O171 O 0.6502 0.71832 0.69431 0.0
O172 O 0.58113 0.73543 0.7937 0.0
O173 O 0.64831 0.73013 0.80121 0.0
C174 C 0.61907 0.74575 0.81015 0.0
C175 C 0.71142 0.64364 0.70854 0.0
C176 C 0.63797 0.74993 0.70206 0.0
C177 C 0.54562 0.59661 0.74506 0.0
O178 O 0.58327 0.60315 0.73034 0.0
O179 O 0.54608 0.6319 0.75966 0.0
O180 O 0.67496 0.63335 0.69086 0.0
O181 O 0.71379 0.66634 0.73314 0.0
O182 O 0.17827 0.85842 0.70676 0.0
Cd183 Cd 0.22887 0.89351 0.74048 0.0
Cd184 Cd 0.26078 0.97145 0.6921 0.0
O185 O 0.20274 0.9134 0.66977 0.0
O186 O 0.20213 0.84174 0.77272 0.0
O187 O 0.20666 0.91447 0.77737 0.0
C188 C 0.19343 0.87115 0.78847 0.0
C189 C 0.27865 0.05251 0.68171 0.0
C190 C 0.17341 0.87049 0.68037 0.0
C191 C 0.33334 0.94082 0.7165 0.0
O192 O 0.3233 0.96759 0.69981 0.0
O193 O 0.30096 0.90829 0.73391 0.0
O194 O 0.28666 0.02672 0.66244 0.0
O195 O 0.25842 0.03135 0.70679 0.0
O196 O 0.09569 0.33358 0.70269 0.0
Cd197 Cd 0.0609 0.3338 0.74153 0.0
Cd198 Cd -0.02385 0.27771 0.69875 0.0
O199 O 0.0334 0.281 0.67375 0.0
O200 O 0.11603 0.36027 0.77163 0.0
O201 O 0.04995 0.2853 0.77487 0.0
C202 C 0.09246 0.31837 0.78558 0.0
C203 C 0.89555 0.21414 0.68634 0.0
C204 C 0.07954 0.30948 0.67847 0.0
C205 C 0.00155 0.38022 0.72456 0.0
O206 O -0.02228 0.34334 0.70725 0.0
O207 O 0.0353 0.38306 0.74181 0.0
O208 O 0.92185 0.25023 0.66838 0.0
O209 O 0.91565 0.21308 0.71137 0.0
O210 O 0.00908 0.553 0.64875 0.0
Cd211 Cd 0.00135 0.5864 0.611 0.0
Cd212 Cd 0.9302 0.59159 0.65301 0.0
O213 O 0.94053 0.53756 0.67262 0.0
O214 O 0.03199 0.56643 0.57863 0.0
O215 O 0.95222 0.54303 0.57961 0.0
C216 C -0.01159 0.54089 0.56689 0.0
C217 C 0.86163 0.59592 0.67103 0.0
C218 C -0.0217 0.53239 0.67 0.0
C219 C 0.02639 0.68609 0.63078 0.0
O220 O -0.01075 0.6626 0.64799 0.0
O221 O 0.03668 0.66291 0.61135 0.0
O222 O 0.89932 0.60621 0.68751 0.0
O223 O 0.86162 0.58085 0.64418 0.0
O224 O 0.38983 0.45635 0.65442 0.0
Cd225 Cd 0.36307 0.42246 0.61389 0.0
Cd226 Cd 0.34053 0.3365 0.65073 0.0
O227 O 0.38651 0.39318 0.67932 0.0
O228 O 0.39541 0.47626 0.58317 0.0
O229 O 0.40823 0.41259 0.5862 0.0
C230 C 0.41811 0.45394 0.57342 0.0
C231 C 0.3324 0.25844 0.65993 0.0
C232 C 0.39841 0.43868 0.67782 0.0
C233 C 0.2571 0.3498 0.62292 0.0
O234 O 0.27259 0.328 0.64012 0.0
O235 O 0.28739 0.38855 0.60847 0.0
O236 O 0.31641 0.27873 0.67842 0.0
O237 O 0.35536 0.28363 0.63641 0.0
O238 O 0.49647 0.91753 0.64715 0.0
Cd239 Cd 0.54067 0.92038 0.61214 0.0
Cd240 Cd 0.61384 -0.00818 0.65056 0.0
O241 O 0.55119 -0.01209 0.66873 0.0
O242 O 0.49668 0.89731 0.57623 0.0
O243 O 0.55931 0.97433 0.58165 0.0
C244 C 0.52159 0.94233 0.56617 0.0
C245 C 0.69072 0.0633 0.65996 0.0
C246 C 0.50712 0.95136 0.66645 0.0
C247 C 0.60797 0.89138 0.63823 0.0
O248 O 0.62224 0.93074 0.65337 0.0
O249 O 0.57677 0.88052 0.6172 0.0
O250 O 0.66472 0.03309 0.68093 0.0
O251 O 0.6716 0.05463 0.63352 0.0
C252 C 0.47441 0.0105 0.05033 0.0
C253 C 0.43716 0.00336 0.02985 0.0
C254 C 0.5098 -0.00317 0.04332 0.0
C255 C 0.50942 0.97537 1.01554 0.0
H256 H 0.47632 0.02668 0.07205 0.0
H257 H 0.5378 0.00336 0.05992 0.0
S258 S 0.4196 0.94859 0.95389 0.0
N259 N 0.40197 0.97324 0.98041 0.0
N260 N 0.46849 0.94761 0.96737 0.0
C261 C 0.47233 0.9679 0.99482 0.0
C262 C 0.43626 0.9819 1.00192 0.0
C263 C -0.01742 0.46864 0.99229 0.0
C264 C 0.96211 0.44703 0.02023 0.0
C265 C -0.00415 0.51786 0.98562 0.0
C266 C -0.01088 0.54758 1.00656 0.0
H267 H -0.01121 0.44753 0.97534 0.0
H268 H 0.01126 0.53253 0.96376 0.0
S269 S 0.93688 0.50893 0.08307 0.0
N270 N 0.93574 0.4593 0.06904 0.0
N271 N 0.96051 0.55173 0.0566 0.0
C272 C 0.96862 0.52648 0.03464 0.0
C273 C 0.95514 0.47628 0.04143 0.0
C274 C 0.46082 0.49277 0.98597 0.0
C275 C 0.43009 0.4524 1.0046 0.0
C276 C 0.50898 0.52855 0.99481 0.0
C277 C 0.52854 0.52537 0.02261 0.0
H278 H 0.4476 0.49702 0.96438 0.0
H279 H 0.53091 0.55911 0.97965 0.0
S280 S 0.46379 0.42605 0.07945 0.0
N281 N 0.4231 0.41074 0.05208 0.0
N282 N 0.51357 0.47799 0.06856 0.0
C283 C 0.49843 0.48493 0.04138 0.0
C284 C 0.44925 0.4485 0.03243 0.0
C285 C 0.11222 0.31626 0.33853 0.0
C286 C 0.10922 0.33613 0.36621 0.0
C287 C 0.14727 0.30138 0.33348 0.0
C288 C 0.1809 0.30575 0.35588 0.0
H289 H 0.08683 0.31144 0.32057 0.0
H290 H 0.14782 0.28625 0.3118 0.0
S291 S 0.18955 0.35658 0.43221 0.0
N292 N 0.14365 0.36019 0.41621 0.0
N293 N 0.20963 0.33239 0.40681 0.0
C294 C 0.17882 0.32616 0.38361 0.0
C295 C 0.14303 0.34135 0.38873 0.0
C296 C 0.61578 0.7949 0.37395 0.0
C297 C 0.61774 0.76069 0.35434 0.0
C298 C 0.62984 0.84325 0.36459 0.0
C299 C 0.64661 0.85952 0.33523 0.0
H300 H 0.60424 0.7847 0.39695 0.0
H301 H 0.62815 0.86826 0.38075 0.0
S302 S 0.65571 0.78351 0.27445 0.0
N303 N 0.63556 0.74578 0.30359 0.0
N304 N 0.66213 0.83676 0.28617 0.0
C305 C 0.64765 0.8254 0.31514 0.0
C306 C 0.63313 0.77599 0.32463 0.0
C307 C 0.12635 0.77532 0.36997 0.0
C308 C 0.10439 0.77544 0.34245 0.0
C309 C 0.17592 0.81055 0.37631 0.0
C310 C 0.2056 0.84743 0.35541 0.0
H311 H 0.10504 0.748 0.38701 0.0
H312 H 0.19069 0.80933 0.39802 0.0
S313 S 0.1669 0.86259 0.27932 0.0
N314 N 0.11682 0.81455 0.29364 0.0
N315 N 0.21001 0.8808 0.30545 0.0
C316 C 0.18449 0.84742 0.3275 0.0
C317 C 0.13391 0.81148 0.32106 0.0
C318 C 0.78347 0.59847 0.66263 0.0
C319 C 0.8217 0.60465 0.68202 0.0
C320 C 0.74783 0.61071 0.6716 0.0
C321 C 0.74902 0.6298 0.70032 0.0
H322 H 0.78149 0.58498 0.64008 0.0
H323 H 0.71958 0.60585 0.65562 0.0
S324 S 0.8395 0.65001 0.7604 0.0
N325 N 0.85716 0.62887 0.73195 0.0
N326 N 0.79025 0.65202 0.74864 0.0
C327 C 0.78626 0.635 0.72023 0.0
C328 C 0.82252 0.62236 0.71115 0.0
C329 C 0.29626 0.18164 0.69137 0.0
C330 C 0.32172 0.20686 0.6652 0.0
C331 C 0.28249 0.13188 0.69644 0.0
C332 C 0.29347 0.1051 0.67554 0.0
H333 H 0.28631 0.20024 0.7081 0.0
H334 H 0.2628 0.11428 0.71689 0.0
S335 S 0.36087 0.15418 0.6037 0.0
N336 N 0.35832 0.20154 0.61836 0.0
N337 N 0.33253 0.10796 0.6278 0.0
C338 C 0.31949 0.12998 0.64938 0.0
C339 C 0.33363 0.18084 0.64426 0.0
C340 C 0.76345 0.10625 0.69433 0.0
C341 C 0.7422 0.10389 0.66612 0.0
C342 C 0.81304 0.14161 0.70052 0.0
C343 C 0.8435 0.17636 0.67883 0.0
H344 H 0.74187 0.08006 0.71181 0.0
H345 H 0.82748 0.14167 0.72256 0.0
S346 S 0.80579 0.18692 0.60153 0.0
N347 N 0.75539 0.13994 0.61636 0.0
N348 N 0.84857 0.2067 0.62794 0.0
C349 C 0.82265 0.17489 0.65057 0.0
C350 C 0.77206 0.13864 0.64424 0.0
C351 C 0.33727 0.14187 0.18181 0.0
C352 C 0.29213 0.12347 0.1662 0.0
C353 C 0.34637 0.16946 0.20819 0.0
C354 C 0.31076 0.17997 0.22019 0.0
H355 H 0.36603 0.13499 0.17363 0.0
H356 H 0.38173 0.18248 0.2193 0.0
S357 S 0.18639 0.1407 0.18794 0.0
N358 N 0.21125 0.11805 0.16473 0.0
N359 N 0.22843 0.16979 0.21421 0.0
C360 C 0.26546 0.16195 0.20479 0.0
C361 C 0.25613 0.13377 0.17788 0.0
C362 C 0.84037 0.14188 0.16282 0.0
C363 C 0.85168 0.18936 0.15253 0.0
C364 C 0.80992 0.11978 0.18786 0.0
C365 C 0.78949 0.1442 0.20384 0.0
H366 H 0.85479 0.12117 0.1513 0.0
H367 H 0.80249 0.08322 0.19474 0.0
S368 S 0.80812 0.26959 0.18656 0.0
N369 N 0.84025 0.26035 0.16059 0.0
N370 N 0.78326 0.21908 0.20763 0.0
C371 C 0.80071 0.19189 0.19394 0.0
C372 C 0.83169 0.21437 0.16835 0.0
C373 C 0.85916 0.68662 0.1937 0.0
C374 C 0.83323 0.64144 0.2095 0.0
C375 C 0.83839 0.69615 0.16849 0.0
C376 C 0.79085 0.66083 0.15782 0.0
H377 H 0.89556 0.71538 0.20112 0.0
H378 H 0.85993 0.73174 0.15734 0.0
S379 S 0.70806 0.53566 0.19042 0.0
N380 N 0.75769 0.56027 0.21211 0.0
N381 N 0.71891 0.57816 0.16474 0.0
C382 C 0.76479 0.6151 0.1731 0.0
C383 C 0.78589 0.60543 0.19888 0.0
C384 C 0.60545 0.8235 0.87098 0.0
C385 C 0.64981 0.842 0.88741 0.0
C386 C 0.59559 0.79176 0.84649 0.0
C387 C 0.62952 0.77682 0.83742 0.0
H388 H 0.57813 0.83392 0.87687 0.0
H389 H 0.56111 0.77919 0.83443 0.0
S390 S 0.7505 0.81312 0.87361 0.0
N391 N 0.7276 0.84184 0.8933 0.0
N392 N 0.70894 0.78218 0.84741 0.0
C393 C 0.6737 0.79435 0.85395 0.0
C394 C 0.68389 0.82693 0.87884 0.0
C395 C 0.12649 0.78796 0.85518 0.0
C396 C 0.11109 0.81612 0.87186 0.0
C397 C 0.15374 0.8065 0.82864 0.0
C398 C 0.16701 0.85414 0.81762 0.0
H399 H 0.1171 0.75098 0.86247 0.0
H400 H 0.16406 0.78289 0.81655 0.0
S401 S 0.13743 0.94389 0.85338 0.0
N402 N 0.11235 0.89494 0.87575 0.0
N403 N 0.16354 0.92965 0.82599 0.0
C404 C 0.15256 0.88311 0.83431 0.0
C405 C 0.12462 0.86415 0.86134 0.0
C406 C 0.18323 0.33902 0.8486 0.0
C407 C 0.1598 0.29376 0.86448 0.0
C408 C 0.1611 0.34644 0.82327 0.0
C409 C 0.11449 0.30895 0.81264 0.0
H410 H 0.21885 0.36936 0.8559 0.0
H411 H 0.18082 0.38213 0.81202 0.0
S412 S 0.03781 0.18291 0.84566 0.0
N413 N 0.08739 0.21032 0.86733 0.0
N414 N 0.04599 0.22435 0.81982 0.0
C415 C 0.09078 0.26326 0.82811 0.0
C416 C 0.11336 0.25566 0.85394 0.0
C417 C 0.92193 0.44699 0.5047 0.0
C418 C 0.9602 0.44236 0.49102 0.0
C419 C 0.93151 0.47926 0.52887 0.0
C420 C -0.02018 0.50844 0.54048 0.0
H421 H 0.88404 0.42562 0.49664 0.0
H422 H 0.90059 0.4811 0.53858 0.0
S423 S 0.0935 0.51047 0.51276 0.0
N424 N 0.04856 0.46998 0.49096 0.0
N425 N 0.06664 0.53052 0.53629 0.0
C426 C 0.01855 0.50424 0.52702 0.0
C427 C 0.00874 0.47126 0.50239 0.0
C428 C 0.49452 0.53979 0.50966 0.0
C429 C 0.52438 0.52018 0.50031 0.0
C430 C 0.46055 0.51821 0.53328 0.0
C431 C 0.45478 0.47593 0.54858 0.0
H432 H 0.49671 0.5717 0.49836 0.0
H433 H 0.43824 0.53464 0.53934 0.0
S434 S 0.5259 0.41148 0.53404 0.0
N435 N 0.54725 0.45688 0.50915 0.0
N436 N 0.48343 0.41641 0.55338 0.0
C437 C 0.48506 0.45643 0.53988 0.0
C438 C 0.51983 0.47853 0.51585 0.0
C439 C 0.46121 0.92189 0.52401 0.0
C440 C 0.50501 0.95704 0.53871 0.0
C441 C 0.44245 0.93519 0.49935 0.0
C442 C 0.46663 -0.01576 0.48823 0.0
H443 H 0.44064 0.88372 0.53182 0.0
H444 H 0.40848 0.90667 0.48905 0.0
S445 S 0.58363 0.09036 0.51797 0.0
N446 N 0.57276 0.04303 0.53978 0.0
N447 N 0.5377 0.06805 0.49352 0.0
C448 C 0.51092 0.0197 0.50243 0.0
C449 C 0.53004 0.00612 0.52758 0.0
C450 C 0.1971 0.8625 0.05433 0.0
C451 C 0.18771 0.90034 0.06353 0.0
C452 C 0.1619 0.82178 0.03767 0.0
C453 C 0.11698 0.81856 0.02916 0.0
H454 H 0.23314 0.86613 0.05832 0.0
H455 H 0.1715 0.79488 0.02948 0.0
S456 S 0.07178 0.90395 0.05077 0.0
N457 N 0.1277 0.92861 0.06585 0.0
N458 N 0.06229 0.85281 0.03371 0.0
C459 C 0.10557 0.85392 0.04009 0.0
C460 C 0.14077 0.89465 0.05763 0.0
C461 C 0.08238 0.26818 0.04562 0.0
C462 C 0.07607 0.30959 0.04906 0.0
C463 C 0.12285 0.27221 0.02961 0.0
C464 C 0.1589 0.31799 0.01737 0.0
H465 H 0.05378 0.23163 0.05306 0.0
H466 H 0.12483 0.23884 0.02565 0.0
S467 S 0.16297 0.43871 0.02391 0.0
N468 N 0.11133 0.39857 0.04142 0.0
N469 N 0.18878 0.40644 1.01235 0.0
C470 C 0.15544 0.36051 0.02296 0.0
C471 C 0.11357 0.35621 0.0386 0.0
C472 C 0.70561 0.82065 0.06448 0.0
C473 C 0.66503 0.77235 0.0687 0.0
C474 C 0.6993 0.85711 0.05008 0.0
C475 C 0.6521 0.84677 0.04038 0.0
H476 H 0.74309 0.82889 0.06951 0.0
H477 H 0.73196 0.89257 0.0448 0.0
S478 S 0.53301 0.72902 0.05104 0.0
N479 N 0.57542 0.71792 0.06545 0.0
N480 N 0.56343 0.78744 0.03938 0.0
C481 C 0.61058 0.80054 0.04744 0.0
C482 C 0.6171 0.76299 0.06144 0.0
C483 C 0.74836 0.11984 0.98453 0.0
C484 C 0.75774 0.08203 0.97525 0.0
C485 C 0.78632 0.16446 0.99658 0.0
C486 C 0.83438 0.17193 1.00025 0.0
H487 H 0.71078 0.11353 0.98428 0.0
H488 H 0.77707 0.19129 1.00534 0.0
S489 S 0.87983 0.088 0.9759 0.0
N490 N 0.82012 0.05791 0.96722 0.0
N491 N 0.89104 0.14125 0.9908 0.0
C492 C 0.84518 0.13638 0.98892 0.0
C493 C 0.8069 0.0915 0.97605 0.0
C494 C 0.83637 0.72316 0.99398 0.0
C495 C 0.79887 0.67511 1.00229 0.0
C496 C 0.87755 0.73031 0.97736 0.0
C497 C 0.88306 0.68964 0.9694 0.0
H498 H 0.83511 0.75554 1.00172 0.0
H499 H 0.90737 0.76808 0.9733 0.0
S500 S 0.79221 0.55622 0.98274 0.0
N501 N 0.7667 0.58611 0.99842 0.0
N502 N 0.84542 0.59961 0.96824 0.0
C503 C 0.84398 0.64127 0.97562 0.0
C504 C 0.80145 0.63396 0.99187 0.0
C505 C 0.24702 0.15836 0.98004 0.0
C506 C 0.28828 0.20437 0.97199 0.0
C507 C 0.25271 0.12525 0.99858 0.0
C508 C 0.29992 0.13651 1.0089 0.0
H509 H 0.20971 0.14975 0.97417 0.0
H510 H 0.21975 0.09148 1.00586 0.0
S511 S 0.42019 0.24891 0.99076 0.0
N512 N 0.37819 0.25763 0.97349 0.0
N513 N 0.389 0.19402 1.00734 0.0
C514 C 0.34185 0.18025 0.99888 0.0
C515 C 0.33597 0.21459 0.98062 0.0
C516 C 0.81135 0.19792 0.39222 0.0
C517 C 0.86134 0.21002 0.39363 0.0
C518 C 0.77692 0.15741 0.37521 0.0
C519 C 0.79121 0.12717 0.35993 0.0
H520 H 0.7999 0.22266 0.40167 0.0
H521 H 0.73977 0.15163 0.37239 0.0
S522 S 0.91501 0.13771 0.36102 0.0
N523 N 0.92178 0.18483 0.38158 0.0
N524 N 0.85622 0.10766 0.35027 0.0
C525 C 0.83944 0.13552 0.3638 0.0
C526 C 0.87478 0.17725 0.38064 0.0
C527 C 0.81227 0.69128 0.35537 0.0
C528 C 0.83625 0.66596 0.3652 0.0
C529 C 0.77019 0.68553 0.37011 0.0
C530 C 0.74955 0.65287 0.39468 0.0
H531 H 0.82452 0.71354 0.33515 0.0
H532 H 0.75173 0.70413 0.36068 0.0
S533 S 0.80365 0.58362 0.43135 0.0
N534 N 0.84113 0.61231 0.40287 0.0
N535 N 0.76064 0.59993 0.4304 0.0
C536 C 0.77596 0.63073 0.40628 0.0
C537 C 0.81961 0.63749 0.39145 0.0
C538 C 0.3587 0.17518 0.38869 0.0
C539 C 0.3119 0.16177 0.37665 0.0
C540 C 0.36747 0.13948 0.40195 0.0
C541 C 0.32996 0.08911 0.40272 0.0
H542 H 0.38958 0.21283 0.38599 0.0
H543 H 0.40506 0.15062 0.40881 0.0
S544 S 0.19911 0.0369 0.37815 0.0
N545 N 0.2261 0.09673 0.36972 0.0
N546 N 0.24261 0.02888 0.39398 0.0
C547 C 0.28179 0.07624 0.39321 0.0
C548 C 0.27275 0.11283 0.38021 0.0
C549 C 0.46132 0.48492 0.34292 0.0
C550 C 0.50553 0.48763 0.35279 0.0
C551 C 0.42399 0.44178 0.32919 0.0
C552 C 0.43041 0.40077 0.32406 0.0
H553 H 0.45416 0.51496 0.34754 0.0
H554 H 0.38892 0.43953 0.32387 0.0
S555 S 0.54176 0.39171 0.34237 0.0
N556 N 0.55541 0.44745 0.35428 0.0
N557 N 0.48558 0.36684 0.32764 0.0
C558 C 0.4759 0.4045 0.33171 0.0
C559 C 0.51342 0.44787 0.34635 0.0
C560 C 0.5565 0.05929 0.31086 0.0
C561 C 0.55812 0.01811 0.29936 0.0
C562 C 0.51616 0.05261 0.32821 0.0
C563 C 0.47574 0.0047 0.33389 0.0
H564 H 0.58855 0.09642 0.30891 0.0
H565 H 0.51775 0.08494 0.33847 0.0
S566 S 0.45895 0.88573 0.30463 0.0
N567 N 0.51403 0.92858 0.29201 0.0
N568 N 0.43702 0.91608 0.32362 0.0
C569 C 0.47471 0.96375 0.31997 0.0
C570 C 0.5163 0.97046 0.3029 0.0
C571 C -0.01518 0.52832 0.31485 0.0
C572 C 0.93793 0.52393 0.31068 0.0
C573 C -0.01061 0.49052 0.3289 0.0
C574 C 0.94723 0.44776 0.33989 0.0
H575 H 0.0184 0.56262 0.30898 0.0
H576 H 0.02632 0.49667 0.33329 0.0
S577 S 0.81576 0.41522 0.3306 0.0
N578 N 0.84833 0.47092 0.3152 0.0
N579 N 0.85688 0.40016 0.34229 0.0
C580 C 0.89995 0.44112 0.33364 0.0
C581 C 0.89528 0.47916 0.31877 0.0
C582 C 0.46361 0.46752 0.71716 0.0
C583 C 0.42677 0.47289 0.70231 0.0
C584 C 0.49937 0.50615 0.73479 0.0
C585 C 0.49862 0.5507 0.73861 0.0
H586 H 0.46765 0.4354 0.71298 0.0
H587 H 0.53029 0.50296 0.74328 0.0
S588 S 0.40312 0.578 0.70981 0.0
N589 N 0.38669 0.52234 0.69639 0.0
N590 N 0.45342 0.59458 0.73011 0.0
C591 C 0.45831 0.55375 0.72698 0.0
C592 C 0.42252 0.51491 0.70852 0.0
C593 C 0.42442 0.90299 0.69135 0.0
C594 C 0.4669 0.9493 0.68498 0.0
C595 C 0.38245 0.90023 0.70481 0.0
C596 C 0.38141 0.94372 0.71175 0.0
H597 H 0.42281 0.86868 0.68476 0.0
H598 H 0.34936 0.86403 0.70757 0.0
S599 S 0.48457 0.07373 0.70284 0.0
N600 N 0.50699 0.0394 0.68958 0.0
N601 N 0.4274 0.03402 0.71405 0.0
C602 C 0.42465 -0.00996 0.70738 0.0
C603 C 0.46767 -0.0071 0.6942 0.0
C604 C 0.94826 0.41635 0.7131 0.0
C605 C -0.00425 0.42376 0.71958 0.0
C606 C 0.94267 0.45352 0.69905 0.0
C607 C -0.0155 0.49862 0.6903 0.0
H608 H 0.91542 0.38043 0.71717 0.0
H609 H 0.9056 0.44536 0.69296 0.0
S610 S 0.11648 0.53865 0.70572 0.0
N611 N 0.08494 0.48158 0.71941 0.0
N612 N 0.07448 0.55107 0.69217 0.0
C613 C 0.03194 0.5079 0.69867 0.0
C614 C 0.03756 0.47052 0.71362 0.0
C615 C 0.08539 0.80695 0.67319 0.0
C616 C 0.13392 0.83212 0.66187 0.0
C617 C 0.04938 0.76192 0.6608 0.0
C618 C 0.06103 0.73954 0.63716 0.0
H619 H 0.07598 0.82074 0.69289 0.0
H620 H 0.01315 0.74291 0.67139 0.0
S621 S 0.18174 0.79518 0.59697 0.0
N622 N 0.19081 0.83569 0.62357 0.0
N623 N 0.12338 0.74984 0.60045 0.0
C624 C 0.10848 0.76674 0.62396 0.0
C625 C 0.14497 0.81332 0.63637 0.0
C626 C 0.15048 0.3645 0.64609 0.0
C627 C 0.11607 0.31605 0.65567 0.0
C628 C 0.1939 0.37438 0.63103 0.0
C629 C 0.2047 0.33619 0.62601 0.0
H630 H 0.14549 0.39547 0.65216 0.0
H631 H 0.22149 0.41283 0.62639 0.0
S632 S 0.12227 0.20189 0.64235 0.0
N633 N 0.09161 0.22859 0.65527 0.0
N634 N 0.17431 0.2472 0.62779 0.0
C635 C 0.16809 0.28687 0.63277 0.0
C636 C 0.12341 0.27675 0.64754 0.0
C637 C 0.66608 0.83667 0.68785 0.0
C638 C 0.63965 0.78613 0.68044 0.0
C639 C 0.65894 0.87119 0.67191 0.0
C640 C 0.62384 0.85614 0.64853 0.0
H641 H 0.69051 0.84923 0.70711 0.0
H642 H 0.67877 0.90951 0.67943 0.0
S643 S 0.54986 0.72793 0.61842 0.0
N644 N 0.58156 0.72272 0.64644 0.0
N645 N 0.56664 0.7875 0.61669 0.0
C646 C 0.6001 0.80602 0.63939 0.0
C647 C 0.60823 0.77094 0.65542 0.0
loop_
_geom_bond_atom_site_label_1
_geom_bond_atom_site_label_2
_geom_bond_distance
_geom_bond_site_symmetry_2
_ccdc_geom_bond_type
O0 Cd1 2.223 . S
O0 C8 1.315 . S
Cd1 O0 2.223 . S
Cd1 O4 2.297 . S
Cd1 O5 2.439 . S
Cd1 O11 2.240 1_545 S
Cd2 O3 2.240 . S
Cd2 O10 2.223 1_554 S
Cd2 O12 2.301 . S
Cd2 O13 2.439 . S
O3 Cd2 2.240 . S
O3 C8 1.279 . S
O4 Cd1 2.297 . S
O4 C6 1.247 . S
O5 Cd1 2.439 . S
O5 C6 1.208 . S
C6 O4 1.247 . S
C6 O5 1.208 . S
C7 O12 1.264 . S
C7 O13 1.208 . S
C8 O0 1.315 . S
C8 O3 1.279 . S
C9 O10 1.315 1_564 S
C9 O11 1.279 . S
O10 Cd2 2.223 1_556 S
O10 C9 1.315 1_546 S
O11 Cd1 2.240 1_565 S
O11 C9 1.279 . S
O12 Cd2 2.301 . S
O12 C7 1.264 . S
O13 Cd2 2.439 . S
O13 C7 1.208 . S
O14 Cd15 2.223 . S
O14 C22 1.315 . S
Cd15 O14 2.223 . S
Cd15 O18 2.297 . S
Cd15 O19 2.439 . S
Cd15 O25 2.240 1_655 S
Cd16 O17 2.240 . S
Cd16 O24 2.223 1_554 S
Cd16 O26 2.297 . S
Cd16 O27 2.439 . S
O17 Cd16 2.240 . S
O17 C22 1.279 . S
O18 Cd15 2.297 . S
O18 C20 1.247 . S
O19 Cd15 2.439 . S
O19 C20 1.208 . S
C20 O18 1.247 . S
C20 O19 1.208 . S
C21 O26 1.247 . S
C21 O27 1.208 . S
C22 O14 1.315 . S
C22 O17 1.279 . S
C23 O24 1.315 1_454 S
C23 O25 1.279 . S
O24 Cd16 2.223 1_556 S
O24 C23 1.315 1_656 S
O25 Cd15 2.240 1_455 S
O25 C23 1.279 . S
O26 Cd16 2.297 . S
O26 C21 1.247 . S
O27 Cd16 2.439 . S
O27 C21 1.208 . S
O28 Cd29 2.223 . S
O28 C36 1.315 . S
Cd29 O28 2.223 . S
Cd29 O32 2.297 . S
Cd29 O33 2.439 . S
Cd29 O39 2.240 . S
Cd30 O31 2.240 . S
Cd30 O38 2.223 1_554 S
Cd30 O40 2.297 . S
Cd30 O41 2.439 . S
O31 Cd30 2.240 . S
O31 C36 1.279 . S
O32 Cd29 2.297 . S
O32 C34 1.247 . S
O33 Cd29 2.439 . S
O33 C34 1.208 . S
C34 O32 1.247 . S
C34 O33 1.208 . S
C35 O40 1.247 . S
C35 O41 1.208 . S
C36 O28 1.315 . S
C36 O31 1.279 . S
C37 O38 1.315 1_554 S
C37 O39 1.279 . S
O38 Cd30 2.223 1_556 S
O38 C37 1.315 1_556 S
O39 Cd29 2.240 . S
O39 C37 1.279 . S
O40 Cd30 2.297 . S
O40 C35 1.247 . S
O41 Cd30 2.439 . S
O41 C35 1.208 . S
O42 Cd43 2.223 . S
O42 C50 1.315 . S
Cd43 O42 2.223 . S
Cd43 O46 2.297 . S
Cd43 O47 2.439 . S
Cd43 O53 2.240 1_565 S
Cd44 O45 2.240 . S
Cd44 O52 2.223 1_556 S
Cd44 O54 2.301 . S
Cd44 O55 2.439 . S
O45 Cd44 2.240 . S
O45 C50 1.279 . S
O46 Cd43 2.297 . S
O46 C48 1.247 . S
O47 Cd43 2.439 . S
O47 C48 1.208 . S
C48 O46 1.247 . S
C48 O47 1.208 . S
C49 O54 1.264 . S
C49 O55 1.208 . S
C50 O42 1.315 . S
C50 O45 1.279 . S
C51 O52 1.315 1_546 S
C51 O53 1.279 . S
O52 Cd44 2.223 1_554 S
O52 C51 1.315 1_564 S
O53 Cd43 2.240 1_545 S
O53 C51 1.279 . S
O54 Cd44 2.301 . S
O54 C49 1.264 . S
O55 Cd44 2.439 . S
O55 C49 1.208 . S
O56 Cd57 2.223 . S
O56 C64 1.315 . S
Cd57 O56 2.223 . S
Cd57 O60 2.297 . S
Cd57 O61 2.439 . S
Cd57 O67 2.240 1_455 S
Cd58 O59 2.240 . S
Cd58 O66 2.223 1_556 S
Cd58 O68 2.297 . S
Cd58 O69 2.439 . S
O59 Cd58 2.240 . S
O59 C64 1.279 . S
O60 Cd57 2.297 . S
O60 C62 1.247 . S
O61 Cd57 2.439 . S
O61 C62 1.208 . S
C62 O60 1.247 . S
C62 O61 1.208 . S
C63 O68 1.247 . S
C63 O69 1.208 . S
C64 O56 1.315 . S
C64 O59 1.279 . S
C65 O66 1.315 1_656 S
C65 O67 1.279 . S
O66 Cd58 2.223 1_554 S
O66 C65 1.315 1_454 S
O67 Cd57 2.240 1_655 S
O67 C65 1.279 . S
O68 Cd58 2.297 . S
O68 C63 1.247 . S
O69 Cd58 2.439 . S
O69 C63 1.208 . S
O70 Cd71 2.223 . S
O70 C78 1.315 . S
Cd71 O70 2.223 . S
Cd71 O74 2.297 . S
Cd71 O75 2.439 . S
Cd71 O81 2.240 . S
Cd72 O73 2.240 . S
Cd72 O80 2.223 1_556 S
Cd72 O82 2.297 . S
Cd72 O83 2.439 . S
O73 Cd72 2.240 . S
O73 C78 1.279 . S
O74 Cd71 2.297 . S
O74 C76 1.247 . S
O75 Cd71 2.439 . S
O75 C76 1.208 . S
C76 O74 1.247 . S
C76 O75 1.208 . S
C77 O82 1.247 . S
C77 O83 1.208 . S
C78 O70 1.315 . S
C78 O73 1.279 . S
C79 O80 1.315 1_556 S
C79 O81 1.279 . S
O80 Cd72 2.223 1_554 S
O80 C79 1.315 1_554 S
O81 Cd71 2.240 . S
O81 C79 1.279 . S
O82 Cd72 2.297 . S
O82 C77 1.247 . S
O83 Cd72 2.439 . S
O83 C77 1.208 . S
O84 Cd85 2.223 . S
O84 C92 1.315 . S
Cd85 O84 2.223 . S
Cd85 O88 2.297 . S
Cd85 O89 2.439 1_655 S
Cd85 O95 2.240 . S
Cd86 O87 2.240 . S
Cd86 O94 2.223 1_455 S
Cd86 O96 2.297 . S
Cd86 O97 2.439 . S
O87 Cd86 2.240 . S
O87 C92 1.279 1_455 S
O88 Cd85 2.297 . S
O88 C90 1.247 1_655 S
O89 Cd85 2.439 1_455 S
O89 C90 1.208 . S
C90 O88 1.247 1_455 S
C90 O89 1.208 . S
C91 O96 1.247 . S
C91 O97 1.208 . S
C92 O84 1.315 . S
C92 O87 1.279 1_655 S
C93 O94 1.315 . S
C93 O95 1.279 . S
O94 Cd86 2.223 1_655 S
O94 C93 1.315 . S
O95 Cd85 2.240 . S
O95 C93 1.279 . S
O96 Cd86 2.297 . S
O96 C91 1.247 . S
O97 Cd86 2.439 . S
O97 C91 1.208 . S
O98 Cd99 2.223 . S
O98 C106 1.315 . S
Cd99 O98 2.223 . S
Cd99 O102 2.297 . S
Cd99 O103 2.439 . S
Cd99 O109 2.240 . S
Cd100 O101 2.240 . S
Cd100 O108 2.223 . S
Cd100 O110 2.297 . S
Cd100 O111 2.439 . S
O101 Cd100 2.240 . S
O101 C106 1.279 . S
O102 Cd99 2.297 . S
O102 C104 1.247 . S
O103 Cd99 2.439 . S
O103 C104 1.208 . S
C104 O102 1.247 . S
C104 O103 1.208 . S
C105 O110 1.247 . S
C105 O111 1.208 . S
C106 O98 1.315 . S
C106 O101 1.279 . S
C107 O108 1.315 . S
C107 O109 1.279 . S
O108 Cd100 2.223 . S
O108 C107 1.315 . S
O109 Cd99 2.240 . S
O109 C107 1.279 . S
O110 Cd100 2.297 . S
O110 C105 1.247 . S
O111 Cd100 2.439 . S
O111 C105 1.208 . S
O112 Cd113 2.223 . S
O112 C120 1.315 . S
Cd113 O112 2.223 . S
Cd113 O116 2.297 . S
Cd113 O117 2.439 1_545 S
Cd113 O123 2.240 . S
Cd114 O115 2.240 . S
Cd114 O122 2.223 1_565 S
Cd114 O124 2.297 . S
Cd114 O125 2.439 . S
O115 Cd114 2.240 . S
O115 C120 1.279 1_565 S
O116 Cd113 2.297 . S
O116 C118 1.247 1_545 S
O117 Cd113 2.439 1_565 S
O117 C118 1.208 . S
C118 O116 1.247 1_565 S
C118 O117 1.208 . S
C119 O124 1.247 . S
C119 O125 1.208 . S
C120 O112 1.315 . S
C120 O115 1.279 1_545 S
C121 O122 1.315 . S
C121 O123 1.279 . S
O122 Cd114 2.223 1_545 S
O122 C121 1.315 . S
O123 Cd113 2.240 . S
O123 C121 1.279 . S
O124 Cd114 2.297 . S
O124 C119 1.247 . S
O125 Cd114 2.439 . S
O125 C119 1.208 . S
O126 Cd127 2.223 . S
O126 C134 1.315 . S
Cd127 O126 2.223 . S
Cd127 O130 2.297 . S
Cd127 O131 2.439 . S
Cd127 O137 2.240 . S
Cd128 O129 2.240 . S
Cd128 O136 2.223 . S
Cd128 O138 2.297 . S
Cd128 O139 2.439 . S
O129 Cd128 2.240 . S
O129 C134 1.279 . S
O130 Cd127 2.297 . S
O130 C132 1.247 . S
O131 Cd127 2.439 . S
O131 C132 1.208 . S
C132 O130 1.247 . S
C132 O131 1.208 . S
C133 O138 1.247 . S
C133 O139 1.208 . S
C134 O126 1.315 . S
C134 O129 1.279 . S
C135 O136 1.315 . S
C135 O137 1.279 . S
O136 Cd128 2.223 . S
O136 C135 1.315 . S
O137 Cd127 2.240 . S
O137 C135 1.279 . S
O138 Cd128 2.297 . S
O138 C133 1.247 . S
O139 Cd128 2.439 . S
O139 C133 1.208 . S
O140 Cd141 2.223 . S
O140 C148 1.315 . S
Cd141 O140 2.223 . S
Cd141 O144 2.297 . S
Cd141 O145 2.439 . S
Cd141 O151 2.240 . S
Cd142 O143 2.240 . S
Cd142 O150 2.223 . S
Cd142 O152 2.297 1_545 S
Cd142 O153 2.439 1_545 S
O143 Cd142 2.240 . S
O143 C148 1.279 . S
O144 Cd141 2.297 . S
O144 C146 1.247 . S
O145 Cd141 2.439 . S
O145 C146 1.208 . S
C146 O144 1.247 . S
C146 O145 1.208 . S
C147 O152 1.247 . S
C147 O153 1.208 . S
C148 O140 1.315 . S
C148 O143 1.279 . S
C149 O150 1.315 . S
C149 O151 1.279 . S
O150 Cd142 2.223 . S
O150 C149 1.315 . S
O151 Cd141 2.240 . S
O151 C149 1.279 . S
O152 Cd142 2.297 1_565 S
O152 C147 1.247 . S
O153 Cd142 2.439 1_565 S
O153 C147 1.208 . S
O154 Cd155 2.223 . S
O154 C162 1.315 . S
Cd155 O154 2.223 . S
Cd155 O158 2.297 . S
Cd155 O159 2.439 . S
Cd155 O165 2.240 . S
Cd156 O157 2.240 . S
Cd156 O164 2.223 . S
Cd156 O166 2.297 1_655 S
Cd156 O167 2.439 1_655 S
O157 Cd156 2.240 . S
O157 C162 1.279 . S
O158 Cd155 2.297 . S
O158 C160 1.247 . S
O159 Cd155 2.439 . S
O159 C160 1.208 . S
C160 O158 1.247 . S
C160 O159 1.208 . S
C161 O166 1.247 . S
C161 O167 1.208 . S
C162 O154 1.315 . S
C162 O157 1.279 . S
C163 O164 1.315 . S
C163 O165 1.279 . S
O164 Cd156 2.223 . S
O164 C163 1.315 . S
O165 Cd155 2.240 . S
O165 C163 1.279 . S
O166 Cd156 2.297 1_455 S
O166 C161 1.247 . S
O167 Cd156 2.439 1_455 S
O167 C161 1.208 . S
O168 Cd169 2.223 . S
O168 C176 1.315 . S
Cd169 O168 2.223 . S
Cd169 O172 2.297 . S
Cd169 O173 2.439 . S
Cd169 O179 2.240 . S
Cd170 O171 2.240 . S
Cd170 O178 2.223 . S
Cd170 O180 2.297 . S
Cd170 O181 2.439 . S
O171 Cd170 2.240 . S
O171 C176 1.279 . S
O172 Cd169 2.297 . S
O172 C174 1.247 . S
O173 Cd169 2.439 . S
O173 C174 1.208 . S
C174 O172 1.247 . S
C174 O173 1.208 . S
C175 O180 1.247 . S
C175 O181 1.208 . S
C176 O168 1.315 . S
C176 O171 1.279 . S
C177 O178 1.315 . S
C177 O179 1.279 . S
O178 Cd170 2.223 . S
O178 C177 1.315 . S
O179 Cd169 2.240 . S
O179 C177 1.279 . S
O180 Cd170 2.297 . S
O180 C175 1.247 . S
O181 Cd170 2.439 . S
O181 C175 1.208 . S
O182 Cd183 2.223 . S
O182 C190 1.315 . S
Cd183 O182 2.223 . S
Cd183 O186 2.297 . S
Cd183 O187 2.439 . S
Cd183 O193 2.240 . S
Cd184 O185 2.240 . S
Cd184 O192 2.223 . S
Cd184 O194 2.297 1_565 S
Cd184 O195 2.439 1_565 S
O185 Cd184 2.240 . S
O185 C190 1.279 . S
O186 Cd183 2.297 . S
O186 C188 1.247 . S
O187 Cd183 2.439 . S
O187 C188 1.208 . S
C188 O186 1.247 . S
C188 O187 1.208 . S
C189 O194 1.247 . S
C189 O195 1.208 . S
C190 O182 1.315 . S
C190 O185 1.279 . S
C191 O192 1.315 . S
C191 O193 1.279 . S
O192 Cd184 2.223 . S
O192 C191 1.315 . S
O193 Cd183 2.240 . S
O193 C191 1.279 . S
O194 Cd184 2.297 1_545 S
O194 C189 1.247 . S
O195 Cd184 2.439 1_545 S
O195 C189 1.208 . S
O196 Cd197 2.223 . S
O196 C204 1.315 . S
Cd197 O196 2.223 . S
Cd197 O200 2.297 . S
Cd197 O201 2.439 . S
Cd197 O207 2.240 . S
Cd198 O199 2.240 . S
Cd198 O206 2.223 . S
Cd198 O208 2.297 1_455 S
Cd198 O209 2.439 1_455 S
O199 Cd198 2.240 . S
O199 C204 1.279 . S
O200 Cd197 2.297 . S
O200 C202 1.247 . S
O201 Cd197 2.439 . S
O201 C202 1.208 . S
C202 O200 1.247 . S
C202 O201 1.208 . S
C203 O208 1.247 . S
C203 O209 1.208 . S
C204 O196 1.315 . S
C204 O199 1.279 . S
C205 O206 1.315 . S
C205 O207 1.279 . S
O206 Cd198 2.223 . S
O206 C205 1.315 . S
O207 Cd197 2.240 . S
O207 C205 1.279 . S
O208 Cd198 2.297 1_655 S
O208 C203 1.247 . S
O209 Cd198 2.439 1_655 S
O209 C203 1.208 . S
O210 Cd211 2.223 . S
O210 C218 1.315 . S
Cd211 O210 2.223 . S
Cd211 O214 2.297 . S
Cd211 O215 2.439 1_455 S
Cd211 O221 2.240 . S
Cd212 O213 2.240 . S
Cd212 O220 2.223 1_655 S
Cd212 O222 2.297 . S
Cd212 O223 2.439 . S
O213 Cd212 2.240 . S
O213 C218 1.279 1_655 S
O214 Cd211 2.297 . S
O214 C216 1.247 1_455 S
O215 Cd211 2.439 1_655 S
O215 C216 1.208 . S
C216 O214 1.247 1_655 S
C216 O215 1.208 . S
C217 O222 1.247 . S
C217 O223 1.208 . S
C218 O210 1.315 . S
C218 O213 1.279 1_455 S
C219 O220 1.315 . S
C219 O221 1.279 . S
O220 Cd212 2.223 1_455 S
O220 C219 1.315 . S
O221 Cd211 2.240 . S
O221 C219 1.279 . S
O222 Cd212 2.297 . S
O222 C217 1.247 . S
O223 Cd212 2.439 . S
O223 C217 1.208 . S
O224 Cd225 2.223 . S
O224 C232 1.315 . S
Cd225 O224 2.223 . S
Cd225 O228 2.297 . S
Cd225 O229 2.439 . S
Cd225 O235 2.240 . S
Cd226 O227 2.240 . S
Cd226 O234 2.223 . S
Cd226 O236 2.297 . S
Cd226 O237 2.439 . S
O227 Cd226 2.240 . S
O227 C232 1.279 . S
O228 Cd225 2.297 . S
O228 C230 1.247 . S
O229 Cd225 2.439 . S
O229 C230 1.208 . S
C230 O228 1.247 . S
C230 O229 1.208 . S
C231 O236 1.247 . S
C231 O237 1.208 . S
C232 O224 1.315 . S
C232 O227 1.279 . S
C233 O234 1.315 . S
C233 O235 1.279 . S
O234 Cd226 2.223 . S
O234 C233 1.315 . S
O235 Cd225 2.240 . S
O235 C233 1.279 . S
O236 Cd226 2.297 . S
O236 C231 1.247 . S
O237 Cd226 2.439 . S
O237 C231 1.208 . S
O238 Cd239 2.223 . S
O238 C246 1.315 . S
Cd239 O238 2.223 . S
Cd239 O242 2.297 . S
Cd239 O243 2.439 1_565 S
Cd239 O249 2.240 . S
Cd240 O241 2.240 . S
Cd240 O248 2.223 1_545 S
Cd240 O250 2.297 . S
Cd240 O251 2.439 . S
O241 Cd240 2.240 . S
O241 C246 1.279 1_545 S
O242 Cd239 2.297 . S
O242 C244 1.247 1_565 S
O243 Cd239 2.439 1_545 S
O243 C244 1.208 . S
C244 O242 1.247 1_545 S
C244 O243 1.208 . S
C245 O250 1.247 . S
C245 O251 1.208 . S
C246 O238 1.315 . S
C246 O241 1.279 1_565 S
C247 O248 1.315 . S
C247 O249 1.279 . S
O248 Cd240 2.223 1_565 S
O248 C247 1.315 . S
O249 Cd239 2.240 . S
O249 C247 1.279 . S
O250 Cd240 2.297 . S
O250 C245 1.247 . S
O251 Cd240 2.439 . S
O251 C245 1.208 . S
C252 C253 1.369 . S
C252 C254 1.419 . S
C252 H256 0.930 . S
C253 C252 1.369 . S
C253 C262 1.429 1_544 S
C254 C252 1.419 . S
C254 C255 1.363 1_544 S
C254 H257 0.929 . S
C255 C254 1.363 1_566 S
C255 C261 1.428 . S
H256 C252 0.930 . S
H257 C254 0.929 . S
S258 N259 1.613 . S
S258 N260 1.610 . S
N259 S258 1.613 . S
N259 C262 1.350 . S
N260 S258 1.610 . S
N260 C261 1.351 . S
C261 C255 1.428 . S
C261 N260 1.351 . S
C261 C262 1.434 . S
C262 C253 1.429 1_566 S
C262 N259 1.350 . S
C262 C261 1.434 . S
C263 C264 1.369 . S
C263 C265 1.419 1_554 S
C263 H267 0.930 . S
C264 C263 1.369 . S
C264 C273 1.429 1_655 S
C265 C263 1.419 1_556 S
C265 C266 1.363 1_655 S
C265 H268 0.929 . S
C266 C265 1.363 1_455 S
C266 C272 1.428 . S
H267 C263 0.930 . S
H268 C265 0.929 . S
S269 N270 1.613 . S
S269 N271 1.610 1_554 S
N270 S269 1.613 . S
N270 C273 1.350 . S
N271 S269 1.610 1_556 S
N271 C272 1.351 . S
C272 C266 1.428 . S
C272 N271 1.351 . S
C272 C273 1.434 1_556 S
C273 C264 1.429 1_455 S
C273 N270 1.350 . S
C273 C272 1.434 1_554 S
C274 C275 1.369 . S
C274 C276 1.419 1_556 S
C274 H278 0.930 . S
C275 C274 1.369 . S
C275 C284 1.429 . S
C276 C274 1.419 1_554 S
C276 C277 1.363 . S
C276 H279 0.929 . S
C277 C276 1.363 . S
C277 C283 1.428 . S
H278 C274 0.930 . S
H279 C276 0.929 . S
S280 N281 1.613 . S
S280 N282 1.610 1_556 S
N281 S280 1.613 . S
N281 C284 1.350 . S
N282 S280 1.610 1_554 S
N282 C283 1.351 . S
C283 C277 1.428 . S
C283 N282 1.351 . S
C283 C284 1.434 1_554 S
C284 C275 1.429 . S
C284 N281 1.350 . S
C284 C283 1.434 1_556 S
C285 C286 1.369 . S
C285 C287 1.419 . S
C285 H289 0.930 . S
C286 C285 1.369 . S
C286 C295 1.429 . S
C287 C285 1.419 . S
C287 C288 1.363 . S
C287 H290 0.929 . S
C288 C287 1.363 . S
C288 C294 1.428 . S
H289 C285 0.930 . S
H290 C287 0.929 . S
S291 N292 1.613 . S
S291 N293 1.610 . S
N292 S291 1.613 . S
N292 C295 1.350 . S
N293 S291 1.610 . S
N293 C294 1.351 . S
C294 C288 1.428 . S
C294 N293 1.351 . S
C294 C295 1.434 . S
C295 C286 1.429 . S
C295 N292 1.350 . S
C295 C294 1.434 . S
C296 C297 1.369 . S
C296 C298 1.419 . S
C296 H300 0.930 . S
C297 C296 1.369 . S
C297 C306 1.429 . S
C298 C296 1.419 . S
C298 C299 1.363 . S
C298 H301 0.929 . S
C299 C298 1.363 . S
C299 C305 1.428 . S
H300 C296 0.930 . S
H301 C298 0.929 . S
S302 N303 1.613 . S
S302 N304 1.610 . S
N303 S302 1.613 . S
N303 C306 1.350 . S
N304 S302 1.610 . S
N304 C305 1.351 . S
C305 C299 1.428 . S
C305 N304 1.351 . S
C305 C306 1.434 . S
C306 C297 1.429 . S
C306 N303 1.350 . S
C306 C305 1.434 . S
C307 C308 1.369 . S
C307 C309 1.419 . S
C307 H311 0.930 . S
C308 C307 1.369 . S
C308 C317 1.429 . S
C309 C307 1.419 . S
C309 C310 1.363 . S
C309 H312 0.929 . S
C310 C309 1.363 . S
C310 C316 1.428 . S
H311 C307 0.930 . S
H312 C309 0.929 . S
S313 N314 1.613 . S
S313 N315 1.610 . S
N314 S313 1.613 . S
N314 C317 1.350 . S
N315 S313 1.610 . S
N315 C316 1.351 . S
C316 C310 1.428 . S
C316 N315 1.351 . S
C316 C317 1.434 . S
C317 C308 1.429 . S
C317 N314 1.350 . S
C317 C316 1.434 . S
C318 C319 1.369 . S
C318 C320 1.419 . S
C318 H322 0.930 . S
C319 C318 1.369 . S
C319 C328 1.429 . S
C320 C318 1.419 . S
C320 C321 1.363 . S
C320 H323 0.929 . S
C321 C320 1.363 . S
C321 C327 1.428 . S
H322 C318 0.930 . S
H323 C320 0.929 . S
S324 N325 1.613 . S
S324 N326 1.610 . S
N325 S324 1.613 . S
N325 C328 1.350 . S
N326 S324 1.610 . S
N326 C327 1.351 . S
C327 C321 1.428 . S
C327 N326 1.351 . S
C327 C328 1.434 . S
C328 C319 1.429 . S
C328 N325 1.350 . S
C328 C327 1.434 . S
C329 C330 1.369 . S
C329 C331 1.419 . S
C329 H333 0.930 . S
C330 C329 1.369 . S
C330 C339 1.429 . S
C331 C329 1.419 . S
C331 C332 1.363 . S
C331 H334 0.929 . S
C332 C331 1.363 . S
C332 C338 1.428 . S
H333 C329 0.930 . S
H334 C331 0.929 . S
S335 N336 1.613 . S
S335 N337 1.610 . S
N336 S335 1.613 . S
N336 C339 1.350 . S
N337 S335 1.610 . S
N337 C338 1.351 . S
C338 C332 1.428 . S
C338 N337 1.351 . S
C338 C339 1.434 . S
C339 C330 1.429 . S
C339 N336 1.350 . S
C339 C338 1.434 . S
C340 C341 1.369 . S
C340 C342 1.419 . S
C340 H344 0.930 . S
C341 C340 1.369 . S
C341 C350 1.429 . S
C342 C340 1.419 . S
C342 C343 1.363 . S
C342 H345 0.929 . S
C343 C342 1.363 . S
C343 C349 1.428 . S
H344 C340 0.930 . S
H345 C342 0.929 . S
S346 N347 1.613 . S
S346 N348 1.610 . S
N347 S346 1.613 . S
N347 C350 1.350 . S
N348 S346 1.610 . S
N348 C349 1.351 . S
C349 C343 1.428 . S
C349 N348 1.351 . S
C349 C350 1.434 . S
C350 C341 1.429 . S
C350 N347 1.350 . S
C350 C349 1.434 . S
C351 C352 1.369 . S
C351 C353 1.419 . S
C351 H355 0.930 . S
C352 C351 1.369 . S
C352 C361 1.429 . S
C353 C351 1.419 . S
C353 C354 1.363 . S
C353 H356 0.929 . S
C354 C353 1.363 . S
C354 C360 1.428 . S
H355 C351 0.930 . S
H356 C353 0.929 . S
S357 N358 1.613 . S
S357 N359 1.610 . S
N358 S357 1.613 . S
N358 C361 1.350 . S
N359 S357 1.610 . S
N359 C360 1.351 . S
C360 C354 1.428 . S
C360 N359 1.351 . S
C360 C361 1.434 . S
C361 C352 1.429 . S
C361 N358 1.350 . S
C361 C360 1.434 . S
C362 C363 1.369 . S
C362 C364 1.419 . S
C362 H366 0.930 . S
C363 C362 1.369 . S
C363 C372 1.429 . S
C364 C362 1.419 . S
C364 C365 1.363 . S
C364 H367 0.929 . S
C365 C364 1.363 . S
C365 C371 1.428 . S
H366 C362 0.930 . S
H367 C364 0.929 . S
S368 N369 1.613 . S
S368 N370 1.610 . S
N369 S368 1.613 . S
N369 C372 1.350 . S
N370 S368 1.610 . S
N370 C371 1.351 . S
C371 C365 1.428 . S
C371 N370 1.351 . S
C371 C372 1.434 . S
C372 C363 1.429 . S
C372 N369 1.350 . S
C372 C371 1.434 . S
C373 C374 1.369 . S
C373 C375 1.419 . S
C373 H377 0.930 . S
C374 C373 1.369 . S
C374 C383 1.429 . S
C375 C373 1.419 . S
C375 C376 1.363 . S
C375 H378 0.929 . S
C376 C375 1.363 . S
C376 C382 1.428 . S
H377 C373 0.930 . S
H378 C375 0.929 . S
S379 N380 1.613 . S
S379 N381 1.610 . S
N380 S379 1.613 . S
N380 C383 1.350 . S
N381 S379 1.610 . S
N381 C382 1.351 . S
C382 C376 1.428 . S
C382 N381 1.351 . S
C382 C383 1.434 . S
C383 C374 1.429 . S
C383 N380 1.350 . S
C383 C382 1.434 . S
C384 C385 1.369 . S
C384 C386 1.419 . S
C384 H388 0.930 . S
C385 C384 1.369 . S
C385 C394 1.429 . S
C386 C384 1.419 . S
C386 C387 1.363 . S
C386 H389 0.929 . S
C387 C386 1.363 . S
C387 C393 1.428 . S
H388 C384 0.930 . S
H389 C386 0.929 . S
S390 N391 1.613 . S
S390 N392 1.610 . S
N391 S390 1.613 . S
N391 C394 1.350 . S
N392 S390 1.610 . S
N392 C393 1.351 . S
C393 C387 1.428 . S
C393 N392 1.351 . S
C393 C394 1.434 . S
C394 C385 1.429 . S
C394 N391 1.350 . S
C394 C393 1.434 . S
C395 C396 1.369 . S
C395 C397 1.419 . S
C395 H399 0.930 . S
C396 C395 1.369 . S
C396 C405 1.429 . S
C397 C395 1.419 . S
C397 C398 1.363 . S
C397 H400 0.929 . S
C398 C397 1.363 . S
C398 C404 1.428 . S
H399 C395 0.930 . S
H400 C397 0.929 . S
S401 N402 1.613 . S
S401 N403 1.610 . S
N402 S401 1.613 . S
N402 C405 1.350 . S
N403 S401 1.610 . S
N403 C404 1.351 . S
C404 C398 1.428 . S
C404 N403 1.351 . S
C404 C405 1.434 . S
C405 C396 1.429 . S
C405 N402 1.350 . S
C405 C404 1.434 . S
C406 C407 1.369 . S
C406 C408 1.419 . S
C406 H410 0.930 . S
C407 C406 1.369 . S
C407 C416 1.429 . S
C408 C406 1.419 . S
C408 C409 1.363 . S
C408 H411 0.929 . S
C409 C408 1.363 . S
C409 C415 1.428 . S
H410 C406 0.930 . S
H411 C408 0.929 . S
S412 N413 1.613 . S
S412 N414 1.610 . S
N413 S412 1.613 . S
N413 C416 1.350 . S
N414 S412 1.610 . S
N414 C415 1.351 . S
C415 C409 1.428 . S
C415 N414 1.351 . S
C415 C416 1.434 . S
C416 C407 1.429 . S
C416 N413 1.350 . S
C416 C415 1.434 . S
C417 C418 1.369 1_655 S
C417 C419 1.419 . S
C417 H421 0.930 . S
C418 C417 1.369 1_455 S
C418 C427 1.429 . S
C419 C417 1.419 . S
C419 C420 1.363 . S
C419 H422 0.929 . S
C420 C419 1.363 . S
C420 C426 1.428 1_655 S
H421 C417 0.930 . S
H422 C419 0.929 . S
S423 N424 1.613 . S
S423 N425 1.610 . S
N424 S423 1.613 . S
N424 C427 1.350 . S
N425 S423 1.610 . S
N425 C426 1.351 . S
C426 C420 1.428 1_455 S
C426 N425 1.351 . S
C426 C427 1.434 . S
C427 C418 1.429 . S
C427 N424 1.350 . S
C427 C426 1.434 . S
C428 C429 1.369 . S
C428 C430 1.419 . S
C428 H432 0.930 . S
C429 C428 1.369 . S
C429 C438 1.429 . S
C430 C428 1.419 . S
C430 C431 1.363 . S
C430 H433 0.929 . S
C431 C430 1.363 . S
C431 C437 1.428 . S
H432 C428 0.930 . S
H433 C430 0.929 . S
S434 N435 1.613 . S
S434 N436 1.610 . S
N435 S434 1.613 . S
N435 C438 1.350 . S
N436 S434 1.610 . S
N436 C437 1.351 . S
C437 C431 1.428 . S
C437 N436 1.351 . S
C437 C438 1.434 . S
C438 C429 1.429 . S
C438 N435 1.350 . S
C438 C437 1.434 . S
C439 C440 1.369 1_565 S
C439 C441 1.419 . S
C439 H443 0.930 . S
C440 C439 1.369 1_545 S
C440 C449 1.429 . S
C441 C439 1.419 . S
C441 C442 1.363 . S
C441 H444 0.929 . S
C442 C441 1.363 . S
C442 C448 1.428 1_565 S
H443 C439 0.930 . S
H444 C441 0.929 . S
S445 N446 1.613 . S
S445 N447 1.610 . S
N446 S445 1.613 . S
N446 C449 1.350 . S
N447 S445 1.610 . S
N447 C448 1.351 . S
C448 C442 1.428 1_545 S
C448 N447 1.351 . S
C448 C449 1.434 . S
C449 C440 1.429 . S
C449 N446 1.350 . S
C449 C448 1.434 . S
C450 C451 1.369 1_556 S
C450 C452 1.419 . S
C450 H454 0.930 . S
C451 C450 1.369 1_554 S
C451 C460 1.429 . S
C452 C450 1.419 . S
C452 C453 1.363 . S
C452 H455 0.929 . S
C453 C452 1.363 . S
C453 C459 1.428 1_556 S
H454 C450 0.930 . S
H455 C452 0.929 . S
S456 N457 1.613 . S
S456 N458 1.610 . S
N457 S456 1.613 . S
N457 C460 1.350 . S
N458 S456 1.610 . S
N458 C459 1.351 . S
C459 C453 1.428 1_554 S
C459 N458 1.351 . S
C459 C460 1.434 . S
C460 C451 1.429 . S
C460 N457 1.350 . S
C460 C459 1.434 . S
C461 C462 1.369 1_556 S
C461 C463 1.419 . S
C461 H465 0.930 . S
C462 C461 1.369 1_554 S
C462 C471 1.429 . S
C463 C461 1.419 . S
C463 C464 1.363 . S
C463 H466 0.929 . S
C464 C463 1.363 . S
C464 C470 1.428 1_556 S
H465 C461 0.930 . S
H466 C463 0.929 . S
S467 N468 1.613 . S
S467 N469 1.610 . S
N468 S467 1.613 . S
N468 C471 1.350 . S
N469 S467 1.610 . S
N469 C470 1.351 . S
C470 C464 1.428 1_554 S
C470 N469 1.351 . S
C470 C471 1.434 . S
C471 C462 1.429 . S
C471 N468 1.350 . S
C471 C470 1.434 . S
C472 C473 1.369 . S
C472 C474 1.427 . S
C472 H476 0.930 . S
C473 C472 1.369 . S
C473 C482 1.429 1_554 S
C474 C472 1.427 . S
C474 C475 1.354 1_554 S
C474 H477 0.931 . S
C475 C474 1.354 1_556 S
C475 C481 1.428 . S
H476 C472 0.930 . S
H477 C474 0.931 . S
S478 N479 1.613 . S
S478 N480 1.610 . S
N479 S478 1.613 . S
N479 C482 1.350 . S
N480 S478 1.610 . S
N480 C481 1.351 . S
C481 C475 1.428 . S
C481 N480 1.351 . S
C481 C482 1.434 . S
C482 C473 1.429 1_556 S
C482 N479 1.350 . S
C482 C481 1.434 . S
C483 C484 1.369 1_554 S
C483 C485 1.419 . S
C483 H487 0.930 . S
C484 C483 1.369 1_556 S
C484 C493 1.429 . S
C485 C483 1.419 . S
C485 C486 1.363 . S
C485 H488 0.929 . S
C486 C485 1.363 . S
C486 C492 1.426 1_554 S
H487 C483 0.930 . S
H488 C485 0.929 . S
S489 N490 1.613 . S
S489 N491 1.610 . S
N490 S489 1.613 . S
N490 C493 1.350 . S
N491 S489 1.610 . S
N491 C492 1.351 . S
C492 C486 1.426 1_556 S
C492 N491 1.351 . S
C492 C493 1.436 . S
C493 C484 1.429 . S
C493 N490 1.350 . S
C493 C492 1.436 . S
C494 C495 1.369 . S
C494 C496 1.419 . S
C494 H498 0.930 . S
C495 C494 1.369 . S
C495 C504 1.429 1_554 S
C496 C494 1.419 . S
C496 C497 1.363 1_554 S
C496 H499 0.929 . S
C497 C496 1.363 1_556 S
C497 C503 1.428 . S
H498 C494 0.930 . S
H499 C496 0.929 . S
S500 N501 1.613 . S
S500 N502 1.610 . S
N501 S500 1.613 . S
N501 C504 1.350 . S
N502 S500 1.610 . S
N502 C503 1.351 . S
C503 C497 1.428 . S
C503 N502 1.351 . S
C503 C504 1.434 . S
C504 C495 1.429 1_556 S
C504 N501 1.350 . S
C504 C503 1.434 . S
C505 C506 1.369 . S
C505 C507 1.419 . S
C505 H509 0.930 . S
C506 C505 1.369 . S
C506 C515 1.429 1_556 S
C507 C505 1.419 . S
C507 C508 1.363 1_556 S
C507 H510 0.929 . S
C508 C507 1.363 1_554 S
C508 C514 1.428 . S
H509 C505 0.930 . S
H510 C507 0.929 . S
S511 N512 1.613 . S
S511 N513 1.610 . S
N512 S511 1.613 . S
N512 C515 1.350 . S
N513 S511 1.610 . S
N513 C514 1.351 . S
C514 C508 1.428 . S
C514 N513 1.351 . S
C514 C515 1.434 . S
C515 C506 1.429 1_554 S
C515 N512 1.350 . S
C515 C514 1.434 . S
C516 C517 1.369 . S
C516 C518 1.419 . S
C516 H520 0.930 . S
C517 C516 1.369 . S
C517 C526 1.429 . S
C518 C516 1.419 . S
C518 C519 1.363 . S
C518 H521 0.929 . S
C519 C518 1.363 . S
C519 C525 1.428 . S
H520 C516 0.930 . S
H521 C518 0.929 . S
S522 N523 1.613 . S
S522 N524 1.610 . S
N523 S522 1.613 . S
N523 C526 1.350 . S
N524 S522 1.610 . S
N524 C525 1.351 . S
C525 C519 1.428 . S
C525 N524 1.351 . S
C525 C526 1.434 . S
C526 C517 1.429 . S
C526 N523 1.350 . S
C526 C525 1.434 . S
C527 C528 1.369 . S
C527 C529 1.419 . S
C527 H531 0.930 . S
C528 C527 1.369 . S
C528 C537 1.429 . S
C529 C527 1.419 . S
C529 C530 1.363 . S
C529 H532 0.929 . S
C530 C529 1.363 . S
C530 C536 1.428 . S
H531 C527 0.930 . S
H532 C529 0.929 . S
S533 N534 1.613 . S
S533 N535 1.610 . S
N534 S533 1.613 . S
N534 C537 1.350 . S
N535 S533 1.610 . S
N535 C536 1.351 . S
C536 C530 1.428 . S
C536 N535 1.351 . S
C536 C537 1.434 . S
C537 C528 1.429 . S
C537 N534 1.350 . S
C537 C536 1.434 . S
C538 C539 1.369 . S
C538 C540 1.419 . S
C538 H542 0.930 . S
C539 C538 1.369 . S
C539 C548 1.429 . S
C540 C538 1.419 . S
C540 C541 1.363 . S
C540 H543 0.929 . S
C541 C540 1.363 . S
C541 C547 1.428 . S
H542 C538 0.930 . S
H543 C540 0.929 . S
S544 N545 1.613 . S
S544 N546 1.610 . S
N545 S544 1.613 . S
N545 C548 1.350 . S
N546 S544 1.610 . S
N546 C547 1.351 . S
C547 C541 1.428 . S
C547 N546 1.351 . S
C547 C548 1.434 . S
C548 C539 1.429 . S
C548 N545 1.350 . S
C548 C547 1.434 . S
C549 C550 1.369 . S
C549 C551 1.419 . S
C549 H553 0.930 . S
C550 C549 1.369 . S
C550 C559 1.429 . S
C551 C549 1.419 . S
C551 C552 1.363 . S
C551 H554 0.929 . S
C552 C551 1.363 . S
C552 C558 1.428 . S
H553 C549 0.930 . S
H554 C551 0.929 . S
S555 N556 1.613 . S
S555 N557 1.610 . S
N556 S555 1.613 . S
N556 C559 1.350 . S
N557 S555 1.610 . S
N557 C558 1.351 . S
C558 C552 1.428 . S
C558 N557 1.351 . S
C558 C559 1.434 . S
C559 C550 1.429 . S
C559 N556 1.350 . S
C559 C558 1.434 . S
C560 C561 1.369 . S
C560 C562 1.419 . S
C560 H564 0.930 . S
C561 C560 1.369 . S
C561 C570 1.429 . S
C562 C560 1.419 . S
C562 C563 1.363 . S
C562 H565 0.929 . S
C563 C562 1.363 . S
C563 C569 1.428 . S
H564 C560 0.930 . S
H565 C562 0.929 . S
S566 N567 1.613 1_565 S
S566 N568 1.613 . S
N567 S566 1.613 1_545 S
N567 C570 1.350 . S
N568 S566 1.613 . S
N568 C569 1.350 1_565 S
C569 C563 1.428 . S
C569 N568 1.350 1_545 S
C569 C570 1.434 . S
C570 C561 1.429 . S
C570 N567 1.350 . S
C570 C569 1.434 . S
C571 C572 1.369 . S
C571 C573 1.419 . S
C571 H575 0.930 1_655 S
C572 C571 1.369 . S
C572 C581 1.429 . S
C573 C571 1.419 . S
C573 C574 1.363 . S
C573 H576 0.929 1_655 S
C574 C573 1.363 . S
C574 C580 1.428 . S
H575 C571 0.930 1_455 S
H576 C573 0.929 1_455 S
S577 N578 1.613 . S
S577 N579 1.610 . S
N578 S577 1.613 . S
N578 C581 1.350 . S
N579 S577 1.610 . S
N579 C580 1.351 . S
C580 C574 1.428 . S
C580 N579 1.351 . S
C580 C581 1.434 . S
C581 C572 1.429 . S
C581 N578 1.350 . S
C581 C580 1.434 . S
C582 C583 1.369 . S
C582 C584 1.419 . S
C582 H586 0.930 . S
C583 C582 1.369 . S
C583 C592 1.429 . S
C584 C582 1.419 . S
C584 C585 1.363 . S
C584 H587 0.929 . S
C585 C584 1.363 . S
C585 C591 1.428 . S
H586 C582 0.930 . S
H587 C584 0.929 . S
S588 N589 1.613 . S
S588 N590 1.610 . S
N589 S588 1.613 . S
N589 C592 1.350 . S
N590 S588 1.610 . S
N590 C591 1.351 . S
C591 C585 1.428 . S
C591 N590 1.351 . S
C591 C592 1.434 . S
C592 C583 1.429 . S
C592 N589 1.350 . S
C592 C591 1.434 . S
C593 C594 1.369 . S
C593 C595 1.419 . S
C593 H597 0.930 . S
C594 C593 1.369 . S
C594 C603 1.429 . S
C595 C593 1.419 . S
C595 C596 1.363 . S
C595 H598 0.929 . S
C596 C595 1.363 . S
C596 C602 1.428 . S
H597 C593 0.930 . S
H598 C595 0.929 . S
S599 N600 1.613 1_545 S
S599 N601 1.610 1_545 S
N600 S599 1.613 1_565 S
N600 C603 1.350 . S
N601 S599 1.610 1_565 S
N601 C602 1.351 . S
C602 C596 1.428 . S
C602 N601 1.351 . S
C602 C603 1.434 . S
C603 C594 1.429 . S
C603 N600 1.350 . S
C603 C602 1.434 . S
C604 C605 1.369 . S
C604 C606 1.419 . S
C604 H608 0.930 . S
C605 C604 1.369 . S
C605 C614 1.429 . S
C606 C604 1.419 . S
C606 C607 1.363 . S
C606 H609 0.929 . S
C607 C606 1.363 . S
C607 C613 1.428 . S
H608 C604 0.930 . S
H609 C606 0.929 . S
S610 N611 1.613 . S
S610 N612 1.610 . S
N611 S610 1.613 . S
N611 C614 1.350 . S
N612 S610 1.610 . S
N612 C613 1.351 . S
C613 C607 1.428 . S
C613 N612 1.351 . S
C613 C614 1.434 . S
C614 C605 1.429 . S
C614 N611 1.350 . S
C614 C613 1.434 . S
C615 C616 1.369 . S
C615 C617 1.419 . S
C615 H619 0.930 . S
C616 C615 1.369 . S
C616 C625 1.429 . S
C617 C615 1.419 . S
C617 C618 1.363 . S
C617 H620 0.929 . S
C618 C617 1.363 . S
C618 C624 1.428 . S
H619 C615 0.930 . S
H620 C617 0.929 . S
S621 N622 1.613 . S
S621 N623 1.610 . S
N622 S621 1.613 . S
N622 C625 1.350 . S
N623 S621 1.610 . S
N623 C624 1.351 . S
C624 C618 1.428 . S
C624 N623 1.351 . S
C624 C625 1.434 . S
C625 C616 1.429 . S
C625 N622 1.350 . S
C625 C624 1.434 . S
C626 C627 1.369 . S
C626 C628 1.419 . S
C626 H630 0.930 . S
C627 C626 1.369 . S
C627 C636 1.429 . S
C628 C626 1.419 . S
C628 C629 1.363 . S
C628 H631 0.929 . S
C629 C628 1.363 . S
C629 C635 1.428 . S
H630 C626 0.930 . S
H631 C628 0.929 . S
S632 N633 1.613 . S
S632 N634 1.610 . S
N633 S632 1.613 . S
N633 C636 1.350 . S
N634 S632 1.610 . S
N634 C635 1.351 . S
C635 C629 1.428 . S
C635 N634 1.351 . S
C635 C636 1.434 . S
C636 C627 1.429 . S
C636 N633 1.350 . S
C636 C635 1.434 . S
C637 C638 1.369 . S
C637 C639 1.419 . S
C637 H641 0.930 . S
C638 C637 1.369 . S
C638 C647 1.429 . S
C639 C637 1.419 . S
C639 C640 1.363 . S
C639 H642 0.929 . S
C640 C639 1.363 . S
C640 C646 1.428 . S
H641 C637 0.930 . S
H642 C639 0.929 . S
S643 N644 1.613 . S
S643 N645 1.610 . S
N644 S643 1.613 . S
N644 C647 1.350 . S
N645 S643 1.610 . S
N645 C646 1.351 . S
C646 C640 1.428 . S
C646 N645 1.351 . S
C646 C647 1.434 . S
C647 C638 1.429 . S
C647 N644 1.350 . S
C647 C646 1.434 . S
C253 C7 1.767 . S
C255 C49 1.771 . S
C264 C21 1.784 . S
C266 C63 1.777 . S
C275 C77 1.773 . S
C277 C35 1.771 . S
C286 C91 1.746 . S
C288 C133 1.745 . S
C297 C105 1.772 . S
C299 C147 1.775 . S
C308 C161 1.732 . S
C310 C119 1.734 . S
C319 C217 1.741 . S
C321 C175 1.749 . S
C330 C231 1.779 . S
C332 C189 1.769 . S
C341 C245 1.738 . S
C343 C203 1.729 . S
C352 C6 1.466 . S
C354 C132 1.467 . S
C363 C20 1.473 . S
C365 C146 1.472 . S
C374 C160 1.478 . S
C376 C34 1.485 . S
C385 C48 1.463 . S
C387 C174 1.469 . S
C396 C62 1.467 . S
C398 C188 1.476 . S
C407 C76 1.476 . S
C409 C202 1.487 . S
C418 C90 1.498 . S
C420 C216 1.489 . S
C429 C104 1.474 . S
C431 C230 1.483 . S
C440 C244 1.474 . S
C442 C118 1.462 . S
C451 C9 1.113 . S
C453 C64 1.102 . S
C462 C23 1.099 . S
C464 C78 1.091 . S
C473 C37 1.104 . S
C475 C50 1.097 . S
C484 C51 1.112 . S
C486 C22 1.100 . S
C495 C36 1.092 . S
C497 C65 1.100 . S
C506 C79 1.104 . S
C508 C8 1.098 . S
C517 C93 1.181 . S
C519 C148 1.163 . S
C528 C162 1.096 . S
C530 C107 1.100 . S
C539 C134 1.153 . S
C541 C121 1.176 . S
C550 C106 1.097 . S
C552 C135 1.108 . S
C561 C149 1.114 . S
C563 C120 1.107 . S
C572 C163 1.062 . S
C574 C92 1.058 . S
C583 C232 1.103 . S
C585 C177 1.112 . S
C594 C246 1.109 . S
C596 C191 1.112 . S
C605 C205 1.062 . S
C607 C218 1.057 . S
C616 C190 1.169 . S
C618 C219 1.184 . S
C627 C204 1.089 . S
C629 C233 1.096 . S
C638 C176 1.159 . S
C640 C247 1.177 . S
