# Generated by pormake.
# Topology vme, (6)-cn, num edge types: 1
# Building blocks:
#     Node 0, Type 0, BuildingBlock: VOLQOD_clean_sbu_1, # of connection points: 6
#     Node 1, Type 0, BuildingBlock: VOLQOD_clean_sbu_1, # of connection points: 6
#     Node 2, Type 0, BuildingBlock: VOLQOD_clean_sbu_1, # of connection points: 6
#     Node 3, Type 0, BuildingBlock: VOLQOD_clean_sbu_1, # of connection points: 6
#     Edge 4, Type (0, 0), BuildingBlock: FUNLAD_clean_linker_0, # of connection points: 2
#     Edge 5, Type (0, 0), BuildingBlock: FUNLAD_clean_linker_0, # of connection points: 2
#     Edge 6, Type (0, 0), BuildingBlock: FUNLAD_clean_linker_0, # of connection points: 2
#     Edge 7, Type (0, 0), BuildingBlock: FUNLAD_clean_linker_0, # of connection points: 2
#     Edge 8, Type (0, 0), BuildingBlock: FUNLAD_clean_linker_0, # of connection points: 2
#     Edge 9, Type (0, 0), BuildingBlock: FUNLAD_clean_linker_0, # of connection points: 2
#     Edge 10, Type (0, 0), BuildingBlock: FUNLAD_clean_linker_0, # of connection points: 2
#     Edge 11, Type (0, 0), BuildingBlock: FUNLAD_clean_linker_0, # of connection points: 2
#     Edge 12, Type (0, 0), BuildingBlock: FUNLAD_clean_linker_0, # of connection points: 2
#     Edge 13, Type (0, 0), BuildingBlock: FUNLAD_clean_linker_0, # of connection points: 2
#     Edge 14, Type (0, 0), BuildingBlock: FUNLAD_clean_linker_0, # of connection points: 2
#     Edge 15, Type (0, 0), BuildingBlock: FUNLAD_clean_linker_0, # of connection points: 2
# Relax obj value: 0.301
# Max RMSD: 0.246
# Mean RMSD: 0.246
data_MOF--net-vme--node1-VOLQOD_clean_sbu_1--edge1-FUNLAD_clean_linker_0
_symmetry_space_group_name_H-M    P1
_symmetry_Int_Tables_number       1
_symmetry_cell_setting            triclinic
loop_
_symmetry_equiv_pos_as_xyz
'x, y, z'
_cell_length_a     30.822718
_cell_length_b     31.317705
_cell_length_c     33.35695
_cell_angle_alpha  89.887609
_cell_angle_beta   114.779
_cell_angle_gamma 90.088214
loop_
_atom_site_label
_atom_site_type_symbol
_atom_site_fract_x
_atom_site_fract_y
_atom_site_fract_z
_atom_type_partial_charge
O0 O 0.10036 0.3895 0.3844 0.0
Zn1 Zn 0.12085 0.36814 0.33863 0.0
O2 O 0.18989 0.36697 0.36212 0.0
Zn3 Zn 0.21257 0.30882 0.36079 0.0
Zn4 Zn 0.21642 0.3892 0.42168 0.0
Zn5 Zn 0.20944 0.4049 0.3272 0.0
O6 O 0.24397 0.30544 0.31723 0.0
O7 O 0.22798 0.37025 0.28694 0.0
O8 O 0.09222 0.30997 0.3203 0.0
O9 O 0.15608 0.26863 0.33796 0.0
O10 O 0.25325 0.28722 0.4237 0.0
O11 O 0.2448 0.34114 0.4632 0.0
O12 O 0.27111 0.42909 0.4324 0.0
O13 O 0.09253 0.41066 0.28925 0.0
O14 O 0.26836 0.43767 0.36543 0.0
O15 O 0.15636 0.44557 0.29174 0.0
C16 C 0.12107 0.41004 0.42034 0.0
C17 C 0.24352 0.33238 0.28811 0.0
C18 C 0.25946 0.30371 0.46078 0.0
C19 C 0.11095 0.27324 0.32313 0.0
C20 C 0.28841 0.44437 0.40684 0.0
C21 C 0.11115 0.44179 0.27742 0.0
O22 O 0.16613 0.41599 0.43752 0.0
O23 O 0.89633 0.89034 0.12451 0.0
Zn24 Zn 0.87157 0.869 0.16756 0.0
O25 O 0.80239 0.86922 0.14093 0.0
Zn26 Zn 0.77724 0.81127 0.13908 0.0
Zn27 Zn 0.77986 0.89424 0.08274 0.0
Zn28 Zn 0.78135 0.90656 0.17488 0.0
O29 O 0.74485 0.80689 0.18226 0.0
O30 O 0.76065 0.87139 0.21311 0.0
O31 O 0.89778 0.81005 0.18558 0.0
O32 O 0.83258 0.76952 0.1614 0.0
O33 O 0.73623 0.79345 0.07439 0.0
O34 O 0.74929 0.8489 0.03896 0.0
O35 O 0.72699 0.93628 0.07095 0.0
O36 O 0.89856 0.91064 0.21786 0.0
O37 O 0.72373 0.94023 0.13587 0.0
O38 O 0.83409 0.94634 0.21227 0.0
C39 C 0.87792 0.91177 0.08887 0.0
C40 C 0.74478 0.83356 0.21136 0.0
C41 C 0.73178 0.81207 0.03864 0.0
C42 C 0.87795 0.77346 0.17941 0.0
C43 C 0.70704 0.94966 0.09506 0.0
C44 C 0.87934 0.94198 0.22858 0.0
O45 O 0.83318 0.91907 0.07018 0.0
O46 O 0.89957 0.6091 0.62621 0.0
Zn47 Zn 0.87421 0.62744 0.66998 0.0
O48 O 0.80479 0.62605 0.64246 0.0
Zn49 Zn 0.77812 0.6833 0.63945 0.0
Zn50 Zn 0.78287 0.60061 0.58465 0.0
Zn51 Zn 0.78381 0.58867 0.67642 0.0
O52 O 0.74583 0.68746 0.68282 0.0
O53 O 0.76322 0.6234 0.71469 0.0
O54 O 0.89918 0.68694 0.69087 0.0
O55 O 0.83261 0.72565 0.66108 0.0
O56 O 0.73681 0.70041 0.57461 0.0
O57 O 0.75129 0.64521 0.54006 0.0
O58 O 0.73088 0.55719 0.57311 0.0
O59 O 0.90124 0.58285 0.71806 0.0
O60 O 0.72665 0.55466 0.63769 0.0
O61 O 0.8361 0.54863 0.7132 0.0
C62 C 0.88178 0.58691 0.59105 0.0
C63 C 0.7466 0.66094 0.71246 0.0
C64 C 0.73293 0.6817 0.53916 0.0
C65 C 0.87789 0.72294 0.68192 0.0
C66 C 0.7107 0.54417 0.59724 0.0
C67 C 0.88141 0.55162 0.7285 0.0
O68 O 0.83742 0.57768 0.57302 0.0
O69 O 0.10366 0.11194 0.88829 0.0
Zn70 Zn 0.12463 0.12953 0.84143 0.0
O71 O 0.19335 0.12537 0.86304 0.0
Zn72 Zn 0.22207 0.18161 0.86768 0.0
Zn73 Zn 0.21731 0.09745 0.91983 0.0
Zn74 Zn 0.20941 0.0899 0.82392 0.0
O75 O 0.25651 0.18561 0.82698 0.0
O76 O 0.2309 0.12664 0.78653 0.0
O77 O 0.10118 0.18978 0.82266 0.0
O78 O 0.16972 0.22542 0.84482 0.0
O79 O 0.26225 0.1976 0.93256 0.0
O80 O 0.25038 0.14036 0.96624 0.0
O81 O 0.26763 0.05445 0.92617 0.0
O82 O 0.09287 0.08569 0.79398 0.0
O83 O 0.2661 0.05296 0.85917 0.0
O84 O 0.15311 0.05282 0.78669 0.0
C85 C 0.12169 0.08586 0.92037 0.0
C86 C 0.25249 0.1625 0.79398 0.0
C87 C 0.26749 0.17758 0.96775 0.0
C88 C 0.12421 0.22472 0.82775 0.0
C89 C 0.28466 0.04161 0.89955 0.0
C90 C 0.10872 0.05597 0.7777 0.0
O91 O 0.16463 0.07289 0.9335 0.0
C92 C 0.89057 0.01655 0.25827 0.0
C93 C 0.91037 0.97688 0.25538 0.0
C94 C 0.92003 0.05191 0.27607 0.0
C95 C 0.9699 0.04824 0.29139 0.0
C96 C 0.98982 0.00791 0.29191 0.0
C97 C 0.96039 0.9726 0.27382 0.0
C98 C 0.00194 0.08597 0.30504 0.0
C99 C 0.98827 0.12469 0.28628 0.0
C100 C 0.02078 0.16206 0.29585 0.0
C101 C 0.0008 0.20312 0.28711 0.0
C102 C 0.02994 0.23919 0.29518 0.0
C103 C 0.07985 0.23495 0.31179 0.0
H104 H 0.08743 0.12663 0.3171 0.0
C105 C 0.09982 0.19377 0.31944 0.0
C106 C 0.07066 0.1577 0.3115 0.0
H107 H 0.1381 0.1893 0.33197 0.0
H108 H 0.85221 0.02087 0.24488 0.0
H109 H 0.90356 0.08221 0.27686 0.0
H110 H 0.02819 0.00412 0.30423 0.0
H111 H 0.97686 0.94239 0.2726 0.0
H112 H 0.03852 0.08075 0.32883 0.0
H113 H 0.95166 0.12944 0.26226 0.0
H114 H 0.96246 0.20739 0.27445 0.0
H115 H 0.01328 0.2704 0.28876 0.0
C116 C 0.09899 0.51685 0.2486 0.0
C117 C 0.07967 0.47683 0.25137 0.0
C118 C 0.06909 0.55199 0.23091 0.0
C119 C 0.01924 0.54776 0.21554 0.0
C120 C -0.00017 0.50717 0.2152 0.0
C121 C 0.0297 0.4721 0.23323 0.0
C122 C 0.98668 0.58511 0.20123 0.0
C123 C -0.00033 0.62399 0.21971 0.0
C124 C 0.96713 0.66146 0.20899 0.0
C125 C 0.98741 0.70232 0.21985 0.0
C126 C 0.9585 0.73855 0.2109 0.0
C127 C 0.90844 0.73477 0.19114 0.0
H128 H 0.89975 0.62662 0.18251 0.0
C129 C 0.88802 0.6938 0.18115 0.0
C130 C 0.91699 0.65751 0.19003 0.0
H131 H 0.84959 0.68968 0.16614 0.0
H132 H 0.13729 0.52155 0.26186 0.0
H133 H 0.08518 0.58253 0.23007 0.0
H134 H 0.96151 0.50293 0.20289 0.0
H135 H 0.01359 0.44162 0.2344 0.0
H136 H 0.95044 0.57947 0.17695 0.0
H137 H 0.03596 0.62885 0.24439 0.0
H138 H 0.02587 0.70634 0.23495 0.0
H139 H 0.97554 0.76956 0.21919 0.0
C140 C 0.03697 0.01104 0.76363 0.0
C141 C 0.07608 0.02075 0.75387 0.0
C142 C 0.0102 0.97402 0.74707 0.0
C143 C 0.02128 0.94642 0.71962 0.0
C144 C 0.05847 0.95724 0.70765 0.0
C145 C 0.08626 0.99377 0.72527 0.0
C146 C 0.99463 0.90598 0.70404 0.0
C147 C 0.98717 0.87929 0.73222 0.0
C148 C 0.96002 0.8389 0.71794 0.0
C149 C 0.97531 0.80255 0.74494 0.0
C150 C 0.94915 0.7645 0.73292 0.0
C151 C 0.9063 0.76269 0.69449 0.0
H152 H 0.90449 0.86474 0.65816 0.0
C153 C 0.89068 0.79929 0.66779 0.0
C154 C 0.91756 0.83692 0.67913 0.0
H155 H 0.85784 0.79871 0.63787 0.0
H156 H 0.02837 0.03096 0.78581 0.0
H157 H 0.98111 0.9667 0.75613 0.0
H158 H 0.06728 0.93651 0.68618 0.0
H159 H 0.11618 0.00046 0.71723 0.0
H160 H 0.98328 0.897 0.66967 0.0
H161 H 0.00309 0.8865 0.76734 0.0
H162 H 0.00773 0.80353 0.77523 0.0
H163 H 0.96188 0.7368 0.75415 0.0
C164 C 0.96044 0.51438 0.76462 0.0
C165 C 0.91113 0.51519 0.75358 0.0
C166 C 0.98688 0.47707 0.7809 0.0
C167 C 0.96446 0.43967 0.7863 0.0
C168 C 0.91609 0.44147 0.77847 0.0
C169 C 0.88961 0.47874 0.76212 0.0
C170 C 0.98973 0.398 0.79858 0.0
C171 C 0.02702 0.38785 0.7893 0.0
C172 C 0.05061 0.3454 0.79872 0.0
C173 C 0.09863 0.34275 0.80559 0.0
C174 C 0.12224 0.30351 0.81439 0.0
C175 C 0.09808 0.2658 0.81579 0.0
H176 H 0.98852 0.30819 0.7926 0.0
C177 C 0.04955 0.26821 0.80761 0.0
C178 C 0.02602 0.30762 0.79924 0.0
H179 H 0.02986 0.23975 0.80831 0.0
H180 H 0.97836 0.54202 0.75904 0.0
H181 H 0.0246 0.4776 0.78848 0.0
H182 H 0.89812 0.41338 0.7831 0.0
H183 H 0.8518 0.4783 0.7544 0.0
H184 H 0.97544 0.37429 0.8136 0.0
H185 H 0.04135 0.41144 0.77421 0.0
H186 H 0.11821 0.37127 0.80477 0.0
H187 H 0.15956 0.30282 0.82026 0.0
C188 C 0.89563 0.54469 0.53377 0.0
C189 C 0.91373 0.57054 0.57164 0.0
C190 C 0.92612 0.52789 0.5165 0.0
C191 C 0.97551 0.53637 0.53695 0.0
C192 C 0.99335 0.56322 0.57393 0.0
C193 C 0.96288 0.57997 0.59128 0.0
C194 C 0.00918 0.51843 0.5201 0.0
C195 C 0.00121 0.48114 0.49816 0.0
C196 C 0.0335 0.46317 0.47978 0.0
C197 C 0.01414 0.43493 0.44407 0.0
C198 C 0.04268 0.41761 0.42505 0.0
C199 C 0.09156 0.42776 0.44167 0.0
H200 H 0.09925 0.49336 0.52552 0.0
C201 C 0.11136 0.45523 0.47818 0.0
C202 C 0.08263 0.4728 0.49711 0.0
H203 H 0.14897 0.46341 0.49199 0.0
H204 H 0.85789 0.53721 0.51749 0.0
H205 H 0.91066 0.50873 0.48688 0.0
H206 H 0.03113 0.57069 0.58994 0.0
H207 H 0.97802 0.60002 0.62032 0.0
H208 H 0.04162 0.53636 0.52669 0.0
H209 H 0.96887 0.46322 0.4921 0.0
H210 H 0.97654 0.42666 0.43036 0.0
H211 H 0.02625 0.3963 0.39717 0.0
C212 C 0.89183 0.95678 0.0331 0.0
C213 C 0.9096 0.92892 0.06948 0.0
C214 C 0.92227 0.97371 0.01571 0.0
C215 C 0.97115 0.96314 0.03448 0.0
C216 C 0.98859 0.93454 0.07008 0.0
C217 C 0.95828 0.91782 0.08762 0.0
C218 C 0.00475 0.9804 0.01718 0.0
C219 C 0.99885 0.01871 0.99726 0.0
C220 C 0.03186 0.03602 0.97924 0.0
C221 C 0.01443 0.06669 0.94556 0.0
C222 C 0.04374 0.08315 0.9268 0.0
C223 C 0.09141 0.06953 0.94162 0.0
H224 H 0.09537 0.00082 0.02202 0.0
C225 C 0.10935 0.0397 0.97623 0.0
C226 C 0.07997 0.02319 0.99499 0.0
H227 H 0.14606 0.02891 0.98877 0.0
H228 H 0.85444 0.96568 0.01811 0.0
H229 H 0.90716 0.99449 0.98723 0.0
H230 H 0.02597 0.92553 0.08479 0.0
H231 H 0.97313 0.89619 0.11547 0.0
H232 H 0.03564 0.96095 0.02192 0.0
H233 H 0.96794 0.03804 0.99284 0.0
H234 H 0.97771 0.07748 0.93315 0.0
H235 H 0.02877 0.1063 0.90036 0.0
C236 C 0.28608 0.24292 0.01567 0.0
C237 C 0.28911 0.19855 0.01147 0.0
C238 C 0.29604 0.26099 0.05705 0.0
C239 C 0.30925 0.23487 0.09487 0.0
C240 C 0.31668 0.19121 0.09104 0.0
C241 C 0.30645 0.1732 0.04984 0.0
C242 C 0.31204 0.25079 0.13795 0.0
C243 C 0.28685 0.28461 0.1413 0.0
C244 C 0.28174 0.29639 0.1823 0.0
C245 C 0.26876 0.33842 0.18648 0.0
C246 C 0.25805 0.35011 0.22162 0.0
C247 C 0.25941 0.31988 0.25343 0.0
H248 H 0.29334 0.23318 0.21217 0.0
C249 C 0.27363 0.2779 0.25004 0.0
C250 C 0.28466 0.26621 0.21479 0.0
H251 H 0.2749 0.25379 0.27383 0.0
H252 H 0.27314 0.2633 0.98674 0.0
H253 H 0.29187 0.29512 0.05888 0.0
H254 H 0.32763 0.17042 0.11961 0.0
H255 H 0.30983 0.13893 0.04777 0.0
H256 H 0.33181 0.23156 0.16706 0.0
H257 H 0.26705 0.30394 0.11233 0.0
H258 H 0.26593 0.36225 0.16189 0.0
H259 H 0.24747 0.38283 0.22307 0.0
C260 C 0.71911 0.77819 0.25245 0.0
C261 C 0.72841 0.82096 0.24578 0.0
C262 C 0.70932 0.76687 0.2886 0.0
C263 C 0.70857 0.79822 0.31865 0.0
C264 C 0.71607 0.84094 0.31086 0.0
C265 C 0.72549 0.85223 0.27486 0.0
C266 C 0.70552 0.78747 0.36087 0.0
C267 C 0.6835 0.75245 0.36682 0.0
C268 C 0.68784 0.73772 0.41094 0.0
C269 C 0.6793 0.69445 0.41575 0.0
C270 C 0.69051 0.67711 0.45745 0.0
C271 C 0.71008 0.70271 0.49549 0.0
H272 H 0.70861 0.79815 0.44634 0.0
C273 C 0.7144 0.74681 0.49058 0.0
C274 C 0.70338 0.76426 0.44863 0.0
H275 H 0.7292 0.76732 0.51931 0.0
H276 H 0.72126 0.7533 0.23086 0.0
H277 H 0.70478 0.73341 0.29405 0.0
H278 H 0.71583 0.86571 0.33341 0.0
H279 H 0.73199 0.8856 0.27073 0.0
H280 H 0.72391 0.80889 0.38831 0.0
H281 H 0.66479 0.73163 0.33881 0.0
H282 H 0.66659 0.67331 0.38745 0.0
H283 H 0.68618 0.64302 0.46013 0.0
C284 C 0.71456 0.74665 0.99083 0.0
C285 C 0.70921 0.79063 0.99524 0.0
C286 C 0.70383 0.72906 0.94905 0.0
C287 C 0.68759 0.75533 0.91107 0.0
C288 C 0.67797 0.79838 0.9154 0.0
C289 C 0.68887 0.81588 0.95692 0.0
C290 C 0.6836 0.7406 0.86713 0.0
C291 C 0.70705 0.70642 0.86178 0.0
C292 C 0.71022 0.69569 0.81965 0.0
C293 C 0.71928 0.6532 0.81273 0.0
C294 C 0.72878 0.64208 0.77679 0.0
C295 C 0.73025 0.6733 0.74691 0.0
H296 H 0.70372 0.76025 0.79363 0.0
C297 C 0.71944 0.7158 0.75275 0.0
C298 C 0.70952 0.72694 0.78885 0.0
H299 H 0.72043 0.74063 0.73051 0.0
H300 H 0.72994 0.72642 0.01978 0.0
H301 H 0.70985 0.69529 0.94711 0.0
H302 H 0.66468 0.81929 0.88685 0.0
H303 H 0.68373 0.84986 0.95923 0.0
H304 H 0.66393 0.76079 0.83878 0.0
H305 H 0.72652 0.68571 0.88964 0.0
H306 H 0.72018 0.62852 0.83589 0.0
H307 H 0.73648 0.6089 0.77336 0.0
C308 C 0.27208 0.15055 0.72911 0.0
C309 C 0.27159 0.17785 0.7624 0.0
C310 C 0.28634 0.16551 0.69699 0.0
C311 C 0.30004 0.2084 0.69705 0.0
C312 C 0.30174 0.23509 0.73156 0.0
C313 C 0.28762 0.22007 0.76383 0.0
C314 C 0.31086 0.22717 0.66112 0.0
C315 C 0.2947 0.21075 0.61991 0.0
C316 C 0.29586 0.23369 0.58103 0.0
C317 C 0.28083 0.21188 0.54052 0.0
C318 C 0.27275 0.23387 0.50137 0.0
C319 C 0.2792 0.27827 0.502 0.0
H320 H 0.3174 0.29629 0.6117 0.0
C321 C 0.29773 0.29951 0.54284 0.0
C322 C 0.30596 0.27764 0.58184 0.0
H323 H 0.30342 0.33374 0.54443 0.0
H324 H 0.26083 0.11757 0.72744 0.0
H325 H 0.28623 0.14327 0.67221 0.0
H326 H 0.31256 0.26818 0.73279 0.0
H327 H 0.28801 0.2419 0.78912 0.0
H328 H 0.32959 0.25744 0.66845 0.0
H329 H 0.27598 0.18042 0.61291 0.0
H330 H 0.27288 0.17803 0.53872 0.0
H331 H 0.25829 0.21664 0.47039 0.0
C332 C 0.36254 0.46578 0.47234 0.0
C333 C 0.33602 0.46497 0.42627 0.0
C334 C 0.41041 0.47832 0.49066 0.0
C335 C 0.43279 0.49028 0.46326 0.0
C336 C 0.40547 0.49233 0.41748 0.0
C337 C 0.35762 0.47955 0.39908 0.0
C338 C 0.48446 0.50061 0.48134 0.0
C339 C 0.51694 0.48278 0.51864 0.0
C340 C 0.56841 0.4939 0.53755 0.0
C341 C 0.59477 0.49188 0.58347 0.0
C342 C 0.64208 0.50601 0.60289 0.0
C343 C 0.66419 0.52188 0.57663 0.0
H344 H 0.57277 0.5074 0.4754 0.0
C345 C 0.63888 0.5209 0.53042 0.0
C346 C 0.59142 0.5071 0.51104 0.0
H347 H 0.65494 0.53257 0.50918 0.0
H348 H 0.34693 0.45523 0.49432 0.0
H349 H 0.4298 0.47817 0.52624 0.0
H350 H 0.42168 0.50223 0.39573 0.0
H351 H 0.33815 0.47964 0.36347 0.0
H352 H 0.49592 0.52277 0.46262 0.0
H353 H 0.50539 0.46055 0.53724 0.0
H354 H 0.57808 0.4811 0.60455 0.0
H355 H 0.66069 0.50598 0.63858 0.0
C356 C 0.35583 0.01284 0.96342 0.0
C357 C 0.33129 0.01936 0.91762 0.0
C358 C 0.40373 0.00056 0.98189 0.0
C359 C 0.42807 0.9945 0.95492 0.0
C360 C 0.40256 -0.00262 0.90894 0.0
C361 C 0.35465 0.00997 0.8904 0.0
C362 C 0.48013 0.98608 0.9739 0.0
C363 C 0.51056 0.00282 0.01277 0.0
C364 C 0.56264 0.99422 0.03284 0.0
C365 C 0.5875 -0.00465 0.07897 0.0
C366 C 0.63551 0.98338 0.09937 0.0
C367 C 0.65974 0.97052 0.07389 0.0
H368 H 0.57027 0.98496 0.97154 0.0
C369 C 0.63579 0.97262 0.02759 0.0
C370 C 0.58772 0.98434 0.00724 0.0
H371 H 0.6535 0.96339 0.00693 0.0
H372 H 0.33881 0.01916 0.98536 0.0
H373 H 0.4218 -0.00331 0.01736 0.0
H374 H 0.42036 0.99199 0.88744 0.0
H375 H 0.33672 0.01433 0.85497 0.0
H376 H 0.49353 0.96678 0.95455 0.0
H377 H 0.49675 0.02232 0.03169 0.0
H378 H 0.56919 0.00366 0.0994 0.0
H379 H 0.65297 0.98247 0.1351 0.0
loop_
_geom_bond_atom_site_label_1
_geom_bond_atom_site_label_2
_geom_bond_distance
_geom_bond_site_symmetry_2
_ccdc_geom_bond_type
O0 Zn1 1.953 . S
O0 C16 1.225 . S
Zn1 O0 1.953 . S
Zn1 O2 1.949 . S
Zn1 O8 1.919 . S
Zn1 O13 1.924 . S
O2 Zn1 1.949 . S
O2 Zn3 1.923 . S
O2 Zn4 1.950 . S
O2 Zn5 1.945 . S
Zn3 O2 1.923 . S
Zn3 O6 1.933 . S
Zn3 O9 1.941 . S
Zn3 O10 1.965 . S
Zn4 O2 1.950 . S
Zn4 O11 1.938 . S
Zn4 O12 1.906 . S
Zn4 O22 1.953 . S
Zn5 O2 1.945 . S
Zn5 O7 1.932 . S
Zn5 O14 1.977 . S
Zn5 O15 1.910 . S
O6 Zn3 1.933 . S
O6 C17 1.226 . S
O7 Zn5 1.932 . S
O7 C17 1.307 . S
O8 Zn1 1.919 . S
O8 C19 1.253 . S
O9 Zn3 1.941 . S
O9 C19 1.283 . S
O10 Zn3 1.965 . S
O10 C18 1.303 . S
O11 Zn4 1.938 . S
O11 C18 1.247 . S
O12 Zn4 1.906 . S
O12 C20 1.304 . S
O13 Zn1 1.924 . S
O13 C21 1.311 . S
O14 Zn5 1.977 . S
O14 C20 1.272 . S
O15 Zn5 1.910 . S
O15 C21 1.231 . S
C16 O0 1.225 . S
C16 O22 1.298 . S
C17 O6 1.226 . S
C17 O7 1.307 . S
C18 O10 1.303 . S
C18 O11 1.247 . S
C19 O8 1.253 . S
C19 O9 1.283 . S
C20 O12 1.304 . S
C20 O14 1.272 . S
C21 O13 1.311 . S
C21 O15 1.231 . S
O22 Zn4 1.953 . S
O22 C16 1.298 . S
O23 Zn24 1.953 . S
O23 C39 1.225 . S
Zn24 O23 1.953 . S
Zn24 O25 1.949 . S
Zn24 O31 1.919 . S
Zn24 O36 1.924 . S
O25 Zn24 1.949 . S
O25 Zn26 1.923 . S
O25 Zn27 1.950 . S
O25 Zn28 1.945 . S
Zn26 O25 1.923 . S
Zn26 O29 1.933 . S
Zn26 O32 1.941 . S
Zn26 O33 1.965 . S
Zn27 O25 1.950 . S
Zn27 O34 1.938 . S
Zn27 O35 1.906 . S
Zn27 O45 1.953 . S
Zn28 O25 1.945 . S
Zn28 O30 1.932 . S
Zn28 O37 1.977 . S
Zn28 O38 1.910 . S
O29 Zn26 1.933 . S
O29 C40 1.226 . S
O30 Zn28 1.932 . S
O30 C40 1.307 . S
O31 Zn24 1.919 . S
O31 C42 1.253 . S
O32 Zn26 1.941 . S
O32 C42 1.283 . S
O33 Zn26 1.965 . S
O33 C41 1.303 . S
O34 Zn27 1.938 . S
O34 C41 1.247 . S
O35 Zn27 1.906 . S
O35 C43 1.304 . S
O36 Zn24 1.924 . S
O36 C44 1.311 . S
O37 Zn28 1.977 . S
O37 C43 1.272 . S
O38 Zn28 1.910 . S
O38 C44 1.231 . S
C39 O23 1.225 . S
C39 O45 1.298 . S
C40 O29 1.226 . S
C40 O30 1.307 . S
C41 O33 1.303 . S
C41 O34 1.247 . S
C42 O31 1.253 . S
C42 O32 1.283 . S
C43 O35 1.304 . S
C43 O37 1.272 . S
C44 O36 1.311 . S
C44 O38 1.231 . S
O45 Zn27 1.953 . S
O45 C39 1.298 . S
O46 Zn47 1.953 . S
O46 C62 1.225 . S
Zn47 O46 1.953 . S
Zn47 O48 1.949 . S
Zn47 O54 1.919 . S
Zn47 O59 1.924 . S
O48 Zn47 1.949 . S
O48 Zn49 1.923 . S
O48 Zn50 1.950 . S
O48 Zn51 1.945 . S
Zn49 O48 1.923 . S
Zn49 O52 1.933 . S
Zn49 O55 1.941 . S
Zn49 O56 1.965 . S
Zn50 O48 1.950 . S
Zn50 O57 1.938 . S
Zn50 O58 1.906 . S
Zn50 O68 1.953 . S
Zn51 O48 1.945 . S
Zn51 O53 1.932 . S
Zn51 O60 1.977 . S
Zn51 O61 1.910 . S
O52 Zn49 1.933 . S
O52 C63 1.226 . S
O53 Zn51 1.932 . S
O53 C63 1.307 . S
O54 Zn47 1.919 . S
O54 C65 1.253 . S
O55 Zn49 1.941 . S
O55 C65 1.283 . S
O56 Zn49 1.965 . S
O56 C64 1.303 . S
O57 Zn50 1.938 . S
O57 C64 1.247 . S
O58 Zn50 1.906 . S
O58 C66 1.304 . S
O59 Zn47 1.924 . S
O59 C67 1.311 . S
O60 Zn51 1.977 . S
O60 C66 1.272 . S
O61 Zn51 1.910 . S
O61 C67 1.231 . S
C62 O46 1.225 . S
C62 O68 1.298 . S
C63 O52 1.226 . S
C63 O53 1.307 . S
C64 O56 1.303 . S
C64 O57 1.247 . S
C65 O54 1.253 . S
C65 O55 1.283 . S
C66 O58 1.304 . S
C66 O60 1.272 . S
C67 O59 1.311 . S
C67 O61 1.231 . S
O68 Zn50 1.953 . S
O68 C62 1.298 . S
O69 Zn70 1.953 . S
O69 C85 1.225 . S
Zn70 O69 1.953 . S
Zn70 O71 1.949 . S
Zn70 O77 1.919 . S
Zn70 O82 1.924 . S
O71 Zn70 1.949 . S
O71 Zn72 1.923 . S
O71 Zn73 1.950 . S
O71 Zn74 1.945 . S
Zn72 O71 1.923 . S
Zn72 O75 1.933 . S
Zn72 O78 1.941 . S
Zn72 O79 1.965 . S
Zn73 O71 1.950 . S
Zn73 O80 1.938 . S
Zn73 O81 1.906 . S
Zn73 O91 1.953 . S
Zn74 O71 1.945 . S
Zn74 O76 1.932 . S
Zn74 O83 1.977 . S
Zn74 O84 1.910 . S
O75 Zn72 1.933 . S
O75 C86 1.226 . S
O76 Zn74 1.932 . S
O76 C86 1.307 . S
O77 Zn70 1.919 . S
O77 C88 1.253 . S
O78 Zn72 1.941 . S
O78 C88 1.283 . S
O79 Zn72 1.965 . S
O79 C87 1.303 . S
O80 Zn73 1.938 . S
O80 C87 1.247 . S
O81 Zn73 1.906 . S
O81 C89 1.304 . S
O82 Zn70 1.924 . S
O82 C90 1.311 . S
O83 Zn74 1.977 . S
O83 C89 1.272 . S
O84 Zn74 1.910 . S
O84 C90 1.231 . S
C85 O69 1.225 . S
C85 O91 1.298 . S
C86 O75 1.226 . S
C86 O76 1.307 . S
C87 O79 1.303 . S
C87 O80 1.247 . S
C88 O77 1.253 . S
C88 O78 1.283 . S
C89 O81 1.304 . S
C89 O83 1.272 . S
C90 O82 1.311 . S
C90 O84 1.231 . S
O91 Zn73 1.953 . S
O91 C85 1.298 . S
C92 C93 1.386 . S
C92 C94 1.383 . S
C92 H108 0.951 . S
C93 C92 1.386 . S
C93 C97 1.383 . S
C94 C92 1.383 . S
C94 C95 1.402 . S
C94 H109 0.951 . S
C95 C94 1.402 . S
C95 C96 1.375 . S
C95 C98 1.481 . S
C96 C95 1.375 . S
C96 C97 1.367 . S
C96 H110 0.951 1_655 S
C97 C93 1.383 . S
C97 C96 1.367 . S
C97 H111 0.950 1_545 S
C98 C95 1.481 . S
C98 C99 1.297 . S
C98 H112 0.950 1_655 S
C99 C98 1.297 . S
C99 C100 1.479 1_655 S
C99 H113 0.950 . S
C100 C99 1.479 1_455 S
C100 C101 1.375 1_455 S
C100 C106 1.404 . S
C101 C100 1.375 1_655 S
C101 C102 1.369 1_655 S
C101 H114 0.950 . S
C102 C101 1.369 1_455 S
C102 C103 1.392 . S
C102 H115 0.951 1_455 S
C103 C102 1.392 . S
C103 C105 1.384 . S
H104 C106 0.949 . S
C105 C103 1.384 . S
C105 C106 1.385 . S
C105 H107 0.950 . S
C106 C100 1.404 . S
C106 H104 0.949 . S
C106 C105 1.385 . S
H107 C105 0.950 . S
H108 C92 0.951 . S
H109 C94 0.951 . S
H110 C96 0.951 1_455 S
H111 C97 0.950 1_565 S
H112 C98 0.950 1_455 S
H113 C99 0.950 . S
H114 C101 0.950 . S
H115 C102 0.951 1_655 S
C116 C117 1.386 . S
C116 C118 1.383 . S
C116 H132 0.951 . S
C117 C116 1.386 . S
C117 C121 1.383 . S
C118 C116 1.383 . S
C118 C119 1.402 . S
C118 H133 0.951 . S
C119 C118 1.402 . S
C119 C120 1.375 . S
C119 C122 1.481 . S
C120 C119 1.375 . S
C120 C121 1.367 . S
C120 H134 0.951 1_455 S
C121 C117 1.383 . S
C121 C120 1.367 . S
C121 H135 0.950 . S
C122 C119 1.481 . S
C122 C123 1.297 . S
C122 H136 0.950 1_455 S
C123 C122 1.297 . S
C123 C124 1.479 1_455 S
C123 H137 0.950 . S
C124 C123 1.479 1_655 S
C124 C125 1.375 1_655 S
C124 C130 1.404 . S
C125 C124 1.375 1_455 S
C125 C126 1.369 1_455 S
C125 H138 0.950 . S
C126 C125 1.369 1_655 S
C126 C127 1.392 . S
C126 H139 0.951 1_655 S
C127 C126 1.392 . S
C127 C129 1.384 . S
H128 C130 0.949 . S
C129 C127 1.384 . S
C129 C130 1.385 . S
C129 H131 0.950 . S
C130 C124 1.404 . S
C130 H128 0.949 . S
C130 C129 1.385 . S
H131 C129 0.950 . S
H132 C116 0.951 . S
H133 C118 0.951 . S
H134 C120 0.951 1_655 S
H135 C121 0.950 . S
H136 C122 0.950 1_655 S
H137 C123 0.950 . S
H138 C125 0.950 . S
H139 C126 0.951 1_455 S
C140 C141 1.386 . S
C140 C142 1.383 . S
C140 H156 0.951 . S
C141 C140 1.386 . S
C141 C145 1.383 . S
C142 C140 1.383 . S
C142 C143 1.402 . S
C142 H157 0.951 . S
C143 C142 1.402 . S
C143 C144 1.375 . S
C143 C146 1.481 . S
C144 C143 1.375 . S
C144 C145 1.367 . S
C144 H158 0.951 . S
C145 C141 1.383 . S
C145 C144 1.367 . S
C145 H159 0.964 . S
C146 C143 1.481 . S
C146 C147 1.297 1_455 S
C146 H160 0.950 . S
C147 C146 1.297 1_655 S
C147 C148 1.479 . S
C147 H161 0.950 . S
C148 C147 1.479 . S
C148 C149 1.375 . S
C148 C154 1.404 . S
C149 C148 1.375 . S
C149 C150 1.369 . S
C149 H162 0.950 . S
C150 C149 1.369 . S
C150 C151 1.392 . S
C150 H163 0.951 . S
C151 C150 1.392 . S
C151 C153 1.384 . S
H152 C154 0.949 . S
C153 C151 1.384 . S
C153 C154 1.385 . S
C153 H155 0.950 . S
C154 C148 1.404 . S
C154 H152 0.949 . S
C154 C153 1.385 . S
H155 C153 0.950 . S
H156 C140 0.951 . S
H157 C142 0.951 . S
H158 C144 0.951 . S
H159 C145 0.964 . S
H160 C146 0.950 . S
H161 C147 0.950 . S
H162 C149 0.950 . S
H163 C150 0.951 . S
C164 C165 1.386 . S
C164 C166 1.383 . S
C164 H180 0.951 . S
C165 C164 1.386 . S
C165 C169 1.383 . S
C166 C164 1.383 . S
C166 C167 1.402 . S
C166 H181 0.951 . S
C167 C166 1.402 . S
C167 C168 1.375 . S
C167 C170 1.481 . S
C168 C167 1.375 . S
C168 C169 1.367 . S
C168 H182 0.951 . S
C169 C165 1.383 . S
C169 C168 1.367 . S
C169 H183 0.950 . S
C170 C167 1.481 . S
C170 C171 1.297 1_655 S
C170 H184 0.950 . S
C171 C170 1.297 1_455 S
C171 C172 1.479 . S
C171 H185 0.950 . S
C172 C171 1.479 . S
C172 C173 1.375 . S
C172 C178 1.404 . S
C173 C172 1.375 . S
C173 C174 1.369 . S
C173 H186 0.950 . S
C174 C173 1.369 . S
C174 C175 1.392 . S
C174 H187 0.951 . S
C175 C174 1.392 . S
C175 C177 1.384 . S
H176 C178 0.949 1_655 S
C177 C175 1.384 . S
C177 C178 1.385 . S
C177 H179 0.950 . S
C178 C172 1.404 . S
C178 H176 0.949 1_455 S
C178 C177 1.385 . S
H179 C177 0.950 . S
H180 C164 0.951 . S
H181 C166 0.951 . S
H182 C168 0.951 . S
H183 C169 0.950 . S
H184 C170 0.950 . S
H185 C171 0.950 . S
H186 C173 0.950 . S
H187 C174 0.951 . S
C188 C189 1.386 . S
C188 C190 1.383 . S
C188 H204 0.951 . S
C189 C188 1.386 . S
C189 C193 1.383 . S
C190 C188 1.383 . S
C190 C191 1.402 . S
C190 H205 0.951 . S
C191 C190 1.402 . S
C191 C192 1.375 . S
C191 C194 1.481 . S
C192 C191 1.375 . S
C192 C193 1.367 . S
C192 H206 0.951 . S
C193 C189 1.383 . S
C193 C192 1.367 . S
C193 H207 0.950 . S
C194 C191 1.481 . S
C194 C195 1.297 . S
C194 H208 0.950 1_655 S
C195 C194 1.297 . S
C195 C196 1.479 1_655 S
C195 H209 0.950 . S
C196 C195 1.479 1_455 S
C196 C197 1.375 . S
C196 C202 1.404 . S
C197 C196 1.375 . S
C197 C198 1.369 . S
C197 H210 0.950 . S
C198 C197 1.369 . S
C198 C199 1.392 . S
C198 H211 0.951 . S
C199 C198 1.392 . S
C199 C201 1.384 . S
H200 C202 0.949 . S
C201 C199 1.384 . S
C201 C202 1.385 . S
C201 H203 0.950 . S
C202 C196 1.404 . S
C202 H200 0.949 . S
C202 C201 1.385 . S
H203 C201 0.950 . S
H204 C188 0.951 . S
H205 C190 0.951 . S
H206 C192 0.951 . S
H207 C193 0.950 . S
H208 C194 0.950 1_455 S
H209 C195 0.950 . S
H210 C197 0.950 . S
H211 C198 0.951 . S
C212 C213 1.360 1_556 S
C212 C214 1.397 . S
C212 H228 0.963 . S
C213 C212 1.360 1_554 S
C213 C217 1.383 . S
C214 C212 1.397 . S
C214 C215 1.402 1_556 S
C214 H229 0.945 1_565 S
C215 C214 1.402 1_554 S
C215 C216 1.375 . S
C215 C218 1.481 1_665 S
C216 C215 1.375 . S
C216 C217 1.367 . S
C216 H230 0.951 . S
C217 C213 1.383 . S
C217 C216 1.367 . S
C217 H231 0.950 . S
C218 C215 1.481 1_445 S
C218 C219 1.297 1_554 S
C218 H232 0.950 1_545 S
C219 C218 1.297 1_556 S
C219 C220 1.479 . S
C219 H233 0.950 1_455 S
C220 C219 1.479 . S
C220 C221 1.375 . S
C220 C226 1.404 1_556 S
C221 C220 1.375 . S
C221 C222 1.369 . S
C221 H234 0.950 . S
C222 C221 1.369 . S
C222 C223 1.392 . S
C222 H235 0.951 . S
C223 C222 1.392 . S
C223 C225 1.384 1_556 S
H224 C226 0.949 . S
C225 C223 1.384 1_554 S
C225 C226 1.385 . S
C225 H227 0.950 . S
C226 C220 1.404 1_554 S
C226 H224 0.949 . S
C226 C225 1.385 . S
H227 C225 0.950 . S
H228 C212 0.963 . S
H229 C214 0.945 1_545 S
H230 C216 0.951 . S
H231 C217 0.950 . S
H232 C218 0.950 1_565 S
H233 C219 0.950 1_655 S
H234 C221 0.950 . S
H235 C222 0.951 . S
C236 C237 1.386 . S
C236 C238 1.383 . S
C236 H252 0.951 . S
C237 C236 1.386 . S
C237 C241 1.383 . S
C238 C236 1.383 . S
C238 C239 1.402 . S
C238 H253 0.951 . S
C239 C238 1.402 . S
C239 C240 1.375 . S
C239 C242 1.481 . S
C240 C239 1.375 . S
C240 C241 1.367 . S
C240 H254 0.951 . S
C241 C237 1.383 . S
C241 C240 1.367 . S
C241 H255 0.950 . S
C242 C239 1.481 . S
C242 C243 1.297 . S
C242 H256 0.950 . S
C243 C242 1.297 . S
C243 C244 1.479 . S
C243 H257 0.950 . S
C244 C243 1.479 . S
C244 C245 1.375 . S
C244 C250 1.404 . S
C245 C244 1.375 . S
C245 C246 1.369 . S
C245 H258 0.950 . S
C246 C245 1.369 . S
C246 C247 1.392 . S
C246 H259 0.951 . S
C247 C246 1.392 . S
C247 C249 1.384 . S
H248 C250 0.949 . S
C249 C247 1.384 . S
C249 C250 1.385 . S
C249 H251 0.950 . S
C250 C244 1.404 . S
C250 H248 0.949 . S
C250 C249 1.385 . S
H251 C249 0.950 . S
H252 C236 0.951 . S
H253 C238 0.951 . S
H254 C240 0.951 . S
H255 C241 0.950 . S
H256 C242 0.950 . S
H257 C243 0.950 . S
H258 C245 0.950 . S
H259 C246 0.951 . S
C260 C261 1.386 . S
C260 C262 1.383 . S
C260 H276 0.951 . S
C261 C260 1.386 . S
C261 C265 1.383 . S
C262 C260 1.383 . S
C262 C263 1.402 . S
C262 H277 0.951 . S
C263 C262 1.402 . S
C263 C264 1.375 . S
C263 C266 1.481 . S
C264 C263 1.375 . S
C264 C265 1.367 . S
C264 H278 0.951 . S
C265 C261 1.383 . S
C265 C264 1.367 . S
C265 H279 0.950 . S
C266 C263 1.481 . S
C266 C267 1.297 . S
C266 H280 0.950 . S
C267 C266 1.297 . S
C267 C268 1.479 . S
C267 H281 0.950 . S
C268 C267 1.479 . S
C268 C269 1.375 . S
C268 C274 1.404 . S
C269 C268 1.375 . S
C269 C270 1.369 . S
C269 H282 0.950 . S
C270 C269 1.369 . S
C270 C271 1.392 . S
C270 H283 0.951 . S
C271 C270 1.392 . S
C271 C273 1.384 . S
H272 C274 0.949 . S
C273 C271 1.384 . S
C273 C274 1.385 . S
C273 H275 0.950 . S
C274 C268 1.404 . S
C274 H272 0.949 . S
C274 C273 1.385 . S
H275 C273 0.950 . S
H276 C260 0.951 . S
H277 C262 0.951 . S
H278 C264 0.951 . S
H279 C265 0.950 . S
H280 C266 0.950 . S
H281 C267 0.950 . S
H282 C269 0.950 . S
H283 C270 0.951 . S
C284 C285 1.386 . S
C284 C286 1.383 . S
C284 H300 0.951 . S
C285 C284 1.386 . S
C285 C289 1.383 . S
C286 C284 1.383 . S
C286 C287 1.402 . S
C286 H301 0.951 . S
C287 C286 1.402 . S
C287 C288 1.375 . S
C287 C290 1.481 . S
C288 C287 1.375 . S
C288 C289 1.367 . S
C288 H302 0.951 . S
C289 C285 1.383 . S
C289 C288 1.367 . S
C289 H303 0.950 . S
C290 C287 1.481 . S
C290 C291 1.297 . S
C290 H304 0.950 . S
C291 C290 1.297 . S
C291 C292 1.479 . S
C291 H305 0.950 . S
C292 C291 1.479 . S
C292 C293 1.375 . S
C292 C298 1.404 . S
C293 C292 1.375 . S
C293 C294 1.369 . S
C293 H306 0.950 . S
C294 C293 1.369 . S
C294 C295 1.392 . S
C294 H307 0.951 . S
C295 C294 1.392 . S
C295 C297 1.384 . S
H296 C298 0.949 . S
C297 C295 1.384 . S
C297 C298 1.385 . S
C297 H299 0.950 . S
C298 C292 1.404 . S
C298 H296 0.949 . S
C298 C297 1.385 . S
H299 C297 0.950 . S
H300 C284 0.951 . S
H301 C286 0.951 . S
H302 C288 0.951 . S
H303 C289 0.950 . S
H304 C290 0.950 . S
H305 C291 0.950 . S
H306 C293 0.950 . S
H307 C294 0.951 . S
C308 C309 1.386 . S
C308 C310 1.383 . S
C308 H324 0.951 . S
C309 C308 1.386 . S
C309 C313 1.383 . S
C310 C308 1.383 . S
C310 C311 1.402 . S
C310 H325 0.951 . S
C311 C310 1.402 . S
C311 C312 1.375 . S
C311 C314 1.481 . S
C312 C311 1.375 . S
C312 C313 1.367 . S
C312 H326 0.951 . S
C313 C309 1.383 . S
C313 C312 1.367 . S
C313 H327 0.950 . S
C314 C311 1.481 . S
C314 C315 1.297 . S
C314 H328 0.950 . S
C315 C314 1.297 . S
C315 C316 1.479 . S
C315 H329 0.950 . S
C316 C315 1.479 . S
C316 C317 1.375 . S
C316 C322 1.404 . S
C317 C316 1.375 . S
C317 C318 1.369 . S
C317 H330 0.950 . S
C318 C317 1.369 . S
C318 C319 1.392 . S
C318 H331 0.951 . S
C319 C318 1.392 . S
C319 C321 1.384 . S
H320 C322 0.949 . S
C321 C319 1.384 . S
C321 C322 1.385 . S
C321 H323 0.950 . S
C322 C316 1.404 . S
C322 H320 0.949 . S
C322 C321 1.385 . S
H323 C321 0.950 . S
H324 C308 0.951 . S
H325 C310 0.951 . S
H326 C312 0.951 . S
H327 C313 0.950 . S
H328 C314 0.950 . S
H329 C315 0.950 . S
H330 C317 0.950 . S
H331 C318 0.951 . S
C332 C333 1.386 . S
C332 C334 1.383 . S
C332 H348 0.951 . S
C333 C332 1.386 . S
C333 C337 1.383 . S
C334 C332 1.383 . S
C334 C335 1.402 . S
C334 H349 0.951 . S
C335 C334 1.402 . S
C335 C336 1.375 . S
C335 C338 1.481 . S
C336 C335 1.375 . S
C336 C337 1.367 . S
C336 H350 0.951 . S
C337 C333 1.383 . S
C337 C336 1.367 . S
C337 H351 0.950 . S
C338 C335 1.481 . S
C338 C339 1.297 . S
C338 H352 0.950 . S
C339 C338 1.297 . S
C339 C340 1.479 . S
C339 H353 0.950 . S
C340 C339 1.479 . S
C340 C341 1.375 . S
C340 C346 1.404 . S
C341 C340 1.375 . S
C341 C342 1.369 . S
C341 H354 0.950 . S
C342 C341 1.369 . S
C342 C343 1.392 . S
C342 H355 0.951 . S
C343 C342 1.392 . S
C343 C345 1.384 . S
H344 C346 0.949 . S
C345 C343 1.384 . S
C345 C346 1.385 . S
C345 H347 0.950 . S
C346 C340 1.404 . S
C346 H344 0.949 . S
C346 C345 1.385 . S
H347 C345 0.950 . S
H348 C332 0.951 . S
H349 C334 0.951 . S
H350 C336 0.951 . S
H351 C337 0.950 . S
H352 C338 0.950 . S
H353 C339 0.950 . S
H354 C341 0.950 . S
H355 C342 0.951 . S
C356 C357 1.386 . S
C356 C358 1.383 1_545 S
C356 H372 0.951 1_545 S
C357 C356 1.386 . S
C357 C361 1.383 . S
C358 C356 1.383 1_565 S
C358 C359 1.402 1_565 S
C358 H373 0.951 . S
C359 C358 1.402 1_545 S
C359 C360 1.375 . S
C359 C362 1.481 . S
C360 C359 1.375 . S
C360 C361 1.367 . S
C360 H374 0.951 . S
C361 C357 1.383 . S
C361 C360 1.367 . S
C361 H375 0.950 . S
C362 C359 1.481 . S
C362 C363 1.297 1_545 S
C362 H376 0.950 . S
C363 C362 1.297 1_565 S
C363 C364 1.479 1_556 S
C363 H377 0.950 . S
C364 C363 1.479 1_554 S
C364 C365 1.375 . S
C364 C370 1.404 1_565 S
C365 C364 1.375 . S
C365 C366 1.369 . S
C365 H378 0.950 . S
C366 C365 1.369 . S
C366 C367 1.392 . S
C366 H379 0.951 . S
C367 C366 1.392 . S
C367 C369 1.384 . S
H368 C370 0.949 1_556 S
C369 C367 1.384 . S
C369 C370 1.385 1_565 S
C369 H371 0.950 1_565 S
C370 C364 1.404 1_545 S
C370 H368 0.949 1_554 S
C370 C369 1.385 1_545 S
H371 C369 0.950 1_545 S
H372 C356 0.951 1_565 S
H373 C358 0.951 . S
H374 C360 0.951 . S
H375 C361 0.950 . S
H376 C362 0.950 . S
H377 C363 0.950 . S
H378 C365 0.950 . S
H379 C366 0.951 . S
C93 C44 1.651 1_545 S
C103 C19 1.574 . S
C117 C21 1.651 . S
C127 C42 1.580 . S
C141 C90 1.651 1_565 S
C151 C65 1.588 . S
C165 C67 1.654 . S
C175 C88 1.570 . S
C189 C62 0.756 . S
C199 C16 0.675 . S
C213 C39 0.714 . S
C223 C85 0.736 . S
C237 C87 1.547 1_554 S
C247 C17 1.489 . S
C261 C40 1.515 . S
C271 C64 1.551 . S
C285 C41 1.536 1_556 S
C295 C63 1.535 . S
C309 C86 1.545 . S
C319 C18 1.513 . S
C333 C20 1.288 . S
C343 C66 1.270 . S
C357 C89 1.287 . S
C367 C43 1.277 . S
