# Generated by pormake.
# Topology atn, (4)-cn, num edge types: 1
# Building blocks:
#     Node 0, Type 0, BuildingBlock: CEKHIL_clean_sbu_0, # of connection points: 4
#     Node 1, Type 0, BuildingBlock: CEKHIL_clean_sbu_0, # of connection points: 4
#     Node 2, Type 0, BuildingBlock: CEKHIL_clean_sbu_0, # of connection points: 4
#     Node 3, Type 0, BuildingBlock: CEKHIL_clean_sbu_0, # of connection points: 4
#     Node 4, Type 0, BuildingBlock: CEKHIL_clean_sbu_0, # of connection points: 4
#     Node 5, Type 0, BuildingBlock: CEKHIL_clean_sbu_0, # of connection points: 4
#     Node 6, Type 0, BuildingBlock: CEKHIL_clean_sbu_0, # of connection points: 4
#     Node 7, Type 0, BuildingBlock: CEKHIL_clean_sbu_0, # of connection points: 4
#     Node 8, Type 0, BuildingBlock: CEKHIL_clean_sbu_0, # of connection points: 4
#     Node 9, Type 0, BuildingBlock: CEKHIL_clean_sbu_0, # of connection points: 4
#     Node 10, Type 0, BuildingBlock: CEKHIL_clean_sbu_0, # of connection points: 4
#     Node 11, Type 0, BuildingBlock: CEKHIL_clean_sbu_0, # of connection points: 4
#     Node 12, Type 0, BuildingBlock: CEKHIL_clean_sbu_0, # of connection points: 4
#     Node 13, Type 0, BuildingBlock: CEKHIL_clean_sbu_0, # of connection points: 4
#     Node 14, Type 0, BuildingBlock: CEKHIL_clean_sbu_0, # of connection points: 4
#     Node 15, Type 0, BuildingBlock: CEKHIL_clean_sbu_0, # of connection points: 4
#     Edge 16, Type (0, 0), BuildingBlock: AJUNOK_clean_linker_0, # of connection points: 2
#     Edge 17, Type (0, 0), BuildingBlock: AJUNOK_clean_linker_0, # of connection points: 2
#     Edge 18, Type (0, 0), BuildingBlock: AJUNOK_clean_linker_0, # of connection points: 2
#     Edge 19, Type (0, 0), BuildingBlock: AJUNOK_clean_linker_0, # of connection points: 2
#     Edge 20, Type (0, 0), BuildingBlock: AJUNOK_clean_linker_0, # of connection points: 2
#     Edge 21, Type (0, 0), BuildingBlock: AJUNOK_clean_linker_0, # of connection points: 2
#     Edge 22, Type (0, 0), BuildingBlock: AJUNOK_clean_linker_0, # of connection points: 2
#     Edge 23, Type (0, 0), BuildingBlock: AJUNOK_clean_linker_0, # of connection points: 2
#     Edge 24, Type (0, 0), BuildingBlock: AJUNOK_clean_linker_0, # of connection points: 2
#     Edge 25, Type (0, 0), BuildingBlock: AJUNOK_clean_linker_0, # of connection points: 2
#     Edge 26, Type (0, 0), BuildingBlock: AJUNOK_clean_linker_0, # of connection points: 2
#     Edge 27, Type (0, 0), BuildingBlock: AJUNOK_clean_linker_0, # of connection points: 2
#     Edge 28, Type (0, 0), BuildingBlock: AJUNOK_clean_linker_0, # of connection points: 2
#     Edge 29, Type (0, 0), BuildingBlock: AJUNOK_clean_linker_0, # of connection points: 2
#     Edge 30, Type (0, 0), BuildingBlock: AJUNOK_clean_linker_0, # of connection points: 2
#     Edge 31, Type (0, 0), BuildingBlock: AJUNOK_clean_linker_0, # of connection points: 2
#     Edge 32, Type (0, 0), BuildingBlock: AJUNOK_clean_linker_0, # of connection points: 2
#     Edge 33, Type (0, 0), BuildingBlock: AJUNOK_clean_linker_0, # of connection points: 2
#     Edge 34, Type (0, 0), BuildingBlock: AJUNOK_clean_linker_0, # of connection points: 2
#     Edge 35, Type (0, 0), BuildingBlock: AJUNOK_clean_linker_0, # of connection points: 2
#     Edge 36, Type (0, 0), BuildingBlock: AJUNOK_clean_linker_0, # of connection points: 2
#     Edge 37, Type (0, 0), BuildingBlock: AJUNOK_clean_linker_0, # of connection points: 2
#     Edge 38, Type (0, 0), BuildingBlock: AJUNOK_clean_linker_0, # of connection points: 2
#     Edge 39, Type (0, 0), BuildingBlock: AJUNOK_clean_linker_0, # of connection points: 2
#     Edge 40, Type (0, 0), BuildingBlock: AJUNOK_clean_linker_0, # of connection points: 2
#     Edge 41, Type (0, 0), BuildingBlock: AJUNOK_clean_linker_0, # of connection points: 2
#     Edge 42, Type (0, 0), BuildingBlock: AJUNOK_clean_linker_0, # of connection points: 2
#     Edge 43, Type (0, 0), BuildingBlock: AJUNOK_clean_linker_0, # of connection points: 2
#     Edge 44, Type (0, 0), BuildingBlock: AJUNOK_clean_linker_0, # of connection points: 2
#     Edge 45, Type (0, 0), BuildingBlock: AJUNOK_clean_linker_0, # of connection points: 2
#     Edge 46, Type (0, 0), BuildingBlock: AJUNOK_clean_linker_0, # of connection points: 2
#     Edge 47, Type (0, 0), BuildingBlock: AJUNOK_clean_linker_0, # of connection points: 2
# Relax obj value: 0.034
# Max RMSD: 0.063
# Mean RMSD: 0.063
data_MOF--net-atn--node1-CEKHIL_clean_sbu_0--edge1-AJUNOK_clean_linker_0
_symmetry_space_group_name_H-M    P1
_symmetry_Int_Tables_number       1
_symmetry_cell_setting            triclinic
loop_
_symmetry_equiv_pos_as_xyz
'x, y, z'
_cell_length_a     43.706695
_cell_length_b     43.709868
_cell_length_c     19.753419
_cell_angle_alpha  89.965245
_cell_angle_beta   89.962757
_cell_angle_gamma 89.976604
loop_
_atom_site_label
_atom_site_type_symbol
_atom_site_fract_x
_atom_site_fract_y
_atom_site_fract_z
_atom_type_partial_charge
Co0 Co 0.19901 0.38901 0.98695 0.0
O1 O 0.17726 0.4274 0.98658 0.0
O2 O 0.22532 0.42215 0.01843 0.0
C3 C 0.18417 0.37467 0.88205 0.0
O4 O 0.22927 0.35294 0.99099 0.0
Co5 Co 0.1627 0.32789 0.97546 0.0
O6 O 0.20386 0.31115 0.95538 0.0
C7 C 0.16429 0.36069 0.10613 0.0
C8 C 0.20227 0.44033 0.00697 0.0
C9 C 0.2286 0.32467 0.97192 0.0
O10 O 0.18398 0.37983 0.08193 0.0
O11 O 0.1515 0.33998 0.0701 0.0
O12 O 0.2071 0.39319 0.89007 0.0
O13 O 0.16958 0.36772 0.93669 0.0
Co14 Co 0.62304 0.20371 0.98707 0.0
O15 O 0.58545 0.18054 0.98258 0.0
O16 O 0.5886 0.22828 0.01802 0.0
C17 C 0.63933 0.19059 0.88221 0.0
O18 O 0.65724 0.2356 0.99646 0.0
Co19 Co 0.68666 0.17229 0.97656 0.0
O20 O 0.70151 0.21462 0.96121 0.0
C21 C 0.65207 0.16943 0.1056 0.0
C22 C 0.57139 0.20487 0.00373 0.0
C23 C 0.68566 0.23763 0.97947 0.0
O24 O 0.63161 0.1878 0.08154 0.0
O25 O 0.67429 0.15906 0.07002 0.0
O26 O 0.61989 0.21277 0.89041 0.0
O27 O 0.64657 0.17593 0.93657 0.0
Co28 Co 0.81527 0.62751 0.99184 0.0
O29 O 0.83915 0.59054 0.98386 0.0
O30 O 0.79118 0.59186 0.01823 0.0
C31 C 0.82881 0.64672 0.88934 0.0
O32 O 0.78294 0.66119 0.00417 0.0
Co33 Co 0.8473 0.69112 0.99083 0.0
O34 O 0.80497 0.7071 0.98561 0.0
C35 C 0.84969 0.65298 0.11408 0.0
C36 C 0.81518 0.57551 0.00352 0.0
C37 C 0.78159 0.69052 0.99718 0.0
O38 O 0.83036 0.63396 0.08805 0.0
O39 O 0.86111 0.67542 0.08101 0.0
O40 O 0.80695 0.6267 0.89433 0.0
O41 O 0.84306 0.65246 0.94498 0.0
Co42 Co 0.3897 0.81388 0.9901 0.0
O43 O 0.42744 0.83678 0.98748 0.0
O44 O 0.42413 0.78818 0.01666 0.0
C45 C 0.37285 0.82997 0.88779 0.0
O46 O 0.3549 0.7823 0.9958 0.0
Co47 Co 0.32679 0.84713 0.98612 0.0
O48 O 0.31152 0.80578 0.96291 0.0
C49 C 0.36246 0.84619 0.11325 0.0
C50 C 0.44144 0.81185 0.005 0.0
C51 C 0.32653 0.78169 0.97759 0.0
O52 O 0.38191 0.82739 0.08683 0.0
O53 O 0.3406 0.85832 0.07944 0.0
O54 O 0.39215 0.80745 0.89217 0.0
O55 O 0.3664 0.84327 0.94422 0.0
Co56 Co 0.20252 0.62629 0.02214 0.0
O57 O 0.1797 0.58866 0.03135 0.0
O58 O 0.22749 0.59129 0.99597 0.0
C59 C 0.18893 0.64552 0.12464 0.0
O60 O 0.23404 0.6606 0.0085 0.0
Co61 Co 0.16922 0.68921 0.02263 0.0
O62 O 0.21117 0.70626 0.02472 0.0
C63 C 0.16692 0.65063 0.90016 0.0
C64 C 0.20413 0.57428 0.01186 0.0
C65 C 0.23483 0.69001 0.01364 0.0
O66 O 0.18679 0.63209 0.92607 0.0
O67 O 0.15521 0.67293 0.93319 0.0
O68 O 0.21126 0.62602 0.11951 0.0
O69 O 0.17431 0.65077 0.06919 0.0
Co70 Co 0.38546 0.20146 0.0148 0.0
O71 O 0.42354 0.17946 0.02419 0.0
O72 O 0.41995 0.22718 0.98873 0.0
C73 C 0.36634 0.1877 0.11724 0.0
O74 O 0.35021 0.23204 1.00119 0.0
Co75 Co 0.32398 0.16557 0.01432 0.0
O76 O 0.30544 0.20686 0.01249 0.0
C77 C 0.36284 0.16486 0.89253 0.0
C78 C 0.43742 0.20413 0.00464 0.0
C79 C 0.32069 0.23137 0.00331 0.0
O80 O 0.38028 0.18561 0.91867 0.0
O81 O 0.34116 0.15197 0.92541 0.0
O82 O 0.38537 0.21041 0.11203 0.0
O83 O 0.36175 0.1727 0.06202 0.0
Co84 Co 0.81343 0.3895 0.01938 0.0
O85 O 0.83803 0.42605 0.02573 0.0
O86 O 0.78998 0.42538 0.99189 0.0
C87 C 0.82697 0.37098 0.12239 0.0
O88 O 0.78032 0.35648 0.00858 0.0
Co89 Co 0.84278 0.32472 0.02387 0.0
O90 O 0.80016 0.31105 0.03972 0.0
C91 C 0.84675 0.36166 0.89845 0.0
C92 C 0.81428 0.44139 0.00588 0.0
C93 C 0.77754 0.32786 0.02337 0.0
O94 O 0.82841 0.3819 0.92357 0.0
O95 O 0.85674 0.33879 0.93241 0.0
O96 O 0.8054 0.39131 0.11703 0.0
O97 O 0.84073 0.36426 0.06666 0.0
Co98 Co 0.62724 0.81497 0.0192 0.0
O99 O 0.58932 0.83765 0.02245 0.0
O100 O 0.59294 0.78914 0.99294 0.0
C101 C 0.64438 0.83098 0.12149 0.0
O102 O 0.66198 0.7834 0.01285 0.0
Co103 Co 0.69021 0.84793 0.02257 0.0
O104 O 0.70549 0.80653 0.04578 0.0
C105 C 0.65423 0.84736 0.89572 0.0
C106 C 0.57547 0.81264 0.00498 0.0
C107 C 0.69033 0.78257 0.03097 0.0
O108 O 0.63474 0.82864 0.9223 0.0
O109 O 0.67625 0.85927 0.92936 0.0
O110 O 0.62512 0.80843 0.11722 0.0
O111 O 0.65066 0.84433 0.06499 0.0
Co112 Co 0.702 0.8908 0.48651 0.0
O113 O 0.67845 0.92819 0.48178 0.0
O114 O 0.72616 0.92549 0.51754 0.0
C115 C 0.68913 0.87449 0.38157 0.0
O116 O 0.73422 0.85684 0.49613 0.0
Co117 Co 0.67126 0.82686 0.47537 0.0
O118 O 0.71378 0.81251 0.45994 0.0
C119 C 0.66758 0.86142 0.60431 0.0
C120 C 0.70261 0.94248 0.50297 0.0
C121 C 0.73659 0.8285 0.47873 0.0
O122 O 0.68601 0.88199 0.58089 0.0
O123 O 0.65753 0.83918 0.56846 0.0
O124 O 0.71114 0.89409 0.38984 0.0
O125 O 0.67453 0.86707 0.43587 0.0
Co126 Co 0.12754 0.70067 0.49057 0.0
O127 O 0.09045 0.67702 0.48263 0.0
O128 O 0.09224 0.72434 0.52098 0.0
C129 C 0.14537 0.6891 0.38583 0.0
O130 O 0.16145 0.7327 0.50364 0.0
Co131 Co 0.19087 0.66818 0.48325 0.0
O132 O 0.20715 0.71046 0.48361 0.0
C133 C 0.15457 0.66447 0.60922 0.0
C134 C 0.07569 0.70066 0.50503 0.0
C135 C 0.19081 0.73383 0.49696 0.0
O136 O 0.13506 0.68379 0.58492 0.0
O137 O 0.1767 0.65356 0.57423 0.0
O138 O 0.12554 0.7109 0.39424 0.0
O139 O 0.15181 0.67368 0.43964 0.0
Co140 Co 0.31247 0.12633 0.48378 0.0
O141 O 0.33642 0.08955 0.47434 0.0
O142 O 0.28938 0.09069 0.51452 0.0
C143 C 0.32324 0.14444 0.37891 0.0
O144 O 0.28024 0.1599 0.4986 0.0
Co145 Co 0.34395 0.1901 0.4759 0.0
O146 O 0.30139 0.20568 0.47445 0.0
C147 C 0.34878 0.15365 0.60167 0.0
C148 C 0.31312 0.07443 0.49728 0.0
C149 C 0.27847 0.18911 0.48997 0.0
O150 O 0.32987 0.13374 0.57754 0.0
O151 O 0.35896 0.17618 0.5668 0.0
O152 O 0.30163 0.12446 0.38782 0.0
O153 O 0.33888 0.15098 0.43231 0.0
Co154 Co 0.88705 0.31356 0.48751 0.0
O155 O 0.92497 0.33597 0.48026 0.0
O156 O 0.92138 0.28849 0.51728 0.0
C157 C 0.86974 0.32633 0.38322 0.0
O158 O 0.85217 0.2826 0.49979 0.0
Co159 Co 0.82461 0.34773 0.48073 0.0
O160 O 0.8072 0.3059 0.47797 0.0
C161 C 0.86063 0.34918 0.60738 0.0
C162 C 0.93883 0.31157 0.5016 0.0
C163 C 0.82289 0.28213 0.49171 0.0
O164 O 0.87995 0.32994 0.58216 0.0
O165 O 0.8387 0.36079 0.5729 0.0
O166 O 0.88886 0.30385 0.3911 0.0
O167 O 0.86368 0.34165 0.43737 0.0
Co168 Co 0.69802 0.12826 0.51919 0.0
O169 O 0.67563 0.09017 0.52287 0.0
O170 O 0.72404 0.09412 0.4926 0.0
C171 C 0.68221 0.1454 0.62175 0.0
O172 O 0.72925 0.16329 0.51225 0.0
Co173 Co 0.66427 0.19088 0.52271 0.0
O174 O 0.70562 0.20671 0.54428 0.0
C175 C 0.66453 0.15454 0.39657 0.0
C176 C 0.7007 0.0765 0.50499 0.0
C177 C 0.72976 0.19175 0.5296 0.0
O178 O 0.68402 0.1356 0.42242 0.0
O179 O 0.65236 0.17638 0.43031 0.0
O180 O 0.70487 0.12626 0.61714 0.0
O181 O 0.6686 0.15148 0.56547 0.0
Co182 Co 0.88977 0.70234 0.52358 0.0
O183 O 0.92646 0.67802 0.53101 0.0
O184 O 0.92542 0.72546 0.49317 0.0
C185 C 0.87209 0.69062 0.62824 0.0
O186 O 0.85641 0.73499 0.51102 0.0
Co187 Co 0.82546 0.67222 0.53193 0.0
O188 O 0.81134 0.71499 0.54428 0.0
C189 C 0.86126 0.66779 0.40483 0.0
C190 C 0.94161 0.70147 0.50891 0.0
C191 C 0.82778 0.73759 0.52601 0.0
O192 O 0.88178 0.6859 0.42937 0.0
O193 O 0.83849 0.65805 0.43959 0.0
O194 O 0.89218 0.71218 0.61994 0.0
O195 O 0.86506 0.67564 0.57421 0.0
Co196 Co 0.31488 0.88892 0.52265 0.0
O197 O 0.33829 0.92622 0.52467 0.0
O198 O 0.2903 0.92344 0.49097 0.0
C199 C 0.32857 0.87366 0.62769 0.0
O200 O 0.28318 0.8542 0.5166 0.0
Co201 Co 0.34824 0.82611 0.5347 0.0
O202 O 0.30625 0.81125 0.55362 0.0
C203 C 0.34961 0.85977 0.4048 0.0
C204 C 0.31414 0.94042 0.50336 0.0
C205 C 0.28237 0.82593 0.53572 0.0
O206 O 0.33029 0.87953 0.42809 0.0
O207 O 0.36106 0.83836 0.4411 0.0
O208 O 0.30635 0.89303 0.6194 0.0
O209 O 0.34305 0.8662 0.57329 0.0
Co210 Co 0.12448 0.31358 0.51939 0.0
O211 O 0.08665 0.3364 0.52201 0.0
O212 O 0.09019 0.28788 0.49242 0.0
C213 C 0.14112 0.32961 0.62197 0.0
O214 O 0.15923 0.28195 0.51341 0.0
Co215 Co 0.18754 0.34637 0.52435 0.0
O216 O 0.20277 0.30489 0.54681 0.0
C217 C 0.15164 0.34673 0.39749 0.0
C218 C 0.07278 0.31146 0.50418 0.0
C219 C 0.18758 0.281 0.53158 0.0
O220 O 0.13237 0.32742 0.42283 0.0
O221 O 0.17351 0.35852 0.4317 0.0
O222 O 0.12194 0.30701 0.61737 0.0
O223 O 0.14773 0.34287 0.56557 0.0
C224 C 0.17735 0.52366 0.01359 0.0
C225 C 0.20498 0.54014 0.01053 0.0
C226 C 0.17694 0.49157 0.01385 0.0
C227 C 0.20416 0.47433 0.01208 0.0
H228 H 0.15565 0.53563 0.01513 0.0
H229 H 0.15494 0.48018 0.01521 0.0
S230 S 0.28284 0.50616 0.0058 0.0
N231 N 0.2605 0.53665 0.00678 0.0
N232 N 0.25972 0.47628 0.00815 0.0
C233 C 0.23206 0.49043 0.01016 0.0
C234 C 0.23247 0.52328 0.009 0.0
C235 C 0.48852 0.17819 0.00478 0.0
C236 C 0.47152 0.20557 0.00344 0.0
C237 C 0.52063 0.17835 0.00586 0.0
C238 C 0.53731 0.20589 0.00679 0.0
H239 H 0.47694 0.15629 0.0045 0.0
H240 H 0.53246 0.15657 0.00601 0.0
S241 S 0.50397 0.28404 0.00513 0.0
N242 N 0.47392 0.26114 0.00362 0.0
N243 N 0.53427 0.26145 0.00669 0.0
C244 C 0.52067 0.23351 0.00627 0.0
C245 C 0.48784 0.23335 0.00417 0.0
C246 C 0.78733 0.49251 0.00403 0.0
C247 C 0.81475 0.47553 0.00322 0.0
C248 C 0.78755 0.52477 0.00568 0.0
C249 C 0.8152 0.54135 0.00562 0.0
H250 H 0.76549 0.48081 0.00441 0.0
H251 H 0.76587 0.53677 0.00612 0.0
S252 S 0.89336 0.50787 0.00298 0.0
N253 N 0.87034 0.47796 1.00222 0.0
N254 N 0.87076 0.53811 0.00457 0.0
C255 C 0.84274 0.5246 0.0044 0.0
C256 C 0.84252 0.49187 0.00339 0.0
C257 C 0.52433 0.8385 0.0052 0.0
C258 C 0.54136 0.81116 0.00318 0.0
C259 C 0.49224 0.83829 0.00674 0.0
C260 C 0.47555 0.81074 0.00721 0.0
H261 H 0.53587 0.86043 0.00544 0.0
H262 H 0.48042 0.86008 0.00767 0.0
S263 S 0.50894 0.73264 0.00298 0.0
N264 N 0.53897 0.75557 1.00184 0.0
N265 N 0.47863 0.7552 0.00544 0.0
C266 C 0.49221 0.78314 0.00564 0.0
C267 C 0.52505 0.78336 0.00329 0.0
C268 C 0.67517 0.02518 0.50265 0.0
C269 C 0.7024 0.0424 0.50284 0.0
C270 C 0.67561 0.99307 0.50358 0.0
C271 C 0.70329 0.9766 0.50583 0.0
H272 H 0.65317 0.03659 0.50149 0.0
H273 H 0.65393 0.98106 0.50267 0.0
S274 S 0.78114 0.01056 0.50784 0.0
N275 N 0.75799 0.04042 0.5055 0.0
N276 N 0.7588 0.98009 0.50818 0.0
C277 C 0.73075 0.99346 0.50656 0.0
C278 C 0.73031 0.02629 0.50468 0.0
C279 C 0.99267 0.72849 0.505 0.0
C280 C 0.97575 0.70105 0.50602 0.0
C281 C 0.02495 0.72833 0.5066 0.0
C282 C 0.04157 0.70071 0.50824 0.0
H283 H 0.98092 0.75031 0.50395 0.0
H284 H 0.03693 0.75001 0.50542 0.0
S285 S 1.00829 0.62253 0.51139 0.0
N286 N 0.97832 0.64547 0.50903 0.0
N287 N 0.03848 0.64519 0.51122 0.0
C288 C 0.02489 0.67315 0.50904 0.0
C289 C 0.99216 0.67332 0.50813 0.0
C290 C 0.2861 0.02337 0.50359 0.0
C291 C 0.3135 0.04029 0.49984 0.0
C292 C 0.28624 0.99108 0.50237 0.0
C293 C 0.31383 0.97448 0.4983 0.0
H294 H 0.26432 0.03512 0.50677 0.0
H295 H 0.26463 0.97907 0.50606 0.0
S296 S 0.39187 1.00777 0.48697 0.0
N297 N 0.36898 0.03772 0.49133 0.0
N298 N 0.36924 0.97759 0.4896 0.0
C299 C 0.34132 0.99117 0.49439 0.0
C300 C 0.34117 0.02388 0.49505 0.0
C301 C 0.02187 0.33767 0.50043 0.0
C302 C 0.0387 0.31019 0.50152 0.0
C303 C 0.98977 0.33771 0.50122 0.0
C304 C 0.97291 0.3103 0.50417 0.0
H305 H 0.03358 0.35949 0.49877 0.0
H306 H 0.97809 0.35956 0.49975 0.0
S307 S 1.00574 0.23197 0.50857 0.0
N308 N 0.03594 0.25466 0.50571 0.0
N309 N 0.97558 0.25476 0.5081 0.0
C310 C 0.98936 0.28259 0.50571 0.0
C311 C 0.0222 0.28253 0.504 0.0
C312 C 0.25806 0.27994 0.92911 0.0
C313 C 0.25676 0.30546 0.97254 0.0
C314 C 0.28033 0.25724 0.93695 0.0
C315 C 0.30257 0.25914 0.98804 0.0
H316 H 0.24073 0.27663 0.89058 0.0
H317 H 0.27928 0.23726 0.90457 0.0
S318 S 0.31156 0.32244 0.11097 0.0
N319 N 0.2814 0.33239 0.06549 0.0
N320 N 0.32366 0.28954 0.07955 0.0
C321 C 0.30314 0.28547 0.02878 0.0
C322 C 0.28017 0.30873 0.02108 0.0
C323 C 0.73351 0.29737 0.06683 0.0
C324 C 0.74816 0.31199 0.01227 0.0
C325 C 0.71066 0.2753 0.05575 0.0
C326 C 0.70236 0.2666 0.98974 0.0
H327 H 0.74103 0.30173 0.11819 0.0
H328 H 0.7012 0.26326 0.09893 0.0
S329 S 0.73287 0.29901 0.83015 0.0
N330 N 0.75143 0.3176 0.89025 0.0
N331 N 0.7094 0.27525 0.86942 0.0
C332 C 0.71581 0.28205 0.93499 0.0
C333 C 0.7385 0.30502 0.94629 0.0
C334 C 0.73157 0.71324 0.96075 0.0
C335 C 0.75295 0.70705 0.01218 0.0
C336 C 0.70898 0.73595 0.96941 0.0
C337 C 0.70761 0.75344 0.02923 0.0
H338 H 0.73361 0.70196 0.91213 0.0
H339 H 0.6942 0.74152 0.92715 0.0
S340 S 0.7563 0.7435 0.18119 0.0
N341 N 0.76949 0.71802 0.12677 0.0
N342 N 0.72762 0.7609 0.14264 0.0
C343 C 0.7276 0.74593 0.08234 0.0
C344 C 0.75018 0.7227 0.07385 0.0
C345 C 0.28569 0.71191 0.04722 0.0
C346 C 0.2632 0.70683 0.99756 0.0
C347 C 0.30844 0.73443 0.03793 0.0
C348 C 0.30895 0.75272 0.97916 0.0
H349 H 0.28447 0.69992 0.09515 0.0
H350 H 0.32409 0.73918 0.0791 0.0
S351 S 0.25734 0.74548 0.83113 0.0
N352 N 0.24473 0.71957 0.88529 0.0
N353 N 0.28699 0.76188 0.86806 0.0
C354 C 0.28786 0.7462 0.92749 0.0
C355 C 0.26504 0.72328 0.93671 0.0
C356 C 0.79724 0.78205 0.56734 0.0
C357 C 0.8115 0.76665 0.51335 0.0
C358 C 0.77498 0.80468 0.55543 0.0
C359 C 0.7657 0.81198 0.48919 0.0
H360 H 0.80205 0.77532 0.61905 0.0
H361 H 0.76325 0.81473 0.59835 0.0
S362 S 0.79705 0.77927 0.33072 0.0
N363 N 0.81617 0.76164 0.39144 0.0
N364 N 0.77348 0.80321 0.36914 0.0
C365 C 0.78078 0.79776 0.43489 0.0
C366 C 0.80394 0.77531 0.44697 0.0
C367 C 0.2491 0.78437 0.58029 0.0
C368 C 0.25351 0.80799 0.53275 0.0
C369 C 0.2267 0.76189 0.57079 0.0
C370 C 0.20766 0.76214 0.51359 0.0
H371 H 0.26428 0.78221 0.62339 0.0
H372 H 0.22549 0.7431 0.60652 0.0
S373 S 0.2078 0.82013 0.37686 0.0
N374 N 0.23526 0.83144 0.42864 0.0
N375 N 0.19302 0.7889 0.41096 0.0
C376 C 0.21022 0.78666 0.46797 0.0
C377 C 0.23314 0.80975 0.47764 0.0
C378 C 0.22773 0.21167 0.45819 0.0
C379 C 0.25011 0.20563 0.50759 0.0
C380 C 0.20523 0.2343 0.4688 0.0
C381 C 0.20494 0.2519 0.52854 0.0
H382 H 0.22886 0.20031 0.40952 0.0
H383 H 0.18963 0.23973 0.42792 0.0
S384 S 0.25663 0.24241 0.67583 0.0
N385 N 0.26884 0.21688 0.62038 0.0
N386 N 0.22714 0.2596 0.63992 0.0
C387 C 0.22599 0.24454 0.57978 0.0
C388 C 0.24848 0.22138 0.56933 0.0
C389 C 0.80007 0.23154 0.45917 0.0
C390 C 0.80537 0.25425 0.5082 0.0
C391 C 0.77719 0.2092 0.46888 0.0
C392 C 0.75871 0.20935 0.52737 0.0
H393 H 0.81228 0.23222 0.41145 0.0
H394 H 0.77241 0.19326 0.42826 0.0
S395 S 0.76625 0.2619 0.67367 0.0
N396 N 0.79253 0.27373 0.61955 0.0
N397 N 0.74948 0.23226 0.63749 0.0
C398 C 0.76532 0.23076 0.57835 0.0
C399 C 0.78865 0.25313 0.56877 0.0
C400 C 0.13705 0.333 0.27869 0.0
C401 C 0.15076 0.35369 0.32379 0.0
C402 C 0.14043 0.33631 0.2085 0.0
C403 C 0.15765 0.3605 0.1802 0.0
H404 H 0.12485 0.31319 0.29761 0.0
H405 H 0.1304 0.31892 0.17644 0.0
S406 S 0.19374 0.42393 0.27628 0.0
N407 N 0.17896 0.40149 0.33504 0.0
N408 N 0.18538 0.40761 0.20329 0.0
C409 C 0.16969 0.38256 0.22468 0.0
C410 C 0.16623 0.37918 0.29628 0.0
C411 C 0.67965 0.14138 0.2777 0.0
C412 C 0.65795 0.15356 0.32272 0.0
C413 C 0.6767 0.14537 0.20754 0.0
C414 C 0.65188 0.16167 0.17922 0.0
H415 H 0.69996 0.13009 0.29677 0.0
H416 H 0.69486 0.13664 0.17562 0.0
S417 S 0.58589 0.19329 0.2749 0.0
N418 N 0.60865 0.17907 0.33369 0.0
N419 N 0.60315 0.1866 0.20208 0.0
C420 C 0.62884 0.17197 0.22352 0.0
C421 C 0.63187 0.16792 0.29505 0.0
C422 C 0.8377 0.64282 0.30281 0.0
C423 C 0.86202 0.65973 0.33138 0.0
C424 C 0.83501 0.63881 0.23262 0.0
C425 C 0.85647 0.6516 0.18782 0.0
H426 H 0.81968 0.63365 0.33453 0.0
H427 H 0.81498 0.62712 0.21335 0.0
S428 S 0.92739 0.69303 0.23634 0.0
N429 N 0.91018 0.68582 0.309 0.0
N430 N 0.90513 0.67828 0.17733 0.0
C431 C 0.88215 0.66649 0.21575 0.0
C432 C 0.88494 0.67055 0.28733 0.0
C433 C 0.33821 0.87608 0.28589 0.0
C434 C 0.35685 0.85969 0.33109 0.0
C435 C 0.34132 0.87264 0.21575 0.0
C436 C 0.36324 0.85265 0.18737 0.0
H437 H 0.32006 0.8907 0.30459 0.0
H438 H 0.32547 0.88503 0.18374 0.0
S439 S 0.4212 0.80823 0.28346 0.0
N440 N 0.40069 0.82554 0.34226 0.0
N441 N 0.40632 0.81897 0.21045 0.0
C442 C 0.38349 0.83775 0.23186 0.0
C443 C 0.38034 0.84127 0.30355 0.0
C444 C 0.17793 0.63935 0.71138 0.0
C445 C 0.15378 0.65655 0.6828 0.0
C446 C 0.18085 0.63563 0.78162 0.0
C447 C 0.15978 0.64895 0.82653 0.0
H448 H 0.19572 0.62978 0.6796 0.0
H449 H 0.20079 0.62372 0.80077 0.0
S450 S 0.08918 0.69112 0.77807 0.0
N451 N 0.10606 0.68338 0.70531 0.0
N452 N 0.11145 0.67632 0.83709 0.0
C453 C 0.13415 0.66406 0.79862 0.0
C454 C 0.13118 0.66786 0.72697 0.0
C455 C 0.37318 0.17748 0.70402 0.0
C456 C 0.35704 0.15275 0.675 0.0
C457 C 0.37699 0.18012 0.77427 0.0
C458 C 0.36481 0.15817 0.81874 0.0
H459 H 0.38175 0.19591 0.67264 0.0
H460 H 0.38798 0.20048 0.79385 0.0
S461 S 0.32596 0.08597 0.76876 0.0
N462 N 0.33263 0.10366 0.69642 0.0
N463 N 0.33985 0.10853 0.82824 0.0
C464 C 0.35088 0.13203 0.79028 0.0
C465 C 0.34698 0.12935 0.71862 0.0
C466 C 0.83577 0.37898 0.77986 0.0
C467 C 0.85449 0.36266 0.82504 0.0
C468 C 0.83915 0.37579 0.70961 0.0
C469 C 0.86143 0.35617 0.68132 0.0
H470 H 0.81727 0.39313 0.79865 0.0
H471 H 0.82315 0.3879 0.67744 0.0
S472 S 0.9198 0.3124 0.7778 0.0
N473 N 0.89884 0.32925 0.83646 0.0
N474 N 0.90502 0.32315 0.70472 0.0
C475 C 0.88184 0.34154 0.72596 0.0
C476 C 0.87839 0.34479 0.7976 0.0
C477 C 0.67478 0.87461 0.79349 0.0
C478 C 0.65334 0.85401 0.82159 0.0
C479 C 0.67797 0.87821 0.72337 0.0
C480 C 0.65993 0.86136 0.67787 0.0
H481 H 0.6902 0.88737 0.82575 0.0
H482 H 0.6958 0.89327 0.70491 0.0
S483 S 0.59684 0.80824 0.7246 0.0
N484 N 0.61122 0.81927 0.79784 0.0
N485 N 0.61704 0.82613 0.66609 0.0
C486 C 0.63685 0.84234 0.70511 0.0
C487 C 0.63359 0.83867 0.77678 0.0
C488 C 0.83641 0.65972 0.69999 0.0
C489 C 0.8594 0.68219 0.69537 0.0
C490 C 0.8259 0.64918 0.76292 0.0
C491 C 0.83813 0.6605 0.82379 0.0
H492 H 0.82682 0.64967 0.65461 0.0
H493 H 0.80868 0.63137 0.76368 0.0
S494 S 0.89729 0.72113 0.83964 0.0
N495 N 0.89281 0.71673 0.75727 0.0
N496 N 0.87341 0.69673 0.87535 0.0
C497 C 0.86041 0.68374 0.81992 0.0
C498 C 0.87093 0.69464 0.75579 0.0
C499 C 0.3595 0.83795 0.69888 0.0
C500 C 0.33755 0.86145 0.69471 0.0
C501 C 0.37015 0.82737 0.76156 0.0
C502 C 0.35947 0.84005 0.82254 0.0
H503 H 0.36894 0.82787 0.65336 0.0
H504 H 0.38741 0.80958 0.76201 0.0
S505 S 0.30086 0.90123 0.83943 0.0
N506 N 0.30451 0.89623 0.75703 0.0
N507 N 0.32478 0.87676 0.87475 0.0
C508 C 0.33695 0.86309 0.81913 0.0
C509 C 0.32591 0.87366 0.75525 0.0
C510 C 0.14269 0.32802 0.74852 0.0
C511 C 0.15402 0.34006 0.68741 0.0
C512 C 0.15294 0.33904 0.81118 0.0
C513 C 0.17513 0.3623 0.81522 0.0
H514 H 0.12527 0.31041 0.74811 0.0
H515 H 0.14308 0.32941 0.85678 0.0
S516 S 0.21326 0.40057 0.67024 0.0
N517 N 0.18941 0.37604 0.63507 0.0
N518 N 0.20892 0.39627 0.75267 0.0
C519 C 0.18731 0.37393 0.75459 0.0
C520 C 0.17668 0.36294 0.69076 0.0
C521 C 0.67494 0.15951 0.81078 0.0
C522 C 0.65147 0.18151 0.81506 0.0
C523 C 0.68529 0.14861 0.74805 0.0
C524 C 0.67239 0.15905 0.68706 0.0
H525 H 0.68516 0.15022 0.85631 0.0
H526 H 0.70305 0.13132 0.74758 0.0
S527 S 0.61126 0.21771 0.67031 0.0
N528 N 0.61655 0.21437 0.75268 0.0
N529 N 0.63555 0.19362 0.63498 0.0
C530 C 0.64941 0.18163 0.69055 0.0
C531 C 0.63909 0.19294 0.75447 0.0
C532 C 0.83482 0.35833 0.3119 0.0
C533 C 0.85723 0.33525 0.31632 0.0
C534 C 0.82442 0.36905 0.24902 0.0
C535 C 0.8362 0.3573 0.18808 0.0
H536 H 0.82559 0.36865 0.35737 0.0
H537 H 0.80761 0.38727 0.24831 0.0
S538 S 0.89406 0.29536 0.17186 0.0
N539 N 0.88977 0.29992 0.25422 0.0
N540 N 0.87066 0.32025 0.13634 0.0
C541 C 0.858 0.33358 0.19183 0.0
C542 C 0.86838 0.32249 0.25584 0.0
C543 C 0.64759 0.82809 0.24777 0.0
C544 C 0.65796 0.84096 0.18669 0.0
C545 C 0.6584 0.83858 0.3104 0.0
C546 C 0.68021 0.86221 0.31449 0.0
H547 H 0.63044 0.81021 0.24745 0.0
H548 H 0.64915 0.82836 0.35599 0.0
S549 S 0.71616 0.90248 0.16945 0.0
N550 N 0.69228 0.87796 0.13429 0.0
N551 N 0.71283 0.89728 0.25187 0.0
C552 C 0.69158 0.87459 0.25382 0.0
C553 C 0.68038 0.8641 0.18998 0.0
C554 C 0.18133 0.6585 0.31406 0.0
C555 C 0.1581 0.68073 0.31868 0.0
C556 C 0.19191 0.64805 0.2511 0.0
C557 C 0.17949 0.65921 0.19022 0.0
H558 H 0.19107 0.64858 0.35945 0.0
H559 H 0.20934 0.63043 0.25033 0.0
S560 S 0.1195 0.71907 0.1744 0.0
N561 N 0.12416 0.7148 0.25676 0.0
N562 N 0.14366 0.69495 0.13868 0.0
C563 C 0.15691 0.68217 0.19411 0.0
C564 C 0.14634 0.693 0.25824 0.0
C565 C 0.35306 0.18075 0.30658 0.0
C566 C 0.33132 0.1571 0.31157 0.0
C567 C 0.36341 0.19124 0.24348 0.0
C568 C 0.35266 0.17829 0.18282 0.0
H569 H 0.36269 0.1909 0.35181 0.0
H570 H 0.38066 0.20902 0.24246 0.0
S571 S 0.29408 0.11708 0.16792 0.0
N572 N 0.29807 0.12221 0.25021 0.0
N573 N 0.31777 0.14155 0.13181 0.0
C574 C 0.33016 0.1553 0.18703 0.0
C575 C 0.3194 0.14482 0.25133 0.0
loop_
_geom_bond_atom_site_label_1
_geom_bond_atom_site_label_2
_geom_bond_distance
_geom_bond_site_symmetry_2
_ccdc_geom_bond_type
Co0 O1 2.216 . S
Co0 O2 2.091 1_556 S
Co0 O4 2.004 . S
Co0 O10 2.021 1_556 S
Co0 O12 2.137 . S
Co0 O13 2.244 . S
O1 Co0 2.216 . S
O1 C8 1.247 1_556 S
O2 Co0 2.091 1_554 S
O2 C8 1.261 . S
C3 O12 1.247 . S
C3 O13 1.272 . S
O4 Co0 2.004 . S
O4 C9 1.259 . S
Co5 O6 2.061 1_556 S
Co5 O11 2.049 1_556 S
Co5 O13 2.136 . S
O6 Co5 2.061 1_554 S
O6 C9 1.235 1_554 S
C7 O10 1.238 . S
C7 O11 1.241 . S
C8 O1 1.247 1_554 S
C8 O2 1.261 . S
C9 O4 1.259 . S
C9 O6 1.235 1_556 S
O10 Co0 2.021 1_554 S
O10 C7 1.238 . S
O11 Co5 2.049 1_554 S
O11 C7 1.241 . S
O12 Co0 2.137 . S
O12 C3 1.247 . S
O13 Co0 2.244 . S
O13 C3 1.272 . S
O13 Co5 2.136 . S
Co14 O15 2.216 . S
Co14 O16 2.091 1_556 S
Co14 O18 2.004 . S
Co14 O24 2.021 1_556 S
Co14 O26 2.137 . S
Co14 O27 2.244 . S
O15 Co14 2.216 . S
O15 C22 1.247 1_556 S
O16 Co14 2.091 1_554 S
O16 C22 1.261 . S
C17 O26 1.247 . S
C17 O27 1.272 . S
O18 Co14 2.004 . S
O18 C23 1.259 . S
Co19 O20 2.061 1_556 S
Co19 O25 2.049 1_556 S
Co19 O27 2.136 . S
O20 Co19 2.061 1_554 S
O20 C23 1.235 1_554 S
C21 O24 1.238 . S
C21 O25 1.241 . S
C22 O15 1.247 1_554 S
C22 O16 1.261 . S
C23 O18 1.259 . S
C23 O20 1.235 1_556 S
O24 Co14 2.021 1_554 S
O24 C21 1.238 . S
O25 Co19 2.049 1_554 S
O25 C21 1.241 . S
O26 Co14 2.137 . S
O26 C17 1.247 . S
O27 Co14 2.244 . S
O27 C17 1.272 . S
O27 Co19 2.136 . S
Co28 O29 2.216 . S
Co28 O30 2.091 1_556 S
Co28 O32 2.004 . S
Co28 O38 2.021 1_556 S
Co28 O40 2.137 . S
Co28 O41 2.244 . S
O29 Co28 2.216 . S
O29 C36 1.247 1_556 S
O30 Co28 2.091 1_554 S
O30 C36 1.261 . S
C31 O40 1.247 . S
C31 O41 1.272 . S
O32 Co28 2.004 . S
O32 C37 1.259 . S
Co33 O34 2.061 1_556 S
Co33 O39 2.049 1_556 S
Co33 O41 2.136 . S
O34 Co33 2.061 1_554 S
O34 C37 1.235 1_554 S
C35 O38 1.238 . S
C35 O39 1.241 . S
C36 O29 1.247 1_554 S
C36 O30 1.261 . S
C37 O32 1.259 . S
C37 O34 1.235 1_556 S
O38 Co28 2.021 1_554 S
O38 C35 1.238 . S
O39 Co33 2.049 1_554 S
O39 C35 1.241 . S
O40 Co28 2.137 . S
O40 C31 1.247 . S
O41 Co28 2.244 . S
O41 C31 1.272 . S
O41 Co33 2.136 . S
Co42 O43 2.216 . S
Co42 O44 2.091 1_556 S
Co42 O46 2.004 . S
Co42 O52 2.021 1_556 S
Co42 O54 2.137 . S
Co42 O55 2.244 . S
O43 Co42 2.216 . S
O43 C50 1.247 1_556 S
O44 Co42 2.091 1_554 S
O44 C50 1.261 . S
C45 O54 1.247 . S
C45 O55 1.272 . S
O46 Co42 2.004 . S
O46 C51 1.259 . S
Co47 O48 2.061 1_556 S
Co47 O53 2.049 1_556 S
Co47 O55 2.136 . S
O48 Co47 2.061 1_554 S
O48 C51 1.235 1_554 S
C49 O52 1.238 . S
C49 O53 1.241 . S
C50 O43 1.247 1_554 S
C50 O44 1.261 . S
C51 O46 1.259 . S
C51 O48 1.235 1_556 S
O52 Co42 2.021 1_554 S
O52 C49 1.238 . S
O53 Co47 2.049 1_554 S
O53 C49 1.241 . S
O54 Co42 2.137 . S
O54 C45 1.247 . S
O55 Co42 2.244 . S
O55 C45 1.272 . S
O55 Co47 2.136 . S
Co56 O57 2.216 . S
Co56 O58 2.092 . S
Co56 O60 2.004 . S
Co56 O66 2.021 1_554 S
Co56 O68 2.137 . S
Co56 O69 2.244 . S
O57 Co56 2.216 . S
O57 C64 1.247 . S
O58 Co56 2.092 . S
O58 C64 1.261 . S
C59 O68 1.247 . S
C59 O69 1.272 . S
O60 Co56 2.004 . S
O60 C65 1.259 . S
Co61 O62 2.061 1_554 S
Co61 O67 2.052 1_554 S
Co61 O69 2.135 . S
O62 Co61 2.061 1_556 S
O62 C65 1.235 1_556 S
C63 O66 1.238 . S
C63 O67 1.241 . S
C64 O57 1.247 . S
C64 O58 1.261 . S
C65 O60 1.259 . S
C65 O62 1.235 1_554 S
O66 Co56 2.021 1_556 S
O66 C63 1.238 . S
O67 Co61 2.052 1_556 S
O67 C63 1.241 . S
O68 Co56 2.137 . S
O68 C59 1.247 . S
O69 Co56 2.244 . S
O69 C59 1.272 . S
O69 Co61 2.135 . S
Co70 O71 2.216 . S
Co70 O72 2.092 . S
Co70 O74 2.004 . S
Co70 O80 2.021 1_554 S
Co70 O82 2.137 . S
Co70 O83 2.244 . S
O71 Co70 2.216 . S
O71 C78 1.247 . S
O72 Co70 2.092 . S
O72 C78 1.261 . S
C73 O82 1.247 . S
C73 O83 1.272 . S
O74 Co70 2.004 . S
O74 C79 1.259 . S
Co75 O76 2.061 1_554 S
Co75 O81 2.052 1_554 S
Co75 O83 2.135 . S
O76 Co75 2.061 1_556 S
O76 C79 1.235 1_556 S
C77 O80 1.238 . S
C77 O81 1.241 . S
C78 O71 1.247 . S
C78 O72 1.261 . S
C79 O74 1.259 . S
C79 O76 1.235 1_554 S
O80 Co70 2.021 1_556 S
O80 C77 1.238 . S
O81 Co75 2.052 1_556 S
O81 C77 1.241 . S
O82 Co70 2.137 . S
O82 C73 1.247 . S
O83 Co70 2.244 . S
O83 C73 1.272 . S
O83 Co75 2.135 . S
Co84 O85 2.216 . S
Co84 O86 2.092 . S
Co84 O88 2.004 . S
Co84 O94 2.021 1_554 S
Co84 O96 2.137 . S
Co84 O97 2.244 . S
O85 Co84 2.216 . S
O85 C92 1.247 . S
O86 Co84 2.092 . S
O86 C92 1.261 . S
C87 O96 1.247 . S
C87 O97 1.272 . S
O88 Co84 2.004 . S
O88 C93 1.259 . S
Co89 O90 2.061 1_554 S
Co89 O95 2.052 1_554 S
Co89 O97 2.135 . S
O90 Co89 2.061 1_556 S
O90 C93 1.235 1_556 S
C91 O94 1.238 . S
C91 O95 1.241 . S
C92 O85 1.247 . S
C92 O86 1.261 . S
C93 O88 1.259 . S
C93 O90 1.235 1_554 S
O94 Co84 2.021 1_556 S
O94 C91 1.238 . S
O95 Co89 2.052 1_556 S
O95 C91 1.241 . S
O96 Co84 2.137 . S
O96 C87 1.247 . S
O97 Co84 2.244 . S
O97 C87 1.272 . S
O97 Co89 2.135 . S
Co98 O99 2.216 . S
Co98 O100 2.092 . S
Co98 O102 2.004 . S
Co98 O108 2.021 1_554 S
Co98 O110 2.137 . S
Co98 O111 2.244 . S
O99 Co98 2.216 . S
O99 C106 1.247 . S
O100 Co98 2.092 . S
O100 C106 1.261 . S
C101 O110 1.247 . S
C101 O111 1.272 . S
O102 Co98 2.004 . S
O102 C107 1.259 . S
Co103 O104 2.061 1_554 S
Co103 O109 2.052 1_554 S
Co103 O111 2.135 . S
O104 Co103 2.061 1_556 S
O104 C107 1.235 1_556 S
C105 O108 1.238 . S
C105 O109 1.241 . S
C106 O99 1.247 . S
C106 O100 1.261 . S
C107 O102 1.259 . S
C107 O104 1.235 1_554 S
O108 Co98 2.021 1_556 S
O108 C105 1.238 . S
O109 Co103 2.052 1_556 S
O109 C105 1.241 . S
O110 Co98 2.137 . S
O110 C101 1.247 . S
O111 Co98 2.244 . S
O111 C101 1.272 . S
O111 Co103 2.135 . S
Co112 O113 2.216 . S
Co112 O114 2.091 . S
Co112 O116 2.004 . S
Co112 O122 2.021 . S
Co112 O124 2.137 . S
Co112 O125 2.244 . S
O113 Co112 2.216 . S
O113 C120 1.247 . S
O114 Co112 2.091 . S
O114 C120 1.261 . S
C115 O124 1.247 . S
C115 O125 1.272 . S
O116 Co112 2.004 . S
O116 C121 1.259 . S
Co117 O118 2.061 . S
Co117 O123 2.052 . S
Co117 O125 2.135 . S
O118 Co117 2.061 . S
O118 C121 1.235 . S
C119 O122 1.238 . S
C119 O123 1.241 . S
C120 O113 1.247 . S
C120 O114 1.261 . S
C121 O116 1.259 . S
C121 O118 1.235 . S
O122 Co112 2.021 . S
O122 C119 1.238 . S
O123 Co117 2.052 . S
O123 C119 1.241 . S
O124 Co112 2.137 . S
O124 C115 1.247 . S
O125 Co112 2.244 . S
O125 C115 1.272 . S
O125 Co117 2.135 . S
Co126 O127 2.216 . S
Co126 O128 2.091 . S
Co126 O130 2.004 . S
Co126 O136 2.021 . S
Co126 O138 2.137 . S
Co126 O139 2.244 . S
O127 Co126 2.216 . S
O127 C134 1.247 . S
O128 Co126 2.091 . S
O128 C134 1.261 . S
C129 O138 1.247 . S
C129 O139 1.272 . S
O130 Co126 2.004 . S
O130 C135 1.259 . S
Co131 O132 2.061 . S
Co131 O137 2.052 . S
Co131 O139 2.135 . S
O132 Co131 2.061 . S
O132 C135 1.235 . S
C133 O136 1.238 . S
C133 O137 1.241 . S
C134 O127 1.247 . S
C134 O128 1.261 . S
C135 O130 1.259 . S
C135 O132 1.235 . S
O136 Co126 2.021 . S
O136 C133 1.238 . S
O137 Co131 2.052 . S
O137 C133 1.241 . S
O138 Co126 2.137 . S
O138 C129 1.247 . S
O139 Co126 2.244 . S
O139 C129 1.272 . S
O139 Co131 2.135 . S
Co140 O141 2.216 . S
Co140 O142 2.091 . S
Co140 O144 2.004 . S
Co140 O150 2.021 . S
Co140 O152 2.137 . S
Co140 O153 2.244 . S
O141 Co140 2.216 . S
O141 C148 1.247 . S
O142 Co140 2.091 . S
O142 C148 1.261 . S
C143 O152 1.247 . S
C143 O153 1.272 . S
O144 Co140 2.004 . S
O144 C149 1.259 . S
Co145 O146 2.061 . S
Co145 O151 2.052 . S
Co145 O153 2.135 . S
O146 Co145 2.061 . S
O146 C149 1.235 . S
C147 O150 1.238 . S
C147 O151 1.241 . S
C148 O141 1.247 . S
C148 O142 1.261 . S
C149 O144 1.259 . S
C149 O146 1.235 . S
O150 Co140 2.021 . S
O150 C147 1.238 . S
O151 Co145 2.052 . S
O151 C147 1.241 . S
O152 Co140 2.137 . S
O152 C143 1.247 . S
O153 Co140 2.244 . S
O153 C143 1.272 . S
O153 Co145 2.135 . S
Co154 O155 2.216 . S
Co154 O156 2.091 . S
Co154 O158 2.004 . S
Co154 O164 2.021 . S
Co154 O166 2.137 . S
Co154 O167 2.244 . S
O155 Co154 2.216 . S
O155 C162 1.247 . S
O156 Co154 2.091 . S
O156 C162 1.261 . S
C157 O166 1.247 . S
C157 O167 1.272 . S
O158 Co154 2.004 . S
O158 C163 1.259 . S
Co159 O160 2.061 . S
Co159 O165 2.052 . S
Co159 O167 2.135 . S
O160 Co159 2.061 . S
O160 C163 1.235 . S
C161 O164 1.238 . S
C161 O165 1.241 . S
C162 O155 1.247 . S
C162 O156 1.261 . S
C163 O158 1.259 . S
C163 O160 1.235 . S
O164 Co154 2.021 . S
O164 C161 1.238 . S
O165 Co159 2.052 . S
O165 C161 1.241 . S
O166 Co154 2.137 . S
O166 C157 1.247 . S
O167 Co154 2.244 . S
O167 C157 1.272 . S
O167 Co159 2.135 . S
Co168 O169 2.216 . S
Co168 O170 2.091 . S
Co168 O172 2.004 . S
Co168 O178 2.021 . S
Co168 O180 2.137 . S
Co168 O181 2.244 . S
O169 Co168 2.216 . S
O169 C176 1.247 . S
O170 Co168 2.091 . S
O170 C176 1.261 . S
C171 O180 1.247 . S
C171 O181 1.272 . S
O172 Co168 2.004 . S
O172 C177 1.259 . S
Co173 O174 2.061 . S
Co173 O179 2.052 . S
Co173 O181 2.135 . S
O174 Co173 2.061 . S
O174 C177 1.235 . S
C175 O178 1.238 . S
C175 O179 1.241 . S
C176 O169 1.247 . S
C176 O170 1.261 . S
C177 O172 1.259 . S
C177 O174 1.235 . S
O178 Co168 2.021 . S
O178 C175 1.238 . S
O179 Co173 2.052 . S
O179 C175 1.241 . S
O180 Co168 2.137 . S
O180 C171 1.247 . S
O181 Co168 2.244 . S
O181 C171 1.272 . S
O181 Co173 2.135 . S
Co182 O183 2.216 . S
Co182 O184 2.091 . S
Co182 O186 2.004 . S
Co182 O192 2.021 . S
Co182 O194 2.137 . S
Co182 O195 2.244 . S
O183 Co182 2.216 . S
O183 C190 1.247 . S
O184 Co182 2.091 . S
O184 C190 1.261 . S
C185 O194 1.247 . S
C185 O195 1.272 . S
O186 Co182 2.004 . S
O186 C191 1.259 . S
Co187 O188 2.061 . S
Co187 O193 2.052 . S
Co187 O195 2.135 . S
O188 Co187 2.061 . S
O188 C191 1.235 . S
C189 O192 1.238 . S
C189 O193 1.241 . S
C190 O183 1.247 . S
C190 O184 1.261 . S
C191 O186 1.259 . S
C191 O188 1.235 . S
O192 Co182 2.021 . S
O192 C189 1.238 . S
O193 Co187 2.052 . S
O193 C189 1.241 . S
O194 Co182 2.137 . S
O194 C185 1.247 . S
O195 Co182 2.244 . S
O195 C185 1.272 . S
O195 Co187 2.135 . S
Co196 O197 2.216 . S
Co196 O198 2.091 . S
Co196 O200 2.004 . S
Co196 O206 2.021 . S
Co196 O208 2.137 . S
Co196 O209 2.244 . S
O197 Co196 2.216 . S
O197 C204 1.247 . S
O198 Co196 2.091 . S
O198 C204 1.261 . S
C199 O208 1.247 . S
C199 O209 1.272 . S
O200 Co196 2.004 . S
O200 C205 1.259 . S
Co201 O202 2.061 . S
Co201 O207 2.052 . S
Co201 O209 2.135 . S
O202 Co201 2.061 . S
O202 C205 1.235 . S
C203 O206 1.238 . S
C203 O207 1.241 . S
C204 O197 1.247 . S
C204 O198 1.261 . S
C205 O200 1.259 . S
C205 O202 1.235 . S
O206 Co196 2.021 . S
O206 C203 1.238 . S
O207 Co201 2.052 . S
O207 C203 1.241 . S
O208 Co196 2.137 . S
O208 C199 1.247 . S
O209 Co196 2.244 . S
O209 C199 1.272 . S
O209 Co201 2.135 . S
Co210 O211 2.216 . S
Co210 O212 2.091 . S
Co210 O214 2.004 . S
Co210 O220 2.021 . S
Co210 O222 2.137 . S
Co210 O223 2.244 . S
O211 Co210 2.216 . S
O211 C218 1.247 . S
O212 Co210 2.091 . S
O212 C218 1.261 . S
C213 O222 1.247 . S
C213 O223 1.272 . S
O214 Co210 2.004 . S
O214 C219 1.259 . S
Co215 O216 2.061 . S
Co215 O221 2.052 . S
Co215 O223 2.135 . S
O216 Co215 2.061 . S
O216 C219 1.235 . S
C217 O220 1.238 . S
C217 O221 1.241 . S
C218 O211 1.247 . S
C218 O212 1.261 . S
C219 O214 1.259 . S
C219 O216 1.235 . S
O220 Co210 2.021 . S
O220 C217 1.238 . S
O221 Co215 2.052 . S
O221 C217 1.241 . S
O222 Co210 2.137 . S
O222 C213 1.247 . S
O223 Co210 2.244 . S
O223 C213 1.272 . S
O223 Co215 2.135 . S
C224 C225 1.370 . S
C224 C226 1.419 . S
C224 H228 0.930 . S
C225 C224 1.370 . S
C225 C234 1.428 1_556 S
C226 C224 1.419 . S
C226 C227 1.363 1_556 S
C226 H229 0.929 . S
C227 C226 1.363 1_554 S
C227 C233 1.428 . S
H228 C224 0.930 . S
H229 C226 0.929 . S
S230 N231 1.613 . S
S230 N232 1.610 . S
N231 S230 1.613 . S
N231 C234 1.350 . S
N232 S230 1.610 . S
N232 C233 1.351 . S
C233 C227 1.428 . S
C233 N232 1.351 . S
C233 C234 1.434 . S
C234 C225 1.428 1_554 S
C234 N231 1.350 . S
C234 C233 1.434 . S
C235 C236 1.372 . S
C235 C237 1.419 . S
C235 H239 0.930 . S
C236 C235 1.372 . S
C236 C245 1.425 1_556 S
C237 C235 1.419 . S
C237 C238 1.363 1_556 S
C237 H240 0.929 . S
C238 C237 1.363 1_554 S
C238 C244 1.428 . S
H239 C235 0.930 . S
H240 C237 0.929 . S
S241 N242 1.613 . S
S241 N243 1.610 . S
N242 S241 1.613 . S
N242 C245 1.350 . S
N243 S241 1.610 . S
N243 C244 1.351 . S
C244 C238 1.428 . S
C244 N243 1.351 . S
C244 C245 1.434 . S
C245 C236 1.425 1_554 S
C245 N242 1.350 . S
C245 C244 1.434 . S
C246 C247 1.369 1_556 S
C246 C248 1.419 . S
C246 H250 0.930 . S
C247 C246 1.369 1_554 S
C247 C256 1.429 . S
C248 C246 1.419 . S
C248 C249 1.363 1_556 S
C248 H251 0.929 . S
C249 C248 1.363 1_554 S
C249 C255 1.428 . S
H250 C246 0.930 . S
H251 C248 0.929 . S
S252 N253 1.613 . S
S252 N254 1.610 . S
N253 S252 1.613 . S
N253 C256 1.350 . S
N254 S252 1.610 . S
N254 C255 1.351 . S
C255 C249 1.428 . S
C255 N254 1.351 . S
C255 C256 1.434 . S
C256 C247 1.429 . S
C256 N253 1.350 . S
C256 C255 1.434 . S
C257 C258 1.369 1_554 S
C257 C259 1.419 . S
C257 H261 0.930 . S
C258 C257 1.369 1_556 S
C258 C267 1.429 . S
C259 C257 1.419 . S
C259 C260 1.363 . S
C259 H262 0.929 . S
C260 C259 1.363 . S
C260 C266 1.428 1_554 S
H261 C257 0.930 . S
H262 C259 0.929 . S
S263 N264 1.613 . S
S263 N265 1.610 . S
N264 S263 1.613 . S
N264 C267 1.350 . S
N265 S263 1.610 . S
N265 C266 1.351 . S
C266 C260 1.428 1_556 S
C266 N265 1.351 . S
C266 C267 1.434 . S
C267 C258 1.429 . S
C267 N264 1.350 . S
C267 C266 1.434 . S
C268 C269 1.369 . S
C268 C270 1.419 1_545 S
C268 H272 0.930 . S
C269 C268 1.369 . S
C269 C278 1.429 . S
C270 C268 1.419 1_565 S
C270 C271 1.363 . S
C270 H273 0.929 . S
C271 C270 1.363 . S
C271 C277 1.428 . S
H272 C268 0.930 . S
H273 C270 0.929 . S
S274 N275 1.590 1_565 S
S274 N276 1.633 . S
N275 S274 1.590 1_545 S
N275 C278 1.350 . S
N276 S274 1.633 . S
N276 C277 1.351 . S
C277 C271 1.428 . S
C277 N276 1.351 . S
C277 C278 1.434 1_565 S
C278 C269 1.429 . S
C278 N275 1.350 . S
C278 C277 1.434 1_545 S
C279 C280 1.369 . S
C279 C281 1.419 1_655 S
C279 H283 0.930 . S
C280 C279 1.369 . S
C280 C289 1.429 . S
C281 C279 1.419 1_455 S
C281 C282 1.363 . S
C281 H284 0.929 . S
C282 C281 1.363 . S
C282 C288 1.428 . S
H283 C279 0.930 . S
H284 C281 0.929 . S
S285 N286 1.613 . S
S285 N287 1.610 1_655 S
N286 S285 1.613 . S
N286 C289 1.350 . S
N287 S285 1.610 1_455 S
N287 C288 1.351 . S
C288 C282 1.428 . S
C288 N287 1.351 . S
C288 C289 1.434 1_455 S
C289 C280 1.429 . S
C289 N286 1.350 . S
C289 C288 1.434 1_655 S
C290 C291 1.369 . S
C290 C292 1.419 1_545 S
C290 H294 0.930 . S
C291 C290 1.369 . S
C291 C300 1.429 . S
C292 C290 1.419 1_565 S
C292 C293 1.363 . S
C292 H295 0.929 . S
C293 C292 1.363 . S
C293 C299 1.428 . S
H294 C290 0.930 . S
H295 C292 0.929 . S
S296 N297 1.613 . S
S296 N298 1.610 1_545 S
N297 S296 1.613 . S
N297 C300 1.350 . S
N298 S296 1.610 1_565 S
N298 C299 1.351 . S
C299 C293 1.428 . S
C299 N298 1.351 . S
C299 C300 1.434 1_565 S
C300 C291 1.429 . S
C300 N297 1.350 . S
C300 C299 1.434 1_545 S
C301 C302 1.369 . S
C301 C303 1.419 1_455 S
C301 H305 0.930 . S
C302 C301 1.369 . S
C302 C311 1.429 . S
C303 C301 1.419 1_655 S
C303 C304 1.363 . S
C303 H306 0.929 . S
C304 C303 1.363 . S
C304 C310 1.428 . S
H305 C301 0.930 . S
H306 C303 0.929 . S
S307 N308 1.615 1_655 S
S307 N309 1.608 . S
N308 S307 1.615 1_455 S
N308 C311 1.350 . S
N309 S307 1.608 . S
N309 C310 1.351 . S
C310 C304 1.428 . S
C310 N309 1.351 . S
C310 C311 1.434 1_655 S
C311 C302 1.429 . S
C311 N308 1.350 . S
C311 C310 1.434 1_455 S
C312 C313 1.369 . S
C312 C314 1.419 . S
C312 H316 0.930 . S
C313 C312 1.369 . S
C313 C322 1.429 1_556 S
C314 C312 1.419 . S
C314 C315 1.363 1_556 S
C314 H317 0.929 . S
C315 C314 1.363 1_554 S
C315 C321 1.428 . S
H316 C312 0.930 . S
H317 C314 0.929 . S
S318 N319 1.613 . S
S318 N320 1.610 . S
N319 S318 1.613 . S
N319 C322 1.350 . S
N320 S318 1.610 . S
N320 C321 1.351 . S
C321 C315 1.428 . S
C321 N320 1.351 . S
C321 C322 1.434 . S
C322 C313 1.429 1_554 S
C322 N319 1.350 . S
C322 C321 1.434 . S
C323 C324 1.369 . S
C323 C325 1.419 . S
C323 H327 0.930 . S
C324 C323 1.369 . S
C324 C333 1.429 1_554 S
C325 C323 1.419 . S
C325 C326 1.354 1_554 S
C325 H328 0.929 . S
C326 C325 1.354 1_556 S
C326 C332 1.437 . S
H327 C323 0.930 . S
H328 C325 0.929 . S
S329 N330 1.613 . S
S329 N331 1.610 . S
N330 S329 1.613 . S
N330 C333 1.350 . S
N331 S329 1.610 . S
N331 C332 1.351 . S
C332 C326 1.437 . S
C332 N331 1.351 . S
C332 C333 1.434 . S
C333 C324 1.429 1_556 S
C333 N330 1.350 . S
C333 C332 1.434 . S
C334 C335 1.362 1_556 S
C334 C336 1.419 . S
C334 H338 0.930 . S
C335 C334 1.362 1_554 S
C335 C344 1.436 . S
C336 C334 1.419 . S
C336 C337 1.363 1_556 S
C336 H339 0.929 . S
C337 C336 1.363 1_554 S
C337 C343 1.428 . S
H338 C334 0.930 . S
H339 C336 0.929 . S
S340 N341 1.613 . S
S340 N342 1.610 . S
N341 S340 1.613 . S
N341 C344 1.350 . S
N342 S340 1.610 . S
N342 C343 1.351 . S
C343 C337 1.428 . S
C343 N342 1.351 . S
C343 C344 1.434 . S
C344 C335 1.436 . S
C344 N341 1.350 . S
C344 C343 1.434 . S
C345 C346 1.369 . S
C345 C347 1.419 . S
C345 H349 0.930 . S
C346 C345 1.369 . S
C346 C355 1.429 1_554 S
C347 C345 1.419 . S
C347 C348 1.353 1_554 S
C347 H350 0.929 . S
C348 C347 1.353 1_556 S
C348 C354 1.438 . S
H349 C345 0.930 . S
H350 C347 0.929 . S
S351 N352 1.613 . S
S351 N353 1.610 . S
N352 S351 1.613 . S
N352 C355 1.350 . S
N353 S351 1.610 . S
N353 C354 1.351 . S
C354 C348 1.438 . S
C354 N353 1.351 . S
C354 C355 1.434 . S
C355 C346 1.429 1_556 S
C355 N352 1.350 . S
C355 C354 1.434 . S
C356 C357 1.369 . S
C356 C358 1.419 . S
C356 H360 0.930 . S
C357 C356 1.369 . S
C357 C366 1.429 . S
C358 C356 1.419 . S
C358 C359 1.363 . S
C358 H361 0.929 . S
C359 C358 1.363 . S
C359 C365 1.428 . S
H360 C356 0.930 . S
H361 C358 0.929 . S
S362 N363 1.613 . S
S362 N364 1.610 . S
N363 S362 1.613 . S
N363 C366 1.350 . S
N364 S362 1.610 . S
N364 C365 1.351 . S
C365 C359 1.428 . S
C365 N364 1.351 . S
C365 C366 1.434 . S
C366 C357 1.429 . S
C366 N363 1.350 . S
C366 C365 1.434 . S
C367 C368 1.369 . S
C367 C369 1.419 . S
C367 H371 0.930 . S
C368 C367 1.369 . S
C368 C377 1.429 . S
C369 C367 1.419 . S
C369 C370 1.363 . S
C369 H372 0.929 . S
C370 C369 1.363 . S
C370 C376 1.428 . S
H371 C367 0.930 . S
H372 C369 0.929 . S
S373 N374 1.613 . S
S373 N375 1.610 . S
N374 S373 1.613 . S
N374 C377 1.350 . S
N375 S373 1.610 . S
N375 C376 1.351 . S
C376 C370 1.428 . S
C376 N375 1.351 . S
C376 C377 1.434 . S
C377 C368 1.429 . S
C377 N374 1.350 . S
C377 C376 1.434 . S
C378 C379 1.369 . S
C378 C380 1.419 . S
C378 H382 0.930 . S
C379 C378 1.369 . S
C379 C388 1.429 . S
C380 C378 1.419 . S
C380 C381 1.363 . S
C380 H383 0.929 . S
C381 C380 1.363 . S
C381 C387 1.428 . S
H382 C378 0.930 . S
H383 C380 0.929 . S
S384 N385 1.613 . S
S384 N386 1.610 . S
N385 S384 1.613 . S
N385 C388 1.350 . S
N386 S384 1.610 . S
N386 C387 1.351 . S
C387 C381 1.428 . S
C387 N386 1.351 . S
C387 C388 1.434 . S
C388 C379 1.429 . S
C388 N385 1.350 . S
C388 C387 1.434 . S
C389 C390 1.369 . S
C389 C391 1.419 . S
C389 H393 0.930 . S
C390 C389 1.369 . S
C390 C399 1.429 . S
C391 C389 1.419 . S
C391 C392 1.363 . S
C391 H394 0.929 . S
C392 C391 1.363 . S
C392 C398 1.428 . S
H393 C389 0.930 . S
H394 C391 0.929 . S
S395 N396 1.613 . S
S395 N397 1.610 . S
N396 S395 1.613 . S
N396 C399 1.350 . S
N397 S395 1.610 . S
N397 C398 1.351 . S
C398 C392 1.428 . S
C398 N397 1.351 . S
C398 C399 1.434 . S
C399 C390 1.429 . S
C399 N396 1.350 . S
C399 C398 1.434 . S
C400 C401 1.369 . S
C400 C402 1.419 . S
C400 H404 0.930 . S
C401 C400 1.369 . S
C401 C410 1.429 . S
C402 C400 1.419 . S
C402 C403 1.363 . S
C402 H405 0.929 . S
C403 C402 1.363 . S
C403 C409 1.428 . S
H404 C400 0.930 . S
H405 C402 0.929 . S
S406 N407 1.613 . S
S406 N408 1.610 . S
N407 S406 1.613 . S
N407 C410 1.350 . S
N408 S406 1.610 . S
N408 C409 1.351 . S
C409 C403 1.428 . S
C409 N408 1.351 . S
C409 C410 1.434 . S
C410 C401 1.429 . S
C410 N407 1.350 . S
C410 C409 1.434 . S
C411 C412 1.369 . S
C411 C413 1.419 . S
C411 H415 0.930 . S
C412 C411 1.369 . S
C412 C421 1.429 . S
C413 C411 1.419 . S
C413 C414 1.363 . S
C413 H416 0.929 . S
C414 C413 1.363 . S
C414 C420 1.428 . S
H415 C411 0.930 . S
H416 C413 0.929 . S
S417 N418 1.613 . S
S417 N419 1.610 . S
N418 S417 1.613 . S
N418 C421 1.350 . S
N419 S417 1.610 . S
N419 C420 1.351 . S
C420 C414 1.428 . S
C420 N419 1.351 . S
C420 C421 1.434 . S
C421 C412 1.429 . S
C421 N418 1.350 . S
C421 C420 1.434 . S
C422 C423 1.369 . S
C422 C424 1.419 . S
C422 H426 0.930 . S
C423 C422 1.369 . S
C423 C432 1.429 . S
C424 C422 1.419 . S
C424 C425 1.363 . S
C424 H427 0.929 . S
C425 C424 1.363 . S
C425 C431 1.428 . S
H426 C422 0.930 . S
H427 C424 0.929 . S
S428 N429 1.613 . S
S428 N430 1.610 . S
N429 S428 1.613 . S
N429 C432 1.350 . S
N430 S428 1.610 . S
N430 C431 1.351 . S
C431 C425 1.428 . S
C431 N430 1.351 . S
C431 C432 1.434 . S
C432 C423 1.429 . S
C432 N429 1.350 . S
C432 C431 1.434 . S
C433 C434 1.369 . S
C433 C435 1.419 . S
C433 H437 0.930 . S
C434 C433 1.369 . S
C434 C443 1.429 . S
C435 C433 1.419 . S
C435 C436 1.363 . S
C435 H438 0.929 . S
C436 C435 1.363 . S
C436 C442 1.428 . S
H437 C433 0.930 . S
H438 C435 0.929 . S
S439 N440 1.613 . S
S439 N441 1.610 . S
N440 S439 1.613 . S
N440 C443 1.350 . S
N441 S439 1.610 . S
N441 C442 1.351 . S
C442 C436 1.428 . S
C442 N441 1.351 . S
C442 C443 1.434 . S
C443 C434 1.429 . S
C443 N440 1.350 . S
C443 C442 1.434 . S
C444 C445 1.369 . S
C444 C446 1.419 . S
C444 H448 0.930 . S
C445 C444 1.369 . S
C445 C454 1.429 . S
C446 C444 1.419 . S
C446 C447 1.363 . S
C446 H449 0.929 . S
C447 C446 1.363 . S
C447 C453 1.428 . S
H448 C444 0.930 . S
H449 C446 0.929 . S
S450 N451 1.613 . S
S450 N452 1.610 . S
N451 S450 1.613 . S
N451 C454 1.350 . S
N452 S450 1.610 . S
N452 C453 1.351 . S
C453 C447 1.428 . S
C453 N452 1.351 . S
C453 C454 1.434 . S
C454 C445 1.429 . S
C454 N451 1.350 . S
C454 C453 1.434 . S
C455 C456 1.369 . S
C455 C457 1.419 . S
C455 H459 0.930 . S
C456 C455 1.369 . S
C456 C465 1.429 . S
C457 C455 1.419 . S
C457 C458 1.363 . S
C457 H460 0.929 . S
C458 C457 1.363 . S
C458 C464 1.428 . S
H459 C455 0.930 . S
H460 C457 0.929 . S
S461 N462 1.613 . S
S461 N463 1.610 . S
N462 S461 1.613 . S
N462 C465 1.350 . S
N463 S461 1.610 . S
N463 C464 1.351 . S
C464 C458 1.428 . S
C464 N463 1.351 . S
C464 C465 1.434 . S
C465 C456 1.429 . S
C465 N462 1.350 . S
C465 C464 1.434 . S
C466 C467 1.369 . S
C466 C468 1.419 . S
C466 H470 0.930 . S
C467 C466 1.369 . S
C467 C476 1.429 . S
C468 C466 1.419 . S
C468 C469 1.363 . S
C468 H471 0.929 . S
C469 C468 1.363 . S
C469 C475 1.428 . S
H470 C466 0.930 . S
H471 C468 0.929 . S
S472 N473 1.613 . S
S472 N474 1.610 . S
N473 S472 1.613 . S
N473 C476 1.350 . S
N474 S472 1.610 . S
N474 C475 1.351 . S
C475 C469 1.428 . S
C475 N474 1.351 . S
C475 C476 1.434 . S
C476 C467 1.429 . S
C476 N473 1.350 . S
C476 C475 1.434 . S
C477 C478 1.369 . S
C477 C479 1.419 . S
C477 H481 0.930 . S
C478 C477 1.369 . S
C478 C487 1.429 . S
C479 C477 1.419 . S
C479 C480 1.363 . S
C479 H482 0.929 . S
C480 C479 1.363 . S
C480 C486 1.428 . S
H481 C477 0.930 . S
H482 C479 0.929 . S
S483 N484 1.613 . S
S483 N485 1.610 . S
N484 S483 1.613 . S
N484 C487 1.350 . S
N485 S483 1.610 . S
N485 C486 1.351 . S
C486 C480 1.428 . S
C486 N485 1.351 . S
C486 C487 1.434 . S
C487 C478 1.429 . S
C487 N484 1.350 . S
C487 C486 1.434 . S
C488 C489 1.369 . S
C488 C490 1.419 . S
C488 H492 0.930 . S
C489 C488 1.369 . S
C489 C498 1.429 . S
C490 C488 1.419 . S
C490 C491 1.363 . S
C490 H493 0.929 . S
C491 C490 1.363 . S
C491 C497 1.428 . S
H492 C488 0.930 . S
H493 C490 0.929 . S
S494 N495 1.613 . S
S494 N496 1.610 . S
N495 S494 1.613 . S
N495 C498 1.350 . S
N496 S494 1.610 . S
N496 C497 1.351 . S
C497 C491 1.428 . S
C497 N496 1.351 . S
C497 C498 1.434 . S
C498 C489 1.429 . S
C498 N495 1.350 . S
C498 C497 1.434 . S
C499 C500 1.369 . S
C499 C501 1.419 . S
C499 H503 0.930 . S
C500 C499 1.369 . S
C500 C509 1.429 . S
C501 C499 1.419 . S
C501 C502 1.363 . S
C501 H504 0.929 . S
C502 C501 1.363 . S
C502 C508 1.428 . S
H503 C499 0.930 . S
H504 C501 0.929 . S
S505 N506 1.613 . S
S505 N507 1.610 . S
N506 S505 1.613 . S
N506 C509 1.350 . S
N507 S505 1.610 . S
N507 C508 1.351 . S
C508 C502 1.428 . S
C508 N507 1.351 . S
C508 C509 1.434 . S
C509 C500 1.429 . S
C509 N506 1.350 . S
C509 C508 1.434 . S
C510 C511 1.369 . S
C510 C512 1.419 . S
C510 H514 0.930 . S
C511 C510 1.369 . S
C511 C520 1.429 . S
C512 C510 1.419 . S
C512 C513 1.363 . S
C512 H515 0.929 . S
C513 C512 1.363 . S
C513 C519 1.428 . S
H514 C510 0.930 . S
H515 C512 0.929 . S
S516 N517 1.613 . S
S516 N518 1.610 . S
N517 S516 1.613 . S
N517 C520 1.350 . S
N518 S516 1.610 . S
N518 C519 1.351 . S
C519 C513 1.428 . S
C519 N518 1.351 . S
C519 C520 1.434 . S
C520 C511 1.429 . S
C520 N517 1.350 . S
C520 C519 1.434 . S
C521 C522 1.369 . S
C521 C523 1.419 . S
C521 H525 0.930 . S
C522 C521 1.369 . S
C522 C531 1.429 . S
C523 C521 1.419 . S
C523 C524 1.363 . S
C523 H526 0.929 . S
C524 C523 1.363 . S
C524 C530 1.428 . S
H525 C521 0.930 . S
H526 C523 0.929 . S
S527 N528 1.613 . S
S527 N529 1.610 . S
N528 S527 1.613 . S
N528 C531 1.350 . S
N529 S527 1.610 . S
N529 C530 1.351 . S
C530 C524 1.428 . S
C530 N529 1.351 . S
C530 C531 1.434 . S
C531 C522 1.429 . S
C531 N528 1.350 . S
C531 C530 1.434 . S
C532 C533 1.369 . S
C532 C534 1.419 . S
C532 H536 0.930 . S
C533 C532 1.369 . S
C533 C542 1.429 . S
C534 C532 1.419 . S
C534 C535 1.363 . S
C534 H537 0.929 . S
C535 C534 1.363 . S
C535 C541 1.428 . S
H536 C532 0.930 . S
H537 C534 0.929 . S
S538 N539 1.613 . S
S538 N540 1.610 . S
N539 S538 1.613 . S
N539 C542 1.350 . S
N540 S538 1.610 . S
N540 C541 1.351 . S
C541 C535 1.428 . S
C541 N540 1.351 . S
C541 C542 1.434 . S
C542 C533 1.429 . S
C542 N539 1.350 . S
C542 C541 1.434 . S
C543 C544 1.369 . S
C543 C545 1.419 . S
C543 H547 0.930 . S
C544 C543 1.369 . S
C544 C553 1.429 . S
C545 C543 1.419 . S
C545 C546 1.363 . S
C545 H548 0.929 . S
C546 C545 1.363 . S
C546 C552 1.428 . S
H547 C543 0.930 . S
H548 C545 0.929 . S
S549 N550 1.613 . S
S549 N551 1.610 . S
N550 S549 1.613 . S
N550 C553 1.350 . S
N551 S549 1.610 . S
N551 C552 1.351 . S
C552 C546 1.428 . S
C552 N551 1.351 . S
C552 C553 1.434 . S
C553 C544 1.429 . S
C553 N550 1.350 . S
C553 C552 1.434 . S
C554 C555 1.369 . S
C554 C556 1.419 . S
C554 H558 0.930 . S
C555 C554 1.369 . S
C555 C564 1.429 . S
C556 C554 1.419 . S
C556 C557 1.363 . S
C556 H559 0.929 . S
C557 C556 1.363 . S
C557 C563 1.428 . S
H558 C554 0.930 . S
H559 C556 0.929 . S
S560 N561 1.613 . S
S560 N562 1.610 . S
N561 S560 1.613 . S
N561 C564 1.350 . S
N562 S560 1.610 . S
N562 C563 1.351 . S
C563 C557 1.428 . S
C563 N562 1.351 . S
C563 C564 1.434 . S
C564 C555 1.429 . S
C564 N561 1.350 . S
C564 C563 1.434 . S
C565 C566 1.369 . S
C565 C567 1.419 . S
C565 H569 0.930 . S
C566 C565 1.369 . S
C566 C575 1.429 . S
C567 C565 1.419 . S
C567 C568 1.363 . S
C567 H570 0.929 . S
C568 C567 1.363 . S
C568 C574 1.428 . S
H569 C565 0.930 . S
H570 C567 0.929 . S
S571 N572 1.613 . S
S571 N573 1.610 . S
N572 S571 1.613 . S
N572 C575 1.350 . S
N573 S571 1.610 . S
N573 C574 1.351 . S
C574 C568 1.428 . S
C574 N573 1.351 . S
C574 C575 1.434 . S
C575 C566 1.429 . S
C575 N572 1.350 . S
C575 C574 1.434 . S
C225 C64 1.440 1_556 S
C227 C8 1.441 . S
C236 C78 1.440 1_556 S
C238 C22 1.441 . S
C247 C92 1.440 . S
C249 C36 1.442 . S
C258 C106 1.442 1_556 S
C260 C50 1.440 . S
C269 C176 1.441 . S
C271 C120 1.440 . S
C280 C190 1.440 . S
C282 C134 1.442 . S
C291 C148 1.440 . S
C293 C204 1.442 . S
C302 C218 1.441 . S
C304 C162 1.440 . S
C313 C9 1.474 . S
C315 C79 1.473 . S
C324 C93 1.471 . S
C326 C23 1.471 . S
C335 C37 1.470 1_554 S
C337 C107 1.470 . S
C346 C65 1.472 . S
C348 C51 1.471 . S
C357 C191 1.472 . S
C359 C121 1.472 . S
C368 C205 1.474 . S
C370 C135 1.473 . S
C379 C149 1.470 . S
C381 C219 1.470 . S
C390 C163 1.469 . S
C392 C177 1.469 . S
C401 C217 1.420 . S
C403 C7 1.421 . S
C412 C175 1.421 . S
C414 C21 1.421 . S
C423 C189 1.420 . S
C425 C35 1.417 . S
C434 C203 1.415 . S
C436 C49 1.418 . S
C445 C133 1.418 . S
C447 C63 1.416 . S
C456 C147 1.421 . S
C458 C77 1.418 . S
C467 C91 1.415 . S
C469 C161 1.417 . S
C478 C105 1.419 . S
C480 C119 1.416 . S
C489 C185 1.409 . S
C491 C31 1.412 . S
C500 C199 1.409 . S
C502 C45 1.413 . S
C511 C213 1.414 . S
C513 C3 1.410 . S
C522 C17 1.413 . S
C524 C171 1.413 . S
C533 C157 1.409 . S
C535 C87 1.413 . S
C544 C101 1.414 . S
C546 C115 1.412 . S
C555 C129 1.413 . S
C557 C59 1.412 . S
C566 C143 1.412 . S
C568 C73 1.413 . S
