# Generated by pormake.
# Topology ghw, (5)-cn, num edge types: 1
# Building blocks:
#     Node 0, Type 0, BuildingBlock: XOMCOT_clean_sbu_1, # of connection points: 5
#     Node 1, Type 0, BuildingBlock: XOMCOT_clean_sbu_1, # of connection points: 5
#     Node 2, Type 0, BuildingBlock: XOMCOT_clean_sbu_1, # of connection points: 5
#     Node 3, Type 0, BuildingBlock: XOMCOT_clean_sbu_1, # of connection points: 5
#     Node 4, Type 0, BuildingBlock: XOMCOT_clean_sbu_1, # of connection points: 5
#     Node 5, Type 0, BuildingBlock: XOMCOT_clean_sbu_1, # of connection points: 5
#     Node 6, Type 0, BuildingBlock: XOMCOT_clean_sbu_1, # of connection points: 5
#     Node 7, Type 0, BuildingBlock: XOMCOT_clean_sbu_1, # of connection points: 5
#     Node 8, Type 0, BuildingBlock: XOMCOT_clean_sbu_1, # of connection points: 5
#     Node 9, Type 0, BuildingBlock: XOMCOT_clean_sbu_1, # of connection points: 5
#     Node 10, Type 0, BuildingBlock: XOMCOT_clean_sbu_1, # of connection points: 5
#     Node 11, Type 0, BuildingBlock: XOMCOT_clean_sbu_1, # of connection points: 5
#     Node 12, Type 0, BuildingBlock: XOMCOT_clean_sbu_1, # of connection points: 5
#     Node 13, Type 0, BuildingBlock: XOMCOT_clean_sbu_1, # of connection points: 5
#     Node 14, Type 0, BuildingBlock: XOMCOT_clean_sbu_1, # of connection points: 5
#     Node 15, Type 0, BuildingBlock: XOMCOT_clean_sbu_1, # of connection points: 5
#     Edge 16, Type (0, 0), BuildingBlock: KIFKEQ_clean_linker_1, # of connection points: 2
#     Edge 17, Type (0, 0), BuildingBlock: KIFKEQ_clean_linker_1, # of connection points: 2
#     Edge 18, Type (0, 0), BuildingBlock: KIFKEQ_clean_linker_1, # of connection points: 2
#     Edge 19, Type (0, 0), BuildingBlock: KIFKEQ_clean_linker_1, # of connection points: 2
#     Edge 20, Type (0, 0), BuildingBlock: KIFKEQ_clean_linker_1, # of connection points: 2
#     Edge 21, Type (0, 0), BuildingBlock: KIFKEQ_clean_linker_1, # of connection points: 2
#     Edge 22, Type (0, 0), BuildingBlock: KIFKEQ_clean_linker_1, # of connection points: 2
#     Edge 23, Type (0, 0), BuildingBlock: KIFKEQ_clean_linker_1, # of connection points: 2
#     Edge 24, Type (0, 0), BuildingBlock: KIFKEQ_clean_linker_1, # of connection points: 2
#     Edge 25, Type (0, 0), BuildingBlock: KIFKEQ_clean_linker_1, # of connection points: 2
#     Edge 26, Type (0, 0), BuildingBlock: KIFKEQ_clean_linker_1, # of connection points: 2
#     Edge 27, Type (0, 0), BuildingBlock: KIFKEQ_clean_linker_1, # of connection points: 2
#     Edge 28, Type (0, 0), BuildingBlock: KIFKEQ_clean_linker_1, # of connection points: 2
#     Edge 29, Type (0, 0), BuildingBlock: KIFKEQ_clean_linker_1, # of connection points: 2
#     Edge 30, Type (0, 0), BuildingBlock: KIFKEQ_clean_linker_1, # of connection points: 2
#     Edge 31, Type (0, 0), BuildingBlock: KIFKEQ_clean_linker_1, # of connection points: 2
#     Edge 32, Type (0, 0), BuildingBlock: KIFKEQ_clean_linker_1, # of connection points: 2
#     Edge 33, Type (0, 0), BuildingBlock: KIFKEQ_clean_linker_1, # of connection points: 2
#     Edge 34, Type (0, 0), BuildingBlock: KIFKEQ_clean_linker_1, # of connection points: 2
#     Edge 35, Type (0, 0), BuildingBlock: KIFKEQ_clean_linker_1, # of connection points: 2
#     Edge 36, Type (0, 0), BuildingBlock: KIFKEQ_clean_linker_1, # of connection points: 2
#     Edge 37, Type (0, 0), BuildingBlock: KIFKEQ_clean_linker_1, # of connection points: 2
#     Edge 38, Type (0, 0), BuildingBlock: KIFKEQ_clean_linker_1, # of connection points: 2
#     Edge 39, Type (0, 0), BuildingBlock: KIFKEQ_clean_linker_1, # of connection points: 2
#     Edge 40, Type (0, 0), BuildingBlock: KIFKEQ_clean_linker_1, # of connection points: 2
#     Edge 41, Type (0, 0), BuildingBlock: KIFKEQ_clean_linker_1, # of connection points: 2
#     Edge 42, Type (0, 0), BuildingBlock: KIFKEQ_clean_linker_1, # of connection points: 2
#     Edge 43, Type (0, 0), BuildingBlock: KIFKEQ_clean_linker_1, # of connection points: 2
#     Edge 44, Type (0, 0), BuildingBlock: KIFKEQ_clean_linker_1, # of connection points: 2
#     Edge 45, Type (0, 0), BuildingBlock: KIFKEQ_clean_linker_1, # of connection points: 2
#     Edge 46, Type (0, 0), BuildingBlock: KIFKEQ_clean_linker_1, # of connection points: 2
#     Edge 47, Type (0, 0), BuildingBlock: KIFKEQ_clean_linker_1, # of connection points: 2
#     Edge 48, Type (0, 0), BuildingBlock: KIFKEQ_clean_linker_1, # of connection points: 2
#     Edge 49, Type (0, 0), BuildingBlock: KIFKEQ_clean_linker_1, # of connection points: 2
#     Edge 50, Type (0, 0), BuildingBlock: KIFKEQ_clean_linker_1, # of connection points: 2
#     Edge 51, Type (0, 0), BuildingBlock: KIFKEQ_clean_linker_1, # of connection points: 2
#     Edge 52, Type (0, 0), BuildingBlock: KIFKEQ_clean_linker_1, # of connection points: 2
#     Edge 53, Type (0, 0), BuildingBlock: KIFKEQ_clean_linker_1, # of connection points: 2
#     Edge 54, Type (0, 0), BuildingBlock: KIFKEQ_clean_linker_1, # of connection points: 2
#     Edge 55, Type (0, 0), BuildingBlock: KIFKEQ_clean_linker_1, # of connection points: 2
# Relax obj value: 0.211
# Max RMSD: 0.215
# Mean RMSD: 0.215
data_MOF--net-ghw--node1-XOMCOT_clean_sbu_1--edge1-KIFKEQ_clean_linker_1
_symmetry_space_group_name_H-M    P1
_symmetry_Int_Tables_number       1
_symmetry_cell_setting            triclinic
loop_
_symmetry_equiv_pos_as_xyz
'x, y, z'
_cell_length_a     33.686351
_cell_length_b     41.175965
_cell_length_c     34.966287
_cell_angle_alpha  90.162155
_cell_angle_beta   92.979235
_cell_angle_gamma 90.013008
loop_
_atom_site_label
_atom_site_type_symbol
_atom_site_fract_x
_atom_site_fract_y
_atom_site_fract_z
_atom_type_partial_charge
C0 C 0.17501 0.09047 0.39166 0.0
C1 C 0.21441 0.08253 0.38866 0.0
N2 N 0.23642 0.10951 0.3951 0.0
N3 N 0.17208 0.12227 0.40031 0.0
C4 C 0.21 0.13325 0.40199 0.0
H5 H 0.15012 0.07409 0.38732 0.0
Co6 Co 0.12509 0.14526 0.40636 0.0
C7 C 0.15 0.20864 0.4416 0.0
O8 O 0.1223 0.22285 0.4197 0.0
N9 N 0.07755 0.16792 0.41311 0.0
C10 C 0.02989 0.1937 0.44288 0.0
C11 C 0.0658 0.17815 0.44756 0.0
C12 C 0.04731 0.17631 0.38817 0.0
N13 N 0.0185 0.19245 0.40555 0.0
O14 O 0.11252 0.11803 0.44963 0.0
H15 H 0.08252 0.17462 0.47448 0.0
H16 H 0.04578 0.17058 0.358 0.0
O17 O 0.1548 0.17774 0.43934 0.0
C18 C 0.08754 0.09709 0.4356 0.0
O19 O 0.07932 0.09776 0.39846 0.0
N20 N 0.13383 0.16781 0.36075 0.0
C21 C 0.13381 0.19092 0.28563 0.0
C22 C 0.15759 0.20577 0.31497 0.0
C23 C 0.15789 0.19333 0.3524 0.0
C24 C 0.11291 0.15201 0.33204 0.0
C25 C 0.11173 0.16344 0.2947 0.0
H26 H 0.17778 0.20402 0.37406 0.0
H27 H 0.09576 0.13074 0.33851 0.0
H28 H 0.21814 0.15819 0.40823 0.0
H29 H 0.22585 0.05885 0.38146 0.0
H30 H 0.01281 0.20418 0.46522 0.0
H31 H 0.17628 0.22633 0.30891 0.0
H32 H 0.09294 0.15102 0.27326 0.0
C33 C 0.09738 0.12105 0.91671 0.0
C34 C 0.06069 0.10778 0.92217 0.0
N35 N 0.03252 0.12834 0.90786 0.0
N36 N 0.09266 0.14981 0.8989 0.0
C37 C 0.05287 0.15366 0.89385 0.0
H38 H 0.12571 0.1109 0.92643 0.0
Co39 Co 0.13439 0.17786 0.89023 0.0
C40 C 0.09728 0.23615 0.85321 0.0
O41 O 0.12119 0.25431 0.87514 0.0
N42 N 0.17779 0.20527 0.88156 0.0
C43 C 0.22416 0.23193 0.85097 0.0
C44 C 0.18662 0.21876 0.8478 0.0
C45 C 0.21112 0.20957 0.90419 0.0
N46 N 0.23954 0.22584 0.88644 0.0
O47 O 0.14988 0.15113 0.84768 0.0
H48 H 0.16807 0.21717 0.82167 0.0
H49 H 0.21627 0.19865 0.93196 0.0
O50 O 0.09883 0.20511 0.85629 0.0
C51 C 0.17872 0.13286 0.8595 0.0
O52 O 0.19053 0.13468 0.89586 0.0
N53 N 0.12223 0.20096 0.9348 0.0
C54 C 0.11335 0.22548 1.00837 0.0
C55 C 0.08553 0.23314 0.97849 0.0
C56 C 0.09035 0.22035 0.9417 0.0
C57 C 0.14718 0.1913 0.96446 0.0
C58 C 0.1442 0.20406 1.00102 0.0
H59 H 0.06764 0.2251 0.91954 0.0
H60 H 0.16895 0.17263 0.95991 0.0
H61 H 0.03915 0.17497 0.88099 0.0
H62 H 0.05539 0.08532 0.93702 0.0
H63 H 0.2403 0.24226 0.82793 0.0
H64 H 0.06003 0.24821 0.98373 0.0
H65 H 0.16474 0.19591 0.02388 0.0
C66 C 0.84509 0.9536 0.66312 0.0
C67 C 0.80879 0.96777 0.66824 0.0
N68 N 0.7814 0.95366 0.64402 0.0
N69 N 0.841 0.9307 0.63559 0.0
C70 C 0.802 0.93165 0.62413 0.0
H71 H 0.87235 0.95852 0.67983 0.0
Co72 Co 0.88073 0.90116 0.62252 0.0
C73 C 0.82247 0.84703 0.60122 0.0
O74 O 0.83014 0.83224 0.63394 0.0
N75 N 0.92047 0.87179 0.60839 0.0
C76 C 0.95713 0.82781 0.59837 0.0
C77 C 0.92025 0.83892 0.60704 0.0
C78 C 0.95786 0.87992 0.59999 0.0
N79 N 0.9806 0.85369 0.59382 0.0
O80 O 0.89054 0.9266 0.57725 0.0
H81 H 0.89601 0.82347 0.61392 0.0
H82 H 0.96919 0.90449 0.60101 0.0
O83 O 0.84036 0.87367 0.59385 0.0
C84 C 0.91254 0.95069 0.5881 0.0
O85 O 0.92182 0.95397 0.62485 0.0
N86 N 0.87604 0.87978 0.67053 0.0
C87 C 0.87944 0.86554 0.74907 0.0
C88 C 0.84274 0.86989 0.72885 0.0
C89 C 0.8417 0.8774 0.68972 0.0
C90 C 0.91178 0.875 0.69004 0.0
C91 C 0.91406 0.86703 0.72872 0.0
H92 H 0.81327 0.88255 0.67533 0.0
H93 H 0.93931 0.87956 0.67659 0.0
H94 H 0.78847 0.91501 0.60339 0.0
H95 H 0.80308 0.98632 0.6892 0.0
H96 H 0.96649 0.80269 0.59712 0.0
H97 H 0.81522 0.8696 0.74352 0.0
H98 H 0.94309 0.86387 0.74302 0.0
C99 C 0.9238 0.99796 0.13955 0.0
C100 C 0.96323 1.00597 0.13682 0.0
N101 N 0.98523 0.97919 0.14421 0.0
N102 N 0.92093 0.96635 0.14899 0.0
C103 C 0.95889 0.95559 0.15157 0.0
H104 H 0.89885 1.01408 0.1341 0.0
Co105 Co 0.87414 0.94287 0.15368 0.0
C106 C 0.90007 0.87906 0.18649 0.0
O107 O 0.87335 0.86497 0.16324 0.0
N108 N 0.82668 0.91981 0.15902 0.0
C109 C 0.77862 0.89287 0.1868 0.0
C110 C 0.81505 0.90752 0.19253 0.0
C111 C 0.79579 0.91372 0.13381 0.0
N112 N 0.76684 0.89686 0.14989 0.0
O113 O 0.86102 0.96869 0.19759 0.0
H114 H 0.832 0.90928 0.21959 0.0
H115 H 0.79363 0.92195 0.10451 0.0
O116 O 0.90365 0.91012 0.18605 0.0
C117 C 0.83708 0.99095 0.18531 0.0
O118 O 0.82868 0.99268 0.14824 0.0
N119 N 0.88406 0.9211 0.10764 0.0
C120 C 0.88712 0.89691 0.03316 0.0
C121 C 0.91219 0.88432 0.06288 0.0
C122 C 0.91075 0.89721 0.09994 0.0
C123 C 0.86256 0.93551 0.07835 0.0
C124 C 0.86291 0.92345 0.04118 0.0
H125 H 0.93138 0.88807 0.1219 0.0
H126 H 0.84423 0.95632 0.08416 0.0
H127 H 0.96716 0.93084 0.15846 0.0
H128 H 0.9747 1.02941 0.12883 0.0
H129 H 0.76138 0.88133 0.20825 0.0
H130 H 0.93251 0.86462 0.05763 0.0
H131 H 0.84464 0.93511 0.01882 0.0
C132 C 0.159 0.59332 0.86216 0.0
C133 C 0.19744 0.58349 0.85715 0.0
N134 N 0.22236 0.60628 0.87234 0.0
N135 N 0.1596 0.62209 0.8806 0.0
C136 C 0.19855 0.62936 0.8864 0.0
H137 H 0.13231 0.58073 0.85202 0.0
Co138 Co 0.11524 0.6467 0.89107 0.0
C139 C 0.14625 0.70852 0.92427 0.0
O140 O 0.11905 0.72366 0.90269 0.0
N141 N 0.07028 0.67109 0.90242 0.0
C142 C 0.02559 0.69562 0.93728 0.0
C143 C 0.06203 0.68072 0.93818 0.0
C144 C 0.03802 0.67999 0.88047 0.0
N145 N 0.01068 0.69515 0.90088 0.0
O146 O 0.10481 0.61909 0.93448 0.0
H147 H 0.08098 0.67637 0.96357 0.0
H148 H 0.03292 0.67359 0.85071 0.0
O149 O 0.14863 0.67741 0.92274 0.0
C150 C 0.07769 0.59939 0.9218 0.0
O151 O 0.06698 0.60079 0.88517 0.0
N152 N 0.12177 0.66987 0.84534 0.0
C153 C 0.11658 0.69672 0.77207 0.0
C154 C 0.14638 0.707 0.79906 0.0
C155 C 0.14893 0.69276 0.83565 0.0
C156 C 0.09616 0.6572 0.81785 0.0
C157 C 0.09227 0.67074 0.78154 0.0
H158 H 0.17262 0.70014 0.85577 0.0
H159 H 0.0775 0.63689 0.82465 0.0
H160 H 0.20931 0.65139 0.90024 0.0
H161 H 0.20619 0.56177 0.84227 0.0
H162 H 0.01059 0.70492 0.96166 0.0
H163 H 0.16703 0.72599 0.79213 0.0
H164 H 0.07038 0.6608 0.76092 0.0
C165 C 0.07037 0.61371 0.35424 0.0
C166 C 0.03176 0.603 0.35009 0.0
N167 N 0.00734 0.62826 0.35602 0.0
N168 N 0.07057 0.64571 0.36247 0.0
C169 C 0.03174 0.65392 0.36319 0.0
H170 H 0.09656 0.59877 0.35244 0.0
Co171 Co 0.11543 0.67105 0.3749 0.0
C172 C 0.10019 0.73461 0.33128 0.0
O173 O 0.13218 0.74903 0.346 0.0
N174 N 0.16127 0.69549 0.38808 0.0
C175 C 0.21191 0.71745 0.42223 0.0
C176 C 0.17564 0.70262 0.4239 0.0
C177 C 0.19028 0.70512 0.3653 0.0
N178 N 0.22112 0.71915 0.38528 0.0
O179 O 0.14314 0.65075 0.33347 0.0
H180 H 0.16173 0.6961 0.44995 0.0
H181 H 0.18877 0.70169 0.33457 0.0
O182 O 0.09222 0.70533 0.34071 0.0
C183 C 0.16856 0.62999 0.34677 0.0
O184 O 0.17116 0.62527 0.38399 0.0
N185 N 0.09044 0.68811 0.41759 0.0
C186 C 0.07581 0.70717 0.49214 0.0
C187 C 0.07778 0.73032 0.46296 0.0
C188 C 0.08472 0.72026 0.42559 0.0
C189 C 0.08606 0.66524 0.44514 0.0
C190 C 0.07835 0.6742 0.48249 0.0
H191 H 0.08894 0.73858 0.40437 0.0
H192 H 0.09162 0.63997 0.43876 0.0
H193 H 0.02173 0.67797 0.37069 0.0
H194 H 0.02257 0.57831 0.34372 0.0
H195 H 0.23101 0.72457 0.44666 0.0
H196 H 0.07589 0.75602 0.46934 0.0
H197 H 0.07747 0.65555 0.50422 0.0
C198 C 0.84196 0.45234 0.15748 0.0
C199 C 0.80463 0.46469 0.16283 0.0
N200 N 0.77803 0.44753 0.14091 0.0
N201 N 0.83901 0.42766 0.13207 0.0
C202 C 0.79967 0.42534 0.12252 0.0
H203 H 0.86942 0.46039 0.17184 0.0
Co204 Co 0.88136 0.40218 0.11678 0.0
C205 C 0.84449 0.34196 0.08498 0.0
O206 O 0.87279 0.32571 0.10384 0.0
N207 N 0.92428 0.37713 0.10023 0.0
C208 C 0.96248 0.35193 0.0593 0.0
C209 C 0.92669 0.36694 0.06363 0.0
C210 C 0.95987 0.36894 0.11717 0.0
N211 N 0.98356 0.35329 0.09302 0.0
O212 O 0.8885 0.43046 0.0736 0.0
H213 H 0.9041 0.37094 0.04103 0.0
H214 H 0.96959 0.37617 0.14575 0.0
O215 O 0.84373 0.37309 0.08726 0.0
C216 C 0.91367 0.45217 0.08509 0.0
O217 O 0.92585 0.45218 0.1214 0.0
N218 N 0.87778 0.37781 0.16204 0.0
C219 C 0.87803 0.35304 0.23648 0.0
C220 C 0.84632 0.34638 0.2099 0.0
C221 C 0.84645 0.35945 0.17288 0.0
C222 C 0.90728 0.38608 0.18837 0.0
C223 C 0.90867 0.37328 0.22523 0.0
H224 H 0.82061 0.35589 0.15376 0.0
H225 H 0.92907 0.40401 0.18123 0.0
H226 H 0.7869 0.40772 0.10254 0.0
H227 H 0.79753 0.48411 0.18225 0.0
H228 H 0.97252 0.34184 0.03289 0.0
H229 H 0.82125 0.3319 0.21793 0.0
H230 H 0.93251 0.38063 0.2454 0.0
C231 C 0.8972 0.46429 0.61082 0.0
C232 C 0.9345 0.47766 0.60846 0.0
N233 N 0.96137 0.45694 0.62464 0.0
N234 N 0.90035 0.43534 0.62867 0.0
C235 C 0.93982 0.43159 0.63657 0.0
H236 H 0.86982 0.47469 0.59902 0.0
Co237 Co 0.8598 0.40506 0.6357 0.0
C238 C 0.89016 0.36765 0.70256 0.0
O239 O 0.85639 0.37307 0.71864 0.0
N240 N 0.81994 0.37395 0.64236 0.0
C241 C 0.78833 0.32638 0.64294 0.0
C242 C 0.82421 0.34142 0.63846 0.0
C243 C 0.78132 0.37797 0.64968 0.0
N244 N 0.76169 0.3495 0.65034 0.0
O245 O 0.84067 0.43115 0.6775 0.0
H246 H 0.8516 0.32938 0.632 0.0
H247 H 0.76707 0.40123 0.65292 0.0
O248 O 0.89572 0.37949 0.66953 0.0
C249 C 0.81544 0.45128 0.66244 0.0
O250 O 0.80851 0.44996 0.62513 0.0
N251 N 0.87437 0.38295 0.59215 0.0
C252 C 0.88214 0.35608 0.51972 0.0
C253 C 0.91171 0.35103 0.54907 0.0
C254 C 0.90712 0.36463 0.58556 0.0
C255 C 0.84618 0.38863 0.56371 0.0
C256 C 0.84923 0.37525 0.52755 0.0
H257 H 0.92968 0.36065 0.60818 0.0
H258 H 0.82087 0.40373 0.56937 0.0
H259 H 0.95287 0.4099 0.64906 0.0
H260 H 0.9412 0.50062 0.59528 0.0
H261 H 0.78207 0.30065 0.64044 0.0
H262 H 0.93781 0.33663 0.5439 0.0
H263 H 0.82629 0.38052 0.50557 0.0
C264 C 0.67607 0.08304 0.91887 0.0
C265 C 0.71572 0.07517 0.92411 0.0
N266 N 0.73709 0.10286 0.92449 0.0
N267 N 0.6725 0.11555 0.916 0.0
C268 C 0.71011 0.12695 0.9199 0.0
H269 H 0.65171 0.06603 0.91521 0.0
Co270 Co 0.62725 0.13873 0.90038 0.0
C271 C 0.63755 0.2043 0.93986 0.0
O272 O 0.61126 0.21856 0.91651 0.0
N273 N 0.58124 0.16155 0.88368 0.0
C274 C 0.53395 0.18426 0.84605 0.0
C275 C 0.56954 0.16824 0.84701 0.0
C276 C 0.55129 0.17285 0.90438 0.0
N277 N 0.52254 0.18745 0.88217 0.0
O278 O 0.59761 0.11794 0.93966 0.0
H279 H 0.58509 0.16144 0.82205 0.0
H280 H 0.55105 0.17092 0.93523 0.0
O281 O 0.64505 0.174 0.93577 0.0
C282 C 0.57522 0.09552 0.92507 0.0
O283 O 0.57609 0.09014 0.88804 0.0
N284 N 0.65481 0.15579 0.85953 0.0
C285 C 0.67342 0.17522 0.78633 0.0
C286 C 0.67798 0.19676 0.81746 0.0
C287 C 0.66864 0.18653 0.85403 0.0
C288 C 0.65497 0.13353 0.83068 0.0
C289 C 0.66374 0.14275 0.79377 0.0
H290 H 0.67103 0.20392 0.87691 0.0
H291 H 0.64434 0.10917 0.83559 0.0
H292 H 0.71776 0.15227 0.91644 0.0
H293 H 0.72792 0.05087 0.92597 0.0
H294 H 0.51714 0.19192 0.82044 0.0
H295 H 0.68691 0.22172 0.81337 0.0
H296 H 0.65965 0.12507 0.77094 0.0
C297 C 0.59714 0.1302 0.41622 0.0
C298 C 0.56077 0.1157 0.41987 0.0
N299 N 0.53377 0.13058 0.39604 0.0
N300 N 0.59346 0.15412 0.39006 0.0
C301 C 0.55466 0.1534 0.37783 0.0
H302 H 0.62413 0.12471 0.43304 0.0
Co303 Co 0.6335 0.18414 0.37915 0.0
C304 C 0.57607 0.23886 0.35979 0.0
O305 O 0.58346 0.25211 0.39354 0.0
N306 N 0.67377 0.21411 0.36699 0.0
C307 C 0.71047 0.25869 0.36038 0.0
C308 C 0.67341 0.24702 0.36744 0.0
C309 C 0.71156 0.20661 0.35903 0.0
N310 N 0.73414 0.23317 0.35475 0.0
O311 O 0.64447 0.15947 0.33339 0.0
H312 H 0.64903 0.2621 0.37487 0.0
H313 H 0.72348 0.18227 0.35928 0.0
O314 O 0.59367 0.21242 0.35087 0.0
C315 C 0.66852 0.13733 0.34598 0.0
O316 O 0.67691 0.13642 0.3831 0.0
N317 N 0.62769 0.20433 0.42789 0.0
C318 C 0.62894 0.2176 0.50654 0.0
C319 C 0.59287 0.21211 0.48576 0.0
C320 C 0.59287 0.20534 0.44652 0.0
C321 C 0.66289 0.20975 0.44819 0.0
C322 C 0.66408 0.21728 0.48706 0.0
H323 H 0.56485 0.19995 0.43147 0.0
H324 H 0.69089 0.20589 0.43528 0.0
H325 H 0.54143 0.17071 0.35784 0.0
H326 H 0.55471 0.09633 0.43956 0.0
H327 H 0.71992 0.28384 0.36139 0.0
H328 H 0.5651 0.21162 0.50004 0.0
H329 H 0.69268 0.22005 0.50237 0.0
C330 C 0.34474 0.95217 0.16276 0.0
C331 C 0.30876 0.96698 0.16735 0.0
N332 N 0.28126 0.95295 0.14318 0.0
N333 N 0.34031 0.92895 0.13566 0.0
C334 C 0.30144 0.93025 0.12393 0.0
H335 H 0.37214 0.95714 0.17923 0.0
Co336 Co 0.38031 0.89996 0.12249 0.0
C337 C 0.3246 0.84359 0.10443 0.0
O338 O 0.33501 0.82952 0.13703 0.0
N339 N 0.42088 0.87154 0.10831 0.0
C340 C 0.45971 0.82914 0.09693 0.0
C341 C 0.422 0.83879 0.10483 0.0
C342 C 0.45826 0.8811 0.10172 0.0
N343 N 0.4823 0.85585 0.09486 0.0
O344 O 0.38764 0.92458 0.07608 0.0
H345 H 0.39803 0.82232 0.10929 0.0
H346 H 0.4685 0.90592 0.10452 0.0
O347 O 0.34022 0.8709 0.09574 0.0
C348 C 0.40841 0.94978 0.08514 0.0
O349 O 0.41918 0.95436 0.1214 0.0
N350 N 0.37725 0.87922 0.1712 0.0
C351 C 0.38066 0.86396 0.24954 0.0
C352 C 0.34401 0.86886 0.22943 0.0
C353 C 0.34296 0.87674 0.19047 0.0
C354 C 0.413 0.87407 0.19052 0.0
C355 C 0.41528 0.86561 0.22911 0.0
H356 H 0.31447 0.88173 0.17611 0.0
H357 H 0.44051 0.87839 0.17697 0.0
H358 H 0.28781 0.91364 0.10318 0.0
H359 H 0.30338 0.98612 0.18767 0.0
H360 H 0.47014 0.8044 0.09436 0.0
H361 H 0.31644 0.86847 0.24402 0.0
H362 H 0.44431 0.86193 0.24321 0.0
C363 C 0.42283 0.99243 0.64306 0.0
C364 C 0.46232 1.00046 0.6411 0.0
N365 N 0.48422 0.9735 0.64776 0.0
N366 N 0.41973 0.9606 0.65128 0.0
C367 C 0.45766 0.94969 0.65384 0.0
H368 H 0.39797 1.00871 0.63805 0.0
Co369 Co 0.37215 0.93794 0.65484 0.0
C370 C 0.39445 0.87305 0.68653 0.0
O371 O 0.36716 0.86005 0.66299 0.0
N372 N 0.32376 0.91579 0.659 0.0
C373 C 0.27452 0.88939 0.68563 0.0
C374 C 0.31086 0.904 0.69227 0.0
C375 C 0.29371 0.90942 0.63292 0.0
N376 N 0.26409 0.89287 0.64833 0.0
O377 O 0.35959 0.96308 0.69962 0.0
H378 H 0.32704 0.90582 0.71973 0.0
H379 H 0.29273 0.91703 0.6034 0.0
O380 O 0.40005 0.90392 0.68632 0.0
C381 C 0.33551 0.98566 0.68863 0.0
O382 O 0.32626 0.9882 0.65177 0.0
N383 N 0.38194 0.91681 0.60836 0.0
C384 C 0.38527 0.89303 0.53371 0.0
C385 C 0.4093 0.87957 0.56365 0.0
C386 C 0.40776 0.89226 0.60079 0.0
C387 C 0.36154 0.93203 0.57896 0.0
C388 C 0.36207 0.92022 0.54166 0.0
H389 H 0.42761 0.88239 0.62294 0.0
H390 H 0.34378 0.95318 0.58481 0.0
H391 H 0.46572 0.92474 0.65988 0.0
H392 H 0.47391 1.02413 0.63418 0.0
H393 H 0.25652 0.87808 0.70664 0.0
H394 H 0.42882 0.8593 0.55854 0.0
H395 H 0.34464 0.93251 0.51919 0.0
C396 C 0.64755 0.60425 0.36974 0.0
C397 C 0.68623 0.59403 0.36663 0.0
N398 N 0.71053 0.61985 0.37225 0.0
N399 N 0.64744 0.63632 0.37741 0.0
C400 C 0.68615 0.64507 0.37875 0.0
H401 H 0.62122 0.58933 0.366 0.0
Co402 Co 0.60348 0.66325 0.38164 0.0
C403 C 0.6378 0.7252 0.41312 0.0
O404 O 0.61406 0.74155 0.38916 0.0
N405 N 0.55924 0.69033 0.38663 0.0
C406 C 0.51522 0.72183 0.41411 0.0
C407 C 0.54986 0.70465 0.41981 0.0
C408 C 0.52885 0.69812 0.36157 0.0
N409 N 0.50213 0.71764 0.37749 0.0
O410 O 0.58789 0.63934 0.42634 0.0
H411 H 0.56682 0.7022 0.44677 0.0
H412 H 0.52522 0.68887 0.33269 0.0
O413 O 0.63664 0.69405 0.41305 0.0
C414 C 0.56029 0.61987 0.4142 0.0
O415 O 0.55062 0.61975 0.37731 0.0
N416 N 0.61516 0.68257 0.33485 0.0
C417 C 0.62406 0.69598 0.25752 0.0
C418 C 0.64825 0.71153 0.28594 0.0
C419 C 0.64389 0.70394 0.32469 0.0
C420 C 0.59233 0.66696 0.30732 0.0
C421 C 0.59565 0.67369 0.26879 0.0
H422 H 0.66472 0.7142 0.34582 0.0
H423 H 0.57151 0.64859 0.31544 0.0
H424 H 0.69622 0.66979 0.38306 0.0
H425 H 0.69557 0.5695 0.36056 0.0
H426 H 0.49954 0.73472 0.43575 0.0
H427 H 0.67146 0.7281 0.27821 0.0
H428 H 0.57659 0.66091 0.24785 0.0
C429 C 0.58308 0.61356 0.8956 0.0
C430 C 0.54538 0.60239 0.9015 0.0
N431 N 0.52035 0.61428 0.8736 0.0
N432 N 0.58185 0.63252 0.86422 0.0
C433 C 0.54344 0.63211 0.85114 0.0
H434 H 0.60944 0.60932 0.9139 0.0
Co435 Co 0.62397 0.65652 0.84621 0.0
C436 C 0.58491 0.71889 0.82705 0.0
O437 O 0.61321 0.73269 0.84872 0.0
N438 N 0.66655 0.67957 0.82623 0.0
C439 C 0.70478 0.70888 0.78904 0.0
C440 C 0.66644 0.70091 0.79676 0.0
C441 C 0.70541 0.67285 0.83319 0.0
N442 N 0.7292 0.69114 0.81218 0.0
O443 O 0.62543 0.62873 0.80179 0.0
H444 H 0.64051 0.70922 0.78021 0.0
H445 H 0.71618 0.65416 0.85271 0.0
O446 O 0.58563 0.688 0.82157 0.0
C447 C 0.64655 0.60435 0.81312 0.0
O448 O 0.65749 0.60254 0.84968 0.0
N449 N 0.62627 0.68064 0.89333 0.0
C450 C 0.63176 0.7009 0.97022 0.0
C451 C 0.59522 0.70181 0.94896 0.0
C452 C 0.59309 0.69152 0.91057 0.0
C453 C 0.66185 0.68037 0.91377 0.0
C454 C 0.66553 0.6915 0.95132 0.0
H455 H 0.56429 0.69045 0.89547 0.0
H456 H 0.6874 0.66915 0.90267 0.0
H457 H 0.5325 0.64523 0.82602 0.0
H458 H 0.5369 0.58794 0.92556 0.0
H459 H 0.71395 0.72566 0.76741 0.0
H460 H 0.56809 0.70833 0.96239 0.0
H461 H 0.69454 0.69061 0.96615 0.0
C462 C 0.32235 0.48092 0.63731 0.0
C463 C 0.28354 0.49084 0.63994 0.0
N464 N 0.25949 0.46623 0.62815 0.0
N465 N 0.32285 0.45029 0.62362 0.0
C466 C 0.28409 0.44201 0.61841 0.0
H467 H 0.3485 0.49492 0.64579 0.0
Co468 Co 0.36807 0.42508 0.61721 0.0
C469 C 0.337 0.36019 0.59361 0.0
O470 O 0.36319 0.34746 0.61841 0.0
N471 N 0.4138 0.39991 0.60979 0.0
C472 C 0.45685 0.3695 0.57919 0.0
C473 C 0.42094 0.38524 0.57615 0.0
C474 C 0.44676 0.39374 0.63233 0.0
N475 N 0.47293 0.37498 0.61454 0.0
O476 O 0.37839 0.44816 0.57048 0.0
H477 H 0.40136 0.38627 0.55067 0.0
H478 H 0.45243 0.40319 0.66088 0.0
O479 O 0.33531 0.39119 0.58978 0.0
C480 C 0.40291 0.47068 0.581 0.0
O481 O 0.41349 0.47299 0.6176 0.0
N482 N 0.36131 0.40692 0.66582 0.0
C483 C 0.35936 0.39392 0.74429 0.0
C484 C 0.33107 0.38004 0.71805 0.0
C485 C 0.33205 0.3874 0.67882 0.0
C486 C 0.38726 0.42184 0.69125 0.0
C487 C 0.3878 0.41491 0.73007 0.0
H488 H 0.30859 0.37831 0.65948 0.0
H489 H 0.40773 0.43972 0.68125 0.0
H490 H 0.27393 0.41853 0.60804 0.0
H491 H 0.27387 0.51398 0.65088 0.0
H492 H 0.47092 0.35636 0.5567 0.0
H493 H 0.30759 0.36467 0.72782 0.0
H494 H 0.41032 0.42637 0.74877 0.0
C495 C 0.41885 0.48925 0.12678 0.0
C496 C 0.45837 0.49677 0.12341 0.0
N497 N 0.48057 0.47099 0.13501 0.0
N498 N 0.41588 0.45893 0.14067 0.0
C499 C 0.45391 0.44844 0.14524 0.0
H500 H 0.39392 0.5049 0.11927 0.0
Co501 Co 0.36898 0.43652 0.14983 0.0
C502 C 0.39584 0.37345 0.18252 0.0
O503 O 0.36804 0.35898 0.1609 0.0
N504 N 0.32188 0.41402 0.16028 0.0
C505 C 0.27744 0.38935 0.19529 0.0
C506 C 0.31249 0.40632 0.19631 0.0
C507 C 0.29142 0.40179 0.13792 0.0
N508 N 0.26428 0.38646 0.15849 0.0
O509 O 0.36051 0.46401 0.19381 0.0
H510 H 0.3304 0.41233 0.22192 0.0
H511 H 0.28892 0.40356 0.10716 0.0
O512 O 0.39959 0.40441 0.18112 0.0
C513 C 0.33699 0.48696 0.18279 0.0
O514 O 0.32588 0.48843 0.14625 0.0
N515 N 0.37454 0.41338 0.10387 0.0
C516 C 0.37458 0.38965 0.02902 0.0
C517 C 0.40258 0.37842 0.05706 0.0
C518 C 0.4023 0.39085 0.0945 0.0
C519 C 0.34956 0.42625 0.07605 0.0
C520 C 0.34815 0.41409 0.03885 0.0
H521 H 0.42501 0.38295 0.11528 0.0
H522 H 0.33001 0.44598 0.08308 0.0
H523 H 0.46184 0.42436 0.15505 0.0
H524 H 0.46961 0.51962 0.11331 0.0
H525 H 0.26241 0.38045 0.21979 0.0
H526 H 0.42462 0.36053 0.05 0.0
H527 H 0.32736 0.4245 0.0176 0.0
H528 H 0.2908 0.06262 0.41209 0.0
H529 H 0.27906 0.1626 0.3764 0.0
H530 H 0.3629 0.06688 0.41042 0.0
H531 H 0.35139 0.16706 0.37544 0.0
H532 H 0.4801 0.15075 0.33987 0.0
H533 H 0.40796 0.14577 0.33901 0.0
H534 H 0.41752 0.0951 0.44695 0.0
H535 H 0.48922 0.10049 0.44844 0.0
C536 C 0.30359 0.08548 0.40374 0.0
C537 C 0.27912 0.11226 0.39438 0.0
C538 C 0.34495 0.088 0.40311 0.0
C539 C 0.3629 0.11731 0.39282 0.0
C540 C 0.33846 0.14406 0.38317 0.0
C541 C 0.29705 0.14161 0.38413 0.0
C542 C 0.467 0.1387 0.36359 0.0
C543 C 0.49101 0.1261 0.39425 0.0
C544 C 0.42553 0.13585 0.36304 0.0
C545 C 0.40699 0.12006 0.39292 0.0
C546 C 0.43088 0.10704 0.42322 0.0
C547 C 0.47224 0.1101 0.42396 0.0
H548 H 0.96831 0.15817 0.35901 0.0
H549 H 0.98497 0.25078 0.41508 0.0
H550 H 0.90015 0.17282 0.33971 0.0
H551 H 0.9177 0.26681 0.39385 0.0
H552 H 0.78367 0.25995 0.40788 0.0
H553 H 0.8555 0.25393 0.41344 0.0
H554 H 0.85187 0.20225 0.30528 0.0
H555 H 0.77917 0.20624 0.302 0.0
C556 C 0.95752 0.18212 0.36603 0.0
C557 C 0.98122 0.20326 0.38882 0.0
C558 C 0.91858 0.19071 0.35482 0.0
C559 C 0.90301 0.22094 0.3656 0.0
C560 C 0.92818 0.24302 0.38591 0.0
C561 C 0.96672 0.23404 0.3979 0.0
C562 C 0.79858 0.24787 0.3851 0.0
C563 C 0.7765 0.23361 0.35453 0.0
C564 C 0.83976 0.24463 0.38796 0.0
C565 C 0.8598 0.22778 0.35966 0.0
C566 C 0.8375 0.21493 0.32793 0.0
C567 C 0.79607 0.21738 0.32575 0.0
H568 H 0.47898 0.23325 0.84402 0.0
H569 H 0.48295 0.17448 0.94627 0.0
H570 H 0.41163 0.2491 0.85538 0.0
H571 H 0.41608 0.19234 0.95945 0.0
H572 H 0.28267 0.17904 0.9224 0.0
H573 H 0.35428 0.17717 0.93186 0.0
H574 H 0.36204 0.27496 0.88779 0.0
H575 H 0.28971 0.27582 0.87649 0.0
C576 C 0.46567 0.22412 0.86935 0.0
C577 C 0.48586 0.20164 0.89345 0.0
C578 C 0.42711 0.23377 0.87636 0.0
C579 C 0.40791 0.22157 0.90804 0.0
C580 C 0.42956 0.20155 0.93421 0.0
C581 C 0.4681 0.19152 0.92687 0.0
C582 C 0.29961 0.20044 0.91571 0.0
C583 C 0.28088 0.22747 0.8984 0.0
C584 C 0.34082 0.1995 0.92132 0.0
C585 C 0.36423 0.22579 0.91018 0.0
C586 C 0.34505 0.25396 0.8958 0.0
C587 C 0.30374 0.2546 0.88947 0.0
H588 H 0.99144 0.07264 0.91929 0.0
H589 H 0.97592 0.17571 0.90056 0.0
H590 H 0.92057 0.06671 0.92551 0.0
H591 H 0.90454 0.16934 0.90439 0.0
H592 H 0.78242 0.15288 0.95191 0.0
H593 H 0.85419 0.15924 0.94813 0.0
H594 H 0.8595 0.06681 0.88963 0.0
H595 H 0.78821 0.06028 0.8944 0.0
C596 C 0.97308 0.09411 0.9164 0.0
C597 C 0.9899 0.12472 0.90962 0.0
C598 C 0.93212 0.0906 0.91947 0.0
C599 C 0.90659 0.11752 0.91544 0.0
C600 C 0.92326 0.1481 0.90823 0.0
C601 C 0.96434 0.15168 0.90547 0.0
C602 C 0.79905 0.13395 0.93835 0.0
C603 C 0.77968 0.106 0.92369 0.0
C604 C 0.84016 0.13763 0.93596 0.0
C605 C 0.86283 0.11357 0.91851 0.0
C606 C 0.8433 0.08559 0.90394 0.0
C607 C 0.80232 0.0818 0.90667 0.0
H608 H 0.72669 0.93454 0.58806 0.0
H609 H 0.73782 0.98237 0.69843 0.0
H610 H 0.65464 0.93907 0.58882 0.0
H611 H 0.66614 0.98737 0.6985 0.0
H612 H 0.53861 1.02013 0.66611 0.0
H613 H 0.61069 1.01614 0.66366 0.0
H614 H 0.59907 0.91651 0.62585 0.0
H615 H 0.52677 0.92071 0.6277 0.0
C616 C 0.71408 0.94594 0.61253 0.0
C617 C 0.73864 0.95797 0.64322 0.0
C618 C 0.67263 0.94853 0.6129 0.0
C619 C 0.65466 0.96352 0.64375 0.0
C620 C 0.67907 0.97602 0.67408 0.0
C621 C 0.72041 0.97319 0.67391 0.0
C622 C 0.55139 0.99744 0.65706 0.0
C623 C 0.52691 0.97074 0.64711 0.0
C624 C 0.59272 0.99507 0.65595 0.0
C625 C 0.61062 0.96602 0.64454 0.0
C626 C 0.58617 0.93932 0.63444 0.0
C627 C 0.54479 0.9416 0.63591 0.0
H628 H 0.03291 0.81444 0.6315 0.0
H629 H 0.02325 0.89305 0.55046 0.0
H630 H 0.10449 0.8206 0.6362 0.0
H631 H 0.09553 0.89807 0.55254 0.0
H632 H 0.21053 0.93335 0.61575 0.0
H633 H 0.1428 0.91995 0.59379 0.0
H634 H 0.16737 0.81816 0.61576 0.0
H635 H 0.23414 0.83277 0.64078 0.0
C636 C 0.04647 0.83236 0.61368 0.0
C637 C 0.02286 0.85362 0.59105 0.0
C638 C 0.08767 0.83586 0.6161 0.0
C639 C 0.10619 0.86031 0.59524 0.0
C640 C 0.08243 0.87973 0.57008 0.0
C641 C 0.04111 0.87676 0.56852 0.0
C642 C 0.20122 0.90817 0.61524 0.0
C643 C 0.22677 0.88405 0.63006 0.0
C644 C 0.16256 0.90027 0.60236 0.0
C645 C 0.14909 0.86785 0.60318 0.0
C646 C 0.17607 0.84346 0.61566 0.0
C647 C 0.21435 0.85162 0.62965 0.0
H648 H 0.71262 0.93787 0.11934 0.0
H649 H 0.73623 0.837 0.14271 0.0
H650 H 0.64438 0.92483 0.09857 0.0
H651 H 0.66893 0.8228 0.11889 0.0
H652 H 0.5348 0.81792 0.13394 0.0
H653 H 0.60626 0.8253 0.14009 0.0
H654 H 0.59697 0.9032 0.05702 0.0
H655 H 0.52477 0.89693 0.05355 0.0
C656 C 0.70315 0.91272 0.11879 0.0
C657 C 0.72891 0.88838 0.13271 0.0
C658 C 0.66421 0.90505 0.1066 0.0
C659 C 0.65066 0.87266 0.10722 0.0
C660 C 0.67772 0.84809 0.11897 0.0
C661 C 0.7163 0.85601 0.13226 0.0
C662 C 0.54833 0.83621 0.11662 0.0
C663 C 0.52465 0.85707 0.09356 0.0
C664 C 0.5894 0.84041 0.11986 0.0
C665 C 0.60777 0.86517 0.09935 0.0
C666 C 0.58397 0.88454 0.07416 0.0
C667 C 0.54272 0.88086 0.0718 0.0
H668 H 0.04035 1.0257 0.16055 0.0
H669 H 0.0266 0.92575 0.12465 0.0
H670 H 0.11244 1.02059 0.15824 0.0
H671 H 0.09871 0.92047 0.12292 0.0
H672 H 0.22699 0.93481 0.08646 0.0
H673 H 0.1551 0.94158 0.08571 0.0
H674 H 0.16646 0.99077 0.19486 0.0
H675 H 0.23791 0.98353 0.19631 0.0
C676 C 0.05272 1.00269 0.15204 0.0
C677 C 0.02778 0.97611 0.14292 0.0
C678 C 0.094 0.99969 0.15098 0.0
C679 C 0.11124 0.97012 0.1404 0.0
C680 C 0.08628 0.94363 0.13087 0.0
C681 C 0.04502 0.94655 0.13229 0.0
C682 C 0.21434 0.9469 0.11047 0.0
C683 C 0.23875 0.95848 0.1415 0.0
C684 C 0.17304 0.95081 0.10996 0.0
C685 C 0.15514 0.96669 0.14024 0.0
C686 C 0.17942 0.97879 0.17086 0.0
C687 C 0.2206 0.97465 0.17157 0.0
H688 H 0.2717 0.55457 0.86564 0.0
H689 H 0.27092 0.65904 0.8779 0.0
H690 H 0.34382 0.55551 0.86345 0.0
H691 H 0.34291 0.65977 0.87769 0.0
H692 H 0.46765 0.65543 0.83745 0.0
H693 H 0.39567 0.65218 0.83539 0.0
H694 H 0.40297 0.56484 0.90357 0.0
H695 H 0.47521 0.56714 0.90398 0.0
C696 C 0.28679 0.57774 0.86789 0.0
C697 C 0.26524 0.60671 0.87193 0.0
C698 C 0.32826 0.57823 0.86707 0.0
C699 C 0.34926 0.60772 0.87033 0.0
C700 C 0.32773 0.63665 0.87454 0.0
C701 C 0.28632 0.63617 0.87523 0.0
C702 C 0.45411 0.63516 0.85144 0.0
C703 C 0.47752 0.61155 0.87094 0.0
C704 C 0.41266 0.63357 0.85072 0.0
C705 C 0.39342 0.60843 0.86962 0.0
C706 C 0.41674 0.58444 0.88847 0.0
C707 C 0.45826 0.58596 0.88908 0.0
H708 H 0.77471 0.74414 0.80074 0.0
H709 H 0.7798 0.64336 0.83493 0.0
H710 H 0.84522 0.75035 0.82044 0.0
H711 H 0.84946 0.64999 0.8556 0.0
H712 H 0.94457 0.68825 0.94022 0.0
H713 H 0.87628 0.69065 0.91376 0.0
H714 H 0.91791 0.72007 0.80445 0.0
H715 H 0.98676 0.71774 0.83104 0.0
C716 C 0.79102 0.7232 0.81165 0.0
C717 C 0.77164 0.6934 0.81702 0.0
C718 C 0.83113 0.72686 0.82309 0.0
C719 C 0.85198 0.70081 0.84018 0.0
C720 C 0.83341 0.67054 0.84318 0.0
C721 C 0.79365 0.66681 0.83146 0.0
C722 C 0.93917 0.69614 0.91091 0.0
C723 C 0.9708 0.70249 0.88749 0.0
C724 C 0.90023 0.69724 0.89574 0.0
C725 C 0.89237 0.70507 0.85709 0.0
C726 C 0.9236 0.71387 0.83433 0.0
C727 C 0.96273 0.7124 0.84943 0.0
H728 H 0.4658 0.7753 0.38459 0.0
H729 H 0.45117 0.67934 0.33651 0.0
H730 H 0.39518 0.78588 0.37203 0.0
H731 H 0.38049 0.68877 0.32562 0.0
H732 H 0.25382 0.70156 0.31859 0.0
H733 H 0.3217 0.71147 0.30154 0.0
H734 H 0.34179 0.76886 0.40463 0.0
H735 H 0.27344 0.76115 0.41972 0.0
C736 C 0.44739 0.7568 0.37051 0.0
C737 C 0.46345 0.72641 0.36198 0.0
C738 C 0.40693 0.76272 0.36342 0.0
C739 C 0.38162 0.73798 0.34862 0.0
C740 C 0.39872 0.70864 0.33674 0.0
C741 C 0.43934 0.70303 0.34313 0.0
C742 C 0.27231 0.71717 0.33695 0.0
C743 C 0.25852 0.72962 0.37132 0.0
C744 C 0.3115 0.72261 0.32734 0.0
C745 C 0.33787 0.74009 0.35223 0.0
C746 C 0.32276 0.75517 0.38458 0.0
C747 C 0.28351 0.7502 0.39379 0.0
H748 H 0.76151 0.66469 0.40432 0.0
H749 H 0.75714 0.57755 0.335 0.0
H750 H 0.83323 0.66723 0.39923 0.0
H751 H 0.82896 0.57996 0.3304 0.0
H752 H 0.96135 0.57547 0.36863 0.0
H753 H 0.88961 0.57369 0.37194 0.0
H754 H 0.88342 0.67692 0.35117 0.0
H755 H 0.95553 0.67876 0.34732 0.0
C756 C 0.77566 0.64619 0.38774 0.0
C757 C 0.75326 0.62092 0.37001 0.0
C758 C 0.81687 0.64768 0.38484 0.0
C759 C 0.83682 0.62385 0.36436 0.0
C760 C 0.81455 0.5985 0.3468 0.0
C761 C 0.77331 0.59708 0.34953 0.0
C762 C 0.94488 0.59779 0.36419 0.0
C763 C 0.96452 0.62727 0.35754 0.0
C764 C 0.90359 0.59674 0.36618 0.0
C765 C 0.88075 0.62513 0.36176 0.0
C766 C 0.90023 0.65466 0.35516 0.0
C767 C 0.94161 0.65571 0.35297 0.0
H768 H 0.53326 0.50949 0.09929 0.0
H769 H 0.52667 0.4253 0.17249 0.0
H770 H 0.60519 0.50405 0.10055 0.0
H771 H 0.59844 0.41964 0.17271 0.0
H772 H 0.72299 0.40012 0.1284 0.0
H773 H 0.65073 0.406 0.12647 0.0
H774 H 0.66382 0.50887 0.14785 0.0
H775 H 0.73613 0.503 0.14941 0.0
C776 C 0.54683 0.48992 0.11583 0.0
C777 C 0.52351 0.46784 0.13572 0.0
C778 C 0.58825 0.48681 0.11644 0.0
C779 C 0.60752 0.46136 0.13661 0.0
C780 C 0.58443 0.43925 0.15643 0.0
C781 C 0.54306 0.44253 0.15619 0.0
C782 C 0.71046 0.42403 0.13235 0.0
C783 C 0.73533 0.45111 0.13903 0.0
C784 C 0.66907 0.42735 0.13161 0.0
C785 C 0.65155 0.45789 0.13708 0.0
C786 C 0.6764 0.48505 0.14329 0.0
C787 C 0.7178 0.48165 0.14449 0.0
H788 H 0.22521 0.33662 0.19018 0.0
H789 H 0.21983 0.40348 0.09514 0.0
H790 H 0.15881 0.31687 0.17097 0.0
H791 H 0.15378 0.38407 0.07613 0.0
H792 H 0.03935 0.34439 0.04017 0.0
H793 H 0.11063 0.34094 0.05274 0.0
H794 H 0.094 0.34147 0.17441 0.0
H795 H 0.02248 0.34302 0.16194 0.0
C796 C 0.20996 0.34689 0.16503 0.0
C797 C 0.22748 0.37195 0.1445 0.0
C798 C 0.17204 0.33549 0.15395 0.0
C799 C 0.15088 0.34897 0.12217 0.0
C800 C 0.16943 0.3727 0.10039 0.0
C801 C 0.20733 0.38401 0.11139 0.0
C802 C 0.05055 0.34283 0.06963 0.0
C803 C 0.02497 0.34521 0.10011 0.0
C804 C 0.09162 0.34108 0.07679 0.0
C805 C 0.10803 0.34194 0.11452 0.0
C806 C 0.08239 0.34099 0.14495 0.0
C807 C 0.04129 0.34246 0.13779 0.0
H808 H 0.50899 0.31726 0.60621 0.0
H809 H 0.52545 0.41347 0.65313 0.0
H810 H 0.57833 0.30424 0.62386 0.0
H811 H 0.59499 0.40177 0.66864 0.0
H812 H 0.71722 0.376 0.70362 0.0
H813 H 0.64477 0.37576 0.70392 0.0
H814 H 0.63998 0.31606 0.60157 0.0
H815 H 0.71228 0.3147 0.60351 0.0
C816 C 0.52764 0.3355 0.62048 0.0
C817 C 0.51228 0.36632 0.62828 0.0
C818 C 0.56733 0.32822 0.6304 0.0
C819 C 0.59264 0.352 0.6474 0.0
C820 C 0.57652 0.3825 0.65637 0.0
C821 C 0.53667 0.38941 0.64727 0.0
C822 C 0.70032 0.36231 0.68187 0.0
C823 C 0.71981 0.3456 0.6534 0.0
C824 C 0.65892 0.36233 0.68172 0.0
C825 C 0.63624 0.3465 0.65227 0.0
C826 C 0.65615 0.32827 0.62499 0.0
C827 C 0.6976 0.32758 0.62583 0.0
H828 H 0.00662 0.49367 0.57909 0.0
H829 H 0.01402 0.42663 0.67408 0.0
H830 H 0.07889 0.49656 0.58042 0.0
H831 H 0.08622 0.42931 0.67504 0.0
H832 H 0.21248 0.41335 0.63574 0.0
H833 H 0.14015 0.41199 0.63503 0.0
H834 H 0.13652 0.51606 0.62028 0.0
H835 H 0.20897 0.5173 0.61989 0.0
C836 C 0.0235 0.47981 0.60053 0.0
C837 C 0.00422 0.45977 0.62634 0.0
C838 C 0.06503 0.48145 0.60125 0.0
C839 C 0.08835 0.46303 0.62769 0.0
C840 C 0.06915 0.44337 0.65385 0.0
C841 C 0.02766 0.44182 0.65325 0.0
C842 C 0.19632 0.43591 0.63194 0.0
C843 C 0.21661 0.46544 0.62774 0.0
C844 C 0.15482 0.43518 0.632 0.0
C845 C 0.13253 0.46393 0.62771 0.0
C846 C 0.15278 0.49345 0.62335 0.0
C847 C 0.19432 0.4942 0.62349 0.0
H848 H 0.12942 0.25433 0.2603 0.0
H849 H 0.13324 0.15509 0.21999 0.0
H850 H 0.11851 0.27294 0.19367 0.0
H851 H 0.12123 0.17366 0.15449 0.0
H852 H 0.05179 0.21077 0.05211 0.0
H853 H 0.05433 0.20984 0.12221 0.0
H854 H 0.16694 0.25985 0.12552 0.0
H855 H 0.16484 0.26015 0.05527 0.0
C856 C 0.12836 0.23658 0.23736 0.0
C857 C 0.13166 0.20317 0.24554 0.0
C858 C 0.12186 0.24724 0.19941 0.0
C859 C 0.11832 0.22461 0.16931 0.0
C860 C 0.12293 0.19148 0.17739 0.0
C861 C 0.12982 0.1809 0.21493 0.0
C862 C 0.07612 0.2229 0.06782 0.0
C863 C 0.1082 0.23538 0.04848 0.0
C864 C 0.07766 0.22225 0.10783 0.0
C865 C 0.11097 0.23456 0.129 0.0
C866 C 0.1409 0.25038 0.10975 0.0
C867 C 0.13969 0.25054 0.06967 0.0
H868 H 0.95078 0.87875 0.99218 0.0
H869 H 0.82267 0.88543 0.9845 0.0
H870 H 0.95021 0.86391 0.92447 0.0
H871 H 0.82215 0.87178 0.91667 0.0
H872 H 0.83184 0.8314 0.79668 0.0
H873 H 0.83504 0.83171 0.86687 0.0
H874 H 0.93631 0.89612 0.86722 0.0
H875 H 0.93304 0.89599 0.79793 0.0
C876 C 0.92249 0.87652 0.97622 0.0
C877 C 0.88683 0.88373 0.99354 0.0
C878 C 0.92215 0.86831 0.93735 0.0
C879 C 0.88615 0.86707 0.91504 0.0
C880 C 0.85037 0.87234 0.93299 0.0
C881 C 0.85071 0.88057 0.97178 0.0
C882 C 0.85486 0.84545 0.81185 0.0
C883 C 0.88231 0.86349 0.79162 0.0
C884 C 0.85676 0.84558 0.852 0.0
C885 C 0.88612 0.86377 0.87267 0.0
C886 C 0.91393 0.88121 0.85233 0.0
C887 C 0.91199 0.88114 0.81244 0.0
H888 H 0.12429 0.75131 0.5299 0.0
H889 H 0.02877 0.68386 0.54692 0.0
H890 H 0.13319 0.75918 0.59934 0.0
H891 H 0.03773 0.69144 0.61594 0.0
H892 H 0.04717 0.71755 0.73764 0.0
H893 H 0.03406 0.73009 0.67002 0.0
H894 H 0.15928 0.72096 0.65134 0.0
H895 H 0.17239 0.70857 0.71934 0.0
C896 C 0.10449 0.73887 0.54843 0.0
C897 C 0.0759 0.71685 0.53307 0.0
C898 C 0.10986 0.74315 0.58814 0.0
C899 C 0.08637 0.7258 0.61314 0.0
C900 C 0.0561 0.70542 0.59751 0.0
C901 C 0.05107 0.7009 0.55797 0.0
C902 C 0.072 0.71893 0.71921 0.0
C903 C 0.11071 0.71153 0.73353 0.0
C904 C 0.06448 0.72605 0.68052 0.0
C905 C 0.0955 0.72591 0.65522 0.0
C906 C 0.13474 0.72135 0.67016 0.0
C907 C 0.1423 0.71422 0.70907 0.0
H908 H 0.94557 0.36027 0.47411 0.0
H909 H 0.82537 0.32436 0.47577 0.0
H910 H 0.94471 0.3513 0.40505 0.0
H911 H 0.8243 0.31523 0.407 0.0
H912 H 0.81643 0.35606 0.28405 0.0
H913 H 0.81919 0.34833 0.35297 0.0
H914 H 0.94186 0.31793 0.34984 0.0
H915 H 0.93915 0.32671 0.28071 0.0
C916 C 0.91945 0.34945 0.45987 0.0
C917 C 0.8854 0.34341 0.4802 0.0
C918 C 0.91883 0.34431 0.42019 0.0
C919 C 0.88415 0.33293 0.40011 0.0
C920 C 0.85123 0.32461 0.42118 0.0
C921 C 0.8519 0.32969 0.46069 0.0
C922 C 0.84367 0.34696 0.29794 0.0
C923 C 0.87765 0.3423 0.27701 0.0
C924 C 0.84534 0.34244 0.33761 0.0
C925 C 0.88098 0.33287 0.35733 0.0
C926 C 0.91421 0.32609 0.33589 0.0
C927 C 0.91261 0.33092 0.29623 0.0
H928 H 0.59608 0.17428 0.55371 0.0
H929 H 0.66883 0.26071 0.55457 0.0
H930 H 0.61052 0.16794 0.62247 0.0
H931 H 0.68281 0.25442 0.62391 0.0
H932 H 0.64655 0.23372 0.7575 0.0
H933 H 0.6359 0.24872 0.69018 0.0
H934 H 0.68708 0.15777 0.65642 0.0
H935 H 0.69999 0.14326 0.72348 0.0
C936 C 0.61417 0.19245 0.56882 0.0
C937 C 0.63126 0.21802 0.54891 0.0
C938 C 0.62275 0.1886 0.60799 0.0
C939 C 0.64805 0.21053 0.62805 0.0
C940 C 0.66325 0.23728 0.60881 0.0
C941 C 0.65522 0.24084 0.56936 0.0
C942 C 0.65689 0.21733 0.7359 0.0
C943 C 0.67371 0.18699 0.74609 0.0
C944 C 0.6504 0.2259 0.69738 0.0
C945 C 0.66003 0.20408 0.66848 0.0
C946 C 0.67886 0.1747 0.67843 0.0
C947 C 0.68605 0.16639 0.71681 0.0
H948 H 0.33042 0.83116 0.29596 0.0
H949 H 0.43639 0.8906 0.29982 0.0
H950 H 0.33218 0.83099 0.36597 0.0
H951 H 0.43854 0.88976 0.36901 0.0
H952 H 0.44864 0.87216 0.49386 0.0
H953 H 0.44855 0.85727 0.4262 0.0
H954 H 0.32125 0.87077 0.41593 0.0
H955 H 0.32117 0.88429 0.48372 0.0
C956 C 0.35421 0.84396 0.31161 0.0
C957 C 0.38327 0.86083 0.29206 0.0
C958 C 0.35525 0.84382 0.35172 0.0
C959 C 0.38563 0.86023 0.37313 0.0
C960 C 0.41526 0.87621 0.35354 0.0
C961 C 0.41401 0.87663 0.31365 0.0
C962 C 0.42055 0.87118 0.47737 0.0
C963 C 0.38501 0.87997 0.49401 0.0
C964 C 0.42052 0.86294 0.43852 0.0
C965 C 0.38496 0.86333 0.41549 0.0
C966 C 0.34915 0.87011 0.43276 0.0
C967 C 0.34918 0.8783 0.47155 0.0
H968 H 0.59086 0.74383 0.01508 0.0
H969 H 0.67808 0.6667 0.02215 0.0
H970 H 0.59235 0.7462 0.08535 0.0
H971 H 0.6812 0.67056 0.09097 0.0
H972 H 0.63111 0.64845 0.20494 0.0
H973 H 0.63422 0.65356 0.13622 0.0
H974 H 0.63408 0.75817 0.14676 0.0
H975 H 0.62971 0.75285 0.21662 0.0
C976 C 0.61067 0.72775 0.03141 0.0
C977 C 0.63439 0.70515 0.01269 0.0
C978 C 0.61187 0.72939 0.07161 0.0
C979 C 0.63665 0.70834 0.09369 0.0
C980 C 0.66137 0.6868 0.07487 0.0
C981 C 0.65996 0.68497 0.03512 0.0
C982 C 0.63177 0.67259 0.19271 0.0
C983 C 0.62993 0.70025 0.2161 0.0
C984 C 0.63389 0.67555 0.15329 0.0
C985 C 0.63463 0.70628 0.13598 0.0
C986 C 0.63335 0.73416 0.1593 0.0
C987 C 0.63129 0.73115 0.19918 0.0
H988 H 0.34175 0.33743 0.78273 0.0
H989 H 0.37529 0.43782 0.80183 0.0
H990 H 0.34648 0.32839 0.85238 0.0
H991 H 0.38221 0.42805 0.87018 0.0
H992 H 0.43648 0.39094 0.98214 0.0
H993 H 0.43253 0.38593 0.91219 0.0
H994 H 0.30867 0.35987 0.91463 0.0
H995 H 0.31237 0.36557 0.98464 0.0
C996 C 0.35004 0.35751 0.80155 0.0
C997 C 0.359 0.38819 0.78642 0.0
C998 C 0.35309 0.3522 0.84129 0.0
C999 C 0.36578 0.37733 0.86631 0.0
C1000 C 0.37347 0.40806 0.85133 0.0
C1001 C 0.36964 0.41354 0.81205 0.0
C1002 C 0.40881 0.3831 0.96783 0.0
C1003 C 0.37469 0.3788 0.98861 0.0
C1004 C 0.4065 0.38034 0.92791 0.0
C1005 C 0.37024 0.37266 0.90824 0.0
C1006 C 0.33696 0.36563 0.92923 0.0
C1007 C 0.33907 0.36898 0.96914 0.0
H1008 H 0.28419 0.37511 0.5334 0.0
H1009 H 0.32709 0.29511 0.60363 0.0
H1010 H 0.24001 0.33796 0.49692 0.0
H1011 H 0.28219 0.25838 0.56841 0.0
H1012 H 0.22415 0.19405 0.47416 0.0
H1013 H 0.26973 0.23075 0.50982 0.0
H1014 H 0.18157 0.30698 0.50052 0.0
H1015 H 0.13702 0.27082 0.464 0.0
C1016 C 0.28403 0.34967 0.54121 0.0
C1017 C 0.30932 0.33818 0.57139 0.0
C1018 C 0.2585 0.32831 0.52045 0.0
C1019 C 0.25734 0.29494 0.52957 0.0
C1020 C 0.2826 0.28364 0.55992 0.0
C1021 C 0.30826 0.30489 0.5804 0.0
C1022 C 0.21451 0.21858 0.48 0.0
C1023 C 0.17699 0.22947 0.4661 0.0
C1024 C 0.2406 0.2397 0.50052 0.0
C1025 C 0.22962 0.27212 0.50796 0.0
C1026 C 0.19165 0.28258 0.4947 0.0
C1027 C 0.16585 0.26164 0.47397 0.0
H1028 H 0.94305 0.93608 0.51848 0.0
H1029 H 0.93046 1.01396 0.59961 0.0
H1030 H 0.98829 0.96983 0.48296 0.0
H1031 H 0.97422 0.04809 0.56382 0.0
H1032 H 0.08439 0.09221 0.51474 0.0
H1033 H 0.04151 0.05611 0.55018 0.0
H1034 H 0.99453 1.01496 0.44336 0.0
H1035 H 0.03793 0.04947 0.40871 0.0
C1036 C 0.94894 0.96076 0.52798 0.0
C1037 C 0.93284 0.97247 0.56156 0.0
C1038 C 0.97516 0.98015 0.50784 0.0
C1039 C 0.98559 1.0118 0.52065 0.0
C1040 C 0.968 1.02371 0.55347 0.0
C1041 C 0.94228 1.00428 0.57368 0.0
C1042 C 0.06531 0.0751 0.49903 0.0
C1043 C 0.06474 0.07394 0.45886 0.0
C1044 C 0.04031 0.05458 0.51924 0.0
C1045 C 0.01406 1.03253 0.49973 0.0
C1046 C 0.01444 1.03106 0.45965 0.0
C1047 C 0.03937 0.05126 0.43966 0.0
H1048 H 0.32579 0.97837 0.76621 0.0
H1049 H 0.29855 0.04258 0.67109 0.0
H1050 H 0.28623 1.01275 0.80707 0.0
H1051 H 0.2603 0.07717 0.71165 0.0
H1052 H 0.16201 0.11724 0.78318 0.0
H1053 H 0.19981 0.08088 0.74302 0.0
H1054 H 0.28399 0.06366 0.83828 0.0
H1055 H 0.24593 0.09873 0.87821 0.0
C1056 C 0.31193 1.00005 0.7542 0.0
C1057 C 0.31538 1.00764 0.71539 0.0
C1058 C 0.28915 1.01983 0.77755 0.0
C1059 C 0.26953 0.04778 0.76269 0.0
C1060 C 0.27395 0.05557 0.72406 0.0
C1061 C 0.29637 1.0358 0.70082 0.0
C1062 C 0.18849 0.10556 0.79547 0.0
C1063 C 0.20072 0.11095 0.83397 0.0
C1064 C 0.21039 0.08481 0.77244 0.0
C1065 C 0.24518 0.06911 0.7873 0.0
C1066 C 0.25714 0.07463 0.82583 0.0
C1067 C 0.23526 0.0951 0.84875 0.0
H1068 H 0.96802 0.35923 0.68503 0.0
H1069 H 0.8813 0.32741 0.76365 0.0
H1070 H 0.0182 0.32496 0.71792 0.0
H1071 H 0.9314 0.29291 0.79614 0.0
H1072 H 0.0253 0.21295 0.82356 0.0
H1073 H 0.97493 0.2429 0.78446 0.0
H1074 H 0.05284 0.32612 0.78406 0.0
H1075 H 0.1026 0.29659 0.8232 0.0
C1076 C 0.95958 0.34488 0.7092 0.0
C1077 C 0.92067 0.34637 0.72189 0.0
C1078 C 0.98835 0.32524 0.72805 0.0
C1079 C 0.97875 0.30617 0.75961 0.0
C1080 C 0.93963 0.30705 0.77171 0.0
C1081 C 0.91103 0.32707 0.75326 0.0
C1082 C 0.03175 0.23749 0.81474 0.0
C1083 C 0.06786 0.25243 0.82662 0.0
C1084 C 0.00287 0.2547 0.79257 0.0
C1085 C 0.00991 0.28691 0.78121 0.0
C1086 C 0.04659 0.30131 0.79204 0.0
C1087 C 0.07503 0.2844 0.81468 0.0
H1088 H 0.80352 0.86467 0.52624 0.0
H1089 H 0.77916 0.79226 0.61113 0.0
H1090 H 0.76055 0.8352 0.47916 0.0
H1091 H 0.7363 0.76348 0.56479 0.0
H1092 H 0.69446 0.70046 0.46435 0.0
H1093 H 0.74014 0.73063 0.50778 0.0
H1094 H 0.69085 0.82101 0.46461 0.0
H1095 H 0.64576 0.79097 0.42085 0.0
C1096 C 0.78891 0.84266 0.53493 0.0
C1097 C 0.79506 0.83082 0.57244 0.0
C1098 C 0.76423 0.82578 0.50801 0.0
C1099 C 0.74528 0.7967 0.51805 0.0
C1100 C 0.75105 0.78531 0.55573 0.0
C1101 C 0.77551 0.80208 0.58246 0.0
C1102 C 0.6934 0.72675 0.4641 0.0
C1103 C 0.6662 0.74321 0.43928 0.0
C1104 C 0.71951 0.74409 0.48908 0.0
C1105 C 0.71908 0.77832 0.48987 0.0
C1106 C 0.69235 0.79473 0.46453 0.0
C1107 C 0.66625 0.77742 0.4396 0.0
H1108 H 0.72955 0.09806 0.36901 0.0
H1109 H 0.66104 0.12742 0.26708 0.0
H1110 H 0.77057 0.06398 0.33142 0.0
H1111 H 0.70173 0.09149 0.22885 0.0
H1112 H 0.8068 0.05018 0.16716 0.0
H1113 H 0.76527 0.08491 0.20467 0.0
H1114 H 0.7745 1.01568 0.29746 0.0
H1115 H 0.8176 0.98153 0.26006 0.0
C1116 C 0.72274 0.09696 0.33842 0.0
C1117 C 0.69166 0.11563 0.32116 0.0
C1118 C 0.74638 0.07698 0.31676 0.0
C1119 C 0.73964 0.0745 0.27694 0.0
C1120 C 0.70829 0.09297 0.25943 0.0
C1121 C 0.68467 0.11345 0.2813 0.0
C1122 C 0.80034 0.04254 0.1958 0.0
C1123 C 0.81578 1.01317 0.21077 0.0
C1124 C 0.77599 0.06234 0.21718 0.0
C1125 C 0.76589 0.05322 0.25413 0.0
C1126 C 0.7819 1.02393 0.26935 0.0
C1127 C 0.80677 1.00426 0.24801 0.0
H1128 H 0.90334 0.81293 0.18715 0.0
H1129 H 0.96133 0.89762 0.23733 0.0
H1130 H 0.95117 0.77807 0.22095 0.0
H1131 H 0.00872 0.8624 0.27264 0.0
H1132 H 0.11231 0.79321 0.29771 0.0
H1133 H 0.06387 0.82795 0.26399 0.0
H1134 H 0.9723 0.75664 0.28092 0.0
H1135 H 0.0213 0.72134 0.31357 0.0
C1136 C 0.92606 0.82419 0.20581 0.0
C1137 C 0.9284 0.85822 0.20943 0.0
C1138 C 0.95348 0.80403 0.2255 0.0
C1139 C 0.98401 0.8172 0.2497 0.0
C1140 C 0.98604 0.85129 0.25382 0.0
C1141 C 0.95865 0.87155 0.23383 0.0
C1142 C 0.08187 0.7848 0.29403 0.0
C1143 C 0.07077 0.75439 0.30832 0.0
C1144 C 0.05392 0.80495 0.27497 0.0
C1145 C 0.01389 0.79543 0.26989 0.0
C1146 C 0.00287 0.76476 0.28381 0.0
C1147 C 0.03099 0.74444 0.30262 0.0
H1148 H 0.30253 0.85857 0.02929 0.0
H1149 H 0.28643 0.78675 0.11705 0.0
H1150 H 0.26163 0.82559 0.98395 0.0
H1151 H 0.24568 0.75442 0.07236 0.0
H1152 H 0.20664 0.68738 0.97421 0.0
H1153 H 0.25103 0.72066 0.01577 0.0
H1154 H 0.19299 0.80746 0.97207 0.0
H1155 H 0.1493 0.7745 0.93037 0.0
C1156 C 0.29013 0.83596 0.03899 0.0
C1157 C 0.29797 0.82534 0.07679 0.0
C1158 C 0.26669 0.81704 0.01306 0.0
C1159 C 0.25072 0.78711 0.0244 0.0
C1160 C 0.25817 0.7769 0.06234 0.0
C1161 C 0.28137 0.79571 0.08811 0.0
C1162 C 0.20348 0.71355 0.97341 0.0
C1163 C 0.1742 0.72817 0.94912 0.0
C1164 C 0.22881 0.73266 0.99731 0.0
C1165 C 0.2255 0.76681 0.99736 0.0
C1166 C 0.19672 0.78134 0.9725 0.0
C1167 C 0.17141 0.7623 0.94877 0.0
H1168 H 0.01379 0.56258 0.89965 0.0
H1169 H 0.08893 0.58638 0.99965 0.0
H1170 H 0.97316 0.5285 0.93768 0.0
H1171 H 0.04864 0.55058 0.03813 0.0
H1172 H 0.94624 0.51059 0.10381 0.0
H1173 H 0.98634 0.5455 0.0653 0.0
H1174 H 0.96847 0.47927 0.96978 0.0
H1175 H 0.92691 0.44489 1.00836 0.0
C1176 C 0.0221 0.56025 0.92985 0.0
C1177 C 0.05493 0.57737 0.94649 0.0
C1178 C -0.00131 0.5403 0.95174 0.0
C1179 C 0.00736 0.53638 0.99115 0.0
C1180 C 0.04052 0.55324 1.00794 0.0
C1181 C 0.06394 0.57361 0.98589 0.0
C1182 C 0.95041 0.5037 0.07436 0.0
C1183 C 0.9331 0.47504 0.05905 0.0
C1184 C 0.97396 0.52357 0.05236 0.0
C1185 C 0.98137 0.51527 0.01438 0.0
C1186 C 0.96323 0.48686 0.99875 0.0
C1187 C 0.93919 0.46709 0.02076 0.0
H1188 H 0.16368 0.62133 0.26821 0.0
H1189 H 0.2345 0.59597 0.37017 0.0
H1190 H 0.20657 0.58753 0.23006 0.0
H1191 H 0.2779 0.56338 0.33233 0.0
H1192 H 0.32245 0.47889 0.25917 0.0
H1193 H 0.28239 0.51417 0.29845 0.0
H1194 H 0.26981 0.58262 0.2051 0.0
H1195 H 0.30841 0.54696 0.16591 0.0
C1196 C 0.18861 0.60887 0.2824 0.0
C1197 C 0.19538 0.61127 0.32227 0.0
C1198 C 0.21343 0.58954 0.26056 0.0
C1199 C 0.2459 0.57238 0.27799 0.0
C1200 C 0.25291 0.57547 0.3178 0.0
C1201 C 0.22801 0.59447 0.33955 0.0
C1202 C 0.31165 0.50174 0.24741 0.0
C1203 C 0.3186 0.51006 0.20943 0.0
C1204 C 0.28855 0.52204 0.26985 0.0
C1205 C 0.27219 0.5513 0.25493 0.0
C1206 C 0.28079 0.56005 0.21743 0.0
C1207 C 0.30341 0.53969 0.19502 0.0
H1208 H 0.76764 0.36042 0.06489 0.0
H1209 H 0.85053 0.28124 0.05571 0.0
H1210 H 0.71541 0.32726 0.03337 0.0
H1211 H 0.79939 0.24872 0.02263 0.0
H1212 H 0.69426 0.18477 0.99425 0.0
H1213 H 0.74211 0.21866 0.03063 0.0
H1214 H 0.69144 0.3042 0.97577 0.0
H1215 H 0.64254 0.27054 0.94116 0.0
C1216 C 0.77486 0.33613 0.05562 0.0
C1217 C 0.81318 0.32345 0.06296 0.0
C1218 C 0.74492 0.31703 0.03743 0.0
C1219 C 0.7528 0.28497 0.02561 0.0
C1220 C 0.79158 0.27281 0.03218 0.0
C1221 C 0.82117 0.29165 0.05084 0.0
C1222 C 0.69301 0.21085 0.99041 0.0
C1223 C 0.66451 0.22484 0.96474 0.0
C1224 C 0.72078 0.23037 0.01097 0.0
C1225 C 0.72122 0.26436 1.00596 0.0
C1226 C 0.69196 0.2783 0.98095 0.0
C1227 C 0.66389 0.25885 0.96084 0.0
H1228 H 0.75846 0.4926 0.63422 0.0
H1229 H 0.8159 0.46117 0.74108 0.0
H1230 H 0.71531 0.52803 0.66834 0.0
H1231 H 0.77302 0.49799 0.77569 0.0
H1232 H 0.66557 0.54195 0.82912 0.0
H1233 H 0.70626 0.50523 0.79319 0.0
H1234 H 0.71173 0.57687 0.70351 0.0
H1235 H 0.6698 0.61336 0.73944 0.0
C1236 C 0.76224 0.49342 0.66516 0.0
C1237 C 0.79086 0.47383 0.68486 0.0
C1238 C 0.73744 0.51411 0.68478 0.0
C1239 C 0.74041 0.51616 0.72488 0.0
C1240 C 0.76934 0.4968 0.74478 0.0
C1241 C 0.79423 0.47583 0.725 0.0
C1242 C 0.6748 0.54962 0.80132 0.0
C1243 C 0.66416 0.58049 0.78697 0.0
C1244 C 0.69872 0.5287 0.78095 0.0
C1245 C 0.7131 0.53808 0.74563 0.0
C1246 C 0.7011 0.56856 0.73048 0.0
C1247 C 0.67678 0.58949 0.75088 0.0
H1248 H 0.43357 0.93646 0.01291 0.0
H1249 H 0.42218 1.01385 0.09494 0.0
H1250 H 0.47308 0.97227 0.97379 0.0
H1251 H 0.46028 0.04982 0.0558 0.0
H1252 H 0.57032 0.0928 1.00362 0.0
H1253 H 0.527 0.05799 0.03981 0.0
H1254 H 0.47497 1.01886 0.93389 0.0
H1255 H 0.51882 0.0527 0.89812 0.0
C1256 C 0.43846 0.96139 0.02194 0.0
C1257 C 0.42471 0.97235 0.0569 0.0
C1258 C 0.46131 0.98197 0.99969 0.0
C1259 C 0.47061 1.01398 0.01186 0.0
C1260 C 0.45485 1.0252 0.0459 0.0
C1261 C 0.43248 1.00466 0.06813 0.0
C1262 C 0.54958 0.07681 0.98815 0.0
C1263 C 0.54828 0.07555 0.94797 0.0
C1264 C 0.52449 0.0569 0.00884 0.0
C1265 C 0.49726 1.03541 0.98986 0.0
C1266 C 0.49585 1.03454 0.94966 0.0
C1267 C 0.52097 0.05423 0.92908 0.0
H1268 H 0.39708 0.30733 0.18902 0.0
H1269 H 0.45849 0.39387 0.22989 0.0
H1270 H 0.44189 0.27402 0.22932 0.0
H1271 H 0.50363 0.36038 0.26994 0.0
H1272 H 0.53835 0.29593 0.3719 0.0
H1273 H 0.49711 0.32757 0.32742 0.0
H1274 H 0.51215 0.25553 0.23936 0.0
H1275 H 0.55391 0.22313 0.2846 0.0
C1276 C 0.42026 0.3193 0.20647 0.0
C1277 C 0.4239 0.35338 0.20653 0.0
C1278 C 0.44616 0.30009 0.22933 0.0
C1279 C 0.47624 0.31449 0.25295 0.0
C1280 C 0.4804 0.34854 0.25243 0.0
C1281 C 0.45457 0.36776 0.22946 0.0
C1282 C 0.53309 0.28659 0.3431 0.0
C1283 C 0.54972 0.25689 0.33186 0.0
C1284 C 0.50957 0.30502 0.31744 0.0
C1285 C 0.50172 0.29437 0.27969 0.0
C1286 C 0.51766 0.26439 0.26835 0.0
C1287 C 0.54159 0.24585 0.29418 0.0
H1288 H 0.3817 0.80939 0.70254 0.0
H1289 H 0.46708 0.88662 0.72255 0.0
H1290 H 0.42589 0.77172 0.73712 0.0
H1291 H 0.5121 0.8486 0.7562 0.0
H1292 H 0.56818 0.78129 0.84521 0.0
H1293 H 0.52142 0.81812 0.8131 0.0
H1294 H 0.4863 0.74232 0.73251 0.0
H1295 H 0.53266 0.70484 0.76582 0.0
C1296 C 0.41001 0.81835 0.71431 0.0
C1297 C 0.42083 0.85108 0.70981 0.0
C1298 C 0.43554 0.7966 0.7339 0.0
C1299 C 0.47279 0.80689 0.74935 0.0
C1300 C 0.48344 0.8398 0.74519 0.0
C1301 C 0.45768 0.86167 0.72582 0.0
C1302 C 0.55045 0.77233 0.82067 0.0
C1303 C 0.55438 0.74011 0.80791 0.0
C1304 C 0.52375 0.79364 0.80204 0.0
C1305 C 0.5003 0.7835 0.76982 0.0
C1306 C 0.50361 0.75099 0.75742 0.0
C1307 C 0.53026 0.72947 0.77639 0.0
H1308 H 0.49515 0.58392 0.39348 0.0
H1309 H 0.57336 0.60672 0.49169 0.0
H1310 H 0.4564 0.54865 0.43219 0.0
H1311 H 0.53478 0.57013 0.53077 0.0
H1312 H 0.43436 0.52961 0.59841 0.0
H1313 H 0.47252 0.56505 0.55898 0.0
H1314 H 0.45504 0.49814 0.46414 0.0
H1315 H 0.41556 0.46281 0.50389 0.0
C1316 C 0.50441 0.58123 0.42343 0.0
C1317 C 0.53761 0.5983 0.43941 0.0
C1318 C 0.48214 0.56063 0.44565 0.0
C1319 C 0.49229 0.55617 0.4847 0.0
C1320 C 0.52562 0.57319 0.50086 0.0
C1321 C 0.54796 0.59409 0.47849 0.0
C1322 C 0.43832 0.52249 0.569 0.0
C1323 C 0.42181 0.49331 0.55428 0.0
C1324 C 0.4607 0.54276 0.54645 0.0
C1325 C 0.4676 0.53446 0.5084 0.0
C1326 C 0.45021 0.50558 0.49325 0.0
C1327 C 0.42742 0.48528 0.51591 0.0
loop_
_geom_bond_atom_site_label_1
_geom_bond_atom_site_label_2
_geom_bond_distance
_geom_bond_site_symmetry_2
_ccdc_geom_bond_type
C0 C1 1.351 . S
C0 N3 1.368 . S
C0 H5 0.931 . S
C1 C0 1.351 . S
C1 N2 1.373 . S
C1 H29 0.930 . S
N2 C1 1.373 . S
N2 C4 1.340 . S
N3 C0 1.368 . S
N3 C4 1.321 . S
N3 Co6 2.135 . S
C4 N2 1.340 . S
C4 N3 1.321 . S
C4 H28 0.930 . S
H5 C0 0.931 . S
Co6 N3 2.135 . S
Co6 N9 2.121 . S
Co6 O14 2.055 . S
Co6 O17 2.039 . S
Co6 N20 2.140 . S
C7 O8 1.227 . S
C7 O17 1.265 . S
O8 C7 1.227 . S
N9 Co6 2.121 . S
N9 C11 1.375 . S
N9 C12 1.313 . S
C10 C11 1.338 . S
C10 N13 1.377 . S
C10 H30 0.930 . S
C11 N9 1.375 . S
C11 C10 1.338 . S
C11 H15 0.931 . S
C12 N9 1.313 . S
C12 N13 1.344 . S
C12 H16 0.930 . S
N13 C10 1.377 . S
N13 C12 1.344 . S
O14 Co6 2.055 . S
O14 C18 1.253 . S
H15 C11 0.931 . S
H16 C12 0.930 . S
O17 Co6 2.039 . S
O17 C7 1.265 . S
C18 O14 1.253 . S
C18 O19 1.227 . S
O19 C18 1.227 . S
N20 Co6 2.140 . S
N20 C23 1.346 . S
N20 C24 1.345 . S
C21 C22 1.387 . S
C21 C25 1.391 . S
C22 C21 1.387 . S
C22 C23 1.369 . S
C22 H31 0.929 . S
C23 N20 1.346 . S
C23 C22 1.369 . S
C23 H26 0.928 . S
C24 N20 1.345 . S
C24 C25 1.371 . S
C24 H27 0.931 . S
C25 C21 1.391 . S
C25 C24 1.371 . S
C25 H32 0.930 . S
H26 C23 0.928 . S
H27 C24 0.931 . S
H28 C4 0.930 . S
H29 C1 0.930 . S
H30 C10 0.930 . S
H31 C22 0.929 . S
H32 C25 0.930 . S
C33 C34 1.351 . S
C33 N36 1.368 . S
C33 H38 0.931 . S
C34 C33 1.351 . S
C34 N35 1.373 . S
C34 H62 0.930 . S
N35 C34 1.373 . S
N35 C37 1.340 . S
N36 C33 1.368 . S
N36 C37 1.321 . S
N36 Co39 2.135 . S
C37 N35 1.340 . S
C37 N36 1.321 . S
C37 H61 0.930 . S
H38 C33 0.931 . S
Co39 N36 2.135 . S
Co39 N42 2.121 . S
Co39 O47 2.055 . S
Co39 O50 2.039 . S
Co39 N53 2.140 . S
C40 O41 1.227 . S
C40 O50 1.265 . S
O41 C40 1.227 . S
N42 Co39 2.121 . S
N42 C44 1.375 . S
N42 C45 1.313 . S
C43 C44 1.338 . S
C43 N46 1.377 . S
C43 H63 0.930 . S
C44 N42 1.375 . S
C44 C43 1.338 . S
C44 H48 0.931 . S
C45 N42 1.313 . S
C45 N46 1.344 . S
C45 H49 0.930 . S
N46 C43 1.377 . S
N46 C45 1.344 . S
O47 Co39 2.055 . S
O47 C51 1.253 . S
H48 C44 0.931 . S
H49 C45 0.930 . S
O50 Co39 2.039 . S
O50 C40 1.265 . S
C51 O47 1.253 . S
C51 O52 1.227 . S
O52 C51 1.227 . S
N53 Co39 2.140 . S
N53 C56 1.346 . S
N53 C57 1.345 . S
C54 C55 1.387 . S
C54 C58 1.391 . S
C55 C54 1.387 . S
C55 C56 1.369 . S
C55 H64 0.929 . S
C56 N53 1.346 . S
C56 C55 1.369 . S
C56 H59 0.928 . S
C57 N53 1.345 . S
C57 C58 1.371 . S
C57 H60 0.931 . S
C58 C54 1.391 . S
C58 C57 1.371 . S
C58 H65 0.930 . S
H59 C56 0.928 . S
H60 C57 0.931 . S
H61 C37 0.930 . S
H62 C34 0.930 . S
H63 C43 0.930 . S
H64 C55 0.929 . S
H65 C58 0.930 . S
C66 C67 1.351 . S
C66 N69 1.368 . S
C66 H71 0.931 . S
C67 C66 1.351 . S
C67 N68 1.373 . S
C67 H95 0.930 . S
N68 C67 1.373 . S
N68 C70 1.340 . S
N69 C66 1.368 . S
N69 C70 1.321 . S
N69 Co72 2.135 . S
C70 N68 1.340 . S
C70 N69 1.321 . S
C70 H94 0.930 . S
H71 C66 0.931 . S
Co72 N69 2.135 . S
Co72 N75 2.121 . S
Co72 O80 2.055 . S
Co72 O83 2.039 . S
Co72 N86 2.140 . S
C73 O74 1.227 . S
C73 O83 1.265 . S
O74 C73 1.227 . S
N75 Co72 2.121 . S
N75 C77 1.375 . S
N75 C78 1.313 . S
C76 C77 1.338 . S
C76 N79 1.377 . S
C76 H96 0.930 . S
C77 N75 1.375 . S
C77 C76 1.338 . S
C77 H81 0.931 . S
C78 N75 1.313 . S
C78 N79 1.344 . S
C78 H82 0.930 . S
N79 C76 1.377 . S
N79 C78 1.344 . S
O80 Co72 2.055 . S
O80 C84 1.253 . S
H81 C77 0.931 . S
H82 C78 0.930 . S
O83 Co72 2.039 . S
O83 C73 1.265 . S
C84 O80 1.253 . S
C84 O85 1.227 . S
O85 C84 1.227 . S
N86 Co72 2.140 . S
N86 C89 1.346 . S
N86 C90 1.345 . S
C87 C88 1.387 . S
C87 C91 1.391 . S
C88 C87 1.387 . S
C88 C89 1.369 . S
C88 H97 0.929 . S
C89 N86 1.346 . S
C89 C88 1.369 . S
C89 H92 0.928 . S
C90 N86 1.345 . S
C90 C91 1.371 . S
C90 H93 0.931 . S
C91 C87 1.391 . S
C91 C90 1.371 . S
C91 H98 0.930 . S
H92 C89 0.928 . S
H93 C90 0.931 . S
H94 C70 0.930 . S
H95 C67 0.930 . S
H96 C76 0.930 . S
H97 C88 0.929 . S
H98 C91 0.930 . S
C99 C100 1.351 . S
C99 N102 1.368 . S
C99 H104 0.931 . S
C100 C99 1.351 . S
C100 N101 1.373 . S
C100 H128 0.930 . S
N101 C100 1.373 . S
N101 C103 1.340 . S
N102 C99 1.368 . S
N102 C103 1.321 . S
N102 Co105 2.135 . S
C103 N101 1.340 . S
C103 N102 1.321 . S
C103 H127 0.930 . S
H104 C99 0.931 . S
Co105 N102 2.135 . S
Co105 N108 2.121 . S
Co105 O113 2.055 . S
Co105 O116 2.039 . S
Co105 N119 2.140 . S
C106 O107 1.227 . S
C106 O116 1.265 . S
O107 C106 1.227 . S
N108 Co105 2.121 . S
N108 C110 1.375 . S
N108 C111 1.313 . S
C109 C110 1.338 . S
C109 N112 1.377 . S
C109 H129 0.930 . S
C110 N108 1.375 . S
C110 C109 1.338 . S
C110 H114 0.931 . S
C111 N108 1.313 . S
C111 N112 1.344 . S
C111 H115 0.930 . S
N112 C109 1.377 . S
N112 C111 1.344 . S
O113 Co105 2.055 . S
O113 C117 1.253 . S
H114 C110 0.931 . S
H115 C111 0.930 . S
O116 Co105 2.039 . S
O116 C106 1.265 . S
C117 O113 1.253 . S
C117 O118 1.227 . S
O118 C117 1.227 . S
N119 Co105 2.140 . S
N119 C122 1.346 . S
N119 C123 1.345 . S
C120 C121 1.387 . S
C120 C124 1.391 . S
C121 C120 1.387 . S
C121 C122 1.369 . S
C121 H130 0.929 . S
C122 N119 1.346 . S
C122 C121 1.369 . S
C122 H125 0.928 . S
C123 N119 1.345 . S
C123 C124 1.371 . S
C123 H126 0.931 . S
C124 C120 1.391 . S
C124 C123 1.371 . S
C124 H131 0.930 . S
H125 C122 0.928 . S
H126 C123 0.931 . S
H127 C103 0.930 . S
H128 C100 0.930 . S
H129 C109 0.930 . S
H130 C121 0.929 . S
H131 C124 0.930 . S
C132 C133 1.351 . S
C132 N135 1.368 . S
C132 H137 0.931 . S
C133 C132 1.351 . S
C133 N134 1.373 . S
C133 H161 0.930 . S
N134 C133 1.373 . S
N134 C136 1.340 . S
N135 C132 1.368 . S
N135 C136 1.321 . S
N135 Co138 2.135 . S
C136 N134 1.340 . S
C136 N135 1.321 . S
C136 H160 0.930 . S
H137 C132 0.931 . S
Co138 N135 2.135 . S
Co138 N141 2.121 . S
Co138 O146 2.055 . S
Co138 O149 2.039 . S
Co138 N152 2.140 . S
C139 O140 1.227 . S
C139 O149 1.265 . S
O140 C139 1.227 . S
N141 Co138 2.121 . S
N141 C143 1.375 . S
N141 C144 1.313 . S
C142 C143 1.338 . S
C142 N145 1.377 . S
C142 H162 0.930 . S
C143 N141 1.375 . S
C143 C142 1.338 . S
C143 H147 0.931 . S
C144 N141 1.313 . S
C144 N145 1.344 . S
C144 H148 0.930 . S
N145 C142 1.377 . S
N145 C144 1.344 . S
O146 Co138 2.055 . S
O146 C150 1.253 . S
H147 C143 0.931 . S
H148 C144 0.930 . S
O149 Co138 2.039 . S
O149 C139 1.265 . S
C150 O146 1.253 . S
C150 O151 1.227 . S
O151 C150 1.227 . S
N152 Co138 2.140 . S
N152 C155 1.346 . S
N152 C156 1.345 . S
C153 C154 1.387 . S
C153 C157 1.391 . S
C154 C153 1.387 . S
C154 C155 1.369 . S
C154 H163 0.929 . S
C155 N152 1.346 . S
C155 C154 1.369 . S
C155 H158 0.928 . S
C156 N152 1.345 . S
C156 C157 1.371 . S
C156 H159 0.931 . S
C157 C153 1.391 . S
C157 C156 1.371 . S
C157 H164 0.930 . S
H158 C155 0.928 . S
H159 C156 0.931 . S
H160 C136 0.930 . S
H161 C133 0.930 . S
H162 C142 0.930 . S
H163 C154 0.929 . S
H164 C157 0.930 . S
C165 C166 1.351 . S
C165 N168 1.368 . S
C165 H170 0.931 . S
C166 C165 1.351 . S
C166 N167 1.373 . S
C166 H194 0.930 . S
N167 C166 1.373 . S
N167 C169 1.340 . S
N168 C165 1.368 . S
N168 C169 1.321 . S
N168 Co171 2.135 . S
C169 N167 1.340 . S
C169 N168 1.321 . S
C169 H193 0.930 . S
H170 C165 0.931 . S
Co171 N168 2.135 . S
Co171 N174 2.121 . S
Co171 O179 2.055 . S
Co171 O182 2.039 . S
Co171 N185 2.140 . S
C172 O173 1.227 . S
C172 O182 1.265 . S
O173 C172 1.227 . S
N174 Co171 2.121 . S
N174 C176 1.375 . S
N174 C177 1.313 . S
C175 C176 1.338 . S
C175 N178 1.377 . S
C175 H195 0.930 . S
C176 N174 1.375 . S
C176 C175 1.338 . S
C176 H180 0.931 . S
C177 N174 1.313 . S
C177 N178 1.344 . S
C177 H181 0.930 . S
N178 C175 1.377 . S
N178 C177 1.344 . S
O179 Co171 2.055 . S
O179 C183 1.253 . S
H180 C176 0.931 . S
H181 C177 0.930 . S
O182 Co171 2.039 . S
O182 C172 1.265 . S
C183 O179 1.253 . S
C183 O184 1.227 . S
O184 C183 1.227 . S
N185 Co171 2.140 . S
N185 C188 1.346 . S
N185 C189 1.345 . S
C186 C187 1.387 . S
C186 C190 1.391 . S
C187 C186 1.387 . S
C187 C188 1.369 . S
C187 H196 0.929 . S
C188 N185 1.346 . S
C188 C187 1.369 . S
C188 H191 0.928 . S
C189 N185 1.345 . S
C189 C190 1.371 . S
C189 H192 0.931 . S
C190 C186 1.391 . S
C190 C189 1.371 . S
C190 H197 0.930 . S
H191 C188 0.928 . S
H192 C189 0.931 . S
H193 C169 0.930 . S
H194 C166 0.930 . S
H195 C175 0.930 . S
H196 C187 0.929 . S
H197 C190 0.930 . S
C198 C199 1.351 . S
C198 N201 1.368 . S
C198 H203 0.931 . S
C199 C198 1.351 . S
C199 N200 1.373 . S
C199 H227 0.930 . S
N200 C199 1.373 . S
N200 C202 1.340 . S
N201 C198 1.368 . S
N201 C202 1.321 . S
N201 Co204 2.135 . S
C202 N200 1.340 . S
C202 N201 1.321 . S
C202 H226 0.930 . S
H203 C198 0.931 . S
Co204 N201 2.135 . S
Co204 N207 2.121 . S
Co204 O212 2.055 . S
Co204 O215 2.039 . S
Co204 N218 2.140 . S
C205 O206 1.227 . S
C205 O215 1.265 . S
O206 C205 1.227 . S
N207 Co204 2.121 . S
N207 C209 1.375 . S
N207 C210 1.313 . S
C208 C209 1.338 . S
C208 N211 1.377 . S
C208 H228 0.930 . S
C209 N207 1.375 . S
C209 C208 1.338 . S
C209 H213 0.931 . S
C210 N207 1.313 . S
C210 N211 1.344 . S
C210 H214 0.930 . S
N211 C208 1.377 . S
N211 C210 1.344 . S
O212 Co204 2.055 . S
O212 C216 1.253 . S
H213 C209 0.931 . S
H214 C210 0.930 . S
O215 Co204 2.039 . S
O215 C205 1.265 . S
C216 O212 1.253 . S
C216 O217 1.227 . S
O217 C216 1.227 . S
N218 Co204 2.140 . S
N218 C221 1.346 . S
N218 C222 1.345 . S
C219 C220 1.387 . S
C219 C223 1.391 . S
C220 C219 1.387 . S
C220 C221 1.369 . S
C220 H229 0.929 . S
C221 N218 1.346 . S
C221 C220 1.369 . S
C221 H224 0.928 . S
C222 N218 1.345 . S
C222 C223 1.371 . S
C222 H225 0.931 . S
C223 C219 1.391 . S
C223 C222 1.371 . S
C223 H230 0.930 . S
H224 C221 0.928 . S
H225 C222 0.931 . S
H226 C202 0.930 . S
H227 C199 0.930 . S
H228 C208 0.930 . S
H229 C220 0.929 . S
H230 C223 0.930 . S
C231 C232 1.351 . S
C231 N234 1.368 . S
C231 H236 0.931 . S
C232 C231 1.351 . S
C232 N233 1.373 . S
C232 H260 0.930 . S
N233 C232 1.373 . S
N233 C235 1.340 . S
N234 C231 1.368 . S
N234 C235 1.321 . S
N234 Co237 2.135 . S
C235 N233 1.340 . S
C235 N234 1.321 . S
C235 H259 0.930 . S
H236 C231 0.931 . S
Co237 N234 2.135 . S
Co237 N240 2.121 . S
Co237 O245 2.055 . S
Co237 O248 2.039 . S
Co237 N251 2.140 . S
C238 O239 1.227 . S
C238 O248 1.265 . S
O239 C238 1.227 . S
N240 Co237 2.121 . S
N240 C242 1.375 . S
N240 C243 1.313 . S
C241 C242 1.338 . S
C241 N244 1.377 . S
C241 H261 0.930 . S
C242 N240 1.375 . S
C242 C241 1.338 . S
C242 H246 0.931 . S
C243 N240 1.313 . S
C243 N244 1.344 . S
C243 H247 0.930 . S
N244 C241 1.377 . S
N244 C243 1.344 . S
O245 Co237 2.055 . S
O245 C249 1.253 . S
H246 C242 0.931 . S
H247 C243 0.930 . S
O248 Co237 2.039 . S
O248 C238 1.265 . S
C249 O245 1.253 . S
C249 O250 1.227 . S
O250 C249 1.227 . S
N251 Co237 2.140 . S
N251 C254 1.346 . S
N251 C255 1.345 . S
C252 C253 1.387 . S
C252 C256 1.391 . S
C253 C252 1.387 . S
C253 C254 1.369 . S
C253 H262 0.929 . S
C254 N251 1.346 . S
C254 C253 1.369 . S
C254 H257 0.928 . S
C255 N251 1.345 . S
C255 C256 1.371 . S
C255 H258 0.931 . S
C256 C252 1.391 . S
C256 C255 1.371 . S
C256 H263 0.930 . S
H257 C254 0.928 . S
H258 C255 0.931 . S
H259 C235 0.930 . S
H260 C232 0.930 . S
H261 C241 0.930 . S
H262 C253 0.929 . S
H263 C256 0.930 . S
C264 C265 1.351 . S
C264 N267 1.368 . S
C264 H269 0.931 . S
C265 C264 1.351 . S
C265 N266 1.373 . S
C265 H293 0.930 . S
N266 C265 1.373 . S
N266 C268 1.340 . S
N267 C264 1.368 . S
N267 C268 1.321 . S
N267 Co270 2.135 . S
C268 N266 1.340 . S
C268 N267 1.321 . S
C268 H292 0.930 . S
H269 C264 0.931 . S
Co270 N267 2.135 . S
Co270 N273 2.121 . S
Co270 O278 2.055 . S
Co270 O281 2.039 . S
Co270 N284 2.140 . S
C271 O272 1.227 . S
C271 O281 1.265 . S
O272 C271 1.227 . S
N273 Co270 2.121 . S
N273 C275 1.375 . S
N273 C276 1.313 . S
C274 C275 1.338 . S
C274 N277 1.377 . S
C274 H294 0.930 . S
C275 N273 1.375 . S
C275 C274 1.338 . S
C275 H279 0.931 . S
C276 N273 1.313 . S
C276 N277 1.344 . S
C276 H280 0.930 . S
N277 C274 1.377 . S
N277 C276 1.344 . S
O278 Co270 2.055 . S
O278 C282 1.253 . S
H279 C275 0.931 . S
H280 C276 0.930 . S
O281 Co270 2.039 . S
O281 C271 1.265 . S
C282 O278 1.253 . S
C282 O283 1.227 . S
O283 C282 1.227 . S
N284 Co270 2.140 . S
N284 C287 1.346 . S
N284 C288 1.345 . S
C285 C286 1.387 . S
C285 C289 1.391 . S
C286 C285 1.387 . S
C286 C287 1.369 . S
C286 H295 0.929 . S
C287 N284 1.346 . S
C287 C286 1.369 . S
C287 H290 0.928 . S
C288 N284 1.345 . S
C288 C289 1.371 . S
C288 H291 0.931 . S
C289 C285 1.391 . S
C289 C288 1.371 . S
C289 H296 0.930 . S
H290 C287 0.928 . S
H291 C288 0.931 . S
H292 C268 0.930 . S
H293 C265 0.930 . S
H294 C274 0.930 . S
H295 C286 0.929 . S
H296 C289 0.930 . S
C297 C298 1.351 . S
C297 N300 1.368 . S
C297 H302 0.931 . S
C298 C297 1.351 . S
C298 N299 1.373 . S
C298 H326 0.930 . S
N299 C298 1.373 . S
N299 C301 1.340 . S
N300 C297 1.368 . S
N300 C301 1.321 . S
N300 Co303 2.135 . S
C301 N299 1.340 . S
C301 N300 1.321 . S
C301 H325 0.930 . S
H302 C297 0.931 . S
Co303 N300 2.135 . S
Co303 N306 2.121 . S
Co303 O311 2.055 . S
Co303 O314 2.039 . S
Co303 N317 2.140 . S
C304 O305 1.227 . S
C304 O314 1.265 . S
O305 C304 1.227 . S
N306 Co303 2.121 . S
N306 C308 1.375 . S
N306 C309 1.313 . S
C307 C308 1.338 . S
C307 N310 1.377 . S
C307 H327 0.930 . S
C308 N306 1.375 . S
C308 C307 1.338 . S
C308 H312 0.931 . S
C309 N306 1.313 . S
C309 N310 1.344 . S
C309 H313 0.930 . S
N310 C307 1.377 . S
N310 C309 1.344 . S
O311 Co303 2.055 . S
O311 C315 1.253 . S
H312 C308 0.931 . S
H313 C309 0.930 . S
O314 Co303 2.039 . S
O314 C304 1.265 . S
C315 O311 1.253 . S
C315 O316 1.227 . S
O316 C315 1.227 . S
N317 Co303 2.140 . S
N317 C320 1.346 . S
N317 C321 1.345 . S
C318 C319 1.387 . S
C318 C322 1.391 . S
C319 C318 1.387 . S
C319 C320 1.369 . S
C319 H328 0.929 . S
C320 N317 1.346 . S
C320 C319 1.369 . S
C320 H323 0.928 . S
C321 N317 1.345 . S
C321 C322 1.371 . S
C321 H324 0.931 . S
C322 C318 1.391 . S
C322 C321 1.371 . S
C322 H329 0.930 . S
H323 C320 0.928 . S
H324 C321 0.931 . S
H325 C301 0.930 . S
H326 C298 0.930 . S
H327 C307 0.930 . S
H328 C319 0.929 . S
H329 C322 0.930 . S
C330 C331 1.351 . S
C330 N333 1.368 . S
C330 H335 0.931 . S
C331 C330 1.351 . S
C331 N332 1.373 . S
C331 H359 0.930 . S
N332 C331 1.373 . S
N332 C334 1.340 . S
N333 C330 1.368 . S
N333 C334 1.321 . S
N333 Co336 2.135 . S
C334 N332 1.340 . S
C334 N333 1.321 . S
C334 H358 0.930 . S
H335 C330 0.931 . S
Co336 N333 2.135 . S
Co336 N339 2.121 . S
Co336 O344 2.055 . S
Co336 O347 2.039 . S
Co336 N350 2.140 . S
C337 O338 1.227 . S
C337 O347 1.265 . S
O338 C337 1.227 . S
N339 Co336 2.121 . S
N339 C341 1.375 . S
N339 C342 1.313 . S
C340 C341 1.338 . S
C340 N343 1.377 . S
C340 H360 0.930 . S
C341 N339 1.375 . S
C341 C340 1.338 . S
C341 H345 0.931 . S
C342 N339 1.313 . S
C342 N343 1.344 . S
C342 H346 0.930 . S
N343 C340 1.377 . S
N343 C342 1.344 . S
O344 Co336 2.055 . S
O344 C348 1.253 . S
H345 C341 0.931 . S
H346 C342 0.930 . S
O347 Co336 2.039 . S
O347 C337 1.265 . S
C348 O344 1.253 . S
C348 O349 1.227 . S
O349 C348 1.227 . S
N350 Co336 2.140 . S
N350 C353 1.346 . S
N350 C354 1.345 . S
C351 C352 1.387 . S
C351 C355 1.391 . S
C352 C351 1.387 . S
C352 C353 1.369 . S
C352 H361 0.929 . S
C353 N350 1.346 . S
C353 C352 1.369 . S
C353 H356 0.928 . S
C354 N350 1.345 . S
C354 C355 1.371 . S
C354 H357 0.931 . S
C355 C351 1.391 . S
C355 C354 1.371 . S
C355 H362 0.930 . S
H356 C353 0.928 . S
H357 C354 0.931 . S
H358 C334 0.930 . S
H359 C331 0.930 . S
H360 C340 0.930 . S
H361 C352 0.929 . S
H362 C355 0.930 . S
C363 C364 1.351 . S
C363 N366 1.368 . S
C363 H368 0.931 . S
C364 C363 1.351 . S
C364 N365 1.373 . S
C364 H392 0.930 . S
N365 C364 1.373 . S
N365 C367 1.340 . S
N366 C363 1.368 . S
N366 C367 1.321 . S
N366 Co369 2.135 . S
C367 N365 1.340 . S
C367 N366 1.321 . S
C367 H391 0.930 . S
H368 C363 0.931 . S
Co369 N366 2.135 . S
Co369 N372 2.121 . S
Co369 O377 2.055 . S
Co369 O380 2.039 . S
Co369 N383 2.140 . S
C370 O371 1.227 . S
C370 O380 1.265 . S
O371 C370 1.227 . S
N372 Co369 2.121 . S
N372 C374 1.375 . S
N372 C375 1.313 . S
C373 C374 1.338 . S
C373 N376 1.377 . S
C373 H393 0.930 . S
C374 N372 1.375 . S
C374 C373 1.338 . S
C374 H378 0.931 . S
C375 N372 1.313 . S
C375 N376 1.344 . S
C375 H379 0.930 . S
N376 C373 1.377 . S
N376 C375 1.344 . S
O377 Co369 2.055 . S
O377 C381 1.253 . S
H378 C374 0.931 . S
H379 C375 0.930 . S
O380 Co369 2.039 . S
O380 C370 1.265 . S
C381 O377 1.253 . S
C381 O382 1.227 . S
O382 C381 1.227 . S
N383 Co369 2.140 . S
N383 C386 1.346 . S
N383 C387 1.345 . S
C384 C385 1.387 . S
C384 C388 1.391 . S
C385 C384 1.387 . S
C385 C386 1.369 . S
C385 H394 0.929 . S
C386 N383 1.346 . S
C386 C385 1.369 . S
C386 H389 0.928 . S
C387 N383 1.345 . S
C387 C388 1.371 . S
C387 H390 0.931 . S
C388 C384 1.391 . S
C388 C387 1.371 . S
C388 H395 0.930 . S
H389 C386 0.928 . S
H390 C387 0.931 . S
H391 C367 0.930 . S
H392 C364 0.930 . S
H393 C373 0.930 . S
H394 C385 0.929 . S
H395 C388 0.930 . S
C396 C397 1.351 . S
C396 N399 1.368 . S
C396 H401 0.931 . S
C397 C396 1.351 . S
C397 N398 1.373 . S
C397 H425 0.930 . S
N398 C397 1.373 . S
N398 C400 1.340 . S
N399 C396 1.368 . S
N399 C400 1.321 . S
N399 Co402 2.135 . S
C400 N398 1.340 . S
C400 N399 1.321 . S
C400 H424 0.930 . S
H401 C396 0.931 . S
Co402 N399 2.135 . S
Co402 N405 2.121 . S
Co402 O410 2.055 . S
Co402 O413 2.039 . S
Co402 N416 2.140 . S
C403 O404 1.227 . S
C403 O413 1.265 . S
O404 C403 1.227 . S
N405 Co402 2.121 . S
N405 C407 1.375 . S
N405 C408 1.313 . S
C406 C407 1.338 . S
C406 N409 1.377 . S
C406 H426 0.930 . S
C407 N405 1.375 . S
C407 C406 1.338 . S
C407 H411 0.931 . S
C408 N405 1.313 . S
C408 N409 1.344 . S
C408 H412 0.930 . S
N409 C406 1.377 . S
N409 C408 1.344 . S
O410 Co402 2.055 . S
O410 C414 1.253 . S
H411 C407 0.931 . S
H412 C408 0.930 . S
O413 Co402 2.039 . S
O413 C403 1.265 . S
C414 O410 1.253 . S
C414 O415 1.227 . S
O415 C414 1.227 . S
N416 Co402 2.140 . S
N416 C419 1.346 . S
N416 C420 1.345 . S
C417 C418 1.387 . S
C417 C421 1.391 . S
C418 C417 1.387 . S
C418 C419 1.369 . S
C418 H427 0.929 . S
C419 N416 1.346 . S
C419 C418 1.369 . S
C419 H422 0.928 . S
C420 N416 1.345 . S
C420 C421 1.371 . S
C420 H423 0.931 . S
C421 C417 1.391 . S
C421 C420 1.371 . S
C421 H428 0.930 . S
H422 C419 0.928 . S
H423 C420 0.931 . S
H424 C400 0.930 . S
H425 C397 0.930 . S
H426 C406 0.930 . S
H427 C418 0.929 . S
H428 C421 0.930 . S
C429 C430 1.351 . S
C429 N432 1.368 . S
C429 H434 0.931 . S
C430 C429 1.351 . S
C430 N431 1.373 . S
C430 H458 0.930 . S
N431 C430 1.373 . S
N431 C433 1.340 . S
N432 C429 1.368 . S
N432 C433 1.321 . S
N432 Co435 2.135 . S
C433 N431 1.340 . S
C433 N432 1.321 . S
C433 H457 0.930 . S
H434 C429 0.931 . S
Co435 N432 2.135 . S
Co435 N438 2.121 . S
Co435 O443 2.055 . S
Co435 O446 2.039 . S
Co435 N449 2.140 . S
C436 O437 1.227 . S
C436 O446 1.265 . S
O437 C436 1.227 . S
N438 Co435 2.121 . S
N438 C440 1.375 . S
N438 C441 1.313 . S
C439 C440 1.338 . S
C439 N442 1.377 . S
C439 H459 0.930 . S
C440 N438 1.375 . S
C440 C439 1.338 . S
C440 H444 0.931 . S
C441 N438 1.313 . S
C441 N442 1.344 . S
C441 H445 0.930 . S
N442 C439 1.377 . S
N442 C441 1.344 . S
O443 Co435 2.055 . S
O443 C447 1.253 . S
H444 C440 0.931 . S
H445 C441 0.930 . S
O446 Co435 2.039 . S
O446 C436 1.265 . S
C447 O443 1.253 . S
C447 O448 1.227 . S
O448 C447 1.227 . S
N449 Co435 2.140 . S
N449 C452 1.346 . S
N449 C453 1.345 . S
C450 C451 1.387 . S
C450 C454 1.391 . S
C451 C450 1.387 . S
C451 C452 1.369 . S
C451 H460 0.929 . S
C452 N449 1.346 . S
C452 C451 1.369 . S
C452 H455 0.928 . S
C453 N449 1.345 . S
C453 C454 1.371 . S
C453 H456 0.931 . S
C454 C450 1.391 . S
C454 C453 1.371 . S
C454 H461 0.930 . S
H455 C452 0.928 . S
H456 C453 0.931 . S
H457 C433 0.930 . S
H458 C430 0.930 . S
H459 C439 0.930 . S
H460 C451 0.929 . S
H461 C454 0.930 . S
C462 C463 1.351 . S
C462 N465 1.368 . S
C462 H467 0.931 . S
C463 C462 1.351 . S
C463 N464 1.373 . S
C463 H491 0.930 . S
N464 C463 1.373 . S
N464 C466 1.340 . S
N465 C462 1.368 . S
N465 C466 1.321 . S
N465 Co468 2.135 . S
C466 N464 1.340 . S
C466 N465 1.321 . S
C466 H490 0.930 . S
H467 C462 0.931 . S
Co468 N465 2.135 . S
Co468 N471 2.121 . S
Co468 O476 2.055 . S
Co468 O479 2.039 . S
Co468 N482 2.140 . S
C469 O470 1.227 . S
C469 O479 1.265 . S
O470 C469 1.227 . S
N471 Co468 2.121 . S
N471 C473 1.375 . S
N471 C474 1.313 . S
C472 C473 1.338 . S
C472 N475 1.377 . S
C472 H492 0.930 . S
C473 N471 1.375 . S
C473 C472 1.338 . S
C473 H477 0.931 . S
C474 N471 1.313 . S
C474 N475 1.344 . S
C474 H478 0.930 . S
N475 C472 1.377 . S
N475 C474 1.344 . S
O476 Co468 2.055 . S
O476 C480 1.253 . S
H477 C473 0.931 . S
H478 C474 0.930 . S
O479 Co468 2.039 . S
O479 C469 1.265 . S
C480 O476 1.253 . S
C480 O481 1.227 . S
O481 C480 1.227 . S
N482 Co468 2.140 . S
N482 C485 1.346 . S
N482 C486 1.345 . S
C483 C484 1.387 . S
C483 C487 1.391 . S
C484 C483 1.387 . S
C484 C485 1.369 . S
C484 H493 0.929 . S
C485 N482 1.346 . S
C485 C484 1.369 . S
C485 H488 0.928 . S
C486 N482 1.345 . S
C486 C487 1.371 . S
C486 H489 0.931 . S
C487 C483 1.391 . S
C487 C486 1.371 . S
C487 H494 0.930 . S
H488 C485 0.928 . S
H489 C486 0.931 . S
H490 C466 0.930 . S
H491 C463 0.930 . S
H492 C472 0.930 . S
H493 C484 0.929 . S
H494 C487 0.930 . S
C495 C496 1.351 . S
C495 N498 1.368 . S
C495 H500 0.931 . S
C496 C495 1.351 . S
C496 N497 1.373 . S
C496 H524 0.930 . S
N497 C496 1.373 . S
N497 C499 1.340 . S
N498 C495 1.368 . S
N498 C499 1.321 . S
N498 Co501 2.135 . S
C499 N497 1.340 . S
C499 N498 1.321 . S
C499 H523 0.930 . S
H500 C495 0.931 . S
Co501 N498 2.135 . S
Co501 N504 2.121 . S
Co501 O509 2.055 . S
Co501 O512 2.039 . S
Co501 N515 2.140 . S
C502 O503 1.227 . S
C502 O512 1.265 . S
O503 C502 1.227 . S
N504 Co501 2.121 . S
N504 C506 1.375 . S
N504 C507 1.313 . S
C505 C506 1.338 . S
C505 N508 1.377 . S
C505 H525 0.930 . S
C506 N504 1.375 . S
C506 C505 1.338 . S
C506 H510 0.931 . S
C507 N504 1.313 . S
C507 N508 1.344 . S
C507 H511 0.930 . S
N508 C505 1.377 . S
N508 C507 1.344 . S
O509 Co501 2.055 . S
O509 C513 1.253 . S
H510 C506 0.931 . S
H511 C507 0.930 . S
O512 Co501 2.039 . S
O512 C502 1.265 . S
C513 O509 1.253 . S
C513 O514 1.227 . S
O514 C513 1.227 . S
N515 Co501 2.140 . S
N515 C518 1.346 . S
N515 C519 1.345 . S
C516 C517 1.387 . S
C516 C520 1.391 . S
C517 C516 1.387 . S
C517 C518 1.369 . S
C517 H526 0.929 . S
C518 N515 1.346 . S
C518 C517 1.369 . S
C518 H521 0.928 . S
C519 N515 1.345 . S
C519 C520 1.371 . S
C519 H522 0.931 . S
C520 C516 1.391 . S
C520 C519 1.371 . S
C520 H527 0.930 . S
H521 C518 0.928 . S
H522 C519 0.931 . S
H523 C499 0.930 . S
H524 C496 0.930 . S
H525 C505 0.930 . S
H526 C517 0.929 . S
H527 C520 0.930 . S
H528 C536 0.950 . S
H529 C541 0.950 . S
H530 C538 0.950 . S
H531 C540 0.950 . S
H532 C542 0.950 . S
H533 C544 0.950 . S
H534 C546 0.950 . S
H535 C547 0.950 . S
C536 H528 0.950 . S
C536 C537 1.386 . S
C536 C538 1.391 . S
C537 C536 1.386 . S
C537 C541 1.393 . S
C538 H530 0.950 . S
C538 C536 1.391 . S
C538 C539 1.400 . S
C539 C538 1.400 . S
C539 C540 1.398 . S
C539 C545 1.491 . S
C540 H531 0.950 . S
C540 C539 1.398 . S
C540 C541 1.391 . S
C541 H529 0.950 . S
C541 C537 1.393 . S
C541 C540 1.391 . S
C542 H532 0.950 . S
C542 C543 1.386 . S
C542 C544 1.391 . S
C543 C542 1.386 . S
C543 C547 1.393 . S
C544 H533 0.950 . S
C544 C542 1.391 . S
C544 C545 1.400 . S
C545 C539 1.491 . S
C545 C544 1.400 . S
C545 C546 1.398 . S
C546 H534 0.950 . S
C546 C545 1.398 . S
C546 C547 1.391 . S
C547 H535 0.950 . S
C547 C543 1.393 . S
C547 C546 1.391 . S
H548 C556 0.950 . S
H549 C561 0.950 . S
H550 C558 0.950 . S
H551 C560 0.950 . S
H552 C562 0.950 . S
H553 C564 0.950 . S
H554 C566 0.950 . S
H555 C567 0.950 . S
C556 H548 0.950 . S
C556 C557 1.386 . S
C556 C558 1.391 . S
C557 C556 1.386 . S
C557 C561 1.393 . S
C558 H550 0.950 . S
C558 C556 1.391 . S
C558 C559 1.400 . S
C559 C558 1.400 . S
C559 C560 1.398 . S
C559 C565 1.491 . S
C560 H551 0.950 . S
C560 C559 1.398 . S
C560 C561 1.391 . S
C561 H549 0.950 . S
C561 C557 1.393 . S
C561 C560 1.391 . S
C562 H552 0.950 . S
C562 C563 1.386 . S
C562 C564 1.391 . S
C563 C562 1.386 . S
C563 C567 1.393 . S
C564 H553 0.950 . S
C564 C562 1.391 . S
C564 C565 1.400 . S
C565 C559 1.491 . S
C565 C564 1.400 . S
C565 C566 1.398 . S
C566 H554 0.950 . S
C566 C565 1.398 . S
C566 C567 1.391 . S
C567 H555 0.950 . S
C567 C563 1.393 . S
C567 C566 1.391 . S
H568 C576 0.950 . S
H569 C581 0.950 . S
H570 C578 0.950 . S
H571 C580 0.950 . S
H572 C582 0.950 . S
H573 C584 0.950 . S
H574 C586 0.950 . S
H575 C587 0.950 . S
C576 H568 0.950 . S
C576 C577 1.386 . S
C576 C578 1.391 . S
C577 C576 1.386 . S
C577 C581 1.393 . S
C578 H570 0.950 . S
C578 C576 1.391 . S
C578 C579 1.400 . S
C579 C578 1.400 . S
C579 C580 1.398 . S
C579 C585 1.491 . S
C580 H571 0.950 . S
C580 C579 1.398 . S
C580 C581 1.391 . S
C581 H569 0.950 . S
C581 C577 1.393 . S
C581 C580 1.391 . S
C582 H572 0.950 . S
C582 C583 1.386 . S
C582 C584 1.391 . S
C583 C582 1.386 . S
C583 C587 1.393 . S
C584 H573 0.950 . S
C584 C582 1.391 . S
C584 C585 1.400 . S
C585 C579 1.491 . S
C585 C584 1.400 . S
C585 C586 1.398 . S
C586 H574 0.950 . S
C586 C585 1.398 . S
C586 C587 1.391 . S
C587 H575 0.950 . S
C587 C583 1.393 . S
C587 C586 1.391 . S
H588 C596 0.950 . S
H589 C601 0.950 . S
H590 C598 0.950 . S
H591 C600 0.950 . S
H592 C602 0.950 . S
H593 C604 0.950 . S
H594 C606 0.950 . S
H595 C607 0.950 . S
C596 H588 0.950 . S
C596 C597 1.386 . S
C596 C598 1.391 . S
C597 C596 1.386 . S
C597 C601 1.393 . S
C598 H590 0.950 . S
C598 C596 1.391 . S
C598 C599 1.400 . S
C599 C598 1.400 . S
C599 C600 1.398 . S
C599 C605 1.491 . S
C600 H591 0.950 . S
C600 C599 1.398 . S
C600 C601 1.391 . S
C601 H589 0.950 . S
C601 C597 1.393 . S
C601 C600 1.391 . S
C602 H592 0.950 . S
C602 C603 1.386 . S
C602 C604 1.391 . S
C603 C602 1.386 . S
C603 C607 1.393 . S
C604 H593 0.950 . S
C604 C602 1.391 . S
C604 C605 1.400 . S
C605 C599 1.491 . S
C605 C604 1.400 . S
C605 C606 1.398 . S
C606 H594 0.950 . S
C606 C605 1.398 . S
C606 C607 1.391 . S
C607 H595 0.950 . S
C607 C603 1.393 . S
C607 C606 1.391 . S
H608 C616 0.950 . S
H609 C621 0.950 . S
H610 C618 0.950 . S
H611 C620 0.950 . S
H612 C622 0.950 . S
H613 C624 0.950 . S
H614 C626 0.950 . S
H615 C627 0.950 . S
C616 H608 0.950 . S
C616 C617 1.386 . S
C616 C618 1.391 . S
C617 C616 1.386 . S
C617 C621 1.393 . S
C618 H610 0.950 . S
C618 C616 1.391 . S
C618 C619 1.400 . S
C619 C618 1.400 . S
C619 C620 1.398 . S
C619 C625 1.491 . S
C620 H611 0.950 . S
C620 C619 1.398 . S
C620 C621 1.391 . S
C621 H609 0.950 . S
C621 C617 1.393 . S
C621 C620 1.391 . S
C622 H612 0.950 . S
C622 C623 1.386 . S
C622 C624 1.391 . S
C623 C622 1.386 . S
C623 C627 1.393 . S
C624 H613 0.950 . S
C624 C622 1.391 . S
C624 C625 1.400 . S
C625 C619 1.491 . S
C625 C624 1.400 . S
C625 C626 1.398 . S
C626 H614 0.950 . S
C626 C625 1.398 . S
C626 C627 1.391 . S
C627 H615 0.950 . S
C627 C623 1.393 . S
C627 C626 1.391 . S
H628 C636 0.950 . S
H629 C641 0.950 . S
H630 C638 0.950 . S
H631 C640 0.950 . S
H632 C642 0.950 . S
H633 C644 0.950 . S
H634 C646 0.950 . S
H635 C647 0.950 . S
C636 H628 0.950 . S
C636 C637 1.386 . S
C636 C638 1.391 . S
C637 C636 1.386 . S
C637 C641 1.393 . S
C638 H630 0.950 . S
C638 C636 1.391 . S
C638 C639 1.400 . S
C639 C638 1.400 . S
C639 C640 1.398 . S
C639 C645 1.491 . S
C640 H631 0.950 . S
C640 C639 1.398 . S
C640 C641 1.391 . S
C641 H629 0.950 . S
C641 C637 1.393 . S
C641 C640 1.391 . S
C642 H632 0.950 . S
C642 C643 1.386 . S
C642 C644 1.391 . S
C643 C642 1.386 . S
C643 C647 1.393 . S
C644 H633 0.950 . S
C644 C642 1.391 . S
C644 C645 1.400 . S
C645 C639 1.491 . S
C645 C644 1.400 . S
C645 C646 1.398 . S
C646 H634 0.950 . S
C646 C645 1.398 . S
C646 C647 1.391 . S
C647 H635 0.950 . S
C647 C643 1.393 . S
C647 C646 1.391 . S
H648 C656 0.950 . S
H649 C661 0.950 . S
H650 C658 0.950 . S
H651 C660 0.950 . S
H652 C662 0.950 . S
H653 C664 0.950 . S
H654 C666 0.950 . S
H655 C667 0.950 . S
C656 H648 0.950 . S
C656 C657 1.386 . S
C656 C658 1.391 . S
C657 C656 1.386 . S
C657 C661 1.393 . S
C658 H650 0.950 . S
C658 C656 1.391 . S
C658 C659 1.400 . S
C659 C658 1.400 . S
C659 C660 1.398 . S
C659 C665 1.491 . S
C660 H651 0.950 . S
C660 C659 1.398 . S
C660 C661 1.391 . S
C661 H649 0.950 . S
C661 C657 1.393 . S
C661 C660 1.391 . S
C662 H652 0.950 . S
C662 C663 1.386 . S
C662 C664 1.391 . S
C663 C662 1.386 . S
C663 C667 1.393 . S
C664 H653 0.950 . S
C664 C662 1.391 . S
C664 C665 1.400 . S
C665 C659 1.491 . S
C665 C664 1.400 . S
C665 C666 1.398 . S
C666 H654 0.950 . S
C666 C665 1.398 . S
C666 C667 1.391 . S
C667 H655 0.950 . S
C667 C663 1.393 . S
C667 C666 1.391 . S
H668 C676 0.950 . S
H669 C681 0.950 . S
H670 C678 0.950 . S
H671 C680 0.950 . S
H672 C682 0.950 . S
H673 C684 0.950 . S
H674 C686 0.950 . S
H675 C687 0.950 . S
C676 H668 0.950 . S
C676 C677 1.386 . S
C676 C678 1.391 . S
C677 C676 1.386 . S
C677 C681 1.393 . S
C678 H670 0.950 . S
C678 C676 1.391 . S
C678 C679 1.400 . S
C679 C678 1.400 . S
C679 C680 1.398 . S
C679 C685 1.491 . S
C680 H671 0.950 . S
C680 C679 1.398 . S
C680 C681 1.391 . S
C681 H669 0.950 . S
C681 C677 1.393 . S
C681 C680 1.391 . S
C682 H672 0.950 . S
C682 C683 1.386 . S
C682 C684 1.391 . S
C683 C682 1.386 . S
C683 C687 1.393 . S
C684 H673 0.950 . S
C684 C682 1.391 . S
C684 C685 1.400 . S
C685 C679 1.491 . S
C685 C684 1.400 . S
C685 C686 1.398 . S
C686 H674 0.950 . S
C686 C685 1.398 . S
C686 C687 1.391 . S
C687 H675 0.950 . S
C687 C683 1.393 . S
C687 C686 1.391 . S
H688 C696 0.950 . S
H689 C701 0.950 . S
H690 C698 0.950 . S
H691 C700 0.950 . S
H692 C702 0.950 . S
H693 C704 0.950 . S
H694 C706 0.950 . S
H695 C707 0.950 . S
C696 H688 0.950 . S
C696 C697 1.386 . S
C696 C698 1.391 . S
C697 C696 1.386 . S
C697 C701 1.393 . S
C698 H690 0.950 . S
C698 C696 1.391 . S
C698 C699 1.400 . S
C699 C698 1.400 . S
C699 C700 1.398 . S
C699 C705 1.491 . S
C700 H691 0.950 . S
C700 C699 1.398 . S
C700 C701 1.391 . S
C701 H689 0.950 . S
C701 C697 1.393 . S
C701 C700 1.391 . S
C702 H692 0.950 . S
C702 C703 1.386 . S
C702 C704 1.391 . S
C703 C702 1.386 . S
C703 C707 1.393 . S
C704 H693 0.950 . S
C704 C702 1.391 . S
C704 C705 1.400 . S
C705 C699 1.491 . S
C705 C704 1.400 . S
C705 C706 1.398 . S
C706 H694 0.950 . S
C706 C705 1.398 . S
C706 C707 1.391 . S
C707 H695 0.950 . S
C707 C703 1.393 . S
C707 C706 1.391 . S
H708 C716 0.950 . S
H709 C721 0.950 . S
H710 C718 0.950 . S
H711 C720 0.950 . S
H712 C722 0.950 . S
H713 C724 0.950 . S
H714 C726 0.950 . S
H715 C727 0.950 . S
C716 H708 0.950 . S
C716 C717 1.386 . S
C716 C718 1.391 . S
C717 C716 1.386 . S
C717 C721 1.393 . S
C718 H710 0.950 . S
C718 C716 1.391 . S
C718 C719 1.400 . S
C719 C718 1.400 . S
C719 C720 1.398 . S
C719 C725 1.491 . S
C720 H711 0.950 . S
C720 C719 1.398 . S
C720 C721 1.391 . S
C721 H709 0.950 . S
C721 C717 1.393 . S
C721 C720 1.391 . S
C722 H712 0.950 . S
C722 C723 1.386 . S
C722 C724 1.391 . S
C723 C722 1.386 . S
C723 C727 1.393 . S
C724 H713 0.950 . S
C724 C722 1.391 . S
C724 C725 1.400 . S
C725 C719 1.491 . S
C725 C724 1.400 . S
C725 C726 1.398 . S
C726 H714 0.950 . S
C726 C725 1.398 . S
C726 C727 1.391 . S
C727 H715 0.950 . S
C727 C723 1.393 . S
C727 C726 1.391 . S
H728 C736 0.950 . S
H729 C741 0.950 . S
H730 C738 0.950 . S
H731 C740 0.950 . S
H732 C742 0.950 . S
H733 C744 0.950 . S
H734 C746 0.950 . S
H735 C747 0.950 . S
C736 H728 0.950 . S
C736 C737 1.386 . S
C736 C738 1.391 . S
C737 C736 1.386 . S
C737 C741 1.393 . S
C738 H730 0.950 . S
C738 C736 1.391 . S
C738 C739 1.400 . S
C739 C738 1.400 . S
C739 C740 1.398 . S
C739 C745 1.491 . S
C740 H731 0.950 . S
C740 C739 1.398 . S
C740 C741 1.391 . S
C741 H729 0.950 . S
C741 C737 1.393 . S
C741 C740 1.391 . S
C742 H732 0.950 . S
C742 C743 1.386 . S
C742 C744 1.391 . S
C743 C742 1.386 . S
C743 C747 1.393 . S
C744 H733 0.950 . S
C744 C742 1.391 . S
C744 C745 1.400 . S
C745 C739 1.491 . S
C745 C744 1.400 . S
C745 C746 1.398 . S
C746 H734 0.950 . S
C746 C745 1.398 . S
C746 C747 1.391 . S
C747 H735 0.950 . S
C747 C743 1.393 . S
C747 C746 1.391 . S
H748 C756 0.950 . S
H749 C761 0.950 . S
H750 C758 0.950 . S
H751 C760 0.950 . S
H752 C762 0.950 . S
H753 C764 0.950 . S
H754 C766 0.950 . S
H755 C767 0.950 . S
C756 H748 0.950 . S
C756 C757 1.386 . S
C756 C758 1.391 . S
C757 C756 1.386 . S
C757 C761 1.393 . S
C758 H750 0.950 . S
C758 C756 1.391 . S
C758 C759 1.400 . S
C759 C758 1.400 . S
C759 C760 1.398 . S
C759 C765 1.491 . S
C760 H751 0.950 . S
C760 C759 1.398 . S
C760 C761 1.391 . S
C761 H749 0.950 . S
C761 C757 1.393 . S
C761 C760 1.391 . S
C762 H752 0.950 . S
C762 C763 1.386 . S
C762 C764 1.391 . S
C763 C762 1.386 . S
C763 C767 1.393 . S
C764 H753 0.950 . S
C764 C762 1.391 . S
C764 C765 1.400 . S
C765 C759 1.491 . S
C765 C764 1.400 . S
C765 C766 1.398 . S
C766 H754 0.950 . S
C766 C765 1.398 . S
C766 C767 1.391 . S
C767 H755 0.950 . S
C767 C763 1.393 . S
C767 C766 1.391 . S
H768 C776 0.950 . S
H769 C781 0.950 . S
H770 C778 0.950 . S
H771 C780 0.950 . S
H772 C782 0.950 . S
H773 C784 0.950 . S
H774 C786 0.950 . S
H775 C787 0.950 . S
C776 H768 0.950 . S
C776 C777 1.386 . S
C776 C778 1.391 . S
C777 C776 1.386 . S
C777 C781 1.393 . S
C778 H770 0.950 . S
C778 C776 1.391 . S
C778 C779 1.400 . S
C779 C778 1.400 . S
C779 C780 1.398 . S
C779 C785 1.491 . S
C780 H771 0.950 . S
C780 C779 1.398 . S
C780 C781 1.391 . S
C781 H769 0.950 . S
C781 C777 1.393 . S
C781 C780 1.391 . S
C782 H772 0.950 . S
C782 C783 1.386 . S
C782 C784 1.391 . S
C783 C782 1.386 . S
C783 C787 1.393 . S
C784 H773 0.950 . S
C784 C782 1.391 . S
C784 C785 1.400 . S
C785 C779 1.491 . S
C785 C784 1.400 . S
C785 C786 1.398 . S
C786 H774 0.950 . S
C786 C785 1.398 . S
C786 C787 1.391 . S
C787 H775 0.950 . S
C787 C783 1.393 . S
C787 C786 1.391 . S
H788 C796 0.950 . S
H789 C801 0.950 . S
H790 C798 0.950 . S
H791 C800 0.950 . S
H792 C802 0.950 . S
H793 C804 0.950 . S
H794 C806 0.950 . S
H795 C807 0.950 . S
C796 H788 0.950 . S
C796 C797 1.386 . S
C796 C798 1.391 . S
C797 C796 1.386 . S
C797 C801 1.393 . S
C798 H790 0.950 . S
C798 C796 1.391 . S
C798 C799 1.400 . S
C799 C798 1.400 . S
C799 C800 1.398 . S
C799 C805 1.491 . S
C800 H791 0.950 . S
C800 C799 1.398 . S
C800 C801 1.391 . S
C801 H789 0.950 . S
C801 C797 1.393 . S
C801 C800 1.391 . S
C802 H792 0.950 . S
C802 C803 1.386 . S
C802 C804 1.391 . S
C803 C802 1.386 . S
C803 C807 1.393 . S
C804 H793 0.950 . S
C804 C802 1.391 . S
C804 C805 1.400 . S
C805 C799 1.491 . S
C805 C804 1.400 . S
C805 C806 1.398 . S
C806 H794 0.950 . S
C806 C805 1.398 . S
C806 C807 1.391 . S
C807 H795 0.950 . S
C807 C803 1.393 . S
C807 C806 1.391 . S
H808 C816 0.950 . S
H809 C821 0.950 . S
H810 C818 0.950 . S
H811 C820 0.950 . S
H812 C822 0.950 . S
H813 C824 0.950 . S
H814 C826 0.950 . S
H815 C827 0.950 . S
C816 H808 0.950 . S
C816 C817 1.386 . S
C816 C818 1.391 . S
C817 C816 1.386 . S
C817 C821 1.393 . S
C818 H810 0.950 . S
C818 C816 1.391 . S
C818 C819 1.400 . S
C819 C818 1.400 . S
C819 C820 1.398 . S
C819 C825 1.491 . S
C820 H811 0.950 . S
C820 C819 1.398 . S
C820 C821 1.391 . S
C821 H809 0.950 . S
C821 C817 1.393 . S
C821 C820 1.391 . S
C822 H812 0.950 . S
C822 C823 1.386 . S
C822 C824 1.391 . S
C823 C822 1.386 . S
C823 C827 1.393 . S
C824 H813 0.950 . S
C824 C822 1.391 . S
C824 C825 1.400 . S
C825 C819 1.491 . S
C825 C824 1.400 . S
C825 C826 1.398 . S
C826 H814 0.950 . S
C826 C825 1.398 . S
C826 C827 1.391 . S
C827 H815 0.950 . S
C827 C823 1.393 . S
C827 C826 1.391 . S
H828 C836 0.950 . S
H829 C841 0.950 . S
H830 C838 0.950 . S
H831 C840 0.950 . S
H832 C842 0.950 . S
H833 C844 0.950 . S
H834 C846 0.950 . S
H835 C847 0.950 . S
C836 H828 0.950 . S
C836 C837 1.386 . S
C836 C838 1.391 . S
C837 C836 1.386 . S
C837 C841 1.393 . S
C838 H830 0.950 . S
C838 C836 1.391 . S
C838 C839 1.400 . S
C839 C838 1.400 . S
C839 C840 1.398 . S
C839 C845 1.491 . S
C840 H831 0.950 . S
C840 C839 1.398 . S
C840 C841 1.391 . S
C841 H829 0.950 . S
C841 C837 1.393 . S
C841 C840 1.391 . S
C842 H832 0.950 . S
C842 C843 1.386 . S
C842 C844 1.391 . S
C843 C842 1.386 . S
C843 C847 1.393 . S
C844 H833 0.950 . S
C844 C842 1.391 . S
C844 C845 1.400 . S
C845 C839 1.491 . S
C845 C844 1.400 . S
C845 C846 1.398 . S
C846 H834 0.950 . S
C846 C845 1.398 . S
C846 C847 1.391 . S
C847 H835 0.950 . S
C847 C843 1.393 . S
C847 C846 1.391 . S
H848 C856 0.950 . S
H849 C861 0.950 . S
H850 C858 0.950 . S
H851 C860 0.950 . S
H852 C862 0.950 . S
H853 C864 0.950 . S
H854 C866 0.950 . S
H855 C867 0.950 . S
C856 H848 0.950 . S
C856 C857 1.386 . S
C856 C858 1.391 . S
C857 C856 1.386 . S
C857 C861 1.393 . S
C858 H850 0.950 . S
C858 C856 1.391 . S
C858 C859 1.400 . S
C859 C858 1.400 . S
C859 C860 1.398 . S
C859 C865 1.491 . S
C860 H851 0.950 . S
C860 C859 1.398 . S
C860 C861 1.391 . S
C861 H849 0.950 . S
C861 C857 1.393 . S
C861 C860 1.391 . S
C862 H852 0.950 . S
C862 C863 1.386 . S
C862 C864 1.391 . S
C863 C862 1.386 . S
C863 C867 1.393 . S
C864 H853 0.950 . S
C864 C862 1.391 . S
C864 C865 1.400 . S
C865 C859 1.491 . S
C865 C864 1.400 . S
C865 C866 1.398 . S
C866 H854 0.950 . S
C866 C865 1.398 . S
C866 C867 1.391 . S
C867 H855 0.950 . S
C867 C863 1.393 . S
C867 C866 1.391 . S
H868 C876 0.950 . S
H869 C881 0.950 . S
H870 C878 0.950 . S
H871 C880 0.950 . S
H872 C882 0.950 . S
H873 C884 0.950 . S
H874 C886 0.950 . S
H875 C887 0.950 . S
C876 H868 0.950 . S
C876 C877 1.386 . S
C876 C878 1.391 . S
C877 C876 1.386 . S
C877 C881 1.393 . S
C878 H870 0.950 . S
C878 C876 1.391 . S
C878 C879 1.400 . S
C879 C878 1.400 . S
C879 C880 1.398 . S
C879 C885 1.491 . S
C880 H871 0.950 . S
C880 C879 1.398 . S
C880 C881 1.391 . S
C881 H869 0.950 . S
C881 C877 1.393 . S
C881 C880 1.391 . S
C882 H872 0.950 . S
C882 C883 1.386 . S
C882 C884 1.391 . S
C883 C882 1.386 . S
C883 C887 1.393 . S
C884 H873 0.950 . S
C884 C882 1.391 . S
C884 C885 1.400 . S
C885 C879 1.491 . S
C885 C884 1.400 . S
C885 C886 1.398 . S
C886 H874 0.950 . S
C886 C885 1.398 . S
C886 C887 1.391 . S
C887 H875 0.950 . S
C887 C883 1.393 . S
C887 C886 1.391 . S
H888 C896 0.950 . S
H889 C901 0.950 . S
H890 C898 0.950 . S
H891 C900 0.950 . S
H892 C902 0.950 . S
H893 C904 0.950 . S
H894 C906 0.950 . S
H895 C907 0.950 . S
C896 H888 0.950 . S
C896 C897 1.386 . S
C896 C898 1.391 . S
C897 C896 1.386 . S
C897 C901 1.393 . S
C898 H890 0.950 . S
C898 C896 1.391 . S
C898 C899 1.400 . S
C899 C898 1.400 . S
C899 C900 1.398 . S
C899 C905 1.491 . S
C900 H891 0.950 . S
C900 C899 1.398 . S
C900 C901 1.391 . S
C901 H889 0.950 . S
C901 C897 1.393 . S
C901 C900 1.391 . S
C902 H892 0.950 . S
C902 C903 1.386 . S
C902 C904 1.391 . S
C903 C902 1.386 . S
C903 C907 1.393 . S
C904 H893 0.950 . S
C904 C902 1.391 . S
C904 C905 1.400 . S
C905 C899 1.491 . S
C905 C904 1.400 . S
C905 C906 1.398 . S
C906 H894 0.950 . S
C906 C905 1.398 . S
C906 C907 1.391 . S
C907 H895 0.950 . S
C907 C903 1.393 . S
C907 C906 1.391 . S
H908 C916 0.950 . S
H909 C921 0.950 . S
H910 C918 0.950 . S
H911 C920 0.950 . S
H912 C922 0.950 . S
H913 C924 0.950 . S
H914 C926 0.950 . S
H915 C927 0.950 . S
C916 H908 0.950 . S
C916 C917 1.386 . S
C916 C918 1.391 . S
C917 C916 1.386 . S
C917 C921 1.393 . S
C918 H910 0.950 . S
C918 C916 1.391 . S
C918 C919 1.400 . S
C919 C918 1.400 . S
C919 C920 1.398 . S
C919 C925 1.491 . S
C920 H911 0.950 . S
C920 C919 1.398 . S
C920 C921 1.391 . S
C921 H909 0.950 . S
C921 C917 1.393 . S
C921 C920 1.391 . S
C922 H912 0.950 . S
C922 C923 1.386 . S
C922 C924 1.391 . S
C923 C922 1.386 . S
C923 C927 1.393 . S
C924 H913 0.950 . S
C924 C922 1.391 . S
C924 C925 1.400 . S
C925 C919 1.491 . S
C925 C924 1.400 . S
C925 C926 1.398 . S
C926 H914 0.950 . S
C926 C925 1.398 . S
C926 C927 1.391 . S
C927 H915 0.950 . S
C927 C923 1.393 . S
C927 C926 1.391 . S
H928 C936 0.950 . S
H929 C941 0.950 . S
H930 C938 0.950 . S
H931 C940 0.950 . S
H932 C942 0.950 . S
H933 C944 0.950 . S
H934 C946 0.950 . S
H935 C947 0.950 . S
C936 H928 0.950 . S
C936 C937 1.386 . S
C936 C938 1.391 . S
C937 C936 1.386 . S
C937 C941 1.393 . S
C938 H930 0.950 . S
C938 C936 1.391 . S
C938 C939 1.400 . S
C939 C938 1.400 . S
C939 C940 1.398 . S
C939 C945 1.491 . S
C940 H931 0.950 . S
C940 C939 1.398 . S
C940 C941 1.391 . S
C941 H929 0.950 . S
C941 C937 1.393 . S
C941 C940 1.391 . S
C942 H932 0.950 . S
C942 C943 1.386 . S
C942 C944 1.391 . S
C943 C942 1.386 . S
C943 C947 1.393 . S
C944 H933 0.950 . S
C944 C942 1.391 . S
C944 C945 1.400 . S
C945 C939 1.491 . S
C945 C944 1.400 . S
C945 C946 1.398 . S
C946 H934 0.950 . S
C946 C945 1.398 . S
C946 C947 1.391 . S
C947 H935 0.950 . S
C947 C943 1.393 . S
C947 C946 1.391 . S
H948 C956 0.950 . S
H949 C961 0.950 . S
H950 C958 0.950 . S
H951 C960 0.950 . S
H952 C962 0.950 . S
H953 C964 0.950 . S
H954 C966 0.950 . S
H955 C967 0.950 . S
C956 H948 0.950 . S
C956 C957 1.386 . S
C956 C958 1.391 . S
C957 C956 1.386 . S
C957 C961 1.393 . S
C958 H950 0.950 . S
C958 C956 1.391 . S
C958 C959 1.400 . S
C959 C958 1.400 . S
C959 C960 1.398 . S
C959 C965 1.491 . S
C960 H951 0.950 . S
C960 C959 1.398 . S
C960 C961 1.391 . S
C961 H949 0.950 . S
C961 C957 1.393 . S
C961 C960 1.391 . S
C962 H952 0.950 . S
C962 C963 1.386 . S
C962 C964 1.391 . S
C963 C962 1.386 . S
C963 C967 1.393 . S
C964 H953 0.950 . S
C964 C962 1.391 . S
C964 C965 1.400 . S
C965 C959 1.491 . S
C965 C964 1.400 . S
C965 C966 1.398 . S
C966 H954 0.950 . S
C966 C965 1.398 . S
C966 C967 1.391 . S
C967 H955 0.950 . S
C967 C963 1.393 . S
C967 C966 1.391 . S
H968 C976 0.950 . S
H969 C981 0.950 . S
H970 C978 0.950 . S
H971 C980 0.950 . S
H972 C982 0.950 . S
H973 C984 0.950 . S
H974 C986 0.950 . S
H975 C987 0.950 . S
C976 H968 0.950 . S
C976 C977 1.386 . S
C976 C978 1.391 . S
C977 C976 1.386 . S
C977 C981 1.393 . S
C978 H970 0.950 . S
C978 C976 1.391 . S
C978 C979 1.400 . S
C979 C978 1.400 . S
C979 C980 1.398 . S
C979 C985 1.491 . S
C980 H971 0.950 . S
C980 C979 1.398 . S
C980 C981 1.391 . S
C981 H969 0.950 . S
C981 C977 1.393 . S
C981 C980 1.391 . S
C982 H972 0.950 . S
C982 C983 1.386 . S
C982 C984 1.391 . S
C983 C982 1.386 . S
C983 C987 1.393 . S
C984 H973 0.950 . S
C984 C982 1.391 . S
C984 C985 1.400 . S
C985 C979 1.491 . S
C985 C984 1.400 . S
C985 C986 1.398 . S
C986 H974 0.950 . S
C986 C985 1.398 . S
C986 C987 1.391 . S
C987 H975 0.950 . S
C987 C983 1.393 . S
C987 C986 1.391 . S
H988 C996 0.950 . S
H989 C1001 0.950 . S
H990 C998 0.950 . S
H991 C1000 0.950 . S
H992 C1002 0.950 . S
H993 C1004 0.950 . S
H994 C1006 0.950 . S
H995 C1007 0.950 . S
C996 H988 0.950 . S
C996 C997 1.386 . S
C996 C998 1.391 . S
C997 C996 1.386 . S
C997 C1001 1.393 . S
C998 H990 0.950 . S
C998 C996 1.391 . S
C998 C999 1.400 . S
C999 C998 1.400 . S
C999 C1000 1.398 . S
C999 C1005 1.491 . S
C1000 H991 0.950 . S
C1000 C999 1.398 . S
C1000 C1001 1.391 . S
C1001 H989 0.950 . S
C1001 C997 1.393 . S
C1001 C1000 1.391 . S
C1002 H992 0.950 . S
C1002 C1003 1.386 . S
C1002 C1004 1.391 . S
C1003 C1002 1.386 . S
C1003 C1007 1.393 . S
C1004 H993 0.950 . S
C1004 C1002 1.391 . S
C1004 C1005 1.400 . S
C1005 C999 1.491 . S
C1005 C1004 1.400 . S
C1005 C1006 1.398 . S
C1006 H994 0.950 . S
C1006 C1005 1.398 . S
C1006 C1007 1.391 . S
C1007 H995 0.950 . S
C1007 C1003 1.393 . S
C1007 C1006 1.391 . S
H1008 C1016 0.950 . S
H1009 C1021 0.950 . S
H1010 C1018 0.950 . S
H1011 C1020 0.950 . S
H1012 C1022 0.950 . S
H1013 C1024 0.950 . S
H1014 C1026 0.950 . S
H1015 C1027 0.950 . S
C1016 H1008 0.950 . S
C1016 C1017 1.386 . S
C1016 C1018 1.391 . S
C1017 C1016 1.386 . S
C1017 C1021 1.393 . S
C1018 H1010 0.950 . S
C1018 C1016 1.391 . S
C1018 C1019 1.400 . S
C1019 C1018 1.400 . S
C1019 C1020 1.398 . S
C1019 C1025 1.491 . S
C1020 H1011 0.950 . S
C1020 C1019 1.398 . S
C1020 C1021 1.391 . S
C1021 H1009 0.950 . S
C1021 C1017 1.393 . S
C1021 C1020 1.391 . S
C1022 H1012 0.950 . S
C1022 C1023 1.386 . S
C1022 C1024 1.391 . S
C1023 C1022 1.386 . S
C1023 C1027 1.393 . S
C1024 H1013 0.950 . S
C1024 C1022 1.391 . S
C1024 C1025 1.400 . S
C1025 C1019 1.491 . S
C1025 C1024 1.400 . S
C1025 C1026 1.398 . S
C1026 H1014 0.950 . S
C1026 C1025 1.398 . S
C1026 C1027 1.391 . S
C1027 H1015 0.950 . S
C1027 C1023 1.393 . S
C1027 C1026 1.391 . S
H1028 C1036 0.950 . S
H1029 C1041 0.950 . S
H1030 C1038 0.950 1_455 S
H1031 C1040 0.950 . S
H1032 C1042 0.950 . S
H1033 C1044 0.950 1_655 S
H1034 C1046 0.950 . S
H1035 C1047 0.950 . S
C1036 H1028 0.950 . S
C1036 C1037 1.386 . S
C1036 C1038 1.391 . S
C1037 C1036 1.386 . S
C1037 C1041 1.393 . S
C1038 H1030 0.950 1_655 S
C1038 C1036 1.391 . S
C1038 C1039 1.400 . S
C1039 C1038 1.400 . S
C1039 C1040 1.398 1_565 S
C1039 C1045 1.491 1_665 S
C1040 H1031 0.950 . S
C1040 C1039 1.398 1_545 S
C1040 C1041 1.391 1_545 S
C1041 H1029 0.950 . S
C1041 C1037 1.393 . S
C1041 C1040 1.391 1_565 S
C1042 H1032 0.950 . S
C1042 C1043 1.386 . S
C1042 C1044 1.391 . S
C1043 C1042 1.386 . S
C1043 C1047 1.393 . S
C1044 H1033 0.950 1_455 S
C1044 C1042 1.391 . S
C1044 C1045 1.400 . S
C1045 C1039 1.491 1_445 S
C1045 C1044 1.400 . S
C1045 C1046 1.398 1_545 S
C1046 H1034 0.950 . S
C1046 C1045 1.398 1_565 S
C1046 C1047 1.391 1_565 S
C1047 H1035 0.950 . S
C1047 C1043 1.393 . S
C1047 C1046 1.391 1_545 S
H1048 C1056 0.950 . S
H1049 C1061 0.950 . S
H1050 C1058 0.950 . S
H1051 C1060 0.949 . S
H1052 C1062 0.950 . S
H1053 C1064 0.950 . S
H1054 C1066 0.949 . S
H1055 C1067 0.950 . S
C1056 H1048 0.950 . S
C1056 C1057 1.386 . S
C1056 C1058 1.391 . S
C1057 C1056 1.386 . S
C1057 C1061 1.393 . S
C1058 H1050 0.950 . S
C1058 C1056 1.391 . S
C1058 C1059 1.400 . S
C1059 C1058 1.400 . S
C1059 C1060 1.399 1_565 S
C1059 C1065 1.491 1_565 S
C1060 H1051 0.949 . S
C1060 C1059 1.399 1_545 S
C1060 C1061 1.391 1_545 S
C1061 H1049 0.950 . S
C1061 C1057 1.393 . S
C1061 C1060 1.391 1_565 S
C1062 H1052 0.950 . S
C1062 C1063 1.386 . S
C1062 C1064 1.391 . S
C1063 C1062 1.386 . S
C1063 C1067 1.393 . S
C1064 H1053 0.950 . S
C1064 C1062 1.391 . S
C1064 C1065 1.400 . S
C1065 C1059 1.491 1_545 S
C1065 C1064 1.400 . S
C1065 C1066 1.399 1_545 S
C1066 H1054 0.949 . S
C1066 C1065 1.399 1_565 S
C1066 C1067 1.391 1_565 S
C1067 H1055 0.950 . S
C1067 C1063 1.393 . S
C1067 C1066 1.391 1_545 S
H1068 C1076 0.950 . S
H1069 C1081 0.950 . S
H1070 C1078 0.950 1_455 S
H1071 C1080 0.950 . S
H1072 C1082 0.950 . S
H1073 C1084 0.950 1_655 S
H1074 C1086 0.950 . S
H1075 C1087 0.950 . S
C1076 H1068 0.950 . S
C1076 C1077 1.386 . S
C1076 C1078 1.391 . S
C1077 C1076 1.386 . S
C1077 C1081 1.393 . S
C1078 H1070 0.950 1_655 S
C1078 C1076 1.391 . S
C1078 C1079 1.400 . S
C1079 C1078 1.400 . S
C1079 C1080 1.398 . S
C1079 C1085 1.491 1_655 S
C1080 H1071 0.950 . S
C1080 C1079 1.398 . S
C1080 C1081 1.391 . S
C1081 H1069 0.950 . S
C1081 C1077 1.393 . S
C1081 C1080 1.391 . S
C1082 H1072 0.950 . S
C1082 C1083 1.386 . S
C1082 C1084 1.391 . S
C1083 C1082 1.386 . S
C1083 C1087 1.393 . S
C1084 H1073 0.950 1_455 S
C1084 C1082 1.391 . S
C1084 C1085 1.400 . S
C1085 C1079 1.491 1_455 S
C1085 C1084 1.400 . S
C1085 C1086 1.398 . S
C1086 H1074 0.950 . S
C1086 C1085 1.398 . S
C1086 C1087 1.391 . S
C1087 H1075 0.950 . S
C1087 C1083 1.393 . S
C1087 C1086 1.391 . S
H1088 C1096 0.950 . S
H1089 C1101 0.950 . S
H1090 C1098 0.950 . S
H1091 C1100 0.950 . S
H1092 C1102 0.950 . S
H1093 C1104 0.950 . S
H1094 C1106 0.950 . S
H1095 C1107 0.950 . S
C1096 H1088 0.950 . S
C1096 C1097 1.386 . S
C1096 C1098 1.391 . S
C1097 C1096 1.386 . S
C1097 C1101 1.393 . S
C1098 H1090 0.950 . S
C1098 C1096 1.391 . S
C1098 C1099 1.400 . S
C1099 C1098 1.400 . S
C1099 C1100 1.398 . S
C1099 C1105 1.491 . S
C1100 H1091 0.950 . S
C1100 C1099 1.398 . S
C1100 C1101 1.391 . S
C1101 H1089 0.950 . S
C1101 C1097 1.393 . S
C1101 C1100 1.391 . S
C1102 H1092 0.950 . S
C1102 C1103 1.386 . S
C1102 C1104 1.391 . S
C1103 C1102 1.386 . S
C1103 C1107 1.393 . S
C1104 H1093 0.950 . S
C1104 C1102 1.391 . S
C1104 C1105 1.400 . S
C1105 C1099 1.491 . S
C1105 C1104 1.400 . S
C1105 C1106 1.398 . S
C1106 H1094 0.950 . S
C1106 C1105 1.398 . S
C1106 C1107 1.391 . S
C1107 H1095 0.950 . S
C1107 C1103 1.393 . S
C1107 C1106 1.391 . S
H1108 C1116 0.950 . S
H1109 C1121 0.950 . S
H1110 C1118 0.948 1_565 S
H1111 C1120 0.950 . S
H1112 C1122 0.950 . S
H1113 C1124 0.948 1_545 S
H1114 C1126 0.950 . S
H1115 C1127 0.950 . S
C1116 H1108 0.950 . S
C1116 C1117 1.386 . S
C1116 C1118 1.391 . S
C1117 C1116 1.386 . S
C1117 C1121 1.393 . S
C1118 H1110 0.948 1_545 S
C1118 C1116 1.391 . S
C1118 C1119 1.400 . S
C1119 C1118 1.400 . S
C1119 C1120 1.398 . S
C1119 C1125 1.491 1_545 S
C1120 H1111 0.950 . S
C1120 C1119 1.398 . S
C1120 C1121 1.391 . S
C1121 H1109 0.950 . S
C1121 C1117 1.393 . S
C1121 C1120 1.391 . S
C1122 H1112 0.950 . S
C1122 C1123 1.386 . S
C1122 C1124 1.391 . S
C1123 C1122 1.386 . S
C1123 C1127 1.393 . S
C1124 H1113 0.948 1_565 S
C1124 C1122 1.391 . S
C1124 C1125 1.400 . S
C1125 C1119 1.491 1_565 S
C1125 C1124 1.400 . S
C1125 C1126 1.398 . S
C1126 H1114 0.950 . S
C1126 C1125 1.398 . S
C1126 C1127 1.391 . S
C1127 H1115 0.950 . S
C1127 C1123 1.393 . S
C1127 C1126 1.391 . S
H1128 C1136 0.950 . S
H1129 C1141 0.950 . S
H1130 C1138 0.950 . S
H1131 C1140 0.950 1_455 S
H1132 C1142 0.950 . S
H1133 C1144 0.950 . S
H1134 C1146 0.950 1_655 S
H1135 C1147 0.950 . S
C1136 H1128 0.950 . S
C1136 C1137 1.386 . S
C1136 C1138 1.391 . S
C1137 C1136 1.386 . S
C1137 C1141 1.393 . S
C1138 H1130 0.950 . S
C1138 C1136 1.391 . S
C1138 C1139 1.400 . S
C1139 C1138 1.400 . S
C1139 C1140 1.398 . S
C1139 C1145 1.491 1_655 S
C1140 H1131 0.950 1_655 S
C1140 C1139 1.398 . S
C1140 C1141 1.391 . S
C1141 H1129 0.950 . S
C1141 C1137 1.393 . S
C1141 C1140 1.391 . S
C1142 H1132 0.950 . S
C1142 C1143 1.386 . S
C1142 C1144 1.391 . S
C1143 C1142 1.386 . S
C1143 C1147 1.393 . S
C1144 H1133 0.950 . S
C1144 C1142 1.391 . S
C1144 C1145 1.400 . S
C1145 C1139 1.491 1_455 S
C1145 C1144 1.400 . S
C1145 C1146 1.398 . S
C1146 H1134 0.950 1_455 S
C1146 C1145 1.398 . S
C1146 C1147 1.391 . S
C1147 H1135 0.950 . S
C1147 C1143 1.393 . S
C1147 C1146 1.391 . S
H1148 C1156 0.950 . S
H1149 C1161 0.950 . S
H1150 C1158 0.950 . S
H1151 C1160 0.950 . S
H1152 C1162 0.950 . S
H1153 C1164 0.950 . S
H1154 C1166 0.950 . S
H1155 C1167 0.950 . S
C1156 H1148 0.950 . S
C1156 C1157 1.386 . S
C1156 C1158 1.391 . S
C1157 C1156 1.386 . S
C1157 C1161 1.393 . S
C1158 H1150 0.950 . S
C1158 C1156 1.391 . S
C1158 C1159 1.400 . S
C1159 C1158 1.400 . S
C1159 C1160 1.398 . S
C1159 C1165 1.491 1_554 S
C1160 H1151 0.950 . S
C1160 C1159 1.398 . S
C1160 C1161 1.391 . S
C1161 H1149 0.950 . S
C1161 C1157 1.393 . S
C1161 C1160 1.391 . S
C1162 H1152 0.950 . S
C1162 C1163 1.386 . S
C1162 C1164 1.391 . S
C1163 C1162 1.386 . S
C1163 C1167 1.393 . S
C1164 H1153 0.950 . S
C1164 C1162 1.391 . S
C1164 C1165 1.400 . S
C1165 C1159 1.491 1_556 S
C1165 C1164 1.400 . S
C1165 C1166 1.398 . S
C1166 H1154 0.950 . S
C1166 C1165 1.398 . S
C1166 C1167 1.391 . S
C1167 H1155 0.950 . S
C1167 C1163 1.393 . S
C1167 C1166 1.391 . S
H1168 C1176 0.950 . S
H1169 C1181 0.950 . S
H1170 C1178 0.950 1_655 S
H1171 C1180 0.950 . S
H1172 C1182 0.950 . S
H1173 C1184 0.950 1_455 S
H1174 C1186 0.950 . S
H1175 C1187 0.950 . S
C1176 H1168 0.950 . S
C1176 C1177 1.386 . S
C1176 C1178 1.391 . S
C1177 C1176 1.386 . S
C1177 C1181 1.393 . S
C1178 H1170 0.950 1_455 S
C1178 C1176 1.391 . S
C1178 C1179 1.400 . S
C1179 C1178 1.400 . S
C1179 C1180 1.398 1_556 S
C1179 C1185 1.491 1_456 S
C1180 H1171 0.950 . S
C1180 C1179 1.398 1_554 S
C1180 C1181 1.391 1_554 S
C1181 H1169 0.950 . S
C1181 C1177 1.393 . S
C1181 C1180 1.391 1_556 S
C1182 H1172 0.950 . S
C1182 C1183 1.386 . S
C1182 C1184 1.391 . S
C1183 C1182 1.386 . S
C1183 C1187 1.393 . S
C1184 H1173 0.950 1_655 S
C1184 C1182 1.391 . S
C1184 C1185 1.400 . S
C1185 C1179 1.491 1_654 S
C1185 C1184 1.400 . S
C1185 C1186 1.398 1_554 S
C1186 H1174 0.950 . S
C1186 C1185 1.398 1_556 S
C1186 C1187 1.391 1_556 S
C1187 H1175 0.950 . S
C1187 C1183 1.393 . S
C1187 C1186 1.391 1_554 S
H1188 C1196 0.950 . S
H1189 C1201 0.950 . S
H1190 C1198 0.950 . S
H1191 C1200 0.950 . S
H1192 C1202 0.950 . S
H1193 C1204 0.950 . S
H1194 C1206 0.950 . S
H1195 C1207 0.950 . S
C1196 H1188 0.950 . S
C1196 C1197 1.386 . S
C1196 C1198 1.391 . S
C1197 C1196 1.386 . S
C1197 C1201 1.393 . S
C1198 H1190 0.950 . S
C1198 C1196 1.391 . S
C1198 C1199 1.400 . S
C1199 C1198 1.400 . S
C1199 C1200 1.398 . S
C1199 C1205 1.491 . S
C1200 H1191 0.950 . S
C1200 C1199 1.398 . S
C1200 C1201 1.391 . S
C1201 H1189 0.950 . S
C1201 C1197 1.393 . S
C1201 C1200 1.391 . S
C1202 H1192 0.950 . S
C1202 C1203 1.386 . S
C1202 C1204 1.391 . S
C1203 C1202 1.386 . S
C1203 C1207 1.393 . S
C1204 H1193 0.950 . S
C1204 C1202 1.391 . S
C1204 C1205 1.400 . S
C1205 C1199 1.491 . S
C1205 C1204 1.400 . S
C1205 C1206 1.398 . S
C1206 H1194 0.950 . S
C1206 C1205 1.398 . S
C1206 C1207 1.391 . S
C1207 H1195 0.950 . S
C1207 C1203 1.393 . S
C1207 C1206 1.391 . S
H1208 C1216 0.950 . S
H1209 C1221 0.950 . S
H1210 C1218 0.950 . S
H1211 C1220 0.950 . S
H1212 C1222 0.950 . S
H1213 C1224 0.950 . S
H1214 C1226 0.950 . S
H1215 C1227 0.950 . S
C1216 H1208 0.950 . S
C1216 C1217 1.386 . S
C1216 C1218 1.391 . S
C1217 C1216 1.386 . S
C1217 C1221 1.393 . S
C1218 H1210 0.950 . S
C1218 C1216 1.391 . S
C1218 C1219 1.400 . S
C1219 C1218 1.400 . S
C1219 C1220 1.398 . S
C1219 C1225 1.491 1_554 S
C1220 H1211 0.950 . S
C1220 C1219 1.398 . S
C1220 C1221 1.391 . S
C1221 H1209 0.950 . S
C1221 C1217 1.393 . S
C1221 C1220 1.391 . S
C1222 H1212 0.950 . S
C1222 C1223 1.386 . S
C1222 C1224 1.391 . S
C1223 C1222 1.386 . S
C1223 C1227 1.393 . S
C1224 H1213 0.950 . S
C1224 C1222 1.391 . S
C1224 C1225 1.400 . S
C1225 C1219 1.491 1_556 S
C1225 C1224 1.400 . S
C1225 C1226 1.398 . S
C1226 H1214 0.950 . S
C1226 C1225 1.398 . S
C1226 C1227 1.391 . S
C1227 H1215 0.950 . S
C1227 C1223 1.393 . S
C1227 C1226 1.391 . S
H1228 C1236 0.950 . S
H1229 C1241 0.950 . S
H1230 C1238 0.950 . S
H1231 C1240 0.950 . S
H1232 C1242 0.950 . S
H1233 C1244 0.950 . S
H1234 C1246 0.950 . S
H1235 C1247 0.950 . S
C1236 H1228 0.950 . S
C1236 C1237 1.386 . S
C1236 C1238 1.391 . S
C1237 C1236 1.386 . S
C1237 C1241 1.393 . S
C1238 H1230 0.950 . S
C1238 C1236 1.391 . S
C1238 C1239 1.400 . S
C1239 C1238 1.400 . S
C1239 C1240 1.398 . S
C1239 C1245 1.491 . S
C1240 H1231 0.950 . S
C1240 C1239 1.398 . S
C1240 C1241 1.391 . S
C1241 H1229 0.950 . S
C1241 C1237 1.393 . S
C1241 C1240 1.391 . S
C1242 H1232 0.950 . S
C1242 C1243 1.386 . S
C1242 C1244 1.391 . S
C1243 C1242 1.386 . S
C1243 C1247 1.393 . S
C1244 H1233 0.950 . S
C1244 C1242 1.391 . S
C1244 C1245 1.400 . S
C1245 C1239 1.491 . S
C1245 C1244 1.400 . S
C1245 C1246 1.398 . S
C1246 H1234 0.950 . S
C1246 C1245 1.398 . S
C1246 C1247 1.391 . S
C1247 H1235 0.950 . S
C1247 C1243 1.393 . S
C1247 C1246 1.391 . S
H1248 C1256 0.950 . S
H1249 C1261 0.950 . S
H1250 C1258 0.950 . S
H1251 C1260 0.950 . S
H1252 C1262 0.950 . S
H1253 C1264 0.950 . S
H1254 C1266 0.950 . S
H1255 C1267 0.950 . S
C1256 H1248 0.950 . S
C1256 C1257 1.386 . S
C1256 C1258 1.391 1_554 S
C1257 C1256 1.386 . S
C1257 C1261 1.393 . S
C1258 H1250 0.950 . S
C1258 C1256 1.391 1_556 S
C1258 C1259 1.400 1_556 S
C1259 C1258 1.400 1_554 S
C1259 C1260 1.398 . S
C1259 C1265 1.491 1_564 S
C1260 H1251 0.950 . S
C1260 C1259 1.398 . S
C1260 C1261 1.391 . S
C1261 H1249 0.950 . S
C1261 C1257 1.393 . S
C1261 C1260 1.391 . S
C1262 H1252 0.950 . S
C1262 C1263 1.386 . S
C1262 C1264 1.391 1_556 S
C1263 C1262 1.386 . S
C1263 C1267 1.393 . S
C1264 H1253 0.950 . S
C1264 C1262 1.391 1_554 S
C1264 C1265 1.400 1_554 S
C1265 C1259 1.491 1_546 S
C1265 C1264 1.400 1_556 S
C1265 C1266 1.398 . S
C1266 H1254 0.950 . S
C1266 C1265 1.398 . S
C1266 C1267 1.391 . S
C1267 H1255 0.950 . S
C1267 C1263 1.393 . S
C1267 C1266 1.391 . S
H1268 C1276 0.950 . S
H1269 C1281 0.950 . S
H1270 C1278 0.950 . S
H1271 C1280 0.950 . S
H1272 C1282 0.950 . S
H1273 C1284 0.950 . S
H1274 C1286 0.950 . S
H1275 C1287 0.950 . S
C1276 H1268 0.950 . S
C1276 C1277 1.386 . S
C1276 C1278 1.391 . S
C1277 C1276 1.386 . S
C1277 C1281 1.393 . S
C1278 H1270 0.950 . S
C1278 C1276 1.391 . S
C1278 C1279 1.400 . S
C1279 C1278 1.400 . S
C1279 C1280 1.398 . S
C1279 C1285 1.491 . S
C1280 H1271 0.950 . S
C1280 C1279 1.398 . S
C1280 C1281 1.391 . S
C1281 H1269 0.950 . S
C1281 C1277 1.393 . S
C1281 C1280 1.391 . S
C1282 H1272 0.950 . S
C1282 C1283 1.386 . S
C1282 C1284 1.391 . S
C1283 C1282 1.386 . S
C1283 C1287 1.393 . S
C1284 H1273 0.950 . S
C1284 C1282 1.391 . S
C1284 C1285 1.400 . S
C1285 C1279 1.491 . S
C1285 C1284 1.400 . S
C1285 C1286 1.398 . S
C1286 H1274 0.950 . S
C1286 C1285 1.398 . S
C1286 C1287 1.391 . S
C1287 H1275 0.950 . S
C1287 C1283 1.393 . S
C1287 C1286 1.391 . S
H1288 C1296 0.950 . S
H1289 C1301 0.950 . S
H1290 C1298 0.950 . S
H1291 C1300 0.950 . S
H1292 C1302 0.950 . S
H1293 C1304 0.950 . S
H1294 C1306 0.950 . S
H1295 C1307 0.950 . S
C1296 H1288 0.950 . S
C1296 C1297 1.386 . S
C1296 C1298 1.391 . S
C1297 C1296 1.386 . S
C1297 C1301 1.393 . S
C1298 H1290 0.950 . S
C1298 C1296 1.391 . S
C1298 C1299 1.400 . S
C1299 C1298 1.400 . S
C1299 C1300 1.398 . S
C1299 C1305 1.491 . S
C1300 H1291 0.950 . S
C1300 C1299 1.398 . S
C1300 C1301 1.391 . S
C1301 H1289 0.950 . S
C1301 C1297 1.393 . S
C1301 C1300 1.391 . S
C1302 H1292 0.950 . S
C1302 C1303 1.386 . S
C1302 C1304 1.391 . S
C1303 C1302 1.386 . S
C1303 C1307 1.393 . S
C1304 H1293 0.950 . S
C1304 C1302 1.391 . S
C1304 C1305 1.400 . S
C1305 C1299 1.491 . S
C1305 C1304 1.400 . S
C1305 C1306 1.398 . S
C1306 H1294 0.950 . S
C1306 C1305 1.398 . S
C1306 C1307 1.391 . S
C1307 H1295 0.950 . S
C1307 C1303 1.393 . S
C1307 C1306 1.391 . S
H1308 C1316 0.950 . S
H1309 C1321 0.950 . S
H1310 C1318 0.950 . S
H1311 C1320 0.950 . S
H1312 C1322 0.950 . S
H1313 C1324 0.950 . S
H1314 C1326 0.950 . S
H1315 C1327 0.950 . S
C1316 H1308 0.950 . S
C1316 C1317 1.386 . S
C1316 C1318 1.391 . S
C1317 C1316 1.386 . S
C1317 C1321 1.393 . S
C1318 H1310 0.950 . S
C1318 C1316 1.391 . S
C1318 C1319 1.400 . S
C1319 C1318 1.400 . S
C1319 C1320 1.398 . S
C1319 C1325 1.491 . S
C1320 H1311 0.950 . S
C1320 C1319 1.398 . S
C1320 C1321 1.391 . S
C1321 H1309 0.950 . S
C1321 C1317 1.393 . S
C1321 C1320 1.391 . S
C1322 H1312 0.950 . S
C1322 C1323 1.386 . S
C1322 C1324 1.391 . S
C1323 C1322 1.386 . S
C1323 C1327 1.393 . S
C1324 H1313 0.950 . S
C1324 C1322 1.391 . S
C1324 C1325 1.400 . S
C1325 C1319 1.491 . S
C1325 C1324 1.400 . S
C1325 C1326 1.398 . S
C1326 H1314 0.950 . S
C1326 C1325 1.398 . S
C1326 C1327 1.391 . S
C1327 H1315 0.950 . S
C1327 C1323 1.393 . S
C1327 C1326 1.391 . S
C537 N2 0.770 . S
C543 N299 0.788 . S
C557 N13 0.737 1_655 S
C563 N310 0.719 . S
C577 N277 0.706 . S
C583 N46 0.725 . S
C597 N35 0.770 1_655 S
C603 N266 0.787 . S
C617 N68 0.789 . S
C623 N365 0.770 . S
C637 N79 0.723 1_455 S
C643 N376 0.737 . S
C657 N112 0.708 . S
C663 N343 0.730 . S
C677 N101 0.793 1_455 S
C683 N332 0.772 . S
C697 N134 0.770 . S
C703 N431 0.791 . S
C717 N442 0.706 . S
C723 N145 0.720 1_655 S
C737 N409 0.718 . S
C743 N178 0.706 . S
C757 N398 0.793 . S
C763 N167 0.781 1_655 S
C777 N497 0.775 . S
C783 N200 0.794 . S
C797 N508 0.716 . S
C803 N211 0.736 1_455 S
C817 N475 0.736 . S
C823 N244 0.717 . S
C837 N233 0.782 1_455 S
C843 N464 0.792 . S
C857 C21 1.104 . S
C863 C54 1.105 1_554 S
C877 C120 1.106 1_556 S
C883 C87 1.104 . S
C897 C186 1.106 . S
C903 C153 1.104 . S
C917 C252 1.106 . S
C923 C219 1.104 . S
C937 C318 1.105 . S
C943 C285 1.105 . S
C957 C351 1.105 . S
C963 C384 1.105 . S
C977 C450 1.105 1_554 S
C983 C417 1.105 . S
C997 C483 1.106 . S
C1003 C516 1.104 1_556 S
C1017 C469 1.834 . S
C1023 C7 1.834 . S
C1037 C84 1.856 . S
C1043 C18 1.856 . S
C1057 C381 1.855 . S
C1063 C51 1.855 . S
C1077 C238 1.827 . S
C1083 C40 1.827 . S
C1097 C73 1.834 . S
C1103 C403 1.834 . S
C1117 C315 1.866 . S
C1123 C117 1.866 . S
C1137 C106 1.818 . S
C1143 C172 1.818 . S
C1157 C337 1.828 . S
C1163 C139 1.828 . S
C1177 C150 1.866 . S
C1183 C216 1.866 . S
C1197 C183 1.848 . S
C1203 C513 1.848 . S
C1217 C205 1.828 . S
C1223 C271 1.828 . S
C1237 C249 1.848 . S
C1243 C447 1.848 . S
C1257 C348 1.865 . S
C1263 C282 1.865 . S
C1277 C502 1.816 . S
C1283 C304 1.816 . S
C1297 C370 1.818 . S
C1303 C436 1.818 . S
C1317 C414 1.862 . S
C1323 C480 1.862 . S
