# Generated by pormake.
# Topology snk, (6)-cn, num edge types: 1
# Building blocks:
#     Node 0, Type 0, BuildingBlock: FUNLAD_clean_sbu_0, # of connection points: 6
#     Node 1, Type 0, BuildingBlock: FUNLAD_clean_sbu_0, # of connection points: 6
#     Node 2, Type 0, BuildingBlock: FUNLAD_clean_sbu_0, # of connection points: 6
#     Node 3, Type 0, BuildingBlock: FUNLAD_clean_sbu_0, # of connection points: 6
#     Node 4, Type 0, BuildingBlock: FUNLAD_clean_sbu_0, # of connection points: 6
#     Node 5, Type 0, BuildingBlock: FUNLAD_clean_sbu_0, # of connection points: 6
#     Node 6, Type 0, BuildingBlock: FUNLAD_clean_sbu_0, # of connection points: 6
#     Node 7, Type 0, BuildingBlock: FUNLAD_clean_sbu_0, # of connection points: 6
#     Edge 8, Type (0, 0), BuildingBlock: XUDNAN_clean_linker_2, # of connection points: 2
#     Edge 9, Type (0, 0), BuildingBlock: XUDNAN_clean_linker_2, # of connection points: 2
#     Edge 10, Type (0, 0), BuildingBlock: XUDNAN_clean_linker_2, # of connection points: 2
#     Edge 11, Type (0, 0), BuildingBlock: XUDNAN_clean_linker_2, # of connection points: 2
#     Edge 12, Type (0, 0), BuildingBlock: XUDNAN_clean_linker_2, # of connection points: 2
#     Edge 13, Type (0, 0), BuildingBlock: XUDNAN_clean_linker_2, # of connection points: 2
#     Edge 14, Type (0, 0), BuildingBlock: XUDNAN_clean_linker_2, # of connection points: 2
#     Edge 15, Type (0, 0), BuildingBlock: XUDNAN_clean_linker_2, # of connection points: 2
#     Edge 16, Type (0, 0), BuildingBlock: XUDNAN_clean_linker_2, # of connection points: 2
#     Edge 17, Type (0, 0), BuildingBlock: XUDNAN_clean_linker_2, # of connection points: 2
#     Edge 18, Type (0, 0), BuildingBlock: XUDNAN_clean_linker_2, # of connection points: 2
#     Edge 19, Type (0, 0), BuildingBlock: XUDNAN_clean_linker_2, # of connection points: 2
#     Edge 20, Type (0, 0), BuildingBlock: XUDNAN_clean_linker_2, # of connection points: 2
#     Edge 21, Type (0, 0), BuildingBlock: XUDNAN_clean_linker_2, # of connection points: 2
#     Edge 22, Type (0, 0), BuildingBlock: XUDNAN_clean_linker_2, # of connection points: 2
#     Edge 23, Type (0, 0), BuildingBlock: XUDNAN_clean_linker_2, # of connection points: 2
#     Edge 24, Type (0, 0), BuildingBlock: XUDNAN_clean_linker_2, # of connection points: 2
#     Edge 25, Type (0, 0), BuildingBlock: XUDNAN_clean_linker_2, # of connection points: 2
#     Edge 26, Type (0, 0), BuildingBlock: XUDNAN_clean_linker_2, # of connection points: 2
#     Edge 27, Type (0, 0), BuildingBlock: XUDNAN_clean_linker_2, # of connection points: 2
#     Edge 28, Type (0, 0), BuildingBlock: XUDNAN_clean_linker_2, # of connection points: 2
#     Edge 29, Type (0, 0), BuildingBlock: XUDNAN_clean_linker_2, # of connection points: 2
#     Edge 30, Type (0, 0), BuildingBlock: XUDNAN_clean_linker_2, # of connection points: 2
#     Edge 31, Type (0, 0), BuildingBlock: XUDNAN_clean_linker_2, # of connection points: 2
# Relax obj value: 0.244
# Max RMSD: 0.121
# Mean RMSD: 0.089
data_MOF--net-snk--node1-FUNLAD_clean_sbu_0--edge1-XUDNAN_clean_linker_2
_symmetry_space_group_name_H-M    P1
_symmetry_Int_Tables_number       1
_symmetry_cell_setting            triclinic
loop_
_symmetry_equiv_pos_as_xyz
'x, y, z'
_cell_length_a     49.506011
_cell_length_b     49.791258
_cell_length_c     15.045702
_cell_angle_alpha  82.063897
_cell_angle_beta   81.261929
_cell_angle_gamma 94.481657
loop_
_atom_site_label
_atom_site_type_symbol
_atom_site_fract_x
_atom_site_fract_y
_atom_site_fract_z
_atom_type_partial_charge
C0 C 1.02831 1.02824 0.66064 0.0
N1 N 0.07699 0.98344 0.49759 0.0
C2 C 0.09653 0.9865 0.55126 0.0
C3 C 0.11275 0.9653 0.57251 0.0
C4 C 0.10882 0.94053 0.53873 0.0
C5 C 0.08925 0.93847 0.48057 0.0
C6 C 0.07354 0.9601 0.4611 0.0
Zn7 Zn 0.04876 1.01221 0.48123 0.0
C8 C 0.98832 0.98054 0.52296 0.0
N9 N 0.98738 0.06944 0.46134 0.0
C10 C 0.98766 0.09463 0.48736 0.0
C11 C 0.96687 0.06019 0.41887 0.0
C12 C 0.9454 0.07587 0.40317 0.0
C13 C 0.94479 0.10172 0.43024 0.0
C14 C 0.96653 0.11125 0.47188 0.0
Zn15 Zn 1.01738 0.04269 0.47871 0.0
O16 O 0.0444 1.01448 0.6161 0.0
C17 C 0.07901 0.07343 0.43786 0.0
O18 O 1.01388 0.04444 0.61997 0.0
H19 H 0.96712 0.04049 0.39653 0.0
H20 H 0.09892 1.00504 0.58047 0.0
H21 H 1.00418 0.10184 0.52031 0.0
O22 O 0.0828 0.04792 0.4499 0.0
O23 O 0.05365 0.07864 0.44536 0.0
H24 H 0.05792 0.95784 0.41888 0.0
O25 O 1.02131 0.03951 0.33927 0.0
O26 O 0.05189 1.00977 0.34561 0.0
O27 O 0.98249 1.00544 0.51331 0.0
O28 O 1.01409 0.97749 0.51249 0.0
C29 C 0.03685 1.02389 0.30086 0.0
H30 H 0.12738 0.96791 0.61808 0.0
H31 H 0.08573 0.92009 0.45125 0.0
H32 H 0.92944 0.06782 0.36933 0.0
H33 H 0.96689 0.13106 0.49398 0.0
C34 C 0.26619 0.77198 0.93434 0.0
N35 N 0.31673 0.82876 0.73519 0.0
C36 C 0.30526 0.8439 0.79674 0.0
C37 C 0.32088 0.85398 0.85633 0.0
C38 C 0.34856 0.84903 0.84966 0.0
C39 C 0.36093 0.83838 0.77343 0.0
C40 C 0.34439 0.82834 0.71586 0.0
Zn41 Zn 0.29302 0.79407 0.73191 0.0
C42 C 0.32399 0.74564 0.78124 0.0
N43 N 0.24354 0.71963 0.75931 0.0
C44 C 0.21677 0.72031 0.74907 0.0
C45 C 0.2588 0.7009 0.72337 0.0
C46 C 0.24971 0.68694 0.65819 0.0
C47 C 0.22432 0.69167 0.63194 0.0
C48 C 0.2066 0.70627 0.68507 0.0
Zn49 Zn 0.26563 0.75569 0.76604 0.0
O50 O 0.28274 0.78995 0.87977 0.0
C51 C 0.23524 0.80499 0.71646 0.0
O52 O 0.25285 0.75371 0.90281 0.0
H53 H 0.27984 0.69971 0.73236 0.0
H54 H 0.2832 0.8439 0.81143 0.0
H55 H 0.20438 0.73435 0.78107 0.0
O56 O 0.25902 0.817 0.71329 0.0
O57 O 0.23183 0.77909 0.73595 0.0
H58 H 0.35309 0.81652 0.6655 0.0
O59 O 0.27855 0.75725 0.62735 0.0
O60 O 0.30291 0.79683 0.5865 0.0
O61 O 0.29971 0.73395 0.79748 0.0
O62 O 0.32758 0.77089 0.74957 0.0
C63 C 0.29241 0.77494 0.56525 0.0
H64 H 0.3105 0.86232 0.91344 0.0
H65 H 0.38253 0.83531 0.76375 0.0
H66 H 0.2641 0.67549 0.62138 0.0
H67 H 0.18602 0.70896 0.67183 0.0
C68 C 0.52066 1.02272 0.83457 0.0
N69 N 0.49752 0.97164 0.08313 0.0
C70 C 0.48048 0.97066 0.16385 0.0
C71 C 0.46453 0.94658 0.20456 0.0
C72 C 0.4663 0.92338 0.16178 0.0
C73 C 0.48528 0.92455 0.08137 0.0
C74 C 0.50069 0.94908 0.04275 0.0
Zn75 Zn 0.5195 1.00734 0.02609 0.0
C76 C 0.57816 0.99896 0.9604 0.0
N77 N 0.56642 0.0825 0.92689 0.0
C78 C 0.55257 0.09998 0.87703 0.0
C79 C 0.59299 0.08898 0.93504 0.0
C80 C 0.60625 0.1145 0.89519 0.0
C81 C 0.59179 0.13331 0.84776 0.0
C82 C 0.56483 0.1258 0.83764 0.0
Zn83 Zn 0.54548 0.04628 -0.01541 0.0
O84 O 0.50956 1.00372 0.8977 0.0
C85 C 0.48677 0.05474 0.05017 0.0
O86 O 0.5352 0.04258 0.85378 0.0
H87 H 0.60361 0.07465 0.97426 0.0
H88 H 0.47866 0.98878 0.19557 0.0
H89 H 0.53164 0.0942 0.86946 0.0
O90 O 0.48396 0.02885 0.05885 0.0
O91 O 0.5104 0.06718 0.0199 0.0
H92 H 0.51453 0.95032 0.97904 0.0
O93 O 0.55598 0.04933 0.11793 0.0
O94 O 0.53014 1.01035 0.15165 0.0
O95 O 0.5808 1.02491 0.95016 0.0
O96 O 0.5547 0.9863 -0.00708 0.0
C97 C 0.54517 0.02877 0.17599 0.0
H98 H 0.44985 0.94647 0.2659 0.0
H99 H 0.48672 0.90727 0.04492 0.0
H100 H 0.62695 0.12012 0.906 0.0
H101 H 0.55308 0.14011 0.80288 0.0
C102 C 0.27891 0.28165 0.05543 0.0
N103 N 0.32425 0.23253 0.21456 0.0
C104 C 0.31515 0.21203 0.17186 0.0
C105 C 0.33055 0.19014 0.15936 0.0
C106 C 0.35585 0.18909 0.19039 0.0
C107 C 0.36522 0.21083 0.23227 0.0
C108 C 0.34894 0.2324 0.24417 0.0
Zn109 Zn 0.29809 0.26279 0.23143 0.0
C110 C 0.33081 0.32226 0.18472 0.0
N111 N 0.24119 0.3239 0.25309 0.0
C112 C 0.21609 0.32325 0.22622 0.0
C113 C 0.25047 0.34506 0.29256 0.0
C114 C 0.23481 0.3668 0.30462 0.0
C115 C 0.20907 0.36706 0.27621 0.0
C116 C 0.19956 0.34467 0.23761 0.0
Zn117 Zn 0.26757 0.29377 0.23618 0.0
O118 O 0.29403 0.26562 0.09299 0.0
C119 C 0.23602 0.23312 0.28288 0.0
O120 O 0.26439 0.29628 0.10184 0.0
H121 H 0.27026 0.34522 0.31458 0.0
H122 H 0.29572 0.21252 0.14753 0.0
H123 H 0.20898 0.30629 0.19507 0.0
O124 O 0.26172 0.22972 0.27 0.0
O125 O 0.23059 0.25822 0.27423 0.0
H126 H 0.35591 0.24888 0.27774 0.0
O127 O 0.27173 0.29153 0.36928 0.0
O128 O 0.30201 0.26143 0.37014 0.0
O129 O 0.30566 0.32796 0.19736 0.0
O130 O 0.33396 0.29663 0.19364 0.0
C131 C 0.28774 0.27771 0.41035 0.0
H132 H 0.3227 0.17417 0.12518 0.0
H133 H 0.38458 0.21084 0.25746 0.0
H134 H 0.24283 0.3833 0.33624 0.0
H135 H 0.17989 0.34404 0.21438 0.0
C136 C 0.77267 0.27851 0.39996 0.0
N137 N 0.83836 0.31483 0.19957 0.0
C138 C 0.83476 0.34071 0.21527 0.0
C139 C 0.84889 0.35216 0.27619 0.0
C140 C 0.86678 0.33678 0.3208 0.0
C141 C 0.87424 0.31278 0.28898 0.0
C142 C 0.86015 0.3025 0.22553 0.0
Zn143 Zn 0.803 0.28971 0.20045 0.0
C144 C 0.81155 0.23057 0.26229 0.0
N145 N 0.72883 0.23825 0.23687 0.0
C146 C 0.70502 0.25028 0.24804 0.0
C147 C 0.7318 0.21782 0.18608 0.0
C148 C 0.7132 0.21323 0.12808 0.0
C149 C 0.69156 0.22972 0.12381 0.0
C150 C 0.68604 0.24668 0.18992 0.0
Zn151 Zn 0.76402 0.26234 0.23436 0.0
O152 O 0.79357 0.29086 0.34542 0.0
C153 C 0.75464 0.32103 0.17275 0.0
O154 O 0.75428 0.26518 0.36906 0.0
H155 H 0.75079 0.20838 0.17848 0.0
H156 H 0.81878 0.35149 0.1901 0.0
H157 H 0.70281 0.266 0.29084 0.0
O158 O 0.7805 0.32429 0.16901 0.0
O159 O 0.74251 0.29724 0.19802 0.0
H160 H 0.86465 0.28303 0.20666 0.0
O161 O 0.77451 0.25931 0.09728 0.0
O162 O 0.81209 0.2875 0.05821 0.0
O163 O 0.78547 0.22753 0.27118 0.0
O164 O 0.82393 0.25406 0.23136 0.0
C165 C 0.79421 0.27084 0.0369 0.0
H166 H 0.84397 0.37175 0.29409 0.0
H167 H 0.88877 0.30066 0.31865 0.0
H168 H 0.71736 0.19902 0.08045 0.0
H169 H 0.66908 0.25918 0.19017 0.0
C170 C 0.77724 0.78266 0.55611 0.0
N171 N 0.82417 0.73398 0.70923 0.0
C172 C 0.81506 0.71368 0.66579 0.0
C173 C 0.83141 0.693 0.64604 0.0
C174 C 0.85766 0.69297 0.67069 0.0
C175 C 0.86686 0.71438 0.71423 0.0
C176 C 0.84965 0.73474 0.73325 0.0
Zn177 Zn 0.7977 0.76357 0.73081 0.0
C178 C 0.83019 0.8229 0.68256 0.0
N179 N 0.74107 0.82457 0.75809 0.0
C180 C 0.71543 0.82408 0.73529 0.0
C181 C 0.75104 0.84541 0.79764 0.0
C182 C 0.73551 0.86693 0.81427 0.0
C183 C 0.70919 0.86732 0.79049 0.0
C184 C 0.69901 0.84531 0.75135 0.0
Zn185 Zn 0.76725 0.79454 0.73688 0.0
O186 O 0.79254 0.76674 0.59316 0.0
C187 C 0.73594 0.73384 0.78494 0.0
O188 O 0.76297 0.79743 0.60282 0.0
H189 H 0.77122 0.84543 0.81663 0.0
H190 H 0.79502 0.71357 0.64557 0.0
H191 H 0.70776 0.80735 0.70417 0.0
O192 O 0.76162 0.73042 0.77086 0.0
O193 O 0.73047 0.75893 0.77669 0.0
H194 H 0.85666 0.75114 0.7671 0.0
O195 O 0.77251 0.79193 0.86945 0.0
O196 O 0.80272 0.76178 0.86907 0.0
O197 O 0.80512 0.82872 0.69613 0.0
O198 O 0.83327 0.79731 0.69155 0.0
C199 C 0.78865 0.77809 0.90984 0.0
H200 H 0.8236 0.67728 0.6108 0.0
H201 H 0.88691 0.71512 0.73474 0.0
H202 H 0.74406 0.8831 0.84622 0.0
H203 H 0.67885 0.84478 0.73165 0.0
C204 C 0.52913 0.52881 0.16911 0.0
N205 N 0.57916 0.48617 0.00455 0.0
C206 C 0.59955 0.49451 0.04904 0.0
C207 C 0.62093 0.47848 0.06261 0.0
C208 C 0.62172 0.4533 0.0306 0.0
C209 C 0.60011 0.44475 -0.01337 0.0
C210 C 0.579 0.46163 0.97391 0.0
Zn211 Zn 0.5491 0.51309 -0.01062 0.0
C212 C 0.48859 0.48115 0.03102 0.0
N213 N 0.48916 0.57184 0.97373 0.0
C214 C 0.49288 0.59534 0.00905 0.0
C215 C 0.4688 0.5682 0.92357 0.0
C216 C 0.45186 0.58895 0.90498 0.0
C217 C 0.45596 0.61387 0.93768 0.0
C218 C 0.47651 0.61658 -0.00806 0.0
Zn219 Zn 0.51767 0.54346 -0.01255 0.0
O220 O 0.54531 0.51527 0.12416 0.0
C221 C 0.57913 0.57438 0.94506 0.0
O222 O 0.51443 0.54473 0.12889 0.0
H223 H 0.46623 0.54951 0.89531 0.0
H224 H 0.5993 0.51378 0.07443 0.0
H225 H 0.50912 0.59797 0.04865 0.0
O226 O 0.58287 0.54895 0.95591 0.0
O227 O 0.55381 0.57949 0.95443 0.0
H228 H 0.56262 0.45516 0.93911 0.0
O229 O 0.52126 0.54068 0.84787 0.0
O230 O 0.55163 0.51061 0.85435 0.0
O231 O 0.48265 0.50612 0.02042 0.0
O232 O 0.51444 0.47811 0.02187 0.0
C233 C 0.53662 0.52484 0.80966 0.0
H234 H 0.63672 0.48579 0.09852 0.0
H235 H 0.59984 0.42554 0.96052 0.0
H236 H 0.43648 0.5859 0.86233 0.0
H237 H 0.48022 0.63515 0.02008 0.0
C238 C 1.02298 0.53163 0.27219 0.0
N239 N 0.99666 0.48244 0.52349 0.0
C240 C 0.96977 0.48115 0.51419 0.0
C241 C 0.95158 0.45935 0.56124 0.0
C242 C 0.96125 0.4386 0.61767 0.0
C243 C 0.989 0.44057 0.62695 0.0
C244 C 1.00644 0.46292 0.57931 0.0
Zn245 Zn 1.02209 0.51576 0.46357 0.0
C246 C 0.07812 0.50268 0.40337 0.0
N247 N 0.07524 0.58715 0.36248 0.0
C248 C 0.09036 0.58563 0.28008 0.0
C249 C 0.07852 0.60934 0.40443 0.0
C250 C 0.09919 0.6302 0.36665 0.0
C251 C 0.11649 0.62814 0.28481 0.0
C252 C 0.11093 0.60616 0.23928 0.0
Zn253 Zn 0.04891 0.5542 0.42195 0.0
O254 O 1.0116 0.51279 0.33548 0.0
C255 C 0.99288 0.56692 0.48373 0.0
O256 O 0.03803 0.55118 0.29117 0.0
H257 H 0.0661 0.61014 0.46952 0.0
H258 H 0.96246 0.49695 0.46975 0.0
H259 H 0.08752 0.56778 0.24771 0.0
O260 O 0.98989 0.54101 0.49418 0.0
O261 O 1.01649 0.57929 0.45098 0.0
H262 H 1.02785 0.46462 0.58686 0.0
O263 O 0.05941 0.55659 0.55602 0.0
O264 O 0.03293 0.51806 0.58919 0.0
O265 O 0.08169 0.52859 0.39379 0.0
O266 O 0.05416 0.4909 0.43311 0.0
C267 C 0.04828 0.53613 0.61389 0.0
H268 H 0.93045 0.45806 0.54992 0.0
H269 H 0.99718 0.42466 0.66854 0.0
H270 H 0.10299 0.64652 0.40527 0.0
H271 H 0.12372 0.60382 0.17624 0.0
H272 H 0.0844 0.13368 0.40357 0.0
H273 H 0.13378 0.06545 0.41875 0.0
H274 H 0.17571 0.09734 0.38335 0.0
H275 H 0.13174 0.17758 0.21497 0.0
H276 H 0.12695 0.20906 0.25903 0.0
H277 H 0.0999 0.18135 0.28591 0.0
H278 H 0.09902 0.18247 0.45706 0.0
H279 H 0.12607 0.21018 0.43067 0.0
H280 H 0.13026 0.17948 0.50393 0.0
H281 H 0.21453 0.13692 0.34449 0.0
H282 H 0.24549 0.17927 0.30782 0.0
H283 H 0.17511 0.22617 0.31453 0.0
C284 C 0.10397 0.12528 0.3996 0.0
C285 C 0.10459 0.09587 0.41508 0.0
C286 C 0.13147 0.08704 0.40818 0.0
C287 C 0.15593 0.10536 0.38767 0.0
C288 C 0.15461 0.13365 0.37305 0.0
C289 C 0.12928 0.14375 0.37874 0.0
C290 C 0.13439 0.17546 0.3596 0.0
C291 C 0.12252 0.18653 0.27485 0.0
C292 C 0.12166 0.18763 0.44275 0.0
C293 C 0.16626 0.18147 0.34242 0.0
C294 C 0.17722 0.15671 0.35077 0.0
C295 C 0.20583 0.15623 0.33815 0.0
C296 C 0.2236 0.18096 0.3169 0.0
C297 C 0.21391 0.20731 0.30727 0.0
C298 C 0.18417 0.20706 0.3208 0.0
H299 H 0.16319 0.93962 0.56557 0.0
H300 H 0.0883 0.88664 0.57873 0.0
H301 H 0.11214 0.84675 0.62563 0.0
H302 H 0.21 0.89395 0.47778 0.0
H303 H 0.23599 0.90278 0.54361 0.0
H304 H 0.2131 0.92736 0.51083 0.0
H305 H 0.19857 0.93271 0.67974 0.0
H306 H 0.2214 0.90812 0.71299 0.0
H307 H 0.1855 0.90296 0.76221 0.0
H308 H 0.14413 0.81211 0.67193 0.0
H309 H 0.18198 0.78572 0.71191 0.0
H310 H 0.23619 0.8608 0.67075 0.0
C311 C 0.15173 0.91967 0.57879 0.0
C312 C 0.12377 0.91648 0.5674 0.0
C313 C 0.10978 0.88981 0.58492 0.0
C314 C 0.12311 0.86693 0.6124 0.0
C315 C 0.1506 0.87079 0.62251 0.0
C316 C 0.16479 0.89649 0.60619 0.0
C317 C 0.19431 0.89491 0.62158 0.0
C318 C 0.21454 0.90537 0.53318 0.0
C319 C 0.20029 0.91061 0.69873 0.0
C320 C 0.19445 0.86438 0.6492 0.0
C321 C 0.16901 0.85084 0.64939 0.0
C322 C 0.16413 0.82254 0.67212 0.0
C323 C 0.18579 0.80768 0.6949 0.0
C324 C 0.21215 0.82104 0.6949 0.0
C325 C 0.21634 0.84985 0.67181 0.0
H326 H 0.34578 0.88779 0.96214 0.0
H327 H 0.38312 0.81391 0.91614 0.0
H328 H 0.40793 0.81759 0.04414 0.0
H329 H 0.39863 0.92463 -0.00498 0.0
H330 H 0.38231 0.94101 0.08575 0.0
H331 H 0.36224 0.92787 0.00957 0.0
H332 H 0.33014 0.89848 0.14756 0.0
H333 H 0.3509 0.91167 0.22362 0.0
H334 H 0.34453 0.87542 0.22654 0.0
H335 H 0.4373 0.83544 0.14152 0.0
H336 H 0.47117 0.86849 0.18191 0.0
H337 H 0.41241 0.92828 0.18331 0.0
C338 C 0.35851 0.87194 -0.01903 0.0
C339 C 0.36291 0.85094 0.92819 0.0
C340 C 0.38005 0.83073 0.95389 0.0
C341 C 0.39367 0.83222 0.02815 0.0
C342 C 0.3894 0.85359 0.07775 0.0
C343 C 0.37192 0.87294 0.05578 0.0
C344 C 0.37428 0.89626 0.10934 0.0
C345 C 0.37975 0.92402 0.04612 0.0
C346 C 0.34843 0.89539 0.18102 0.0
C347 C 0.39872 0.88906 0.15411 0.0
C348 C 0.40611 0.86353 0.1395 0.0
C349 C 0.43128 0.85498 0.15644 0.0
C350 C 0.45046 0.87384 0.17958 0.0
C351 C 0.44419 0.90079 0.18512 0.0
C352 C 0.41725 0.90752 0.18145 0.0
H353 H 0.48727 0.11016 0.04768 0.0
H354 H 0.43293 0.0349 0.11407 0.0
H355 H 0.39405 0.06097 0.16065 0.0
H356 H 0.45663 0.14218 0.23413 0.0
H357 H 0.46101 0.17581 0.16841 0.0
H358 H 0.4846 0.15131 0.14021 0.0
H359 H 0.47435 0.15719 0.97532 0.0
H360 H 0.45084 0.1818 0.00276 0.0
H361 H 0.43933 0.15226 0.95634 0.0
H362 H 0.36094 0.09533 0.19827 0.0
H363 H 0.33587 0.13528 0.22313 0.0
H364 H 0.41168 0.18843 0.1337 0.0
C365 C 0.4672 0.0991 0.07191 0.0
C366 C 0.4632 0.07038 0.07694 0.0
C367 C 0.43656 0.05682 0.10935 0.0
C368 C 0.41434 0.07148 0.13613 0.0
C369 C 0.41905 0.09971 0.13053 0.0
C370 C 0.44482 0.1134 0.09925 0.0
C371 C 0.44433 0.14385 0.09959 0.0
C372 C 0.46273 0.15387 0.16446 0.0
C373 C 0.4527 0.15971 0.00274 0.0
C374 C 0.41419 0.14523 0.13541 0.0
C375 C 0.40001 0.11951 0.15286 0.0
C376 C 0.37185 0.11554 0.1848 0.0
C377 C 0.35776 0.13841 0.19834 0.0
C378 C 0.37172 0.16507 0.18012 0.0
C379 C 0.40044 0.16836 0.14916 0.0
H380 H 0.92784 0.97408 0.56087 0.0
H381 H 0.99772 0.92656 0.53907 0.0
H382 H 0.96636 0.88437 0.57487 0.0
H383 H 0.88495 0.92673 0.7508 0.0
H384 H 0.85294 0.93081 0.70969 0.0
H385 H 0.88041 0.9581 0.68165 0.0
H386 H 0.8788 0.95866 0.51094 0.0
H387 H 0.85132 0.93137 0.53851 0.0
H388 H 0.88222 0.92768 0.46265 0.0
H389 H 0.92704 0.84515 0.61414 0.0
H390 H 0.88467 0.81381 0.6527 0.0
H391 H 0.83643 0.88288 0.65372 0.0
C392 C 0.93669 0.95485 0.56342 0.0
C393 C 0.96635 0.95478 0.54595 0.0
C394 C 0.97586 0.92837 0.55121 0.0
C395 C 0.95787 0.90379 0.57189 0.0
C396 C 0.9293 0.90458 0.5885 0.0
C397 C 0.9186 0.92947 0.58466 0.0
C398 C 0.88674 0.92391 0.60617 0.0
C399 C 0.87559 0.9356 0.69218 0.0
C400 C 0.87401 0.93615 0.52473 0.0
C401 C 0.88133 0.89228 0.62245 0.0
C402 C 0.90647 0.8818 0.61157 0.0
C403 C 0.90742 0.85346 0.62259 0.0
C404 C 0.88273 0.83548 0.64491 0.0
C405 C 0.85608 0.84478 0.65731 0.0
C406 C 0.85585 0.8742 0.64538 0.0
H407 H 0.94536 0.15654 0.36101 0.0
H408 H 0.89032 0.08321 0.46731 0.0
H409 H 0.85074 0.10796 0.43586 0.0
H410 H 0.89959 0.20472 0.44715 0.0
H411 H 0.90945 0.23018 0.3475 0.0
H412 H 0.93353 0.20702 0.38129 0.0
H413 H 0.93955 0.19223 0.22163 0.0
H414 H 0.91535 0.21521 0.18762 0.0
H415 H 0.90975 0.17955 0.17865 0.0
H416 H 0.81694 0.14014 0.38947 0.0
H417 H 0.79127 0.17796 0.33493 0.0
H418 H 0.86767 0.23084 0.25738 0.0
C419 C 0.92494 0.14583 0.37876 0.0
C420 C 0.92104 0.11782 0.41649 0.0
C421 C 0.89394 0.10452 0.43754 0.0
C422 C 0.87127 0.11844 0.42015 0.0
C423 C 0.87582 0.14581 0.38141 0.0
C424 C 0.90194 0.15945 0.3612 0.0
C425 C 0.90104 0.18878 0.31791 0.0
C426 C 0.91152 0.20886 0.37701 0.0
C427 C 0.9174 0.19425 0.22069 0.0
C428 C 0.8704 0.18941 0.31726 0.0
C429 C 0.85626 0.16438 0.35417 0.0
C430 C 0.82781 0.15985 0.36057 0.0
C431 C 0.81338 0.18149 0.32913 0.0
C432 C 0.82731 0.20747 0.29154 0.0
C433 C 0.8563 0.21129 0.28545 0.0
H434 H 0.63648 0.22912 0.12286 0.0
H435 H 0.71479 0.234 0.94662 0.0
H436 H 0.6915 0.22606 0.81879 0.0
H437 H 0.60756 0.17767 0.07898 0.0
H438 H 0.57315 0.18651 0.07276 0.0
H439 H 0.59421 0.20496 0.13433 0.0
H440 H 0.58749 0.25008 0.03617 0.0
H441 H 0.5663 0.23139 0.9732 0.0
H442 H 0.59573 0.25389 0.91395 0.0
H443 H 0.6646 0.19822 0.74212 0.0
H444 H 0.63699 0.15642 0.72641 0.0
H445 H 0.57271 0.17265 0.93381 0.0
C446 C 0.6484 0.22985 0.05589 0.0
C447 C 0.67721 0.23127 0.04454 0.0
C448 C 0.69258 0.23205 0.95688 0.0
C449 C 0.67946 0.22811 0.88338 0.0
C450 C 0.65087 0.22404 0.89808 0.0
C451 C 0.63536 0.22595 -0.01838 0.0
C452 C 0.60567 0.21533 -0.01459 0.0
C453 C 0.59459 0.19488 0.07285 0.0
C454 C 0.58775 0.23909 0.97661 0.0
C455 C 0.60831 0.20201 0.90023 0.0
C456 C 0.63414 0.20879 0.84755 0.0
C457 C 0.64392 0.19374 0.77965 0.0
C458 C 0.62821 0.16995 0.77097 0.0
C459 C 0.6028 0.16203 0.82824 0.0
C460 C 0.59179 0.1793 0.88765 0.0
H461 H 0.65386 0.8668 0.85898 0.0
H462 H 0.72809 0.92143 0.7565 0.0
H463 H 0.70291 0.96066 0.78955 0.0
H464 H 0.60638 0.91228 0.77152 0.0
H465 H 0.5799 0.90236 0.86958 0.0
H466 H 0.60358 0.87853 0.83567 0.0
H467 H 0.61682 0.87229 -0.0032 0.0
H468 H 0.59333 0.89625 0.03093 0.0
H469 H 0.62898 0.90175 0.04243 0.0
H470 H 0.67005 0.99414 0.83644 0.0
H471 H 0.63139 1.01947 0.89048 0.0
H472 H 0.57823 0.94349 0.9628 0.0
C473 C 0.66472 0.88705 0.84243 0.0
C474 C 0.69307 0.89093 0.80553 0.0
C475 C 0.70652 0.91781 0.78594 0.0
C476 C 0.69236 0.94028 0.80412 0.0
C477 C 0.66462 0.93573 0.84192 0.0
C478 C 0.65086 0.90981 0.86053 0.0
C479 C 0.62107 0.91062 0.90235 0.0
C480 C 0.60158 0.90034 0.84111 0.0
C481 C 0.61469 0.89426 -0.00114 0.0
C482 C 0.62032 0.94096 0.9045 0.0
C483 C 0.64566 0.95507 0.86922 0.0
C484 C 0.65008 0.9833 0.86409 0.0
C485 C 0.62799 0.99753 0.89517 0.0
C486 C 0.60172 0.98357 0.9312 0.0
C487 C 0.59803 0.95484 0.93603 0.0
H488 H 0.58443 0.63457 0.9111 0.0
H489 H 0.63384 0.56633 0.92402 0.0
H490 H 0.67577 0.59821 0.8872 0.0
H491 H 0.63122 0.67844 0.72117 0.0
H492 H 0.62664 0.70992 0.76543 0.0
H493 H 0.59958 0.68221 0.79324 0.0
H494 H 0.59933 0.68334 0.96412 0.0
H495 H 0.62639 0.71105 0.93679 0.0
H496 H 0.63079 0.68034 0.00966 0.0
H497 H 0.71451 0.6377 0.84713 0.0
H498 H 0.74547 0.68003 0.80939 0.0
H499 H 0.6751 0.72697 0.81895 0.0
C500 C 0.60401 0.62618 0.90634 0.0
C501 C 0.60466 0.59678 0.92158 0.0
C502 C 0.63154 0.58793 0.91363 0.0
C503 C 0.65599 0.60623 0.89232 0.0
C504 C 0.65464 0.63451 0.87792 0.0
C505 C 0.6293 0.64463 0.88462 0.0
C506 C 0.63439 0.67632 0.86542 0.0
C507 C 0.62222 0.68739 0.78133 0.0
C508 C 0.62197 0.68849 0.94896 0.0
C509 C 0.66626 0.68229 0.84705 0.0
C510 C 0.67722 0.65753 0.85488 0.0
C511 C 0.70582 0.65702 0.84119 0.0
C512 C 0.72358 0.68172 0.81933 0.0
C513 C 0.71388 0.70806 0.81016 0.0
C514 C 0.68415 0.70786 0.82483 0.0
H515 H 0.69892 0.32056 0.16761 0.0
H516 H 0.77461 0.37461 0.11727 0.0
H517 H 0.74905 0.41342 0.07137 0.0
H518 H 0.66943 0.35294 0.979 0.0
H519 H 0.63482 0.34833 0.04089 0.0
H520 H 0.65896 0.32455 0.06923 0.0
H521 H 0.65044 0.33328 0.23634 0.0
H522 H 0.62621 0.357 0.20872 0.0
H523 H 0.65495 0.36766 0.26061 0.0
H524 H 0.71547 0.44656 0.03211 0.0
H525 H 0.67612 0.47213 0.00523 0.0
H526 H 0.6214 0.39726 0.08104 0.0
C527 C 0.71014 0.34056 0.14698 0.0
C528 C 0.73891 0.34444 0.14628 0.0
C529 C 0.75268 0.371 0.11859 0.0
C530 C 0.73831 0.39322 0.09219 0.0
C531 C 0.71008 0.38869 0.09347 0.0
C532 C 0.69608 0.36305 0.12023 0.0
C533 C 0.66561 0.36391 0.11627 0.0
C534 C 0.65669 0.34639 0.04723 0.0
C535 C 0.64828 0.35493 0.21113 0.0
C536 C 0.66464 0.39409 0.0837 0.0
C537 C 0.69059 0.40791 0.07081 0.0
C538 C 0.69506 0.43595 0.04224 0.0
C539 C 0.67247 0.45034 0.02756 0.0
C540 C 0.64549 0.43687 0.04157 0.0
C541 C 0.64171 0.40821 0.06898 0.0
H542 H 0.97364 0.38899 0.58705 0.0
H543 H 0.90874 0.43161 0.71103 0.0
H544 H 0.87439 0.39617 0.68757 0.0
H545 H 0.95356 0.38313 0.4159 0.0
H546 H 0.96001 0.34931 0.39389 0.0
H547 H 0.97943 0.36547 0.46582 0.0
H548 H 0.96441 0.32567 0.59804 0.0
H549 H 0.94566 0.30844 0.52486 0.0
H550 H 0.92848 0.31416 0.63408 0.0
H551 H 0.84994 0.37407 0.58859 0.0
H552 H 0.83572 0.35886 0.45321 0.0
H553 H 0.91601 0.33136 0.38054 0.0
C554 C 0.95229 0.38947 0.61561 0.0
C555 C 0.94357 0.41288 0.64945 0.0
C556 C 0.91562 0.41368 0.68468 0.0
C557 C 0.89599 0.39357 0.67142 0.0
C558 C 0.90486 0.37289 0.62366 0.0
C559 C 0.93255 0.36985 0.59983 0.0
C560 C 0.93691 0.35065 0.53006 0.0
C561 C 0.9587 0.36294 0.44658 0.0
C562 C 0.94429 0.32309 0.57443 0.0
C563 C 0.90842 0.34775 0.50601 0.0
C564 C 0.88998 0.35947 0.56394 0.0
C565 C 0.86382 0.36375 0.5454 0.0
C566 C 0.85621 0.35573 0.46665 0.0
C567 C 0.87495 0.34416 0.4056 0.0
C568 C 0.90109 0.33955 0.42703 0.0
H569 H 0.91338 0.69579 0.60346 0.0
H570 H 0.84042 0.63864 0.69555 0.0
H571 H 0.867 0.60092 0.65627 0.0
H572 H 0.94048 0.66435 0.41352 0.0
H573 H 0.97588 0.67022 0.42738 0.0
H574 H 0.95155 0.69303 0.46496 0.0
H575 H 0.96406 0.68473 0.62685 0.0
H576 H 0.98859 0.66205 0.58956 0.0
H577 H 0.96186 0.65034 0.68572 0.0
H578 H 0.90063 0.56946 0.6044 0.0
H579 H 0.93991 0.54563 0.54768 0.0
H580 H 0.99205 0.62237 0.48881 0.0
C581 C 0.90312 0.67529 0.61637 0.0
C582 C 0.87468 0.67027 0.65206 0.0
C583 C 0.86201 0.64313 0.66702 0.0
C584 C 0.87697 0.62151 0.64528 0.0
C585 C 0.90473 0.62719 0.60871 0.0
C586 C 0.91781 0.65333 0.59475 0.0
C587 C 0.94787 0.65366 0.55352 0.0
C588 C 0.95431 0.67137 0.45924 0.0
C589 C 0.96671 0.66326 0.61776 0.0
C590 C 0.94952 0.62366 0.54623 0.0
C591 C 0.92433 0.60884 0.5786 0.0
C592 C 0.92048 0.58082 0.57907 0.0
C593 C 0.94298 0.56746 0.54645 0.0
C594 C 0.96917 0.58204 0.51348 0.0
C595 C 0.97233 0.61061 0.5131 0.0
H596 H 0.33684 0.38237 0.15538 0.0
H597 H 0.38552 0.31361 0.15794 0.0
H598 H 0.42776 0.3452 0.12133 0.0
H599 H 0.38309 0.42714 0.96601 0.0
H600 H 0.37902 0.45815 0.0136 0.0
H601 H 0.35182 0.43059 0.04052 0.0
H602 H 0.3525 0.43023 0.21163 0.0
H603 H 0.37971 0.4578 0.1852 0.0
H604 H 0.38425 0.42653 0.25489 0.0
H605 H 0.46701 0.3848 0.0836 0.0
H606 H 0.49813 0.42714 0.04885 0.0
H607 H 0.42788 0.4742 0.06604 0.0
C608 C 0.35633 0.37379 0.14826 0.0
C609 C 0.35667 0.34434 0.16062 0.0
C610 C 0.38345 0.33526 0.14978 0.0
C611 C 0.40807 0.3534 0.12858 0.0
C612 C 0.407 0.38175 0.11709 0.0
C613 C 0.38175 0.39205 0.12645 0.0
C614 C 0.38703 0.42374 0.10995 0.0
C615 C 0.37448 0.43562 0.02764 0.0
C616 C 0.37515 0.43526 0.1955 0.0
C617 C 0.41891 0.42954 0.09009 0.0
C618 C 0.42976 0.40471 0.09492 0.0
C619 C 0.45838 0.40415 0.07987 0.0
C620 C 0.47625 0.42885 0.05976 0.0
C621 C 0.46662 0.45523 0.0535 0.0
C622 C 0.43689 0.45506 0.06939 0.0
H623 H 0.40053 0.61343 0.92422 0.0
H624 H 0.47549 0.66784 0.89075 0.0
H625 H 0.45013 0.70697 0.84761 0.0
H626 H 0.37338 0.64808 0.73446 0.0
H627 H 0.33824 0.64266 0.79176 0.0
H628 H 0.36219 0.61873 0.82047 0.0
H629 H 0.3512 0.62525 -0.01044 0.0
H630 H 0.32722 0.64919 0.96133 0.0
H631 H 0.35487 0.65907 0.01919 0.0
H632 H 0.41675 0.74054 0.80613 0.0
H633 H 0.37762 0.7659 0.77279 0.0
H634 H 0.32397 0.69018 0.83322 0.0
C635 C 0.41166 0.63355 0.90739 0.0
C636 C 0.4401 0.63741 0.91173 0.0
C637 C 0.45369 0.66423 0.88974 0.0
C638 C 0.43947 0.68665 0.86443 0.0
C639 C 0.41152 0.68215 0.86125 0.0
C640 C 0.39771 0.65628 0.88231 0.0
C641 C 0.36754 0.65717 0.87423 0.0
C642 C 0.35989 0.64068 0.80086 0.0
C643 C 0.34912 0.64707 0.96658 0.0
C644 C 0.3666 0.68752 0.84522 0.0
C645 C 0.39224 0.70154 0.83788 0.0
C646 C 0.39659 0.72974 0.81171 0.0
C647 C 0.37419 0.744 0.79272 0.0
C648 C 0.34763 0.73015 0.8002 0.0
C649 C 0.34395 0.70146 0.8269 0.0
H650 H 0.19407 0.71907 0.51756 0.0
H651 H 0.24116 0.64919 0.54349 0.0
H652 H 0.23159 0.63908 0.39658 0.0
H653 H 0.14069 0.68582 0.47445 0.0
H654 H 0.13009 0.7118 0.39468 0.0
H655 H 0.15066 0.72143 0.47494 0.0
H656 H 0.18689 0.74795 0.34196 0.0
H657 H 0.16582 0.73785 0.26193 0.0
H658 H 0.20114 0.73066 0.25086 0.0
H659 H 0.20848 0.62839 0.27634 0.0
H660 H 0.16602 0.60972 0.23539 0.0
H661 H 0.12798 0.68248 0.28874 0.0
C662 C 0.20257 0.7017 0.49231 0.0
C663 C 0.21841 0.68502 0.54304 0.0
C664 C 0.22947 0.66282 0.50595 0.0
C665 C 0.22436 0.65706 0.42139 0.0
C666 C 0.20776 0.6733 0.37469 0.0
C667 C 0.19665 0.695 0.40983 0.0
C668 C 0.17346 0.70429 0.36208 0.0
C669 C 0.1472 0.70584 0.43063 0.0
C670 C 0.18237 0.73182 0.30056 0.0
C671 C 0.17037 0.68164 0.30555 0.0
C672 C 0.1921 0.66566 0.30685 0.0
C673 C 0.19166 0.64095 0.27339 0.0
C674 C 0.16726 0.63047 0.24966 0.0
C675 C 0.14353 0.64452 0.26153 0.0
C676 C 0.14599 0.67151 0.28001 0.0
H677 H 0.15323 0.36765 0.33499 0.0
H678 H 0.22862 0.42094 0.23742 0.0
H679 H 0.20342 0.46096 0.25872 0.0
H680 H 0.10781 0.41238 0.23108 0.0
H681 H 0.08004 0.40394 0.32587 0.0
H682 H 0.10381 0.37934 0.30064 0.0
H683 H 0.11445 0.37534 0.465 0.0
H684 H 0.09083 0.40002 0.49051 0.0
H685 H 0.12596 0.4056 0.5076 0.0
H686 H 0.1705 0.49538 0.29322 0.0
H687 H 0.1318 0.52186 0.33688 0.0
H688 H 0.07731 0.44679 0.41272 0.0
C689 C 0.16435 0.38776 0.31712 0.0
C690 C 0.19302 0.39105 0.28495 0.0
C691 C 0.2068 0.41778 0.26336 0.0
C692 C 0.19262 0.4407 0.27482 0.0
C693 C 0.16454 0.43675 0.30793 0.0
C694 C 0.15048 0.41099 0.32857 0.0
C695 C 0.12034 0.41254 0.36471 0.0
C696 C 0.10191 0.40139 0.30181 0.0
C697 C 0.11244 0.39748 0.46278 0.0
C698 C 0.11977 0.44313 0.36136 0.0
C699 C 0.1455 0.45669 0.32819 0.0
C700 C 0.15023 0.48499 0.31914 0.0
C701 C 0.12809 0.49987 0.34432 0.0
C702 C 0.10144 0.48651 0.37844 0.0
C703 C 0.09738 0.45769 0.38699 0.0
H704 H 1.01539 0.06255 0.78691 0.0
H705 H 0.03411 0.98015 0.75621 0.0
H706 H 0.03511 0.96974 0.91915 0.0
H707 H 0.05916 0.07324 0.93951 0.0
H708 H 0.03711 0.0916 0.01083 0.0
H709 H 0.03364 0.09228 0.89324 0.0
H710 H 0.98217 0.07427 0.94007 0.0
H711 H 0.98535 0.07393 0.058 0.0
H712 H 0.97243 0.04335 0.0202 0.0
H713 H 0.04149 0.96971 0.07435 0.0
H714 H 0.0471 0.97846 0.22761 0.0
H715 H 1.02246 0.05994 0.16605 0.0
C716 C 1.01895 0.04221 0.81546 0.0
C717 C 1.025 1.02228 0.75956 0.0
C718 C 1.02987 0.99585 0.79815 0.0
C719 C 1.03031 0.98962 0.8906 0.0
C720 C 1.02553 1.00993 0.94358 0.0
C721 C 1.01945 0.03553 0.90858 0.0
C722 C 1.01691 0.05388 -0.01892 0.0
C723 C 0.03796 0.07924 0.95454 0.0
C724 C 0.98746 0.06182 0.00103 0.0
C725 C 1.02368 0.03481 0.06029 0.0
C726 C 1.02848 1.00959 0.03664 0.0
C727 C 0.03721 0.98913 0.09494 0.0
C728 C 0.04066 0.9944 0.18117 0.0
C729 C 0.03513 1.0198 0.20785 0.0
C730 C 1.02651 0.04027 0.14696 0.0
H731 H 0.30577 0.81142 0.40226 0.0
H732 H 0.27899 0.72658 0.51374 0.0
H733 H 0.26759 0.71818 0.36734 0.0
H734 H 0.25722 0.82256 0.25954 0.0
H735 H 0.28 0.84168 0.16266 0.0
H736 H 0.28804 0.84189 0.27535 0.0
H737 H 0.33538 0.82481 0.22643 0.0
H738 H 0.32754 0.82536 0.11307 0.0
H739 H 0.337 0.79458 0.17313 0.0
H740 H 0.25323 0.71954 0.21976 0.0
H741 H 0.24645 0.7277 0.06052 0.0
H742 H 0.2868 0.80996 0.03132 0.0
C743 C 0.29829 0.79097 0.39486 0.0
C744 C 0.2927 0.76985 0.47047 0.0
C745 C 0.2829 0.7433 0.45783 0.0
C746 C 0.27631 0.73822 0.3747 0.0
C747 C 0.28053 0.75964 0.30319 0.0
C748 C 0.29227 0.7852 0.31051 0.0
C749 C 0.29516 0.80407 0.22031 0.0
C750 C 0.27914 0.82902 0.23013 0.0
C751 C 0.32559 0.81271 0.18097 0.0
C752 C 0.28221 0.78526 0.16346 0.0
C753 C 0.27371 0.75987 0.21365 0.0
C754 C 0.26024 0.73917 0.17872 0.0
C755 C 0.25623 0.74413 0.08835 0.0
C756 C 0.26617 0.76942 0.03325 0.0
C757 C 0.27898 0.79042 0.07184 0.0
H758 H 0.52832 0.06273 0.68456 0.0
H759 H 0.51612 0.97501 0.76796 0.0
H760 H 0.52639 0.9683 0.60771 0.0
H761 H 0.49585 0.06159 0.481 0.0
H762 H 0.519 0.08948 0.41519 0.0
H763 H 0.51086 0.0874 0.5369 0.0
H764 H 0.56281 0.08971 0.546 0.0
H765 H 0.57106 0.09106 0.42448 0.0
H766 H 0.5831 0.06486 0.49944 0.0
H767 H 0.54123 0.97057 0.44386 0.0
H768 H 0.54863 0.98095 0.27736 0.0
H769 H 0.54778 0.06733 0.29274 0.0
C770 C 0.52737 0.04215 0.66864 0.0
C771 C 0.52143 1.01935 0.73851 0.0
C772 C 0.52033 0.99273 0.7155 0.0
C773 C 0.52651 0.98871 0.6248 0.0
C774 C 0.53324 1.01154 0.55791 0.0
C775 C 0.53284 0.03774 0.5779 0.0
C776 C 0.53924 0.05854 0.49155 0.0
C777 C 0.51478 0.07523 0.4805 0.0
C778 C 0.56562 0.07714 0.49035 0.0
C779 C 0.5434 0.03981 0.42009 0.0
C780 C 0.54046 1.01285 0.4609 0.0
C781 C 0.54328 0.99153 0.41091 0.0
C782 C 0.54765 0.9977 0.31635 0.0
C783 C 0.54868 1.02492 0.27231 0.0
C784 C 0.54749 0.04642 0.32466 0.0
H785 H 0.29242 0.24524 0.93951 0.0
H786 H 0.26967 0.32741 0.95052 0.0
H787 H 0.27549 0.33618 0.78371 0.0
H788 H 0.34276 0.26084 0.72917 0.0
H789 H 0.33233 0.23007 0.68743 0.0
H790 H 0.32905 0.23054 0.80819 0.0
H791 H 0.27719 0.21409 0.82848 0.0
H792 H 0.28037 0.21331 0.70814 0.0
H793 H 0.25551 0.23303 0.76242 0.0
H794 H 0.28201 0.33623 0.62217 0.0
H795 H 0.28298 0.32596 0.46756 0.0
H796 H 0.29977 0.24293 0.55535 0.0
C797 C 0.28884 0.26507 0.90631 0.0
C798 C 0.28069 0.28572 0.95694 0.0
C799 C 0.27575 0.31132 0.91237 0.0
C800 C 0.27934 0.31661 0.81789 0.0
C801 C 0.28762 0.29598 0.76972 0.0
C802 C 0.29189 0.27058 0.81175 0.0
C803 C 0.29816 0.25138 0.74321 0.0
C804 C 0.32732 0.2427 0.74194 0.0
C805 C 0.27651 0.22649 0.76167 0.0
C806 C 0.29602 0.26991 0.65648 0.0
C807 C 0.29056 0.29567 0.67403 0.0
C808 C 0.28635 0.31622 0.60709 0.0
C809 C 0.28678 0.31008 0.51977 0.0
C810 C 0.29111 0.28355 0.50054 0.0
C811 C 0.29661 0.26337 0.5688 0.0
H812 H 0.81992 0.30181 0.87312 0.0
H813 H 0.76726 0.22736 -0.01093 0.0
H814 H 0.7565 0.22209 0.83877 0.0
H815 H 0.78152 0.32798 0.71981 0.0
H816 H 0.80769 0.33927 0.62222 0.0
H817 H 0.81629 0.3373 0.73497 0.0
H818 H 0.85348 0.3063 0.69905 0.0
H819 H 0.84691 0.30595 0.58449 0.0
H820 H 0.84536 0.27447 0.65986 0.0
H821 H 0.74406 0.2291 0.68769 0.0
H822 H 0.74034 0.24074 0.52668 0.0
H823 H 0.80451 0.30771 0.4972 0.0
C824 C 0.80681 0.28403 0.86615 0.0
C825 C 0.79395 0.26535 0.94319 0.0
C826 C 0.77691 0.24228 0.93144 0.0
C827 C 0.7706 0.23905 0.8463 0.0
C828 C 0.78203 0.25865 0.77289 0.0
C829 C 0.80063 0.28007 0.78045 0.0
C830 C 0.81004 0.29775 0.68862 0.0
C831 C 0.80353 0.32733 0.69167 0.0
C832 C 0.84077 0.29607 0.65617 0.0
C833 C 0.79249 0.28378 0.63055 0.0
C834 C 0.77641 0.26139 0.6814 0.0
C835 C 0.75707 0.24613 0.64606 0.0
C836 C 0.75488 0.25318 0.55466 0.0
C837 C 0.77223 0.27507 0.4991 0.0
C838 C 0.79106 0.29082 0.53797 0.0
H839 H 0.78953 0.74557 0.44175 0.0
H840 H 0.76867 0.82846 0.4496 0.0
H841 H 0.77526 0.83695 0.28246 0.0
H842 H 0.84077 0.75956 0.23565 0.0
H843 H 0.82997 0.72904 0.19314 0.0
H844 H 0.82574 0.72954 0.31403 0.0
H845 H 0.77368 0.71464 0.32955 0.0
H846 H 0.77782 0.71371 0.20911 0.0
H847 H 0.75322 0.73422 0.26047 0.0
H848 H 0.78356 0.83697 0.12034 0.0
H849 H 0.78575 0.82672 0.96523 0.0
H850 H 0.79901 0.74286 0.05688 0.0
C851 C 0.78641 0.76546 0.40783 0.0
C852 C 0.77871 0.78644 0.45765 0.0
C853 C 0.77441 0.81213 0.41209 0.0
C854 C 0.77844 0.81725 0.31745 0.0
C855 C 0.78645 0.79634 0.27012 0.0
C856 C 0.78986 0.77079 0.31314 0.0
C857 C 0.79615 0.75138 0.24528 0.0
C858 C 0.82487 0.74182 0.24716 0.0
C859 C 0.77388 0.72706 0.2621 0.0
C860 C 0.79522 0.77001 0.15759 0.0
C861 C 0.79024 0.79598 0.17424 0.0
C862 C 0.78742 0.81678 0.10605 0.0
C863 C 0.78859 0.81067 0.0184 0.0
C864 C 0.79219 0.78391 4e-05 0.0
C865 C 0.79644 0.76347 0.06962 0.0
H866 H 0.52185 0.5606 0.67475 0.0
H867 H 0.54711 0.47939 0.73692 0.0
H868 H 0.54195 0.47055 0.58351 0.0
H869 H 0.47232 0.54347 0.52709 0.0
H870 H 0.482 0.57455 0.44779 0.0
H871 H 0.48478 0.57402 0.56611 0.0
H872 H 0.53627 0.59219 0.52126 0.0
H873 H 0.5336 0.59297 0.40301 0.0
H874 H 0.55896 0.57412 0.45092 0.0
H875 H 0.53641 0.47058 0.42778 0.0
H876 H 0.53582 0.48097 0.26455 0.0
H877 H 0.51562 0.56296 0.29521 0.0
C878 C 0.52606 0.54094 0.65581 0.0
C879 C 0.53481 0.52062 0.71685 0.0
C880 C 0.54057 0.49524 0.69037 0.0
C881 C 0.53738 0.48991 0.60405 0.0
C882 C 0.52861 0.51025 0.54548 0.0
C883 C 0.52339 0.53539 0.56911 0.0
C884 C 0.51678 0.55439 0.48942 0.0
C885 C 0.4872 0.56205 0.50879 0.0
C886 C 0.53766 0.57992 0.4647 0.0
C887 C 0.5199 0.5361 0.41689 0.0
C888 C 0.52612 0.51059 0.4521 0.0
C889 C 0.53143 0.49038 0.3991 0.0
C890 C 0.53122 0.4966 0.30651 0.0
C891 C 0.52598 0.52288 0.26792 0.0
C892 C 0.51947 0.54271 0.32377 0.0
H893 H 0.05247 0.57483 0.7295 0.0
H894 H 0.04952 0.48805 0.7172 0.0
H895 H 0.04146 0.47812 0.88376 0.0
H896 H 0.08738 0.5707 0.93747 0.0
H897 H 0.06851 0.59679 -0.01798 0.0
H898 H 0.07682 0.5975 0.86079 0.0
H899 H 1.02524 0.59855 0.84918 0.0
H900 H 1.01666 0.59705 0.97058 0.0
H901 H 1.00065 0.5718 0.91488 0.0
H902 H 1.02624 0.47665 0.04707 0.0
H903 H 1.01612 0.48394 0.20668 0.0
H904 H 0.03257 0.5714 0.12094 0.0
C905 C 0.05122 0.55388 0.76215 0.0
C906 C 0.05147 0.53219 0.71056 0.0
C907 C 0.04923 0.50495 0.75553 0.0
C908 C 0.04449 0.49905 0.85016 0.0
C909 C 0.0426 0.52062 0.89933 0.0
C910 C 0.04686 0.54752 0.85771 0.0
C911 C 0.04348 0.56655 0.92851 0.0
C912 C 0.07067 0.58391 0.92712 0.0
C913 C 1.02012 0.58455 0.91492 0.0
C914 C 0.03598 0.54603 0.01527 0.0
C915 C 0.0352 0.5197 -0.00386 0.0
C916 C 1.0273 0.49715 0.06351 0.0
C917 C 1.02122 0.50152 0.15387 0.0
C918 C 1.02357 0.5282 0.17615 0.0
C919 C 1.03063 0.55078 0.1057 0.0
loop_
_geom_bond_atom_site_label_1
_geom_bond_atom_site_label_2
_geom_bond_distance
_geom_bond_site_symmetry_2
_ccdc_geom_bond_type
C0 O16 1.251 1_645 S
C0 O18 1.254 . S
N1 C2 1.333 . S
N1 C6 1.307 . S
N1 Zn7 2.020 . S
C2 N1 1.333 . S
C2 C3 1.379 . S
C2 H20 0.952 . S
C3 C2 1.379 . S
C3 C4 1.390 . S
C3 H30 0.949 . S
C4 C3 1.390 . S
C4 C5 1.357 . S
C5 C4 1.357 . S
C5 C6 1.370 . S
C5 H31 0.950 . S
C6 N1 1.307 . S
C6 C5 1.370 . S
C6 H24 0.948 . S
Zn7 N1 2.020 . S
Zn7 O16 2.039 . S
Zn7 O22 2.034 1_565 S
Zn7 O26 2.025 . S
Zn7 O28 2.024 1_455 S
C8 O27 1.246 . S
C8 O28 1.249 . S
N9 C10 1.307 . S
N9 C11 1.333 . S
N9 Zn15 2.020 . S
C10 N9 1.307 . S
C10 C14 1.370 . S
C10 H21 0.948 . S
C11 N9 1.333 . S
C11 C12 1.379 . S
C11 H19 0.952 . S
C12 C11 1.379 . S
C12 C13 1.390 . S
C12 H32 0.949 . S
C13 C12 1.390 . S
C13 C14 1.357 . S
C14 C10 1.370 . S
C14 C13 1.357 . S
C14 H33 0.950 . S
Zn15 N9 2.020 . S
Zn15 O18 2.025 . S
Zn15 O23 2.024 1_655 S
Zn15 O25 2.039 . S
Zn15 O27 2.034 1_545 S
O16 C0 1.251 1_465 S
O16 Zn7 2.039 . S
C17 O22 1.246 . S
C17 O23 1.249 . S
O18 C0 1.254 . S
O18 Zn15 2.025 . S
H19 C11 0.952 . S
H20 C2 0.952 . S
H21 C10 0.948 . S
O22 Zn7 2.034 1_545 S
O22 C17 1.246 . S
O23 Zn15 2.024 1_455 S
O23 C17 1.249 . S
H24 C6 0.948 . S
O25 Zn15 2.039 . S
O25 C29 1.251 1_645 S
O26 Zn7 2.025 . S
O26 C29 1.254 . S
O27 C8 1.246 . S
O27 Zn15 2.034 1_565 S
O28 Zn7 2.024 1_655 S
O28 C8 1.249 . S
C29 O25 1.251 1_465 S
C29 O26 1.254 . S
H30 C3 0.949 . S
H31 C5 0.950 . S
H32 C12 0.949 . S
H33 C14 0.950 . S
C34 O50 1.251 . S
C34 O52 1.254 . S
N35 C36 1.333 . S
N35 C40 1.307 . S
N35 Zn41 2.020 . S
C36 N35 1.333 . S
C36 C37 1.379 . S
C36 H54 0.952 . S
C37 C36 1.379 . S
C37 C38 1.390 . S
C37 H64 0.949 . S
C38 C37 1.390 . S
C38 C39 1.357 . S
C39 C38 1.357 . S
C39 C40 1.370 . S
C39 H65 0.950 . S
C40 N35 1.307 . S
C40 C39 1.370 . S
C40 H58 0.948 . S
Zn41 N35 2.020 . S
Zn41 O50 2.039 . S
Zn41 O56 2.034 . S
Zn41 O60 2.025 . S
Zn41 O62 2.024 . S
C42 O61 1.246 . S
C42 O62 1.249 . S
N43 C44 1.307 . S
N43 C45 1.333 . S
N43 Zn49 2.020 . S
C44 N43 1.307 . S
C44 C48 1.370 . S
C44 H55 0.948 . S
C45 N43 1.333 . S
C45 C46 1.379 . S
C45 H53 0.952 . S
C46 C45 1.379 . S
C46 C47 1.390 . S
C46 H66 0.949 . S
C47 C46 1.390 . S
C47 C48 1.357 . S
C48 C44 1.370 . S
C48 C47 1.357 . S
C48 H67 0.950 . S
Zn49 N43 2.020 . S
Zn49 O52 2.025 . S
Zn49 O57 2.024 . S
Zn49 O59 2.039 . S
Zn49 O61 2.034 . S
O50 C34 1.251 . S
O50 Zn41 2.039 . S
C51 O56 1.246 . S
C51 O57 1.249 . S
O52 C34 1.254 . S
O52 Zn49 2.025 . S
H53 C45 0.952 . S
H54 C36 0.952 . S
H55 C44 0.948 . S
O56 Zn41 2.034 . S
O56 C51 1.246 . S
O57 Zn49 2.024 . S
O57 C51 1.249 . S
H58 C40 0.948 . S
O59 Zn49 2.039 . S
O59 C63 1.251 . S
O60 Zn41 2.025 . S
O60 C63 1.254 . S
O61 C42 1.246 . S
O61 Zn49 2.034 . S
O62 Zn41 2.024 . S
O62 C42 1.249 . S
C63 O59 1.251 . S
C63 O60 1.254 . S
H64 C37 0.949 . S
H65 C39 0.950 . S
H66 C46 0.949 . S
H67 C48 0.950 . S
C68 O84 1.251 1_545 S
C68 O86 1.254 . S
N69 C70 1.333 1_554 S
N69 C74 1.307 . S
N69 Zn75 2.020 . S
C70 N69 1.333 1_556 S
C70 C71 1.379 . S
C70 H88 0.952 . S
C71 C70 1.379 . S
C71 C72 1.390 . S
C71 H98 0.949 . S
C72 C71 1.390 . S
C72 C73 1.357 1_556 S
C73 C72 1.357 1_554 S
C73 C74 1.370 . S
C73 H99 0.950 . S
C74 N69 1.307 . S
C74 C73 1.370 . S
C74 H92 0.948 . S
Zn75 N69 2.020 . S
Zn75 O84 2.039 1_554 S
Zn75 O90 2.034 1_565 S
Zn75 O94 2.025 . S
Zn75 O96 2.024 1_554 S
C76 O95 1.246 . S
C76 O96 1.249 . S
N77 C78 1.307 . S
N77 C79 1.333 1_556 S
N77 Zn83 2.020 . S
C78 N77 1.307 . S
C78 C82 1.370 . S
C78 H89 0.948 . S
C79 N77 1.333 1_554 S
C79 C80 1.379 . S
C79 H87 0.952 . S
C80 C79 1.379 . S
C80 C81 1.390 . S
C80 H100 0.949 . S
C81 C80 1.390 . S
C81 C82 1.357 1_554 S
C82 C78 1.370 . S
C82 C81 1.357 1_556 S
C82 H101 0.950 . S
Zn83 N77 2.020 . S
Zn83 O86 2.025 . S
Zn83 O91 2.024 1_556 S
Zn83 O93 2.039 1_556 S
Zn83 O95 2.034 1_545 S
O84 C68 1.251 1_565 S
O84 Zn75 2.039 1_556 S
C85 O90 1.246 . S
C85 O91 1.249 . S
O86 C68 1.254 . S
O86 Zn83 2.025 . S
H87 C79 0.952 . S
H88 C70 0.952 . S
H89 C78 0.948 . S
O90 Zn75 2.034 1_545 S
O90 C85 1.246 . S
O91 Zn83 2.024 1_554 S
O91 C85 1.249 . S
H92 C74 0.948 . S
O93 Zn83 2.039 1_554 S
O93 C97 1.251 1_545 S
O94 Zn75 2.025 . S
O94 C97 1.254 . S
O95 C76 1.246 . S
O95 Zn83 2.034 1_565 S
O96 Zn75 2.024 1_556 S
O96 C76 1.249 . S
C97 O93 1.251 1_565 S
C97 O94 1.254 . S
H98 C71 0.949 . S
H99 C73 0.950 . S
H100 C80 0.949 . S
H101 C82 0.950 . S
C102 O118 1.251 . S
C102 O120 1.254 . S
N103 C104 1.333 . S
N103 C108 1.307 . S
N103 Zn109 2.020 . S
C104 N103 1.333 . S
C104 C105 1.379 . S
C104 H122 0.952 . S
C105 C104 1.379 . S
C105 C106 1.390 . S
C105 H132 0.949 . S
C106 C105 1.390 . S
C106 C107 1.357 . S
C107 C106 1.357 . S
C107 C108 1.370 . S
C107 H133 0.950 . S
C108 N103 1.307 . S
C108 C107 1.370 . S
C108 H126 0.948 . S
Zn109 N103 2.020 . S
Zn109 O118 2.039 . S
Zn109 O124 2.034 . S
Zn109 O128 2.025 . S
Zn109 O130 2.024 . S
C110 O129 1.246 . S
C110 O130 1.249 . S
N111 C112 1.307 . S
N111 C113 1.333 . S
N111 Zn117 2.020 . S
C112 N111 1.307 . S
C112 C116 1.370 . S
C112 H123 0.948 . S
C113 N111 1.333 . S
C113 C114 1.379 . S
C113 H121 0.952 . S
C114 C113 1.379 . S
C114 C115 1.390 . S
C114 H134 0.949 . S
C115 C114 1.390 . S
C115 C116 1.357 . S
C116 C112 1.370 . S
C116 C115 1.357 . S
C116 H135 0.950 . S
Zn117 N111 2.020 . S
Zn117 O120 2.025 . S
Zn117 O125 2.024 . S
Zn117 O127 2.039 . S
Zn117 O129 2.034 . S
O118 C102 1.251 . S
O118 Zn109 2.039 . S
C119 O124 1.246 . S
C119 O125 1.249 . S
O120 C102 1.254 . S
O120 Zn117 2.025 . S
H121 C113 0.952 . S
H122 C104 0.952 . S
H123 C112 0.948 . S
O124 Zn109 2.034 . S
O124 C119 1.246 . S
O125 Zn117 2.024 . S
O125 C119 1.249 . S
H126 C108 0.948 . S
O127 Zn117 2.039 . S
O127 C131 1.251 . S
O128 Zn109 2.025 . S
O128 C131 1.254 . S
O129 C110 1.246 . S
O129 Zn117 2.034 . S
O130 Zn109 2.024 . S
O130 C110 1.249 . S
C131 O127 1.251 . S
C131 O128 1.254 . S
H132 C105 0.949 . S
H133 C107 0.950 . S
H134 C114 0.949 . S
H135 C116 0.950 . S
C136 O152 1.251 . S
C136 O154 1.254 . S
N137 C138 1.333 . S
N137 C142 1.307 . S
N137 Zn143 2.020 . S
C138 N137 1.333 . S
C138 C139 1.379 . S
C138 H156 0.952 . S
C139 C138 1.379 . S
C139 C140 1.390 . S
C139 H166 0.949 . S
C140 C139 1.390 . S
C140 C141 1.357 . S
C141 C140 1.357 . S
C141 C142 1.370 . S
C141 H167 0.950 . S
C142 N137 1.307 . S
C142 C141 1.370 . S
C142 H160 0.948 . S
Zn143 N137 2.020 . S
Zn143 O152 2.039 . S
Zn143 O158 2.034 . S
Zn143 O162 2.025 . S
Zn143 O164 2.024 . S
C144 O163 1.246 . S
C144 O164 1.249 . S
N145 C146 1.307 . S
N145 C147 1.333 . S
N145 Zn151 2.020 . S
C146 N145 1.307 . S
C146 C150 1.370 . S
C146 H157 0.948 . S
C147 N145 1.333 . S
C147 C148 1.379 . S
C147 H155 0.952 . S
C148 C147 1.379 . S
C148 C149 1.390 . S
C148 H168 0.949 . S
C149 C148 1.390 . S
C149 C150 1.357 . S
C150 C146 1.370 . S
C150 C149 1.357 . S
C150 H169 0.950 . S
Zn151 N145 2.020 . S
Zn151 O154 2.025 . S
Zn151 O159 2.024 . S
Zn151 O161 2.039 . S
Zn151 O163 2.034 . S
O152 C136 1.251 . S
O152 Zn143 2.039 . S
C153 O158 1.246 . S
C153 O159 1.249 . S
O154 C136 1.254 . S
O154 Zn151 2.025 . S
H155 C147 0.952 . S
H156 C138 0.952 . S
H157 C146 0.948 . S
O158 Zn143 2.034 . S
O158 C153 1.246 . S
O159 Zn151 2.024 . S
O159 C153 1.249 . S
H160 C142 0.948 . S
O161 Zn151 2.039 . S
O161 C165 1.251 . S
O162 Zn143 2.025 . S
O162 C165 1.254 . S
O163 C144 1.246 . S
O163 Zn151 2.034 . S
O164 Zn143 2.024 . S
O164 C144 1.249 . S
C165 O161 1.251 . S
C165 O162 1.254 . S
H166 C139 0.949 . S
H167 C141 0.950 . S
H168 C148 0.949 . S
H169 C150 0.950 . S
C170 O186 1.251 . S
C170 O188 1.254 . S
N171 C172 1.333 . S
N171 C176 1.307 . S
N171 Zn177 2.020 . S
C172 N171 1.333 . S
C172 C173 1.379 . S
C172 H190 0.952 . S
C173 C172 1.379 . S
C173 C174 1.390 . S
C173 H200 0.949 . S
C174 C173 1.390 . S
C174 C175 1.357 . S
C175 C174 1.357 . S
C175 C176 1.370 . S
C175 H201 0.950 . S
C176 N171 1.307 . S
C176 C175 1.370 . S
C176 H194 0.948 . S
Zn177 N171 2.020 . S
Zn177 O186 2.039 . S
Zn177 O192 2.034 . S
Zn177 O196 2.025 . S
Zn177 O198 2.024 . S
C178 O197 1.246 . S
C178 O198 1.249 . S
N179 C180 1.307 . S
N179 C181 1.333 . S
N179 Zn185 2.020 . S
C180 N179 1.307 . S
C180 C184 1.370 . S
C180 H191 0.948 . S
C181 N179 1.333 . S
C181 C182 1.379 . S
C181 H189 0.952 . S
C182 C181 1.379 . S
C182 C183 1.390 . S
C182 H202 0.949 . S
C183 C182 1.390 . S
C183 C184 1.357 . S
C184 C180 1.370 . S
C184 C183 1.357 . S
C184 H203 0.950 . S
Zn185 N179 2.020 . S
Zn185 O188 2.025 . S
Zn185 O193 2.024 . S
Zn185 O195 2.039 . S
Zn185 O197 2.034 . S
O186 C170 1.251 . S
O186 Zn177 2.039 . S
C187 O192 1.246 . S
C187 O193 1.249 . S
O188 C170 1.254 . S
O188 Zn185 2.025 . S
H189 C181 0.952 . S
H190 C172 0.952 . S
H191 C180 0.948 . S
O192 Zn177 2.034 . S
O192 C187 1.246 . S
O193 Zn185 2.024 . S
O193 C187 1.249 . S
H194 C176 0.948 . S
O195 Zn185 2.039 . S
O195 C199 1.251 . S
O196 Zn177 2.025 . S
O196 C199 1.254 . S
O197 C178 1.246 . S
O197 Zn185 2.034 . S
O198 Zn177 2.024 . S
O198 C178 1.249 . S
C199 O195 1.251 . S
C199 O196 1.254 . S
H200 C173 0.949 . S
H201 C175 0.950 . S
H202 C182 0.949 . S
H203 C184 0.950 . S
C204 O220 1.251 . S
C204 O222 1.254 . S
N205 C206 1.333 . S
N205 C210 1.307 1_554 S
N205 Zn211 2.020 . S
C206 N205 1.333 . S
C206 C207 1.379 . S
C206 H224 0.952 . S
C207 C206 1.379 . S
C207 C208 1.390 . S
C207 H234 0.949 . S
C208 C207 1.390 . S
C208 C209 1.357 1_554 S
C209 C208 1.357 1_556 S
C209 C210 1.370 . S
C209 H235 0.950 . S
C210 N205 1.307 1_556 S
C210 C209 1.370 . S
C210 H228 0.948 . S
Zn211 N205 2.020 . S
Zn211 O220 2.039 . S
Zn211 O226 2.034 1_554 S
Zn211 O230 2.025 1_554 S
Zn211 O232 2.024 . S
C212 O231 1.246 . S
C212 O232 1.249 . S
N213 C214 1.307 1_556 S
N213 C215 1.333 . S
N213 Zn219 2.020 . S
C214 N213 1.307 1_554 S
C214 C218 1.370 . S
C214 H225 0.948 . S
C215 N213 1.333 . S
C215 C216 1.379 . S
C215 H223 0.952 . S
C216 C215 1.379 . S
C216 C217 1.390 . S
C216 H236 0.949 . S
C217 C216 1.390 . S
C217 C218 1.357 1_556 S
C218 C214 1.370 . S
C218 C217 1.357 1_554 S
C218 H237 0.950 . S
Zn219 N213 2.020 . S
Zn219 O222 2.025 1_556 S
Zn219 O227 2.024 . S
Zn219 O229 2.039 . S
Zn219 O231 2.034 1_556 S
O220 C204 1.251 . S
O220 Zn211 2.039 . S
C221 O226 1.246 . S
C221 O227 1.249 . S
O222 C204 1.254 . S
O222 Zn219 2.025 1_554 S
H223 C215 0.952 . S
H224 C206 0.952 . S
H225 C214 0.948 . S
O226 Zn211 2.034 1_556 S
O226 C221 1.246 . S
O227 Zn219 2.024 . S
O227 C221 1.249 . S
H228 C210 0.948 . S
O229 Zn219 2.039 . S
O229 C233 1.251 . S
O230 Zn211 2.025 1_556 S
O230 C233 1.254 . S
O231 C212 1.246 . S
O231 Zn219 2.034 1_554 S
O232 Zn211 2.024 . S
O232 C212 1.249 . S
C233 O229 1.251 . S
C233 O230 1.254 . S
H234 C207 0.949 . S
H235 C209 0.950 . S
H236 C216 0.949 . S
H237 C218 0.950 . S
C238 O254 1.251 1_455 S
C238 O256 1.254 . S
N239 C240 1.333 . S
N239 C244 1.307 . S
N239 Zn245 2.020 . S
C240 N239 1.333 . S
C240 C241 1.379 . S
C240 H258 0.952 . S
C241 C240 1.379 . S
C241 C242 1.390 . S
C241 H268 0.949 . S
C242 C241 1.390 . S
C242 C243 1.357 . S
C243 C242 1.357 . S
C243 C244 1.370 . S
C243 H269 0.950 . S
C244 N239 1.307 . S
C244 C243 1.370 . S
C244 H262 0.948 . S
Zn245 N239 2.020 . S
Zn245 O254 2.039 . S
Zn245 O260 2.034 . S
Zn245 O264 2.025 . S
Zn245 O266 2.024 1_655 S
C246 O265 1.246 . S
C246 O266 1.249 . S
N247 C248 1.307 . S
N247 C249 1.333 . S
N247 Zn253 2.020 . S
C248 N247 1.307 . S
C248 C252 1.370 . S
C248 H259 0.948 . S
C249 N247 1.333 . S
C249 C250 1.379 . S
C249 H257 0.952 . S
C250 C249 1.379 . S
C250 C251 1.390 . S
C250 H270 0.949 . S
C251 C250 1.390 . S
C251 C252 1.357 . S
C252 C248 1.370 . S
C252 C251 1.357 . S
C252 H271 0.950 . S
Zn253 N247 2.020 . S
Zn253 O256 2.025 . S
Zn253 O261 2.024 1_455 S
Zn253 O263 2.039 . S
Zn253 O265 2.034 . S
O254 C238 1.251 1_655 S
O254 Zn245 2.039 . S
C255 O260 1.246 . S
C255 O261 1.249 . S
O256 C238 1.254 . S
O256 Zn253 2.025 . S
H257 C249 0.952 . S
H258 C240 0.952 . S
H259 C248 0.948 . S
O260 Zn245 2.034 . S
O260 C255 1.246 . S
O261 Zn253 2.024 1_655 S
O261 C255 1.249 . S
H262 C244 0.948 . S
O263 Zn253 2.039 . S
O263 C267 1.251 1_455 S
O264 Zn245 2.025 . S
O264 C267 1.254 . S
O265 C246 1.246 . S
O265 Zn253 2.034 . S
O266 Zn245 2.024 1_455 S
O266 C246 1.249 . S
C267 O263 1.251 1_655 S
C267 O264 1.254 . S
H268 C241 0.949 . S
H269 C243 0.950 . S
H270 C250 0.949 . S
H271 C252 0.950 . S
H272 C284 0.930 . S
H273 C286 0.930 . S
H274 C287 0.930 . S
H275 C291 0.959 . S
H276 C291 0.959 . S
H277 C291 0.961 . S
H278 C292 0.960 . S
H279 C292 0.961 . S
H280 C292 0.959 . S
H281 C295 0.929 . S
H282 C296 0.931 . S
H283 C298 0.930 . S
C284 H272 0.930 . S
C284 C285 1.399 . S
C284 C289 1.399 . S
C285 C284 1.399 . S
C285 C286 1.376 . S
C286 H273 0.930 . S
C286 C285 1.376 . S
C286 C287 1.388 . S
C287 H274 0.930 . S
C287 C286 1.388 . S
C287 C288 1.390 . S
C288 C287 1.390 . S
C288 C289 1.394 . S
C288 C294 1.465 . S
C289 C284 1.399 . S
C289 C288 1.394 . S
C289 C290 1.516 . S
C290 C289 1.516 . S
C290 C291 1.502 . S
C290 C292 1.561 . S
C290 C293 1.526 . S
C291 H275 0.959 . S
C291 H276 0.959 . S
C291 H277 0.961 . S
C291 C290 1.502 . S
C292 H278 0.960 . S
C292 H279 0.961 . S
C292 H280 0.959 . S
C292 C290 1.561 . S
C293 C290 1.526 . S
C293 C294 1.396 . S
C293 C298 1.390 . S
C294 C288 1.465 . S
C294 C293 1.396 . S
C294 C295 1.399 . S
C295 H281 0.929 . S
C295 C294 1.399 . S
C295 C296 1.385 . S
C296 H282 0.931 . S
C296 C295 1.385 . S
C296 C297 1.389 . S
C297 C296 1.389 . S
C297 C298 1.387 . S
C298 H283 0.930 . S
C298 C293 1.390 . S
C298 C297 1.387 . S
H299 C311 0.930 . S
H300 C313 0.930 . S
H301 C314 0.930 . S
H302 C318 0.959 . S
H303 C318 0.959 . S
H304 C318 0.961 . S
H305 C319 0.960 . S
H306 C319 0.961 . S
H307 C319 0.959 . S
H308 C322 0.929 . S
H309 C323 0.931 . S
H310 C325 0.930 . S
C311 H299 0.930 . S
C311 C312 1.399 . S
C311 C316 1.399 . S
C312 C311 1.399 . S
C312 C313 1.376 . S
C313 H300 0.930 . S
C313 C312 1.376 . S
C313 C314 1.388 . S
C314 H301 0.930 . S
C314 C313 1.388 . S
C314 C315 1.390 . S
C315 C314 1.390 . S
C315 C316 1.394 . S
C315 C321 1.465 . S
C316 C311 1.399 . S
C316 C315 1.394 . S
C316 C317 1.516 . S
C317 C316 1.516 . S
C317 C318 1.502 . S
C317 C319 1.561 . S
C317 C320 1.526 . S
C318 H302 0.959 . S
C318 H303 0.959 . S
C318 H304 0.961 . S
C318 C317 1.502 . S
C319 H305 0.960 . S
C319 H306 0.961 . S
C319 H307 0.959 . S
C319 C317 1.561 . S
C320 C317 1.526 . S
C320 C321 1.396 . S
C320 C325 1.390 . S
C321 C315 1.465 . S
C321 C320 1.396 . S
C321 C322 1.399 . S
C322 H308 0.929 . S
C322 C321 1.399 . S
C322 C323 1.385 . S
C323 H309 0.931 . S
C323 C322 1.385 . S
C323 C324 1.389 . S
C324 C323 1.389 . S
C324 C325 1.387 . S
C325 H310 0.930 . S
C325 C320 1.390 . S
C325 C324 1.387 . S
H326 C338 0.930 . S
H327 C340 0.930 . S
H328 C341 0.930 . S
H329 C345 0.959 . S
H330 C345 0.959 . S
H331 C345 0.961 . S
H332 C346 0.960 . S
H333 C346 0.961 . S
H334 C346 0.959 . S
H335 C349 0.929 . S
H336 C350 0.931 . S
H337 C352 0.930 . S
C338 H326 0.930 . S
C338 C339 1.399 . S
C338 C343 1.399 . S
C339 C338 1.399 . S
C339 C340 1.376 . S
C340 H327 0.930 . S
C340 C339 1.376 . S
C340 C341 1.388 . S
C341 H328 0.930 . S
C341 C340 1.388 . S
C341 C342 1.390 . S
C342 C341 1.390 . S
C342 C343 1.394 . S
C342 C348 1.465 . S
C343 C338 1.399 . S
C343 C342 1.394 . S
C343 C344 1.516 . S
C344 C343 1.516 . S
C344 C345 1.502 . S
C344 C346 1.561 . S
C344 C347 1.526 . S
C345 H329 0.959 . S
C345 H330 0.959 . S
C345 H331 0.961 . S
C345 C344 1.502 . S
C346 H332 0.960 . S
C346 H333 0.961 . S
C346 H334 0.959 . S
C346 C344 1.561 . S
C347 C344 1.526 . S
C347 C348 1.396 . S
C347 C352 1.390 . S
C348 C342 1.465 . S
C348 C347 1.396 . S
C348 C349 1.399 1_556 S
C349 H335 0.929 . S
C349 C348 1.399 1_554 S
C349 C350 1.385 . S
C350 H336 0.931 . S
C350 C349 1.385 . S
C350 C351 1.389 . S
C351 C350 1.389 . S
C351 C352 1.387 1_554 S
C352 H337 0.930 . S
C352 C347 1.390 . S
C352 C351 1.387 1_556 S
H353 C365 0.930 1_556 S
H354 C367 0.930 . S
H355 C368 0.930 . S
H356 C372 0.959 1_554 S
H357 C372 0.959 . S
H358 C372 0.961 . S
H359 C373 0.960 . S
H360 C373 0.961 . S
H361 C373 0.959 . S
H362 C376 0.929 . S
H363 C377 0.931 . S
H364 C379 0.930 . S
C365 H353 0.930 1_554 S
C365 C366 1.399 . S
C365 C370 1.399 . S
C366 C365 1.399 . S
C366 C367 1.376 . S
C367 H354 0.930 . S
C367 C366 1.376 . S
C367 C368 1.388 . S
C368 H355 0.930 . S
C368 C367 1.388 . S
C368 C369 1.390 . S
C369 C368 1.390 . S
C369 C370 1.394 . S
C369 C375 1.465 . S
C370 C365 1.399 . S
C370 C369 1.394 . S
C370 C371 1.516 . S
C371 C370 1.516 . S
C371 C372 1.502 1_554 S
C371 C373 1.561 1_554 S
C371 C374 1.526 . S
C372 H356 0.959 1_556 S
C372 H357 0.959 . S
C372 H358 0.961 . S
C372 C371 1.502 1_556 S
C373 H359 0.960 . S
C373 H360 0.961 . S
C373 H361 0.959 . S
C373 C371 1.561 1_556 S
C374 C371 1.526 . S
C374 C375 1.396 . S
C374 C379 1.390 . S
C375 C369 1.465 . S
C375 C374 1.396 . S
C375 C376 1.399 . S
C376 H362 0.929 . S
C376 C375 1.399 . S
C376 C377 1.385 . S
C377 H363 0.931 . S
C377 C376 1.385 . S
C377 C378 1.389 . S
C378 C377 1.389 . S
C378 C379 1.387 . S
C379 H364 0.930 . S
C379 C374 1.390 . S
C379 C378 1.387 . S
H380 C392 0.930 . S
H381 C394 0.930 . S
H382 C395 0.930 . S
H383 C399 0.959 . S
H384 C399 0.959 . S
H385 C399 0.961 . S
H386 C400 0.960 . S
H387 C400 0.961 . S
H388 C400 0.959 . S
H389 C403 0.929 . S
H390 C404 0.931 . S
H391 C406 0.930 . S
C392 H380 0.930 . S
C392 C393 1.399 . S
C392 C397 1.399 . S
C393 C392 1.399 . S
C393 C394 1.376 . S
C394 H381 0.930 . S
C394 C393 1.376 . S
C394 C395 1.388 . S
C395 H382 0.930 . S
C395 C394 1.388 . S
C395 C396 1.390 . S
C396 C395 1.390 . S
C396 C397 1.394 . S
C396 C402 1.465 . S
C397 C392 1.399 . S
C397 C396 1.394 . S
C397 C398 1.516 . S
C398 C397 1.516 . S
C398 C399 1.502 . S
C398 C400 1.561 . S
C398 C401 1.526 . S
C399 H383 0.959 . S
C399 H384 0.959 . S
C399 H385 0.961 . S
C399 C398 1.502 . S
C400 H386 0.960 . S
C400 H387 0.961 . S
C400 H388 0.959 . S
C400 C398 1.561 . S
C401 C398 1.526 . S
C401 C402 1.396 . S
C401 C406 1.390 . S
C402 C396 1.465 . S
C402 C401 1.396 . S
C402 C403 1.399 . S
C403 H389 0.929 . S
C403 C402 1.399 . S
C403 C404 1.385 . S
C404 H390 0.931 . S
C404 C403 1.385 . S
C404 C405 1.389 . S
C405 C404 1.389 . S
C405 C406 1.387 . S
C406 H391 0.930 . S
C406 C401 1.390 . S
C406 C405 1.387 . S
H407 C419 0.930 . S
H408 C421 0.930 . S
H409 C422 0.930 . S
H410 C426 0.959 . S
H411 C426 0.959 . S
H412 C426 0.961 . S
H413 C427 0.960 . S
H414 C427 0.961 . S
H415 C427 0.959 . S
H416 C430 0.929 . S
H417 C431 0.931 . S
H418 C433 0.930 . S
C419 H407 0.930 . S
C419 C420 1.399 . S
C419 C424 1.399 . S
C420 C419 1.399 . S
C420 C421 1.376 . S
C421 H408 0.930 . S
C421 C420 1.376 . S
C421 C422 1.388 . S
C422 H409 0.930 . S
C422 C421 1.388 . S
C422 C423 1.390 . S
C423 C422 1.390 . S
C423 C424 1.394 . S
C423 C429 1.465 . S
C424 C419 1.399 . S
C424 C423 1.394 . S
C424 C425 1.516 . S
C425 C424 1.516 . S
C425 C426 1.502 . S
C425 C427 1.561 . S
C425 C428 1.526 . S
C426 H410 0.959 . S
C426 H411 0.959 . S
C426 H412 0.961 . S
C426 C425 1.502 . S
C427 H413 0.960 . S
C427 H414 0.961 . S
C427 H415 0.959 . S
C427 C425 1.561 . S
C428 C425 1.526 . S
C428 C429 1.396 . S
C428 C433 1.390 . S
C429 C423 1.465 . S
C429 C428 1.396 . S
C429 C430 1.399 . S
C430 H416 0.929 . S
C430 C429 1.399 . S
C430 C431 1.385 . S
C431 H417 0.931 . S
C431 C430 1.385 . S
C431 C432 1.389 . S
C432 C431 1.389 . S
C432 C433 1.387 . S
C433 H418 0.930 . S
C433 C428 1.390 . S
C433 C432 1.387 . S
H434 C446 0.930 . S
H435 C448 0.930 . S
H436 C449 0.930 . S
H437 C453 0.959 . S
H438 C453 0.959 . S
H439 C453 0.961 . S
H440 C454 0.960 . S
H441 C454 0.961 . S
H442 C454 0.959 . S
H443 C457 0.929 . S
H444 C458 0.931 . S
H445 C460 0.923 1_556 S
C446 H434 0.930 . S
C446 C447 1.399 . S
C446 C451 1.399 . S
C447 C446 1.399 . S
C447 C448 1.376 . S
C448 H435 0.930 . S
C448 C447 1.376 . S
C448 C449 1.388 . S
C449 H436 0.930 . S
C449 C448 1.388 . S
C449 C450 1.390 . S
C450 C449 1.390 . S
C450 C451 1.394 . S
C450 C456 1.465 . S
C451 C446 1.399 . S
C451 C450 1.394 . S
C451 C452 1.516 . S
C452 C451 1.516 . S
C452 C453 1.502 . S
C452 C454 1.561 1_554 S
C452 C455 1.526 . S
C453 H437 0.959 . S
C453 H438 0.959 . S
C453 H439 0.961 . S
C453 C452 1.502 . S
C454 H440 0.960 . S
C454 H441 0.961 . S
C454 H442 0.959 . S
C454 C452 1.561 1_556 S
C455 C452 1.526 . S
C455 C456 1.396 . S
C455 C460 1.397 . S
C456 C450 1.465 . S
C456 C455 1.396 . S
C456 C457 1.399 . S
C457 H443 0.929 . S
C457 C456 1.399 . S
C457 C458 1.385 . S
C458 H444 0.931 . S
C458 C457 1.385 . S
C458 C459 1.389 . S
C459 C458 1.389 . S
C459 C460 1.386 . S
C460 H445 0.923 1_554 S
C460 C455 1.397 . S
C460 C459 1.386 . S
H461 C473 0.930 . S
H462 C475 0.930 . S
H463 C476 0.930 . S
H464 C480 0.959 1_556 S
H465 C480 0.959 . S
H466 C480 0.961 . S
H467 C481 0.960 . S
H468 C481 0.961 . S
H469 C481 0.959 . S
H470 C484 0.929 . S
H471 C485 0.931 . S
H472 C487 0.930 1_554 S
C473 H461 0.930 . S
C473 C474 1.399 . S
C473 C478 1.399 . S
C474 C473 1.399 . S
C474 C475 1.376 . S
C475 H462 0.930 . S
C475 C474 1.376 . S
C475 C476 1.388 . S
C476 H463 0.930 . S
C476 C475 1.388 . S
C476 C477 1.390 . S
C477 C476 1.390 . S
C477 C478 1.394 . S
C477 C483 1.465 . S
C478 C473 1.399 . S
C478 C477 1.394 . S
C478 C479 1.516 . S
C479 C478 1.516 . S
C479 C480 1.502 1_556 S
C479 C481 1.561 1_556 S
C479 C482 1.526 . S
C480 H464 0.959 1_554 S
C480 H465 0.959 . S
C480 H466 0.961 . S
C480 C479 1.502 1_554 S
C481 H467 0.960 . S
C481 H468 0.961 . S
C481 H469 0.959 . S
C481 C479 1.561 1_554 S
C482 C479 1.526 . S
C482 C483 1.396 . S
C482 C487 1.390 . S
C483 C477 1.465 . S
C483 C482 1.396 . S
C483 C484 1.399 . S
C484 H470 0.929 . S
C484 C483 1.399 . S
C484 C485 1.385 . S
C485 H471 0.931 . S
C485 C484 1.385 . S
C485 C486 1.389 . S
C486 C485 1.389 . S
C486 C487 1.387 . S
C487 H472 0.930 1_556 S
C487 C482 1.390 . S
C487 C486 1.387 . S
H488 C500 0.930 1_554 S
H489 C502 0.930 . S
H490 C503 0.930 . S
H491 C507 0.959 1_556 S
H492 C507 0.959 . S
H493 C507 0.961 . S
H494 C508 0.960 . S
H495 C508 0.961 . S
H496 C508 0.959 . S
H497 C511 0.929 . S
H498 C512 0.931 . S
H499 C514 0.930 . S
C500 H488 0.930 1_556 S
C500 C501 1.399 . S
C500 C505 1.399 . S
C501 C500 1.399 . S
C501 C502 1.376 . S
C502 H489 0.930 . S
C502 C501 1.376 . S
C502 C503 1.388 . S
C503 H490 0.930 . S
C503 C502 1.388 . S
C503 C504 1.390 . S
C504 C503 1.390 . S
C504 C505 1.394 . S
C504 C510 1.465 . S
C505 C500 1.399 . S
C505 C504 1.394 . S
C505 C506 1.516 . S
C506 C505 1.516 . S
C506 C507 1.502 1_556 S
C506 C508 1.561 1_556 S
C506 C509 1.526 . S
C507 H491 0.959 1_554 S
C507 H492 0.959 . S
C507 H493 0.961 . S
C507 C506 1.502 1_554 S
C508 H494 0.960 . S
C508 H495 0.961 . S
C508 H496 0.959 . S
C508 C506 1.561 1_554 S
C509 C506 1.526 . S
C509 C510 1.396 . S
C509 C514 1.390 . S
C510 C504 1.465 . S
C510 C509 1.396 . S
C510 C511 1.399 . S
C511 H497 0.929 . S
C511 C510 1.399 . S
C511 C512 1.385 . S
C512 H498 0.931 . S
C512 C511 1.385 . S
C512 C513 1.389 . S
C513 C512 1.389 . S
C513 C514 1.387 . S
C514 H499 0.930 . S
C514 C509 1.390 . S
C514 C513 1.387 . S
H515 C527 0.930 . S
H516 C529 0.930 . S
H517 C530 0.930 . S
H518 C534 0.959 . S
H519 C534 0.959 . S
H520 C534 0.961 . S
H521 C535 0.960 . S
H522 C535 0.961 . S
H523 C535 0.959 . S
H524 C538 0.929 1_556 S
H525 C539 0.931 . S
H526 C541 0.930 . S
C527 H515 0.930 . S
C527 C528 1.399 . S
C527 C532 1.399 . S
C528 C527 1.399 . S
C528 C529 1.376 . S
C529 H516 0.930 . S
C529 C528 1.376 . S
C529 C530 1.388 . S
C530 H517 0.930 . S
C530 C529 1.388 . S
C530 C531 1.390 . S
C531 C530 1.390 . S
C531 C532 1.394 . S
C531 C537 1.465 . S
C532 C527 1.399 . S
C532 C531 1.394 . S
C532 C533 1.516 . S
C533 C532 1.516 . S
C533 C534 1.502 . S
C533 C535 1.561 . S
C533 C536 1.526 . S
C534 H518 0.959 . S
C534 H519 0.959 . S
C534 H520 0.961 . S
C534 C533 1.502 . S
C535 H521 0.960 . S
C535 H522 0.961 . S
C535 H523 0.959 . S
C535 C533 1.561 . S
C536 C533 1.526 . S
C536 C537 1.396 . S
C536 C541 1.390 . S
C537 C531 1.465 . S
C537 C536 1.396 . S
C537 C538 1.399 . S
C538 H524 0.929 1_554 S
C538 C537 1.399 . S
C538 C539 1.385 1_554 S
C539 H525 0.931 . S
C539 C538 1.385 1_556 S
C539 C540 1.389 1_556 S
C540 C539 1.389 1_554 S
C540 C541 1.387 . S
C541 H526 0.930 . S
C541 C536 1.390 . S
C541 C540 1.387 . S
H542 C554 0.930 . S
H543 C556 0.930 . S
H544 C557 0.930 . S
H545 C561 0.959 . S
H546 C561 0.959 . S
H547 C561 0.961 . S
H548 C562 0.960 . S
H549 C562 0.961 . S
H550 C562 0.959 . S
H551 C565 0.929 . S
H552 C566 0.931 . S
H553 C568 0.930 . S
C554 H542 0.930 . S
C554 C555 1.399 . S
C554 C559 1.399 . S
C555 C554 1.399 . S
C555 C556 1.376 . S
C556 H543 0.930 . S
C556 C555 1.376 . S
C556 C557 1.388 . S
C557 H544 0.930 . S
C557 C556 1.388 . S
C557 C558 1.390 . S
C558 C557 1.390 . S
C558 C559 1.394 . S
C558 C564 1.465 . S
C559 C554 1.399 . S
C559 C558 1.394 . S
C559 C560 1.516 . S
C560 C559 1.516 . S
C560 C561 1.502 . S
C560 C562 1.561 . S
C560 C563 1.526 . S
C561 H545 0.959 . S
C561 H546 0.959 . S
C561 H547 0.961 . S
C561 C560 1.502 . S
C562 H548 0.960 . S
C562 H549 0.961 . S
C562 H550 0.959 . S
C562 C560 1.561 . S
C563 C560 1.526 . S
C563 C564 1.396 . S
C563 C568 1.390 . S
C564 C558 1.465 . S
C564 C563 1.396 . S
C564 C565 1.399 . S
C565 H551 0.929 . S
C565 C564 1.399 . S
C565 C566 1.385 . S
C566 H552 0.931 . S
C566 C565 1.385 . S
C566 C567 1.389 . S
C567 C566 1.389 . S
C567 C568 1.387 . S
C568 H553 0.930 . S
C568 C563 1.390 . S
C568 C567 1.387 . S
H569 C581 0.930 . S
H570 C583 0.930 . S
H571 C584 0.930 . S
H572 C588 0.959 . S
H573 C588 0.959 . S
H574 C588 0.961 . S
H575 C589 0.960 . S
H576 C589 0.961 . S
H577 C589 0.959 . S
H578 C592 0.929 . S
H579 C593 0.931 . S
H580 C595 0.930 . S
C581 H569 0.930 . S
C581 C582 1.399 . S
C581 C586 1.399 . S
C582 C581 1.399 . S
C582 C583 1.376 . S
C583 H570 0.930 . S
C583 C582 1.376 . S
C583 C584 1.388 . S
C584 H571 0.930 . S
C584 C583 1.388 . S
C584 C585 1.390 . S
C585 C584 1.390 . S
C585 C586 1.394 . S
C585 C591 1.465 . S
C586 C581 1.399 . S
C586 C585 1.394 . S
C586 C587 1.516 . S
C587 C586 1.516 . S
C587 C588 1.502 . S
C587 C589 1.561 . S
C587 C590 1.526 . S
C588 H572 0.959 . S
C588 H573 0.959 . S
C588 H574 0.961 . S
C588 C587 1.502 . S
C589 H575 0.960 . S
C589 H576 0.961 . S
C589 H577 0.959 . S
C589 C587 1.561 . S
C590 C587 1.526 . S
C590 C591 1.396 . S
C590 C595 1.390 . S
C591 C585 1.465 . S
C591 C590 1.396 . S
C591 C592 1.399 . S
C592 H578 0.929 . S
C592 C591 1.399 . S
C592 C593 1.385 . S
C593 H579 0.931 . S
C593 C592 1.385 . S
C593 C594 1.389 . S
C594 C593 1.389 . S
C594 C595 1.387 . S
C595 H580 0.930 . S
C595 C590 1.390 . S
C595 C594 1.387 . S
H596 C608 0.930 . S
H597 C610 0.930 . S
H598 C611 0.930 . S
H599 C615 0.959 1_556 S
H600 C615 0.959 . S
H601 C615 0.961 . S
H602 C616 0.960 . S
H603 C616 0.961 . S
H604 C616 0.959 . S
H605 C619 0.929 . S
H606 C620 0.931 . S
H607 C622 0.930 . S
C608 H596 0.930 . S
C608 C609 1.399 . S
C608 C613 1.399 . S
C609 C608 1.399 . S
C609 C610 1.376 . S
C610 H597 0.930 . S
C610 C609 1.376 . S
C610 C611 1.388 . S
C611 H598 0.930 . S
C611 C610 1.388 . S
C611 C612 1.390 . S
C612 C611 1.390 . S
C612 C613 1.394 . S
C612 C618 1.465 . S
C613 C608 1.399 . S
C613 C612 1.394 . S
C613 C614 1.516 . S
C614 C613 1.516 . S
C614 C615 1.502 . S
C614 C616 1.561 . S
C614 C617 1.526 . S
C615 H599 0.959 1_554 S
C615 H600 0.959 . S
C615 H601 0.961 . S
C615 C614 1.502 . S
C616 H602 0.960 . S
C616 H603 0.961 . S
C616 H604 0.959 . S
C616 C614 1.561 . S
C617 C614 1.526 . S
C617 C618 1.396 . S
C617 C622 1.390 . S
C618 C612 1.465 . S
C618 C617 1.396 . S
C618 C619 1.399 . S
C619 H605 0.929 . S
C619 C618 1.399 . S
C619 C620 1.385 . S
C620 H606 0.931 . S
C620 C619 1.385 . S
C620 C621 1.389 . S
C621 C620 1.389 . S
C621 C622 1.387 . S
C622 H607 0.930 . S
C622 C617 1.390 . S
C622 C621 1.387 . S
H623 C635 0.930 1_554 S
H624 C637 0.930 . S
H625 C638 0.930 . S
H626 C642 0.959 1_556 S
H627 C642 0.959 . S
H628 C642 0.961 . S
H629 C643 0.960 . S
H630 C643 0.961 . S
H631 C643 0.959 . S
H632 C646 0.929 . S
H633 C647 0.931 . S
H634 C649 0.930 . S
C635 H623 0.930 1_556 S
C635 C636 1.399 . S
C635 C640 1.399 . S
C636 C635 1.399 . S
C636 C637 1.376 . S
C637 H624 0.930 . S
C637 C636 1.376 . S
C637 C638 1.388 . S
C638 H625 0.930 . S
C638 C637 1.388 . S
C638 C639 1.390 . S
C639 C638 1.390 . S
C639 C640 1.394 . S
C639 C645 1.465 . S
C640 C635 1.399 . S
C640 C639 1.394 . S
C640 C641 1.516 . S
C641 C640 1.516 . S
C641 C642 1.502 1_556 S
C641 C643 1.561 1_556 S
C641 C644 1.526 . S
C642 H626 0.959 1_554 S
C642 H627 0.959 . S
C642 H628 0.961 . S
C642 C641 1.502 1_554 S
C643 H629 0.960 . S
C643 H630 0.961 . S
C643 H631 0.959 . S
C643 C641 1.561 1_554 S
C644 C641 1.526 . S
C644 C645 1.396 . S
C644 C649 1.390 . S
C645 C639 1.465 . S
C645 C644 1.396 . S
C645 C646 1.399 . S
C646 H632 0.929 . S
C646 C645 1.399 . S
C646 C647 1.385 . S
C647 H633 0.931 . S
C647 C646 1.385 . S
C647 C648 1.389 . S
C648 C647 1.389 . S
C648 C649 1.387 . S
C649 H634 0.930 . S
C649 C644 1.390 . S
C649 C648 1.387 . S
H650 C662 0.930 . S
H651 C664 0.930 . S
H652 C665 0.930 . S
H653 C669 0.959 . S
H654 C669 0.959 . S
H655 C669 0.961 . S
H656 C670 0.960 . S
H657 C670 0.961 . S
H658 C670 0.959 . S
H659 C673 0.929 . S
H660 C674 0.931 . S
H661 C676 0.930 . S
C662 H650 0.930 . S
C662 C663 1.399 . S
C662 C667 1.399 . S
C663 C662 1.399 . S
C663 C664 1.376 . S
C664 H651 0.930 . S
C664 C663 1.376 . S
C664 C665 1.388 . S
C665 H652 0.930 . S
C665 C664 1.388 . S
C665 C666 1.390 . S
C666 C665 1.390 . S
C666 C667 1.394 . S
C666 C672 1.465 . S
C667 C662 1.399 . S
C667 C666 1.394 . S
C667 C668 1.516 . S
C668 C667 1.516 . S
C668 C669 1.502 . S
C668 C670 1.561 . S
C668 C671 1.526 . S
C669 H653 0.959 . S
C669 H654 0.959 . S
C669 H655 0.961 . S
C669 C668 1.502 . S
C670 H656 0.960 . S
C670 H657 0.961 . S
C670 H658 0.959 . S
C670 C668 1.561 . S
C671 C668 1.526 . S
C671 C672 1.396 . S
C671 C676 1.390 . S
C672 C666 1.465 . S
C672 C671 1.396 . S
C672 C673 1.399 . S
C673 H659 0.929 . S
C673 C672 1.399 . S
C673 C674 1.385 . S
C674 H660 0.931 . S
C674 C673 1.385 . S
C674 C675 1.389 . S
C675 C674 1.389 . S
C675 C676 1.387 . S
C676 H661 0.930 . S
C676 C671 1.390 . S
C676 C675 1.387 . S
H677 C689 0.930 . S
H678 C691 0.930 . S
H679 C692 0.930 . S
H680 C696 0.959 . S
H681 C696 0.959 . S
H682 C696 0.961 . S
H683 C697 0.960 . S
H684 C697 0.961 . S
H685 C697 0.959 . S
H686 C700 0.929 . S
H687 C701 0.931 . S
H688 C703 0.930 . S
C689 H677 0.930 . S
C689 C690 1.399 . S
C689 C694 1.399 . S
C690 C689 1.399 . S
C690 C691 1.376 . S
C691 H678 0.930 . S
C691 C690 1.376 . S
C691 C692 1.388 . S
C692 H679 0.930 . S
C692 C691 1.388 . S
C692 C693 1.390 . S
C693 C692 1.390 . S
C693 C694 1.394 . S
C693 C699 1.465 . S
C694 C689 1.399 . S
C694 C693 1.394 . S
C694 C695 1.516 . S
C695 C694 1.516 . S
C695 C696 1.502 . S
C695 C697 1.561 . S
C695 C698 1.526 . S
C696 H680 0.959 . S
C696 H681 0.959 . S
C696 H682 0.961 . S
C696 C695 1.502 . S
C697 H683 0.960 . S
C697 H684 0.961 . S
C697 H685 0.959 . S
C697 C695 1.561 . S
C698 C695 1.526 . S
C698 C699 1.396 . S
C698 C703 1.390 . S
C699 C693 1.465 . S
C699 C698 1.396 . S
C699 C700 1.399 . S
C700 H686 0.929 . S
C700 C699 1.399 . S
C700 C701 1.385 . S
C701 H687 0.931 . S
C701 C700 1.385 . S
C701 C702 1.389 . S
C702 C701 1.389 . S
C702 C703 1.387 . S
C703 H688 0.930 . S
C703 C698 1.390 . S
C703 C702 1.387 . S
H704 C716 0.930 . S
H705 C718 0.930 . S
H706 C719 0.930 . S
H707 C723 0.959 . S
H708 C723 0.959 1_554 S
H709 C723 0.961 . S
H710 C724 0.960 . S
H711 C724 0.961 1_554 S
H712 C724 0.959 1_554 S
H713 C727 0.929 . S
H714 C728 0.931 . S
H715 C730 0.930 . S
C716 H704 0.930 . S
C716 C717 1.387 1_445 S
C716 C721 1.399 . S
C717 C716 1.387 1_665 S
C717 C718 1.390 . S
C718 H705 0.930 . S
C718 C717 1.390 . S
C718 C719 1.388 . S
C719 H706 0.930 . S
C719 C718 1.388 . S
C719 C720 1.390 . S
C720 C719 1.390 . S
C720 C721 1.394 1_665 S
C720 C726 1.465 1_556 S
C721 C716 1.399 . S
C721 C720 1.394 1_445 S
C721 C722 1.516 . S
C722 C721 1.516 . S
C722 C723 1.502 . S
C722 C724 1.561 1_455 S
C722 C725 1.526 1_556 S
C723 H707 0.959 . S
C723 H708 0.959 1_556 S
C723 H709 0.961 . S
C723 C722 1.502 . S
C724 H710 0.960 . S
C724 H711 0.961 1_556 S
C724 H712 0.959 1_556 S
C724 C722 1.561 1_655 S
C725 C722 1.526 1_554 S
C725 C726 1.396 1_445 S
C725 C730 1.390 . S
C726 C720 1.465 1_554 S
C726 C725 1.396 1_665 S
C726 C727 1.399 . S
C727 H713 0.929 . S
C727 C726 1.399 . S
C727 C728 1.385 . S
C728 H714 0.931 . S
C728 C727 1.385 . S
C728 C729 1.389 1_655 S
C729 C728 1.389 1_455 S
C729 C730 1.387 1_565 S
C730 H715 0.930 . S
C730 C725 1.390 . S
C730 C729 1.387 1_545 S
H731 C743 0.930 . S
H732 C745 0.930 . S
H733 C746 0.930 . S
H734 C750 0.959 . S
H735 C750 0.959 . S
H736 C750 0.961 . S
H737 C751 0.960 . S
H738 C751 0.961 . S
H739 C751 0.959 . S
H740 C754 0.929 . S
H741 C755 0.931 . S
H742 C757 0.930 . S
C743 H731 0.930 . S
C743 C744 1.399 . S
C743 C748 1.399 . S
C744 C743 1.399 . S
C744 C745 1.376 . S
C745 H732 0.930 . S
C745 C744 1.376 . S
C745 C746 1.388 . S
C746 H733 0.930 . S
C746 C745 1.388 . S
C746 C747 1.390 . S
C747 C746 1.390 . S
C747 C748 1.394 . S
C747 C753 1.465 . S
C748 C743 1.399 . S
C748 C747 1.394 . S
C748 C749 1.516 . S
C749 C748 1.516 . S
C749 C750 1.502 . S
C749 C751 1.561 . S
C749 C752 1.526 . S
C750 H734 0.959 . S
C750 H735 0.959 . S
C750 H736 0.961 . S
C750 C749 1.502 . S
C751 H737 0.960 . S
C751 H738 0.961 . S
C751 H739 0.959 . S
C751 C749 1.561 . S
C752 C749 1.526 . S
C752 C753 1.396 . S
C752 C757 1.390 . S
C753 C747 1.465 . S
C753 C752 1.396 . S
C753 C754 1.399 . S
C754 H740 0.929 . S
C754 C753 1.399 . S
C754 C755 1.385 . S
C755 H741 0.931 . S
C755 C754 1.385 . S
C755 C756 1.389 . S
C756 C755 1.389 . S
C756 C757 1.387 . S
C757 H742 0.930 . S
C757 C752 1.390 . S
C757 C756 1.387 . S
H758 C770 0.930 . S
H759 C772 0.930 . S
H760 C773 0.930 . S
H761 C777 0.959 . S
H762 C777 0.959 . S
H763 C777 0.961 . S
H764 C778 0.960 . S
H765 C778 0.961 . S
H766 C778 0.959 . S
H767 C781 0.929 . S
H768 C782 0.931 . S
H769 C784 0.930 . S
C770 H758 0.930 . S
C770 C771 1.399 . S
C770 C775 1.399 . S
C771 C770 1.399 . S
C771 C772 1.376 1_545 S
C772 H759 0.930 . S
C772 C771 1.376 1_565 S
C772 C773 1.388 . S
C773 H760 0.930 . S
C773 C772 1.388 . S
C773 C774 1.390 . S
C774 C773 1.390 . S
C774 C775 1.394 1_565 S
C774 C780 1.465 . S
C775 C770 1.399 . S
C775 C774 1.394 1_545 S
C775 C776 1.516 . S
C776 C775 1.516 . S
C776 C777 1.502 . S
C776 C778 1.561 . S
C776 C779 1.526 . S
C777 H761 0.959 . S
C777 H762 0.959 . S
C777 H763 0.961 . S
C777 C776 1.502 . S
C778 H764 0.960 . S
C778 H765 0.961 . S
C778 H766 0.959 . S
C778 C776 1.561 . S
C779 C776 1.526 . S
C779 C780 1.396 1_545 S
C779 C784 1.390 . S
C780 C774 1.465 . S
C780 C779 1.396 1_565 S
C780 C781 1.399 . S
C781 H767 0.929 . S
C781 C780 1.399 . S
C781 C782 1.385 . S
C782 H768 0.931 . S
C782 C781 1.385 . S
C782 C783 1.389 . S
C783 C782 1.389 . S
C783 C784 1.387 1_565 S
C784 H769 0.930 . S
C784 C779 1.390 . S
C784 C783 1.387 1_545 S
H785 C797 0.930 . S
H786 C799 0.930 . S
H787 C800 0.930 . S
H788 C804 0.959 . S
H789 C804 0.959 . S
H790 C804 0.961 . S
H791 C805 0.960 . S
H792 C805 0.961 . S
H793 C805 0.959 . S
H794 C808 0.929 . S
H795 C809 0.931 . S
H796 C811 0.930 . S
C797 H785 0.930 . S
C797 C798 1.399 . S
C797 C802 1.399 . S
C798 C797 1.399 . S
C798 C799 1.376 . S
C799 H786 0.930 . S
C799 C798 1.376 . S
C799 C800 1.388 . S
C800 H787 0.930 . S
C800 C799 1.388 . S
C800 C801 1.390 . S
C801 C800 1.390 . S
C801 C802 1.394 . S
C801 C807 1.465 . S
C802 C797 1.399 . S
C802 C801 1.394 . S
C802 C803 1.516 . S
C803 C802 1.516 . S
C803 C804 1.502 . S
C803 C805 1.561 . S
C803 C806 1.526 . S
C804 H788 0.959 . S
C804 H789 0.959 . S
C804 H790 0.961 . S
C804 C803 1.502 . S
C805 H791 0.960 . S
C805 H792 0.961 . S
C805 H793 0.959 . S
C805 C803 1.561 . S
C806 C803 1.526 . S
C806 C807 1.396 . S
C806 C811 1.390 . S
C807 C801 1.465 . S
C807 C806 1.396 . S
C807 C808 1.399 . S
C808 H794 0.929 . S
C808 C807 1.399 . S
C808 C809 1.385 . S
C809 H795 0.931 . S
C809 C808 1.385 . S
C809 C810 1.389 . S
C810 C809 1.389 . S
C810 C811 1.387 . S
C811 H796 0.930 . S
C811 C806 1.390 . S
C811 C810 1.387 . S
H812 C824 0.930 . S
H813 C826 0.926 1_554 S
H814 C827 0.930 . S
H815 C831 0.959 . S
H816 C831 0.959 . S
H817 C831 0.961 . S
H818 C832 0.960 . S
H819 C832 0.961 . S
H820 C832 0.959 . S
H821 C835 0.929 . S
H822 C836 0.931 . S
H823 C838 0.930 . S
C824 H812 0.930 . S
C824 C825 1.399 . S
C824 C829 1.399 . S
C825 C824 1.399 . S
C825 C826 1.376 . S
C826 H813 0.926 1_556 S
C826 C825 1.376 . S
C826 C827 1.388 . S
C827 H814 0.930 . S
C827 C826 1.388 . S
C827 C828 1.390 . S
C828 C827 1.390 . S
C828 C829 1.394 . S
C828 C834 1.465 . S
C829 C824 1.399 . S
C829 C828 1.394 . S
C829 C830 1.516 . S
C830 C829 1.516 . S
C830 C831 1.502 . S
C830 C832 1.561 . S
C830 C833 1.526 . S
C831 H815 0.959 . S
C831 H816 0.959 . S
C831 H817 0.961 . S
C831 C830 1.502 . S
C832 H818 0.960 . S
C832 H819 0.961 . S
C832 H820 0.959 . S
C832 C830 1.561 . S
C833 C830 1.526 . S
C833 C834 1.396 . S
C833 C838 1.390 . S
C834 C828 1.465 . S
C834 C833 1.396 . S
C834 C835 1.399 . S
C835 H821 0.929 . S
C835 C834 1.399 . S
C835 C836 1.385 . S
C836 H822 0.931 . S
C836 C835 1.385 . S
C836 C837 1.389 . S
C837 C836 1.389 . S
C837 C838 1.387 . S
C838 H823 0.930 . S
C838 C833 1.390 . S
C838 C837 1.387 . S
H839 C851 0.930 . S
H840 C853 0.930 . S
H841 C854 0.930 . S
H842 C858 0.959 . S
H843 C858 0.959 . S
H844 C858 0.961 . S
H845 C859 0.960 . S
H846 C859 0.961 . S
H847 C859 0.959 . S
H848 C862 0.929 . S
H849 C863 0.931 1_556 S
H850 C865 0.930 . S
C851 H839 0.930 . S
C851 C852 1.399 . S
C851 C856 1.399 . S
C852 C851 1.399 . S
C852 C853 1.376 . S
C853 H840 0.930 . S
C853 C852 1.376 . S
C853 C854 1.388 . S
C854 H841 0.930 . S
C854 C853 1.388 . S
C854 C855 1.390 . S
C855 C854 1.390 . S
C855 C856 1.394 . S
C855 C861 1.465 . S
C856 C851 1.399 . S
C856 C855 1.394 . S
C856 C857 1.516 . S
C857 C856 1.516 . S
C857 C858 1.502 . S
C857 C859 1.561 . S
C857 C860 1.526 . S
C858 H842 0.959 . S
C858 H843 0.959 . S
C858 H844 0.961 . S
C858 C857 1.502 . S
C859 H845 0.960 . S
C859 H846 0.961 . S
C859 H847 0.959 . S
C859 C857 1.561 . S
C860 C857 1.526 . S
C860 C861 1.396 . S
C860 C865 1.390 . S
C861 C855 1.465 . S
C861 C860 1.396 . S
C861 C862 1.399 . S
C862 H848 0.929 . S
C862 C861 1.399 . S
C862 C863 1.385 . S
C863 H849 0.931 1_554 S
C863 C862 1.385 . S
C863 C864 1.389 . S
C864 C863 1.389 . S
C864 C865 1.387 . S
C865 H850 0.930 . S
C865 C860 1.390 . S
C865 C864 1.387 . S
H866 C878 0.930 . S
H867 C880 0.930 . S
H868 C881 0.930 . S
H869 C885 0.959 . S
H870 C885 0.959 . S
H871 C885 0.961 . S
H872 C886 0.960 . S
H873 C886 0.961 . S
H874 C886 0.959 . S
H875 C889 0.929 . S
H876 C890 0.931 . S
H877 C892 0.930 . S
C878 H866 0.930 . S
C878 C879 1.399 . S
C878 C883 1.399 . S
C879 C878 1.399 . S
C879 C880 1.376 . S
C880 H867 0.930 . S
C880 C879 1.376 . S
C880 C881 1.388 . S
C881 H868 0.930 . S
C881 C880 1.388 . S
C881 C882 1.390 . S
C882 C881 1.390 . S
C882 C883 1.394 . S
C882 C888 1.465 . S
C883 C878 1.399 . S
C883 C882 1.394 . S
C883 C884 1.516 . S
C884 C883 1.516 . S
C884 C885 1.502 . S
C884 C886 1.561 . S
C884 C887 1.526 . S
C885 H869 0.959 . S
C885 H870 0.959 . S
C885 H871 0.961 . S
C885 C884 1.502 . S
C886 H872 0.960 . S
C886 H873 0.961 . S
C886 H874 0.959 . S
C886 C884 1.561 . S
C887 C884 1.526 . S
C887 C888 1.396 . S
C887 C892 1.390 . S
C888 C882 1.465 . S
C888 C887 1.396 . S
C888 C889 1.399 . S
C889 H875 0.929 . S
C889 C888 1.399 . S
C889 C890 1.385 . S
C890 H876 0.931 . S
C890 C889 1.385 . S
C890 C891 1.389 . S
C891 C890 1.389 . S
C891 C892 1.387 . S
C892 H877 0.930 . S
C892 C887 1.390 . S
C892 C891 1.387 . S
H893 C905 0.930 . S
H894 C907 0.930 . S
H895 C908 0.930 . S
H896 C912 0.959 . S
H897 C912 0.959 . S
H898 C912 0.961 . S
H899 C913 0.960 . S
H900 C913 0.961 . S
H901 C913 0.945 1_655 S
H902 C916 0.929 . S
H903 C917 0.931 . S
H904 C919 0.930 . S
C905 H893 0.930 . S
C905 C906 1.399 1_455 S
C905 C910 1.399 . S
C906 C905 1.399 1_655 S
C906 C907 1.376 . S
C907 H894 0.930 . S
C907 C906 1.376 . S
C907 C908 1.388 . S
C908 H895 0.930 . S
C908 C907 1.388 . S
C908 C909 1.390 . S
C909 C908 1.390 . S
C909 C910 1.394 1_655 S
C909 C915 1.465 1_556 S
C910 C905 1.399 . S
C910 C909 1.394 1_455 S
C910 C911 1.516 . S
C911 C910 1.516 . S
C911 C912 1.502 . S
C911 C913 1.561 . S
C911 C914 1.526 1_556 S
C912 H896 0.959 . S
C912 H897 0.959 . S
C912 H898 0.961 . S
C912 C911 1.502 . S
C913 H899 0.960 . S
C913 H900 0.961 . S
C913 H901 0.945 1_455 S
C913 C911 1.561 . S
C914 C911 1.526 1_554 S
C914 C915 1.396 1_455 S
C914 C919 1.390 . S
C915 C909 1.465 1_554 S
C915 C914 1.396 1_655 S
C915 C916 1.399 . S
C916 H902 0.929 . S
C916 C915 1.399 . S
C916 C917 1.385 . S
C917 H903 0.931 . S
C917 C916 1.385 . S
C917 C918 1.389 1_655 S
C918 C917 1.389 1_455 S
C918 C919 1.387 . S
C919 H904 0.930 . S
C919 C914 1.390 . S
C919 C918 1.387 . S
C285 C17 3.239 . S
C297 C119 3.227 . S
C312 C4 1.512 . S
C324 C51 1.518 . S
C339 C38 0.297 . S
C351 C72 0.490 1_554 S
C366 C85 1.518 . S
C378 C106 1.514 . S
C393 C8 3.230 . S
C405 C178 3.241 . S
C420 C13 1.517 . S
C432 C144 1.513 . S
C447 C149 0.431 . S
C459 C81 0.361 . S
C474 C183 1.516 . S
C486 C76 1.519 . S
C501 C221 3.238 . S
C513 C187 3.231 . S
C528 C153 1.518 . S
C540 C208 1.517 . S
C555 C242 0.489 . S
C567 C140 0.331 . S
C582 C174 1.517 . S
C594 C255 1.519 . S
C609 C110 3.229 . S
C621 C212 3.233 . S
C636 C217 1.512 . S
C648 C42 1.512 . S
C663 C47 0.460 . S
C675 C251 0.329 . S
C690 C115 1.515 . S
C702 C246 1.518 . S
C717 C0 1.154 1_565 S
C729 C29 1.141 . S
C744 C63 1.196 . S
C756 C34 1.183 1_554 S
C771 C68 1.184 . S
C783 C97 1.195 . S
C798 C102 1.154 1_556 S
C810 C131 1.134 . S
C825 C165 1.195 1_556 S
C837 C136 1.185 . S
C852 C170 1.157 . S
C864 C199 1.133 1_554 S
C879 C233 1.155 . S
C891 C204 1.139 . S
C906 C267 1.201 . S
C918 C238 1.167 . S
