# Generated by pormake.
# Topology sow, (4)-cn, num edge types: 1
# Building blocks:
#     Node 0, Type 0, BuildingBlock: KOZSID_clean_sbu_0, # of connection points: 4
#     Node 1, Type 0, BuildingBlock: KOZSID_clean_sbu_0, # of connection points: 4
#     Node 2, Type 0, BuildingBlock: KOZSID_clean_sbu_0, # of connection points: 4
#     Node 3, Type 0, BuildingBlock: KOZSID_clean_sbu_0, # of connection points: 4
#     Node 4, Type 0, BuildingBlock: KOZSID_clean_sbu_0, # of connection points: 4
#     Node 5, Type 0, BuildingBlock: KOZSID_clean_sbu_0, # of connection points: 4
#     Node 6, Type 0, BuildingBlock: KOZSID_clean_sbu_0, # of connection points: 4
#     Node 7, Type 0, BuildingBlock: KOZSID_clean_sbu_0, # of connection points: 4
#     Edge 8, Type (0, 0), BuildingBlock: MIFKUJ_clean_linker_0, # of connection points: 2
#     Edge 9, Type (0, 0), BuildingBlock: MIFKUJ_clean_linker_0, # of connection points: 2
#     Edge 10, Type (0, 0), BuildingBlock: MIFKUJ_clean_linker_0, # of connection points: 2
#     Edge 11, Type (0, 0), BuildingBlock: MIFKUJ_clean_linker_0, # of connection points: 2
#     Edge 12, Type (0, 0), BuildingBlock: MIFKUJ_clean_linker_0, # of connection points: 2
#     Edge 13, Type (0, 0), BuildingBlock: MIFKUJ_clean_linker_0, # of connection points: 2
#     Edge 14, Type (0, 0), BuildingBlock: MIFKUJ_clean_linker_0, # of connection points: 2
#     Edge 15, Type (0, 0), BuildingBlock: MIFKUJ_clean_linker_0, # of connection points: 2
#     Edge 16, Type (0, 0), BuildingBlock: MIFKUJ_clean_linker_0, # of connection points: 2
#     Edge 17, Type (0, 0), BuildingBlock: MIFKUJ_clean_linker_0, # of connection points: 2
#     Edge 18, Type (0, 0), BuildingBlock: MIFKUJ_clean_linker_0, # of connection points: 2
#     Edge 19, Type (0, 0), BuildingBlock: MIFKUJ_clean_linker_0, # of connection points: 2
#     Edge 20, Type (0, 0), BuildingBlock: MIFKUJ_clean_linker_0, # of connection points: 2
#     Edge 21, Type (0, 0), BuildingBlock: MIFKUJ_clean_linker_0, # of connection points: 2
#     Edge 22, Type (0, 0), BuildingBlock: MIFKUJ_clean_linker_0, # of connection points: 2
#     Edge 23, Type (0, 0), BuildingBlock: MIFKUJ_clean_linker_0, # of connection points: 2
# Relax obj value: 0.060
# Max RMSD: 0.245
# Mean RMSD: 0.220
data_MOF--net-sow--node1-KOZSID_clean_sbu_0--edge1-MIFKUJ_clean_linker_0
_symmetry_space_group_name_H-M    P1
_symmetry_Int_Tables_number       1
_symmetry_cell_setting            triclinic
loop_
_symmetry_equiv_pos_as_xyz
'x, y, z'
_cell_length_a     70.741329
_cell_length_b     27.326109
_cell_length_c     31.208359
_cell_angle_alpha  90.008158
_cell_angle_beta   90.007797
_cell_angle_gamma 90.073339
loop_
_atom_site_label
_atom_site_type_symbol
_atom_site_fract_x
_atom_site_fract_y
_atom_site_fract_z
_atom_type_partial_charge
C0 C 0.12155 0.12193 0.20301 0.0
C1 C 0.11986 0.07734 0.22378 0.0
C2 C 0.13413 0.04845 0.2086 0.0
C3 C 0.14366 0.07705 0.17958 0.0
N4 N 0.13669 0.12293 0.17637 0.0
Co5 Co 0.14445 0.17481 0.13454 0.0
N6 N 0.16212 0.12891 0.10414 0.0
C7 C 0.16556 0.08162 0.11449 0.0
C8 C 0.17825 0.05912 0.08785 0.0
C9 C 0.18342 0.09421 0.05903 0.0
C10 C 0.17368 0.13651 0.06999 0.0
N11 N 0.15199 0.2267 0.09234 0.0
C12 C 0.16482 0.22561 0.05989 0.0
C13 C 0.16654 0.27115 0.04039 0.0
C14 C 0.1543 0.30175 0.06081 0.0
C15 C 0.14593 0.27364 0.09179 0.0
N16 N 0.12673 0.22053 0.16493 0.0
C17 C 0.12412 0.26864 0.1568 0.0
C18 C 0.10981 0.28925 0.1802 0.0
C19 C 0.10241 0.25171 0.20367 0.0
C20 C 0.11276 0.21023 0.1933 0.0
N21 N 0.1656 0.19545 0.17338 0.0
C22 C 0.19486 0.22374 0.23047 0.0
C23 C 0.18257 0.25831 0.21292 0.0
C24 C 0.16834 0.24361 0.18437 0.0
C25 C 0.19241 0.17491 0.21855 0.0
C26 C 0.1778 0.16169 0.19057 0.0
N27 N 0.12315 0.15395 0.09705 0.0
C28 C 0.09173 0.17107 0.07026 0.0
C29 C 0.08775 0.12102 0.06686 0.0
C30 C 0.10247 0.08813 0.07472 0.0
C31 C 0.11992 0.10524 0.08948 0.0
C32 C 0.10957 0.18667 0.08443 0.0
H33 H 0.13022 0.07812 0.09691 0.0
H34 H 0.1118 0.22527 0.08707 0.0
H35 H 0.15978 0.27205 0.17171 0.0
H36 H 0.17668 0.1238 0.18363 0.0
C37 C 0.1568 0.05958 0.14981 0.0
C38 C 0.1076 0.1609 0.20686 0.0
C39 C 0.17625 0.18314 0.04755 0.0
C40 C 0.13315 0.29108 0.12224 0.0
H41 H 0.10888 0.06625 0.24592 0.0
H42 H 0.13641 0.0101 0.21557 0.0
H43 H 0.18325 0.02175 0.08938 0.0
H44 H 0.19339 0.08927 0.0331 0.0
H45 H 0.17596 0.28178 0.01475 0.0
H46 H 0.15214 0.34032 0.05458 0.0
H47 H 0.10447 0.32628 0.17807 0.0
H48 H 0.09014 0.25435 0.22413 0.0
H49 H 0.18406 0.29675 0.22074 0.0
H50 H 0.2015 0.14666 0.2315 0.0
H51 H 0.08099 0.19807 0.06309 0.0
H52 H 0.10022 0.04903 0.07212 0.0
C53 C 0.39647 0.38323 0.69771 0.0
C54 C 0.39948 0.42962 0.71453 0.0
C55 C 0.38507 0.4584 0.70007 0.0
C56 C 0.37421 0.42838 0.67493 0.0
N57 N 0.38045 0.38167 0.67354 0.0
Co58 Co 0.37137 0.32857 0.63405 0.0
N59 N 0.35333 0.37391 0.60426 0.0
C60 C 0.34993 0.4212 0.61451 0.0
C61 C 0.33677 0.4432 0.58875 0.0
C62 C 0.33123 0.40771 0.56067 0.0
C63 C 0.34128 0.36572 0.57111 0.0
N64 N 0.36307 0.27572 0.59353 0.0
C65 C 0.35021 0.27663 0.56116 0.0
C66 C 0.34845 0.23096 0.54192 0.0
C67 C 0.36072 0.20047 0.5624 0.0
C68 C 0.3692 0.22881 0.5931 0.0
N69 N 0.38892 0.28297 0.66463 0.0
C70 C 0.39061 0.23421 0.65877 0.0
C71 C 0.40414 0.21309 0.68423 0.0
C72 C 0.41194 0.25099 0.70668 0.0
C73 C 0.40278 0.29311 0.69316 0.0
N74 N 0.35069 0.3102 0.67504 0.0
C75 C 0.32171 0.28448 0.73373 0.0
C76 C 0.33237 0.24864 0.71301 0.0
C77 C 0.34646 0.26213 0.6837 0.0
C78 C 0.3257 0.33338 0.72441 0.0
C79 C 0.34021 0.3453 0.69567 0.0
N80 N 0.39211 0.34729 0.59415 0.0
C81 C 0.42346 0.33034 0.56697 0.0
C82 C 0.42649 0.38002 0.55852 0.0
C83 C 0.41134 0.41209 0.56404 0.0
C84 C 0.39439 0.39508 0.5817 0.0
C85 C 0.4061 0.31467 0.58384 0.0
H86 H 0.38373 0.42188 0.58719 0.0
H87 H 0.40463 0.27643 0.59051 0.0
H88 H 0.35364 0.23282 0.66845 0.0
H89 H 0.34266 0.38324 0.69086 0.0
C90 C 0.36008 0.44458 0.64706 0.0
C91 C 0.40965 0.34223 0.70274 0.0
C92 C 0.33879 0.31905 0.54869 0.0
C93 C 0.38168 0.21133 0.62425 0.0
H94 H 0.41122 0.44246 0.73354 0.0
H95 H 0.38349 0.49743 0.70478 0.0
H96 H 0.33193 0.48074 0.58995 0.0
H97 H 0.32097 0.41237 0.53529 0.0
H98 H 0.33896 0.2202 0.51642 0.0
H99 H 0.36279 0.1618 0.55651 0.0
H100 H 0.40875 0.17534 0.68413 0.0
H101 H 0.42392 0.24858 0.72816 0.0
H102 H 0.32964 0.21019 0.71884 0.0
H103 H 0.31787 0.36249 0.73989 0.0
H104 H 0.43468 0.30396 0.56213 0.0
H105 H 0.41296 0.4508 0.55745 0.0
C106 C 0.62217 0.39014 0.79775 0.0
C107 C 0.62004 0.43518 0.77794 0.0
C108 C 0.63446 0.4641 0.79244 0.0
C109 C 0.64448 0.43511 0.82021 0.0
N110 N 0.63771 0.38894 0.82324 0.0
Co111 Co 0.64596 0.33689 0.86458 0.0
N112 N 0.66451 0.38216 0.89296 0.0
C113 C 0.66878 0.42836 0.88064 0.0
C114 C 0.68283 0.44956 0.90455 0.0
C115 C 0.68803 0.41468 0.93355 0.0
C116 C 0.67673 0.37406 0.92583 0.0
N117 N 0.65348 0.28541 0.9071 0.0
C118 C 0.66618 0.28695 0.93968 0.0
C119 C 0.66659 0.24312 0.96219 0.0
C120 C 0.65404 0.21249 0.94262 0.0
C121 C 0.64656 0.23933 0.90966 0.0
N122 N 0.62783 0.29131 0.83549 0.0
C123 C 0.62549 0.24306 0.84337 0.0
C124 C 0.61118 0.22215 0.82003 0.0
C125 C 0.60363 0.25953 0.79665 0.0
C126 C 0.61385 0.30127 0.80709 0.0
N127 N 0.66652 0.31507 0.82463 0.0
C128 C 0.69618 0.28553 0.76879 0.0
C129 C 0.68622 0.25138 0.79354 0.0
C130 C 0.67159 0.26675 0.82089 0.0
C131 C 0.69082 0.33457 0.77238 0.0
C132 C 0.67624 0.34831 0.80011 0.0
N133 N 0.62539 0.35901 0.90343 0.0
C134 C 0.59462 0.34433 0.93504 0.0
C135 C 0.59148 0.39466 0.9389 0.0
C136 C 0.60623 0.42641 0.9284 0.0
C137 C 0.62307 0.4079 0.91166 0.0
C138 C 0.61164 0.32732 0.91736 0.0
H139 H 0.63367 0.43407 0.90359 0.0
H140 H 0.61307 0.28861 0.91331 0.0
H141 H 0.6647 0.23876 0.83879 0.0
H142 H 0.67317 0.38626 0.80089 0.0
C143 C 0.65901 0.45127 0.8472 0.0
C144 C 0.60855 0.35039 0.79333 0.0
C145 C 0.67865 0.32812 0.94953 0.0
C146 C 0.63411 0.22126 0.87874 0.0
H147 H 0.60882 0.44634 0.7565 0.0
H148 H 0.63676 0.50242 0.78534 0.0
H149 H 0.68868 0.48598 0.90114 0.0
H150 H 0.69906 0.41854 0.95734 0.0
H151 H 0.67534 0.23389 0.98947 0.0
H152 H 0.65104 0.17479 0.95083 0.0
H153 H 0.60587 0.18507 0.82231 0.0
H154 H 0.59134 0.25671 0.7762 0.0
H155 H 0.68981 0.2129 0.79239 0.0
H156 H 0.69768 0.36261 0.75341 0.0
H157 H 0.58363 0.31839 0.9434 0.0
H158 H 0.60456 0.46562 0.93195 0.0
C159 C 0.8944 0.10725 0.30434 0.0
C160 C 0.89477 0.06242 0.2835 0.0
C161 C 0.87759 0.04056 0.29111 0.0
C162 C 0.86776 0.07285 0.31644 0.0
N163 N 0.8777 0.11363 0.32497 0.0
Co164 Co 0.87013 0.16715 0.36435 0.0
N165 N 0.85078 0.12562 0.39286 0.0
C166 C 0.84355 0.08381 0.37677 0.0
C167 C 0.82989 0.06359 0.40251 0.0
C168 C 0.82817 0.09504 0.43651 0.0
C169 C 0.84088 0.133 0.42955 0.0
N170 N 0.86292 0.22099 0.40382 0.0
C171 C 0.85219 0.22027 0.4399 0.0
C172 C 0.85013 0.26715 0.45649 0.0
C173 C 0.85955 0.2982 0.42941 0.0
C174 C 0.86687 0.26879 0.39791 0.0
N175 N 0.88909 0.20869 0.33512 0.0
C176 C 0.88969 0.25783 0.33508 0.0
C177 C 0.90474 0.27594 0.3121 0.0
C178 C 0.91417 0.23549 0.29706 0.0
C179 C 0.90433 0.19501 0.31199 0.0
N180 N 0.8509 0.18899 0.32301 0.0
C181 C 0.82328 0.21734 0.2628 0.0
C182 C 0.81917 0.21558 0.3068 0.0
C183 C 0.83311 0.20159 0.33621 0.0
C184 C 0.84169 0.20501 0.2499 0.0
C185 C 0.85517 0.19085 0.28028 0.0
N186 N 0.88962 0.14465 0.40464 0.0
C187 C 0.92118 0.15603 0.43206 0.0
C188 C 0.92344 0.10517 0.43731 0.0
C189 C 0.9073 0.07585 0.43123 0.0
C190 C 0.89076 0.09602 0.41444 0.0
C191 C 0.90408 0.17501 0.41654 0.0
H192 H 0.87941 0.07137 0.40652 0.0
H193 H 0.90314 0.21387 0.41086 0.0
H194 H 0.82936 0.20053 0.36962 0.0
H195 H 0.8691 0.18122 0.26908 0.0
C196 C 0.85165 0.06163 0.34063 0.0
C197 C 0.90961 0.14407 0.3037 0.0
C198 C 0.84164 0.1776 0.45595 0.0
C199 C 0.87877 0.28412 0.36452 0.0
H200 H 0.90626 0.0464 0.26555 0.0
H201 H 0.87335 0.004 0.2818 0.0
H202 H 0.82233 0.02958 0.39762 0.0
H203 H 0.81837 0.09104 0.46293 0.0
H204 H 0.8421 0.278 0.48443 0.0
H205 H 0.86093 0.3375 0.43246 0.0
H206 H 0.90905 0.31378 0.30891 0.0
H207 H 0.92698 0.23563 0.2781 0.0
H208 H 0.80516 0.22404 0.31859 0.0
H209 H 0.84579 0.20656 0.21651 0.0
H210 H 0.93281 0.18113 0.43689 0.0
H211 H 0.90753 0.03692 0.43739 0.0
C212 C 0.88617 0.94295 0.99291 0.0
C213 C 0.88536 0.99356 0.99609 0.0
C214 C 0.86847 0.00754 0.9782 0.0
C215 C 0.85999 0.96493 0.96486 0.0
N216 N 0.8705 0.92518 0.97344 0.0
Co217 Co 0.86451 0.85681 0.95712 0.0
N218 N 0.84635 0.87847 0.91259 0.0
C219 C 0.83849 0.92328 0.90996 0.0
C220 C 0.82606 0.92762 0.87642 0.0
C221 C 0.82587 0.88257 0.85715 0.0
C222 C 0.8382 0.85301 0.8802 0.0
N223 N 0.8586 0.78816 0.94119 0.0
C224 C 0.84926 0.77011 0.90665 0.0
C225 C 0.84752 0.71958 0.90943 0.0
C226 C 0.85577 0.70585 0.94735 0.0
C227 C 0.86211 0.74853 0.96562 0.0
N228 N 0.88262 0.83576 1.00178 0.0
C229 C 0.88343 0.79147 0.02037 0.0
C230 C 0.89813 0.78775 0.04906 0.0
C231 C 0.90707 0.8325 0.04814 0.0
C232 C 0.89729 0.8609 0.0188 0.0
N233 N 0.84398 0.85523 0.99942 0.0
C234 C 0.81562 0.84496 0.06193 0.0
C235 C 0.83283 0.86815 0.07155 0.0
C236 C 0.84677 0.87295 0.03993 0.0
C237 C 0.81279 0.82848 0.01986 0.0
C238 C 0.82701 0.83414 0.98925 0.0
N239 N 0.88513 0.85807 0.91538 0.0
C240 C 0.91478 0.82486 0.89137 0.0
C241 C 0.91783 0.86596 0.86569 0.0
C242 C 0.90385 0.90201 0.86362 0.0
C243 C 0.8876 0.89749 0.88893 0.0
C244 C 0.89822 0.82127 0.91545 0.0
H245 H 0.87737 0.92668 0.88828 0.0
H246 H 0.89639 0.78953 0.93549 0.0
H247 H 0.85998 0.89018 0.04849 0.0
H248 H 0.82438 0.82019 0.95757 0.0
C249 C 0.8449 0.9617 0.93596 0.0
C250 C 0.90164 0.91211 0.00886 0.0
C251 C 0.83993 0.7999 0.87359 0.0
C252 C 0.87317 0.7523 0.00288 0.0
H253 H 0.89592 0.01807 0.00903 0.0
H254 H 0.8636 0.0446 0.97294 0.0
H255 H 0.81831 0.95987 0.86663 0.0
H256 H 0.81727 0.8723 0.82991 0.0
H257 H 0.84057 0.69536 0.88694 0.0
H258 H 0.85718 0.66906 0.95979 0.0
H259 H 0.90255 0.75557 0.06659 0.0
H260 H 0.91942 0.84293 0.06649 0.0
H261 H 0.83561 0.8823 0.10334 0.0
H262 H 0.7999 0.80979 0.01075 0.0
H263 H 0.92527 0.7961 0.89333 0.0
H264 H 0.90579 0.93423 0.84387 0.0
C265 C 0.62712 0.56311 0.4965 0.0
C266 C 0.62723 0.51304 0.50374 0.0
C267 C 0.64431 0.49611 0.48889 0.0
C268 C 0.65361 0.53665 0.47339 0.0
N269 N 0.64342 0.57778 0.4779 0.0
Co270 Co 0.65053 0.64399 0.45791 0.0
N271 N 0.66899 0.61712 0.41646 0.0
C272 C 0.67627 0.57157 0.41731 0.0
C273 C 0.68903 0.5634 0.38498 0.0
C274 C 0.69003 0.60667 0.36286 0.0
C275 C 0.67785 0.63913 0.38314 0.0
N276 N 0.65767 0.71058 0.43858 0.0
C277 C 0.66762 0.72495 0.40365 0.0
C278 C 0.67009 0.77539 0.4036 0.0
C279 C 0.66162 0.79283 0.44009 0.0
C280 C 0.65445 0.75231 0.46042 0.0
N281 N 0.63193 0.67011 0.49925 0.0
C282 C 0.63129 0.71582 0.51497 0.0
C283 C 0.6158 0.72316 0.54089 0.0
C284 C 0.60617 0.67931 0.54107 0.0
C285 C 0.61637 0.64779 0.51517 0.0
N286 N 0.67043 0.64717 0.50178 0.0
C287 C 0.69853 0.65679 0.56519 0.0
C288 C 0.68067 0.63716 0.57501 0.0
C289 C 0.66687 0.63272 0.54297 0.0
C290 C 0.70198 0.67067 0.52263 0.0
C291 C 0.68788 0.66536 0.49162 0.0
N292 N 0.63055 0.64117 0.41456 0.0
C293 C 0.60249 0.67707 0.38456 0.0
C294 C 0.59766 0.63268 0.36484 0.0
C295 C 0.61043 0.59357 0.3682 0.0
C296 C 0.62687 0.59874 0.39285 0.0
C297 C 0.61886 0.68047 0.40927 0.0
H298 H 0.63615 0.56767 0.39599 0.0
H299 H 0.62158 0.71443 0.42566 0.0
H300 H 0.65322 0.61802 0.55161 0.0
H301 H 0.69111 0.6769 0.45947 0.0
C302 C 0.66911 0.53604 0.44548 0.0
C303 C 0.61162 0.59638 0.50726 0.0
C304 C 0.67677 0.69165 0.37299 0.0
C305 C 0.64255 0.75256 0.49655 0.0
H306 H 0.61604 0.49094 0.51731 0.0
H307 H 0.64879 0.45832 0.48686 0.0
H308 H 0.69646 0.52978 0.37782 0.0
H309 H 0.69905 0.61384 0.33556 0.0
H310 H 0.67761 0.79717 0.38016 0.0
H311 H 0.66051 0.83065 0.4501 0.0
H312 H 0.61134 0.7571 0.5556 0.0
H313 H 0.59309 0.67155 0.55775 0.0
H314 H 0.67734 0.62516 0.60719 0.0
H315 H 0.71534 0.68678 0.51327 0.0
H316 H 0.59346 0.7089 0.38186 0.0
H317 H 0.60742 0.55852 0.35353 0.0
C318 C 0.39176 0.57301 0.01237 0.0
C319 C 0.39182 0.52378 1.00171 0.0
C320 C 0.37426 0.50591 0.01257 0.0
C321 C 0.36454 0.54522 0.0291 0.0
N322 N 0.3749 0.58641 0.02888 0.0
Co323 Co 0.36734 0.65082 0.0518 0.0
N324 N 0.34791 0.62083 0.08918 0.0
C325 C 0.34043 0.57582 0.08396 0.0
C326 C 0.32654 0.56548 0.11327 0.0
C327 C 0.32503 0.60675 0.13803 0.0
C328 C 0.33817 0.64021 0.12248 0.0
N329 N 0.35976 0.71575 0.07416 0.0
C330 C 0.34918 0.72741 0.10888 0.0
C331 C 0.34744 0.77789 0.11267 0.0
C332 C 0.35673 0.79808 0.07834 0.0
C333 C 0.36379 0.75912 0.05571 0.0
N334 N 0.38697 0.67983 0.01439 0.0
C335 C 0.38805 0.7267 1.00168 0.0
C336 C 0.40427 0.73606 0.97876 0.0
C337 C 0.41392 0.69237 0.97738 0.0
C338 C 0.40296 0.65867 0.99945 0.0
N339 N 0.34848 0.65763 0.00593 0.0
C340 C 0.32152 0.67172 0.94083 0.0
C341 C 0.33974 0.6546 0.93119 0.0
C342 C 0.35296 0.64751 0.9642 0.0
C343 C 0.31714 0.6812 0.98378 0.0
C344 C 0.33072 0.67408 0.01558 0.0
N345 N 0.3862 0.64451 0.09732 0.0
C346 C 0.41324 0.67796 0.13375 0.0
C347 C 0.41712 0.63243 0.15224 0.0
C348 C 0.40464 0.59358 0.14438 0.0
C349 C 0.38911 0.60057 0.11723 0.0
C350 C 0.39779 0.6832 0.10642 0.0
H351 H 0.37989 0.56992 0.11098 0.0
H352 H 0.39575 0.71812 0.09118 0.0
H353 H 0.36687 0.63424 0.95598 0.0
H354 H 0.32681 0.68266 0.04802 0.0
C355 C 0.34822 0.54262 0.05448 0.0
C356 C 0.40759 0.60675 0.0059 0.0
C357 C 0.33913 0.69178 0.13615 0.0
C358 C 0.37651 0.762 0.02117 0.0
H359 H 0.40342 0.50299 0.98835 0.0
H360 H 0.36967 0.46814 0.01136 0.0
H361 H 0.31859 0.53183 0.11659 0.0
H362 H 0.31493 0.61203 0.16365 0.0
H363 H 0.34002 0.79811 0.13727 0.0
H364 H 0.35857 0.83662 0.07148 0.0
H365 H 0.40922 0.77117 0.96725 0.0
H366 H 0.4276 0.68655 0.96281 0.0
H367 H 0.34374 0.64643 0.89847 0.0
H368 H 0.3034 0.69522 0.99285 0.0
H369 H 0.42258 0.70889 0.13879 0.0
H370 H 0.40703 0.55793 0.15851 0.0
C371 C 0.12412 0.92558 0.50889 0.0
C372 C 0.1235 0.975 0.49888 0.0
C373 C 0.14031 0.99474 0.51268 0.0
C374 C 0.15017 0.95643 0.5304 0.0
N375 N 0.14063 0.91395 0.52822 0.0
Co376 Co 0.14872 0.85019 0.5521 0.0
N377 N 0.16694 0.8821 0.59161 0.0
C378 C 0.17322 0.92856 0.58854 0.0
C379 C 0.1856 0.94093 0.62061 0.0
C380 C 0.18749 0.89946 0.64488 0.0
C381 C 0.17629 0.86367 0.62591 0.0
N382 N 0.15687 0.78597 0.57524 0.0
C383 C 0.16763 0.7752 0.60997 0.0
C384 C 0.17098 0.72516 0.61236 0.0
C385 C 0.16222 0.70425 0.57767 0.0
C386 C 0.15405 0.7424 0.55594 0.0
N387 N 0.13029 0.81914 0.5128 0.0
C388 C 0.13023 0.77228 0.49986 0.0
C389 C 0.11485 0.76145 0.47452 0.0
C390 C 0.10467 0.80424 0.47171 0.0
C391 C 0.11444 0.83868 0.49563 0.0
N392 N 0.1685 0.8452 0.50811 0.0
C393 C 0.19595 0.82647 0.4449 0.0
C394 C 0.17773 0.84257 0.43372 0.0
C395 C 0.16432 0.85221 0.46574 0.0
C396 C 0.20025 0.82246 0.48863 0.0
C397 C 0.1864 0.83147 0.51943 0.0
N398 N 0.12888 0.85448 0.59557 0.0
C399 C 0.10086 0.81937 0.62655 0.0
C400 C 0.09635 0.86408 0.64576 0.0
C401 C 0.10906 0.90315 0.64158 0.0
C402 C 0.12525 0.89763 0.61621 0.0
C403 C 0.11725 0.81518 0.60208 0.0
H404 H 0.1344 0.92882 0.61181 0.0
H405 H 0.12003 0.78063 0.58675 0.0
H406 H 0.15038 0.86391 0.45616 0.0
H407 H 0.19018 0.82603 0.55244 0.0
C408 C 0.16551 0.96093 0.55841 0.0
C409 C 0.10902 0.89016 0.50019 0.0
C410 C 0.17691 0.81152 0.63786 0.0
C411 C 0.14203 0.73825 0.52023 0.0
H412 H 0.112 0.99501 0.48429 0.0
H413 H 0.1442 0.03306 0.5127 0.0
H414 H 0.1922 0.97612 0.62617 0.0
H415 H 0.19652 0.89569 0.67267 0.0
H416 H 0.17935 0.70586 0.63593 0.0
H417 H 0.16175 0.66576 0.56953 0.0
H418 H 0.11086 0.72605 0.46184 0.0
H419 H 0.09152 0.80945 0.45457 0.0
H420 H 0.17358 0.84631 0.40051 0.0
H421 H 0.21421 0.81187 0.49935 0.0
H422 H 0.09157 0.78803 0.62972 0.0
H423 H 0.10609 0.93828 0.65616 0.0
H424 H 0.32422 0.22256 0.80234 0.0
H425 H 0.29965 0.20226 0.85461 0.0
H426 H 0.26018 0.29406 0.78637 0.0
H427 H 0.2851 0.3164 0.73555 0.0
H428 H 0.2544 0.30892 0.86379 0.0
H429 H 0.26046 0.16033 0.78495 0.0
H430 H 0.27609 0.08868 0.75262 0.0
H431 H 0.29358 0.0399 0.87723 0.0
H432 H 0.27829 0.1117 0.91029 0.0
H433 H 0.17162 0.20503 0.96254 0.0
H434 H 0.19632 0.21894 0.90844 0.0
H435 H 0.23913 0.18455 1.00196 0.0
H436 H 0.21448 0.17265 0.05659 0.0
H437 H 0.24241 0.13875 0.91212 0.0
H438 H 0.23499 0.29279 0.98814 0.0
H439 H 0.21576 0.36079 0.01626 0.0
H440 H 0.19723 0.39536 0.88879 0.0
H441 H 0.21606 0.32685 0.86001 0.0
C442 C 0.31026 0.2382 0.79848 0.0
C443 C 0.30657 0.271 0.76481 0.0
C444 C 0.29613 0.22632 0.82825 0.0
C445 C 0.27778 0.24575 0.82432 0.0
C446 C 0.27413 0.27846 0.79045 0.0
C447 C 0.28838 0.2912 0.76128 0.0
C448 C 0.26257 0.23332 0.85607 0.0
C449 C 0.25171 0.2715 0.87368 0.0
C450 C 0.25895 0.18462 0.86988 0.0
C451 C 0.2684 0.14173 0.85006 0.0
C452 C 0.26779 0.13459 0.80544 0.0
C453 C 0.27657 0.0939 0.78698 0.0
C454 C 0.28587 0.05983 0.81285 0.0
C455 C 0.2864 0.06637 0.85723 0.0
C456 C 0.27768 0.10706 0.87585 0.0
C457 C 0.18631 0.20044 0.97144 0.0
C458 C 0.19118 0.18818 0.01377 0.0
C459 C 0.20038 0.20821 0.94056 0.0
C460 C 0.21956 0.20282 0.95121 0.0
C461 C 0.22442 0.18875 0.99305 0.0
C462 C 0.21037 0.18201 0.02418 0.0
C463 C 0.23454 0.21422 0.91923 0.0
C464 C 0.24526 0.17595 0.90181 0.0
C465 C 0.23775 0.26255 0.90481 0.0
C466 C 0.22677 0.30437 0.92199 0.0
C467 C 0.22668 0.31461 0.96615 0.0
C468 C 0.21587 0.35328 0.98221 0.0
C469 C 0.20524 0.3823 0.95434 0.0
C470 C 0.20545 0.3728 0.91034 0.0
C471 C 0.21619 0.33406 0.89414 0.0
H472 H 0.19688 0.41222 0.96683 0.0
H473 H 0.29262 0.02829 0.79851 0.0
H474 H 0.19189 0.28345 0.30066 0.0
H475 H 0.21637 0.30365 0.35318 0.0
H476 H 0.25671 0.21786 0.28166 0.0
H477 H 0.23203 0.19613 0.23015 0.0
H478 H 0.26173 0.19828 0.35934 0.0
H479 H 0.25566 0.34979 0.28519 0.0
H480 H 0.24039 0.42314 0.25499 0.0
H481 H 0.22291 0.4674 0.38088 0.0
H482 H 0.23778 0.39381 0.4118 0.0
H483 H 0.34387 0.29783 0.46378 0.0
H484 H 0.31946 0.28515 0.40876 0.0
H485 H 0.27616 0.31808 0.50153 0.0
H486 H 0.30051 0.3288 0.55702 0.0
H487 H 0.27336 0.3663 0.41353 0.0
H488 H 0.28033 0.20973 0.48497 0.0
H489 H 0.29916 0.14033 0.51179 0.0
H490 H 0.31832 0.10982 0.38401 0.0
H491 H 0.29988 0.17973 0.35654 0.0
C492 C 0.20603 0.26929 0.29599 0.0
C493 C 0.21001 0.23819 0.26124 0.0
C494 C 0.22009 0.28104 0.32597 0.0
C495 C 0.23861 0.26294 0.32136 0.0
C496 C 0.2426 0.2323 0.28627 0.0
C497 C 0.22847 0.21988 0.25674 0.0
C498 C 0.2536 0.27415 0.35386 0.0
C499 C 0.26435 0.23524 0.37054 0.0
C500 C 0.25706 0.32223 0.36938 0.0
C501 C 0.24766 0.3659 0.35076 0.0
C502 C 0.24837 0.37483 0.3064 0.0
C503 C 0.23982 0.41652 0.28915 0.0
C504 C 0.23064 0.44983 0.31598 0.0
C505 C 0.22998 0.44149 0.36012 0.0
C506 C 0.23847 0.39978 0.37752 0.0
C507 C 0.32913 0.30231 0.47231 0.0
C508 C 0.32403 0.31401 0.51462 0.0
C509 C 0.31523 0.29524 0.44093 0.0
C510 C 0.29601 0.3007 0.45109 0.0
C511 C 0.29092 0.3139 0.493 0.0
C512 C 0.3048 0.31995 0.52461 0.0
C513 C 0.28121 0.29058 0.41841 0.0
C514 C 0.27058 0.32956 0.40194 0.0
C515 C 0.2781 0.24287 0.4024 0.0
C516 C 0.28889 0.20029 0.41877 0.0
C517 C 0.28869 0.18851 0.46264 0.0
C518 C 0.29928 0.14904 0.47796 0.0
C519 C 0.30997 0.12077 0.44964 0.0
C520 C 0.31005 0.13181 0.40592 0.0
C521 C 0.29954 0.17135 0.39046 0.0
H522 H 0.31816 0.09022 0.46155 0.0
H523 H 0.22409 0.48219 0.3026 0.0
H524 H 0.79474 0.28541 0.27103 0.0
H525 H 0.77036 0.30685 0.21884 0.0
H526 H 0.79399 0.20402 0.12895 0.0
H527 H 0.8181 0.18122 0.18123 0.0
H528 H 0.78555 0.29234 0.09087 0.0
H529 H 0.75452 0.17555 0.18233 0.0
H530 H 0.74358 0.14188 0.25131 0.0
H531 H 0.71074 0.27139 0.27384 0.0
H532 H 0.7217 0.30616 0.20521 0.0
H533 H 0.71023 0.27212 0.94166 0.0
H534 H 0.73488 0.25719 0.99535 0.0
H535 H 0.7064 0.35414 0.08329 0.0
H536 H 0.68153 0.36831 0.02956 0.0
H537 H 0.71733 0.27286 0.12372 0.0
H538 H 0.74714 0.38894 0.03172 0.0
H539 H 0.75799 0.42361 0.96306 0.0
H540 H 0.79318 0.29795 0.94212 0.0
H541 H 0.78232 0.26213 0.01038 0.0
C542 C 0.79468 0.26681 0.2404 0.0
C543 C 0.80849 0.23136 0.23065 0.0
C544 C 0.78073 0.27936 0.21045 0.0
C545 C 0.78024 0.25689 0.16997 0.0
C546 C 0.79411 0.22204 0.15987 0.0
C547 C 0.80798 0.20921 0.18987 0.0
C548 C 0.76525 0.26946 0.13819 0.0
C549 C 0.77064 0.28755 0.09788 0.0
C550 C 0.74575 0.26456 0.14765 0.0
C551 C 0.73909 0.24368 0.18885 0.0
C552 C 0.74509 0.19703 0.20216 0.0
C553 C 0.73886 0.17772 0.24116 0.0
C554 C 0.72652 0.20454 0.267 0.0
C555 C 0.72033 0.25069 0.25382 0.0
C556 C 0.72653 0.27021 0.21486 0.0
C557 C 0.70937 0.29045 0.97238 0.0
C558 C 0.69413 0.3216 0.98152 0.0
C559 C 0.72346 0.28207 0.00301 0.0
C560 C 0.72268 0.30495 0.04335 0.0
C561 C 0.70738 0.33613 0.05246 0.0
C562 C 0.69326 0.34446 0.02177 0.0
C563 C 0.73762 0.29546 0.07617 0.0
C564 C 0.73223 0.27793 0.11671 0.0
C565 C 0.75712 0.30111 0.06699 0.0
C566 C 0.76378 0.32264 0.02601 0.0
C567 C 0.75708 0.36851 0.01233 0.0
C568 C 0.76325 0.3884 0.97349 0.0
C569 C 0.77623 0.36295 0.94819 0.0
C570 C 0.7831 0.3176 0.96173 0.0
C571 C 0.77696 0.2975 1.00051 0.0
H572 H 0.78099 0.37842 0.91814 0.0
H573 H 0.72171 0.18951 0.29719 0.0
H574 H 0.72919 0.33492 0.75123 0.0
H575 H 0.75372 0.31383 0.69947 0.0
H576 H 0.72394 0.18093 0.66795 0.0
H577 H 0.69902 0.20225 0.7191 0.0
H578 H 0.76219 0.16532 0.67381 0.0
H579 H 0.72068 0.27713 0.60306 0.0
H580 H 0.70252 0.35343 0.59429 0.0
H581 H 0.75395 0.4369 0.59656 0.0
H582 H 0.77243 0.36114 0.6063 0.0
H583 H 0.80443 0.1975 0.44346 0.0
H584 H 0.77995 0.21256 0.49758 0.0
H585 H 0.82126 0.19228 0.59775 0.0
H586 H 0.84572 0.17676 0.54328 0.0
H587 H 0.77619 0.28204 0.55621 0.0
H588 H 0.79866 0.14289 0.68646 0.0
H589 H 0.81475 0.06307 0.69186 0.0
H590 H 0.79798 0.02811 0.56319 0.0
H591 H 0.78154 0.10733 0.55727 0.0
C592 C 0.7277 0.30133 0.73314 0.0
C593 C 0.71187 0.27068 0.73919 0.0
C594 C 0.74185 0.28919 0.70363 0.0
C595 C 0.74062 0.24604 0.67934 0.0
C596 C 0.72524 0.21442 0.68629 0.0
C597 C 0.71099 0.22665 0.71573 0.0
C598 C 0.75507 0.23487 0.64579 0.0
C599 C 0.7653 0.19091 0.64819 0.0
C600 C 0.75895 0.26779 0.61181 0.0
C601 C 0.74792 0.31347 0.60586 0.0
C602 C 0.72811 0.31179 0.60211 0.0
C603 C 0.71777 0.35494 0.59696 0.0
C604 C 0.72708 0.4 0.59508 0.0
C605 C 0.74677 0.40198 0.59824 0.0
C606 C 0.75719 0.35894 0.60357 0.0
C607 C 0.80818 0.19595 0.47709 0.0
C608 C 0.82684 0.18547 0.48939 0.0
C609 C 0.79425 0.2048 0.508 0.0
C610 C 0.79864 0.20321 0.55191 0.0
C611 C 0.8174 0.19303 0.56418 0.0
C612 C 0.83137 0.18426 0.53316 0.0
C613 C 0.78361 0.21281 0.58457 0.0
C614 C 0.77323 0.25653 0.58199 0.0
C615 C 0.7794 0.17931 0.61794 0.0
C616 C 0.78906 0.13131 0.62129 0.0
C617 C 0.79835 0.11809 0.65938 0.0
C618 C 0.80753 0.07295 0.66253 0.0
C619 C 0.80744 0.04061 0.62784 0.0
C620 C 0.7981 0.05326 0.58998 0.0
C621 C 0.78887 0.09831 0.5867 0.0
H622 H 0.81457 0.00571 0.63033 0.0
H623 H 0.71905 0.43338 0.59104 0.0
H624 H 0.82108 0.82072 0.14651 0.0
H625 H 0.79721 0.80058 0.20014 0.0
H626 H 0.75315 0.82593 0.10726 0.0
H627 H 0.7769 0.8486 0.054 0.0
H628 H 0.74242 0.85978 0.18282 0.0
H629 H 0.76889 0.70894 0.13189 0.0
H630 H 0.7944 0.65058 0.11507 0.0
H631 H 0.81078 0.64757 0.24754 0.0
H632 H 0.78552 0.70645 0.26506 0.0
H633 H 0.66986 0.72352 0.29143 0.0
H634 H 0.69303 0.75442 0.2391 0.0
H635 H 0.73749 0.73678 0.33256 0.0
H636 H 0.71435 0.70573 0.38446 0.0
H637 H 0.74769 0.69943 0.25635 0.0
H638 H 0.72031 0.84931 0.30713 0.0
H639 H 0.69432 0.90645 0.3232 0.0
H640 H 0.67904 0.90997 0.19007 0.0
H641 H 0.70476 0.85218 0.17328 0.0
C642 C 0.80632 0.823 0.1376 0.0
C643 C 0.801 0.83596 0.09563 0.0
C644 C 0.79265 0.81085 0.16825 0.0
C645 C 0.77335 0.81069 0.15758 0.0
C646 C 0.76794 0.82537 0.11626 0.0
C647 C 0.78159 0.83786 0.08565 0.0
C648 C 0.75885 0.79385 0.18903 0.0
C649 C 0.74346 0.82447 0.19851 0.0
C650 C 0.76029 0.74807 0.21012 0.0
C651 C 0.77543 0.71246 0.1997 0.0
C652 C 0.77802 0.69609 0.15738 0.0
C653 C 0.79242 0.66288 0.14773 0.0
C654 C 0.80423 0.64547 0.1802 0.0
C655 C 0.80163 0.66114 0.22241 0.0
C656 C 0.78727 0.6944 0.23223 0.0
C657 C 0.68458 0.72661 0.30059 0.0
C658 C 0.69045 0.71224 0.34161 0.0
C659 C 0.69779 0.74434 0.27089 0.0
C660 C 0.71703 0.74815 0.28194 0.0
C661 C 0.72277 0.73409 0.32323 0.0
C662 C 0.70959 0.71652 0.35284 0.0
C663 C 0.73132 0.76545 0.25031 0.0
C664 C 0.74666 0.7348 0.24072 0.0
C665 C 0.72975 0.81103 0.22902 0.0
C666 C 0.71435 0.84601 0.23901 0.0
C667 C 0.71131 0.86194 0.28132 0.0
C668 C 0.69664 0.8945 0.29055 0.0
C669 C 0.685 0.91174 0.25769 0.0
C670 C 0.68805 0.89653 0.2155 0.0
C671 C 0.70268 0.86389 0.20611 0.0
H672 H 0.67366 0.93696 0.2649 0.0
H673 H 0.81537 0.61976 0.17266 0.0
H674 H 0.73714 0.64708 0.55766 0.0
H675 H 0.7613 0.66577 0.61086 0.0
H676 H 0.71795 0.69968 0.70334 0.0
H677 H 0.69367 0.6839 0.64947 0.0
H678 H 0.74361 0.76657 0.70703 0.0
H679 H 0.74585 0.59152 0.70629 0.0
H680 H 0.7488 0.50861 0.67574 0.0
H681 H 0.80438 0.54335 0.62953 0.0
H682 H 0.80166 0.6267 0.65919 0.0
H683 H 0.80326 0.77691 0.88853 0.0
H684 H 0.7798 0.74606 0.83723 0.0
H685 H 0.82277 0.73953 0.73933 0.0
H686 H 0.84628 0.77072 0.79093 0.0
H687 H 0.79777 0.6574 0.73922 0.0
H688 H 0.79463 0.83338 0.73949 0.0
H689 H 0.79188 0.91441 0.77367 0.0
H690 H 0.73742 0.87514 0.82385 0.0
H691 H 0.73997 0.79355 0.79045 0.0
C692 C 0.73267 0.6588 0.5892 0.0
C693 C 0.71333 0.66415 0.59895 0.0
C694 C 0.74658 0.66884 0.61991 0.0
C695 C 0.74155 0.68364 0.6615 0.0
C696 C 0.72226 0.68823 0.67159 0.0
C697 C 0.70834 0.67863 0.64076 0.0
C698 C 0.75637 0.69656 0.6938 0.0
C699 C 0.75525 0.7422 0.71445 0.0
C700 C 0.77192 0.66551 0.70301 0.0
C701 C 0.77348 0.61555 0.68466 0.0
C702 C 0.75863 0.58165 0.68926 0.0
C703 C 0.76027 0.53453 0.67216 0.0
C704 C 0.77676 0.52076 0.65068 0.0
C705 C 0.79162 0.55408 0.64616 0.0
C706 C 0.79004 0.60125 0.66313 0.0
C707 C 0.80768 0.76817 0.85618 0.0
C708 C 0.82647 0.77602 0.84344 0.0
C709 C 0.79431 0.75076 0.8269 0.0
C710 C 0.79948 0.74089 0.78431 0.0
C711 C 0.81847 0.74686 0.77202 0.0
C712 C 0.83186 0.76464 0.80135 0.0
C713 C 0.78482 0.72698 0.75226 0.0
C714 C 0.78603 0.68143 0.7317 0.0
C715 C 0.76927 0.75785 0.74329 0.0
C716 C 0.76756 0.8072 0.76278 0.0
C717 C 0.78212 0.8419 0.75804 0.0
C718 C 0.78059 0.88795 0.77723 0.0
C719 C 0.76451 0.89987 0.80101 0.0
C720 C 0.74988 0.86583 0.80547 0.0
C721 C 0.75135 0.81969 0.78637 0.0
H722 H 0.76336 0.93552 0.81589 0.0
H723 H 0.77807 0.48422 0.63768 0.0
H724 H 0.32664 0.71488 0.86214 0.0
H725 H 0.30242 0.73553 0.80897 0.0
H726 H 0.2596 0.67128 0.88973 0.0
H727 H 0.28374 0.64963 0.94244 0.0
H728 H 0.25341 0.64766 0.80768 0.0
H729 H 0.26623 0.79434 0.88636 0.0
H730 H 0.28533 0.8615 0.91659 0.0
H731 H 0.30206 0.90518 0.78999 0.0
H732 H 0.28331 0.83769 0.75899 0.0
H733 H 0.17227 0.76573 0.71521 0.0
H734 H 0.19712 0.73834 0.76502 0.0
H735 H 0.2398 0.79167 0.678 0.0
H736 H 0.21505 0.81809 0.62809 0.0
H737 H 0.2461 0.82063 0.76242 0.0
H738 H 0.23224 0.67396 0.68416 0.0
H739 H 0.21164 0.60915 0.65508 0.0
H740 H 0.19571 0.5672 0.78267 0.0
H741 H 0.21595 0.63243 0.81253 0.0
C742 C 0.31211 0.70449 0.86828 0.0
C743 C 0.30714 0.6809 0.90675 0.0
C744 C 0.29824 0.71674 0.83803 0.0
C745 C 0.2791 0.70564 0.84557 0.0
C746 C 0.27422 0.68049 0.88321 0.0
C747 C 0.28805 0.66843 0.91348 0.0
C748 C 0.26409 0.7211 0.81484 0.0
C749 C 0.25171 0.68559 0.79817 0.0
C750 C 0.26197 0.77048 0.80179 0.0
C751 C 0.27355 0.81054 0.82038 0.0
C752 C 0.27416 0.81789 0.86498 0.0
C753 C 0.28489 0.85609 0.88225 0.0
C754 C 0.29495 0.8875 0.85524 0.0
C755 C 0.2943 0.88075 0.81088 0.0
C756 C 0.28363 0.84251 0.79344 0.0
C757 C 0.18698 0.77145 0.70692 0.0
C758 C 0.19181 0.79459 0.66829 0.0
C759 C 0.20114 0.75577 0.73521 0.0
C760 C 0.22034 0.76306 0.72527 0.0
C761 C 0.22511 0.78596 0.68649 0.0
C762 C 0.211 0.80106 0.65807 0.0
C763 C 0.23551 0.74723 0.75531 0.0
C764 C 0.24788 0.78271 0.77186 0.0
C765 C 0.23754 0.69794 0.76842 0.0
C766 C 0.22546 0.65845 0.75057 0.0
C767 C 0.22421 0.65123 0.70602 0.0
C768 C 0.21262 0.61436 0.68939 0.0
C769 C 0.20234 0.58416 0.71701 0.0
C770 C 0.20366 0.59069 0.76132 0.0
C771 C 0.21519 0.6276 0.77811 0.0
H772 H 0.19338 0.55561 0.70407 0.0
H773 H 0.3032 0.91716 0.86866 0.0
H774 H 0.3077 0.74732 0.12249 0.0
H775 H 0.28367 0.77197 0.17487 0.0
H776 H 0.31428 0.69651 0.27438 0.0
H777 H 0.33867 0.67291 0.22204 0.0
H778 H 0.27441 0.67472 0.26973 0.0
H779 H 0.31626 0.81448 0.27396 0.0
H780 H 0.33433 0.88219 0.24151 0.0
H781 H 0.28298 0.94448 0.19262 0.0
H782 H 0.26462 0.87667 0.2242 0.0
H783 H 0.22312 0.75469 0.44955 0.0
H784 H 0.2472 0.73403 0.3973 0.0
H785 H 0.22477 0.84227 0.31055 0.0
H786 H 0.20149 0.86621 0.36435 0.0
H787 H 0.26043 0.84751 0.30655 0.0
H788 H 0.21802 0.71258 0.2993 0.0
H789 H 0.19856 0.64316 0.32393 0.0
H790 H 0.24826 0.56995 0.36984 0.0
H791 H 0.26801 0.63936 0.34622 0.0
C792 C 0.30948 0.73698 0.15576 0.0
C793 C 0.32522 0.70929 0.16859 0.0
C794 C 0.29572 0.75079 0.18555 0.0
C795 C 0.29727 0.73639 0.22857 0.0
C796 C 0.31288 0.70818 0.24137 0.0
C797 C 0.32681 0.69497 0.21164 0.0
C798 C 0.28233 0.74983 0.25991 0.0
C799 C 0.27149 0.71241 0.27841 0.0
C800 C 0.27807 0.79913 0.26966 0.0
C801 C 0.28908 0.84023 0.25112 0.0
C802 C 0.30883 0.8424 0.256 0.0
C803 C 0.31913 0.88083 0.23781 0.0
C804 C 0.30982 0.91755 0.21493 0.0
C805 C 0.29018 0.91598 0.21031 0.0
C806 C 0.27982 0.87757 0.22838 0.0
C807 C 0.2234 0.77491 0.41975 0.0
C808 C 0.21028 0.81259 0.41166 0.0
C809 C 0.23706 0.76226 0.38936 0.0
C810 C 0.2377 0.7858 0.3494 0.0
C811 C 0.22459 0.82327 0.341 0.0
C812 C 0.21109 0.8366 0.37175 0.0
C813 C 0.25238 0.77227 0.31705 0.0
C814 C 0.26322 0.80969 0.29814 0.0
C815 C 0.25637 0.72287 0.3062 0.0
C816 C 0.24448 0.6815 0.32137 0.0
C817 C 0.22479 0.68195 0.31509 0.0
C818 C 0.21371 0.64255 0.32881 0.0
C819 C 0.22217 0.60223 0.34854 0.0
C820 C 0.24173 0.60126 0.35464 0.0
C821 C 0.25287 0.64063 0.3411 0.0
H822 H 0.21357 0.57168 0.359 0.0
H823 H 0.31781 0.94728 0.20086 0.0
H824 H 0.088 0.18813 0.27859 0.0
H825 H 0.05437 0.17465 0.29374 0.0
H826 H 0.04904 0.09171 0.17662 0.0
H827 H 0.08254 0.10698 0.16082 0.0
H828 H 0.0209 0.15612 0.18432 0.0
H829 H 0.05138 0.04093 0.27867 0.0
H830 H 0.07396 0.01936 0.33576 0.0
H831 H 0.04328 0.10831 0.4252 0.0
H832 H 0.0209 0.1319 0.36844 0.0
H833 H 0.92471 0.10383 0.23001 0.0
H834 H 0.95816 0.09216 0.21297 0.0
H835 H 0.97339 0.15392 0.33563 0.0
H836 H 0.94004 0.16219 0.35354 0.0
H837 H 0.99683 0.08837 0.32122 0.0
H838 H 0.97137 0.21666 0.23316 0.0
H839 H 0.95058 0.25393 0.17885 0.0
H840 H 0.97257 0.15646 0.08312 0.0
H841 H 0.99335 0.11837 0.13694 0.0
C842 C 0.07958 0.16704 0.25621 0.0
C843 C 0.08768 0.14914 0.21829 0.0
C844 C 0.06043 0.15902 0.26497 0.0
C845 C 0.04914 0.13177 0.2365 0.0
C846 C 0.05741 0.11286 0.19905 0.0
C847 C 0.07652 0.12136 0.19011 0.0
C848 C 0.02858 0.12452 0.245 0.0
C849 C 0.01561 0.14054 0.21398 0.0
C850 C 0.02168 0.10545 0.28425 0.0
C851 C 0.03459 0.08887 0.31894 0.0
C852 C 0.04954 0.05636 0.31035 0.0
C853 C 0.06235 0.04388 0.34267 0.0
C854 C 0.0602 0.06308 0.38388 0.0
C855 C 0.04503 0.09391 0.39314 0.0
C856 C 0.03229 0.10688 0.36088 0.0
C857 C 0.93519 0.11286 0.254 0.0
C858 C 0.92973 0.13232 0.29379 0.0
C859 C 0.95439 0.10715 0.2439 0.0
C860 C 0.96852 0.12258 0.27274 0.0
C861 C 0.96294 0.14129 0.31276 0.0
C862 C 0.94382 0.14607 0.32308 0.0
C863 C 0.98905 0.12162 0.26114 0.0
C864 C 1.00205 0.1036 0.29138 0.0
C865 C 0.99604 0.14056 0.22181 0.0
C866 C 0.98358 0.16377 0.18937 0.0
C867 C 0.97162 0.2028 0.20065 0.0
C868 C 0.95987 0.2242 0.1699 0.0
C869 C 0.96015 0.20737 0.12762 0.0
C870 C 0.97227 0.1693 0.11593 0.0
C871 C 0.98402 0.14775 0.14656 0.0
H872 H 0.95105 0.224 0.10387 0.0
H873 H 0.07027 0.05399 0.40873 0.0
H874 H 0.42785 0.38571 0.77149 0.0
H875 H 0.46198 0.3959 0.78188 0.0
H876 H 0.47245 0.31773 0.66434 0.0
H877 H 0.43837 0.31087 0.6522 0.0
H878 H 0.49377 0.28381 0.73388 0.0
H879 H 0.47901 0.43376 0.6632 0.0
H880 H 0.46206 0.51125 0.65128 0.0
H881 H 0.48145 0.56485 0.77301 0.0
H882 H 0.49839 0.48738 0.78576 0.0
H883 H 0.5921 0.32681 0.71695 0.0
H884 H 0.55848 0.33339 0.69794 0.0
H885 H 0.54717 0.40292 0.81937 0.0
H886 H 0.58082 0.39568 0.8385 0.0
H887 H 0.52664 0.44395 0.74481 0.0
H888 H 0.53957 0.29086 0.81667 0.0
H889 H 0.55724 0.21406 0.82679 0.0
H890 H 0.54126 0.1668 0.70062 0.0
H891 H 0.52376 0.24386 0.68943 0.0
C892 C 0.4374 0.37264 0.74695 0.0
C893 C 0.43037 0.34961 0.70994 0.0
C894 C 0.45693 0.37771 0.75327 0.0
C895 C 0.46979 0.35826 0.72346 0.0
C896 C 0.4628 0.33363 0.68741 0.0
C897 C 0.44333 0.32987 0.68048 0.0
C898 C 0.49054 0.36208 0.73037 0.0
C899 C 0.50096 0.31884 0.73569 0.0
C900 C 0.49994 0.40778 0.73309 0.0
C901 C 0.48983 0.45452 0.72557 0.0
C902 C 0.47955 0.46191 0.68754 0.0
C903 C 0.46997 0.50589 0.6806 0.0
C904 C 0.47063 0.54293 0.71143 0.0
C905 C 0.48093 0.5361 0.74918 0.0
C906 C 0.49055 0.49217 0.75624 0.0
C907 C 0.58243 0.34417 0.73914 0.0
C908 C 0.58885 0.36041 0.77924 0.0
C909 C 0.5633 0.34797 0.72833 0.0
C910 C 0.55033 0.36844 0.75733 0.0
C911 C 0.55695 0.38726 0.79645 0.0
C912 C 0.57609 0.38306 0.80739 0.0
C913 C 0.52972 0.36573 0.74853 0.0
C914 C 0.51939 0.40904 0.74273 0.0
C915 C 0.52037 0.3201 0.74501 0.0
C916 C 0.53048 0.27327 0.75208 0.0
C917 C 0.5399 0.26422 0.79098 0.0
C918 C 0.54988 0.22064 0.79693 0.0
C919 C 0.55039 0.1856 0.76435 0.0
C920 C 0.54086 0.19401 0.72581 0.0
C921 C 0.5309 0.23761 0.71966 0.0
H922 H 0.55815 0.1519 0.76899 0.0
H923 H 0.4632 0.57697 0.70603 0.0
H924 H 0.09002 0.9015 0.7259 0.0
H925 H 0.05963 0.90736 0.76376 0.0
H926 H 0.03112 0.84673 0.65369 0.0
H927 H 0.06138 0.84022 0.61608 0.0
H928 H 0.01246 0.92899 0.69063 0.0
H929 H 0.0394 0.77393 0.73175 0.0
H930 H 0.06421 0.71992 0.76065 0.0
H931 H 0.06229 0.79639 0.88078 0.0
H932 H 0.03764 0.85139 0.85233 0.0
H933 H 0.92409 0.85968 0.77979 0.0
H934 H 0.95458 0.8641 0.74257 0.0
H935 H 0.9826 0.89151 0.86322 0.0
H936 H 0.95224 0.88423 0.90039 0.0
H937 H 1.00224 0.82972 0.82172 0.0
H938 H 0.97544 0.98526 0.78185 0.0
H939 H 0.95051 0.03949 0.75355 0.0
H940 H 0.95204 0.96352 0.63311 0.0
H941 H 0.97707 0.90918 0.66059 0.0
C942 C 0.07723 0.88977 0.7098 0.0
C943 C 0.07804 0.87007 0.66826 0.0
C944 C 0.05993 0.893 0.73141 0.0
C945 C 0.04316 0.87723 0.71155 0.0
C946 C 0.04389 0.85906 0.66956 0.0
C947 C 0.06118 0.85509 0.64826 0.0
C948 C 0.02491 0.878 0.73494 0.0
C949 C 0.01015 0.90711 0.71917 0.0
C950 C 0.02205 0.85017 0.77258 0.0
C951 C 0.03685 0.81714 0.78974 0.0
C952 C 0.0444 0.77954 0.76419 0.0
C953 C 0.0584 0.74869 0.78051 0.0
C954 C 0.06486 0.75482 0.82248 0.0
C955 C 0.05729 0.79175 0.84825 0.0
C956 C 0.0433 0.82276 0.83204 0.0
C957 C 0.9368 0.86696 0.79809 0.0
C958 C 0.93594 0.87182 0.84275 0.0
C959 C 0.9542 0.86984 0.77688 0.0
C960 C 0.97097 0.87904 0.79989 0.0
C961 C 0.96995 0.88442 0.84463 0.0
C962 C 0.95262 0.88049 0.86587 0.0
C963 C 0.98963 0.88106 0.77771 0.0
C964 C 1.00451 0.85223 0.79355 0.0
C965 C 0.99265 0.90949 0.74034 0.0
C966 C 0.97801 0.94301 0.72335 0.0
C967 C 0.97044 0.98018 0.74933 0.0
C968 C 0.95633 0.01099 0.73341 0.0
C969 C 0.94969 0.00495 0.69157 0.0
C970 C 0.95722 0.96825 0.66549 0.0
C971 C 0.97144 0.93762 0.68112 0.0
H972 H 0.93873 0.02875 0.67933 0.0
H973 H 0.0757 0.73087 0.83508 0.0
H974 H 0.44329 0.55942 0.14459 0.0
H975 H 0.47379 0.55314 0.18086 0.0
H976 H 0.46107 0.68361 0.25338 0.0
H977 H 0.43078 0.69052 0.21629 0.0
H978 H 0.49432 0.69225 0.22503 0.0
H979 H 0.46231 0.56064 0.29751 0.0
H980 H 0.44398 0.48403 0.30283 0.0
H981 H 0.48776 0.40688 0.23569 0.0
H982 H 0.50626 0.4832 0.22956 0.0
H983 H 0.56357 0.6721 0.38811 0.0
H984 H 0.53342 0.66649 0.35058 0.0
H985 H 0.55864 0.57249 0.25567 0.0
H986 H 0.58929 0.57962 0.29194 0.0
H987 H 0.52069 0.54236 0.29172 0.0
H988 H 0.55291 0.67635 0.22285 0.0
H989 H 0.57095 0.75361 0.22129 0.0
H990 H 0.52564 0.82707 0.2863 0.0
H991 H 0.50745 0.75001 0.28884 0.0
C992 C 0.44689 0.58626 0.1688 0.0
C993 C 0.43466 0.62547 0.17764 0.0
C994 C 0.46436 0.58266 0.18962 0.0
C995 C 0.46984 0.61782 0.22015 0.0
C996 C 0.45732 0.65618 0.22979 0.0
C997 C 0.43998 0.66008 0.20867 0.0
C998 C 0.48895 0.61652 0.24041 0.0
C999 C 0.49988 0.65952 0.2401 0.0
C1000 C 0.49664 0.57357 0.25902 0.0
C1001 C 0.48558 0.52767 0.26277 0.0
C1002 C 0.46797 0.52739 0.28365 0.0
C1003 C 0.45756 0.48402 0.28685 0.0
C1004 C 0.46468 0.44064 0.26952 0.0
C1005 C 0.48225 0.44052 0.24906 0.0
C1006 C 0.49272 0.48379 0.24576 0.0
C1007 C 0.56289 0.6508 0.35889 0.0
C1008 C 0.57906 0.62707 0.34269 0.0
C1009 C 0.54555 0.64725 0.33775 0.0
C1010 C 0.54386 0.61935 0.30026 0.0
C1011 C 0.55969 0.59415 0.28465 0.0
C1012 C 0.57718 0.59821 0.30551 0.0
C1013 C 0.52561 0.61817 0.27689 0.0
C1014 C 0.51497 0.57483 0.27652 0.0
C1015 C 0.51805 0.66088 0.25805 0.0
C1016 C 0.52891 0.70731 0.25641 0.0
C1017 C 0.54687 0.70888 0.23718 0.0
C1018 C 0.55711 0.75265 0.23604 0.0
C1019 C 0.54947 0.7952 0.25379 0.0
C1020 C 0.53155 0.79407 0.27262 0.0
C1021 C 0.52127 0.75037 0.27388 0.0
H1022 H 0.55741 0.82906 0.25287 0.0
H1023 H 0.4566 0.4071 0.27203 0.0
H1024 H 0.0768 0.04584 0.01398 0.0
H1025 H 0.04505 0.01162 0.00494 0.0
H1026 H 0.02276 0.11984 0.09181 0.0
H1027 H 0.05452 0.15393 0.10135 0.0
H1028 H 0.00991 0.02602 0.11008 0.0
H1029 H 0.01522 0.12997 0.98577 0.0
H1030 H 0.02999 0.16091 0.91951 0.0
H1031 H 0.02547 0.01835 0.86247 0.0
H1032 H 0.01095 0.98635 0.92864 0.0
H1033 H 0.91239 0.97963 0.06928 0.0
H1034 H 0.94385 0.0156 0.07954 0.0
H1035 H 0.96582 0.92316 0.97902 0.0
H1036 H 0.93412 0.88866 0.96792 0.0
H1037 H 0.97886 0.01048 0.96821 0.0
H1038 H 0.97462 0.90364 0.08705 0.0
H1039 H 0.96148 0.86569 0.15217 0.0
H1040 H 0.9662 0.00237 0.21909 0.0
H1041 H 0.97887 0.04156 0.15402 0.0
C1042 C 0.06512 0.06252 0.031 0.0
C1043 C 0.06821 0.10282 0.05821 0.0
C1044 C 0.04695 0.04303 0.02568 0.0
C1045 C 0.03144 0.06326 0.04751 0.0
C1046 C 0.03446 0.10362 0.07456 0.0
C1047 C 0.05261 0.12342 0.07961 0.0
C1048 C 0.01218 0.04164 0.04269 0.0
C1049 C 1.00295 0.02329 0.07919 0.0
C1050 C 1.00341 0.03642 1.00215 0.0
C1051 C 0.01218 0.05566 0.96236 0.0
C1052 C 0.01754 0.10511 0.95925 0.0
C1053 C 0.02584 0.12285 0.92167 0.0
C1054 C 0.02872 0.09159 0.88685 0.0
C1055 C 0.02327 0.04252 0.88949 0.0
C1056 C 0.01499 0.02456 0.92702 0.0
C1057 C 0.92395 0.96744 0.04921 0.0
C1058 C 0.92084 0.93233 0.0171 0.0
C1059 C 0.94198 0.98753 0.05539 0.0
C1060 C 0.95735 0.97209 0.03019 0.0
C1061 C 0.95425 0.93602 0.99875 0.0
C1062 C 0.93619 0.9162 0.99245 0.0
C1063 C 0.97649 0.99453 0.03561 0.0
C1064 C 0.98572 0.01317 0.99922 0.0
C1065 C 0.98542 0.99897 0.07615 0.0
C1066 C 0.97747 0.97582 0.11532 0.0
C1067 C 0.97261 0.92586 0.11543 0.0
C1068 C 0.96526 0.90408 0.15238 0.0
C1069 C 0.9629 0.9317 0.18966 0.0
C1070 C 0.96792 0.98115 0.19008 0.0
C1071 C 0.97517 0.00318 0.15313 0.0
H1072 H 0.95726 0.91474 0.21828 0.0
H1073 H 0.03513 0.10541 0.85778 0.0
H1074 H 0.58225 0.60503 0.45186 0.0
H1075 H 0.55058 0.56884 0.45809 0.0
H1076 H 0.5655 0.50981 0.58186 0.0
H1077 H 0.59726 0.54546 0.57506 0.0
H1078 H 0.54855 0.44181 0.53382 0.0
H1079 H 0.53539 0.60983 0.57125 0.0
H1080 H 0.53603 0.69901 0.55907 0.0
H1081 H 0.50432 0.68053 0.44283 0.0
H1082 H 0.50364 0.59116 0.45414 0.0
H1083 H 0.45884 0.36269 0.6022 0.0
H1084 H 0.48961 0.40085 0.59304 0.0
H1085 H 0.46883 0.47769 0.4817 0.0
H1086 H 0.43734 0.44237 0.49372 0.0
H1087 H 0.48913 0.53672 0.52047 0.0
H1088 H 0.50214 0.36914 0.48154 0.0
H1089 H 0.50206 0.2796 0.49184 0.0
H1090 H 0.53453 0.29598 0.60726 0.0
H1091 H 0.53473 0.3856 0.59774 0.0
C1092 C 0.57862 0.58466 0.48047 0.0
C1093 C 0.59206 0.57776 0.51295 0.0
C1094 C 0.56054 0.56409 0.48412 0.0
C1095 C 0.55554 0.53673 0.52061 0.0
C1096 C 0.56899 0.5306 0.55338 0.0
C1097 C 0.58706 0.55106 0.54963 0.0
C1098 C 0.53654 0.51329 0.52424 0.0
C1099 C 0.53554 0.46263 0.53134 0.0
C1100 C 0.51953 0.54005 0.51974 0.0
C1101 C 0.51958 0.59382 0.5134 0.0
C1102 C 0.52862 0.62479 0.54302 0.0
C1103 C 0.52898 0.67536 0.53628 0.0
C1104 C 0.52025 0.69542 0.50017 0.0
C1105 C 0.51107 0.66495 0.47079 0.0
C1106 C 0.51066 0.61435 0.47739 0.0
C1107 C 0.46088 0.38742 0.57569 0.0
C1108 C 0.44571 0.39921 0.54868 0.0
C1109 C 0.47861 0.40906 0.57007 0.0
C1110 C 0.48196 0.4415 0.53591 0.0
C1111 C 0.4668 0.4528 0.50832 0.0
C1112 C 0.44882 0.43234 0.51495 0.0
C1113 C 0.501 0.46481 0.53004 0.0
C1114 C 0.50206 0.51556 0.5226 0.0
C1115 C 0.51812 0.43799 0.53377 0.0
C1116 C 0.51838 0.38405 0.53899 0.0
C1117 C 0.50925 0.35361 0.50912 0.0
C1118 C 0.50918 0.30286 0.51482 0.0
C1119 C 0.51827 0.28212 0.55018 0.0
C1120 C 0.52752 0.31207 0.57984 0.0
C1121 C 0.52766 0.36283 0.57424 0.0
H1122 H 0.51816 0.24284 0.55458 0.0
H1123 H 0.52056 0.73457 0.49498 0.0
H1124 H 0.42832 0.56537 0.06939 0.0
H1125 H 0.45981 0.52803 0.06435 0.0
H1126 H 0.46203 0.56547 0.93009 0.0
H1127 H 0.43042 0.60188 0.93518 0.0
H1128 H 0.47234 0.47332 0.94203 0.0
H1129 H 0.48614 0.6271 0.01035 0.0
H1130 H 0.48485 0.69061 0.0663 0.0
H1131 H 0.50791 0.58984 0.1579 0.0
H1132 H 0.50845 0.52497 0.10314 0.0
H1133 H 0.57021 0.45852 0.8931 0.0
H1134 H 0.53891 0.49105 0.91063 0.0
H1135 H 0.53901 0.40976 0.029 0.0
H1136 H 0.57023 0.37549 0.0107 0.0
H1137 H 0.52755 0.51799 0.03191 0.0
H1138 H 0.51424 0.36517 0.96557 0.0
H1139 H 0.5161 0.30071 0.91054 0.0
H1140 H 0.49225 0.39858 0.81787 0.0
H1141 H 0.49115 0.46438 0.87138 0.0
C1142 C 0.43572 0.56611 0.03904 0.0
C1143 C 0.42722 0.58749 0.00293 0.0
C1144 C 0.4537 0.54485 0.03615 0.0
C1145 C 0.46348 0.54439 0.99693 0.0
C1146 C 0.45487 0.56561 0.96078 0.0
C1147 C 0.43691 0.58687 0.96373 0.0
C1148 C 0.4823 0.52011 0.9928 0.0
C1149 C 0.48442 0.48357 0.96148 0.0
C1150 C 0.49798 0.53198 0.01931 0.0
C1151 C 0.49705 0.57079 0.05265 0.0
C1152 C 0.49058 0.6181 0.04261 0.0
C1153 C 0.48997 0.6544 0.07417 0.0
C1154 C 0.49616 0.64419 0.11572 0.0
C1155 C 0.50297 0.59765 0.1258 0.0
C1156 C 0.50332 0.561 0.09457 0.0
C1157 C 0.56356 0.44757 0.92286 0.0
C1158 C 0.57262 0.41448 0.95056 0.0
C1159 C 0.5457 0.46619 0.93284 0.0
C1160 C 0.53667 0.45294 0.97115 0.0
C1161 C 0.54579 0.42055 0.99934 0.0
C1162 C 0.56352 0.40086 0.98881 0.0
C1163 C 0.51749 0.47231 0.98069 0.0
C1164 C 0.51534 0.50771 0.01289 0.0
C1165 C 0.50172 0.45929 0.95531 0.0
C1166 C 0.50288 0.42007 0.92247 0.0
C1167 C 0.50979 0.37335 0.93317 0.0
C1168 C 0.51071 0.3365 0.90215 0.0
C1169 C 0.50445 0.34564 0.86049 0.0
C1170 C 0.49733 0.39167 0.84981 0.0
C1171 C 0.4966 0.42883 0.88046 0.0
H1172 H 0.50494 0.31696 0.83662 0.0
H1173 H 0.49576 0.67241 0.14004 0.0
H1174 H 0.07876 0.88183 0.55324 0.0
H1175 H 0.04672 0.91403 0.54246 0.0
H1176 H 0.06343 0.96885 0.41835 0.0
H1177 H 0.09516 0.93583 0.42906 0.0
H1178 H 0.0334 0.99788 0.53745 0.0
H1179 H 0.02522 0.98645 0.35109 0.0
H1180 H 0.03601 0.93443 0.29144 0.0
H1181 H 0.04407 0.81449 0.37842 0.0
H1182 H 0.03324 0.86578 0.43854 0.0
H1183 H 0.95547 0.14598 0.47576 0.0
H1184 H 0.98658 0.10955 0.48405 0.0
H1185 H 0.96587 0.97448 0.42999 0.0
H1186 H 0.93569 0.01211 0.41632 0.0
H1187 H 0.99751 0.98389 0.40168 0.0
H1188 H 0.97366 0.00327 0.54394 0.0
H1189 H 0.96081 0.04893 0.60544 0.0
H1190 H 0.01212 0.13222 0.6144 0.0
H1191 H 0.02492 0.08903 0.5514 0.0
C1192 C 0.0754 0.9004 0.52356 0.0
C1193 C 0.08933 0.90669 0.49206 0.0
C1194 C 0.05715 0.91917 0.51745 0.0
C1195 C 0.05245 0.94451 0.47959 0.0
C1196 C 0.06645 0.94972 0.44782 0.0
C1197 C 0.08463 0.9308 0.45387 0.0
C1198 C 0.03321 0.96677 0.474 0.0
C1199 C 0.02553 0.99448 0.50778 0.0
C1200 C 0.02264 0.96218 0.43555 0.0
C1201 C 0.02885 0.93048 0.39952 0.0
C1202 C 0.02938 0.94907 0.35752 0.0
C1203 C 0.03547 0.91966 0.3236 0.0
C1204 C 0.04085 0.87126 0.33118 0.0
C1205 C 0.04003 0.8521 0.37265 0.0
C1206 C 0.03396 0.88141 0.40668 0.0
C1207 C 0.95744 0.10878 0.46488 0.0
C1208 C 0.94249 0.08231 0.4458 0.0
C1209 C 0.97536 0.08755 0.47043 0.0
C1210 C 0.9787 0.03858 0.45865 0.0
C1211 C 0.96386 0.01218 0.43968 0.0
C1212 C 0.94623 0.03379 0.43275 0.0
C1213 C 0.99757 0.01459 0.46524 0.0
C1214 C 1.00529 0.98693 0.4315 0.0
C1215 C 1.00779 0.01759 0.50432 0.0
C1216 C 1.00018 0.04319 0.54259 0.0
C1217 C 0.98216 0.0316 0.55875 0.0
C1218 C 0.97488 0.05704 0.59391 0.0
C1219 C 0.98569 0.09314 0.61405 0.0
C1220 C 1.00376 0.1042 0.59881 0.0
C1221 C 0.01099 0.07946 0.5632 0.0
H1222 H 0.98004 0.11259 0.64141 0.0
H1223 H 0.04556 0.84852 0.30488 0.0
loop_
_geom_bond_atom_site_label_1
_geom_bond_atom_site_label_2
_geom_bond_distance
_geom_bond_site_symmetry_2
_ccdc_geom_bond_type
C0 C1 1.443 . S
C0 N4 1.376 . S
C0 C38 1.389 . S
C1 C0 1.443 . S
C1 C2 1.340 . S
C1 H41 0.951 . S
C2 C1 1.340 . S
C2 C3 1.439 . S
C2 H42 0.950 . S
C3 C2 1.439 . S
C3 N4 1.374 . S
C3 C37 1.395 . S
N4 C0 1.376 . S
N4 C3 1.374 . S
N4 Co5 2.008 . S
Co5 N4 2.008 . S
Co5 N6 1.995 . S
Co5 N11 2.008 . S
Co5 N16 1.995 . S
Co5 N21 2.282 . S
Co5 N27 2.282 . S
N6 Co5 1.995 . S
N6 C7 1.376 . S
N6 C10 1.383 . S
C7 N6 1.376 . S
C7 C8 1.446 . S
C7 C37 1.391 . S
C8 C7 1.446 . S
C8 C9 1.339 . S
C8 H43 0.949 . S
C9 C8 1.339 . S
C9 C10 1.439 . S
C9 H44 0.950 . S
C10 N6 1.383 . S
C10 C9 1.439 . S
C10 C39 1.392 . S
N11 Co5 2.008 . S
N11 C12 1.376 . S
N11 C15 1.374 . S
C12 N11 1.376 . S
C12 C13 1.443 . S
C12 C39 1.389 . S
C13 C12 1.443 . S
C13 C14 1.340 . S
C13 H45 0.951 . S
C14 C13 1.340 . S
C14 C15 1.439 . S
C14 H46 0.950 . S
C15 N11 1.374 . S
C15 C14 1.439 . S
C15 C40 1.395 . S
N16 Co5 1.995 . S
N16 C17 1.376 . S
N16 C20 1.383 . S
C17 N16 1.376 . S
C17 C18 1.446 . S
C17 C40 1.391 . S
C18 C17 1.446 . S
C18 C19 1.339 . S
C18 H47 0.949 . S
C19 C18 1.339 . S
C19 C20 1.439 . S
C19 H48 0.950 . S
C20 N16 1.383 . S
C20 C19 1.439 . S
C20 C38 1.392 . S
N21 Co5 2.282 . S
N21 C24 1.332 . S
N21 C26 1.332 . S
C22 C23 1.386 . S
C22 C25 1.388 . S
C23 C22 1.386 . S
C23 C24 1.382 . S
C23 H49 0.950 . S
C24 N21 1.332 . S
C24 C23 1.382 . S
C24 H35 0.952 . S
C25 C22 1.388 . S
C25 C26 1.382 . S
C25 H50 0.950 . S
C26 N21 1.332 . S
C26 C25 1.382 . S
C26 H36 0.948 . S
N27 Co5 2.282 . S
N27 C31 1.332 . S
N27 C32 1.332 . S
C28 C29 1.388 . S
C28 C32 1.382 . S
C28 H51 0.950 . S
C29 C28 1.388 . S
C29 C30 1.386 . S
C30 C29 1.386 . S
C30 C31 1.382 . S
C30 H52 0.950 . S
C31 N27 1.332 . S
C31 C30 1.382 . S
C31 H33 0.952 . S
C32 N27 1.332 . S
C32 C28 1.382 . S
C32 H34 0.948 . S
H33 C31 0.952 . S
H34 C32 0.948 . S
H35 C24 0.952 . S
H36 C26 0.948 . S
C37 C3 1.395 . S
C37 C7 1.391 . S
C38 C0 1.389 . S
C38 C20 1.392 . S
C39 C10 1.392 . S
C39 C12 1.389 . S
C40 C15 1.395 . S
C40 C17 1.391 . S
H41 C1 0.951 . S
H42 C2 0.950 . S
H43 C8 0.949 . S
H44 C9 0.950 . S
H45 C13 0.951 . S
H46 C14 0.950 . S
H47 C18 0.949 . S
H48 C19 0.950 . S
H49 C23 0.950 . S
H50 C25 0.950 . S
H51 C28 0.950 . S
H52 C30 0.950 . S
C53 C54 1.443 . S
C53 N57 1.376 . S
C53 C91 1.389 . S
C54 C53 1.443 . S
C54 C55 1.340 . S
C54 H94 0.951 . S
C55 C54 1.340 . S
C55 C56 1.439 . S
C55 H95 0.950 . S
C56 C55 1.439 . S
C56 N57 1.374 . S
C56 C90 1.395 . S
N57 C53 1.376 . S
N57 C56 1.374 . S
N57 Co58 2.008 . S
Co58 N57 2.008 . S
Co58 N59 1.995 . S
Co58 N64 2.008 . S
Co58 N69 1.995 . S
Co58 N74 2.282 . S
Co58 N80 2.282 . S
N59 Co58 1.995 . S
N59 C60 1.376 . S
N59 C63 1.383 . S
C60 N59 1.376 . S
C60 C61 1.446 . S
C60 C90 1.391 . S
C61 C60 1.446 . S
C61 C62 1.339 . S
C61 H96 0.949 . S
C62 C61 1.339 . S
C62 C63 1.439 . S
C62 H97 0.950 . S
C63 N59 1.383 . S
C63 C62 1.439 . S
C63 C92 1.392 . S
N64 Co58 2.008 . S
N64 C65 1.376 . S
N64 C68 1.374 . S
C65 N64 1.376 . S
C65 C66 1.443 . S
C65 C92 1.389 . S
C66 C65 1.443 . S
C66 C67 1.340 . S
C66 H98 0.951 . S
C67 C66 1.340 . S
C67 C68 1.439 . S
C67 H99 0.950 . S
C68 N64 1.374 . S
C68 C67 1.439 . S
C68 C93 1.395 . S
N69 Co58 1.995 . S
N69 C70 1.376 . S
N69 C73 1.383 . S
C70 N69 1.376 . S
C70 C71 1.446 . S
C70 C93 1.391 . S
C71 C70 1.446 . S
C71 C72 1.339 . S
C71 H100 0.949 . S
C72 C71 1.339 . S
C72 C73 1.439 . S
C72 H101 0.950 . S
C73 N69 1.383 . S
C73 C72 1.439 . S
C73 C91 1.392 . S
N74 Co58 2.282 . S
N74 C77 1.332 . S
N74 C79 1.332 . S
C75 C76 1.386 . S
C75 C78 1.388 . S
C76 C75 1.386 . S
C76 C77 1.382 . S
C76 H102 0.950 . S
C77 N74 1.332 . S
C77 C76 1.382 . S
C77 H88 0.952 . S
C78 C75 1.388 . S
C78 C79 1.382 . S
C78 H103 0.950 . S
C79 N74 1.332 . S
C79 C78 1.382 . S
C79 H89 0.948 . S
N80 Co58 2.282 . S
N80 C84 1.332 . S
N80 C85 1.332 . S
C81 C82 1.388 . S
C81 C85 1.382 . S
C81 H104 0.950 . S
C82 C81 1.388 . S
C82 C83 1.386 . S
C83 C82 1.386 . S
C83 C84 1.382 . S
C83 H105 0.950 . S
C84 N80 1.332 . S
C84 C83 1.382 . S
C84 H86 0.952 . S
C85 N80 1.332 . S
C85 C81 1.382 . S
C85 H87 0.948 . S
H86 C84 0.952 . S
H87 C85 0.948 . S
H88 C77 0.952 . S
H89 C79 0.948 . S
C90 C56 1.395 . S
C90 C60 1.391 . S
C91 C53 1.389 . S
C91 C73 1.392 . S
C92 C63 1.392 . S
C92 C65 1.389 . S
C93 C68 1.395 . S
C93 C70 1.391 . S
H94 C54 0.951 . S
H95 C55 0.950 . S
H96 C61 0.949 . S
H97 C62 0.950 . S
H98 C66 0.951 . S
H99 C67 0.950 . S
H100 C71 0.949 . S
H101 C72 0.950 . S
H102 C76 0.950 . S
H103 C78 0.950 . S
H104 C81 0.950 . S
H105 C83 0.950 . S
C106 C107 1.443 . S
C106 N110 1.376 . S
C106 C144 1.389 . S
C107 C106 1.443 . S
C107 C108 1.340 . S
C107 H147 0.951 . S
C108 C107 1.340 . S
C108 C109 1.439 . S
C108 H148 0.950 . S
C109 C108 1.439 . S
C109 N110 1.374 . S
C109 C143 1.395 . S
N110 C106 1.376 . S
N110 C109 1.374 . S
N110 Co111 2.008 . S
Co111 N110 2.008 . S
Co111 N112 1.995 . S
Co111 N117 2.008 . S
Co111 N122 1.995 . S
Co111 N127 2.282 . S
Co111 N133 2.282 . S
N112 Co111 1.995 . S
N112 C113 1.376 . S
N112 C116 1.383 . S
C113 N112 1.376 . S
C113 C114 1.446 . S
C113 C143 1.391 . S
C114 C113 1.446 . S
C114 C115 1.339 . S
C114 H149 0.949 . S
C115 C114 1.339 . S
C115 C116 1.439 . S
C115 H150 0.950 . S
C116 N112 1.383 . S
C116 C115 1.439 . S
C116 C145 1.392 . S
N117 Co111 2.008 . S
N117 C118 1.376 . S
N117 C121 1.374 . S
C118 N117 1.376 . S
C118 C119 1.443 . S
C118 C145 1.389 . S
C119 C118 1.443 . S
C119 C120 1.340 . S
C119 H151 0.951 . S
C120 C119 1.340 . S
C120 C121 1.439 . S
C120 H152 0.950 . S
C121 N117 1.374 . S
C121 C120 1.439 . S
C121 C146 1.395 . S
N122 Co111 1.995 . S
N122 C123 1.376 . S
N122 C126 1.383 . S
C123 N122 1.376 . S
C123 C124 1.446 . S
C123 C146 1.391 . S
C124 C123 1.446 . S
C124 C125 1.339 . S
C124 H153 0.949 . S
C125 C124 1.339 . S
C125 C126 1.439 . S
C125 H154 0.950 . S
C126 N122 1.383 . S
C126 C125 1.439 . S
C126 C144 1.392 . S
N127 Co111 2.282 . S
N127 C130 1.332 . S
N127 C132 1.332 . S
C128 C129 1.386 . S
C128 C131 1.388 . S
C129 C128 1.386 . S
C129 C130 1.382 . S
C129 H155 0.950 . S
C130 N127 1.332 . S
C130 C129 1.382 . S
C130 H141 0.952 . S
C131 C128 1.388 . S
C131 C132 1.382 . S
C131 H156 0.950 . S
C132 N127 1.332 . S
C132 C131 1.382 . S
C132 H142 0.948 . S
N133 Co111 2.282 . S
N133 C137 1.332 . S
N133 C138 1.332 . S
C134 C135 1.388 . S
C134 C138 1.382 . S
C134 H157 0.950 . S
C135 C134 1.388 . S
C135 C136 1.386 . S
C136 C135 1.386 . S
C136 C137 1.382 . S
C136 H158 0.950 . S
C137 N133 1.332 . S
C137 C136 1.382 . S
C137 H139 0.952 . S
C138 N133 1.332 . S
C138 C134 1.382 . S
C138 H140 0.948 . S
H139 C137 0.952 . S
H140 C138 0.948 . S
H141 C130 0.952 . S
H142 C132 0.948 . S
C143 C109 1.395 . S
C143 C113 1.391 . S
C144 C106 1.389 . S
C144 C126 1.392 . S
C145 C116 1.392 . S
C145 C118 1.389 . S
C146 C121 1.395 . S
C146 C123 1.391 . S
H147 C107 0.951 . S
H148 C108 0.950 . S
H149 C114 0.949 . S
H150 C115 0.950 . S
H151 C119 0.951 . S
H152 C120 0.950 . S
H153 C124 0.949 . S
H154 C125 0.950 . S
H155 C129 0.950 . S
H156 C131 0.950 . S
H157 C134 0.950 . S
H158 C136 0.950 . S
C159 C160 1.443 . S
C159 N163 1.376 . S
C159 C197 1.389 . S
C160 C159 1.443 . S
C160 C161 1.340 . S
C160 H200 0.951 . S
C161 C160 1.340 . S
C161 C162 1.439 . S
C161 H201 0.950 . S
C162 C161 1.439 . S
C162 N163 1.374 . S
C162 C196 1.395 . S
N163 C159 1.376 . S
N163 C162 1.374 . S
N163 Co164 2.008 . S
Co164 N163 2.008 . S
Co164 N165 1.995 . S
Co164 N170 2.008 . S
Co164 N175 1.995 . S
Co164 N180 2.282 . S
Co164 N186 2.282 . S
N165 Co164 1.995 . S
N165 C166 1.376 . S
N165 C169 1.383 . S
C166 N165 1.376 . S
C166 C167 1.446 . S
C166 C196 1.391 . S
C167 C166 1.446 . S
C167 C168 1.339 . S
C167 H202 0.949 . S
C168 C167 1.339 . S
C168 C169 1.439 . S
C168 H203 0.950 . S
C169 N165 1.383 . S
C169 C168 1.439 . S
C169 C198 1.392 . S
N170 Co164 2.008 . S
N170 C171 1.376 . S
N170 C174 1.374 . S
C171 N170 1.376 . S
C171 C172 1.443 . S
C171 C198 1.389 . S
C172 C171 1.443 . S
C172 C173 1.340 . S
C172 H204 0.951 . S
C173 C172 1.340 . S
C173 C174 1.439 . S
C173 H205 0.950 . S
C174 N170 1.374 . S
C174 C173 1.439 . S
C174 C199 1.395 . S
N175 Co164 1.995 . S
N175 C176 1.376 . S
N175 C179 1.383 . S
C176 N175 1.376 . S
C176 C177 1.446 . S
C176 C199 1.391 . S
C177 C176 1.446 . S
C177 C178 1.339 . S
C177 H206 0.949 . S
C178 C177 1.339 . S
C178 C179 1.439 . S
C178 H207 0.950 . S
C179 N175 1.383 . S
C179 C178 1.439 . S
C179 C197 1.392 . S
N180 Co164 2.282 . S
N180 C183 1.332 . S
N180 C185 1.332 . S
C181 C182 1.386 . S
C181 C184 1.388 . S
C182 C181 1.386 . S
C182 C183 1.382 . S
C182 H208 0.950 . S
C183 N180 1.332 . S
C183 C182 1.382 . S
C183 H194 0.952 . S
C184 C181 1.388 . S
C184 C185 1.382 . S
C184 H209 0.950 . S
C185 N180 1.332 . S
C185 C184 1.382 . S
C185 H195 0.948 . S
N186 Co164 2.282 . S
N186 C190 1.332 . S
N186 C191 1.332 . S
C187 C188 1.388 . S
C187 C191 1.382 . S
C187 H210 0.950 . S
C188 C187 1.388 . S
C188 C189 1.386 . S
C189 C188 1.386 . S
C189 C190 1.382 . S
C189 H211 0.950 . S
C190 N186 1.332 . S
C190 C189 1.382 . S
C190 H192 0.952 . S
C191 N186 1.332 . S
C191 C187 1.382 . S
C191 H193 0.948 . S
H192 C190 0.952 . S
H193 C191 0.948 . S
H194 C183 0.952 . S
H195 C185 0.948 . S
C196 C162 1.395 . S
C196 C166 1.391 . S
C197 C159 1.389 . S
C197 C179 1.392 . S
C198 C169 1.392 . S
C198 C171 1.389 . S
C199 C174 1.395 . S
C199 C176 1.391 . S
H200 C160 0.951 . S
H201 C161 0.950 . S
H202 C167 0.949 . S
H203 C168 0.950 . S
H204 C172 0.951 . S
H205 C173 0.950 . S
H206 C177 0.949 . S
H207 C178 0.950 . S
H208 C182 0.950 . S
H209 C184 0.950 . S
H210 C187 0.950 . S
H211 C189 0.950 . S
C212 C213 1.443 . S
C212 N216 1.376 . S
C212 C250 1.389 . S
C213 C212 1.443 . S
C213 C214 1.340 . S
C213 H253 0.951 . S
C214 C213 1.340 . S
C214 C215 1.439 . S
C214 H254 0.950 . S
C215 C214 1.439 . S
C215 N216 1.374 . S
C215 C249 1.395 . S
N216 C212 1.376 . S
N216 C215 1.374 . S
N216 Co217 2.008 . S
Co217 N216 2.008 . S
Co217 N218 1.995 . S
Co217 N223 2.008 . S
Co217 N228 1.995 . S
Co217 N233 2.282 . S
Co217 N239 2.282 . S
N218 Co217 1.995 . S
N218 C219 1.376 . S
N218 C222 1.383 . S
C219 N218 1.376 . S
C219 C220 1.446 . S
C219 C249 1.391 . S
C220 C219 1.446 . S
C220 C221 1.339 . S
C220 H255 0.949 . S
C221 C220 1.339 . S
C221 C222 1.439 . S
C221 H256 0.950 . S
C222 N218 1.383 . S
C222 C221 1.439 . S
C222 C251 1.392 . S
N223 Co217 2.008 . S
N223 C224 1.376 . S
N223 C227 1.374 . S
C224 N223 1.376 . S
C224 C225 1.443 . S
C224 C251 1.389 . S
C225 C224 1.443 . S
C225 C226 1.340 . S
C225 H257 0.951 . S
C226 C225 1.340 . S
C226 C227 1.439 . S
C226 H258 0.950 . S
C227 N223 1.374 . S
C227 C226 1.439 . S
C227 C252 1.395 . S
N228 Co217 1.995 . S
N228 C229 1.376 . S
N228 C232 1.391 . S
C229 N228 1.376 . S
C229 C230 1.446 1_556 S
C229 C252 1.391 . S
C230 C229 1.446 1_554 S
C230 C231 1.339 . S
C230 H259 0.949 . S
C231 C230 1.339 . S
C231 C232 1.430 1_554 S
C231 H260 0.950 . S
C232 N228 1.391 . S
C232 C231 1.430 1_556 S
C232 C250 1.393 . S
N233 Co217 2.282 . S
N233 C236 1.332 1_556 S
N233 C238 1.332 . S
C234 C235 1.386 . S
C234 C237 1.388 . S
C235 C234 1.386 . S
C235 C236 1.382 . S
C235 H261 0.950 . S
C236 N233 1.332 1_554 S
C236 C235 1.382 . S
C236 H247 0.952 . S
C237 C234 1.388 . S
C237 C238 1.382 1_554 S
C237 H262 0.950 . S
C238 N233 1.332 . S
C238 C237 1.382 1_556 S
C238 H248 0.948 . S
N239 Co217 2.282 . S
N239 C243 1.332 . S
N239 C244 1.332 . S
C240 C241 1.388 . S
C240 C244 1.382 . S
C240 H263 0.950 . S
C241 C240 1.388 . S
C241 C242 1.386 . S
C242 C241 1.386 . S
C242 C243 1.382 . S
C242 H264 0.950 . S
C243 N239 1.332 . S
C243 C242 1.382 . S
C243 H245 0.952 . S
C244 N239 1.332 . S
C244 C240 1.382 . S
C244 H246 0.948 . S
H245 C243 0.952 . S
H246 C244 0.948 . S
H247 C236 0.952 . S
H248 C238 0.948 . S
C249 C215 1.395 . S
C249 C219 1.391 . S
C250 C212 1.389 . S
C250 C232 1.393 . S
C251 C222 1.392 . S
C251 C224 1.389 . S
C252 C227 1.395 . S
C252 C229 1.391 . S
H253 C213 0.951 . S
H254 C214 0.950 . S
H255 C220 0.949 . S
H256 C221 0.950 . S
H257 C225 0.951 . S
H258 C226 0.950 . S
H259 C230 0.949 . S
H260 C231 0.950 . S
H261 C235 0.950 . S
H262 C237 0.950 . S
H263 C240 0.950 . S
H264 C242 0.950 . S
C265 C266 1.443 . S
C265 N269 1.376 . S
C265 C303 1.389 . S
C266 C265 1.443 . S
C266 C267 1.340 . S
C266 H306 0.951 . S
C267 C266 1.340 . S
C267 C268 1.439 . S
C267 H307 0.950 . S
C268 C267 1.439 . S
C268 N269 1.374 . S
C268 C302 1.395 . S
N269 C265 1.376 . S
N269 C268 1.374 . S
N269 Co270 2.008 . S
Co270 N269 2.008 . S
Co270 N271 1.995 . S
Co270 N276 2.008 . S
Co270 N281 1.995 . S
Co270 N286 2.282 . S
Co270 N292 2.282 . S
N271 Co270 1.995 . S
N271 C272 1.376 . S
N271 C275 1.383 . S
C272 N271 1.376 . S
C272 C273 1.446 . S
C272 C302 1.391 . S
C273 C272 1.446 . S
C273 C274 1.339 . S
C273 H308 0.949 . S
C274 C273 1.339 . S
C274 C275 1.439 . S
C274 H309 0.950 . S
C275 N271 1.383 . S
C275 C274 1.439 . S
C275 C304 1.392 . S
N276 Co270 2.008 . S
N276 C277 1.376 . S
N276 C280 1.374 . S
C277 N276 1.376 . S
C277 C278 1.443 . S
C277 C304 1.389 . S
C278 C277 1.443 . S
C278 C279 1.340 . S
C278 H310 0.951 . S
C279 C278 1.340 . S
C279 C280 1.439 . S
C279 H311 0.950 . S
C280 N276 1.374 . S
C280 C279 1.439 . S
C280 C305 1.395 . S
N281 Co270 1.995 . S
N281 C282 1.376 . S
N281 C285 1.383 . S
C282 N281 1.376 . S
C282 C283 1.446 . S
C282 C305 1.391 . S
C283 C282 1.446 . S
C283 C284 1.339 . S
C283 H312 0.949 . S
C284 C283 1.339 . S
C284 C285 1.439 . S
C284 H313 0.950 . S
C285 N281 1.383 . S
C285 C284 1.439 . S
C285 C303 1.392 . S
N286 Co270 2.282 . S
N286 C289 1.332 . S
N286 C291 1.332 . S
C287 C288 1.386 . S
C287 C290 1.388 . S
C288 C287 1.386 . S
C288 C289 1.382 . S
C288 H314 0.950 . S
C289 N286 1.332 . S
C289 C288 1.382 . S
C289 H300 0.952 . S
C290 C287 1.388 . S
C290 C291 1.382 . S
C290 H315 0.950 . S
C291 N286 1.332 . S
C291 C290 1.382 . S
C291 H301 0.948 . S
N292 Co270 2.282 . S
N292 C296 1.332 . S
N292 C297 1.332 . S
C293 C294 1.388 . S
C293 C297 1.382 . S
C293 H316 0.950 . S
C294 C293 1.388 . S
C294 C295 1.386 . S
C295 C294 1.386 . S
C295 C296 1.382 . S
C295 H317 0.950 . S
C296 N292 1.332 . S
C296 C295 1.382 . S
C296 H298 0.952 . S
C297 N292 1.332 . S
C297 C293 1.382 . S
C297 H299 0.948 . S
H298 C296 0.952 . S
H299 C297 0.948 . S
H300 C289 0.952 . S
H301 C291 0.948 . S
C302 C268 1.395 . S
C302 C272 1.391 . S
C303 C265 1.389 . S
C303 C285 1.392 . S
C304 C275 1.392 . S
C304 C277 1.389 . S
C305 C280 1.395 . S
C305 C282 1.391 . S
H306 C266 0.951 . S
H307 C267 0.950 . S
H308 C273 0.949 . S
H309 C274 0.950 . S
H310 C278 0.951 . S
H311 C279 0.950 . S
H312 C283 0.949 . S
H313 C284 0.950 . S
H314 C288 0.950 . S
H315 C290 0.950 . S
H316 C293 0.950 . S
H317 C295 0.950 . S
C318 C319 1.443 . S
C318 N322 1.376 . S
C318 C356 1.389 . S
C319 C318 1.443 . S
C319 C320 1.340 . S
C319 H359 0.951 . S
C320 C319 1.340 . S
C320 C321 1.439 . S
C320 H360 0.950 . S
C321 C320 1.439 . S
C321 N322 1.374 . S
C321 C355 1.395 . S
N322 C318 1.376 . S
N322 C321 1.374 . S
N322 Co323 2.008 . S
Co323 N322 2.008 . S
Co323 N324 1.995 . S
Co323 N329 2.008 . S
Co323 N334 1.995 . S
Co323 N339 2.282 . S
Co323 N345 2.282 . S
N324 Co323 1.995 . S
N324 C325 1.376 . S
N324 C328 1.383 . S
C325 N324 1.376 . S
C325 C326 1.446 . S
C325 C355 1.391 . S
C326 C325 1.446 . S
C326 C327 1.339 . S
C326 H361 0.949 . S
C327 C326 1.339 . S
C327 C328 1.439 . S
C327 H362 0.950 . S
C328 N324 1.383 . S
C328 C327 1.439 . S
C328 C357 1.392 . S
N329 Co323 2.008 . S
N329 C330 1.376 . S
N329 C333 1.374 . S
C330 N329 1.376 . S
C330 C331 1.443 . S
C330 C357 1.389 . S
C331 C330 1.443 . S
C331 C332 1.340 . S
C331 H363 0.951 . S
C332 C331 1.340 . S
C332 C333 1.439 . S
C332 H364 0.950 . S
C333 N329 1.374 . S
C333 C332 1.439 . S
C333 C358 1.395 . S
N334 Co323 1.995 . S
N334 C335 1.376 . S
N334 C338 1.391 . S
C335 N334 1.376 . S
C335 C336 1.446 1_554 S
C335 C358 1.391 . S
C336 C335 1.446 1_556 S
C336 C337 1.339 . S
C336 H365 0.949 . S
C337 C336 1.339 . S
C337 C338 1.430 1_556 S
C337 H366 0.950 . S
C338 N334 1.391 . S
C338 C337 1.430 1_554 S
C338 C356 1.393 . S
N339 Co323 2.282 . S
N339 C342 1.332 1_554 S
N339 C344 1.332 . S
C340 C341 1.386 . S
C340 C343 1.388 . S
C341 C340 1.386 . S
C341 C342 1.382 . S
C341 H367 0.950 . S
C342 N339 1.332 1_556 S
C342 C341 1.382 . S
C342 H353 0.952 . S
C343 C340 1.388 . S
C343 C344 1.382 1_556 S
C343 H368 0.950 . S
C344 N339 1.332 . S
C344 C343 1.382 1_554 S
C344 H354 0.948 . S
N345 Co323 2.282 . S
N345 C349 1.332 . S
N345 C350 1.332 . S
C346 C347 1.388 . S
C346 C350 1.382 . S
C346 H369 0.950 . S
C347 C346 1.388 . S
C347 C348 1.386 . S
C348 C347 1.386 . S
C348 C349 1.382 . S
C348 H370 0.950 . S
C349 N345 1.332 . S
C349 C348 1.382 . S
C349 H351 0.952 . S
C350 N345 1.332 . S
C350 C346 1.382 . S
C350 H352 0.948 . S
H351 C349 0.952 . S
H352 C350 0.948 . S
H353 C342 0.952 . S
H354 C344 0.948 . S
C355 C321 1.395 . S
C355 C325 1.391 . S
C356 C318 1.389 . S
C356 C338 1.393 . S
C357 C328 1.392 . S
C357 C330 1.389 . S
C358 C333 1.395 . S
C358 C335 1.391 . S
H359 C319 0.951 . S
H360 C320 0.950 . S
H361 C326 0.949 . S
H362 C327 0.950 . S
H363 C331 0.951 . S
H364 C332 0.950 . S
H365 C336 0.949 . S
H366 C337 0.950 . S
H367 C341 0.950 . S
H368 C343 0.950 . S
H369 C346 0.950 . S
H370 C348 0.950 . S
C371 C372 1.443 . S
C371 N375 1.376 . S
C371 C409 1.389 . S
C372 C371 1.443 . S
C372 C373 1.340 . S
C372 H412 0.951 . S
C373 C372 1.340 . S
C373 C374 1.439 . S
C373 H413 0.950 . S
C374 C373 1.439 . S
C374 N375 1.374 . S
C374 C408 1.395 . S
N375 C371 1.376 . S
N375 C374 1.374 . S
N375 Co376 2.008 . S
Co376 N375 2.008 . S
Co376 N377 1.995 . S
Co376 N382 2.008 . S
Co376 N387 1.995 . S
Co376 N392 2.282 . S
Co376 N398 2.282 . S
N377 Co376 1.995 . S
N377 C378 1.376 . S
N377 C381 1.383 . S
C378 N377 1.376 . S
C378 C379 1.446 . S
C378 C408 1.391 . S
C379 C378 1.446 . S
C379 C380 1.339 . S
C379 H414 0.949 . S
C380 C379 1.339 . S
C380 C381 1.439 . S
C380 H415 0.950 . S
C381 N377 1.383 . S
C381 C380 1.439 . S
C381 C410 1.392 . S
N382 Co376 2.008 . S
N382 C383 1.376 . S
N382 C386 1.374 . S
C383 N382 1.376 . S
C383 C384 1.443 . S
C383 C410 1.389 . S
C384 C383 1.443 . S
C384 C385 1.340 . S
C384 H416 0.951 . S
C385 C384 1.340 . S
C385 C386 1.439 . S
C385 H417 0.950 . S
C386 N382 1.374 . S
C386 C385 1.439 . S
C386 C411 1.395 . S
N387 Co376 1.995 . S
N387 C388 1.376 . S
N387 C391 1.383 . S
C388 N387 1.376 . S
C388 C389 1.446 . S
C388 C411 1.391 . S
C389 C388 1.446 . S
C389 C390 1.339 . S
C389 H418 0.949 . S
C390 C389 1.339 . S
C390 C391 1.439 . S
C390 H419 0.950 . S
C391 N387 1.383 . S
C391 C390 1.439 . S
C391 C409 1.392 . S
N392 Co376 2.282 . S
N392 C395 1.332 . S
N392 C397 1.332 . S
C393 C394 1.386 . S
C393 C396 1.388 . S
C394 C393 1.386 . S
C394 C395 1.382 . S
C394 H420 0.950 . S
C395 N392 1.332 . S
C395 C394 1.382 . S
C395 H406 0.952 . S
C396 C393 1.388 . S
C396 C397 1.382 . S
C396 H421 0.950 . S
C397 N392 1.332 . S
C397 C396 1.382 . S
C397 H407 0.948 . S
N398 Co376 2.282 . S
N398 C402 1.332 . S
N398 C403 1.332 . S
C399 C400 1.388 . S
C399 C403 1.382 . S
C399 H422 0.950 . S
C400 C399 1.388 . S
C400 C401 1.386 . S
C401 C400 1.386 . S
C401 C402 1.382 . S
C401 H423 0.950 . S
C402 N398 1.332 . S
C402 C401 1.382 . S
C402 H404 0.952 . S
C403 N398 1.332 . S
C403 C399 1.382 . S
C403 H405 0.948 . S
H404 C402 0.952 . S
H405 C403 0.948 . S
H406 C395 0.952 . S
H407 C397 0.948 . S
C408 C374 1.395 . S
C408 C378 1.391 . S
C409 C371 1.389 . S
C409 C391 1.392 . S
C410 C381 1.392 . S
C410 C383 1.389 . S
C411 C386 1.395 . S
C411 C388 1.391 . S
H412 C372 0.951 . S
H413 C373 0.950 . S
H414 C379 0.949 . S
H415 C380 0.950 . S
H416 C384 0.951 . S
H417 C385 0.950 . S
H418 C389 0.949 . S
H419 C390 0.950 . S
H420 C394 0.950 . S
H421 C396 0.950 . S
H422 C399 0.950 . S
H423 C401 0.950 . S
H424 C442 0.951 . S
H425 C444 0.951 . S
H426 C446 0.950 . S
H427 C447 0.950 . S
H428 C449 0.950 . S
H429 C452 0.950 . S
H430 C453 0.950 . S
H431 C455 0.950 . S
H432 C456 0.950 . S
H433 C457 0.951 . S
H434 C459 0.951 . S
H435 C461 0.950 . S
H436 C462 0.950 . S
H437 C464 0.950 . S
H438 C467 0.950 . S
H439 C468 0.950 . S
H440 C470 0.950 . S
H441 C471 0.950 . S
C442 H424 0.951 . S
C442 C443 1.366 . S
C442 C444 1.388 . S
C443 C442 1.366 . S
C443 C447 1.385 . S
C444 H425 0.951 . S
C444 C442 1.388 . S
C444 C445 1.366 . S
C445 C444 1.366 . S
C445 C446 1.414 . S
C445 C448 1.499 . S
C446 H426 0.950 . S
C446 C445 1.414 . S
C446 C447 1.374 . S
C447 H427 0.950 . S
C447 C443 1.385 . S
C447 C446 1.374 . S
C448 C445 1.499 . S
C448 C449 1.373 . S
C448 C450 1.389 . S
C449 H428 0.950 . S
C449 C448 1.373 . S
C449 C465 1.377 . S
C450 C448 1.389 . S
C450 C451 1.524 . S
C450 C464 1.377 . S
C451 C450 1.524 . S
C451 C452 1.397 . S
C451 C456 1.363 . S
C452 H429 0.950 . S
C452 C451 1.397 . S
C452 C453 1.334 . S
C453 H430 0.950 . S
C453 C452 1.334 . S
C453 C454 1.287 . S
C454 C453 1.287 . S
C454 C455 1.524 . S
C454 H473 0.913 1_545 S
C455 H431 0.950 . S
C455 C454 1.524 . S
C455 C456 1.415 . S
C456 H432 0.950 . S
C456 C451 1.363 . S
C456 C455 1.415 . S
C457 H433 0.951 . S
C457 C458 1.366 1_556 S
C457 C459 1.388 . S
C458 C457 1.366 1_554 S
C458 C462 1.385 . S
C459 H434 0.951 . S
C459 C457 1.388 . S
C459 C460 1.366 . S
C460 C459 1.366 . S
C460 C461 1.414 1_556 S
C460 C463 1.499 . S
C461 H435 0.950 . S
C461 C460 1.414 1_554 S
C461 C462 1.374 . S
C462 H436 0.950 . S
C462 C458 1.385 . S
C462 C461 1.374 . S
C463 C460 1.499 . S
C463 C464 1.373 . S
C463 C465 1.389 . S
C464 H437 0.950 . S
C464 C450 1.377 . S
C464 C463 1.373 . S
C465 C449 1.377 . S
C465 C463 1.389 . S
C465 C466 1.524 . S
C466 C465 1.524 . S
C466 C467 1.397 . S
C466 C471 1.363 . S
C467 H438 0.950 . S
C467 C466 1.397 . S
C467 C468 1.334 . S
C468 H439 0.950 . S
C468 C467 1.334 . S
C468 C469 1.287 . S
C469 C468 1.287 . S
C469 C470 1.524 . S
C469 H472 0.999 . S
C470 H440 0.950 . S
C470 C469 1.524 . S
C470 C471 1.415 . S
C471 H441 0.950 . S
C471 C466 1.363 . S
C471 C470 1.415 . S
H472 C469 0.999 . S
H473 C454 0.913 1_565 S
H474 C492 0.951 . S
H475 C494 0.951 . S
H476 C496 0.950 . S
H477 C497 0.950 . S
H478 C499 0.950 . S
H479 C502 0.950 . S
H480 C503 0.950 . S
H481 C505 0.950 . S
H482 C506 0.950 . S
H483 C507 0.951 . S
H484 C509 0.951 . S
H485 C511 0.950 . S
H486 C512 0.950 . S
H487 C514 0.950 . S
H488 C517 0.950 . S
H489 C518 0.950 . S
H490 C520 0.950 . S
H491 C521 0.950 . S
C492 H474 0.951 . S
C492 C493 1.366 . S
C492 C494 1.388 . S
C493 C492 1.366 . S
C493 C497 1.385 . S
C494 H475 0.951 . S
C494 C492 1.388 . S
C494 C495 1.366 . S
C495 C494 1.366 . S
C495 C496 1.414 . S
C495 C498 1.499 . S
C496 H476 0.950 . S
C496 C495 1.414 . S
C496 C497 1.374 . S
C497 H477 0.950 . S
C497 C493 1.385 . S
C497 C496 1.374 . S
C498 C495 1.499 . S
C498 C499 1.373 . S
C498 C500 1.389 . S
C499 H478 0.950 . S
C499 C498 1.373 . S
C499 C515 1.377 . S
C500 C498 1.389 . S
C500 C501 1.524 . S
C500 C514 1.377 . S
C501 C500 1.524 . S
C501 C502 1.397 . S
C501 C506 1.363 . S
C502 H479 0.950 . S
C502 C501 1.397 . S
C502 C503 1.334 . S
C503 H480 0.950 . S
C503 C502 1.334 . S
C503 C504 1.287 . S
C504 C503 1.287 . S
C504 C505 1.524 . S
C504 H523 0.913 . S
C505 H481 0.950 . S
C505 C504 1.524 . S
C505 C506 1.415 . S
C506 H482 0.950 . S
C506 C501 1.363 . S
C506 C505 1.415 . S
C507 H483 0.951 . S
C507 C508 1.366 . S
C507 C509 1.388 . S
C508 C507 1.366 . S
C508 C512 1.385 . S
C509 H484 0.951 . S
C509 C507 1.388 . S
C509 C510 1.366 . S
C510 C509 1.366 . S
C510 C511 1.414 . S
C510 C513 1.499 . S
C511 H485 0.950 . S
C511 C510 1.414 . S
C511 C512 1.374 . S
C512 H486 0.950 . S
C512 C508 1.385 . S
C512 C511 1.374 . S
C513 C510 1.499 . S
C513 C514 1.373 . S
C513 C515 1.389 . S
C514 H487 0.950 . S
C514 C500 1.377 . S
C514 C513 1.373 . S
C515 C499 1.377 . S
C515 C513 1.389 . S
C515 C516 1.524 . S
C516 C515 1.524 . S
C516 C517 1.397 . S
C516 C521 1.363 . S
C517 H488 0.950 . S
C517 C516 1.397 . S
C517 C518 1.334 . S
C518 H489 0.950 . S
C518 C517 1.334 . S
C518 C519 1.287 . S
C519 C518 1.287 . S
C519 C520 1.524 . S
C519 H522 0.999 . S
C520 H490 0.950 . S
C520 C519 1.524 . S
C520 C521 1.415 . S
C521 H491 0.950 . S
C521 C516 1.363 . S
C521 C520 1.415 . S
H522 C519 0.999 . S
H523 C504 0.913 . S
H524 C542 0.951 . S
H525 C544 0.951 . S
H526 C546 0.950 . S
H527 C547 0.950 . S
H528 C549 0.950 . S
H529 C552 0.950 . S
H530 C553 0.950 . S
H531 C555 0.950 . S
H532 C556 0.950 . S
H533 C557 0.951 . S
H534 C559 0.951 . S
H535 C561 0.950 . S
H536 C562 0.950 . S
H537 C564 0.950 . S
H538 C567 0.950 . S
H539 C568 0.950 . S
H540 C570 0.950 . S
H541 C571 0.950 . S
C542 H524 0.951 . S
C542 C543 1.366 . S
C542 C544 1.388 . S
C543 C542 1.366 . S
C543 C547 1.385 . S
C544 H525 0.951 . S
C544 C542 1.388 . S
C544 C545 1.366 . S
C545 C544 1.366 . S
C545 C546 1.414 . S
C545 C548 1.499 . S
C546 H526 0.950 . S
C546 C545 1.414 . S
C546 C547 1.374 . S
C547 H527 0.950 . S
C547 C543 1.385 . S
C547 C546 1.374 . S
C548 C545 1.499 . S
C548 C549 1.373 . S
C548 C550 1.389 . S
C549 H528 0.950 . S
C549 C548 1.373 . S
C549 C565 1.377 . S
C550 C548 1.389 . S
C550 C551 1.524 . S
C550 C564 1.377 . S
C551 C550 1.524 . S
C551 C552 1.397 . S
C551 C556 1.363 . S
C552 H529 0.950 . S
C552 C551 1.397 . S
C552 C553 1.334 . S
C553 H530 0.950 . S
C553 C552 1.334 . S
C553 C554 1.287 . S
C554 C553 1.287 . S
C554 C555 1.524 . S
C554 H573 0.913 . S
C555 H531 0.950 . S
C555 C554 1.524 . S
C555 C556 1.415 . S
C556 H532 0.950 . S
C556 C551 1.363 . S
C556 C555 1.415 . S
C557 H533 0.951 . S
C557 C558 1.366 . S
C557 C559 1.388 . S
C558 C557 1.366 . S
C558 C562 1.385 1_556 S
C559 H534 0.951 . S
C559 C557 1.388 . S
C559 C560 1.366 1_556 S
C560 C559 1.366 1_554 S
C560 C561 1.414 . S
C560 C563 1.499 . S
C561 H535 0.950 . S
C561 C560 1.414 . S
C561 C562 1.374 . S
C562 H536 0.950 . S
C562 C558 1.385 1_554 S
C562 C561 1.374 . S
C563 C560 1.499 . S
C563 C564 1.373 . S
C563 C565 1.389 . S
C564 H537 0.950 . S
C564 C550 1.377 . S
C564 C563 1.373 . S
C565 C549 1.377 . S
C565 C563 1.389 . S
C565 C566 1.524 . S
C566 C565 1.524 . S
C566 C567 1.397 . S
C566 C571 1.363 . S
C567 H538 0.950 . S
C567 C566 1.397 . S
C567 C568 1.334 1_554 S
C568 H539 0.950 . S
C568 C567 1.334 1_556 S
C568 C569 1.287 . S
C569 C568 1.287 . S
C569 C570 1.524 . S
C569 H572 0.999 . S
C570 H540 0.950 . S
C570 C569 1.524 . S
C570 C571 1.415 1_556 S
C571 H541 0.950 . S
C571 C566 1.363 . S
C571 C570 1.415 1_554 S
H572 C569 0.999 . S
H573 C554 0.913 . S
H574 C592 0.951 . S
H575 C594 0.951 . S
H576 C596 0.950 . S
H577 C597 0.950 . S
H578 C599 0.950 . S
H579 C602 0.950 . S
H580 C603 0.950 . S
H581 C605 0.950 . S
H582 C606 0.950 . S
H583 C607 0.951 . S
H584 C609 0.951 . S
H585 C611 0.950 . S
H586 C612 0.950 . S
H587 C614 0.950 . S
H588 C617 0.950 . S
H589 C618 0.950 . S
H590 C620 0.950 . S
H591 C621 0.950 . S
C592 H574 0.951 . S
C592 C593 1.366 . S
C592 C594 1.388 . S
C593 C592 1.366 . S
C593 C597 1.385 . S
C594 H575 0.951 . S
C594 C592 1.388 . S
C594 C595 1.366 . S
C595 C594 1.366 . S
C595 C596 1.414 . S
C595 C598 1.499 . S
C596 H576 0.950 . S
C596 C595 1.414 . S
C596 C597 1.374 . S
C597 H577 0.950 . S
C597 C593 1.385 . S
C597 C596 1.374 . S
C598 C595 1.499 . S
C598 C599 1.373 . S
C598 C600 1.389 . S
C599 H578 0.950 . S
C599 C598 1.373 . S
C599 C615 1.377 . S
C600 C598 1.389 . S
C600 C601 1.524 . S
C600 C614 1.377 . S
C601 C600 1.524 . S
C601 C602 1.397 . S
C601 C606 1.363 . S
C602 H579 0.950 . S
C602 C601 1.397 . S
C602 C603 1.334 . S
C603 H580 0.950 . S
C603 C602 1.334 . S
C603 C604 1.287 . S
C604 C603 1.287 . S
C604 C605 1.524 . S
C604 H623 0.913 . S
C605 H581 0.950 . S
C605 C604 1.524 . S
C605 C606 1.415 . S
C606 H582 0.950 . S
C606 C601 1.363 . S
C606 C605 1.415 . S
C607 H583 0.951 . S
C607 C608 1.366 . S
C607 C609 1.388 . S
C608 C607 1.366 . S
C608 C612 1.385 . S
C609 H584 0.951 . S
C609 C607 1.388 . S
C609 C610 1.366 . S
C610 C609 1.366 . S
C610 C611 1.414 . S
C610 C613 1.499 . S
C611 H585 0.950 . S
C611 C610 1.414 . S
C611 C612 1.374 . S
C612 H586 0.950 . S
C612 C608 1.385 . S
C612 C611 1.374 . S
C613 C610 1.499 . S
C613 C614 1.373 . S
C613 C615 1.389 . S
C614 H587 0.950 . S
C614 C600 1.377 . S
C614 C613 1.373 . S
C615 C599 1.377 . S
C615 C613 1.389 . S
C615 C616 1.524 . S
C616 C615 1.524 . S
C616 C617 1.397 . S
C616 C621 1.363 . S
C617 H588 0.950 . S
C617 C616 1.397 . S
C617 C618 1.334 . S
C618 H589 0.950 . S
C618 C617 1.334 . S
C618 C619 1.287 . S
C619 C618 1.287 . S
C619 C620 1.524 . S
C619 H622 0.999 . S
C620 H590 0.950 . S
C620 C619 1.524 . S
C620 C621 1.415 . S
C621 H591 0.950 . S
C621 C616 1.363 . S
C621 C620 1.415 . S
H622 C619 0.999 . S
H623 C604 0.913 . S
H624 C642 0.951 . S
H625 C644 0.951 . S
H626 C646 0.950 . S
H627 C647 0.950 . S
H628 C649 0.950 . S
H629 C652 0.950 . S
H630 C653 0.950 . S
H631 C655 0.950 . S
H632 C656 0.950 . S
H633 C657 0.951 . S
H634 C659 0.951 . S
H635 C661 0.950 . S
H636 C662 0.950 . S
H637 C664 0.950 . S
H638 C667 0.950 . S
H639 C668 0.950 . S
H640 C670 0.950 . S
H641 C671 0.950 . S
C642 H624 0.951 . S
C642 C643 1.366 . S
C642 C644 1.388 . S
C643 C642 1.366 . S
C643 C647 1.385 . S
C644 H625 0.951 . S
C644 C642 1.388 . S
C644 C645 1.366 . S
C645 C644 1.366 . S
C645 C646 1.414 . S
C645 C648 1.499 . S
C646 H626 0.950 . S
C646 C645 1.414 . S
C646 C647 1.374 . S
C647 H627 0.950 . S
C647 C643 1.385 . S
C647 C646 1.374 . S
C648 C645 1.499 . S
C648 C649 1.373 . S
C648 C650 1.389 . S
C649 H628 0.950 . S
C649 C648 1.373 . S
C649 C665 1.377 . S
C650 C648 1.389 . S
C650 C651 1.524 . S
C650 C664 1.377 . S
C651 C650 1.524 . S
C651 C652 1.397 . S
C651 C656 1.363 . S
C652 H629 0.950 . S
C652 C651 1.397 . S
C652 C653 1.334 . S
C653 H630 0.950 . S
C653 C652 1.334 . S
C653 C654 1.287 . S
C654 C653 1.287 . S
C654 C655 1.524 . S
C654 H673 0.913 . S
C655 H631 0.950 . S
C655 C654 1.524 . S
C655 C656 1.415 . S
C656 H632 0.950 . S
C656 C651 1.363 . S
C656 C655 1.415 . S
C657 H633 0.951 . S
C657 C658 1.366 . S
C657 C659 1.388 . S
C658 C657 1.366 . S
C658 C662 1.385 . S
C659 H634 0.951 . S
C659 C657 1.388 . S
C659 C660 1.366 . S
C660 C659 1.366 . S
C660 C661 1.414 . S
C660 C663 1.499 . S
C661 H635 0.950 . S
C661 C660 1.414 . S
C661 C662 1.374 . S
C662 H636 0.950 . S
C662 C658 1.385 . S
C662 C661 1.374 . S
C663 C660 1.499 . S
C663 C664 1.373 . S
C663 C665 1.389 . S
C664 H637 0.950 . S
C664 C650 1.377 . S
C664 C663 1.373 . S
C665 C649 1.377 . S
C665 C663 1.389 . S
C665 C666 1.524 . S
C666 C665 1.524 . S
C666 C667 1.397 . S
C666 C671 1.363 . S
C667 H638 0.950 . S
C667 C666 1.397 . S
C667 C668 1.334 . S
C668 H639 0.950 . S
C668 C667 1.334 . S
C668 C669 1.287 . S
C669 C668 1.287 . S
C669 C670 1.524 . S
C669 H672 0.999 . S
C670 H640 0.950 . S
C670 C669 1.524 . S
C670 C671 1.415 . S
C671 H641 0.950 . S
C671 C666 1.363 . S
C671 C670 1.415 . S
H672 C669 0.999 . S
H673 C654 0.913 . S
H674 C692 0.951 . S
H675 C694 0.951 . S
H676 C696 0.950 . S
H677 C697 0.950 . S
H678 C699 0.950 . S
H679 C702 0.950 . S
H680 C703 0.950 . S
H681 C705 0.950 . S
H682 C706 0.950 . S
H683 C707 0.951 . S
H684 C709 0.951 . S
H685 C711 0.950 . S
H686 C712 0.950 . S
H687 C714 0.950 . S
H688 C717 0.950 . S
H689 C718 0.950 . S
H690 C720 0.950 . S
H691 C721 0.950 . S
C692 H674 0.951 . S
C692 C693 1.366 . S
C692 C694 1.388 . S
C693 C692 1.366 . S
C693 C697 1.385 . S
C694 H675 0.951 . S
C694 C692 1.388 . S
C694 C695 1.366 . S
C695 C694 1.366 . S
C695 C696 1.414 . S
C695 C698 1.499 . S
C696 H676 0.950 . S
C696 C695 1.414 . S
C696 C697 1.374 . S
C697 H677 0.950 . S
C697 C693 1.385 . S
C697 C696 1.374 . S
C698 C695 1.499 . S
C698 C699 1.373 . S
C698 C700 1.389 . S
C699 H678 0.950 . S
C699 C698 1.373 . S
C699 C715 1.377 . S
C700 C698 1.389 . S
C700 C701 1.524 . S
C700 C714 1.377 . S
C701 C700 1.524 . S
C701 C702 1.397 . S
C701 C706 1.363 . S
C702 H679 0.950 . S
C702 C701 1.397 . S
C702 C703 1.334 . S
C703 H680 0.950 . S
C703 C702 1.334 . S
C703 C704 1.287 . S
C704 C703 1.287 . S
C704 C705 1.524 . S
C704 H723 0.913 . S
C705 H681 0.950 . S
C705 C704 1.524 . S
C705 C706 1.415 . S
C706 H682 0.950 . S
C706 C701 1.363 . S
C706 C705 1.415 . S
C707 H683 0.951 . S
C707 C708 1.366 . S
C707 C709 1.388 . S
C708 C707 1.366 . S
C708 C712 1.385 . S
C709 H684 0.951 . S
C709 C707 1.388 . S
C709 C710 1.366 . S
C710 C709 1.366 . S
C710 C711 1.414 . S
C710 C713 1.499 . S
C711 H685 0.950 . S
C711 C710 1.414 . S
C711 C712 1.374 . S
C712 H686 0.950 . S
C712 C708 1.385 . S
C712 C711 1.374 . S
C713 C710 1.499 . S
C713 C714 1.373 . S
C713 C715 1.389 . S
C714 H687 0.950 . S
C714 C700 1.377 . S
C714 C713 1.373 . S
C715 C699 1.377 . S
C715 C713 1.389 . S
C715 C716 1.524 . S
C716 C715 1.524 . S
C716 C717 1.397 . S
C716 C721 1.363 . S
C717 H688 0.950 . S
C717 C716 1.397 . S
C717 C718 1.334 . S
C718 H689 0.950 . S
C718 C717 1.334 . S
C718 C719 1.287 . S
C719 C718 1.287 . S
C719 C720 1.524 . S
C719 H722 0.999 . S
C720 H690 0.950 . S
C720 C719 1.524 . S
C720 C721 1.415 . S
C721 H691 0.950 . S
C721 C716 1.363 . S
C721 C720 1.415 . S
H722 C719 0.999 . S
H723 C704 0.913 . S
H724 C742 0.951 . S
H725 C744 0.951 . S
H726 C746 0.950 . S
H727 C747 0.950 . S
H728 C749 0.950 . S
H729 C752 0.950 . S
H730 C753 0.950 . S
H731 C755 0.950 . S
H732 C756 0.950 . S
H733 C757 0.951 . S
H734 C759 0.951 . S
H735 C761 0.950 . S
H736 C762 0.950 . S
H737 C764 0.950 . S
H738 C767 0.950 . S
H739 C768 0.950 . S
H740 C770 0.950 . S
H741 C771 0.950 . S
C742 H724 0.951 . S
C742 C743 1.366 . S
C742 C744 1.388 . S
C743 C742 1.366 . S
C743 C747 1.385 . S
C744 H725 0.951 . S
C744 C742 1.388 . S
C744 C745 1.366 . S
C745 C744 1.366 . S
C745 C746 1.414 . S
C745 C748 1.499 . S
C746 H726 0.950 . S
C746 C745 1.414 . S
C746 C747 1.374 . S
C747 H727 0.950 . S
C747 C743 1.385 . S
C747 C746 1.374 . S
C748 C745 1.499 . S
C748 C749 1.373 . S
C748 C750 1.389 . S
C749 H728 0.950 . S
C749 C748 1.373 . S
C749 C765 1.377 . S
C750 C748 1.389 . S
C750 C751 1.524 . S
C750 C764 1.377 . S
C751 C750 1.524 . S
C751 C752 1.397 . S
C751 C756 1.363 . S
C752 H729 0.950 . S
C752 C751 1.397 . S
C752 C753 1.334 . S
C753 H730 0.950 . S
C753 C752 1.334 . S
C753 C754 1.287 . S
C754 C753 1.287 . S
C754 C755 1.524 . S
C754 H773 0.913 . S
C755 H731 0.950 . S
C755 C754 1.524 . S
C755 C756 1.415 . S
C756 H732 0.950 . S
C756 C751 1.363 . S
C756 C755 1.415 . S
C757 H733 0.951 . S
C757 C758 1.366 . S
C757 C759 1.388 . S
C758 C757 1.366 . S
C758 C762 1.385 . S
C759 H734 0.951 . S
C759 C757 1.388 . S
C759 C760 1.366 . S
C760 C759 1.366 . S
C760 C761 1.414 . S
C760 C763 1.499 . S
C761 H735 0.950 . S
C761 C760 1.414 . S
C761 C762 1.374 . S
C762 H736 0.950 . S
C762 C758 1.385 . S
C762 C761 1.374 . S
C763 C760 1.499 . S
C763 C764 1.373 . S
C763 C765 1.389 . S
C764 H737 0.950 . S
C764 C750 1.377 . S
C764 C763 1.373 . S
C765 C749 1.377 . S
C765 C763 1.389 . S
C765 C766 1.524 . S
C766 C765 1.524 . S
C766 C767 1.397 . S
C766 C771 1.363 . S
C767 H738 0.950 . S
C767 C766 1.397 . S
C767 C768 1.334 . S
C768 H739 0.950 . S
C768 C767 1.334 . S
C768 C769 1.287 . S
C769 C768 1.287 . S
C769 C770 1.524 . S
C769 H772 0.999 . S
C770 H740 0.950 . S
C770 C769 1.524 . S
C770 C771 1.415 . S
C771 H741 0.950 . S
C771 C766 1.363 . S
C771 C770 1.415 . S
H772 C769 0.999 . S
H773 C754 0.913 . S
H774 C792 0.951 . S
H775 C794 0.951 . S
H776 C796 0.950 . S
H777 C797 0.950 . S
H778 C799 0.950 . S
H779 C802 0.950 . S
H780 C803 0.950 . S
H781 C805 0.950 . S
H782 C806 0.950 . S
H783 C807 0.951 . S
H784 C809 0.951 . S
H785 C811 0.950 . S
H786 C812 0.950 . S
H787 C814 0.950 . S
H788 C817 0.950 . S
H789 C818 0.950 . S
H790 C820 0.950 . S
H791 C821 0.950 . S
C792 H774 0.951 . S
C792 C793 1.366 . S
C792 C794 1.388 . S
C793 C792 1.366 . S
C793 C797 1.385 . S
C794 H775 0.951 . S
C794 C792 1.388 . S
C794 C795 1.366 . S
C795 C794 1.366 . S
C795 C796 1.414 . S
C795 C798 1.499 . S
C796 H776 0.950 . S
C796 C795 1.414 . S
C796 C797 1.374 . S
C797 H777 0.950 . S
C797 C793 1.385 . S
C797 C796 1.374 . S
C798 C795 1.499 . S
C798 C799 1.373 . S
C798 C800 1.389 . S
C799 H778 0.950 . S
C799 C798 1.373 . S
C799 C815 1.377 . S
C800 C798 1.389 . S
C800 C801 1.524 . S
C800 C814 1.377 . S
C801 C800 1.524 . S
C801 C802 1.397 . S
C801 C806 1.363 . S
C802 H779 0.950 . S
C802 C801 1.397 . S
C802 C803 1.334 . S
C803 H780 0.950 . S
C803 C802 1.334 . S
C803 C804 1.287 . S
C804 C803 1.287 . S
C804 C805 1.524 . S
C804 H823 0.913 . S
C805 H781 0.950 . S
C805 C804 1.524 . S
C805 C806 1.415 . S
C806 H782 0.950 . S
C806 C801 1.363 . S
C806 C805 1.415 . S
C807 H783 0.951 . S
C807 C808 1.366 . S
C807 C809 1.388 . S
C808 C807 1.366 . S
C808 C812 1.385 . S
C809 H784 0.951 . S
C809 C807 1.388 . S
C809 C810 1.366 . S
C810 C809 1.366 . S
C810 C811 1.414 . S
C810 C813 1.499 . S
C811 H785 0.950 . S
C811 C810 1.414 . S
C811 C812 1.374 . S
C812 H786 0.950 . S
C812 C808 1.385 . S
C812 C811 1.374 . S
C813 C810 1.499 . S
C813 C814 1.373 . S
C813 C815 1.389 . S
C814 H787 0.950 . S
C814 C800 1.377 . S
C814 C813 1.373 . S
C815 C799 1.377 . S
C815 C813 1.389 . S
C815 C816 1.524 . S
C816 C815 1.524 . S
C816 C817 1.397 . S
C816 C821 1.363 . S
C817 H788 0.950 . S
C817 C816 1.397 . S
C817 C818 1.334 . S
C818 H789 0.950 . S
C818 C817 1.334 . S
C818 C819 1.287 . S
C819 C818 1.287 . S
C819 C820 1.524 . S
C819 H822 0.999 . S
C820 H790 0.950 . S
C820 C819 1.524 . S
C820 C821 1.415 . S
C821 H791 0.950 . S
C821 C816 1.363 . S
C821 C820 1.415 . S
H822 C819 0.999 . S
H823 C804 0.913 . S
H824 C842 0.951 . S
H825 C844 0.951 . S
H826 C846 0.950 . S
H827 C847 0.950 . S
H828 C849 0.950 . S
H829 C852 0.950 . S
H830 C853 0.950 . S
H831 C855 0.950 . S
H832 C856 0.950 . S
H833 C857 0.951 . S
H834 C859 0.951 . S
H835 C861 0.950 . S
H836 C862 0.950 . S
H837 C864 0.950 . S
H838 C867 0.950 . S
H839 C868 0.950 . S
H840 C870 0.950 . S
H841 C871 0.950 . S
C842 H824 0.951 . S
C842 C843 1.366 . S
C842 C844 1.388 . S
C843 C842 1.366 . S
C843 C847 1.385 . S
C844 H825 0.951 . S
C844 C842 1.388 . S
C844 C845 1.366 . S
C845 C844 1.366 . S
C845 C846 1.414 . S
C845 C848 1.499 . S
C846 H826 0.950 . S
C846 C845 1.414 . S
C846 C847 1.374 . S
C847 H827 0.950 . S
C847 C843 1.385 . S
C847 C846 1.374 . S
C848 C845 1.499 . S
C848 C849 1.373 . S
C848 C850 1.389 . S
C849 H828 0.950 . S
C849 C848 1.373 . S
C849 C865 1.377 1_455 S
C850 C848 1.389 . S
C850 C851 1.524 . S
C850 C864 1.377 1_455 S
C851 C850 1.524 . S
C851 C852 1.397 . S
C851 C856 1.363 . S
C852 H829 0.950 . S
C852 C851 1.397 . S
C852 C853 1.334 . S
C853 H830 0.950 . S
C853 C852 1.334 . S
C853 C854 1.287 . S
C854 C853 1.287 . S
C854 C855 1.524 . S
C854 H873 0.913 . S
C855 H831 0.950 . S
C855 C854 1.524 . S
C855 C856 1.415 . S
C856 H832 0.950 . S
C856 C851 1.363 . S
C856 C855 1.415 . S
C857 H833 0.951 . S
C857 C858 1.366 . S
C857 C859 1.388 . S
C858 C857 1.366 . S
C858 C862 1.385 . S
C859 H834 0.951 . S
C859 C857 1.388 . S
C859 C860 1.366 . S
C860 C859 1.366 . S
C860 C861 1.414 . S
C860 C863 1.499 . S
C861 H835 0.950 . S
C861 C860 1.414 . S
C861 C862 1.374 . S
C862 H836 0.950 . S
C862 C858 1.385 . S
C862 C861 1.374 . S
C863 C860 1.499 . S
C863 C864 1.373 . S
C863 C865 1.389 . S
C864 H837 0.950 . S
C864 C850 1.377 1_655 S
C864 C863 1.373 . S
C865 C849 1.377 1_655 S
C865 C863 1.389 . S
C865 C866 1.524 . S
C866 C865 1.524 . S
C866 C867 1.397 . S
C866 C871 1.363 . S
C867 H838 0.950 . S
C867 C866 1.397 . S
C867 C868 1.334 . S
C868 H839 0.950 . S
C868 C867 1.334 . S
C868 C869 1.287 . S
C869 C868 1.287 . S
C869 C870 1.524 . S
C869 H872 0.999 . S
C870 H840 0.950 . S
C870 C869 1.524 . S
C870 C871 1.415 . S
C871 H841 0.950 . S
C871 C866 1.363 . S
C871 C870 1.415 . S
H872 C869 0.999 . S
H873 C854 0.913 . S
H874 C892 0.951 . S
H875 C894 0.951 . S
H876 C896 0.950 . S
H877 C897 0.950 . S
H878 C899 0.950 . S
H879 C902 0.950 . S
H880 C903 0.950 . S
H881 C905 0.950 . S
H882 C906 0.950 . S
H883 C907 0.951 . S
H884 C909 0.951 . S
H885 C911 0.950 . S
H886 C912 0.950 . S
H887 C914 0.950 . S
H888 C917 0.950 . S
H889 C918 0.950 . S
H890 C920 0.950 . S
H891 C921 0.950 . S
C892 H874 0.951 . S
C892 C893 1.366 . S
C892 C894 1.388 . S
C893 C892 1.366 . S
C893 C897 1.385 . S
C894 H875 0.951 . S
C894 C892 1.388 . S
C894 C895 1.366 . S
C895 C894 1.366 . S
C895 C896 1.414 . S
C895 C898 1.499 . S
C896 H876 0.950 . S
C896 C895 1.414 . S
C896 C897 1.374 . S
C897 H877 0.950 . S
C897 C893 1.385 . S
C897 C896 1.374 . S
C898 C895 1.499 . S
C898 C899 1.373 . S
C898 C900 1.389 . S
C899 H878 0.950 . S
C899 C898 1.373 . S
C899 C915 1.377 . S
C900 C898 1.389 . S
C900 C901 1.524 . S
C900 C914 1.377 . S
C901 C900 1.524 . S
C901 C902 1.397 . S
C901 C906 1.363 . S
C902 H879 0.950 . S
C902 C901 1.397 . S
C902 C903 1.334 . S
C903 H880 0.950 . S
C903 C902 1.334 . S
C903 C904 1.287 . S
C904 C903 1.287 . S
C904 C905 1.524 . S
C904 H923 0.913 . S
C905 H881 0.950 . S
C905 C904 1.524 . S
C905 C906 1.415 . S
C906 H882 0.950 . S
C906 C901 1.363 . S
C906 C905 1.415 . S
C907 H883 0.951 . S
C907 C908 1.366 . S
C907 C909 1.388 . S
C908 C907 1.366 . S
C908 C912 1.385 . S
C909 H884 0.951 . S
C909 C907 1.388 . S
C909 C910 1.366 . S
C910 C909 1.366 . S
C910 C911 1.414 . S
C910 C913 1.499 . S
C911 H885 0.950 . S
C911 C910 1.414 . S
C911 C912 1.374 . S
C912 H886 0.950 . S
C912 C908 1.385 . S
C912 C911 1.374 . S
C913 C910 1.499 . S
C913 C914 1.373 . S
C913 C915 1.389 . S
C914 H887 0.950 . S
C914 C900 1.377 . S
C914 C913 1.373 . S
C915 C899 1.377 . S
C915 C913 1.389 . S
C915 C916 1.524 . S
C916 C915 1.524 . S
C916 C917 1.397 . S
C916 C921 1.363 . S
C917 H888 0.950 . S
C917 C916 1.397 . S
C917 C918 1.334 . S
C918 H889 0.950 . S
C918 C917 1.334 . S
C918 C919 1.287 . S
C919 C918 1.287 . S
C919 C920 1.524 . S
C919 H922 0.999 . S
C920 H890 0.950 . S
C920 C919 1.524 . S
C920 C921 1.415 . S
C921 H891 0.950 . S
C921 C916 1.363 . S
C921 C920 1.415 . S
H922 C919 0.999 . S
H923 C904 0.913 . S
H924 C942 0.951 . S
H925 C944 0.951 . S
H926 C946 0.950 . S
H927 C947 0.950 . S
H928 C949 0.950 . S
H929 C952 0.950 . S
H930 C953 0.950 . S
H931 C955 0.950 . S
H932 C956 0.950 . S
H933 C957 0.951 . S
H934 C959 0.951 . S
H935 C961 0.950 . S
H936 C962 0.950 . S
H937 C964 0.950 . S
H938 C967 0.950 . S
H939 C968 0.950 . S
H940 C970 0.950 . S
H941 C971 0.950 . S
C942 H924 0.951 . S
C942 C943 1.366 . S
C942 C944 1.388 . S
C943 C942 1.366 . S
C943 C947 1.385 . S
C944 H925 0.951 . S
C944 C942 1.388 . S
C944 C945 1.366 . S
C945 C944 1.366 . S
C945 C946 1.414 . S
C945 C948 1.499 . S
C946 H926 0.950 . S
C946 C945 1.414 . S
C946 C947 1.374 . S
C947 H927 0.950 . S
C947 C943 1.385 . S
C947 C946 1.374 . S
C948 C945 1.499 . S
C948 C949 1.373 . S
C948 C950 1.389 . S
C949 H928 0.950 . S
C949 C948 1.373 . S
C949 C965 1.377 1_455 S
C950 C948 1.389 . S
C950 C951 1.524 . S
C950 C964 1.377 1_455 S
C951 C950 1.524 . S
C951 C952 1.397 . S
C951 C956 1.363 . S
C952 H929 0.950 . S
C952 C951 1.397 . S
C952 C953 1.334 . S
C953 H930 0.950 . S
C953 C952 1.334 . S
C953 C954 1.287 . S
C954 C953 1.287 . S
C954 C955 1.524 . S
C954 H973 0.913 . S
C955 H931 0.950 . S
C955 C954 1.524 . S
C955 C956 1.415 . S
C956 H932 0.950 . S
C956 C951 1.363 . S
C956 C955 1.415 . S
C957 H933 0.951 . S
C957 C958 1.366 . S
C957 C959 1.388 . S
C958 C957 1.366 . S
C958 C962 1.385 . S
C959 H934 0.951 . S
C959 C957 1.388 . S
C959 C960 1.366 . S
C960 C959 1.366 . S
C960 C961 1.414 . S
C960 C963 1.499 . S
C961 H935 0.950 . S
C961 C960 1.414 . S
C961 C962 1.374 . S
C962 H936 0.950 . S
C962 C958 1.385 . S
C962 C961 1.374 . S
C963 C960 1.499 . S
C963 C964 1.373 . S
C963 C965 1.389 . S
C964 H937 0.950 . S
C964 C950 1.377 1_655 S
C964 C963 1.373 . S
C965 C949 1.377 1_655 S
C965 C963 1.389 . S
C965 C966 1.524 . S
C966 C965 1.524 . S
C966 C967 1.397 . S
C966 C971 1.363 . S
C967 H938 0.950 . S
C967 C966 1.397 . S
C967 C968 1.334 . S
C968 H939 0.950 . S
C968 C967 1.334 . S
C968 C969 1.287 . S
C969 C968 1.287 . S
C969 C970 1.524 . S
C969 H972 0.999 . S
C970 H940 0.950 . S
C970 C969 1.524 . S
C970 C971 1.415 . S
C971 H941 0.950 . S
C971 C966 1.363 . S
C971 C970 1.415 . S
H972 C969 0.999 . S
H973 C954 0.913 . S
H974 C992 0.951 . S
H975 C994 0.951 . S
H976 C996 0.950 . S
H977 C997 0.950 . S
H978 C999 0.950 . S
H979 C1002 0.950 . S
H980 C1003 0.950 . S
H981 C1005 0.950 . S
H982 C1006 0.950 . S
H983 C1007 0.951 . S
H984 C1009 0.951 . S
H985 C1011 0.950 . S
H986 C1012 0.950 . S
H987 C1014 0.950 . S
H988 C1017 0.950 . S
H989 C1018 0.950 . S
H990 C1020 0.950 . S
H991 C1021 0.950 . S
C992 H974 0.951 . S
C992 C993 1.366 . S
C992 C994 1.388 . S
C993 C992 1.366 . S
C993 C997 1.385 . S
C994 H975 0.951 . S
C994 C992 1.388 . S
C994 C995 1.366 . S
C995 C994 1.366 . S
C995 C996 1.414 . S
C995 C998 1.499 . S
C996 H976 0.950 . S
C996 C995 1.414 . S
C996 C997 1.374 . S
C997 H977 0.950 . S
C997 C993 1.385 . S
C997 C996 1.374 . S
C998 C995 1.499 . S
C998 C999 1.373 . S
C998 C1000 1.389 . S
C999 H978 0.950 . S
C999 C998 1.373 . S
C999 C1015 1.377 . S
C1000 C998 1.389 . S
C1000 C1001 1.524 . S
C1000 C1014 1.377 . S
C1001 C1000 1.524 . S
C1001 C1002 1.397 . S
C1001 C1006 1.363 . S
C1002 H979 0.950 . S
C1002 C1001 1.397 . S
C1002 C1003 1.334 . S
C1003 H980 0.950 . S
C1003 C1002 1.334 . S
C1003 C1004 1.287 . S
C1004 C1003 1.287 . S
C1004 C1005 1.524 . S
C1004 H1023 0.913 . S
C1005 H981 0.950 . S
C1005 C1004 1.524 . S
C1005 C1006 1.415 . S
C1006 H982 0.950 . S
C1006 C1001 1.363 . S
C1006 C1005 1.415 . S
C1007 H983 0.951 . S
C1007 C1008 1.366 . S
C1007 C1009 1.388 . S
C1008 C1007 1.366 . S
C1008 C1012 1.385 . S
C1009 H984 0.951 . S
C1009 C1007 1.388 . S
C1009 C1010 1.366 . S
C1010 C1009 1.366 . S
C1010 C1011 1.414 . S
C1010 C1013 1.499 . S
C1011 H985 0.950 . S
C1011 C1010 1.414 . S
C1011 C1012 1.374 . S
C1012 H986 0.950 . S
C1012 C1008 1.385 . S
C1012 C1011 1.374 . S
C1013 C1010 1.499 . S
C1013 C1014 1.373 . S
C1013 C1015 1.389 . S
C1014 H987 0.950 . S
C1014 C1000 1.377 . S
C1014 C1013 1.373 . S
C1015 C999 1.377 . S
C1015 C1013 1.389 . S
C1015 C1016 1.524 . S
C1016 C1015 1.524 . S
C1016 C1017 1.397 . S
C1016 C1021 1.363 . S
C1017 H988 0.950 . S
C1017 C1016 1.397 . S
C1017 C1018 1.334 . S
C1018 H989 0.950 . S
C1018 C1017 1.334 . S
C1018 C1019 1.287 . S
C1019 C1018 1.287 . S
C1019 C1020 1.524 . S
C1019 H1022 0.999 . S
C1020 H990 0.950 . S
C1020 C1019 1.524 . S
C1020 C1021 1.415 . S
C1021 H991 0.950 . S
C1021 C1016 1.363 . S
C1021 C1020 1.415 . S
H1022 C1019 0.999 . S
H1023 C1004 0.913 . S
H1024 C1042 0.951 1_556 S
H1025 C1044 0.951 1_556 S
H1026 C1046 0.950 . S
H1027 C1047 0.950 . S
H1028 C1049 0.956 . S
H1029 C1052 0.950 . S
H1030 C1053 0.950 . S
H1031 C1055 0.950 . S
H1032 C1056 0.950 1_565 S
H1033 C1057 0.951 . S
H1034 C1059 0.951 . S
H1035 C1061 0.950 . S
H1036 C1062 0.950 . S
H1037 C1064 0.950 . S
H1038 C1067 0.950 . S
H1039 C1068 0.950 . S
H1040 C1070 0.950 . S
H1041 C1071 0.950 1_545 S
C1042 H1024 0.951 1_554 S
C1042 C1043 1.366 . S
C1042 C1044 1.388 . S
C1043 C1042 1.366 . S
C1043 C1047 1.385 . S
C1044 H1025 0.951 1_554 S
C1044 C1042 1.388 . S
C1044 C1045 1.366 . S
C1045 C1044 1.366 . S
C1045 C1046 1.414 . S
C1045 C1048 1.499 . S
C1046 H1026 0.950 . S
C1046 C1045 1.414 . S
C1046 C1047 1.374 . S
C1047 H1027 0.950 . S
C1047 C1043 1.385 . S
C1047 C1046 1.374 . S
C1048 C1045 1.499 . S
C1048 C1049 1.373 1_455 S
C1048 C1050 1.389 1_454 S
C1049 H1028 0.956 . S
C1049 C1048 1.373 1_655 S
C1049 C1065 1.377 1_545 S
C1050 C1048 1.389 1_656 S
C1050 C1051 1.524 1_655 S
C1050 C1064 1.377 1_545 S
C1051 C1050 1.524 1_455 S
C1051 C1052 1.396 1_455 S
C1051 C1056 1.363 . S
C1052 H1029 0.950 . S
C1052 C1051 1.396 1_655 S
C1052 C1053 1.333 1_655 S
C1053 H1030 0.950 . S
C1053 C1052 1.333 1_455 S
C1053 C1054 1.287 . S
C1054 C1053 1.287 . S
C1054 C1055 1.524 . S
C1054 H1073 0.913 . S
C1055 H1031 0.950 . S
C1055 C1054 1.524 . S
C1055 C1056 1.415 . S
C1056 H1032 0.950 1_545 S
C1056 C1051 1.363 . S
C1056 C1055 1.415 . S
C1057 H1033 0.951 . S
C1057 C1058 1.366 . S
C1057 C1059 1.388 . S
C1058 C1057 1.366 . S
C1058 C1062 1.385 1_554 S
C1059 H1034 0.951 . S
C1059 C1057 1.388 . S
C1059 C1060 1.366 . S
C1060 C1059 1.366 . S
C1060 C1061 1.414 1_554 S
C1060 C1063 1.499 . S
C1061 H1035 0.950 . S
C1061 C1060 1.414 1_556 S
C1061 C1062 1.374 . S
C1062 H1036 0.950 . S
C1062 C1058 1.385 1_556 S
C1062 C1061 1.374 . S
C1063 C1060 1.499 . S
C1063 C1064 1.373 1_554 S
C1063 C1065 1.389 . S
C1064 H1037 0.950 . S
C1064 C1050 1.377 1_565 S
C1064 C1063 1.373 1_556 S
C1065 C1049 1.377 1_565 S
C1065 C1063 1.389 . S
C1065 C1066 1.524 . S
C1066 C1065 1.524 . S
C1066 C1067 1.397 . S
C1066 C1071 1.363 . S
C1067 H1038 0.950 . S
C1067 C1066 1.397 . S
C1067 C1068 1.334 . S
C1068 H1039 0.950 . S
C1068 C1067 1.334 . S
C1068 C1069 1.287 . S
C1069 C1068 1.287 . S
C1069 C1070 1.524 . S
C1069 H1072 0.999 . S
C1070 H1040 0.950 . S
C1070 C1069 1.524 . S
C1070 C1071 1.415 . S
C1071 H1041 0.950 1_565 S
C1071 C1066 1.363 . S
C1071 C1070 1.415 . S
H1072 C1069 0.999 . S
H1073 C1054 0.913 . S
H1074 C1092 0.951 . S
H1075 C1094 0.951 . S
H1076 C1096 0.950 . S
H1077 C1097 0.950 . S
H1078 C1099 0.950 . S
H1079 C1102 0.950 . S
H1080 C1103 0.950 . S
H1081 C1105 0.950 . S
H1082 C1106 0.950 . S
H1083 C1107 0.951 . S
H1084 C1109 0.951 . S
H1085 C1111 0.950 . S
H1086 C1112 0.950 . S
H1087 C1114 0.950 . S
H1088 C1117 0.950 . S
H1089 C1118 0.950 . S
H1090 C1120 0.950 . S
H1091 C1121 0.950 . S
C1092 H1074 0.951 . S
C1092 C1093 1.366 . S
C1092 C1094 1.388 . S
C1093 C1092 1.366 . S
C1093 C1097 1.385 . S
C1094 H1075 0.951 . S
C1094 C1092 1.388 . S
C1094 C1095 1.366 . S
C1095 C1094 1.366 . S
C1095 C1096 1.414 . S
C1095 C1098 1.499 . S
C1096 H1076 0.950 . S
C1096 C1095 1.414 . S
C1096 C1097 1.374 . S
C1097 H1077 0.950 . S
C1097 C1093 1.385 . S
C1097 C1096 1.374 . S
C1098 C1095 1.499 . S
C1098 C1099 1.373 . S
C1098 C1100 1.389 . S
C1099 H1078 0.950 . S
C1099 C1098 1.373 . S
C1099 C1115 1.377 . S
C1100 C1098 1.389 . S
C1100 C1101 1.524 . S
C1100 C1114 1.377 . S
C1101 C1100 1.524 . S
C1101 C1102 1.397 . S
C1101 C1106 1.363 . S
C1102 H1079 0.950 . S
C1102 C1101 1.397 . S
C1102 C1103 1.334 . S
C1103 H1080 0.950 . S
C1103 C1102 1.334 . S
C1103 C1104 1.287 . S
C1104 C1103 1.287 . S
C1104 C1105 1.524 . S
C1104 H1123 0.913 . S
C1105 H1081 0.950 . S
C1105 C1104 1.524 . S
C1105 C1106 1.415 . S
C1106 H1082 0.950 . S
C1106 C1101 1.363 . S
C1106 C1105 1.415 . S
C1107 H1083 0.951 . S
C1107 C1108 1.366 . S
C1107 C1109 1.388 . S
C1108 C1107 1.366 . S
C1108 C1112 1.385 . S
C1109 H1084 0.951 . S
C1109 C1107 1.388 . S
C1109 C1110 1.366 . S
C1110 C1109 1.366 . S
C1110 C1111 1.414 . S
C1110 C1113 1.499 . S
C1111 H1085 0.950 . S
C1111 C1110 1.414 . S
C1111 C1112 1.374 . S
C1112 H1086 0.950 . S
C1112 C1108 1.385 . S
C1112 C1111 1.374 . S
C1113 C1110 1.499 . S
C1113 C1114 1.373 . S
C1113 C1115 1.389 . S
C1114 H1087 0.950 . S
C1114 C1100 1.377 . S
C1114 C1113 1.373 . S
C1115 C1099 1.377 . S
C1115 C1113 1.389 . S
C1115 C1116 1.524 . S
C1116 C1115 1.524 . S
C1116 C1117 1.397 . S
C1116 C1121 1.363 . S
C1117 H1088 0.950 . S
C1117 C1116 1.397 . S
C1117 C1118 1.334 . S
C1118 H1089 0.950 . S
C1118 C1117 1.334 . S
C1118 C1119 1.287 . S
C1119 C1118 1.287 . S
C1119 C1120 1.524 . S
C1119 H1122 0.999 . S
C1120 H1090 0.950 . S
C1120 C1119 1.524 . S
C1120 C1121 1.415 . S
C1121 H1091 0.950 . S
C1121 C1116 1.363 . S
C1121 C1120 1.415 . S
H1122 C1119 0.999 . S
H1123 C1104 0.913 . S
H1124 C1142 0.951 . S
H1125 C1144 0.951 . S
H1126 C1146 0.950 . S
H1127 C1147 0.950 . S
H1128 C1149 0.950 . S
H1129 C1152 0.950 1_556 S
H1130 C1153 0.950 . S
H1131 C1155 0.950 . S
H1132 C1156 0.950 . S
H1133 C1157 0.951 . S
H1134 C1159 0.951 . S
H1135 C1161 0.950 . S
H1136 C1162 0.950 . S
H1137 C1164 0.950 . S
H1138 C1167 0.950 . S
H1139 C1168 0.950 . S
H1140 C1170 0.950 . S
H1141 C1171 0.950 . S
C1142 H1124 0.951 . S
C1142 C1143 1.366 1_554 S
C1142 C1144 1.388 . S
C1143 C1142 1.366 1_556 S
C1143 C1147 1.385 . S
C1144 H1125 0.951 . S
C1144 C1142 1.388 . S
C1144 C1145 1.366 1_554 S
C1145 C1144 1.366 1_556 S
C1145 C1146 1.414 . S
C1145 C1148 1.499 . S
C1146 H1126 0.950 . S
C1146 C1145 1.414 . S
C1146 C1147 1.374 . S
C1147 H1127 0.950 . S
C1147 C1143 1.385 . S
C1147 C1146 1.374 . S
C1148 C1145 1.499 . S
C1148 C1149 1.373 . S
C1148 C1150 1.389 1_556 S
C1149 H1128 0.950 . S
C1149 C1148 1.373 . S
C1149 C1165 1.377 . S
C1150 C1148 1.389 1_554 S
C1150 C1151 1.524 . S
C1150 C1164 1.377 . S
C1151 C1150 1.524 . S
C1151 C1152 1.397 . S
C1151 C1156 1.363 . S
C1152 H1129 0.950 1_554 S
C1152 C1151 1.397 . S
C1152 C1153 1.334 . S
C1153 H1130 0.950 . S
C1153 C1152 1.334 . S
C1153 C1154 1.287 . S
C1154 C1153 1.287 . S
C1154 C1155 1.524 . S
C1154 H1173 0.913 . S
C1155 H1131 0.950 . S
C1155 C1154 1.524 . S
C1155 C1156 1.415 . S
C1156 H1132 0.950 . S
C1156 C1151 1.363 . S
C1156 C1155 1.415 . S
C1157 H1133 0.951 . S
C1157 C1158 1.366 . S
C1157 C1159 1.388 . S
C1158 C1157 1.366 . S
C1158 C1162 1.385 1_556 S
C1159 H1134 0.951 . S
C1159 C1157 1.388 . S
C1159 C1160 1.366 . S
C1160 C1159 1.366 . S
C1160 C1161 1.414 1_556 S
C1160 C1163 1.499 . S
C1161 H1135 0.950 . S
C1161 C1160 1.414 1_554 S
C1161 C1162 1.374 . S
C1162 H1136 0.950 . S
C1162 C1158 1.385 1_554 S
C1162 C1161 1.374 . S
C1163 C1160 1.499 . S
C1163 C1164 1.373 1_556 S
C1163 C1165 1.389 . S
C1164 H1137 0.950 . S
C1164 C1150 1.377 . S
C1164 C1163 1.373 1_554 S
C1165 C1149 1.377 . S
C1165 C1163 1.389 . S
C1165 C1166 1.524 . S
C1166 C1165 1.524 . S
C1166 C1167 1.397 . S
C1166 C1171 1.363 . S
C1167 H1138 0.950 . S
C1167 C1166 1.397 . S
C1167 C1168 1.334 . S
C1168 H1139 0.950 . S
C1168 C1167 1.334 . S
C1168 C1169 1.287 . S
C1169 C1168 1.287 . S
C1169 C1170 1.524 . S
C1169 H1172 0.999 . S
C1170 H1140 0.950 . S
C1170 C1169 1.524 . S
C1170 C1171 1.415 . S
C1171 H1141 0.950 . S
C1171 C1166 1.363 . S
C1171 C1170 1.415 . S
H1172 C1169 0.999 . S
H1173 C1154 0.913 . S
H1174 C1192 0.951 . S
H1175 C1194 0.951 . S
H1176 C1196 0.950 . S
H1177 C1197 0.950 . S
H1178 C1199 0.950 . S
H1179 C1202 0.950 . S
H1180 C1203 0.950 . S
H1181 C1205 0.950 . S
H1182 C1206 0.950 1_655 S
H1183 C1207 0.951 . S
H1184 C1209 0.951 . S
H1185 C1211 0.950 . S
H1186 C1212 0.950 . S
H1187 C1214 0.931 1_655 S
H1188 C1217 0.950 . S
H1189 C1218 0.950 . S
H1190 C1220 0.950 . S
H1191 C1221 0.950 . S
C1192 H1174 0.951 . S
C1192 C1193 1.366 . S
C1192 C1194 1.388 . S
C1193 C1192 1.366 . S
C1193 C1197 1.385 . S
C1194 H1175 0.951 . S
C1194 C1192 1.388 . S
C1194 C1195 1.366 . S
C1195 C1194 1.366 . S
C1195 C1196 1.414 . S
C1195 C1198 1.499 . S
C1196 H1176 0.950 . S
C1196 C1195 1.414 . S
C1196 C1197 1.374 . S
C1197 H1177 0.950 . S
C1197 C1193 1.385 . S
C1197 C1196 1.374 . S
C1198 C1195 1.499 . S
C1198 C1199 1.373 . S
C1198 C1200 1.389 . S
C1199 H1178 0.950 . S
C1199 C1198 1.373 . S
C1199 C1215 1.377 1_565 S
C1200 C1198 1.389 . S
C1200 C1201 1.524 . S
C1200 C1214 1.405 1_565 S
C1201 C1200 1.524 . S
C1201 C1202 1.397 . S
C1201 C1206 1.363 . S
C1202 H1179 0.950 . S
C1202 C1201 1.397 . S
C1202 C1203 1.334 . S
C1203 H1180 0.950 . S
C1203 C1202 1.334 . S
C1203 C1204 1.287 . S
C1204 C1203 1.287 . S
C1204 C1205 1.524 . S
C1204 H1223 0.913 . S
C1205 H1181 0.950 . S
C1205 C1204 1.524 . S
C1205 C1206 1.415 . S
C1206 H1182 0.950 1_455 S
C1206 C1201 1.363 . S
C1206 C1205 1.415 . S
C1207 H1183 0.951 . S
C1207 C1208 1.366 . S
C1207 C1209 1.388 . S
C1208 C1207 1.366 . S
C1208 C1212 1.385 . S
C1209 H1184 0.951 . S
C1209 C1207 1.388 . S
C1209 C1210 1.366 . S
C1210 C1209 1.366 . S
C1210 C1211 1.414 . S
C1210 C1213 1.499 . S
C1211 H1185 0.950 . S
C1211 C1210 1.414 . S
C1211 C1212 1.374 . S
C1212 H1186 0.950 . S
C1212 C1208 1.385 . S
C1212 C1211 1.374 . S
C1213 C1210 1.499 . S
C1213 C1214 1.365 1_655 S
C1213 C1215 1.389 1_655 S
C1214 H1187 0.931 1_455 S
C1214 C1200 1.405 1_545 S
C1214 C1213 1.365 1_455 S
C1215 C1199 1.377 1_545 S
C1215 C1213 1.389 1_455 S
C1215 C1216 1.524 . S
C1216 C1215 1.524 . S
C1216 C1217 1.397 1_455 S
C1216 C1221 1.363 . S
C1217 H1188 0.950 . S
C1217 C1216 1.397 1_655 S
C1217 C1218 1.334 . S
C1218 H1189 0.950 . S
C1218 C1217 1.334 . S
C1218 C1219 1.287 . S
C1219 C1218 1.287 . S
C1219 C1220 1.524 1_655 S
C1219 H1222 0.999 . S
C1220 H1190 0.950 . S
C1220 C1219 1.524 1_455 S
C1220 C1221 1.415 . S
C1221 H1191 0.950 . S
C1221 C1216 1.363 . S
C1221 C1220 1.415 . S
H1222 C1219 0.999 . S
H1223 C1204 0.913 . S
C443 C75 2.259 . S
C458 C39 2.300 . S
C493 C22 2.259 . S
C508 C92 2.300 . S
C543 C181 2.259 . S
C558 C145 2.300 . S
C593 C128 2.260 . S
C608 C198 2.300 . S
C643 C234 2.002 . S
C658 C304 1.972 . S
C693 C287 2.002 . S
C708 C251 1.972 . S
C743 C340 2.002 . S
C758 C410 1.972 . S
C793 C357 1.972 . S
C808 C393 2.002 . S
C843 C38 0.704 . S
C858 C197 0.704 . S
C893 C91 0.705 . S
C908 C144 0.705 . S
C943 C400 0.301 . S
C958 C241 0.301 . S
C993 C347 0.301 . S
C1008 C294 0.301 . S
C1043 C29 1.940 . S
C1058 C250 1.943 1_554 S
C1093 C303 1.943 . S
C1108 C82 1.940 . S
C1143 C356 1.944 1_556 S
C1158 C135 1.940 . S
C1193 C409 1.944 . S
C1208 C188 1.940 . S
