# Generated by pormake.
# Topology wip, (6)-cn, num edge types: 1
# Building blocks:
#     Node 0, Type 0, BuildingBlock: BETDIP_clean_sbu_0, # of connection points: 6
#     Node 1, Type 0, BuildingBlock: BETDIP_clean_sbu_0, # of connection points: 6
#     Node 2, Type 0, BuildingBlock: BETDIP_clean_sbu_0, # of connection points: 6
#     Node 3, Type 0, BuildingBlock: BETDIP_clean_sbu_0, # of connection points: 6
#     Node 4, Type 0, BuildingBlock: BETDIP_clean_sbu_0, # of connection points: 6
#     Node 5, Type 0, BuildingBlock: BETDIP_clean_sbu_0, # of connection points: 6
#     Node 6, Type 0, BuildingBlock: BETDIP_clean_sbu_0, # of connection points: 6
#     Node 7, Type 0, BuildingBlock: BETDIP_clean_sbu_0, # of connection points: 6
#     Node 8, Type 0, BuildingBlock: BETDIP_clean_sbu_0, # of connection points: 6
#     Node 9, Type 0, BuildingBlock: BETDIP_clean_sbu_0, # of connection points: 6
#     Node 10, Type 0, BuildingBlock: BETDIP_clean_sbu_0, # of connection points: 6
#     Node 11, Type 0, BuildingBlock: BETDIP_clean_sbu_0, # of connection points: 6
#     Node 12, Type 0, BuildingBlock: BETDIP_clean_sbu_0, # of connection points: 6
#     Node 13, Type 0, BuildingBlock: BETDIP_clean_sbu_0, # of connection points: 6
#     Node 14, Type 0, BuildingBlock: BETDIP_clean_sbu_0, # of connection points: 6
#     Node 15, Type 0, BuildingBlock: BETDIP_clean_sbu_0, # of connection points: 6
#     Node 16, Type 0, BuildingBlock: BETDIP_clean_sbu_0, # of connection points: 6
#     Node 17, Type 0, BuildingBlock: BETDIP_clean_sbu_0, # of connection points: 6
#     Node 18, Type 0, BuildingBlock: BETDIP_clean_sbu_0, # of connection points: 6
#     Node 19, Type 0, BuildingBlock: BETDIP_clean_sbu_0, # of connection points: 6
#     Node 20, Type 0, BuildingBlock: BETDIP_clean_sbu_0, # of connection points: 6
#     Node 21, Type 0, BuildingBlock: BETDIP_clean_sbu_0, # of connection points: 6
#     Node 22, Type 0, BuildingBlock: BETDIP_clean_sbu_0, # of connection points: 6
#     Node 23, Type 0, BuildingBlock: BETDIP_clean_sbu_0, # of connection points: 6
#     Node 24, Type 0, BuildingBlock: BETDIP_clean_sbu_0, # of connection points: 6
#     Node 25, Type 0, BuildingBlock: BETDIP_clean_sbu_0, # of connection points: 6
#     Node 26, Type 0, BuildingBlock: BETDIP_clean_sbu_0, # of connection points: 6
#     Node 27, Type 0, BuildingBlock: BETDIP_clean_sbu_0, # of connection points: 6
#     Node 28, Type 0, BuildingBlock: BETDIP_clean_sbu_0, # of connection points: 6
#     Node 29, Type 0, BuildingBlock: BETDIP_clean_sbu_0, # of connection points: 6
#     Node 30, Type 0, BuildingBlock: BETDIP_clean_sbu_0, # of connection points: 6
#     Node 31, Type 0, BuildingBlock: BETDIP_clean_sbu_0, # of connection points: 6
#     Edge 32, Type (0, 0), BuildingBlock: XIVTED_clean_linker_0, # of connection points: 2
#     Edge 33, Type (0, 0), BuildingBlock: XIVTED_clean_linker_0, # of connection points: 2
#     Edge 34, Type (0, 0), BuildingBlock: XIVTED_clean_linker_0, # of connection points: 2
#     Edge 35, Type (0, 0), BuildingBlock: XIVTED_clean_linker_0, # of connection points: 2
#     Edge 36, Type (0, 0), BuildingBlock: XIVTED_clean_linker_0, # of connection points: 2
#     Edge 37, Type (0, 0), BuildingBlock: XIVTED_clean_linker_0, # of connection points: 2
#     Edge 38, Type (0, 0), BuildingBlock: XIVTED_clean_linker_0, # of connection points: 2
#     Edge 39, Type (0, 0), BuildingBlock: XIVTED_clean_linker_0, # of connection points: 2
#     Edge 40, Type (0, 0), BuildingBlock: XIVTED_clean_linker_0, # of connection points: 2
#     Edge 41, Type (0, 0), BuildingBlock: XIVTED_clean_linker_0, # of connection points: 2
#     Edge 42, Type (0, 0), BuildingBlock: XIVTED_clean_linker_0, # of connection points: 2
#     Edge 43, Type (0, 0), BuildingBlock: XIVTED_clean_linker_0, # of connection points: 2
#     Edge 44, Type (0, 0), BuildingBlock: XIVTED_clean_linker_0, # of connection points: 2
#     Edge 45, Type (0, 0), BuildingBlock: XIVTED_clean_linker_0, # of connection points: 2
#     Edge 46, Type (0, 0), BuildingBlock: XIVTED_clean_linker_0, # of connection points: 2
#     Edge 47, Type (0, 0), BuildingBlock: XIVTED_clean_linker_0, # of connection points: 2
#     Edge 48, Type (0, 0), BuildingBlock: XIVTED_clean_linker_0, # of connection points: 2
#     Edge 49, Type (0, 0), BuildingBlock: XIVTED_clean_linker_0, # of connection points: 2
#     Edge 50, Type (0, 0), BuildingBlock: XIVTED_clean_linker_0, # of connection points: 2
#     Edge 51, Type (0, 0), BuildingBlock: XIVTED_clean_linker_0, # of connection points: 2
#     Edge 52, Type (0, 0), BuildingBlock: XIVTED_clean_linker_0, # of connection points: 2
#     Edge 53, Type (0, 0), BuildingBlock: XIVTED_clean_linker_0, # of connection points: 2
#     Edge 54, Type (0, 0), BuildingBlock: XIVTED_clean_linker_0, # of connection points: 2
#     Edge 55, Type (0, 0), BuildingBlock: XIVTED_clean_linker_0, # of connection points: 2
#     Edge 56, Type (0, 0), BuildingBlock: XIVTED_clean_linker_0, # of connection points: 2
#     Edge 57, Type (0, 0), BuildingBlock: XIVTED_clean_linker_0, # of connection points: 2
#     Edge 58, Type (0, 0), BuildingBlock: XIVTED_clean_linker_0, # of connection points: 2
#     Edge 59, Type (0, 0), BuildingBlock: XIVTED_clean_linker_0, # of connection points: 2
#     Edge 60, Type (0, 0), BuildingBlock: XIVTED_clean_linker_0, # of connection points: 2
#     Edge 61, Type (0, 0), BuildingBlock: XIVTED_clean_linker_0, # of connection points: 2
#     Edge 62, Type (0, 0), BuildingBlock: XIVTED_clean_linker_0, # of connection points: 2
#     Edge 63, Type (0, 0), BuildingBlock: XIVTED_clean_linker_0, # of connection points: 2
#     Edge 64, Type (0, 0), BuildingBlock: XIVTED_clean_linker_0, # of connection points: 2
#     Edge 65, Type (0, 0), BuildingBlock: XIVTED_clean_linker_0, # of connection points: 2
#     Edge 66, Type (0, 0), BuildingBlock: XIVTED_clean_linker_0, # of connection points: 2
#     Edge 67, Type (0, 0), BuildingBlock: XIVTED_clean_linker_0, # of connection points: 2
#     Edge 68, Type (0, 0), BuildingBlock: XIVTED_clean_linker_0, # of connection points: 2
#     Edge 69, Type (0, 0), BuildingBlock: XIVTED_clean_linker_0, # of connection points: 2
#     Edge 70, Type (0, 0), BuildingBlock: XIVTED_clean_linker_0, # of connection points: 2
#     Edge 71, Type (0, 0), BuildingBlock: XIVTED_clean_linker_0, # of connection points: 2
#     Edge 72, Type (0, 0), BuildingBlock: XIVTED_clean_linker_0, # of connection points: 2
#     Edge 73, Type (0, 0), BuildingBlock: XIVTED_clean_linker_0, # of connection points: 2
#     Edge 74, Type (0, 0), BuildingBlock: XIVTED_clean_linker_0, # of connection points: 2
#     Edge 75, Type (0, 0), BuildingBlock: XIVTED_clean_linker_0, # of connection points: 2
#     Edge 76, Type (0, 0), BuildingBlock: XIVTED_clean_linker_0, # of connection points: 2
#     Edge 77, Type (0, 0), BuildingBlock: XIVTED_clean_linker_0, # of connection points: 2
#     Edge 78, Type (0, 0), BuildingBlock: XIVTED_clean_linker_0, # of connection points: 2
#     Edge 79, Type (0, 0), BuildingBlock: XIVTED_clean_linker_0, # of connection points: 2
#     Edge 80, Type (0, 0), BuildingBlock: XIVTED_clean_linker_0, # of connection points: 2
#     Edge 81, Type (0, 0), BuildingBlock: XIVTED_clean_linker_0, # of connection points: 2
#     Edge 82, Type (0, 0), BuildingBlock: XIVTED_clean_linker_0, # of connection points: 2
#     Edge 83, Type (0, 0), BuildingBlock: XIVTED_clean_linker_0, # of connection points: 2
#     Edge 84, Type (0, 0), BuildingBlock: XIVTED_clean_linker_0, # of connection points: 2
#     Edge 85, Type (0, 0), BuildingBlock: XIVTED_clean_linker_0, # of connection points: 2
#     Edge 86, Type (0, 0), BuildingBlock: XIVTED_clean_linker_0, # of connection points: 2
#     Edge 87, Type (0, 0), BuildingBlock: XIVTED_clean_linker_0, # of connection points: 2
#     Edge 88, Type (0, 0), BuildingBlock: XIVTED_clean_linker_0, # of connection points: 2
#     Edge 89, Type (0, 0), BuildingBlock: XIVTED_clean_linker_0, # of connection points: 2
#     Edge 90, Type (0, 0), BuildingBlock: XIVTED_clean_linker_0, # of connection points: 2
#     Edge 91, Type (0, 0), BuildingBlock: XIVTED_clean_linker_0, # of connection points: 2
#     Edge 92, Type (0, 0), BuildingBlock: XIVTED_clean_linker_0, # of connection points: 2
#     Edge 93, Type (0, 0), BuildingBlock: XIVTED_clean_linker_0, # of connection points: 2
#     Edge 94, Type (0, 0), BuildingBlock: XIVTED_clean_linker_0, # of connection points: 2
#     Edge 95, Type (0, 0), BuildingBlock: XIVTED_clean_linker_0, # of connection points: 2
#     Edge 96, Type (0, 0), BuildingBlock: XIVTED_clean_linker_0, # of connection points: 2
#     Edge 97, Type (0, 0), BuildingBlock: XIVTED_clean_linker_0, # of connection points: 2
#     Edge 98, Type (0, 0), BuildingBlock: XIVTED_clean_linker_0, # of connection points: 2
#     Edge 99, Type (0, 0), BuildingBlock: XIVTED_clean_linker_0, # of connection points: 2
#     Edge 100, Type (0, 0), BuildingBlock: XIVTED_clean_linker_0, # of connection points: 2
#     Edge 101, Type (0, 0), BuildingBlock: XIVTED_clean_linker_0, # of connection points: 2
#     Edge 102, Type (0, 0), BuildingBlock: XIVTED_clean_linker_0, # of connection points: 2
#     Edge 103, Type (0, 0), BuildingBlock: XIVTED_clean_linker_0, # of connection points: 2
#     Edge 104, Type (0, 0), BuildingBlock: XIVTED_clean_linker_0, # of connection points: 2
#     Edge 105, Type (0, 0), BuildingBlock: XIVTED_clean_linker_0, # of connection points: 2
#     Edge 106, Type (0, 0), BuildingBlock: XIVTED_clean_linker_0, # of connection points: 2
#     Edge 107, Type (0, 0), BuildingBlock: XIVTED_clean_linker_0, # of connection points: 2
#     Edge 108, Type (0, 0), BuildingBlock: XIVTED_clean_linker_0, # of connection points: 2
#     Edge 109, Type (0, 0), BuildingBlock: XIVTED_clean_linker_0, # of connection points: 2
#     Edge 110, Type (0, 0), BuildingBlock: XIVTED_clean_linker_0, # of connection points: 2
#     Edge 111, Type (0, 0), BuildingBlock: XIVTED_clean_linker_0, # of connection points: 2
#     Edge 112, Type (0, 0), BuildingBlock: XIVTED_clean_linker_0, # of connection points: 2
#     Edge 113, Type (0, 0), BuildingBlock: XIVTED_clean_linker_0, # of connection points: 2
#     Edge 114, Type (0, 0), BuildingBlock: XIVTED_clean_linker_0, # of connection points: 2
#     Edge 115, Type (0, 0), BuildingBlock: XIVTED_clean_linker_0, # of connection points: 2
#     Edge 116, Type (0, 0), BuildingBlock: XIVTED_clean_linker_0, # of connection points: 2
#     Edge 117, Type (0, 0), BuildingBlock: XIVTED_clean_linker_0, # of connection points: 2
#     Edge 118, Type (0, 0), BuildingBlock: XIVTED_clean_linker_0, # of connection points: 2
#     Edge 119, Type (0, 0), BuildingBlock: XIVTED_clean_linker_0, # of connection points: 2
#     Edge 120, Type (0, 0), BuildingBlock: XIVTED_clean_linker_0, # of connection points: 2
#     Edge 121, Type (0, 0), BuildingBlock: XIVTED_clean_linker_0, # of connection points: 2
#     Edge 122, Type (0, 0), BuildingBlock: XIVTED_clean_linker_0, # of connection points: 2
#     Edge 123, Type (0, 0), BuildingBlock: XIVTED_clean_linker_0, # of connection points: 2
#     Edge 124, Type (0, 0), BuildingBlock: XIVTED_clean_linker_0, # of connection points: 2
#     Edge 125, Type (0, 0), BuildingBlock: XIVTED_clean_linker_0, # of connection points: 2
#     Edge 126, Type (0, 0), BuildingBlock: XIVTED_clean_linker_0, # of connection points: 2
#     Edge 127, Type (0, 0), BuildingBlock: XIVTED_clean_linker_0, # of connection points: 2
# Relax obj value: 0.499
# Max RMSD: 0.208
# Mean RMSD: 0.208
data_MOF--net-wip--node1-BETDIP_clean_sbu_0--edge1-XIVTED_clean_linker_0
_symmetry_space_group_name_H-M    P1
_symmetry_Int_Tables_number       1
_symmetry_cell_setting            triclinic
loop_
_symmetry_equiv_pos_as_xyz
'x, y, z'
_cell_length_a     63.321566
_cell_length_b     63.209892
_cell_length_c     32.941485
_cell_angle_alpha  90.007361
_cell_angle_beta   90.025863
_cell_angle_gamma 90.029124
loop_
_atom_site_label
_atom_site_type_symbol
_atom_site_fract_x
_atom_site_fract_y
_atom_site_fract_z
_atom_type_partial_charge
Tb0 Tb 0.07826 0.43192 0.12389 0.0
Tb1 Tb 0.10786 0.46452 0.16335 0.0
C2 C 0.0503 0.41407 0.08119 0.0
C3 C 0.03706 0.41977 1.04558 0.0
C4 C 0.01995 0.40684 1.0347 0.0
C5 C 0.00703 0.41204 1.0015 0.0
C6 C 0.01095 0.43032 0.97818 0.0
C7 C 0.02811 0.44332 0.98941 0.0
C8 C 0.04094 0.43816 1.02278 0.0
C9 C 0.1096 0.4148 0.1671 0.0
C10 C 0.10489 0.46457 0.06783 0.0
C11 C 0.13805 0.482 0.1993 0.0
C12 C 0.15212 0.47904 0.23416 0.0
C13 C 0.17315 0.48568 0.23093 0.0
C14 C 0.18648 0.48492 0.26461 0.0
C15 C 0.17898 0.47739 0.30207 0.0
C16 C 0.15813 0.46971 0.30454 0.0
C17 C 0.14479 0.47059 0.27087 0.0
C18 C 0.0717 0.48021 0.13457 0.0
C19 C 0.07347 0.44067 0.21782 0.0
O20 O 0.04632 0.42437 0.11479 0.0
O21 O 0.07067 0.41192 0.07495 0.0
O22 O 0.11044 0.43194 0.14664 0.0
O23 O 0.09229 0.40535 0.15649 0.0
O24 O 0.08954 0.45044 0.0713 0.0
O25 O 0.11588 0.47092 0.09978 0.0
O26 O 0.14053 0.4687 0.16913 0.0
O27 O 0.11815 0.48612 0.20713 0.0
O28 O 0.07544 0.46235 0.1491 0.0
O29 O 0.08885 0.49115 0.13991 0.0
O30 O 0.09209 0.45055 0.21683 0.0
O31 O 0.06378 0.4343 0.18406 0.0
H32 H 0.01656 0.39263 0.0519 0.0
H33 H 0.99418 0.40149 0.99368 0.0
H34 H 0.0315 0.45766 0.97268 0.0
H35 H 0.05384 0.44859 1.03079 0.0
H36 H 0.17913 0.492 0.20259 0.0
H37 H 0.20253 0.4906 0.26147 0.0
H38 H 0.15172 0.46404 0.33299 0.0
H39 H 0.12861 0.46519 0.27383 0.0
Tb40 Tb 0.82729 0.8302 0.37282 0.0
Tb41 Tb 0.79414 0.85883 0.41147 0.0
C42 C 0.84686 0.80392 0.32947 0.0
C43 C 0.84234 0.79092 0.29289 0.0
C44 C 0.8477 0.76936 0.29283 0.0
C45 C 0.84397 0.75675 0.25853 0.0
C46 C 0.83486 0.76541 0.22327 0.0
C47 C 0.82927 0.787 0.22358 0.0
C48 C 0.83292 0.79959 0.25798 0.0
C49 C 0.84347 0.86234 0.41526 0.0
C50 C 0.79355 0.8547 0.3163 0.0
C51 C 0.77529 0.88847 0.44682 0.0
C52 C 0.77719 0.90249 0.48199 0.0
C53 C 0.76964 0.92326 0.47889 0.0
C54 C 0.76975 0.93653 0.51272 0.0
C55 C 0.7776 0.92924 0.55005 0.0
C56 C 0.786 0.90866 0.5525 0.0
C57 C 0.78564 0.89533 0.51882 0.0
C58 C 0.77934 0.82209 0.38381 0.0
C59 C 0.81906 0.82495 0.46642 0.0
O60 O 0.83659 0.79876 0.36253 0.0
O61 O 0.8482 0.82452 0.32462 0.0
O62 O 0.82643 0.86259 0.39457 0.0
O63 O 0.85327 0.8451 0.40579 0.0
O64 O 0.80699 0.83886 0.32094 0.0
O65 O 0.7884 0.86696 0.34737 0.0
O66 O 0.78907 0.89142 0.4177 0.0
O67 O 0.77168 0.86839 0.45415 0.0
O68 O 0.79706 0.82621 0.39861 0.0
O69 O 0.76821 0.83924 0.38727 0.0
O70 O 0.80844 0.84323 0.46543 0.0
O71 O 0.82569 0.81554 0.43262 0.0
H72 H 0.85497 0.76228 0.31932 0.0
H73 H 0.8487 0.74029 0.25936 0.0
H74 H 0.82195 0.79419 0.19727 0.0
H75 H 0.82846 0.81612 0.25711 0.0
H76 H 0.76321 0.92906 0.45051 0.0
H77 H 0.76334 0.95235 0.50987 0.0
H78 H 0.79183 0.90241 0.58099 0.0
H79 H 0.79156 0.87933 0.52179 0.0
Tb80 Tb 0.42593 0.57152 0.62725 0.0
Tb81 Tb 0.39531 0.53891 0.66414 0.0
C82 C 0.45398 0.58923 0.58499 0.0
C83 C 0.46716 0.58348 0.54895 0.0
C84 C 0.48778 0.57551 0.55396 0.0
C85 C 0.50043 0.5706 0.52022 0.0
C86 C 0.4929 0.5736 0.48039 0.0
C87 C 0.4723 0.58168 0.47548 0.0
C88 C 0.45966 0.58657 0.50919 0.0
C89 C 0.39451 0.58858 0.67031 0.0
C90 C 0.39946 0.53998 0.5689 0.0
C91 C 0.36487 0.52095 0.6987 0.0
C92 C 0.35115 0.52268 0.73438 0.0
C93 C 0.33014 0.51589 0.73132 0.0
C94 C 0.31704 0.516 0.76538 0.0
C95 C 0.32477 0.52304 0.803 0.0
C96 C 0.34569 0.53046 0.80562 0.0
C97 C 0.35882 0.53014 0.77164 0.0
C98 C 0.43128 0.52307 0.63509 0.0
C99 C 0.43038 0.56116 0.72028 0.0
O100 O 0.45791 0.5791 0.6189 0.0
O101 O 0.43362 0.59201 0.57918 0.0
O102 O 0.39361 0.57174 0.64896 0.0
O103 O 0.41207 0.5979 0.66105 0.0
O104 O 0.41591 0.55264 0.57428 0.0
O105 O 0.38701 0.53474 0.59964 0.0
O106 O 0.36253 0.53552 0.67074 0.0
O107 O 0.38472 0.51611 0.7053 0.0
O108 O 0.42775 0.5407 0.65071 0.0
O109 O 0.41398 0.51227 0.63947 0.0
O110 O 0.41145 0.55182 0.7187 0.0
O111 O 0.44029 0.56767 0.68692 0.0
H112 H 0.49421 0.57307 0.58408 0.0
H113 H 0.51606 0.56423 0.52544 0.0
H114 H 0.46598 0.58462 0.44546 0.0
H115 H 0.44401 0.59294 0.50398 0.0
H116 H 0.32396 0.51015 0.70267 0.0
H117 H 0.30096 0.51035 0.76242 0.0
H118 H 0.35223 0.53563 0.83434 0.0
H119 H 0.37504 0.53538 0.77468 0.0
Tb120 Tb 0.68019 0.17535 0.87095 0.0
Tb121 Tb 0.71199 0.14539 0.91054 0.0
C122 C 0.66204 0.20216 0.82647 0.0
C123 C 0.66767 0.21538 0.79053 0.0
C124 C 0.67804 0.23497 0.79516 0.0
C125 C 0.68269 0.24763 0.76134 0.0
C126 C 0.67704 0.24113 0.72193 0.0
C127 C 0.66658 0.22159 0.7174 0.0
C128 C 0.66192 0.20894 0.75119 0.0
C129 C 0.66277 0.14362 0.91305 0.0
C130 C 0.71347 0.14919 0.81552 0.0
C131 C 0.72764 0.11575 0.95135 0.0
C132 C 0.72217 0.10525 0.98949 0.0
C133 C 0.70541 0.1127 1.01304 0.0
C134 C 0.6997 0.10228 1.04866 0.0
C135 C 0.71125 0.08466 0.06263 0.0
C136 C 0.72839 0.07753 1.03877 0.0
C137 C 0.73357 0.08757 1.00234 0.0
C138 C 0.72842 0.18133 0.88297 0.0
C139 C 0.68855 0.18108 0.96407 0.0
O140 O 0.67129 0.20685 0.86092 0.0
O141 O 0.66051 0.18163 0.82093 0.0
O142 O 0.67974 0.14295 0.8923 0.0
O143 O 0.65376 0.16138 0.90409 0.0
O144 O 0.70056 0.16554 0.81989 0.0
O145 O 0.71815 0.13678 0.84675 0.0
O146 O 0.71418 0.11286 0.9216 0.0
O147 O 0.73369 0.1355 0.95457 0.0
O148 O 0.71042 0.17794 0.89715 0.0
O149 O 0.73905 0.16389 0.88758 0.0
O150 O 0.69798 0.16219 0.96335 0.0
O151 O 0.68257 0.1907 0.93008 0.0
H152 H 0.68253 0.24062 0.82497 0.0
H153 H 0.69093 0.26244 0.76611 0.0
H154 H 0.66161 0.21618 0.68771 0.0
H155 H 0.65363 0.19415 0.74648 0.0
H156 H 0.6966 0.12652 1.00377 0.0
H157 H 0.6862 0.10832 0.06494 0.0
H158 H 0.73835 0.0646 1.04838 0.0
H159 H 0.74673 0.08173 0.98454 0.0
Tb160 Tb 0.08121 0.56443 0.73134 0.0
Tb161 Tb 0.11462 0.53595 0.69385 0.0
C162 C 0.0508 0.58004 0.77036 0.0
C163 C 0.0386 0.57624 0.80805 0.0
C164 C 0.01714 0.58168 0.80903 0.0
C165 C 0.00525 0.57907 0.84454 0.0
C166 C 0.01455 0.57095 0.8801 0.0
C167 C 0.03607 0.56517 0.8788 0.0
C168 C 0.04795 0.56775 0.84314 0.0
C169 C 0.1095 0.58504 0.68551 0.0
C170 C 0.10929 0.53631 0.79114 0.0
C171 C 0.15061 0.52167 0.67632 0.0
C172 C 0.16492 0.52088 0.64155 0.0
C173 C 0.18497 0.51177 0.64611 0.0
C174 C 0.19799 0.5089 0.61231 0.0
C175 C 0.19116 0.51546 0.57379 0.0
C176 C 0.17144 0.52546 0.56975 0.0
C177 C 0.1583 0.52791 0.60331 0.0
C178 C 0.07785 0.51792 0.7013 0.0
C179 C 0.07896 0.55422 0.63756 0.0
O180 O 0.0485 0.56605 0.74127 0.0
O181 O 0.07046 0.5864 0.77433 0.0
O182 O 0.11278 0.56885 0.70763 0.0
O183 O 0.09071 0.59161 0.69409 0.0
O184 O 0.09663 0.55287 0.78727 0.0
O185 O 0.11718 0.52674 0.75859 0.0
O186 O 0.14748 0.54031 0.69246 0.0
O187 O 0.1331 0.5109 0.67249 0.0
O188 O 0.08591 0.53116 0.72583 0.0
O189 O 0.09149 0.51316 0.67318 0.0
O190 O 0.09923 0.54832 0.63846 0.0
O191 O 0.06815 0.5581 0.67133 0.0
H192 H 0.00958 0.58826 0.78235 0.0
H193 H 0.98886 0.58395 0.84435 0.0
H194 H 0.04373 0.55858 0.90532 0.0
H195 H 0.06445 0.56326 0.84314 0.0
H196 H 0.19022 0.50618 0.67552 0.0
H197 H 0.21305 0.501 0.61597 0.0
H198 H 0.16562 0.5302 0.54018 0.0
H199 H 0.14267 0.53452 0.59912 0.0
Tb200 Tb 0.67707 0.83207 0.99226 0.0
Tb201 Tb 0.71103 0.85963 0.95438 0.0
C202 C 0.65627 0.80661 1.03538 0.0
C203 C 0.65997 0.79388 0.07252 0.0
C204 C 0.68028 0.78689 0.08339 0.0
C205 C 0.68326 0.77431 0.11809 0.0
C206 C 0.66602 0.76857 0.14284 0.0
C207 C 0.64576 0.77581 0.13186 0.0
C208 C 0.6428 0.78827 0.09713 0.0
C209 C 0.6619 0.8644 0.94893 0.0
C210 C 0.71131 0.85529 0.04953 0.0
C211 C 0.7312 0.8888 0.9204 0.0
C212 C 0.73102 0.90341 0.88599 0.0
C213 C 0.74036 0.92335 0.89084 0.0
C214 C 0.74275 0.93679 0.85761 0.0
C215 C 0.73562 0.93054 0.81905 0.0
C216 C 0.72526 0.91092 0.81484 0.0
C217 C 0.72306 0.89742 0.84804 0.0
C218 C 0.72479 0.82237 0.98186 0.0
C219 C 0.68574 0.8263 0.89904 0.0
O220 O 0.6669 0.80104 1.00297 0.0
O221 O 0.65553 0.82723 1.04001 0.0
O222 O 0.67874 0.86448 0.97033 0.0
O223 O 0.65176 0.84729 0.958 0.0
O224 O 0.69732 0.83997 1.04456 0.0
O225 O 0.71695 0.86742 1.01862 0.0
O226 O 0.71701 0.89208 0.94863 0.0
O227 O 0.73406 0.86868 0.91241 0.0
O228 O 0.70724 0.82703 0.96692 0.0
O229 O 0.73628 0.83932 0.97908 0.0
O230 O 0.69664 0.84443 0.90002 0.0
O231 O 0.67881 0.81713 0.93285 0.0
H232 H 0.69383 0.79109 0.06499 0.0
H233 H 0.69911 0.76929 0.1258 0.0
H234 H 0.63206 0.77154 0.14975 0.0
H235 H 0.62699 0.79341 0.0893 0.0
H236 H 0.74643 0.92826 0.92014 0.0
H237 H 0.75047 0.95191 0.862 0.0
H238 H 0.71989 0.90541 0.78547 0.0
H239 H 0.71578 0.88206 0.84376 0.0
Tb240 Tb 0.42464 0.43977 0.23067 0.0
Tb241 Tb 0.38923 0.46728 0.19693 0.0
C242 C 0.45551 0.42462 0.26896 0.0
C243 C 0.46713 0.4281 0.30781 0.0
C244 C 0.48277 0.44384 0.31138 0.0
C245 C 0.49453 0.44605 0.34728 0.0
C246 C 0.49109 0.43249 0.38056 0.0
C247 C 0.4754 0.41678 0.37689 0.0
C248 C 0.46365 0.41461 0.34107 0.0
C249 C 0.39661 0.41862 0.185 0.0
C250 C 0.39613 0.46572 0.29396 0.0
C251 C 0.35275 0.48046 0.17983 0.0
C252 C 0.3388 0.48106 0.14444 0.0
C253 C 0.31861 0.48997 0.14802 0.0
C254 C 0.30584 0.49233 0.1137 0.0
C255 C 0.31301 0.48536 0.07568 0.0
C256 C 0.33293 0.4757 0.07259 0.0
C257 C 0.34586 0.47385 0.10662 0.0
C258 C 0.42533 0.48682 0.20435 0.0
C259 C 0.42518 0.45146 0.13789 0.0
O260 O 0.45735 0.43913 0.24058 0.0
O261 O 0.43619 0.41709 0.27154 0.0
O262 O 0.39287 0.43425 0.20839 0.0
O263 O 0.41584 0.41291 0.19209 0.0
O264 O 0.41037 0.45069 0.28788 0.0
O265 O 0.38614 0.47463 0.2628 0.0
O266 O 0.35656 0.46175 0.1951 0.0
O267 O 0.36981 0.49201 0.1772 0.0
O268 O 0.41804 0.47277 0.22792 0.0
O269 O 0.41127 0.49147 0.17698 0.0
O270 O 0.40463 0.45629 0.14027 0.0
O271 O 0.43676 0.44779 0.17081 0.0
H272 H 0.48616 0.45434 0.28628 0.0
H273 H 0.50627 0.45848 0.34894 0.0
H274 H 0.4725 0.40575 0.4014 0.0
H275 H 0.45203 0.40206 0.33919 0.0
H276 H 0.31302 0.49572 0.17708 0.0
H277 H 0.29062 0.50001 0.11661 0.0
H278 H 0.33901 0.47068 1.04339 0.0
H279 H 0.36162 0.46745 0.10313 0.0
Tb280 Tb 0.81542 0.17743 0.47889 0.0
Tb281 Tb 0.78924 0.14047 0.44733 0.0
C282 C 0.83142 0.20812 0.51638 0.0
C283 C 0.82815 0.21985 0.55491 0.0
C284 C 0.82462 0.20935 0.59191 0.0
C285 C 0.82252 0.22082 0.62815 0.0
C286 C 0.82401 0.24308 0.62836 0.0
C287 C 0.82725 0.25351 0.59107 0.0
C288 C 0.82927 0.24203 0.55487 0.0
C289 C 0.83674 0.14894 0.43419 0.0
C290 C 0.79127 0.14826 0.54389 0.0
C291 C 0.77686 0.10385 0.42913 0.0
C292 C 0.76512 0.09234 0.39741 0.0
C293 C 0.77458 0.08724 0.36015 0.0
C294 C 0.76309 0.07656 0.33038 0.0
C295 C 0.74195 0.07073 0.33729 0.0
C296 C 0.73279 0.07506 0.37517 0.0
C297 C 0.74432 0.08565 0.40504 0.0
C298 C 0.7682 0.1759 0.45325 0.0
C299 C 0.80204 0.1779 0.38729 0.0
O300 O 0.81674 0.21027 0.48847 0.0
O301 O 0.83844 0.18859 0.51918 0.0
O302 O 0.82191 0.1452 0.45936 0.0
O303 O 0.8414 0.16869 0.43851 0.0
O304 O 0.80302 0.16514 0.5365 0.0
O305 O 0.78554 0.1354 0.5139 0.0
O306 O 0.79558 0.11129 0.41983 0.0
O307 O 0.76592 0.1171 0.45123 0.0
O308 O 0.78273 0.16952 0.47661 0.0
O309 O 0.76396 0.16125 0.42665 0.0
O310 O 0.79738 0.15726 0.39003 0.0
O311 O 0.80637 0.18958 0.41975 0.0
H312 H 0.82369 0.19226 0.59297 0.0
H313 H 0.81969 0.2122 0.65602 0.0
H314 H 0.82877 0.27056 0.58989 0.0
H315 H 0.83206 0.2505 0.52678 0.0
H316 H 0.79071 0.09183 0.3536 0.0
H317 H 0.77051 0.07375 0.30125 0.0
H318 H 0.71658 0.07064 0.38139 0.0
H319 H 0.73683 0.08892 0.43394 0.0
Tb320 Tb 0.89458 0.54253 0.19612 0.0
Tb321 Tb 0.92624 0.57335 0.23513 0.0
C322 C 0.86375 0.53076 0.15451 0.0
C323 C 0.85484 0.53834 0.11579 0.0
C324 C 0.83423 0.54652 0.11464 0.0
C325 C 0.8258 0.55418 0.07828 0.0
C326 C 0.83766 0.55341 1.04236 0.0
C327 C 0.85845 0.54565 1.04381 0.0
C328 C 0.86699 0.5383 0.08014 0.0
C329 C 0.92953 0.5245 0.22388 0.0
C330 C 0.9318 0.56346 0.14237 0.0
C331 C 0.95406 0.59114 0.27795 0.0
C332 C 0.96732 0.5858 0.31368 0.0
C333 C 0.98815 0.59334 0.31576 0.0
C334 C 1.00104 0.58863 0.34922 0.0
C335 C 0.99342 0.57617 0.38151 0.0
C336 C 0.97256 0.5684 0.37899 0.0
C337 C 0.95967 0.5732 0.34556 0.0
C338 C 0.89541 0.59149 0.19109 0.0
C339 C 0.89865 0.54125 0.29121 0.0
O340 O 0.86204 0.54391 0.18513 0.0
O341 O 0.88234 0.52161 0.1529 0.0
O342 O 0.92701 0.54276 0.20996 0.0
O343 O 0.91177 0.51445 0.21832 0.0
O344 O 0.91258 0.55472 0.14304 0.0
O345 O 0.9415 0.56949 0.17627 0.0
O346 O 0.95821 0.58071 0.24454 0.0
O347 O 0.93366 0.59341 0.28394 0.0
O348 O 0.89423 0.57495 0.213 0.0
O349 O 0.91339 0.60001 0.20033 0.0
O350 O 0.91543 0.55364 0.2866 0.0
O351 O 0.886 0.53684 0.26013 0.0
H352 H 0.8247 0.54711 0.14192 0.0
H353 H 0.81004 0.56072 0.0781 0.0
H354 H 0.86797 0.5446 1.01658 0.0
H355 H 0.88304 0.53237 0.08006 0.0
H356 H 0.99444 0.60308 0.29153 0.0
H357 H 0.01684 0.59516 0.35009 0.0
H358 H 0.96615 0.55848 0.40278 0.0
H359 H 0.9437 0.56712 0.34476 0.0
Tb360 Tb 0.21995 0.13957 0.94448 0.0
Tb361 Tb 0.19199 0.17545 0.97613 0.0
C362 C 0.23429 0.10319 0.92966 0.0
C363 C 0.2422 0.08998 0.8962 0.0
C364 C 0.23049 0.0869 0.86055 0.0
C365 C 0.23881 0.07495 0.82883 0.0
C366 C 0.25903 0.06593 0.83208 0.0
C367 C 0.27048 0.06847 0.86822 0.0
C368 C 0.26204 0.0803 0.90014 0.0
C369 C 0.23924 0.17586 0.95133 0.0
C370 C 0.20533 0.17588 0.88411 0.0
C371 C 0.17593 0.20618 1.01349 0.0
C372 C 0.17901 0.21795 0.05233 0.0
C373 C 0.19501 0.23327 0.0567 0.0
C374 C 0.19699 0.24499 0.09271 0.0
C375 C 0.18293 0.24185 0.1253 0.0
C376 C 0.16694 0.22652 0.1208 0.0
C377 C 0.16499 0.2148 0.08486 0.0
C378 C 0.17171 0.14651 0.93107 0.0
C379 C 0.21666 0.1469 1.0412 0.0
O380 O 0.21411 0.10771 0.93036 0.0
O381 O 0.24605 0.11936 0.93969 0.0
O382 O 0.22498 0.16879 0.97471 0.0
O383 O 0.24405 0.16162 0.92431 0.0
O384 O 0.21079 0.15545 0.88692 0.0
O385 O 0.20063 0.18747 0.91654 0.0
O386 O 0.19051 0.20824 0.98533 0.0
O387 O 0.16879 0.18668 1.01616 0.0
O388 O 0.18701 0.14328 0.95548 0.0
O389 O 0.16574 0.16582 0.9366 0.0
O390 O 0.20319 0.16248 1.03421 0.0
O391 O 0.22453 0.13555 1.01086 0.0
H392 H 0.21511 0.09395 0.85669 0.0
H393 H 0.22976 0.07356 0.80103 0.0
H394 H 0.28611 0.06171 0.8714 0.0
H395 H 0.27124 0.0823 0.92763 0.0
H396 H 0.20594 0.23638 1.03219 0.0
H397 H 0.20964 0.25646 0.09502 0.0
H398 H 0.15554 0.22386 0.14476 0.0
H399 H 0.15225 0.20343 0.08234 0.0
Tb400 Tb 0.60886 0.46342 0.69865 0.0
Tb401 Tb 0.578 0.43154 0.73649 0.0
C402 C 0.63958 0.48059 0.66377 0.0
C403 C 0.65386 0.47771 0.62931 0.0
C404 C 0.67442 0.48572 0.63214 0.0
C405 C 0.68789 0.48493 0.59874 0.0
C406 C 0.68109 0.47585 0.56204 0.0
C407 C 0.66073 0.4669 0.56002 0.0
C408 C 0.64717 0.46794 0.59335 0.0
C409 C 0.57308 0.48005 0.72684 0.0
C410 C 0.57369 0.44114 0.64313 0.0
C411 C 0.54985 0.41359 0.77831 0.0
C412 C 0.53655 0.4191 0.81394 0.0
C413 C 0.54367 0.43315 0.84401 0.0
C414 C 0.5309 0.4381 0.87748 0.0
C415 C 0.51067 0.42902 0.88199 0.0
C416 C 0.50351 0.41513 0.85144 0.0
C417 C 0.51629 0.41028 0.81785 0.0
C418 C 0.60921 0.41387 0.69339 0.0
C419 C 0.60453 0.46344 0.7938 0.0
O420 O 0.64162 0.46704 0.69362 0.0
O421 O 0.61981 0.485 0.65541 0.0
O422 O 0.57633 0.46218 0.71202 0.0
O423 O 0.5905 0.4906 0.72191 0.0
O424 O 0.59281 0.45007 0.64444 0.0
O425 O 0.56364 0.4352 0.67673 0.0
O426 O 0.54595 0.42406 0.74483 0.0
O427 O 0.57021 0.41124 0.78471 0.0
O428 O 0.61034 0.43071 0.71464 0.0
O429 O 0.59148 0.40495 0.70294 0.0
O430 O 0.58796 0.45095 0.78875 0.0
O431 O 0.61713 0.46817 0.76301 0.0
H432 H 0.67985 0.49318 0.65987 0.0
H433 H 0.7035 0.4918 0.60145 0.0
H434 H 0.6548 0.46012 0.53206 0.0
H435 H 0.63133 0.4616 0.5907 0.0
H436 H 0.55916 0.44023 0.84182 0.0
H437 H 0.53692 0.44915 0.89977 0.0
H438 H 0.48821 0.4076 0.85384 0.0
H439 H 0.5104 0.39943 0.79504 0.0
Tb440 Tb 0.28668 0.86522 0.44413 0.0
Tb441 Tb 0.31489 0.83148 0.48093 0.0
C442 C 0.27249 0.90118 0.42564 0.0
C443 C 0.2719 0.91498 0.39004 0.0
C444 C 0.26065 0.93402 0.39192 0.0
C445 C 0.25783 0.94621 0.35699 0.0
C446 C 0.2664 0.93956 0.31977 0.0
C447 C 0.27852 0.92089 0.31857 0.0
C448 C 0.28115 0.90864 0.35341 0.0
C449 C 0.26824 0.82859 0.45173 0.0
C450 C 0.30428 0.82932 0.38748 0.0
C451 C 0.33041 0.80122 0.52071 0.0
C452 C 0.32704 0.78971 0.55971 0.0
C453 C 0.31174 0.77362 0.56319 0.0
C454 C 0.30972 0.7619 0.59918 0.0
C455 C 0.32303 0.76582 0.63262 0.0
C456 C 0.33829 0.78195 0.62904 0.0
C457 C 0.34028 0.79366 0.59312 0.0
C458 C 0.33544 0.8596 0.43438 0.0
C459 C 0.28778 0.86014 0.54129 0.0
O460 O 0.29101 0.89811 0.44217 0.0
O461 O 0.26165 0.88366 0.4225 0.0
O462 O 0.28165 0.83642 0.47619 0.0
O463 O 0.26359 0.84236 0.42378 0.0
O464 O 0.29875 0.84972 0.38861 0.0
O465 O 0.30812 0.81835 0.4211 0.0
O466 O 0.31611 0.79887 0.49218 0.0
O467 O 0.33748 0.82075 0.52287 0.0
O468 O 0.3196 0.86308 0.45725 0.0
O469 O 0.3416 0.84056 0.44238 0.0
O470 O 0.30415 0.8473 0.53693 0.0
O471 O 0.27796 0.86807 0.50905 0.0
H472 H 0.25348 0.93913 0.42013 0.0
H473 H 0.24866 0.96064 0.35892 0.0
H474 H 0.28507 0.91515 0.29028 0.0
H475 H 0.28973 0.89385 0.35146 0.0
H476 H 0.30143 0.76986 0.53797 0.0
H477 H 0.29764 0.7498 0.60078 0.0
H478 H 0.34911 0.78523 0.65371 0.0
H479 H 0.35251 0.80562 0.5913 0.0
Tb480 Tb 0.88914 0.46773 0.66233 0.0
Tb481 Tb 0.92527 0.44079 0.62981 0.0
C482 C 0.85319 0.48103 0.68245 0.0
C483 C 0.84429 0.49495 0.71346 0.0
C484 C 0.82233 0.49692 0.71717 0.0
C485 C 0.81368 0.51049 0.74626 0.0
C486 C 0.82698 0.52258 0.77129 0.0
C487 C 0.84901 0.52066 0.76707 0.0
C488 C 0.8576 0.50688 0.7385 0.0
C489 C 0.92478 0.48826 0.65548 0.0
C490 C 0.92687 0.45424 0.7213 0.0
C491 C 0.9554 0.42429 0.59159 0.0
C492 C 0.96712 0.42741 0.55298 0.0
C493 C 0.98928 0.42678 0.55324 0.0
C494 C 1.00078 0.42865 0.51706 0.0
C495 C 0.99041 0.43124 0.47954 0.0
C496 C 0.96815 0.4322 0.4795 0.0
C497 C 0.95666 0.43024 0.51572 0.0
C498 C 0.89672 0.41996 0.67541 0.0
C499 C 0.89616 0.46538 0.56545 0.0
O500 O 0.86113 0.4631 0.69523 0.0
O501 O 0.86539 0.4904 0.65596 0.0
O502 O 0.91811 0.47373 0.63237 0.0
O503 O 0.9103 0.49289 0.68206 0.0
O504 O 0.90639 0.45939 0.71905 0.0
O505 O 0.93816 0.4496 0.68854 0.0
O506 O 0.95798 0.43883 0.61967 0.0
O507 O 0.93574 0.41768 0.58897 0.0
O508 O 0.89313 0.43494 0.65042 0.0
O509 O 0.91623 0.41478 0.66994 0.0
O510 O 0.91282 0.45333 0.57254 0.0
O511 O 0.88358 0.47132 0.59573 0.0
H512 H 0.81191 0.48804 0.69746 0.0
H513 H 0.79667 0.51161 0.74909 0.0
H514 H 0.85964 0.52941 0.78664 0.0
H515 H 0.8746 0.50553 0.73592 0.0
H516 H 0.99773 0.42449 0.58151 0.0
H517 H 0.01783 0.42753 0.51848 0.0
H518 H 0.95955 0.43453 0.45144 0.0
H519 H 0.93958 0.43074 0.51445 0.0
Tb520 Tb 0.29228 0.14574 0.4092 0.0
Tb521 Tb 0.32441 0.1762 0.37184 0.0
C522 C 0.2752 0.11571 0.44655 0.0
C523 C 0.27917 0.10335 0.48331 0.0
C524 C 0.27141 0.08267 0.48586 0.0
C525 C 0.2745 0.07081 0.52107 0.0
C526 C 0.2857 0.07936 0.55413 0.0
C527 C 0.29372 0.10008 0.55102 0.0
C528 C 0.29047 0.11197 0.51593 0.0
C529 C 0.2761 0.18184 0.38173 0.0
C530 C 0.31542 0.18041 0.46511 0.0
C531 C 0.34217 0.20388 0.32872 0.0
C532 C 0.33631 0.21704 0.29272 0.0
C533 C 0.32809 0.23759 0.29772 0.0
C534 C 0.32309 0.25021 0.26397 0.0
C535 C 0.32625 0.24272 0.22417 0.0
C536 C 0.33459 0.22219 0.21926 0.0
C537 C 0.33957 0.20958 0.25298 0.0
C538 C 0.34174 0.14452 0.41408 0.0
C539 C 0.29213 0.15015 0.31434 0.0
O540 O 0.28879 0.11304 0.417 0.0
O541 O 0.27013 0.13562 0.45201 0.0
O542 O 0.2939 0.17847 0.39678 0.0
O543 O 0.26549 0.16436 0.3855 0.0
O544 O 0.30598 0.16154 0.46327 0.0
O545 O 0.32161 0.19055 0.4318 0.0
O546 O 0.33244 0.20807 0.3629 0.0
O547 O 0.34455 0.18343 0.32304 0.0
O548 O 0.32487 0.14367 0.39288 0.0
O549 O 0.35082 0.16224 0.40491 0.0
O550 O 0.30485 0.16655 0.31965 0.0
O551 O 0.28722 0.13748 0.34497 0.0
H552 H 0.26275 0.07576 0.46075 0.0
H553 H 0.26816 0.05491 0.52226 0.0
H554 H 0.30196 0.10745 0.57613 0.0
H555 H 0.29662 0.12793 0.51443 0.0
H556 H 0.32552 0.24399 0.32782 0.0
H557 H 0.31653 0.26579 0.26916 0.0
H558 H 0.33765 0.21593 0.18925 0.0
H559 H 0.34614 0.194 0.2478 0.0
Tb560 Tb 0.61447 0.53499 0.16577 0.0
Tb561 Tb 0.57899 0.56259 0.13296 0.0
C562 C 0.6509 0.52156 0.18235 0.0
C563 C 0.66427 0.52024 0.21837 0.0
C564 C 0.68412 0.51052 0.21585 0.0
C565 C 0.69622 0.50757 0.25087 0.0
C566 C 0.68862 0.51453 0.28861 0.0
C567 C 0.66902 0.52492 0.29062 0.0
C568 C 0.65684 0.52755 0.25582 0.0
C569 C 0.57846 0.51537 0.15814 0.0
C570 C 0.57866 0.55031 0.22551 0.0
C571 C 0.54799 0.57781 0.09517 0.0
C572 C 0.5364 0.57442 0.05626 0.0
C573 C 0.52072 0.55873 0.05261 0.0
C574 C 0.50903 0.55652 1.01663 0.0
C575 C 0.51256 0.57006 0.98335 0.0
C576 C 0.52828 0.58573 0.9871 0.0
C577 C 0.53998 0.58789 1.023 0.0
C578 C 0.60698 0.58351 0.17929 0.0
C579 C 0.60764 0.53744 0.06885 0.0
O580 O 0.64709 0.5406 0.16865 0.0
O581 O 0.6339 0.50984 0.1833 0.0
O582 O 0.58561 0.52956 0.13469 0.0
O583 O 0.59253 0.51073 0.18551 0.0
O584 O 0.5992 0.54553 0.22284 0.0
O585 O 0.56697 0.55413 0.19279 0.0
O586 O 0.54627 0.56314 0.12326 0.0
O587 O 0.56726 0.58549 0.09274 0.0
O588 O 0.61072 0.5681 0.15537 0.0
O589 O 0.58772 0.58918 0.17226 0.0
O590 O 0.59336 0.55236 0.07538 0.0
O591 O 0.61762 0.5283 0.09974 0.0
H592 H 0.69001 0.50478 0.187 0.0
H593 H 0.71129 0.49955 0.24864 0.0
H594 H 0.66258 0.53005 0.31945 0.0
H595 H 0.64134 0.53465 0.25838 0.0
H596 H 0.51726 0.54825 0.07771 0.0
H597 H 0.49726 0.54412 1.01493 0.0
H598 H 0.53126 0.59674 0.96259 0.0
H599 H 0.55163 0.6004 1.02493 0.0
Tb600 Tb 0.21719 0.86016 0.9141 0.0
Tb601 Tb 0.18429 0.83042 0.87533 0.0
C602 C 0.23482 0.89089 0.94842 0.0
C603 C 0.23192 0.90604 0.98173 0.0
C604 C 0.23849 0.92703 0.97616 0.0
C605 C 0.23762 0.94144 1.00824 0.0
C606 C 0.22995 0.93508 1.04631 0.0
C607 C 0.22243 0.91427 0.05121 0.0
C608 C 0.22352 0.89982 1.01924 0.0
C609 C 0.23257 0.82366 0.88624 0.0
C610 C 0.19328 0.82605 0.96926 0.0
C611 C 0.16672 0.80218 0.83309 0.0
C612 C 0.17251 0.78883 0.79727 0.0
C613 C 0.1795 0.76787 0.80274 0.0
C614 C 0.18438 0.75497 0.76932 0.0
C615 C 0.18231 0.76257 0.72932 0.0
C616 C 0.17527 0.78356 0.72393 0.0
C617 C 0.17043 0.79647 0.75735 0.0
C618 C 0.16761 0.86231 0.91764 0.0
C619 C 0.21693 0.8564 0.81843 0.0
O620 O 0.22194 0.8929 0.91749 0.0
O621 O 0.23835 0.87106 0.9582 0.0
O622 O 0.21471 0.82767 0.90033 0.0
O623 O 0.24374 0.84065 0.89195 0.0
O624 O 0.2032 0.84468 0.96806 0.0
O625 O 0.18681 0.81629 0.93565 0.0
O626 O 0.17683 0.79836 0.86702 0.0
O627 O 0.16391 0.82255 0.82715 0.0
O628 O 0.18469 0.86274 0.89708 0.0
O629 O 0.15795 0.84495 0.90788 0.0
O630 O 0.20263 0.84124 0.82232 0.0
O631 O 0.22363 0.86743 0.8501 0.0
H632 H 0.24495 0.9321 0.94729 0.0
H633 H 0.24357 0.95733 1.0037 0.0
H634 H 0.21676 0.9088 0.0804 0.0
H635 H 0.21824 0.88371 1.02412 0.0
H636 H 0.18117 0.76136 0.83299 0.0
H637 H 0.18998 0.73906 0.77496 0.0
H638 H 0.17309 0.78998 0.69375 0.0
H639 H 0.16488 0.81241 0.75178 0.0
Tb640 Tb 0.5804 0.94577 0.63204 0.0
Tb641 Tb 0.61591 0.9724 0.66814 0.0
C642 C 0.54898 0.93237 0.59262 0.0
C643 C 0.53699 0.93719 0.55458 0.0
C644 C 0.51796 0.94871 0.55632 0.0
C645 C 0.50569 0.95197 0.52134 0.0
C646 C 0.512 0.94373 0.4835 0.0
C647 C 0.53114 0.93236 0.48177 0.0
C648 C 0.54341 0.9291 0.51675 0.0
C649 C 0.60706 0.92421 0.68059 0.0
C650 C 0.61111 0.9706 0.57098 0.0
C651 C 0.65276 0.98304 0.68781 0.0
C652 C 0.6659 0.98036 0.72386 0.0
C653 C 0.68694 0.98714 0.72348 0.0
C654 C 0.69914 0.98582 0.75871 0.0
C655 C 0.69046 0.97748 0.79461 0.0
C656 C 0.66951 0.97002 0.79419 0.0
C657 C 0.65731 0.97154 0.75914 0.0
C658 C 0.58073 0.99313 0.65731 0.0
C659 C 0.5786 0.95806 0.72479 0.0
O660 O 0.5477 0.94626 0.62214 0.0
O661 O 0.56807 0.92434 0.58926 0.0
O662 O 0.61141 0.93951 0.65693 0.0
O663 O 0.58781 0.91892 0.67211 0.0
O664 O 0.59711 0.95517 0.57586 0.0
O665 O 0.61964 0.98024 0.60294 0.0
O666 O 0.64827 0.96562 0.66819 0.0
O667 O 0.63625 0.99523 0.69243 0.0
O668 O 0.58798 0.97855 0.6349 0.0
O669 O 0.59456 0.99777 0.68518 0.0
O670 O 0.59928 0.9622 0.7237 0.0
O671 O 0.56752 0.95446 0.69119 0.0
H672 H 0.51237 0.95501 0.58494 0.0
H673 H 0.49125 0.96103 0.52403 0.0
H674 H 0.53645 0.92546 0.45348 0.0
H675 H 0.55777 0.9199 0.51418 0.0
H676 H 0.69378 0.99386 0.69623 0.0
H677 H 0.71528 0.99149 0.75795 0.0
H678 H 0.66213 0.96392 0.82144 0.0
H679 H 0.64102 0.96631 0.75984 0.0
Tb680 Tb 0.31561 0.32882 0.87688 0.0
Tb681 Tb 0.2887 0.3651 0.90957 0.0
C682 C 0.3313 0.29791 0.8396 0.0
C683 C 0.32789 0.28608 0.80122 0.0
C684 C 0.32892 0.2639 0.80147 0.0
C685 C 0.32689 0.25234 0.76535 0.0
C686 C 0.32375 0.26269 0.72796 0.0
C687 C 0.32228 0.28495 0.728 0.0
C688 C 0.32438 0.2965 0.76414 0.0
C689 C 0.33676 0.35726 0.92196 0.0
C690 C 0.29057 0.35775 0.81272 0.0
C691 C 0.27596 0.4017 0.92682 0.0
C692 C 0.26923 0.41427 0.96188 0.0
C693 C 0.27922 0.41228 0.99966 0.0
C694 C 0.27202 0.42394 1.03279 0.0
C695 C 0.25465 0.43767 1.02871 0.0
C696 C 0.245 0.43996 0.99062 0.0
C697 C 0.25232 0.4284 0.95739 0.0
C698 C 0.2687 0.32909 0.90328 0.0
C699 C 0.30322 0.32859 0.96939 0.0
O700 O 0.31668 0.29593 0.86764 0.0
O701 O 0.33845 0.3174 0.83653 0.0
O702 O 0.32149 0.36087 0.89766 0.0
O703 O 0.34206 0.33779 0.91596 0.0
O704 O 0.3037 0.34182 0.81931 0.0
O705 O 0.28348 0.36947 0.8433 0.0
O706 O 0.29588 0.39628 0.92538 0.0
O707 O 0.26339 0.38627 0.91604 0.0
O708 O 0.28282 0.33605 0.87954 0.0
O709 O 0.26438 0.34338 0.93057 0.0
O710 O 0.29823 0.34913 0.96672 0.0
O711 O 0.3073 0.31688 0.93678 0.0
H712 H 0.33169 0.25549 0.82964 0.0
H713 H 0.32837 0.23529 0.76667 0.0
H714 H 0.31951 0.29352 0.70004 0.0
H715 H 0.3235 0.31359 0.76293 0.0
H716 H 0.2923 0.40144 1.00378 0.0
H717 H 0.27955 0.42161 0.06198 0.0
H718 H 0.23162 0.45045 0.98672 0.0
H719 H 0.24454 0.43019 0.92829 0.0
Tb720 Tb 0.92584 0.06503 0.12923 0.0
Tb721 Tb 0.89068 0.03589 0.15922 0.0
C722 C 0.95593 0.08242 0.09226 0.0
C723 C 0.96785 0.0794 0.05379 0.0
C724 C 0.99002 0.07988 0.05442 0.0
C725 C 1.0017 0.07779 1.01846 0.0
C726 C 0.99151 0.07511 0.98076 0.0
C727 C 0.96924 0.07435 0.98034 0.0
C728 C 0.95757 0.07652 1.01633 0.0
C729 C 0.89648 0.08401 0.17517 0.0
C730 C 0.89774 0.04048 0.06302 0.0
C731 C 0.85499 0.0206 0.17548 0.0
C732 C 0.84425 0.00959 0.20868 0.0
C733 C 0.82241 0.01217 0.2136 0.0
C734 C 0.81185 1.00185 0.24513 0.0
C735 C 0.82302 0.98868 0.27192 0.0
C736 C 0.84488 0.9859 0.26641 0.0
C737 C 0.85543 0.99635 0.23514 0.0
C738 C 0.92734 0.01736 0.15148 0.0
C739 C 0.92708 0.0501 0.21999 0.0
O740 O 0.95858 0.06791 0.12035 0.0
O741 O 0.93618 0.08872 0.08939 0.0
O742 O 0.89343 0.06913 0.14966 0.0
O743 O 0.91568 0.09038 0.17039 0.0
O744 O 0.91368 0.0534 0.07085 0.0
O745 O 0.88579 0.03294 0.09276 0.0
O746 O 0.86 0.04041 0.18192 0.0
O747 O 0.87005 0.01012 0.15726 0.0
O748 O 0.91993 0.03187 0.12912 0.0
O749 O 0.91314 0.01175 0.178 0.0
O750 O 0.90687 0.04409 0.21698 0.0
O751 O 0.93842 0.05577 0.18789 0.0
H752 H 0.99835 0.08215 0.08283 0.0
H753 H 0.01874 0.07876 1.0202 0.0
H754 H 0.96075 0.07196 0.95217 0.0
H755 H 0.9405 0.07608 1.01474 0.0
H756 H 0.81356 0.02232 0.19325 0.0
H757 H 0.79504 0.00433 0.24883 0.0
H758 H 0.85399 0.97625 0.2872 0.0
H759 H 0.87233 0.99426 0.23191 0.0
Tb760 Tb 0.19206 0.67736 0.38154 0.0
Tb761 Tb 0.21753 0.63996 0.41315 0.0
C762 C 0.17678 0.70834 0.3438 0.0
C763 C 0.17994 0.71996 0.30491 0.0
C764 C 0.19779 0.73277 0.29804 0.0
C765 C 0.19979 0.74445 0.26199 0.0
C766 C 0.18397 0.7437 0.23191 0.0
C767 C 0.16619 0.73081 0.2389 0.0
C768 C 0.1642 0.71917 0.27488 0.0
C769 C 0.17008 0.64913 0.42565 0.0
C770 C 0.2156 0.64789 0.31647 0.0
C771 C 0.22916 0.6031 0.43131 0.0
C772 C 0.24071 0.59222 0.46355 0.0
C773 C 0.25317 0.60363 0.49098 0.0
C774 C 0.26387 0.59308 0.52192 0.0
C775 C 0.26215 0.57098 0.526 0.0
C776 C 0.24986 0.55958 0.49804 0.0
C777 C 0.23923 0.57016 0.46692 0.0
C778 C 0.23918 0.67503 0.40787 0.0
C779 C 0.205 0.67752 0.4733 0.0
O780 O 0.19148 0.71013 0.37181 0.0
O781 O 0.16921 0.68901 0.34118 0.0
O782 O 0.18498 0.64517 0.40073 0.0
O783 O 0.16576 0.66895 0.42134 0.0
O784 O 0.20394 0.6648 0.32388 0.0
O785 O 0.22136 0.63504 0.34648 0.0
O786 O 0.21081 0.61102 0.44138 0.0
O787 O 0.24028 0.61609 0.40899 0.0
O788 O 0.22464 0.66895 0.38419 0.0
O789 O 0.24306 0.66026 0.4344 0.0
O790 O 0.20939 0.65683 0.47045 0.0
O791 O 0.20101 0.68932 0.44085 0.0
H792 H 0.21016 0.73398 0.3206 0.0
H793 H 0.21381 0.75399 0.25763 0.0
H794 H 0.15349 0.73006 0.21693 0.0
H795 H 0.15012 0.70972 0.27947 0.0
H796 H 0.25439 0.6207 0.4888 0.0
H797 H 0.27286 0.60233 0.54357 0.0
H798 H 0.24834 0.54257 0.50055 0.0
H799 H 0.22968 0.56117 0.44575 0.0
Tb800 Tb 0.58124 0.05905 0.22569 0.0
Tb801 Tb 0.6166 0.03216 0.19 0.0
C802 C 0.54957 0.07236 0.26419 0.0
C803 C 0.5377 0.06757 0.30226 0.0
C804 C 0.51814 0.05701 0.30039 0.0
C805 C 0.50609 0.05364 0.33557 0.0
C806 C 0.5132 0.06082 0.37368 0.0
C807 C 0.53288 0.07125 0.3755 0.0
C808 C 0.54492 0.0746 0.34034 0.0
C809 C 0.60806 0.0808 0.17862 0.0
C810 C 0.61138 0.03461 0.28741 0.0
C811 C 0.65311 0.01881 0.17387 0.0
C812 C 0.66727 0.01642 0.1392 0.0
C813 C 0.66265 0.02588 0.10183 0.0
C814 C 0.67566 0.02224 0.06845 0.0
C815 C 0.6932 0.00869 0.07179 0.0
C816 C 0.6979 0.99942 0.10944 0.0
C817 C 0.68504 0.00337 0.14301 0.0
C818 C 0.58097 0.01208 0.1991 0.0
C819 C 0.58012 0.04731 0.13218 0.0
O820 O 0.54848 0.05828 0.23498 0.0
O821 O 0.56855 0.08063 0.26758 0.0
O822 O 0.61251 0.06516 0.20154 0.0
O823 O 0.58893 0.08629 0.18742 0.0
O824 O 0.59746 0.05001 0.28234 0.0
O825 O 0.62 0.02499 0.25561 0.0
O826 O 0.64912 0.03814 0.18581 0.0
O827 O 0.63618 0.00702 0.17309 0.0
O828 O 0.58838 0.02618 0.22251 0.0
O829 O 0.59466 0.00781 0.17081 0.0
O830 O 0.60069 0.04253 0.13368 0.0
O831 O 0.56895 0.05112 0.16559 0.0
H832 H 0.512 0.05151 0.27155 0.0
H833 H 0.49121 0.04531 0.33285 0.0
H834 H 0.53881 0.07733 0.40404 0.0
H835 H 0.55976 0.08301 0.34302 0.0
H836 H 0.64862 0.03545 0.09807 0.0
H837 H 0.67141 0.02919 1.03952 0.0
H838 H 0.71128 0.9889 0.1127 0.0
H839 H 0.68871 0.99588 0.17174 0.0
Tb840 Tb 0.18227 0.3281 0.48215 0.0
Tb841 Tb 0.21392 0.35929 0.44463 0.0
C842 C 0.16494 0.29998 0.52487 0.0
C843 C 0.17104 0.28663 0.56047 0.0
C844 C 0.17917 0.26609 0.55482 0.0
C845 C 0.18434 0.25324 0.58816 0.0
C846 C 0.18145 0.26049 0.62821 0.0
C847 C 0.17325 0.28103 0.63377 0.0
C848 C 0.1681 0.29387 0.60046 0.0
C849 C 0.16462 0.35934 0.43891 0.0
C850 C 0.21424 0.35454 0.53981 0.0
C851 C 0.22947 0.39055 0.40878 0.0
C852 C 0.22511 0.40365 0.37315 0.0
C853 C 0.23135 0.42488 0.37349 0.0
C854 C 0.22861 0.43741 0.33906 0.0
C855 C 0.2194 0.42894 0.30376 0.0
C856 C 0.21238 0.40777 0.30427 0.0
C857 C 0.21522 0.39524 0.3387 0.0
C858 C 0.23082 0.32356 0.47238 0.0
C859 C 0.19204 0.32363 0.38899 0.0
O860 O 0.17462 0.2961 0.49048 0.0
O861 O 0.16236 0.32037 0.53103 0.0
O862 O 0.18132 0.36046 0.46048 0.0
O863 O 0.15571 0.3416 0.44863 0.0
O864 O 0.20147 0.33816 0.53456 0.0
O865 O 0.21922 0.36715 0.5091 0.0
O866 O 0.21586 0.39218 0.43857 0.0
O867 O 0.23533 0.37097 0.40187 0.0
O868 O 0.2129 0.32673 0.4577 0.0
O869 O 0.24123 0.34114 0.46769 0.0
O870 O 0.20109 0.34273 0.39041 0.0
O871 O 0.18594 0.3136 0.42251 0.0
H872 H 0.18151 0.25987 0.52452 0.0
H873 H 0.1908 0.23767 0.58244 0.0
H874 H 0.1704 0.28712 0.664 0.0
H875 H 0.16163 0.30945 0.60614 0.0
H876 H 0.23876 0.43168 0.40014 0.0
H877 H 0.23392 0.45369 0.34006 0.0
H878 H 0.20556 0.40052 0.27754 0.0
H879 H 0.21011 0.37888 0.33808 0.0
Tb880 Tb 0.92734 0.93345 0.73291 0.0
Tb881 Tb 0.89619 0.96508 0.69456 0.0
C882 C 0.95525 0.91607 0.77602 0.0
C883 C 0.96849 0.92193 0.81192 0.0
C884 C 0.98839 0.93158 0.80686 0.0
C885 C 1.00117 0.93638 0.84048 0.0
C886 C 0.99451 0.93157 0.88023 0.0
C887 C 0.97463 0.92185 0.88519 0.0
C888 C 0.96185 0.91707 0.85159 0.0
C889 C 0.89637 0.91577 0.68896 0.0
C890 C 0.90028 0.96522 0.78971 0.0
C891 C 0.86511 0.98022 0.65754 0.0
C892 C 0.85282 0.97536 0.6211 0.0
C893 C 0.83169 0.98174 0.61897 0.0
C894 C 0.81982 0.97772 0.58411 0.0
C895 C 0.82887 0.96702 0.55097 0.0
C896 C 0.85003 0.96027 0.55377 0.0
C897 C 0.86189 0.96441 0.58854 0.0
C898 C 0.9316 0.98215 0.72329 0.0
C899 C 0.93237 0.9435 0.64 0.0
O900 O 0.95925 0.92591 0.74183 0.0
O901 O 0.93487 0.91348 0.7819 0.0
O902 O 0.8952 0.93245 0.71059 0.0
O903 O 0.91407 0.90687 0.69884 0.0
O904 O 0.91683 0.95264 0.78495 0.0
O905 O 0.88783 0.9701 0.75872 0.0
O906 O 0.86341 0.96645 0.68711 0.0
O907 O 0.88461 0.98658 0.65176 0.0
O908 O 0.92856 0.96418 0.70863 0.0
O909 O 0.91409 0.99256 0.71792 0.0
O910 O 0.91324 0.95241 0.64089 0.0
O911 O 0.94218 0.93739 0.67374 0.0
H912 H 0.99419 0.93538 0.77681 0.0
H913 H 0.01621 0.94405 0.83526 0.0
H914 H 0.96904 0.91751 0.91511 0.0
H915 H 0.94682 0.90935 0.85674 0.0
H916 H 0.82442 0.99003 0.64414 0.0
H917 H 0.80356 0.98299 0.58319 0.0
H918 H 0.85773 0.95241 0.52862 0.0
H919 H 0.87818 0.95924 0.5898 0.0
Tb920 Tb 0.32306 0.67605 0.98522 0.0
Tb921 Tb 0.29146 0.64471 0.94714 0.0
C922 C 0.34064 0.70415 1.0276 0.0
C923 C 0.33514 0.71742 0.06361 0.0
C924 C 0.32534 0.73727 0.0588 0.0
C925 C 0.32087 0.75008 0.09253 0.0
C926 C 0.32619 0.7435 0.13207 0.0
C927 C 0.33607 0.72367 0.13678 0.0
C928 C 0.34051 0.71086 0.10308 0.0
C929 C 0.34075 0.64499 0.94145 0.0
C930 C 0.29113 0.64927 1.04249 0.0
C931 C 0.27658 0.61325 0.91066 0.0
C932 C 0.28142 0.60069 0.87453 0.0
C933 C 0.27387 0.57993 0.87185 0.0
C934 C 0.27746 0.56798 0.83691 0.0
C935 C 0.28885 0.57658 0.80418 0.0
C936 C 0.29701 0.59725 0.80775 0.0
C937 C 0.29329 0.60921 0.84261 0.0
C938 C 0.27447 0.68035 0.97513 0.0
C939 C 0.31303 0.68081 0.89215 0.0
O940 O 0.33045 0.70807 0.99377 0.0
O941 O 0.34335 0.68375 1.03355 0.0
O942 O 0.32408 0.64383 0.96305 0.0
O943 O 0.3496 0.66274 0.95133 0.0
O944 O 0.30388 0.66572 1.03755 0.0
O945 O 0.28617 0.63675 1.01157 0.0
O946 O 0.29031 0.61182 0.94032 0.0
O947 O 0.27019 0.63272 0.90434 0.0
O948 O 0.29244 0.67716 0.96081 0.0
O949 O 0.26396 0.66288 0.96957 0.0
O950 O 0.3041 0.66165 0.89326 0.0
O951 O 0.31914 0.69074 0.92579 0.0
H952 H 0.32115 0.74301 1.02889 0.0
H953 H 0.31307 0.7651 0.08757 0.0
H954 H 0.34078 0.71814 0.16654 0.0
H955 H 0.34838 0.69586 0.10799 0.0
H956 H 0.26489 0.57305 0.89656 0.0
H957 H 0.2712 0.55205 0.83548 0.0
H958 H 0.30551 0.60461 0.78299 0.0
H959 H 0.29935 0.62521 0.84432 0.0
Tb960 Tb 0.39085 0.03342 0.68894 0.0
Tb961 Tb 0.42637 0.05991 0.72538 0.0
C962 C 0.35412 0.02182 0.67025 0.0
C963 C 0.34079 0.02288 0.63417 0.0
C964 C 0.32054 0.01402 0.635 0.0
C965 C 0.3083 0.01352 0.59976 0.0
C966 C 0.31626 0.02177 0.5632 0.0
C967 C 0.33635 0.03135 0.56309 0.0
C968 C 0.34853 0.03184 0.59829 0.0
C969 C 0.42622 0.0129 0.69829 0.0
C970 C 0.42756 0.04861 0.63189 0.0
C971 C 0.45806 0.07289 0.76444 0.0
C972 C 0.47016 0.06777 0.80215 0.0
C973 C 0.48931 0.0565 0.79976 0.0
C974 C 0.50165 0.05292 0.83451 0.0
C975 C 0.49529 0.0606 0.87274 0.0
C976 C 0.47603 0.07174 0.87511 0.0
C977 C 0.46369 0.0753 0.84036 0.0
C978 C 0.39951 0.08189 0.67826 0.0
C979 C 0.39588 0.03497 0.78615 0.0
O980 O 0.35841 0.03993 0.68758 0.0
O981 O 0.37077 0.00973 0.66699 0.0
O982 O 0.41898 0.02709 0.72164 0.0
O983 O 0.41242 0.00865 0.67014 0.0
O984 O 0.40694 0.0442 0.63328 0.0
O985 O 0.43881 0.05202 0.66538 0.0
O986 O 0.45913 0.05917 0.7346 0.0
O987 O 0.43904 0.08101 0.76833 0.0
O988 O 0.39525 0.06624 0.70116 0.0
O989 O 0.41869 0.08727 0.6871 0.0
O990 O 0.40984 0.05042 0.78151 0.0
O991 O 0.38733 0.02546 0.75411 0.0
H992 H 0.31434 0.00719 0.66271 0.0
H993 H 0.29278 0.00633 0.60096 0.0
H994 H 0.34315 0.03754 0.53538 0.0
H995 H 0.36425 0.03859 0.59721 0.0
H996 H 0.49493 0.05062 0.77082 0.0
H997 H 0.51619 0.04406 0.83136 0.0
H998 H 0.47068 0.07822 0.90374 0.0
H999 H 0.44922 0.0843 0.84343 0.0
Tb1000 Tb 0.70983 0.64713 0.45026 0.0
Tb1001 Tb 0.67704 0.67508 0.49231 0.0
C1002 C 0.72678 0.61733 0.41224 0.0
C1003 C 0.72285 0.6035 0.37737 0.0
C1004 C 0.71149 0.61049 0.34342 0.0
C1005 C 0.7092 0.59731 0.30966 0.0
C1006 C 0.71833 0.57697 0.30927 0.0
C1007 C 0.72897 0.56986 0.34419 0.0
C1008 C 0.73112 0.58299 0.37794 0.0
C1009 C 0.725 0.6835 0.47845 0.0
C1010 C 0.68413 0.68148 0.39823 0.0
C1011 C 0.65796 0.70163 0.53599 0.0
C1012 C 0.66243 0.71464 0.57254 0.0
C1013 C 0.65713 0.73621 0.57235 0.0
C1014 C 0.66081 0.74891 0.60652 0.0
C1015 C 0.66982 0.74031 0.64193 0.0
C1016 C 0.67536 0.7187 0.64189 0.0
C1017 C 0.67176 0.70603 0.60757 0.0
C1018 C 0.66069 0.6434 0.44851 0.0
C1019 C 0.7117 0.64996 0.54615 0.0
O1020 O 0.71428 0.61454 0.44349 0.0
O1021 O 0.73057 0.63735 0.40456 0.0
O1022 O 0.70691 0.67955 0.46506 0.0
O1023 O 0.73617 0.6665 0.47291 0.0
O1024 O 0.69509 0.66344 0.39784 0.0
O1025 O 0.67762 0.69027 0.43273 0.0
O1026 O 0.66849 0.70665 0.5032 0.0
O1027 O 0.65629 0.68105 0.54073 0.0
O1028 O 0.67788 0.64318 0.46869 0.0
O1029 O 0.6508 0.6603 0.45995 0.0
O1030 O 0.69675 0.66457 0.54383 0.0
O1031 O 0.71808 0.63946 0.51352 0.0
H1032 H 0.70484 0.62628 0.34262 0.0
H1033 H 0.7012 0.60355 0.2832 0.0
H1034 H 0.736 0.55426 0.34527 0.0
H1035 H 0.73974 0.57728 0.40418 0.0
H1036 H 0.64993 0.74324 0.54573 0.0
H1037 H 0.65611 0.76537 0.60549 0.0
H1038 H 0.68259 0.71158 0.66835 0.0
H1039 H 0.67621 0.6895 0.60856 0.0
Tb1040 Tb 0.11698 0.97139 0.19259 0.0
Tb1041 Tb 0.0821 0.94402 0.22878 0.0
C1042 C 0.15366 0.98391 0.17547 0.0
C1043 C 0.16713 0.98971 0.14105 0.0
C1044 C 0.18153 0.00637 0.14583 0.0
C1045 C 0.19358 0.01332 0.11299 0.0
C1046 C 0.19148 0.00359 0.07491 0.0
C1047 C 0.17777 0.98617 0.07075 0.0
C1048 C 0.16559 0.97933 0.10356 0.0
C1049 C 0.08088 0.99071 0.19899 0.0
C1050 C 0.08032 0.95525 0.13526 0.0
C1051 C 0.05151 0.92862 0.26752 0.0
C1052 C 0.03986 0.93187 0.30632 0.0
C1053 C 0.02468 0.94798 0.31055 0.0
C1054 C 0.01282 0.94991 0.34632 0.0
C1055 C 0.01572 0.9357 0.37877 0.0
C1056 C 0.03097 0.91963 0.37447 0.0
C1057 C 0.04281 0.91773 0.33875 0.0
C1058 C 0.11019 0.92296 0.18281 0.0
C1059 C 0.111 0.97039 0.29015 0.0
O1060 O 0.14839 0.96398 0.17896 0.0
O1061 O 0.13792 0.99665 0.18327 0.0
O1062 O 0.08821 0.97712 0.22373 0.0
O1063 O 0.09481 0.99488 0.17092 0.0
O1064 O 0.10068 0.96097 0.1365 0.0
O1065 O 0.06934 0.95105 0.16873 0.0
O1066 O 0.04947 0.94313 0.23923 0.0
O1067 O 0.07092 0.92134 0.27007 0.0
O1068 O 0.11369 0.93867 0.20616 0.0
O1069 O 0.09103 0.91716 0.1905 0.0
O1070 O 0.09686 0.95514 0.28557 0.0
O1071 O 0.12047 0.97898 0.25812 0.0
H1072 H 0.18304 0.01439 0.17477 0.0
H1073 H 0.2041 0.02668 0.11706 0.0
H1074 H 0.17563 0.97852 1.04161 0.0
H1075 H 0.15461 0.96637 0.09932 0.0
H1076 H 0.02173 0.959 0.28607 0.0
H1077 H 1.00141 0.96261 0.34856 0.0
H1078 H 0.03344 0.90814 0.39837 0.0
H1079 H 0.05407 0.90489 0.33627 0.0
Tb1080 Tb 0.79031 0.3596 0.94584 0.0
Tb1081 Tb 0.82299 0.33 0.98479 0.0
C1082 C 0.77281 0.39009 0.91067 0.0
C1083 C 0.77588 0.40454 0.87635 0.0
C1084 C 0.77075 0.42597 0.88127 0.0
C1085 C 0.77202 0.43986 0.84844 0.0
C1086 C 0.77861 0.43251 0.81029 0.0
C1087 C 0.78472 0.41122 0.80598 0.0
C1088 C 0.78321 0.3973 0.83867 0.0
C1089 C 0.77472 0.32322 0.97362 0.0
C1090 C 0.81437 0.32554 0.89083 0.0
C1091 C 0.84078 0.30223 1.02775 0.0
C1092 C 0.83491 0.28885 0.06345 0.0
C1093 C 0.82702 0.26821 0.05794 0.0
C1094 C 0.82205 0.25535 0.09135 0.0
C1095 C 0.82491 0.26269 0.13135 0.0
C1096 C 0.83289 0.28333 0.13679 0.0
C1097 C 0.83784 0.29619 0.10339 0.0
C1098 C 0.83984 0.36193 0.94286 0.0
C1099 C 0.79006 0.35595 1.04124 0.0
O1100 O 0.78601 0.39234 0.94105 0.0
O1101 O 0.76879 0.37019 0.90219 0.0
O1102 O 0.79261 0.32699 0.95931 0.0
O1103 O 0.76377 0.34041 0.96876 0.0
O1104 O 0.80436 0.3441 0.89212 0.0
O1105 O 0.82081 0.31575 0.92442 0.0
O1106 O 0.83112 0.29815 0.99345 0.0
O1107 O 0.84307 0.32266 1.0337 0.0
O1108 O 0.82269 0.3623 0.96319 0.0
O1109 O 0.84948 0.34459 0.95262 0.0
O1110 O 0.80411 0.34054 1.03751 0.0
O1111 O 0.78388 0.36722 1.00954 0.0
H1112 H 0.76516 0.43182 0.91026 0.0
H1113 H 0.76722 0.45617 0.85251 0.0
H1114 H 0.78953 0.40502 0.77675 0.0
H1115 H 0.78737 0.38083 0.83427 0.0
H1116 H 0.82471 0.26191 1.02768 0.0
H1117 H 0.81575 0.23969 0.08573 0.0
H1118 H 0.83571 0.28949 0.16697 0.0
H1119 H 0.84414 0.31186 0.10896 0.0
Tb1120 Tb 0.39101 0.97136 0.16565 0.0
Tb1121 Tb 0.42621 0.94455 0.12966 0.0
C1122 C 0.35431 0.98385 0.1825 0.0
C1123 C 0.34011 0.98341 0.21735 0.0
C1124 C 0.32038 0.99332 0.21468 0.0
C1125 C 0.30762 0.99507 0.24905 0.0
C1126 C 0.31439 0.98668 0.28634 0.0
C1127 C 0.3338 0.97589 0.28828 0.0
C1128 C 0.34664 0.97441 0.25408 0.0
C1129 C 0.42659 0.99155 0.15695 0.0
C1130 C 0.42738 0.95585 0.22324 0.0
C1131 C 0.45789 0.93053 0.09199 0.0
C1132 C 0.47024 0.93504 0.05483 0.0
C1133 C 0.46415 0.95076 1.02709 0.0
C1134 C 0.47645 0.95482 0.99242 0.0
C1135 C 0.49515 0.94332 0.9849 0.0
C1136 C 0.50112 0.92765 1.01305 0.0
C1137 C 0.48882 0.92359 1.04752 0.0
C1138 C 0.39894 0.92279 0.176 0.0
C1139 C 0.39639 0.96986 0.06845 0.0
O1140 O 0.35841 0.96558 0.16563 0.0
O1141 O 0.37126 0.99542 0.187 0.0
O1142 O 0.41932 0.97748 0.13334 0.0
O1143 O 0.41276 0.99586 0.18495 0.0
O1144 O 0.40677 0.96038 0.22172 0.0
O1145 O 0.43858 0.95234 0.18977 0.0
O1146 O 0.45899 0.94476 0.12089 0.0
O1147 O 0.43865 0.92315 0.0871 0.0
O1148 O 0.39487 0.93849 0.15311 0.0
O1149 O 0.41815 0.91732 0.16792 0.0
O1150 O 0.41012 0.95424 0.07319 0.0
O1151 O 0.38794 0.97946 0.10045 0.0
H1152 H 0.31517 1.00031 0.18636 0.0
H1153 H 0.29269 0.00334 0.24672 0.0
H1154 H 0.33964 0.96961 0.31674 0.0
H1155 H 0.36198 0.96696 0.25666 0.0
H1156 H 0.44996 0.95993 1.03229 0.0
H1157 H 0.47143 0.96717 0.97178 0.0
H1158 H 0.51516 0.91822 1.00815 0.0
H1159 H 0.49383 0.9114 0.06856 0.0
Tb1160 Tb 0.79053 0.64624 0.91261 0.0
Tb1161 Tb 0.82481 0.67331 0.8725 0.0
C1162 C 0.77023 0.61674 0.94515 0.0
C1163 C 0.76791 0.6006 0.97674 0.0
C1164 C 0.77669 0.60295 1.01552 0.0
C1165 C 0.77168 0.58847 1.0461 0.0
C1166 C 0.75741 0.57187 1.03846 0.0
C1167 C 0.74935 0.56909 0.99924 0.0
C1168 C 0.75477 0.58325 0.96848 0.0
C1169 C 0.77704 0.6833 0.8838 0.0
C1170 C 0.81638 0.67971 0.96631 0.0
C1171 C 0.84519 0.69922 0.82949 0.0
C1172 C 0.84176 0.71166 0.79181 0.0
C1173 C 0.8218 0.71985 0.7815 0.0
C1174 C 0.81923 0.7324 0.74662 0.0
C1175 C 0.83651 0.73693 0.72108 0.0
C1176 C 0.85639 0.72849 0.73145 0.0
C1177 C 0.85896 0.71606 0.76635 0.0
C1178 C 0.83967 0.64118 0.91675 0.0
C1179 C 0.79032 0.64934 0.81656 0.0
O1180 O 0.7847 0.61367 0.91731 0.0
O1181 O 0.76806 0.63669 0.95546 0.0
O1182 O 0.79472 0.67861 0.89814 0.0
O1183 O 0.76532 0.6666 0.88823 0.0
O1184 O 0.80491 0.66194 0.96617 0.0
O1185 O 0.82362 0.68834 0.93216 0.0
O1186 O 0.83387 0.70462 0.86113 0.0
O1187 O 0.84679 0.67862 0.82558 0.0
O1188 O 0.82266 0.6414 0.89595 0.0
O1189 O 0.85023 0.65785 0.90636 0.0
O1190 O 0.80563 0.66351 0.81973 0.0
O1191 O 0.78328 0.63898 0.84878 0.0
H1192 H 0.78653 0.61645 1.02271 0.0
H1193 H 0.7778 0.59109 0.07642 0.0
H1194 H 0.73821 0.5565 0.99286 0.0
H1195 H 0.74783 0.58124 0.93863 0.0
H1196 H 0.80822 0.71664 0.80053 0.0
H1197 H 0.80364 0.73836 0.73943 0.0
H1198 H 0.87014 0.7318 0.71295 0.0
H1199 H 0.87452 0.71004 0.77373 0.0
Tb1200 Tb 0.10916 0.04353 0.66306 0.0
Tb1201 Tb 0.07791 0.07443 0.62296 0.0
C1202 C 0.14091 0.0308 0.70099 0.0
C1203 C 0.15336 0.03765 0.73628 0.0
C1204 C 0.17544 0.03821 0.7333 0.0
C1205 C 0.18775 0.04286 0.76731 0.0
C1206 C 0.17817 0.0468 0.80505 0.0
C1207 C 0.15596 0.04762 0.80718 0.0
C1208 C 0.14367 0.04315 0.77307 0.0
C1209 C 0.074 0.0257 0.63549 0.0
C1210 C 0.073 0.06566 0.71682 0.0
C1211 C 0.04946 0.091 0.58004 0.0
C1212 C 0.03644 0.08471 0.5442 0.0
C1213 C 0.01626 0.07576 0.54955 0.0
C1214 C 0.00366 0.07038 0.51606 0.0
C1215 C 0.01082 0.0739 0.47617 0.0
C1216 C 0.031 0.08292 0.47087 0.0
C1217 C 0.0436 0.08828 0.50437 0.0
C1218 C 0.10885 0.09265 0.66598 0.0
C1219 C 0.10543 0.04209 0.56741 0.0
O1220 O 0.14204 0.04313 0.66905 0.0
O1221 O 0.1217 0.02381 0.70796 0.0
O1222 O 0.07676 0.04403 0.64885 0.0
O1223 O 0.09156 0.01549 0.64194 0.0
O1224 O 0.09196 0.05644 0.71618 0.0
O1225 O 0.06328 0.07166 0.68287 0.0
O1226 O 0.04579 0.08086 0.61401 0.0
O1227 O 0.06973 0.09435 0.57428 0.0
O1228 O 0.10991 0.07579 0.64494 0.0
O1229 O 0.09108 0.10142 0.65617 0.0
O1230 O 0.08967 0.05582 0.57068 0.0
O1231 O 0.11676 0.03629 0.59943 0.0
H1232 H 0.18319 0.03442 0.7049 0.0
H1233 H 0.20476 0.04258 0.76437 0.0
H1234 H 0.14796 0.05046 0.83571 0.0
H1235 H 0.12663 0.04327 0.77592 0.0
H1236 H 0.0101 0.07294 0.57975 0.0
H1237 H 0.98837 0.06327 0.52151 0.0
H1238 H 0.03697 0.08625 0.44075 0.0
H1239 H 0.05891 0.09539 0.49897 0.0
Tb1240 Tb 0.71812 0.36528 0.4142 0.0
Tb1241 Tb 0.68999 0.3317 0.37663 0.0
C1242 C 0.7316 0.40149 0.43257 0.0
C1243 C 0.73197 0.41526 0.46811 0.0
C1244 C 0.72266 0.40877 0.50456 0.0
C1245 C 0.72516 0.42094 0.5395 0.0
C1246 C 0.73716 0.4397 0.5385 0.0
C1247 C 0.74563 0.44659 0.50136 0.0
C1248 C 0.74303 0.43442 0.46637 0.0
C1249 C 0.73662 0.32878 0.40635 0.0
C1250 C 0.70057 0.32907 0.47008 0.0
C1251 C 0.67422 0.30183 0.33601 0.0
C1252 C 0.6773 0.29055 0.29663 0.0
C1253 C 0.69304 0.27501 0.29181 0.0
C1254 C 0.69467 0.26339 0.2556 0.0
C1255 C 0.68052 0.26686 0.22324 0.0
C1256 C 0.66487 0.2825 0.2281 0.0
C1257 C 0.66327 0.29411 0.26425 0.0
C1258 C 0.66944 0.35946 0.42437 0.0
C1259 C 0.7177 0.36035 0.31705 0.0
O1260 O 0.71305 0.39803 0.4164 0.0
O1261 O 0.74282 0.38422 0.43563 0.0
O1262 O 0.72323 0.33661 0.38184 0.0
O1263 O 0.74124 0.34249 0.4345 0.0
O1264 O 0.70622 0.34944 0.46937 0.0
O1265 O 0.69671 0.31823 0.43625 0.0
O1266 O 0.6886 0.29917 0.36432 0.0
O1267 O 0.66729 0.32142 0.33445 0.0
O1268 O 0.68522 0.36307 0.40136 0.0
O1269 O 0.66328 0.34051 0.41551 0.0
O1270 O 0.70121 0.34758 0.32089 0.0
O1271 O 0.72725 0.36822 0.34961 0.0
H1272 H 0.71421 0.39389 0.50633 0.0
H1273 H 0.71871 0.41499 0.56772 0.0
H1274 H 0.7547 0.4611 0.49961 0.0
H1275 H 0.75019 0.43964 0.43823 0.0
H1276 H 0.70398 0.27157 0.31619 0.0
H1277 H 0.70708 0.2517 0.25301 0.0
H1278 H 0.65343 0.28544 0.20433 0.0
H1279 H 0.65071 0.30565 0.26712 0.0
H1280 H 0.20518 0.51024 0.32231 0.0
H1281 H 0.20435 0.47599 0.55321 0.0
H1282 H 0.1819 0.45044 0.36746 0.0
H1283 H 0.20298 0.54035 0.50997 0.0
H1284 H 0.21216 0.46393 0.4842 0.0
H1285 H 0.21999 0.51771 0.38902 0.0
C1286 C 0.20368 0.49836 0.34581 0.0
C1287 C 0.1918 0.47987 0.33945 0.0
C1288 C 0.21086 0.48074 0.49014 0.0
C1289 C 0.20858 0.48856 0.41595 0.0
C1290 C 0.20656 0.48764 0.52947 0.0
C1291 C 0.20263 0.50913 0.53684 0.0
C1292 C 0.21127 0.4955 0.45834 0.0
C1293 C 0.20554 0.52359 0.50514 0.0
C1294 C 0.2121 0.50273 0.38395 0.0
C1295 C 0.19029 0.46523 0.37137 0.0
N1296 N 0.20932 0.51648 0.46699 0.0
N1297 N 0.1983 0.47003 0.40846 0.0
H1298 H 0.77241 0.95204 0.80375 0.0
H1299 H 0.80504 0.93407 0.61374 0.0
H1300 H 0.71171 0.9375 0.75076 0.0
H1301 H 0.743 0.95229 0.57221 0.0
H1302 H 0.79598 0.94627 0.68142 0.0
H1303 H 0.78467 0.96425 0.73776 0.0
C1304 C 0.76145 0.95185 0.77852 0.0
C1305 C 0.74121 0.94296 0.78248 0.0
C1306 C 0.78457 0.94846 0.65733 0.0
C1307 C 0.75553 0.95605 0.70665 0.0
C1308 C 0.78968 0.94117 0.61869 0.0
C1309 C 0.7746 0.94173 0.58756 0.0
C1310 C 0.76401 0.95585 0.66502 0.0
C1311 C 0.7551 0.95147 0.59537 0.0
C1312 C 0.76861 0.95858 0.74068 0.0
C1313 C 0.72775 0.94334 0.74868 0.0
N1314 N 0.75014 0.95756 0.63367 0.0
N1315 N 0.73529 0.94937 0.71195 0.0
H1316 H 0.32061 0.55083 0.86635 0.0
H1317 H 0.3017 0.45908 1.01355 0.0
H1318 H 0.30035 0.4893 0.82499 0.0
H1319 H 0.29928 0.52417 0.0522 0.0
H1320 H 0.29345 0.47025 0.94438 0.0
H1321 H 0.30608 0.54298 0.93324 0.0
C1322 C 0.31279 0.53579 0.87121 0.0
C1323 C 0.31207 0.52052 0.84038 0.0
C1324 C 0.29407 0.48209 0.96811 0.0
C1325 C 0.29575 0.51124 0.91695 0.0
C1326 C 0.29873 0.47567 1.00757 0.0
C1327 C 0.30154 0.4908 1.03817 0.0
C1328 C 0.29299 0.50382 0.9592 0.0
C1329 C 0.29743 0.51207 1.0292 0.0
C1330 C 0.30433 0.53136 0.90931 0.0
C1331 C 0.30134 0.5015 0.84797 0.0
N1332 N 0.29399 0.51805 0.99019 0.0
N1333 N 0.29407 0.49716 0.88582 0.0
H1334 H 0.70214 0.08309 0.31625 0.0
H1335 H 0.72128 0.04446 0.09136 0.0
H1336 H 0.75225 0.04084 0.28013 0.0
H1337 H 0.69041 0.10246 0.12864 0.0
H1338 H 0.72128 0.03301 0.16178 0.0
H1339 H 0.68565 0.07826 0.25 0.0
C1340 C 0.70931 0.07221 0.29493 0.0
C1341 C 0.72896 0.06288 0.30313 0.0
C1342 C 0.71399 0.04797 0.15396 0.0
C1343 C 0.71041 0.05771 0.2272 0.0
C1344 C 0.7143 0.05481 0.11372 0.0
C1345 C 0.70677 0.07507 0.10332 0.0
C1346 C 0.70554 0.06115 0.18396 0.0
C1347 C 0.69673 0.08688 0.13406 0.0
C1348 C 0.69994 0.06957 0.25702 0.0
C1349 C 0.73746 0.04889 0.27438 0.0
N1350 N 0.6967 0.07985 0.1729 0.0
N1351 N 0.72839 0.04711 0.2372 0.0
H1352 H 0.79804 0.54342 1.01463 0.0
H1353 H 0.83791 0.56312 0.79086 0.0
H1354 H 0.85553 0.57521 0.97943 0.0
H1355 H 0.79672 0.51213 0.82699 0.0
H1356 H 0.83179 0.58022 0.8564 0.0
H1357 H 0.78617 0.54469 0.94391 0.0
C1358 C 0.80785 0.55131 0.99236 0.0
C1359 C 0.82805 0.55879 1.00271 0.0
C1360 C 0.82359 0.5656 0.84948 0.0
C1361 C 0.81449 0.56036 0.92225 0.0
C1362 C 0.82713 0.55583 0.81222 0.0
C1363 C 0.81838 0.53587 0.80427 0.0
C1364 C 0.81152 0.55514 0.87901 0.0
C1365 C 0.80407 0.52735 0.83234 0.0
C1366 C 0.80106 0.55199 0.95206 0.0
C1367 C 0.84008 0.5688 0.97262 0.0
N1368 N 0.80151 0.53677 0.86909 0.0
N1369 N 0.83323 0.56907 0.93367 0.0
H1370 H 0.24217 0.03701 0.77947 0.0
H1371 H 0.31875 0.07894 0.60844 0.0
H1372 H 0.29827 0.07391 0.80165 0.0
H1373 H 0.25655 0.05279 0.58879 0.0
H1374 H 0.31767 0.06609 0.6783 0.0
H1375 H 0.25411 0.03075 0.70997 0.0
C1376 C 0.25725 0.04334 0.76992 0.0
C1377 C 0.26892 0.05654 0.79572 0.0
C1378 C 0.30445 0.06282 0.65837 0.0
C1379 C 0.28256 0.04973 0.71651 0.0
C1380 C 0.30498 0.07031 0.61859 0.0
C1381 C 0.28741 0.06764 0.59303 0.0
C1382 C 0.28629 0.05247 0.67256 0.0
C1383 C 0.27041 0.05547 0.60729 0.0
C1384 C 0.26408 0.03977 0.73034 0.0
C1385 C 0.28864 0.06388 0.78245 0.0
N1386 N 0.27013 0.04866 0.64631 0.0
N1387 N 0.29462 0.06084 0.74332 0.0
H1388 H 0.69664 0.54019 0.35305 0.0
H1389 H 0.68618 0.44753 0.4992 0.0
H1390 H 0.70429 0.47605 0.3112 0.0
H1391 H 0.70496 0.50986 0.53906 0.0
H1392 H 0.69897 0.456 0.43122 0.0
H1393 H 0.70649 0.52905 0.42113 0.0
C1394 C 0.70113 0.52387 0.35804 0.0
C1395 C 0.69961 0.50903 0.32666 0.0
C1396 C 0.70083 0.46761 0.45515 0.0
C1397 C 0.70979 0.49583 0.40486 0.0
C1398 C 0.69335 0.46284 0.49389 0.0
C1399 C 0.69383 0.47825 0.52456 0.0
C1400 C 0.70853 0.48801 0.44705 0.0
C1401 C 0.70401 0.49752 0.51637 0.0
C1402 C 0.70668 0.51744 0.39695 0.0
C1403 C 0.70526 0.48798 0.33471 0.0
N1404 N 0.71048 0.50205 0.47813 0.0
N1405 N 0.70951 0.48184 0.37339 0.0
H1406 H 0.22811 0.95568 0.29683 0.0
H1407 H 0.26504 0.95739 0.06773 0.0
H1408 H 0.29231 0.94829 0.25523 0.0
H1409 H 0.20171 0.94317 0.10762 0.0
H1410 H 0.2735 0.96999 0.13584 0.0
H1411 H 0.21775 0.96643 0.22841 0.0
C1412 C 0.24017 0.95695 0.27367 0.0
C1413 C 0.26105 0.95067 0.28152 0.0
C1414 C 0.25757 0.9647 0.12937 0.0
C1415 C 0.24922 0.96279 0.20333 0.0
C1416 C 0.25267 0.95764 0.09042 0.0
C1417 C 0.23282 0.94866 0.08246 0.0
C1418 C 0.24253 0.96268 0.16039 0.0
C1419 C 0.2174 0.94941 0.11298 0.0
C1420 C 0.2342 0.96301 0.2346 0.0
C1421 C 0.27595 0.95253 0.25024 0.0
N1422 N 0.22271 0.95585 0.15096 0.0
N1423 N 0.26968 0.95812 0.21234 0.0
H1424 H 0.70357 0.96884 1.04746 0.0
H1425 H 0.71621 0.00933 0.82179 0.0
H1426 H 0.70873 0.03432 1.01191 0.0
H1427 H 0.69118 0.94838 0.85648 0.0
H1428 H 0.72815 0.01473 0.89138 0.0
H1429 H 0.71389 0.95828 0.97889 0.0
C1430 C 0.70756 0.98099 1.02558 0.0
C1431 C 0.70482 1.00247 1.03487 0.0
C1432 C 0.72049 0.99996 0.88347 0.0
C1433 C 0.71629 0.99052 0.95664 0.0
C1434 C 0.71375 0.99678 0.84367 0.0
C1435 C 0.70213 0.97861 0.83353 0.0
C1436 C 0.71549 0.98491 0.91323 0.0
C1437 C 0.69936 0.96299 0.86334 0.0
C1438 C 0.71333 0.97495 0.98645 0.0
C1439 C 0.71018 0.01758 1.00549 0.0
N1440 N 0.70565 0.96667 0.90206 0.0
N1441 N 0.71528 0.01131 0.96735 0.0
H1442 H 0.21316 0.43922 0.05127 0.0
H1443 H 0.24921 0.45715 0.27688 0.0
H1444 H 0.27542 0.45844 0.0894 0.0
H1445 H 0.1898 0.42869 0.24219 0.0
H1446 H 0.25333 0.47038 0.20833 0.0
H1447 H 0.19976 0.44764 0.11896 0.0
C1448 C 0.22388 0.44587 0.07351 0.0
C1449 C 0.24553 0.44772 0.06519 0.0
C1450 C 0.23919 0.46156 0.21586 0.0
C1451 C 0.23041 0.45706 0.14253 0.0
C1452 C 0.2367 0.45407 0.25526 0.0
C1453 C 0.21946 0.44108 0.26518 0.0
C1454 C 0.22459 0.45568 0.18589 0.0
C1455 C 0.20387 0.43777 0.23547 0.0
C1456 C 0.21624 0.45058 0.11218 0.0
C1457 C 0.25872 0.45639 0.095 0.0
N1458 N 0.20704 0.44459 0.19686 0.0
N1459 N 0.25103 0.46038 0.13262 0.0
H1460 H 0.8268 0.94862 0.30287 0.0
H1461 H 0.80076 0.99476 0.51638 0.0
H1462 H 0.79597 0.00846 0.32402 0.0
H1463 H 0.83006 0.93396 0.49678 0.0
H1464 H 0.78826 0.9944 0.44677 0.0
H1465 H 0.81772 0.93772 0.37185 0.0
C1466 C 0.8177 0.95926 0.3218 0.0
C1467 C 0.8127 0.9797 0.30829 0.0
C1468 C 0.79709 0.98091 0.45783 0.0
C1469 C 0.80255 0.96754 0.38719 0.0
C1470 C 0.80418 0.98104 0.49785 0.0
C1471 C 0.8172 0.96468 0.51216 0.0
C1472 C 0.80345 0.96456 0.4317 0.0
C1473 C 0.82092 0.94735 0.48649 0.0
C1474 C 0.81247 0.95304 0.36111 0.0
C1475 C 0.80041 0.99267 0.33346 0.0
N1476 N 0.81454 0.94797 0.44719 0.0
N1477 N 0.79622 0.98658 0.37211 0.0
H1478 H 0.24336 0.54226 0.57639 0.0
H1479 H 0.32179 0.57604 0.74989 0.0
H1480 H 0.30176 0.57609 0.5577 0.0
H1481 H 0.25918 0.55092 0.76849 0.0
H1482 H 0.32043 0.56429 0.67951 0.0
H1483 H 0.25505 0.53307 0.64478 0.0
C1484 C 0.25894 0.5472 0.58623 0.0
C1485 C 0.27138 0.5605 0.56195 0.0
C1486 C 0.30716 0.56096 0.69925 0.0
C1487 C 0.28461 0.55044 0.64022 0.0
C1488 C 0.3079 0.56778 0.73943 0.0
C1489 C 0.29035 0.56513 0.76493 0.0
C1490 C 0.28863 0.55155 0.68437 0.0
C1491 C 0.27305 0.55358 0.75003 0.0
C1492 C 0.26556 0.54205 0.62537 0.0
C1493 C 0.29144 0.56636 0.57609 0.0
N1494 N 0.27245 0.54762 0.71049 0.0
N1495 N 0.29726 0.56168 0.61468 0.0
H1496 H 0.29439 0.98658 0.53897 0.0
H1497 H 0.29696 0.02425 0.30969 0.0
H1498 H 0.31291 0.04887 0.49845 0.0
H1499 H 0.30612 0.95988 0.34965 0.0
H1500 H 0.28661 0.03397 0.37865 0.0
H1501 H 0.2828 0.97832 0.4701 0.0
C1502 C 0.29539 0.99879 0.51601 0.0
C1503 C 0.30495 0.01837 0.52439 0.0
C1504 C 0.29026 0.0176 0.37193 0.0
C1505 C 0.29183 0.00889 0.44571 0.0
C1506 C 0.29606 0.01199 0.33259 0.0
C1507 C 0.3028 0.9913 0.32423 0.0
C1508 C 0.29116 1.00238 0.40284 0.0
C1509 C 0.30146 0.97611 0.35512 0.0
C1510 C 0.28884 0.99399 0.47669 0.0
C1511 C 0.30604 0.03343 0.49317 0.0
N1512 N 0.29611 0.98202 0.39332 0.0
N1513 N 0.29981 0.02828 0.45504 0.0
H1514 H 0.77788 0.54729 0.09442 0.0
H1515 H 0.68806 0.5735 0.24928 0.0
H1516 H 0.71626 0.57013 0.06085 0.0
H1517 H 0.75059 0.55195 0.28128 0.0
H1518 H 0.69386 0.56114 0.18013 0.0
H1519 H 0.7641 0.53728 0.16091 0.0
C1520 C 0.76136 0.5498 0.10089 0.0
C1521 C 0.74833 0.5601 0.07289 0.0
C1522 C 0.70613 0.55869 0.20256 0.0
C1523 C 0.73244 0.54913 0.14878 0.0
C1524 C 0.70285 0.56587 0.24209 0.0
C1525 C 0.71912 0.56455 0.27097 0.0
C1526 C 0.72586 0.55025 0.19183 0.0
C1527 C 0.73762 0.55366 0.26016 0.0
C1528 C 0.75341 0.54402 0.13874 0.0
C1529 C 0.72685 0.56245 0.08204 0.0
N1530 N 0.74066 0.54738 0.22126 0.0
N1531 N 0.71966 0.55752 0.11968 0.0
H1532 H 0.21168 0.98356 1.01233 0.0
H1533 H 0.21292 0.02266 0.82307 0.0
H1534 H 0.19271 0.04535 0.05411 0.0
H1535 H 0.17245 0.07078 0.87405 0.0
H1536 H 0.22779 0.01644 0.8899 0.0
H1537 H 0.21881 0.99836 0.94567 0.0
C1538 C 0.20964 1.0004 1.00767 0.0
C1539 C 0.2012 0.01315 1.03843 0.0
C1540 C 0.21568 0.02837 0.88659 0.0
C1541 C 0.20944 0.03047 0.96214 0.0
C1542 C 0.20741 0.03226 0.84811 0.0
C1543 C 0.19084 0.04682 0.843 0.0
C1544 C 0.20683 0.03861 0.92035 0.0
C1545 C 0.18456 0.05879 0.87677 0.0
C1546 C 0.21392 0.009 0.96958 0.0
C1547 C 0.19908 0.03492 1.03111 0.0
N1548 N 0.19223 0.05409 0.91418 0.0
N1549 N 0.20264 0.04279 0.9934 0.0
H1550 H 0.71199 0.44727 0.60439 0.0
H1551 H 0.80613 0.43765 0.74683 0.0
H1552 H 0.77569 0.45547 0.56067 0.0
H1553 H 0.74476 0.45688 0.79007 0.0
H1554 H 0.79664 0.45013 0.67911 0.0
H1555 H 0.72373 0.45708 0.6722 0.0
C1556 C 0.72834 0.45172 0.60886 0.0
C1557 C 0.74289 0.45035 0.57694 0.0
C1558 C 0.78549 0.45227 0.70368 0.0
C1559 C 0.75665 0.46086 0.65473 0.0
C1560 C 0.79089 0.44508 0.74227 0.0
C1561 C 0.77599 0.44574 0.77369 0.0
C1562 C 0.76498 0.4599 0.69656 0.0
C1563 C 0.75664 0.45588 0.76652 0.0
C1564 C 0.73506 0.45736 0.6476 0.0
C1565 C 0.76391 0.45628 0.58442 0.0
N1566 N 0.75145 0.46206 0.72838 0.0
N1567 N 0.7703 0.46072 0.62282 0.0
H1568 H 0.17729 0.39892 0.40474 0.0
H1569 H 0.10558 0.37751 0.20575 0.0
H1570 H 0.13973 0.34355 0.37963 0.0
H1571 H 0.14063 0.43558 0.2158 0.0
H1572 H 0.12031 0.36568 0.2694 0.0
H1573 H 0.1664 0.41359 0.33775 0.0
C1574 C 0.16697 0.38974 0.38537 0.0
C1575 C 0.15954 0.36979 0.3985 0.0
C1576 C 0.12499 0.38109 0.25819 0.0
C1577 C 0.14696 0.38654 0.3215 0.0
C1578 C 0.11652 0.38792 0.22126 0.0
C1579 C 0.12151 0.40785 0.20486 0.0
C1580 C 0.13886 0.3941 0.28037 0.0
C1581 C 0.13604 0.42027 0.22713 0.0
C1582 C 0.16068 0.39819 0.34705 0.0
C1583 C 0.14596 0.35895 0.37172 0.0
N1584 N 0.14407 0.41331 0.26377 0.0
N1585 N 0.1403 0.36734 0.33526 0.0
H1586 H 0.85563 0.92522 0.65731 0.0
H1587 H 0.88261 0.86485 0.44704 0.0
H1588 H 0.91467 0.89559 0.62573 0.0
H1589 H 0.81991 0.8879 0.46926 0.0
H1590 H 0.89411 0.87965 0.51127 0.0
H1591 H 0.84154 0.91487 0.5896 0.0
C1592 C 0.8657 0.91676 0.63633 0.0
C1593 C 0.88649 0.91132 0.64785 0.0
C1594 C 0.87776 0.88169 0.50253 0.0
C1595 C 0.87047 0.89951 0.56996 0.0
C1596 C 0.87114 0.87326 0.46533 0.0
C1597 C 0.85007 0.87495 0.45226 0.0
C1598 C 0.86329 0.89197 0.52828 0.0
C1599 C 0.83619 0.88616 0.47791 0.0
C1600 C 0.8576 0.91076 0.59763 0.0
C1601 C 0.89857 0.90015 0.61902 0.0
N1602 N 0.84291 0.89401 0.5148 0.0
N1603 N 0.8905 0.8948 0.58211 0.0
H1604 H 0.35943 0.66414 0.87748 0.0
H1605 H 0.36913 0.56504 0.72431 0.0
H1606 H 0.33292 0.60369 0.91019 0.0
H1607 H 0.39215 0.62789 0.70233 0.0
H1608 H 0.35444 0.57724 0.79025 0.0
H1609 H 0.36949 0.65005 0.81213 0.0
C1610 C 0.35564 0.64777 0.87106 0.0
C1611 C 0.34521 0.63524 0.90019 0.0
C1612 C 0.36242 0.58839 0.77061 0.0
C1613 C 0.35736 0.61842 0.82331 0.0
C1614 C 0.37073 0.58139 0.73282 0.0
C1615 C 0.38196 0.59531 0.70729 0.0
C1616 C 0.36493 0.60966 0.78275 0.0
C1617 C 0.38368 0.61642 0.72051 0.0
C1618 C 0.36147 0.63965 0.8332 0.0
C1619 C 0.34082 0.6141 0.889 0.0
N1620 N 0.37539 0.6228 0.75672 0.0
N1621 N 0.34704 0.60632 0.8517 0.0
H1622 H 0.67002 0.10138 0.93833 0.0
H1623 H 0.59667 0.11508 0.13498 0.0
H1624 H 0.64259 0.16025 0.97797 0.0
H1625 H 0.64423 0.06652 0.13529 0.0
H1626 H 0.61078 0.12856 0.07154 0.0
H1627 H 0.65828 0.08493 1.00319 0.0
C1628 C 0.66173 0.1109 0.96052 0.0
C1629 C 0.65747 0.13238 0.95233 0.0
C1630 C 0.61826 0.1149 0.08521 0.0
C1631 C 0.64389 0.11362 1.02658 0.0
C1632 C 0.61018 0.10712 0.12183 0.0
C1633 C 0.61902 0.08932 0.14106 0.0
C1634 C 0.6354 0.10485 0.06623 0.0
C1635 C 0.63661 0.07998 0.12174 0.0
C1636 C 0.655 0.10148 0.99755 0.0
C1637 C 0.64638 0.14371 0.98239 0.0
N1638 N 0.6441 0.08767 0.08532 0.0
N1639 N 0.64009 0.1343 1.01756 0.0
H1640 H 0.10532 0.6237 0.65143 0.0
H1641 H 0.17092 0.60538 0.44579 0.0
H1642 H 0.14085 0.56636 0.63599 0.0
H1643 H 0.15337 0.66633 0.49372 0.0
H1644 H 0.15892 0.58896 0.51027 0.0
H1645 H 0.12108 0.63777 0.58969 0.0
C1646 C 0.11664 0.61401 0.63524 0.0
C1647 C 0.12172 0.59368 0.64961 0.0
C1648 C 0.15794 0.60596 0.50663 0.0
C1649 C 0.13984 0.60982 0.57674 0.0
C1650 C 0.16498 0.61539 0.46984 0.0
C1651 C 0.16364 0.63747 0.464 0.0
C1652 C 0.14902 0.61861 0.53759 0.0
C1653 C 0.15487 0.64932 0.49614 0.0
C1654 C 0.12565 0.6221 0.59962 0.0
C1655 C 0.13648 0.58204 0.62655 0.0
N1656 N 0.14794 0.63985 0.53083 0.0
N1657 N 0.14484 0.59011 0.59117 0.0
H1658 H 0.64903 0.92979 0.70942 0.0
H1659 H 0.62263 0.86821 0.91858 0.0
H1660 H 0.58885 0.90344 0.74351 0.0
H1661 H 0.68574 0.88995 0.89458 0.0
H1662 H 0.61081 0.88396 0.85544 0.0
H1663 H 0.66357 0.91811 0.77578 0.0
C1664 C 0.6388 0.92172 0.73066 0.0
C1665 C 0.61751 0.91776 0.72029 0.0
C1666 C 0.6273 0.88555 0.86361 0.0
C1667 C 0.63417 0.90413 0.7967 0.0
C1668 C 0.63411 0.87656 0.90021 0.0
C1669 C 0.65535 0.87762 0.91259 0.0
C1670 C 0.64169 0.89582 0.83772 0.0
C1671 C 0.66926 0.88876 0.88674 0.0
C1672 C 0.64717 0.91496 0.76864 0.0
C1673 C 0.60531 0.90692 0.74938 0.0
N1674 N 0.66228 0.89725 0.8505 0.0
N1675 N 0.6137 0.90065 0.78557 0.0
H1676 H 0.40364 0.38179 0.14563 0.0
H1677 H 0.33335 0.40038 0.94647 0.0
H1678 H 0.36245 0.43571 0.14018 0.0
H1679 H 0.35552 0.33958 0.98755 0.0
H1680 H 0.34488 0.41584 1.01202 0.0
H1681 H 0.38796 0.36833 0.08335 0.0
C1682 C 0.39113 0.39088 0.13152 0.0
C1683 C 0.38448 0.41011 0.1488 0.0
C1684 C 0.34697 0.39907 1.00665 0.0
C1685 C 0.36637 0.39468 0.07533 0.0
C1686 C 0.34013 0.39014 0.96924 0.0
C1687 C 0.34292 0.36839 0.96111 0.0
C1688 C 0.35717 0.38629 1.03588 0.0
C1689 C 0.35289 0.35636 0.99169 0.0
C1690 C 0.38215 0.38312 0.09559 0.0
C1691 C 0.36817 0.42096 0.12833 0.0
N1692 N 0.35962 0.36538 1.02698 0.0
N1693 N 0.35984 0.41328 0.09259 0.0
H1694 H 0.83645 0.10521 0.41504 0.0
H1695 H 0.88997 0.12497 0.19525 0.0
H1696 H 0.85128 0.16624 0.3642 0.0
H1697 H 0.87348 0.06252 0.23639 0.0
H1698 H 0.87388 0.13972 0.25638 0.0
H1699 H 0.84787 0.08862 0.35043 0.0
C1700 C 0.84173 0.11518 0.39034 0.0
C1701 C 0.84255 0.13731 0.39546 0.0
C1702 C 0.87338 0.12276 0.25192 0.0
C1703 C 0.85618 0.11832 0.32128 0.0
C1704 C 0.88248 0.11428 0.21654 0.0
C1705 C 0.88265 0.09237 0.20915 0.0
C1706 C 0.86456 0.10933 0.28156 0.0
C1707 C 0.87313 0.07946 0.2391 0.0
C1708 C 0.84844 0.10566 0.35343 0.0
C1709 C 0.85026 0.14918 0.36232 0.0
N1710 N 0.86467 0.08806 0.27383 0.0
N1711 N 0.85666 0.13965 0.32726 0.0
H1712 H 0.91475 0.60778 0.12476 0.0
H1713 H 0.8144 0.6208 0.9758 0.0
H1714 H 0.85355 0.58536 0.16232 0.0
H1715 H 0.87896 0.63459 0.9456 0.0
H1716 H 0.82636 0.60719 1.04285 0.0
H1717 H 0.90042 0.61679 0.05892 0.0
C1718 C 0.89818 0.60461 0.11926 0.0
C1719 C 0.88554 0.59554 0.14979 0.0
C1720 C 0.83788 0.61304 1.02134 0.0
C1721 C 0.86841 0.60656 0.0725 0.0
C1722 C 0.83103 0.62066 0.98286 0.0
C1723 C 0.84559 0.62894 0.95462 0.0
C1724 C 0.85958 0.61337 1.03149 0.0
C1725 C 0.86702 0.6284 0.96591 0.0
C1726 C 0.88992 0.60983 0.08115 0.0
C1727 C 0.86409 0.59203 0.1399 0.0
N1728 N 0.87321 0.62092 1.00287 0.0
N1729 N 0.85618 0.59768 0.10237 0.0
H1730 H 0.09114 0.1133 0.72949 0.0
H1731 H 0.19283 0.12043 0.8748 0.0
H1732 H 0.14969 0.08323 0.69621 0.0
H1733 H 0.13137 0.14468 0.90398 0.0
H1734 H 0.17835 0.1046 0.8125 0.0
H1735 H 0.10624 0.12301 0.79449 0.0
C1736 C 0.10728 0.10865 0.73572 0.0
C1737 C 0.11902 0.09733 0.70664 0.0
C1738 C 0.16793 0.11304 0.8329 0.0
C1739 C 0.13691 0.10889 0.78282 0.0
C1740 C 0.17619 0.12174 0.86924 0.0
C1741 C 0.16334 0.1334 0.89607 0.0
C1742 C 0.14654 0.11618 0.82273 0.0
C1743 C 0.14199 0.13562 0.88498 0.0
C1744 C 0.11595 0.11423 0.77333 0.0
C1745 C 0.13987 0.09178 0.71746 0.0
N1746 N 0.13441 0.12726 0.84961 0.0
N1747 N 0.14818 0.09774 0.75441 0.0
H1748 H 0.67981 0.39959 0.4592 0.0
H1749 H 0.60265 0.37835 0.64992 0.0
H1750 H 0.64295 0.3434 0.48078 0.0
H1751 H 0.64286 0.43324 0.64931 0.0
H1752 H 0.61803 0.36692 0.58653 0.0
H1753 H 0.66762 0.41371 0.52552 0.0
C1754 C 0.66936 0.39012 0.47762 0.0
C1755 C 0.66267 0.37004 0.46377 0.0
C1756 C 0.6237 0.38153 0.5998 0.0
C1757 C 0.64826 0.38635 0.53993 0.0
C1758 C 0.61484 0.38816 0.63655 0.0
C1759 C 0.62112 0.40709 0.65552 0.0
C1760 C 0.63928 0.39376 0.58045 0.0
C1761 C 0.6372 0.41876 0.6359 0.0
C1762 C 0.6623 0.39827 0.5156 0.0
C1763 C 0.64871 0.35889 0.48935 0.0
N1764 N 0.64562 0.41202 0.59944 0.0
N1765 N 0.64213 0.3671 0.52542 0.0
H1766 H 0.32271 0.89863 0.39894 0.0
H1767 H 0.41195 0.89141 0.22568 0.0
H1768 H 0.36664 0.84727 0.38365 0.0
H1769 H 0.35979 0.93448 0.2119 0.0
H1770 H 0.39609 0.87778 0.2873 0.0
H1771 H 0.3361 0.91453 0.33531 0.0
C1772 C 0.335 0.8906 0.38246 0.0
C1773 C 0.34325 0.87132 0.39712 0.0
C1774 C 0.38795 0.89024 0.27108 0.0
C1775 C 0.35913 0.88975 0.3242 0.0
C1776 C 0.39706 0.89813 0.23547 0.0
C1777 C 0.38744 0.91442 0.21301 0.0
C1778 C 0.36881 0.89858 0.28558 0.0
C1779 C 0.36805 0.9222 0.22805 0.0
C1780 C 0.34272 0.89974 0.34597 0.0
C1781 C 0.35958 0.86206 0.37415 0.0
N1782 N 0.35944 0.91434 0.26338 0.0
N1783 N 0.36687 0.87127 0.33949 0.0
H1784 H 0.85346 0.42189 0.69918 0.0
H1785 H 0.87937 0.3649 0.91291 0.0
H1786 H 0.91524 0.40483 0.7434 0.0
H1787 H 0.81672 0.38732 0.88821 0.0
H1788 H 0.89157 0.38051 0.84983 0.0
H1789 H 0.8384 0.41062 0.76548 0.0
C1790 C 0.86392 0.41614 0.7227 0.0
C1791 C 0.88583 0.41459 0.71519 0.0
C1792 C 0.87508 0.38231 0.85784 0.0
C1793 C 0.86858 0.40122 0.79116 0.0
C1794 C 0.86807 0.37338 0.89435 0.0
C1795 C 0.84683 0.37475 0.90643 0.0
C1796 C 0.86085 0.39272 0.83179 0.0
C1797 C 0.83314 0.38597 0.8804 0.0
C1798 C 0.85527 0.40956 0.76058 0.0
C1799 C 0.89832 0.4064 0.74696 0.0
N1800 N 0.84025 0.39433 0.84423 0.0
N1801 N 0.88962 0.40014 0.7828 0.0
H1802 H 0.3247 0.10765 0.45212 0.0
H1803 H 0.41581 0.10892 0.62311 0.0
H1804 H 0.37444 0.15379 0.46349 0.0
H1805 H 0.35915 0.07274 0.64372 0.0
H1806 H 0.40119 0.12179 0.55994 0.0
H1807 H 0.33696 0.09119 0.51654 0.0
C1808 C 0.33799 0.11446 0.46797 0.0
C1809 C 0.34824 0.13246 0.45197 0.0
C1810 C 0.39177 0.11101 0.57795 0.0
C1811 C 0.3626 0.1135 0.52577 0.0
C1812 C 0.40018 0.10357 0.61452 0.0
C1813 C 0.38892 0.08947 0.63952 0.0
C1814 C 0.37162 0.10455 0.56498 0.0
C1815 C 0.36868 0.0833 0.62567 0.0
C1816 C 0.34501 0.10502 0.50487 0.0
C1817 C 0.36576 0.1401 0.474 0.0
N1818 N 0.36071 0.0908 0.58943 0.0
N1819 N 0.37221 0.13071 0.50907 0.0
H1820 H 0.64258 0.56727 0.22198 0.0
H1821 H 0.63291 0.65794 0.39303 0.0
H1822 H 0.59796 0.61852 0.22281 0.0
H1823 H 0.67583 0.6058 0.41034 0.0
H1824 H 0.62244 0.64343 0.32842 0.0
H1825 H 0.65684 0.58014 0.2876 0.0
C1826 C 0.63588 0.58123 0.23543 0.0
C1827 C 0.61877 0.59153 0.21638 0.0
C1828 C 0.63417 0.63494 0.34593 0.0
C1829 C 0.63552 0.60689 0.29137 0.0
C1830 C 0.64025 0.6433 0.38341 0.0
C1831 C 0.65543 0.63325 0.40799 0.0
C1832 C 0.64301 0.61597 0.33169 0.0
C1833 C 0.66421 0.61431 0.39269 0.0
C1834 C 0.64411 0.58865 0.273 0.0
C1835 C 0.61102 0.60979 0.23581 0.0
N1836 N 0.65785 0.60625 0.35568 0.0
N1837 N 0.61935 0.61673 0.27157 0.0
H1838 H 0.18932 0.8929 0.96466 0.0
H1839 H 0.09085 0.90562 0.11773 0.0
H1840 H 0.12983 0.86049 0.95556 0.0
H1841 H 0.15288 0.92581 0.15535 0.0
H1842 H 0.1053 0.89376 0.05376 0.0
H1843 H 0.17702 0.90947 1.02895 0.0
C1844 C 0.17377 0.88931 0.9759 0.0
C1845 C 0.16082 0.87503 0.9544 0.0
C1846 C 0.11593 0.90084 0.07565 0.0
C1847 C 0.14645 0.894 1.02804 0.0
C1848 C 0.10762 0.90771 0.11269 0.0
C1849 C 0.12045 0.91704 0.1427 0.0
C1850 C 0.1376 0.90293 0.06739 0.0
C1851 C 0.14213 0.91922 0.13323 0.0
C1852 C 0.16675 0.89869 1.01276 0.0
C1853 C 0.1406 0.87122 0.97065 0.0
N1854 N 0.15001 0.91218 0.09657 0.0
N1855 N 0.13419 0.88051 1.0059 0.0
H1856 H 0.93913 0.48649 0.18877 0.0
H1857 H 0.06118 0.51811 0.16886 0.0
H1858 H 0.96708 0.5407 0.24714 0.0
H1859 H 0.03423 0.46239 0.11414 0.0
H1860 H 0.02633 0.52755 0.19506 0.0
H1861 H 0.97401 0.47644 0.16316 0.0
C1862 C 0.95274 0.49589 0.19727 0.0
C1863 C 0.95033 0.5145 0.21992 0.0
C1864 C 0.02797 0.51334 0.177 0.0
C1865 C 0.98999 0.50367 0.1895 0.0
C1866 C 0.04779 0.50816 0.16142 0.0
C1867 C 0.05052 0.48933 0.13961 0.0
C1868 C 0.01083 0.49956 0.17067 0.0
C1869 C 0.03275 0.47684 0.13136 0.0
C1870 C 0.97258 0.49039 0.18204 0.0
C1871 C 0.96836 0.52635 0.22945 0.0
N1872 N 0.01366 0.48205 0.14723 0.0
N1873 N 0.98741 0.52089 0.21381 0.0
H1874 H 0.80005 0.78465 0.38156 0.0
H1875 H 0.70411 0.72094 0.48028 0.0
H1876 H 0.73832 0.81152 0.40096 0.0
H1877 H 0.76601 0.69429 0.46176 0.0
H1878 H 0.71662 0.75459 0.4534 0.0
H1879 H 0.7875 0.75101 0.4085 0.0
C1880 C 0.78371 0.7833 0.39067 0.0
C1881 C 0.77025 0.80088 0.38926 0.0
C1882 C 0.72755 0.74147 0.45559 0.0
C1883 C 0.75586 0.76263 0.42115 0.0
C1884 C 0.72047 0.72233 0.47141 0.0
C1885 C 0.73398 0.70479 0.47301 0.0
C1886 C 0.74833 0.74307 0.44118 0.0
C1887 C 0.75506 0.70743 0.46106 0.0
C1888 C 0.77661 0.76417 0.4065 0.0
C1889 C 0.74921 0.79833 0.40146 0.0
N1890 N 0.76154 0.72618 0.44518 0.0
N1891 N 0.7427 0.77958 0.41736 0.0
H1892 H 0.53609 0.46376 0.75293 0.0
H1893 H 0.46818 0.53985 0.60951 0.0
H1894 H 0.5625 0.5167 0.6881 0.0
H1895 H 0.44215 0.48634 0.67312 0.0
H1896 H 0.50315 0.53109 0.6362 0.0
H1897 H 0.50118 0.47268 0.72626 0.0
C1898 C 0.53437 0.47758 0.73385 0.0
C1899 C 0.55206 0.48947 0.72255 0.0
C1900 C 0.48987 0.52107 0.64393 0.0
C1901 C 0.51247 0.49949 0.69097 0.0
C1902 C 0.47001 0.52596 0.62834 0.0
C1903 C 0.4524 0.51384 0.63928 0.0
C1904 C 0.49203 0.50399 0.67086 0.0
C1905 C 0.45543 0.49594 0.66364 0.0
C1906 C 0.51453 0.48254 0.71824 0.0
C1907 C 0.54915 0.50727 0.69784 0.0
N1908 N 0.47487 0.49169 0.67906 0.0
N1909 N 0.52972 0.51161 0.68242 0.0
H1910 H 0.76781 0.19152 0.91131 0.0
H1911 H 0.73548 0.31276 0.94513 0.0
H1912 H 0.70976 0.21892 0.86794 0.0
H1913 H 0.79365 0.28559 0.98846 0.0
H1914 H 0.72508 0.27808 0.91894 0.0
H1915 H 0.77839 0.22622 0.93738 0.0
C1916 C 0.75757 0.20498 0.90624 0.0
C1917 C 0.73783 0.20244 0.88765 0.0
C1918 C 0.74006 0.27964 0.93453 0.0
C1919 C 0.74939 0.24187 0.91854 0.0
C1920 C 0.74583 0.29936 0.95008 0.0
C1921 C 0.76557 0.302 0.96863 0.0
C1922 C 0.75417 0.26254 0.93762 0.0
C1923 C 0.77847 0.28421 0.97382 0.0
C1924 C 0.76342 0.2247 0.92172 0.0
C1925 C 0.72501 0.22028 0.88239 0.0
N1926 N 0.77267 0.26525 0.95802 0.0
N1927 N 0.73089 0.23922 0.89814 0.0
H1928 H 0.95727 0.48106 0.6029 0.0
H1929 H 0.04573 0.52467 0.75607 0.0
H1930 H 0.94274 0.50897 0.71906 0.0
H1931 H 0.05872 0.50017 0.63641 0.0
H1932 H 0.00786 0.51866 0.74421 0.0
H1933 H 0.99475 0.488 0.61504 0.0
C1934 C 0.96202 0.48876 0.63083 0.0
C1935 C 0.94705 0.49435 0.66011 0.0
C1936 C 0.01905 0.51461 0.7206 0.0
C1937 C 0.98971 0.50232 0.67441 0.0
C1938 C 0.04058 0.51806 0.72739 0.0
C1939 C 0.05523 0.5131 0.69705 0.0
C1940 C 0.01232 0.50607 0.6833 0.0
C1941 C 0.04791 0.50421 0.66066 0.0
C1942 C 0.98337 0.49272 0.63783 0.0
C1943 C 0.95388 0.50448 0.69567 0.0
N1944 N 0.02698 0.50106 0.65476 0.0
N1945 N 0.97477 0.50804 0.70197 0.0
H1946 H 0.73565 0.69528 0.89167 0.0
H1947 H 0.76626 0.81101 0.97192 0.0
H1948 H 0.79917 0.71993 0.89191 0.0
H1949 H 0.70308 0.78554 0.9747 0.0
H1950 H 0.77889 0.77744 0.94399 0.0
H1951 H 0.72311 0.72898 0.91907 0.0
C1952 C 0.74689 0.70795 0.8966 0.0
C1953 C 0.76851 0.70477 0.8898 0.0
C1954 C 0.76229 0.77913 0.95109 0.0
C1955 C 0.75443 0.74309 0.92215 0.0
C1956 C 0.75513 0.79819 0.96755 0.0
C1957 C 0.73357 0.80107 0.97537 0.0
C1958 C 0.74773 0.76293 0.94239 0.0
C1959 C 0.71981 0.78399 0.96889 0.0
C1960 C 0.73979 0.72709 0.91275 0.0
C1961 C 0.7824 0.72168 0.89688 0.0
N1962 N 0.72708 0.76573 0.95238 0.0
N1963 N 0.77516 0.74004 0.91308 0.0
H1964 H 0.45737 0.48136 0.25917 0.0
H1965 H 0.54641 0.52101 0.10344 0.0
H1966 H 0.44411 0.5043 0.13852 0.0
H1967 H 0.5598 0.49716 0.2234 0.0
H1968 H 0.50869 0.51456 0.11531 0.0
H1969 H 0.49513 0.48758 0.24715 0.0
C1970 C 0.46246 0.48773 0.23025 0.0
C1971 C 0.44778 0.49217 0.19969 0.0
C1972 C 0.51991 0.51075 0.13901 0.0
C1973 C 0.49062 0.49917 0.18555 0.0
C1974 C 0.54136 0.51439 0.13217 0.0
C1975 C 0.55606 0.50979 0.16261 0.0
C1976 C 0.51325 0.50253 0.17659 0.0
C1977 C 0.5489 0.50093 0.19912 0.0
C1978 C 0.48393 0.49123 0.22332 0.0
C1979 C 0.45499 0.50068 0.16291 0.0
N1980 N 0.52797 0.49772 0.20522 0.0
N1981 N 0.47592 0.50379 0.15676 0.0
H1982 H 0.7747 0.20866 0.50572 0.0
H1983 H 0.73029 0.29644 0.35175 0.0
H1984 H 0.74737 0.19346 0.38936 0.0
H1985 H 0.75472 0.30995 0.47121 0.0
H1986 H 0.73671 0.25856 0.36381 0.0
H1987 H 0.76728 0.24608 0.49327 0.0
C1988 C 0.76702 0.21325 0.47767 0.0
C1989 C 0.76176 0.1981 0.44841 0.0
C1990 C 0.74064 0.26987 0.38734 0.0
C1991 C 0.75324 0.24071 0.43376 0.0
C1992 C 0.73696 0.29139 0.38043 0.0
C1993 C 0.74177 0.30619 0.41065 0.0
C1994 C 0.74926 0.2633 0.42467 0.0
C1995 C 0.75077 0.29903 0.44705 0.0
C1996 C 0.7628 0.23457 0.47048 0.0
C1997 C 0.75163 0.20473 0.41272 0.0
N1998 N 0.75415 0.27811 0.45308 0.0
N1999 N 0.74781 0.22559 0.40624 0.0
H2000 H 0.27521 0.29658 0.84988 0.0
H2001 H 0.23242 0.20838 1.00463 0.0
H2002 H 0.24932 0.3108 0.96785 0.0
H2003 H 0.25874 0.19421 0.88702 0.0
H2004 H 0.23888 0.24612 0.99219 0.0
H2005 H 0.26892 0.25887 0.86249 0.0
C2006 C 0.26813 0.29172 0.87833 0.0
C2007 C 0.26297 0.30668 0.90803 0.0
C2008 C 0.24324 0.23473 0.96912 0.0
C2009 C 0.25569 0.26382 0.92274 0.0
C2010 C 0.23958 0.21326 0.97628 0.0
C2011 C 0.24485 0.19832 0.94665 0.0
C2012 C 0.25221 0.24117 0.93206 0.0
C2013 C 0.25443 0.20529 0.91067 0.0
C2014 C 0.26456 0.27025 0.88558 0.0
C2015 C 0.25353 0.29971 0.94415 0.0
N2016 N 0.25768 0.22623 0.90425 0.0
N2017 N 0.2503 0.27877 0.9506 0.0
H2018 H 0.25928 0.69229 0.47301 0.0
H2019 H 0.25099 0.8099 0.38586 0.0
H2020 H 0.2341 0.70782 0.35511 0.0
H2021 H 0.27452 0.79597 0.50581 0.0
H2022 H 0.24536 0.7724 0.3742 0.0
H2023 H 0.2666 0.72978 0.48488 0.0
C2024 C 0.25554 0.70362 0.44941 0.0
C2025 C 0.2459 0.69712 0.41314 0.0
C2026 C 0.25174 0.77743 0.40314 0.0
C2027 C 0.25403 0.7399 0.42664 0.0
C2028 C 0.25485 0.79889 0.40995 0.0
C2029 C 0.26342 0.80596 0.44679 0.0
C2030 C 0.25712 0.76284 0.43347 0.0
C2031 C 0.26819 0.79103 0.4768 0.0
C2032 C 0.25958 0.725 0.45633 0.0
C2033 C 0.24128 0.71233 0.38366 0.0
N2034 N 0.26502 0.77007 0.46945 0.0
N2035 N 0.24529 0.73307 0.39113 0.0
H2036 H 0.2376 0.19181 0.41396 0.0
H2037 H 0.2692 0.31378 0.43946 0.0
H2038 H 0.29374 0.21946 0.36256 0.0
H2039 H 0.21361 0.28588 0.49253 0.0
H2040 H 0.27928 0.27903 0.41316 0.0
H2041 H 0.22757 0.22658 0.4403 0.0
C2042 C 0.24749 0.20534 0.4072 0.0
C2043 C 0.26659 0.20287 0.38631 0.0
C2044 C 0.26499 0.28044 0.43097 0.0
C2045 C 0.25572 0.24238 0.41753 0.0
C2046 C 0.25945 0.3002 0.4466 0.0
C2047 C 0.24047 0.3026 0.46792 0.0
C2048 C 0.25139 0.2631 0.43673 0.0
C2049 C 0.22822 0.28461 0.47578 0.0
C2050 C 0.24198 0.22511 0.42285 0.0
C2051 C 0.27902 0.22079 0.37893 0.0
N2052 N 0.23374 0.26563 0.45981 0.0
N2053 N 0.2735 0.23978 0.39489 0.0
H2054 H 0.29067 0.71717 1.00252 0.0
H2055 H 0.21524 0.78681 0.86071 0.0
H2056 H 0.23807 0.69139 0.93598 0.0
H2057 H 0.2687 0.81204 0.92552 0.0
H2058 H 0.22357 0.75156 0.88683 0.0
H2059 H 0.2818 0.75243 0.97726 0.0
C2060 C 0.27694 0.7191 0.98334 0.0
C2061 C 0.26512 0.70148 0.97122 0.0
C2062 C 0.23364 0.76473 0.89503 0.0
C2063 C 0.25513 0.74151 0.94123 0.0
C2064 C 0.22897 0.78478 0.87984 0.0
C2065 C 0.24122 0.80226 0.89118 0.0
C2066 C 0.25066 0.76223 0.92194 0.0
C2067 C 0.25897 0.7989 0.91575 0.0
C2068 C 0.27199 0.73915 0.96855 0.0
C2069 C 0.24743 0.70466 0.94638 0.0
N2070 N 0.26304 0.77928 0.9307 0.0
N2071 N 0.2431 0.7243 0.93177 0.0
H2072 H 0.44546 0.99645 0.63191 0.0
H2073 H 0.56148 0.01041 0.72288 0.0
H2074 H 0.45793 0.01787 0.75393 0.0
H2075 H 0.54903 0.98742 0.60191 0.0
H2076 H 0.52365 0.01433 0.73402 0.0
H2077 H 0.48327 0.99255 0.62065 0.0
C2078 C 0.4562 1.00007 0.65655 0.0
C2079 C 0.44869 0.00775 0.69377 0.0
C2080 C 0.52914 0.00851 0.70496 0.0
C2081 C 0.49195 0.00359 0.68093 0.0
C2082 C 0.55074 0.00646 0.69843 0.0
C2083 C 0.55825 0.99832 0.66157 0.0
C2084 C 0.51499 1.0025 0.67428 0.0
C2085 C 0.54374 0.99342 0.63097 0.0
C2086 C 0.47779 0.99801 0.64997 0.0
C2087 C 0.46321 0.01223 0.72461 0.0
N2088 N 0.52271 0.99545 0.63809 0.0
N2089 N 0.48423 0.01022 0.71742 0.0
H2090 H 0.04874 0.98504 0.25363 0.0
H2091 H 0.95978 0.02666 0.09955 0.0
H2092 H 0.06211 0.00878 0.13363 0.0
H2093 H 0.94602 0.99682 0.21428 0.0
H2094 H 0.99757 0.02131 0.1122 0.0
H2095 H 0.01096 0.991 0.24136 0.0
C2096 C 0.04368 0.99152 0.22479 0.0
C2097 C 0.05841 0.99617 0.19444 0.0
C2098 C 0.98627 0.01586 0.13455 0.0
C2099 C 0.01552 1.00306 0.18011 0.0
C2100 C 0.96476 0.01891 0.12728 0.0
C2101 C 0.9499 0.01233 0.15607 0.0
C2102 C 0.99285 0.00615 0.17085 0.0
C2103 C 0.95703 1.00211 0.19128 0.0
C2104 C 0.02219 0.9949 0.21773 0.0
C2105 C 0.05121 0.00494 0.15785 0.0
N2106 N 0.97801 0.99944 0.19782 0.0
N2107 N 0.03026 0.008 0.1516 0.0
H2108 H 0.44564 0.0082 0.22338 0.0
H2109 H 0.56178 0.99561 0.13279 0.0
H2110 H 0.45847 0.98628 0.10184 0.0
H2111 H 0.54919 0.01712 0.2547 0.0
H2112 H 0.52403 0.99148 0.12144 0.0
H2113 H 0.48341 0.01236 0.23495 0.0
C2114 C 0.45645 0.00451 0.19891 0.0
C2115 C 0.44906 0.99665 0.16172 0.0
C2116 C 0.52946 0.99701 0.15076 0.0
C2117 C 0.49225 1.00114 0.17491 0.0
C2118 C 0.55102 0.99922 0.1574 0.0
C2119 C 0.55848 0.007 0.1946 0.0
C2120 C 0.51527 1.00249 0.18167 0.0
C2121 C 0.54394 0.01143 0.22538 0.0
C2122 C 0.47801 0.00672 0.20568 0.0
C2123 C 0.46366 0.99208 0.13113 0.0
N2124 N 0.52293 0.00924 0.21815 0.0
N2125 N 0.48465 0.99427 0.13848 0.0
H2126 H 0.94183 0.01979 0.68767 0.0
H2127 H 0.0641 0.98845 0.67295 0.0
H2128 H 0.96884 0.96547 0.74709 0.0
H2129 H 0.03656 0.04159 0.61053 0.0
H2130 H 0.02912 0.97895 0.69867 0.0
H2131 H 0.97687 0.02923 0.66214 0.0
C2132 C 0.95528 0.01023 0.69639 0.0
C2133 C 0.95257 0.99177 0.71933 0.0
C2134 C 0.03066 0.99257 0.67895 0.0
C2135 C 0.9924 1.0019 0.68902 0.0
C2136 C 0.05056 0.99775 0.66366 0.0
C2137 C 0.05311 0.01593 0.63985 0.0
C2138 C 0.01333 0.00573 0.67036 0.0
C2139 C 0.03517 0.02764 0.62927 0.0
C2140 C 0.9752 0.01537 0.68118 0.0
C2141 C 0.97038 0.9797 0.72915 0.0
N2142 N 0.01604 0.0225 0.64496 0.0
N2143 N 0.98955 0.98482 0.71359 0.0
H2144 H 0.9677 0.42602 0.96881 0.0
H2145 H 0.96893 0.45974 0.73426 0.0
H2146 H 0.02336 0.44648 0.90431 0.0
H2147 H 0.91101 0.44714 0.79874 0.0
H2148 H 0.98859 0.45541 0.79716 0.0
H2149 H 0.94645 0.43359 0.9082 0.0
C2150 C 0.97551 0.43207 0.94198 0.0
C2151 C 0.99749 0.43554 0.94194 0.0
C2152 C 0.97158 0.45368 0.79786 0.0
C2153 C 0.97307 0.44439 0.87221 0.0
C2154 C 0.96027 0.45614 0.76178 0.0
C2155 C 0.93821 0.4537 0.761 0.0
C2156 C 0.96093 0.44844 0.83387 0.0
C2157 C 0.92797 0.44924 0.79788 0.0
C2158 C 0.96329 0.43652 0.90741 0.0
C2159 C 0.00653 0.44373 0.90625 0.0
N2160 N 0.93942 0.44654 0.83274 0.0
N2161 N 0.99435 0.44773 0.87301 0.0
H2162 H 0.83395 0.71891 0.97577 0.0
H2163 H 0.82128 0.72396 0.21783 0.0
H2164 H 0.80644 0.66791 1.04509 0.0
H2165 H 0.84138 0.77644 0.14353 0.0
H2166 H 0.81711 0.70247 0.15632 0.0
H2167 H 0.83826 0.73918 1.03793 0.0
C2168 C 0.82888 0.71185 1.0041 0.0
C2169 C 0.81977 0.69157 1.00493 0.0
C2170 C 0.82238 0.7187 0.15351 0.0
C2171 C 0.82467 0.71504 0.07697 0.0
C2172 C 0.82488 0.73098 0.18866 0.0
C2173 C 0.83169 0.75214 0.18607 0.0
C2174 C 0.82687 0.72753 0.11532 0.0
C2175 C 0.83583 0.76036 0.14723 0.0
C2176 C 0.83129 0.72356 1.03973 0.0
C2177 C 0.81349 0.68348 1.04284 0.0
N2178 N 0.83343 0.74806 0.1136 0.0
N2179 N 0.81606 0.69522 0.07731 0.0
H2180 H 0.59523 0.55827 0.30215 0.0
H2181 H 0.48051 0.55626 0.40752 0.0
H2182 H 0.53676 0.54491 0.23993 0.0
H2183 H 0.53609 0.57872 0.47004 0.0
H2184 H 0.50203 0.54912 0.34782 0.0
H2185 H 0.57515 0.56267 0.36586 0.0
C2186 C 0.57827 0.55602 0.30194 0.0
C2187 C 0.56769 0.5513 0.26552 0.0
C2188 C 0.5096 0.5556 0.37456 0.0
C2189 C 0.54464 0.55634 0.33809 0.0
C2190 C 0.49723 0.55983 0.40877 0.0
C2191 C 0.50631 0.56837 0.4441 0.0
C2192 C 0.5314 0.55984 0.3752 0.0
C2193 C 0.52829 0.57203 0.44376 0.0
C2194 C 0.56679 0.55866 0.33823 0.0
C2195 C 0.54564 0.54874 0.26705 0.0
N2196 N 0.54003 0.56785 0.40991 0.0
N2197 N 0.53496 0.5513 0.30247 0.0
H2198 H 0.69009 0.22834 0.64627 0.0
H2199 H 0.69465 0.34473 0.54786 0.0
H2200 H 0.67546 0.28473 0.71455 0.0
H2201 H 0.70258 0.28649 0.48122 0.0
H2202 H 0.69001 0.3239 0.61052 0.0
H2203 H 0.69692 0.25015 0.58676 0.0
C2204 C 0.68819 0.24531 0.6488 0.0
C2205 C 0.68197 0.25458 0.68566 0.0
C2206 C 0.69284 0.31574 0.58214 0.0
C2207 C 0.69011 0.27994 0.61711 0.0
C2208 C 0.69559 0.32763 0.54643 0.0
C2209 C 0.69889 0.31737 0.50914 0.0
C2210 C 0.6936 0.29348 0.5805 0.0
C2211 C 0.69983 0.29515 0.50908 0.0
C2212 C 0.69223 0.25783 0.61472 0.0
C2213 C 0.68034 0.27681 0.68699 0.0
N2214 N 0.6972 0.28405 0.544 0.0
N2215 N 0.68429 0.2887 0.65325 0.0
H2216 H 0.97274 0.57607 0.13094 0.0
H2217 H 0.97297 0.55872 0.88961 0.0
H2218 H 0.918 0.55457 0.06452 0.0
H2219 H 0.02727 0.57909 0.95851 0.0
H2220 H 0.95244 0.55724 0.95253 0.0
H2221 H 0.99255 0.57755 0.06767 0.0
C2222 C 0.96479 0.57171 0.10304 0.0
C2223 C 0.94359 0.56512 0.10331 0.0
C2224 C 0.96886 0.56199 0.95389 0.0
C2225 C 0.96646 0.56674 1.03011 0.0
C2226 C 0.98061 0.56294 0.91788 0.0
C2227 C 1.00198 0.56908 0.91848 0.0
C2228 C 0.97845 0.56728 0.99101 0.0
C2229 C 0.01099 0.57401 0.95635 0.0
C2230 C 0.9762 0.57252 0.06678 0.0
C2231 C 0.93431 0.55966 0.06595 0.0
N2232 N 0.9992 0.57306 0.99088 0.0
N2233 N 0.94579 0.56058 1.03092 0.0
H2234 H 0.66009 0.71697 0.38681 0.0
H2235 H 0.69194 0.73383 0.15324 0.0
H2236 H 0.69977 0.67316 0.32142 0.0
H2237 H 0.6469 0.77259 0.21739 0.0
H2238 H 0.69599 0.71194 0.21425 0.0
H2239 H 0.65571 0.73758 0.32492 0.0
C2240 C 0.66785 0.71158 0.3594 0.0
C2241 C 0.68039 0.69324 0.3596 0.0
C2242 C 0.6852 0.72521 0.21493 0.0
C2243 C 0.67549 0.7171 0.28801 0.0
C2244 C 0.68298 0.73784 0.18015 0.0
C2245 C 0.669 0.75515 0.17993 0.0
C2246 C 0.67349 0.72995 0.25003 0.0
C2247 C 0.65764 0.75931 0.21572 0.0
C2248 C 0.66533 0.72343 0.32392 0.0
C2249 C 0.68995 0.68715 0.32285 0.0
N2250 N 0.66017 0.74689 0.24914 0.0
N2251 N 0.68739 0.6991 0.28866 0.0
H2252 H 0.53307 0.42792 0.63088 0.0
H2253 H 0.53345 0.4424 0.38903 0.0
H2254 H 0.58776 0.45021 0.56535 0.0
H2255 H 0.47813 0.42702 0.45967 0.0
H2256 H 0.55402 0.44461 0.45193 0.0
H2257 H 0.51353 0.42618 0.56746 0.0
C2258 C 0.54109 0.43237 0.60313 0.0
C2259 C 0.5622 0.43924 0.60374 0.0
C2260 C 0.53738 0.44077 0.45361 0.0
C2261 C 0.53958 0.43732 0.53022 0.0
C2262 C 0.52553 0.43963 0.41766 0.0
C2263 C 0.50391 0.43443 0.41871 0.0
C2264 C 0.52761 0.43664 0.49108 0.0
C2265 C 0.49476 0.4307 0.45695 0.0
C2266 C 0.52981 0.43144 0.56676 0.0
C2267 C 0.57153 0.44484 0.56649 0.0
N2268 N 0.50662 0.43184 0.49136 0.0
N2269 N 0.56017 0.44376 0.53128 0.0
H2270 H 0.80164 0.33871 0.81483 0.0
H2271 H 0.83982 0.23231 0.70349 0.0
H2272 H 0.8325 0.28687 0.87611 0.0
H2273 H 0.80549 0.28199 0.64244 0.0
H2274 H 0.83797 0.25258 0.76643 0.0
H2275 H 0.80408 0.31902 0.75091 0.0
C2276 C 0.80903 0.32326 0.81491 0.0
C2277 C 0.81684 0.31448 0.85114 0.0
C2278 C 0.83082 0.25908 0.73929 0.0
C2279 C 0.81961 0.29175 0.77782 0.0
C2280 C 0.83173 0.2474 0.70325 0.0
C2281 C 0.82275 0.25532 0.66729 0.0
C2282 C 0.82089 0.27896 0.73973 0.0
C2283 C 0.81289 0.27527 0.66909 0.0
C2284 C 0.81037 0.31198 0.77834 0.0
C2285 C 0.82624 0.29435 0.84912 0.0
N2286 N 0.81222 0.28635 0.70458 0.0
N2287 N 0.82731 0.28371 0.81325 0.0
H2288 H 0.03636 0.55593 0.6277 0.0
H2289 H 0.03656 0.56883 0.38558 0.0
H2290 H 0.09417 0.55625 0.55829 0.0
H2291 H 0.98125 0.5737 0.46155 0.0
H2292 H 0.05806 0.56268 0.44645 0.0
H2293 H 0.01635 0.56035 0.56562 0.0
C2294 C 0.04495 0.55698 0.59934 0.0
C2295 C 0.06713 0.55592 0.59852 0.0
C2296 C 0.04121 0.56504 0.44969 0.0
C2297 C 0.04389 0.561 0.52628 0.0
C2298 C 0.02888 0.56868 0.41493 0.0
C2299 C 0.0069 0.5718 0.41809 0.0
C2300 C 0.03156 0.56449 0.48807 0.0
C2301 C 0.99797 0.57105 0.45713 0.0
C2302 C 0.0334 0.55949 0.56367 0.0
C2303 C 0.07713 0.55703 0.56046 0.0
N2304 N 0.01027 0.56752 0.4903 0.0
N2305 N 0.06544 0.55961 0.52585 0.0
H2306 H 0.17845 0.28309 0.37633 0.0
H2307 H 0.19374 0.28401 0.13456 0.0
H2308 H 0.20119 0.33785 0.31138 0.0
H2309 H 0.17627 0.22884 0.20407 0.0
H2310 H 0.19596 0.30436 0.19775 0.0
H2311 H 0.17643 0.26375 0.31264 0.0
C2312 C 0.18296 0.29116 0.34866 0.0
C2313 C 0.19005 0.31223 0.3495 0.0
C2314 C 0.19165 0.2878 0.19913 0.0
C2315 C 0.18781 0.28986 0.27568 0.0
C2316 C 0.1905 0.27608 0.16301 0.0
C2317 C 0.18474 0.25456 0.16365 0.0
C2318 C 0.18699 0.27802 0.23637 0.0
C2319 C 0.18042 0.24539 0.20166 0.0
C2320 C 0.18185 0.28 0.31213 0.0
C2321 C 0.19569 0.32165 0.31235 0.0
N2322 N 0.18161 0.25713 0.23625 0.0
N2323 N 0.19445 0.31041 0.277 0.0
H2324 H 0.40859 0.44698 0.06004 0.0
H2325 H 0.52397 0.43484 0.96069 0.0
H2326 H 0.46754 0.45299 0.12486 0.0
H2327 H 0.46711 0.43322 0.88841 0.0
H2328 H 0.50274 0.44186 1.0206 0.0
H2329 H 0.42875 0.44243 0.99645 0.0
C2330 C 0.42568 0.44752 0.06093 0.0
C2331 C 0.43632 0.45021 0.09805 0.0
C2332 C 0.49481 0.44005 0.99168 0.0
C2333 C 0.45945 0.44491 1.02562 0.0
C2334 C 0.50703 0.43617 0.95716 0.0
C2335 C 0.49749 0.43351 0.91897 0.0
C2336 C 0.47269 0.44124 0.98859 0.0
C2337 C 0.47526 0.4349 0.9171 0.0
C2338 C 0.43719 0.44484 1.02467 0.0
C2339 C 0.45853 0.45069 0.09727 0.0
N2340 N 0.46365 0.43864 0.95131 0.0
N2341 N 0.46923 0.44801 0.06194 0.0
H2342 H 0.32751 0.77935 0.71158 0.0
H2343 H 0.3057 0.66609 0.81427 0.0
H2344 H 0.31438 0.72315 0.64151 0.0
H2345 H 0.32465 0.72202 0.88014 0.0
H2346 H 0.30794 0.68635 0.75071 0.0
H2347 H 0.32558 0.75835 0.77352 0.0
C2348 C 0.32434 0.76257 0.70907 0.0
C2349 C 0.32123 0.7531 0.67091 0.0
C2350 C 0.31163 0.69414 0.77912 0.0
C2351 C 0.3187 0.72878 0.74245 0.0
C2352 C 0.31034 0.68258 0.81545 0.0
C2353 C 0.31494 0.69231 0.85281 0.0
C2354 C 0.31746 0.71563 0.78012 0.0
C2355 C 0.32097 0.71373 0.85227 0.0
C2356 C 0.32312 0.75055 0.74463 0.0
C2357 C 0.31668 0.73128 0.67008 0.0
N2358 N 0.32197 0.7246 0.81671 0.0
N2359 N 0.31559 0.71989 0.7052 0.0
H2360 H 0.08633 0.45352 0.29394 0.0
H2361 H 0.98013 0.41469 0.40464 0.0
H2362 H 0.03479 0.42247 0.23213 0.0
H2363 H 0.02899 0.45037 0.46532 0.0
H2364 H 1.00052 0.41647 0.34187 0.0
H2365 H 0.06649 0.4511 0.35761 0.0
C2366 C 0.07091 0.4461 0.29369 0.0
C2367 C 0.06227 0.43824 0.25737 0.0
C2368 C 0.0068 0.42392 0.3689 0.0
C2369 C 0.03936 0.43548 0.33044 0.0
C2370 C 0.99505 0.42306 0.40484 0.0
C2371 C 1.00271 0.43244 0.44067 0.0
C2372 C 0.02649 0.43421 0.36842 0.0
C2373 C 0.02246 0.44264 0.43881 0.0
C2374 C 0.05955 0.44477 0.33012 0.0
C2375 C 0.04217 0.42879 0.25918 0.0
N2376 N 0.03361 0.44326 0.40343 0.0
N2377 N 0.03145 0.42772 0.29494 0.0
H2378 H 0.31067 0.34517 1.04616 0.0
H2379 H 0.30914 0.2302 0.15123 0.0
H2380 H 0.29786 0.28658 0.98361 0.0
H2381 H 0.33103 0.28601 0.21396 0.0
H2382 H 0.30194 0.25173 0.0915 0.0
H2383 H 0.31494 0.32504 0.10985 0.0
C2384 C 0.3085 0.32817 1.04588 0.0
C2385 C 0.30401 0.31758 1.00937 0.0
C2386 C 0.3083 0.25934 0.1183 0.0
C2387 C 0.30889 0.29447 0.08192 0.0
C2388 C 0.31256 0.24697 0.15251 0.0
C2389 C 0.32096 0.25612 0.1879 0.0
C2390 C 0.31237 0.28122 0.11902 0.0
C2391 C 0.32446 0.27816 0.18764 0.0
C2392 C 0.31107 0.31667 0.08216 0.0
C2393 C 0.30154 0.29548 1.0108 0.0
N2394 N 0.32025 0.28991 0.15378 0.0
N2395 N 0.30402 0.28476 1.04623 0.0
H2396 H 0.47023 0.56011 0.97461 0.0
H2397 H 0.47093 0.57454 0.73278 0.0
H2398 H 0.52565 0.57553 0.90429 0.0
H2399 H 0.41632 0.55176 0.79792 0.0
H2400 H 0.49037 0.57634 0.7963 0.0
H2401 H 0.44979 0.55776 0.91158 0.0
C2402 C 0.47819 0.56286 0.94602 0.0
C2403 C 0.49981 0.5681 0.94511 0.0
C2404 C 0.47413 0.57096 0.7969 0.0
C2405 C 0.47625 0.56574 0.87258 0.0
C2406 C 0.46291 0.56998 0.76047 0.0
C2407 C 0.44184 0.56297 0.75972 0.0
C2408 C 0.46435 0.56497 0.83337 0.0
C2409 C 0.43251 0.55723 0.79689 0.0
C2410 C 0.46642 0.56164 0.91 0.0
C2411 C 0.50902 0.57181 0.90691 0.0
N2412 N 0.44381 0.55837 0.83217 0.0
N2413 N 0.49723 0.5706 0.87243 0.0
H2414 H 0.17556 0.71952 0.71946 0.0
H2415 H 0.21291 0.7191 0.48726 0.0
H2416 H 0.20077 0.77388 0.65669 0.0
H2417 H 0.19606 0.6617 0.55019 0.0
H2418 H 0.20904 0.73878 0.55014 0.0
H2419 H 0.18325 0.69775 0.65963 0.0
C2420 C 0.18286 0.72692 0.69336 0.0
C2421 C 0.18736 0.74876 0.69341 0.0
C2422 C 0.20628 0.72187 0.55055 0.0
C2423 C 0.19602 0.72376 0.62429 0.0
C2424 C 0.20852 0.71054 0.51447 0.0
C2425 C 0.20477 0.68863 0.51323 0.0
C2426 C 0.19993 0.71143 0.58613 0.0
C2427 C 0.19922 0.67853 0.54973 0.0
C2428 C 0.18717 0.71442 0.65907 0.0
C2429 C 0.19657 0.75731 0.65817 0.0
N2430 N 0.19675 0.69004 0.58461 0.0
N2431 N 0.20048 0.74486 0.62527 0.0
H2432 H 0.46998 0.95747 0.23438 0.0
H2433 H 0.46837 0.94363 0.47648 0.0
H2434 H 0.41183 0.95326 0.30217 0.0
H2435 H 0.52493 0.95072 0.40471 0.0
H2436 H 0.44716 0.94777 0.41465 0.0
H2437 H 0.48978 0.95554 0.29735 0.0
C2438 C 0.46127 0.95609 0.26256 0.0
C2439 C 0.43907 0.95539 0.26267 0.0
C2440 C 0.4642 0.94846 0.4125 0.0
C2441 C 0.46204 0.95313 0.33592 0.0
C2442 C 0.47639 0.94621 0.44789 0.0
C2443 C 0.49863 0.94672 0.44615 0.0
C2444 C 0.47423 0.95126 0.37482 0.0
C2445 C 0.50794 0.94982 0.40785 0.0
C2446 C 0.4727 0.95504 0.29874 0.0
C2447 C 0.42889 0.95387 0.30051 0.0
N2448 N 0.49576 0.95192 0.37399 0.0
N2449 N 0.44044 0.95267 0.33557 0.0
H2450 H 0.30222 0.16704 0.54078 0.0
H2451 H 0.33988 0.2734 0.65314 0.0
H2452 H 0.3334 0.21903 0.48058 0.0
H2453 H 0.30529 0.22372 0.7137 0.0
H2454 H 0.33829 0.25311 0.59023 0.0
H2455 H 0.30432 0.18663 0.60493 0.0
C2456 C 0.30961 0.18249 0.54099 0.0
C2457 C 0.3176 0.19135 0.50499 0.0
C2458 C 0.33103 0.24661 0.61725 0.0
C2459 C 0.31998 0.21395 0.57851 0.0
C2460 C 0.33178 0.25831 0.65326 0.0
C2461 C 0.32263 0.2504 0.68908 0.0
C2462 C 0.32108 0.22672 0.61666 0.0
C2463 C 0.31279 0.23044 0.68715 0.0
C2464 C 0.31074 0.19371 0.57767 0.0
C2465 C 0.32698 0.21149 0.50736 0.0
N2466 N 0.31227 0.21934 0.65166 0.0
N2467 N 0.32785 0.22206 0.54331 0.0
H2468 H 0.03003 0.05562 0.96772 0.0
H2469 H 0.03414 0.08352 0.73014 0.0
H2470 H 0.98175 0.09111 0.90509 0.0
H2471 H 0.0855 0.05313 0.79354 0.0
H2472 H 0.01473 0.08592 0.7939 0.0
H2473 H 0.05036 0.05402 0.90464 0.0
C2474 C 0.02368 0.06319 0.94087 0.0
C2475 C 0.00401 0.07355 0.94212 0.0
C2476 C 0.03026 0.07877 0.794 0.0
C2477 C 0.02731 0.07152 0.8692 0.0
C2478 C 0.04143 0.0774 0.75746 0.0
C2479 C 0.06156 0.06805 0.75618 0.0
C2480 C 0.03914 0.07068 0.82988 0.0
C2481 C 0.07005 0.06044 0.79286 0.0
C2482 C 0.03532 0.06216 0.90471 0.0
C2483 C 0.99661 0.08267 0.90582 0.0
N2484 N 0.05879 0.06186 0.82809 0.0
N2485 N 0.00821 0.08144 0.87107 0.0
H2486 H 0.17561 0.78713 0.98258 0.0
H2487 H 0.19979 0.78411 0.22168 0.0
H2488 H 0.20567 0.83877 1.04607 0.0
H2489 H 0.17229 0.73239 0.15438 0.0
H2490 H 0.20184 0.80466 0.15872 0.0
H2491 H 0.17349 0.76758 1.04607 0.0
C2492 C 0.18169 0.79448 1.00989 0.0
C2493 C 0.19088 0.81472 1.0087 0.0
C2494 C 0.19536 0.78882 0.15777 0.0
C2495 C 0.18855 0.7921 0.08218 0.0
C2496 C 0.19431 0.77698 0.19372 0.0
C2497 C 0.18579 0.7564 0.19364 0.0
C2498 C 0.18786 0.78008 0.12126 0.0
C2499 C 0.17866 0.74824 0.15634 0.0
C2500 C 0.18052 0.7832 1.04629 0.0
C2501 C 0.19847 0.82324 1.04537 0.0
N2502 N 0.17985 0.76006 0.12188 0.0
N2503 N 0.19718 0.81189 0.08055 0.0
H2504 H 0.52674 0.05145 0.45105 0.0
H2505 H 0.41145 0.05173 0.5538 0.0
H2506 H 0.46977 0.06297 0.38257 0.0
H2507 H 0.47012 0.04691 0.61986 0.0
H2508 H 0.43173 0.05375 0.49008 0.0
H2509 H 0.50556 0.04774 0.51241 0.0
C2510 C 0.50978 0.05331 0.44881 0.0
C2511 C 0.50017 0.05771 0.41128 0.0
C2512 C 0.44011 0.05221 0.51858 0.0
C2513 C 0.47554 0.05318 0.48208 0.0
C2514 C 0.42853 0.05098 0.55495 0.0
C2515 C 0.43904 0.04923 0.59239 0.0
C2516 C 0.46235 0.05151 0.51965 0.0
C2517 C 0.46124 0.04844 0.59193 0.0
C2518 C 0.49763 0.05107 0.48399 0.0
C2519 C 0.47797 0.05941 0.41057 0.0
N2520 N 0.47205 0.04957 0.55636 0.0
N2521 N 0.46645 0.05722 0.44534 0.0
H2522 H 0.17655 0.21715 0.63716 0.0
H2523 H 0.21179 0.21772 0.87064 0.0
H2524 H 0.19879 0.27233 0.70148 0.0
H2525 H 0.19747 0.15983 0.80695 0.0
H2526 H 0.20771 0.23733 0.80774 0.0
H2527 H 0.18458 0.19553 0.69706 0.0
C2528 C 0.18327 0.22476 0.66363 0.0
C2529 C 0.18682 0.24677 0.66403 0.0
C2530 C 0.20555 0.22034 0.80717 0.0
C2531 C 0.19586 0.22195 0.73315 0.0
C2532 C 0.20789 0.20905 0.84326 0.0
C2533 C 0.20491 0.18703 0.84426 0.0
C2534 C 0.19988 0.20972 0.77135 0.0
C2535 C 0.20002 0.17677 0.80757 0.0
C2536 C 0.18777 0.21235 0.69794 0.0
C2537 C 0.19532 0.25559 0.69967 0.0
N2538 N 0.19744 0.18822 0.77266 0.0
N2539 N 0.19944 0.24323 0.73257 0.0
H2540 H 0.03794 0.9586 0.12404 0.0
H2541 H 0.03807 0.92918 0.88736 0.0
H2542 H 0.09569 0.949 0.05709 0.0
H2543 H 0.98234 0.94546 0.95596 0.0
H2544 H 0.05971 0.93666 0.94746 0.0
H2545 H 0.01788 0.95415 0.06178 0.0
C2546 C 0.04648 0.95557 0.09613 0.0
C2547 C 0.06862 0.95405 0.09603 0.0
C2548 C 0.04276 0.93865 0.94927 0.0
C2549 C 0.04541 0.94876 1.02377 0.0
C2550 C 0.03033 0.93447 0.91484 0.0
C2551 C 0.00818 0.93654 0.91632 0.0
C2552 C 0.03304 0.94494 0.98567 0.0
C2553 C 0.99922 0.9432 0.95322 0.0
C2554 C 0.03493 0.95306 0.06039 0.0
C2555 C 0.07867 0.95036 0.05863 0.0
N2556 N 0.01161 0.94707 0.98618 0.0
N2557 N 0.06698 0.94766 1.02406 0.0
H2558 H 0.30121 0.78685 0.37643 0.0
H2559 H 0.32868 0.7871 0.13902 0.0
H2560 H 0.31039 0.84475 0.30934 0.0
H2561 H 0.31299 0.73126 0.20813 0.0
H2562 H 0.3218 0.80877 0.19937 0.0
H2563 H 0.30526 0.76679 0.3141 0.0
C2564 C 0.30409 0.79542 0.34849 0.0
C2565 C 0.30558 0.8176 0.34833 0.0
C2566 C 0.31981 0.79179 0.20123 0.0
C2567 C 0.31039 0.7944 0.276 0.0
C2568 C 0.32365 0.77935 0.16668 0.0
C2569 C 0.32157 0.75717 0.16825 0.0
C2570 C 0.31385 0.78204 0.23781 0.0
C2571 C 0.31524 0.74817 0.20533 0.0
C2572 C 0.30636 0.78387 0.31271 0.0
C2573 C 0.30907 0.82769 0.3109 0.0
N2574 N 0.3117 0.76057 0.23841 0.0
N2575 N 0.31152 0.816 0.27625 0.0
H2576 H 0.53891 0.06121 0.87962 0.0
H2577 H 0.53756 0.04531 0.12114 0.0
H2578 H 0.48249 0.05238 0.95113 0.0
H2579 H 0.59565 0.05025 0.05333 0.0
H2580 H 0.51772 0.04739 0.05826 0.0
H2581 H 0.56021 0.05664 0.94122 0.0
C2582 C 0.53094 0.05815 0.9081 0.0
C2583 C 0.50871 0.0573 0.90987 0.0
C2584 C 0.53479 0.04801 0.05684 0.0
C2585 C 0.5332 0.05227 0.9809 0.0
C2586 C 0.54624 0.04686 0.09296 0.0
C2587 C 0.56843 0.04772 0.09281 0.0
C2588 C 0.54542 0.0502 1.0197 0.0
C2589 C 0.57859 0.04948 0.055 0.0
C2590 C 0.54317 0.05566 0.94336 0.0
C2591 C 0.49946 0.05358 0.94801 0.0
N2592 N 0.56701 0.0508 1.01999 0.0
N2593 N 0.51168 0.05126 0.98175 0.0
H2594 H 0.68345 0.78177 0.64729 0.0
H2595 H 0.66795 0.78735 0.88852 0.0
H2596 H 0.66283 0.72948 0.72154 0.0
H2597 H 0.69681 0.83814 0.82067 0.0
H2598 H 0.66442 0.76709 0.82634 0.0
H2599 H 0.6871 0.80346 0.70872 0.0
C2600 C 0.67964 0.77483 0.67643 0.0
C2601 C 0.67282 0.75367 0.67905 0.0
C2602 C 0.67152 0.78266 0.82482 0.0
C2603 C 0.677 0.7785 0.74964 0.0
C2604 C 0.67349 0.79437 0.8605 0.0
C2605 C 0.68274 0.8146 0.86012 0.0
C2606 C 0.67873 0.79109 0.78794 0.0
C2607 C 0.68961 0.82264 0.82255 0.0
C2608 C 0.68183 0.78722 0.71152 0.0
C2609 C 0.66839 0.74555 0.71783 0.0
N2610 N 0.68746 0.81086 0.78797 0.0
N2611 N 0.67048 0.75796 0.75137 0.0
H2612 H 0.97355 0.94617 0.3869 0.0
H2613 H 0.97306 0.93043 0.62846 0.0
H2614 H 0.02831 0.92904 0.45771 0.0
H2615 H 0.91853 0.95251 0.56214 0.0
H2616 H 0.99281 0.92875 0.56529 0.0
H2617 H 0.95279 0.94805 0.44955 0.0
C2618 C 0.98129 0.94294 0.41554 0.0
C2619 C 0.00281 0.93737 0.41674 0.0
C2620 C 0.97652 0.93395 0.56437 0.0
C2621 C 0.97892 0.93923 0.48877 0.0
C2622 C 0.96514 0.93486 0.60058 0.0
C2623 C 0.94402 0.94168 0.60087 0.0
C2624 C 0.96684 0.93982 0.52772 0.0
C2625 C 0.93478 0.94723 0.56352 0.0
C2626 C 0.96935 0.94389 0.45133 0.0
C2627 C 0.01176 0.93305 0.45492 0.0
N2628 N 0.94624 0.94619 0.52848 0.0
N2629 N 0.99981 0.93406 0.48919 0.0
H2630 H 0.83027 0.21942 0.14047 0.0
H2631 H 0.79476 0.21962 0.37376 0.0
H2632 H 0.80751 0.27441 0.2046 0.0
H2633 H 0.81006 0.16198 0.31015 0.0
H2634 H 0.79862 0.23929 0.31086 0.0
H2635 H 0.82243 0.19776 0.20038 0.0
C2636 C 0.82347 0.22698 0.1669 0.0
C2637 C 0.81971 0.24896 0.16724 0.0
C2638 C 0.80104 0.22234 0.31032 0.0
C2639 C 0.81088 0.22409 0.23638 0.0
C2640 C 0.79884 0.21102 0.34641 0.0
C2641 C 0.80219 0.18905 0.34745 0.0
C2642 C 0.80695 0.21181 0.27456 0.0
C2643 C 0.80726 0.17887 0.31078 0.0
C2644 C 0.81909 0.21455 0.20123 0.0
C2645 C 0.81113 0.25771 0.20284 0.0
N2646 N 0.80971 0.19036 0.27589 0.0
N2647 N 0.80711 0.24533 0.23576 0.0
H2648 H 0.53603 0.9607 0.73598 0.0
H2649 H 0.53861 0.94326 0.97702 0.0
H2650 H 0.59421 0.95446 0.80319 0.0
H2651 H 0.48162 0.95227 0.90725 0.0
H2652 H 0.55941 0.94796 0.91498 0.0
H2653 H 0.51632 0.95855 0.79914 0.0
C2654 C 0.54473 0.95887 0.76408 0.0
C2655 C 0.56691 0.95767 0.76405 0.0
C2656 C 0.54236 0.949 0.91329 0.0
C2657 C 0.54412 0.95508 0.83727 0.0
C2658 C 0.53041 0.94618 0.94872 0.0
C2659 C 0.5082 0.94724 0.94762 0.0
C2660 C 0.53211 0.95284 0.87619 0.0
C2661 C 0.49864 0.9515 0.90997 0.0
C2662 C 0.53338 0.95768 0.80031 0.0
C2663 C 0.57716 0.95552 0.80169 0.0
N2664 N 0.5106 0.95402 0.87594 0.0
N2665 N 0.56569 0.95416 0.83674 0.0
H2666 H 0.80353 0.83466 0.5429 0.0
H2667 H 0.85473 0.73135 0.64612 0.0
H2668 H 0.84187 0.78887 0.4796 0.0
H2669 H 0.81244 0.77306 0.71039 0.0
H2670 H 0.85116 0.7535 0.58592 0.0
H2671 H 0.80767 0.81379 0.60545 0.0
C2672 C 0.81291 0.82034 0.5421 0.0
C2673 C 0.82229 0.81356 0.50567 0.0
C2674 C 0.84264 0.75788 0.61314 0.0
C2675 C 0.82704 0.78953 0.57724 0.0
C2676 C 0.84477 0.74524 0.64775 0.0
C2677 C 0.83395 0.75028 0.68372 0.0
C2678 C 0.82961 0.77589 0.6141 0.0
C2679 C 0.82095 0.76837 0.68337 0.0
C2680 C 0.8152 0.80838 0.57783 0.0
C2681 C 0.83424 0.7948 0.5067 0.0
N2682 N 0.81919 0.78052 0.64925 0.0
N2683 N 0.83622 0.78353 0.54166 0.0
H2684 H 0.96748 0.07749 0.46736 0.0
H2685 H 0.96901 0.04448 0.23294 0.0
H2686 H 0.02322 0.0574 0.4026 0.0
H2687 H 0.91091 0.05626 0.29739 0.0
H2688 H 0.98853 0.04828 0.29601 0.0
H2689 H 0.94615 0.06915 0.40731 0.0
C2690 C 0.97527 0.07117 0.44075 0.0
C2691 C 0.99734 0.06832 0.44024 0.0
C2692 C 0.97151 0.04992 0.2967 0.0
C2693 C 0.97287 0.05892 0.371 0.0
C2694 C 0.96029 0.04774 0.26053 0.0
C2695 C 0.93824 0.05013 0.25974 0.0
C2696 C 0.96078 0.05487 0.33274 0.0
C2697 C 0.92788 0.0542 0.29664 0.0
C2698 C 0.96303 0.06649 0.40636 0.0
C2699 C 0.00641 0.06031 0.40446 0.0
N2700 N 0.93926 0.05668 0.33161 0.0
N2701 N 0.9942 0.05601 0.37147 0.0
H2702 H 0.69716 0.16704 1.04179 0.0
H2703 H 0.67364 0.27995 0.14452 0.0
H2704 H 0.67526 0.22187 0.97603 0.0
H2705 H 0.69035 0.22449 0.21387 0.0
H2706 H 0.67478 0.25878 0.08263 0.0
H2707 H 0.69525 0.18752 0.10503 0.0
C2708 C 0.69188 0.18333 1.04057 0.0
C2709 C 0.6864 0.19269 1.00331 0.0
C2710 C 0.67819 0.25119 0.11136 0.0
C2711 C 0.68429 0.21631 0.07576 0.0
C2712 C 0.67744 0.2633 0.14691 0.0
C2713 C 0.68181 0.25409 0.18486 0.0
C2714 C 0.68341 0.2296 0.11335 0.0
C2715 C 0.68709 0.23244 0.18547 0.0
C2716 C 0.6908 0.19503 0.07675 0.0
C2717 C 0.67962 0.21388 1.00385 0.0
N2718 N 0.68772 0.22098 0.15039 0.0
N2719 N 0.67885 0.22492 1.03929 0.0
H2720 H 0.11808 0.49466 0.80883 0.0
H2721 H 0.12012 0.50462 0.0512 0.0
H2722 H 0.10512 0.55412 0.86782 0.0
H2723 H 0.09672 0.44873 0.99122 0.0
H2724 H 0.12244 0.52243 0.9848 0.0
H2725 H 0.11818 0.4772 0.87543 0.0
C2726 C 0.11562 0.50418 0.83575 0.0
C2727 C 0.11171 0.52605 0.83228 0.0
C2728 C 0.11696 0.50621 0.98618 0.0
C2729 C 0.11197 0.50591 0.90938 0.0
C2730 C 0.11578 0.49593 1.02411 0.0
C2731 C 0.10832 0.47499 1.02715 0.0
C2732 C 0.11117 0.49539 0.95052 0.0
C2733 C 0.10263 0.4648 0.99067 0.0
C2734 C 0.1155 0.4941 0.87385 0.0
C2735 C 0.10829 0.5373 0.86868 0.0
N2736 N 0.10434 0.47497 0.95411 0.0
N2737 N 0.10865 0.52719 0.9055 0.0
H2738 H 0.71603 0.82421 0.10675 0.0
H2739 H 0.77371 0.88981 0.28163 0.0
H2740 H 0.7333 0.88916 0.08446 0.0
H2741 H 0.78657 0.82387 0.25929 0.0
H2742 H 0.75395 0.89127 0.21684 0.0
H2743 H 0.73617 0.8251 0.17009 0.0
C2744 C 0.72384 0.83881 0.11525 0.0
C2745 C 0.72277 0.85667 0.08974 0.0
C2746 C 0.76122 0.87655 0.22614 0.0
C2747 C 0.746 0.85779 0.1636 0.0
C2748 C 0.77249 0.87567 0.26321 0.0
C2749 C 0.78209 0.85672 0.2762 0.0
C2750 C 0.75887 0.85818 0.20229 0.0
C2751 C 0.77975 0.83893 0.25073 0.0
C2752 C 0.73551 0.83922 0.15152 0.0
C2753 C 0.73359 0.87498 0.10285 0.0
N2754 N 0.76827 0.84004 0.21565 0.0
N2755 N 0.74454 0.87513 0.13888 0.0
H2756 H 0.3633 0.52345 0.53186 0.0
H2757 H 0.42539 0.46404 0.35518 0.0
H2758 H 0.43009 0.53189 0.51232 0.0
H2759 H 0.36391 0.48996 0.32891 0.0
H2760 H 0.42506 0.48215 0.42079 0.0
H2761 H 0.36092 0.50532 0.46534 0.0
C2762 C 0.37744 0.52157 0.51373 0.0
C2763 C 0.39691 0.52946 0.52799 0.0
C2764 C 0.41154 0.48375 0.40088 0.0
C2765 C 0.39436 0.50807 0.45217 0.0
C2766 C 0.4116 0.47324 0.36331 0.0
C2767 C 0.39459 0.47527 0.33597 0.0
C2768 C 0.39413 0.49615 0.4124 0.0
C2769 C 0.37738 0.48781 0.34872 0.0
C2770 C 0.37604 0.51125 0.47568 0.0
C2771 C 0.41467 0.52636 0.50283 0.0
N2772 N 0.3775 0.4976 0.38598 0.0
N2773 N 0.41301 0.51578 0.4668 0.0
H2774 H 0.78638 0.17945 0.60064 0.0
H2775 H 0.73391 0.11394 0.78198 0.0
H2776 H 0.77247 0.11333 0.58255 0.0
H2777 H 0.71936 0.17925 0.75668 0.0
H2778 H 0.75307 0.11202 0.71651 0.0
H2779 H 0.76786 0.17829 0.6654 0.0
C2780 C 0.7798 0.16449 0.61045 0.0
C2781 C 0.78136 0.1464 0.5856 0.0
C2782 C 0.74557 0.1267 0.72535 0.0
C2783 C 0.75964 0.14506 0.66119 0.0
C2784 C 0.73464 0.12784 0.76283 0.0
C2785 C 0.72475 0.14677 0.77525 0.0
C2786 C 0.74723 0.14477 0.70047 0.0
C2787 C 0.72645 0.16423 0.74877 0.0
C2788 C 0.76896 0.16394 0.64756 0.0
C2789 C 0.77186 0.12769 0.6004 0.0
N2790 N 0.73755 0.16286 0.71332 0.0
N2791 N 0.76158 0.12747 0.6372 0.0
H2792 H 0.92653 0.46755 0.50662 0.0
H2793 H 0.86217 0.52531 0.3288 0.0
H2794 H 0.86209 0.48651 0.528 0.0
H2795 H 0.92939 0.53098 0.34611 0.0
H2796 H 0.85978 0.50672 0.39494 0.0
H2797 H 0.92569 0.48543 0.44132 0.0
C2798 C 0.91196 0.47512 0.49749 0.0
C2799 C 0.89427 0.47512 0.52347 0.0
C2800 C 0.875 0.51218 0.38425 0.0
C2801 C 0.89333 0.49624 0.44704 0.0
C2802 C 0.87641 0.52276 0.34636 0.0
C2803 C 0.89601 0.53012 0.33163 0.0
C2804 C 0.89341 0.50829 0.40722 0.0
C2805 C 0.91385 0.52611 0.35606 0.0
C2806 C 0.91162 0.48562 0.45998 0.0
C2807 C 0.87613 0.48587 0.50933 0.0
N2808 N 0.91214 0.51544 0.39197 0.0
N2809 N 0.87608 0.49585 0.47215 0.0
H2810 H 0.2381 0.11303 0.07664 0.0
H2811 H 0.28512 0.18117 0.25812 0.0
H2812 H 0.21732 0.17664 0.10184 0.0
H2813 H 0.27358 0.11471 0.2777 0.0
H2814 H 0.26593 0.17905 0.19388 0.0
H2815 H 0.2559 0.11233 0.14348 0.0
C2816 C 0.23706 0.12676 0.09621 0.0
C2817 C 0.22592 0.14486 0.08329 0.0
C2818 C 0.26763 0.16488 0.21208 0.0
C2819 C 0.24697 0.14437 0.1595 0.0
C2820 C 0.27875 0.16601 0.24885 0.0
C2821 C 0.28114 0.14808 0.27383 0.0
C2822 C 0.25906 0.14555 0.19895 0.0
C2823 C 0.2722 0.12898 0.25973 0.0
C2824 C 0.24726 0.12633 0.1344 0.0
C2825 C 0.22541 0.16221 0.11022 0.0
N2826 N 0.26177 0.12816 0.22317 0.0
N2827 N 0.23596 0.16162 0.14638 0.0
H2828 H 0.64113 0.47614 0.83458 0.0
H2829 H 0.57964 0.54148 1.00575 0.0
H2830 H 0.57332 0.47664 0.84512 0.0
H2831 H 0.63903 0.51179 1.035 0.0
H2832 H 0.58002 0.52384 0.93973 0.0
H2833 H 0.64347 0.4945 0.90091 0.0
C2834 C 0.62676 0.48004 0.85071 0.0
C2835 C 0.60699 0.47447 0.83418 0.0
C2836 C 0.59309 0.52129 0.96038 0.0
C2837 C 0.60956 0.49608 0.90973 0.0
C2838 C 0.593 0.53154 0.99822 0.0
C2839 C 0.60939 0.52831 1.02653 0.0
C2840 C 0.60989 0.50789 0.94964 0.0
C2841 C 0.62606 0.51488 1.01445 0.0
C2842 C 0.62812 0.49048 0.88866 0.0
C2843 C 0.58894 0.48015 0.85669 0.0
N2844 N 0.62595 0.5053 0.97701 0.0
N2845 N 0.59065 0.49072 0.89271 0.0
H2846 H 0.19982 0.84877 0.74289 0.0
H2847 H 0.30671 0.85603 0.61673 0.0
H2848 H 0.25709 0.87073 0.79972 0.0
H2849 H 0.24651 0.86933 0.56124 0.0
H2850 H 0.28964 0.85707 0.68391 0.0
H2851 H 0.21707 0.85172 0.67629 0.0
C2852 C 0.21597 0.85437 0.74145 0.0
C2853 C 0.22685 0.85972 0.77731 0.0
C2854 C 0.28022 0.85996 0.65703 0.0
C2855 C 0.24704 0.86253 0.70056 0.0
C2856 C 0.28997 0.85939 0.61856 0.0
C2857 C 0.27817 0.86283 0.58289 0.0
C2858 C 0.25831 0.86333 0.66018 0.0
C2859 C 0.25641 0.86686 0.58762 0.0
C2860 C 0.22582 0.85605 0.70329 0.0
C2861 C 0.2479 0.86669 0.77311 0.0
N2862 N 0.24721 0.8667 0.62521 0.0
N2863 N 0.25734 0.86762 0.73571 0.0
H2864 H 0.62306 0.01108 0.54989 0.0
H2865 H 0.62362 0.99427 0.30875 0.0
H2866 H 0.60578 0.9514 0.49595 0.0
H2867 H 0.60563 0.0538 0.36235 0.0
H2868 H 0.62493 0.97849 0.3769 0.0
H2869 H 0.62451 0.0269 0.48177 0.0
C2870 C 0.61993 1.00114 0.52378 0.0
C2871 C 0.61441 0.97971 0.52909 0.0
C2872 C 0.62089 0.99505 0.37378 0.0
C2873 C 0.61622 0.99793 0.45032 0.0
C2874 C 0.62031 0.00419 0.33479 0.0
C2875 C 0.61462 0.02556 0.32937 0.0
C2876 C 0.61627 0.00738 0.40819 0.0
C2877 C 0.61018 0.03734 0.36471 0.0
C2878 C 0.62059 0.01029 0.48482 0.0
C2879 C 0.6102 0.9679 0.49368 0.0
N2880 N 0.61124 0.02819 0.40237 0.0
N2881 N 0.61134 0.97707 0.45604 0.0
H2882 H 0.2194 0.32411 0.59807 0.0
H2883 H 0.27127 0.39252 0.77539 0.0
H2884 H 0.23434 0.38959 0.57509 0.0
H2885 H 0.28633 0.32689 0.75498 0.0
H2886 H 0.25307 0.39328 0.70882 0.0
H2887 H 0.23841 0.32623 0.66243 0.0
C2888 C 0.22647 0.33908 0.60658 0.0
C2889 C 0.22508 0.35672 0.58055 0.0
C2890 C 0.26057 0.37881 0.71888 0.0
C2891 C 0.24704 0.35924 0.65571 0.0
C2892 C 0.27098 0.37835 0.75693 0.0
C2893 C 0.28075 0.35969 0.77101 0.0
C2894 C 0.25924 0.36029 0.69514 0.0
C2895 C 0.27951 0.34179 0.74554 0.0
C2896 C 0.2375 0.3402 0.64348 0.0
C2897 C 0.23492 0.37555 0.59384 0.0
N2898 N 0.26884 0.34248 0.70953 0.0
N2899 N 0.24528 0.37637 0.6305 0.0
H2900 H 0.92854 0.03852 1.00498 0.0
H2901 H 0.86455 0.98402 0.82419 0.0
H2902 H 0.86372 0.02037 1.02476 0.0
H2903 H 0.9304 0.97181 0.84793 0.0
H2904 H 0.86228 1.00279 0.89004 0.0
H2905 H 0.92782 0.02057 0.93945 0.0
C2906 C 0.91394 0.03116 0.99533 0.0
C2907 C 0.89609 0.03129 1.02082 0.0
C2908 C 0.87716 0.99589 0.88075 0.0
C2909 C 0.89525 0.0103 0.94464 0.0
C2910 C 0.87849 0.98519 0.8431 0.0
C2911 C 0.89767 0.97608 0.83022 0.0
C2912 C 0.89528 0.99813 0.90522 0.0
C2913 C 0.91519 0.97829 0.85631 0.0
C2914 C 0.91365 0.02065 0.95785 0.0
C2915 C 0.87786 0.02085 1.00635 0.0
N2916 N 0.91362 0.9892 0.89194 0.0
N2917 N 0.87786 0.01092 0.96924 0.0
H2918 H 0.21755 0.67816 0.25712 0.0
H2919 H 0.27239 0.61355 0.07778 0.0
H2920 H 0.23636 0.61361 0.27937 0.0
H2921 H 0.28463 0.67959 0.1006 0.0
H2922 H 0.25386 0.61144 0.14391 0.0
H2923 H 0.23581 0.67711 0.19204 0.0
C2924 C 0.22523 0.66356 0.24827 0.0
C2925 C 0.22518 0.6459 0.27445 0.0
C2926 C 0.26072 0.62632 0.13438 0.0
C2927 C 0.24638 0.64467 0.1983 0.0
C2928 C 0.27128 0.62757 0.09653 0.0
C2929 C 0.28034 0.64676 0.08323 0.0
C2930 C 0.25854 0.64454 0.15873 0.0
C2931 C 0.27819 0.66437 0.10923 0.0
C2932 C 0.23585 0.66308 0.21092 0.0
C2933 C 0.23581 0.62763 0.26056 0.0
N2934 N 0.26741 0.66288 0.14504 0.0
N2935 N 0.24583 0.62744 0.22348 0.0
H2936 H 0.38415 0.0103 1.04792 0.0
H2937 H 0.38402 0.99441 0.80667 0.0
H2938 H 0.40215 0.95103 0.99324 0.0
H2939 H 0.40126 0.05393 0.8613 0.0
H2940 H 0.38279 0.97833 0.87457 0.0
H2941 H 0.38259 0.02635 0.98004 0.0
C2942 C 0.38743 1.0005 1.0217 0.0
C2943 C 0.39318 0.97913 1.02671 0.0
C2944 C 0.38665 0.99495 0.87171 0.0
C2945 C 0.39124 0.9976 0.94825 0.0
C2946 C 0.38718 0.00425 0.83289 0.0
C2947 C 0.39264 0.02571 0.82787 0.0
C2948 C 0.3911 0.0072 0.90632 0.0
C2949 C 0.3969 0.03741 0.86339 0.0
C2950 C 0.3867 0.00979 0.98288 0.0
C2951 C 0.39756 0.96749 0.99118 0.0
N2952 N 0.3959 0.0281 0.90088 0.0
N2953 N 0.39635 0.97678 0.95368 0.0
H2954 H 0.80621 0.65634 0.73951 0.0
H2955 H 0.69575 0.65469 0.62358 0.0
H2956 H 0.7492 0.63705 0.80052 0.0
H2957 H 0.7534 0.6392 0.56093 0.0
H2958 H 0.71481 0.6527 0.68857 0.0
H2959 H 0.78737 0.65452 0.6742 0.0
C2960 C 0.78979 0.65156 0.73929 0.0
C2961 C 0.77946 0.64663 0.77599 0.0
C2962 C 0.72328 0.64957 0.66065 0.0
C2963 C 0.75744 0.64515 0.70069 0.0
C2964 C 0.71239 0.65072 0.62339 0.0
C2965 C 0.72283 0.64691 0.58633 0.0
C2966 C 0.74508 0.64521 0.66132 0.0
C2967 C 0.74452 0.64197 0.58849 0.0
C2968 C 0.77902 0.65052 0.70184 0.0
C2969 C 0.75801 0.64073 0.77328 0.0
N2970 N 0.75491 0.64156 0.62503 0.0
N2971 N 0.74773 0.64044 0.73664 0.0
H2972 H 0.1219 0.01152 0.30868 0.0
H2973 H 0.12005 1.00172 0.55117 0.0
H2974 H 0.1049 0.9528 0.36655 0.0
H2975 H 0.09837 0.05802 0.4904 0.0
H2976 H 0.12276 0.98389 0.48478 0.0
H2977 H 0.12172 0.02895 0.37543 0.0
C2978 C 0.11853 1.00212 0.3354 0.0
C2979 C 0.11355 0.98048 0.33154 0.0
C2980 C 0.11758 1.0002 0.48598 0.0
C2981 C 0.11349 1.00058 0.40885 0.0
C2982 C 0.11618 0.01049 0.52393 0.0
C2983 C 0.10907 0.03157 0.52677 0.0
C2984 C 0.11243 0.01113 0.45007 0.0
C2985 C 0.10398 0.04185 0.49004 0.0
C2986 C 0.11825 0.0122 0.37358 0.0
C2987 C 0.10894 0.96943 0.3677 0.0
N2988 N 0.10594 0.03167 0.45349 0.0
N2989 N 0.10919 0.97949 0.4046 0.0
H2990 H 0.75925 0.36932 0.29973 0.0
H2991 H 0.75001 0.37102 0.0574 0.0
H2992 H 0.70007 0.35605 0.24023 0.0
H2993 H 0.80561 0.3476 0.11801 0.0
H2994 H 0.73204 0.37334 0.12356 0.0
H2995 H 0.77685 0.36932 0.23333 0.0
C2996 C 0.74982 0.36678 0.27273 0.0
C2997 C 0.72798 0.3628 0.27599 0.0
C2998 C 0.74822 0.36785 0.12237 0.0
C2999 C 0.74829 0.36294 0.19914 0.0
C3000 C 0.7586 0.36666 0.08459 0.0
C3001 C 0.77951 0.3592 0.0818 0.0
C3002 C 0.75891 0.36208 0.15815 0.0
C3003 C 0.78957 0.3535 0.11839 0.0
C3004 C 0.75998 0.3666 0.23476 0.0
C3005 C 0.71685 0.35928 0.23951 0.0
N3006 N 0.7793 0.35523 0.15482 0.0
N3007 N 0.72704 0.35959 0.2028 0.0
loop_
_geom_bond_atom_site_label_1
_geom_bond_atom_site_label_2
_geom_bond_distance
_geom_bond_site_symmetry_2
_ccdc_geom_bond_type
Tb0 C2 2.809 . S
Tb0 O20 2.484 . S
Tb0 O21 2.440 . S
Tb0 O22 2.658 . S
Tb0 O23 2.409 . S
Tb0 O24 2.378 . S
Tb0 O28 2.325 . S
Tb0 O31 2.341 . S
Tb1 C11 2.809 . S
Tb1 O22 2.325 . S
Tb1 O25 2.341 . S
Tb1 O26 2.484 . S
Tb1 O27 2.440 . S
Tb1 O28 2.658 . S
Tb1 O29 2.409 . S
Tb1 O30 2.378 . S
C2 Tb0 2.809 . S
C2 C3 1.514 1_554 S
C2 O20 1.248 . S
C2 O21 1.266 . S
C3 C2 1.514 1_556 S
C3 C4 1.359 . S
C3 C8 1.348 . S
C4 C3 1.359 . S
C4 C5 1.380 . S
C4 H32 0.929 . S
C5 C4 1.380 . S
C5 C6 1.347 . S
C5 H33 0.931 . S
C6 C5 1.347 . S
C6 C7 1.369 . S
C7 C6 1.369 . S
C7 C8 1.408 . S
C7 H34 0.930 . S
C8 C3 1.348 . S
C8 C7 1.408 . S
C8 H35 0.930 . S
C9 O22 1.281 . S
C9 O23 1.254 . S
C10 O24 1.236 . S
C10 O25 1.266 . S
C11 Tb1 2.809 . S
C11 C12 1.514 . S
C11 O26 1.248 . S
C11 O27 1.266 . S
C12 C11 1.514 . S
C12 C13 1.359 . S
C12 C17 1.348 . S
C13 C12 1.359 . S
C13 C14 1.380 . S
C13 H36 0.929 . S
C14 C13 1.380 . S
C14 C15 1.347 . S
C14 H37 0.931 . S
C15 C14 1.347 . S
C15 C16 1.369 . S
C16 C15 1.369 . S
C16 C17 1.408 . S
C16 H38 0.930 . S
C17 C12 1.348 . S
C17 C16 1.408 . S
C17 H39 0.930 . S
C18 O28 1.281 . S
C18 O29 1.254 . S
C19 O30 1.236 . S
C19 O31 1.266 . S
O20 Tb0 2.484 . S
O20 C2 1.248 . S
O21 Tb0 2.440 . S
O21 C2 1.266 . S
O22 Tb0 2.658 . S
O22 Tb1 2.325 . S
O22 C9 1.281 . S
O23 Tb0 2.409 . S
O23 C9 1.254 . S
O24 Tb0 2.378 . S
O24 C10 1.236 . S
O25 Tb1 2.341 . S
O25 C10 1.266 . S
O26 Tb1 2.484 . S
O26 C11 1.248 . S
O27 Tb1 2.440 . S
O27 C11 1.266 . S
O28 Tb0 2.325 . S
O28 Tb1 2.658 . S
O28 C18 1.281 . S
O29 Tb1 2.409 . S
O29 C18 1.254 . S
O30 Tb1 2.378 . S
O30 C19 1.236 . S
O31 Tb0 2.341 . S
O31 C19 1.266 . S
H32 C4 0.929 . S
H33 C5 0.931 . S
H34 C7 0.930 . S
H35 C8 0.930 . S
H36 C13 0.929 . S
H37 C14 0.931 . S
H38 C16 0.930 . S
H39 C17 0.930 . S
Tb40 C42 2.809 . S
Tb40 O60 2.484 . S
Tb40 O61 2.440 . S
Tb40 O62 2.658 . S
Tb40 O63 2.409 . S
Tb40 O64 2.378 . S
Tb40 O68 2.325 . S
Tb40 O71 2.341 . S
Tb41 C51 2.809 . S
Tb41 O62 2.325 . S
Tb41 O65 2.341 . S
Tb41 O66 2.484 . S
Tb41 O67 2.440 . S
Tb41 O68 2.658 . S
Tb41 O69 2.409 . S
Tb41 O70 2.378 . S
C42 Tb40 2.809 . S
C42 C43 1.514 . S
C42 O60 1.248 . S
C42 O61 1.266 . S
C43 C42 1.514 . S
C43 C44 1.359 . S
C43 C48 1.348 . S
C44 C43 1.359 . S
C44 C45 1.380 . S
C44 H72 0.929 . S
C45 C44 1.380 . S
C45 C46 1.347 . S
C45 H73 0.931 . S
C46 C45 1.347 . S
C46 C47 1.369 . S
C47 C46 1.369 . S
C47 C48 1.408 . S
C47 H74 0.930 . S
C48 C43 1.348 . S
C48 C47 1.408 . S
C48 H75 0.930 . S
C49 O62 1.281 . S
C49 O63 1.254 . S
C50 O64 1.236 . S
C50 O65 1.266 . S
C51 Tb41 2.809 . S
C51 C52 1.514 . S
C51 O66 1.248 . S
C51 O67 1.266 . S
C52 C51 1.514 . S
C52 C53 1.359 . S
C52 C57 1.348 . S
C53 C52 1.359 . S
C53 C54 1.380 . S
C53 H76 0.929 . S
C54 C53 1.380 . S
C54 C55 1.347 . S
C54 H77 0.931 . S
C55 C54 1.347 . S
C55 C56 1.369 . S
C56 C55 1.369 . S
C56 C57 1.408 . S
C56 H78 0.930 . S
C57 C52 1.348 . S
C57 C56 1.408 . S
C57 H79 0.930 . S
C58 O68 1.281 . S
C58 O69 1.254 . S
C59 O70 1.236 . S
C59 O71 1.266 . S
O60 Tb40 2.484 . S
O60 C42 1.248 . S
O61 Tb40 2.440 . S
O61 C42 1.266 . S
O62 Tb40 2.658 . S
O62 Tb41 2.325 . S
O62 C49 1.281 . S
O63 Tb40 2.409 . S
O63 C49 1.254 . S
O64 Tb40 2.378 . S
O64 C50 1.236 . S
O65 Tb41 2.341 . S
O65 C50 1.266 . S
O66 Tb41 2.484 . S
O66 C51 1.248 . S
O67 Tb41 2.440 . S
O67 C51 1.266 . S
O68 Tb40 2.325 . S
O68 Tb41 2.658 . S
O68 C58 1.281 . S
O69 Tb41 2.409 . S
O69 C58 1.254 . S
O70 Tb41 2.378 . S
O70 C59 1.236 . S
O71 Tb40 2.341 . S
O71 C59 1.266 . S
H72 C44 0.929 . S
H73 C45 0.931 . S
H74 C47 0.930 . S
H75 C48 0.930 . S
H76 C53 0.929 . S
H77 C54 0.931 . S
H78 C56 0.930 . S
H79 C57 0.930 . S
Tb80 C82 2.809 . S
Tb80 O100 2.484 . S
Tb80 O101 2.440 . S
Tb80 O102 2.658 . S
Tb80 O103 2.409 . S
Tb80 O104 2.378 . S
Tb80 O108 2.325 . S
Tb80 O111 2.341 . S
Tb81 C91 2.809 . S
Tb81 O102 2.325 . S
Tb81 O105 2.341 . S
Tb81 O106 2.484 . S
Tb81 O107 2.440 . S
Tb81 O108 2.658 . S
Tb81 O109 2.409 . S
Tb81 O110 2.378 . S
C82 Tb80 2.809 . S
C82 C83 1.514 . S
C82 O100 1.248 . S
C82 O101 1.266 . S
C83 C82 1.514 . S
C83 C84 1.359 . S
C83 C88 1.348 . S
C84 C83 1.359 . S
C84 C85 1.380 . S
C84 H112 0.929 . S
C85 C84 1.380 . S
C85 C86 1.347 . S
C85 H113 0.931 . S
C86 C85 1.347 . S
C86 C87 1.369 . S
C87 C86 1.369 . S
C87 C88 1.408 . S
C87 H114 0.930 . S
C88 C83 1.348 . S
C88 C87 1.408 . S
C88 H115 0.930 . S
C89 O102 1.281 . S
C89 O103 1.254 . S
C90 O104 1.236 . S
C90 O105 1.266 . S
C91 Tb81 2.809 . S
C91 C92 1.514 . S
C91 O106 1.248 . S
C91 O107 1.266 . S
C92 C91 1.514 . S
C92 C93 1.359 . S
C92 C97 1.348 . S
C93 C92 1.359 . S
C93 C94 1.380 . S
C93 H116 0.929 . S
C94 C93 1.380 . S
C94 C95 1.347 . S
C94 H117 0.931 . S
C95 C94 1.347 . S
C95 C96 1.369 . S
C96 C95 1.369 . S
C96 C97 1.408 . S
C96 H118 0.930 . S
C97 C92 1.348 . S
C97 C96 1.408 . S
C97 H119 0.930 . S
C98 O108 1.281 . S
C98 O109 1.254 . S
C99 O110 1.236 . S
C99 O111 1.266 . S
O100 Tb80 2.484 . S
O100 C82 1.248 . S
O101 Tb80 2.440 . S
O101 C82 1.266 . S
O102 Tb80 2.658 . S
O102 Tb81 2.325 . S
O102 C89 1.281 . S
O103 Tb80 2.409 . S
O103 C89 1.254 . S
O104 Tb80 2.378 . S
O104 C90 1.236 . S
O105 Tb81 2.341 . S
O105 C90 1.266 . S
O106 Tb81 2.484 . S
O106 C91 1.248 . S
O107 Tb81 2.440 . S
O107 C91 1.266 . S
O108 Tb80 2.325 . S
O108 Tb81 2.658 . S
O108 C98 1.281 . S
O109 Tb81 2.409 . S
O109 C98 1.254 . S
O110 Tb81 2.378 . S
O110 C99 1.236 . S
O111 Tb80 2.341 . S
O111 C99 1.266 . S
H112 C84 0.929 . S
H113 C85 0.931 . S
H114 C87 0.930 . S
H115 C88 0.930 . S
H116 C93 0.929 . S
H117 C94 0.931 . S
H118 C96 0.930 . S
H119 C97 0.930 . S
Tb120 C122 2.809 . S
Tb120 O140 2.484 . S
Tb120 O141 2.440 . S
Tb120 O142 2.658 . S
Tb120 O143 2.409 . S
Tb120 O144 2.378 . S
Tb120 O148 2.325 . S
Tb120 O151 2.341 . S
Tb121 C131 2.809 . S
Tb121 O142 2.325 . S
Tb121 O145 2.341 . S
Tb121 O146 2.484 . S
Tb121 O147 2.440 . S
Tb121 O148 2.658 . S
Tb121 O149 2.409 . S
Tb121 O150 2.378 . S
C122 Tb120 2.809 . S
C122 C123 1.514 . S
C122 O140 1.248 . S
C122 O141 1.266 . S
C123 C122 1.514 . S
C123 C124 1.359 . S
C123 C128 1.348 . S
C124 C123 1.359 . S
C124 C125 1.380 . S
C124 H152 0.929 . S
C125 C124 1.380 . S
C125 C126 1.347 . S
C125 H153 0.931 . S
C126 C125 1.347 . S
C126 C127 1.369 . S
C127 C126 1.369 . S
C127 C128 1.408 . S
C127 H154 0.930 . S
C128 C123 1.348 . S
C128 C127 1.408 . S
C128 H155 0.930 . S
C129 O142 1.281 . S
C129 O143 1.254 . S
C130 O144 1.236 . S
C130 O145 1.266 . S
C131 Tb121 2.809 . S
C131 C132 1.514 . S
C131 O146 1.248 . S
C131 O147 1.266 . S
C132 C131 1.514 . S
C132 C133 1.359 1_556 S
C132 C137 1.348 1_556 S
C133 C132 1.359 1_554 S
C133 C134 1.380 . S
C133 H156 0.929 . S
C134 C133 1.380 . S
C134 C135 1.347 . S
C134 H157 0.931 . S
C135 C134 1.347 . S
C135 C136 1.369 . S
C136 C135 1.369 . S
C136 C137 1.408 . S
C136 H158 0.930 . S
C137 C132 1.348 1_554 S
C137 C136 1.408 . S
C137 H159 0.930 1_554 S
C138 O148 1.281 . S
C138 O149 1.254 . S
C139 O150 1.236 . S
C139 O151 1.266 . S
O140 Tb120 2.484 . S
O140 C122 1.248 . S
O141 Tb120 2.440 . S
O141 C122 1.266 . S
O142 Tb120 2.658 . S
O142 Tb121 2.325 . S
O142 C129 1.281 . S
O143 Tb120 2.409 . S
O143 C129 1.254 . S
O144 Tb120 2.378 . S
O144 C130 1.236 . S
O145 Tb121 2.341 . S
O145 C130 1.266 . S
O146 Tb121 2.484 . S
O146 C131 1.248 . S
O147 Tb121 2.440 . S
O147 C131 1.266 . S
O148 Tb120 2.325 . S
O148 Tb121 2.658 . S
O148 C138 1.281 . S
O149 Tb121 2.409 . S
O149 C138 1.254 . S
O150 Tb121 2.378 . S
O150 C139 1.236 . S
O151 Tb120 2.341 . S
O151 C139 1.266 . S
H152 C124 0.929 . S
H153 C125 0.931 . S
H154 C127 0.930 . S
H155 C128 0.930 . S
H156 C133 0.929 . S
H157 C134 0.931 . S
H158 C136 0.930 . S
H159 C137 0.930 1_556 S
Tb160 C162 2.809 . S
Tb160 O180 2.484 . S
Tb160 O181 2.440 . S
Tb160 O182 2.658 . S
Tb160 O183 2.409 . S
Tb160 O184 2.378 . S
Tb160 O188 2.325 . S
Tb160 O191 2.341 . S
Tb161 C171 2.809 . S
Tb161 O182 2.325 . S
Tb161 O185 2.341 . S
Tb161 O186 2.484 . S
Tb161 O187 2.440 . S
Tb161 O188 2.658 . S
Tb161 O189 2.409 . S
Tb161 O190 2.378 . S
C162 Tb160 2.809 . S
C162 C163 1.514 . S
C162 O180 1.248 . S
C162 O181 1.266 . S
C163 C162 1.514 . S
C163 C164 1.359 . S
C163 C168 1.348 . S
C164 C163 1.359 . S
C164 C165 1.380 . S
C164 H192 0.929 . S
C165 C164 1.380 . S
C165 C166 1.347 . S
C165 H193 0.931 . S
C166 C165 1.347 . S
C166 C167 1.369 . S
C167 C166 1.369 . S
C167 C168 1.408 . S
C167 H194 0.930 . S
C168 C163 1.348 . S
C168 C167 1.408 . S
C168 H195 0.930 . S
C169 O182 1.281 . S
C169 O183 1.254 . S
C170 O184 1.236 . S
C170 O185 1.266 . S
C171 Tb161 2.809 . S
C171 C172 1.514 . S
C171 O186 1.248 . S
C171 O187 1.266 . S
C172 C171 1.514 . S
C172 C173 1.359 . S
C172 C177 1.348 . S
C173 C172 1.359 . S
C173 C174 1.380 . S
C173 H196 0.929 . S
C174 C173 1.380 . S
C174 C175 1.347 . S
C174 H197 0.931 . S
C175 C174 1.347 . S
C175 C176 1.369 . S
C176 C175 1.369 . S
C176 C177 1.408 . S
C176 H198 0.930 . S
C177 C172 1.348 . S
C177 C176 1.408 . S
C177 H199 0.930 . S
C178 O188 1.281 . S
C178 O189 1.254 . S
C179 O190 1.236 . S
C179 O191 1.266 . S
O180 Tb160 2.484 . S
O180 C162 1.248 . S
O181 Tb160 2.440 . S
O181 C162 1.266 . S
O182 Tb160 2.658 . S
O182 Tb161 2.325 . S
O182 C169 1.281 . S
O183 Tb160 2.409 . S
O183 C169 1.254 . S
O184 Tb160 2.378 . S
O184 C170 1.236 . S
O185 Tb161 2.341 . S
O185 C170 1.266 . S
O186 Tb161 2.484 . S
O186 C171 1.248 . S
O187 Tb161 2.440 . S
O187 C171 1.266 . S
O188 Tb160 2.325 . S
O188 Tb161 2.658 . S
O188 C178 1.281 . S
O189 Tb161 2.409 . S
O189 C178 1.254 . S
O190 Tb161 2.378 . S
O190 C179 1.236 . S
O191 Tb160 2.341 . S
O191 C179 1.266 . S
H192 C164 0.929 . S
H193 C165 0.931 . S
H194 C167 0.930 . S
H195 C168 0.930 . S
H196 C173 0.929 . S
H197 C174 0.931 . S
H198 C176 0.930 . S
H199 C177 0.930 . S
Tb200 C202 2.809 1_556 S
Tb200 O220 2.484 . S
Tb200 O221 2.440 . S
Tb200 O222 2.658 . S
Tb200 O223 2.409 . S
Tb200 O224 2.378 . S
Tb200 O228 2.325 . S
Tb200 O231 2.341 . S
Tb201 C211 2.809 . S
Tb201 O222 2.325 . S
Tb201 O225 2.341 . S
Tb201 O226 2.484 . S
Tb201 O227 2.440 . S
Tb201 O228 2.658 . S
Tb201 O229 2.409 . S
Tb201 O230 2.378 . S
C202 Tb200 2.809 1_554 S
C202 C203 1.514 . S
C202 O220 1.248 1_554 S
C202 O221 1.266 1_554 S
C203 C202 1.514 . S
C203 C204 1.359 . S
C203 C208 1.348 . S
C204 C203 1.359 . S
C204 C205 1.380 . S
C204 H232 0.929 . S
C205 C204 1.380 . S
C205 C206 1.347 . S
C205 H233 0.931 . S
C206 C205 1.347 . S
C206 C207 1.369 . S
C207 C206 1.369 . S
C207 C208 1.408 . S
C207 H234 0.930 . S
C208 C203 1.348 . S
C208 C207 1.408 . S
C208 H235 0.930 . S
C209 O222 1.281 . S
C209 O223 1.254 . S
C210 O224 1.236 . S
C210 O225 1.266 . S
C211 Tb201 2.809 . S
C211 C212 1.514 . S
C211 O226 1.248 . S
C211 O227 1.266 . S
C212 C211 1.514 . S
C212 C213 1.359 . S
C212 C217 1.348 . S
C213 C212 1.359 . S
C213 C214 1.380 . S
C213 H236 0.929 . S
C214 C213 1.380 . S
C214 C215 1.347 . S
C214 H237 0.931 . S
C215 C214 1.347 . S
C215 C216 1.369 . S
C216 C215 1.369 . S
C216 C217 1.408 . S
C216 H238 0.930 . S
C217 C212 1.348 . S
C217 C216 1.408 . S
C217 H239 0.930 . S
C218 O228 1.281 . S
C218 O229 1.254 . S
C219 O230 1.236 . S
C219 O231 1.266 . S
O220 Tb200 2.484 . S
O220 C202 1.248 1_556 S
O221 Tb200 2.440 . S
O221 C202 1.266 1_556 S
O222 Tb200 2.658 . S
O222 Tb201 2.325 . S
O222 C209 1.281 . S
O223 Tb200 2.409 . S
O223 C209 1.254 . S
O224 Tb200 2.378 . S
O224 C210 1.236 . S
O225 Tb201 2.341 . S
O225 C210 1.266 . S
O226 Tb201 2.484 . S
O226 C211 1.248 . S
O227 Tb201 2.440 . S
O227 C211 1.266 . S
O228 Tb200 2.325 . S
O228 Tb201 2.658 . S
O228 C218 1.281 . S
O229 Tb201 2.409 . S
O229 C218 1.254 . S
O230 Tb201 2.378 . S
O230 C219 1.236 . S
O231 Tb200 2.341 . S
O231 C219 1.266 . S
H232 C204 0.929 . S
H233 C205 0.931 . S
H234 C207 0.930 . S
H235 C208 0.930 . S
H236 C213 0.929 . S
H237 C214 0.931 . S
H238 C216 0.930 . S
H239 C217 0.930 . S
Tb240 C242 2.809 . S
Tb240 O260 2.484 . S
Tb240 O261 2.440 . S
Tb240 O262 2.658 . S
Tb240 O263 2.409 . S
Tb240 O264 2.378 . S
Tb240 O268 2.325 . S
Tb240 O271 2.341 . S
Tb241 C251 2.809 . S
Tb241 O262 2.325 . S
Tb241 O265 2.341 . S
Tb241 O266 2.484 . S
Tb241 O267 2.440 . S
Tb241 O268 2.658 . S
Tb241 O269 2.409 . S
Tb241 O270 2.378 . S
C242 Tb240 2.809 . S
C242 C243 1.514 . S
C242 O260 1.248 . S
C242 O261 1.266 . S
C243 C242 1.514 . S
C243 C244 1.359 . S
C243 C248 1.348 . S
C244 C243 1.359 . S
C244 C245 1.380 . S
C244 H272 0.929 . S
C245 C244 1.380 . S
C245 C246 1.347 . S
C245 H273 0.931 . S
C246 C245 1.347 . S
C246 C247 1.369 . S
C247 C246 1.369 . S
C247 C248 1.408 . S
C247 H274 0.930 . S
C248 C243 1.348 . S
C248 C247 1.408 . S
C248 H275 0.930 . S
C249 O262 1.281 . S
C249 O263 1.254 . S
C250 O264 1.236 . S
C250 O265 1.266 . S
C251 Tb241 2.809 . S
C251 C252 1.514 . S
C251 O266 1.248 . S
C251 O267 1.266 . S
C252 C251 1.514 . S
C252 C253 1.359 1_554 S
C252 C257 1.348 . S
C253 C252 1.359 1_556 S
C253 C254 1.380 . S
C253 H276 0.929 1_556 S
C254 C253 1.380 . S
C254 C255 1.347 . S
C254 H277 0.931 . S
C255 C254 1.347 . S
C255 C256 1.369 . S
C256 C255 1.369 . S
C256 C257 1.408 1_556 S
C256 H278 0.930 . S
C257 C252 1.348 . S
C257 C256 1.408 1_554 S
C257 H279 0.930 . S
C258 O268 1.281 . S
C258 O269 1.254 . S
C259 O270 1.236 . S
C259 O271 1.266 . S
O260 Tb240 2.484 . S
O260 C242 1.248 . S
O261 Tb240 2.440 . S
O261 C242 1.266 . S
O262 Tb240 2.658 . S
O262 Tb241 2.325 . S
O262 C249 1.281 . S
O263 Tb240 2.409 . S
O263 C249 1.254 . S
O264 Tb240 2.378 . S
O264 C250 1.236 . S
O265 Tb241 2.341 . S
O265 C250 1.266 . S
O266 Tb241 2.484 . S
O266 C251 1.248 . S
O267 Tb241 2.440 . S
O267 C251 1.266 . S
O268 Tb240 2.325 . S
O268 Tb241 2.658 . S
O268 C258 1.281 . S
O269 Tb241 2.409 . S
O269 C258 1.254 . S
O270 Tb241 2.378 . S
O270 C259 1.236 . S
O271 Tb240 2.341 . S
O271 C259 1.266 . S
H272 C244 0.929 . S
H273 C245 0.931 . S
H274 C247 0.930 . S
H275 C248 0.930 . S
H276 C253 0.929 1_554 S
H277 C254 0.931 . S
H278 C256 0.930 . S
H279 C257 0.930 . S
Tb280 C282 2.809 . S
Tb280 O300 2.484 . S
Tb280 O301 2.440 . S
Tb280 O302 2.658 . S
Tb280 O303 2.409 . S
Tb280 O304 2.378 . S
Tb280 O308 2.325 . S
Tb280 O311 2.341 . S
Tb281 C291 2.809 . S
Tb281 O302 2.325 . S
Tb281 O305 2.341 . S
Tb281 O306 2.484 . S
Tb281 O307 2.440 . S
Tb281 O308 2.658 . S
Tb281 O309 2.409 . S
Tb281 O310 2.378 . S
C282 Tb280 2.809 . S
C282 C283 1.514 . S
C282 O300 1.248 . S
C282 O301 1.266 . S
C283 C282 1.514 . S
C283 C284 1.359 . S
C283 C288 1.348 . S
C284 C283 1.359 . S
C284 C285 1.380 . S
C284 H312 0.929 . S
C285 C284 1.380 . S
C285 C286 1.347 . S
C285 H313 0.931 . S
C286 C285 1.347 . S
C286 C287 1.369 . S
C287 C286 1.369 . S
C287 C288 1.408 . S
C287 H314 0.930 . S
C288 C283 1.348 . S
C288 C287 1.408 . S
C288 H315 0.930 . S
C289 O302 1.281 . S
C289 O303 1.254 . S
C290 O304 1.236 . S
C290 O305 1.266 . S
C291 Tb281 2.809 . S
C291 C292 1.514 . S
C291 O306 1.248 . S
C291 O307 1.266 . S
C292 C291 1.514 . S
C292 C293 1.359 . S
C292 C297 1.348 . S
C293 C292 1.359 . S
C293 C294 1.380 . S
C293 H316 0.929 . S
C294 C293 1.380 . S
C294 C295 1.347 . S
C294 H317 0.931 . S
C295 C294 1.347 . S
C295 C296 1.369 . S
C296 C295 1.369 . S
C296 C297 1.408 . S
C296 H318 0.930 . S
C297 C292 1.348 . S
C297 C296 1.408 . S
C297 H319 0.930 . S
C298 O308 1.281 . S
C298 O309 1.254 . S
C299 O310 1.236 . S
C299 O311 1.266 . S
O300 Tb280 2.484 . S
O300 C282 1.248 . S
O301 Tb280 2.440 . S
O301 C282 1.266 . S
O302 Tb280 2.658 . S
O302 Tb281 2.325 . S
O302 C289 1.281 . S
O303 Tb280 2.409 . S
O303 C289 1.254 . S
O304 Tb280 2.378 . S
O304 C290 1.236 . S
O305 Tb281 2.341 . S
O305 C290 1.266 . S
O306 Tb281 2.484 . S
O306 C291 1.248 . S
O307 Tb281 2.440 . S
O307 C291 1.266 . S
O308 Tb280 2.325 . S
O308 Tb281 2.658 . S
O308 C298 1.281 . S
O309 Tb281 2.409 . S
O309 C298 1.254 . S
O310 Tb281 2.378 . S
O310 C299 1.236 . S
O311 Tb280 2.341 . S
O311 C299 1.266 . S
H312 C284 0.929 . S
H313 C285 0.931 . S
H314 C287 0.930 . S
H315 C288 0.930 . S
H316 C293 0.929 . S
H317 C294 0.931 . S
H318 C296 0.930 . S
H319 C297 0.930 . S
Tb320 C322 2.809 . S
Tb320 O340 2.484 . S
Tb320 O341 2.440 . S
Tb320 O342 2.658 . S
Tb320 O343 2.409 . S
Tb320 O344 2.378 . S
Tb320 O348 2.325 . S
Tb320 O351 2.341 . S
Tb321 C331 2.809 . S
Tb321 O342 2.325 . S
Tb321 O345 2.341 . S
Tb321 O346 2.484 . S
Tb321 O347 2.440 . S
Tb321 O348 2.658 . S
Tb321 O349 2.409 . S
Tb321 O350 2.378 . S
C322 Tb320 2.809 . S
C322 C323 1.514 . S
C322 O340 1.248 . S
C322 O341 1.266 . S
C323 C322 1.514 . S
C323 C324 1.359 1_554 S
C323 C328 1.348 . S
C324 C323 1.359 1_556 S
C324 C325 1.380 . S
C324 H352 0.929 1_556 S
C325 C324 1.380 . S
C325 C326 1.347 . S
C325 H353 0.931 . S
C326 C325 1.347 . S
C326 C327 1.369 . S
C327 C326 1.369 . S
C327 C328 1.408 1_556 S
C327 H354 0.930 . S
C328 C323 1.348 . S
C328 C327 1.408 1_554 S
C328 H355 0.930 . S
C329 O342 1.281 . S
C329 O343 1.254 . S
C330 O344 1.236 . S
C330 O345 1.266 . S
C331 Tb321 2.809 . S
C331 C332 1.514 . S
C331 O346 1.248 . S
C331 O347 1.266 . S
C332 C331 1.514 . S
C332 C333 1.359 . S
C332 C337 1.348 . S
C333 C332 1.359 . S
C333 C334 1.380 . S
C333 H356 0.929 . S
C334 C333 1.380 . S
C334 C335 1.347 . S
C334 H357 0.931 . S
C335 C334 1.347 . S
C335 C336 1.369 . S
C336 C335 1.369 . S
C336 C337 1.408 . S
C336 H358 0.930 . S
C337 C332 1.348 . S
C337 C336 1.408 . S
C337 H359 0.930 . S
C338 O348 1.281 . S
C338 O349 1.254 . S
C339 O350 1.236 . S
C339 O351 1.266 . S
O340 Tb320 2.484 . S
O340 C322 1.248 . S
O341 Tb320 2.440 . S
O341 C322 1.266 . S
O342 Tb320 2.658 . S
O342 Tb321 2.325 . S
O342 C329 1.281 . S
O343 Tb320 2.409 . S
O343 C329 1.254 . S
O344 Tb320 2.378 . S
O344 C330 1.236 . S
O345 Tb321 2.341 . S
O345 C330 1.266 . S
O346 Tb321 2.484 . S
O346 C331 1.248 . S
O347 Tb321 2.440 . S
O347 C331 1.266 . S
O348 Tb320 2.325 . S
O348 Tb321 2.658 . S
O348 C338 1.281 . S
O349 Tb321 2.409 . S
O349 C338 1.254 . S
O350 Tb321 2.378 . S
O350 C339 1.236 . S
O351 Tb320 2.341 . S
O351 C339 1.266 . S
H352 C324 0.929 1_554 S
H353 C325 0.931 . S
H354 C327 0.930 . S
H355 C328 0.930 . S
H356 C333 0.929 . S
H357 C334 0.931 . S
H358 C336 0.930 . S
H359 C337 0.930 . S
Tb360 C362 2.809 . S
Tb360 O380 2.484 . S
Tb360 O381 2.440 . S
Tb360 O382 2.658 . S
Tb360 O383 2.409 . S
Tb360 O384 2.378 . S
Tb360 O388 2.325 . S
Tb360 O391 2.341 . S
Tb361 C371 2.809 1_556 S
Tb361 O382 2.325 . S
Tb361 O385 2.341 . S
Tb361 O386 2.484 . S
Tb361 O387 2.440 . S
Tb361 O388 2.658 . S
Tb361 O389 2.409 . S
Tb361 O390 2.378 . S
C362 Tb360 2.809 . S
C362 C363 1.514 . S
C362 O380 1.248 . S
C362 O381 1.266 . S
C363 C362 1.514 . S
C363 C364 1.359 . S
C363 C368 1.348 . S
C364 C363 1.359 . S
C364 C365 1.380 . S
C364 H392 0.929 . S
C365 C364 1.380 . S
C365 C366 1.347 . S
C365 H393 0.931 . S
C366 C365 1.347 . S
C366 C367 1.369 . S
C367 C366 1.369 . S
C367 C368 1.408 . S
C367 H394 0.930 . S
C368 C363 1.348 . S
C368 C367 1.408 . S
C368 H395 0.930 . S
C369 O382 1.281 . S
C369 O383 1.254 . S
C370 O384 1.236 . S
C370 O385 1.266 . S
C371 Tb361 2.809 1_554 S
C371 C372 1.514 . S
C371 O386 1.248 1_554 S
C371 O387 1.266 1_554 S
C372 C371 1.514 . S
C372 C373 1.359 . S
C372 C377 1.348 . S
C373 C372 1.359 . S
C373 C374 1.380 . S
C373 H396 0.929 . S
C374 C373 1.380 . S
C374 C375 1.347 . S
C374 H397 0.931 . S
C375 C374 1.347 . S
C375 C376 1.369 . S
C376 C375 1.369 . S
C376 C377 1.408 . S
C376 H398 0.930 . S
C377 C372 1.348 . S
C377 C376 1.408 . S
C377 H399 0.930 . S
C378 O388 1.281 . S
C378 O389 1.254 . S
C379 O390 1.236 . S
C379 O391 1.266 . S
O380 Tb360 2.484 . S
O380 C362 1.248 . S
O381 Tb360 2.440 . S
O381 C362 1.266 . S
O382 Tb360 2.658 . S
O382 Tb361 2.325 . S
O382 C369 1.281 . S
O383 Tb360 2.409 . S
O383 C369 1.254 . S
O384 Tb360 2.378 . S
O384 C370 1.236 . S
O385 Tb361 2.341 . S
O385 C370 1.266 . S
O386 Tb361 2.484 . S
O386 C371 1.248 1_556 S
O387 Tb361 2.440 . S
O387 C371 1.266 1_556 S
O388 Tb360 2.325 . S
O388 Tb361 2.658 . S
O388 C378 1.281 . S
O389 Tb361 2.409 . S
O389 C378 1.254 . S
O390 Tb361 2.378 . S
O390 C379 1.236 . S
O391 Tb360 2.341 . S
O391 C379 1.266 . S
H392 C364 0.929 . S
H393 C365 0.931 . S
H394 C367 0.930 . S
H395 C368 0.930 . S
H396 C373 0.929 . S
H397 C374 0.931 . S
H398 C376 0.930 . S
H399 C377 0.930 . S
Tb400 C402 2.809 . S
Tb400 O420 2.484 . S
Tb400 O421 2.440 . S
Tb400 O422 2.658 . S
Tb400 O423 2.409 . S
Tb400 O424 2.378 . S
Tb400 O428 2.325 . S
Tb400 O431 2.341 . S
Tb401 C411 2.809 . S
Tb401 O422 2.325 . S
Tb401 O425 2.341 . S
Tb401 O426 2.484 . S
Tb401 O427 2.440 . S
Tb401 O428 2.658 . S
Tb401 O429 2.409 . S
Tb401 O430 2.378 . S
C402 Tb400 2.809 . S
C402 C403 1.514 . S
C402 O420 1.248 . S
C402 O421 1.266 . S
C403 C402 1.514 . S
C403 C404 1.359 . S
C403 C408 1.348 . S
C404 C403 1.359 . S
C404 C405 1.380 . S
C404 H432 0.929 . S
C405 C404 1.380 . S
C405 C406 1.347 . S
C405 H433 0.931 . S
C406 C405 1.347 . S
C406 C407 1.369 . S
C407 C406 1.369 . S
C407 C408 1.408 . S
C407 H434 0.930 . S
C408 C403 1.348 . S
C408 C407 1.408 . S
C408 H435 0.930 . S
C409 O422 1.281 . S
C409 O423 1.254 . S
C410 O424 1.236 . S
C410 O425 1.266 . S
C411 Tb401 2.809 . S
C411 C412 1.514 . S
C411 O426 1.248 . S
C411 O427 1.266 . S
C412 C411 1.514 . S
C412 C413 1.359 . S
C412 C417 1.348 . S
C413 C412 1.359 . S
C413 C414 1.380 . S
C413 H436 0.929 . S
C414 C413 1.380 . S
C414 C415 1.347 . S
C414 H437 0.931 . S
C415 C414 1.347 . S
C415 C416 1.369 . S
C416 C415 1.369 . S
C416 C417 1.408 . S
C416 H438 0.930 . S
C417 C412 1.348 . S
C417 C416 1.408 . S
C417 H439 0.930 . S
C418 O428 1.281 . S
C418 O429 1.254 . S
C419 O430 1.236 . S
C419 O431 1.266 . S
O420 Tb400 2.484 . S
O420 C402 1.248 . S
O421 Tb400 2.440 . S
O421 C402 1.266 . S
O422 Tb400 2.658 . S
O422 Tb401 2.325 . S
O422 C409 1.281 . S
O423 Tb400 2.409 . S
O423 C409 1.254 . S
O424 Tb400 2.378 . S
O424 C410 1.236 . S
O425 Tb401 2.341 . S
O425 C410 1.266 . S
O426 Tb401 2.484 . S
O426 C411 1.248 . S
O427 Tb401 2.440 . S
O427 C411 1.266 . S
O428 Tb400 2.325 . S
O428 Tb401 2.658 . S
O428 C418 1.281 . S
O429 Tb401 2.409 . S
O429 C418 1.254 . S
O430 Tb401 2.378 . S
O430 C419 1.236 . S
O431 Tb400 2.341 . S
O431 C419 1.266 . S
H432 C404 0.929 . S
H433 C405 0.931 . S
H434 C407 0.930 . S
H435 C408 0.930 . S
H436 C413 0.929 . S
H437 C414 0.931 . S
H438 C416 0.930 . S
H439 C417 0.930 . S
Tb440 C442 2.809 . S
Tb440 O460 2.484 . S
Tb440 O461 2.440 . S
Tb440 O462 2.658 . S
Tb440 O463 2.409 . S
Tb440 O464 2.378 . S
Tb440 O468 2.325 . S
Tb440 O471 2.341 . S
Tb441 C451 2.809 . S
Tb441 O462 2.325 . S
Tb441 O465 2.341 . S
Tb441 O466 2.484 . S
Tb441 O467 2.440 . S
Tb441 O468 2.658 . S
Tb441 O469 2.409 . S
Tb441 O470 2.378 . S
C442 Tb440 2.809 . S
C442 C443 1.514 . S
C442 O460 1.248 . S
C442 O461 1.266 . S
C443 C442 1.514 . S
C443 C444 1.359 . S
C443 C448 1.348 . S
C444 C443 1.359 . S
C444 C445 1.380 . S
C444 H472 0.929 . S
C445 C444 1.380 . S
C445 C446 1.347 . S
C445 H473 0.931 . S
C446 C445 1.347 . S
C446 C447 1.369 . S
C447 C446 1.369 . S
C447 C448 1.408 . S
C447 H474 0.930 . S
C448 C443 1.348 . S
C448 C447 1.408 . S
C448 H475 0.930 . S
C449 O462 1.281 . S
C449 O463 1.254 . S
C450 O464 1.236 . S
C450 O465 1.266 . S
C451 Tb441 2.809 . S
C451 C452 1.514 . S
C451 O466 1.248 . S
C451 O467 1.266 . S
C452 C451 1.514 . S
C452 C453 1.359 . S
C452 C457 1.348 . S
C453 C452 1.359 . S
C453 C454 1.380 . S
C453 H476 0.929 . S
C454 C453 1.380 . S
C454 C455 1.347 . S
C454 H477 0.931 . S
C455 C454 1.347 . S
C455 C456 1.369 . S
C456 C455 1.369 . S
C456 C457 1.408 . S
C456 H478 0.930 . S
C457 C452 1.348 . S
C457 C456 1.408 . S
C457 H479 0.930 . S
C458 O468 1.281 . S
C458 O469 1.254 . S
C459 O470 1.236 . S
C459 O471 1.266 . S
O460 Tb440 2.484 . S
O460 C442 1.248 . S
O461 Tb440 2.440 . S
O461 C442 1.266 . S
O462 Tb440 2.658 . S
O462 Tb441 2.325 . S
O462 C449 1.281 . S
O463 Tb440 2.409 . S
O463 C449 1.254 . S
O464 Tb440 2.378 . S
O464 C450 1.236 . S
O465 Tb441 2.341 . S
O465 C450 1.266 . S
O466 Tb441 2.484 . S
O466 C451 1.248 . S
O467 Tb441 2.440 . S
O467 C451 1.266 . S
O468 Tb440 2.325 . S
O468 Tb441 2.658 . S
O468 C458 1.281 . S
O469 Tb441 2.409 . S
O469 C458 1.254 . S
O470 Tb441 2.378 . S
O470 C459 1.236 . S
O471 Tb440 2.341 . S
O471 C459 1.266 . S
H472 C444 0.929 . S
H473 C445 0.931 . S
H474 C447 0.930 . S
H475 C448 0.930 . S
H476 C453 0.929 . S
H477 C454 0.931 . S
H478 C456 0.930 . S
H479 C457 0.930 . S
Tb480 C482 2.809 . S
Tb480 O500 2.484 . S
Tb480 O501 2.440 . S
Tb480 O502 2.658 . S
Tb480 O503 2.409 . S
Tb480 O504 2.378 . S
Tb480 O508 2.325 . S
Tb480 O511 2.341 . S
Tb481 C491 2.809 . S
Tb481 O502 2.325 . S
Tb481 O505 2.341 . S
Tb481 O506 2.484 . S
Tb481 O507 2.440 . S
Tb481 O508 2.658 . S
Tb481 O509 2.409 . S
Tb481 O510 2.378 . S
C482 Tb480 2.809 . S
C482 C483 1.514 . S
C482 O500 1.248 . S
C482 O501 1.266 . S
C483 C482 1.514 . S
C483 C484 1.359 . S
C483 C488 1.348 . S
C484 C483 1.359 . S
C484 C485 1.380 . S
C484 H512 0.929 . S
C485 C484 1.380 . S
C485 C486 1.347 . S
C485 H513 0.931 . S
C486 C485 1.347 . S
C486 C487 1.369 . S
C487 C486 1.369 . S
C487 C488 1.408 . S
C487 H514 0.930 . S
C488 C483 1.348 . S
C488 C487 1.408 . S
C488 H515 0.930 . S
C489 O502 1.281 . S
C489 O503 1.254 . S
C490 O504 1.236 . S
C490 O505 1.266 . S
C491 Tb481 2.809 . S
C491 C492 1.514 . S
C491 O506 1.248 . S
C491 O507 1.266 . S
C492 C491 1.514 . S
C492 C493 1.359 . S
C492 C497 1.348 . S
C493 C492 1.359 . S
C493 C494 1.380 . S
C493 H516 0.929 . S
C494 C493 1.380 . S
C494 C495 1.347 . S
C494 H517 0.931 . S
C495 C494 1.347 . S
C495 C496 1.369 . S
C496 C495 1.369 . S
C496 C497 1.408 . S
C496 H518 0.930 . S
C497 C492 1.348 . S
C497 C496 1.408 . S
C497 H519 0.930 . S
C498 O508 1.281 . S
C498 O509 1.254 . S
C499 O510 1.236 . S
C499 O511 1.266 . S
O500 Tb480 2.484 . S
O500 C482 1.248 . S
O501 Tb480 2.440 . S
O501 C482 1.266 . S
O502 Tb480 2.658 . S
O502 Tb481 2.325 . S
O502 C489 1.281 . S
O503 Tb480 2.409 . S
O503 C489 1.254 . S
O504 Tb480 2.378 . S
O504 C490 1.236 . S
O505 Tb481 2.341 . S
O505 C490 1.266 . S
O506 Tb481 2.484 . S
O506 C491 1.248 . S
O507 Tb481 2.440 . S
O507 C491 1.266 . S
O508 Tb480 2.325 . S
O508 Tb481 2.658 . S
O508 C498 1.281 . S
O509 Tb481 2.409 . S
O509 C498 1.254 . S
O510 Tb481 2.378 . S
O510 C499 1.236 . S
O511 Tb480 2.341 . S
O511 C499 1.266 . S
H512 C484 0.929 . S
H513 C485 0.931 . S
H514 C487 0.930 . S
H515 C488 0.930 . S
H516 C493 0.929 . S
H517 C494 0.931 . S
H518 C496 0.930 . S
H519 C497 0.930 . S
Tb520 C522 2.809 . S
Tb520 O540 2.484 . S
Tb520 O541 2.440 . S
Tb520 O542 2.658 . S
Tb520 O543 2.409 . S
Tb520 O544 2.378 . S
Tb520 O548 2.325 . S
Tb520 O551 2.341 . S
Tb521 C531 2.809 . S
Tb521 O542 2.325 . S
Tb521 O545 2.341 . S
Tb521 O546 2.484 . S
Tb521 O547 2.440 . S
Tb521 O548 2.658 . S
Tb521 O549 2.409 . S
Tb521 O550 2.378 . S
C522 Tb520 2.809 . S
C522 C523 1.514 . S
C522 O540 1.248 . S
C522 O541 1.266 . S
C523 C522 1.514 . S
C523 C524 1.359 . S
C523 C528 1.348 . S
C524 C523 1.359 . S
C524 C525 1.380 . S
C524 H552 0.929 . S
C525 C524 1.380 . S
C525 C526 1.347 . S
C525 H553 0.931 . S
C526 C525 1.347 . S
C526 C527 1.369 . S
C527 C526 1.369 . S
C527 C528 1.408 . S
C527 H554 0.930 . S
C528 C523 1.348 . S
C528 C527 1.408 . S
C528 H555 0.930 . S
C529 O542 1.281 . S
C529 O543 1.254 . S
C530 O544 1.236 . S
C530 O545 1.266 . S
C531 Tb521 2.809 . S
C531 C532 1.514 . S
C531 O546 1.248 . S
C531 O547 1.266 . S
C532 C531 1.514 . S
C532 C533 1.359 . S
C532 C537 1.348 . S
C533 C532 1.359 . S
C533 C534 1.380 . S
C533 H556 0.929 . S
C534 C533 1.380 . S
C534 C535 1.347 . S
C534 H557 0.931 . S
C535 C534 1.347 . S
C535 C536 1.369 . S
C536 C535 1.369 . S
C536 C537 1.408 . S
C536 H558 0.930 . S
C537 C532 1.348 . S
C537 C536 1.408 . S
C537 H559 0.930 . S
C538 O548 1.281 . S
C538 O549 1.254 . S
C539 O550 1.236 . S
C539 O551 1.266 . S
O540 Tb520 2.484 . S
O540 C522 1.248 . S
O541 Tb520 2.440 . S
O541 C522 1.266 . S
O542 Tb520 2.658 . S
O542 Tb521 2.325 . S
O542 C529 1.281 . S
O543 Tb520 2.409 . S
O543 C529 1.254 . S
O544 Tb520 2.378 . S
O544 C530 1.236 . S
O545 Tb521 2.341 . S
O545 C530 1.266 . S
O546 Tb521 2.484 . S
O546 C531 1.248 . S
O547 Tb521 2.440 . S
O547 C531 1.266 . S
O548 Tb520 2.325 . S
O548 Tb521 2.658 . S
O548 C538 1.281 . S
O549 Tb521 2.409 . S
O549 C538 1.254 . S
O550 Tb521 2.378 . S
O550 C539 1.236 . S
O551 Tb520 2.341 . S
O551 C539 1.266 . S
H552 C524 0.929 . S
H553 C525 0.931 . S
H554 C527 0.930 . S
H555 C528 0.930 . S
H556 C533 0.929 . S
H557 C534 0.931 . S
H558 C536 0.930 . S
H559 C537 0.930 . S
Tb560 C562 2.809 . S
Tb560 O580 2.484 . S
Tb560 O581 2.440 . S
Tb560 O582 2.658 . S
Tb560 O583 2.409 . S
Tb560 O584 2.378 . S
Tb560 O588 2.325 . S
Tb560 O591 2.341 . S
Tb561 C571 2.809 . S
Tb561 O582 2.325 . S
Tb561 O585 2.341 . S
Tb561 O586 2.484 . S
Tb561 O587 2.440 . S
Tb561 O588 2.658 . S
Tb561 O589 2.409 . S
Tb561 O590 2.378 . S
C562 Tb560 2.809 . S
C562 C563 1.514 . S
C562 O580 1.248 . S
C562 O581 1.266 . S
C563 C562 1.514 . S
C563 C564 1.359 . S
C563 C568 1.348 . S
C564 C563 1.359 . S
C564 C565 1.380 . S
C564 H592 0.929 . S
C565 C564 1.380 . S
C565 C566 1.347 . S
C565 H593 0.931 . S
C566 C565 1.347 . S
C566 C567 1.369 . S
C567 C566 1.369 . S
C567 C568 1.408 . S
C567 H594 0.930 . S
C568 C563 1.348 . S
C568 C567 1.408 . S
C568 H595 0.930 . S
C569 O582 1.281 . S
C569 O583 1.254 . S
C570 O584 1.236 . S
C570 O585 1.266 . S
C571 Tb561 2.809 . S
C571 C572 1.514 1_554 S
C571 O586 1.248 . S
C571 O587 1.266 . S
C572 C571 1.514 1_556 S
C572 C573 1.359 . S
C572 C577 1.348 . S
C573 C572 1.359 . S
C573 C574 1.380 . S
C573 H596 0.929 . S
C574 C573 1.380 . S
C574 C575 1.347 . S
C574 H597 0.931 . S
C575 C574 1.347 . S
C575 C576 1.369 . S
C576 C575 1.369 . S
C576 C577 1.408 . S
C576 H598 0.930 . S
C577 C572 1.348 . S
C577 C576 1.408 . S
C577 H599 0.930 . S
C578 O588 1.281 . S
C578 O589 1.254 . S
C579 O590 1.236 . S
C579 O591 1.266 . S
O580 Tb560 2.484 . S
O580 C562 1.248 . S
O581 Tb560 2.440 . S
O581 C562 1.266 . S
O582 Tb560 2.658 . S
O582 Tb561 2.325 . S
O582 C569 1.281 . S
O583 Tb560 2.409 . S
O583 C569 1.254 . S
O584 Tb560 2.378 . S
O584 C570 1.236 . S
O585 Tb561 2.341 . S
O585 C570 1.266 . S
O586 Tb561 2.484 . S
O586 C571 1.248 . S
O587 Tb561 2.440 . S
O587 C571 1.266 . S
O588 Tb560 2.325 . S
O588 Tb561 2.658 . S
O588 C578 1.281 . S
O589 Tb561 2.409 . S
O589 C578 1.254 . S
O590 Tb561 2.378 . S
O590 C579 1.236 . S
O591 Tb560 2.341 . S
O591 C579 1.266 . S
H592 C564 0.929 . S
H593 C565 0.931 . S
H594 C567 0.930 . S
H595 C568 0.930 . S
H596 C573 0.929 . S
H597 C574 0.931 . S
H598 C576 0.930 . S
H599 C577 0.930 . S
Tb600 C602 2.809 . S
Tb600 O620 2.484 . S
Tb600 O621 2.440 . S
Tb600 O622 2.658 . S
Tb600 O623 2.409 . S
Tb600 O624 2.378 . S
Tb600 O628 2.325 . S
Tb600 O631 2.341 . S
Tb601 C611 2.809 . S
Tb601 O622 2.325 . S
Tb601 O625 2.341 . S
Tb601 O626 2.484 . S
Tb601 O627 2.440 . S
Tb601 O628 2.658 . S
Tb601 O629 2.409 . S
Tb601 O630 2.378 . S
C602 Tb600 2.809 . S
C602 C603 1.514 . S
C602 O620 1.248 . S
C602 O621 1.266 . S
C603 C602 1.514 . S
C603 C604 1.359 1_556 S
C603 C608 1.348 1_556 S
C604 C603 1.359 1_554 S
C604 C605 1.380 . S
C604 H632 0.929 . S
C605 C604 1.380 . S
C605 C606 1.347 . S
C605 H633 0.931 . S
C606 C605 1.347 . S
C606 C607 1.369 . S
C607 C606 1.369 . S
C607 C608 1.408 . S
C607 H634 0.930 . S
C608 C603 1.348 1_554 S
C608 C607 1.408 . S
C608 H635 0.930 1_554 S
C609 O622 1.281 . S
C609 O623 1.254 . S
C610 O624 1.236 . S
C610 O625 1.266 . S
C611 Tb601 2.809 . S
C611 C612 1.514 . S
C611 O626 1.248 . S
C611 O627 1.266 . S
C612 C611 1.514 . S
C612 C613 1.359 . S
C612 C617 1.348 . S
C613 C612 1.359 . S
C613 C614 1.380 . S
C613 H636 0.929 . S
C614 C613 1.380 . S
C614 C615 1.347 . S
C614 H637 0.931 . S
C615 C614 1.347 . S
C615 C616 1.369 . S
C616 C615 1.369 . S
C616 C617 1.408 . S
C616 H638 0.930 . S
C617 C612 1.348 . S
C617 C616 1.408 . S
C617 H639 0.930 . S
C618 O628 1.281 . S
C618 O629 1.254 . S
C619 O630 1.236 . S
C619 O631 1.266 . S
O620 Tb600 2.484 . S
O620 C602 1.248 . S
O621 Tb600 2.440 . S
O621 C602 1.266 . S
O622 Tb600 2.658 . S
O622 Tb601 2.325 . S
O622 C609 1.281 . S
O623 Tb600 2.409 . S
O623 C609 1.254 . S
O624 Tb600 2.378 . S
O624 C610 1.236 . S
O625 Tb601 2.341 . S
O625 C610 1.266 . S
O626 Tb601 2.484 . S
O626 C611 1.248 . S
O627 Tb601 2.440 . S
O627 C611 1.266 . S
O628 Tb600 2.325 . S
O628 Tb601 2.658 . S
O628 C618 1.281 . S
O629 Tb601 2.409 . S
O629 C618 1.254 . S
O630 Tb601 2.378 . S
O630 C619 1.236 . S
O631 Tb600 2.341 . S
O631 C619 1.266 . S
H632 C604 0.929 . S
H633 C605 0.931 . S
H634 C607 0.930 . S
H635 C608 0.930 1_556 S
H636 C613 0.929 . S
H637 C614 0.931 . S
H638 C616 0.930 . S
H639 C617 0.930 . S
Tb640 C642 2.809 . S
Tb640 O660 2.484 . S
Tb640 O661 2.440 . S
Tb640 O662 2.658 . S
Tb640 O663 2.409 . S
Tb640 O664 2.378 . S
Tb640 O668 2.325 . S
Tb640 O671 2.341 . S
Tb641 C651 2.809 . S
Tb641 O662 2.325 . S
Tb641 O665 2.341 . S
Tb641 O666 2.484 . S
Tb641 O667 2.440 . S
Tb641 O668 2.658 . S
Tb641 O669 2.409 . S
Tb641 O670 2.378 . S
C642 Tb640 2.809 . S
C642 C643 1.514 . S
C642 O660 1.248 . S
C642 O661 1.266 . S
C643 C642 1.514 . S
C643 C644 1.359 . S
C643 C648 1.348 . S
C644 C643 1.359 . S
C644 C645 1.380 . S
C644 H672 0.929 . S
C645 C644 1.380 . S
C645 C646 1.347 . S
C645 H673 0.931 . S
C646 C645 1.347 . S
C646 C647 1.369 . S
C647 C646 1.369 . S
C647 C648 1.408 . S
C647 H674 0.930 . S
C648 C643 1.348 . S
C648 C647 1.408 . S
C648 H675 0.930 . S
C649 O662 1.281 . S
C649 O663 1.254 . S
C650 O664 1.236 . S
C650 O665 1.266 . S
C651 Tb641 2.809 . S
C651 C652 1.514 . S
C651 O666 1.248 . S
C651 O667 1.266 . S
C652 C651 1.514 . S
C652 C653 1.359 . S
C652 C657 1.348 . S
C653 C652 1.359 . S
C653 C654 1.380 . S
C653 H676 0.929 . S
C654 C653 1.380 . S
C654 C655 1.347 . S
C654 H677 0.931 . S
C655 C654 1.347 . S
C655 C656 1.369 . S
C656 C655 1.369 . S
C656 C657 1.408 . S
C656 H678 0.930 1_565 S
C657 C652 1.348 . S
C657 C656 1.408 . S
C657 H679 0.930 . S
C658 O668 1.281 . S
C658 O669 1.254 . S
C659 O670 1.236 . S
C659 O671 1.266 . S
O660 Tb640 2.484 . S
O660 C642 1.248 . S
O661 Tb640 2.440 . S
O661 C642 1.266 . S
O662 Tb640 2.658 . S
O662 Tb641 2.325 . S
O662 C649 1.281 . S
O663 Tb640 2.409 . S
O663 C649 1.254 . S
O664 Tb640 2.378 . S
O664 C650 1.236 . S
O665 Tb641 2.341 . S
O665 C650 1.266 . S
O666 Tb641 2.484 . S
O666 C651 1.248 . S
O667 Tb641 2.440 . S
O667 C651 1.266 . S
O668 Tb640 2.325 . S
O668 Tb641 2.658 . S
O668 C658 1.281 . S
O669 Tb641 2.409 . S
O669 C658 1.254 . S
O670 Tb641 2.378 . S
O670 C659 1.236 . S
O671 Tb640 2.341 . S
O671 C659 1.266 . S
H672 C644 0.929 . S
H673 C645 0.931 . S
H674 C647 0.930 . S
H675 C648 0.930 . S
H676 C653 0.929 . S
H677 C654 0.931 . S
H678 C656 0.930 1_545 S
H679 C657 0.930 . S
Tb680 C682 2.809 . S
Tb680 O700 2.484 . S
Tb680 O701 2.440 . S
Tb680 O702 2.658 . S
Tb680 O703 2.409 . S
Tb680 O704 2.378 . S
Tb680 O708 2.325 . S
Tb680 O711 2.341 . S
Tb681 C691 2.809 . S
Tb681 O702 2.325 . S
Tb681 O705 2.341 . S
Tb681 O706 2.484 . S
Tb681 O707 2.440 . S
Tb681 O708 2.658 . S
Tb681 O709 2.409 . S
Tb681 O710 2.378 . S
C682 Tb680 2.809 . S
C682 C683 1.514 . S
C682 O700 1.248 . S
C682 O701 1.266 . S
C683 C682 1.514 . S
C683 C684 1.359 . S
C683 C688 1.348 . S
C684 C683 1.359 . S
C684 C685 1.380 . S
C684 H712 0.929 . S
C685 C684 1.380 . S
C685 C686 1.347 . S
C685 H713 0.931 . S
C686 C685 1.347 . S
C686 C687 1.369 . S
C687 C686 1.369 . S
C687 C688 1.408 . S
C687 H714 0.930 . S
C688 C683 1.348 . S
C688 C687 1.408 . S
C688 H715 0.930 . S
C689 O702 1.281 . S
C689 O703 1.254 . S
C690 O704 1.236 . S
C690 O705 1.266 . S
C691 Tb681 2.809 . S
C691 C692 1.514 . S
C691 O706 1.248 . S
C691 O707 1.266 . S
C692 C691 1.514 . S
C692 C693 1.359 1_556 S
C692 C697 1.348 1_556 S
C693 C692 1.359 1_554 S
C693 C694 1.380 . S
C693 H716 0.929 . S
C694 C693 1.380 . S
C694 C695 1.347 . S
C694 H717 0.931 . S
C695 C694 1.347 . S
C695 C696 1.369 . S
C696 C695 1.369 . S
C696 C697 1.408 . S
C696 H718 0.930 . S
C697 C692 1.348 1_554 S
C697 C696 1.408 . S
C697 H719 0.930 1_554 S
C698 O708 1.281 . S
C698 O709 1.254 . S
C699 O710 1.236 . S
C699 O711 1.266 . S
O700 Tb680 2.484 . S
O700 C682 1.248 . S
O701 Tb680 2.440 . S
O701 C682 1.266 . S
O702 Tb680 2.658 . S
O702 Tb681 2.325 . S
O702 C689 1.281 . S
O703 Tb680 2.409 . S
O703 C689 1.254 . S
O704 Tb680 2.378 . S
O704 C690 1.236 . S
O705 Tb681 2.341 . S
O705 C690 1.266 . S
O706 Tb681 2.484 . S
O706 C691 1.248 . S
O707 Tb681 2.440 . S
O707 C691 1.266 . S
O708 Tb680 2.325 . S
O708 Tb681 2.658 . S
O708 C698 1.281 . S
O709 Tb681 2.409 . S
O709 C698 1.254 . S
O710 Tb681 2.378 . S
O710 C699 1.236 . S
O711 Tb680 2.341 . S
O711 C699 1.266 . S
H712 C684 0.929 . S
H713 C685 0.931 . S
H714 C687 0.930 . S
H715 C688 0.930 . S
H716 C693 0.929 . S
H717 C694 0.931 . S
H718 C696 0.930 . S
H719 C697 0.930 1_556 S
Tb720 C722 2.809 . S
Tb720 O740 2.484 . S
Tb720 O741 2.440 . S
Tb720 O742 2.658 . S
Tb720 O743 2.409 . S
Tb720 O744 2.378 . S
Tb720 O748 2.325 . S
Tb720 O751 2.341 . S
Tb721 C731 2.809 . S
Tb721 O742 2.325 . S
Tb721 O745 2.341 . S
Tb721 O746 2.484 . S
Tb721 O747 2.440 . S
Tb721 O748 2.658 . S
Tb721 O749 2.409 . S
Tb721 O750 2.378 . S
C722 Tb720 2.809 . S
C722 C723 1.514 1_554 S
C722 O740 1.248 . S
C722 O741 1.266 . S
C723 C722 1.514 1_556 S
C723 C724 1.359 . S
C723 C728 1.348 . S
C724 C723 1.359 . S
C724 C725 1.380 . S
C724 H752 0.929 . S
C725 C724 1.380 . S
C725 C726 1.347 . S
C725 H753 0.931 . S
C726 C725 1.347 . S
C726 C727 1.369 . S
C727 C726 1.369 . S
C727 C728 1.408 . S
C727 H754 0.930 . S
C728 C723 1.348 . S
C728 C727 1.408 . S
C728 H755 0.930 . S
C729 O742 1.281 . S
C729 O743 1.254 . S
C730 O744 1.236 . S
C730 O745 1.266 . S
C731 Tb721 2.809 . S
C731 C732 1.514 . S
C731 O746 1.248 . S
C731 O747 1.266 . S
C732 C731 1.514 . S
C732 C733 1.359 . S
C732 C737 1.348 . S
C733 C732 1.359 . S
C733 C734 1.380 . S
C733 H756 0.929 . S
C734 C733 1.380 . S
C734 C735 1.347 . S
C734 H757 0.931 . S
C735 C734 1.347 . S
C735 C736 1.369 . S
C736 C735 1.369 . S
C736 C737 1.408 . S
C736 H758 0.930 1_545 S
C737 C732 1.348 . S
C737 C736 1.408 . S
C737 H759 0.930 . S
C738 O748 1.281 . S
C738 O749 1.254 . S
C739 O750 1.236 . S
C739 O751 1.266 . S
O740 Tb720 2.484 . S
O740 C722 1.248 . S
O741 Tb720 2.440 . S
O741 C722 1.266 . S
O742 Tb720 2.658 . S
O742 Tb721 2.325 . S
O742 C729 1.281 . S
O743 Tb720 2.409 . S
O743 C729 1.254 . S
O744 Tb720 2.378 . S
O744 C730 1.236 . S
O745 Tb721 2.341 . S
O745 C730 1.266 . S
O746 Tb721 2.484 . S
O746 C731 1.248 . S
O747 Tb721 2.440 . S
O747 C731 1.266 . S
O748 Tb720 2.325 . S
O748 Tb721 2.658 . S
O748 C738 1.281 . S
O749 Tb721 2.409 . S
O749 C738 1.254 . S
O750 Tb721 2.378 . S
O750 C739 1.236 . S
O751 Tb720 2.341 . S
O751 C739 1.266 . S
H752 C724 0.929 . S
H753 C725 0.931 . S
H754 C727 0.930 . S
H755 C728 0.930 . S
H756 C733 0.929 . S
H757 C734 0.931 . S
H758 C736 0.930 1_565 S
H759 C737 0.930 . S
Tb760 C762 2.809 . S
Tb760 O780 2.484 . S
Tb760 O781 2.440 . S
Tb760 O782 2.658 . S
Tb760 O783 2.409 . S
Tb760 O784 2.378 . S
Tb760 O788 2.325 . S
Tb760 O791 2.341 . S
Tb761 C771 2.809 . S
Tb761 O782 2.325 . S
Tb761 O785 2.341 . S
Tb761 O786 2.484 . S
Tb761 O787 2.440 . S
Tb761 O788 2.658 . S
Tb761 O789 2.409 . S
Tb761 O790 2.378 . S
C762 Tb760 2.809 . S
C762 C763 1.514 . S
C762 O780 1.248 . S
C762 O781 1.266 . S
C763 C762 1.514 . S
C763 C764 1.359 . S
C763 C768 1.348 . S
C764 C763 1.359 . S
C764 C765 1.380 . S
C764 H792 0.929 . S
C765 C764 1.380 . S
C765 C766 1.347 . S
C765 H793 0.931 . S
C766 C765 1.347 . S
C766 C767 1.369 . S
C767 C766 1.369 . S
C767 C768 1.408 . S
C767 H794 0.930 . S
C768 C763 1.348 . S
C768 C767 1.408 . S
C768 H795 0.930 . S
C769 O782 1.281 . S
C769 O783 1.254 . S
C770 O784 1.236 . S
C770 O785 1.266 . S
C771 Tb761 2.809 . S
C771 C772 1.514 . S
C771 O786 1.248 . S
C771 O787 1.266 . S
C772 C771 1.514 . S
C772 C773 1.359 . S
C772 C777 1.348 . S
C773 C772 1.359 . S
C773 C774 1.380 . S
C773 H796 0.929 . S
C774 C773 1.380 . S
C774 C775 1.347 . S
C774 H797 0.931 . S
C775 C774 1.347 . S
C775 C776 1.369 . S
C776 C775 1.369 . S
C776 C777 1.408 . S
C776 H798 0.930 . S
C777 C772 1.348 . S
C777 C776 1.408 . S
C777 H799 0.930 . S
C778 O788 1.281 . S
C778 O789 1.254 . S
C779 O790 1.236 . S
C779 O791 1.266 . S
O780 Tb760 2.484 . S
O780 C762 1.248 . S
O781 Tb760 2.440 . S
O781 C762 1.266 . S
O782 Tb760 2.658 . S
O782 Tb761 2.325 . S
O782 C769 1.281 . S
O783 Tb760 2.409 . S
O783 C769 1.254 . S
O784 Tb760 2.378 . S
O784 C770 1.236 . S
O785 Tb761 2.341 . S
O785 C770 1.266 . S
O786 Tb761 2.484 . S
O786 C771 1.248 . S
O787 Tb761 2.440 . S
O787 C771 1.266 . S
O788 Tb760 2.325 . S
O788 Tb761 2.658 . S
O788 C778 1.281 . S
O789 Tb761 2.409 . S
O789 C778 1.254 . S
O790 Tb761 2.378 . S
O790 C779 1.236 . S
O791 Tb760 2.341 . S
O791 C779 1.266 . S
H792 C764 0.929 . S
H793 C765 0.931 . S
H794 C767 0.930 . S
H795 C768 0.930 . S
H796 C773 0.929 . S
H797 C774 0.931 . S
H798 C776 0.930 . S
H799 C777 0.930 . S
Tb800 C802 2.809 . S
Tb800 O820 2.484 . S
Tb800 O821 2.440 . S
Tb800 O822 2.658 . S
Tb800 O823 2.409 . S
Tb800 O824 2.378 . S
Tb800 O828 2.325 . S
Tb800 O831 2.341 . S
Tb801 C811 2.809 . S
Tb801 O822 2.325 . S
Tb801 O825 2.341 . S
Tb801 O826 2.484 . S
Tb801 O827 2.440 . S
Tb801 O828 2.658 . S
Tb801 O829 2.409 . S
Tb801 O830 2.378 . S
C802 Tb800 2.809 . S
C802 C803 1.514 . S
C802 O820 1.248 . S
C802 O821 1.266 . S
C803 C802 1.514 . S
C803 C804 1.359 . S
C803 C808 1.348 . S
C804 C803 1.359 . S
C804 C805 1.380 . S
C804 H832 0.929 . S
C805 C804 1.380 . S
C805 C806 1.347 . S
C805 H833 0.931 . S
C806 C805 1.347 . S
C806 C807 1.369 . S
C807 C806 1.369 . S
C807 C808 1.408 . S
C807 H834 0.930 . S
C808 C803 1.348 . S
C808 C807 1.408 . S
C808 H835 0.930 . S
C809 O822 1.281 . S
C809 O823 1.254 . S
C810 O824 1.236 . S
C810 O825 1.266 . S
C811 Tb801 2.809 . S
C811 C812 1.514 . S
C811 O826 1.248 . S
C811 O827 1.266 . S
C812 C811 1.514 . S
C812 C813 1.359 1_554 S
C812 C817 1.348 . S
C813 C812 1.359 1_556 S
C813 C814 1.380 . S
C813 H836 0.929 1_556 S
C814 C813 1.380 . S
C814 C815 1.347 . S
C814 H837 0.931 . S
C815 C814 1.347 . S
C815 C816 1.369 . S
C816 C815 1.369 . S
C816 C817 1.408 1_556 S
C816 H838 0.930 1_545 S
C817 C812 1.348 . S
C817 C816 1.408 1_554 S
C817 H839 0.930 . S
C818 O828 1.281 . S
C818 O829 1.254 . S
C819 O830 1.236 . S
C819 O831 1.266 . S
O820 Tb800 2.484 . S
O820 C802 1.248 . S
O821 Tb800 2.440 . S
O821 C802 1.266 . S
O822 Tb800 2.658 . S
O822 Tb801 2.325 . S
O822 C809 1.281 . S
O823 Tb800 2.409 . S
O823 C809 1.254 . S
O824 Tb800 2.378 . S
O824 C810 1.236 . S
O825 Tb801 2.341 . S
O825 C810 1.266 . S
O826 Tb801 2.484 . S
O826 C811 1.248 . S
O827 Tb801 2.440 . S
O827 C811 1.266 . S
O828 Tb800 2.325 . S
O828 Tb801 2.658 . S
O828 C818 1.281 . S
O829 Tb801 2.409 . S
O829 C818 1.254 . S
O830 Tb801 2.378 . S
O830 C819 1.236 . S
O831 Tb800 2.341 . S
O831 C819 1.266 . S
H832 C804 0.929 . S
H833 C805 0.931 . S
H834 C807 0.930 . S
H835 C808 0.930 . S
H836 C813 0.929 1_554 S
H837 C814 0.931 . S
H838 C816 0.930 1_565 S
H839 C817 0.930 . S
Tb840 C842 2.809 . S
Tb840 O860 2.484 . S
Tb840 O861 2.440 . S
Tb840 O862 2.658 . S
Tb840 O863 2.409 . S
Tb840 O864 2.378 . S
Tb840 O868 2.325 . S
Tb840 O871 2.341 . S
Tb841 C851 2.809 . S
Tb841 O862 2.325 . S
Tb841 O865 2.341 . S
Tb841 O866 2.484 . S
Tb841 O867 2.440 . S
Tb841 O868 2.658 . S
Tb841 O869 2.409 . S
Tb841 O870 2.378 . S
C842 Tb840 2.809 . S
C842 C843 1.514 . S
C842 O860 1.248 . S
C842 O861 1.266 . S
C843 C842 1.514 . S
C843 C844 1.359 . S
C843 C848 1.348 . S
C844 C843 1.359 . S
C844 C845 1.380 . S
C844 H872 0.929 . S
C845 C844 1.380 . S
C845 C846 1.347 . S
C845 H873 0.931 . S
C846 C845 1.347 . S
C846 C847 1.369 . S
C847 C846 1.369 . S
C847 C848 1.408 . S
C847 H874 0.930 . S
C848 C843 1.348 . S
C848 C847 1.408 . S
C848 H875 0.930 . S
C849 O862 1.281 . S
C849 O863 1.254 . S
C850 O864 1.236 . S
C850 O865 1.266 . S
C851 Tb841 2.809 . S
C851 C852 1.514 . S
C851 O866 1.248 . S
C851 O867 1.266 . S
C852 C851 1.514 . S
C852 C853 1.359 . S
C852 C857 1.348 . S
C853 C852 1.359 . S
C853 C854 1.380 . S
C853 H876 0.929 . S
C854 C853 1.380 . S
C854 C855 1.347 . S
C854 H877 0.931 . S
C855 C854 1.347 . S
C855 C856 1.369 . S
C856 C855 1.369 . S
C856 C857 1.408 . S
C856 H878 0.930 . S
C857 C852 1.348 . S
C857 C856 1.408 . S
C857 H879 0.930 . S
C858 O868 1.281 . S
C858 O869 1.254 . S
C859 O870 1.236 . S
C859 O871 1.266 . S
O860 Tb840 2.484 . S
O860 C842 1.248 . S
O861 Tb840 2.440 . S
O861 C842 1.266 . S
O862 Tb840 2.658 . S
O862 Tb841 2.325 . S
O862 C849 1.281 . S
O863 Tb840 2.409 . S
O863 C849 1.254 . S
O864 Tb840 2.378 . S
O864 C850 1.236 . S
O865 Tb841 2.341 . S
O865 C850 1.266 . S
O866 Tb841 2.484 . S
O866 C851 1.248 . S
O867 Tb841 2.440 . S
O867 C851 1.266 . S
O868 Tb840 2.325 . S
O868 Tb841 2.658 . S
O868 C858 1.281 . S
O869 Tb841 2.409 . S
O869 C858 1.254 . S
O870 Tb841 2.378 . S
O870 C859 1.236 . S
O871 Tb840 2.341 . S
O871 C859 1.266 . S
H872 C844 0.929 . S
H873 C845 0.931 . S
H874 C847 0.930 . S
H875 C848 0.930 . S
H876 C853 0.929 . S
H877 C854 0.931 . S
H878 C856 0.930 . S
H879 C857 0.930 . S
Tb880 C882 2.809 . S
Tb880 O900 2.484 . S
Tb880 O901 2.440 . S
Tb880 O902 2.658 . S
Tb880 O903 2.409 . S
Tb880 O904 2.378 . S
Tb880 O908 2.325 . S
Tb880 O911 2.341 . S
Tb881 C891 2.809 . S
Tb881 O902 2.325 . S
Tb881 O905 2.341 . S
Tb881 O906 2.484 . S
Tb881 O907 2.440 . S
Tb881 O908 2.658 . S
Tb881 O909 2.409 . S
Tb881 O910 2.378 . S
C882 Tb880 2.809 . S
C882 C883 1.514 . S
C882 O900 1.248 . S
C882 O901 1.266 . S
C883 C882 1.514 . S
C883 C884 1.359 . S
C883 C888 1.348 . S
C884 C883 1.359 . S
C884 C885 1.380 . S
C884 H912 0.929 . S
C885 C884 1.380 . S
C885 C886 1.347 . S
C885 H913 0.931 . S
C886 C885 1.347 . S
C886 C887 1.369 . S
C887 C886 1.369 . S
C887 C888 1.408 . S
C887 H914 0.930 . S
C888 C883 1.348 . S
C888 C887 1.408 . S
C888 H915 0.930 . S
C889 O902 1.281 . S
C889 O903 1.254 . S
C890 O904 1.236 . S
C890 O905 1.266 . S
C891 Tb881 2.809 . S
C891 C892 1.514 . S
C891 O906 1.248 . S
C891 O907 1.266 . S
C892 C891 1.514 . S
C892 C893 1.359 . S
C892 C897 1.348 . S
C893 C892 1.359 . S
C893 C894 1.380 . S
C893 H916 0.929 . S
C894 C893 1.380 . S
C894 C895 1.347 . S
C894 H917 0.931 . S
C895 C894 1.347 . S
C895 C896 1.369 . S
C896 C895 1.369 . S
C896 C897 1.408 . S
C896 H918 0.930 1_565 S
C897 C892 1.348 . S
C897 C896 1.408 . S
C897 H919 0.930 . S
C898 O908 1.281 . S
C898 O909 1.254 . S
C899 O910 1.236 . S
C899 O911 1.266 . S
O900 Tb880 2.484 . S
O900 C882 1.248 . S
O901 Tb880 2.440 . S
O901 C882 1.266 . S
O902 Tb880 2.658 . S
O902 Tb881 2.325 . S
O902 C889 1.281 . S
O903 Tb880 2.409 . S
O903 C889 1.254 . S
O904 Tb880 2.378 . S
O904 C890 1.236 . S
O905 Tb881 2.341 . S
O905 C890 1.266 . S
O906 Tb881 2.484 . S
O906 C891 1.248 . S
O907 Tb881 2.440 . S
O907 C891 1.266 . S
O908 Tb880 2.325 . S
O908 Tb881 2.658 . S
O908 C898 1.281 . S
O909 Tb881 2.409 . S
O909 C898 1.254 . S
O910 Tb881 2.378 . S
O910 C899 1.236 . S
O911 Tb880 2.341 . S
O911 C899 1.266 . S
H912 C884 0.929 . S
H913 C885 0.931 . S
H914 C887 0.930 . S
H915 C888 0.930 . S
H916 C893 0.929 . S
H917 C894 0.931 . S
H918 C896 0.930 1_545 S
H919 C897 0.930 . S
Tb920 C922 2.809 1_556 S
Tb920 O940 2.484 . S
Tb920 O941 2.440 . S
Tb920 O942 2.658 . S
Tb920 O943 2.409 . S
Tb920 O944 2.378 . S
Tb920 O948 2.325 . S
Tb920 O951 2.341 . S
Tb921 C931 2.809 . S
Tb921 O942 2.325 . S
Tb921 O945 2.341 . S
Tb921 O946 2.484 . S
Tb921 O947 2.440 . S
Tb921 O948 2.658 . S
Tb921 O949 2.409 . S
Tb921 O950 2.378 . S
C922 Tb920 2.809 1_554 S
C922 C923 1.514 . S
C922 O940 1.248 1_554 S
C922 O941 1.266 1_554 S
C923 C922 1.514 . S
C923 C924 1.359 . S
C923 C928 1.348 . S
C924 C923 1.359 . S
C924 C925 1.380 . S
C924 H952 0.929 . S
C925 C924 1.380 . S
C925 C926 1.347 . S
C925 H953 0.931 . S
C926 C925 1.347 . S
C926 C927 1.369 . S
C927 C926 1.369 . S
C927 C928 1.408 . S
C927 H954 0.930 . S
C928 C923 1.348 . S
C928 C927 1.408 . S
C928 H955 0.930 . S
C929 O942 1.281 . S
C929 O943 1.254 . S
C930 O944 1.236 . S
C930 O945 1.266 . S
C931 Tb921 2.809 . S
C931 C932 1.514 . S
C931 O946 1.248 . S
C931 O947 1.266 . S
C932 C931 1.514 . S
C932 C933 1.359 . S
C932 C937 1.348 . S
C933 C932 1.359 . S
C933 C934 1.380 . S
C933 H956 0.929 . S
C934 C933 1.380 . S
C934 C935 1.347 . S
C934 H957 0.931 . S
C935 C934 1.347 . S
C935 C936 1.369 . S
C936 C935 1.369 . S
C936 C937 1.408 . S
C936 H958 0.930 . S
C937 C932 1.348 . S
C937 C936 1.408 . S
C937 H959 0.930 . S
C938 O948 1.281 . S
C938 O949 1.254 . S
C939 O950 1.236 . S
C939 O951 1.266 . S
O940 Tb920 2.484 . S
O940 C922 1.248 1_556 S
O941 Tb920 2.440 . S
O941 C922 1.266 1_556 S
O942 Tb920 2.658 . S
O942 Tb921 2.325 . S
O942 C929 1.281 . S
O943 Tb920 2.409 . S
O943 C929 1.254 . S
O944 Tb920 2.378 . S
O944 C930 1.236 . S
O945 Tb921 2.341 . S
O945 C930 1.266 . S
O946 Tb921 2.484 . S
O946 C931 1.248 . S
O947 Tb921 2.440 . S
O947 C931 1.266 . S
O948 Tb920 2.325 . S
O948 Tb921 2.658 . S
O948 C938 1.281 . S
O949 Tb921 2.409 . S
O949 C938 1.254 . S
O950 Tb921 2.378 . S
O950 C939 1.236 . S
O951 Tb920 2.341 . S
O951 C939 1.266 . S
H952 C924 0.929 . S
H953 C925 0.931 . S
H954 C927 0.930 . S
H955 C928 0.930 . S
H956 C933 0.929 . S
H957 C934 0.931 . S
H958 C936 0.930 . S
H959 C937 0.930 . S
Tb960 C962 2.809 . S
Tb960 O980 2.484 . S
Tb960 O981 2.440 . S
Tb960 O982 2.658 . S
Tb960 O983 2.409 . S
Tb960 O984 2.378 . S
Tb960 O988 2.325 . S
Tb960 O991 2.341 . S
Tb961 C971 2.809 . S
Tb961 O982 2.325 . S
Tb961 O985 2.341 . S
Tb961 O986 2.484 . S
Tb961 O987 2.440 . S
Tb961 O988 2.658 . S
Tb961 O989 2.409 . S
Tb961 O990 2.378 . S
C962 Tb960 2.809 . S
C962 C963 1.514 . S
C962 O980 1.248 . S
C962 O981 1.266 . S
C963 C962 1.514 . S
C963 C964 1.359 . S
C963 C968 1.348 . S
C964 C963 1.359 . S
C964 C965 1.380 . S
C964 H992 0.929 . S
C965 C964 1.380 . S
C965 C966 1.347 . S
C965 H993 0.931 . S
C966 C965 1.347 . S
C966 C967 1.369 . S
C967 C966 1.369 . S
C967 C968 1.408 . S
C967 H994 0.930 1_545 S
C968 C963 1.348 . S
C968 C967 1.408 . S
C968 H995 0.930 . S
C969 O982 1.281 . S
C969 O983 1.254 . S
C970 O984 1.236 . S
C970 O985 1.266 . S
C971 Tb961 2.809 . S
C971 C972 1.514 . S
C971 O986 1.248 . S
C971 O987 1.266 . S
C972 C971 1.514 . S
C972 C973 1.359 . S
C972 C977 1.348 . S
C973 C972 1.359 . S
C973 C974 1.380 . S
C973 H996 0.929 . S
C974 C973 1.380 . S
C974 C975 1.347 . S
C974 H997 0.931 . S
C975 C974 1.347 . S
C975 C976 1.369 . S
C976 C975 1.369 . S
C976 C977 1.408 . S
C976 H998 0.930 . S
C977 C972 1.348 . S
C977 C976 1.408 . S
C977 H999 0.930 . S
C978 O988 1.281 . S
C978 O989 1.254 . S
C979 O990 1.236 . S
C979 O991 1.266 . S
O980 Tb960 2.484 . S
O980 C962 1.248 . S
O981 Tb960 2.440 . S
O981 C962 1.266 . S
O982 Tb960 2.658 . S
O982 Tb961 2.325 . S
O982 C969 1.281 . S
O983 Tb960 2.409 . S
O983 C969 1.254 . S
O984 Tb960 2.378 . S
O984 C970 1.236 . S
O985 Tb961 2.341 . S
O985 C970 1.266 . S
O986 Tb961 2.484 . S
O986 C971 1.248 . S
O987 Tb961 2.440 . S
O987 C971 1.266 . S
O988 Tb960 2.325 . S
O988 Tb961 2.658 . S
O988 C978 1.281 . S
O989 Tb961 2.409 . S
O989 C978 1.254 . S
O990 Tb961 2.378 . S
O990 C979 1.236 . S
O991 Tb960 2.341 . S
O991 C979 1.266 . S
H992 C964 0.929 . S
H993 C965 0.931 . S
H994 C967 0.930 1_565 S
H995 C968 0.930 . S
H996 C973 0.929 . S
H997 C974 0.931 . S
H998 C976 0.930 . S
H999 C977 0.930 . S
Tb1000 C1002 2.809 . S
Tb1000 O1020 2.484 . S
Tb1000 O1021 2.440 . S
Tb1000 O1022 2.658 . S
Tb1000 O1023 2.409 . S
Tb1000 O1024 2.378 . S
Tb1000 O1028 2.325 . S
Tb1000 O1031 2.341 . S
Tb1001 C1011 2.809 . S
Tb1001 O1022 2.325 . S
Tb1001 O1025 2.341 . S
Tb1001 O1026 2.484 . S
Tb1001 O1027 2.440 . S
Tb1001 O1028 2.658 . S
Tb1001 O1029 2.409 . S
Tb1001 O1030 2.378 . S
C1002 Tb1000 2.809 . S
C1002 C1003 1.514 . S
C1002 O1020 1.248 . S
C1002 O1021 1.266 . S
C1003 C1002 1.514 . S
C1003 C1004 1.359 . S
C1003 C1008 1.348 . S
C1004 C1003 1.359 . S
C1004 C1005 1.380 . S
C1004 H1032 0.929 . S
C1005 C1004 1.380 . S
C1005 C1006 1.347 . S
C1005 H1033 0.931 . S
C1006 C1005 1.347 . S
C1006 C1007 1.369 . S
C1007 C1006 1.369 . S
C1007 C1008 1.408 . S
C1007 H1034 0.930 . S
C1008 C1003 1.348 . S
C1008 C1007 1.408 . S
C1008 H1035 0.930 . S
C1009 O1022 1.281 . S
C1009 O1023 1.254 . S
C1010 O1024 1.236 . S
C1010 O1025 1.266 . S
C1011 Tb1001 2.809 . S
C1011 C1012 1.514 . S
C1011 O1026 1.248 . S
C1011 O1027 1.266 . S
C1012 C1011 1.514 . S
C1012 C1013 1.359 . S
C1012 C1017 1.348 . S
C1013 C1012 1.359 . S
C1013 C1014 1.380 . S
C1013 H1036 0.929 . S
C1014 C1013 1.380 . S
C1014 C1015 1.347 . S
C1014 H1037 0.931 . S
C1015 C1014 1.347 . S
C1015 C1016 1.369 . S
C1016 C1015 1.369 . S
C1016 C1017 1.408 . S
C1016 H1038 0.930 . S
C1017 C1012 1.348 . S
C1017 C1016 1.408 . S
C1017 H1039 0.930 . S
C1018 O1028 1.281 . S
C1018 O1029 1.254 . S
C1019 O1030 1.236 . S
C1019 O1031 1.266 . S
O1020 Tb1000 2.484 . S
O1020 C1002 1.248 . S
O1021 Tb1000 2.440 . S
O1021 C1002 1.266 . S
O1022 Tb1000 2.658 . S
O1022 Tb1001 2.325 . S
O1022 C1009 1.281 . S
O1023 Tb1000 2.409 . S
O1023 C1009 1.254 . S
O1024 Tb1000 2.378 . S
O1024 C1010 1.236 . S
O1025 Tb1001 2.341 . S
O1025 C1010 1.266 . S
O1026 Tb1001 2.484 . S
O1026 C1011 1.248 . S
O1027 Tb1001 2.440 . S
O1027 C1011 1.266 . S
O1028 Tb1000 2.325 . S
O1028 Tb1001 2.658 . S
O1028 C1018 1.281 . S
O1029 Tb1001 2.409 . S
O1029 C1018 1.254 . S
O1030 Tb1001 2.378 . S
O1030 C1019 1.236 . S
O1031 Tb1000 2.341 . S
O1031 C1019 1.266 . S
H1032 C1004 0.929 . S
H1033 C1005 0.931 . S
H1034 C1007 0.930 . S
H1035 C1008 0.930 . S
H1036 C1013 0.929 . S
H1037 C1014 0.931 . S
H1038 C1016 0.930 . S
H1039 C1017 0.930 . S
Tb1040 C1042 2.809 . S
Tb1040 O1060 2.484 . S
Tb1040 O1061 2.440 . S
Tb1040 O1062 2.658 . S
Tb1040 O1063 2.409 . S
Tb1040 O1064 2.378 . S
Tb1040 O1068 2.325 . S
Tb1040 O1071 2.341 . S
Tb1041 C1051 2.809 . S
Tb1041 O1062 2.325 . S
Tb1041 O1065 2.341 . S
Tb1041 O1066 2.484 . S
Tb1041 O1067 2.440 . S
Tb1041 O1068 2.658 . S
Tb1041 O1069 2.409 . S
Tb1041 O1070 2.378 . S
C1042 Tb1040 2.809 . S
C1042 C1043 1.514 . S
C1042 O1060 1.248 . S
C1042 O1061 1.266 . S
C1043 C1042 1.514 . S
C1043 C1044 1.359 1_554 S
C1043 C1048 1.348 . S
C1044 C1043 1.359 1_556 S
C1044 C1045 1.380 . S
C1044 H1072 0.929 1_556 S
C1045 C1044 1.380 . S
C1045 C1046 1.347 . S
C1045 H1073 0.931 . S
C1046 C1045 1.347 . S
C1046 C1047 1.369 . S
C1047 C1046 1.369 . S
C1047 C1048 1.408 1_556 S
C1047 H1074 0.930 1_565 S
C1048 C1043 1.348 . S
C1048 C1047 1.408 1_554 S
C1048 H1075 0.930 . S
C1049 O1062 1.281 . S
C1049 O1063 1.254 . S
C1050 O1064 1.236 . S
C1050 O1065 1.266 . S
C1051 Tb1041 2.809 . S
C1051 C1052 1.514 . S
C1051 O1066 1.248 . S
C1051 O1067 1.266 . S
C1052 C1051 1.514 . S
C1052 C1053 1.359 . S
C1052 C1057 1.348 . S
C1053 C1052 1.359 . S
C1053 C1054 1.380 . S
C1053 H1076 0.929 . S
C1054 C1053 1.380 . S
C1054 C1055 1.347 . S
C1054 H1077 0.931 . S
C1055 C1054 1.347 . S
C1055 C1056 1.369 . S
C1056 C1055 1.369 . S
C1056 C1057 1.408 . S
C1056 H1078 0.930 . S
C1057 C1052 1.348 . S
C1057 C1056 1.408 . S
C1057 H1079 0.930 . S
C1058 O1068 1.281 . S
C1058 O1069 1.254 . S
C1059 O1070 1.236 . S
C1059 O1071 1.266 . S
O1060 Tb1040 2.484 . S
O1060 C1042 1.248 . S
O1061 Tb1040 2.440 . S
O1061 C1042 1.266 . S
O1062 Tb1040 2.658 . S
O1062 Tb1041 2.325 . S
O1062 C1049 1.281 . S
O1063 Tb1040 2.409 . S
O1063 C1049 1.254 . S
O1064 Tb1040 2.378 . S
O1064 C1050 1.236 . S
O1065 Tb1041 2.341 . S
O1065 C1050 1.266 . S
O1066 Tb1041 2.484 . S
O1066 C1051 1.248 . S
O1067 Tb1041 2.440 . S
O1067 C1051 1.266 . S
O1068 Tb1040 2.325 . S
O1068 Tb1041 2.658 . S
O1068 C1058 1.281 . S
O1069 Tb1041 2.409 . S
O1069 C1058 1.254 . S
O1070 Tb1041 2.378 . S
O1070 C1059 1.236 . S
O1071 Tb1040 2.341 . S
O1071 C1059 1.266 . S
H1072 C1044 0.929 1_554 S
H1073 C1045 0.931 . S
H1074 C1047 0.930 1_545 S
H1075 C1048 0.930 . S
H1076 C1053 0.929 . S
H1077 C1054 0.931 . S
H1078 C1056 0.930 . S
H1079 C1057 0.930 . S
Tb1080 C1082 2.809 . S
Tb1080 O1100 2.484 . S
Tb1080 O1101 2.440 . S
Tb1080 O1102 2.658 . S
Tb1080 O1103 2.409 . S
Tb1080 O1104 2.378 . S
Tb1080 O1108 2.325 . S
Tb1080 O1111 2.341 . S
Tb1081 C1091 2.809 1_556 S
Tb1081 O1102 2.325 . S
Tb1081 O1105 2.341 . S
Tb1081 O1106 2.484 . S
Tb1081 O1107 2.440 . S
Tb1081 O1108 2.658 . S
Tb1081 O1109 2.409 . S
Tb1081 O1110 2.378 . S
C1082 Tb1080 2.809 . S
C1082 C1083 1.514 . S
C1082 O1100 1.248 . S
C1082 O1101 1.266 . S
C1083 C1082 1.514 . S
C1083 C1084 1.359 . S
C1083 C1088 1.348 . S
C1084 C1083 1.359 . S
C1084 C1085 1.380 . S
C1084 H1112 0.929 . S
C1085 C1084 1.380 . S
C1085 C1086 1.347 . S
C1085 H1113 0.931 . S
C1086 C1085 1.347 . S
C1086 C1087 1.369 . S
C1087 C1086 1.369 . S
C1087 C1088 1.408 . S
C1087 H1114 0.930 . S
C1088 C1083 1.348 . S
C1088 C1087 1.408 . S
C1088 H1115 0.930 . S
C1089 O1102 1.281 . S
C1089 O1103 1.254 . S
C1090 O1104 1.236 . S
C1090 O1105 1.266 . S
C1091 Tb1081 2.809 1_554 S
C1091 C1092 1.514 . S
C1091 O1106 1.248 1_554 S
C1091 O1107 1.266 1_554 S
C1092 C1091 1.514 . S
C1092 C1093 1.359 . S
C1092 C1097 1.348 . S
C1093 C1092 1.359 . S
C1093 C1094 1.380 . S
C1093 H1116 0.929 . S
C1094 C1093 1.380 . S
C1094 C1095 1.347 . S
C1094 H1117 0.931 . S
C1095 C1094 1.347 . S
C1095 C1096 1.369 . S
C1096 C1095 1.369 . S
C1096 C1097 1.408 . S
C1096 H1118 0.930 . S
C1097 C1092 1.348 . S
C1097 C1096 1.408 . S
C1097 H1119 0.930 . S
C1098 O1108 1.281 . S
C1098 O1109 1.254 . S
C1099 O1110 1.236 . S
C1099 O1111 1.266 . S
O1100 Tb1080 2.484 . S
O1100 C1082 1.248 . S
O1101 Tb1080 2.440 . S
O1101 C1082 1.266 . S
O1102 Tb1080 2.658 . S
O1102 Tb1081 2.325 . S
O1102 C1089 1.281 . S
O1103 Tb1080 2.409 . S
O1103 C1089 1.254 . S
O1104 Tb1080 2.378 . S
O1104 C1090 1.236 . S
O1105 Tb1081 2.341 . S
O1105 C1090 1.266 . S
O1106 Tb1081 2.484 . S
O1106 C1091 1.248 1_556 S
O1107 Tb1081 2.440 . S
O1107 C1091 1.266 1_556 S
O1108 Tb1080 2.325 . S
O1108 Tb1081 2.658 . S
O1108 C1098 1.281 . S
O1109 Tb1081 2.409 . S
O1109 C1098 1.254 . S
O1110 Tb1081 2.378 . S
O1110 C1099 1.236 . S
O1111 Tb1080 2.341 . S
O1111 C1099 1.266 . S
H1112 C1084 0.929 . S
H1113 C1085 0.931 . S
H1114 C1087 0.930 . S
H1115 C1088 0.930 . S
H1116 C1093 0.929 . S
H1117 C1094 0.931 . S
H1118 C1096 0.930 . S
H1119 C1097 0.930 . S
Tb1120 C1122 2.809 . S
Tb1120 O1140 2.484 . S
Tb1120 O1141 2.440 . S
Tb1120 O1142 2.658 . S
Tb1120 O1143 2.409 . S
Tb1120 O1144 2.378 . S
Tb1120 O1148 2.325 . S
Tb1120 O1151 2.341 . S
Tb1121 C1131 2.809 . S
Tb1121 O1142 2.325 . S
Tb1121 O1145 2.341 . S
Tb1121 O1146 2.484 . S
Tb1121 O1147 2.440 . S
Tb1121 O1148 2.658 . S
Tb1121 O1149 2.409 . S
Tb1121 O1150 2.378 . S
C1122 Tb1120 2.809 . S
C1122 C1123 1.514 . S
C1122 O1140 1.248 . S
C1122 O1141 1.266 . S
C1123 C1122 1.514 . S
C1123 C1124 1.359 . S
C1123 C1128 1.348 . S
C1124 C1123 1.359 . S
C1124 C1125 1.380 . S
C1124 H1152 0.929 . S
C1125 C1124 1.380 . S
C1125 C1126 1.347 . S
C1125 H1153 0.931 . S
C1126 C1125 1.347 . S
C1126 C1127 1.369 . S
C1127 C1126 1.369 . S
C1127 C1128 1.408 . S
C1127 H1154 0.930 1_565 S
C1128 C1123 1.348 . S
C1128 C1127 1.408 . S
C1128 H1155 0.930 . S
C1129 O1142 1.281 . S
C1129 O1143 1.254 . S
C1130 O1144 1.236 . S
C1130 O1145 1.266 . S
C1131 Tb1121 2.809 . S
C1131 C1132 1.514 1_554 S
C1131 O1146 1.248 . S
C1131 O1147 1.266 . S
C1132 C1131 1.514 1_556 S
C1132 C1133 1.359 . S
C1132 C1137 1.348 . S
C1133 C1132 1.359 . S
C1133 C1134 1.380 . S
C1133 H1156 0.929 . S
C1134 C1133 1.380 . S
C1134 C1135 1.347 . S
C1134 H1157 0.931 . S
C1135 C1134 1.347 . S
C1135 C1136 1.369 . S
C1136 C1135 1.369 . S
C1136 C1137 1.408 . S
C1136 H1158 0.930 . S
C1137 C1132 1.348 . S
C1137 C1136 1.408 . S
C1137 H1159 0.930 . S
C1138 O1148 1.281 . S
C1138 O1149 1.254 . S
C1139 O1150 1.236 . S
C1139 O1151 1.266 . S
O1140 Tb1120 2.484 . S
O1140 C1122 1.248 . S
O1141 Tb1120 2.440 . S
O1141 C1122 1.266 . S
O1142 Tb1120 2.658 . S
O1142 Tb1121 2.325 . S
O1142 C1129 1.281 . S
O1143 Tb1120 2.409 . S
O1143 C1129 1.254 . S
O1144 Tb1120 2.378 . S
O1144 C1130 1.236 . S
O1145 Tb1121 2.341 . S
O1145 C1130 1.266 . S
O1146 Tb1121 2.484 . S
O1146 C1131 1.248 . S
O1147 Tb1121 2.440 . S
O1147 C1131 1.266 . S
O1148 Tb1120 2.325 . S
O1148 Tb1121 2.658 . S
O1148 C1138 1.281 . S
O1149 Tb1121 2.409 . S
O1149 C1138 1.254 . S
O1150 Tb1121 2.378 . S
O1150 C1139 1.236 . S
O1151 Tb1120 2.341 . S
O1151 C1139 1.266 . S
H1152 C1124 0.929 . S
H1153 C1125 0.931 . S
H1154 C1127 0.930 1_545 S
H1155 C1128 0.930 . S
H1156 C1133 0.929 . S
H1157 C1134 0.931 . S
H1158 C1136 0.930 . S
H1159 C1137 0.930 . S
Tb1160 C1162 2.809 . S
Tb1160 O1180 2.484 . S
Tb1160 O1181 2.440 . S
Tb1160 O1182 2.658 . S
Tb1160 O1183 2.409 . S
Tb1160 O1184 2.378 . S
Tb1160 O1188 2.325 . S
Tb1160 O1191 2.341 . S
Tb1161 C1171 2.809 . S
Tb1161 O1182 2.325 . S
Tb1161 O1185 2.341 . S
Tb1161 O1186 2.484 . S
Tb1161 O1187 2.440 . S
Tb1161 O1188 2.658 . S
Tb1161 O1189 2.409 . S
Tb1161 O1190 2.378 . S
C1162 Tb1160 2.809 . S
C1162 C1163 1.514 . S
C1162 O1180 1.248 . S
C1162 O1181 1.266 . S
C1163 C1162 1.514 . S
C1163 C1164 1.359 1_556 S
C1163 C1168 1.348 1_556 S
C1164 C1163 1.359 1_554 S
C1164 C1165 1.380 . S
C1164 H1192 0.929 . S
C1165 C1164 1.380 . S
C1165 C1166 1.347 . S
C1165 H1193 0.931 . S
C1166 C1165 1.347 . S
C1166 C1167 1.369 . S
C1167 C1166 1.369 . S
C1167 C1168 1.408 . S
C1167 H1194 0.930 . S
C1168 C1163 1.348 1_554 S
C1168 C1167 1.408 . S
C1168 H1195 0.930 1_554 S
C1169 O1182 1.281 . S
C1169 O1183 1.254 . S
C1170 O1184 1.236 . S
C1170 O1185 1.266 . S
C1171 Tb1161 2.809 . S
C1171 C1172 1.514 . S
C1171 O1186 1.248 . S
C1171 O1187 1.266 . S
C1172 C1171 1.514 . S
C1172 C1173 1.359 . S
C1172 C1177 1.348 . S
C1173 C1172 1.359 . S
C1173 C1174 1.380 . S
C1173 H1196 0.929 . S
C1174 C1173 1.380 . S
C1174 C1175 1.347 . S
C1174 H1197 0.931 . S
C1175 C1174 1.347 . S
C1175 C1176 1.369 . S
C1176 C1175 1.369 . S
C1176 C1177 1.408 . S
C1176 H1198 0.930 . S
C1177 C1172 1.348 . S
C1177 C1176 1.408 . S
C1177 H1199 0.930 . S
C1178 O1188 1.281 . S
C1178 O1189 1.254 . S
C1179 O1190 1.236 . S
C1179 O1191 1.266 . S
O1180 Tb1160 2.484 . S
O1180 C1162 1.248 . S
O1181 Tb1160 2.440 . S
O1181 C1162 1.266 . S
O1182 Tb1160 2.658 . S
O1182 Tb1161 2.325 . S
O1182 C1169 1.281 . S
O1183 Tb1160 2.409 . S
O1183 C1169 1.254 . S
O1184 Tb1160 2.378 . S
O1184 C1170 1.236 . S
O1185 Tb1161 2.341 . S
O1185 C1170 1.266 . S
O1186 Tb1161 2.484 . S
O1186 C1171 1.248 . S
O1187 Tb1161 2.440 . S
O1187 C1171 1.266 . S
O1188 Tb1160 2.325 . S
O1188 Tb1161 2.658 . S
O1188 C1178 1.281 . S
O1189 Tb1161 2.409 . S
O1189 C1178 1.254 . S
O1190 Tb1161 2.378 . S
O1190 C1179 1.236 . S
O1191 Tb1160 2.341 . S
O1191 C1179 1.266 . S
H1192 C1164 0.929 . S
H1193 C1165 0.931 . S
H1194 C1167 0.930 . S
H1195 C1168 0.930 1_556 S
H1196 C1173 0.929 . S
H1197 C1174 0.931 . S
H1198 C1176 0.930 . S
H1199 C1177 0.930 . S
Tb1200 C1202 2.809 . S
Tb1200 O1220 2.484 . S
Tb1200 O1221 2.440 . S
Tb1200 O1222 2.658 . S
Tb1200 O1223 2.409 . S
Tb1200 O1224 2.378 . S
Tb1200 O1228 2.325 . S
Tb1200 O1231 2.341 . S
Tb1201 C1211 2.809 . S
Tb1201 O1222 2.325 . S
Tb1201 O1225 2.341 . S
Tb1201 O1226 2.484 . S
Tb1201 O1227 2.440 . S
Tb1201 O1228 2.658 . S
Tb1201 O1229 2.409 . S
Tb1201 O1230 2.378 . S
C1202 Tb1200 2.809 . S
C1202 C1203 1.514 . S
C1202 O1220 1.248 . S
C1202 O1221 1.266 . S
C1203 C1202 1.514 . S
C1203 C1204 1.359 . S
C1203 C1208 1.348 . S
C1204 C1203 1.359 . S
C1204 C1205 1.380 . S
C1204 H1232 0.929 . S
C1205 C1204 1.380 . S
C1205 C1206 1.347 . S
C1205 H1233 0.931 . S
C1206 C1205 1.347 . S
C1206 C1207 1.369 . S
C1207 C1206 1.369 . S
C1207 C1208 1.408 . S
C1207 H1234 0.930 1_545 S
C1208 C1203 1.348 . S
C1208 C1207 1.408 . S
C1208 H1235 0.930 . S
C1209 O1222 1.281 . S
C1209 O1223 1.254 . S
C1210 O1224 1.236 . S
C1210 O1225 1.266 . S
C1211 Tb1201 2.809 . S
C1211 C1212 1.514 . S
C1211 O1226 1.248 . S
C1211 O1227 1.266 . S
C1212 C1211 1.514 . S
C1212 C1213 1.359 . S
C1212 C1217 1.348 . S
C1213 C1212 1.359 . S
C1213 C1214 1.380 . S
C1213 H1236 0.929 . S
C1214 C1213 1.380 . S
C1214 C1215 1.347 . S
C1214 H1237 0.931 . S
C1215 C1214 1.347 . S
C1215 C1216 1.369 . S
C1216 C1215 1.369 . S
C1216 C1217 1.408 . S
C1216 H1238 0.930 . S
C1217 C1212 1.348 . S
C1217 C1216 1.408 . S
C1217 H1239 0.930 . S
C1218 O1228 1.281 . S
C1218 O1229 1.254 . S
C1219 O1230 1.236 . S
C1219 O1231 1.266 . S
O1220 Tb1200 2.484 . S
O1220 C1202 1.248 . S
O1221 Tb1200 2.440 . S
O1221 C1202 1.266 . S
O1222 Tb1200 2.658 . S
O1222 Tb1201 2.325 . S
O1222 C1209 1.281 . S
O1223 Tb1200 2.409 . S
O1223 C1209 1.254 . S
O1224 Tb1200 2.378 . S
O1224 C1210 1.236 . S
O1225 Tb1201 2.341 . S
O1225 C1210 1.266 . S
O1226 Tb1201 2.484 . S
O1226 C1211 1.248 . S
O1227 Tb1201 2.440 . S
O1227 C1211 1.266 . S
O1228 Tb1200 2.325 . S
O1228 Tb1201 2.658 . S
O1228 C1218 1.281 . S
O1229 Tb1201 2.409 . S
O1229 C1218 1.254 . S
O1230 Tb1201 2.378 . S
O1230 C1219 1.236 . S
O1231 Tb1200 2.341 . S
O1231 C1219 1.266 . S
H1232 C1204 0.929 . S
H1233 C1205 0.931 . S
H1234 C1207 0.930 1_565 S
H1235 C1208 0.930 . S
H1236 C1213 0.929 . S
H1237 C1214 0.931 . S
H1238 C1216 0.930 . S
H1239 C1217 0.930 . S
Tb1240 C1242 2.809 . S
Tb1240 O1260 2.484 . S
Tb1240 O1261 2.440 . S
Tb1240 O1262 2.658 . S
Tb1240 O1263 2.409 . S
Tb1240 O1264 2.378 . S
Tb1240 O1268 2.325 . S
Tb1240 O1271 2.341 . S
Tb1241 C1251 2.809 . S
Tb1241 O1262 2.325 . S
Tb1241 O1265 2.341 . S
Tb1241 O1266 2.484 . S
Tb1241 O1267 2.440 . S
Tb1241 O1268 2.658 . S
Tb1241 O1269 2.409 . S
Tb1241 O1270 2.378 . S
C1242 Tb1240 2.809 . S
C1242 C1243 1.514 . S
C1242 O1260 1.248 . S
C1242 O1261 1.266 . S
C1243 C1242 1.514 . S
C1243 C1244 1.359 . S
C1243 C1248 1.348 . S
C1244 C1243 1.359 . S
C1244 C1245 1.380 . S
C1244 H1272 0.929 . S
C1245 C1244 1.380 . S
C1245 C1246 1.347 . S
C1245 H1273 0.931 . S
C1246 C1245 1.347 . S
C1246 C1247 1.369 . S
C1247 C1246 1.369 . S
C1247 C1248 1.408 . S
C1247 H1274 0.930 . S
C1248 C1243 1.348 . S
C1248 C1247 1.408 . S
C1248 H1275 0.930 . S
C1249 O1262 1.281 . S
C1249 O1263 1.254 . S
C1250 O1264 1.236 . S
C1250 O1265 1.266 . S
C1251 Tb1241 2.809 . S
C1251 C1252 1.514 . S
C1251 O1266 1.248 . S
C1251 O1267 1.266 . S
C1252 C1251 1.514 . S
C1252 C1253 1.359 . S
C1252 C1257 1.348 . S
C1253 C1252 1.359 . S
C1253 C1254 1.380 . S
C1253 H1276 0.929 . S
C1254 C1253 1.380 . S
C1254 C1255 1.347 . S
C1254 H1277 0.931 . S
C1255 C1254 1.347 . S
C1255 C1256 1.369 . S
C1256 C1255 1.369 . S
C1256 C1257 1.408 . S
C1256 H1278 0.930 . S
C1257 C1252 1.348 . S
C1257 C1256 1.408 . S
C1257 H1279 0.930 . S
C1258 O1268 1.281 . S
C1258 O1269 1.254 . S
C1259 O1270 1.236 . S
C1259 O1271 1.266 . S
O1260 Tb1240 2.484 . S
O1260 C1242 1.248 . S
O1261 Tb1240 2.440 . S
O1261 C1242 1.266 . S
O1262 Tb1240 2.658 . S
O1262 Tb1241 2.325 . S
O1262 C1249 1.281 . S
O1263 Tb1240 2.409 . S
O1263 C1249 1.254 . S
O1264 Tb1240 2.378 . S
O1264 C1250 1.236 . S
O1265 Tb1241 2.341 . S
O1265 C1250 1.266 . S
O1266 Tb1241 2.484 . S
O1266 C1251 1.248 . S
O1267 Tb1241 2.440 . S
O1267 C1251 1.266 . S
O1268 Tb1240 2.325 . S
O1268 Tb1241 2.658 . S
O1268 C1258 1.281 . S
O1269 Tb1241 2.409 . S
O1269 C1258 1.254 . S
O1270 Tb1241 2.378 . S
O1270 C1259 1.236 . S
O1271 Tb1240 2.341 . S
O1271 C1259 1.266 . S
H1272 C1244 0.929 . S
H1273 C1245 0.931 . S
H1274 C1247 0.930 . S
H1275 C1248 0.930 . S
H1276 C1253 0.929 . S
H1277 C1254 0.931 . S
H1278 C1256 0.930 . S
H1279 C1257 0.930 . S
H1280 C1286 0.930 . S
H1281 C1290 0.930 . S
H1282 C1295 0.929 . S
H1283 C1293 0.929 . S
H1284 C1288 0.929 . S
H1285 C1294 0.929 . S
C1286 H1280 0.930 . S
C1286 C1287 1.367 . S
C1286 C1294 1.378 . S
C1287 C1286 1.367 . S
C1287 C1295 1.433 . S
C1288 H1284 0.929 . S
C1288 C1290 1.378 . S
C1288 C1292 1.350 . S
C1289 C1292 1.463 . S
C1289 C1294 1.350 . S
C1289 N1297 1.427 . S
C1290 H1281 0.930 . S
C1290 C1288 1.378 . S
C1290 C1291 1.367 . S
C1291 C1290 1.367 . S
C1291 C1293 1.433 . S
C1292 C1288 1.350 . S
C1292 C1289 1.463 . S
C1292 N1296 1.427 . S
C1293 H1283 0.929 . S
C1293 C1291 1.433 . S
C1293 N1296 1.384 . S
C1294 H1285 0.929 . S
C1294 C1286 1.378 . S
C1294 C1289 1.350 . S
C1295 H1282 0.929 . S
C1295 C1287 1.433 . S
C1295 N1297 1.384 . S
N1296 C1292 1.427 . S
N1296 C1293 1.384 . S
N1297 C1289 1.427 . S
N1297 C1295 1.384 . S
H1298 C1304 0.930 . S
H1299 C1308 0.930 . S
H1300 C1313 0.929 . S
H1301 C1311 0.929 . S
H1302 C1306 0.929 . S
H1303 C1312 0.929 . S
C1304 H1298 0.930 . S
C1304 C1305 1.367 . S
C1304 C1312 1.378 . S
C1305 C1304 1.367 . S
C1305 C1313 1.433 . S
C1306 H1302 0.929 . S
C1306 C1308 1.378 . S
C1306 C1310 1.350 . S
C1307 C1310 1.463 . S
C1307 C1312 1.350 . S
C1307 N1315 1.427 . S
C1308 H1299 0.930 . S
C1308 C1306 1.378 . S
C1308 C1309 1.367 . S
C1309 C1308 1.367 . S
C1309 C1311 1.433 . S
C1310 C1306 1.350 . S
C1310 C1307 1.463 . S
C1310 N1314 1.427 . S
C1311 H1301 0.929 . S
C1311 C1309 1.433 . S
C1311 N1314 1.384 . S
C1312 H1303 0.929 . S
C1312 C1304 1.378 . S
C1312 C1307 1.350 . S
C1313 H1300 0.929 . S
C1313 C1305 1.433 . S
C1313 N1315 1.384 . S
N1314 C1310 1.427 . S
N1314 C1311 1.384 . S
N1315 C1307 1.427 . S
N1315 C1313 1.384 . S
H1316 C1322 0.930 . S
H1317 C1326 0.930 . S
H1318 C1331 0.929 . S
H1319 C1329 0.929 . S
H1320 C1324 0.929 . S
H1321 C1330 0.929 . S
C1322 H1316 0.930 . S
C1322 C1323 1.367 . S
C1322 C1330 1.378 . S
C1323 C1322 1.367 . S
C1323 C1331 1.433 . S
C1324 H1320 0.929 . S
C1324 C1326 1.378 . S
C1324 C1328 1.350 . S
C1325 C1328 1.463 . S
C1325 C1330 1.350 . S
C1325 N1333 1.427 . S
C1326 H1317 0.930 . S
C1326 C1324 1.378 . S
C1326 C1327 1.367 . S
C1327 C1326 1.367 . S
C1327 C1329 1.433 . S
C1328 C1324 1.350 . S
C1328 C1325 1.463 . S
C1328 N1332 1.427 . S
C1329 H1319 0.929 . S
C1329 C1327 1.433 . S
C1329 N1332 1.384 . S
C1330 H1321 0.929 . S
C1330 C1322 1.378 . S
C1330 C1325 1.350 . S
C1331 H1318 0.929 . S
C1331 C1323 1.433 . S
C1331 N1333 1.384 . S
N1332 C1328 1.427 . S
N1332 C1329 1.384 . S
N1333 C1325 1.427 . S
N1333 C1331 1.384 . S
H1334 C1340 0.930 . S
H1335 C1344 0.930 . S
H1336 C1349 0.929 . S
H1337 C1347 0.929 . S
H1338 C1342 0.929 . S
H1339 C1348 0.929 . S
C1340 H1334 0.930 . S
C1340 C1341 1.367 . S
C1340 C1348 1.378 . S
C1341 C1340 1.367 . S
C1341 C1349 1.433 . S
C1342 H1338 0.929 . S
C1342 C1344 1.378 . S
C1342 C1346 1.350 . S
C1343 C1346 1.463 . S
C1343 C1348 1.350 . S
C1343 N1351 1.427 . S
C1344 H1335 0.930 . S
C1344 C1342 1.378 . S
C1344 C1345 1.367 . S
C1345 C1344 1.367 . S
C1345 C1347 1.433 . S
C1346 C1342 1.350 . S
C1346 C1343 1.463 . S
C1346 N1350 1.427 . S
C1347 H1337 0.929 . S
C1347 C1345 1.433 . S
C1347 N1350 1.384 . S
C1348 H1339 0.929 . S
C1348 C1340 1.378 . S
C1348 C1343 1.350 . S
C1349 H1336 0.929 . S
C1349 C1341 1.433 . S
C1349 N1351 1.384 . S
N1350 C1346 1.427 . S
N1350 C1347 1.384 . S
N1351 C1343 1.427 . S
N1351 C1349 1.384 . S
H1352 C1358 0.930 . S
H1353 C1362 0.930 . S
H1354 C1367 0.929 . S
H1355 C1365 0.929 . S
H1356 C1360 0.929 . S
H1357 C1366 0.929 . S
C1358 H1352 0.930 . S
C1358 C1359 1.367 . S
C1358 C1366 1.378 . S
C1359 C1358 1.367 . S
C1359 C1367 1.433 . S
C1360 H1356 0.929 . S
C1360 C1362 1.378 . S
C1360 C1364 1.350 . S
C1361 C1364 1.463 . S
C1361 C1366 1.350 . S
C1361 N1369 1.427 . S
C1362 H1353 0.930 . S
C1362 C1360 1.378 . S
C1362 C1363 1.367 . S
C1363 C1362 1.367 . S
C1363 C1365 1.433 . S
C1364 C1360 1.350 . S
C1364 C1361 1.463 . S
C1364 N1368 1.427 . S
C1365 H1355 0.929 . S
C1365 C1363 1.433 . S
C1365 N1368 1.384 . S
C1366 H1357 0.929 . S
C1366 C1358 1.378 . S
C1366 C1361 1.350 . S
C1367 H1354 0.929 . S
C1367 C1359 1.433 . S
C1367 N1369 1.384 . S
N1368 C1364 1.427 . S
N1368 C1365 1.384 . S
N1369 C1361 1.427 . S
N1369 C1367 1.384 . S
H1370 C1376 0.930 . S
H1371 C1380 0.930 . S
H1372 C1385 0.929 . S
H1373 C1383 0.929 . S
H1374 C1378 0.929 . S
H1375 C1384 0.929 . S
C1376 H1370 0.930 . S
C1376 C1377 1.367 . S
C1376 C1384 1.378 . S
C1377 C1376 1.367 . S
C1377 C1385 1.433 . S
C1378 H1374 0.929 . S
C1378 C1380 1.378 . S
C1378 C1382 1.350 . S
C1379 C1382 1.463 . S
C1379 C1384 1.350 . S
C1379 N1387 1.427 . S
C1380 H1371 0.930 . S
C1380 C1378 1.378 . S
C1380 C1381 1.367 . S
C1381 C1380 1.367 . S
C1381 C1383 1.433 . S
C1382 C1378 1.350 . S
C1382 C1379 1.463 . S
C1382 N1386 1.427 . S
C1383 H1373 0.929 . S
C1383 C1381 1.433 . S
C1383 N1386 1.384 . S
C1384 H1375 0.929 . S
C1384 C1376 1.378 . S
C1384 C1379 1.350 . S
C1385 H1372 0.929 . S
C1385 C1377 1.433 . S
C1385 N1387 1.384 . S
N1386 C1382 1.427 . S
N1386 C1383 1.384 . S
N1387 C1379 1.427 . S
N1387 C1385 1.384 . S
H1388 C1394 0.930 . S
H1389 C1398 0.930 . S
H1390 C1403 0.929 . S
H1391 C1401 0.929 . S
H1392 C1396 0.929 . S
H1393 C1402 0.929 . S
C1394 H1388 0.930 . S
C1394 C1395 1.367 . S
C1394 C1402 1.378 . S
C1395 C1394 1.367 . S
C1395 C1403 1.433 . S
C1396 H1392 0.929 . S
C1396 C1398 1.378 . S
C1396 C1400 1.350 . S
C1397 C1400 1.463 . S
C1397 C1402 1.350 . S
C1397 N1405 1.427 . S
C1398 H1389 0.930 . S
C1398 C1396 1.378 . S
C1398 C1399 1.367 . S
C1399 C1398 1.367 . S
C1399 C1401 1.433 . S
C1400 C1396 1.350 . S
C1400 C1397 1.463 . S
C1400 N1404 1.427 . S
C1401 H1391 0.929 . S
C1401 C1399 1.433 . S
C1401 N1404 1.384 . S
C1402 H1393 0.929 . S
C1402 C1394 1.378 . S
C1402 C1397 1.350 . S
C1403 H1390 0.929 . S
C1403 C1395 1.433 . S
C1403 N1405 1.384 . S
N1404 C1400 1.427 . S
N1404 C1401 1.384 . S
N1405 C1397 1.427 . S
N1405 C1403 1.384 . S
H1406 C1412 0.930 . S
H1407 C1416 0.930 . S
H1408 C1421 0.929 . S
H1409 C1419 0.929 . S
H1410 C1414 0.929 . S
H1411 C1420 0.929 . S
C1412 H1406 0.930 . S
C1412 C1413 1.367 . S
C1412 C1420 1.378 . S
C1413 C1412 1.367 . S
C1413 C1421 1.433 . S
C1414 H1410 0.929 . S
C1414 C1416 1.378 . S
C1414 C1418 1.350 . S
C1415 C1418 1.463 . S
C1415 C1420 1.350 . S
C1415 N1423 1.427 . S
C1416 H1407 0.930 . S
C1416 C1414 1.378 . S
C1416 C1417 1.367 . S
C1417 C1416 1.367 . S
C1417 C1419 1.433 . S
C1418 C1414 1.350 . S
C1418 C1415 1.463 . S
C1418 N1422 1.427 . S
C1419 H1409 0.929 . S
C1419 C1417 1.433 . S
C1419 N1422 1.384 . S
C1420 H1411 0.929 . S
C1420 C1412 1.378 . S
C1420 C1415 1.350 . S
C1421 H1408 0.929 . S
C1421 C1413 1.433 . S
C1421 N1423 1.384 . S
N1422 C1418 1.427 . S
N1422 C1419 1.384 . S
N1423 C1415 1.427 . S
N1423 C1421 1.384 . S
H1424 C1430 0.930 . S
H1425 C1434 0.930 . S
H1426 C1439 0.929 . S
H1427 C1437 0.929 . S
H1428 C1432 0.929 1_545 S
H1429 C1438 0.929 1_565 S
C1430 H1424 0.930 . S
C1430 C1431 1.367 . S
C1430 C1438 1.378 . S
C1431 C1430 1.367 . S
C1431 C1439 1.433 . S
C1432 H1428 0.929 1_565 S
C1432 C1434 1.378 . S
C1432 C1436 1.350 . S
C1433 C1436 1.463 1_545 S
C1433 C1438 1.350 . S
C1433 N1441 1.427 . S
C1434 H1425 0.930 . S
C1434 C1432 1.378 . S
C1434 C1435 1.367 . S
C1435 C1434 1.367 . S
C1435 C1437 1.433 . S
C1436 C1432 1.350 . S
C1436 C1433 1.463 1_565 S
C1436 N1440 1.427 . S
C1437 H1427 0.929 . S
C1437 C1435 1.433 . S
C1437 N1440 1.384 . S
C1438 H1429 0.929 1_545 S
C1438 C1430 1.378 . S
C1438 C1433 1.350 . S
C1439 H1426 0.929 . S
C1439 C1431 1.433 . S
C1439 N1441 1.384 . S
N1440 C1436 1.427 . S
N1440 C1437 1.384 . S
N1441 C1433 1.427 . S
N1441 C1439 1.384 . S
H1442 C1448 0.930 . S
H1443 C1452 0.930 . S
H1444 C1457 0.929 . S
H1445 C1455 0.929 . S
H1446 C1450 0.929 . S
H1447 C1456 0.929 . S
C1448 H1442 0.930 . S
C1448 C1449 1.367 . S
C1448 C1456 1.378 . S
C1449 C1448 1.367 . S
C1449 C1457 1.433 . S
C1450 H1446 0.929 . S
C1450 C1452 1.378 . S
C1450 C1454 1.350 . S
C1451 C1454 1.463 . S
C1451 C1456 1.350 . S
C1451 N1459 1.427 . S
C1452 H1443 0.930 . S
C1452 C1450 1.378 . S
C1452 C1453 1.367 . S
C1453 C1452 1.367 . S
C1453 C1455 1.433 . S
C1454 C1450 1.350 . S
C1454 C1451 1.463 . S
C1454 N1458 1.427 . S
C1455 H1445 0.929 . S
C1455 C1453 1.433 . S
C1455 N1458 1.384 . S
C1456 H1447 0.929 . S
C1456 C1448 1.378 . S
C1456 C1451 1.350 . S
C1457 H1444 0.929 . S
C1457 C1449 1.433 . S
C1457 N1459 1.384 . S
N1458 C1454 1.427 . S
N1458 C1455 1.384 . S
N1459 C1451 1.427 . S
N1459 C1457 1.384 . S
H1460 C1466 0.930 . S
H1461 C1470 0.930 . S
H1462 C1475 0.929 . S
H1463 C1473 0.929 . S
H1464 C1468 0.974 . S
H1465 C1474 0.975 . S
C1466 H1460 0.930 . S
C1466 C1467 1.367 . S
C1466 C1474 1.349 1_545 S
C1467 C1466 1.367 . S
C1467 C1475 1.433 . S
C1468 H1464 0.974 . S
C1468 C1470 1.350 1_545 S
C1468 C1472 1.334 1_545 S
C1469 C1472 1.463 1_545 S
C1469 C1474 1.334 1_545 S
C1469 N1477 1.427 . S
C1470 H1461 0.930 . S
C1470 C1468 1.350 1_565 S
C1470 C1471 1.367 . S
C1471 C1470 1.367 . S
C1471 C1473 1.433 . S
C1472 C1468 1.334 1_565 S
C1472 C1469 1.463 1_565 S
C1472 N1476 1.427 . S
C1473 H1463 0.929 . S
C1473 C1471 1.433 . S
C1473 N1476 1.384 . S
C1474 H1465 0.975 . S
C1474 C1466 1.349 1_565 S
C1474 C1469 1.334 1_565 S
C1475 H1462 0.929 . S
C1475 C1467 1.433 . S
C1475 N1477 1.384 . S
N1476 C1472 1.427 . S
N1476 C1473 1.384 . S
N1477 C1469 1.427 . S
N1477 C1475 1.384 . S
H1478 C1484 0.930 . S
H1479 C1488 0.930 . S
H1480 C1493 0.929 . S
H1481 C1491 0.929 . S
H1482 C1486 0.929 . S
H1483 C1492 0.929 . S
C1484 H1478 0.930 . S
C1484 C1485 1.367 . S
C1484 C1492 1.378 . S
C1485 C1484 1.367 . S
C1485 C1493 1.433 . S
C1486 H1482 0.929 . S
C1486 C1488 1.378 . S
C1486 C1490 1.350 . S
C1487 C1490 1.463 . S
C1487 C1492 1.350 . S
C1487 N1495 1.427 . S
C1488 H1479 0.930 . S
C1488 C1486 1.378 . S
C1488 C1489 1.367 . S
C1489 C1488 1.367 . S
C1489 C1491 1.433 . S
C1490 C1486 1.350 . S
C1490 C1487 1.463 . S
C1490 N1494 1.427 . S
C1491 H1481 0.929 . S
C1491 C1489 1.433 . S
C1491 N1494 1.384 . S
C1492 H1483 0.929 . S
C1492 C1484 1.378 . S
C1492 C1487 1.350 . S
C1493 H1480 0.929 . S
C1493 C1485 1.433 . S
C1493 N1495 1.384 . S
N1494 C1490 1.427 . S
N1494 C1491 1.384 . S
N1495 C1487 1.427 . S
N1495 C1493 1.384 . S
H1496 C1502 0.930 . S
H1497 C1506 0.930 . S
H1498 C1511 0.929 . S
H1499 C1509 0.929 . S
H1500 C1504 0.929 . S
H1501 C1510 0.929 . S
C1502 H1496 0.930 . S
C1502 C1503 1.367 . S
C1502 C1510 1.378 1_545 S
C1503 C1502 1.367 . S
C1503 C1511 1.433 . S
C1504 H1500 0.929 . S
C1504 C1506 1.378 1_545 S
C1504 C1508 1.350 1_545 S
C1505 C1508 1.463 1_545 S
C1505 C1510 1.350 1_545 S
C1505 N1513 1.427 . S
C1506 H1497 0.930 . S
C1506 C1504 1.378 1_565 S
C1506 C1507 1.367 . S
C1507 C1506 1.367 . S
C1507 C1509 1.433 . S
C1508 C1504 1.350 1_565 S
C1508 C1505 1.463 1_565 S
C1508 N1512 1.427 . S
C1509 H1499 0.929 . S
C1509 C1507 1.433 . S
C1509 N1512 1.384 . S
C1510 H1501 0.929 . S
C1510 C1502 1.378 1_565 S
C1510 C1505 1.350 1_565 S
C1511 H1498 0.929 . S
C1511 C1503 1.433 . S
C1511 N1513 1.384 . S
N1512 C1508 1.427 . S
N1512 C1509 1.384 . S
N1513 C1505 1.427 . S
N1513 C1511 1.384 . S
H1514 C1520 0.930 . S
H1515 C1524 0.930 . S
H1516 C1529 0.929 . S
H1517 C1527 0.929 . S
H1518 C1522 0.929 . S
H1519 C1528 0.929 . S
C1520 H1514 0.930 . S
C1520 C1521 1.367 . S
C1520 C1528 1.378 . S
C1521 C1520 1.367 . S
C1521 C1529 1.433 . S
C1522 H1518 0.929 . S
C1522 C1524 1.378 . S
C1522 C1526 1.350 . S
C1523 C1526 1.463 . S
C1523 C1528 1.350 . S
C1523 N1531 1.427 . S
C1524 H1515 0.930 . S
C1524 C1522 1.378 . S
C1524 C1525 1.367 . S
C1525 C1524 1.367 . S
C1525 C1527 1.433 . S
C1526 C1522 1.350 . S
C1526 C1523 1.463 . S
C1526 N1530 1.427 . S
C1527 H1517 0.929 . S
C1527 C1525 1.433 . S
C1527 N1530 1.384 . S
C1528 H1519 0.929 . S
C1528 C1520 1.378 . S
C1528 C1523 1.350 . S
C1529 H1516 0.929 . S
C1529 C1521 1.433 . S
C1529 N1531 1.384 . S
N1530 C1526 1.427 . S
N1530 C1527 1.384 . S
N1531 C1523 1.427 . S
N1531 C1529 1.384 . S
H1532 C1538 0.930 . S
H1533 C1542 0.930 . S
H1534 C1547 0.929 . S
H1535 C1545 0.929 . S
H1536 C1540 0.929 . S
H1537 C1546 0.929 . S
C1538 H1532 0.930 . S
C1538 C1539 1.367 . S
C1538 C1546 1.378 . S
C1539 C1538 1.367 . S
C1539 C1547 1.433 . S
C1540 H1536 0.929 . S
C1540 C1542 1.378 . S
C1540 C1544 1.350 . S
C1541 C1544 1.463 1_565 S
C1541 C1546 1.350 . S
C1541 N1549 1.441 . S
C1542 H1533 0.930 . S
C1542 C1540 1.378 . S
C1542 C1543 1.367 . S
C1543 C1542 1.367 . S
C1543 C1545 1.433 . S
C1544 C1540 1.350 . S
C1544 C1541 1.463 1_545 S
C1544 N1548 1.439 . S
C1545 H1535 0.929 . S
C1545 C1543 1.433 . S
C1545 N1548 1.407 . S
C1546 H1537 0.929 . S
C1546 C1538 1.378 . S
C1546 C1541 1.350 . S
C1547 H1534 0.929 . S
C1547 C1539 1.433 . S
C1547 N1549 1.410 . S
N1548 C1544 1.439 . S
N1548 C1545 1.407 . S
N1549 C1541 1.441 . S
N1549 C1547 1.410 . S
H1550 C1556 0.930 . S
H1551 C1560 0.930 . S
H1552 C1565 0.929 . S
H1553 C1563 0.929 . S
H1554 C1558 0.929 . S
H1555 C1564 0.929 . S
C1556 H1550 0.930 . S
C1556 C1557 1.367 . S
C1556 C1564 1.378 . S
C1557 C1556 1.367 . S
C1557 C1565 1.433 . S
C1558 H1554 0.929 . S
C1558 C1560 1.378 . S
C1558 C1562 1.350 . S
C1559 C1562 1.463 . S
C1559 C1564 1.350 . S
C1559 N1567 1.427 . S
C1560 H1551 0.930 . S
C1560 C1558 1.378 . S
C1560 C1561 1.367 . S
C1561 C1560 1.367 . S
C1561 C1563 1.433 . S
C1562 C1558 1.350 . S
C1562 C1559 1.463 . S
C1562 N1566 1.427 . S
C1563 H1553 0.929 . S
C1563 C1561 1.433 . S
C1563 N1566 1.384 . S
C1564 H1555 0.929 . S
C1564 C1556 1.378 . S
C1564 C1559 1.350 . S
C1565 H1552 0.929 . S
C1565 C1557 1.433 . S
C1565 N1567 1.384 . S
N1566 C1562 1.427 . S
N1566 C1563 1.384 . S
N1567 C1559 1.427 . S
N1567 C1565 1.384 . S
H1568 C1574 0.930 . S
H1569 C1578 0.930 . S
H1570 C1583 0.929 . S
H1571 C1581 0.929 . S
H1572 C1576 0.929 . S
H1573 C1582 0.929 . S
C1574 H1568 0.930 . S
C1574 C1575 1.367 . S
C1574 C1582 1.378 . S
C1575 C1574 1.367 . S
C1575 C1583 1.433 . S
C1576 H1572 0.929 . S
C1576 C1578 1.378 . S
C1576 C1580 1.350 . S
C1577 C1580 1.463 . S
C1577 C1582 1.350 . S
C1577 N1585 1.427 . S
C1578 H1569 0.930 . S
C1578 C1576 1.378 . S
C1578 C1579 1.367 . S
C1579 C1578 1.367 . S
C1579 C1581 1.433 . S
C1580 C1576 1.350 . S
C1580 C1577 1.463 . S
C1580 N1584 1.427 . S
C1581 H1571 0.929 . S
C1581 C1579 1.433 . S
C1581 N1584 1.384 . S
C1582 H1573 0.929 . S
C1582 C1574 1.378 . S
C1582 C1577 1.350 . S
C1583 H1570 0.929 . S
C1583 C1575 1.433 . S
C1583 N1585 1.384 . S
N1584 C1580 1.427 . S
N1584 C1581 1.384 . S
N1585 C1577 1.427 . S
N1585 C1583 1.384 . S
H1586 C1592 0.930 . S
H1587 C1596 0.930 . S
H1588 C1601 0.929 . S
H1589 C1599 0.929 . S
H1590 C1594 0.929 . S
H1591 C1600 0.929 . S
C1592 H1586 0.930 . S
C1592 C1593 1.367 . S
C1592 C1600 1.378 . S
C1593 C1592 1.367 . S
C1593 C1601 1.433 . S
C1594 H1590 0.929 . S
C1594 C1596 1.378 . S
C1594 C1598 1.350 . S
C1595 C1598 1.463 . S
C1595 C1600 1.350 . S
C1595 N1603 1.427 . S
C1596 H1587 0.930 . S
C1596 C1594 1.378 . S
C1596 C1597 1.367 . S
C1597 C1596 1.367 . S
C1597 C1599 1.433 . S
C1598 C1594 1.350 . S
C1598 C1595 1.463 . S
C1598 N1602 1.427 . S
C1599 H1589 0.929 . S
C1599 C1597 1.433 . S
C1599 N1602 1.384 . S
C1600 H1591 0.929 . S
C1600 C1592 1.378 . S
C1600 C1595 1.350 . S
C1601 H1588 0.929 . S
C1601 C1593 1.433 . S
C1601 N1603 1.384 . S
N1602 C1598 1.427 . S
N1602 C1599 1.384 . S
N1603 C1595 1.427 . S
N1603 C1601 1.384 . S
H1604 C1610 0.930 . S
H1605 C1614 0.930 . S
H1606 C1619 0.929 . S
H1607 C1617 0.929 . S
H1608 C1612 0.929 . S
H1609 C1618 0.929 . S
C1610 H1604 0.930 . S
C1610 C1611 1.367 . S
C1610 C1618 1.378 . S
C1611 C1610 1.367 . S
C1611 C1619 1.433 . S
C1612 H1608 0.929 . S
C1612 C1614 1.378 . S
C1612 C1616 1.350 . S
C1613 C1616 1.463 . S
C1613 C1618 1.350 . S
C1613 N1621 1.427 . S
C1614 H1605 0.930 . S
C1614 C1612 1.378 . S
C1614 C1615 1.367 . S
C1615 C1614 1.367 . S
C1615 C1617 1.433 . S
C1616 C1612 1.350 . S
C1616 C1613 1.463 . S
C1616 N1620 1.427 . S
C1617 H1607 0.929 . S
C1617 C1615 1.433 . S
C1617 N1620 1.384 . S
C1618 H1609 0.929 . S
C1618 C1610 1.378 . S
C1618 C1613 1.350 . S
C1619 H1606 0.929 . S
C1619 C1611 1.433 . S
C1619 N1621 1.384 . S
N1620 C1616 1.427 . S
N1620 C1617 1.384 . S
N1621 C1613 1.427 . S
N1621 C1619 1.384 . S
H1622 C1628 0.930 . S
H1623 C1632 0.930 . S
H1624 C1637 0.929 . S
H1625 C1635 0.929 . S
H1626 C1630 0.929 . S
H1627 C1636 0.929 . S
C1628 H1622 0.930 . S
C1628 C1629 1.367 . S
C1628 C1636 1.378 . S
C1629 C1628 1.367 . S
C1629 C1637 1.433 . S
C1630 H1626 0.929 . S
C1630 C1632 1.378 . S
C1630 C1634 1.350 . S
C1631 C1634 1.463 1_556 S
C1631 C1636 1.350 . S
C1631 N1639 1.427 . S
C1632 H1623 0.930 . S
C1632 C1630 1.378 . S
C1632 C1633 1.367 . S
C1633 C1632 1.367 . S
C1633 C1635 1.433 . S
C1634 C1630 1.350 . S
C1634 C1631 1.463 1_554 S
C1634 N1638 1.427 . S
C1635 H1625 0.929 . S
C1635 C1633 1.433 . S
C1635 N1638 1.384 . S
C1636 H1627 0.929 . S
C1636 C1628 1.378 . S
C1636 C1631 1.350 . S
C1637 H1624 0.929 . S
C1637 C1629 1.433 . S
C1637 N1639 1.384 . S
N1638 C1634 1.427 . S
N1638 C1635 1.384 . S
N1639 C1631 1.427 . S
N1639 C1637 1.384 . S
H1640 C1646 0.930 . S
H1641 C1650 0.930 . S
H1642 C1655 0.929 . S
H1643 C1653 0.929 . S
H1644 C1648 0.929 . S
H1645 C1654 0.929 . S
C1646 H1640 0.930 . S
C1646 C1647 1.367 . S
C1646 C1654 1.378 . S
C1647 C1646 1.367 . S
C1647 C1655 1.433 . S
C1648 H1644 0.929 . S
C1648 C1650 1.378 . S
C1648 C1652 1.350 . S
C1649 C1652 1.463 . S
C1649 C1654 1.350 . S
C1649 N1657 1.427 . S
C1650 H1641 0.930 . S
C1650 C1648 1.378 . S
C1650 C1651 1.367 . S
C1651 C1650 1.367 . S
C1651 C1653 1.433 . S
C1652 C1648 1.350 . S
C1652 C1649 1.463 . S
C1652 N1656 1.427 . S
C1653 H1643 0.929 . S
C1653 C1651 1.433 . S
C1653 N1656 1.384 . S
C1654 H1645 0.929 . S
C1654 C1646 1.378 . S
C1654 C1649 1.350 . S
C1655 H1642 0.929 . S
C1655 C1647 1.433 . S
C1655 N1657 1.384 . S
N1656 C1652 1.427 . S
N1656 C1653 1.384 . S
N1657 C1649 1.427 . S
N1657 C1655 1.384 . S
H1658 C1664 0.930 . S
H1659 C1668 0.930 . S
H1660 C1673 0.929 . S
H1661 C1671 0.929 . S
H1662 C1666 0.929 . S
H1663 C1672 0.929 . S
C1664 H1658 0.930 . S
C1664 C1665 1.367 . S
C1664 C1672 1.378 . S
C1665 C1664 1.367 . S
C1665 C1673 1.433 . S
C1666 H1662 0.929 . S
C1666 C1668 1.378 . S
C1666 C1670 1.350 . S
C1667 C1670 1.463 . S
C1667 C1672 1.350 . S
C1667 N1675 1.427 . S
C1668 H1659 0.930 . S
C1668 C1666 1.378 . S
C1668 C1669 1.367 . S
C1669 C1668 1.367 . S
C1669 C1671 1.433 . S
C1670 C1666 1.350 . S
C1670 C1667 1.463 . S
C1670 N1674 1.427 . S
C1671 H1661 0.929 . S
C1671 C1669 1.433 . S
C1671 N1674 1.384 . S
C1672 H1663 0.929 . S
C1672 C1664 1.378 . S
C1672 C1667 1.350 . S
C1673 H1660 0.929 . S
C1673 C1665 1.433 . S
C1673 N1675 1.384 . S
N1674 C1670 1.427 . S
N1674 C1671 1.384 . S
N1675 C1667 1.427 . S
N1675 C1673 1.384 . S
H1676 C1682 0.930 . S
H1677 C1686 0.930 . S
H1678 C1691 0.929 . S
H1679 C1689 0.929 . S
H1680 C1684 0.929 . S
H1681 C1690 0.929 . S
C1682 H1676 0.930 . S
C1682 C1683 1.367 . S
C1682 C1690 1.378 . S
C1683 C1682 1.367 . S
C1683 C1691 1.433 . S
C1684 H1680 0.929 . S
C1684 C1686 1.378 . S
C1684 C1688 1.350 . S
C1685 C1688 1.463 1_554 S
C1685 C1690 1.350 . S
C1685 N1693 1.427 . S
C1686 H1677 0.930 . S
C1686 C1684 1.378 . S
C1686 C1687 1.367 . S
C1687 C1686 1.367 . S
C1687 C1689 1.433 . S
C1688 C1684 1.350 . S
C1688 C1685 1.463 1_556 S
C1688 N1692 1.427 . S
C1689 H1679 0.929 . S
C1689 C1687 1.433 . S
C1689 N1692 1.384 . S
C1690 H1681 0.929 . S
C1690 C1682 1.378 . S
C1690 C1685 1.350 . S
C1691 H1678 0.929 . S
C1691 C1683 1.433 . S
C1691 N1693 1.384 . S
N1692 C1688 1.427 . S
N1692 C1689 1.384 . S
N1693 C1685 1.427 . S
N1693 C1691 1.384 . S
H1694 C1700 0.930 . S
H1695 C1704 0.930 . S
H1696 C1709 0.929 . S
H1697 C1707 0.929 . S
H1698 C1702 0.929 . S
H1699 C1708 0.929 . S
C1700 H1694 0.930 . S
C1700 C1701 1.367 . S
C1700 C1708 1.378 . S
C1701 C1700 1.367 . S
C1701 C1709 1.433 . S
C1702 H1698 0.929 . S
C1702 C1704 1.378 . S
C1702 C1706 1.350 . S
C1703 C1706 1.463 . S
C1703 C1708 1.350 . S
C1703 N1711 1.427 . S
C1704 H1695 0.930 . S
C1704 C1702 1.378 . S
C1704 C1705 1.367 . S
C1705 C1704 1.367 . S
C1705 C1707 1.433 . S
C1706 C1702 1.350 . S
C1706 C1703 1.463 . S
C1706 N1710 1.427 . S
C1707 H1697 0.929 . S
C1707 C1705 1.433 . S
C1707 N1710 1.384 . S
C1708 H1699 0.929 . S
C1708 C1700 1.378 . S
C1708 C1703 1.350 . S
C1709 H1696 0.929 . S
C1709 C1701 1.433 . S
C1709 N1711 1.384 . S
N1710 C1706 1.427 . S
N1710 C1707 1.384 . S
N1711 C1703 1.427 . S
N1711 C1709 1.384 . S
H1712 C1718 0.930 . S
H1713 C1722 0.930 . S
H1714 C1727 0.929 . S
H1715 C1725 0.929 . S
H1716 C1720 0.929 . S
H1717 C1726 0.929 . S
C1718 H1712 0.930 . S
C1718 C1719 1.367 . S
C1718 C1726 1.378 . S
C1719 C1718 1.367 . S
C1719 C1727 1.433 . S
C1720 H1716 0.929 . S
C1720 C1722 1.378 . S
C1720 C1724 1.350 . S
C1721 C1724 1.463 1_554 S
C1721 C1726 1.350 . S
C1721 N1729 1.427 . S
C1722 H1713 0.930 . S
C1722 C1720 1.378 . S
C1722 C1723 1.367 . S
C1723 C1722 1.367 . S
C1723 C1725 1.433 . S
C1724 C1720 1.350 . S
C1724 C1721 1.463 1_556 S
C1724 N1728 1.427 . S
C1725 H1715 0.929 . S
C1725 C1723 1.433 . S
C1725 N1728 1.384 . S
C1726 H1717 0.929 . S
C1726 C1718 1.378 . S
C1726 C1721 1.350 . S
C1727 H1714 0.929 . S
C1727 C1719 1.433 . S
C1727 N1729 1.384 . S
N1728 C1724 1.427 . S
N1728 C1725 1.384 . S
N1729 C1721 1.427 . S
N1729 C1727 1.384 . S
H1730 C1736 0.930 . S
H1731 C1740 0.930 . S
H1732 C1745 0.929 . S
H1733 C1743 0.929 . S
H1734 C1738 0.929 . S
H1735 C1744 0.929 . S
C1736 H1730 0.930 . S
C1736 C1737 1.367 . S
C1736 C1744 1.378 . S
C1737 C1736 1.367 . S
C1737 C1745 1.433 . S
C1738 H1734 0.929 . S
C1738 C1740 1.378 . S
C1738 C1742 1.350 . S
C1739 C1742 1.463 . S
C1739 C1744 1.350 . S
C1739 N1747 1.427 . S
C1740 H1731 0.930 . S
C1740 C1738 1.378 . S
C1740 C1741 1.367 . S
C1741 C1740 1.367 . S
C1741 C1743 1.433 . S
C1742 C1738 1.350 . S
C1742 C1739 1.463 . S
C1742 N1746 1.427 . S
C1743 H1733 0.929 . S
C1743 C1741 1.433 . S
C1743 N1746 1.384 . S
C1744 H1735 0.929 . S
C1744 C1736 1.378 . S
C1744 C1739 1.350 . S
C1745 H1732 0.929 . S
C1745 C1737 1.433 . S
C1745 N1747 1.384 . S
N1746 C1742 1.427 . S
N1746 C1743 1.384 . S
N1747 C1739 1.427 . S
N1747 C1745 1.384 . S
H1748 C1754 0.930 . S
H1749 C1758 0.930 . S
H1750 C1763 0.929 . S
H1751 C1761 0.929 . S
H1752 C1756 0.929 . S
H1753 C1762 0.929 . S
C1754 H1748 0.930 . S
C1754 C1755 1.367 . S
C1754 C1762 1.378 . S
C1755 C1754 1.367 . S
C1755 C1763 1.433 . S
C1756 H1752 0.929 . S
C1756 C1758 1.378 . S
C1756 C1760 1.350 . S
C1757 C1760 1.463 . S
C1757 C1762 1.350 . S
C1757 N1765 1.427 . S
C1758 H1749 0.930 . S
C1758 C1756 1.378 . S
C1758 C1759 1.367 . S
C1759 C1758 1.367 . S
C1759 C1761 1.433 . S
C1760 C1756 1.350 . S
C1760 C1757 1.463 . S
C1760 N1764 1.427 . S
C1761 H1751 0.929 . S
C1761 C1759 1.433 . S
C1761 N1764 1.384 . S
C1762 H1753 0.929 . S
C1762 C1754 1.378 . S
C1762 C1757 1.350 . S
C1763 H1750 0.929 . S
C1763 C1755 1.433 . S
C1763 N1765 1.384 . S
N1764 C1760 1.427 . S
N1764 C1761 1.384 . S
N1765 C1757 1.427 . S
N1765 C1763 1.384 . S
H1766 C1772 0.930 . S
H1767 C1776 0.930 . S
H1768 C1781 0.929 . S
H1769 C1779 0.929 . S
H1770 C1774 0.929 . S
H1771 C1780 0.929 . S
C1772 H1766 0.930 . S
C1772 C1773 1.367 . S
C1772 C1780 1.378 . S
C1773 C1772 1.367 . S
C1773 C1781 1.433 . S
C1774 H1770 0.929 . S
C1774 C1776 1.378 . S
C1774 C1778 1.350 . S
C1775 C1778 1.463 . S
C1775 C1780 1.350 . S
C1775 N1783 1.427 . S
C1776 H1767 0.930 . S
C1776 C1774 1.378 . S
C1776 C1777 1.367 . S
C1777 C1776 1.367 . S
C1777 C1779 1.433 . S
C1778 C1774 1.350 . S
C1778 C1775 1.463 . S
C1778 N1782 1.427 . S
C1779 H1769 0.929 . S
C1779 C1777 1.433 . S
C1779 N1782 1.384 . S
C1780 H1771 0.929 . S
C1780 C1772 1.378 . S
C1780 C1775 1.350 . S
C1781 H1768 0.929 . S
C1781 C1773 1.433 . S
C1781 N1783 1.384 . S
N1782 C1778 1.427 . S
N1782 C1779 1.384 . S
N1783 C1775 1.427 . S
N1783 C1781 1.384 . S
H1784 C1790 0.930 . S
H1785 C1794 0.930 . S
H1786 C1799 0.929 . S
H1787 C1797 0.929 . S
H1788 C1792 0.929 . S
H1789 C1798 0.929 . S
C1790 H1784 0.930 . S
C1790 C1791 1.367 . S
C1790 C1798 1.378 . S
C1791 C1790 1.367 . S
C1791 C1799 1.433 . S
C1792 H1788 0.929 . S
C1792 C1794 1.378 . S
C1792 C1796 1.350 . S
C1793 C1796 1.463 . S
C1793 C1798 1.350 . S
C1793 N1801 1.427 . S
C1794 H1785 0.930 . S
C1794 C1792 1.378 . S
C1794 C1795 1.367 . S
C1795 C1794 1.367 . S
C1795 C1797 1.433 . S
C1796 C1792 1.350 . S
C1796 C1793 1.463 . S
C1796 N1800 1.427 . S
C1797 H1787 0.929 . S
C1797 C1795 1.433 . S
C1797 N1800 1.384 . S
C1798 H1789 0.929 . S
C1798 C1790 1.378 . S
C1798 C1793 1.350 . S
C1799 H1786 0.929 . S
C1799 C1791 1.433 . S
C1799 N1801 1.384 . S
N1800 C1796 1.427 . S
N1800 C1797 1.384 . S
N1801 C1793 1.427 . S
N1801 C1799 1.384 . S
H1802 C1808 0.930 . S
H1803 C1812 0.930 . S
H1804 C1817 0.929 . S
H1805 C1815 0.929 . S
H1806 C1810 0.929 . S
H1807 C1816 0.929 . S
C1808 H1802 0.930 . S
C1808 C1809 1.367 . S
C1808 C1816 1.378 . S
C1809 C1808 1.367 . S
C1809 C1817 1.433 . S
C1810 H1806 0.929 . S
C1810 C1812 1.378 . S
C1810 C1814 1.350 . S
C1811 C1814 1.463 . S
C1811 C1816 1.350 . S
C1811 N1819 1.427 . S
C1812 H1803 0.930 . S
C1812 C1810 1.378 . S
C1812 C1813 1.367 . S
C1813 C1812 1.367 . S
C1813 C1815 1.433 . S
C1814 C1810 1.350 . S
C1814 C1811 1.463 . S
C1814 N1818 1.427 . S
C1815 H1805 0.929 . S
C1815 C1813 1.433 . S
C1815 N1818 1.384 . S
C1816 H1807 0.929 . S
C1816 C1808 1.378 . S
C1816 C1811 1.350 . S
C1817 H1804 0.929 . S
C1817 C1809 1.433 . S
C1817 N1819 1.384 . S
N1818 C1814 1.427 . S
N1818 C1815 1.384 . S
N1819 C1811 1.427 . S
N1819 C1817 1.384 . S
H1820 C1826 0.930 . S
H1821 C1830 0.930 . S
H1822 C1835 0.929 . S
H1823 C1833 0.929 . S
H1824 C1828 0.929 . S
H1825 C1834 0.929 . S
C1826 H1820 0.930 . S
C1826 C1827 1.367 . S
C1826 C1834 1.378 . S
C1827 C1826 1.367 . S
C1827 C1835 1.433 . S
C1828 H1824 0.929 . S
C1828 C1830 1.378 . S
C1828 C1832 1.350 . S
C1829 C1832 1.463 . S
C1829 C1834 1.350 . S
C1829 N1837 1.427 . S
C1830 H1821 0.930 . S
C1830 C1828 1.378 . S
C1830 C1831 1.367 . S
C1831 C1830 1.367 . S
C1831 C1833 1.433 . S
C1832 C1828 1.350 . S
C1832 C1829 1.463 . S
C1832 N1836 1.427 . S
C1833 H1823 0.929 . S
C1833 C1831 1.433 . S
C1833 N1836 1.384 . S
C1834 H1825 0.929 . S
C1834 C1826 1.378 . S
C1834 C1829 1.350 . S
C1835 H1822 0.929 . S
C1835 C1827 1.433 . S
C1835 N1837 1.384 . S
N1836 C1832 1.427 . S
N1836 C1833 1.384 . S
N1837 C1829 1.427 . S
N1837 C1835 1.384 . S
H1838 C1844 0.930 . S
H1839 C1848 0.930 . S
H1840 C1853 0.929 . S
H1841 C1851 0.929 . S
H1842 C1846 0.929 . S
H1843 C1852 0.929 . S
C1844 H1838 0.930 . S
C1844 C1845 1.367 . S
C1844 C1852 1.378 . S
C1845 C1844 1.367 . S
C1845 C1853 1.433 . S
C1846 H1842 0.929 . S
C1846 C1848 1.378 . S
C1846 C1850 1.350 . S
C1847 C1850 1.463 1_556 S
C1847 C1852 1.350 . S
C1847 N1855 1.427 . S
C1848 H1839 0.930 . S
C1848 C1846 1.378 . S
C1848 C1849 1.367 . S
C1849 C1848 1.367 . S
C1849 C1851 1.433 . S
C1850 C1846 1.350 . S
C1850 C1847 1.463 1_554 S
C1850 N1854 1.427 . S
C1851 H1841 0.929 . S
C1851 C1849 1.433 . S
C1851 N1854 1.384 . S
C1852 H1843 0.929 . S
C1852 C1844 1.378 . S
C1852 C1847 1.350 . S
C1853 H1840 0.929 . S
C1853 C1845 1.433 . S
C1853 N1855 1.384 . S
N1854 C1850 1.427 . S
N1854 C1851 1.384 . S
N1855 C1847 1.427 . S
N1855 C1853 1.384 . S
H1856 C1862 0.930 . S
H1857 C1866 0.930 . S
H1858 C1871 0.929 . S
H1859 C1869 0.929 . S
H1860 C1864 0.929 . S
H1861 C1870 0.929 . S
C1862 H1856 0.930 . S
C1862 C1863 1.367 . S
C1862 C1870 1.378 . S
C1863 C1862 1.367 . S
C1863 C1871 1.433 . S
C1864 H1860 0.929 . S
C1864 C1866 1.378 . S
C1864 C1868 1.350 . S
C1865 C1868 1.463 1_655 S
C1865 C1870 1.350 . S
C1865 N1873 1.427 . S
C1866 H1857 0.930 . S
C1866 C1864 1.378 . S
C1866 C1867 1.367 . S
C1867 C1866 1.367 . S
C1867 C1869 1.433 . S
C1868 C1864 1.350 . S
C1868 C1865 1.463 1_455 S
C1868 N1872 1.427 . S
C1869 H1859 0.929 . S
C1869 C1867 1.433 . S
C1869 N1872 1.384 . S
C1870 H1861 0.929 . S
C1870 C1862 1.378 . S
C1870 C1865 1.350 . S
C1871 H1858 0.929 . S
C1871 C1863 1.433 . S
C1871 N1873 1.384 . S
N1872 C1868 1.427 . S
N1872 C1869 1.384 . S
N1873 C1865 1.427 . S
N1873 C1871 1.384 . S
H1874 C1880 0.930 . S
H1875 C1884 0.930 . S
H1876 C1889 0.929 . S
H1877 C1887 0.929 . S
H1878 C1882 0.929 . S
H1879 C1888 0.929 . S
C1880 H1874 0.930 . S
C1880 C1881 1.367 . S
C1880 C1888 1.378 . S
C1881 C1880 1.367 . S
C1881 C1889 1.433 . S
C1882 H1878 0.929 . S
C1882 C1884 1.378 . S
C1882 C1886 1.350 . S
C1883 C1886 1.463 . S
C1883 C1888 1.350 . S
C1883 N1891 1.427 . S
C1884 H1875 0.930 . S
C1884 C1882 1.378 . S
C1884 C1885 1.367 . S
C1885 C1884 1.367 . S
C1885 C1887 1.433 . S
C1886 C1882 1.350 . S
C1886 C1883 1.463 . S
C1886 N1890 1.427 . S
C1887 H1877 0.929 . S
C1887 C1885 1.433 . S
C1887 N1890 1.384 . S
C1888 H1879 0.929 . S
C1888 C1880 1.378 . S
C1888 C1883 1.350 . S
C1889 H1876 0.929 . S
C1889 C1881 1.433 . S
C1889 N1891 1.384 . S
N1890 C1886 1.427 . S
N1890 C1887 1.384 . S
N1891 C1883 1.427 . S
N1891 C1889 1.384 . S
H1892 C1898 0.930 . S
H1893 C1902 0.930 . S
H1894 C1907 0.929 . S
H1895 C1905 0.929 . S
H1896 C1900 0.929 . S
H1897 C1906 0.929 . S
C1898 H1892 0.930 . S
C1898 C1899 1.367 . S
C1898 C1906 1.378 . S
C1899 C1898 1.367 . S
C1899 C1907 1.433 . S
C1900 H1896 0.929 . S
C1900 C1902 1.378 . S
C1900 C1904 1.350 . S
C1901 C1904 1.463 . S
C1901 C1906 1.350 . S
C1901 N1909 1.427 . S
C1902 H1893 0.930 . S
C1902 C1900 1.378 . S
C1902 C1903 1.367 . S
C1903 C1902 1.367 . S
C1903 C1905 1.433 . S
C1904 C1900 1.350 . S
C1904 C1901 1.463 . S
C1904 N1908 1.427 . S
C1905 H1895 0.929 . S
C1905 C1903 1.433 . S
C1905 N1908 1.384 . S
C1906 H1897 0.929 . S
C1906 C1898 1.378 . S
C1906 C1901 1.350 . S
C1907 H1894 0.929 . S
C1907 C1899 1.433 . S
C1907 N1909 1.384 . S
N1908 C1904 1.427 . S
N1908 C1905 1.384 . S
N1909 C1901 1.427 . S
N1909 C1907 1.384 . S
H1910 C1916 0.930 . S
H1911 C1920 0.930 . S
H1912 C1925 0.929 . S
H1913 C1923 0.929 . S
H1914 C1918 0.929 . S
H1915 C1924 0.929 . S
C1916 H1910 0.930 . S
C1916 C1917 1.367 . S
C1916 C1924 1.378 . S
C1917 C1916 1.367 . S
C1917 C1925 1.433 . S
C1918 H1914 0.929 . S
C1918 C1920 1.378 . S
C1918 C1922 1.350 . S
C1919 C1922 1.463 . S
C1919 C1924 1.350 . S
C1919 N1927 1.427 . S
C1920 H1911 0.930 . S
C1920 C1918 1.378 . S
C1920 C1921 1.367 . S
C1921 C1920 1.367 . S
C1921 C1923 1.433 . S
C1922 C1918 1.350 . S
C1922 C1919 1.463 . S
C1922 N1926 1.427 . S
C1923 H1913 0.929 . S
C1923 C1921 1.433 . S
C1923 N1926 1.384 . S
C1924 H1915 0.929 . S
C1924 C1916 1.378 . S
C1924 C1919 1.350 . S
C1925 H1912 0.929 . S
C1925 C1917 1.433 . S
C1925 N1927 1.384 . S
N1926 C1922 1.427 . S
N1926 C1923 1.384 . S
N1927 C1919 1.427 . S
N1927 C1925 1.384 . S
H1928 C1934 0.930 . S
H1929 C1938 0.930 . S
H1930 C1943 0.929 . S
H1931 C1941 0.929 . S
H1932 C1936 0.929 1_655 S
H1933 C1942 0.929 1_455 S
C1934 H1928 0.930 . S
C1934 C1935 1.367 . S
C1934 C1942 1.378 . S
C1935 C1934 1.367 . S
C1935 C1943 1.433 . S
C1936 H1932 0.929 1_455 S
C1936 C1938 1.377 . S
C1936 C1940 1.350 . S
C1937 C1940 1.463 1_655 S
C1937 C1942 1.350 . S
C1937 N1945 1.427 . S
C1938 H1929 0.930 . S
C1938 C1936 1.377 . S
C1938 C1939 1.367 . S
C1939 C1938 1.367 . S
C1939 C1941 1.433 . S
C1940 C1936 1.350 . S
C1940 C1937 1.463 1_455 S
C1940 N1944 1.427 . S
C1941 H1931 0.929 . S
C1941 C1939 1.433 . S
C1941 N1944 1.384 . S
C1942 H1933 0.929 1_655 S
C1942 C1934 1.378 . S
C1942 C1937 1.350 . S
C1943 H1930 0.929 . S
C1943 C1935 1.433 . S
C1943 N1945 1.384 . S
N1944 C1940 1.427 . S
N1944 C1941 1.384 . S
N1945 C1937 1.427 . S
N1945 C1943 1.384 . S
H1946 C1952 0.930 . S
H1947 C1956 0.930 . S
H1948 C1961 0.929 . S
H1949 C1959 0.929 . S
H1950 C1954 0.929 . S
H1951 C1960 0.929 . S
C1952 H1946 0.930 . S
C1952 C1953 1.367 . S
C1952 C1960 1.378 . S
C1953 C1952 1.367 . S
C1953 C1961 1.433 . S
C1954 H1950 0.929 . S
C1954 C1956 1.378 . S
C1954 C1958 1.350 . S
C1955 C1958 1.463 . S
C1955 C1960 1.350 . S
C1955 N1963 1.427 . S
C1956 H1947 0.930 . S
C1956 C1954 1.378 . S
C1956 C1957 1.367 . S
C1957 C1956 1.367 . S
C1957 C1959 1.433 . S
C1958 C1954 1.350 . S
C1958 C1955 1.463 . S
C1958 N1962 1.427 . S
C1959 H1949 0.929 . S
C1959 C1957 1.433 . S
C1959 N1962 1.384 . S
C1960 H1951 0.929 . S
C1960 C1952 1.378 . S
C1960 C1955 1.350 . S
C1961 H1948 0.929 . S
C1961 C1953 1.433 . S
C1961 N1963 1.384 . S
N1962 C1958 1.427 . S
N1962 C1959 1.384 . S
N1963 C1955 1.427 . S
N1963 C1961 1.384 . S
H1964 C1970 0.930 . S
H1965 C1974 0.930 . S
H1966 C1979 0.929 . S
H1967 C1977 0.929 . S
H1968 C1972 0.929 . S
H1969 C1978 0.929 . S
C1970 H1964 0.930 . S
C1970 C1971 1.367 . S
C1970 C1978 1.378 . S
C1971 C1970 1.367 . S
C1971 C1979 1.433 . S
C1972 H1968 0.929 . S
C1972 C1974 1.378 . S
C1972 C1976 1.350 . S
C1973 C1976 1.463 . S
C1973 C1978 1.350 . S
C1973 N1981 1.427 . S
C1974 H1965 0.930 . S
C1974 C1972 1.378 . S
C1974 C1975 1.367 . S
C1975 C1974 1.367 . S
C1975 C1977 1.433 . S
C1976 C1972 1.350 . S
C1976 C1973 1.463 . S
C1976 N1980 1.427 . S
C1977 H1967 0.929 . S
C1977 C1975 1.433 . S
C1977 N1980 1.384 . S
C1978 H1969 0.929 . S
C1978 C1970 1.378 . S
C1978 C1973 1.350 . S
C1979 H1966 0.929 . S
C1979 C1971 1.433 . S
C1979 N1981 1.384 . S
N1980 C1976 1.427 . S
N1980 C1977 1.384 . S
N1981 C1973 1.427 . S
N1981 C1979 1.384 . S
H1982 C1988 0.930 . S
H1983 C1992 0.930 . S
H1984 C1997 0.929 . S
H1985 C1995 0.929 . S
H1986 C1990 0.929 . S
H1987 C1996 0.929 . S
C1988 H1982 0.930 . S
C1988 C1989 1.367 . S
C1988 C1996 1.378 . S
C1989 C1988 1.367 . S
C1989 C1997 1.433 . S
C1990 H1986 0.929 . S
C1990 C1992 1.378 . S
C1990 C1994 1.350 . S
C1991 C1994 1.463 . S
C1991 C1996 1.350 . S
C1991 N1999 1.427 . S
C1992 H1983 0.930 . S
C1992 C1990 1.378 . S
C1992 C1993 1.367 . S
C1993 C1992 1.367 . S
C1993 C1995 1.433 . S
C1994 C1990 1.350 . S
C1994 C1991 1.463 . S
C1994 N1998 1.427 . S
C1995 H1985 0.929 . S
C1995 C1993 1.433 . S
C1995 N1998 1.384 . S
C1996 H1987 0.929 . S
C1996 C1988 1.378 . S
C1996 C1991 1.350 . S
C1997 H1984 0.929 . S
C1997 C1989 1.433 . S
C1997 N1999 1.384 . S
N1998 C1994 1.427 . S
N1998 C1995 1.384 . S
N1999 C1991 1.427 . S
N1999 C1997 1.384 . S
H2000 C2006 0.930 . S
H2001 C2010 0.930 . S
H2002 C2015 0.929 . S
H2003 C2013 0.929 . S
H2004 C2008 0.929 . S
H2005 C2014 0.929 . S
C2006 H2000 0.930 . S
C2006 C2007 1.367 . S
C2006 C2014 1.378 . S
C2007 C2006 1.367 . S
C2007 C2015 1.433 . S
C2008 H2004 0.929 . S
C2008 C2010 1.378 . S
C2008 C2012 1.350 . S
C2009 C2012 1.463 . S
C2009 C2014 1.350 . S
C2009 N2017 1.427 . S
C2010 H2001 0.930 . S
C2010 C2008 1.378 . S
C2010 C2011 1.367 . S
C2011 C2010 1.367 . S
C2011 C2013 1.433 . S
C2012 C2008 1.350 . S
C2012 C2009 1.463 . S
C2012 N2016 1.427 . S
C2013 H2003 0.929 . S
C2013 C2011 1.433 . S
C2013 N2016 1.384 . S
C2014 H2005 0.929 . S
C2014 C2006 1.378 . S
C2014 C2009 1.350 . S
C2015 H2002 0.929 . S
C2015 C2007 1.433 . S
C2015 N2017 1.384 . S
N2016 C2012 1.427 . S
N2016 C2013 1.384 . S
N2017 C2009 1.427 . S
N2017 C2015 1.384 . S
H2018 C2024 0.930 . S
H2019 C2028 0.930 . S
H2020 C2033 0.929 . S
H2021 C2031 0.929 . S
H2022 C2026 0.929 . S
H2023 C2032 0.929 . S
C2024 H2018 0.930 . S
C2024 C2025 1.367 . S
C2024 C2032 1.378 . S
C2025 C2024 1.367 . S
C2025 C2033 1.433 . S
C2026 H2022 0.929 . S
C2026 C2028 1.378 . S
C2026 C2030 1.350 . S
C2027 C2030 1.463 . S
C2027 C2032 1.350 . S
C2027 N2035 1.427 . S
C2028 H2019 0.930 . S
C2028 C2026 1.378 . S
C2028 C2029 1.367 . S
C2029 C2028 1.367 . S
C2029 C2031 1.433 . S
C2030 C2026 1.350 . S
C2030 C2027 1.463 . S
C2030 N2034 1.427 . S
C2031 H2021 0.929 . S
C2031 C2029 1.433 . S
C2031 N2034 1.384 . S
C2032 H2023 0.929 . S
C2032 C2024 1.378 . S
C2032 C2027 1.350 . S
C2033 H2020 0.929 . S
C2033 C2025 1.433 . S
C2033 N2035 1.384 . S
N2034 C2030 1.427 . S
N2034 C2031 1.384 . S
N2035 C2027 1.427 . S
N2035 C2033 1.384 . S
H2036 C2042 0.930 . S
H2037 C2046 0.930 . S
H2038 C2051 0.929 . S
H2039 C2049 0.929 . S
H2040 C2044 0.929 . S
H2041 C2050 0.929 . S
C2042 H2036 0.930 . S
C2042 C2043 1.367 . S
C2042 C2050 1.378 . S
C2043 C2042 1.367 . S
C2043 C2051 1.433 . S
C2044 H2040 0.929 . S
C2044 C2046 1.378 . S
C2044 C2048 1.350 . S
C2045 C2048 1.463 . S
C2045 C2050 1.350 . S
C2045 N2053 1.427 . S
C2046 H2037 0.930 . S
C2046 C2044 1.378 . S
C2046 C2047 1.367 . S
C2047 C2046 1.367 . S
C2047 C2049 1.433 . S
C2048 C2044 1.350 . S
C2048 C2045 1.463 . S
C2048 N2052 1.427 . S
C2049 H2039 0.929 . S
C2049 C2047 1.433 . S
C2049 N2052 1.384 . S
C2050 H2041 0.929 . S
C2050 C2042 1.378 . S
C2050 C2045 1.350 . S
C2051 H2038 0.929 . S
C2051 C2043 1.433 . S
C2051 N2053 1.384 . S
N2052 C2048 1.427 . S
N2052 C2049 1.384 . S
N2053 C2045 1.427 . S
N2053 C2051 1.384 . S
H2054 C2060 0.930 . S
H2055 C2064 0.930 . S
H2056 C2069 0.929 . S
H2057 C2067 0.929 . S
H2058 C2062 0.929 . S
H2059 C2068 0.929 . S
C2060 H2054 0.930 . S
C2060 C2061 1.367 . S
C2060 C2068 1.378 . S
C2061 C2060 1.367 . S
C2061 C2069 1.433 . S
C2062 H2058 0.929 . S
C2062 C2064 1.378 . S
C2062 C2066 1.350 . S
C2063 C2066 1.463 . S
C2063 C2068 1.350 . S
C2063 N2071 1.427 . S
C2064 H2055 0.930 . S
C2064 C2062 1.378 . S
C2064 C2065 1.367 . S
C2065 C2064 1.367 . S
C2065 C2067 1.433 . S
C2066 C2062 1.350 . S
C2066 C2063 1.463 . S
C2066 N2070 1.427 . S
C2067 H2057 0.929 . S
C2067 C2065 1.433 . S
C2067 N2070 1.384 . S
C2068 H2059 0.929 . S
C2068 C2060 1.378 . S
C2068 C2063 1.350 . S
C2069 H2056 0.929 . S
C2069 C2061 1.433 . S
C2069 N2071 1.384 . S
N2070 C2066 1.427 . S
N2070 C2067 1.384 . S
N2071 C2063 1.427 . S
N2071 C2069 1.384 . S
H2072 C2078 0.930 . S
H2073 C2082 0.930 . S
H2074 C2087 0.929 . S
H2075 C2085 0.929 . S
H2076 C2080 0.952 . S
H2077 C2086 0.948 . S
C2078 H2072 0.930 . S
C2078 C2079 1.367 . S
C2078 C2086 1.365 1_545 S
C2079 C2078 1.367 . S
C2079 C2087 1.433 . S
C2080 H2076 0.952 . S
C2080 C2082 1.363 1_545 S
C2080 C2084 1.342 1_545 S
C2081 C2084 1.463 1_545 S
C2081 C2086 1.343 1_545 S
C2081 N2089 1.427 . S
C2082 H2073 0.930 . S
C2082 C2080 1.363 1_565 S
C2082 C2083 1.367 . S
C2083 C2082 1.367 . S
C2083 C2085 1.433 . S
C2084 C2080 1.342 1_565 S
C2084 C2081 1.463 1_565 S
C2084 N2088 1.427 . S
C2085 H2075 0.929 . S
C2085 C2083 1.433 . S
C2085 N2088 1.384 . S
C2086 H2077 0.948 . S
C2086 C2078 1.365 1_565 S
C2086 C2081 1.343 1_565 S
C2087 H2074 0.929 . S
C2087 C2079 1.433 . S
C2087 N2089 1.384 . S
N2088 C2084 1.427 . S
N2088 C2085 1.384 . S
N2089 C2081 1.427 . S
N2089 C2087 1.384 . S
H2090 C2096 0.930 . S
H2091 C2100 0.930 . S
H2092 C2105 0.929 . S
H2093 C2103 0.929 . S
H2094 C2098 0.958 . S
H2095 C2104 0.958 . S
C2096 H2090 0.930 . S
C2096 C2097 1.367 . S
C2096 C2104 1.359 1_455 S
C2097 C2096 1.367 . S
C2097 C2105 1.433 . S
C2098 H2094 0.958 . S
C2098 C2100 1.359 1_455 S
C2098 C2102 1.340 1_455 S
C2099 C2102 1.463 1_465 S
C2099 C2104 1.340 1_455 S
C2099 N2107 1.427 . S
C2100 H2091 0.930 . S
C2100 C2098 1.359 1_655 S
C2100 C2101 1.367 . S
C2101 C2100 1.367 . S
C2101 C2103 1.433 . S
C2102 C2098 1.340 1_655 S
C2102 C2099 1.463 1_645 S
C2102 N2106 1.427 . S
C2103 H2093 0.929 . S
C2103 C2101 1.433 . S
C2103 N2106 1.384 . S
C2104 H2095 0.958 . S
C2104 C2096 1.359 1_655 S
C2104 C2099 1.340 1_655 S
C2105 H2092 0.929 . S
C2105 C2097 1.433 . S
C2105 N2107 1.384 . S
N2106 C2102 1.427 . S
N2106 C2103 1.384 . S
N2107 C2099 1.427 . S
N2107 C2105 1.384 . S
H2108 C2114 0.930 . S
H2109 C2118 0.930 . S
H2110 C2123 0.929 . S
H2111 C2121 0.929 . S
H2112 C2116 0.929 1_565 S
H2113 C2122 0.929 1_545 S
C2114 H2108 0.930 . S
C2114 C2115 1.367 . S
C2114 C2122 1.378 . S
C2115 C2114 1.367 . S
C2115 C2123 1.433 . S
C2116 H2112 0.929 1_545 S
C2116 C2118 1.378 . S
C2116 C2120 1.350 . S
C2117 C2120 1.463 1_565 S
C2117 C2122 1.350 . S
C2117 N2125 1.427 . S
C2118 H2109 0.930 . S
C2118 C2116 1.378 . S
C2118 C2119 1.367 . S
C2119 C2118 1.367 . S
C2119 C2121 1.433 . S
C2120 C2116 1.350 . S
C2120 C2117 1.463 1_545 S
C2120 N2124 1.427 . S
C2121 H2111 0.929 . S
C2121 C2119 1.433 . S
C2121 N2124 1.384 . S
C2122 H2113 0.929 1_565 S
C2122 C2114 1.378 . S
C2122 C2117 1.350 . S
C2123 H2110 0.929 . S
C2123 C2115 1.433 . S
C2123 N2125 1.384 . S
N2124 C2120 1.427 . S
N2124 C2121 1.384 . S
N2125 C2117 1.427 . S
N2125 C2123 1.384 . S
H2126 C2132 0.930 . S
H2127 C2136 0.930 . S
H2128 C2141 0.929 . S
H2129 C2139 0.929 . S
H2130 C2134 0.929 . S
H2131 C2140 0.929 . S
C2132 H2126 0.930 . S
C2132 C2133 1.367 . S
C2132 C2140 1.378 . S
C2133 C2132 1.367 . S
C2133 C2141 1.433 . S
C2134 H2130 0.929 . S
C2134 C2136 1.378 . S
C2134 C2138 1.350 . S
C2135 C2138 1.463 1_665 S
C2135 C2140 1.350 . S
C2135 N2143 1.427 . S
C2136 H2127 0.930 . S
C2136 C2134 1.378 . S
C2136 C2137 1.367 . S
C2137 C2136 1.367 . S
C2137 C2139 1.433 . S
C2138 C2134 1.350 . S
C2138 C2135 1.463 1_445 S
C2138 N2142 1.428 . S
C2139 H2129 0.929 . S
C2139 C2137 1.433 . S
C2139 N2142 1.384 . S
C2140 H2131 0.929 . S
C2140 C2132 1.378 . S
C2140 C2135 1.350 . S
C2141 H2128 0.929 . S
C2141 C2133 1.433 . S
C2141 N2143 1.384 . S
N2142 C2138 1.428 . S
N2142 C2139 1.384 . S
N2143 C2135 1.427 . S
N2143 C2141 1.384 . S
H2144 C2150 0.930 . S
H2145 C2154 0.930 . S
H2146 C2159 0.929 . S
H2147 C2157 0.929 . S
H2148 C2152 0.929 . S
H2149 C2158 0.929 1_655 S
C2150 H2144 0.930 . S
C2150 C2151 1.367 . S
C2150 C2158 1.378 . S
C2151 C2150 1.367 . S
C2151 C2159 1.433 . S
C2152 H2148 0.929 . S
C2152 C2154 1.378 . S
C2152 C2156 1.350 . S
C2153 C2156 1.463 . S
C2153 C2158 1.350 1_655 S
C2153 N2161 1.427 1_655 S
C2154 H2145 0.930 . S
C2154 C2152 1.378 . S
C2154 C2155 1.367 . S
C2155 C2154 1.367 . S
C2155 C2157 1.433 . S
C2156 C2152 1.350 . S
C2156 C2153 1.463 . S
C2156 N2160 1.427 . S
C2157 H2147 0.929 . S
C2157 C2155 1.433 . S
C2157 N2160 1.384 . S
C2158 H2149 0.929 1_455 S
C2158 C2150 1.378 . S
C2158 C2153 1.350 1_455 S
C2159 H2146 0.929 . S
C2159 C2151 1.433 . S
C2159 N2161 1.384 . S
N2160 C2156 1.427 . S
N2160 C2157 1.384 . S
N2161 C2153 1.427 1_455 S
N2161 C2159 1.384 . S
H2162 C2168 0.930 . S
H2163 C2172 0.930 . S
H2164 C2177 0.929 . S
H2165 C2175 0.929 . S
H2166 C2170 0.929 . S
H2167 C2176 0.929 . S
C2168 H2162 0.930 . S
C2168 C2169 1.367 . S
C2168 C2176 1.378 1_556 S
C2169 C2168 1.367 . S
C2169 C2177 1.433 . S
C2170 H2166 0.929 . S
C2170 C2172 1.378 . S
C2170 C2174 1.350 . S
C2171 C2174 1.463 . S
C2171 C2176 1.350 . S
C2171 N2179 1.427 1_554 S
C2172 H2163 0.930 . S
C2172 C2170 1.378 . S
C2172 C2173 1.367 . S
C2173 C2172 1.367 . S
C2173 C2175 1.433 . S
C2174 C2170 1.350 . S
C2174 C2171 1.463 . S
C2174 N2178 1.427 . S
C2175 H2165 0.929 . S
C2175 C2173 1.433 . S
C2175 N2178 1.384 . S
C2176 H2167 0.929 . S
C2176 C2168 1.378 1_554 S
C2176 C2171 1.350 . S
C2177 H2164 0.929 . S
C2177 C2169 1.433 . S
C2177 N2179 1.384 . S
N2178 C2174 1.427 . S
N2178 C2175 1.384 . S
N2179 C2171 1.427 1_556 S
N2179 C2177 1.384 . S
H2180 C2186 0.930 . S
H2181 C2190 0.930 . S
H2182 C2195 0.929 . S
H2183 C2193 0.929 . S
H2184 C2188 0.929 . S
H2185 C2194 0.929 . S
C2186 H2180 0.930 . S
C2186 C2187 1.367 . S
C2186 C2194 1.378 . S
C2187 C2186 1.367 . S
C2187 C2195 1.433 . S
C2188 H2184 0.929 . S
C2188 C2190 1.378 . S
C2188 C2192 1.350 . S
C2189 C2192 1.463 . S
C2189 C2194 1.350 . S
C2189 N2197 1.427 . S
C2190 H2181 0.930 . S
C2190 C2188 1.378 . S
C2190 C2191 1.367 . S
C2191 C2190 1.367 . S
C2191 C2193 1.433 . S
C2192 C2188 1.350 . S
C2192 C2189 1.463 . S
C2192 N2196 1.427 . S
C2193 H2183 0.929 . S
C2193 C2191 1.433 . S
C2193 N2196 1.384 . S
C2194 H2185 0.929 . S
C2194 C2186 1.378 . S
C2194 C2189 1.350 . S
C2195 H2182 0.929 . S
C2195 C2187 1.433 . S
C2195 N2197 1.384 . S
N2196 C2192 1.427 . S
N2196 C2193 1.384 . S
N2197 C2189 1.427 . S
N2197 C2195 1.384 . S
H2198 C2204 0.930 . S
H2199 C2208 0.930 . S
H2200 C2213 0.929 . S
H2201 C2211 0.929 . S
H2202 C2206 0.929 . S
H2203 C2212 0.929 . S
C2204 H2198 0.930 . S
C2204 C2205 1.367 . S
C2204 C2212 1.378 . S
C2205 C2204 1.367 . S
C2205 C2213 1.433 . S
C2206 H2202 0.929 . S
C2206 C2208 1.378 . S
C2206 C2210 1.350 . S
C2207 C2210 1.463 . S
C2207 C2212 1.350 . S
C2207 N2215 1.427 . S
C2208 H2199 0.930 . S
C2208 C2206 1.378 . S
C2208 C2209 1.367 . S
C2209 C2208 1.367 . S
C2209 C2211 1.433 . S
C2210 C2206 1.350 . S
C2210 C2207 1.463 . S
C2210 N2214 1.427 . S
C2211 H2201 0.929 . S
C2211 C2209 1.433 . S
C2211 N2214 1.384 . S
C2212 H2203 0.929 . S
C2212 C2204 1.378 . S
C2212 C2207 1.350 . S
C2213 H2200 0.929 . S
C2213 C2205 1.433 . S
C2213 N2215 1.384 . S
N2214 C2210 1.427 . S
N2214 C2211 1.384 . S
N2215 C2207 1.427 . S
N2215 C2213 1.384 . S
H2216 C2222 0.930 . S
H2217 C2226 0.930 . S
H2218 C2231 0.929 . S
H2219 C2229 0.929 . S
H2220 C2224 0.929 . S
H2221 C2230 0.929 . S
C2222 H2216 0.930 . S
C2222 C2223 1.367 . S
C2222 C2230 1.378 . S
C2223 C2222 1.367 . S
C2223 C2231 1.433 . S
C2224 H2220 0.929 . S
C2224 C2226 1.378 . S
C2224 C2228 1.350 1_455 S
C2225 C2228 1.463 . S
C2225 C2230 1.350 1_556 S
C2225 N2233 1.427 1_556 S
C2226 H2217 0.930 . S
C2226 C2224 1.378 . S
C2226 C2227 1.367 . S
C2227 C2226 1.367 . S
C2227 C2229 1.433 . S
C2228 C2224 1.350 1_655 S
C2228 C2225 1.463 . S
C2228 N2232 1.427 1_655 S
C2229 H2219 0.929 . S
C2229 C2227 1.433 . S
C2229 N2232 1.384 . S
C2230 H2221 0.929 . S
C2230 C2222 1.378 . S
C2230 C2225 1.350 1_554 S
C2231 H2218 0.929 . S
C2231 C2223 1.433 . S
C2231 N2233 1.384 . S
N2232 C2228 1.427 1_455 S
N2232 C2229 1.384 . S
N2233 C2225 1.427 1_554 S
N2233 C2231 1.384 . S
H2234 C2240 0.930 . S
H2235 C2244 0.930 . S
H2236 C2249 0.929 . S
H2237 C2247 0.929 . S
H2238 C2242 0.929 . S
H2239 C2248 0.929 . S
C2240 H2234 0.930 . S
C2240 C2241 1.367 . S
C2240 C2248 1.378 . S
C2241 C2240 1.367 . S
C2241 C2249 1.433 . S
C2242 H2238 0.929 . S
C2242 C2244 1.378 . S
C2242 C2246 1.350 . S
C2243 C2246 1.463 . S
C2243 C2248 1.350 . S
C2243 N2251 1.427 . S
C2244 H2235 0.930 . S
C2244 C2242 1.378 . S
C2244 C2245 1.367 . S
C2245 C2244 1.367 . S
C2245 C2247 1.433 . S
C2246 C2242 1.350 . S
C2246 C2243 1.463 . S
C2246 N2250 1.427 . S
C2247 H2237 0.929 . S
C2247 C2245 1.433 . S
C2247 N2250 1.384 . S
C2248 H2239 0.929 . S
C2248 C2240 1.378 . S
C2248 C2243 1.350 . S
C2249 H2236 0.929 . S
C2249 C2241 1.433 . S
C2249 N2251 1.384 . S
N2250 C2246 1.427 . S
N2250 C2247 1.384 . S
N2251 C2243 1.427 . S
N2251 C2249 1.384 . S
H2252 C2258 0.930 . S
H2253 C2262 0.930 . S
H2254 C2267 0.929 . S
H2255 C2265 0.929 . S
H2256 C2260 0.929 . S
H2257 C2266 0.929 . S
C2258 H2252 0.930 . S
C2258 C2259 1.367 . S
C2258 C2266 1.378 . S
C2259 C2258 1.367 . S
C2259 C2267 1.433 . S
C2260 H2256 0.929 . S
C2260 C2262 1.378 . S
C2260 C2264 1.350 . S
C2261 C2264 1.463 . S
C2261 C2266 1.350 . S
C2261 N2269 1.427 . S
C2262 H2253 0.930 . S
C2262 C2260 1.378 . S
C2262 C2263 1.367 . S
C2263 C2262 1.367 . S
C2263 C2265 1.433 . S
C2264 C2260 1.350 . S
C2264 C2261 1.463 . S
C2264 N2268 1.427 . S
C2265 H2255 0.929 . S
C2265 C2263 1.433 . S
C2265 N2268 1.384 . S
C2266 H2257 0.929 . S
C2266 C2258 1.378 . S
C2266 C2261 1.350 . S
C2267 H2254 0.929 . S
C2267 C2259 1.433 . S
C2267 N2269 1.384 . S
N2268 C2264 1.427 . S
N2268 C2265 1.384 . S
N2269 C2261 1.427 . S
N2269 C2267 1.384 . S
H2270 C2276 0.930 . S
H2271 C2280 0.930 . S
H2272 C2285 0.929 . S
H2273 C2283 0.929 . S
H2274 C2278 0.929 . S
H2275 C2284 0.929 . S
C2276 H2270 0.930 . S
C2276 C2277 1.367 . S
C2276 C2284 1.378 . S
C2277 C2276 1.367 . S
C2277 C2285 1.433 . S
C2278 H2274 0.929 . S
C2278 C2280 1.378 . S
C2278 C2282 1.350 . S
C2279 C2282 1.463 . S
C2279 C2284 1.350 . S
C2279 N2287 1.427 . S
C2280 H2271 0.930 . S
C2280 C2278 1.378 . S
C2280 C2281 1.367 . S
C2281 C2280 1.367 . S
C2281 C2283 1.433 . S
C2282 C2278 1.350 . S
C2282 C2279 1.463 . S
C2282 N2286 1.427 . S
C2283 H2273 0.929 . S
C2283 C2281 1.433 . S
C2283 N2286 1.384 . S
C2284 H2275 0.929 . S
C2284 C2276 1.378 . S
C2284 C2279 1.350 . S
C2285 H2272 0.929 . S
C2285 C2277 1.433 . S
C2285 N2287 1.384 . S
N2286 C2282 1.427 . S
N2286 C2283 1.384 . S
N2287 C2279 1.427 . S
N2287 C2285 1.384 . S
H2288 C2294 0.930 . S
H2289 C2298 0.930 . S
H2290 C2303 0.929 . S
H2291 C2301 0.929 . S
H2292 C2296 0.929 . S
H2293 C2302 0.929 . S
C2294 H2288 0.930 . S
C2294 C2295 1.367 . S
C2294 C2302 1.378 . S
C2295 C2294 1.367 . S
C2295 C2303 1.433 . S
C2296 H2292 0.929 . S
C2296 C2298 1.378 . S
C2296 C2300 1.350 1_655 S
C2297 C2300 1.463 . S
C2297 C2302 1.350 . S
C2297 N2305 1.427 . S
C2298 H2289 0.930 . S
C2298 C2296 1.378 . S
C2298 C2299 1.367 . S
C2299 C2298 1.367 . S
C2299 C2301 1.433 . S
C2300 C2296 1.350 1_455 S
C2300 C2297 1.463 . S
C2300 N2304 1.427 1_455 S
C2301 H2291 0.929 . S
C2301 C2299 1.433 . S
C2301 N2304 1.388 . S
C2302 H2293 0.929 . S
C2302 C2294 1.378 . S
C2302 C2297 1.350 . S
C2303 H2290 0.929 . S
C2303 C2295 1.433 . S
C2303 N2305 1.384 . S
N2304 C2300 1.427 1_655 S
N2304 C2301 1.388 . S
N2305 C2297 1.427 . S
N2305 C2303 1.384 . S
H2306 C2312 0.930 . S
H2307 C2316 0.930 . S
H2308 C2321 0.929 . S
H2309 C2319 0.929 . S
H2310 C2314 0.929 . S
H2311 C2320 0.929 . S
C2312 H2306 0.930 . S
C2312 C2313 1.367 . S
C2312 C2320 1.378 . S
C2313 C2312 1.367 . S
C2313 C2321 1.433 . S
C2314 H2310 0.929 . S
C2314 C2316 1.378 . S
C2314 C2318 1.350 . S
C2315 C2318 1.463 . S
C2315 C2320 1.350 . S
C2315 N2323 1.427 . S
C2316 H2307 0.930 . S
C2316 C2314 1.378 . S
C2316 C2317 1.367 . S
C2317 C2316 1.367 . S
C2317 C2319 1.433 . S
C2318 C2314 1.350 . S
C2318 C2315 1.463 . S
C2318 N2322 1.427 . S
C2319 H2309 0.929 . S
C2319 C2317 1.433 . S
C2319 N2322 1.384 . S
C2320 H2311 0.929 . S
C2320 C2312 1.378 . S
C2320 C2315 1.350 . S
C2321 H2308 0.929 . S
C2321 C2313 1.433 . S
C2321 N2323 1.384 . S
N2322 C2318 1.427 . S
N2322 C2319 1.384 . S
N2323 C2315 1.427 . S
N2323 C2321 1.384 . S
H2324 C2330 0.930 . S
H2325 C2334 0.930 . S
H2326 C2339 0.929 . S
H2327 C2337 0.929 . S
H2328 C2332 0.929 . S
H2329 C2338 0.929 1_556 S
C2330 H2324 0.930 . S
C2330 C2331 1.367 . S
C2330 C2338 1.378 . S
C2331 C2330 1.367 . S
C2331 C2339 1.433 . S
C2332 H2328 0.929 . S
C2332 C2334 1.378 . S
C2332 C2336 1.350 . S
C2333 C2336 1.463 . S
C2333 C2338 1.350 1_556 S
C2333 N2341 1.427 1_556 S
C2334 H2325 0.930 . S
C2334 C2332 1.378 . S
C2334 C2335 1.367 . S
C2335 C2334 1.367 . S
C2335 C2337 1.433 . S
C2336 C2332 1.350 . S
C2336 C2333 1.463 . S
C2336 N2340 1.427 . S
C2337 H2327 0.929 . S
C2337 C2335 1.433 . S
C2337 N2340 1.384 . S
C2338 H2329 0.929 1_554 S
C2338 C2330 1.378 . S
C2338 C2333 1.350 1_554 S
C2339 H2326 0.929 . S
C2339 C2331 1.433 . S
C2339 N2341 1.384 . S
N2340 C2336 1.427 . S
N2340 C2337 1.384 . S
N2341 C2333 1.427 1_554 S
N2341 C2339 1.384 . S
H2342 C2348 0.930 . S
H2343 C2352 0.930 . S
H2344 C2357 0.929 . S
H2345 C2355 0.929 . S
H2346 C2350 0.929 . S
H2347 C2356 0.929 . S
C2348 H2342 0.930 . S
C2348 C2349 1.367 . S
C2348 C2356 1.378 . S
C2349 C2348 1.367 . S
C2349 C2357 1.433 . S
C2350 H2346 0.929 . S
C2350 C2352 1.378 . S
C2350 C2354 1.350 . S
C2351 C2354 1.463 . S
C2351 C2356 1.350 . S
C2351 N2359 1.427 . S
C2352 H2343 0.930 . S
C2352 C2350 1.378 . S
C2352 C2353 1.367 . S
C2353 C2352 1.367 . S
C2353 C2355 1.433 . S
C2354 C2350 1.350 . S
C2354 C2351 1.463 . S
C2354 N2358 1.427 . S
C2355 H2345 0.929 . S
C2355 C2353 1.433 . S
C2355 N2358 1.384 . S
C2356 H2347 0.929 . S
C2356 C2348 1.378 . S
C2356 C2351 1.350 . S
C2357 H2344 0.929 . S
C2357 C2349 1.433 . S
C2357 N2359 1.384 . S
N2358 C2354 1.427 . S
N2358 C2355 1.384 . S
N2359 C2351 1.427 . S
N2359 C2357 1.384 . S
H2360 C2366 0.930 . S
H2361 C2370 0.940 . S
H2362 C2375 0.929 . S
H2363 C2373 0.929 . S
H2364 C2368 0.929 . S
H2365 C2374 0.929 1_655 S
C2366 H2360 0.930 . S
C2366 C2367 1.367 . S
C2366 C2374 1.378 . S
C2367 C2366 1.367 . S
C2367 C2375 1.433 . S
C2368 H2364 0.929 . S
C2368 C2370 1.378 1_455 S
C2368 C2372 1.350 . S
C2369 C2372 1.463 . S
C2369 C2374 1.350 . S
C2369 N2377 1.427 . S
C2370 H2361 0.940 . S
C2370 C2368 1.378 1_655 S
C2370 C2371 1.367 . S
C2371 C2370 1.367 . S
C2371 C2373 1.433 . S
C2372 C2368 1.350 . S
C2372 C2369 1.463 . S
C2372 N2376 1.427 1_455 S
C2373 H2363 0.929 . S
C2373 C2371 1.433 . S
C2373 N2376 1.384 . S
C2374 H2365 0.929 1_455 S
C2374 C2366 1.378 . S
C2374 C2369 1.350 . S
C2375 H2362 0.929 . S
C2375 C2367 1.433 . S
C2375 N2377 1.384 . S
N2376 C2372 1.427 1_655 S
N2376 C2373 1.384 . S
N2377 C2369 1.427 . S
N2377 C2375 1.384 . S
H2378 C2384 0.930 . S
H2379 C2388 0.930 . S
H2380 C2393 0.929 . S
H2381 C2391 0.929 . S
H2382 C2386 0.929 . S
H2383 C2392 0.929 . S
C2384 H2378 0.930 . S
C2384 C2385 1.367 . S
C2384 C2392 1.378 1_556 S
C2385 C2384 1.367 . S
C2385 C2393 1.433 . S
C2386 H2382 0.929 . S
C2386 C2388 1.378 . S
C2386 C2390 1.350 . S
C2387 C2390 1.463 . S
C2387 C2392 1.350 . S
C2387 N2395 1.427 1_554 S
C2388 H2379 0.930 . S
C2388 C2386 1.378 . S
C2388 C2389 1.367 . S
C2389 C2388 1.367 . S
C2389 C2391 1.433 . S
C2390 C2386 1.350 . S
C2390 C2387 1.463 . S
C2390 N2394 1.427 . S
C2391 H2381 0.929 . S
C2391 C2389 1.433 . S
C2391 N2394 1.384 . S
C2392 H2383 0.929 . S
C2392 C2384 1.378 1_554 S
C2392 C2387 1.350 . S
C2393 H2380 0.929 . S
C2393 C2385 1.433 . S
C2393 N2395 1.384 . S
N2394 C2390 1.427 . S
N2394 C2391 1.384 . S
N2395 C2387 1.427 1_556 S
N2395 C2393 1.384 . S
H2396 C2402 0.930 . S
H2397 C2406 0.930 . S
H2398 C2411 0.929 . S
H2399 C2409 0.929 . S
H2400 C2404 0.929 . S
H2401 C2410 0.929 . S
C2402 H2396 0.930 . S
C2402 C2403 1.367 . S
C2402 C2410 1.378 . S
C2403 C2402 1.367 . S
C2403 C2411 1.433 . S
C2404 H2400 0.929 . S
C2404 C2406 1.378 . S
C2404 C2408 1.350 . S
C2405 C2408 1.463 . S
C2405 C2410 1.350 . S
C2405 N2413 1.427 . S
C2406 H2397 0.930 . S
C2406 C2404 1.378 . S
C2406 C2407 1.367 . S
C2407 C2406 1.367 . S
C2407 C2409 1.433 . S
C2408 C2404 1.350 . S
C2408 C2405 1.463 . S
C2408 N2412 1.427 . S
C2409 H2399 0.929 . S
C2409 C2407 1.433 . S
C2409 N2412 1.384 . S
C2410 H2401 0.929 . S
C2410 C2402 1.378 . S
C2410 C2405 1.350 . S
C2411 H2398 0.929 . S
C2411 C2403 1.433 . S
C2411 N2413 1.384 . S
N2412 C2408 1.427 . S
N2412 C2409 1.384 . S
N2413 C2405 1.427 . S
N2413 C2411 1.384 . S
H2414 C2420 0.930 . S
H2415 C2424 0.930 . S
H2416 C2429 0.929 . S
H2417 C2427 0.929 . S
H2418 C2422 0.929 . S
H2419 C2428 0.929 . S
C2420 H2414 0.930 . S
C2420 C2421 1.367 . S
C2420 C2428 1.378 . S
C2421 C2420 1.367 . S
C2421 C2429 1.433 . S
C2422 H2418 0.929 . S
C2422 C2424 1.378 . S
C2422 C2426 1.350 . S
C2423 C2426 1.463 . S
C2423 C2428 1.350 . S
C2423 N2431 1.427 . S
C2424 H2415 0.930 . S
C2424 C2422 1.378 . S
C2424 C2425 1.367 . S
C2425 C2424 1.367 . S
C2425 C2427 1.433 . S
C2426 C2422 1.350 . S
C2426 C2423 1.463 . S
C2426 N2430 1.427 . S
C2427 H2417 0.929 . S
C2427 C2425 1.433 . S
C2427 N2430 1.384 . S
C2428 H2419 0.929 . S
C2428 C2420 1.378 . S
C2428 C2423 1.350 . S
C2429 H2416 0.929 . S
C2429 C2421 1.433 . S
C2429 N2431 1.384 . S
N2430 C2426 1.427 . S
N2430 C2427 1.384 . S
N2431 C2423 1.427 . S
N2431 C2429 1.384 . S
H2432 C2438 0.930 . S
H2433 C2442 0.930 . S
H2434 C2447 0.929 . S
H2435 C2445 0.929 . S
H2436 C2440 0.929 . S
H2437 C2446 0.929 . S
C2438 H2432 0.930 . S
C2438 C2439 1.367 . S
C2438 C2446 1.378 . S
C2439 C2438 1.367 . S
C2439 C2447 1.433 . S
C2440 H2436 0.929 . S
C2440 C2442 1.378 . S
C2440 C2444 1.350 . S
C2441 C2444 1.463 . S
C2441 C2446 1.350 . S
C2441 N2449 1.427 . S
C2442 H2433 0.930 . S
C2442 C2440 1.378 . S
C2442 C2443 1.367 . S
C2443 C2442 1.367 . S
C2443 C2445 1.433 . S
C2444 C2440 1.350 . S
C2444 C2441 1.463 . S
C2444 N2448 1.427 . S
C2445 H2435 0.929 . S
C2445 C2443 1.433 . S
C2445 N2448 1.384 . S
C2446 H2437 0.929 . S
C2446 C2438 1.378 . S
C2446 C2441 1.350 . S
C2447 H2434 0.929 . S
C2447 C2439 1.433 . S
C2447 N2449 1.384 . S
N2448 C2444 1.427 . S
N2448 C2445 1.384 . S
N2449 C2441 1.427 . S
N2449 C2447 1.384 . S
H2450 C2456 0.930 . S
H2451 C2460 0.930 . S
H2452 C2465 0.929 . S
H2453 C2463 0.929 . S
H2454 C2458 0.929 . S
H2455 C2464 0.929 . S
C2456 H2450 0.930 . S
C2456 C2457 1.367 . S
C2456 C2464 1.378 . S
C2457 C2456 1.367 . S
C2457 C2465 1.433 . S
C2458 H2454 0.929 . S
C2458 C2460 1.378 . S
C2458 C2462 1.350 . S
C2459 C2462 1.463 . S
C2459 C2464 1.350 . S
C2459 N2467 1.427 . S
C2460 H2451 0.930 . S
C2460 C2458 1.378 . S
C2460 C2461 1.367 . S
C2461 C2460 1.367 . S
C2461 C2463 1.433 . S
C2462 C2458 1.350 . S
C2462 C2459 1.463 . S
C2462 N2466 1.427 . S
C2463 H2453 0.929 . S
C2463 C2461 1.433 . S
C2463 N2466 1.384 . S
C2464 H2455 0.929 . S
C2464 C2456 1.378 . S
C2464 C2459 1.350 . S
C2465 H2452 0.929 . S
C2465 C2457 1.433 . S
C2465 N2467 1.384 . S
N2466 C2462 1.427 . S
N2466 C2463 1.384 . S
N2467 C2459 1.427 . S
N2467 C2465 1.384 . S
H2468 C2474 0.930 . S
H2469 C2478 0.930 . S
H2470 C2483 0.929 . S
H2471 C2481 0.929 . S
H2472 C2476 0.929 . S
H2473 C2482 0.929 . S
C2474 H2468 0.930 . S
C2474 C2475 1.367 . S
C2474 C2482 1.378 . S
C2475 C2474 1.367 . S
C2475 C2483 1.433 . S
C2476 H2472 0.929 . S
C2476 C2478 1.378 . S
C2476 C2480 1.350 . S
C2477 C2480 1.463 . S
C2477 C2482 1.350 1_455 S
C2477 N2485 1.427 . S
C2478 H2469 0.930 . S
C2478 C2476 1.378 . S
C2478 C2479 1.367 . S
C2479 C2478 1.367 . S
C2479 C2481 1.433 . S
C2480 C2476 1.350 . S
C2480 C2477 1.463 . S
C2480 N2484 1.427 . S
C2481 H2471 0.929 . S
C2481 C2479 1.433 . S
C2481 N2484 1.384 . S
C2482 H2473 0.929 . S
C2482 C2474 1.378 . S
C2482 C2477 1.350 1_655 S
C2483 H2470 0.929 . S
C2483 C2475 1.433 . S
C2483 N2485 1.384 1_655 S
N2484 C2480 1.427 . S
N2484 C2481 1.384 . S
N2485 C2477 1.427 . S
N2485 C2483 1.384 1_455 S
H2486 C2492 0.930 . S
H2487 C2496 0.930 . S
H2488 C2501 0.929 . S
H2489 C2499 0.929 . S
H2490 C2494 0.929 . S
H2491 C2500 0.929 . S
C2492 H2486 0.930 . S
C2492 C2493 1.367 . S
C2492 C2500 1.378 . S
C2493 C2492 1.367 . S
C2493 C2501 1.433 . S
C2494 H2490 0.929 . S
C2494 C2496 1.378 . S
C2494 C2498 1.350 . S
C2495 C2498 1.463 . S
C2495 C2500 1.350 1_554 S
C2495 N2503 1.427 . S
C2496 H2487 0.930 . S
C2496 C2494 1.378 . S
C2496 C2497 1.367 . S
C2497 C2496 1.367 . S
C2497 C2499 1.433 . S
C2498 C2494 1.350 . S
C2498 C2495 1.463 . S
C2498 N2502 1.427 . S
C2499 H2489 0.929 . S
C2499 C2497 1.433 . S
C2499 N2502 1.384 . S
C2500 H2491 0.929 . S
C2500 C2492 1.378 . S
C2500 C2495 1.350 1_556 S
C2501 H2488 0.929 . S
C2501 C2493 1.433 . S
C2501 N2503 1.384 1_556 S
N2502 C2498 1.427 . S
N2502 C2499 1.384 . S
N2503 C2495 1.427 . S
N2503 C2501 1.384 1_554 S
H2504 C2510 0.930 . S
H2505 C2514 0.930 . S
H2506 C2519 0.929 . S
H2507 C2517 0.929 . S
H2508 C2512 0.929 . S
H2509 C2518 0.929 . S
C2510 H2504 0.930 . S
C2510 C2511 1.367 . S
C2510 C2518 1.378 . S
C2511 C2510 1.367 . S
C2511 C2519 1.433 . S
C2512 H2508 0.929 . S
C2512 C2514 1.378 . S
C2512 C2516 1.350 . S
C2513 C2516 1.463 . S
C2513 C2518 1.350 . S
C2513 N2521 1.427 . S
C2514 H2505 0.930 . S
C2514 C2512 1.378 . S
C2514 C2515 1.367 . S
C2515 C2514 1.367 . S
C2515 C2517 1.433 . S
C2516 C2512 1.350 . S
C2516 C2513 1.463 . S
C2516 N2520 1.427 . S
C2517 H2507 0.929 . S
C2517 C2515 1.433 . S
C2517 N2520 1.384 . S
C2518 H2509 0.929 . S
C2518 C2510 1.378 . S
C2518 C2513 1.350 . S
C2519 H2506 0.929 . S
C2519 C2511 1.433 . S
C2519 N2521 1.384 . S
N2520 C2516 1.427 . S
N2520 C2517 1.384 . S
N2521 C2513 1.427 . S
N2521 C2519 1.384 . S
H2522 C2528 0.930 . S
H2523 C2532 0.930 . S
H2524 C2537 0.929 . S
H2525 C2535 0.929 . S
H2526 C2530 0.929 . S
H2527 C2536 0.929 . S
C2528 H2522 0.930 . S
C2528 C2529 1.367 . S
C2528 C2536 1.378 . S
C2529 C2528 1.367 . S
C2529 C2537 1.433 . S
C2530 H2526 0.929 . S
C2530 C2532 1.378 . S
C2530 C2534 1.350 . S
C2531 C2534 1.463 . S
C2531 C2536 1.350 . S
C2531 N2539 1.427 . S
C2532 H2523 0.930 . S
C2532 C2530 1.378 . S
C2532 C2533 1.367 . S
C2533 C2532 1.367 . S
C2533 C2535 1.433 . S
C2534 C2530 1.350 . S
C2534 C2531 1.463 . S
C2534 N2538 1.427 . S
C2535 H2525 0.929 . S
C2535 C2533 1.433 . S
C2535 N2538 1.384 . S
C2536 H2527 0.929 . S
C2536 C2528 1.378 . S
C2536 C2531 1.350 . S
C2537 H2524 0.929 . S
C2537 C2529 1.433 . S
C2537 N2539 1.384 . S
N2538 C2534 1.427 . S
N2538 C2535 1.384 . S
N2539 C2531 1.427 . S
N2539 C2537 1.384 . S
H2540 C2546 0.930 . S
H2541 C2550 0.930 . S
H2542 C2555 0.929 . S
H2543 C2553 0.929 . S
H2544 C2548 0.929 . S
H2545 C2554 0.929 . S
C2546 H2540 0.930 . S
C2546 C2547 1.367 . S
C2546 C2554 1.378 . S
C2547 C2546 1.367 . S
C2547 C2555 1.433 . S
C2548 H2544 0.929 . S
C2548 C2550 1.378 1_455 S
C2548 C2552 1.350 . S
C2549 C2552 1.481 . S
C2549 C2554 1.330 1_556 S
C2549 N2557 1.431 . S
C2550 H2541 0.930 . S
C2550 C2548 1.378 1_655 S
C2550 C2551 1.367 . S
C2551 C2550 1.367 . S
C2551 C2553 1.433 . S
C2552 C2548 1.350 . S
C2552 C2549 1.481 . S
C2552 N2556 1.427 1_455 S
C2553 H2543 0.929 . S
C2553 C2551 1.433 . S
C2553 N2556 1.384 . S
C2554 H2545 0.929 . S
C2554 C2546 1.378 . S
C2554 C2549 1.330 1_554 S
C2555 H2542 0.929 . S
C2555 C2547 1.433 . S
C2555 N2557 1.384 1_554 S
N2556 C2552 1.427 1_655 S
N2556 C2553 1.384 . S
N2557 C2549 1.431 . S
N2557 C2555 1.384 1_556 S
H2558 C2564 0.930 . S
H2559 C2568 0.930 . S
H2560 C2573 0.929 . S
H2561 C2571 0.929 . S
H2562 C2566 0.929 . S
H2563 C2572 0.929 . S
C2564 H2558 0.930 . S
C2564 C2565 1.367 . S
C2564 C2572 1.378 . S
C2565 C2564 1.367 . S
C2565 C2573 1.433 . S
C2566 H2562 0.929 . S
C2566 C2568 1.378 . S
C2566 C2570 1.350 . S
C2567 C2570 1.463 . S
C2567 C2572 1.350 . S
C2567 N2575 1.427 . S
C2568 H2559 0.930 . S
C2568 C2566 1.378 . S
C2568 C2569 1.367 . S
C2569 C2568 1.367 . S
C2569 C2571 1.433 . S
C2570 C2566 1.350 . S
C2570 C2567 1.463 . S
C2570 N2574 1.427 . S
C2571 H2561 0.929 . S
C2571 C2569 1.433 . S
C2571 N2574 1.384 . S
C2572 H2563 0.929 . S
C2572 C2564 1.378 . S
C2572 C2567 1.350 . S
C2573 H2560 0.929 . S
C2573 C2565 1.433 . S
C2573 N2575 1.384 . S
N2574 C2570 1.427 . S
N2574 C2571 1.384 . S
N2575 C2567 1.427 . S
N2575 C2573 1.384 . S
H2576 C2582 0.930 . S
H2577 C2586 0.930 . S
H2578 C2591 0.929 . S
H2579 C2589 0.929 . S
H2580 C2584 0.929 . S
H2581 C2590 0.929 . S
C2582 H2576 0.930 . S
C2582 C2583 1.367 . S
C2582 C2590 1.378 . S
C2583 C2582 1.367 . S
C2583 C2591 1.433 . S
C2584 H2580 0.929 . S
C2584 C2586 1.378 . S
C2584 C2588 1.330 1_554 S
C2585 C2588 1.480 . S
C2585 C2590 1.350 . S
C2585 N2593 1.427 . S
C2586 H2577 0.930 . S
C2586 C2584 1.378 . S
C2586 C2587 1.367 . S
C2587 C2586 1.367 . S
C2587 C2589 1.433 . S
C2588 C2584 1.330 1_556 S
C2588 C2585 1.480 . S
C2588 N2592 1.431 . S
C2589 H2579 0.929 . S
C2589 C2587 1.433 . S
C2589 N2592 1.384 1_554 S
C2590 H2581 0.929 . S
C2590 C2582 1.378 . S
C2590 C2585 1.350 . S
C2591 H2578 0.929 . S
C2591 C2583 1.433 . S
C2591 N2593 1.384 . S
N2592 C2588 1.431 . S
N2592 C2589 1.384 1_556 S
N2593 C2585 1.427 . S
N2593 C2591 1.384 . S
H2594 C2600 0.930 . S
H2595 C2604 0.930 . S
H2596 C2609 0.929 . S
H2597 C2607 0.929 . S
H2598 C2602 0.929 . S
H2599 C2608 0.929 . S
C2600 H2594 0.930 . S
C2600 C2601 1.367 . S
C2600 C2608 1.378 . S
C2601 C2600 1.367 . S
C2601 C2609 1.433 . S
C2602 H2598 0.929 . S
C2602 C2604 1.378 . S
C2602 C2606 1.350 . S
C2603 C2606 1.463 . S
C2603 C2608 1.350 . S
C2603 N2611 1.427 . S
C2604 H2595 0.930 . S
C2604 C2602 1.378 . S
C2604 C2605 1.367 . S
C2605 C2604 1.367 . S
C2605 C2607 1.433 . S
C2606 C2602 1.350 . S
C2606 C2603 1.463 . S
C2606 N2610 1.427 . S
C2607 H2597 0.929 . S
C2607 C2605 1.433 . S
C2607 N2610 1.384 . S
C2608 H2599 0.929 . S
C2608 C2600 1.378 . S
C2608 C2603 1.350 . S
C2609 H2596 0.929 . S
C2609 C2601 1.433 . S
C2609 N2611 1.384 . S
N2610 C2606 1.427 . S
N2610 C2607 1.384 . S
N2611 C2603 1.427 . S
N2611 C2609 1.384 . S
H2612 C2618 0.930 . S
H2613 C2622 0.930 . S
H2614 C2627 0.929 . S
H2615 C2625 0.929 . S
H2616 C2620 0.929 1_455 S
H2617 C2626 0.929 . S
C2618 H2612 0.930 . S
C2618 C2619 1.367 . S
C2618 C2626 1.378 1_455 S
C2619 C2618 1.367 . S
C2619 C2627 1.433 . S
C2620 H2616 0.929 1_655 S
C2620 C2622 1.378 . S
C2620 C2624 1.350 . S
C2621 C2624 1.463 . S
C2621 C2626 1.350 . S
C2621 N2629 1.427 1_655 S
C2622 H2613 0.930 . S
C2622 C2620 1.378 . S
C2622 C2623 1.367 . S
C2623 C2622 1.367 . S
C2623 C2625 1.433 . S
C2624 C2620 1.350 . S
C2624 C2621 1.463 . S
C2624 N2628 1.427 . S
C2625 H2615 0.929 . S
C2625 C2623 1.433 . S
C2625 N2628 1.384 . S
C2626 H2617 0.929 . S
C2626 C2618 1.378 1_655 S
C2626 C2621 1.350 . S
C2627 H2614 0.929 . S
C2627 C2619 1.433 . S
C2627 N2629 1.384 . S
N2628 C2624 1.427 . S
N2628 C2625 1.384 . S
N2629 C2621 1.427 1_455 S
N2629 C2627 1.384 . S
H2630 C2636 0.930 . S
H2631 C2640 0.930 . S
H2632 C2645 0.929 . S
H2633 C2643 0.929 . S
H2634 C2638 0.929 . S
H2635 C2644 0.929 . S
C2636 H2630 0.930 . S
C2636 C2637 1.367 . S
C2636 C2644 1.378 . S
C2637 C2636 1.367 . S
C2637 C2645 1.433 . S
C2638 H2634 0.929 . S
C2638 C2640 1.378 . S
C2638 C2642 1.350 . S
C2639 C2642 1.463 . S
C2639 C2644 1.350 . S
C2639 N2647 1.427 . S
C2640 H2631 0.930 . S
C2640 C2638 1.378 . S
C2640 C2641 1.367 . S
C2641 C2640 1.367 . S
C2641 C2643 1.433 . S
C2642 C2638 1.350 . S
C2642 C2639 1.463 . S
C2642 N2646 1.427 . S
C2643 H2633 0.929 . S
C2643 C2641 1.433 . S
C2643 N2646 1.384 . S
C2644 H2635 0.929 . S
C2644 C2636 1.378 . S
C2644 C2639 1.350 . S
C2645 H2632 0.929 . S
C2645 C2637 1.433 . S
C2645 N2647 1.384 . S
N2646 C2642 1.427 . S
N2646 C2643 1.384 . S
N2647 C2639 1.427 . S
N2647 C2645 1.384 . S
H2648 C2654 0.930 . S
H2649 C2658 0.930 . S
H2650 C2663 0.929 . S
H2651 C2661 0.929 . S
H2652 C2656 0.929 . S
H2653 C2662 0.929 . S
C2654 H2648 0.930 . S
C2654 C2655 1.367 . S
C2654 C2662 1.378 . S
C2655 C2654 1.367 . S
C2655 C2663 1.433 . S
C2656 H2652 0.929 . S
C2656 C2658 1.378 . S
C2656 C2660 1.350 . S
C2657 C2660 1.463 . S
C2657 C2662 1.350 . S
C2657 N2665 1.427 . S
C2658 H2649 0.930 . S
C2658 C2656 1.378 . S
C2658 C2659 1.367 . S
C2659 C2658 1.367 . S
C2659 C2661 1.433 . S
C2660 C2656 1.350 . S
C2660 C2657 1.463 . S
C2660 N2664 1.427 . S
C2661 H2651 0.929 . S
C2661 C2659 1.433 . S
C2661 N2664 1.384 . S
C2662 H2653 0.929 . S
C2662 C2654 1.378 . S
C2662 C2657 1.350 . S
C2663 H2650 0.929 . S
C2663 C2655 1.433 . S
C2663 N2665 1.384 . S
N2664 C2660 1.427 . S
N2664 C2661 1.384 . S
N2665 C2657 1.427 . S
N2665 C2663 1.384 . S
H2666 C2672 0.930 . S
H2667 C2676 0.930 . S
H2668 C2681 0.929 . S
H2669 C2679 0.929 . S
H2670 C2674 0.929 . S
H2671 C2680 0.929 . S
C2672 H2666 0.930 . S
C2672 C2673 1.367 . S
C2672 C2680 1.378 . S
C2673 C2672 1.367 . S
C2673 C2681 1.433 . S
C2674 H2670 0.929 . S
C2674 C2676 1.378 . S
C2674 C2678 1.350 . S
C2675 C2678 1.463 . S
C2675 C2680 1.350 . S
C2675 N2683 1.427 . S
C2676 H2667 0.930 . S
C2676 C2674 1.378 . S
C2676 C2677 1.367 . S
C2677 C2676 1.367 . S
C2677 C2679 1.433 . S
C2678 C2674 1.350 . S
C2678 C2675 1.463 . S
C2678 N2682 1.427 . S
C2679 H2669 0.929 . S
C2679 C2677 1.433 . S
C2679 N2682 1.384 . S
C2680 H2671 0.929 . S
C2680 C2672 1.378 . S
C2680 C2675 1.350 . S
C2681 H2668 0.929 . S
C2681 C2673 1.433 . S
C2681 N2683 1.384 . S
N2682 C2678 1.427 . S
N2682 C2679 1.384 . S
N2683 C2675 1.427 . S
N2683 C2681 1.384 . S
H2684 C2690 0.930 . S
H2685 C2694 0.930 . S
H2686 C2699 0.929 . S
H2687 C2697 0.929 . S
H2688 C2692 0.929 1_455 S
H2689 C2698 0.929 . S
C2690 H2684 0.930 . S
C2690 C2691 1.367 . S
C2690 C2698 1.378 1_455 S
C2691 C2690 1.367 . S
C2691 C2699 1.433 . S
C2692 H2688 0.929 1_655 S
C2692 C2694 1.378 . S
C2692 C2696 1.350 . S
C2693 C2696 1.463 . S
C2693 C2698 1.350 . S
C2693 N2701 1.427 1_655 S
C2694 H2685 0.930 . S
C2694 C2692 1.378 . S
C2694 C2695 1.367 . S
C2695 C2694 1.367 . S
C2695 C2697 1.433 . S
C2696 C2692 1.350 . S
C2696 C2693 1.463 . S
C2696 N2700 1.427 . S
C2697 H2687 0.929 . S
C2697 C2695 1.433 . S
C2697 N2700 1.384 . S
C2698 H2689 0.929 . S
C2698 C2690 1.378 1_655 S
C2698 C2693 1.350 . S
C2699 H2686 0.929 . S
C2699 C2691 1.433 . S
C2699 N2701 1.384 . S
N2700 C2696 1.427 . S
N2700 C2697 1.384 . S
N2701 C2693 1.427 1_455 S
N2701 C2699 1.384 . S
H2702 C2708 0.930 . S
H2703 C2712 0.930 . S
H2704 C2717 0.929 . S
H2705 C2715 0.929 . S
H2706 C2710 0.929 . S
H2707 C2716 0.929 . S
C2708 H2702 0.930 . S
C2708 C2709 1.367 . S
C2708 C2716 1.378 1_556 S
C2709 C2708 1.367 . S
C2709 C2717 1.433 . S
C2710 H2706 0.929 . S
C2710 C2712 1.378 . S
C2710 C2714 1.350 . S
C2711 C2714 1.463 . S
C2711 C2716 1.350 . S
C2711 N2719 1.427 1_554 S
C2712 H2703 0.930 . S
C2712 C2710 1.378 . S
C2712 C2713 1.367 . S
C2713 C2712 1.367 . S
C2713 C2715 1.433 . S
C2714 C2710 1.350 . S
C2714 C2711 1.463 . S
C2714 N2718 1.427 . S
C2715 H2705 0.929 . S
C2715 C2713 1.433 . S
C2715 N2718 1.384 . S
C2716 H2707 0.929 . S
C2716 C2708 1.378 1_554 S
C2716 C2711 1.350 . S
C2717 H2704 0.929 . S
C2717 C2709 1.433 . S
C2717 N2719 1.384 . S
N2718 C2714 1.427 . S
N2718 C2715 1.384 . S
N2719 C2711 1.427 1_556 S
N2719 C2717 1.384 . S
H2720 C2726 0.930 . S
H2721 C2730 0.930 . S
H2722 C2735 0.929 . S
H2723 C2733 0.929 . S
H2724 C2728 0.929 . S
H2725 C2734 0.929 . S
C2726 H2720 0.930 . S
C2726 C2727 1.367 . S
C2726 C2734 1.378 . S
C2727 C2726 1.367 . S
C2727 C2735 1.433 . S
C2728 H2724 0.929 . S
C2728 C2730 1.378 . S
C2728 C2732 1.350 . S
C2729 C2732 1.463 . S
C2729 C2734 1.350 . S
C2729 N2737 1.427 . S
C2730 H2721 0.930 . S
C2730 C2728 1.378 . S
C2730 C2731 1.367 . S
C2731 C2730 1.367 . S
C2731 C2733 1.433 . S
C2732 C2728 1.350 . S
C2732 C2729 1.463 . S
C2732 N2736 1.427 . S
C2733 H2723 0.929 . S
C2733 C2731 1.433 . S
C2733 N2736 1.384 . S
C2734 H2725 0.929 . S
C2734 C2726 1.378 . S
C2734 C2729 1.350 . S
C2735 H2722 0.929 . S
C2735 C2727 1.433 . S
C2735 N2737 1.384 . S
N2736 C2732 1.427 . S
N2736 C2733 1.384 . S
N2737 C2729 1.427 . S
N2737 C2735 1.384 . S
H2738 C2744 0.930 . S
H2739 C2748 0.930 . S
H2740 C2753 0.929 . S
H2741 C2751 0.929 . S
H2742 C2746 0.929 . S
H2743 C2752 0.929 . S
C2744 H2738 0.930 . S
C2744 C2745 1.367 . S
C2744 C2752 1.378 . S
C2745 C2744 1.367 . S
C2745 C2753 1.433 . S
C2746 H2742 0.929 . S
C2746 C2748 1.378 . S
C2746 C2750 1.350 . S
C2747 C2750 1.463 . S
C2747 C2752 1.350 . S
C2747 N2755 1.427 . S
C2748 H2739 0.930 . S
C2748 C2746 1.378 . S
C2748 C2749 1.367 . S
C2749 C2748 1.367 . S
C2749 C2751 1.433 . S
C2750 C2746 1.350 . S
C2750 C2747 1.463 . S
C2750 N2754 1.427 . S
C2751 H2741 0.929 . S
C2751 C2749 1.433 . S
C2751 N2754 1.384 . S
C2752 H2743 0.929 . S
C2752 C2744 1.378 . S
C2752 C2747 1.350 . S
C2753 H2740 0.929 . S
C2753 C2745 1.433 . S
C2753 N2755 1.384 . S
N2754 C2750 1.427 . S
N2754 C2751 1.384 . S
N2755 C2747 1.427 . S
N2755 C2753 1.384 . S
H2756 C2762 0.930 . S
H2757 C2766 0.930 . S
H2758 C2771 0.929 . S
H2759 C2769 0.929 . S
H2760 C2764 0.929 . S
H2761 C2770 0.929 . S
C2762 H2756 0.930 . S
C2762 C2763 1.367 . S
C2762 C2770 1.378 . S
C2763 C2762 1.367 . S
C2763 C2771 1.433 . S
C2764 H2760 0.929 . S
C2764 C2766 1.378 . S
C2764 C2768 1.350 . S
C2765 C2768 1.463 . S
C2765 C2770 1.350 . S
C2765 N2773 1.427 . S
C2766 H2757 0.930 . S
C2766 C2764 1.378 . S
C2766 C2767 1.367 . S
C2767 C2766 1.367 . S
C2767 C2769 1.433 . S
C2768 C2764 1.350 . S
C2768 C2765 1.463 . S
C2768 N2772 1.427 . S
C2769 H2759 0.929 . S
C2769 C2767 1.433 . S
C2769 N2772 1.384 . S
C2770 H2761 0.929 . S
C2770 C2762 1.378 . S
C2770 C2765 1.350 . S
C2771 H2758 0.929 . S
C2771 C2763 1.433 . S
C2771 N2773 1.384 . S
N2772 C2768 1.427 . S
N2772 C2769 1.384 . S
N2773 C2765 1.427 . S
N2773 C2771 1.384 . S
H2774 C2780 0.930 . S
H2775 C2784 0.930 . S
H2776 C2789 0.929 . S
H2777 C2787 0.929 . S
H2778 C2782 0.929 . S
H2779 C2788 0.929 . S
C2780 H2774 0.930 . S
C2780 C2781 1.367 . S
C2780 C2788 1.378 . S
C2781 C2780 1.367 . S
C2781 C2789 1.433 . S
C2782 H2778 0.929 . S
C2782 C2784 1.378 . S
C2782 C2786 1.350 . S
C2783 C2786 1.463 . S
C2783 C2788 1.350 . S
C2783 N2791 1.427 . S
C2784 H2775 0.930 . S
C2784 C2782 1.378 . S
C2784 C2785 1.367 . S
C2785 C2784 1.367 . S
C2785 C2787 1.433 . S
C2786 C2782 1.350 . S
C2786 C2783 1.463 . S
C2786 N2790 1.427 . S
C2787 H2777 0.929 . S
C2787 C2785 1.433 . S
C2787 N2790 1.384 . S
C2788 H2779 0.929 . S
C2788 C2780 1.378 . S
C2788 C2783 1.350 . S
C2789 H2776 0.929 . S
C2789 C2781 1.433 . S
C2789 N2791 1.384 . S
N2790 C2786 1.427 . S
N2790 C2787 1.384 . S
N2791 C2783 1.427 . S
N2791 C2789 1.384 . S
H2792 C2798 0.930 . S
H2793 C2802 0.930 . S
H2794 C2807 0.929 . S
H2795 C2805 0.929 . S
H2796 C2800 0.929 . S
H2797 C2806 0.929 . S
C2798 H2792 0.930 . S
C2798 C2799 1.367 . S
C2798 C2806 1.378 . S
C2799 C2798 1.367 . S
C2799 C2807 1.433 . S
C2800 H2796 0.929 . S
C2800 C2802 1.378 . S
C2800 C2804 1.350 . S
C2801 C2804 1.463 . S
C2801 C2806 1.350 . S
C2801 N2809 1.427 . S
C2802 H2793 0.930 . S
C2802 C2800 1.378 . S
C2802 C2803 1.367 . S
C2803 C2802 1.367 . S
C2803 C2805 1.433 . S
C2804 C2800 1.350 . S
C2804 C2801 1.463 . S
C2804 N2808 1.427 . S
C2805 H2795 0.929 . S
C2805 C2803 1.433 . S
C2805 N2808 1.384 . S
C2806 H2797 0.929 . S
C2806 C2798 1.378 . S
C2806 C2801 1.350 . S
C2807 H2794 0.929 . S
C2807 C2799 1.433 . S
C2807 N2809 1.384 . S
N2808 C2804 1.427 . S
N2808 C2805 1.384 . S
N2809 C2801 1.427 . S
N2809 C2807 1.384 . S
H2810 C2816 0.930 . S
H2811 C2820 0.930 . S
H2812 C2825 0.929 . S
H2813 C2823 0.929 . S
H2814 C2818 0.929 . S
H2815 C2824 0.929 . S
C2816 H2810 0.930 . S
C2816 C2817 1.367 . S
C2816 C2824 1.378 . S
C2817 C2816 1.367 . S
C2817 C2825 1.433 . S
C2818 H2814 0.929 . S
C2818 C2820 1.378 . S
C2818 C2822 1.350 . S
C2819 C2822 1.463 . S
C2819 C2824 1.350 . S
C2819 N2827 1.427 . S
C2820 H2811 0.930 . S
C2820 C2818 1.378 . S
C2820 C2821 1.367 . S
C2821 C2820 1.367 . S
C2821 C2823 1.433 . S
C2822 C2818 1.350 . S
C2822 C2819 1.463 . S
C2822 N2826 1.427 . S
C2823 H2813 0.929 . S
C2823 C2821 1.433 . S
C2823 N2826 1.384 . S
C2824 H2815 0.929 . S
C2824 C2816 1.378 . S
C2824 C2819 1.350 . S
C2825 H2812 0.929 . S
C2825 C2817 1.433 . S
C2825 N2827 1.384 . S
N2826 C2822 1.427 . S
N2826 C2823 1.384 . S
N2827 C2819 1.427 . S
N2827 C2825 1.384 . S
H2828 C2834 0.930 . S
H2829 C2838 0.930 . S
H2830 C2843 0.929 . S
H2831 C2841 0.929 . S
H2832 C2836 0.929 . S
H2833 C2842 0.929 . S
C2834 H2828 0.930 . S
C2834 C2835 1.367 . S
C2834 C2842 1.378 . S
C2835 C2834 1.367 . S
C2835 C2843 1.433 . S
C2836 H2832 0.929 . S
C2836 C2838 1.378 . S
C2836 C2840 1.350 . S
C2837 C2840 1.463 . S
C2837 C2842 1.350 . S
C2837 N2845 1.427 . S
C2838 H2829 0.930 . S
C2838 C2836 1.378 . S
C2838 C2839 1.367 . S
C2839 C2838 1.367 . S
C2839 C2841 1.433 . S
C2840 C2836 1.350 . S
C2840 C2837 1.463 . S
C2840 N2844 1.427 . S
C2841 H2831 0.929 . S
C2841 C2839 1.433 . S
C2841 N2844 1.384 . S
C2842 H2833 0.929 . S
C2842 C2834 1.378 . S
C2842 C2837 1.350 . S
C2843 H2830 0.929 . S
C2843 C2835 1.433 . S
C2843 N2845 1.384 . S
N2844 C2840 1.427 . S
N2844 C2841 1.384 . S
N2845 C2837 1.427 . S
N2845 C2843 1.384 . S
H2846 C2852 0.930 . S
H2847 C2856 0.930 . S
H2848 C2861 0.929 . S
H2849 C2859 0.929 . S
H2850 C2854 0.929 . S
H2851 C2860 0.929 . S
C2852 H2846 0.930 . S
C2852 C2853 1.367 . S
C2852 C2860 1.378 . S
C2853 C2852 1.367 . S
C2853 C2861 1.433 . S
C2854 H2850 0.929 . S
C2854 C2856 1.378 . S
C2854 C2858 1.350 . S
C2855 C2858 1.463 . S
C2855 C2860 1.350 . S
C2855 N2863 1.427 . S
C2856 H2847 0.930 . S
C2856 C2854 1.378 . S
C2856 C2857 1.367 . S
C2857 C2856 1.367 . S
C2857 C2859 1.433 . S
C2858 C2854 1.350 . S
C2858 C2855 1.463 . S
C2858 N2862 1.427 . S
C2859 H2849 0.929 . S
C2859 C2857 1.433 . S
C2859 N2862 1.384 . S
C2860 H2851 0.929 . S
C2860 C2852 1.378 . S
C2860 C2855 1.350 . S
C2861 H2848 0.929 . S
C2861 C2853 1.433 . S
C2861 N2863 1.384 . S
N2862 C2858 1.427 . S
N2862 C2859 1.384 . S
N2863 C2855 1.427 . S
N2863 C2861 1.384 . S
H2864 C2870 0.930 . S
H2865 C2874 0.930 . S
H2866 C2879 0.929 . S
H2867 C2877 0.929 . S
H2868 C2872 0.929 . S
H2869 C2878 0.929 . S
C2870 H2864 0.930 . S
C2870 C2871 1.367 . S
C2870 C2878 1.378 1_565 S
C2871 C2870 1.367 . S
C2871 C2879 1.433 . S
C2872 H2868 0.929 . S
C2872 C2874 1.378 1_565 S
C2872 C2876 1.350 1_565 S
C2873 C2876 1.463 1_565 S
C2873 C2878 1.350 1_565 S
C2873 N2881 1.427 . S
C2874 H2865 0.930 . S
C2874 C2872 1.378 1_545 S
C2874 C2875 1.367 . S
C2875 C2874 1.367 . S
C2875 C2877 1.433 . S
C2876 C2872 1.350 1_545 S
C2876 C2873 1.463 1_545 S
C2876 N2880 1.427 . S
C2877 H2867 0.929 . S
C2877 C2875 1.433 . S
C2877 N2880 1.384 . S
C2878 H2869 0.929 . S
C2878 C2870 1.378 1_545 S
C2878 C2873 1.350 1_545 S
C2879 H2866 0.929 . S
C2879 C2871 1.433 . S
C2879 N2881 1.384 . S
N2880 C2876 1.427 . S
N2880 C2877 1.384 . S
N2881 C2873 1.427 . S
N2881 C2879 1.384 . S
H2882 C2888 0.930 . S
H2883 C2892 0.930 . S
H2884 C2897 0.929 . S
H2885 C2895 0.929 . S
H2886 C2890 0.929 . S
H2887 C2896 0.929 . S
C2888 H2882 0.930 . S
C2888 C2889 1.367 . S
C2888 C2896 1.378 . S
C2889 C2888 1.367 . S
C2889 C2897 1.433 . S
C2890 H2886 0.929 . S
C2890 C2892 1.378 . S
C2890 C2894 1.350 . S
C2891 C2894 1.463 . S
C2891 C2896 1.350 . S
C2891 N2899 1.427 . S
C2892 H2883 0.930 . S
C2892 C2890 1.378 . S
C2892 C2893 1.367 . S
C2893 C2892 1.367 . S
C2893 C2895 1.433 . S
C2894 C2890 1.350 . S
C2894 C2891 1.463 . S
C2894 N2898 1.427 . S
C2895 H2885 0.929 . S
C2895 C2893 1.433 . S
C2895 N2898 1.384 . S
C2896 H2887 0.929 . S
C2896 C2888 1.378 . S
C2896 C2891 1.350 . S
C2897 H2884 0.929 . S
C2897 C2889 1.433 . S
C2897 N2899 1.384 . S
N2898 C2894 1.427 . S
N2898 C2895 1.384 . S
N2899 C2891 1.427 . S
N2899 C2897 1.384 . S
H2900 C2906 0.930 . S
H2901 C2910 0.930 . S
H2902 C2915 0.929 . S
H2903 C2913 0.929 . S
H2904 C2908 0.929 . S
H2905 C2914 0.929 . S
C2906 H2900 0.930 . S
C2906 C2907 1.367 . S
C2906 C2914 1.378 . S
C2907 C2906 1.367 . S
C2907 C2915 1.433 . S
C2908 H2904 0.929 . S
C2908 C2910 1.378 . S
C2908 C2912 1.350 . S
C2909 C2912 1.463 1_545 S
C2909 C2914 1.350 . S
C2909 N2917 1.427 . S
C2910 H2901 0.930 . S
C2910 C2908 1.378 . S
C2910 C2911 1.367 . S
C2911 C2910 1.367 . S
C2911 C2913 1.433 . S
C2912 C2908 1.350 . S
C2912 C2909 1.463 1_565 S
C2912 N2916 1.427 . S
C2913 H2903 0.929 . S
C2913 C2911 1.433 . S
C2913 N2916 1.384 . S
C2914 H2905 0.929 . S
C2914 C2906 1.378 . S
C2914 C2909 1.350 . S
C2915 H2902 0.929 . S
C2915 C2907 1.433 . S
C2915 N2917 1.384 . S
N2916 C2912 1.427 . S
N2916 C2913 1.384 . S
N2917 C2909 1.427 . S
N2917 C2915 1.384 . S
H2918 C2924 0.930 . S
H2919 C2928 0.930 . S
H2920 C2933 0.929 . S
H2921 C2931 0.929 . S
H2922 C2926 0.929 . S
H2923 C2932 0.929 . S
C2924 H2918 0.930 . S
C2924 C2925 1.367 . S
C2924 C2932 1.378 . S
C2925 C2924 1.367 . S
C2925 C2933 1.433 . S
C2926 H2922 0.929 . S
C2926 C2928 1.378 . S
C2926 C2930 1.350 . S
C2927 C2930 1.463 . S
C2927 C2932 1.350 . S
C2927 N2935 1.427 . S
C2928 H2919 0.930 . S
C2928 C2926 1.378 . S
C2928 C2929 1.367 . S
C2929 C2928 1.367 . S
C2929 C2931 1.433 . S
C2930 C2926 1.350 . S
C2930 C2927 1.463 . S
C2930 N2934 1.427 . S
C2931 H2921 0.929 . S
C2931 C2929 1.433 . S
C2931 N2934 1.384 . S
C2932 H2923 0.929 . S
C2932 C2924 1.378 . S
C2932 C2927 1.350 . S
C2933 H2920 0.929 . S
C2933 C2925 1.433 . S
C2933 N2935 1.384 . S
N2934 C2930 1.427 . S
N2934 C2931 1.384 . S
N2935 C2927 1.427 . S
N2935 C2933 1.384 . S
H2936 C2942 0.930 . S
H2937 C2946 0.930 . S
H2938 C2951 0.929 . S
H2939 C2949 0.929 . S
H2940 C2944 0.929 . S
H2941 C2950 0.929 . S
C2942 H2936 0.930 . S
C2942 C2943 1.367 . S
C2942 C2950 1.378 1_565 S
C2943 C2942 1.367 . S
C2943 C2951 1.433 . S
C2944 H2940 0.929 . S
C2944 C2946 1.378 1_565 S
C2944 C2948 1.350 1_565 S
C2945 C2948 1.463 1_565 S
C2945 C2950 1.350 1_565 S
C2945 N2953 1.427 . S
C2946 H2937 0.930 . S
C2946 C2944 1.378 1_545 S
C2946 C2947 1.367 . S
C2947 C2946 1.367 . S
C2947 C2949 1.433 . S
C2948 C2944 1.350 1_545 S
C2948 C2945 1.463 1_545 S
C2948 N2952 1.427 . S
C2949 H2939 0.929 . S
C2949 C2947 1.433 . S
C2949 N2952 1.384 . S
C2950 H2941 0.929 . S
C2950 C2942 1.378 1_545 S
C2950 C2945 1.350 1_545 S
C2951 H2938 0.929 . S
C2951 C2943 1.433 . S
C2951 N2953 1.384 . S
N2952 C2948 1.427 . S
N2952 C2949 1.384 . S
N2953 C2945 1.427 . S
N2953 C2951 1.384 . S
H2954 C2960 0.930 . S
H2955 C2964 0.930 . S
H2956 C2969 0.929 . S
H2957 C2967 0.929 . S
H2958 C2962 0.929 . S
H2959 C2968 0.929 . S
C2960 H2954 0.930 . S
C2960 C2961 1.367 . S
C2960 C2968 1.378 . S
C2961 C2960 1.367 . S
C2961 C2969 1.433 . S
C2962 H2958 0.929 . S
C2962 C2964 1.378 . S
C2962 C2966 1.350 . S
C2963 C2966 1.463 . S
C2963 C2968 1.350 . S
C2963 N2971 1.427 . S
C2964 H2955 0.930 . S
C2964 C2962 1.378 . S
C2964 C2965 1.367 . S
C2965 C2964 1.367 . S
C2965 C2967 1.433 . S
C2966 C2962 1.350 . S
C2966 C2963 1.463 . S
C2966 N2970 1.427 . S
C2967 H2957 0.929 . S
C2967 C2965 1.433 . S
C2967 N2970 1.384 . S
C2968 H2959 0.929 . S
C2968 C2960 1.378 . S
C2968 C2963 1.350 . S
C2969 H2956 0.929 . S
C2969 C2961 1.433 . S
C2969 N2971 1.384 . S
N2970 C2966 1.427 . S
N2970 C2967 1.384 . S
N2971 C2963 1.427 . S
N2971 C2969 1.384 . S
H2972 C2978 0.930 . S
H2973 C2982 0.930 . S
H2974 C2987 0.929 . S
H2975 C2985 0.929 . S
H2976 C2980 0.929 . S
H2977 C2986 0.929 . S
C2978 H2972 0.930 . S
C2978 C2979 1.367 . S
C2978 C2986 1.378 1_565 S
C2979 C2978 1.367 . S
C2979 C2987 1.433 . S
C2980 H2976 0.929 . S
C2980 C2982 1.378 1_565 S
C2980 C2984 1.350 1_565 S
C2981 C2984 1.463 1_565 S
C2981 C2986 1.350 1_565 S
C2981 N2989 1.427 . S
C2982 H2973 0.930 . S
C2982 C2980 1.378 1_545 S
C2982 C2983 1.367 . S
C2983 C2982 1.367 . S
C2983 C2985 1.433 . S
C2984 C2980 1.350 1_545 S
C2984 C2981 1.463 1_545 S
C2984 N2988 1.427 . S
C2985 H2975 0.929 . S
C2985 C2983 1.433 . S
C2985 N2988 1.384 . S
C2986 H2977 0.929 . S
C2986 C2978 1.378 1_545 S
C2986 C2981 1.350 1_545 S
C2987 H2974 0.929 . S
C2987 C2979 1.433 . S
C2987 N2989 1.384 . S
N2988 C2984 1.427 . S
N2988 C2985 1.384 . S
N2989 C2981 1.427 . S
N2989 C2987 1.384 . S
H2990 C2996 0.930 . S
H2991 C3000 0.930 . S
H2992 C3005 0.929 . S
H2993 C3003 0.929 . S
H2994 C2998 0.929 . S
H2995 C3004 0.929 . S
C2996 H2990 0.930 . S
C2996 C2997 1.367 . S
C2996 C3004 1.378 . S
C2997 C2996 1.367 . S
C2997 C3005 1.433 . S
C2998 H2994 0.929 . S
C2998 C3000 1.378 . S
C2998 C3002 1.350 . S
C2999 C3002 1.463 . S
C2999 C3004 1.350 . S
C2999 N3007 1.427 . S
C3000 H2991 0.930 . S
C3000 C2998 1.378 . S
C3000 C3001 1.367 . S
C3001 C3000 1.367 . S
C3001 C3003 1.433 . S
C3002 C2998 1.350 . S
C3002 C2999 1.463 . S
C3002 N3006 1.427 . S
C3003 H2993 0.929 . S
C3003 C3001 1.433 . S
C3003 N3006 1.384 . S
C3004 H2995 0.929 . S
C3004 C2996 1.378 . S
C3004 C2999 1.350 . S
C3005 H2992 0.929 . S
C3005 C2997 1.433 . S
C3005 N3007 1.384 . S
N3006 C3002 1.427 . S
N3006 C3003 1.384 . S
N3007 C2999 1.427 . S
N3007 C3005 1.384 . S
C1287 C15 0.749 . S
C1291 C175 0.755 . S
C1305 C215 0.761 . S
C1309 C55 0.749 . S
C1323 C95 0.770 . S
C1327 C255 0.767 . S
C1341 C295 0.762 . S
C1345 C135 0.770 . S
C1359 C326 0.753 . S
C1363 C486 0.750 . S
C1377 C366 0.770 . S
C1381 C526 0.759 . S
C1395 C566 0.769 . S
C1399 C406 0.768 . S
C1413 C446 0.755 . S
C1417 C606 0.748 . S
C1431 C815 0.749 . S
C1435 C655 0.760 . S
C1449 C695 0.763 . S
C1453 C855 0.770 . S
C1467 C735 0.749 . S
C1471 C895 0.755 . S
C1485 C775 0.767 . S
C1489 C935 0.754 . S
C1503 C966 0.753 . S
C1507 C1126 0.750 . S
C1521 C1166 0.768 . S
C1525 C1006 0.755 . S
C1539 C1046 0.763 . S
C1543 C1206 0.771 . S
C1557 C1246 0.770 . S
C1561 C1086 0.761 . S
C1575 C849 2.446 . S
C1579 C9 2.438 . S
C1593 C889 2.439 . S
C1597 C49 2.434 . S
C1611 C929 2.437 . S
C1615 C89 2.445 . S
C1629 C129 2.447 . S
C1633 C809 2.439 . S
C1647 C169 2.435 . S
C1651 C769 2.442 . S
C1665 C649 2.436 . S
C1669 C209 2.435 . S
C1683 C249 2.444 . S
C1687 C689 2.448 . S
C1701 C289 2.448 . S
C1705 C729 2.445 . S
C1719 C338 2.439 . S
C1723 C1178 2.447 . S
C1737 C1218 2.435 . S
C1741 C378 2.437 . S
C1755 C1258 2.448 . S
C1759 C418 2.445 . S
C1773 C458 2.448 . S
C1777 C1138 2.443 . S
C1791 C498 2.448 . S
C1795 C1098 2.445 . S
C1809 C538 2.448 . S
C1813 C978 2.446 . S
C1827 C578 2.449 . S
C1831 C1018 2.443 . S
C1845 C618 2.447 . S
C1849 C1058 2.446 . S
C1863 C329 0.770 . S
C1867 C18 0.770 . S
C1881 C58 0.783 . S
C1885 C1009 0.783 . S
C1899 C409 0.783 . S
C1903 C98 0.783 . S
C1917 C138 0.780 . S
C1921 C1089 0.780 . S
C1935 C489 0.775 . S
C1939 C178 0.775 . S
C1953 C1169 0.770 . S
C1957 C218 0.770 . S
C1971 C258 0.780 . S
C1975 C569 0.780 . S
C1989 C298 0.776 . S
C1993 C1249 0.776 . S
C2007 C698 0.772 . S
C2011 C369 0.772 . S
C2025 C778 0.752 . S
C2029 C449 0.752 . S
C2043 C529 0.740 . S
C2047 C858 0.740 . S
C2061 C938 0.764 . S
C2065 C609 0.764 . S
C2079 C969 0.753 . S
C2083 C658 0.753 . S
C2097 C1049 0.777 . S
C2101 C738 0.777 . S
C2115 C1129 0.742 . S
C2119 C818 0.742 . S
C2133 C898 0.739 . S
C2137 C1209 0.739 . S
C2151 C6 1.531 . S
C2155 C490 1.601 . S
C2169 C1170 1.604 . S
C2173 C46 1.536 . S
C2187 C570 1.606 . S
C2191 C86 1.545 . S
C2205 C126 1.546 . S
C2209 C1250 1.604 . S
C2223 C330 1.602 . S
C2227 C166 1.532 . S
C2241 C1010 1.595 . S
C2245 C206 1.537 . S
C2259 C410 1.598 . S
C2263 C246 1.532 . S
C2277 C1090 1.604 . S
C2281 C286 1.535 . S
C2295 C179 1.603 . S
C2299 C335 1.533 . S
C2313 C859 1.599 . S
C2317 C375 1.530 . S
C2331 C259 1.606 . S
C2335 C415 1.539 . S
C2349 C455 1.545 . S
C2353 C939 1.605 . S
C2367 C19 1.597 . S
C2371 C495 1.542 . S
C2385 C699 1.604 . S
C2389 C535 1.546 . S
C2403 C575 1.533 . S
C2407 C99 1.597 . S
C2421 C615 1.534 . S
C2425 C779 1.595 . S
C2439 C1130 1.596 . S
C2443 C646 1.536 . S
C2457 C530 1.596 . S
C2461 C686 1.540 . S
C2475 C726 1.534 . S
C2479 C1210 1.604 . S
C2493 C610 1.595 . S
C2497 C766 1.535 . S
C2511 C806 1.545 . S
C2515 C970 1.606 . S
C2529 C846 1.534 . S
C2533 C370 1.595 . S
C2547 C1050 1.599 . S
C2551 C886 1.531 . S
C2565 C450 1.595 . S
C2569 C926 1.534 . S
C2583 C975 1.531 . S
C2587 C819 1.599 . S
C2601 C1015 1.539 . S
C2605 C219 1.605 . S
C2619 C1055 1.532 . S
C2623 C899 1.598 . S
C2637 C1095 1.535 . S
C2641 C299 1.595 . S
C2655 C659 1.596 . S
C2659 C1135 1.539 . S
C2673 C59 1.605 . S
C2677 C1175 1.544 . S
C2691 C1215 1.531 . S
C2695 C739 1.598 . S
C2709 C139 1.605 . S
C2713 C1255 1.545 . S
C2727 C170 3.410 . S
C2731 C10 3.408 1_556 S
C2745 C210 3.409 1_554 S
C2749 C50 3.411 . S
C2763 C90 3.411 . S
C2767 C250 3.409 . S
C2781 C290 3.409 . S
C2785 C130 3.411 . S
C2799 C499 3.408 . S
C2803 C339 3.411 . S
C2817 C379 3.411 1_554 S
C2821 C539 3.409 . S
C2835 C419 3.412 . S
C2839 C579 3.409 1_556 S
C2853 C619 3.413 . S
C2857 C459 3.411 . S
C2871 C650 3.409 . S
C2875 C810 3.408 . S
C2889 C850 3.409 . S
C2893 C690 3.412 . S
C2907 C730 3.409 1_556 S
C2911 C890 3.411 . S
C2925 C770 3.409 . S
C2929 C930 3.411 1_554 S
C2943 C1139 3.408 1_556 S
C2947 C979 3.409 . S
C2961 C1179 3.411 . S
C2965 C1019 3.413 . S
C2979 C1059 3.408 . S
C2983 C1219 3.409 . S
C2997 C1259 3.410 . S
C3001 C1099 3.409 1_554 S
