# Generated by pormake.
# Topology whd, (6)-cn, num edge types: 1
# Building blocks:
#     Node 0, Type 0, BuildingBlock: IZENUY_clean_sbu_0, # of connection points: 6
#     Node 1, Type 0, BuildingBlock: IZENUY_clean_sbu_0, # of connection points: 6
#     Node 2, Type 0, BuildingBlock: IZENUY_clean_sbu_0, # of connection points: 6
#     Node 3, Type 0, BuildingBlock: IZENUY_clean_sbu_0, # of connection points: 6
#     Node 4, Type 0, BuildingBlock: IZENUY_clean_sbu_0, # of connection points: 6
#     Node 5, Type 0, BuildingBlock: IZENUY_clean_sbu_0, # of connection points: 6
#     Node 6, Type 0, BuildingBlock: IZENUY_clean_sbu_0, # of connection points: 6
#     Node 7, Type 0, BuildingBlock: IZENUY_clean_sbu_0, # of connection points: 6
#     Node 8, Type 0, BuildingBlock: IZENUY_clean_sbu_0, # of connection points: 6
#     Node 9, Type 0, BuildingBlock: IZENUY_clean_sbu_0, # of connection points: 6
#     Node 10, Type 0, BuildingBlock: IZENUY_clean_sbu_0, # of connection points: 6
#     Node 11, Type 0, BuildingBlock: IZENUY_clean_sbu_0, # of connection points: 6
#     Node 12, Type 0, BuildingBlock: IZENUY_clean_sbu_0, # of connection points: 6
#     Node 13, Type 0, BuildingBlock: IZENUY_clean_sbu_0, # of connection points: 6
#     Node 14, Type 0, BuildingBlock: IZENUY_clean_sbu_0, # of connection points: 6
#     Node 15, Type 0, BuildingBlock: IZENUY_clean_sbu_0, # of connection points: 6
#     Edge 16, Type (0, 0), BuildingBlock: EZIPEK_clean_linker_0, # of connection points: 2
#     Edge 17, Type (0, 0), BuildingBlock: EZIPEK_clean_linker_0, # of connection points: 2
#     Edge 18, Type (0, 0), BuildingBlock: EZIPEK_clean_linker_0, # of connection points: 2
#     Edge 19, Type (0, 0), BuildingBlock: EZIPEK_clean_linker_0, # of connection points: 2
#     Edge 20, Type (0, 0), BuildingBlock: EZIPEK_clean_linker_0, # of connection points: 2
#     Edge 21, Type (0, 0), BuildingBlock: EZIPEK_clean_linker_0, # of connection points: 2
#     Edge 22, Type (0, 0), BuildingBlock: EZIPEK_clean_linker_0, # of connection points: 2
#     Edge 23, Type (0, 0), BuildingBlock: EZIPEK_clean_linker_0, # of connection points: 2
#     Edge 24, Type (0, 0), BuildingBlock: EZIPEK_clean_linker_0, # of connection points: 2
#     Edge 25, Type (0, 0), BuildingBlock: EZIPEK_clean_linker_0, # of connection points: 2
#     Edge 26, Type (0, 0), BuildingBlock: EZIPEK_clean_linker_0, # of connection points: 2
#     Edge 27, Type (0, 0), BuildingBlock: EZIPEK_clean_linker_0, # of connection points: 2
#     Edge 28, Type (0, 0), BuildingBlock: EZIPEK_clean_linker_0, # of connection points: 2
#     Edge 29, Type (0, 0), BuildingBlock: EZIPEK_clean_linker_0, # of connection points: 2
#     Edge 30, Type (0, 0), BuildingBlock: EZIPEK_clean_linker_0, # of connection points: 2
#     Edge 31, Type (0, 0), BuildingBlock: EZIPEK_clean_linker_0, # of connection points: 2
#     Edge 32, Type (0, 0), BuildingBlock: EZIPEK_clean_linker_0, # of connection points: 2
#     Edge 33, Type (0, 0), BuildingBlock: EZIPEK_clean_linker_0, # of connection points: 2
#     Edge 34, Type (0, 0), BuildingBlock: EZIPEK_clean_linker_0, # of connection points: 2
#     Edge 35, Type (0, 0), BuildingBlock: EZIPEK_clean_linker_0, # of connection points: 2
#     Edge 36, Type (0, 0), BuildingBlock: EZIPEK_clean_linker_0, # of connection points: 2
#     Edge 37, Type (0, 0), BuildingBlock: EZIPEK_clean_linker_0, # of connection points: 2
#     Edge 38, Type (0, 0), BuildingBlock: EZIPEK_clean_linker_0, # of connection points: 2
#     Edge 39, Type (0, 0), BuildingBlock: EZIPEK_clean_linker_0, # of connection points: 2
#     Edge 40, Type (0, 0), BuildingBlock: EZIPEK_clean_linker_0, # of connection points: 2
#     Edge 41, Type (0, 0), BuildingBlock: EZIPEK_clean_linker_0, # of connection points: 2
#     Edge 42, Type (0, 0), BuildingBlock: EZIPEK_clean_linker_0, # of connection points: 2
#     Edge 43, Type (0, 0), BuildingBlock: EZIPEK_clean_linker_0, # of connection points: 2
#     Edge 44, Type (0, 0), BuildingBlock: EZIPEK_clean_linker_0, # of connection points: 2
#     Edge 45, Type (0, 0), BuildingBlock: EZIPEK_clean_linker_0, # of connection points: 2
#     Edge 46, Type (0, 0), BuildingBlock: EZIPEK_clean_linker_0, # of connection points: 2
#     Edge 47, Type (0, 0), BuildingBlock: EZIPEK_clean_linker_0, # of connection points: 2
#     Edge 48, Type (0, 0), BuildingBlock: EZIPEK_clean_linker_0, # of connection points: 2
#     Edge 49, Type (0, 0), BuildingBlock: EZIPEK_clean_linker_0, # of connection points: 2
#     Edge 50, Type (0, 0), BuildingBlock: EZIPEK_clean_linker_0, # of connection points: 2
#     Edge 51, Type (0, 0), BuildingBlock: EZIPEK_clean_linker_0, # of connection points: 2
#     Edge 52, Type (0, 0), BuildingBlock: EZIPEK_clean_linker_0, # of connection points: 2
#     Edge 53, Type (0, 0), BuildingBlock: EZIPEK_clean_linker_0, # of connection points: 2
#     Edge 54, Type (0, 0), BuildingBlock: EZIPEK_clean_linker_0, # of connection points: 2
#     Edge 55, Type (0, 0), BuildingBlock: EZIPEK_clean_linker_0, # of connection points: 2
#     Edge 56, Type (0, 0), BuildingBlock: EZIPEK_clean_linker_0, # of connection points: 2
#     Edge 57, Type (0, 0), BuildingBlock: EZIPEK_clean_linker_0, # of connection points: 2
#     Edge 58, Type (0, 0), BuildingBlock: EZIPEK_clean_linker_0, # of connection points: 2
#     Edge 59, Type (0, 0), BuildingBlock: EZIPEK_clean_linker_0, # of connection points: 2
#     Edge 60, Type (0, 0), BuildingBlock: EZIPEK_clean_linker_0, # of connection points: 2
#     Edge 61, Type (0, 0), BuildingBlock: EZIPEK_clean_linker_0, # of connection points: 2
#     Edge 62, Type (0, 0), BuildingBlock: EZIPEK_clean_linker_0, # of connection points: 2
#     Edge 63, Type (0, 0), BuildingBlock: EZIPEK_clean_linker_0, # of connection points: 2
# Relax obj value: 0.275
# Max RMSD: 0.227
# Mean RMSD: 0.227
data_MOF--net-whd--node1-IZENUY_clean_sbu_0--edge1-EZIPEK_clean_linker_0
_symmetry_space_group_name_H-M    P1
_symmetry_Int_Tables_number       1
_symmetry_cell_setting            triclinic
loop_
_symmetry_equiv_pos_as_xyz
'x, y, z'
_cell_length_a     38.002549
_cell_length_b     38.173463
_cell_length_c     21.522209
_cell_angle_alpha  90.095702
_cell_angle_beta   89.949118
_cell_angle_gamma 90.267336
loop_
_atom_site_label
_atom_site_type_symbol
_atom_site_fract_x
_atom_site_fract_y
_atom_site_fract_z
_atom_type_partial_charge
Fe0 Fe 0.17976 0.35634 0.32591 0.0
Fe1 Fe 0.16028 0.42774 0.3808 0.0
O2 O 0.1878 0.40201 0.33262 0.0
Fe3 Fe 0.22298 0.42211 0.29145 0.0
O4 O 0.21921 0.39335 0.22291 0.0
O5 O 0.17342 0.35949 0.24284 0.0
O6 O 0.13146 0.36011 0.33247 0.0
C7 C 0.11119 0.38606 0.32388 0.0
C8 C 0.25446 0.36102 0.32815 0.0
O9 O 0.1217 0.4168 0.33536 0.0
C10 C 0.22349 0.45733 0.40895 0.0
O11 O 0.18566 0.34996 0.40932 0.0
O12 O 0.15052 0.3925 0.43639 0.0
O13 O 0.25559 0.39404 0.32771 0.0
O14 O 0.22626 0.3445 0.31667 0.0
C15 C 0.17318 0.47315 0.27912 0.0
O16 O 0.19712 0.44056 0.42866 0.0
O17 O 0.23297 0.45486 0.35255 0.0
C18 C 0.16722 0.36495 0.45007 0.0
O19 O 0.16467 0.46808 0.33511 0.0
O20 O 0.19292 0.4516 0.25183 0.0
C21 C 0.19459 0.37327 0.20498 0.0
Fe22 Fe 0.35343 0.84049 0.68919 0.0
Fe23 Fe 0.41954 0.79695 0.71812 0.0
O24 O 0.39924 0.83294 0.67976 0.0
Fe25 Fe 0.42426 0.86242 0.63354 0.0
O26 O 0.41152 0.89985 0.68204 0.0
O27 O 0.35553 0.88808 0.67892 0.0
O28 O 0.35988 0.84705 0.77258 0.0
C29 C 0.3756 0.82674 0.8099 0.0
C30 C 0.36079 0.85216 0.56433 0.0
O31 O 0.393 0.8009 0.78942 0.0
C32 C 0.45342 0.79919 0.59917 0.0
O33 O 0.34131 0.79471 0.70061 0.0
O34 O 0.38942 0.76505 0.68292 0.0
O35 O 0.38845 0.86975 0.57685 0.0
O36 O 0.34529 0.83459 0.60627 0.0
C37 C 0.47186 0.84647 0.73227 0.0
O38 O 0.45023 0.78778 0.65412 0.0
O39 O 0.43919 0.82762 0.58295 0.0
C40 C 0.35629 0.76648 0.68599 0.0
O41 O 0.45137 0.82477 0.75742 0.0
O42 O 0.4648 0.85966 0.67988 0.0
C43 C 0.3801 0.90898 0.69184 0.0
Fe44 Fe 0.79361 0.59838 0.29649 0.0
Fe45 Fe 0.84181 0.66071 0.32924 0.0
O46 O 0.83125 0.61539 0.33536 0.0
Fe47 Fe 0.86002 0.58783 0.37747 0.0
O48 O 0.8553 0.54915 0.3268 0.0
O49 O 0.81888 0.56603 0.25404 0.0
O50 O 0.79942 0.62672 0.22758 0.0
C51 C 0.82679 0.64245 0.20779 0.0
C52 C 0.79568 0.55988 0.41138 0.0
O53 O 0.84867 0.65555 0.24578 0.0
C54 C 0.85395 0.65014 0.45246 0.0
O55 O 0.76404 0.62935 0.33444 0.0
O56 O 0.79658 0.67571 0.31711 0.0
O57 O 0.82514 0.57218 0.42791 0.0
O58 O 0.7826 0.56672 0.35845 0.0
C59 C 0.90895 0.63176 0.32392 0.0
O60 O 0.8363 0.66716 0.41259 0.0
O61 O 0.86902 0.62152 0.43743 0.0
C62 C 0.7672 0.66217 0.3304 0.0
O63 O 0.88923 0.65628 0.34061 0.0
O64 O 0.89761 0.60079 0.32864 0.0
C65 C 0.84021 0.54407 0.27518 0.0
Fe66 Fe 0.59673 0.22468 0.71167 0.0
Fe67 Fe 0.58679 0.15896 0.62766 0.0
O68 O 0.6144 0.18697 0.67302 0.0
Fe69 Fe 0.66001 0.17668 0.68019 0.0
O70 O 0.65588 0.17241 0.76316 0.0
O71 O 0.62332 0.2189 0.78236 0.0
O72 O 0.56341 0.19928 0.75199 0.0
C73 C 0.54257 0.17683 0.73009 0.0
C74 C 0.66158 0.25125 0.67817 0.0
O75 O 0.54754 0.16338 0.67713 0.0
C76 C 0.64972 0.16435 0.55587 0.0
O77 O 0.56639 0.23634 0.64775 0.0
O78 O 0.57328 0.19443 0.57849 0.0
O79 O 0.67511 0.22168 0.68753 0.0
O80 O 0.62862 0.25481 0.67686 0.0
C81 C 0.6287 0.10863 0.6806 0.0
O82 O 0.62048 0.14997 0.56867 0.0
O83 O 0.66724 0.18023 0.5971 0.0
C84 C 0.56214 0.2243 0.59328 0.0
O85 O 0.5981 0.12032 0.6727 0.0
O86 O 0.65472 0.12904 0.6753 0.0
C87 C 0.64152 0.19324 0.8011 0.0
Fe88 Fe 0.17938 0.65715 0.67727 0.0
Fe89 Fe 0.15593 0.58605 0.62202 0.0
O90 O 0.18555 0.61123 0.66801 0.0
Fe91 Fe 0.22139 0.58961 0.70583 0.0
O92 O 0.20433 0.60145 0.78175 0.0
O93 O 0.19086 0.65649 0.76024 0.0
O94 O 0.13431 0.65274 0.7031 0.0
C95 C 0.1099 0.63514 0.67903 0.0
C96 C 0.25177 0.65584 0.67644 0.0
O97 O 0.11628 0.61147 0.63967 0.0
C98 C 0.22304 0.55799 0.59236 0.0
O99 O 0.16601 0.6645 0.5962 0.0
O100 O 0.16492 0.61187 0.5529 0.0
O101 O 0.25148 0.62745 0.70635 0.0
O102 O 0.22401 0.66744 0.65253 0.0
C103 C 0.16647 0.53972 0.71667 0.0
O104 O 0.18984 0.55566 0.595 0.0
O105 O 0.24023 0.57604 0.63147 0.0
C106 C 0.16522 0.64486 0.54863 0.0
O107 O 0.14466 0.55844 0.68799 0.0
O108 O 0.19887 0.54716 0.71468 0.0
C109 C 0.19462 0.63155 0.79879 0.0
Fe110 Fe 0.59263 0.86266 0.40305 0.0
Fe111 Fe 0.66311 0.84503 0.33928 0.0
O112 O 0.6175 0.8357 0.3514 0.0
Fe113 Fe 0.59713 0.80009 0.31151 0.0
O114 O 0.5629 0.82742 0.27963 0.0
O115 O 0.55123 0.85949 0.36044 0.0
O116 O 0.60233 0.9017 0.35777 0.0
C117 C 0.63284 0.9124 0.34483 0.0
C118 C 0.56431 0.79829 0.43165 0.0
O119 O 0.65914 0.89254 0.34996 0.0
C120 C 0.66166 0.77058 0.33619 0.0
O121 O 0.62952 0.87094 0.45663 0.0
O122 O 0.67287 0.83835 0.42091 0.0
O123 O 0.56871 0.78763 0.37659 0.0
O124 O 0.57982 0.82559 0.45141 0.0
C125 C 0.64059 0.83284 0.2195 0.0
O126 O 0.6764 0.79957 0.32496 0.0
O127 O 0.62872 0.76831 0.34035 0.0
C128 C 0.65849 0.85529 0.46441 0.0
O129 O 0.65656 0.85259 0.25719 0.0
O130 O 0.62152 0.8075 0.2382 0.0
C131 C 0.54154 0.84574 0.31001 0.0
Fe132 Fe 0.8427 0.35901 0.67553 0.0
Fe133 Fe 0.8633 0.4291 0.61555 0.0
O134 O 0.83497 0.4044 0.66448 0.0
Fe135 Fe 0.79911 0.42502 0.7028 0.0
O136 O 0.8169 0.41373 0.77852 0.0
O137 O 0.82804 0.35866 0.75697 0.0
O138 O 0.88627 0.36699 0.7055 0.0
C139 C 0.91028 0.38321 0.67735 0.0
C140 C 0.7712 0.35765 0.66978 0.0
O141 O 0.90321 0.40342 0.63253 0.0
C142 C 0.79561 0.45745 0.58974 0.0
O143 O 0.85923 0.35114 0.59659 0.0
O144 O 0.85256 0.40174 0.54926 0.0
O145 O 0.77009 0.38571 0.70158 0.0
O146 O 0.79961 0.34745 0.64614 0.0
C147 C 0.85409 0.47599 0.71037 0.0
O148 O 0.8289 0.4591 0.58924 0.0
O149 O 0.77935 0.43882 0.62919 0.0
C150 C 0.85612 0.36895 0.5475 0.0
O151 O 0.87573 0.45855 0.67842 0.0
O152 O 0.82177 0.46738 0.71197 0.0
C153 C 0.82534 0.38336 0.7957 0.0
Fe154 Fe 0.4263 0.22243 0.30365 0.0
Fe155 Fe 0.4295 0.15543 0.38347 0.0
O156 O 0.40397 0.18741 0.34346 0.0
Fe157 Fe 0.35696 0.18491 0.34168 0.0
O158 O 0.35513 0.19542 0.25801 0.0
O159 O 0.41 0.20657 0.22998 0.0
O160 O 0.46756 0.19905 0.28854 0.0
C161 C 0.47502 0.16701 0.28753 0.0
C162 C 0.36269 0.25651 0.33787 0.0
O163 O 0.45631 0.14545 0.31626 0.0
C164 C 0.37324 0.16564 0.46618 0.0
O165 O 0.44382 0.23997 0.37597 0.0
O166 O 0.46057 0.18864 0.41354 0.0
O167 O 0.35096 0.22997 0.36494 0.0
O168 O 0.39089 0.25482 0.30753 0.0
C169 C 0.37389 0.11314 0.33459 0.0
O170 O 0.40526 0.15985 0.45508 0.0
O171 O 0.35225 0.1745 0.4237 0.0
C172 C 0.46117 0.22197 0.41452 0.0
O173 O 0.40318 0.11779 0.36053 0.0
O174 O 0.35514 0.13897 0.32045 0.0
C175 C 0.37805 0.20143 0.216 0.0
Fe176 Fe 0.68067 0.85826 0.83668 0.0
Fe177 Fe 0.65597 0.92967 0.88682 0.0
O178 O 0.68657 0.90429 0.84388 0.0
Fe179 Fe 0.72275 0.9254 0.80661 0.0
O180 O 0.70739 0.91075 0.73082 0.0
O181 O 0.69684 0.85625 0.75656 0.0
O182 O 0.63699 0.86298 0.80339 0.0
C183 C 0.61181 0.88039 0.82546 0.0
C184 C 0.75266 0.86049 0.84552 0.0
O185 O 0.61701 0.90298 0.86755 0.0
C186 C 0.72229 0.95991 0.9175 0.0
O187 O 0.66319 0.85226 0.91581 0.0
O188 O 0.66407 0.90514 0.95736 0.0
O189 O 0.75303 0.88795 0.81268 0.0
O190 O 0.72417 0.84921 0.86826 0.0
C191 C 0.66747 0.97457 0.79032 0.0
O192 O 0.68906 0.96126 0.91415 0.0
O193 O 0.74008 0.94143 0.88029 0.0
C194 C 0.66292 0.87227 0.96282 0.0
O195 O 0.6456 0.956 0.81942 0.0
O196 O 0.69989 0.96725 0.79255 0.0
C197 C 0.70238 0.87916 0.71525 0.0
Fe198 Fe 0.93068 0.36248 0.12367 0.0
Fe199 Fe 0.85855 0.33948 0.17352 0.0
O200 O 0.90452 0.33311 0.16729 0.0
Fe201 Fe 0.92494 0.29833 0.20746 0.0
O202 O 0.96684 0.32145 0.22035 0.0
O203 O 0.95612 0.37511 0.19257 0.0
O204 O 0.90283 0.40122 0.13656 0.0
C205 C 0.88083 0.40824 0.17868 0.0
C206 C 0.96037 0.29617 0.098 0.0
O207 O 0.86458 0.38357 0.20544 0.0
C208 C 0.85926 0.26801 0.16956 0.0
O209 O 0.90689 0.35163 0.05305 0.0
O210 O 0.85371 0.35625 0.09338 0.0
O211 O 0.94107 0.27914 0.13527 0.0
O212 O 0.96297 0.32921 0.10133 0.0
C213 C 0.87899 0.32331 0.29558 0.0
O214 O 0.84882 0.29581 0.1437 0.0
O215 O 0.88682 0.26829 0.20278 0.0
C216 C 0.874 0.35493 0.04646 0.0
O217 O 0.85563 0.32365 0.25395 0.0
O218 O 0.91043 0.31664 0.28103 0.0
C219 C 0.97245 0.35389 0.22724 0.0
Fe220 Fe 0.362 0.09559 0.89408 0.0
Fe221 Fe 0.29769 0.09611 0.80566 0.0
O222 O 0.33137 0.11881 0.84784 0.0
Fe223 Fe 0.33556 0.16528 0.84319 0.0
O224 O 0.3835 0.16641 0.85344 0.0
O225 O 0.39895 0.11166 0.84719 0.0
O226 O 0.36289 0.05594 0.84672 0.0
C227 C 0.35128 0.04784 0.79383 0.0
C228 C 0.34873 0.15681 0.9664 0.0
O229 O 0.32831 0.06632 0.76766 0.0
C230 C 0.26143 0.15594 0.83786 0.0
O231 O 0.32667 0.07781 0.94212 0.0
O232 O 0.28861 0.06445 0.86793 0.0
O233 O 0.32875 0.17062 0.92644 0.0
O234 O 0.36746 0.13057 0.95245 0.0
C235 C 0.32589 0.14543 0.72075 0.0
O236 O 0.26275 0.12298 0.83878 0.0
O237 O 0.28888 0.17411 0.83098 0.0
C238 C 0.29892 0.06219 0.92371 0.0
O239 O 0.30199 0.12381 0.73616 0.0
O240 O 0.34311 0.16246 0.76078 0.0
C241 C 0.40606 0.14373 0.83901 0.0
Fe242 Fe 0.09796 0.72048 0.2091 0.0
Fe243 Fe 0.09164 0.65588 0.12373 0.0
O244 O 0.11778 0.68518 0.16842 0.0
Fe245 Fe 0.16391 0.67827 0.17469 0.0
O246 O 0.16007 0.67183 0.25829 0.0
O247 O 0.1283 0.7185 0.27592 0.0
O248 O 0.06927 0.69072 0.25221 0.0
C249 C 0.0483 0.66869 0.22883 0.0
C250 C 0.15872 0.75257 0.17033 0.0
O251 O 0.05244 0.65821 0.17358 0.0
C252 C 0.15408 0.66477 0.05125 0.0
O253 O 0.06375 0.72871 0.14974 0.0
O254 O 0.07535 0.69094 0.07505 0.0
O255 O 0.17525 0.72487 0.18362 0.0
O256 O 0.12546 0.75291 0.16955 0.0
C257 C 0.13696 0.6096 0.17831 0.0
O258 O 0.12604 0.64836 0.06515 0.0
O259 O 0.1701 0.68335 0.09109 0.0
C260 C 0.05992 0.7181 0.09419 0.0
O261 O 0.10551 0.6186 0.1697 0.0
O262 O 0.16195 0.63054 0.16734 0.0
C263 C 0.14586 0.69282 0.29606 0.0
Fe264 Fe 0.65914 0.08786 0.12942 0.0
Fe265 Fe 0.72439 0.09594 0.21408 0.0
O266 O 0.68771 0.1145 0.17447 0.0
Fe267 Fe 0.67921 0.16021 0.18027 0.0
O268 O 0.63119 0.15667 0.17303 0.0
O269 O 0.62109 0.10011 0.17546 0.0
O270 O 0.66237 0.04946 0.17853 0.0
C271 C 0.67435 0.04393 0.23215 0.0
C272 C 0.66636 0.14958 0.05638 0.0
O273 O 0.69671 0.06451 0.2563 0.0
C274 C 0.75366 0.15827 0.17526 0.0
O275 O 0.6952 0.0729 0.08113 0.0
O276 O 0.73441 0.06326 0.15403 0.0
O277 O 0.68449 0.16606 0.09634 0.0
O278 O 0.65021 0.1217 0.07112 0.0
C279 C 0.69496 0.14312 0.30149 0.0
O280 O 0.75556 0.12526 0.17504 0.0
O281 O 0.72532 0.17341 0.18941 0.0
C282 C 0.72377 0.05942 0.09885 0.0
O283 O 0.72072 0.12545 0.28149 0.0
O284 O 0.67319 0.15653 0.26403 0.0
C285 C 0.61101 0.13109 0.18405 0.0
Fe286 Fe 0.16178 0.33356 0.82382 0.0
Fe287 Fe 0.0939 0.29225 0.79161 0.0
O288 O 0.11582 0.32648 0.83309 0.0
Fe289 Fe 0.09083 0.35428 0.88263 0.0
O290 O 0.1024 0.3931 0.83828 0.0
O291 O 0.15867 0.3816 0.82524 0.0
O292 O 0.15787 0.33758 0.74091 0.0
C293 C 0.14329 0.31714 0.70306 0.0
C294 C 0.1558 0.34923 0.94832 0.0
O295 O 0.12194 0.29389 0.72143 0.0
C296 C 0.05974 0.29245 0.91091 0.0
O297 O 0.17202 0.28648 0.81932 0.0
O298 O 0.12092 0.25857 0.82644 0.0
O299 O 0.12608 0.36258 0.93798 0.0
O300 O 0.17066 0.3313 0.90681 0.0
C301 C 0.04489 0.34394 0.78072 0.0
O302 O 0.06101 0.28366 0.85391 0.0
O303 O 0.07787 0.31778 0.93066 0.0
C304 C 0.15412 0.25867 0.82763 0.0
O305 O 0.06584 0.32389 0.75277 0.0
O306 O 0.04988 0.35114 0.83731 0.0
C307 C 0.13291 0.40256 0.82173 0.0
Fe308 Fe 0.2923 0.92122 0.21843 0.0
Fe309 Fe 0.33914 0.85816 0.18787 0.0
O310 O 0.33126 0.90381 0.18516 0.0
Fe311 Fe 0.36297 0.93133 0.14929 0.0
O312 O 0.35553 0.96914 0.20049 0.0
O313 O 0.3165 0.95105 0.26863 0.0
O314 O 0.29243 0.89012 0.28472 0.0
C315 C 0.31783 0.87283 0.3078 0.0
C316 C 0.30161 0.95997 0.10568 0.0
O317 O 0.34102 0.85967 0.27248 0.0
C318 C 0.35887 0.87268 0.06801 0.0
O319 O 0.26389 0.89303 0.17147 0.0
O320 O 0.29266 0.84461 0.18936 0.0
O321 O 0.3312 0.94697 0.09383 0.0
O322 O 0.28669 0.95535 0.15801 0.0
C323 C 0.40643 0.88644 0.20851 0.0
O324 O 0.33794 0.85558 0.1028 0.0
O325 O 0.37606 0.8984 0.09038 0.0
C326 C 0.26487 0.86007 0.1731 0.0
O327 O 0.38733 0.86183 0.18819 0.0
O328 O 0.39697 0.91779 0.20314 0.0
C329 C 0.33946 0.97279 0.25158 0.0
Fe330 Fe 0.92436 0.7254 0.80032 0.0
Fe331 Fe 0.93184 0.65903 0.87953 0.0
O332 O 0.90522 0.68798 0.83575 0.0
Fe333 Fe 0.86012 0.67819 0.82561 0.0
O334 O 0.85785 0.69431 0.74491 0.0
O335 O 0.912 0.71026 0.7229 0.0
O336 O 0.96714 0.70401 0.78613 0.0
C337 C 0.9737 0.67174 0.77763 0.0
C338 C 0.85634 0.7494 0.83959 0.0
O339 O 0.95833 0.64912 0.81123 0.0
C340 C 0.8736 0.66368 0.95352 0.0
O341 O 0.93913 0.74263 0.87557 0.0
O342 O 0.9629 0.69279 0.90448 0.0
O343 O 0.84633 0.71974 0.85812 0.0
O344 O 0.88432 0.75283 0.80758 0.0
C345 C 0.88659 0.61205 0.81797 0.0
O346 O 0.90656 0.66781 0.94956 0.0
O347 O 0.85472 0.66003 0.90504 0.0
C348 C 0.95937 0.72545 0.91081 0.0
O349 O 0.90592 0.61908 0.86388 0.0
O350 O 0.87052 0.63633 0.79113 0.0
C351 C 0.88223 0.69919 0.70562 0.0
C352 C 0.18439 0.52332 0.20267 0.0
C353 C 0.16284 0.50691 0.24875 0.0
C354 C 0.12773 0.56047 0.25391 0.0
C355 C 0.1451 0.57386 0.20089 0.0
N356 N 0.18465 0.56294 0.11511 0.0
N357 N 0.10626 0.50796 0.30201 0.0
C358 C 0.17165 0.55361 0.17192 0.0
C359 C 0.13208 0.5248 0.26942 0.0
N360 N 0.21795 0.51236 0.19126 0.0
N361 N 0.10876 0.58196 0.29189 0.0
H362 H 0.10621 0.48109 0.30981 0.0
H363 H 0.08262 0.52009 0.31382 0.0
H364 H 0.10715 0.60896 0.28499 0.0
H365 H 0.09807 0.57341 0.33391 0.0
H366 H 0.23482 0.52563 0.16106 0.0
H367 H 0.2309 0.49372 0.21786 0.0
H368 H 0.20209 0.54719 0.0903 0.0
H369 H 0.17501 0.58418 0.08999 0.0
C370 C 0.52958 0.82801 0.78169 0.0
C371 C 0.50628 0.85503 0.76234 0.0
C372 C 0.55282 0.89845 0.78112 0.0
C373 C 0.57505 0.87195 0.80548 0.0
N374 N 0.58038 0.8128 0.8437 0.0
N375 N 0.49301 0.91675 0.76133 0.0
C376 C 0.56215 0.83711 0.81025 0.0
C377 C 0.51707 0.89051 0.76761 0.0
N378 N 0.52178 0.79365 0.77012 0.0
N379 N 0.56616 0.9307 0.76711 0.0
H380 H 0.46631 0.91189 0.75417 0.0
H381 H 0.49887 0.94296 0.77044 0.0
H382 H 0.59268 0.93668 0.77167 0.0
H383 H 0.55186 0.94989 0.74393 0.0
H384 H 0.53982 0.77351 0.77662 0.0
H385 H 0.49872 0.78533 0.74864 0.0
H386 H 0.57032 0.78805 0.85406 0.0
H387 H 0.60385 0.81855 0.86671 0.0
C388 C 0.89575 0.4729 0.19925 0.0
C389 C 0.87013 0.44575 0.19051 0.0
C390 C 0.82325 0.48771 0.21843 0.0
C391 C 0.8494 0.51222 0.23779 0.0
N392 N 0.908 0.53418 0.22289 0.0
N393 N 0.80898 0.42957 0.17971 0.0
C394 C 0.88501 0.50648 0.22142 0.0
C395 C 0.8337 0.45403 0.19614 0.0
N396 N 0.93053 0.46667 0.18801 0.0
N397 N 0.78857 0.49714 0.21807 0.0
H398 H 0.81491 0.40761 0.1529 0.0
H399 H 0.78263 0.4307 0.19263 0.0
H400 H 0.77949 0.52137 0.23299 0.0
H401 H 0.76849 0.48214 0.19865 0.0
H402 H 0.95082 0.48308 0.20264 0.0
H403 H 0.9399 0.4447 0.16512 0.0
H404 H 0.93371 0.53352 0.20639 0.0
H405 H 0.90015 0.55949 0.23448 0.0
C406 C 0.47228 0.13623 0.836 0.0
C407 C 0.44195 0.15523 0.81715 0.0
C408 C 0.48062 0.19384 0.7554 0.0
C409 C 0.50878 0.17025 0.76335 0.0
N410 N 0.53224 0.11909 0.8129 0.0
N411 N 0.41835 0.20294 0.75405 0.0
C412 C 0.50479 0.14136 0.80403 0.0
C413 C 0.44641 0.1845 0.77614 0.0
N414 N 0.47073 0.11521 0.8873 0.0
N415 N 0.48669 0.22604 0.7299 0.0
H416 H 0.39272 0.20023 0.76923 0.0
H417 H 0.42026 0.22002 0.71644 0.0
H418 H 0.51151 0.2342 0.71553 0.0
H419 H 0.46815 0.24607 0.72986 0.0
H420 H 0.49265 0.10305 0.90647 0.0
H421 H 0.44853 0.11354 0.91565 0.0
H422 H 0.53001 0.09548 0.83678 0.0
H423 H 0.55682 0.12349 0.793 0.0
C424 C 0.17108 0.49535 0.80302 0.0
C425 C 0.15509 0.50625 0.74676 0.0
C426 C 0.11804 0.45361 0.75027 0.0
C427 C 0.13919 0.43923 0.79873 0.0
N428 N 0.19075 0.44683 0.86484 0.0
N429 N 0.11911 0.48964 0.65853 0.0
C430 C 0.16733 0.46006 0.82293 0.0
C431 C 0.12987 0.48395 0.71827 0.0
N432 N 0.18841 0.51903 0.83956 0.0
N433 N 0.08708 0.43838 0.73286 0.0
H434 H 0.12963 0.50907 0.63007 0.0
H435 H 0.10303 0.4721 0.63441 0.0
H436 H 0.07873 0.41401 0.74799 0.0
H437 H 0.06907 0.45093 0.70398 0.0
H438 H 0.19772 0.51308 0.88383 0.0
H439 H 0.18914 0.54562 0.82938 0.0
H440 H 0.21368 0.46016 0.87743 0.0
H441 H 0.1893 0.42186 0.88366 0.0
C442 C 0.49586 0.84536 0.22311 0.0
C443 C 0.5046 0.85198 0.2865 0.0
C444 C 0.44579 0.87854 0.30032 0.0
C445 C 0.44112 0.87787 0.23509 0.0
N446 N 0.46414 0.86575 0.13306 0.0
N447 N 0.48316 0.86886 0.38896 0.0
C448 C 0.46705 0.86309 0.19614 0.0
C449 C 0.47823 0.86699 0.32616 0.0
N450 N 0.51225 0.81959 0.18996 0.0
N451 N 0.41837 0.88823 0.33785 0.0
H452 H 0.50033 0.85265 0.41295 0.0
H453 H 0.46909 0.88562 0.41788 0.0
H454 H 0.39468 0.89787 0.32069 0.0
H455 H 0.41797 0.88485 0.38582 0.0
H456 H 0.50515 0.81296 0.14466 0.0
H457 H 0.52789 0.80051 0.21036 0.0
H458 H 0.48425 0.85838 0.1028 0.0
H459 H 0.44329 0.87859 0.11151 0.0
C460 C 0.84551 0.56797 0.77226 0.0
C461 C 0.87889 0.57516 0.79877 0.0
C462 C 0.8958 0.51441 0.77474 0.0
C463 C 0.86482 0.51034 0.73824 0.0
N464 N 0.81772 0.54016 0.68543 0.0
N465 N 0.93825 0.55446 0.81931 0.0
C466 C 0.8418 0.53911 0.73218 0.0
C467 C 0.9048 0.54816 0.79883 0.0
N468 N 0.81687 0.58793 0.7865 0.0
N469 N 0.91623 0.48617 0.78801 0.0
H470 H 0.94676 0.57811 0.83793 0.0
H471 H 0.95876 0.53679 0.81293 0.0
H472 H 0.91121 0.46148 0.76997 0.0
H473 H 0.93645 0.48671 0.8207 0.0
H474 H 0.79173 0.58191 0.77006 0.0
H475 H 0.81742 0.60716 0.821 0.0
H476 H 0.80213 0.56209 0.67716 0.0
H477 H 0.81749 0.52151 0.65011 0.0
C478 C 0.54888 0.15227 0.17015 0.0
C479 C 0.57533 0.13796 0.20901 0.0
C480 C 0.53623 0.1428 0.29932 0.0
C481 C 0.50899 0.15544 0.26001 0.0
N482 N 0.48711 0.16663 0.15696 0.0
N483 N 0.59341 0.11548 0.30854 0.0
C484 C 0.51472 0.1587 0.19505 0.0
C485 C 0.56863 0.13179 0.27288 0.0
N486 N 0.55657 0.16003 0.10962 0.0
N487 N 0.53199 0.14309 0.36241 0.0
H488 H 0.61839 0.10923 0.29215 0.0
H489 H 0.58859 0.10605 0.35312 0.0
H490 H 0.50855 0.14967 0.38418 0.0
H491 H 0.55245 0.13924 0.39377 0.0
H492 H 0.53999 0.17426 0.08076 0.0
H493 H 0.58064 0.15397 0.08898 0.0
H494 H 0.48849 0.16614 0.10867 0.0
H495 H 0.46171 0.17082 0.17361 0.0
C496 C 0.62652 0.0268 0.77975 0.0
C497 C 0.65551 1.00703 0.75745 0.0
C498 C 0.66629 0.05287 0.67969 0.0
C499 C 0.63509 0.07093 0.6987 0.0
N500 N 0.57771 0.06161 0.74655 0.0
N501 N 0.69367 0.99618 0.66964 0.0
C502 C 0.61256 0.05376 0.74204 0.0
C503 C 0.67272 0.01852 0.70251 0.0
N504 N 0.61312 0.02163 0.83792 0.0
N505 N 0.68991 0.0676 0.63952 0.0
H506 H 0.69651 0.96993 0.68134 0.0
H507 H 0.70417 1.0024 0.62624 0.0
H508 H 0.68602 0.09093 0.616 0.0
H509 H 0.71476 0.05693 0.63175 0.0
H510 H 0.59329 0.03742 0.85622 0.0
H511 H 0.62478 1.00537 0.87071 0.0
H512 H 0.56077 0.04764 0.77569 0.0
H513 H 0.56457 0.07734 0.71488 0.0
C514 C 0.05576 0.40314 0.26548 0.0
C515 C 0.07342 0.38002 0.30672 0.0
C516 C 0.02013 0.34295 0.30966 0.0
C517 C 1.00348 0.36574 0.26628 0.0
N518 N 0.99893 0.42696 0.24206 0.0
N519 N 0.06637 0.33592 0.38635 0.0
C520 C 0.01924 0.39877 0.25556 0.0
C521 C 0.05395 0.35202 0.33409 0.0
N522 N 0.07342 0.4288 0.23412 0.0
N523 N 1.00313 0.31357 0.33007 0.0
H524 H 0.08919 0.34397 0.40921 0.0
H525 H 0.05206 0.31747 0.41157 0.0
H526 H 0.97614 0.3099 0.32492 0.0
H527 H 0.01583 0.29318 0.35291 0.0
H528 H 0.06137 0.44406 0.20013 0.0
H529 H 0.10042 0.43261 0.23725 0.0
H530 H 1.0092 0.45219 0.23703 0.0
H531 H 0.97181 0.4258 0.24865 0.0
C532 C 0.3858 0.97543 0.6853 0.0
C533 C 0.37134 0.94511 0.71461 0.0
C534 C 0.34827 0.98214 0.79834 0.0
C535 C 0.3602 0.01274 0.76732 0.0
N536 N 0.38674 0.03908 0.67709 0.0
N537 N 0.32728 0.92315 0.78742 0.0
C538 C 0.37789 0.00954 0.70939 0.0
C539 C 0.34902 0.94945 0.76732 0.0
N540 N 0.40633 0.97178 0.63355 0.0
N541 N 0.33638 0.98376 0.85814 0.0
H542 H 0.32466 0.89898 0.76624 0.0
H543 H 0.30772 0.92692 0.8207 0.0
H544 H 0.3363 1.00636 0.88476 0.0
H545 H 0.32946 0.96177 0.88399 0.0
H546 H 0.42141 0.99201 0.61483 0.0
H547 H 0.40904 0.94814 0.60978 0.0
H548 H 0.39604 0.03892 0.63159 0.0
H549 H 0.38288 0.06418 0.6948 0.0
C550 C 1.00595 0.62356 0.27369 0.0
C551 C 0.01503 0.65917 0.262 0.0
C552 C 0.95408 0.67512 0.28177 0.0
C553 C 0.94584 0.64048 0.30272 0.0
N554 N 0.9706 0.58529 0.33767 0.0
N555 N 0.99854 0.72004 0.27673 0.0
C556 C 0.97365 0.61556 0.30436 0.0
C557 C 0.98968 0.68534 0.27464 0.0
N558 N 0.02781 0.5972 0.25578 0.0
N559 N 0.92847 0.69771 0.26277 0.0
H560 H 0.02384 0.72964 0.26939 0.0
H561 H 0.98075 0.73915 0.29113 0.0
H562 H 0.9024 0.69042 0.25636 0.0
H563 H 0.93416 0.72214 0.24347 0.0
H564 H 0.02063 0.57084 0.25835 0.0
H565 H 0.05163 0.6018 0.2335 0.0
H566 H 0.99142 0.56785 0.3429 0.0
H567 H 0.94965 0.57997 0.36739 0.0
C568 C 0.66088 0.9793 0.22756 0.0
C569 C 0.66342 0.01064 0.26346 0.0
C570 C 0.6431 0.97765 0.35503 0.0
C571 C 0.6384 0.94755 0.31741 0.0
N572 N 0.63051 0.92413 0.21473 0.0
N573 N 0.64639 0.0409 0.3574 0.0
C574 C 0.64347 0.94977 0.25266 0.0
C575 C 0.65172 0.01024 0.32634 0.0
N576 N 0.67617 0.97698 0.17027 0.0
N577 N 0.63956 0.9752 0.41799 0.0
H578 H 0.65124 0.06527 0.33754 0.0
H579 H 0.63348 0.04205 0.40005 0.0
H580 H 0.63159 0.95212 0.43992 0.0
H581 H 0.64648 0.99547 0.44817 0.0
H582 H 0.67786 0.95355 0.14549 0.0
H583 H 0.69053 0.99729 0.15046 0.0
H584 H 0.631 0.92578 0.16638 0.0
H585 H 0.61515 0.90364 0.23193 0.0
C586 C 0.95815 0.33873 0.68981 0.0
C587 C 0.94722 0.3742 0.69269 0.0
C588 C 0.99934 0.38972 0.7531 0.0
C589 C 0.0112 0.3543 0.75014 0.0
N590 N 0.99893 0.29375 0.72208 0.0
N591 N 0.96414 0.43466 0.70546 0.0
C592 C 0.99017 0.3285 0.719 0.0
C593 C 0.96989 0.40004 0.71746 0.0
N594 N 0.93834 0.31508 0.65699 0.0
N595 N 0.01452 0.41352 0.79247 0.0
H596 H 0.9435 0.4435 0.67807 0.0
H597 H 0.98221 0.4543 0.71666 0.0
H598 H 0.03606 0.40849 0.82054 0.0
H599 H 1.00349 0.43793 0.80175 0.0
H600 H 0.94638 0.28993 0.64534 0.0
H601 H 0.91448 0.32142 0.63637 0.0
H602 H 0.98294 0.27332 0.70693 0.0
H603 H 0.02086 0.28407 0.745 0.0
C604 C 0.38003 0.04682 0.34683 0.0
C605 C 0.36146 0.07608 0.32133 0.0
C606 C 0.31909 0.03328 0.27957 0.0
C607 C 0.34401 1.00616 0.28654 0.0
N608 N 0.39967 0.98751 0.32798 0.0
N609 N 0.31382 0.09381 0.2514 0.0
C610 C 0.37517 0.0131 0.32004 0.0
C611 C 0.33072 0.06859 0.28496 0.0
N612 N 0.39967 0.05008 0.39966 0.0
N613 N 0.28495 0.02566 0.26512 0.0
H614 H 0.32453 0.11814 0.24081 0.0
H615 H 0.29146 0.08861 0.22491 0.0
H616 H 0.27576 1.00006 0.25987 0.0
H617 H 0.26534 0.04467 0.26438 0.0
H618 H 0.41192 0.02877 0.42066 0.0
H619 H 0.39865 0.07208 0.42828 0.0
H620 H 0.4243 0.99249 0.34757 0.0
H621 H 0.39594 0.96199 0.31182 0.0
C622 C 0.05939 0.67789 0.68454 0.0
C623 C 0.07274 0.64363 0.69534 0.0
C624 C 0.01479 0.62552 0.73394 0.0
C625 C 1.00414 0.66097 0.73667 0.0
N626 N 1.0083 0.71586 0.682 0.0
N627 N 0.0635 0.58561 0.73754 0.0
C628 C 0.0242 0.68607 0.70283 0.0
C629 C 0.05042 0.61752 0.72124 0.0
N630 N 0.08033 0.70259 0.65695 0.0
N631 N 0.99032 0.59936 0.73734 0.0
H632 H 0.08985 0.57913 0.73245 0.0
H633 H 0.04891 0.56713 0.76237 0.0
H634 H 0.9634 0.60449 0.73652 0.0
H635 H 0.99645 0.57305 0.73042 0.0
H636 H 0.07434 0.72915 0.65568 0.0
H637 H 0.10464 0.69679 0.63709 0.0
H638 H 0.02048 0.73443 0.65387 0.0
H639 H 0.9812 0.71955 0.68502 0.0
C640 C 0.24145 0.54595 0.48432 0.0
C641 C 0.24078 0.53491 0.5468 0.0
C642 C 0.24724 0.47399 0.51281 0.0
C643 C 0.23895 0.48432 0.45125 0.0
N644 N 0.22999 0.53127 0.37696 0.0
N645 N 0.2466 0.4892 0.62249 0.0
C646 C 0.23766 0.52068 0.43601 0.0
C647 C 0.24566 0.49915 0.56162 0.0
N648 N 0.24478 0.58085 0.47182 0.0
N649 N 0.25605 0.43994 0.5242 0.0
H650 H 0.24756 0.50745 0.6586 0.0
H651 H 0.24542 0.46324 0.63714 0.0
H652 H 0.25769 0.42135 0.48866 0.0
H653 H 0.26469 0.43092 0.56715 0.0
H654 H 0.2482 0.591 0.42733 0.0
H655 H 0.2477 0.59927 0.50737 0.0
H656 H 0.22351 0.55694 0.36558 0.0
H657 H 0.22869 0.51444 0.33908 0.0
C658 C 0.47168 0.78494 0.48984 0.0
C659 C 0.4785 0.78245 0.55441 0.0
C660 C 0.54129 0.7749 0.53321 0.0
C661 C 0.53521 0.78294 0.46996 0.0
N662 N 0.49339 0.7788 0.38472 0.0
N663 N 0.51621 0.75547 0.6308 0.0
C664 C 0.50001 0.78225 0.44687 0.0
C665 C 0.51222 0.7712 0.57439 0.0
N666 N 0.43804 0.79051 0.46996 0.0
N667 N 0.57494 0.77051 0.55349 0.0
H668 H 0.49484 0.74755 0.65767 0.0
H669 H 0.53999 0.74542 0.64658 0.0
H670 H 0.59586 0.76842 0.52238 0.0
H671 H 0.58189 0.76941 0.60025 0.0
H672 H 0.43156 0.79827 0.42505 0.0
H673 H 0.41652 0.78814 0.49982 0.0
H674 H 0.46824 0.77599 0.36626 0.0
H675 H 0.51267 0.77444 0.35147 0.0
C676 C 0.78217 0.4701 0.47921 0.0
C677 C 0.7771 0.47893 0.54229 0.0
C678 C 0.76993 0.5406 0.51407 0.0
C679 C 0.77959 0.53237 0.45197 0.0
N680 N 0.78208 0.48823 0.3716 0.0
N681 N 0.75125 0.51861 0.61521 0.0
C682 C 0.78109 0.49668 0.43313 0.0
C683 C 0.7657 0.51296 0.5581 0.0
N684 N 0.78988 0.4363 0.46435 0.0
N685 N 0.76637 0.57483 0.53132 0.0
H686 H 0.74826 0.49833 0.64731 0.0
H687 H 0.73992 0.54226 0.62848 0.0
H688 H 0.76778 0.59529 0.49925 0.0
H689 H 0.76324 0.58288 0.57724 0.0
H690 H 0.79906 0.42821 0.42112 0.0
H691 H 0.7878 0.41657 0.4975 0.0
H692 H 0.78086 0.46271 0.35463 0.0
H693 H 0.78041 0.50699 0.33704 0.0
C694 C 0.47956 0.25155 0.51416 0.0
C695 C 0.48824 0.23911 0.45407 0.0
C696 C 0.55054 0.23796 0.48197 0.0
C697 C 0.54084 0.24282 0.545 0.0
N698 N 0.50138 0.27344 0.61316 0.0
N699 N 0.53196 0.23378 0.37405 0.0
C700 C 0.5069 0.25588 0.55891 0.0
C701 C 0.52395 0.23696 0.43563 0.0
N702 N 0.44525 0.25809 0.52862 0.0
N703 N 0.58524 0.23347 0.46777 0.0
H704 H 0.51272 0.23578 0.33984 0.0
H705 H 0.55734 0.232 0.3563 0.0
H706 H 0.60468 0.23717 0.50135 0.0
H707 H 0.59482 0.22672 0.42413 0.0
H708 H 0.43649 0.26345 0.57348 0.0
H709 H 0.4253 0.25665 0.49538 0.0
H710 H 0.47763 0.28524 0.62483 0.0
H711 H 0.52207 0.27996 0.64283 0.0
C712 C 0.74564 0.04573 0.99234 0.0
C713 C 0.7421 0.03527 0.05494 0.0
C714 C 0.74452 0.97371 0.02381 0.0
C715 C 0.73979 0.98427 0.96134 0.0
N716 N 0.74209 0.02931 0.8834 0.0
N717 N 0.75788 0.99106 0.12979 0.0
C718 C 0.74332 0.02004 0.9446 0.0
C719 C 0.74811 0.99975 0.07081 0.0
N720 N 0.75193 0.08021 0.97962 0.0
N721 N 0.74321 0.93892 0.03832 0.0
H722 H 0.76282 0.00976 0.16397 0.0
H723 H 0.76481 0.96581 0.14306 0.0
H724 H 0.74241 0.91953 1.00413 0.0
H725 H 0.74165 0.92942 0.08357 0.0
H726 H 0.75708 0.08993 0.93538 0.0
H727 H 0.75444 0.09877 0.01511 0.0
H728 H 0.74013 0.05502 0.86785 0.0
H729 H 0.74262 0.0107 0.84788 0.0
C730 C 0.97073 0.27862 0.98935 0.0
C731 C 0.98259 0.27841 0.05133 0.0
C732 C 0.04289 0.26903 0.01497 0.0
C733 C 0.03227 0.27826 0.95393 0.0
N734 N 0.98472 0.29181 0.88279 0.0
N735 N 0.02911 0.27054 0.12528 0.0
C736 C 0.99567 0.28193 0.94045 0.0
C737 C 0.01839 0.27188 0.0648 0.0
N738 N 0.93541 0.27705 0.97779 0.0
N739 N 0.07663 0.25824 0.02492 0.0
H740 H 0.01127 0.27103 0.16219 0.0
H741 H 0.05541 0.27017 0.1388 0.0
H742 H 0.09468 0.25565 0.98861 0.0
H743 H 0.08564 0.24885 0.06739 0.0
H744 H 0.9248 0.27416 0.93347 0.0
H745 H 0.91695 0.27509 0.01361 0.0
H746 H 0.95915 0.29974 0.87292 0.0
H747 H 1.0015 0.2941 0.84517 0.0
C748 C 0.27364 1.00208 0.95292 0.0
C749 C 0.28123 0.03755 0.96806 0.0
C750 C 0.29077 0.02248 0.07552 0.0
C751 C 0.28813 0.98632 0.06094 0.0
N752 N 0.27365 0.94102 0.98716 0.0
N753 N 0.2734 0.0808 0.04646 0.0
C754 C 0.27774 0.97587 1.00006 0.0
C755 C 0.28161 0.04736 0.03058 0.0
N756 N 0.26158 0.99388 0.89496 0.0
N757 N 0.30638 0.03351 0.12883 0.0
H758 H 0.26363 0.09787 0.01288 0.0
H759 H 0.2715 0.08917 0.09252 0.0
H760 H 0.31688 0.01611 0.16041 0.0
H761 H 0.31309 0.05966 0.13654 0.0
H762 H 0.2546 0.96876 0.88075 0.0
H763 H 0.25564 0.01296 0.86218 0.0
H764 H 0.26935 0.93089 0.94294 0.0
H765 H 0.27528 0.92182 0.02151 0.0
C766 C 0.97086 0.73831 0.02073 0.0
C767 C 0.98184 0.74223 0.95862 0.0
C768 C 0.04291 0.74743 0.99427 0.0
C769 C 0.03266 0.73395 0.05294 0.0
N770 N 0.9857 0.71659 0.12242 0.0
N771 N 0.02802 0.75332 0.885 0.0
C772 C 0.99619 0.73038 0.06703 0.0
C773 C 0.0178 0.74852 0.94518 0.0
N774 N 0.9359 0.74066 0.03438 0.0
N775 N 0.07653 0.7592 0.98592 0.0
H776 H 0.00976 0.7556 0.84901 0.0
H777 H 0.05424 0.75373 0.87086 0.0
H778 H 0.09492 0.7592 0.02199 0.0
H779 H 0.08509 0.77162 0.94556 0.0
H780 H 0.92594 0.74045 0.07949 0.0
H781 H 0.91751 0.74656 1.00004 0.0
H782 H 0.95984 0.7093 0.13215 0.0
H783 H 1.00337 0.71013 0.1571 0.0
C784 C 0.16671 0.39179 0.10569 0.0
C785 C 0.18868 0.36816 0.13758 0.0
C786 C 0.19542 0.33331 0.04213 0.0
C787 C 0.17311 0.3574 0.00983 0.0
N788 N 0.15157 0.41722 0.00747 0.0
N789 N 0.23036 0.32109 0.13447 0.0
C790 C 0.16316 0.389 0.04057 0.0
C791 C 0.20512 0.3404 0.10517 0.0
N792 N 0.14822 0.41652 0.13773 0.0
N793 N 0.20671 0.30324 0.01431 0.0
H794 H 0.23704 0.32491 0.18101 0.0
H795 H 0.24658 0.30327 0.11173 0.0
H796 H 0.20512 0.29832 0.96706 0.0
H797 H 0.21768 0.28247 0.03877 0.0
H798 H 0.12864 0.43178 0.11756 0.0
H799 H 0.15004 0.41939 0.18563 0.0
H800 H 0.14758 0.44181 0.02732 0.0
H801 H 0.15007 0.41756 0.9593 0.0
C802 C 0.36894 0.82353 0.98967 0.0
C803 C 0.3669 0.86007 1.00281 0.0
C804 C 0.3842 0.87149 0.89405 0.0
C805 C 0.3769 0.8362 0.87795 0.0
N806 N 0.36708 0.77686 0.91379 0.0
N807 N 0.37221 0.9195 0.96316 0.0
C808 C 0.37067 0.81166 0.92666 0.0
C809 C 0.37478 0.88424 0.95393 0.0
N810 N 0.3726 0.80016 0.03732 0.0
N811 N 0.40171 0.8925 0.85277 0.0
H812 H 0.36219 0.93071 1.0031 0.0
H813 H 0.37712 0.93797 0.92881 0.0
H814 H 0.41089 0.88331 0.8101 0.0
H815 H 0.4113 0.91734 0.86373 0.0
H816 H 0.37748 0.7736 0.03062 0.0
H817 H 0.37557 0.80776 0.08354 0.0
H818 H 0.35607 0.75905 0.94497 0.0
H819 H 0.37544 0.76565 0.87246 0.0
C820 C 0.84991 0.68814 0.05399 0.0
C821 C 0.85749 0.65867 0.01612 0.0
C822 C 0.8334 0.62 0.09688 0.0
C823 C 0.83202 0.64872 0.13933 0.0
N824 N 0.83695 0.71108 0.15666 0.0
N825 N 0.85941 0.596 1.00333 0.0
C826 C 0.83973 0.6831 0.11728 0.0
C827 C 0.84995 0.62447 0.03802 0.0
N828 N 0.8511 0.72091 0.02862 0.0
N829 N 0.8179 0.5887 0.11119 0.0
H830 H 0.8704 0.59803 0.95914 0.0
H831 H 0.85896 0.57047 0.02036 0.0
H832 H 0.80269 0.58478 0.15053 0.0
H833 H 0.81575 0.56798 0.07985 0.0
H834 H 0.84258 0.74339 0.05145 0.0
H835 H 0.85796 0.72528 0.98236 0.0
H836 H 0.84695 0.73586 0.14656 0.0
H837 H 0.82537 0.70931 0.20049 0.0
C838 C 0.65898 0.13881 0.94207 0.0
C839 C 0.66117 0.16324 0.99176 0.0
C840 C 0.64968 0.21043 0.9164 0.0
C841 C 0.64435 0.18485 0.86877 0.0
N842 N 0.62907 0.12441 0.84747 0.0
N843 N 0.64822 0.22205 0.02719 0.0
C844 C 0.64421 0.149 0.88524 0.0
C845 C 0.65373 0.19912 0.97939 0.0
N846 N 0.67252 0.10603 0.9475 0.0
N847 N 0.65135 0.24526 0.90253 0.0
H848 H 0.64868 0.21473 0.07375 0.0
H849 H 0.63923 0.24751 0.02043 0.0
H850 H 0.64624 0.25544 0.85878 0.0
H851 H 0.65985 0.26407 0.9344 0.0
H852 H 0.67375 0.08834 0.91055 0.0
H853 H 0.68711 0.09883 0.98575 0.0
H854 H 0.62603 0.09831 0.86073 0.0
H855 H 0.6156 0.13092 0.80704 0.0
C856 C 0.15119 0.64819 0.87975 0.0
C857 C 0.18591 0.63815 0.86516 0.0
C858 C 0.20171 0.64509 0.9754 0.0
C859 C 0.16806 0.66007 0.98701 0.0
N860 N 0.11549 0.68528 0.94393 0.0
N861 N 0.24582 0.62935 0.8984 0.0
C862 C 0.14434 0.6646 0.93707 0.0
C863 C 0.21179 0.63731 0.91278 0.0
N864 N 0.12419 0.63977 0.84076 0.0
N865 N 0.22322 0.63662 0.02383 0.0
H866 H 0.25365 0.62189 0.85389 0.0
H867 H 0.26652 0.6322 0.92972 0.0
H868 H 0.21684 0.64168 0.07005 0.0
H869 H 0.24619 0.62214 0.01849 0.0
H870 H 0.09789 0.64477 0.85129 0.0
H871 H 0.1279 0.62293 0.80322 0.0
H872 H 0.09851 0.69116 0.90738 0.0
H873 H 0.11178 0.70016 0.98383 0.0
C874 C 0.68002 0.83607 0.12532 0.0
C875 C 0.6458 0.83892 0.15158 0.0
C876 C 0.62237 0.85527 0.04927 0.0
C877 C 0.65704 0.85724 0.02554 0.0
N878 N 0.71942 0.8506 0.04008 0.0
N879 N 0.58545 0.85747 0.14025 0.0
C880 C 0.68605 0.84773 0.06325 0.0
C881 C 0.61713 0.84975 0.11384 0.0
N882 N 0.70654 0.82144 0.15926 0.0
N883 N 0.59433 0.85859 0.01001 0.0
H884 H 0.58124 0.85616 0.18776 0.0
H885 H 0.56474 0.86902 0.1163 0.0
H886 H 0.59722 0.86283 0.96245 0.0
H887 H 0.56843 0.85366 0.02342 0.0
H888 H 0.73109 0.81522 0.14092 0.0
H889 H 0.70314 0.81278 0.20479 0.0
H890 H 0.74202 0.84833 0.06706 0.0
H891 H 0.72451 0.85724 0.99397 0.0
C892 C 0.86741 0.39271 0.88354 0.0
C893 C 0.83607 0.37703 0.86105 0.0
C894 C 0.83042 0.34431 0.95874 0.0
C895 C 0.85983 0.36299 0.98341 0.0
N896 N 0.89968 0.41239 0.97327 0.0
N897 N 0.78459 0.34169 0.88004 0.0
C898 C 0.87642 0.38932 0.94699 0.0
C899 C 0.81658 0.35392 0.89955 0.0
N900 N 0.88971 0.40946 0.84367 0.0
N901 N 0.81669 0.31641 0.99029 0.0
H902 H 0.77382 0.3484 0.83711 0.0
H903 H 0.76748 0.32749 0.90833 0.0
H904 H 0.82627 0.30827 0.03312 0.0
H905 H 0.7979 0.29948 0.97163 0.0
H906 H 0.915 0.41743 0.85631 0.0
H907 H 0.88437 0.41199 0.79649 0.0
H908 H 0.9097 0.43407 0.94963 0.0
H909 H 0.90579 0.41246 0.02037 0.0
C910 C 0.32665 0.17636 0.07164 0.0
C911 C 0.35445 0.17438 0.02758 0.0
C912 C 0.3933 0.2049 0.10128 0.0
C913 C 0.36762 0.20047 0.14851 0.0
N914 N 0.30504 0.20297 0.16631 0.0
N915 N 0.41514 0.18701 1.00093 0.0
C916 C 0.33266 0.19239 0.13034 0.0
C917 C 0.388 0.1889 0.0424 0.0
N918 N 0.29505 0.16101 0.05901 0.0
N919 N 0.42076 0.22758 0.11028 0.0
H920 H 0.41216 0.17805 0.95566 0.0
H921 H 0.44118 0.19247 0.0128 0.0
H922 H 0.42205 0.2443 0.14858 0.0
H923 H 0.43897 0.234 0.0759 0.0
H924 H 0.27505 0.15801 0.09171 0.0
H925 H 0.29023 0.14842 0.01712 0.0
H926 H 0.27883 0.20024 0.15303 0.0
H927 H 0.30832 0.21955 0.20443 0.0
C928 C 0.69409 0.89038 0.54097 0.0
C929 C 0.67664 0.85869 0.52507 0.0
C930 C 0.69003 0.83487 0.62816 0.0
C931 C 0.70153 0.86883 0.64751 0.0
N932 N 0.73372 0.91959 0.61234 0.0
N933 N 0.65867 0.80014 0.55162 0.0
C934 C 0.70921 0.89409 0.60101 0.0
C935 C 0.67532 0.83057 0.56787 0.0
N936 N 0.69563 0.91724 0.49921 0.0
N937 N 0.69588 0.80618 0.66463 0.0
H938 H 0.649 0.7957 0.50706 0.0
H939 H 0.65241 0.78031 0.58293 0.0
H940 H 0.71097 0.80685 0.7048 0.0
H941 H 0.69067 0.78057 0.6507 0.0
H942 H 0.70366 0.94253 0.51094 0.0
H943 H 0.68701 0.9147 0.45349 0.0
H944 H 0.74244 0.93731 0.57889 0.0
H945 H 0.74914 0.91973 0.65241 0.0
C946 C 0.89224 0.33683 0.46784 0.0
C947 C 0.85989 0.35154 0.48663 0.0
C948 C 0.83755 0.34619 0.3813 0.0
C949 C 0.86945 0.32921 0.36244 0.0
N950 N 0.9176 0.29343 0.40051 0.0
N951 N 0.7976 0.35338 0.46779 0.0
C952 C 0.894 0.31978 0.40956 0.0
C953 C 0.83108 0.35064 0.44558 0.0
N954 N 0.92152 0.33984 0.50405 0.0
N955 N 0.81439 0.36048 0.34004 0.0
H956 H 0.79224 0.35536 0.51527 0.0
H957 H 0.77553 0.35005 0.43956 0.0
H958 H 0.81847 0.36274 0.29262 0.0
H959 H 0.79243 0.37461 0.35458 0.0
H960 H 0.94624 0.33149 0.48916 0.0
H961 H 0.92167 0.35381 0.54566 0.0
H962 H 0.93458 0.28501 0.43544 0.0
H963 H 0.91644 0.27669 0.36221 0.0
C964 C 0.37289 0.1505 0.64023 0.0
C965 C 0.33656 0.14911 0.65467 0.0
C966 C 0.32411 0.15128 0.54345 0.0
C967 C 0.3599 0.16082 0.53108 0.0
N968 N 0.41552 0.1797 0.57683 0.0
N969 N 0.27677 0.15544 0.61826 0.0
C970 C 0.38352 0.16359 0.58211 0.0
C971 C 0.31177 0.15178 0.60584 0.0
N972 N 0.39737 0.13767 0.68034 0.0
N973 N 0.30246 0.13923 0.49743 0.0
H974 H 0.26693 0.15757 0.6633 0.0
H975 H 0.25829 0.16022 0.58353 0.0
H976 H 0.31116 0.13338 0.45275 0.0
H977 H 0.27708 0.13003 0.50635 0.0
H978 H 0.424 0.13604 0.66886 0.0
H979 H 0.39037 0.12455 0.72092 0.0
H980 H 0.43215 0.18344 0.61487 0.0
H981 H 0.4233 0.19346 0.53749 0.0
C982 C 0.1908 0.66968 0.44997 0.0
C983 C 0.16087 0.66104 0.48635 0.0
C984 C 0.12249 0.68547 0.4059 0.0
C985 C 0.15172 0.68796 0.36452 0.0
N986 N 0.21455 0.6856 0.34902 0.0
N987 N 0.09783 0.65792 0.49744 0.0
C988 C 0.18618 0.68099 0.38727 0.0
C989 C 0.12663 0.66821 0.46391 0.0
N990 N 0.22354 0.66795 0.47604 0.0
N991 N 0.09103 0.70062 0.39159 0.0
H992 H 0.09958 0.64656 0.54127 0.0
H993 H 0.07232 0.6581 0.47975 0.0
H994 H 0.08716 0.71642 0.3531 0.0
H995 H 0.06997 0.70192 0.4225 0.0
H996 H 0.24638 0.67689 0.45447 0.0
H997 H 0.22759 0.65987 0.52174 0.0
H998 H 0.23968 0.67654 0.35916 0.0
H999 H 0.21276 0.69811 0.30608 0.0
C1000 C 0.674 0.18926 0.45534 0.0
C1001 C 0.66499 0.15965 0.49244 0.0
C1002 C 0.68973 0.12132 0.41211 0.0
C1003 C 0.69103 0.14981 0.36977 0.0
N1004 N 0.68737 0.21208 0.35268 0.0
N1005 N 0.65994 0.09637 0.50035 0.0
C1006 C 0.68406 0.18418 0.392 0.0
C1007 C 0.67147 0.12539 0.46911 0.0
N1008 N 0.67322 0.2222 0.48035 0.0
N1009 N 0.70678 0.09065 0.39981 0.0
H1010 H 0.64591 0.09717 0.54172 0.0
H1011 H 0.66171 0.07112 0.48231 0.0
H1012 H 0.72241 0.08649 0.361 0.0
H1013 H 0.70923 0.07069 0.43248 0.0
H1014 H 0.68331 0.24422 0.45797 0.0
H1015 H 0.66456 0.22754 0.52526 0.0
H1016 H 0.67782 0.23697 0.3628 0.0
H1017 H 0.69901 0.21006 0.30891 0.0
C1018 C 0.15941 0.30198 0.59058 0.0
C1019 C 0.14668 0.32578 0.6359 0.0
C1020 C 0.1553 0.37366 0.56357 0.0
C1021 C 0.16284 0.35012 0.51425 0.0
N1022 N 0.16305 0.28918 0.48056 0.0
N1023 N 0.11954 0.38163 0.65374 0.0
C1024 C 0.1625 0.31333 0.52737 0.0
C1025 C 0.14042 0.36069 0.61851 0.0
N1026 N 0.16929 0.26912 0.60765 0.0
N1027 N 0.16422 0.40823 0.5604 0.0
H1028 H 0.1066 0.37232 0.69313 0.0
H1029 H 0.11169 0.4062 0.63805 0.0
H1030 H 0.18016 0.41805 0.52542 0.0
H1031 H 0.1606 0.42548 0.59754 0.0
H1032 H 0.18181 0.25183 0.5774 0.0
H1033 H 0.16775 0.2606 0.65351 0.0
H1034 H 0.16004 0.26241 0.48854 0.0
H1035 H 0.16225 0.29574 0.43371 0.0
C1036 C 0.33411 0.89015 0.48053 0.0
C1037 C 0.34404 0.85631 0.50152 0.0
C1038 C 0.32859 0.8319 0.39862 0.0
C1039 C 0.32012 0.86607 0.37688 0.0
N1040 N 0.30223 0.92479 0.40565 0.0
N1041 N 0.34403 0.79385 0.48484 0.0
C1042 C 0.31906 0.89434 0.42026 0.0
C1043 C 0.33899 0.82681 0.46191 0.0
N1044 N 0.33895 0.91863 0.51827 0.0
N1045 N 0.32658 0.80421 0.35838 0.0
H1046 H 0.35326 0.78917 0.52951 0.0
H1047 H 0.33734 0.77096 0.4613 0.0
H1048 H 0.31451 0.80603 0.31499 0.0
H1049 H 0.3371 0.77961 0.36722 0.0
H1050 H 0.33804 0.94437 0.50238 0.0
H1051 H 0.34557 0.91673 0.56507 0.0
H1052 H 0.29805 0.94503 0.43724 0.0
H1053 H 0.28789 0.92838 0.36525 0.0
C1054 C 0.84553 0.70081 0.60692 0.0
C1055 C 0.8762 0.68966 0.63864 0.0
C1056 C 0.89563 0.66131 0.54229 0.0
C1057 C 0.86177 0.66587 0.5152 0.0
N1058 N 0.80173 0.68547 0.53012 0.0
N1059 N 0.92651 0.65105 0.63817 0.0
C1060 C 0.83585 0.68447 0.54974 0.0
C1061 C 0.90026 0.66764 0.60679 0.0
N1062 N 0.82662 0.72821 0.6296 0.0
N1063 N 0.92394 0.65247 0.5065 0.0
H1064 H 0.92889 0.65226 0.68624 0.0
H1065 H 0.94291 0.63263 0.61726 0.0
H1066 H 0.92284 0.6511 0.45819 0.0
H1067 H 0.94945 0.65138 0.52422 0.0
H1068 H 0.80527 0.73899 0.60612 0.0
H1069 H 0.8357 0.743 0.66706 0.0
H1070 H 0.78165 0.69638 0.55682 0.0
H1071 H 0.79278 0.6721 0.49098 0.0
C1072 C 0.33097 0.30476 0.27927 0.0
C1073 C 0.3406 0.28882 0.33673 0.0
C1074 C 0.29658 0.32482 0.39093 0.0
C1075 C 0.28748 0.34068 0.33371 0.0
N1076 N 0.30302 0.35368 0.22779 0.0
N1077 N 0.33935 0.29087 0.44869 0.0
C1078 C 0.30718 0.33337 0.27947 0.0
C1079 C 0.32548 0.30116 0.39311 0.0
N1080 N 0.3421 0.29117 0.22388 0.0
N1081 N 0.27709 0.33177 0.44285 0.0
H1082 H 0.36125 0.27457 0.45173 0.0
H1083 H 0.33153 0.30117 0.49133 0.0
H1084 H 0.25711 0.35044 0.44349 0.0
H1085 H 0.27952 0.31788 0.48422 0.0
H1086 H 0.33183 0.29882 0.18116 0.0
H1087 H 0.3592 0.2702 0.21983 0.0
H1088 H 0.31924 0.35188 0.18887 0.0
H1089 H 0.28574 0.37478 0.22628 0.0
C1090 C 0.30566 0.68487 0.62981 0.0
C1091 C 0.28286 0.67974 0.68136 0.0
C1092 C 0.31396 0.72588 0.73919 0.0
C1093 C 0.33438 0.73382 0.68565 0.0
N1094 N 0.35166 0.72007 0.58077 0.0
N1095 N 0.26561 0.69464 0.78586 0.0
C1096 C 0.33115 0.71271 0.63132 0.0
C1097 C 0.28754 0.69969 0.73644 0.0
N1098 N 0.3031 0.66268 0.58007 0.0
N1099 N 0.32058 0.74282 0.79391 0.0
H1100 H 0.24979 0.67271 0.78999 0.0
H1101 H 0.26249 0.71236 0.82224 0.0
H1102 H 0.33792 0.76367 0.79731 0.0
H1103 H 0.31088 0.7349 0.8369 0.0
H1104 H 0.31995 0.66302 0.54201 0.0
H1105 H 0.28495 0.64209 0.57855 0.0
H1106 H 0.3486 0.70847 0.53737 0.0
H1107 H 0.37172 0.73875 0.58179 0.0
C1108 C 0.69845 0.7282 0.27628 0.0
C1109 C 0.68329 0.7381 0.33369 0.0
C1110 C 0.71608 0.69099 0.3859 0.0
C1111 C 0.73546 0.68518 0.33028 0.0
N1112 N 0.74522 0.69877 0.22182 0.0
N1113 N 0.6756 0.72838 0.44319 0.0
C1114 C 0.72654 0.70385 0.27527 0.0
C1115 C 0.69116 0.71897 0.38847 0.0
N1116 N 0.68482 0.74097 0.22216 0.0
N1117 N 0.72163 0.66988 0.43616 0.0
H1118 H 0.65565 0.74697 0.44534 0.0
H1119 H 0.68303 0.71882 0.48645 0.0
H1120 H 0.74006 0.64975 0.43614 0.0
H1121 H 0.70648 0.67056 0.47641 0.0
H1122 H 0.69216 0.73219 0.17822 0.0
H1123 H 0.66329 0.7577 0.22121 0.0
H1124 H 0.7439 0.7154 0.18359 0.0
H1125 H 0.7633 0.67875 0.21641 0.0
C1126 C 0.71141 0.33584 0.63352 0.0
C1127 C 0.74141 0.33217 0.67237 0.0
C1128 C 0.71317 0.28259 0.72399 0.0
C1129 C 0.68582 0.28223 0.67912 0.0
N1130 N 0.66126 0.30677 0.58539 0.0
N1131 N 0.77419 0.2946 0.742 0.0
C1132 C 0.68525 0.30865 0.63249 0.0
C1133 C 0.74327 0.3035 0.71402 0.0
N1134 N 0.70825 0.36484 0.59693 0.0
N1135 N 0.71045 0.2632 0.77703 0.0
H1136 H 0.79797 0.30672 0.73215 0.0
H1137 H 0.77711 0.27194 0.76845 0.0
H1138 H 0.68858 0.24785 0.78715 0.0
H1139 H 0.72807 0.26558 0.81394 0.0
H1140 H 0.6855 0.37069 0.57214 0.0
H1141 H 0.7276 0.3843 0.59485 0.0
H1142 H 0.66199 0.32308 0.54667 0.0
H1143 H 0.64221 0.28711 0.58244 0.0
C1144 C 0.78718 0.8144 0.79052 0.0
C1145 C 0.78335 0.8362 0.84318 0.0
C1146 C 0.83197 0.804 0.89257 0.0
C1147 C 0.83084 0.77895 0.84356 0.0
N1148 N 0.79619 0.75492 0.7595 0.0
N1149 N 0.80129 0.85087 0.94728 0.0
C1150 C 0.80521 0.78249 0.79649 0.0
C1151 C 0.80551 0.83071 0.89543 0.0
N1152 N 0.77477 0.82432 0.73393 0.0
N1153 N 0.8581 0.8023 0.93586 0.0
H1154 H 0.78361 0.87169 0.94884 0.0
H1155 H 0.81406 0.84593 0.98913 0.0
H1156 H 0.87728 0.78284 0.93493 0.0
H1157 H 0.86209 0.82138 0.9698 0.0
H1158 H 0.7792 0.80963 0.69375 0.0
H1159 H 0.76473 0.84916 0.7259 0.0
H1160 H 0.77547 0.75616 0.72777 0.0
H1161 H 0.80625 0.72992 0.766 0.0
C1162 C 0.79443 0.19742 0.11355 0.0
C1163 C 0.78601 0.18029 0.17014 0.0
C1164 C 0.82601 0.21966 0.22628 0.0
C1165 C 0.83583 0.2362 0.16933 0.0
N1166 N 0.83582 0.23429 0.05731 0.0
N1167 N 0.8013 0.16833 0.27637 0.0
C1168 C 0.82192 0.2231 0.11241 0.0
C1169 C 0.80449 0.18909 0.22502 0.0
N1170 N 0.77569 0.18962 0.06116 0.0
N1171 N 0.83473 0.23438 0.28215 0.0
H1172 H 0.78603 0.14559 0.27674 0.0
H1173 H 0.81682 0.17146 0.31591 0.0
H1174 H 0.84882 0.25759 0.2867 0.0
H1175 H 0.82467 0.22557 0.3244 0.0
H1176 H 0.77754 0.20407 0.02026 0.0
H1177 H 0.75685 0.16964 0.05978 0.0
H1178 H 0.82893 0.22361 0.01444 0.0
H1179 H 0.85686 0.25189 0.05496 0.0
C1180 C 0.17828 0.20197 0.78529 0.0
C1181 C 0.17334 0.22525 0.836 0.0
C1182 C 0.22 0.19635 0.89401 0.0
C1183 C 0.22716 0.17467 0.84181 0.0
N1184 N 0.20765 0.15032 0.74424 0.0
N1185 N 0.17883 0.23514 0.94547 0.0
C1186 C 0.20424 0.17513 0.78966 0.0
C1187 C 0.19082 0.21934 0.89267 0.0
N1188 N 0.15894 0.20635 0.73244 0.0
N1189 N 0.242 0.19607 0.94394 0.0
H1190 H 0.1572 0.2519 0.9453 0.0
H1191 H 0.18798 0.22892 0.98969 0.0
H1192 H 0.26275 0.17861 0.94701 0.0
H1193 H 0.24081 0.21422 0.98008 0.0
H1194 H 0.16383 0.19334 0.69084 0.0
H1195 H 0.13822 0.22407 0.7298 0.0
H1196 H 0.19025 0.14735 0.70733 0.0
H1197 H 0.22662 0.13073 0.74577 0.0
C1198 C 0.2021 0.78962 0.11156 0.0
C1199 C 0.17948 0.78566 0.16358 0.0
C1200 C 0.20587 0.83827 0.21126 0.0
C1201 C 0.23222 0.83862 0.16427 0.0
N1202 N 0.25503 0.81591 0.06802 0.0
N1203 N 0.15971 0.80563 0.26394 0.0
C1204 C 0.22999 0.8148 0.11359 0.0
C1205 C 0.18085 0.81026 0.21315 0.0
N1206 N 0.19632 0.76959 0.05982 0.0
N1207 N 0.2049 0.86451 0.25454 0.0
H1208 H 0.14009 0.78654 0.26609 0.0
H1209 H 0.16271 0.8194 0.30538 0.0
H1210 H 0.22321 0.88485 0.25614 0.0
H1211 H 0.18428 0.86791 0.28578 0.0
H1212 H 0.20986 0.77274 0.01815 0.0
H1213 H 0.1755 0.75174 0.05682 0.0
H1214 H 0.25786 0.79677 0.03391 0.0
H1215 H 0.27397 0.83573 0.06555 0.0
loop_
_geom_bond_atom_site_label_1
_geom_bond_atom_site_label_2
_geom_bond_distance
_geom_bond_site_symmetry_2
_ccdc_geom_bond_type
Fe0 O2 1.918 . S
Fe0 O5 1.997 . S
Fe0 O6 2.002 . S
Fe0 O11 1.976 . S
Fe0 O14 1.996 . S
Fe1 O2 1.918 . S
Fe1 O9 1.997 . S
Fe1 O12 1.996 . S
Fe1 O16 1.976 . S
Fe1 O19 2.002 . S
O2 Fe0 1.918 . S
O2 Fe1 1.918 . S
O2 Fe3 1.918 . S
Fe3 O2 1.918 . S
Fe3 O4 2.002 . S
Fe3 O13 1.976 . S
Fe3 O17 1.996 . S
Fe3 O20 1.997 . S
O4 Fe3 2.002 . S
O4 C21 1.295 . S
O5 Fe0 1.997 . S
O5 C21 1.235 . S
O6 Fe0 2.002 . S
O6 C7 1.295 . S
C7 O6 1.295 . S
C7 O9 1.235 . S
C8 O13 1.287 . S
C8 O14 1.255 . S
O9 Fe1 1.997 . S
O9 C7 1.235 . S
C10 O16 1.287 . S
C10 O17 1.255 . S
O11 Fe0 1.976 . S
O11 C18 1.287 . S
O12 Fe1 1.996 . S
O12 C18 1.255 . S
O13 Fe3 1.976 . S
O13 C8 1.287 . S
O14 Fe0 1.996 . S
O14 C8 1.255 . S
C15 O19 1.295 . S
C15 O20 1.235 . S
O16 Fe1 1.976 . S
O16 C10 1.287 . S
O17 Fe3 1.996 . S
O17 C10 1.255 . S
C18 O11 1.287 . S
C18 O12 1.255 . S
O19 Fe1 2.002 . S
O19 C15 1.295 . S
O20 Fe3 1.997 . S
O20 C15 1.235 . S
C21 O4 1.295 . S
C21 O5 1.235 . S
Fe22 O24 1.918 . S
Fe22 O27 1.997 . S
Fe22 O28 2.002 . S
Fe22 O33 1.976 . S
Fe22 O36 1.996 . S
Fe23 O24 1.918 . S
Fe23 O31 1.997 . S
Fe23 O34 1.996 . S
Fe23 O38 1.976 . S
Fe23 O41 2.002 . S
O24 Fe22 1.918 . S
O24 Fe23 1.918 . S
O24 Fe25 1.918 . S
Fe25 O24 1.918 . S
Fe25 O26 2.002 . S
Fe25 O35 1.976 . S
Fe25 O39 1.996 . S
Fe25 O42 1.997 . S
O26 Fe25 2.002 . S
O26 C43 1.295 . S
O27 Fe22 1.997 . S
O27 C43 1.235 . S
O28 Fe22 2.002 . S
O28 C29 1.295 . S
C29 O28 1.295 . S
C29 O31 1.235 . S
C30 O35 1.287 . S
C30 O36 1.255 . S
O31 Fe23 1.997 . S
O31 C29 1.235 . S
C32 O38 1.287 . S
C32 O39 1.255 . S
O33 Fe22 1.976 . S
O33 C40 1.287 . S
O34 Fe23 1.996 . S
O34 C40 1.255 . S
O35 Fe25 1.976 . S
O35 C30 1.287 . S
O36 Fe22 1.996 . S
O36 C30 1.255 . S
C37 O41 1.295 . S
C37 O42 1.235 . S
O38 Fe23 1.976 . S
O38 C32 1.287 . S
O39 Fe25 1.996 . S
O39 C32 1.255 . S
C40 O33 1.287 . S
C40 O34 1.255 . S
O41 Fe23 2.002 . S
O41 C37 1.295 . S
O42 Fe25 1.997 . S
O42 C37 1.235 . S
C43 O26 1.295 . S
C43 O27 1.235 . S
Fe44 O46 1.918 . S
Fe44 O49 1.997 . S
Fe44 O50 2.002 . S
Fe44 O55 1.976 . S
Fe44 O58 1.996 . S
Fe45 O46 1.918 . S
Fe45 O53 1.997 . S
Fe45 O56 1.996 . S
Fe45 O60 1.976 . S
Fe45 O63 2.002 . S
O46 Fe44 1.918 . S
O46 Fe45 1.918 . S
O46 Fe47 1.918 . S
Fe47 O46 1.918 . S
Fe47 O48 2.002 . S
Fe47 O57 1.976 . S
Fe47 O61 1.996 . S
Fe47 O64 1.997 . S
O48 Fe47 2.002 . S
O48 C65 1.295 . S
O49 Fe44 1.997 . S
O49 C65 1.235 . S
O50 Fe44 2.002 . S
O50 C51 1.295 . S
C51 O50 1.295 . S
C51 O53 1.235 . S
C52 O57 1.287 . S
C52 O58 1.255 . S
O53 Fe45 1.997 . S
O53 C51 1.235 . S
C54 O60 1.287 . S
C54 O61 1.255 . S
O55 Fe44 1.976 . S
O55 C62 1.287 . S
O56 Fe45 1.996 . S
O56 C62 1.255 . S
O57 Fe47 1.976 . S
O57 C52 1.287 . S
O58 Fe44 1.996 . S
O58 C52 1.255 . S
C59 O63 1.295 . S
C59 O64 1.235 . S
O60 Fe45 1.976 . S
O60 C54 1.287 . S
O61 Fe47 1.996 . S
O61 C54 1.255 . S
C62 O55 1.287 . S
C62 O56 1.255 . S
O63 Fe45 2.002 . S
O63 C59 1.295 . S
O64 Fe47 1.997 . S
O64 C59 1.235 . S
C65 O48 1.295 . S
C65 O49 1.235 . S
Fe66 O68 1.918 . S
Fe66 O71 1.997 . S
Fe66 O72 2.002 . S
Fe66 O77 1.976 . S
Fe66 O80 1.996 . S
Fe67 O68 1.918 . S
Fe67 O75 1.997 . S
Fe67 O78 1.996 . S
Fe67 O82 1.976 . S
Fe67 O85 2.002 . S
O68 Fe66 1.918 . S
O68 Fe67 1.918 . S
O68 Fe69 1.918 . S
Fe69 O68 1.918 . S
Fe69 O70 2.002 . S
Fe69 O79 1.976 . S
Fe69 O83 1.996 . S
Fe69 O86 1.997 . S
O70 Fe69 2.002 . S
O70 C87 1.295 . S
O71 Fe66 1.997 . S
O71 C87 1.235 . S
O72 Fe66 2.002 . S
O72 C73 1.295 . S
C73 O72 1.295 . S
C73 O75 1.235 . S
C74 O79 1.287 . S
C74 O80 1.255 . S
O75 Fe67 1.997 . S
O75 C73 1.235 . S
C76 O82 1.287 . S
C76 O83 1.255 . S
O77 Fe66 1.976 . S
O77 C84 1.287 . S
O78 Fe67 1.996 . S
O78 C84 1.255 . S
O79 Fe69 1.976 . S
O79 C74 1.287 . S
O80 Fe66 1.996 . S
O80 C74 1.255 . S
C81 O85 1.295 . S
C81 O86 1.235 . S
O82 Fe67 1.976 . S
O82 C76 1.287 . S
O83 Fe69 1.996 . S
O83 C76 1.255 . S
C84 O77 1.287 . S
C84 O78 1.255 . S
O85 Fe67 2.002 . S
O85 C81 1.295 . S
O86 Fe69 1.997 . S
O86 C81 1.235 . S
C87 O70 1.295 . S
C87 O71 1.235 . S
Fe88 O90 1.918 . S
Fe88 O93 1.997 . S
Fe88 O94 2.002 . S
Fe88 O99 1.976 . S
Fe88 O102 1.996 . S
Fe89 O90 1.918 . S
Fe89 O97 1.997 . S
Fe89 O100 1.996 . S
Fe89 O104 1.976 . S
Fe89 O107 2.002 . S
O90 Fe88 1.918 . S
O90 Fe89 1.918 . S
O90 Fe91 1.918 . S
Fe91 O90 1.918 . S
Fe91 O92 2.002 . S
Fe91 O101 1.976 . S
Fe91 O105 1.996 . S
Fe91 O108 1.997 . S
O92 Fe91 2.002 . S
O92 C109 1.295 . S
O93 Fe88 1.997 . S
O93 C109 1.235 . S
O94 Fe88 2.002 . S
O94 C95 1.295 . S
C95 O94 1.295 . S
C95 O97 1.235 . S
C96 O101 1.287 . S
C96 O102 1.255 . S
O97 Fe89 1.997 . S
O97 C95 1.235 . S
C98 O104 1.287 . S
C98 O105 1.255 . S
O99 Fe88 1.976 . S
O99 C106 1.287 . S
O100 Fe89 1.996 . S
O100 C106 1.255 . S
O101 Fe91 1.976 . S
O101 C96 1.287 . S
O102 Fe88 1.996 . S
O102 C96 1.255 . S
C103 O107 1.295 . S
C103 O108 1.235 . S
O104 Fe89 1.976 . S
O104 C98 1.287 . S
O105 Fe91 1.996 . S
O105 C98 1.255 . S
C106 O99 1.287 . S
C106 O100 1.255 . S
O107 Fe89 2.002 . S
O107 C103 1.295 . S
O108 Fe91 1.997 . S
O108 C103 1.235 . S
C109 O92 1.295 . S
C109 O93 1.235 . S
Fe110 O112 1.918 . S
Fe110 O115 1.997 . S
Fe110 O116 2.002 . S
Fe110 O121 1.976 . S
Fe110 O124 1.996 . S
Fe111 O112 1.918 . S
Fe111 O119 1.997 . S
Fe111 O122 1.996 . S
Fe111 O126 1.976 . S
Fe111 O129 2.002 . S
O112 Fe110 1.918 . S
O112 Fe111 1.918 . S
O112 Fe113 1.918 . S
Fe113 O112 1.918 . S
Fe113 O114 2.002 . S
Fe113 O123 1.976 . S
Fe113 O127 1.996 . S
Fe113 O130 1.997 . S
O114 Fe113 2.002 . S
O114 C131 1.295 . S
O115 Fe110 1.997 . S
O115 C131 1.235 . S
O116 Fe110 2.002 . S
O116 C117 1.295 . S
C117 O116 1.295 . S
C117 O119 1.235 . S
C118 O123 1.287 . S
C118 O124 1.255 . S
O119 Fe111 1.997 . S
O119 C117 1.235 . S
C120 O126 1.287 . S
C120 O127 1.255 . S
O121 Fe110 1.976 . S
O121 C128 1.287 . S
O122 Fe111 1.996 . S
O122 C128 1.255 . S
O123 Fe113 1.976 . S
O123 C118 1.287 . S
O124 Fe110 1.996 . S
O124 C118 1.255 . S
C125 O129 1.295 . S
C125 O130 1.235 . S
O126 Fe111 1.976 . S
O126 C120 1.287 . S
O127 Fe113 1.996 . S
O127 C120 1.255 . S
C128 O121 1.287 . S
C128 O122 1.255 . S
O129 Fe111 2.002 . S
O129 C125 1.295 . S
O130 Fe113 1.997 . S
O130 C125 1.235 . S
C131 O114 1.295 . S
C131 O115 1.235 . S
Fe132 O134 1.918 . S
Fe132 O137 1.997 . S
Fe132 O138 2.002 . S
Fe132 O143 1.976 . S
Fe132 O146 1.996 . S
Fe133 O134 1.918 . S
Fe133 O141 1.997 . S
Fe133 O144 1.996 . S
Fe133 O148 1.976 . S
Fe133 O151 2.002 . S
O134 Fe132 1.918 . S
O134 Fe133 1.918 . S
O134 Fe135 1.918 . S
Fe135 O134 1.918 . S
Fe135 O136 2.002 . S
Fe135 O145 1.976 . S
Fe135 O149 1.996 . S
Fe135 O152 1.997 . S
O136 Fe135 2.002 . S
O136 C153 1.295 . S
O137 Fe132 1.997 . S
O137 C153 1.235 . S
O138 Fe132 2.002 . S
O138 C139 1.295 . S
C139 O138 1.295 . S
C139 O141 1.235 . S
C140 O145 1.287 . S
C140 O146 1.255 . S
O141 Fe133 1.997 . S
O141 C139 1.235 . S
C142 O148 1.287 . S
C142 O149 1.255 . S
O143 Fe132 1.976 . S
O143 C150 1.287 . S
O144 Fe133 1.996 . S
O144 C150 1.255 . S
O145 Fe135 1.976 . S
O145 C140 1.287 . S
O146 Fe132 1.996 . S
O146 C140 1.255 . S
C147 O151 1.295 . S
C147 O152 1.235 . S
O148 Fe133 1.976 . S
O148 C142 1.287 . S
O149 Fe135 1.996 . S
O149 C142 1.255 . S
C150 O143 1.287 . S
C150 O144 1.255 . S
O151 Fe133 2.002 . S
O151 C147 1.295 . S
O152 Fe135 1.997 . S
O152 C147 1.235 . S
C153 O136 1.295 . S
C153 O137 1.235 . S
Fe154 O156 1.918 . S
Fe154 O159 1.997 . S
Fe154 O160 2.002 . S
Fe154 O165 1.976 . S
Fe154 O168 1.996 . S
Fe155 O156 1.918 . S
Fe155 O163 1.997 . S
Fe155 O166 1.996 . S
Fe155 O170 1.976 . S
Fe155 O173 2.002 . S
O156 Fe154 1.918 . S
O156 Fe155 1.918 . S
O156 Fe157 1.918 . S
Fe157 O156 1.918 . S
Fe157 O158 2.002 . S
Fe157 O167 1.976 . S
Fe157 O171 1.996 . S
Fe157 O174 1.997 . S
O158 Fe157 2.002 . S
O158 C175 1.295 . S
O159 Fe154 1.997 . S
O159 C175 1.235 . S
O160 Fe154 2.002 . S
O160 C161 1.295 . S
C161 O160 1.295 . S
C161 O163 1.235 . S
C162 O167 1.287 . S
C162 O168 1.255 . S
O163 Fe155 1.997 . S
O163 C161 1.235 . S
C164 O170 1.287 . S
C164 O171 1.255 . S
O165 Fe154 1.976 . S
O165 C172 1.287 . S
O166 Fe155 1.996 . S
O166 C172 1.255 . S
O167 Fe157 1.976 . S
O167 C162 1.287 . S
O168 Fe154 1.996 . S
O168 C162 1.255 . S
C169 O173 1.295 . S
C169 O174 1.235 . S
O170 Fe155 1.976 . S
O170 C164 1.287 . S
O171 Fe157 1.996 . S
O171 C164 1.255 . S
C172 O165 1.287 . S
C172 O166 1.255 . S
O173 Fe155 2.002 . S
O173 C169 1.295 . S
O174 Fe157 1.997 . S
O174 C169 1.235 . S
C175 O158 1.295 . S
C175 O159 1.235 . S
Fe176 O178 1.918 . S
Fe176 O181 1.997 . S
Fe176 O182 2.002 . S
Fe176 O187 1.976 . S
Fe176 O190 1.996 . S
Fe177 O178 1.918 . S
Fe177 O185 1.997 . S
Fe177 O188 1.996 . S
Fe177 O192 1.976 . S
Fe177 O195 2.002 . S
O178 Fe176 1.918 . S
O178 Fe177 1.918 . S
O178 Fe179 1.918 . S
Fe179 O178 1.918 . S
Fe179 O180 2.002 . S
Fe179 O189 1.976 . S
Fe179 O193 1.996 . S
Fe179 O196 1.997 . S
O180 Fe179 2.002 . S
O180 C197 1.295 . S
O181 Fe176 1.997 . S
O181 C197 1.235 . S
O182 Fe176 2.002 . S
O182 C183 1.295 . S
C183 O182 1.295 . S
C183 O185 1.235 . S
C184 O189 1.287 . S
C184 O190 1.255 . S
O185 Fe177 1.997 . S
O185 C183 1.235 . S
C186 O192 1.287 . S
C186 O193 1.255 . S
O187 Fe176 1.976 . S
O187 C194 1.287 . S
O188 Fe177 1.996 . S
O188 C194 1.255 . S
O189 Fe179 1.976 . S
O189 C184 1.287 . S
O190 Fe176 1.996 . S
O190 C184 1.255 . S
C191 O195 1.295 . S
C191 O196 1.235 . S
O192 Fe177 1.976 . S
O192 C186 1.287 . S
O193 Fe179 1.996 . S
O193 C186 1.255 . S
C194 O187 1.287 . S
C194 O188 1.255 . S
O195 Fe177 2.002 . S
O195 C191 1.295 . S
O196 Fe179 1.997 . S
O196 C191 1.235 . S
C197 O180 1.295 . S
C197 O181 1.235 . S
Fe198 O200 1.918 . S
Fe198 O203 1.997 . S
Fe198 O204 2.002 . S
Fe198 O209 1.976 . S
Fe198 O212 1.996 . S
Fe199 O200 1.918 . S
Fe199 O207 1.997 . S
Fe199 O210 1.996 . S
Fe199 O214 1.976 . S
Fe199 O217 2.002 . S
O200 Fe198 1.918 . S
O200 Fe199 1.918 . S
O200 Fe201 1.918 . S
Fe201 O200 1.918 . S
Fe201 O202 2.002 . S
Fe201 O211 1.976 . S
Fe201 O215 1.996 . S
Fe201 O218 1.997 . S
O202 Fe201 2.002 . S
O202 C219 1.295 . S
O203 Fe198 1.997 . S
O203 C219 1.235 . S
O204 Fe198 2.002 . S
O204 C205 1.295 . S
C205 O204 1.295 . S
C205 O207 1.235 . S
C206 O211 1.287 . S
C206 O212 1.255 . S
O207 Fe199 1.997 . S
O207 C205 1.235 . S
C208 O214 1.287 . S
C208 O215 1.255 . S
O209 Fe198 1.976 . S
O209 C216 1.287 . S
O210 Fe199 1.996 . S
O210 C216 1.255 . S
O211 Fe201 1.976 . S
O211 C206 1.287 . S
O212 Fe198 1.996 . S
O212 C206 1.255 . S
C213 O217 1.295 . S
C213 O218 1.235 . S
O214 Fe199 1.976 . S
O214 C208 1.287 . S
O215 Fe201 1.996 . S
O215 C208 1.255 . S
C216 O209 1.287 . S
C216 O210 1.255 . S
O217 Fe199 2.002 . S
O217 C213 1.295 . S
O218 Fe201 1.997 . S
O218 C213 1.235 . S
C219 O202 1.295 . S
C219 O203 1.235 . S
Fe220 O222 1.918 . S
Fe220 O225 1.997 . S
Fe220 O226 2.002 . S
Fe220 O231 1.976 . S
Fe220 O234 1.996 . S
Fe221 O222 1.918 . S
Fe221 O229 1.997 . S
Fe221 O232 1.996 . S
Fe221 O236 1.976 . S
Fe221 O239 2.002 . S
O222 Fe220 1.918 . S
O222 Fe221 1.918 . S
O222 Fe223 1.918 . S
Fe223 O222 1.918 . S
Fe223 O224 2.002 . S
Fe223 O233 1.976 . S
Fe223 O237 1.996 . S
Fe223 O240 1.997 . S
O224 Fe223 2.002 . S
O224 C241 1.295 . S
O225 Fe220 1.997 . S
O225 C241 1.235 . S
O226 Fe220 2.002 . S
O226 C227 1.295 . S
C227 O226 1.295 . S
C227 O229 1.235 . S
C228 O233 1.287 . S
C228 O234 1.255 . S
O229 Fe221 1.997 . S
O229 C227 1.235 . S
C230 O236 1.287 . S
C230 O237 1.255 . S
O231 Fe220 1.976 . S
O231 C238 1.287 . S
O232 Fe221 1.996 . S
O232 C238 1.255 . S
O233 Fe223 1.976 . S
O233 C228 1.287 . S
O234 Fe220 1.996 . S
O234 C228 1.255 . S
C235 O239 1.295 . S
C235 O240 1.235 . S
O236 Fe221 1.976 . S
O236 C230 1.287 . S
O237 Fe223 1.996 . S
O237 C230 1.255 . S
C238 O231 1.287 . S
C238 O232 1.255 . S
O239 Fe221 2.002 . S
O239 C235 1.295 . S
O240 Fe223 1.997 . S
O240 C235 1.235 . S
C241 O224 1.295 . S
C241 O225 1.235 . S
Fe242 O244 1.918 . S
Fe242 O247 1.997 . S
Fe242 O248 2.002 . S
Fe242 O253 1.976 . S
Fe242 O256 1.996 . S
Fe243 O244 1.918 . S
Fe243 O251 1.997 . S
Fe243 O254 1.996 . S
Fe243 O258 1.976 . S
Fe243 O261 2.002 . S
O244 Fe242 1.918 . S
O244 Fe243 1.918 . S
O244 Fe245 1.918 . S
Fe245 O244 1.918 . S
Fe245 O246 2.002 . S
Fe245 O255 1.976 . S
Fe245 O259 1.996 . S
Fe245 O262 1.997 . S
O246 Fe245 2.002 . S
O246 C263 1.295 . S
O247 Fe242 1.997 . S
O247 C263 1.235 . S
O248 Fe242 2.002 . S
O248 C249 1.295 . S
C249 O248 1.295 . S
C249 O251 1.235 . S
C250 O255 1.287 . S
C250 O256 1.255 . S
O251 Fe243 1.997 . S
O251 C249 1.235 . S
C252 O258 1.287 . S
C252 O259 1.255 . S
O253 Fe242 1.976 . S
O253 C260 1.287 . S
O254 Fe243 1.996 . S
O254 C260 1.255 . S
O255 Fe245 1.976 . S
O255 C250 1.287 . S
O256 Fe242 1.996 . S
O256 C250 1.255 . S
C257 O261 1.295 . S
C257 O262 1.235 . S
O258 Fe243 1.976 . S
O258 C252 1.287 . S
O259 Fe245 1.996 . S
O259 C252 1.255 . S
C260 O253 1.287 . S
C260 O254 1.255 . S
O261 Fe243 2.002 . S
O261 C257 1.295 . S
O262 Fe245 1.997 . S
O262 C257 1.235 . S
C263 O246 1.295 . S
C263 O247 1.235 . S
Fe264 O266 1.918 . S
Fe264 O269 1.997 . S
Fe264 O270 2.002 . S
Fe264 O275 1.976 . S
Fe264 O278 1.996 . S
Fe265 O266 1.918 . S
Fe265 O273 1.997 . S
Fe265 O276 1.996 . S
Fe265 O280 1.976 . S
Fe265 O283 2.002 . S
O266 Fe264 1.918 . S
O266 Fe265 1.918 . S
O266 Fe267 1.918 . S
Fe267 O266 1.918 . S
Fe267 O268 2.002 . S
Fe267 O277 1.976 . S
Fe267 O281 1.996 . S
Fe267 O284 1.997 . S
O268 Fe267 2.002 . S
O268 C285 1.295 . S
O269 Fe264 1.997 . S
O269 C285 1.235 . S
O270 Fe264 2.002 . S
O270 C271 1.295 . S
C271 O270 1.295 . S
C271 O273 1.235 . S
C272 O277 1.287 . S
C272 O278 1.255 . S
O273 Fe265 1.997 . S
O273 C271 1.235 . S
C274 O280 1.287 . S
C274 O281 1.255 . S
O275 Fe264 1.976 . S
O275 C282 1.287 . S
O276 Fe265 1.996 . S
O276 C282 1.255 . S
O277 Fe267 1.976 . S
O277 C272 1.287 . S
O278 Fe264 1.996 . S
O278 C272 1.255 . S
C279 O283 1.295 . S
C279 O284 1.235 . S
O280 Fe265 1.976 . S
O280 C274 1.287 . S
O281 Fe267 1.996 . S
O281 C274 1.255 . S
C282 O275 1.287 . S
C282 O276 1.255 . S
O283 Fe265 2.002 . S
O283 C279 1.295 . S
O284 Fe267 1.997 . S
O284 C279 1.235 . S
C285 O268 1.295 . S
C285 O269 1.235 . S
Fe286 O288 1.918 . S
Fe286 O291 1.997 . S
Fe286 O292 2.002 . S
Fe286 O297 1.976 . S
Fe286 O300 1.996 . S
Fe287 O288 1.918 . S
Fe287 O295 1.997 . S
Fe287 O298 1.996 . S
Fe287 O302 1.976 . S
Fe287 O305 2.002 . S
O288 Fe286 1.918 . S
O288 Fe287 1.918 . S
O288 Fe289 1.918 . S
Fe289 O288 1.918 . S
Fe289 O290 2.002 . S
Fe289 O299 1.976 . S
Fe289 O303 1.996 . S
Fe289 O306 1.997 . S
O290 Fe289 2.002 . S
O290 C307 1.295 . S
O291 Fe286 1.997 . S
O291 C307 1.235 . S
O292 Fe286 2.002 . S
O292 C293 1.295 . S
C293 O292 1.295 . S
C293 O295 1.235 . S
C294 O299 1.287 . S
C294 O300 1.255 . S
O295 Fe287 1.997 . S
O295 C293 1.235 . S
C296 O302 1.287 . S
C296 O303 1.255 . S
O297 Fe286 1.976 . S
O297 C304 1.287 . S
O298 Fe287 1.996 . S
O298 C304 1.255 . S
O299 Fe289 1.976 . S
O299 C294 1.287 . S
O300 Fe286 1.996 . S
O300 C294 1.255 . S
C301 O305 1.295 . S
C301 O306 1.235 . S
O302 Fe287 1.976 . S
O302 C296 1.287 . S
O303 Fe289 1.996 . S
O303 C296 1.255 . S
C304 O297 1.287 . S
C304 O298 1.255 . S
O305 Fe287 2.002 . S
O305 C301 1.295 . S
O306 Fe289 1.997 . S
O306 C301 1.235 . S
C307 O290 1.295 . S
C307 O291 1.235 . S
Fe308 O310 1.918 . S
Fe308 O313 1.997 . S
Fe308 O314 2.002 . S
Fe308 O319 1.976 . S
Fe308 O322 1.996 . S
Fe309 O310 1.918 . S
Fe309 O317 1.997 . S
Fe309 O320 1.996 . S
Fe309 O324 1.976 . S
Fe309 O327 2.002 . S
O310 Fe308 1.918 . S
O310 Fe309 1.918 . S
O310 Fe311 1.918 . S
Fe311 O310 1.918 . S
Fe311 O312 2.002 . S
Fe311 O321 1.976 . S
Fe311 O325 1.996 . S
Fe311 O328 1.997 . S
O312 Fe311 2.002 . S
O312 C329 1.295 . S
O313 Fe308 1.997 . S
O313 C329 1.235 . S
O314 Fe308 2.002 . S
O314 C315 1.295 . S
C315 O314 1.295 . S
C315 O317 1.235 . S
C316 O321 1.287 . S
C316 O322 1.255 . S
O317 Fe309 1.997 . S
O317 C315 1.235 . S
C318 O324 1.287 . S
C318 O325 1.255 . S
O319 Fe308 1.976 . S
O319 C326 1.287 . S
O320 Fe309 1.996 . S
O320 C326 1.255 . S
O321 Fe311 1.976 . S
O321 C316 1.287 . S
O322 Fe308 1.996 . S
O322 C316 1.255 . S
C323 O327 1.295 . S
C323 O328 1.235 . S
O324 Fe309 1.976 . S
O324 C318 1.287 . S
O325 Fe311 1.996 . S
O325 C318 1.255 . S
C326 O319 1.287 . S
C326 O320 1.255 . S
O327 Fe309 2.002 . S
O327 C323 1.295 . S
O328 Fe311 1.997 . S
O328 C323 1.235 . S
C329 O312 1.295 . S
C329 O313 1.235 . S
Fe330 O332 1.918 . S
Fe330 O335 1.997 . S
Fe330 O336 2.002 . S
Fe330 O341 1.976 . S
Fe330 O344 1.996 . S
Fe331 O332 1.918 . S
Fe331 O339 1.997 . S
Fe331 O342 1.996 . S
Fe331 O346 1.976 . S
Fe331 O349 2.002 . S
O332 Fe330 1.918 . S
O332 Fe331 1.918 . S
O332 Fe333 1.918 . S
Fe333 O332 1.918 . S
Fe333 O334 2.002 . S
Fe333 O343 1.976 . S
Fe333 O347 1.996 . S
Fe333 O350 1.997 . S
O334 Fe333 2.002 . S
O334 C351 1.295 . S
O335 Fe330 1.997 . S
O335 C351 1.235 . S
O336 Fe330 2.002 . S
O336 C337 1.295 . S
C337 O336 1.295 . S
C337 O339 1.235 . S
C338 O343 1.287 . S
C338 O344 1.255 . S
O339 Fe331 1.997 . S
O339 C337 1.235 . S
C340 O346 1.287 . S
C340 O347 1.255 . S
O341 Fe330 1.976 . S
O341 C348 1.287 . S
O342 Fe331 1.996 . S
O342 C348 1.255 . S
O343 Fe333 1.976 . S
O343 C338 1.287 . S
O344 Fe330 1.996 . S
O344 C338 1.255 . S
C345 O349 1.295 . S
C345 O350 1.235 . S
O346 Fe331 1.976 . S
O346 C340 1.287 . S
O347 Fe333 1.996 . S
O347 C340 1.255 . S
C348 O341 1.287 . S
C348 O342 1.255 . S
O349 Fe331 2.002 . S
O349 C345 1.295 . S
O350 Fe333 1.997 . S
O350 C345 1.235 . S
C351 O334 1.295 . S
C351 O335 1.235 . S
C352 C353 1.363 . S
C352 C358 1.379 . S
C352 N360 1.356 . S
C353 C352 1.363 . S
C353 C359 1.363 . S
C354 C355 1.363 . S
C354 C359 1.379 . S
C354 N361 1.356 . S
C355 C354 1.363 . S
C355 C358 1.363 . S
N356 C358 1.356 . S
N356 H368 0.984 . S
N356 H369 0.985 . S
N357 C359 1.356 . S
N357 H362 0.984 . S
N357 H363 0.985 . S
C358 C352 1.379 . S
C358 C355 1.363 . S
C358 N356 1.356 . S
C359 C353 1.363 . S
C359 C354 1.379 . S
C359 N357 1.356 . S
N360 C352 1.356 . S
N360 H366 0.984 . S
N360 H367 0.984 . S
N361 C354 1.356 . S
N361 H364 0.984 . S
N361 H365 0.985 . S
H362 N357 0.984 . S
H363 N357 0.985 . S
H364 N361 0.984 . S
H365 N361 0.985 . S
H366 N360 0.984 . S
H367 N360 0.984 . S
H368 N356 0.984 . S
H369 N356 0.985 . S
C370 C371 1.363 . S
C370 C376 1.379 . S
C370 N378 1.356 . S
C371 C370 1.363 . S
C371 C377 1.363 . S
C372 C373 1.363 . S
C372 C377 1.379 . S
C372 N379 1.356 . S
C373 C372 1.363 . S
C373 C376 1.363 . S
N374 C376 1.356 . S
N374 H386 0.984 . S
N374 H387 0.985 . S
N375 C377 1.356 . S
N375 H380 0.984 . S
N375 H381 0.985 . S
C376 C370 1.379 . S
C376 C373 1.363 . S
C376 N374 1.356 . S
C377 C371 1.363 . S
C377 C372 1.379 . S
C377 N375 1.356 . S
N378 C370 1.356 . S
N378 H384 0.984 . S
N378 H385 0.984 . S
N379 C372 1.356 . S
N379 H382 0.984 . S
N379 H383 0.985 . S
H380 N375 0.984 . S
H381 N375 0.985 . S
H382 N379 0.984 . S
H383 N379 0.985 . S
H384 N378 0.984 . S
H385 N378 0.984 . S
H386 N374 0.984 . S
H387 N374 0.985 . S
C388 C389 1.363 . S
C388 C394 1.379 . S
C388 N396 1.356 . S
C389 C388 1.363 . S
C389 C395 1.363 . S
C390 C391 1.363 . S
C390 C395 1.379 . S
C390 N397 1.356 . S
C391 C390 1.363 . S
C391 C394 1.363 . S
N392 C394 1.356 . S
N392 H404 0.984 . S
N392 H405 0.985 . S
N393 C395 1.356 . S
N393 H398 0.984 . S
N393 H399 0.985 . S
C394 C388 1.379 . S
C394 C391 1.363 . S
C394 N392 1.356 . S
C395 C389 1.363 . S
C395 C390 1.379 . S
C395 N393 1.356 . S
N396 C388 1.356 . S
N396 H402 0.984 . S
N396 H403 0.984 . S
N397 C390 1.356 . S
N397 H400 0.984 . S
N397 H401 0.985 . S
H398 N393 0.984 . S
H399 N393 0.985 . S
H400 N397 0.984 . S
H401 N397 0.985 . S
H402 N396 0.984 . S
H403 N396 0.984 . S
H404 N392 0.984 . S
H405 N392 0.985 . S
C406 C407 1.363 . S
C406 C412 1.379 . S
C406 N414 1.356 . S
C407 C406 1.363 . S
C407 C413 1.363 . S
C408 C409 1.363 . S
C408 C413 1.379 . S
C408 N415 1.356 . S
C409 C408 1.363 . S
C409 C412 1.363 . S
N410 C412 1.356 . S
N410 H422 0.984 . S
N410 H423 0.985 . S
N411 C413 1.356 . S
N411 H416 0.984 . S
N411 H417 0.985 . S
C412 C406 1.379 . S
C412 C409 1.363 . S
C412 N410 1.356 . S
C413 C407 1.363 . S
C413 C408 1.379 . S
C413 N411 1.356 . S
N414 C406 1.356 . S
N414 H420 0.984 . S
N414 H421 0.984 . S
N415 C408 1.356 . S
N415 H418 0.984 . S
N415 H419 0.985 . S
H416 N411 0.984 . S
H417 N411 0.985 . S
H418 N415 0.984 . S
H419 N415 0.985 . S
H420 N414 0.984 . S
H421 N414 0.984 . S
H422 N410 0.984 . S
H423 N410 0.985 . S
C424 C425 1.363 . S
C424 C430 1.379 . S
C424 N432 1.356 . S
C425 C424 1.363 . S
C425 C431 1.363 . S
C426 C427 1.363 . S
C426 C431 1.379 . S
C426 N433 1.356 . S
C427 C426 1.363 . S
C427 C430 1.363 . S
N428 C430 1.356 . S
N428 H440 0.984 . S
N428 H441 0.985 . S
N429 C431 1.356 . S
N429 H434 0.984 . S
N429 H435 0.985 . S
C430 C424 1.379 . S
C430 C427 1.363 . S
C430 N428 1.356 . S
C431 C425 1.363 . S
C431 C426 1.379 . S
C431 N429 1.356 . S
N432 C424 1.356 . S
N432 H438 0.984 . S
N432 H439 0.984 . S
N433 C426 1.356 . S
N433 H436 0.984 . S
N433 H437 0.985 . S
H434 N429 0.984 . S
H435 N429 0.985 . S
H436 N433 0.984 . S
H437 N433 0.985 . S
H438 N432 0.984 . S
H439 N432 0.984 . S
H440 N428 0.984 . S
H441 N428 0.985 . S
C442 C443 1.363 . S
C442 C448 1.379 . S
C442 N450 1.356 . S
C443 C442 1.363 . S
C443 C449 1.363 . S
C444 C445 1.363 . S
C444 C449 1.379 . S
C444 N451 1.356 . S
C445 C444 1.363 . S
C445 C448 1.363 . S
N446 C448 1.356 . S
N446 H458 0.984 . S
N446 H459 0.985 . S
N447 C449 1.356 . S
N447 H452 0.984 . S
N447 H453 0.985 . S
C448 C442 1.379 . S
C448 C445 1.363 . S
C448 N446 1.356 . S
C449 C443 1.363 . S
C449 C444 1.379 . S
C449 N447 1.356 . S
N450 C442 1.356 . S
N450 H456 0.984 . S
N450 H457 0.984 . S
N451 C444 1.356 . S
N451 H454 0.984 . S
N451 H455 0.985 . S
H452 N447 0.984 . S
H453 N447 0.985 . S
H454 N451 0.984 . S
H455 N451 0.985 . S
H456 N450 0.984 . S
H457 N450 0.984 . S
H458 N446 0.984 . S
H459 N446 0.985 . S
C460 C461 1.363 . S
C460 C466 1.379 . S
C460 N468 1.356 . S
C461 C460 1.363 . S
C461 C467 1.363 . S
C462 C463 1.363 . S
C462 C467 1.379 . S
C462 N469 1.356 . S
C463 C462 1.363 . S
C463 C466 1.363 . S
N464 C466 1.356 . S
N464 H476 0.984 . S
N464 H477 0.985 . S
N465 C467 1.356 . S
N465 H470 0.984 . S
N465 H471 0.985 . S
C466 C460 1.379 . S
C466 C463 1.363 . S
C466 N464 1.356 . S
C467 C461 1.363 . S
C467 C462 1.379 . S
C467 N465 1.356 . S
N468 C460 1.356 . S
N468 H474 0.984 . S
N468 H475 0.984 . S
N469 C462 1.356 . S
N469 H472 0.984 . S
N469 H473 0.985 . S
H470 N465 0.984 . S
H471 N465 0.985 . S
H472 N469 0.984 . S
H473 N469 0.985 . S
H474 N468 0.984 . S
H475 N468 0.984 . S
H476 N464 0.984 . S
H477 N464 0.985 . S
C478 C479 1.363 . S
C478 C484 1.379 . S
C478 N486 1.356 . S
C479 C478 1.363 . S
C479 C485 1.363 . S
C480 C481 1.363 . S
C480 C485 1.379 . S
C480 N487 1.356 . S
C481 C480 1.363 . S
C481 C484 1.363 . S
N482 C484 1.356 . S
N482 H494 0.984 . S
N482 H495 0.985 . S
N483 C485 1.356 . S
N483 H488 0.984 . S
N483 H489 0.985 . S
C484 C478 1.379 . S
C484 C481 1.363 . S
C484 N482 1.356 . S
C485 C479 1.363 . S
C485 C480 1.379 . S
C485 N483 1.356 . S
N486 C478 1.356 . S
N486 H492 0.984 . S
N486 H493 0.984 . S
N487 C480 1.356 . S
N487 H490 0.984 . S
N487 H491 0.985 . S
H488 N483 0.984 . S
H489 N483 0.985 . S
H490 N487 0.984 . S
H491 N487 0.985 . S
H492 N486 0.984 . S
H493 N486 0.984 . S
H494 N482 0.984 . S
H495 N482 0.985 . S
C496 C497 1.363 . S
C496 C502 1.379 . S
C496 N504 1.353 1_545 S
C497 C496 1.363 . S
C497 C503 1.363 . S
C498 C499 1.363 . S
C498 C503 1.379 . S
C498 N505 1.356 . S
C499 C498 1.363 . S
C499 C502 1.363 . S
N500 C502 1.356 . S
N500 H512 0.984 . S
N500 H513 0.985 . S
N501 C503 1.356 1_565 S
N501 H506 0.984 . S
N501 H507 0.985 1_565 S
C502 C496 1.379 . S
C502 C499 1.363 . S
C502 N500 1.356 . S
C503 C497 1.363 . S
C503 C498 1.379 . S
C503 N501 1.356 1_545 S
N504 C496 1.353 1_565 S
N504 H510 0.983 1_565 S
N504 H511 0.989 . S
N505 C498 1.356 . S
N505 H508 0.984 . S
N505 H509 0.985 . S
H506 N501 0.984 . S
H507 N501 0.985 1_545 S
H508 N505 0.984 . S
H509 N505 0.985 . S
H510 N504 0.983 1_545 S
H511 N504 0.989 . S
H512 N500 0.984 . S
H513 N500 0.985 . S
C514 C515 1.363 . S
C514 C520 1.379 . S
C514 N522 1.356 . S
C515 C514 1.363 . S
C515 C521 1.363 . S
C516 C517 1.363 . S
C516 C521 1.379 . S
C516 N523 1.356 . S
C517 C516 1.363 . S
C517 C520 1.363 . S
N518 C520 1.356 1_655 S
N518 H530 0.984 . S
N518 H531 0.985 . S
N519 C521 1.356 . S
N519 H524 0.984 . S
N519 H525 0.985 . S
C520 C514 1.379 . S
C520 C517 1.363 . S
C520 N518 1.356 1_455 S
C521 C515 1.363 . S
C521 C516 1.379 . S
C521 N519 1.356 . S
N522 C514 1.356 . S
N522 H528 0.984 . S
N522 H529 0.984 . S
N523 C516 1.356 . S
N523 H526 0.984 1_455 S
N523 H527 0.985 . S
H524 N519 0.984 . S
H525 N519 0.985 . S
H526 N523 0.984 1_655 S
H527 N523 0.985 . S
H528 N522 0.984 . S
H529 N522 0.984 . S
H530 N518 0.984 . S
H531 N518 0.985 . S
C532 C533 1.363 . S
C532 C538 1.379 . S
C532 N540 1.356 . S
C533 C532 1.363 . S
C533 C539 1.363 . S
C534 C535 1.363 . S
C534 C539 1.379 . S
C534 N541 1.356 . S
C535 C534 1.363 . S
C535 C538 1.363 . S
N536 C538 1.356 1_545 S
N536 H548 0.984 . S
N536 H549 0.985 . S
N537 C539 1.356 . S
N537 H542 0.984 . S
N537 H543 0.985 . S
C538 C532 1.379 . S
C538 C535 1.363 . S
C538 N536 1.356 1_565 S
C539 C533 1.363 . S
C539 C534 1.379 . S
C539 N537 1.356 . S
N540 C532 1.356 . S
N540 H546 0.984 . S
N540 H547 0.984 . S
N541 C534 1.356 . S
N541 H544 0.984 1_565 S
N541 H545 0.985 . S
H542 N537 0.984 . S
H543 N537 0.985 . S
H544 N541 0.984 1_545 S
H545 N541 0.985 . S
H546 N540 0.984 . S
H547 N540 0.984 . S
H548 N536 0.984 . S
H549 N536 0.985 . S
C550 C551 1.363 . S
C550 C556 1.379 . S
C550 N558 1.356 1_655 S
C551 C550 1.363 . S
C551 C557 1.363 . S
C552 C553 1.363 . S
C552 C557 1.379 . S
C552 N559 1.356 . S
C553 C552 1.363 . S
C553 C556 1.363 . S
N554 C556 1.356 . S
N554 H566 0.984 . S
N554 H567 0.985 . S
N555 C557 1.356 . S
N555 H560 0.984 1_655 S
N555 H561 0.985 . S
C556 C550 1.379 . S
C556 C553 1.363 . S
C556 N554 1.356 . S
C557 C551 1.363 . S
C557 C552 1.379 . S
C557 N555 1.356 . S
N558 C550 1.356 1_455 S
N558 H564 0.984 . S
N558 H565 0.984 . S
N559 C552 1.356 . S
N559 H562 0.984 . S
N559 H563 0.985 . S
H560 N555 0.984 1_455 S
H561 N555 0.985 . S
H562 N559 0.984 . S
H563 N559 0.985 . S
H564 N558 0.984 . S
H565 N558 0.984 . S
H566 N554 0.984 . S
H567 N554 0.985 . S
C568 C569 1.363 . S
C568 C574 1.379 . S
C568 N576 1.356 . S
C569 C568 1.363 . S
C569 C575 1.363 . S
C570 C571 1.363 . S
C570 C575 1.379 . S
C570 N577 1.356 . S
C571 C570 1.363 . S
C571 C574 1.363 . S
N572 C574 1.356 . S
N572 H584 0.984 . S
N572 H585 0.985 . S
N573 C575 1.356 1_545 S
N573 H578 0.984 . S
N573 H579 0.985 . S
C574 C568 1.379 . S
C574 C571 1.363 . S
C574 N572 1.356 . S
C575 C569 1.363 . S
C575 C570 1.379 . S
C575 N573 1.356 1_565 S
N576 C568 1.356 . S
N576 H582 0.984 . S
N576 H583 0.984 1_565 S
N577 C570 1.356 . S
N577 H580 0.984 . S
N577 H581 0.985 . S
H578 N573 0.984 . S
H579 N573 0.985 . S
H580 N577 0.984 . S
H581 N577 0.985 . S
H582 N576 0.984 . S
H583 N576 0.984 1_545 S
H584 N572 0.984 . S
H585 N572 0.985 . S
C586 C587 1.363 . S
C586 C592 1.379 . S
C586 N594 1.356 . S
C587 C586 1.363 . S
C587 C593 1.363 . S
C588 C589 1.363 . S
C588 C593 1.379 . S
C588 N595 1.356 1_655 S
C589 C588 1.363 . S
C589 C592 1.363 . S
N590 C592 1.356 . S
N590 H602 0.984 . S
N590 H603 0.985 1_655 S
N591 C593 1.356 . S
N591 H596 0.984 . S
N591 H597 0.985 . S
C592 C586 1.379 . S
C592 C589 1.363 . S
C592 N590 1.356 . S
C593 C587 1.363 . S
C593 C588 1.379 . S
C593 N591 1.356 . S
N594 C586 1.356 . S
N594 H600 0.984 . S
N594 H601 0.984 . S
N595 C588 1.356 1_455 S
N595 H598 0.984 . S
N595 H599 0.985 . S
H596 N591 0.984 . S
H597 N591 0.985 . S
H598 N595 0.984 . S
H599 N595 0.985 . S
H600 N594 0.984 . S
H601 N594 0.984 . S
H602 N590 0.984 . S
H603 N590 0.985 1_455 S
C604 C605 1.363 . S
C604 C610 1.379 . S
C604 N612 1.356 . S
C605 C604 1.363 . S
C605 C611 1.363 . S
C606 C607 1.363 . S
C606 C611 1.379 . S
C606 N613 1.356 . S
C607 C606 1.363 . S
C607 C610 1.363 . S
N608 C610 1.356 1_565 S
N608 H620 0.984 . S
N608 H621 0.985 . S
N609 C611 1.356 . S
N609 H614 0.984 . S
N609 H615 0.985 . S
C610 C604 1.379 . S
C610 C607 1.363 . S
C610 N608 1.356 1_545 S
C611 C605 1.363 . S
C611 C606 1.379 . S
C611 N609 1.356 . S
N612 C604 1.356 . S
N612 H618 0.984 . S
N612 H619 0.984 . S
N613 C606 1.356 . S
N613 H616 0.984 1_545 S
N613 H617 0.985 . S
H614 N609 0.984 . S
H615 N609 0.985 . S
H616 N613 0.984 1_565 S
H617 N613 0.985 . S
H618 N612 0.984 . S
H619 N612 0.984 . S
H620 N608 0.984 . S
H621 N608 0.985 . S
C622 C623 1.363 . S
C622 C628 1.379 . S
C622 N630 1.356 . S
C623 C622 1.363 . S
C623 C629 1.363 . S
C624 C625 1.363 . S
C624 C629 1.379 . S
C624 N631 1.356 1_455 S
C625 C624 1.363 . S
C625 C628 1.363 . S
N626 C628 1.356 . S
N626 H638 0.984 . S
N626 H639 0.985 1_455 S
N627 C629 1.356 . S
N627 H632 0.984 . S
N627 H633 0.985 . S
C628 C622 1.379 . S
C628 C625 1.363 . S
C628 N626 1.356 . S
C629 C623 1.363 . S
C629 C624 1.379 . S
C629 N627 1.356 . S
N630 C622 1.356 . S
N630 H636 0.984 . S
N630 H637 0.984 . S
N631 C624 1.356 1_655 S
N631 H634 0.984 . S
N631 H635 0.985 . S
H632 N627 0.984 . S
H633 N627 0.985 . S
H634 N631 0.984 . S
H635 N631 0.985 . S
H636 N630 0.984 . S
H637 N630 0.984 . S
H638 N626 0.984 . S
H639 N626 0.985 1_655 S
C640 C641 1.363 . S
C640 C646 1.379 . S
C640 N648 1.356 . S
C641 C640 1.363 . S
C641 C647 1.363 . S
C642 C643 1.363 . S
C642 C647 1.379 . S
C642 N649 1.356 . S
C643 C642 1.363 . S
C643 C646 1.363 . S
N644 C646 1.356 . S
N644 H656 0.984 . S
N644 H657 0.985 . S
N645 C647 1.356 . S
N645 H650 0.984 . S
N645 H651 0.985 . S
C646 C640 1.379 . S
C646 C643 1.363 . S
C646 N644 1.356 . S
C647 C641 1.363 . S
C647 C642 1.379 . S
C647 N645 1.356 . S
N648 C640 1.356 . S
N648 H654 0.984 . S
N648 H655 0.984 . S
N649 C642 1.356 . S
N649 H652 0.984 . S
N649 H653 0.985 . S
H650 N645 0.984 . S
H651 N645 0.985 . S
H652 N649 0.984 . S
H653 N649 0.985 . S
H654 N648 0.984 . S
H655 N648 0.984 . S
H656 N644 0.984 . S
H657 N644 0.985 . S
C658 C659 1.363 . S
C658 C664 1.379 . S
C658 N666 1.356 . S
C659 C658 1.363 . S
C659 C665 1.363 . S
C660 C661 1.363 . S
C660 C665 1.379 . S
C660 N667 1.356 . S
C661 C660 1.363 . S
C661 C664 1.363 . S
N662 C664 1.356 . S
N662 H674 0.984 . S
N662 H675 0.985 . S
N663 C665 1.356 . S
N663 H668 0.984 . S
N663 H669 0.985 . S
C664 C658 1.379 . S
C664 C661 1.363 . S
C664 N662 1.356 . S
C665 C659 1.363 . S
C665 C660 1.379 . S
C665 N663 1.356 . S
N666 C658 1.356 . S
N666 H672 0.984 . S
N666 H673 0.984 . S
N667 C660 1.356 . S
N667 H670 0.984 . S
N667 H671 0.985 . S
H668 N663 0.984 . S
H669 N663 0.985 . S
H670 N667 0.984 . S
H671 N667 0.985 . S
H672 N666 0.984 . S
H673 N666 0.984 . S
H674 N662 0.984 . S
H675 N662 0.985 . S
C676 C677 1.363 . S
C676 C682 1.379 . S
C676 N684 1.356 . S
C677 C676 1.363 . S
C677 C683 1.363 . S
C678 C679 1.363 . S
C678 C683 1.379 . S
C678 N685 1.356 . S
C679 C678 1.363 . S
C679 C682 1.363 . S
N680 C682 1.356 . S
N680 H692 0.984 . S
N680 H693 0.985 . S
N681 C683 1.356 . S
N681 H686 0.984 . S
N681 H687 0.985 . S
C682 C676 1.379 . S
C682 C679 1.363 . S
C682 N680 1.356 . S
C683 C677 1.363 . S
C683 C678 1.379 . S
C683 N681 1.356 . S
N684 C676 1.356 . S
N684 H690 0.984 . S
N684 H691 0.984 . S
N685 C678 1.356 . S
N685 H688 0.984 . S
N685 H689 0.985 . S
H686 N681 0.984 . S
H687 N681 0.985 . S
H688 N685 0.984 . S
H689 N685 0.985 . S
H690 N684 0.984 . S
H691 N684 0.984 . S
H692 N680 0.984 . S
H693 N680 0.985 . S
C694 C695 1.363 . S
C694 C700 1.379 . S
C694 N702 1.356 . S
C695 C694 1.363 . S
C695 C701 1.363 . S
C696 C697 1.363 . S
C696 C701 1.379 . S
C696 N703 1.356 . S
C697 C696 1.363 . S
C697 C700 1.363 . S
N698 C700 1.356 . S
N698 H710 0.984 . S
N698 H711 0.985 . S
N699 C701 1.356 . S
N699 H704 0.984 . S
N699 H705 0.985 . S
C700 C694 1.379 . S
C700 C697 1.363 . S
C700 N698 1.356 . S
C701 C695 1.363 . S
C701 C696 1.379 . S
C701 N699 1.356 . S
N702 C694 1.356 . S
N702 H708 0.984 . S
N702 H709 0.984 . S
N703 C696 1.356 . S
N703 H706 0.984 . S
N703 H707 0.985 . S
H704 N699 0.984 . S
H705 N699 0.985 . S
H706 N703 0.984 . S
H707 N703 0.985 . S
H708 N702 0.984 . S
H709 N702 0.984 . S
H710 N698 0.984 . S
H711 N698 0.985 . S
C712 C713 1.363 1_556 S
C712 C718 1.379 . S
C712 N720 1.358 . S
C713 C712 1.363 1_554 S
C713 C719 1.363 1_545 S
C714 C715 1.363 1_554 S
C714 C719 1.379 . S
C714 N721 1.358 . S
C715 C714 1.363 1_556 S
C715 C718 1.363 1_565 S
N716 C718 1.356 . S
N716 H728 0.984 . S
N716 H729 0.985 1_545 S
N717 C719 1.356 . S
N717 H722 0.984 1_565 S
N717 H723 0.985 . S
C718 C712 1.379 . S
C718 C715 1.363 1_545 S
C718 N716 1.356 . S
C719 C713 1.363 1_565 S
C719 C714 1.379 . S
C719 N717 1.356 . S
N720 C712 1.358 . S
N720 H726 0.995 . S
N720 H727 0.973 1_556 S
N721 C714 1.358 . S
N721 H724 0.973 1_554 S
N721 H725 0.995 . S
H722 N717 0.984 1_545 S
H723 N717 0.985 . S
H724 N721 0.973 1_556 S
H725 N721 0.995 . S
H726 N720 0.995 . S
H727 N720 0.973 1_554 S
H728 N716 0.984 . S
H729 N716 0.985 1_565 S
C730 C731 1.363 . S
C730 C736 1.379 1_554 S
C730 N738 1.356 . S
C731 C730 1.363 . S
C731 C737 1.363 1_655 S
C732 C733 1.363 . S
C732 C737 1.379 1_556 S
C732 N739 1.356 . S
C733 C732 1.363 . S
C733 C736 1.363 1_455 S
N734 C736 1.356 1_455 S
N734 H746 0.984 1_455 S
N734 H747 0.985 . S
N735 C737 1.356 1_655 S
N735 H740 0.984 . S
N735 H741 0.985 1_655 S
C736 C730 1.379 1_556 S
C736 C733 1.363 1_655 S
C736 N734 1.356 1_655 S
C737 C731 1.363 1_455 S
C737 C732 1.379 1_554 S
C737 N735 1.356 1_455 S
N738 C730 1.356 . S
N738 H744 0.995 . S
N738 H745 0.984 . S
N739 C732 1.356 . S
N739 H742 0.984 . S
N739 H743 0.995 . S
H740 N735 0.984 . S
H741 N735 0.985 1_455 S
H742 N739 0.984 . S
H743 N739 0.995 . S
H744 N738 0.995 . S
H745 N738 0.984 . S
H746 N734 0.984 1_655 S
H747 N734 0.985 . S
C748 C749 1.363 1_565 S
C748 C754 1.379 . S
C748 N756 1.356 . S
C749 C748 1.363 1_545 S
C749 C755 1.363 1_556 S
C750 C751 1.363 1_545 S
C750 C755 1.379 . S
C750 N757 1.356 . S
C751 C750 1.363 1_565 S
C751 C754 1.363 1_554 S
N752 C754 1.356 1_554 S
N752 H764 0.984 1_554 S
N752 H765 0.985 . S
N753 C755 1.356 1_556 S
N753 H758 0.984 . S
N753 H759 0.985 1_556 S
C754 C748 1.379 . S
C754 C751 1.363 1_556 S
C754 N752 1.356 1_556 S
C755 C749 1.363 1_554 S
C755 C750 1.379 . S
C755 N753 1.356 1_554 S
N756 C748 1.356 . S
N756 H762 0.984 . S
N756 H763 0.984 1_565 S
N757 C750 1.356 . S
N757 H760 0.984 1_545 S
N757 H761 0.985 . S
H758 N753 0.984 . S
H759 N753 0.985 1_554 S
H760 N757 0.984 1_565 S
H761 N757 0.985 . S
H762 N756 0.984 . S
H763 N756 0.984 1_545 S
H764 N752 0.984 1_556 S
H765 N752 0.985 . S
C766 C767 1.363 . S
C766 C772 1.379 1_556 S
C766 N774 1.356 . S
C767 C766 1.363 . S
C767 C773 1.363 1_655 S
C768 C769 1.363 . S
C768 C773 1.379 1_554 S
C768 N775 1.356 . S
C769 C768 1.363 . S
C769 C772 1.363 1_455 S
N770 C772 1.356 1_455 S
N770 H782 0.984 1_455 S
N770 H783 0.985 . S
N771 C773 1.356 1_655 S
N771 H776 0.984 . S
N771 H777 0.985 1_655 S
C772 C766 1.379 1_554 S
C772 C769 1.363 1_655 S
C772 N770 1.356 1_655 S
C773 C767 1.363 1_455 S
C773 C768 1.379 1_556 S
C773 N771 1.356 1_455 S
N774 C766 1.356 . S
N774 H780 0.995 . S
N774 H781 0.984 . S
N775 C768 1.356 . S
N775 H778 0.984 . S
N775 H779 0.995 . S
H776 N771 0.984 . S
H777 N771 0.985 1_455 S
H778 N775 0.984 . S
H779 N775 0.995 . S
H780 N774 0.995 . S
H781 N774 0.984 . S
H782 N770 0.984 1_655 S
H783 N770 0.985 . S
C784 C785 1.363 . S
C784 C790 1.379 . S
C784 N792 1.356 . S
C785 C784 1.363 . S
C785 C791 1.363 . S
C786 C787 1.363 . S
C786 C791 1.379 . S
C786 N793 1.356 1_554 S
C787 C786 1.363 . S
C787 C790 1.363 . S
N788 C790 1.356 . S
N788 H800 0.984 . S
N788 H801 0.985 1_554 S
N789 C791 1.356 . S
N789 H794 0.984 . S
N789 H795 0.985 . S
C790 C784 1.379 . S
C790 C787 1.363 . S
C790 N788 1.356 . S
C791 C785 1.363 . S
C791 C786 1.379 . S
C791 N789 1.356 . S
N792 C784 1.356 . S
N792 H798 0.984 . S
N792 H799 0.984 . S
N793 C786 1.356 1_556 S
N793 H796 0.984 . S
N793 H797 0.985 . S
H794 N789 0.984 . S
H795 N789 0.985 . S
H796 N793 0.984 . S
H797 N793 0.985 . S
H798 N792 0.984 . S
H799 N792 0.984 . S
H800 N788 0.984 . S
H801 N788 0.985 1_556 S
C802 C803 1.363 . S
C802 C808 1.379 . S
C802 N810 1.356 1_556 S
C803 C802 1.363 . S
C803 C809 1.363 . S
C804 C805 1.363 . S
C804 C809 1.379 . S
C804 N811 1.356 . S
C805 C804 1.363 . S
C805 C808 1.363 . S
N806 C808 1.356 . S
N806 H818 0.984 . S
N806 H819 0.985 . S
N807 C809 1.356 . S
N807 H812 0.984 1_556 S
N807 H813 0.985 . S
C808 C802 1.379 . S
C808 C805 1.363 . S
C808 N806 1.356 . S
C809 C803 1.363 . S
C809 C804 1.379 . S
C809 N807 1.356 . S
N810 C802 1.356 1_554 S
N810 H816 0.984 . S
N810 H817 0.984 . S
N811 C804 1.356 . S
N811 H814 0.984 . S
N811 H815 0.985 . S
H812 N807 0.984 1_554 S
H813 N807 0.985 . S
H814 N811 0.984 . S
H815 N811 0.985 . S
H816 N810 0.984 . S
H817 N810 0.984 . S
H818 N806 0.984 . S
H819 N806 0.985 . S
C820 C821 1.363 . S
C820 C826 1.379 . S
C820 N828 1.356 . S
C821 C820 1.363 . S
C821 C827 1.363 . S
C822 C823 1.363 . S
C822 C827 1.379 . S
C822 N829 1.356 . S
C823 C822 1.363 . S
C823 C826 1.363 . S
N824 C826 1.356 . S
N824 H836 0.984 . S
N824 H837 0.985 . S
N825 C827 1.356 1_556 S
N825 H830 0.984 . S
N825 H831 0.985 . S
C826 C820 1.379 . S
C826 C823 1.363 . S
C826 N824 1.356 . S
C827 C821 1.363 . S
C827 C822 1.379 . S
C827 N825 1.356 1_554 S
N828 C820 1.356 . S
N828 H834 0.984 . S
N828 H835 0.984 1_554 S
N829 C822 1.356 . S
N829 H832 0.984 . S
N829 H833 0.985 . S
H830 N825 0.984 . S
H831 N825 0.985 . S
H832 N829 0.984 . S
H833 N829 0.985 . S
H834 N828 0.984 . S
H835 N828 0.984 1_556 S
H836 N824 0.984 . S
H837 N824 0.985 . S
C838 C839 1.363 . S
C838 C844 1.379 . S
C838 N846 1.356 . S
C839 C838 1.363 . S
C839 C845 1.363 . S
C840 C841 1.363 . S
C840 C845 1.379 . S
C840 N847 1.356 . S
C841 C840 1.363 . S
C841 C844 1.363 . S
N842 C844 1.356 . S
N842 H854 0.984 . S
N842 H855 0.985 . S
N843 C845 1.356 1_554 S
N843 H848 0.984 . S
N843 H849 0.985 . S
C844 C838 1.379 . S
C844 C841 1.363 . S
C844 N842 1.356 . S
C845 C839 1.363 . S
C845 C840 1.379 . S
C845 N843 1.356 1_556 S
N846 C838 1.356 . S
N846 H852 0.984 . S
N846 H853 0.984 1_556 S
N847 C840 1.356 . S
N847 H850 0.984 . S
N847 H851 0.985 . S
H848 N843 0.984 . S
H849 N843 0.985 . S
H850 N847 0.984 . S
H851 N847 0.985 . S
H852 N846 0.984 . S
H853 N846 0.984 1_554 S
H854 N842 0.984 . S
H855 N842 0.985 . S
C856 C857 1.363 . S
C856 C862 1.379 . S
C856 N864 1.356 . S
C857 C856 1.363 . S
C857 C863 1.363 . S
C858 C859 1.363 . S
C858 C863 1.379 . S
C858 N865 1.356 1_556 S
C859 C858 1.363 . S
C859 C862 1.363 . S
N860 C862 1.356 . S
N860 H872 0.984 . S
N860 H873 0.985 1_556 S
N861 C863 1.356 . S
N861 H866 0.984 . S
N861 H867 0.985 . S
C862 C856 1.379 . S
C862 C859 1.363 . S
C862 N860 1.356 . S
C863 C857 1.363 . S
C863 C858 1.379 . S
C863 N861 1.356 . S
N864 C856 1.356 . S
N864 H870 0.984 . S
N864 H871 0.984 . S
N865 C858 1.356 1_554 S
N865 H868 0.984 . S
N865 H869 0.985 . S
H866 N861 0.984 . S
H867 N861 0.985 . S
H868 N865 0.984 . S
H869 N865 0.985 . S
H870 N864 0.984 . S
H871 N864 0.984 . S
H872 N860 0.984 . S
H873 N860 0.985 1_554 S
C874 C875 1.363 . S
C874 C880 1.379 . S
C874 N882 1.356 . S
C875 C874 1.363 . S
C875 C881 1.363 . S
C876 C877 1.363 . S
C876 C881 1.379 . S
C876 N883 1.356 . S
C877 C876 1.363 . S
C877 C880 1.363 . S
N878 C880 1.356 1_556 S
N878 H890 0.984 . S
N878 H891 0.985 . S
N879 C881 1.356 . S
N879 H884 0.984 . S
N879 H885 0.985 . S
C880 C874 1.379 . S
C880 C877 1.363 . S
C880 N878 1.356 1_554 S
C881 C875 1.363 . S
C881 C876 1.379 . S
C881 N879 1.356 . S
N882 C874 1.356 . S
N882 H888 0.984 . S
N882 H889 0.984 . S
N883 C876 1.356 . S
N883 H886 0.984 1_554 S
N883 H887 0.985 . S
H884 N879 0.984 . S
H885 N879 0.985 . S
H886 N883 0.984 1_556 S
H887 N883 0.985 . S
H888 N882 0.984 . S
H889 N882 0.984 . S
H890 N878 0.984 . S
H891 N878 0.985 . S
C892 C893 1.363 . S
C892 C898 1.379 . S
C892 N900 1.356 . S
C893 C892 1.363 . S
C893 C899 1.363 . S
C894 C895 1.363 . S
C894 C899 1.379 . S
C894 N901 1.356 1_556 S
C895 C894 1.363 . S
C895 C898 1.363 . S
N896 C898 1.356 . S
N896 H908 0.984 . S
N896 H909 0.985 1_556 S
N897 C899 1.356 . S
N897 H902 0.984 . S
N897 H903 0.985 . S
C898 C892 1.379 . S
C898 C895 1.363 . S
C898 N896 1.356 . S
C899 C893 1.363 . S
C899 C894 1.379 . S
C899 N897 1.356 . S
N900 C892 1.356 . S
N900 H906 0.984 . S
N900 H907 0.984 . S
N901 C894 1.356 1_554 S
N901 H904 0.984 . S
N901 H905 0.985 . S
H902 N897 0.984 . S
H903 N897 0.985 . S
H904 N901 0.984 . S
H905 N901 0.985 . S
H906 N900 0.984 . S
H907 N900 0.984 . S
H908 N896 0.984 . S
H909 N896 0.985 1_554 S
C910 C911 1.363 . S
C910 C916 1.379 . S
C910 N918 1.356 . S
C911 C910 1.363 . S
C911 C917 1.363 . S
C912 C913 1.363 . S
C912 C917 1.379 . S
C912 N919 1.356 . S
C913 C912 1.363 . S
C913 C916 1.363 . S
N914 C916 1.356 . S
N914 H926 0.984 . S
N914 H927 0.985 . S
N915 C917 1.356 1_556 S
N915 H920 0.984 . S
N915 H921 0.985 . S
C916 C910 1.379 . S
C916 C913 1.363 . S
C916 N914 1.356 . S
C917 C911 1.363 . S
C917 C912 1.379 . S
C917 N915 1.356 1_554 S
N918 C910 1.356 . S
N918 H924 0.984 . S
N918 H925 0.984 1_554 S
N919 C912 1.356 . S
N919 H922 0.984 . S
N919 H923 0.985 . S
H920 N915 0.984 . S
H921 N915 0.985 . S
H922 N919 0.984 . S
H923 N919 0.985 . S
H924 N918 0.984 . S
H925 N918 0.984 1_556 S
H926 N914 0.984 . S
H927 N914 0.985 . S
C928 C929 1.363 . S
C928 C934 1.379 . S
C928 N936 1.356 . S
C929 C928 1.363 . S
C929 C935 1.363 . S
C930 C931 1.363 . S
C930 C935 1.379 . S
C930 N937 1.356 . S
C931 C930 1.363 . S
C931 C934 1.363 . S
N932 C934 1.356 . S
N932 H944 0.984 . S
N932 H945 0.985 . S
N933 C935 1.356 . S
N933 H938 0.984 . S
N933 H939 0.985 . S
C934 C928 1.379 . S
C934 C931 1.363 . S
C934 N932 1.356 . S
C935 C929 1.363 . S
C935 C930 1.379 . S
C935 N933 1.356 . S
N936 C928 1.356 . S
N936 H942 0.984 . S
N936 H943 0.984 . S
N937 C930 1.356 . S
N937 H940 0.984 . S
N937 H941 0.985 . S
H938 N933 0.984 . S
H939 N933 0.985 . S
H940 N937 0.984 . S
H941 N937 0.985 . S
H942 N936 0.984 . S
H943 N936 0.984 . S
H944 N932 0.984 . S
H945 N932 0.985 . S
C946 C947 1.363 . S
C946 C952 1.379 . S
C946 N954 1.356 . S
C947 C946 1.363 . S
C947 C953 1.363 . S
C948 C949 1.363 . S
C948 C953 1.379 . S
C948 N955 1.356 . S
C949 C948 1.363 . S
C949 C952 1.363 . S
N950 C952 1.356 . S
N950 H962 0.984 . S
N950 H963 0.985 . S
N951 C953 1.356 . S
N951 H956 0.984 . S
N951 H957 0.985 . S
C952 C946 1.379 . S
C952 C949 1.363 . S
C952 N950 1.356 . S
C953 C947 1.363 . S
C953 C948 1.379 . S
C953 N951 1.356 . S
N954 C946 1.356 . S
N954 H960 0.984 . S
N954 H961 0.984 . S
N955 C948 1.356 . S
N955 H958 0.984 . S
N955 H959 0.985 . S
H956 N951 0.984 . S
H957 N951 0.985 . S
H958 N955 0.984 . S
H959 N955 0.985 . S
H960 N954 0.984 . S
H961 N954 0.984 . S
H962 N950 0.984 . S
H963 N950 0.985 . S
C964 C965 1.363 . S
C964 C970 1.379 . S
C964 N972 1.356 . S
C965 C964 1.363 . S
C965 C971 1.363 . S
C966 C967 1.363 . S
C966 C971 1.379 . S
C966 N973 1.356 . S
C967 C966 1.363 . S
C967 C970 1.363 . S
N968 C970 1.356 . S
N968 H980 0.984 . S
N968 H981 0.985 . S
N969 C971 1.356 . S
N969 H974 0.984 . S
N969 H975 0.985 . S
C970 C964 1.379 . S
C970 C967 1.363 . S
C970 N968 1.356 . S
C971 C965 1.363 . S
C971 C966 1.379 . S
C971 N969 1.356 . S
N972 C964 1.356 . S
N972 H978 0.984 . S
N972 H979 0.984 . S
N973 C966 1.356 . S
N973 H976 0.984 . S
N973 H977 0.985 . S
H974 N969 0.984 . S
H975 N969 0.985 . S
H976 N973 0.984 . S
H977 N973 0.985 . S
H978 N972 0.984 . S
H979 N972 0.984 . S
H980 N968 0.984 . S
H981 N968 0.985 . S
C982 C983 1.363 . S
C982 C988 1.379 . S
C982 N990 1.356 . S
C983 C982 1.363 . S
C983 C989 1.363 . S
C984 C985 1.363 . S
C984 C989 1.379 . S
C984 N991 1.356 . S
C985 C984 1.363 . S
C985 C988 1.363 . S
N986 C988 1.356 . S
N986 H998 0.984 . S
N986 H999 0.985 . S
N987 C989 1.356 . S
N987 H992 0.984 . S
N987 H993 0.985 . S
C988 C982 1.379 . S
C988 C985 1.363 . S
C988 N986 1.356 . S
C989 C983 1.363 . S
C989 C984 1.379 . S
C989 N987 1.356 . S
N990 C982 1.356 . S
N990 H996 0.984 . S
N990 H997 0.984 . S
N991 C984 1.356 . S
N991 H994 0.984 . S
N991 H995 0.985 . S
H992 N987 0.984 . S
H993 N987 0.985 . S
H994 N991 0.984 . S
H995 N991 0.985 . S
H996 N990 0.984 . S
H997 N990 0.984 . S
H998 N986 0.984 . S
H999 N986 0.985 . S
C1000 C1001 1.363 . S
C1000 C1006 1.379 . S
C1000 N1008 1.356 . S
C1001 C1000 1.363 . S
C1001 C1007 1.363 . S
C1002 C1003 1.363 . S
C1002 C1007 1.379 . S
C1002 N1009 1.356 . S
C1003 C1002 1.363 . S
C1003 C1006 1.363 . S
N1004 C1006 1.356 . S
N1004 H1016 0.984 . S
N1004 H1017 0.985 . S
N1005 C1007 1.356 . S
N1005 H1010 0.984 . S
N1005 H1011 0.985 . S
C1006 C1000 1.379 . S
C1006 C1003 1.363 . S
C1006 N1004 1.356 . S
C1007 C1001 1.363 . S
C1007 C1002 1.379 . S
C1007 N1005 1.356 . S
N1008 C1000 1.356 . S
N1008 H1014 0.984 . S
N1008 H1015 0.984 . S
N1009 C1002 1.356 . S
N1009 H1012 0.984 . S
N1009 H1013 0.985 . S
H1010 N1005 0.984 . S
H1011 N1005 0.985 . S
H1012 N1009 0.984 . S
H1013 N1009 0.985 . S
H1014 N1008 0.984 . S
H1015 N1008 0.984 . S
H1016 N1004 0.984 . S
H1017 N1004 0.985 . S
C1018 C1019 1.363 . S
C1018 C1024 1.379 . S
C1018 N1026 1.356 . S
C1019 C1018 1.363 . S
C1019 C1025 1.363 . S
C1020 C1021 1.363 . S
C1020 C1025 1.379 . S
C1020 N1027 1.356 . S
C1021 C1020 1.363 . S
C1021 C1024 1.363 . S
N1022 C1024 1.356 . S
N1022 H1034 0.984 . S
N1022 H1035 0.985 . S
N1023 C1025 1.356 . S
N1023 H1028 0.984 . S
N1023 H1029 0.985 . S
C1024 C1018 1.379 . S
C1024 C1021 1.363 . S
C1024 N1022 1.356 . S
C1025 C1019 1.363 . S
C1025 C1020 1.379 . S
C1025 N1023 1.356 . S
N1026 C1018 1.356 . S
N1026 H1032 0.984 . S
N1026 H1033 0.984 . S
N1027 C1020 1.356 . S
N1027 H1030 0.984 . S
N1027 H1031 0.985 . S
H1028 N1023 0.984 . S
H1029 N1023 0.985 . S
H1030 N1027 0.984 . S
H1031 N1027 0.985 . S
H1032 N1026 0.984 . S
H1033 N1026 0.984 . S
H1034 N1022 0.984 . S
H1035 N1022 0.985 . S
C1036 C1037 1.363 . S
C1036 C1042 1.379 . S
C1036 N1044 1.356 . S
C1037 C1036 1.363 . S
C1037 C1043 1.363 . S
C1038 C1039 1.363 . S
C1038 C1043 1.379 . S
C1038 N1045 1.356 . S
C1039 C1038 1.363 . S
C1039 C1042 1.363 . S
N1040 C1042 1.356 . S
N1040 H1052 0.984 . S
N1040 H1053 0.985 . S
N1041 C1043 1.356 . S
N1041 H1046 0.984 . S
N1041 H1047 0.985 . S
C1042 C1036 1.379 . S
C1042 C1039 1.363 . S
C1042 N1040 1.356 . S
C1043 C1037 1.363 . S
C1043 C1038 1.379 . S
C1043 N1041 1.356 . S
N1044 C1036 1.356 . S
N1044 H1050 0.984 . S
N1044 H1051 0.984 . S
N1045 C1038 1.356 . S
N1045 H1048 0.984 . S
N1045 H1049 0.985 . S
H1046 N1041 0.984 . S
H1047 N1041 0.985 . S
H1048 N1045 0.984 . S
H1049 N1045 0.985 . S
H1050 N1044 0.984 . S
H1051 N1044 0.984 . S
H1052 N1040 0.984 . S
H1053 N1040 0.985 . S
C1054 C1055 1.363 . S
C1054 C1060 1.379 . S
C1054 N1062 1.356 . S
C1055 C1054 1.363 . S
C1055 C1061 1.363 . S
C1056 C1057 1.363 . S
C1056 C1061 1.379 . S
C1056 N1063 1.356 . S
C1057 C1056 1.363 . S
C1057 C1060 1.363 . S
N1058 C1060 1.356 . S
N1058 H1070 0.984 . S
N1058 H1071 0.985 . S
N1059 C1061 1.356 . S
N1059 H1064 0.984 . S
N1059 H1065 0.985 . S
C1060 C1054 1.379 . S
C1060 C1057 1.363 . S
C1060 N1058 1.356 . S
C1061 C1055 1.363 . S
C1061 C1056 1.379 . S
C1061 N1059 1.356 . S
N1062 C1054 1.356 . S
N1062 H1068 0.984 . S
N1062 H1069 0.984 . S
N1063 C1056 1.356 . S
N1063 H1066 0.984 . S
N1063 H1067 0.985 . S
H1064 N1059 0.984 . S
H1065 N1059 0.985 . S
H1066 N1063 0.984 . S
H1067 N1063 0.985 . S
H1068 N1062 0.984 . S
H1069 N1062 0.984 . S
H1070 N1058 0.984 . S
H1071 N1058 0.985 . S
C1072 C1073 1.363 . S
C1072 C1078 1.379 . S
C1072 N1080 1.356 . S
C1073 C1072 1.363 . S
C1073 C1079 1.363 . S
C1074 C1075 1.363 . S
C1074 C1079 1.379 . S
C1074 N1081 1.356 . S
C1075 C1074 1.363 . S
C1075 C1078 1.363 . S
N1076 C1078 1.356 . S
N1076 H1088 0.984 . S
N1076 H1089 0.985 . S
N1077 C1079 1.356 . S
N1077 H1082 0.984 . S
N1077 H1083 0.985 . S
C1078 C1072 1.379 . S
C1078 C1075 1.363 . S
C1078 N1076 1.356 . S
C1079 C1073 1.363 . S
C1079 C1074 1.379 . S
C1079 N1077 1.356 . S
N1080 C1072 1.356 . S
N1080 H1086 0.984 . S
N1080 H1087 0.984 . S
N1081 C1074 1.356 . S
N1081 H1084 0.984 . S
N1081 H1085 0.985 . S
H1082 N1077 0.984 . S
H1083 N1077 0.985 . S
H1084 N1081 0.984 . S
H1085 N1081 0.985 . S
H1086 N1080 0.984 . S
H1087 N1080 0.984 . S
H1088 N1076 0.984 . S
H1089 N1076 0.985 . S
C1090 C1091 1.363 . S
C1090 C1096 1.379 . S
C1090 N1098 1.356 . S
C1091 C1090 1.363 . S
C1091 C1097 1.363 . S
C1092 C1093 1.363 . S
C1092 C1097 1.379 . S
C1092 N1099 1.356 . S
C1093 C1092 1.363 . S
C1093 C1096 1.363 . S
N1094 C1096 1.356 . S
N1094 H1106 0.984 . S
N1094 H1107 0.985 . S
N1095 C1097 1.356 . S
N1095 H1100 0.984 . S
N1095 H1101 0.985 . S
C1096 C1090 1.379 . S
C1096 C1093 1.363 . S
C1096 N1094 1.356 . S
C1097 C1091 1.363 . S
C1097 C1092 1.379 . S
C1097 N1095 1.356 . S
N1098 C1090 1.356 . S
N1098 H1104 0.984 . S
N1098 H1105 0.984 . S
N1099 C1092 1.356 . S
N1099 H1102 0.984 . S
N1099 H1103 0.985 . S
H1100 N1095 0.984 . S
H1101 N1095 0.985 . S
H1102 N1099 0.984 . S
H1103 N1099 0.985 . S
H1104 N1098 0.984 . S
H1105 N1098 0.984 . S
H1106 N1094 0.984 . S
H1107 N1094 0.985 . S
C1108 C1109 1.363 . S
C1108 C1114 1.379 . S
C1108 N1116 1.356 . S
C1109 C1108 1.363 . S
C1109 C1115 1.363 . S
C1110 C1111 1.363 . S
C1110 C1115 1.379 . S
C1110 N1117 1.356 . S
C1111 C1110 1.363 . S
C1111 C1114 1.363 . S
N1112 C1114 1.356 . S
N1112 H1124 0.984 . S
N1112 H1125 0.985 . S
N1113 C1115 1.356 . S
N1113 H1118 0.984 . S
N1113 H1119 0.985 . S
C1114 C1108 1.379 . S
C1114 C1111 1.363 . S
C1114 N1112 1.356 . S
C1115 C1109 1.363 . S
C1115 C1110 1.379 . S
C1115 N1113 1.356 . S
N1116 C1108 1.356 . S
N1116 H1122 0.984 . S
N1116 H1123 0.984 . S
N1117 C1110 1.356 . S
N1117 H1120 0.984 . S
N1117 H1121 0.985 . S
H1118 N1113 0.984 . S
H1119 N1113 0.985 . S
H1120 N1117 0.984 . S
H1121 N1117 0.985 . S
H1122 N1116 0.984 . S
H1123 N1116 0.984 . S
H1124 N1112 0.984 . S
H1125 N1112 0.985 . S
C1126 C1127 1.363 . S
C1126 C1132 1.379 . S
C1126 N1134 1.356 . S
C1127 C1126 1.363 . S
C1127 C1133 1.363 . S
C1128 C1129 1.363 . S
C1128 C1133 1.379 . S
C1128 N1135 1.356 . S
C1129 C1128 1.363 . S
C1129 C1132 1.363 . S
N1130 C1132 1.356 . S
N1130 H1142 0.984 . S
N1130 H1143 0.985 . S
N1131 C1133 1.356 . S
N1131 H1136 0.984 . S
N1131 H1137 0.985 . S
C1132 C1126 1.379 . S
C1132 C1129 1.363 . S
C1132 N1130 1.356 . S
C1133 C1127 1.363 . S
C1133 C1128 1.379 . S
C1133 N1131 1.356 . S
N1134 C1126 1.356 . S
N1134 H1140 0.984 . S
N1134 H1141 0.984 . S
N1135 C1128 1.356 . S
N1135 H1138 0.984 . S
N1135 H1139 0.985 . S
H1136 N1131 0.984 . S
H1137 N1131 0.985 . S
H1138 N1135 0.984 . S
H1139 N1135 0.985 . S
H1140 N1134 0.984 . S
H1141 N1134 0.984 . S
H1142 N1130 0.984 . S
H1143 N1130 0.985 . S
C1144 C1145 1.363 . S
C1144 C1150 1.379 . S
C1144 N1152 1.356 . S
C1145 C1144 1.363 . S
C1145 C1151 1.363 . S
C1146 C1147 1.363 . S
C1146 C1151 1.379 . S
C1146 N1153 1.356 . S
C1147 C1146 1.363 . S
C1147 C1150 1.363 . S
N1148 C1150 1.356 . S
N1148 H1160 0.984 . S
N1148 H1161 0.985 . S
N1149 C1151 1.356 . S
N1149 H1154 0.984 . S
N1149 H1155 0.985 . S
C1150 C1144 1.379 . S
C1150 C1147 1.363 . S
C1150 N1148 1.356 . S
C1151 C1145 1.363 . S
C1151 C1146 1.379 . S
C1151 N1149 1.356 . S
N1152 C1144 1.356 . S
N1152 H1158 0.984 . S
N1152 H1159 0.984 . S
N1153 C1146 1.356 . S
N1153 H1156 0.984 . S
N1153 H1157 0.985 . S
H1154 N1149 0.984 . S
H1155 N1149 0.985 . S
H1156 N1153 0.984 . S
H1157 N1153 0.985 . S
H1158 N1152 0.984 . S
H1159 N1152 0.984 . S
H1160 N1148 0.984 . S
H1161 N1148 0.985 . S
C1162 C1163 1.363 . S
C1162 C1168 1.379 . S
C1162 N1170 1.356 . S
C1163 C1162 1.363 . S
C1163 C1169 1.363 . S
C1164 C1165 1.363 . S
C1164 C1169 1.379 . S
C1164 N1171 1.356 . S
C1165 C1164 1.363 . S
C1165 C1168 1.363 . S
N1166 C1168 1.356 . S
N1166 H1178 0.984 . S
N1166 H1179 0.985 . S
N1167 C1169 1.356 . S
N1167 H1172 0.984 . S
N1167 H1173 0.985 . S
C1168 C1162 1.379 . S
C1168 C1165 1.363 . S
C1168 N1166 1.356 . S
C1169 C1163 1.363 . S
C1169 C1164 1.379 . S
C1169 N1167 1.356 . S
N1170 C1162 1.356 . S
N1170 H1176 0.984 . S
N1170 H1177 0.984 . S
N1171 C1164 1.356 . S
N1171 H1174 0.984 . S
N1171 H1175 0.985 . S
H1172 N1167 0.984 . S
H1173 N1167 0.985 . S
H1174 N1171 0.984 . S
H1175 N1171 0.985 . S
H1176 N1170 0.984 . S
H1177 N1170 0.984 . S
H1178 N1166 0.984 . S
H1179 N1166 0.985 . S
C1180 C1181 1.363 . S
C1180 C1186 1.379 . S
C1180 N1188 1.356 . S
C1181 C1180 1.363 . S
C1181 C1187 1.363 . S
C1182 C1183 1.363 . S
C1182 C1187 1.379 . S
C1182 N1189 1.356 . S
C1183 C1182 1.363 . S
C1183 C1186 1.363 . S
N1184 C1186 1.356 . S
N1184 H1196 0.984 . S
N1184 H1197 0.985 . S
N1185 C1187 1.356 . S
N1185 H1190 0.984 . S
N1185 H1191 0.985 . S
C1186 C1180 1.379 . S
C1186 C1183 1.363 . S
C1186 N1184 1.356 . S
C1187 C1181 1.363 . S
C1187 C1182 1.379 . S
C1187 N1185 1.356 . S
N1188 C1180 1.356 . S
N1188 H1194 0.984 . S
N1188 H1195 0.984 . S
N1189 C1182 1.356 . S
N1189 H1192 0.984 . S
N1189 H1193 0.985 . S
H1190 N1185 0.984 . S
H1191 N1185 0.985 . S
H1192 N1189 0.984 . S
H1193 N1189 0.985 . S
H1194 N1188 0.984 . S
H1195 N1188 0.984 . S
H1196 N1184 0.984 . S
H1197 N1184 0.985 . S
C1198 C1199 1.363 . S
C1198 C1204 1.379 . S
C1198 N1206 1.356 . S
C1199 C1198 1.363 . S
C1199 C1205 1.363 . S
C1200 C1201 1.363 . S
C1200 C1205 1.379 . S
C1200 N1207 1.356 . S
C1201 C1200 1.363 . S
C1201 C1204 1.363 . S
N1202 C1204 1.356 . S
N1202 H1214 0.984 . S
N1202 H1215 0.985 . S
N1203 C1205 1.356 . S
N1203 H1208 0.984 . S
N1203 H1209 0.985 . S
C1204 C1198 1.379 . S
C1204 C1201 1.363 . S
C1204 N1202 1.356 . S
C1205 C1199 1.363 . S
C1205 C1200 1.379 . S
C1205 N1203 1.356 . S
N1206 C1198 1.356 . S
N1206 H1212 0.984 . S
N1206 H1213 0.984 . S
N1207 C1200 1.356 . S
N1207 H1210 0.984 . S
N1207 H1211 0.985 . S
H1208 N1203 0.984 . S
H1209 N1203 0.985 . S
H1210 N1207 0.984 . S
H1211 N1207 0.985 . S
H1212 N1206 0.984 . S
H1213 N1206 0.984 . S
H1214 N1202 0.984 . S
H1215 N1202 0.985 . S
C353 C15 1.460 . S
C355 C257 1.475 . S
C371 C37 1.465 . S
C373 C183 1.476 . S
C389 C205 1.475 . S
C391 C65 1.460 . S
C407 C241 1.476 . S
C409 C73 1.465 . S
C425 C103 1.460 . S
C427 C307 1.475 . S
C443 C131 1.465 . S
C445 C323 1.476 . S
C461 C345 1.475 . S
C463 C147 1.460 . S
C479 C285 1.476 . S
C481 C161 1.465 . S
C497 C191 1.460 1_545 S
C499 C81 1.475 . S
C515 C7 1.476 . S
C517 C219 1.465 1_455 S
C533 C43 1.475 . S
C535 C227 1.460 1_565 S
C551 C249 1.465 1_655 S
C553 C59 1.476 . S
C569 C271 1.460 1_565 S
C571 C117 1.475 . S
C587 C139 1.476 . S
C589 C301 1.465 1_655 S
C605 C169 1.475 . S
C607 C329 1.460 1_545 S
C623 C95 1.476 . S
C625 C337 1.465 1_455 S
C641 C98 1.278 . S
C643 C10 1.278 . S
C659 C32 1.248 . S
C661 C118 1.248 . S
C677 C142 1.278 . S
C679 C52 1.278 . S
C695 C172 1.248 . S
C697 C84 1.248 . S
C713 C282 1.278 . S
C715 C186 1.278 . S
C731 C206 1.248 . S
C733 C296 1.248 . S
C749 C238 1.278 . S
C751 C316 1.278 . S
C767 C348 1.248 . S
C769 C260 1.248 . S
C785 C21 1.523 . S
C787 C294 1.547 1_554 S
C803 C318 1.543 1_556 S
C805 C29 1.514 . S
C821 C340 1.547 1_554 S
C823 C51 1.523 . S
C839 C272 1.543 1_556 S
C841 C87 1.514 . S
C857 C109 1.523 . S
C859 C252 1.547 1_556 S
C875 C125 1.514 . S
C877 C194 1.543 1_554 S
C893 C153 1.523 . S
C895 C216 1.547 1_556 S
C911 C228 1.543 1_554 S
C913 C175 1.514 . S
C929 C128 1.547 . S
C931 C197 1.523 . S
C947 C150 1.543 . S
C949 C213 1.514 . S
C965 C235 1.523 . S
C967 C164 1.547 . S
C983 C106 1.543 . S
C985 C263 1.514 . S
C1001 C76 1.547 . S
C1003 C279 1.523 . S
C1019 C293 1.514 . S
C1021 C18 1.543 . S
C1037 C30 1.547 . S
C1039 C315 1.523 . S
C1055 C351 1.514 . S
C1057 C54 1.543 . S
C1073 C162 1.276 . S
C1075 C8 1.270 . S
C1091 C96 1.270 . S
C1093 C40 1.276 . S
C1109 C120 1.276 . S
C1111 C62 1.270 . S
C1127 C140 1.270 . S
C1129 C74 1.276 . S
C1145 C184 1.270 . S
C1147 C338 1.276 . S
C1163 C274 1.270 . S
C1165 C208 1.276 . S
C1181 C304 1.276 . S
C1183 C230 1.270 . S
C1199 C250 1.276 . S
C1201 C326 1.270 . S
