# Generated by pormake.
# Topology unl, (4)-cn, num edge types: 1
# Building blocks:
#     Node 0, Type 0, BuildingBlock: QUQFOY_clean_sbu_3, # of connection points: 4
#     Node 1, Type 0, BuildingBlock: QUQFOY_clean_sbu_3, # of connection points: 4
#     Node 2, Type 0, BuildingBlock: QUQFOY_clean_sbu_3, # of connection points: 4
#     Node 3, Type 0, BuildingBlock: QUQFOY_clean_sbu_3, # of connection points: 4
#     Node 4, Type 0, BuildingBlock: QUQFOY_clean_sbu_3, # of connection points: 4
#     Node 5, Type 0, BuildingBlock: QUQFOY_clean_sbu_3, # of connection points: 4
#     Node 6, Type 0, BuildingBlock: QUQFOY_clean_sbu_3, # of connection points: 4
#     Node 7, Type 0, BuildingBlock: QUQFOY_clean_sbu_3, # of connection points: 4
#     Node 8, Type 0, BuildingBlock: QUQFOY_clean_sbu_3, # of connection points: 4
#     Node 9, Type 0, BuildingBlock: QUQFOY_clean_sbu_3, # of connection points: 4
#     Node 10, Type 0, BuildingBlock: QUQFOY_clean_sbu_3, # of connection points: 4
#     Node 11, Type 0, BuildingBlock: QUQFOY_clean_sbu_3, # of connection points: 4
#     Node 12, Type 0, BuildingBlock: QUQFOY_clean_sbu_3, # of connection points: 4
#     Node 13, Type 0, BuildingBlock: QUQFOY_clean_sbu_3, # of connection points: 4
#     Node 14, Type 0, BuildingBlock: QUQFOY_clean_sbu_3, # of connection points: 4
#     Node 15, Type 0, BuildingBlock: QUQFOY_clean_sbu_3, # of connection points: 4
#     Node 16, Type 0, BuildingBlock: QUQFOY_clean_sbu_3, # of connection points: 4
#     Node 17, Type 0, BuildingBlock: QUQFOY_clean_sbu_3, # of connection points: 4
#     Node 18, Type 0, BuildingBlock: QUQFOY_clean_sbu_3, # of connection points: 4
#     Node 19, Type 0, BuildingBlock: QUQFOY_clean_sbu_3, # of connection points: 4
#     Node 20, Type 0, BuildingBlock: QUQFOY_clean_sbu_3, # of connection points: 4
#     Node 21, Type 0, BuildingBlock: QUQFOY_clean_sbu_3, # of connection points: 4
#     Node 22, Type 0, BuildingBlock: QUQFOY_clean_sbu_3, # of connection points: 4
#     Node 23, Type 0, BuildingBlock: QUQFOY_clean_sbu_3, # of connection points: 4
#     Node 24, Type 0, BuildingBlock: QUQFOY_clean_sbu_3, # of connection points: 4
#     Node 25, Type 0, BuildingBlock: QUQFOY_clean_sbu_3, # of connection points: 4
#     Node 26, Type 0, BuildingBlock: QUQFOY_clean_sbu_3, # of connection points: 4
#     Node 27, Type 0, BuildingBlock: QUQFOY_clean_sbu_3, # of connection points: 4
#     Node 28, Type 0, BuildingBlock: QUQFOY_clean_sbu_3, # of connection points: 4
#     Node 29, Type 0, BuildingBlock: QUQFOY_clean_sbu_3, # of connection points: 4
#     Node 30, Type 0, BuildingBlock: QUQFOY_clean_sbu_3, # of connection points: 4
#     Node 31, Type 0, BuildingBlock: QUQFOY_clean_sbu_3, # of connection points: 4
#     Node 32, Type 0, BuildingBlock: QUQFOY_clean_sbu_3, # of connection points: 4
#     Node 33, Type 0, BuildingBlock: QUQFOY_clean_sbu_3, # of connection points: 4
#     Node 34, Type 0, BuildingBlock: QUQFOY_clean_sbu_3, # of connection points: 4
#     Node 35, Type 0, BuildingBlock: QUQFOY_clean_sbu_3, # of connection points: 4
#     Edge 36, Type (0, 0), BuildingBlock: ZUJKAS_clean_linker_0, # of connection points: 2
#     Edge 37, Type (0, 0), BuildingBlock: ZUJKAS_clean_linker_0, # of connection points: 2
#     Edge 38, Type (0, 0), BuildingBlock: ZUJKAS_clean_linker_0, # of connection points: 2
#     Edge 39, Type (0, 0), BuildingBlock: ZUJKAS_clean_linker_0, # of connection points: 2
#     Edge 40, Type (0, 0), BuildingBlock: ZUJKAS_clean_linker_0, # of connection points: 2
#     Edge 41, Type (0, 0), BuildingBlock: ZUJKAS_clean_linker_0, # of connection points: 2
#     Edge 42, Type (0, 0), BuildingBlock: ZUJKAS_clean_linker_0, # of connection points: 2
#     Edge 43, Type (0, 0), BuildingBlock: ZUJKAS_clean_linker_0, # of connection points: 2
#     Edge 44, Type (0, 0), BuildingBlock: ZUJKAS_clean_linker_0, # of connection points: 2
#     Edge 45, Type (0, 0), BuildingBlock: ZUJKAS_clean_linker_0, # of connection points: 2
#     Edge 46, Type (0, 0), BuildingBlock: ZUJKAS_clean_linker_0, # of connection points: 2
#     Edge 47, Type (0, 0), BuildingBlock: ZUJKAS_clean_linker_0, # of connection points: 2
#     Edge 48, Type (0, 0), BuildingBlock: ZUJKAS_clean_linker_0, # of connection points: 2
#     Edge 49, Type (0, 0), BuildingBlock: ZUJKAS_clean_linker_0, # of connection points: 2
#     Edge 50, Type (0, 0), BuildingBlock: ZUJKAS_clean_linker_0, # of connection points: 2
#     Edge 51, Type (0, 0), BuildingBlock: ZUJKAS_clean_linker_0, # of connection points: 2
#     Edge 52, Type (0, 0), BuildingBlock: ZUJKAS_clean_linker_0, # of connection points: 2
#     Edge 53, Type (0, 0), BuildingBlock: ZUJKAS_clean_linker_0, # of connection points: 2
#     Edge 54, Type (0, 0), BuildingBlock: ZUJKAS_clean_linker_0, # of connection points: 2
#     Edge 55, Type (0, 0), BuildingBlock: ZUJKAS_clean_linker_0, # of connection points: 2
#     Edge 56, Type (0, 0), BuildingBlock: ZUJKAS_clean_linker_0, # of connection points: 2
#     Edge 57, Type (0, 0), BuildingBlock: ZUJKAS_clean_linker_0, # of connection points: 2
#     Edge 58, Type (0, 0), BuildingBlock: ZUJKAS_clean_linker_0, # of connection points: 2
#     Edge 59, Type (0, 0), BuildingBlock: ZUJKAS_clean_linker_0, # of connection points: 2
#     Edge 60, Type (0, 0), BuildingBlock: ZUJKAS_clean_linker_0, # of connection points: 2
#     Edge 61, Type (0, 0), BuildingBlock: ZUJKAS_clean_linker_0, # of connection points: 2
#     Edge 62, Type (0, 0), BuildingBlock: ZUJKAS_clean_linker_0, # of connection points: 2
#     Edge 63, Type (0, 0), BuildingBlock: ZUJKAS_clean_linker_0, # of connection points: 2
#     Edge 64, Type (0, 0), BuildingBlock: ZUJKAS_clean_linker_0, # of connection points: 2
#     Edge 65, Type (0, 0), BuildingBlock: ZUJKAS_clean_linker_0, # of connection points: 2
#     Edge 66, Type (0, 0), BuildingBlock: ZUJKAS_clean_linker_0, # of connection points: 2
#     Edge 67, Type (0, 0), BuildingBlock: ZUJKAS_clean_linker_0, # of connection points: 2
#     Edge 68, Type (0, 0), BuildingBlock: ZUJKAS_clean_linker_0, # of connection points: 2
#     Edge 69, Type (0, 0), BuildingBlock: ZUJKAS_clean_linker_0, # of connection points: 2
#     Edge 70, Type (0, 0), BuildingBlock: ZUJKAS_clean_linker_0, # of connection points: 2
#     Edge 71, Type (0, 0), BuildingBlock: ZUJKAS_clean_linker_0, # of connection points: 2
#     Edge 72, Type (0, 0), BuildingBlock: ZUJKAS_clean_linker_0, # of connection points: 2
#     Edge 73, Type (0, 0), BuildingBlock: ZUJKAS_clean_linker_0, # of connection points: 2
#     Edge 74, Type (0, 0), BuildingBlock: ZUJKAS_clean_linker_0, # of connection points: 2
#     Edge 75, Type (0, 0), BuildingBlock: ZUJKAS_clean_linker_0, # of connection points: 2
#     Edge 76, Type (0, 0), BuildingBlock: ZUJKAS_clean_linker_0, # of connection points: 2
#     Edge 77, Type (0, 0), BuildingBlock: ZUJKAS_clean_linker_0, # of connection points: 2
#     Edge 78, Type (0, 0), BuildingBlock: ZUJKAS_clean_linker_0, # of connection points: 2
#     Edge 79, Type (0, 0), BuildingBlock: ZUJKAS_clean_linker_0, # of connection points: 2
#     Edge 80, Type (0, 0), BuildingBlock: ZUJKAS_clean_linker_0, # of connection points: 2
#     Edge 81, Type (0, 0), BuildingBlock: ZUJKAS_clean_linker_0, # of connection points: 2
#     Edge 82, Type (0, 0), BuildingBlock: ZUJKAS_clean_linker_0, # of connection points: 2
#     Edge 83, Type (0, 0), BuildingBlock: ZUJKAS_clean_linker_0, # of connection points: 2
#     Edge 84, Type (0, 0), BuildingBlock: ZUJKAS_clean_linker_0, # of connection points: 2
#     Edge 85, Type (0, 0), BuildingBlock: ZUJKAS_clean_linker_0, # of connection points: 2
#     Edge 86, Type (0, 0), BuildingBlock: ZUJKAS_clean_linker_0, # of connection points: 2
#     Edge 87, Type (0, 0), BuildingBlock: ZUJKAS_clean_linker_0, # of connection points: 2
#     Edge 88, Type (0, 0), BuildingBlock: ZUJKAS_clean_linker_0, # of connection points: 2
#     Edge 89, Type (0, 0), BuildingBlock: ZUJKAS_clean_linker_0, # of connection points: 2
#     Edge 90, Type (0, 0), BuildingBlock: ZUJKAS_clean_linker_0, # of connection points: 2
#     Edge 91, Type (0, 0), BuildingBlock: ZUJKAS_clean_linker_0, # of connection points: 2
#     Edge 92, Type (0, 0), BuildingBlock: ZUJKAS_clean_linker_0, # of connection points: 2
#     Edge 93, Type (0, 0), BuildingBlock: ZUJKAS_clean_linker_0, # of connection points: 2
#     Edge 94, Type (0, 0), BuildingBlock: ZUJKAS_clean_linker_0, # of connection points: 2
#     Edge 95, Type (0, 0), BuildingBlock: ZUJKAS_clean_linker_0, # of connection points: 2
#     Edge 96, Type (0, 0), BuildingBlock: ZUJKAS_clean_linker_0, # of connection points: 2
#     Edge 97, Type (0, 0), BuildingBlock: ZUJKAS_clean_linker_0, # of connection points: 2
#     Edge 98, Type (0, 0), BuildingBlock: ZUJKAS_clean_linker_0, # of connection points: 2
#     Edge 99, Type (0, 0), BuildingBlock: ZUJKAS_clean_linker_0, # of connection points: 2
#     Edge 100, Type (0, 0), BuildingBlock: ZUJKAS_clean_linker_0, # of connection points: 2
#     Edge 101, Type (0, 0), BuildingBlock: ZUJKAS_clean_linker_0, # of connection points: 2
#     Edge 102, Type (0, 0), BuildingBlock: ZUJKAS_clean_linker_0, # of connection points: 2
#     Edge 103, Type (0, 0), BuildingBlock: ZUJKAS_clean_linker_0, # of connection points: 2
#     Edge 104, Type (0, 0), BuildingBlock: ZUJKAS_clean_linker_0, # of connection points: 2
#     Edge 105, Type (0, 0), BuildingBlock: ZUJKAS_clean_linker_0, # of connection points: 2
#     Edge 106, Type (0, 0), BuildingBlock: ZUJKAS_clean_linker_0, # of connection points: 2
#     Edge 107, Type (0, 0), BuildingBlock: ZUJKAS_clean_linker_0, # of connection points: 2
# Relax obj value: 0.040
# Max RMSD: 0.120
# Mean RMSD: 0.119
data_MOF--net-unl--node1-QUQFOY_clean_sbu_3--edge1-ZUJKAS_clean_linker_0
_symmetry_space_group_name_H-M    P1
_symmetry_Int_Tables_number       1
_symmetry_cell_setting            triclinic
loop_
_symmetry_equiv_pos_as_xyz
'x, y, z'
_cell_length_a     85.91119
_cell_length_b     85.898357
_cell_length_c     53.658539
_cell_angle_alpha  89.981997
_cell_angle_beta   90.004597
_cell_angle_gamma 119.954
loop_
_atom_site_label
_atom_site_type_symbol
_atom_site_fract_x
_atom_site_fract_y
_atom_site_fract_z
_atom_type_partial_charge
C0 C 0.16646 0.05768 0.11015 0.0
O1 O 0.15373 0.05952 0.11888 0.0
Cd2 Cd 0.15666 0.0876 0.13159 0.0
O3 O 0.18236 0.07108 0.10901 0.0
Cd4 Cd 0.19805 0.10336 0.12034 0.0
C5 C 0.1742 0.11074 0.07683 0.0
O6 O 0.18203 0.10277 0.15831 0.0
O7 O 0.19794 0.12858 0.14063 0.0
O8 O 0.22312 0.10196 0.13919 0.0
C9 C 0.18843 0.11965 0.15903 0.0
O10 O 0.16141 0.1041 0.09262 0.0
C11 C 0.23513 0.1148 0.12645 0.0
O12 O 0.18895 0.1111 0.08126 0.0
O13 O 0.22977 0.12166 0.10995 0.0
C14 C 0.93631 0.10528 0.11169 0.0
O15 O 0.93444 0.09074 0.1206 0.0
Cd16 Cd 0.90589 0.06536 0.13122 0.0
O17 O 0.92289 0.10773 0.10997 0.0
Cd18 Cd 0.89059 0.09172 0.1212 0.0
C19 C 0.88256 0.06114 0.0767 0.0
O20 O 0.89032 0.07496 0.15797 0.0
O21 O 0.86478 0.06582 0.13974 0.0
O22 O 0.89089 0.11591 0.14482 0.0
C23 C 0.87343 0.06453 0.15802 0.0
O24 O 0.88947 0.05487 0.09189 0.0
C25 C 0.88058 0.11817 0.1302 0.0
O26 O 0.88212 0.0754 0.08176 0.0
O27 O 0.87547 0.10864 0.11056 0.0
C28 C 0.87798 0.82238 0.10329 0.0
O29 O 0.8917 0.83488 0.11405 0.0
Cd30 Cd 0.91723 0.83252 0.12636 0.0
O31 O 0.87626 0.80686 0.10058 0.0
Cd32 Cd 0.8926 0.79104 0.11308 0.0
C33 C 0.92457 0.81604 0.07137 0.0
O34 O 0.907 0.80659 0.15172 0.0
O35 O 0.91786 0.79147 0.13419 0.0
O36 O 0.86585 0.76577 0.13084 0.0
C37 C 0.91793 0.80073 0.15261 0.0
O38 O 0.92979 0.82861 0.08743 0.0
C39 C 0.8671 0.75386 0.1184 0.0
O40 O 0.91047 0.80092 0.07506 0.0
O41 O 0.87968 0.75937 0.10245 0.0
C42 C 0.05716 0.17314 0.38407 0.0
O43 O 0.05818 0.16053 0.37326 0.0
Cd44 Cd 0.08599 0.16235 0.36186 0.0
O45 O 0.07117 0.18842 0.38734 0.0
Cd46 Cd 0.10349 0.20354 0.37606 0.0
C47 C 0.10879 0.17743 0.41775 0.0
O48 O 0.10263 0.18846 0.33705 0.0
O49 O 0.12829 0.20266 0.3556 0.0
O50 O 0.10296 0.22942 0.35872 0.0
C51 C 0.11935 0.194 0.33667 0.0
O52 O 0.10155 0.16513 0.40131 0.0
C53 C 0.11613 0.24096 0.37149 0.0
O54 O 0.11029 0.19278 0.41427 0.0
O55 O 0.12276 0.23498 0.38745 0.0
C56 C 0.81649 0.88076 0.38637 0.0
O57 O 0.8295 0.89488 0.37711 0.0
Cd58 Cd 0.82794 0.92067 0.36367 0.0
O59 O 0.80094 0.87913 0.38807 0.0
Cd60 Cd 0.78634 0.89689 0.3772 0.0
C61 C 0.81256 0.92887 0.41862 0.0
O62 O 0.80193 0.91054 0.33832 0.0
O63 O 0.78705 0.92197 0.35496 0.0
O64 O 0.76011 0.87041 0.36078 0.0
C65 C 0.79623 0.92157 0.33676 0.0
O66 O 0.82492 0.93402 0.40226 0.0
C67 C 0.7488 0.87232 0.37373 0.0
O68 O 0.79734 0.91484 0.41519 0.0
O69 O 0.75506 0.88523 0.38921 0.0
C70 C 0.10584 0.93691 0.37576 0.0
O71 O 0.09153 0.9357 0.36705 0.0
Cd72 Cd 0.06597 0.90819 0.35365 0.0
O73 O 0.10786 0.92319 0.37636 0.0
Cd74 Cd 0.09082 0.89119 0.36369 0.0
C75 C 0.05938 0.88336 0.40711 0.0
O76 O 0.0755 0.89278 0.32612 0.0
O77 O 0.06555 0.8666 0.34269 0.0
O78 O 0.117 0.89216 0.34451 0.0
C79 C 0.06487 0.87594 0.32491 0.0
O80 O 0.05391 0.8911 0.3921 0.0
C81 C 0.11608 0.87928 0.3573 0.0
O82 O 0.07334 0.88232 0.4022 0.0
O83 O 0.10388 0.87253 0.37382 0.0
C84 C 0.82264 0.94107 0.87694 0.0
O85 O 0.83571 0.94049 0.86684 0.0
Cd86 Cd 0.83478 0.91303 0.8555 0.0
O87 O 0.80745 0.92682 0.87938 0.0
Cd88 Cd 0.7932 0.89469 0.86763 0.0
C89 C 0.81875 0.8897 0.91073 0.0
O90 O 0.80939 0.89602 0.82948 0.0
O91 O 0.79502 0.87026 0.84778 0.0
O92 O 0.76699 0.8942 0.84944 0.0
C93 C 0.80416 0.87935 0.82922 0.0
O94 O 0.83148 0.89719 0.89492 0.0
C95 C 0.75565 0.88121 0.8627 0.0
O96 O 0.80343 0.88803 0.90634 0.0
O97 O 0.76189 0.87507 0.87902 0.0
C98 C 0.05466 0.88119 0.88438 0.0
O99 O 0.05523 0.89464 0.87363 0.0
Cd100 Cd 0.08258 0.92115 0.86253 0.0
O101 O 0.06895 0.8804 0.88763 0.0
Cd102 Cd 0.10126 0.89827 0.87609 0.0
C103 C 0.10592 0.92931 0.9181 0.0
O104 O 0.09951 0.91221 0.83731 0.0
O105 O 0.12555 0.92396 0.85484 0.0
O106 O 0.1013 0.87212 0.85884 0.0
C107 C 0.11617 0.92358 0.83638 0.0
O108 O 0.09791 0.93385 0.90214 0.0
C109 C 0.1145 0.87393 0.87173 0.0
O110 O 0.10828 0.91603 0.91406 0.0
O111 O 0.12099 0.88661 0.88757 0.0
C112 C 0.10961 0.16948 0.88283 0.0
O113 O 0.096 0.1565 0.87256 0.0
Cd114 Cd 0.06932 0.15743 0.86222 0.0
O115 O 0.11036 0.18454 0.88602 0.0
Cd116 Cd 0.09201 0.19859 0.87564 0.0
C117 C 0.062 0.17213 0.91858 0.0
O118 O 0.07734 0.18313 0.83695 0.0
O119 O 0.06554 0.19673 0.85633 0.0
O120 O 0.11765 0.22488 0.85763 0.0
C121 C 0.06583 0.18827 0.83716 0.0
O122 O 0.05684 0.15978 0.90218 0.0
C123 C 0.11583 0.23621 0.87065 0.0
O124 O 0.07552 0.18763 0.91463 0.0
O125 O 0.10345 0.22995 0.88696 0.0
C126 C 0.93552 0.82269 0.60278 0.0
O127 O 0.93459 0.83599 0.61132 0.0
Cd128 Cd 0.90783 0.83502 0.62612 0.0
O129 O 0.9217 0.80703 0.60272 0.0
Cd130 Cd 0.88989 0.79306 0.61628 0.0
C131 C 0.88163 0.81705 0.57387 0.0
O132 O 0.89277 0.81033 0.65405 0.0
O133 O 0.86617 0.79463 0.63856 0.0
O134 O 0.88955 0.76698 0.63489 0.0
C135 C 0.87604 0.80456 0.65603 0.0
O136 O 0.88973 0.83027 0.58877 0.0
C137 C 0.87628 0.75553 0.62216 0.0
O138 O 0.88068 0.80205 0.57845 0.0
O139 O 0.87002 0.76164 0.60583 0.0
C140 C 0.16843 0.10814 0.60667 0.0
O141 O 0.15537 0.09454 0.61683 0.0
Cd142 Cd 0.15617 0.06794 0.62764 0.0
O143 O 0.18359 0.109 0.60399 0.0
Cd144 Cd 0.19788 0.09106 0.61592 0.0
C145 C 0.17263 0.06076 0.57251 0.0
O146 O 0.18143 0.07644 0.65397 0.0
O147 O 0.19611 0.06501 0.63664 0.0
O148 O 0.22354 0.11701 0.63451 0.0
C149 C 0.18677 0.0651 0.65486 0.0
O150 O 0.15975 0.05593 0.58796 0.0
C151 C 0.23527 0.11545 0.62208 0.0
O152 O 0.18814 0.07399 0.57728 0.0
O153 O 0.22953 0.10302 0.60588 0.0
C154 C 0.8825 0.05664 0.60871 0.0
O155 O 0.89632 0.05757 0.61878 0.0
Cd156 Cd 0.92241 0.08535 0.63016 0.0
O157 O 0.88122 0.0707 0.60605 0.0
Cd158 Cd 0.89868 0.10298 0.61722 0.0
C159 C 0.92977 0.10845 0.57477 0.0
O160 O 0.91308 0.10177 0.6559 0.0
O161 O 0.92421 0.12768 0.63807 0.0
O162 O 0.87235 0.10266 0.63452 0.0
C163 C 0.92411 0.11853 0.65666 0.0
O164 O 0.93508 0.10117 0.59082 0.0
C165 C 0.87386 0.11563 0.62133 0.0
O166 O 0.91593 0.10987 0.57881 0.0
O167 O 0.88649 0.12216 0.60542 0.0
C168 C 0.83671 0.39211 0.44126 0.0
O169 O 0.82338 0.39199 0.45167 0.0
Cd170 Cd 0.82315 0.41834 0.46565 0.0
O171 O 0.85179 0.40661 0.4396 0.0
Cd172 Cd 0.86528 0.43828 0.45367 0.0
C173 C 0.83913 0.44363 0.41189 0.0
O174 O 0.8484 0.43418 0.49224 0.0
O175 O 0.86276 0.46103 0.47731 0.0
O176 O 0.89254 0.43803 0.46644 0.0
C177 C 0.8532 0.45066 0.49466 0.0
O178 O 0.82636 0.43548 0.42748 0.0
C179 C 0.90311 0.45324 0.45678 0.0
O180 O 0.85457 0.44551 0.41598 0.0
O181 O 0.89606 0.46098 0.44504 0.0
C182 C 0.59845 0.44183 0.44096 0.0
O183 O 0.59741 0.42792 0.45086 0.0
Cd184 Cd 0.5696 0.4015 0.46085 0.0
O185 O 0.58441 0.4431 0.43785 0.0
Cd186 Cd 0.55194 0.4254 0.44829 0.0
C187 C 0.5472 0.3952 0.40488 0.0
O188 O 0.55283 0.4104 0.48644 0.0
O189 O 0.52712 0.39925 0.46812 0.0
O190 O 0.5521 0.45137 0.46667 0.0
C191 C 0.53614 0.39915 0.48674 0.0
O192 O 0.55441 0.38976 0.42085 0.0
C193 C 0.53906 0.44996 0.45377 0.0
O194 O 0.54554 0.40887 0.40928 0.0
O195 O 0.53261 0.43763 0.43741 0.0
C196 C 0.54845 0.15382 0.43903 0.0
O197 O 0.56193 0.16602 0.4506 0.0
Cd198 Cd 0.58628 0.16287 0.46659 0.0
O199 O 0.54629 0.13808 0.43682 0.0
Cd200 Cd 0.56132 0.12141 0.45119 0.0
C201 C 0.59644 0.14665 0.41364 0.0
O202 O 0.57382 0.13629 0.49088 0.0
O203 O 0.58461 0.12041 0.47567 0.0
O204 O 0.53351 0.09612 0.46651 0.0
C205 C 0.58424 0.12992 0.49345 0.0
O206 O 0.60098 0.15893 0.43001 0.0
C207 C 0.53497 0.08434 0.45407 0.0
O208 O 0.58176 0.13178 0.41557 0.0
O209 O 0.5482 0.08996 0.43919 0.0
C210 C 0.7204 0.50397 0.72427 0.0
O211 O 0.72087 0.49092 0.71392 0.0
Cd212 Cd 0.74729 0.49234 0.69678 0.0
O213 O 0.73416 0.51967 0.72412 0.0
Cd214 Cd 0.76491 0.53456 0.70618 0.0
C215 C 0.77607 0.5118 0.74665 0.0
O216 O 0.76073 0.51683 0.66846 0.0
O217 O 0.78787 0.53313 0.68178 0.0
O218 O 0.76362 0.55999 0.68812 0.0
C219 C 0.77737 0.52269 0.66518 0.0
O220 O 0.76728 0.49826 0.73248 0.0
C221 C 0.77723 0.5718 0.69995 0.0
O222 O 0.77659 0.52663 0.7423 0.0
O223 O 0.78442 0.56617 0.71553 0.0
C224 C 0.48726 0.21802 0.71799 0.0
O225 O 0.49996 0.23243 0.70887 0.0
Cd226 Cd 0.49715 0.25734 0.69447 0.0
O227 O 0.47136 0.21553 0.71901 0.0
Cd228 Cd 0.45563 0.23196 0.70689 0.0
C229 C 0.48004 0.26463 0.74843 0.0
O230 O 0.47144 0.24616 0.66831 0.0
O231 O 0.45546 0.25652 0.68448 0.0
O232 O 0.43038 0.20493 0.68967 0.0
C233 C 0.46508 0.25663 0.66651 0.0
O234 O 0.49263 0.27034 0.73235 0.0
C235 C 0.41849 0.20619 0.70213 0.0
O236 O 0.46533 0.25002 0.74494 0.0
O237 O 0.424 0.21897 0.71776 0.0
C238 C 0.77307 0.26696 0.71474 0.0
O239 O 0.75844 0.26549 0.70694 0.0
Cd240 Cd 0.73251 0.23791 0.69482 0.0
O241 O 0.77521 0.25332 0.71535 0.0
Cd242 Cd 0.75777 0.22106 0.70388 0.0
C243 C 0.72701 0.21338 0.74832 0.0
O244 O 0.74177 0.22247 0.66707 0.0
O245 O 0.73203 0.19632 0.68358 0.0
O246 O 0.78347 0.22173 0.68364 0.0
C247 C 0.73102 0.20566 0.66606 0.0
O248 O 0.72118 0.22091 0.73351 0.0
C249 C 0.7828 0.20898 0.69646 0.0
O250 O 0.74101 0.21253 0.743 0.0
O251 O 0.77097 0.20243 0.71348 0.0
C252 C 0.48648 0.26934 0.21329 0.0
O253 O 0.49947 0.26888 0.20271 0.0
Cd254 Cd 0.49906 0.24176 0.19104 0.0
O255 O 0.47145 0.25499 0.2164 0.0
Cd256 Cd 0.45737 0.2227 0.20524 0.0
C257 C 0.48444 0.21855 0.24672 0.0
O258 O 0.47301 0.22456 0.16645 0.0
O259 O 0.45918 0.19856 0.18414 0.0
O260 O 0.43081 0.22204 0.18825 0.0
C261 C 0.46808 0.20798 0.16566 0.0
O262 O 0.49674 0.22618 0.23034 0.0
C263 C 0.41968 0.20882 0.20135 0.0
O264 O 0.46886 0.21651 0.24323 0.0
O265 O 0.42618 0.20261 0.21719 0.0
C266 C 0.72598 0.21414 0.22143 0.0
O267 O 0.72514 0.22687 0.21069 0.0
Cd268 Cd 0.75047 0.25361 0.19518 0.0
O269 O 0.74082 0.21416 0.22271 0.0
Cd270 Cd 0.77202 0.23327 0.20689 0.0
C271 C 0.77715 0.2651 0.24776 0.0
O272 O 0.76623 0.24449 0.168 0.0
O273 O 0.79328 0.2588 0.18215 0.0
O274 O 0.77307 0.20645 0.19401 0.0
C275 C 0.78241 0.25672 0.16482 0.0
O276 O 0.7683 0.26892 0.23226 0.0
C277 C 0.78882 0.21208 0.20239 0.0
O278 O 0.77952 0.2518 0.24407 0.0
O279 O 0.79621 0.22699 0.21387 0.0
C280 C 0.77465 0.50524 0.21917 0.0
O281 O 0.76115 0.49204 0.20907 0.0
Cd282 Cd 0.73412 0.49219 0.19867 0.0
O283 O 0.77524 0.52027 0.22183 0.0
Cd284 Cd 0.75683 0.53402 0.21013 0.0
C285 C 0.72745 0.50862 0.25422 0.0
O286 O 0.74142 0.51723 0.17262 0.0
O287 O 0.72982 0.53123 0.19146 0.0
O288 O 0.78202 0.55961 0.19015 0.0
C289 C 0.72964 0.52202 0.17291 0.0
O290 O 0.72239 0.49585 0.23852 0.0
C291 C 0.7805 0.5714 0.20248 0.0
O292 O 0.74073 0.52414 0.24955 0.0
O293 O 0.76851 0.56576 0.21933 0.0
C294 C 0.60331 0.15468 0.94005 0.0
O295 O 0.60285 0.16821 0.94869 0.0
Cd296 Cd 0.57608 0.16814 0.96128 0.0
O297 O 0.58902 0.13941 0.9388 0.0
Cd298 Cd 0.55684 0.12617 0.95005 0.0
C299 C 0.55162 0.15187 0.90708 0.0
O300 O 0.55917 0.14305 0.98797 0.0
O301 O 0.53295 0.12826 0.97102 0.0
O302 O 0.5558 0.09983 0.96869 0.0
C303 C 0.54251 0.13778 0.98901 0.0
O304 O 0.5598 0.16472 0.9225 0.0
C305 C 0.54262 0.08853 0.9557 0.0
O306 O 0.54951 0.13637 0.9116 0.0
O307 O 0.53663 0.09481 0.93924 0.0
C308 C 0.83538 0.44501 0.93431 0.0
O309 O 0.82124 0.43116 0.94184 0.0
Cd310 Cd 0.81968 0.40366 0.95415 0.0
O311 O 0.85041 0.44542 0.93443 0.0
Cd312 Cd 0.86212 0.42545 0.94736 0.0
C313 C 0.83844 0.39629 0.90174 0.0
O314 O 0.84301 0.41027 0.98338 0.0
O315 O 0.85777 0.39835 0.96776 0.0
O316 O 0.88758 0.44977 0.96888 0.0
C317 C 0.84755 0.39833 0.98478 0.0
O318 O 0.82484 0.39162 0.91578 0.0
C319 C 0.89942 0.44797 0.95712 0.0
O320 O 0.85384 0.40918 0.90789 0.0
O321 O 0.89389 0.43614 0.94007 0.0
C322 C 0.54363 0.38733 0.94838 0.0
O323 O 0.55685 0.3879 0.95983 0.0
Cd324 Cd 0.58204 0.4149 0.97583 0.0
O325 O 0.54234 0.40141 0.94619 0.0
Cd326 Cd 0.559 0.43316 0.95966 0.0
C327 C 0.59365 0.4405 0.92238 0.0
O328 O 0.57111 0.4307 -0.00016 0.0
O329 O 0.5828 0.45715 0.98354 0.0
O330 O 0.53222 0.43357 0.97355 0.0
C331 C 0.58201 0.44744 0.00181 0.0
O332 O 0.59789 0.43273 0.9391 0.0
C333 C 0.53475 0.44659 0.95961 0.0
O334 O 0.57934 0.44141 0.92422 0.0
O335 O 0.54808 0.45272 0.94487 0.0
C336 C 0.50407 0.72414 0.771 0.0
O337 O 0.49092 0.72474 0.78077 0.0
Cd338 Cd 0.49171 0.75193 0.79293 0.0
O339 O 0.51943 0.73829 0.76928 0.0
Cd340 Cd 0.53371 0.7702 0.78268 0.0
C341 C 0.50958 0.77723 0.73945 0.0
O342 O 0.51653 0.76786 0.8202 0.0
O343 O 0.53178 0.79421 0.80381 0.0
O344 O 0.55942 0.77018 0.80187 0.0
C345 C 0.52191 0.78453 0.82148 0.0
O346 O 0.49635 0.76899 0.75432 0.0
C347 C 0.57109 0.78329 0.78913 0.0
O348 O 0.5248 0.77882 0.74443 0.0
O349 O 0.56528 0.78972 0.77262 0.0
C350 C 0.2636 0.77023 0.77653 0.0
O351 O 0.26145 0.75549 0.78505 0.0
Cd352 Cd 0.23325 0.73073 0.79826 0.0
O353 O 0.25043 0.77312 0.77566 0.0
Cd354 Cd 0.21818 0.75702 0.78725 0.0
C355 C 0.20955 0.72527 0.74412 0.0
O356 O 0.21877 0.74156 0.82521 0.0
O357 O 0.19288 0.73199 0.80797 0.0
O358 O 0.22018 0.78378 0.80601 0.0
C359 C 0.20188 0.73126 0.82619 0.0
O360 O 0.21598 0.7189 0.7599 0.0
C361 C 0.20737 0.78316 0.79339 0.0
O362 O 0.20986 0.74002 0.74827 0.0
O363 O 0.20024 0.77089 0.77702 0.0
C364 C 0.20744 0.4872 0.77348 0.0
O365 O 0.22132 0.50049 0.78274 0.0
Cd366 Cd 0.24735 0.50005 0.79752 0.0
O367 O 0.20595 0.47167 0.77296 0.0
Cd368 Cd 0.22374 0.45767 0.78706 0.0
C369 C 0.25597 0.48233 0.74497 0.0
O370 O 0.23778 0.47509 0.82471 0.0
O371 O 0.24912 0.45965 0.8097 0.0
O372 O 0.19792 0.4318 0.80576 0.0
C373 C 0.24905 0.46972 0.82688 0.0
O374 O 0.26057 0.49546 0.75991 0.0
C375 C 0.19978 0.42019 0.79348 0.0
O376 O 0.24227 0.46704 0.74945 0.0
O377 O 0.21224 0.42609 0.7773 0.0
C378 C 0.38828 0.83625 0.04887 0.0
O379 O 0.38906 0.82349 0.03812 0.0
Cd380 Cd 0.41639 0.82538 0.02393 0.0
O381 O 0.4022 0.85177 0.05062 0.0
Cd382 Cd 0.4339 0.86722 0.03624 0.0
C383 C 0.4422 0.84255 0.07716 0.0
O384 O 0.43138 0.85099 -0.00231 0.0
O385 O 0.45797 0.8667 0.01319 0.0
O386 O 0.43248 0.89274 0.0191 0.0
C387 C 0.44812 0.85692 -0.00443 0.0
O388 O 0.43406 0.82963 0.06179 0.0
C389 C 0.44571 0.90447 0.0316 0.0
O390 O 0.44333 0.8577 0.07325 0.0
O391 O 0.45285 0.89874 0.04712 0.0
C392 C 0.15114 0.54849 0.0538 0.0
O393 O 0.16355 0.56226 0.04299 0.0
Cd394 Cd 0.16057 0.58731 0.02992 0.0
O395 O 0.13549 0.54651 0.05617 0.0
Cd396 Cd 0.11929 0.56228 0.04289 0.0
C397 C 0.1436 0.59508 0.08399 0.0
O398 O 0.13474 0.57648 0.004 0.0
O399 O 0.1189 0.58679 0.02082 0.0
O400 O 0.09399 0.53517 0.02582 0.0
C401 C 0.12836 0.58697 0.0026 0.0
O402 O 0.1564 0.60025 0.06833 0.0
C403 C 0.08219 0.53626 0.03876 0.0
O404 O 0.12861 0.58087 0.08017 0.0
O405 O 0.0878 0.54899 0.05448 0.0
C406 C 0.44476 0.6087 0.04311 0.0
O407 O 0.43041 0.60822 0.03609 0.0
Cd408 Cd 0.40344 0.58161 0.02374 0.0
O409 O 0.44596 0.5945 0.04281 0.0
Cd410 Cd 0.42661 0.56259 0.03083 0.0
C411 C 0.39681 0.55609 0.07626 0.0
O412 O 0.41068 0.56522 0.99456 0.0
O413 O 0.39989 0.53894 0.01114 0.0
O414 O 0.45089 0.56088 0.00976 0.0
C415 C 0.39928 0.54856 0.9937 0.0
O416 O 0.39137 0.56428 0.06203 0.0
C417 C 0.44936 0.54782 0.02276 0.0
O418 O 0.41033 0.55456 0.07028 0.0
O419 O 0.43779 0.54225 0.04015 0.0
C420 C 0.15562 0.60614 0.54322 0.0
O421 O 0.16933 0.60582 0.53508 0.0
Cd422 Cd 0.16938 0.57869 0.52498 0.0
O423 O 0.14039 0.59178 0.54409 0.0
Cd424 Cd 0.12726 0.55982 0.53167 0.0
C425 C 0.14977 0.55326 0.57784 0.0
O426 O 0.1459 0.56158 0.4962 0.0
O427 O 0.13072 0.53571 0.51417 0.0
O428 O 0.1026 0.55667 0.50594 0.0
C429 C 0.14081 0.54493 0.49634 0.0
O430 O 0.16361 0.56203 0.56414 0.0
C431 C 0.09029 0.54613 0.5207 0.0
O432 O 0.13455 0.551 0.57116 0.0
O433 O 0.09514 0.54252 0.54123 0.0
C434 C 0.38483 0.54679 0.55376 0.0
O435 O 0.38591 0.56092 0.54455 0.0
Cd436 Cd 0.4126 0.58602 0.52813 0.0
O437 O 0.39847 0.54463 0.55388 0.0
Cd438 Cd 0.43014 0.56159 0.53954 0.0
C439 C 0.43933 0.59507 0.58007 0.0
O440 O 0.42691 0.5751 0.50119 0.0
O441 O 0.45371 0.58631 0.516 0.0
O442 O 0.42926 0.53501 0.52201 0.0
C443 C 0.44358 0.58601 0.49863 0.0
O444 O 0.43158 0.60015 0.56448 0.0
C445 C 0.44275 0.5368 0.53417 0.0
O446 O 0.43961 0.58052 0.5768 0.0
O447 O 0.44976 0.54962 0.54976 0.0
C448 C 0.44204 0.83619 0.55085 0.0
O449 O 0.42833 0.82257 0.54192 0.0
Cd450 Cd 0.40105 0.82217 0.53176 0.0
O451 O 0.44233 0.85111 0.55301 0.0
Cd452 Cd 0.42244 0.86348 0.54274 0.0
C453 C 0.39389 0.83786 0.58743 0.0
O454 O 0.40705 0.84677 0.50509 0.0
O455 O 0.39444 0.85914 0.52556 0.0
O456 O 0.44667 0.88945 0.52207 0.0
C457 C 0.39476 0.85085 0.50623 0.0
O458 O 0.38916 0.82511 0.57178 0.0
C459 C 0.44497 0.90104 0.53463 0.0
O460 O 0.40678 0.85357 0.58255 0.0
O461 O 0.43326 0.89515 0.55185 0.0
C462 C 0.27359 0.49086 0.27115 0.0
O463 O 0.27247 0.50384 0.28055 0.0
Cd464 Cd 0.24547 0.5021 0.29606 0.0
O465 O 0.25986 0.47516 0.27034 0.0
Cd466 Cd 0.22796 0.46047 0.28341 0.0
C467 C 0.21972 0.48558 0.24309 0.0
O468 O 0.23049 0.47649 0.32228 0.0
O469 O 0.20399 0.4612 0.30633 0.0
O470 O 0.22857 0.43453 0.3005 0.0
C471 C 0.21375 0.47061 0.32426 0.0
O472 O 0.22725 0.49812 0.25914 0.0
C473 C 0.21514 0.42301 0.28811 0.0
O474 O 0.21927 0.47065 0.24606 0.0
O475 O 0.20833 0.42902 0.27247 0.0
C476 C 0.49899 0.77339 0.26911 0.0
O477 O 0.48543 0.75883 0.27624 0.0
Cd478 Cd 0.48632 0.73281 0.29021 0.0
O479 O 0.5147 0.77539 0.27029 0.0
Cd480 Cd 0.5286 0.75761 0.2845 0.0
C481 C 0.50725 0.72702 0.2392 0.0
O482 O 0.50962 0.74188 0.32036 0.0
O483 O 0.52631 0.73169 0.30616 0.0
O484 O 0.55319 0.78323 0.30567 0.0
C485 C 0.51544 0.73098 0.32269 0.0
O486 O 0.49332 0.72119 0.25289 0.0
C487 C 0.56553 0.78222 0.29403 0.0
O488 O 0.52187 0.74098 0.24539 0.0
O489 O 0.56062 0.77024 0.27728 0.0
C490 C 0.21082 0.72182 0.27435 0.0
O491 O 0.22464 0.72235 0.28372 0.0
Cd492 Cd 0.25067 0.74926 0.29759 0.0
O493 O 0.20976 0.73606 0.27282 0.0
Cd494 Cd 0.22864 0.76813 0.28429 0.0
C495 C 0.26038 0.77348 0.2432 0.0
O496 O 0.24182 0.76598 0.32364 0.0
O497 O 0.25516 0.79165 0.30499 0.0
O498 O 0.20323 0.76966 0.30145 0.0
C499 C 0.25377 0.78246 0.3242 0.0
O500 O 0.26521 0.76608 0.25971 0.0
C501 C 0.20563 0.78298 0.28833 0.0
O502 O 0.24634 0.77473 0.24621 0.0
O503 O 0.21828 0.78888 0.27246 0.0
H504 H 0.19 0.04847 0.08965 0.0
H505 H 0.18249 0.02296 0.06214 0.0
H506 H 0.12608 0.00305 0.07482 0.0
H507 H 0.13339 0.02813 0.10277 0.0
H508 H 0.13426 0.97556 0.0693 0.0
H509 H 0.16385 0.02647 0.99352 0.0
H510 H 0.17887 0.02894 0.01844 0.0
H511 H 0.16004 0.03209 0.02443 0.0
C512 C 0.17601 0.03844 0.08706 0.0
C513 C 0.16229 0.04055 0.098 0.0
C514 C 0.17175 0.02391 0.07126 0.0
C515 C 0.15374 0.01141 0.06597 0.0
C516 C 0.14008 0.01263 0.07854 0.0
H517 H 0.10118 0.95681 0.93403 0.0
H518 H 0.1136 0.97524 0.9712 0.0
C519 C 0.1443 0.02704 0.09448 0.0
C520 C 0.14893 -0.00158 0.04526 0.0
H521 H 0.15014 -0.00378 0.98185 0.0
C522 C 0.1379 0.98001 0.05019 0.0
C523 C 0.15352 0.00435 0.02033 0.0
C524 C 0.16459 0.02403 0.01371 0.0
C525 C 0.13096 0.96739 0.03073 0.0
C526 C 0.13538 0.97339 0.00584 0.0
C527 C 0.14685 0.99171 0.001 0.0
C528 C 0.12713 0.96127 0.98428 0.0
C529 C 0.1183 0.94789 0.03683 0.0
C530 C 0.13057 0.94722 0.9794 0.0
C531 C 0.12342 0.93657 0.95811 0.0
C532 C 0.11284 0.93991 0.9413 0.0
C533 C 0.1093 0.95388 0.9465 0.0
C534 C 0.11638 0.96444 0.96775 0.0
H535 H 0.11373 0.94599 0.05653 0.0
H536 H 0.10634 0.94225 0.02447 0.0
H537 H 0.12526 0.94011 0.03372 0.0
H538 H 0.13908 0.94475 0.99175 0.0
H539 H 0.12646 0.92595 0.95461 0.0
H540 H 0.9695 0.10949 0.12093 0.0
H541 H -0.00323 0.12689 0.09625 0.0
H542 H 0.96891 0.14649 0.0504 0.0
H543 H 0.94205 0.12994 0.07571 0.0
H544 H -0.00054 0.11999 0.05107 0.0
H545 H 0.01623 0.1907 0.05269 0.0
H546 H 0.0007 0.17448 0.0747 0.0
H547 H 0.99307 0.17702 0.04441 0.0
C548 C 0.9694 0.11798 0.10607 0.0
C549 C 0.95363 0.1183 0.10019 0.0
C550 C 0.98499 0.12791 0.09196 0.0
C551 C 0.98502 0.13815 0.07151 0.0
C552 C 0.9695 0.13917 0.06646 0.0
H553 H 0.02893 0.14379 0.92925 0.0
H554 H 0.01269 0.13699 0.96858 0.0
C555 C 0.95404 0.12955 0.08087 0.0
C556 C 2e-05 0.14535 0.05324 0.0
H557 H 0.0247 0.18092 0.0146 0.0
C558 C 0.00527 0.13348 0.04356 0.0
C559 C 0.00794 0.16304 0.0436 0.0
C560 C 0.00431 0.17705 0.05466 0.0
C561 C 0.01723 0.13837 0.02349 0.0
C562 C 0.02362 0.15535 0.01216 0.0
C563 C 0.01944 0.16772 0.0229 0.0
C564 C 0.03357 0.15996 0.98824 0.0
C565 C 0.02264 0.12511 0.01442 0.0
C566 C 0.05039 0.17559 0.98585 0.0
C567 C 0.05962 0.17972 0.96313 0.0
C568 C 0.05217 0.16823 0.94248 0.0
C569 C 0.03518 0.15278 0.94487 0.0
C570 C 0.02591 0.1488 0.96742 0.0
H571 H 0.02218 0.11622 0.0298 0.0
H572 H 0.01305 0.11643 -0.00014 0.0
H573 H 0.03638 0.13202 0.00638 0.0
H574 H 0.05646 0.18448 0.00162 0.0
H575 H 0.07268 0.19175 0.96186 0.0
H576 H 0.79724 0.8782 0.95223 0.0
H577 H 0.80286 0.86717 0.9914 0.0
H578 H 0.85244 0.87393 0.96137 0.0
H579 H 0.84723 0.88539 0.92261 0.0
H580 H 0.80659 0.83844 0.00139 0.0
H581 H 0.86923 0.90025 0.02655 0.0
H582 H 0.8545 0.89983 0.00226 0.0
H583 H 0.87085 0.89304 -0.0042 0.0
C584 C 0.80939 0.87743 0.95404 0.0
C585 C 0.82188 0.88284 0.93439 0.0
C586 C 0.81257 0.87112 0.97642 0.0
C587 C 0.82826 0.87011 0.97949 0.0
C588 C 0.84051 0.87512 0.95969 0.0
H589 H 0.85613 0.80524 0.06381 0.0
H590 H 0.84043 0.81628 0.03792 0.0
C591 C 0.83745 0.88157 0.93747 0.0
C592 C 0.83177 0.86337 0.00302 0.0
H593 H 0.8649 0.8728 0.04527 0.0
C594 C 0.8192 0.84605 0.01131 0.0
C595 C 0.84796 0.87348 0.01641 0.0
C596 C 0.86129 0.89276 0.00995 0.0
C597 C 0.82296 0.83813 0.0316 0.0
C598 C 0.83994 0.8476 0.04339 0.0
C599 C 0.85196 0.86537 0.03611 0.0
C600 C 0.84636 0.83903 0.0616 0.0
C601 C 0.80875 0.81966 0.03997 0.0
C602 C 0.8549 0.84802 0.08368 0.0
C603 C 0.86433 0.84198 0.09818 0.0
C604 C 0.8652 0.8267 0.09102 0.0
C605 C 0.85556 0.81696 0.06994 0.0
C606 C 0.84643 0.82321 0.05519 0.0
H607 H 0.79508 0.81757 0.03663 0.0
H608 H 0.81 0.8094 0.02895 0.0
H609 H 0.81009 0.81744 0.06005 0.0
H610 H 0.85504 0.86025 0.08904 0.0
H611 H 0.87157 0.8497 0.11441 0.0
H612 H 0.91991 0.11983 0.53296 0.0
H613 H 0.93662 0.13056 0.49378 0.0
H614 H 0.97932 0.12389 0.52454 0.0
H615 H 0.96262 0.11278 0.56331 0.0
H616 H 0.96937 0.15919 0.48354 0.0
H617 H 0.96935 0.09667 0.45988 0.0
H618 H 0.95508 0.09753 0.48388 0.0
H619 H 0.9781 0.10405 0.49062 0.0
C620 C 0.93283 0.12058 0.53132 0.0
C621 C 0.93985 0.11527 0.55117 0.0
C622 C 0.94235 0.12671 0.50893 0.0
C623 C 0.95902 0.12763 0.50606 0.0
C624 C 0.96623 0.12278 0.52608 0.0
H625 H 0.05234 0.19072 0.42291 0.0
H626 H 0.02535 0.18026 0.44804 0.0
C627 C 0.9567 0.11652 0.54831 0.0
C628 C 0.96926 0.13405 0.48249 0.0
H629 H 0.99274 0.12382 0.44093 0.0
C630 C 0.97423 0.15136 0.47388 0.0
C631 C 0.97515 0.12364 0.46944 0.0
C632 C 0.96896 0.10436 0.47628 0.0
C633 C 0.98603 0.15901 0.45364 0.0
C634 C 0.99338 0.14925 0.44224 0.0
C635 C 0.98735 0.13147 0.44978 0.0
C636 C 0.00856 0.15755 0.42431 0.0
C637 C 0.99061 0.17751 0.44495 0.0
C638 C 0.0082 0.14839 0.40244 0.0
C639 C 0.02381 0.1541 0.38838 0.0
C640 C 0.04001 0.1692 0.39578 0.0
C641 C 0.04003 0.17913 0.4166 0.0
C642 C 0.02451 0.17322 0.43092 0.0
H643 H 0.97911 0.17981 0.44791 0.0
H644 H 0.00207 0.18773 0.45605 0.0
H645 H -0.00567 0.17958 0.42492 0.0
H646 H -0.00394 0.13627 0.39695 0.0
H647 H 0.02337 0.14624 0.37233 0.0
H648 H 0.84883 0.8824 0.3923 0.0
H649 H 0.85534 0.86335 0.41866 0.0
H650 H 0.79875 0.82918 0.4333 0.0
H651 H 0.79212 0.84858 0.40743 0.0
H652 H 0.81664 0.84067 0.47498 0.0
H653 H 0.85228 0.81545 0.41713 0.0
H654 H 0.86242 0.83927 0.41333 0.0
H655 H 0.83947 0.82481 0.40365 0.0
C656 C 0.83769 0.87058 0.40056 0.0
C657 C 0.81996 0.86715 0.39799 0.0
C658 C 0.84144 0.85955 0.41548 0.0
C659 C 0.82753 0.84469 0.42778 0.0
C660 C 0.8097 0.84054 0.42391 0.0
H661 H 0.86185 0.79164 0.53849 0.0
H662 H 0.84635 0.79515 0.50238 0.0
C663 C 0.80593 0.85166 0.40913 0.0
C664 C 0.83195 0.83553 0.44766 0.0
H665 H 0.86018 0.8195 0.46152 0.0
C666 C 0.8258 0.83562 0.47188 0.0
C667 C 0.84371 0.82869 0.4437 0.0
C668 C 0.84966 0.82687 0.41796 0.0
C669 C 0.83215 0.83037 0.49241 0.0
C670 C 0.84527 0.82526 0.48868 0.0
C671 C 0.85038 0.82379 0.46435 0.0
C672 C 0.85492 0.82302 0.50994 0.0
C673 C 0.82518 0.8309 0.51802 0.0
C674 C 0.86518 0.83764 0.5257 0.0
C675 C 0.874 0.83572 0.54624 0.0
C676 C 0.87285 0.81913 0.55137 0.0
C677 C 0.86294 0.80458 0.53513 0.0
C678 C 0.85409 0.80654 0.51451 0.0
H679 H 0.8116 0.82944 0.51705 0.0
H680 H 0.82455 0.82011 0.53014 0.0
H681 H 0.83434 0.84406 0.52683 0.0
H682 H 0.8663 0.85058 0.52215 0.0
H683 H 0.88162 0.84725 0.55819 0.0
H684 H 0.13837 0.94494 0.39586 0.0
H685 H 0.15678 0.96974 0.42418 0.0
H686 H 0.12128 0.99112 0.41352 0.0
H687 H 0.10313 0.96677 0.38475 0.0
H688 H 0.15694 0.01789 0.41965 0.0
H689 H 0.135 0.96526 0.49314 0.0
H690 H 0.14745 0.96317 0.46776 0.0
H691 H 0.12558 0.96041 0.46221 0.0
C692 C 0.13472 0.95515 0.39908 0.0
C693 C 0.11906 0.95366 0.38845 0.0
C694 C 0.14523 0.96927 0.41534 0.0
C695 C 0.1401 0.98196 0.42144 0.0
C696 C 0.1254 0.98138 0.40919 0.0
H697 H 0.1408 0.0335 0.55514 0.0
H698 H 0.13556 0.01588 0.51731 0.0
C699 C 0.11499 0.96739 0.39278 0.0
C700 C 0.14845 0.99446 0.44263 0.0
H701 H 0.15148 0.99519 0.50608 0.0
C702 C 0.15601 0.013 0.43854 0.0
C703 C 0.14696 0.98796 0.46727 0.0
C704 C 0.1382 0.96812 0.47301 0.0
C705 C 0.16162 0.02517 0.45855 0.0
C706 C 0.15979 0.01858 0.48315 0.0
C707 C 0.15288 0.00015 0.48714 0.0
C708 C 0.16329 0.03016 0.50524 0.0
C709 C 0.1686 0.04482 0.45335 0.0
C710 C 0.18065 0.0441 0.51092 0.0
C711 C 0.18371 0.0543 0.5326 0.0
C712 C 0.16947 0.05059 0.54899 0.0
C713 C 0.15209 0.0367 0.54302 0.0
C714 C 0.14906 0.02661 0.52139 0.0
H715 H 0.16631 0.04724 0.4337 0.0
H716 H 0.16205 0.05016 0.46584 0.0
H717 H 0.18326 0.05248 0.45704 0.0
H718 H 0.19185 0.04687 0.49887 0.0
H719 H 0.19727 0.06486 0.53671 0.0
H720 H 0.87464 0.0739 0.03445 0.0
H721 H 0.86387 0.0583 0.99446 0.0
H722 H 0.86258 0.01134 0.02557 0.0
H723 H 0.87377 0.02691 0.06507 0.0
H724 H 0.87983 0.02088 0.98154 0.0
H725 H 0.81416 0.0186 0.97397 0.0
H726 H 0.8335 0.04054 0.97789 0.0
H727 H 0.82685 0.02434 0.0026 0.0
C728 C 0.87191 0.0602 0.03277 0.0
C729 C 0.87513 0.05166 0.05288 0.0
C730 C 0.86567 0.05128 0.00996 0.0
C731 C 0.86227 0.03361 0.00711 0.0
C732 C 0.86515 0.025 0.02734 0.0
H733 H 0.80343 0.94449 0.91479 0.0
H734 H 0.81323 0.97039 0.94213 0.0
C735 C 0.87157 0.03393 0.04993 0.0
C736 C 0.85657 0.02409 0.98291 0.0
H737 H 0.82182 0.00524 0.94144 0.0
C738 C 0.86723 0.0176 0.97259 0.0
C739 C 0.84012 0.01986 0.97136 0.0
C740 C 0.82788 0.02605 0.98205 0.0
C741 C 0.8615 0.00617 0.95187 0.0
C742 C 0.8449 0.00168 0.94046 0.0
C743 C 0.8346 0.00886 0.95007 0.0
C744 C 0.83708 0.98775 0.92075 0.0
C745 C 0.87276 -0.00188 0.94355 0.0
C746 C 0.84665 0.98924 0.89882 0.0
C747 C 0.84128 0.97429 0.88342 0.0
C748 C 0.82598 0.9578 0.88937 0.0
C749 C 0.81533 0.95698 0.90977 0.0
C750 C 0.82091 0.9718 0.92542 0.0
H751 H 0.88295 -0.00012 0.95772 0.0
H752 H 0.86421 0.98353 0.93971 0.0
H753 H 0.88002 0.00485 0.92618 0.0
H754 H 0.85887 0.00161 0.89445 0.0
H755 H 0.84959 0.9754 0.86758 0.0
H756 H 0.9575 0.84461 0.06065 0.0
H757 H 0.97486 0.85026 0.02252 0.0
H758 H 0.93307 0.80063 0.99123 0.0
H759 H 0.91562 0.7946 0.02979 0.0
H760 H 0.96682 0.80561 0.98253 0.0
H761 H 0.96472 0.86678 0.95691 0.0
H762 H 0.97291 0.86837 0.98807 0.0
H763 H 0.95025 0.85137 0.98052 0.0
C764 C 0.95191 0.83489 0.04568 0.0
C765 C 0.93508 0.81923 0.0482 0.0
C766 C 0.96183 0.83819 0.02382 0.0
C767 C 0.95506 0.82608 0.00384 0.0
C768 C 0.93844 0.81023 0.00638 0.0
H769 H 0.02061 0.87279 0.87148 0.0
H770 H 0.99317 0.85472 0.89552 0.0
C771 C 0.92851 0.80683 0.0284 0.0
C772 C 0.96566 0.83006 0.98059 0.0
H773 H 0.98888 0.86385 0.93903 0.0
C774 C 0.97141 0.81818 0.97267 0.0
C775 C 0.97121 0.8462 0.96729 0.0
C776 C 0.96427 0.8588 0.97347 0.0
C777 C 0.98362 0.82265 0.95287 0.0
C778 C 0.99057 0.83964 0.94123 0.0
C779 C 0.98379 0.8509 0.94808 0.0
C780 C 0.006 0.84691 0.92371 0.0
C781 C 0.98908 0.80922 0.94492 0.0
C782 C 0.02223 0.84799 0.93097 0.0
C783 C 0.03785 0.85802 0.91699 0.0
C784 C 0.03762 0.86756 0.89585 0.0
C785 C 0.0212 0.86567 0.8878 0.0
C786 C 0.00551 0.85534 0.90152 0.0
H787 H 0.97794 0.79525 0.9479 0.0
H788 H 0.99309 0.81087 0.925 0.0
H789 H 0.0006 0.81106 0.95646 0.0
H790 H 0.02315 0.84208 0.94833 0.0
H791 H 0.05033 0.85936 0.92377 0.0
H792 H 0.13302 0.18857 0.92002 0.0
H793 H 0.1505 0.17925 0.94513 0.0
H794 H 0.13517 0.13382 0.89656 0.0
H795 H 0.11688 0.14266 0.87197 0.0
H796 H 0.12699 0.1227 0.94121 0.0
H797 H 0.19644 0.1791 0.94478 0.0
H798 H 0.18148 0.18721 0.9525 0.0
H799 H 0.18056 0.17809 0.92188 0.0
C800 C 0.13378 0.17689 0.91421 0.0
C801 C 0.12341 0.16623 0.89418 0.0
C802 C 0.14396 0.17165 0.92851 0.0
C803 C 0.14435 0.1559 0.92267 0.0
C804 C 0.1351 0.14602 0.90145 0.0
H805 H 0.19561 0.12068 0.0351 0.0
H806 H 0.18998 0.13068 0.99496 0.0
C807 C 0.12465 0.15108 0.88741 0.0
C808 C 0.15166 0.14824 0.94098 0.0
H809 H 0.18615 0.15979 0.98197 0.0
C810 C 0.14014 0.13071 0.94963 0.0
C811 C 0.1689 0.15845 0.95185 0.0
C812 C 0.18259 0.17668 0.94201 0.0
C813 C 0.14482 0.12365 0.96993 0.0
C814 C 0.16122 0.13459 0.98245 0.0
C815 C 0.17337 0.15157 0.9727 0.0
C816 C 0.16516 0.12914 0.00674 0.0
C817 C 0.13189 0.10466 0.97815 0.0
C818 C 0.15334 0.12545 0.02677 0.0
C819 C 0.15642 0.11966 0.04954 0.0
C820 C 0.17156 0.11768 0.0529 0.0
C821 C 0.18378 0.12201 0.03307 0.0
C822 C 0.1806 0.12771 0.01014 0.0
H823 H 0.12354 0.09634 0.96232 0.0
H824 H 0.13908 0.09814 0.98633 0.0
H825 H 0.12267 0.10489 0.99245 0.0
H826 H 0.14161 0.12696 0.02475 0.0
H827 H 0.14686 0.11669 0.06449 0.0
H828 H 0.96566 0.85495 0.59376 0.0
H829 H 0.98989 0.86081 0.56499 0.0
H830 H 0.96766 0.80387 0.5539 0.0
H831 H 0.94291 0.79782 0.5822 0.0
H832 H 0.01621 0.85174 0.55894 0.0
H833 H 0.96395 0.82123 0.48496 0.0
H834 H 0.9589 0.82567 0.51584 0.0
H835 H 0.96187 0.80668 0.51032 0.0
C836 C 0.96604 0.84361 0.5856 0.0
C837 C 0.9521 0.82592 0.58984 0.0
C838 C 0.97998 0.84701 0.5692 0.0
C839 C 0.98032 0.8328 0.55684 0.0
C840 C 0.96738 0.81504 0.5628 0.0
H841 H 0.06429 0.8624 0.4414 0.0
H842 H 0.04624 0.84822 0.47875 0.0
C843 C 0.95329 0.81161 0.57906 0.0
C844 C 0.99291 0.83689 0.53575 0.0
H845 H -0.00609 0.8353 0.47226 0.0
C846 C 0.01141 0.84792 0.53999 0.0
C847 C 0.98652 0.83202 0.51104 0.0
C848 C 0.96674 0.82087 0.50511 0.0
C849 C 0.02364 0.85486 0.52008 0.0
C850 C 0.01715 0.85038 0.4954 0.0
C851 C -0.00121 0.83865 0.49125 0.0
C852 C 0.02866 0.85924 0.47349 0.0
C853 C 0.04321 0.86771 0.52548 0.0
C854 C 0.02464 0.86995 0.4581 0.0
C855 C 0.03475 0.87791 0.43676 0.0
C856 C 0.04916 0.87532 0.43031 0.0
C857 C 0.05333 0.86472 0.44591 0.0
C858 C 0.04309 0.85667 0.4673 0.0
H859 H 0.04553 0.872 0.54531 0.0
H860 H 0.05115 0.86108 0.52122 0.0
H861 H 0.04832 0.87985 0.51352 0.0
H862 H 0.01355 0.8721 0.46258 0.0
H863 H 0.03118 0.88602 0.42526 0.0
H864 H 0.1125 0.14839 0.42814 0.0
H865 H 0.12305 0.14178 0.46664 0.0
H866 H 0.13054 0.19098 0.49912 0.0
H867 H 0.12033 0.19799 0.46021 0.0
H868 H 0.15873 0.18559 0.50908 0.0
H869 H 0.09481 0.12403 0.5307 0.0
H870 H 0.10226 0.123 0.49987 0.0
H871 H 0.09645 0.13991 0.50736 0.0
C872 C 0.11631 0.15782 0.44345 0.0
C873 C 0.11541 0.17365 0.44116 0.0
C874 C 0.12226 0.15396 0.46552 0.0
C875 C 0.12716 0.16567 0.48593 0.0
C876 C 0.12665 0.18168 0.48364 0.0
H877 H 0.14228 0.11615 0.61833 0.0
H878 H 0.1335 0.13462 0.59406 0.0
C879 C 0.12081 0.18565 0.46141 0.0
C880 C 0.1331 0.16114 0.50937 0.0
H881 H 0.12136 0.12646 0.5498 0.0
C882 C 0.15048 0.17282 0.51833 0.0
C883 C 0.12214 0.14472 0.52188 0.0
C884 C 0.10281 0.13231 0.51461 0.0
C885 C 0.15763 0.1679 0.53839 0.0
C886 C 0.14728 0.15068 0.54925 0.0
C887 C 0.12946 0.13959 0.54136 0.0
C888 C 0.15493 0.14302 0.56702 0.0
C889 C 0.17626 0.18114 0.54748 0.0
C890 C 0.1703 0.14211 0.56048 0.0
C891 C 0.17554 0.13185 0.57461 0.0
C892 C 0.16522 0.12191 0.59515 0.0
C893 C 0.15042 0.12358 0.60248 0.0
C894 C 0.1454 0.13414 0.58863 0.0
H895 H 0.17915 0.19518 0.54489 0.0
H896 H 0.17803 0.17906 0.56746 0.0
H897 H 0.18627 0.17955 0.53637 0.0
H898 H 0.17761 0.14837 0.54354 0.0
H899 H 0.18691 0.13069 0.56836 0.0
H900 H 0.85879 0.052 0.57179 0.0
H901 H 0.84116 0.02505 0.54701 0.0
H902 H 0.85763 0.99551 0.59491 0.0
H903 H 0.87605 0.02277 0.61913 0.0
H904 H 0.86474 0.99201 0.54988 0.0
H905 H 0.79522 0.97905 0.54973 0.0
H906 H 0.81005 0.00197 0.54117 0.0
H907 H 0.8117 0.9942 0.57179 0.0
C908 C 0.85827 0.03965 0.57749 0.0
C909 C 0.86894 0.03954 0.59727 0.0
C910 C 0.84802 0.02416 0.5634 0.0
C911 C 0.84786 0.00812 0.5692 0.0
C912 C 0.85752 0.0077 0.59006 0.0
H913 H 0.79257 0.91914 0.46166 0.0
H914 H 0.7998 0.93604 0.50087 0.0
C915 C 0.86805 0.02328 0.60389 0.0
C916 C 0.8401 0.99292 0.55128 0.0
H917 H 0.8044 0.96912 0.51248 0.0
C918 C 0.85137 0.98673 0.54218 0.0
C919 C 0.82256 0.98571 0.54137 0.0
C920 C 0.80916 0.99047 0.55179 0.0
C921 C 0.84607 0.97451 0.52239 0.0
C922 C 0.82928 0.96876 0.51082 0.0
C923 C 0.81745 0.97388 0.521 0.0
C924 C 0.82445 0.95858 0.48712 0.0
C925 C 0.85871 0.96817 0.51379 0.0
C926 C 0.83566 0.96587 0.46628 0.0
C927 C 0.83169 0.95625 0.44405 0.0
C928 C 0.81622 0.93923 0.44203 0.0
C929 C 0.80463 0.93219 0.46266 0.0
C930 C 0.80873 0.94181 0.48505 0.0
H931 H 0.86749 0.96855 0.52925 0.0
H932 H 0.85126 0.95428 0.5063 0.0
H933 H 0.86752 0.97724 0.49887 0.0
H934 H 0.84759 0.97903 0.46724 0.0
H935 H 0.84077 0.96219 0.42844 0.0
H936 H 0.79063 0.25752 0.28942 0.0
H937 H 0.80152 0.2754 0.32762 0.0
H938 H 0.79176 0.31571 0.29526 0.0
H939 H 0.78042 0.29778 0.25743 0.0
H940 H 0.82905 0.30907 0.33673 0.0
H941 H 0.76461 0.30527 0.36009 0.0
H942 H 0.76636 0.29125 0.33649 0.0
H943 H 0.77177 0.3139 0.32923 0.0
C944 C 0.79078 0.27018 0.29047 0.0
C945 C 0.78446 0.27614 0.2705 0.0
C946 C 0.79702 0.28037 0.3123 0.0
C947 C 0.79706 0.29667 0.31448 0.0
C948 C 0.79134 0.30291 0.29425 0.0
H949 H 0.85568 0.39012 0.40191 0.0
H950 H 0.84698 0.36433 0.37477 0.0
C951 C 0.78495 0.29268 0.27258 0.0
C952 C 0.80315 0.30733 0.33775 0.0
H953 H 0.79092 0.32903 0.37966 0.0
C954 C 0.82065 0.31323 0.3464 0.0
C955 C 0.79202 0.31233 0.35078 0.0
C956 C 0.77258 0.30518 0.34383 0.0
C957 C 0.82767 0.32491 0.36688 0.0
C958 C 0.81704 0.33119 0.3785 0.0
C959 C 0.7992 0.32442 0.37067 0.0
C960 C 0.82433 0.34577 0.39737 0.0
C961 C 0.84639 0.33043 0.37569 0.0
C962 C 0.81462 0.34401 0.41926 0.0
C963 C 0.8193 0.3589 0.43446 0.0
C964 C 0.83393 0.37578 0.42822 0.0
C965 C 0.84443 0.37724 0.40733 0.0
C966 C 0.83953 0.36243 0.39186 0.0
H967 H 0.84968 0.31966 0.37204 0.0
H968 H 0.85621 0.34253 0.36525 0.0
H969 H 0.84803 0.33357 0.39592 0.0
H970 H 0.80284 0.33131 0.42392 0.0
H971 H 0.81101 0.35737 0.45053 0.0
H972 H 0.63218 0.44947 0.45452 0.0
H973 H 0.66007 0.46793 0.43157 0.0
H974 H 0.63125 0.48219 0.37892 0.0
H975 H 0.60367 0.46461 0.40249 0.0
H976 H 0.66546 0.46007 0.38831 0.0
H977 H 0.6764 0.52865 0.3811 0.0
H978 H 0.66079 0.51266 0.40327 0.0
H979 H 0.65386 0.51321 0.37167 0.0
C980 C 0.63195 0.45704 0.4385 0.0
C981 C 0.61575 0.45555 0.43021 0.0
C982 C 0.6479 0.46758 0.42539 0.0
C983 C 0.64788 0.47661 0.40356 0.0
C984 C 0.63184 0.47585 0.39606 0.0
H985 H 0.69547 0.47934 0.26659 0.0
H986 H 0.67901 0.47348 0.30557 0.0
C987 C 0.61598 0.46563 0.40947 0.0
C988 C 0.66359 0.48419 0.38649 0.0
H989 H 0.68724 0.51854 0.3456 0.0
C990 C 0.67051 0.47307 0.37948 0.0
C991 C 0.67056 0.50129 0.37517 0.0
C992 C 0.66512 0.51467 0.38347 0.0
C993 C 0.68312 0.47797 0.36027 0.0
C994 C 0.68851 0.49412 0.34708 0.0
C995 C 0.68275 0.50593 0.35532 0.0
C996 C 0.69874 0.4981 0.32347 0.0
C997 C 0.69021 0.46552 0.35393 0.0
C998 C 0.71498 0.51425 0.32018 0.0
C999 C 0.72436 0.51779 0.29764 0.0
C1000 C 0.71761 0.50522 0.27806 0.0
C1001 C 0.7012 0.48921 0.28137 0.0
C1002 C 0.6918 0.48578 0.30373 0.0
H1003 H 0.69022 0.45783 0.37058 0.0
H1004 H 0.68134 0.45566 0.33976 0.0
H1005 H 0.70407 0.47301 0.34634 0.0
H1006 H 0.72046 0.52403 0.33511 0.0
H1007 H 0.73695 0.53028 0.29563 0.0
H1008 H 0.54317 0.18211 0.44828 0.0
H1009 H 0.52679 0.19253 0.42234 0.0
H1010 H 0.51114 0.14744 0.37299 0.0
H1011 H 0.52674 0.13655 0.39942 0.0
H1012 H 0.53563 0.20401 0.37767 0.0
H1013 H 0.46558 0.14853 0.37362 0.0
H1014 H 0.48129 0.14912 0.39647 0.0
H1015 H 0.48043 0.14031 0.36567 0.0
C1016 C 0.53582 0.17417 0.43226 0.0
C1017 C 0.53628 0.15854 0.42583 0.0
C1018 C 0.52646 0.18014 0.41745 0.0
C1019 C 0.51756 0.17071 0.39579 0.0
C1020 C 0.51742 0.1547 0.38994 0.0
H1021 H 0.51336 0.21449 0.25636 0.0
H1022 H 0.52008 0.20368 0.29456 0.0
C1023 C 0.52649 0.14854 0.405 0.0
C1024 C 0.51063 0.17881 0.37759 0.0
H1025 H 0.47584 0.16877 0.33784 0.0
C1026 C 0.52239 0.19639 0.36937 0.0
C1027 C 0.49327 0.16908 0.36695 0.0
C1028 C 0.47938 0.1508 0.37638 0.0
C1029 C 0.51769 0.2041 0.34988 0.0
C1030 C 0.50102 0.19373 0.33767 0.0
C1031 C 0.48879 0.17658 0.34686 0.0
C1032 C 0.49658 0.20004 0.31448 0.0
C1033 C 0.53077 0.22324 0.34244 0.0
C1034 C 0.48073 0.20091 0.3126 0.0
C1035 C 0.47667 0.20683 0.29053 0.0
C1036 C 0.48843 0.212 0.27002 0.0
C1037 C 0.50414 0.21085 0.27191 0.0
C1038 C 0.50807 0.20478 0.29381 0.0
H1039 H 0.53932 0.23105 0.35843 0.0
H1040 H 0.53978 0.22324 0.32763 0.0
H1041 H 0.5237 0.23017 0.33523 0.0
H1042 H 0.47159 0.19716 0.32826 0.0
H1043 H 0.46443 0.20752 0.28965 0.0
H1044 H 0.62857 0.44886 0.91777 0.0
H1045 H 0.6482 0.46174 0.88169 0.0
H1046 H 0.60521 0.46262 0.8413 0.0
H1047 H 0.58565 0.45031 0.87772 0.0
H1048 H 0.64443 0.44754 0.83703 0.0
H1049 H 0.6459 0.51257 0.82779 0.0
H1050 H 0.637 0.49847 0.85499 0.0
H1051 H 0.62364 0.49344 0.82717 0.0
C1052 C 0.62332 0.45191 0.90128 0.0
C1053 C 0.60556 0.44858 0.9006 0.0
C1054 C 0.63456 0.4593 0.88068 0.0
C1055 C 0.62826 0.46338 0.85889 0.0
C1056 C 0.61052 0.46003 0.85811 0.0
H1057 H 0.68633 0.47542 0.72044 0.0
H1058 H 0.66199 0.46626 0.75068 0.0
C1059 C 0.59931 0.45286 0.87888 0.0
C1060 C 0.64007 0.47014 0.83668 0.0
H1061 H 0.65933 0.50477 0.79498 0.0
C1062 C 0.64768 0.46006 0.82785 0.0
C1063 C 0.64442 0.48656 0.82485 0.0
C1064 C 0.63746 0.49849 0.83431 0.0
C1065 C 0.65968 0.46599 0.80775 0.0
C1066 C 0.66368 0.48217 0.79547 0.0
C1067 C 0.65601 0.49224 0.80418 0.0
C1068 C 0.67676 0.48933 0.77468 0.0
C1069 C 0.66848 0.45519 0.80057 0.0
C1070 C 0.69256 0.50599 0.77717 0.0
C1071 C 0.70634 0.51146 0.75961 0.0
C1072 C 0.70456 0.50024 0.73946 0.0
C1073 C 0.68817 0.48422 0.736 0.0
C1074 C 0.6743 0.47892 0.75332 0.0
H1075 H 0.66762 0.44601 0.81578 0.0
H1076 H 0.66156 0.44684 0.78403 0.0
H1077 H 0.68286 0.46411 0.79582 0.0
H1078 H 0.69467 0.5143 0.79341 0.0
H1079 H 0.71879 0.5239 0.76277 0.0
H1080 H 0.4638 0.18559 0.73935 0.0
H1081 H 0.47144 0.16746 0.76645 0.0
H1082 H 0.52775 0.20346 0.75243 0.0
H1083 H 0.5203 0.22136 0.72489 0.0
H1084 H 0.51928 0.1677 0.75729 0.0
H1085 H 0.49115 0.18916 0.83488 0.0
H1086 H 0.47577 0.17678 0.81022 0.0
H1087 H 0.49458 0.19872 0.80409 0.0
C1088 C 0.47779 0.18943 0.7416 0.0
C1089 C 0.49146 0.20513 0.73034 0.0
C1090 C 0.48212 0.17909 0.75716 0.0
C1091 C 0.50017 0.18439 0.7619 0.0
C1092 C 0.51374 0.19919 0.74912 0.0
H1093 H 0.55608 0.18374 0.89009 0.0
H1094 H 0.54248 0.18894 0.85356 0.0
C1095 C 0.50944 0.20945 0.73343 0.0
C1096 C 0.50516 0.17603 0.78217 0.0
H1097 H 0.50524 0.17279 0.84555 0.0
C1098 C 0.51602 0.16854 0.77658 0.0
C1099 C 0.50104 0.1774 0.80734 0.0
C1100 C 0.49013 0.18606 0.81464 0.0
C1101 C 0.52333 0.16289 0.79559 0.0
C1102 C 0.51948 0.16462 0.82071 0.0
C1103 C 0.50809 0.17146 0.82622 0.0
C1104 C 0.52845 0.16115 0.84175 0.0
C1105 C 0.53582 0.15596 0.78879 0.0
C1106 C 0.52517 0.14378 0.84709 0.0
C1107 C 0.533 0.14073 0.86805 0.0
C1108 C 0.54412 0.15501 0.88403 0.0
C1109 C 0.54755 0.17242 0.87829 0.0
C1110 C 0.53979 0.17543 0.8574 0.0
H1111 H 0.53963 0.15813 0.76877 0.0
H1112 H 0.54823 0.16266 0.80025 0.0
H1113 H 0.52909 0.14133 0.79266 0.0
H1114 H 0.51625 0.13255 0.83542 0.0
H1115 H 0.53003 0.12716 0.87199 0.0
H1116 H 0.8646 0.39966 0.86904 0.0
H1117 H 0.86065 0.38107 0.83224 0.0
H1118 H 0.8035 0.3515 0.84523 0.0
H1119 H 0.80723 0.36974 0.88188 0.0
H1120 H 0.82092 0.33037 0.83995 0.0
H1121 H 0.83692 0.3797 0.76301 0.0
H1122 H 0.85229 0.38591 0.78884 0.0
H1123 H 0.83038 0.3831 0.79363 0.0
C1124 C 0.85118 0.38931 0.8639 0.0
C1125 C 0.83624 0.38613 0.87849 0.0
C1126 C 0.84896 0.37877 0.84284 0.0
C1127 C 0.83178 0.365 0.83605 0.0
C1128 C 0.81687 0.36208 0.85023 0.0
H1129 H 0.77105 0.29742 0.72143 0.0
H1130 H 0.79017 0.32291 0.74793 0.0
C1131 C 0.81905 0.37253 0.87119 0.0
C1132 C 0.82909 0.35276 0.81509 0.0
H1133 H 0.82622 0.34958 0.75169 0.0
C1134 C 0.82238 0.33456 0.82061 0.0
C1135 C 0.83102 0.35839 0.79 0.0
C1136 C 0.83797 0.37781 0.7833 0.0
C1137 C 0.81652 0.3216 0.80172 0.0
C1138 C 0.81782 0.3271 0.77656 0.0
C1139 C 0.82541 0.34546 0.77097 0.0
C1140 C 0.80892 0.31376 0.75643 0.0
C1141 C 0.80784 0.30203 0.80902 0.0
C1142 C 0.81364 0.30062 0.75139 0.0
C1143 C 0.80256 0.28583 0.73645 0.0
C1144 C 0.78672 0.2841 0.72611 0.0
C1145 C 0.78302 0.29819 0.72931 0.0
C1146 C 0.794 0.31285 0.74439 0.0
H1147 H 0.8051 0.29999 0.82935 0.0
H1148 H 0.79498 0.29394 0.79889 0.0
H1149 H 0.81693 0.29681 0.80408 0.0
H1150 H 0.82533 0.3013 0.76011 0.0
H1151 H 0.80594 0.27534 0.73406 0.0
H1152 H 0.54405 0.36301 0.3923 0.0
H1153 H 0.53344 0.3468 0.35311 0.0
H1154 H 0.52512 0.38887 0.32392 0.0
H1155 H 0.53538 0.40512 0.36352 0.0
H1156 H 0.49709 0.3556 0.31312 0.0
H1157 H 0.56088 0.35866 0.28829 0.0
H1158 H 0.55385 0.34952 0.31894 0.0
H1159 H 0.55943 0.37235 0.31268 0.0
C1160 C 0.54006 0.36891 0.37756 0.0
C1161 C 0.54071 0.38545 0.38099 0.0
C1162 C 0.53409 0.35966 0.35509 0.0
C1163 C 0.52891 0.36684 0.3354 0.0
C1164 C 0.52923 0.38319 0.33882 0.0
H1165 H 0.51227 0.30354 0.20121 0.0
H1166 H 0.52127 0.33073 0.22569 0.0
C1167 C 0.5351 0.39244 0.36144 0.0
C1168 C 0.52277 0.35686 0.3116 0.0
H1169 H 0.53411 0.33463 0.26939 0.0
C1170 C 0.50528 0.35127 0.30321 0.0
C1171 C 0.53362 0.35168 0.29822 0.0
C1172 C 0.55306 0.35856 0.30485 0.0
C1173 C 0.4979 0.33951 0.28288 0.0
C1174 C 0.50815 0.33281 0.27118 0.0
C1175 C 0.52609 0.33951 0.27847 0.0
C1176 C 0.50024 0.31761 0.25328 0.0
C1177 C 0.47916 0.33422 0.27446 0.0
C1178 C 0.48501 0.30131 0.26003 0.0
C1179 C 0.47964 0.28585 0.24578 0.0
C1180 C 0.4897 0.28629 0.2249 0.0
C1181 C 0.50433 0.30279 0.21732 0.0
C1182 C 0.50948 0.31833 0.2313 0.0
H1183 H 0.47634 0.34537 0.27755 0.0
H1184 H 0.47708 0.33049 0.25443 0.0
H1185 H 0.4693 0.32258 0.28564 0.0
H1186 H 0.47793 0.30019 0.27722 0.0
H1187 H 0.4684 0.2733 0.25221 0.0
H1188 H 0.69086 0.20423 0.21357 0.0
H1189 H 0.66571 0.18705 0.24194 0.0
H1190 H 0.70022 0.17717 0.28974 0.0
H1191 H 0.7253 0.1938 0.26101 0.0
H1192 H 0.66503 0.14857 0.28916 0.0
H1193 H 0.66755 0.21368 0.30548 0.0
H1194 H 0.66314 0.20611 0.27376 0.0
H1195 H 0.68444 0.21201 0.28768 0.0
C1196 C 0.69298 0.19801 0.22981 0.0
C1197 C 0.71011 0.20061 0.23532 0.0
C1198 C 0.67862 0.18827 0.24603 0.0
C1199 C 0.68127 0.18132 0.26828 0.0
C1200 C 0.69795 0.18255 0.27274 0.0
H1201 H 0.63132 0.17309 0.40877 0.0
H1202 H 0.65099 0.17945 0.37293 0.0
C1203 C 0.71226 0.19206 0.25631 0.0
C1204 C 0.66749 0.17476 0.28818 0.0
H1205 H 0.64553 0.18864 0.3273 0.0
C1206 C 0.66066 0.15725 0.29746 0.0
C1207 C 0.66208 0.18627 0.29923 0.0
C1208 C 0.66978 0.20561 0.29124 0.0
C1209 C 0.64862 0.15099 0.31765 0.0
C1210 C 0.64308 0.16247 0.32845 0.0
C1211 C 0.64973 0.17985 0.31889 0.0
C1212 C 0.6313 0.15735 0.35068 0.0
C1213 C 0.64245 0.13242 0.3278 0.0
C1214 C 0.6137 0.1427 0.35016 0.0
C1215 C 0.6024 0.13892 0.37081 0.0
C1216 C 0.60846 0.14991 0.39212 0.0
C1217 C 0.62617 0.16443 0.3926 0.0
C1218 C 0.63746 0.16807 0.37214 0.0
H1219 H 0.65116 0.12706 0.32137 0.0
H1220 H 0.64232 0.13245 0.34849 0.0
H1221 H 0.62857 0.12316 0.32125 0.0
H1222 H 0.60855 0.13447 0.33361 0.0
H1223 H 0.5888 0.12768 0.36984 0.0
H1224 H 0.81029 0.44754 0.40072 0.0
H1225 H 0.80457 0.45885 0.36217 0.0
H1226 H 0.85454 0.46702 0.33162 0.0
H1227 H 0.86066 0.45613 0.37053 0.0
H1228 H 0.8495 0.49513 0.32148 0.0
H1229 H 0.7882 0.43161 0.29737 0.0
H1230 H 0.78651 0.43891 0.32803 0.0
H1231 H 0.80344 0.43293 0.32151 0.0
C1232 C 0.82007 0.45169 0.38581 0.0
C1233 C 0.83585 0.45078 0.38862 0.0
C1234 C 0.81672 0.45806 0.36372 0.0
C1235 C 0.82892 0.46335 0.34381 0.0
C1236 C 0.84488 0.46284 0.34669 0.0
H1237 H 0.78312 0.4793 0.20826 0.0
H1238 H 0.80104 0.47049 0.23377 0.0
C1239 C 0.84834 0.45661 0.36892 0.0
C1240 C 0.82493 0.4696 0.32021 0.0
H1241 H 0.79151 0.45832 0.27778 0.0
C1242 C 0.83697 0.487 0.31162 0.0
C1243 C 0.80885 0.45881 0.30691 0.0
C1244 C 0.79613 0.43946 0.31378 0.0
C1245 C 0.83274 0.49431 0.29103 0.0
C1246 C 0.81585 0.48411 0.27924 0.0
C1247 C 0.80439 0.4663 0.2869 0.0
C1248 C 0.80886 0.49191 0.26068 0.0
C1249 C 0.84637 0.51293 0.28235 0.0
C1250 C 0.8079 0.50733 0.26668 0.0
C1251 C 0.79798 0.5126 0.25184 0.0
C1252 C 0.78843 0.50225 0.2311 0.0
C1253 C 0.79027 0.48747 0.22423 0.0
C1254 C 0.80049 0.48242 0.23881 0.0
H1255 H 0.86027 0.51567 0.28583 0.0
H1256 H 0.8449 0.5148 0.26219 0.0
H1257 H 0.84459 0.52297 0.29306 0.0
H1258 H 0.81377 0.51462 0.28377 0.0
H1259 H 0.79669 0.52396 0.25774 0.0
H1260 H 0.60989 0.129 0.92056 0.0
H1261 H 0.63538 0.1341 0.89454 0.0
H1262 H 0.65953 0.19124 0.90622 0.0
H1263 H 0.63457 0.18626 0.93276 0.0
H1264 H 0.64154 0.1506 0.85211 0.0
H1265 H 0.70358 0.18702 0.90713 0.0
H1266 H 0.6817 0.17517 0.92163 0.0
H1267 H 0.69055 0.1979 0.91061 0.0
C1268 C 0.62091 0.14261 0.9182 0.0
C1269 C 0.62009 0.15724 0.92852 0.0
C1270 C 0.63548 0.1455 0.90335 0.0
C1271 C 0.64949 0.16304 0.89855 0.0
C1272 C 0.64919 0.17755 0.91012 0.0
H1273 H 0.69732 0.21362 0.76569 0.0
H1274 H 0.67985 0.19897 0.80284 0.0
C1275 C 0.63474 0.17467 0.92513 0.0
C1276 C 0.66261 0.16654 0.87833 0.0
H1277 H 0.70653 0.19413 0.86229 0.0
C1278 C 0.65582 0.15973 0.85453 0.0
C1279 C 0.68131 0.17824 0.88138 0.0
C1280 C 0.68969 0.18481 0.90667 0.0
C1281 C 0.66694 0.16546 0.8335 0.0
C1282 C 0.68523 0.17864 0.83625 0.0
C1283 C 0.69239 0.18431 0.8602 0.0
C1284 C 0.6965 0.18793 0.81433 0.0
C1285 C 0.65884 0.15787 0.80835 0.0
C1286 C 0.71204 0.18709 0.80897 0.0
C1287 C 0.72219 0.19557 0.78768 0.0
C1288 C 0.71697 0.2051 0.77157 0.0
C1289 C 0.70166 0.20629 0.77751 0.0
C1290 C 0.69159 0.19784 0.7987 0.0
H1291 H 0.64681 0.14428 0.81015 0.0
H1292 H 0.65453 0.16675 0.79942 0.0
H1293 H 0.66871 0.157 0.79592 0.0
H1294 H 0.71612 0.17963 0.82099 0.0
H1295 H 0.73396 0.19446 0.78369 0.0
H1296 H 0.86228 0.47616 0.91381 0.0
H1297 H 0.85864 0.49735 0.8874 0.0
H1298 H 0.80147 0.46787 0.9006 0.0
H1299 H 0.80501 0.44709 0.92742 0.0
H1300 H 0.84124 0.48741 0.84527 0.0
H1301 H 0.80961 0.51776 0.90106 0.0
H1302 H 0.82052 0.50667 0.91532 0.0
H1303 H 0.79738 0.49391 0.90548 0.0
C1304 C 0.84901 0.47452 0.9117 0.0
C1305 C 0.83391 0.4598 0.92251 0.0
C1306 C 0.84696 0.48666 0.89661 0.0
C1307 C 0.82981 0.48433 0.89217 0.0
C1308 C 0.8149 0.47029 0.90421 0.0
H1309 H 0.77717 0.48209 0.762 0.0
H1310 H 0.79352 0.47944 0.79727 0.0
C1311 C 0.81694 0.45825 0.91938 0.0
C1312 C 0.8269 0.49436 0.87194 0.0
H1313 H 0.80108 0.51287 0.85667 0.0
C1314 C 0.83288 0.49344 0.84792 0.0
C1315 C 0.81628 0.50255 0.87528 0.0
C1316 C 0.81078 0.50545 0.90078 0.0
C1317 C 0.82717 0.49897 0.82698 0.0
C1318 C 0.81485 0.50518 0.83012 0.0
C1319 C 0.8102 0.50769 0.85426 0.0
C1320 C 0.80522 0.50723 0.80865 0.0
C1321 C 0.83387 0.49747 0.8016 0.0
C1322 C 0.80592 0.52361 0.80383 0.0
C1323 C 0.79641 0.52515 0.7837 0.0
C1324 C 0.78597 0.51028 0.76822 0.0
C1325 C 0.78516 0.49385 0.7734 0.0
C1326 C 0.79462 0.49234 0.79346 0.0
H1327 H 0.84735 0.4987 0.80286 0.0
H1328 H 0.82451 0.48407 0.79359 0.0
H1329 H 0.83465 0.50794 0.78868 0.0
H1330 H 0.81389 0.5352 0.81553 0.0
H1331 H 0.79729 0.53799 0.78027 0.0
H1332 H 0.53805 0.35328 0.95475 0.0
H1333 H 0.52178 0.3277 0.92665 0.0
H1334 H 0.50544 0.35889 0.88212 0.0
H1335 H 0.52098 0.38419 0.9106 0.0
H1336 H 0.4796 0.32371 0.88305 0.0
H1337 H 0.54613 0.3308 0.86117 0.0
H1338 H 0.53937 0.32552 0.89312 0.0
H1339 H 0.54383 0.34673 0.88036 0.0
C1340 C 0.53065 0.35454 0.93928 0.0
C1341 C 0.53107 0.37086 0.93463 0.0
C1342 C 0.52144 0.33995 0.92318 0.0
C1343 C 0.51288 0.3416 0.90188 0.0
C1344 C 0.51207 0.35736 0.89834 0.0
H1345 H 0.50538 0.29947 0.7569 0.0
H1346 H 0.51127 0.31645 0.79548 0.0
C1347 C 0.52101 0.37184 0.91465 0.0
C1348 C 0.50648 0.32789 0.88186 0.0
H1349 H 0.52135 0.30896 0.83901 0.0
C1350 C 0.48865 0.32032 0.87351 0.0
C1351 C 0.51842 0.32372 0.86925 0.0
C1352 C 0.53803 0.33221 0.87622 0.0
C1353 C 0.48258 0.30908 0.85248 0.0
C1354 C 0.49458 0.30501 0.83988 0.0
C1355 C 0.51219 0.31209 0.84876 0.0
C1356 C 0.48982 0.29471 0.81625 0.0
C1357 C 0.46369 0.30237 0.84328 0.0
C1358 C 0.47566 0.27687 0.81501 0.0
C1359 C 0.47211 0.26714 0.79277 0.0
C1360 C 0.48288 0.27504 0.77159 0.0
C1361 C 0.49691 0.29295 0.77291 0.0
C1362 C 0.50029 0.30268 0.79495 0.0
H1363 H 0.45766 0.31 0.85157 0.0
H1364 H 0.46342 0.30336 0.82267 0.0
H1365 H 0.45516 0.28804 0.84854 0.0
H1366 H 0.46764 0.27033 0.83135 0.0
H1367 H 0.46128 0.25332 0.79237 0.0
H1368 H 0.44871 0.63003 0.58694 0.0
H1369 H 0.46162 0.64838 0.624 0.0
H1370 H 0.46181 0.60388 0.66102 0.0
H1371 H 0.44931 0.58547 0.62348 0.0
H1372 H 0.44604 0.64192 0.66903 0.0
H1373 H 0.51204 0.64493 0.67622 0.0
H1374 H 0.49835 0.63722 0.64849 0.0
H1375 H 0.49278 0.62272 0.67513 0.0
C1376 C 0.45162 0.62415 0.60286 0.0
C1377 C 0.44793 0.60627 0.60231 0.0
C1378 C 0.45903 0.63468 0.62403 0.0
C1379 C 0.4628 0.62756 0.64522 0.0
C1380 C 0.45934 0.60977 0.64471 0.0
H1381 H 0.4774 0.68987 0.78083 0.0
H1382 H 0.46811 0.66346 0.7544 0.0
C1383 C 0.4521 0.59924 0.62332 0.0
C1384 C 0.46928 0.63865 0.66809 0.0
H1385 H 0.50493 0.65946 0.70789 0.0
C1386 C 0.45887 0.64566 0.67765 0.0
C1387 C 0.48604 0.64351 0.67921 0.0
C1388 C 0.49806 0.63685 0.66918 0.0
C1389 C 0.465 0.65799 0.69735 0.0
C1390 C 0.48179 0.66293 0.7085 0.0
C1391 C 0.49199 0.65548 0.69949 0.0
C1392 C 0.48963 0.67722 0.7277 0.0
C1393 C 0.45385 0.66633 0.70499 0.0
C1394 C 0.50564 0.69324 0.72257 0.0
C1395 C 0.51122 0.70821 0.73796 0.0
C1396 C 0.50073 0.70743 0.75854 0.0
C1397 C 0.48558 0.69093 0.76485 0.0
C1398 C 0.48022 0.67586 0.74972 0.0
H1399 H 0.44361 0.66424 0.69073 0.0
H1400 H 0.44668 0.66006 0.72259 0.0
H1401 H 0.46246 0.681 0.70814 0.0
H1402 H 0.51319 0.69454 0.70577 0.0
H1403 H 0.52299 0.72073 0.73267 0.0
H1404 H 0.39693 0.86216 0.62317 0.0
H1405 H 0.37811 0.85617 0.66031 0.0
H1406 H 0.34918 0.79976 0.64203 0.0
H1407 H 0.36765 0.80554 0.60499 0.0
H1408 H 0.3275 0.81566 0.65003 0.0
H1409 H 0.37644 0.8302 0.72693 0.0
H1410 H 0.38264 0.8469 0.70289 0.0
H1411 H 0.38048 0.82555 0.69549 0.0
C1412 C 0.38671 0.84845 0.62724 0.0
C1413 C 0.38374 0.83434 0.61102 0.0
C1414 C 0.37603 0.84506 0.6485 0.0
C1415 C 0.36235 0.82752 0.65391 0.0
C1416 C 0.35969 0.8134 0.63814 0.0
H1417 H 0.29304 0.76638 0.76982 0.0
H1418 H 0.31865 0.78424 0.74271 0.0
C1419 C 0.37027 0.81675 0.61695 0.0
C1420 C 0.34984 0.82374 0.67495 0.0
H1421 H 0.34642 0.82025 0.73834 0.0
C1422 C 0.33163 0.81688 0.66937 0.0
C1423 C 0.35537 0.82532 0.70007 0.0
C1424 C 0.37477 0.83229 0.70689 0.0
C1425 C 0.31861 0.81083 0.6882 0.0
C1426 C 0.32404 0.81208 0.71337 0.0
C1427 C 0.34236 0.81951 0.71903 0.0
C1428 C 0.31062 0.80375 0.73356 0.0
C1429 C 0.29906 0.80222 0.68083 0.0
C1430 C 0.29809 0.80932 0.73835 0.0
C1431 C 0.28327 0.79901 0.75367 0.0
C1432 C 0.28088 0.78307 0.76461 0.0
C1433 C 0.29435 0.77847 0.76152 0.0
C1434 C 0.30906 0.78871 0.74608 0.0
H1435 H 0.29704 0.79922 0.66056 0.0
H1436 H 0.29085 0.78952 0.69127 0.0
H1437 H 0.29398 0.81149 0.68534 0.0
H1438 H 0.29927 0.82111 0.72922 0.0
H1439 H 0.27326 0.80306 0.75592 0.0
H1440 H 0.12277 0.52976 0.60886 0.0
H1441 H 0.12576 0.5147 0.64587 0.0
H1442 H 0.18332 0.54322 0.63669 0.0
H1443 H 0.18051 0.55808 0.5997 0.0
H1444 H 0.16787 0.50588 0.64177 0.0
H1445 H 0.14502 0.53506 0.71621 0.0
H1446 H 0.1304 0.52517 0.68982 0.0
H1447 H 0.15177 0.54516 0.68572 0.0
C1448 C 0.13608 0.53296 0.61489 0.0
C1449 C 0.15141 0.54508 0.60126 0.0
C1450 C 0.13775 0.5244 0.63608 0.0
C1451 C 0.15476 0.52794 0.64405 0.0
C1452 C 0.17006 0.5403 0.6308 0.0
H1453 H 0.20809 0.5191 0.7678 0.0
H1454 H 0.19055 0.5257 0.73848 0.0
C1455 C 0.16842 0.54878 0.60965 0.0
C1456 C 0.15689 0.51824 0.66537 0.0
H1457 H 0.15495 0.51524 0.72885 0.0
C1458 C 0.16482 0.50769 0.66082 0.0
C1459 C 0.15286 0.52069 0.6901 0.0
C1460 C 0.14464 0.53221 0.69595 0.0
C1461 C 0.16974 0.50024 0.6804 0.0
C1462 C 0.16619 0.50307 0.70525 0.0
C1463 C 0.15748 0.51295 0.70977 0.0
C1464 C 0.17379 0.49814 0.72658 0.0
C1465 C 0.17976 0.49043 0.67432 0.0
C1466 C 0.16955 0.4803 0.73059 0.0
C1467 C 0.17974 0.47646 0.7472 0.0
C1468 C 0.1942 0.49042 0.76021 0.0
C1469 C 0.19721 0.50803 0.75788 0.0
C1470 C 0.18714 0.51185 0.74117 0.0
H1471 H 0.18426 0.49233 0.65458 0.0
H1472 H 0.19174 0.49512 0.68648 0.0
H1473 H 0.17083 0.47583 0.67754 0.0
H1474 H 0.15901 0.46948 0.7199 0.0
H1475 H 0.1769 0.46272 0.74881 0.0
H1476 H 0.38495 0.8548 0.08777 0.0
H1477 H 0.35917 0.84456 0.11558 0.0
H1478 H 0.32816 0.79885 0.06793 0.0
H1479 H 0.35419 0.8086 0.04057 0.0
H1480 H 0.32438 0.8361 0.11407 0.0
H1481 H 0.32917 0.77487 0.13179 0.0
H1482 H 0.34575 0.79354 0.11389 0.0
H1483 H 0.32467 0.7776 0.09994 0.0
C1484 C 0.37254 0.84275 0.08292 0.0
C1485 C 0.37168 0.83229 0.06227 0.0
C1486 C 0.3578 0.83692 0.09884 0.0
C1487 C 0.34192 0.82066 0.0942 0.0
C1488 C 0.34047 0.81114 0.07226 0.0
H1489 H 0.25094 0.78275 0.19913 0.0
H1490 H 0.26915 0.794 0.16123 0.0
C1491 C 0.35531 0.81678 0.05658 0.0
C1492 C 0.32778 0.81291 0.11362 0.0
H1493 H 0.30682 0.77735 0.15344 0.0
C1494 C 0.32041 0.8232 0.1226 0.0
C1495 C 0.32285 0.79618 0.12494 0.0
C1496 C 0.33112 0.78496 0.11735 0.0
C1497 C 0.30856 0.8174 0.14298 0.0
C1498 C 0.30363 0.80065 0.15421 0.0
C1499 C 0.31058 0.79016 0.14473 0.0
C1500 C 0.29247 0.79427 0.17706 0.0
C1501 C 0.30211 0.82961 0.15299 0.0
C1502 C 0.29937 0.79031 0.19831 0.0
C1503 C 0.28892 0.78358 0.21973 0.0
C1504 C 0.27136 0.78078 0.22043 0.0
C1505 C 0.26447 0.78489 0.19921 0.0
C1506 C 0.2749 0.79143 0.1776 0.0
H1507 H 0.31047 0.84362 0.14616 0.0
H1508 H 0.2881 0.82464 0.14673 0.0
H1509 H 0.30226 0.82977 0.17368 0.0
H1510 H 0.3129 0.7924 0.19832 0.0
H1511 H 0.29467 0.78065 0.23578 0.0
H1512 H 0.13349 0.52611 0.09269 0.0
H1513 H 0.14462 0.51073 0.11931 0.0
H1514 H 0.18981 0.52676 0.07008 0.0
H1515 H 0.17917 0.54288 0.04392 0.0
H1516 H 0.15389 0.48493 0.11631 0.0
H1517 H 0.21434 0.55153 0.13377 0.0
H1518 H 0.19521 0.54912 0.11669 0.0
H1519 H 0.21129 0.54457 0.10178 0.0
C1520 C 0.14561 0.52607 0.08724 0.0
C1521 C 0.15566 0.536 0.0665 0.0
C1522 C 0.15195 0.51725 0.10248 0.0
C1523 C 0.16832 0.51804 0.09706 0.0
C1524 C 0.17744 0.52645 0.07501 0.0
H1525 H 0.21016 0.46668 0.19914 0.0
H1526 H 0.19777 0.473 0.1618 0.0
C1527 C 0.1713 0.53557 0.06001 0.0
C1528 C 0.17662 0.51177 0.11584 0.0
H1529 H 0.21274 0.52685 0.15472 0.0
C1530 C 0.16682 0.49402 0.12461 0.0
C1531 C 0.1934 0.52378 0.12687 0.0
C1532 C 0.20412 0.54334 0.11951 0.0
C1533 C 0.17314 0.48807 0.14454 0.0
C1534 C 0.18989 0.5001 0.15553 0.0
C1535 C 0.19992 0.51765 0.14619 0.0
C1536 C 0.1967 0.4955 0.17811 0.0
C1537 C 0.16145 0.46926 0.15438 0.0
C1538 C 0.20048 0.50621 0.19948 0.0
C1539 C 0.20783 0.50286 0.22054 0.0
C1540 C 0.21146 0.48862 0.2208 0.0
C1541 C 0.2074 0.47768 0.19954 0.0
C1542 C 0.20023 0.4812 0.17826 0.0
H1543 H 0.14737 0.46324 0.1477 0.0
H1544 H 0.16685 0.46063 0.14787 0.0
H1545 H 0.16139 0.46914 0.17507 0.0
H1546 H 0.19784 0.5173 0.19981 0.0
H1547 H 0.21067 0.51147 0.23665 0.0
H1548 H 0.47846 0.69659 0.22118 0.0
H1549 H 0.47681 0.68011 0.18347 0.0
H1550 H 0.53209 0.71847 0.16675 0.0
H1551 H 0.53391 0.73531 0.20463 0.0
H1552 H 0.5085 0.70959 0.12546 0.0
H1553 H 0.49987 0.64869 0.17289 0.0
H1554 H 0.48449 0.65532 0.18463 0.0
H1555 H 0.5083 0.66997 0.18872 0.0
C1556 C 0.49033 0.70158 0.2096 0.0
C1557 C 0.50635 0.71724 0.21604 0.0
C1558 C 0.48938 0.69206 0.1881 0.0
C1559 C 0.50443 0.69789 0.17263 0.0
C1560 C 0.52039 0.71368 0.17863 0.0
H1561 H 0.47739 0.61496 0.06063 0.0
H1562 H 0.49806 0.63977 0.0874 0.0
C1563 C 0.52138 0.72326 0.20026 0.0
C1564 C 0.503 0.68752 0.14991 0.0
H1565 H 0.48806 0.64453 0.13099 0.0
C1566 C 0.50444 0.69546 0.12653 0.0
C1567 C 0.49822 0.66924 0.1513 0.0
C1568 C 0.49783 0.66036 0.17575 0.0
C1569 C 0.49961 0.68511 0.10465 0.0
C1570 C 0.49283 0.66637 0.10639 0.0
C1571 C 0.49301 0.65885 0.12956 0.0
C1572 C 0.4831 0.65388 0.08559 0.0
C1573 C 0.50129 0.6943 0.08003 0.0
C1574 C 0.46816 0.65386 0.07496 0.0
C1575 C 0.45642 0.6398 0.05954 0.0
C1576 C 0.45919 0.62527 0.05478 0.0
C1577 C 0.4748 0.62589 0.06406 0.0
C1578 C 0.48665 0.64007 0.07935 0.0
H1579 H 0.51292 0.70821 0.08022 0.0
H1580 H 0.50294 0.68684 0.06431 0.0
H1581 H 0.48903 0.69524 0.07678 0.0
H1582 H 0.46482 0.66406 0.07996 0.0
H1583 H 0.44455 0.63979 0.05272 0.0
H1584 H 0.1828 0.64066 0.53605 0.0
H1585 H 0.19068 0.66628 0.56353 0.0
H1586 H 0.14265 0.63415 0.60658 0.0
H1587 H 0.13429 0.60879 0.57861 0.0
H1588 H 0.15181 0.66953 0.6064 0.0
H1589 H 0.21091 0.66209 0.6294 0.0
H1590 H 0.20985 0.66777 0.59752 0.0
H1591 H 0.19297 0.64639 0.60965 0.0
C1592 C 0.17366 0.63923 0.55095 0.0
C1593 C 0.15811 0.62262 0.5555 0.0
C1594 C 0.17822 0.65385 0.56669 0.0
C1595 C 0.16756 0.6519 0.58758 0.0
C1596 C 0.15116 0.63589 0.59069 0.0
H1597 H 0.19919 0.69039 0.73422 0.0
H1598 H 0.18844 0.67443 0.69487 0.0
C1599 C 0.1464 0.62139 0.57468 0.0
C1600 C 0.17448 0.66533 0.60797 0.0
H1601 H 0.20743 0.68334 0.65211 0.0
C1602 C 0.16406 0.67273 0.61628 0.0
C1603 C 0.19035 0.66924 0.62105 0.0
C1604 C 0.20161 0.66086 0.61416 0.0
C1605 C 0.16884 0.68356 0.63774 0.0
C1606 C 0.18462 0.68731 0.65084 0.0
C1607 C 0.19535 0.68044 0.64197 0.0
C1608 C 0.18963 0.69693 0.675 0.0
C1609 C 0.15654 0.69016 0.64685 0.0
C1610 C 0.19365 0.71486 0.67701 0.0
C1611 C 0.19966 0.72402 0.6997 0.0
C1612 C 0.20201 0.71545 0.72054 0.0
C1613 C 0.19768 0.69743 0.71848 0.0
C1614 C 0.1915 0.68827 0.696 0.0
H1615 H 0.14314 0.68297 0.63775 0.0
H1616 H 0.15467 0.68847 0.66735 0.0
H1617 H 0.16264 0.70468 0.64255 0.0
H1618 H 0.19263 0.72191 0.66093 0.0
H1619 H 0.20298 0.73794 0.70069 0.0
H1620 H 0.28402 0.51372 0.72793 0.0
H1621 H 0.30293 0.51821 0.69178 0.0
H1622 H 0.27225 0.46164 0.67486 0.0
H1623 H 0.25293 0.45698 0.71103 0.0
H1624 H 0.32384 0.50212 0.68389 0.0
H1625 H 0.27402 0.48612 0.60779 0.0
H1626 H 0.2701 0.49082 0.63924 0.0
H1627 H 0.26814 0.46953 0.63189 0.0
C1628 C 0.28116 0.5022 0.71651 0.0
C1629 C 0.26695 0.48498 0.72242 0.0
C1630 C 0.29201 0.50481 0.69584 0.0
C1631 C 0.28892 0.49029 0.68059 0.0
C1632 C 0.27468 0.47306 0.68621 0.0
H1633 H 0.37738 0.51512 0.57636 0.0
H1634 H 0.35232 0.49693 0.6045 0.0
C1635 C 0.26372 0.47043 0.70693 0.0
C1636 C 0.30117 0.49342 0.65941 0.0
H1637 H 0.30383 0.49573 0.59591 0.0
C1638 C 0.31948 0.5005 0.66462 0.0
C1639 C 0.29535 0.4913 0.63436 0.0
C1640 C 0.27586 0.48414 0.62781 0.0
C1641 C 0.33229 0.50635 0.64551 0.0
C1642 C 0.32655 0.50466 0.62043 0.0
C1643 C 0.30814 0.49684 0.61515 0.0
C1644 C 0.33965 0.5131 0.59987 0.0
C1645 C 0.35193 0.51534 0.65248 0.0
C1646 C 0.34017 0.52747 0.58677 0.0
C1647 C 0.3543 0.53774 0.5705 0.0
C1648 C 0.36826 0.53387 0.5671 0.0
C1649 C 0.36698 0.51861 0.57881 0.0
C1650 C 0.35271 0.50824 0.59497 0.0
H1651 H 0.35414 0.51861 0.67267 0.0
H1652 H 0.35718 0.50619 0.64809 0.0
H1653 H 0.35986 0.52794 0.64171 0.0
H1654 H 0.33017 0.5314 0.59019 0.0
H1655 H 0.35475 0.54929 0.56164 0.0
H1656 H 0.5351 0.79765 0.70456 0.0
H1657 H 0.53131 0.8126 0.66801 0.0
H1658 H 0.47524 0.79032 0.68595 0.0
H1659 H 0.47885 0.77555 0.72245 0.0
H1660 H 0.50799 0.79832 0.62639 0.0
H1661 H 0.49414 0.84462 0.68103 0.0
H1662 H 0.50407 0.83238 0.69465 0.0
H1663 H 0.48011 0.82168 0.69045 0.0
C1664 C 0.52195 0.79591 0.70069 0.0
C1665 C 0.5073 0.78553 0.71657 0.0
C1666 C 0.51984 0.80446 0.67982 0.0
C1667 C 0.50309 0.80284 0.67463 0.0
C1668 C 0.48837 0.79206 0.68999 0.0
H1669 H 0.44329 0.80521 0.55574 0.0
H1670 H 0.46354 0.80041 0.58197 0.0
C1671 C 0.49045 0.78355 0.71079 0.0
C1672 C 0.50069 0.81225 0.65319 0.0
H1673 H 0.48347 0.83922 0.63865 0.0
C1674 C 0.50298 0.80756 0.62897 0.0
C1675 C 0.49467 0.82469 0.65658 0.0
C1676 C 0.4933 0.8313 0.6821 0.0
C1677 C 0.49794 0.81388 0.60807 0.0
C1678 C 0.49012 0.82483 0.61165 0.0
C1679 C 0.48927 0.83067 0.6358 0.0
C1680 C 0.48057 0.82848 0.59149 0.0
C1681 C 0.50066 0.8084 0.58247 0.0
C1682 C 0.48344 0.84591 0.58775 0.0
C1683 C 0.47159 0.84867 0.57306 0.0
C1684 C 0.45665 0.83403 0.56187 0.0
C1685 C 0.45463 0.8168 0.56409 0.0
C1686 C 0.46636 0.81404 0.57894 0.0
H1687 H 0.51272 0.8068 0.58207 0.0
H1688 H 0.48888 0.79521 0.57761 0.0
H1689 H 0.5022 0.81838 0.56809 0.0
H1690 H 0.49428 0.85725 0.59731 0.0
H1691 H 0.4736 0.86213 0.57161 0.0
H1692 H 0.28104 0.46674 0.24839 0.0
H1693 H 0.30633 0.47366 0.22078 0.0
H1694 H 0.32875 0.53015 0.23628 0.0
H1695 H 0.30393 0.52336 0.2643 0.0
H1696 H 0.31135 0.4919 0.17942 0.0
H1697 H 0.37375 0.52722 0.23426 0.0
H1698 H 0.35199 0.51418 0.24878 0.0
H1699 H 0.36004 0.53717 0.23969 0.0
C1700 C 0.29163 0.48059 0.24649 0.0
C1701 C 0.29035 0.49451 0.25836 0.0
C1702 C 0.30609 0.48452 0.23071 0.0
C1703 C 0.31953 0.50241 0.22659 0.0
C1704 C 0.31882 0.51621 0.23959 0.0
H1705 H 0.36775 0.55711 0.09476 0.0
H1706 H 0.35022 0.54207 0.13175 0.0
C1707 C 0.30446 0.5123 0.25547 0.0
C1708 C 0.33254 0.50699 0.20588 0.0
H1709 H 0.37637 0.5352 0.19002 0.0
C1710 C 0.32563 0.50102 0.18187 0.0
C1711 C 0.35122 0.51871 0.20899 0.0
C1712 C 0.35967 0.52451 0.2344 0.0
C1713 C 0.33666 0.50747 0.16079 0.0
C1714 C 0.35498 0.5205 0.16376 0.0
C1715 C 0.36221 0.52546 0.1878 0.0
C1716 C 0.36632 0.53014 0.14206 0.0
C1717 C 0.32846 0.5007 0.13542 0.0
C1718 C 0.38155 0.52891 0.13611 0.0
C1719 C 0.39172 0.53758 0.11493 0.0
C1720 C 0.38682 0.54771 0.0995 0.0
C1721 C 0.37184 0.54932 0.10606 0.0
C1722 C 0.36174 0.54066 0.12715 0.0
H1723 H 0.31623 0.48722 0.13665 0.0
H1724 H 0.32447 0.51008 0.12729 0.0
H1725 H 0.33819 0.49993 0.12259 0.0
H1726 H 0.38536 0.52095 0.14756 0.0
H1727 H 0.40322 0.53613 0.11046 0.0
H1728 H 0.52449 0.80583 0.2499 0.0
H1729 H 0.51931 0.82579 0.22299 0.0
H1730 H 0.4621 0.79164 0.23219 0.0
H1731 H 0.46711 0.77199 0.2595 0.0
H1732 H 0.50323 0.81526 0.17951 0.0
H1733 H 0.46575 0.83989 0.23447 0.0
H1734 H 0.47784 0.83007 0.24892 0.0
H1735 H 0.45532 0.81598 0.23738 0.0
C1736 C 0.51082 0.80285 0.24677 0.0
C1737 C 0.4962 0.78721 0.25668 0.0
C1738 C 0.50789 0.81428 0.23138 0.0
C1739 C 0.49032 0.81033 0.22574 0.0
C1740 C 0.47578 0.79526 0.23674 0.0
H1741 H 0.44225 0.81204 0.09122 0.0
H1742 H 0.45638 0.80758 0.12778 0.0
C1743 C 0.47868 0.7839 0.2522 0.0
C1744 C 0.48697 0.82008 0.20555 0.0
H1745 H 0.45996 0.83711 0.18955 0.0
C1746 C 0.49411 0.82044 0.18188 0.0
C1747 C 0.47529 0.8271 0.20859 0.0
C1748 C 0.46829 0.82842 0.23382 0.0
C1749 C 0.48883 0.82636 0.1609 0.0
C1750 C 0.47579 0.83169 0.16359 0.0
C1751 C 0.4697 0.83267 0.18748 0.0
C1752 C 0.46722 0.8347 0.14164 0.0
C1753 C 0.49687 0.82633 0.1359 0.0
C1754 C 0.46816 0.8513 0.13774 0.0
C1755 C 0.45997 0.85389 0.11683 0.0
C1756 C 0.4506 0.83987 0.09963 0.0
C1757 C 0.44945 0.82318 0.10395 0.0
C1758 C 0.45762 0.82062 0.12477 0.0
H1759 H 0.51034 0.82765 0.13802 0.0
H1760 H 0.48805 0.8134 0.12633 0.0
H1761 H 0.49813 0.83743 0.12388 0.0
H1762 H 0.47538 0.86227 0.15071 0.0
H1763 H 0.46106 0.8669 0.11412 0.0
H1764 H 0.17883 0.7151 0.25378 0.0
H1765 H 0.15898 0.68964 0.22736 0.0
H1766 H 0.19218 0.66584 0.24024 0.0
H1767 H 0.21165 0.69079 0.26717 0.0
H1768 H 0.16987 0.68342 0.18518 0.0
H1769 H 0.1439 0.6217 0.24125 0.0
H1770 H 0.15377 0.64369 0.25537 0.0
H1771 H 0.16777 0.63486 0.24485 0.0
C1772 C 0.1816 0.70417 0.25157 0.0
C1773 C 0.19694 0.70507 0.2624 0.0
C1774 C 0.17022 0.68962 0.23648 0.0
C1775 C 0.17397 0.67572 0.23194 0.0
C1776 C 0.18869 0.67611 0.24392 0.0
H1777 H 0.17408 0.62535 0.09872 0.0
H1778 H 0.17818 0.64392 0.13517 0.0
C1779 C 0.19996 0.69054 0.25917 0.0
C1780 C 0.16452 0.66249 0.21179 0.0
H1781 H 0.14764 0.61835 0.19661 0.0
C1782 C 0.16459 0.66913 0.18785 0.0
C1783 C 0.15738 0.6438 0.21519 0.0
C1784 C 0.15552 0.63562 0.24065 0.0
C1785 C 0.159 0.65781 0.16701 0.0
C1786 C 0.1536 0.63946 0.17012 0.0
C1787 C 0.15216 0.63252 0.19422 0.0
C1788 C 0.15088 0.62774 0.14845 0.0
C1789 C 0.15943 0.66574 0.14174 0.0
C1790 C 0.13433 0.61213 0.14432 0.0
C1791 C 0.13194 0.60135 0.12349 0.0
C1792 C 0.14614 0.606 0.10658 0.0
C1793 C 0.16281 0.62144 0.1112 0.0
C1794 C 0.16516 0.63215 0.13197 0.0
H1795 H 0.15806 0.6779 0.14335 0.0
H1796 H 0.17252 0.6698 0.13266 0.0
H1797 H 0.14854 0.65585 0.12952 0.0
H1798 H 0.1232 0.60843 0.15699 0.0
H1799 H 0.11895 0.5895 0.12053 0.0
H1800 H 0.1547 0.204 0.33151 0.0
H1801 H 0.16806 0.19329 0.30058 0.0
H1802 H 0.11598 0.16028 0.26717 0.0
H1803 H 0.10253 0.17115 0.29778 0.0
H1804 H 0.15994 0.15834 0.29353 0.0
H1805 H 0.14757 0.18594 0.20713 0.0
H1806 H 0.14572 0.1935 0.23781 0.0
H1807 H 0.12769 0.1729 0.22542 0.0
C1808 C 0.14611 0.19461 0.31741 0.0
C1809 C 0.12756 0.18841 0.31704 0.0
C1810 C 0.15377 0.1885 0.29979 0.0
C1811 C 0.14304 0.17616 0.28146 0.0
C1812 C 0.12455 0.17009 0.28087 0.0
H1813 H 0.16421 0.10331 0.19671 0.0
H1814 H 0.1542 0.1176 0.22724 0.0
C1815 C 0.11688 0.17624 0.29844 0.0
C1816 C 0.15102 0.1689 0.26383 0.0
H1817 H 0.15653 0.16396 0.20195 0.0
C1818 C 0.15932 0.15967 0.2735 0.0
C1819 C 0.15038 0.17086 0.23776 0.0
C1820 C 0.14252 0.18149 0.22637 0.0
C1821 C 0.16663 0.15195 0.25774 0.0
C1822 C 0.16528 0.15324 0.23166 0.0
C1823 C 0.15737 0.16284 0.22199 0.0
C1824 C 0.17188 0.14465 0.21399 0.0
C1825 C 0.17588 0.14266 0.26916 0.0
C1826 C 0.18494 0.15512 0.19625 0.0
C1827 C 0.19057 0.14699 0.17868 0.0
C1828 C 0.18317 0.12824 0.17851 0.0
C1829 C 0.17023 0.11779 0.19649 0.0
C1830 C 0.16457 0.12594 0.21401 0.0
H1831 H 0.18019 0.14717 0.28862 0.0
H1832 H 0.1664 0.12796 0.26955 0.0
H1833 H 0.18783 0.14516 0.25808 0.0
H1834 H 0.1907 0.16957 0.19591 0.0
H1835 H 0.20057 0.15539 0.16507 0.0
H1836 H 0.82019 0.92733 0.2995 0.0
H1837 H 0.832 0.95148 0.26854 0.0
H1838 H 0.79765 0.97045 0.29764 0.0
H1839 H 0.78599 0.94655 0.32892 0.0
H1840 H 0.81493 0.96042 0.2316 0.0
H1841 H 0.84791 0.01479 0.3019 0.0
H1842 H 0.83946 0.99143 0.30932 0.0
H1843 H 0.82429 6e-05 0.30687 0.0
C1844 C 0.81509 0.93659 0.29923 0.0
C1845 C 0.80231 0.93518 0.31679 0.0
C1846 C 0.82183 0.95035 0.28154 0.0
C1847 C 0.81592 0.96291 0.28115 0.0
C1848 C 0.80266 0.96111 0.29802 0.0
H1849 H 0.8376 0.04047 0.16262 0.0
H1850 H 0.82312 0.01578 0.19252 0.0
C1851 C 0.79595 0.9474 0.31578 0.0
C1852 C 0.82391 0.97807 0.26338 0.0
H1853 H 0.84838 0.02381 0.26009 0.0
C1854 C 0.82223 0.97429 0.23777 0.0
C1855 C 0.83362 -0.00389 0.27159 0.0
C1856 C 0.83661 0.0009 0.29891 0.0
C1857 C 0.82995 0.98813 0.22008 0.0
C1858 C 0.83931 0.00619 0.22829 0.0
C1859 C 0.84105 0.00995 0.2539 0.0
C1860 C 0.8479 0.02139 0.21063 0.0
C1861 C 0.8284 0.98329 0.1928 0.0
C1862 C 0.86654 0.03305 0.21149 0.0
C1863 C 0.87482 0.04726 0.19462 0.0
C1864 C 0.86458 0.05005 0.17662 0.0
C1865 C 0.84586 0.03857 0.17615 0.0
C1866 C 0.83758 0.0244 0.1931 0.0
H1867 H 0.82482 0.96907 0.19002 0.0
H1868 H 0.8177 0.98516 0.1842 0.0
H1869 H 0.84118 0.99208 0.18284 0.0
H1870 H 0.87471 0.03098 0.22501 0.0
H1871 H 0.88927 0.05589 0.19547 0.0
H1872 H 0.94334 0.79083 0.15804 0.0
H1873 H 0.96807 0.80254 0.18799 0.0
H1874 H 0.94957 0.83649 0.21997 0.0
H1875 H 0.92463 0.82468 0.19029 0.0
H1876 H -0.00506 0.83818 0.19283 0.0
H1877 H 0.95678 0.81217 0.28102 0.0
H1878 H 0.9469 0.80371 0.25082 0.0
H1879 H 0.94946 0.82456 0.26212 0.0
C1880 C 0.94441 0.80065 0.17163 0.0
C1881 C 0.93205 0.80684 0.17184 0.0
C1882 C 0.95856 0.80733 0.18868 0.0
C1883 C 0.96053 0.82025 0.20629 0.0
C1884 C 0.94808 0.82629 0.20679 0.0
H1885 H 0.05669 0.89306 0.28855 0.0
H1886 H 0.03175 0.87941 0.25885 0.0
C1887 C 0.93389 0.81958 0.18977 0.0
C1888 C 0.97613 0.82802 0.22331 0.0
H1889 H 0.98787 0.83362 0.28474 0.0
C1890 C 0.99343 0.83713 0.21293 0.0
C1891 C 0.97406 0.82644 0.24948 0.0
C1892 C 0.95581 0.81605 0.26158 0.0
C1893 C 0.00877 0.84498 0.22808 0.0
C1894 C 0.00668 0.8439 0.25426 0.0
C1895 C 0.98939 0.83455 0.26463 0.0
C1896 C 0.02225 0.85215 0.27131 0.0
C1897 C 0.02706 0.85411 0.21596 0.0
C1898 C 0.02502 0.84135 0.28825 0.0
C1899 C 0.03914 0.84909 0.30529 0.0
C1900 C 0.0507 0.8678 0.30576 0.0
C1901 C 0.04806 0.87859 0.28853 0.0
C1902 C 0.03387 0.87082 0.2715 0.0
H1903 H 0.02641 0.8498 0.19628 0.0
H1904 H 0.03255 0.86886 0.21609 0.0
H1905 H 0.03654 0.85122 0.2263 0.0
H1906 H 0.01616 0.82691 0.28839 0.0
H1907 H 0.04084 0.84041 0.31831 0.0
H1908 H 0.89449 0.83038 0.69123 0.0
H1909 H 0.88205 0.84268 0.72136 0.0
H1910 H 0.82857 0.80588 0.69497 0.0
H1911 H 0.84086 0.79373 0.66462 0.0
H1912 H 0.8359 0.84105 0.69749 0.0
H1913 H 0.85418 0.82036 0.78576 0.0
H1914 H 0.87267 0.83264 0.7648 0.0
H1915 H 0.85463 0.81087 0.75593 0.0
C1916 C 0.88007 0.82479 0.69206 0.0
C1917 C 0.86865 0.81111 0.67556 0.0
C1918 C 0.87299 0.83177 0.70933 0.0
C1919 C 0.85439 0.82506 0.71051 0.0
C1920 C 0.84296 0.81122 0.69434 0.0
H1921 H 0.79511 0.84423 0.8248 0.0
H1922 H 0.80697 0.83122 0.79508 0.0
C1923 C 0.85001 0.80428 0.67705 0.0
C1924 C 0.84682 0.83299 0.72773 0.0
H1925 H 0.84265 0.84028 0.78922 0.0
C1926 C 0.83733 0.84086 0.71756 0.0
C1927 C 0.84858 0.83253 0.75387 0.0
C1928 C 0.85792 0.82351 0.76582 0.0
C1929 C 0.82964 0.84844 0.73287 0.0
C1930 C 0.8318 0.8484 0.75897 0.0
C1931 C 0.84116 0.84039 0.76916 0.0
C1932 C 0.82417 0.85631 0.77614 0.0
C1933 C 0.81898 0.8561 0.721 0.0
C1934 C 0.82991 0.87472 0.77524 0.0
C1935 C 0.8231 0.8822 0.79213 0.0
C1936 C 0.81057 0.87138 0.81032 0.0
C1937 C 0.80475 0.85291 0.811 0.0
C1938 C 0.81153 0.84546 0.79409 0.0
H1939 H 0.81479 0.85104 0.7017 0.0
H1940 H 0.8068 0.85274 0.73213 0.0
H1941 H 0.82741 0.87095 0.72013 0.0
H1942 H 0.8399 0.88337 0.76178 0.0
H1943 H 0.82791 0.89649 0.79125 0.0
H1944 H 0.19689 0.03995 0.66178 0.0
H1945 H 0.18534 0.01581 0.69267 0.0
H1946 H 0.1507 0.03421 0.72241 0.0
H1947 H 0.16242 0.05863 0.69185 0.0
H1948 H 0.16808 0.02598 0.75891 0.0
H1949 H 0.13588 0.97073 0.68984 0.0
H1950 H 0.15938 0.98571 0.68436 0.0
H1951 H 0.14385 0.99392 0.68188 0.0
C1952 C 0.18684 0.03889 0.67493 0.0
C1953 C 0.18046 0.0511 0.6743 0.0
C1954 C 0.18019 0.02503 0.69245 0.0
C1955 C 0.16691 0.02303 0.70944 0.0
C1956 C 0.16086 0.03547 0.7093 0.0
H1957 H 0.09828 0.9295 0.79882 0.0
H1958 H 0.11085 0.95374 0.76799 0.0
C1959 C 0.16757 0.0494 0.69186 0.0
C1960 C 0.15938 0.00802 0.72748 0.0
H1961 H 0.13676 0.96226 0.73173 0.0
C1962 C 0.16119 0.01204 0.753 0.0
C1963 C 0.15021 0.98987 0.71964 0.0
C1964 C 0.14703 0.98474 0.69244 0.0
C1965 C 0.15425 -0.00162 0.77099 0.0
C1966 C 0.1456 0.98023 0.76316 0.0
C1967 C 0.14358 0.9762 0.73763 0.0
C1968 C 0.13821 0.96523 0.78121 0.0
C1969 C 0.15595 0.00349 0.79817 0.0
C1970 C 0.14951 0.96345 0.79842 0.0
C1971 C 0.14237 0.9497 0.81609 0.0
C1972 C 0.12382 0.93738 0.81668 0.0
C1973 C 0.11261 0.93882 0.79886 0.0
C1974 C 0.11977 0.95265 0.78126 0.0
H1975 H 0.15858 0.01744 0.80071 0.0
H1976 H 0.14357 0.99419 0.80861 0.0
H1977 H 0.16736 0.00269 0.80646 0.0
H1978 H 0.16384 0.97279 0.79828 0.0
H1979 H 0.15136 0.94882 0.82944 0.0
H1980 H 0.9307 0.10135 0.69456 0.0
H1981 H 0.95465 0.11474 0.72567 0.0
H1982 H 0.97224 0.16731 0.69473 0.0
H1983 H 0.94856 0.154 0.66326 0.0
H1984 H -0.0001 0.16068 0.70155 0.0
H1985 H 0.95854 0.14405 0.78723 0.0
H1986 H 0.95285 0.12483 0.76803 0.0
H1987 H 0.94933 0.1425 0.75649 0.0
C1988 C 0.93955 0.11578 0.69455 0.0
C1989 C 0.93776 0.12664 0.67649 0.0
C1990 C 0.95317 0.12342 0.7124 0.0
C1991 C 0.96506 0.14203 0.71268 0.0
C1992 C 0.96316 0.15291 0.69486 0.0
H1993 H 0.04059 0.19845 0.83242 0.0
H1994 H 0.01677 0.18838 0.8012 0.0
C1995 C 0.94961 0.14529 0.67693 0.0
C1996 C 0.98004 0.15006 0.73075 0.0
H1997 H 0.98969 0.1541 0.79287 0.0
C1998 C -0.00232 0.15936 0.72153 0.0
C1999 C 0.97709 0.14851 0.75677 0.0
C2000 C 0.95843 0.13959 0.76776 0.0
C2001 C 0.0125 0.16681 0.73766 0.0
C2002 C 0.00955 0.16456 0.76366 0.0
C2003 C 0.9919 0.15563 0.7729 0.0
C2004 C 0.02455 0.17129 0.78168 0.0
C2005 C 0.03114 0.1772 0.72673 0.0
C2006 C 0.03681 0.165 0.78101 0.0
C2007 C 0.0505 0.17081 0.79873 0.0
C2008 C 0.05201 0.18283 0.81759 0.0
C2009 C 0.03976 0.18917 0.81812 0.0
C2010 C 0.02614 0.18343 0.80033 0.0
H2011 H 0.03091 0.18205 0.70761 0.0
H2012 H 0.04004 0.18892 0.73855 0.0
H2013 H 0.03702 0.16829 0.72558 0.0
H2014 H 0.03557 0.15532 0.76708 0.0
H2015 H 0.05967 0.1656 0.79795 0.0
H2016 H 0.81208 0.53203 0.6559 0.0
H2017 H 0.82312 0.51819 0.62634 0.0
H2018 H 0.76893 0.48245 0.60154 0.0
H2019 H 0.75769 0.49633 0.63109 0.0
H2020 H 0.81264 0.4809 0.62567 0.0
H2021 H 0.79817 0.50434 0.53647 0.0
H2022 H 0.79909 0.51483 0.56602 0.0
H2023 H 0.77986 0.4936 0.55821 0.0
C2024 C 0.8025 0.52134 0.64401 0.0
C2025 C 0.78401 0.51525 0.64582 0.0
C2026 C 0.80883 0.51343 0.6272 0.0
C2027 C 0.79683 0.49937 0.61178 0.0
C2028 C 0.77839 0.49343 0.61314 0.0
H2029 H 0.82676 0.43047 0.52834 0.0
H2030 H 0.81213 0.44109 0.55753 0.0
C2031 C 0.77201 0.50135 0.63002 0.0
C2032 C 0.80375 0.49063 0.59495 0.0
H2033 H 0.8106 0.48536 0.53368 0.0
C2034 C 0.81212 0.48175 0.60554 0.0
C2035 C 0.80309 0.49192 0.56877 0.0
C2036 C 0.7947 0.50178 0.55656 0.0
C2037 C 0.82015 0.47433 0.59058 0.0
C2038 C 0.81956 0.47568 0.5644 0.0
C2039 C 0.81094 0.48432 0.5538 0.0
C2040 C 0.82868 0.46913 0.54761 0.0
C2041 C 0.8297 0.46565 0.60291 0.0
C2042 C 0.84274 0.48138 0.53239 0.0
C2043 C 0.85104 0.47538 0.5157 0.0
C2044 C 0.84538 0.45699 0.51388 0.0
C2045 C 0.83149 0.44474 0.52947 0.0
C2046 C 0.82314 0.45077 0.54616 0.0
H2047 H 0.83213 0.46903 0.62304 0.0
H2048 H 0.82133 0.45083 0.60119 0.0
H2049 H 0.84279 0.46988 0.59367 0.0
H2050 H 0.84721 0.4956 0.53331 0.0
H2051 H 0.86172 0.48514 0.50396 0.0
H2052 H 0.48988 0.26372 0.62994 0.0
H2053 H 0.50104 0.28794 0.5991 0.0
H2054 H 0.46434 0.30432 0.62703 0.0
H2055 H 0.45331 0.28036 0.65818 0.0
H2056 H 0.48339 0.29555 0.56164 0.0
H2057 H 0.51325 0.35032 0.6318 0.0
H2058 H 0.5059 0.3272 0.63942 0.0
H2059 H 0.4898 0.33465 0.63647 0.0
C2060 C 0.48413 0.27243 0.62944 0.0
C2061 C 0.47085 0.27027 0.64663 0.0
C2062 C 0.49052 0.28624 0.61183 0.0
C2063 C 0.48374 0.29809 0.61115 0.0
C2064 C 0.47001 0.29555 0.62766 0.0
H2065 H 0.50084 0.37355 0.49184 0.0
H2066 H 0.48776 0.34906 0.52221 0.0
C2067 C 0.46367 0.2818 0.64534 0.0
C2068 C 0.4912 0.31323 0.59334 0.0
H2069 H 0.51322 0.359 0.58987 0.0
C2070 C 0.48992 0.30943 0.56776 0.0
C2071 C 0.49992 0.3313 0.60149 0.0
C2072 C 0.50248 0.33618 0.62879 0.0
C2073 C 0.49701 0.32327 0.55002 0.0
C2074 C 0.50529 0.34133 0.55815 0.0
C2075 C 0.5067 0.34512 0.58374 0.0
C2076 C 0.51301 0.35651 0.54041 0.0
C2077 C 0.49592 0.31844 0.52278 0.0
C2078 C 0.53142 0.36916 0.54121 0.0
C2079 C 0.53891 0.38327 0.52407 0.0
C2080 C 0.52808 0.38494 0.50586 0.0
C2081 C 0.50955 0.37251 0.50552 0.0
C2082 C 0.50207 0.35846 0.52274 0.0
H2083 H 0.49338 0.30453 0.52014 0.0
H2084 H 0.48469 0.31931 0.51401 0.0
H2085 H 0.50852 0.32787 0.51288 0.0
H2086 H 0.54005 0.36793 0.55484 0.0
H2087 H 0.55322 0.39266 0.52482 0.0
H2088 H 0.59073 0.15498 0.52943 0.0
H2089 H 0.61545 0.16755 0.55953 0.0
H2090 H 0.63309 0.13155 0.53276 0.0
H2091 H 0.60859 0.11906 0.50245 0.0
H2092 H 0.62517 0.15122 0.59759 0.0
H2093 H 0.67749 0.18187 0.52413 0.0
H2094 H 0.65397 0.17355 0.51799 0.0
H2095 H 0.66239 0.15819 0.52038 0.0
C2096 C 0.59978 0.14964 0.5301 0.0
C2097 C 0.59785 0.13618 0.51341 0.0
C2098 C 0.61388 0.15684 0.54728 0.0
C2099 C 0.62625 0.1507 0.54796 0.0
C2100 C 0.62388 0.13671 0.53211 0.0
H2101 H 0.70586 0.17029 0.66076 0.0
H2102 H 0.6804 0.15716 0.63204 0.0
C2103 C 0.60983 0.12954 0.51491 0.0
C2104 C 0.64188 0.15921 0.56485 0.0
H2105 H 0.68771 0.18281 0.56549 0.0
C2106 C 0.63885 0.15817 0.59063 0.0
C2107 C 0.65967 0.16848 0.55559 0.0
C2108 C 0.66364 0.17078 0.52801 0.0
C2109 C 0.65323 0.16589 0.6075 0.0
C2110 C 0.67102 0.17461 0.59825 0.0
C2111 C 0.67403 0.17595 0.57246 0.0
C2112 C 0.68673 0.1825 0.61507 0.0
C2113 C 0.64925 0.16485 0.63503 0.0
C2114 C 0.69904 0.201 0.61436 0.0
C2115 C 0.71369 0.20855 0.63061 0.0
C2116 C 0.71627 0.19765 0.64774 0.0
C2117 C 0.70416 0.17905 0.6479 0.0
C2118 C 0.68954 0.17153 0.63164 0.0
H2119 H 0.6353 0.16192 0.63864 0.0
H2120 H 0.65077 0.15387 0.64344 0.0
H2121 H 0.65874 0.1776 0.64454 0.0
H2122 H 0.69713 0.20964 0.60152 0.0
H2123 H 0.72282 0.22292 0.63003 0.0
H2124 H 0.5073 0.12745 -0.00368 0.0
H2125 H 0.49478 0.13948 0.02654 0.0
H2126 H 0.54791 0.1751 0.05511 0.0
H2127 H 0.56057 0.1629 0.02515 0.0
H2128 H 0.52238 0.15831 0.0922 0.0
H2129 H 0.49888 0.18881 0.02106 0.0
H2130 H 0.49056 0.16527 0.01636 0.0
H2131 H 0.51426 0.18088 0.01387 0.0
C2132 C 0.51633 0.13782 0.00907 0.0
C2133 C 0.53493 0.14435 0.00825 0.0
C2134 C 0.50916 0.14474 0.02621 0.0
C2135 C 0.52048 0.15843 0.04264 0.0
C2136 C 0.53899 0.16462 0.0424 0.0
H2137 H 0.49208 0.22625 0.12848 0.0
H2138 H 0.505 0.21426 0.09868 0.0
C2139 C 0.54619 0.15764 0.02532 0.0
C2140 C 0.51295 0.16625 0.06012 0.0
H2141 H 0.48889 0.18801 0.06264 0.0
C2142 C 0.51512 0.16488 0.08578 0.0
C2143 C 0.50372 0.17502 0.05161 0.0
C2144 C 0.50185 0.17777 0.02422 0.0
C2145 C 0.50797 0.17175 0.10324 0.0
C2146 C 0.49812 0.17988 0.09473 0.0
C2147 C 0.49627 0.18158 0.06907 0.0
C2148 C 0.48982 0.18692 0.1122 0.0
C2149 C 0.51125 0.17047 0.13061 0.0
C2150 C 0.4767 0.17541 0.12919 0.0
C2151 C 0.46935 0.18221 0.14626 0.0
C2152 C 0.47489 0.20062 0.14644 0.0
C2153 C 0.48758 0.21201 0.12882 0.0
C2154 C 0.49498 0.2052 0.11182 0.0
H2155 H 0.52286 0.16837 0.13365 0.0
H2156 H 0.51376 0.1828 0.1407 0.0
H2157 H 0.49919 0.15887 0.13886 0.0
H2158 H 0.47222 0.16117 0.12935 0.0
H2159 H 0.45948 0.17307 0.15948 0.0
H2160 H 0.85532 0.37155 0.99178 0.0
H2161 H 0.8416 0.34679 0.02153 0.0
H2162 H 0.80796 0.36703 0.04922 0.0
H2163 H 0.82184 0.3921 0.01967 0.0
H2164 H 0.82386 0.35785 0.08658 0.0
H2165 H 0.79152 0.30269 0.01772 0.0
H2166 H 0.8151 0.31705 0.01207 0.0
H2167 H 0.80015 0.32597 0.00955 0.0
C2168 C 0.84498 0.37074 0.00416 0.0
C2169 C 0.83958 0.38371 0.00333 0.0
C2170 C 0.83706 0.3565 0.02101 0.0
C2171 C 0.8235 0.35488 0.03715 0.0
C2172 C 0.81829 0.36798 0.0367 0.0
H2173 H 0.76075 0.25974 0.13002 0.0
H2174 H 0.76955 0.28356 0.09883 0.0
C2175 C 0.82625 0.38228 0.01987 0.0
C2176 C 0.81532 0.33987 0.05515 0.0
H2177 H 0.79405 0.29415 0.05942 0.0
C2178 C 0.81717 0.34392 0.08066 0.0
C2179 C 0.80634 0.32171 0.04734 0.0
C2180 C 0.80298 0.31656 0.02017 0.0
C2181 C 0.81093 0.33027 0.09864 0.0
C2182 C 0.80296 0.31217 0.09081 0.0
C2183 C 0.80041 0.30807 0.06531 0.0
C2184 C 0.79771 0.29737 0.10883 0.0
C2185 C 0.81298 0.33537 0.12585 0.0
C2186 C 0.81073 0.29701 0.12418 0.0
C2187 C 0.80578 0.28351 0.14195 0.0
C2188 C 0.78771 0.27002 0.14455 0.0
C2189 C 0.77477 0.26999 0.12848 0.0
C2190 C 0.77975 0.28358 0.11072 0.0
H2191 H 0.8144 0.34884 0.1286 0.0
H2192 H 0.80129 0.32537 0.13686 0.0
H2193 H 0.82526 0.33583 0.13327 0.0
H2194 H 0.82473 0.3073 0.12255 0.0
H2195 H 0.81608 0.28379 0.15389 0.0
H2196 H 0.5891 0.42915 0.03765 0.0
H2197 H 0.61356 0.44179 0.06817 0.0
H2198 H 0.62951 0.49521 0.04209 0.0
H2199 H 0.60535 0.48271 0.01133 0.0
H2200 H 0.65749 0.48829 0.04379 0.0
H2201 H 0.61953 0.46933 0.1329 0.0
H2202 H 0.61341 0.45094 0.11181 0.0
H2203 H 0.60917 0.46874 0.10337 0.0
C2204 C 0.59766 0.4436 0.0387 0.0
C2205 C 0.59537 0.45494 0.02207 0.0
C2206 C 0.61157 0.4508 0.05619 0.0
C2207 C 0.62324 0.46944 0.05748 0.0
C2208 C 0.62063 0.48079 0.04137 0.0
H2209 H 0.70277 0.53004 0.16971 0.0
H2210 H 0.67729 0.51735 0.141 0.0
C2211 C 0.60682 0.47362 0.02384 0.0
C2212 C 0.63889 0.47712 0.07441 0.0
H2213 H 0.65109 0.48135 0.13561 0.0
C2214 C 0.65611 0.48682 0.06388 0.0
C2215 C 0.63699 0.47527 0.10058 0.0
C2216 C 0.61878 0.46565 0.11291 0.0
C2217 C 0.67154 0.49469 0.07884 0.0
C2218 C 0.66966 0.49248 0.10496 0.0
C2219 C 0.65245 0.48288 0.11553 0.0
C2220 C 0.6854 0.50041 0.12175 0.0
C2221 C 0.68967 0.50559 0.06659 0.0
C2222 C 0.69837 0.49507 0.12036 0.0
C2223 C 0.71301 0.50238 0.13664 0.0
C2224 C 0.71479 0.515 0.15472 0.0
C2225 C 0.70178 0.52035 0.15597 0.0
C2226 C 0.6872 0.51309 0.13965 0.0
H2227 H 0.68848 0.50969 0.04736 0.0
H2228 H 0.69844 0.51785 0.0776 0.0
H2229 H 0.69632 0.49738 0.06545 0.0
H2230 H 0.69703 0.48507 0.10692 0.0
H2231 H 0.72275 0.49791 0.13536 0.0
H2232 H 0.42962 0.83161 0.95983 0.0
H2233 H 0.44184 0.81897 0.9299 0.0
H2234 H 0.49534 0.85479 0.95709 0.0
H2235 H 0.48327 0.86733 0.98723 0.0
H2236 H 0.46763 0.8354 0.89208 0.0
H2237 H 0.49008 0.80478 0.96454 0.0
H2238 H 0.47482 0.81296 0.97112 0.0
H2239 H 0.49855 0.82841 0.96873 0.0
C2240 C 0.44399 0.83686 0.95933 0.0
C2241 C 0.45548 0.85033 0.97603 0.0
C2242 C 0.45094 0.82962 0.94226 0.0
C2243 C 0.46943 0.83572 0.9417 0.0
C2244 C 0.48098 0.84964 0.95767 0.0
H2245 H 0.53083 0.81951 0.82766 0.0
H2246 H 0.5177 0.83153 0.85694 0.0
C2247 C 0.47407 0.85685 0.97476 0.0
C2248 C 0.47667 0.82744 0.92454 0.0
H2249 H 0.49989 0.80479 0.92309 0.0
C2250 C 0.47462 0.82864 0.89881 0.0
C2251 C 0.48552 0.81839 0.93348 0.0
C2252 C 0.48725 0.81587 0.96098 0.0
C2253 C 0.4816 0.82138 0.88168 0.0
C2254 C 0.4911 0.81299 0.89061 0.0
C2255 C 0.49276 0.81141 0.91635 0.0
C2256 C 0.49943 0.80577 0.87351 0.0
C2257 C 0.4786 0.8226 0.85421 0.0
C2258 C 0.49394 0.78741 0.87382 0.0
C2259 C 0.50153 0.78051 0.85726 0.0
C2260 C 0.51475 0.7919 0.8402 0.0
C2261 C 0.52056 0.81037 0.84045 0.0
C2262 C 0.513 0.81725 0.85703 0.0
H2263 H 0.46721 0.82501 0.85082 0.0
H2264 H 0.49086 0.83399 0.846 0.0
H2265 H 0.47587 0.81012 0.84436 0.0
H2266 H 0.48357 0.77838 0.88657 0.0
H2267 H 0.49681 0.76622 0.85753 0.0
H2268 H 0.16622 0.70706 0.83169 0.0
H2269 H 0.15225 0.6827 0.86212 0.0
H2270 H 0.20421 0.69906 0.89423 0.0
H2271 H 0.2183 0.72363 0.86406 0.0
H2272 H 0.15913 0.6546 0.86801 0.0
H2273 H 0.17337 0.6943 0.95507 0.0
H2274 H 0.17523 0.70397 0.92457 0.0
H2275 H 0.19289 0.70051 0.93625 0.0
C2276 C 0.17466 0.7056 0.84539 0.0
C2277 C 0.19336 0.71726 0.84552 0.0
C2278 C 0.16666 0.69166 0.86272 0.0
C2279 C 0.17718 0.68922 0.88053 0.0
C2280 C 0.19582 0.70094 0.8809 0.0
H2281 H 0.15235 0.59387 0.96487 0.0
H2282 H 0.16315 0.61819 0.93424 0.0
C2283 C 0.20385 0.71492 0.86359 0.0
C2284 C 0.16875 0.67387 0.89797 0.0
H2285 H 0.16282 0.66302 0.95972 0.0
C2286 C 0.15983 0.65642 0.88807 0.0
C2287 C 0.16952 0.67633 0.92408 0.0
C2288 C 0.17811 0.69478 0.93567 0.0
C2289 C 0.15198 0.64129 0.90365 0.0
C2290 C 0.15337 0.64375 0.92977 0.0
C2291 C 0.16193 0.6612 0.93966 0.0
C2292 C 0.14611 0.62841 0.94726 0.0
C2293 C 0.14212 0.62284 0.89204 0.0
C2294 C 0.13309 0.62623 0.96481 0.0
C2295 C 0.12698 0.61245 0.9824 0.0
C2296 C 0.13388 0.60066 0.9828 0.0
C2297 C 0.14672 0.60268 0.96492 0.0
C2298 C 0.15284 0.61651 0.94736 0.0
H2299 H 0.13812 0.62338 0.87251 0.0
H2300 H 0.15106 0.61697 0.89183 0.0
H2301 H 0.1299 0.61375 0.90291 0.0
H2302 H 0.12777 0.63532 0.96505 0.0
H2303 H 0.11707 0.61122 -0.00408 0.0
H2304 H 0.37361 0.51348 0.9881 0.0
H2305 H 0.34815 0.50092 0.95945 0.0
H2306 H 0.3656 0.5538 0.9298 0.0
H2307 H 0.39135 0.56652 0.95829 0.0
H2308 H 0.3209 0.50969 0.9569 0.0
H2309 H 0.35802 0.52301 0.86735 0.0
H2310 H 0.36829 0.52402 0.8971 0.0
H2311 H 0.36514 0.54224 0.88722 0.0
C2312 C 0.37214 0.52245 0.97536 0.0
C2313 C 0.38449 0.54099 0.9754 0.0
C2314 C 0.35756 0.51524 0.95905 0.0
C2315 C 0.3551 0.52642 0.94244 0.0
C2316 C 0.36745 0.54493 0.94225 0.0
H2317 H 0.25586 0.49588 0.86128 0.0
H2318 H 0.28127 0.50991 0.89021 0.0
C2319 C 0.3821 0.55217 0.95856 0.0
C2320 C 0.33926 0.51862 0.92586 0.0
H2321 H 0.32659 0.51107 0.86482 0.0
C2322 C 0.32211 0.51 0.93675 0.0
C2323 C 0.34096 0.51895 0.89965 0.0
C2324 C 0.35907 0.52741 0.88705 0.0
C2325 C 0.30654 0.50162 0.92207 0.0
C2326 C 0.30824 0.50214 0.89585 0.0
C2327 C 0.32539 0.51081 0.88496 0.0
C2328 C 0.29243 0.49324 0.87931 0.0
C2329 C 0.28846 0.49188 0.93472 0.0
C2330 C 0.2904 0.47933 0.86357 0.0
C2331 C 0.276 0.47137 0.847 0.0
C2332 C 0.26341 0.47725 0.84581 0.0
C2333 C 0.2653 0.491 0.86189 0.0
C2334 C 0.27976 0.49899 0.87846 0.0
H2335 H 0.28965 0.48924 0.9547 0.0
H2336 H 0.28197 0.50025 0.93365 0.0
H2337 H 0.27953 0.47889 0.92532 0.0
H2338 H 0.30007 0.47472 0.86399 0.0
H2339 H 0.27491 0.46079 0.83486 0.0
H2340 H 0.16564 0.5621 0.45957 0.0
H2341 H 0.17808 0.54892 0.43095 0.0
H2342 H 0.14446 0.49679 0.46393 0.0
H2343 H 0.13215 0.50986 0.49282 0.0
H2344 H 0.18015 0.50547 0.4584 0.0
H2345 H 0.15282 0.51676 0.37074 0.0
H2346 H 0.16554 0.53661 0.38924 0.0
H2347 H 0.14481 0.51851 0.40112 0.0
C2348 C 0.16082 0.54781 0.46062 0.0
C2349 C 0.14789 0.537 0.47838 0.0
C2350 C 0.16789 0.5403 0.44421 0.0
C2351 C 0.16202 0.52186 0.44518 0.0
C2352 C 0.14912 0.51105 0.46288 0.0
H2353 H 0.17852 0.45955 0.33296 0.0
H2354 H 0.16615 0.47134 0.36377 0.0
C2355 C 0.14208 0.51854 0.47932 0.0
C2356 C 0.16957 0.51384 0.42809 0.0
H2357 H 0.1737 0.50649 0.36664 0.0
C2358 C 0.17873 0.50564 0.43833 0.0
C2359 C 0.16747 0.51393 0.40198 0.0
C2360 C 0.15699 0.52177 0.39006 0.0
C2361 C 0.18605 0.49766 0.42306 0.0
C2362 C 0.18437 0.49819 0.39691 0.0
C2363 C 0.17505 0.50623 0.38671 0.0
C2364 C 0.19193 0.49026 0.37968 0.0
C2365 C 0.19521 0.48846 0.43503 0.0
C2366 C 0.21052 0.49692 0.3786 0.0
C2367 C 0.21764 0.49015 0.36107 0.0
C2368 C 0.20627 0.47675 0.34421 0.0
C2369 C 0.18763 0.4699 0.34567 0.0
C2370 C 0.18054 0.47662 0.36322 0.0
H2371 H 0.19134 0.48524 0.45493 0.0
H2372 H 0.19189 0.47585 0.42505 0.0
H2373 H 0.20998 0.49751 0.43419 0.0
H2374 H 0.21956 0.50767 0.39085 0.0
H2375 H 0.23206 0.49575 0.36029 0.0
H2376 H 0.47842 0.61162 0.49022 0.0
H2377 H 0.48972 0.63606 0.45986 0.0
H2378 H 0.43589 0.61653 0.43257 0.0
H2379 H 0.42443 0.59186 0.46279 0.0
H2380 H 0.46204 0.62629 0.39479 0.0
H2381 H 0.48243 0.6798 0.46612 0.0
H2382 H 0.49155 0.66524 0.47104 0.0
H2383 H 0.46769 0.65631 0.47302 0.0
C2384 C 0.46897 0.61246 0.4777 0.0
C2385 C 0.45051 0.59991 0.47901 0.0
C2386 C 0.47545 0.62649 0.46047 0.0
C2387 C 0.46358 0.62827 0.44438 0.0
C2388 C 0.44522 0.61543 0.44502 0.0
H2389 H 0.48921 0.72368 0.35717 0.0
H2390 H 0.47588 0.69848 0.38655 0.0
C2391 C 0.43871 0.60136 0.46225 0.0
C2392 C 0.47037 0.64359 0.42693 0.0
H2393 H 0.49236 0.6894 0.42462 0.0
C2394 C 0.46859 0.64009 0.40126 0.0
C2395 C 0.47864 0.66154 0.43552 0.0
C2396 C 0.48007 0.666 0.46293 0.0
C2397 C 0.47535 0.65415 0.38386 0.0
C2398 C 0.48431 0.67211 0.39247 0.0
C2399 C 0.48564 0.6756 0.41813 0.0
C2400 C 0.49259 0.68749 0.37509 0.0
C2401 C 0.47274 0.64966 0.35645 0.0
C2402 C 0.50663 0.68982 0.3594 0.0
C2403 C 0.51426 0.70415 0.34265 0.0
C2404 C 0.50802 0.71647 0.34143 0.0
C2405 C 0.49426 0.71438 0.35765 0.0
C2406 C 0.48663 0.70001 0.3744 0.0
H2407 H 0.46167 0.63571 0.35314 0.0
H2408 H 0.46976 0.65908 0.34612 0.0
H2409 H 0.48526 0.65085 0.34869 0.0
H2410 H 0.51168 0.68052 0.36007 0.0
H2411 H 0.52493 0.70548 0.33053 0.0
H2412 H 0.36267 0.84971 0.51083 0.0
H2413 H 0.33782 0.83757 0.48117 0.0
H2414 H 0.36906 0.82545 0.42999 0.0
H2415 H 0.39377 0.83695 0.46008 0.0
H2416 H 0.33534 0.8476 0.43566 0.0
H2417 H 0.32332 0.778 0.43253 0.0
H2418 H 0.33787 0.79416 0.45532 0.0
H2419 H 0.34595 0.79429 0.42431 0.0
C2420 C 0.36423 0.84441 0.49328 0.0
C2421 C 0.38009 0.84414 0.48781 0.0
C2422 C 0.35002 0.83748 0.47636 0.0
C2423 C 0.35144 0.83028 0.45358 0.0
C2424 C 0.36747 0.83045 0.44777 0.0
H2425 H 0.2856 0.81396 0.32391 0.0
H2426 H 0.30864 0.82556 0.35622 0.0
C2427 C 0.38162 0.83715 0.46487 0.0
C2428 C 0.33626 0.82298 0.43577 0.0
H2429 H 0.30861 0.78588 0.40146 0.0
C2430 C 0.32941 0.83406 0.4283 0.0
C2431 C 0.3283 0.80519 0.42658 0.0
C2432 C 0.33411 0.79216 0.4353 0.0
C2433 C 0.31505 0.82796 0.41149 0.0
C2434 C 0.30775 0.81052 0.40125 0.0
C2435 C 0.31434 0.79931 0.40913 0.0
C2436 C 0.29351 0.80371 0.38201 0.0
C2437 C 0.30769 0.84019 0.40524 0.0
C2438 C 0.27754 0.7873 0.38546 0.0
C2439 C 0.26449 0.78043 0.36676 0.0
C2440 C 0.26716 0.78993 0.34439 0.0
C2441 C 0.28308 0.80643 0.34107 0.0
C2442 C 0.29621 0.81315 0.3596 0.0
H2443 H 0.31047 0.85008 0.42037 0.0
H2444 H 0.3143 0.84786 0.38807 0.0
H2445 H 0.29297 0.83245 0.40199 0.0
H2446 H 0.27523 0.77975 0.40257 0.0
H2447 H 0.25234 0.76768 0.3698 0.0
H2448 H 0.25031 0.10392 0.1622 0.0
H2449 H 0.28171 0.11956 0.17574 0.0
H2450 H 0.29487 0.15904 0.11786 0.0
H2451 H 0.26351 0.14361 0.10428 0.0
H2452 H 0.3145 0.12963 0.14922 0.0
H2453 H 0.31036 0.18849 0.18351 0.0
H2454 H 0.29069 0.1672 0.17638 0.0
H2455 H 0.30351 0.18235 0.1517 0.0
C2456 C 0.25993 0.1158 0.15214 0.0
C2457 C 0.25441 0.12263 0.13231 0.0
C2458 C 0.27783 0.12472 0.15993 0.0
C2459 C 0.29046 0.14062 0.1481 0.0
C2460 C 0.2852 0.14697 0.12751 0.0
H2461 H 0.40238 0.21831 0.16717 0.0
H2462 H 0.37061 0.2015 0.15575 0.0
C2463 C 0.26732 0.13806 0.11969 0.0
C2464 C 0.30901 0.15089 0.15776 0.0
H2465 H 0.33918 0.19114 0.18363 0.0
C2466 C 0.31991 0.14304 0.15688 0.0
C2467 C 0.31591 0.16834 0.1678 0.0
C2468 C 0.30449 0.17708 0.17016 0.0
C2469 C 0.33778 0.15241 0.16515 0.0
C2470 C 0.34474 0.16994 0.17498 0.0
C2471 C 0.33377 0.1777 0.17609 0.0
C2472 C 0.3636 0.18068 0.18336 0.0
C2473 C 0.34922 0.1437 0.16262 0.0
C2474 C 0.37001 0.17482 0.20323 0.0
C2475 C 0.38816 0.1844 0.20982 0.0
C2476 C 0.40015 0.20002 0.1967 0.0
C2477 C 0.39349 0.2063 0.17759 0.0
C2478 C 0.37536 0.19671 0.17101 0.0
H2479 H 0.34318 0.13211 0.14959 0.0
H2480 H 0.3629 0.15353 0.1559 0.0
H2481 H 0.35055 0.13871 0.18112 0.0
H2482 H 0.36103 0.16268 0.21333 0.0
H2483 H 0.39287 0.17927 0.22471 0.0
H2484 H 0.82462 0.22732 0.1948 0.0
H2485 H 0.84115 0.21262 0.18107 0.0
H2486 H 0.79249 0.16105 0.18524 0.0
H2487 H 0.77563 0.176 0.19706 0.0
H2488 H 0.8493 0.19109 0.19963 0.0
H2489 H 0.80717 0.15654 0.11772 0.0
H2490 H 0.80422 0.17264 0.13555 0.0
H2491 H 0.79399 0.14955 0.14561 0.0
C2492 C 0.81747 0.21283 0.1928 0.0
C2493 C 0.79886 0.20276 0.19681 0.0
C2494 C 0.82692 0.20443 0.18492 0.0
C2495 C 0.81803 0.18573 0.18145 0.0
C2496 C 0.79955 0.17555 0.18675 0.0
H2497 H 0.87456 0.12614 0.17669 0.0
H2498 H 0.86013 0.1433 0.1884 0.0
C2499 C 0.78996 0.18404 0.19384 0.0
C2500 C 0.82825 0.17701 0.17261 0.0
H2501 H 0.82738 0.14662 0.13089 0.0
C2502 C 0.84457 0.18152 0.18439 0.0
C2503 C 0.82242 0.16485 0.1523 0.0
C2504 C 0.8061 0.16079 0.1369 0.0
C2505 C 0.85503 0.17402 0.17678 0.0
C2506 C 0.84848 0.1608 0.15779 0.0
C2507 C 0.83234 0.15656 0.14567 0.0
C2508 C 0.85784 0.15086 0.1506 0.0
C2509 C 0.87316 0.18078 0.18883 0.0
C2510 C 0.86074 0.14868 0.12535 0.0
C2511 C 0.86836 0.13822 0.11857 0.0
C2512 C 0.87359 0.13013 0.13696 0.0
C2513 C 0.87099 0.13257 0.16217 0.0
C2514 C 0.86287 0.14251 0.16889 0.0
H2515 H 0.87892 0.19494 0.19506 0.0
H2516 H 0.87162 0.17257 0.20561 0.0
H2517 H 0.88286 0.18002 0.17592 0.0
H2518 H 0.85691 0.15489 0.11085 0.0
H2519 H 0.87016 0.13644 0.099 0.0
H2520 H 0.77816 0.59926 0.22307 0.0
H2521 H 0.79257 0.63032 0.20819 0.0
H2522 H 0.82076 0.6181 0.15201 0.0
H2523 H 0.80628 0.58698 0.16654 0.0
H2524 H 0.82922 0.65674 0.20264 0.0
H2525 H 0.7934 0.63774 0.11182 0.0
H2526 H 0.7867 0.62248 0.13794 0.0
H2527 H 0.80559 0.62636 0.11909 0.0
C2528 C 0.78758 0.60323 0.20772 0.0
C2529 C 0.79097 0.59064 0.19583 0.0
C2530 C 0.79576 0.62096 0.19923 0.0
C2531 C 0.80739 0.62635 0.17868 0.0
C2532 C 0.81149 0.61406 0.16755 0.0
H2533 H 0.8686 0.72565 0.09748 0.0
H2534 H 0.8531 0.69441 0.11174 0.0
C2535 C 0.80331 0.59633 0.176 0.0
C2536 C 0.81499 0.64475 0.16862 0.0
H2537 H 0.81594 0.66826 0.11676 0.0
C2538 C 0.82627 0.6593 0.18392 0.0
C2539 C 0.81105 0.64797 0.14419 0.0
C2540 C 0.7984 0.63284 0.12733 0.0
C2541 C 0.83405 0.67703 0.17524 0.0
C2542 C 0.83015 0.68024 0.15078 0.0
C2543 C 0.81884 0.66571 0.1355 0.0
C2544 C 0.83804 0.69865 0.14063 0.0
C2545 C 0.84672 0.69215 0.19209 0.0
C2546 C 0.83413 0.71114 0.15154 0.0
C2547 C 0.84294 0.72897 0.14344 0.0
C2548 C 0.85574 0.73456 0.12421 0.0
C2549 C 0.85885 0.72176 0.11238 0.0
C2550 C 0.85004 0.70393 0.12052 0.0
H2551 H 0.8515 0.68723 0.20784 0.0
H2552 H 0.85857 0.70235 0.18153 0.0
H2553 H 0.83964 0.69886 0.19999 0.0
H2554 H 0.82461 0.70719 0.16676 0.0
H2555 H 0.84017 0.73848 0.15283 0.0
H2556 H 0.22581 0.40663 0.32222 0.0
H2557 H 0.20914 0.37528 0.33579 0.0
H2558 H 0.16816 0.3644 0.28109 0.0
H2559 H 0.18481 0.39564 0.26719 0.0
H2560 H 0.17429 0.35924 0.35536 0.0
H2561 H 0.17717 0.32217 0.27236 0.0
H2562 H 0.19226 0.34595 0.27662 0.0
H2563 H 0.16968 0.3379 0.26591 0.0
C2564 C 0.21344 0.39748 0.31271 0.0
C2565 C 0.20661 0.40361 0.29364 0.0
C2566 C 0.20392 0.3796 0.32055 0.0
C2567 C 0.18749 0.36753 0.30935 0.0
C2568 C 0.18096 0.37343 0.28969 0.0
H2569 H 0.10547 0.25729 0.33729 0.0
H2570 H 0.12206 0.28866 0.32383 0.0
C2571 C 0.19048 0.39131 0.28182 0.0
C2572 C 0.17651 0.34919 0.31954 0.0
H2573 H 0.15682 0.30478 0.30444 0.0
C2574 C 0.17054 0.34731 0.3443 0.0
C2575 C 0.17157 0.33371 0.30497 0.0
C2576 C 0.17811 0.33496 0.27855 0.0
C2577 C 0.15952 0.3303 0.35482 0.0
C2578 C 0.1546 0.31482 0.34026 0.0
C2579 C 0.16056 0.3167 0.3155 0.0
C2580 C 0.14362 0.29647 0.35044 0.0
C2581 C 0.15296 0.32906 0.38123 0.0
C2582 C 0.15011 0.2906 0.37018 0.0
C2583 C 0.14063 0.2727 0.378 0.0
C2584 C 0.12458 0.26037 0.36604 0.0
C2585 C 0.11778 0.26647 0.34691 0.0
C2586 C 0.12726 0.28436 0.33912 0.0
H2587 H 0.15384 0.34182 0.38737 0.0
H2588 H 0.13884 0.31802 0.38317 0.0
H2589 H 0.16143 0.32619 0.39391 0.0
H2590 H 0.16287 0.29966 0.37887 0.0
H2591 H 0.14628 0.26839 0.39269 0.0
H2592 H 0.57979 0.80781 0.3305 0.0
H2593 H 0.61104 0.8241 0.34469 0.0
H2594 H 0.62543 0.79778 0.28827 0.0
H2595 H 0.59435 0.78165 0.27375 0.0
H2596 H 0.63028 0.80835 0.36306 0.0
H2597 H 0.66396 0.85042 0.28018 0.0
H2598 H 0.63997 0.8395 0.28483 0.0
H2599 H 0.65006 0.82699 0.27308 0.0
C2600 C 0.58967 0.80572 0.32085 0.0
C2601 C 0.58463 0.79348 0.30096 0.0
C2602 C 0.60749 0.81499 0.32903 0.0
C2603 C 0.62055 0.81226 0.31737 0.0
C2604 C 0.61562 0.80033 0.29721 0.0
H2605 H 0.73194 0.84501 0.34023 0.0
H2606 H 0.70021 0.82956 0.32853 0.0
C2607 C 0.59783 0.79107 0.289 0.0
C2608 C 0.6391 0.82103 0.32718 0.0
H2609 H 0.68293 0.84821 0.3107 0.0
C2610 C 0.64181 0.8172 0.35172 0.0
C2611 C 0.65406 0.83252 0.31229 0.0
C2612 C 0.65191 0.83776 0.28621 0.0
C2613 C 0.65916 0.82419 0.36156 0.0
C2614 C 0.67411 0.83544 0.34651 0.0
C2615 C 0.6714 0.83945 0.3221 0.0
C2616 C 0.69277 0.84333 0.35564 0.0
C2617 C 0.66141 0.81915 0.3877 0.0
C2618 C 0.69897 0.85594 0.37505 0.0
C2619 C 0.7171 0.86478 0.38183 0.0
C2620 C 0.7293 0.86119 0.36916 0.0
C2621 C 0.72288 0.84805 0.35035 0.0
C2622 C 0.70478 0.83925 0.3436 0.0
H2623 H 0.64897 0.80724 0.39462 0.0
H2624 H 0.67262 0.81624 0.38862 0.0
H2625 H 0.66466 0.83057 0.4004 0.0
H2626 H 0.68995 0.85946 0.38432 0.0
H2627 H 0.72165 0.87489 0.39632 0.0
H2628 H 0.209 0.81273 0.26474 0.0
H2629 H 0.19442 0.83001 0.27603 0.0
H2630 H 0.16448 0.79149 0.33357 0.0
H2631 H 0.17904 0.77419 0.32258 0.0
H2632 H 0.15701 0.81953 0.27915 0.0
H2633 H 0.19182 0.84031 0.37057 0.0
H2634 H 0.19907 0.83106 0.34594 0.0
H2635 H 0.18008 0.81651 0.36495 0.0
C2636 C 0.19917 0.80783 0.27962 0.0
C2637 C 0.19526 0.79218 0.29291 0.0
C2638 C 0.19089 0.81773 0.28606 0.0
C2639 C 0.17868 0.81218 0.30593 0.0
C2640 C 0.17415 0.79615 0.31849 0.0
H2641 H 0.11559 0.85057 0.37988 0.0
H2642 H 0.13186 0.8353 0.36713 0.0
C2643 C 0.18239 0.78624 0.31207 0.0
C2644 C 0.17094 0.82334 0.31392 0.0
H2645 H 0.1689 0.84747 0.36307 0.0
C2646 C 0.15967 0.82575 0.29741 0.0
C2647 C 0.17453 0.83144 0.33775 0.0
C2648 C 0.18716 0.82987 0.35579 0.0
C2649 C 0.15142 0.83565 0.30441 0.0
C2650 C 0.15487 0.8436 0.32835 0.0
C2651 C 0.16632 0.84135 0.34473 0.0
C2652 C 0.14618 0.85374 0.33706 0.0
C2653 C 0.13867 0.83706 0.28643 0.0
C2654 C 0.14933 0.8695 0.32486 0.0
C2655 C 0.14006 0.87826 0.33209 0.0
C2656 C 0.12756 0.87144 0.35173 0.0
C2657 C 0.12509 0.85613 0.36465 0.0
C2658 C 0.13435 0.84737 0.35738 0.0
H2659 H 0.13434 0.82687 0.27134 0.0
H2660 H 0.12654 0.83535 0.29627 0.0
H2661 H 0.14548 0.85056 0.27766 0.0
H2662 H 0.15872 0.87483 0.30947 0.0
H2663 H 0.14232 0.89009 0.32186 0.0
H2664 H 0.73875 0.89035 0.82738 0.0
H2665 H 0.707 0.8737 0.81588 0.0
H2666 H 0.69678 0.8358 0.87508 0.0
H2667 H 0.72858 0.85225 0.88656 0.0
H2668 H 0.68401 0.81991 0.82841 0.0
H2669 H 0.66241 0.86947 0.85006 0.0
H2670 H 0.68215 0.87815 0.83089 0.0
H2671 H 0.68284 0.87132 0.86235 0.0
C2672 C 0.7297 0.87866 0.83824 0.0
C2673 C 0.73617 0.8726 0.85786 0.0
C2674 C 0.71155 0.8692 0.83169 0.0
C2675 C 0.69955 0.85362 0.84477 0.0
C2676 C 0.70585 0.84783 0.86482 0.0
H2677 H 0.58713 0.77376 0.82529 0.0
H2678 H 0.61867 0.79015 0.83798 0.0
C2679 C 0.724 0.85728 0.87139 0.0
C2680 C 0.68072 0.84268 0.83638 0.0
H2681 H 0.64219 0.84396 0.82622 0.0
C2682 C 0.6748 0.82509 0.82808 0.0
C2683 C 0.66883 0.84956 0.83589 0.0
C2684 C 0.67429 0.8681 0.84548 0.0
C2685 C 0.65735 0.81429 0.81881 0.0
C2686 C 0.64549 0.82121 0.81821 0.0
C2687 C 0.65139 0.83876 0.82661 0.0
C2688 C 0.6268 0.81042 0.80923 0.0
C2689 C 0.65188 0.79574 0.80924 0.0
C2690 C 0.62096 0.8164 0.78886 0.0
C2691 C 0.60295 0.8071 0.7816 0.0
C2692 C 0.59046 0.79173 0.79474 0.0
C2693 C 0.59645 0.78549 0.81471 0.0
C2694 C 0.61447 0.7948 0.82195 0.0
H2695 H 0.66372 0.79421 0.80515 0.0
H2696 H 0.64366 0.78566 0.82361 0.0
H2697 H 0.64364 0.79269 0.79207 0.0
H2698 H 0.6303 0.82846 0.77886 0.0
H2699 H 0.59874 0.81227 0.76618 0.0
H2700 H 0.17858 0.78307 0.77173 0.0
H2701 H 0.16367 0.79949 0.78549 0.0
H2702 H 0.2038 0.82564 0.84261 0.0
H2703 H 0.21891 0.80941 0.82888 0.0
H2704 H 0.14987 0.79639 0.83442 0.0
H2705 H 0.19971 0.86714 0.8107 0.0
H2706 H 0.20019 0.84822 0.79685 0.0
H2707 H 0.20846 0.85525 0.82795 0.0
C2708 C 0.18445 0.79259 0.7869 0.0
C2709 C 0.19991 0.79493 0.79925 0.0
C2710 C 0.17588 0.8019 0.79477 0.0
C2711 C 0.18269 0.81381 0.81497 0.0
C2712 C 0.19849 0.8167 0.82675 0.0
H2713 H 0.1442 0.87636 0.89415 0.0
H2714 H 0.16025 0.86063 0.88227 0.0
C2715 C 0.20706 0.80737 0.81891 0.0
C2716 C 0.17251 0.82213 0.82489 0.0
H2717 H 0.17473 0.86238 0.83513 0.0
C2718 C 0.15525 0.81081 0.83451 0.0
C2719 C 0.17969 0.84094 0.82517 0.0
C2720 C 0.19797 0.85364 0.81445 0.0
C2721 C 0.14497 0.81783 0.84456 0.0
C2722 C 0.15205 0.83663 0.84455 0.0
C2723 C 0.16938 0.84796 0.83515 0.0
C2724 C 0.14145 0.84483 0.8533 0.0
C2725 C 0.12675 0.80508 0.85541 0.0
C2726 C 0.12547 0.84097 0.84111 0.0
C2727 C 0.11625 0.84986 0.84789 0.0
C2728 C 0.12294 0.86289 0.86686 0.0
C2729 C 0.13868 0.86636 0.87952 0.0
C2730 C 0.1479 0.85744 0.87271 0.0
H2731 H 0.12552 0.79196 0.86045 0.0
H2732 H 0.12408 0.81088 0.87226 0.0
H2733 H 0.11625 0.80251 0.84138 0.0
H2734 H 0.12045 0.83152 0.82577 0.0
H2735 H 0.10422 0.84697 0.83769 0.0
H2736 H 0.17353 0.40399 0.82875 0.0
H2737 H 0.15884 0.37259 0.84215 0.0
H2738 H 0.18765 0.36137 0.78576 0.0
H2739 H 0.20227 0.39269 0.77202 0.0
H2740 H 0.15091 0.33483 0.7903 0.0
H2741 H 0.18595 0.35234 0.88178 0.0
H2742 H 0.17373 0.36373 0.87473 0.0
H2743 H 0.19288 0.36803 0.85616 0.0
C2744 C 0.17658 0.3948 0.81899 0.0
C2745 C 0.18917 0.40084 0.79945 0.0
C2746 C 0.16828 0.37691 0.8268 0.0
C2747 C 0.17248 0.36481 0.81529 0.0
C2748 C 0.18436 0.37058 0.79501 0.0
H2749 H 0.1423 0.25307 0.83591 0.0
H2750 H 0.15672 0.28459 0.82318 0.0
C2751 C 0.19267 0.38846 0.78716 0.0
C2752 C 0.16484 0.34624 0.82471 0.0
H2753 H 0.16404 0.32182 0.87543 0.0
C2754 C 0.15379 0.33195 0.80888 0.0
C2755 C 0.16869 0.3426 0.84896 0.0
C2756 C 0.18108 0.35745 0.86637 0.0
C2757 C 0.14624 0.31406 0.81679 0.0
C2758 C 0.15014 0.31042 0.841 0.0
C2759 C 0.16114 0.3247 0.85687 0.0
C2760 C 0.14274 0.29183 0.85022 0.0
C2761 C 0.13387 0.29922 0.79935 0.0
C2762 C 0.13078 0.28573 0.87041 0.0
C2763 C 0.12262 0.26777 0.87788 0.0
C2764 C 0.12636 0.25565 0.86528 0.0
C2765 C 0.13906 0.26205 0.84589 0.0
C2766 C 0.14722 0.28001 0.83847 0.0
H2767 H 0.12887 0.3043 0.78409 0.0
H2768 H 0.1413 0.29308 0.79079 0.0
H2769 H 0.12217 0.28853 0.80958 0.0
H2770 H 0.1273 0.29473 0.87984 0.0
H2771 H 0.11292 0.26326 0.89292 0.0
H2772 H 0.84661 0.7284 0.59969 0.0
H2773 H 0.82941 0.69701 0.61299 0.0
H2774 H 0.86838 0.70738 0.67065 0.0
H2775 H 0.88558 0.73885 0.65769 0.0
H2776 H 0.83892 0.67001 0.61814 0.0
H2777 H 0.82052 0.68771 0.70877 0.0
H2778 H 0.82988 0.70347 0.6833 0.0
H2779 H 0.84422 0.69885 0.70256 0.0
C2780 C 0.85164 0.72396 0.61501 0.0
C2781 C 0.86736 0.73613 0.6278 0.0
C2782 C 0.84178 0.70604 0.6226 0.0
C2783 C 0.84744 0.70003 0.64312 0.0
C2784 C 0.86361 0.7119 0.65511 0.0
H2785 H 0.80678 0.59966 0.72149 0.0
H2786 H 0.82293 0.63096 0.70772 0.0
C2787 C 0.87347 0.72983 0.64756 0.0
C2788 C 0.83618 0.68147 0.65236 0.0
H2789 H 0.81216 0.65716 0.70287 0.0
C2790 C 0.83299 0.66716 0.6366 0.0
C2791 C 0.82843 0.67788 0.67644 0.0
C2792 C 0.83077 0.69276 0.69371 0.0
C2793 C 0.82258 0.64928 0.64453 0.0
C2794 C 0.81493 0.6457 0.66867 0.0
C2795 C 0.81804 0.66001 0.68437 0.0
C2796 C 0.80418 0.62715 0.67823 0.0
C2797 C 0.82024 0.63439 0.62726 0.0
C2798 C 0.78796 0.61486 0.66675 0.0
C2799 C 0.77867 0.59695 0.67459 0.0
C2800 C 0.78546 0.59112 0.69408 0.0
C2801 C 0.80124 0.60372 0.70636 0.0
C2802 C 0.81049 0.6216 0.69852 0.0
H2803 H 0.83018 0.63948 0.61182 0.0
H2804 H 0.82159 0.62393 0.63761 0.0
H2805 H 0.8066 0.62796 0.61895 0.0
H2806 H 0.7827 0.61902 0.65138 0.0
H2807 H 0.76652 0.58759 0.66483 0.0
H2808 H 0.25109 0.14217 0.65669 0.0
H2809 H 0.28256 0.15774 0.6698 0.0
H2810 H 0.29445 0.12873 0.61451 0.0
H2811 H 0.26307 0.11325 0.60106 0.0
H2812 H 0.30038 0.14046 0.6887 0.0
H2813 H 0.33476 0.18073 0.6046 0.0
H2814 H 0.31091 0.17101 0.60966 0.0
H2815 H 0.31983 0.15728 0.59865 0.0
C2816 C 0.26046 0.13934 0.64701 0.0
C2817 C 0.25461 0.12648 0.62783 0.0
C2818 C 0.27841 0.1482 0.65458 0.0
C2819 C 0.29082 0.14446 0.64301 0.0
C2820 C 0.28514 0.13202 0.62339 0.0
H2821 H 0.40308 0.17893 0.66821 0.0
H2822 H 0.37156 0.16254 0.65538 0.0
C2823 C 0.26719 0.12316 0.61578 0.0
C2824 C 0.3094 0.15267 0.65259 0.0
H2825 H 0.35334 0.1793 0.6362 0.0
C2826 C 0.31198 0.14903 0.67729 0.0
C2827 C 0.32445 0.16373 0.63757 0.0
C2828 C 0.32241 0.16858 0.61121 0.0
C2829 C 0.32928 0.15601 0.68731 0.0
C2830 C 0.34432 0.16711 0.67231 0.0
C2831 C 0.34174 0.1707 0.64759 0.0
C2832 C 0.36289 0.17557 0.68199 0.0
C2833 C 0.33131 0.1512 0.71369 0.0
C2834 C 0.36836 0.1881 0.70148 0.0
C2835 C 0.38633 0.19744 0.70892 0.0
C2836 C 0.39916 0.19449 0.69684 0.0
C2837 C 0.39351 0.18148 0.67791 0.0
C2838 C 0.37554 0.17214 0.6705 0.0
H2839 H 0.31903 0.13895 0.72022 0.0
H2840 H 0.34293 0.14896 0.71533 0.0
H2841 H 0.3337 0.16244 0.72625 0.0
H2842 H 0.35886 0.19116 0.7103 0.0
H2843 H 0.39028 0.20745 0.72346 0.0
H2844 H 0.84722 0.10557 0.65589 0.0
H2845 H 0.83134 0.1215 0.66716 0.0
H2846 H 0.85914 0.1602 0.60887 0.0
H2847 H 0.87529 0.14447 0.59764 0.0
H2848 H 0.86134 0.17558 0.6554 0.0
H2849 H 0.79081 0.12503 0.63268 0.0
H2850 H 0.80194 0.11652 0.65203 0.0
H2851 H 0.80974 0.12366 0.62074 0.0
C2852 C 0.84973 0.11728 0.64516 0.0
C2853 C 0.86252 0.12378 0.62589 0.0
C2854 C 0.84059 0.12633 0.65157 0.0
C2855 C 0.84397 0.14192 0.63869 0.0
C2856 C 0.85632 0.14814 0.61896 0.0
H2857 H 0.80813 0.21932 0.65982 0.0
H2858 H 0.82401 0.20377 0.64643 0.0
C2859 C 0.86549 0.13911 0.61254 0.0
C2860 C 0.83563 0.15247 0.64707 0.0
H2861 H 0.79526 0.14998 0.65734 0.0
C2862 C 0.8469 0.17006 0.65564 0.0
C2863 C 0.8168 0.14517 0.64745 0.0
C2864 C 0.8041 0.12662 0.63752 0.0
C2865 C 0.83981 0.18044 0.66513 0.0
C2866 C 0.82098 0.17306 0.66571 0.0
C2867 C 0.80971 0.15553 0.65698 0.0
C2868 C 0.81261 0.18334 0.67507 0.0
C2869 C 0.85247 0.19901 0.67498 0.0
C2870 C 0.801 0.177 0.69563 0.0
C2871 C 0.79188 0.18582 0.7033 0.0
C2872 C 0.79414 0.20105 0.69038 0.0
C2873 C 0.80618 0.20767 0.67022 0.0
C2874 C 0.81531 0.19884 0.66258 0.0
H2875 H 0.86605 0.20097 0.67876 0.0
H2876 H 0.85388 0.20912 0.66093 0.0
H2877 H 0.84716 0.20162 0.6924 0.0
H2878 H 0.79874 0.16502 0.70545 0.0
H2879 H 0.78266 0.18037 0.71886 0.0
H2880 H 0.06108 0.53578 0.55068 0.0
H2881 H 0.02943 0.51986 0.53814 0.0
H2882 H 0.04525 0.51927 0.46189 0.0
H2883 H 0.07679 0.5364 0.47412 0.0
H2884 H 0.01979 0.52535 0.46092 0.0
H2885 H -0.00102 0.46827 0.52552 0.0
H2886 H 0.00774 0.48888 0.54254 0.0
H2887 H 0.02217 0.48533 0.52171 0.0
C2888 C 0.05771 0.53233 0.53125 0.0
C2889 C 0.07127 0.53728 0.51334 0.0
C2890 C 0.03964 0.52303 0.52412 0.0
C2891 C 0.03486 0.51783 0.49916 0.0
C2892 C 0.04852 0.52303 0.48127 0.0
H2893 H 0.92388 0.43764 0.46272 0.0
H2894 H 0.95635 0.45292 0.47027 0.0
C2895 C 0.06654 0.53284 0.48825 0.0
C2896 C 0.0157 0.50736 0.49145 0.0
H2897 H 0.97523 0.47106 0.50658 0.0
C2898 C 0.01011 0.51335 0.47076 0.0
C2899 C 0.00307 0.49141 0.5038 0.0
C2900 C 0.00836 0.483 0.52442 0.0
C2901 C 0.99228 0.5041 0.4624 0.0
C2902 C 0.97936 0.48901 0.47599 0.0
C2903 C 0.98502 0.48277 0.49633 0.0
C2904 C 0.9599 0.47975 0.46987 0.0
C2905 C 0.98769 0.51045 0.43873 0.0
C2906 C 0.95104 0.48966 0.46715 0.0
C2907 C 0.93269 0.48099 0.462 0.0
C2908 C 0.92268 0.46219 0.46048 0.0
C2909 C 0.93137 0.45217 0.46371 0.0
C2910 C 0.94988 0.4609 0.4681 0.0
H2911 H -0.00051 0.517 0.42608 0.0
H2912 H 0.97647 0.49921 0.42853 0.0
H2913 H 0.98378 0.52062 0.4434 0.0
H2914 H 0.95822 0.5041 0.46947 0.0
H2915 H 0.92622 0.48899 0.46008 0.0
H2916 H 0.43197 0.51008 0.49954 0.0
H2917 H 0.44816 0.49486 0.48619 0.0
H2918 H 0.48853 0.52337 0.54226 0.0
H2919 H 0.47255 0.53884 0.55557 0.0
H2920 H 0.50238 0.52611 0.49426 0.0
H2921 H 0.45426 0.45507 0.51856 0.0
H2922 H 0.44471 0.46585 0.50053 0.0
H2923 H 0.45273 0.47366 0.53153 0.0
C2924 C 0.44411 0.51286 0.50936 0.0
C2925 C 0.451 0.52568 0.52859 0.0
C2926 C 0.45331 0.50411 0.50175 0.0
C2927 C 0.46946 0.50791 0.51337 0.0
C2928 C 0.47605 0.52024 0.53312 0.0
H2929 H 0.54934 0.47638 0.48874 0.0
H2930 H 0.53299 0.49149 0.50176 0.0
C2931 C 0.46688 0.52901 0.54074 0.0
C2932 C 0.48015 0.50007 0.50369 0.0
H2933 H 0.479 0.46037 0.49297 0.0
C2934 C 0.49733 0.51174 0.4941 0.0
C2935 C 0.47344 0.48133 0.50337 0.0
C2936 C 0.45534 0.46823 0.51424 0.0
C2937 C 0.50793 0.50515 0.48387 0.0
C2938 C 0.50123 0.48641 0.48358 0.0
C2939 C 0.48404 0.47473 0.49313 0.0
C2940 C 0.51201 0.4786 0.47412 0.0
C2941 C 0.52605 0.51824 0.47305 0.0
C2942 C 0.50564 0.4664 0.45421 0.0
C2943 C 0.51493 0.4577 0.44675 0.0
C2944 C 0.53067 0.46097 0.45924 0.0
C2945 C 0.53731 0.47364 0.47867 0.0
C2946 C 0.52802 0.48234 0.48609 0.0
H2947 H 0.52717 0.53141 0.46877 0.0
H2948 H 0.53667 0.52057 0.48678 0.0
H2949 H 0.52867 0.51282 0.45575 0.0
H2950 H 0.49327 0.46332 0.4448 0.0
H2951 H 0.50944 0.44798 0.43177 0.0
H2952 H 0.50735 0.06868 0.48744 0.0
H2953 H 0.49122 0.03715 0.50032 0.0
H2954 H 0.51962 0.02467 0.44479 0.0
H2955 H 0.53599 0.05621 0.43197 0.0
H2956 H 0.46959 0.0044 0.47437 0.0
H2957 H 0.53244 0.00953 0.5112 0.0
H2958 H 0.53074 0.029 0.50297 0.0
H2959 H 0.53347 0.01588 0.47909 0.0
C2960 C 0.50997 0.05918 0.4777 0.0
C2961 C 0.52309 0.06496 0.45888 0.0
C2962 C 0.50076 0.04119 0.48511 0.0
C2963 C 0.50456 0.02873 0.47387 0.0
C2964 C 0.51681 0.03421 0.45404 0.0
H2965 H 0.47074 0.91707 0.49883 0.0
H2966 H 0.48514 0.94831 0.48488 0.0
C2967 C 0.52605 0.0522 0.44663 0.0
C2968 C 0.49632 0.01021 0.48369 0.0
H2969 H 0.50645 0.98067 0.51169 0.0
C2970 C 0.4776 -0.00081 0.4826 0.0
C2971 C 0.50687 0.00357 0.49454 0.0
C2972 C 0.52698 0.01513 0.49728 0.0
C2973 C 0.46915 0.98148 0.49159 0.0
C2974 C 0.47972 0.97482 0.50227 0.0
C2975 C 0.49843 0.98587 0.50347 0.0
C2976 C 0.47164 0.95623 0.51178 0.0
C2977 C 0.44903 0.96992 0.48906 0.0
C2978 C 0.45971 0.95053 0.532 0.0
C2979 C 0.45148 0.93269 0.54008 0.0
C2980 C 0.45512 0.92031 0.52807 0.0
C2981 C 0.46762 0.92627 0.50842 0.0
C2982 C 0.47584 0.94409 0.5004 0.0
H2983 H 0.44345 0.97566 0.47554 0.0
H2984 H 0.44528 0.95613 0.48297 0.0
H2985 H 0.44267 0.96891 0.50744 0.0
H2986 H 0.45659 0.95982 0.54133 0.0
H2987 H 0.44196 0.92852 0.55532 0.0
H2988 H 0.55196 0.07159 0.9907 0.0
H2989 H 0.53497 0.03997 0.00299 0.0
H2990 H 0.49565 0.03009 0.94606 0.0
H2991 H 0.51265 0.06162 0.93341 0.0
H2992 H 0.49946 0.02278 0.02036 0.0
H2993 H 0.50607 0.98887 0.93621 0.0
H2994 H 0.5206 0.01256 0.94203 0.0
H2995 H 0.49829 0.00441 0.93014 0.0
C2996 C 0.53987 0.06262 0.98049 0.0
C2997 C 0.53364 0.06908 0.96107 0.0
C2998 C 0.53016 0.04459 0.9876 0.0
C2999 C 0.51415 0.03271 0.97533 0.0
C3000 C 0.50815 0.03899 0.95549 0.0
H3001 H 0.43457 0.92039 -0.00262 0.0
H3002 H 0.45009 0.95206 0.98511 0.0
C3003 C 0.51785 0.05702 0.94834 0.0
C3004 C 0.50314 0.01403 0.98433 0.0
H3005 H 0.48537 0.97019 0.96703 0.0
C3006 C 0.49642 0.01126 0.00876 0.0
C3007 C 0.49913 -0.00091 0.96906 0.0
C3008 C 0.50651 0.00131 0.94297 0.0
C3009 C 0.48564 0.99388 0.0183 0.0
C3010 C 0.48172 0.97894 0.00308 0.0
C3011 C 0.48834 0.98171 0.97859 0.0
C3012 C 0.47132 0.96029 0.01238 0.0
C3013 C 0.47831 0.99166 0.04441 0.0
C3014 C 0.478 0.95453 0.03202 0.0
C3015 C 0.46916 0.93648 0.03912 0.0
C3016 C 0.45355 0.92386 0.02655 0.0
C3017 C 0.44655 0.92979 0.00745 0.0
C3018 C 0.45541 0.94785 0.00037 0.0
H3019 H 0.47836 0.00396 0.05094 0.0
H3020 H 0.46437 0.98013 0.04554 0.0
H3021 H 0.48683 0.98902 0.0573 0.0
H3022 H 0.49043 0.96387 0.04124 0.0
H3023 H 0.47494 0.93232 0.05382 0.0
H3024 H 0.91467 0.47307 0.99394 0.0
H3025 H 0.94576 0.4877 0.00847 0.0
H3026 H 0.9585 0.46049 0.95138 0.0
H3027 H 0.92735 0.44562 0.93686 0.0
H3028 H 0.96971 0.45743 -0.00042 0.0
H3029 H 0.99123 0.52833 0.9762 0.0
H3030 H 0.97087 0.51706 0.99407 0.0
H3031 H 0.9714 0.50959 0.96296 0.0
C3032 C 0.92414 0.47039 0.98424 0.0
C3033 C 0.91857 0.45822 0.96422 0.0
C3034 C 0.94191 0.4788 0.99252 0.0
C3035 C 0.95443 0.47528 0.98084 0.0
C3036 C 0.94901 0.4634 0.96057 0.0
H3037 H 0.06648 0.50932 0.0044 0.0
H3038 H 0.03488 0.49315 0.99206 0.0
C3039 C 0.93124 0.45497 0.95226 0.0
C3040 C 0.97296 0.48332 0.99055 0.0
H3041 H 0.01101 0.52336 0.00142 0.0
C3042 C 0.9788 0.47183 -0.0001 0.0
C3043 C 0.98469 0.50211 0.991 0.0
C3044 C 0.97933 0.51502 0.98033 0.0
C3045 C -0.00395 0.47868 0.01005 0.0
C3046 C 0.00777 0.49747 0.0105 0.0
C3047 C 0.00191 0.50895 0.00117 0.0
C3048 C 0.02639 0.50561 0.01987 0.0
C3049 C 0.00148 0.4658 0.02058 0.0
C3050 C 0.03204 0.51787 0.0397 0.0
C3051 C 0.05009 0.52718 0.04675 0.0
C3052 C 0.06282 0.52447 0.03393 0.0
C3053 C 0.05699 0.51165 0.01471 0.0
C3054 C 0.03892 0.50234 0.00768 0.0
H3055 H 0.98961 0.45249 0.0248 0.0
H3056 H 0.00988 0.46376 0.00672 0.0
H3057 H 0.00951 0.47126 0.03787 0.0
H3058 H 0.02255 0.52059 0.04927 0.0
H3059 H 0.05417 0.53698 0.0616 0.0
H3060 H 0.53749 0.47486 0.93273 0.0
H3061 H 0.52239 0.49207 0.94106 0.0
H3062 H 0.49278 0.45595 0.00112 0.0
H3063 H 0.5076 0.43849 0.99271 0.0
H3064 H 0.47212 0.4659 0.97122 0.0
H3065 H 0.53601 0.52517 0.00223 0.0
H3066 H 0.53653 0.51723 0.97145 0.0
H3067 H 0.53368 0.50327 -0.00203 0.0
C3068 C 0.52758 0.47043 0.94749 0.0
C3069 C 0.52385 0.45542 0.96223 0.0
C3070 C 0.51907 0.48035 0.95232 0.0
C3071 C 0.50681 0.47549 0.97205 0.0
C3072 C 0.50233 0.45997 0.98592 0.0
H3073 H 0.44728 0.51858 0.04597 0.0
H3074 H 0.46157 0.50136 0.03322 0.0
C3075 C 0.51079 0.45001 0.98107 0.0
C3076 C 0.49913 0.48693 0.97892 0.0
H3077 H 0.51035 0.52854 0.00096 0.0
C3078 C 0.48045 0.47959 0.97771 0.0
C3079 C 0.51009 0.50478 0.98742 0.0
C3080 C 0.53018 0.51308 0.99009 0.0
C3081 C 0.47242 0.4897 0.98464 0.0
C3082 C 0.48336 0.50748 0.99333 0.0
C3083 C 0.50205 0.51489 0.99428 0.0
C3084 C 0.4756 0.5185 0.00185 0.0
C3085 C 0.45231 0.48136 0.98234 0.0
C3086 C 0.47937 0.53421 0.98898 0.0
C3087 C 0.47131 0.54415 -0.00371 0.0
C3088 C 0.45945 0.53856 0.01668 0.0
C3089 C 0.45629 0.52319 0.03012 0.0
C3090 C 0.46433 0.51327 0.02277 0.0
H3091 H 0.44644 0.46945 0.96985 0.0
H3092 H 0.44611 0.47691 0.00103 0.0
H3093 H 0.44869 0.49125 0.9751 0.0
H3094 H 0.48818 0.53852 0.97291 0.0
H3095 H 0.47402 0.55594 0.9856 0.0
loop_
_geom_bond_atom_site_label_1
_geom_bond_atom_site_label_2
_geom_bond_distance
_geom_bond_site_symmetry_2
_ccdc_geom_bond_type
C0 O1 1.306 . S
C0 O3 1.160 . S
O1 C0 1.306 . S
O1 Cd2 2.228 . S
Cd2 O1 2.228 . S
Cd2 O6 2.273 . S
Cd2 O10 2.277 . S
O3 C0 1.160 . S
O3 Cd4 2.203 . S
Cd4 O3 2.203 . S
Cd4 O6 2.411 . S
Cd4 O7 2.333 . S
Cd4 O8 2.352 . S
Cd4 O12 2.277 . S
Cd4 O13 2.356 . S
C5 O10 1.209 . S
C5 O12 1.226 . S
O6 Cd2 2.273 . S
O6 Cd4 2.411 . S
O6 C9 1.320 . S
O7 Cd4 2.333 . S
O7 C9 1.214 . S
O8 Cd4 2.352 . S
O8 C11 1.258 . S
C9 O6 1.320 . S
C9 O7 1.214 . S
O10 Cd2 2.277 . S
O10 C5 1.209 . S
C11 O8 1.258 . S
C11 O13 1.282 . S
O12 Cd4 2.277 . S
O12 C5 1.226 . S
O13 Cd4 2.356 . S
O13 C11 1.282 . S
C14 O15 1.306 . S
C14 O17 1.160 . S
O15 C14 1.306 . S
O15 Cd16 2.228 . S
Cd16 O15 2.228 . S
Cd16 O20 2.273 . S
Cd16 O24 2.277 . S
O17 C14 1.160 . S
O17 Cd18 2.203 . S
Cd18 O17 2.203 . S
Cd18 O20 2.411 . S
Cd18 O21 2.333 . S
Cd18 O22 2.352 . S
Cd18 O26 2.277 . S
Cd18 O27 2.356 . S
C19 O24 1.209 . S
C19 O26 1.226 . S
O20 Cd16 2.273 . S
O20 Cd18 2.411 . S
O20 C23 1.320 . S
O21 Cd18 2.333 . S
O21 C23 1.214 . S
O22 Cd18 2.352 . S
O22 C25 1.258 . S
C23 O20 1.320 . S
C23 O21 1.214 . S
O24 Cd16 2.277 . S
O24 C19 1.209 . S
C25 O22 1.258 . S
C25 O27 1.282 . S
O26 Cd18 2.277 . S
O26 C19 1.226 . S
O27 Cd18 2.356 . S
O27 C25 1.282 . S
C28 O29 1.306 . S
C28 O31 1.160 . S
O29 C28 1.306 . S
O29 Cd30 2.228 . S
Cd30 O29 2.228 . S
Cd30 O34 2.273 . S
Cd30 O38 2.277 . S
O31 C28 1.160 . S
O31 Cd32 2.203 . S
Cd32 O31 2.203 . S
Cd32 O34 2.411 . S
Cd32 O35 2.333 . S
Cd32 O36 2.352 . S
Cd32 O40 2.277 . S
Cd32 O41 2.356 . S
C33 O38 1.209 . S
C33 O40 1.226 . S
O34 Cd30 2.273 . S
O34 Cd32 2.411 . S
O34 C37 1.320 . S
O35 Cd32 2.333 . S
O35 C37 1.214 . S
O36 Cd32 2.352 . S
O36 C39 1.258 . S
C37 O34 1.320 . S
C37 O35 1.214 . S
O38 Cd30 2.277 . S
O38 C33 1.209 . S
C39 O36 1.258 . S
C39 O41 1.282 . S
O40 Cd32 2.277 . S
O40 C33 1.226 . S
O41 Cd32 2.356 . S
O41 C39 1.282 . S
C42 O43 1.306 . S
C42 O45 1.160 . S
O43 C42 1.306 . S
O43 Cd44 2.228 . S
Cd44 O43 2.228 . S
Cd44 O48 2.273 . S
Cd44 O52 2.277 . S
O45 C42 1.160 . S
O45 Cd46 2.203 . S
Cd46 O45 2.203 . S
Cd46 O48 2.411 . S
Cd46 O49 2.333 . S
Cd46 O50 2.352 . S
Cd46 O54 2.277 . S
Cd46 O55 2.356 . S
C47 O52 1.209 . S
C47 O54 1.226 . S
O48 Cd44 2.273 . S
O48 Cd46 2.411 . S
O48 C51 1.320 . S
O49 Cd46 2.333 . S
O49 C51 1.214 . S
O50 Cd46 2.352 . S
O50 C53 1.258 . S
C51 O48 1.320 . S
C51 O49 1.214 . S
O52 Cd44 2.277 . S
O52 C47 1.209 . S
C53 O50 1.258 . S
C53 O55 1.282 . S
O54 Cd46 2.277 . S
O54 C47 1.226 . S
O55 Cd46 2.356 . S
O55 C53 1.282 . S
C56 O57 1.306 . S
C56 O59 1.160 . S
O57 C56 1.306 . S
O57 Cd58 2.228 . S
Cd58 O57 2.228 . S
Cd58 O62 2.273 . S
Cd58 O66 2.277 . S
O59 C56 1.160 . S
O59 Cd60 2.203 . S
Cd60 O59 2.203 . S
Cd60 O62 2.411 . S
Cd60 O63 2.333 . S
Cd60 O64 2.352 . S
Cd60 O68 2.277 . S
Cd60 O69 2.356 . S
C61 O66 1.209 . S
C61 O68 1.226 . S
O62 Cd58 2.273 . S
O62 Cd60 2.411 . S
O62 C65 1.320 . S
O63 Cd60 2.333 . S
O63 C65 1.214 . S
O64 Cd60 2.352 . S
O64 C67 1.258 . S
C65 O62 1.320 . S
C65 O63 1.214 . S
O66 Cd58 2.277 . S
O66 C61 1.209 . S
C67 O64 1.258 . S
C67 O69 1.282 . S
O68 Cd60 2.277 . S
O68 C61 1.226 . S
O69 Cd60 2.356 . S
O69 C67 1.282 . S
C70 O71 1.306 . S
C70 O73 1.160 . S
O71 C70 1.306 . S
O71 Cd72 2.228 . S
Cd72 O71 2.228 . S
Cd72 O76 2.273 . S
Cd72 O80 2.277 . S
O73 C70 1.160 . S
O73 Cd74 2.203 . S
Cd74 O73 2.203 . S
Cd74 O76 2.411 . S
Cd74 O77 2.333 . S
Cd74 O78 2.352 . S
Cd74 O82 2.277 . S
Cd74 O83 2.356 . S
C75 O80 1.209 . S
C75 O82 1.226 . S
O76 Cd72 2.273 . S
O76 Cd74 2.411 . S
O76 C79 1.320 . S
O77 Cd74 2.333 . S
O77 C79 1.214 . S
O78 Cd74 2.352 . S
O78 C81 1.258 . S
C79 O76 1.320 . S
C79 O77 1.214 . S
O80 Cd72 2.277 . S
O80 C75 1.209 . S
C81 O78 1.258 . S
C81 O83 1.282 . S
O82 Cd74 2.277 . S
O82 C75 1.226 . S
O83 Cd74 2.356 . S
O83 C81 1.282 . S
C84 O85 1.306 . S
C84 O87 1.160 . S
O85 C84 1.306 . S
O85 Cd86 2.228 . S
Cd86 O85 2.228 . S
Cd86 O90 2.273 . S
Cd86 O94 2.277 . S
O87 C84 1.160 . S
O87 Cd88 2.203 . S
Cd88 O87 2.203 . S
Cd88 O90 2.411 . S
Cd88 O91 2.333 . S
Cd88 O92 2.352 . S
Cd88 O96 2.277 . S
Cd88 O97 2.356 . S
C89 O94 1.209 . S
C89 O96 1.226 . S
O90 Cd86 2.273 . S
O90 Cd88 2.411 . S
O90 C93 1.320 . S
O91 Cd88 2.333 . S
O91 C93 1.214 . S
O92 Cd88 2.352 . S
O92 C95 1.258 . S
C93 O90 1.320 . S
C93 O91 1.214 . S
O94 Cd86 2.277 . S
O94 C89 1.209 . S
C95 O92 1.258 . S
C95 O97 1.282 . S
O96 Cd88 2.277 . S
O96 C89 1.226 . S
O97 Cd88 2.356 . S
O97 C95 1.282 . S
C98 O99 1.306 . S
C98 O101 1.160 . S
O99 C98 1.306 . S
O99 Cd100 2.228 . S
Cd100 O99 2.228 . S
Cd100 O104 2.273 . S
Cd100 O108 2.277 . S
O101 C98 1.160 . S
O101 Cd102 2.203 . S
Cd102 O101 2.203 . S
Cd102 O104 2.411 . S
Cd102 O105 2.333 . S
Cd102 O106 2.352 . S
Cd102 O110 2.277 . S
Cd102 O111 2.356 . S
C103 O108 1.209 . S
C103 O110 1.226 . S
O104 Cd100 2.273 . S
O104 Cd102 2.411 . S
O104 C107 1.320 . S
O105 Cd102 2.333 . S
O105 C107 1.214 . S
O106 Cd102 2.352 . S
O106 C109 1.258 . S
C107 O104 1.320 . S
C107 O105 1.214 . S
O108 Cd100 2.277 . S
O108 C103 1.209 . S
C109 O106 1.258 . S
C109 O111 1.282 . S
O110 Cd102 2.277 . S
O110 C103 1.226 . S
O111 Cd102 2.356 . S
O111 C109 1.282 . S
C112 O113 1.306 . S
C112 O115 1.160 . S
O113 C112 1.306 . S
O113 Cd114 2.228 . S
Cd114 O113 2.228 . S
Cd114 O118 2.273 . S
Cd114 O122 2.277 . S
O115 C112 1.160 . S
O115 Cd116 2.203 . S
Cd116 O115 2.203 . S
Cd116 O118 2.411 . S
Cd116 O119 2.333 . S
Cd116 O120 2.352 . S
Cd116 O124 2.277 . S
Cd116 O125 2.356 . S
C117 O122 1.209 . S
C117 O124 1.226 . S
O118 Cd114 2.273 . S
O118 Cd116 2.411 . S
O118 C121 1.320 . S
O119 Cd116 2.333 . S
O119 C121 1.214 . S
O120 Cd116 2.352 . S
O120 C123 1.258 . S
C121 O118 1.320 . S
C121 O119 1.214 . S
O122 Cd114 2.277 . S
O122 C117 1.209 . S
C123 O120 1.258 . S
C123 O125 1.282 . S
O124 Cd116 2.277 . S
O124 C117 1.226 . S
O125 Cd116 2.356 . S
O125 C123 1.282 . S
C126 O127 1.306 . S
C126 O129 1.160 . S
O127 C126 1.306 . S
O127 Cd128 2.228 . S
Cd128 O127 2.228 . S
Cd128 O132 2.273 . S
Cd128 O136 2.277 . S
O129 C126 1.160 . S
O129 Cd130 2.203 . S
Cd130 O129 2.203 . S
Cd130 O132 2.411 . S
Cd130 O133 2.333 . S
Cd130 O134 2.352 . S
Cd130 O138 2.277 . S
Cd130 O139 2.356 . S
C131 O136 1.209 . S
C131 O138 1.226 . S
O132 Cd128 2.273 . S
O132 Cd130 2.411 . S
O132 C135 1.320 . S
O133 Cd130 2.333 . S
O133 C135 1.214 . S
O134 Cd130 2.352 . S
O134 C137 1.258 . S
C135 O132 1.320 . S
C135 O133 1.214 . S
O136 Cd128 2.277 . S
O136 C131 1.209 . S
C137 O134 1.258 . S
C137 O139 1.282 . S
O138 Cd130 2.277 . S
O138 C131 1.226 . S
O139 Cd130 2.356 . S
O139 C137 1.282 . S
C140 O141 1.306 . S
C140 O143 1.160 . S
O141 C140 1.306 . S
O141 Cd142 2.228 . S
Cd142 O141 2.228 . S
Cd142 O146 2.273 . S
Cd142 O150 2.277 . S
O143 C140 1.160 . S
O143 Cd144 2.203 . S
Cd144 O143 2.203 . S
Cd144 O146 2.411 . S
Cd144 O147 2.333 . S
Cd144 O148 2.352 . S
Cd144 O152 2.277 . S
Cd144 O153 2.356 . S
C145 O150 1.209 . S
C145 O152 1.226 . S
O146 Cd142 2.273 . S
O146 Cd144 2.411 . S
O146 C149 1.320 . S
O147 Cd144 2.333 . S
O147 C149 1.214 . S
O148 Cd144 2.352 . S
O148 C151 1.258 . S
C149 O146 1.320 . S
C149 O147 1.214 . S
O150 Cd142 2.277 . S
O150 C145 1.209 . S
C151 O148 1.258 . S
C151 O153 1.282 . S
O152 Cd144 2.277 . S
O152 C145 1.226 . S
O153 Cd144 2.356 . S
O153 C151 1.282 . S
C154 O155 1.306 . S
C154 O157 1.160 . S
O155 C154 1.306 . S
O155 Cd156 2.228 . S
Cd156 O155 2.228 . S
Cd156 O160 2.273 . S
Cd156 O164 2.277 . S
O157 C154 1.160 . S
O157 Cd158 2.203 . S
Cd158 O157 2.203 . S
Cd158 O160 2.411 . S
Cd158 O161 2.333 . S
Cd158 O162 2.352 . S
Cd158 O166 2.277 . S
Cd158 O167 2.356 . S
C159 O164 1.209 . S
C159 O166 1.226 . S
O160 Cd156 2.273 . S
O160 Cd158 2.411 . S
O160 C163 1.320 . S
O161 Cd158 2.333 . S
O161 C163 1.214 . S
O162 Cd158 2.352 . S
O162 C165 1.258 . S
C163 O160 1.320 . S
C163 O161 1.214 . S
O164 Cd156 2.277 . S
O164 C159 1.209 . S
C165 O162 1.258 . S
C165 O167 1.282 . S
O166 Cd158 2.277 . S
O166 C159 1.226 . S
O167 Cd158 2.356 . S
O167 C165 1.282 . S
C168 O169 1.306 . S
C168 O171 1.160 . S
O169 C168 1.306 . S
O169 Cd170 2.228 . S
Cd170 O169 2.228 . S
Cd170 O174 2.273 . S
Cd170 O178 2.277 . S
O171 C168 1.160 . S
O171 Cd172 2.203 . S
Cd172 O171 2.203 . S
Cd172 O174 2.411 . S
Cd172 O175 2.333 . S
Cd172 O176 2.352 . S
Cd172 O180 2.277 . S
Cd172 O181 2.356 . S
C173 O178 1.209 . S
C173 O180 1.226 . S
O174 Cd170 2.273 . S
O174 Cd172 2.411 . S
O174 C177 1.320 . S
O175 Cd172 2.333 . S
O175 C177 1.214 . S
O176 Cd172 2.352 . S
O176 C179 1.258 . S
C177 O174 1.320 . S
C177 O175 1.214 . S
O178 Cd170 2.277 . S
O178 C173 1.209 . S
C179 O176 1.258 . S
C179 O181 1.282 . S
O180 Cd172 2.277 . S
O180 C173 1.226 . S
O181 Cd172 2.356 . S
O181 C179 1.282 . S
C182 O183 1.306 . S
C182 O185 1.160 . S
O183 C182 1.306 . S
O183 Cd184 2.228 . S
Cd184 O183 2.228 . S
Cd184 O188 2.273 . S
Cd184 O192 2.277 . S
O185 C182 1.160 . S
O185 Cd186 2.203 . S
Cd186 O185 2.203 . S
Cd186 O188 2.411 . S
Cd186 O189 2.333 . S
Cd186 O190 2.352 . S
Cd186 O194 2.277 . S
Cd186 O195 2.356 . S
C187 O192 1.209 . S
C187 O194 1.226 . S
O188 Cd184 2.273 . S
O188 Cd186 2.411 . S
O188 C191 1.320 . S
O189 Cd186 2.333 . S
O189 C191 1.214 . S
O190 Cd186 2.352 . S
O190 C193 1.258 . S
C191 O188 1.320 . S
C191 O189 1.214 . S
O192 Cd184 2.277 . S
O192 C187 1.209 . S
C193 O190 1.258 . S
C193 O195 1.282 . S
O194 Cd186 2.277 . S
O194 C187 1.226 . S
O195 Cd186 2.356 . S
O195 C193 1.282 . S
C196 O197 1.306 . S
C196 O199 1.160 . S
O197 C196 1.306 . S
O197 Cd198 2.228 . S
Cd198 O197 2.228 . S
Cd198 O202 2.273 . S
Cd198 O206 2.277 . S
O199 C196 1.160 . S
O199 Cd200 2.203 . S
Cd200 O199 2.203 . S
Cd200 O202 2.411 . S
Cd200 O203 2.333 . S
Cd200 O204 2.352 . S
Cd200 O208 2.277 . S
Cd200 O209 2.356 . S
C201 O206 1.209 . S
C201 O208 1.226 . S
O202 Cd198 2.273 . S
O202 Cd200 2.411 . S
O202 C205 1.320 . S
O203 Cd200 2.333 . S
O203 C205 1.214 . S
O204 Cd200 2.352 . S
O204 C207 1.258 . S
C205 O202 1.320 . S
C205 O203 1.214 . S
O206 Cd198 2.277 . S
O206 C201 1.209 . S
C207 O204 1.258 . S
C207 O209 1.282 . S
O208 Cd200 2.277 . S
O208 C201 1.226 . S
O209 Cd200 2.356 . S
O209 C207 1.282 . S
C210 O211 1.306 . S
C210 O213 1.160 . S
O211 C210 1.306 . S
O211 Cd212 2.228 . S
Cd212 O211 2.228 . S
Cd212 O216 2.273 . S
Cd212 O220 2.277 . S
O213 C210 1.160 . S
O213 Cd214 2.203 . S
Cd214 O213 2.203 . S
Cd214 O216 2.411 . S
Cd214 O217 2.333 . S
Cd214 O218 2.352 . S
Cd214 O222 2.277 . S
Cd214 O223 2.356 . S
C215 O220 1.209 . S
C215 O222 1.226 . S
O216 Cd212 2.273 . S
O216 Cd214 2.411 . S
O216 C219 1.320 . S
O217 Cd214 2.333 . S
O217 C219 1.214 . S
O218 Cd214 2.352 . S
O218 C221 1.258 . S
C219 O216 1.320 . S
C219 O217 1.214 . S
O220 Cd212 2.277 . S
O220 C215 1.209 . S
C221 O218 1.258 . S
C221 O223 1.282 . S
O222 Cd214 2.277 . S
O222 C215 1.226 . S
O223 Cd214 2.356 . S
O223 C221 1.282 . S
C224 O225 1.306 . S
C224 O227 1.160 . S
O225 C224 1.306 . S
O225 Cd226 2.228 . S
Cd226 O225 2.228 . S
Cd226 O230 2.273 . S
Cd226 O234 2.277 . S
O227 C224 1.160 . S
O227 Cd228 2.203 . S
Cd228 O227 2.203 . S
Cd228 O230 2.411 . S
Cd228 O231 2.333 . S
Cd228 O232 2.352 . S
Cd228 O236 2.277 . S
Cd228 O237 2.356 . S
C229 O234 1.209 . S
C229 O236 1.226 . S
O230 Cd226 2.273 . S
O230 Cd228 2.411 . S
O230 C233 1.320 . S
O231 Cd228 2.333 . S
O231 C233 1.214 . S
O232 Cd228 2.352 . S
O232 C235 1.258 . S
C233 O230 1.320 . S
C233 O231 1.214 . S
O234 Cd226 2.277 . S
O234 C229 1.209 . S
C235 O232 1.258 . S
C235 O237 1.282 . S
O236 Cd228 2.277 . S
O236 C229 1.226 . S
O237 Cd228 2.356 . S
O237 C235 1.282 . S
C238 O239 1.306 . S
C238 O241 1.160 . S
O239 C238 1.306 . S
O239 Cd240 2.228 . S
Cd240 O239 2.228 . S
Cd240 O244 2.273 . S
Cd240 O248 2.277 . S
O241 C238 1.160 . S
O241 Cd242 2.203 . S
Cd242 O241 2.203 . S
Cd242 O244 2.411 . S
Cd242 O245 2.333 . S
Cd242 O246 2.352 . S
Cd242 O250 2.277 . S
Cd242 O251 2.356 . S
C243 O248 1.209 . S
C243 O250 1.226 . S
O244 Cd240 2.273 . S
O244 Cd242 2.411 . S
O244 C247 1.320 . S
O245 Cd242 2.333 . S
O245 C247 1.214 . S
O246 Cd242 2.352 . S
O246 C249 1.258 . S
C247 O244 1.320 . S
C247 O245 1.214 . S
O248 Cd240 2.277 . S
O248 C243 1.209 . S
C249 O246 1.258 . S
C249 O251 1.282 . S
O250 Cd242 2.277 . S
O250 C243 1.226 . S
O251 Cd242 2.356 . S
O251 C249 1.282 . S
C252 O253 1.306 . S
C252 O255 1.160 . S
O253 C252 1.306 . S
O253 Cd254 2.228 . S
Cd254 O253 2.228 . S
Cd254 O258 2.273 . S
Cd254 O262 2.277 . S
O255 C252 1.160 . S
O255 Cd256 2.203 . S
Cd256 O255 2.203 . S
Cd256 O258 2.411 . S
Cd256 O259 2.333 . S
Cd256 O260 2.352 . S
Cd256 O264 2.277 . S
Cd256 O265 2.356 . S
C257 O262 1.209 . S
C257 O264 1.226 . S
O258 Cd254 2.273 . S
O258 Cd256 2.411 . S
O258 C261 1.320 . S
O259 Cd256 2.333 . S
O259 C261 1.214 . S
O260 Cd256 2.352 . S
O260 C263 1.258 . S
C261 O258 1.320 . S
C261 O259 1.214 . S
O262 Cd254 2.277 . S
O262 C257 1.209 . S
C263 O260 1.258 . S
C263 O265 1.282 . S
O264 Cd256 2.277 . S
O264 C257 1.226 . S
O265 Cd256 2.356 . S
O265 C263 1.282 . S
C266 O267 1.306 . S
C266 O269 1.160 . S
O267 C266 1.306 . S
O267 Cd268 2.228 . S
Cd268 O267 2.228 . S
Cd268 O272 2.273 . S
Cd268 O276 2.277 . S
O269 C266 1.160 . S
O269 Cd270 2.203 . S
Cd270 O269 2.203 . S
Cd270 O272 2.411 . S
Cd270 O273 2.333 . S
Cd270 O274 2.352 . S
Cd270 O278 2.277 . S
Cd270 O279 2.356 . S
C271 O276 1.209 . S
C271 O278 1.226 . S
O272 Cd268 2.273 . S
O272 Cd270 2.411 . S
O272 C275 1.320 . S
O273 Cd270 2.333 . S
O273 C275 1.214 . S
O274 Cd270 2.352 . S
O274 C277 1.258 . S
C275 O272 1.320 . S
C275 O273 1.214 . S
O276 Cd268 2.277 . S
O276 C271 1.209 . S
C277 O274 1.258 . S
C277 O279 1.282 . S
O278 Cd270 2.277 . S
O278 C271 1.226 . S
O279 Cd270 2.356 . S
O279 C277 1.282 . S
C280 O281 1.306 . S
C280 O283 1.160 . S
O281 C280 1.306 . S
O281 Cd282 2.228 . S
Cd282 O281 2.228 . S
Cd282 O286 2.273 . S
Cd282 O290 2.277 . S
O283 C280 1.160 . S
O283 Cd284 2.203 . S
Cd284 O283 2.203 . S
Cd284 O286 2.411 . S
Cd284 O287 2.333 . S
Cd284 O288 2.352 . S
Cd284 O292 2.277 . S
Cd284 O293 2.356 . S
C285 O290 1.209 . S
C285 O292 1.226 . S
O286 Cd282 2.273 . S
O286 Cd284 2.411 . S
O286 C289 1.320 . S
O287 Cd284 2.333 . S
O287 C289 1.214 . S
O288 Cd284 2.352 . S
O288 C291 1.258 . S
C289 O286 1.320 . S
C289 O287 1.214 . S
O290 Cd282 2.277 . S
O290 C285 1.209 . S
C291 O288 1.258 . S
C291 O293 1.282 . S
O292 Cd284 2.277 . S
O292 C285 1.226 . S
O293 Cd284 2.356 . S
O293 C291 1.282 . S
C294 O295 1.306 . S
C294 O297 1.160 . S
O295 C294 1.306 . S
O295 Cd296 2.228 . S
Cd296 O295 2.228 . S
Cd296 O300 2.273 . S
Cd296 O304 2.277 . S
O297 C294 1.160 . S
O297 Cd298 2.203 . S
Cd298 O297 2.203 . S
Cd298 O300 2.411 . S
Cd298 O301 2.333 . S
Cd298 O302 2.352 . S
Cd298 O306 2.277 . S
Cd298 O307 2.356 . S
C299 O304 1.209 . S
C299 O306 1.226 . S
O300 Cd296 2.273 . S
O300 Cd298 2.411 . S
O300 C303 1.320 . S
O301 Cd298 2.333 . S
O301 C303 1.214 . S
O302 Cd298 2.352 . S
O302 C305 1.258 . S
C303 O300 1.320 . S
C303 O301 1.214 . S
O304 Cd296 2.277 . S
O304 C299 1.209 . S
C305 O302 1.258 . S
C305 O307 1.282 . S
O306 Cd298 2.277 . S
O306 C299 1.226 . S
O307 Cd298 2.356 . S
O307 C305 1.282 . S
C308 O309 1.306 . S
C308 O311 1.160 . S
O309 C308 1.306 . S
O309 Cd310 2.228 . S
Cd310 O309 2.228 . S
Cd310 O314 2.273 . S
Cd310 O318 2.277 . S
O311 C308 1.160 . S
O311 Cd312 2.203 . S
Cd312 O311 2.203 . S
Cd312 O314 2.411 . S
Cd312 O315 2.333 . S
Cd312 O316 2.352 . S
Cd312 O320 2.277 . S
Cd312 O321 2.356 . S
C313 O318 1.209 . S
C313 O320 1.226 . S
O314 Cd310 2.273 . S
O314 Cd312 2.411 . S
O314 C317 1.320 . S
O315 Cd312 2.333 . S
O315 C317 1.214 . S
O316 Cd312 2.352 . S
O316 C319 1.258 . S
C317 O314 1.320 . S
C317 O315 1.214 . S
O318 Cd310 2.277 . S
O318 C313 1.209 . S
C319 O316 1.258 . S
C319 O321 1.282 . S
O320 Cd312 2.277 . S
O320 C313 1.226 . S
O321 Cd312 2.356 . S
O321 C319 1.282 . S
C322 O323 1.306 . S
C322 O325 1.160 . S
O323 C322 1.306 . S
O323 Cd324 2.228 . S
Cd324 O323 2.228 . S
Cd324 O328 2.273 . S
Cd324 O332 2.277 . S
O325 C322 1.160 . S
O325 Cd326 2.203 . S
Cd326 O325 2.203 . S
Cd326 O328 2.411 . S
Cd326 O329 2.333 . S
Cd326 O330 2.352 . S
Cd326 O334 2.277 . S
Cd326 O335 2.356 . S
C327 O332 1.209 . S
C327 O334 1.226 . S
O328 Cd324 2.273 . S
O328 Cd326 2.411 . S
O328 C331 1.320 . S
O329 Cd326 2.333 . S
O329 C331 1.214 . S
O330 Cd326 2.352 . S
O330 C333 1.258 . S
C331 O328 1.320 . S
C331 O329 1.214 . S
O332 Cd324 2.277 . S
O332 C327 1.209 . S
C333 O330 1.258 . S
C333 O335 1.282 . S
O334 Cd326 2.277 . S
O334 C327 1.226 . S
O335 Cd326 2.356 . S
O335 C333 1.282 . S
C336 O337 1.306 . S
C336 O339 1.160 . S
O337 C336 1.306 . S
O337 Cd338 2.228 . S
Cd338 O337 2.228 . S
Cd338 O342 2.273 . S
Cd338 O346 2.277 . S
O339 C336 1.160 . S
O339 Cd340 2.203 . S
Cd340 O339 2.203 . S
Cd340 O342 2.411 . S
Cd340 O343 2.333 . S
Cd340 O344 2.352 . S
Cd340 O348 2.277 . S
Cd340 O349 2.356 . S
C341 O346 1.209 . S
C341 O348 1.226 . S
O342 Cd338 2.273 . S
O342 Cd340 2.411 . S
O342 C345 1.320 . S
O343 Cd340 2.333 . S
O343 C345 1.214 . S
O344 Cd340 2.352 . S
O344 C347 1.258 . S
C345 O342 1.320 . S
C345 O343 1.214 . S
O346 Cd338 2.277 . S
O346 C341 1.209 . S
C347 O344 1.258 . S
C347 O349 1.282 . S
O348 Cd340 2.277 . S
O348 C341 1.226 . S
O349 Cd340 2.356 . S
O349 C347 1.282 . S
C350 O351 1.306 . S
C350 O353 1.160 . S
O351 C350 1.306 . S
O351 Cd352 2.228 . S
Cd352 O351 2.228 . S
Cd352 O356 2.273 . S
Cd352 O360 2.277 . S
O353 C350 1.160 . S
O353 Cd354 2.203 . S
Cd354 O353 2.203 . S
Cd354 O356 2.411 . S
Cd354 O357 2.333 . S
Cd354 O358 2.352 . S
Cd354 O362 2.277 . S
Cd354 O363 2.356 . S
C355 O360 1.209 . S
C355 O362 1.226 . S
O356 Cd352 2.273 . S
O356 Cd354 2.411 . S
O356 C359 1.320 . S
O357 Cd354 2.333 . S
O357 C359 1.214 . S
O358 Cd354 2.352 . S
O358 C361 1.258 . S
C359 O356 1.320 . S
C359 O357 1.214 . S
O360 Cd352 2.277 . S
O360 C355 1.209 . S
C361 O358 1.258 . S
C361 O363 1.282 . S
O362 Cd354 2.277 . S
O362 C355 1.226 . S
O363 Cd354 2.356 . S
O363 C361 1.282 . S
C364 O365 1.306 . S
C364 O367 1.160 . S
O365 C364 1.306 . S
O365 Cd366 2.228 . S
Cd366 O365 2.228 . S
Cd366 O370 2.273 . S
Cd366 O374 2.277 . S
O367 C364 1.160 . S
O367 Cd368 2.203 . S
Cd368 O367 2.203 . S
Cd368 O370 2.411 . S
Cd368 O371 2.333 . S
Cd368 O372 2.352 . S
Cd368 O376 2.277 . S
Cd368 O377 2.356 . S
C369 O374 1.209 . S
C369 O376 1.226 . S
O370 Cd366 2.273 . S
O370 Cd368 2.411 . S
O370 C373 1.320 . S
O371 Cd368 2.333 . S
O371 C373 1.214 . S
O372 Cd368 2.352 . S
O372 C375 1.258 . S
C373 O370 1.320 . S
C373 O371 1.214 . S
O374 Cd366 2.277 . S
O374 C369 1.209 . S
C375 O372 1.258 . S
C375 O377 1.282 . S
O376 Cd368 2.277 . S
O376 C369 1.226 . S
O377 Cd368 2.356 . S
O377 C375 1.282 . S
C378 O379 1.306 . S
C378 O381 1.160 . S
O379 C378 1.306 . S
O379 Cd380 2.228 . S
Cd380 O379 2.228 . S
Cd380 O384 2.273 . S
Cd380 O388 2.277 . S
O381 C378 1.160 . S
O381 Cd382 2.203 . S
Cd382 O381 2.203 . S
Cd382 O384 2.411 . S
Cd382 O385 2.333 . S
Cd382 O386 2.352 . S
Cd382 O390 2.277 . S
Cd382 O391 2.356 . S
C383 O388 1.209 . S
C383 O390 1.226 . S
O384 Cd380 2.273 . S
O384 Cd382 2.411 . S
O384 C387 1.320 . S
O385 Cd382 2.333 . S
O385 C387 1.214 . S
O386 Cd382 2.352 . S
O386 C389 1.258 . S
C387 O384 1.320 . S
C387 O385 1.214 . S
O388 Cd380 2.277 . S
O388 C383 1.209 . S
C389 O386 1.258 . S
C389 O391 1.282 . S
O390 Cd382 2.277 . S
O390 C383 1.226 . S
O391 Cd382 2.356 . S
O391 C389 1.282 . S
C392 O393 1.306 . S
C392 O395 1.160 . S
O393 C392 1.306 . S
O393 Cd394 2.228 . S
Cd394 O393 2.228 . S
Cd394 O398 2.273 . S
Cd394 O402 2.277 . S
O395 C392 1.160 . S
O395 Cd396 2.203 . S
Cd396 O395 2.203 . S
Cd396 O398 2.411 . S
Cd396 O399 2.333 . S
Cd396 O400 2.352 . S
Cd396 O404 2.277 . S
Cd396 O405 2.356 . S
C397 O402 1.209 . S
C397 O404 1.226 . S
O398 Cd394 2.273 . S
O398 Cd396 2.411 . S
O398 C401 1.320 . S
O399 Cd396 2.333 . S
O399 C401 1.214 . S
O400 Cd396 2.352 . S
O400 C403 1.258 . S
C401 O398 1.320 . S
C401 O399 1.214 . S
O402 Cd394 2.277 . S
O402 C397 1.209 . S
C403 O400 1.258 . S
C403 O405 1.282 . S
O404 Cd396 2.277 . S
O404 C397 1.226 . S
O405 Cd396 2.356 . S
O405 C403 1.282 . S
C406 O407 1.306 . S
C406 O409 1.160 . S
O407 C406 1.306 . S
O407 Cd408 2.228 . S
Cd408 O407 2.228 . S
Cd408 O412 2.273 . S
Cd408 O416 2.277 . S
O409 C406 1.160 . S
O409 Cd410 2.203 . S
Cd410 O409 2.203 . S
Cd410 O412 2.411 . S
Cd410 O413 2.333 . S
Cd410 O414 2.352 . S
Cd410 O418 2.277 . S
Cd410 O419 2.356 . S
C411 O416 1.209 . S
C411 O418 1.226 . S
O412 Cd408 2.273 . S
O412 Cd410 2.411 . S
O412 C415 1.320 . S
O413 Cd410 2.333 . S
O413 C415 1.214 . S
O414 Cd410 2.352 . S
O414 C417 1.258 . S
C415 O412 1.320 . S
C415 O413 1.214 . S
O416 Cd408 2.277 . S
O416 C411 1.209 . S
C417 O414 1.258 . S
C417 O419 1.282 . S
O418 Cd410 2.277 . S
O418 C411 1.226 . S
O419 Cd410 2.356 . S
O419 C417 1.282 . S
C420 O421 1.306 . S
C420 O423 1.160 . S
O421 C420 1.306 . S
O421 Cd422 2.228 . S
Cd422 O421 2.228 . S
Cd422 O426 2.273 . S
Cd422 O430 2.277 . S
O423 C420 1.160 . S
O423 Cd424 2.203 . S
Cd424 O423 2.203 . S
Cd424 O426 2.411 . S
Cd424 O427 2.333 . S
Cd424 O428 2.352 . S
Cd424 O432 2.277 . S
Cd424 O433 2.356 . S
C425 O430 1.209 . S
C425 O432 1.226 . S
O426 Cd422 2.273 . S
O426 Cd424 2.411 . S
O426 C429 1.320 . S
O427 Cd424 2.333 . S
O427 C429 1.214 . S
O428 Cd424 2.352 . S
O428 C431 1.258 . S
C429 O426 1.320 . S
C429 O427 1.214 . S
O430 Cd422 2.277 . S
O430 C425 1.209 . S
C431 O428 1.258 . S
C431 O433 1.282 . S
O432 Cd424 2.277 . S
O432 C425 1.226 . S
O433 Cd424 2.356 . S
O433 C431 1.282 . S
C434 O435 1.306 . S
C434 O437 1.160 . S
O435 C434 1.306 . S
O435 Cd436 2.228 . S
Cd436 O435 2.228 . S
Cd436 O440 2.273 . S
Cd436 O444 2.277 . S
O437 C434 1.160 . S
O437 Cd438 2.203 . S
Cd438 O437 2.203 . S
Cd438 O440 2.411 . S
Cd438 O441 2.333 . S
Cd438 O442 2.352 . S
Cd438 O446 2.277 . S
Cd438 O447 2.356 . S
C439 O444 1.209 . S
C439 O446 1.226 . S
O440 Cd436 2.273 . S
O440 Cd438 2.411 . S
O440 C443 1.320 . S
O441 Cd438 2.333 . S
O441 C443 1.214 . S
O442 Cd438 2.352 . S
O442 C445 1.258 . S
C443 O440 1.320 . S
C443 O441 1.214 . S
O444 Cd436 2.277 . S
O444 C439 1.209 . S
C445 O442 1.258 . S
C445 O447 1.282 . S
O446 Cd438 2.277 . S
O446 C439 1.226 . S
O447 Cd438 2.356 . S
O447 C445 1.282 . S
C448 O449 1.306 . S
C448 O451 1.160 . S
O449 C448 1.306 . S
O449 Cd450 2.228 . S
Cd450 O449 2.228 . S
Cd450 O454 2.273 . S
Cd450 O458 2.277 . S
O451 C448 1.160 . S
O451 Cd452 2.203 . S
Cd452 O451 2.203 . S
Cd452 O454 2.411 . S
Cd452 O455 2.333 . S
Cd452 O456 2.352 . S
Cd452 O460 2.277 . S
Cd452 O461 2.356 . S
C453 O458 1.209 . S
C453 O460 1.226 . S
O454 Cd450 2.273 . S
O454 Cd452 2.411 . S
O454 C457 1.320 . S
O455 Cd452 2.333 . S
O455 C457 1.214 . S
O456 Cd452 2.352 . S
O456 C459 1.258 . S
C457 O454 1.320 . S
C457 O455 1.214 . S
O458 Cd450 2.277 . S
O458 C453 1.209 . S
C459 O456 1.258 . S
C459 O461 1.282 . S
O460 Cd452 2.277 . S
O460 C453 1.226 . S
O461 Cd452 2.356 . S
O461 C459 1.282 . S
C462 O463 1.306 . S
C462 O465 1.160 . S
O463 C462 1.306 . S
O463 Cd464 2.228 . S
Cd464 O463 2.228 . S
Cd464 O468 2.273 . S
Cd464 O472 2.277 . S
O465 C462 1.160 . S
O465 Cd466 2.203 . S
Cd466 O465 2.203 . S
Cd466 O468 2.411 . S
Cd466 O469 2.333 . S
Cd466 O470 2.352 . S
Cd466 O474 2.277 . S
Cd466 O475 2.356 . S
C467 O472 1.209 . S
C467 O474 1.226 . S
O468 Cd464 2.273 . S
O468 Cd466 2.411 . S
O468 C471 1.320 . S
O469 Cd466 2.333 . S
O469 C471 1.214 . S
O470 Cd466 2.352 . S
O470 C473 1.258 . S
C471 O468 1.320 . S
C471 O469 1.214 . S
O472 Cd464 2.277 . S
O472 C467 1.209 . S
C473 O470 1.258 . S
C473 O475 1.282 . S
O474 Cd466 2.277 . S
O474 C467 1.226 . S
O475 Cd466 2.356 . S
O475 C473 1.282 . S
C476 O477 1.306 . S
C476 O479 1.160 . S
O477 C476 1.306 . S
O477 Cd478 2.228 . S
Cd478 O477 2.228 . S
Cd478 O482 2.273 . S
Cd478 O486 2.277 . S
O479 C476 1.160 . S
O479 Cd480 2.203 . S
Cd480 O479 2.203 . S
Cd480 O482 2.411 . S
Cd480 O483 2.333 . S
Cd480 O484 2.352 . S
Cd480 O488 2.277 . S
Cd480 O489 2.356 . S
C481 O486 1.209 . S
C481 O488 1.226 . S
O482 Cd478 2.273 . S
O482 Cd480 2.411 . S
O482 C485 1.320 . S
O483 Cd480 2.333 . S
O483 C485 1.214 . S
O484 Cd480 2.352 . S
O484 C487 1.258 . S
C485 O482 1.320 . S
C485 O483 1.214 . S
O486 Cd478 2.277 . S
O486 C481 1.209 . S
C487 O484 1.258 . S
C487 O489 1.282 . S
O488 Cd480 2.277 . S
O488 C481 1.226 . S
O489 Cd480 2.356 . S
O489 C487 1.282 . S
C490 O491 1.306 . S
C490 O493 1.160 . S
O491 C490 1.306 . S
O491 Cd492 2.228 . S
Cd492 O491 2.228 . S
Cd492 O496 2.273 . S
Cd492 O500 2.277 . S
O493 C490 1.160 . S
O493 Cd494 2.203 . S
Cd494 O493 2.203 . S
Cd494 O496 2.411 . S
Cd494 O497 2.333 . S
Cd494 O498 2.352 . S
Cd494 O502 2.277 . S
Cd494 O503 2.356 . S
C495 O500 1.209 . S
C495 O502 1.226 . S
O496 Cd492 2.273 . S
O496 Cd494 2.411 . S
O496 C499 1.320 . S
O497 Cd494 2.333 . S
O497 C499 1.214 . S
O498 Cd494 2.352 . S
O498 C501 1.258 . S
C499 O496 1.320 . S
C499 O497 1.214 . S
O500 Cd492 2.277 . S
O500 C495 1.209 . S
C501 O498 1.258 . S
C501 O503 1.282 . S
O502 Cd494 2.277 . S
O502 C495 1.226 . S
O503 Cd494 2.356 . S
O503 C501 1.282 . S
H504 C512 0.929 . S
H505 C514 0.930 . S
H506 C516 0.930 . S
H507 C519 0.929 . S
H508 C522 0.930 . S
H509 C524 0.960 . S
H510 C524 0.960 . S
H511 C524 0.960 . S
C512 H504 0.929 . S
C512 C513 1.377 . S
C512 C514 1.384 . S
C513 C512 1.377 . S
C513 C519 1.390 . S
C514 H505 0.930 . S
C514 C512 1.384 . S
C514 C515 1.372 . S
C515 C514 1.372 . S
C515 C516 1.400 . S
C515 C520 1.490 . S
C516 H506 0.930 . S
C516 C515 1.400 . S
C516 C519 1.386 . S
H517 C533 0.930 . S
H518 C534 0.931 . S
C519 H507 0.929 . S
C519 C513 1.390 . S
C519 C516 1.386 . S
C520 C515 1.490 . S
C520 C522 1.395 . S
C520 C523 1.403 1_554 S
H521 C527 0.930 . S
C522 H508 0.930 . S
C522 C520 1.395 . S
C522 C525 1.403 . S
C523 C520 1.403 1_556 S
C523 C524 1.524 . S
C523 C527 1.400 . S
C524 H509 0.960 . S
C524 H510 0.960 . S
C524 H511 0.960 . S
C524 C523 1.524 . S
C525 C522 1.403 . S
C525 C526 1.392 1_554 S
C525 C529 1.495 1_545 S
C526 C525 1.392 1_556 S
C526 C527 1.385 . S
C526 C528 1.478 1_545 S
C527 H521 0.930 . S
C527 C523 1.400 . S
C527 C526 1.385 . S
C528 C526 1.478 1_565 S
C528 C530 1.381 . S
C528 C534 1.383 . S
C529 C525 1.495 1_565 S
C529 H535 0.959 . S
C529 H536 0.961 . S
C529 H537 0.960 . S
C530 C528 1.381 . S
C530 C531 1.394 . S
C530 H538 0.930 . S
C531 C530 1.394 . S
C531 C532 1.383 . S
C531 H539 0.929 . S
C532 C531 1.383 . S
C532 C533 1.377 . S
C533 H517 0.930 . S
C533 C532 1.377 . S
C533 C534 1.379 . S
C534 H518 0.931 . S
C534 C528 1.383 . S
C534 C533 1.379 . S
H535 C529 0.959 . S
H536 C529 0.961 . S
H537 C529 0.960 . S
H538 C530 0.930 . S
H539 C531 0.929 . S
H540 C548 0.929 . S
H541 C550 0.930 . S
H542 C552 0.930 . S
H543 C555 0.929 . S
H544 C558 0.930 . S
H545 C560 0.960 . S
H546 C560 0.960 . S
H547 C560 0.960 . S
C548 H540 0.929 . S
C548 C549 1.377 . S
C548 C550 1.384 . S
C549 C548 1.377 . S
C549 C555 1.390 . S
C550 H541 0.930 . S
C550 C548 1.384 . S
C550 C551 1.372 . S
C551 C550 1.372 . S
C551 C552 1.400 . S
C551 C556 1.490 . S
C552 H542 0.930 . S
C552 C551 1.400 . S
C552 C555 1.386 . S
H553 C569 0.930 . S
H554 C570 0.883 1_655 S
C555 H543 0.929 . S
C555 C549 1.390 . S
C555 C552 1.386 . S
C556 C551 1.490 . S
C556 C558 1.395 . S
C556 C559 1.403 . S
H557 C563 0.930 1_556 S
C558 H544 0.930 . S
C558 C556 1.395 . S
C558 C561 1.403 1_554 S
C559 C556 1.403 . S
C559 C560 1.524 . S
C559 C563 1.400 . S
C560 H545 0.960 . S
C560 H546 0.960 . S
C560 H547 0.960 . S
C560 C559 1.524 . S
C561 C558 1.403 1_556 S
C561 C562 1.392 . S
C561 C565 1.495 . S
C562 C561 1.392 . S
C562 C563 1.385 1_556 S
C562 C564 1.478 1_655 S
C563 H557 0.930 1_554 S
C563 C559 1.400 . S
C563 C562 1.385 1_554 S
C564 C562 1.478 1_455 S
C564 C566 1.381 . S
C564 C570 1.402 . S
C565 C561 1.495 . S
C565 H571 0.959 . S
C565 H572 0.961 . S
C565 H573 0.976 . S
C566 C564 1.381 . S
C566 C567 1.394 . S
C566 H574 0.930 . S
C567 C566 1.394 . S
C567 C568 1.383 . S
C567 H575 0.929 . S
C568 C567 1.383 . S
C568 C569 1.377 . S
C569 H553 0.930 . S
C569 C568 1.377 . S
C569 C570 1.409 . S
C570 H554 0.883 1_455 S
C570 C564 1.402 . S
C570 C569 1.409 . S
H571 C565 0.959 . S
H572 C565 0.961 . S
H573 C565 0.976 . S
H574 C566 0.930 . S
H575 C567 0.929 . S
H576 C584 0.929 . S
H577 C586 0.952 . S
H578 C588 0.930 . S
H579 C591 0.929 . S
H580 C594 0.927 1_556 S
H581 C596 0.960 . S
H582 C596 0.960 . S
H583 C596 0.960 . S
C584 H576 0.929 . S
C584 C585 1.377 . S
C584 C586 1.384 . S
C585 C584 1.377 . S
C585 C591 1.390 . S
C586 H577 0.952 . S
C586 C584 1.384 . S
C586 C587 1.372 . S
C587 C586 1.372 . S
C587 C588 1.400 . S
C587 C592 1.490 . S
C588 H578 0.930 . S
C588 C587 1.400 . S
C588 C591 1.386 . S
H589 C605 0.930 . S
H590 C606 0.931 . S
C591 H579 0.929 . S
C591 C585 1.390 . S
C591 C588 1.386 . S
C592 C587 1.490 . S
C592 C594 1.390 1_556 S
C592 C595 1.403 . S
H593 C599 0.930 . S
C594 H580 0.927 1_554 S
C594 C592 1.390 1_554 S
C594 C597 1.411 . S
C595 C592 1.403 . S
C595 C596 1.524 . S
C595 C599 1.400 1_556 S
C596 H581 0.960 . S
C596 H582 0.960 . S
C596 H583 0.960 . S
C596 C595 1.524 . S
C597 C594 1.411 . S
C597 C598 1.392 . S
C597 C601 1.495 . S
C598 C597 1.392 . S
C598 C599 1.385 . S
C598 C600 1.478 . S
C599 H593 0.930 . S
C599 C595 1.400 1_554 S
C599 C598 1.385 . S
C600 C598 1.478 . S
C600 C602 1.381 . S
C600 C606 1.383 . S
C601 C597 1.495 . S
C601 H607 0.959 . S
C601 H608 0.961 . S
C601 H609 0.960 . S
C602 C600 1.381 . S
C602 C603 1.394 . S
C602 H610 0.930 . S
C603 C602 1.394 . S
C603 C604 1.383 . S
C603 H611 0.929 . S
C604 C603 1.383 . S
C604 C605 1.377 . S
C605 H589 0.930 . S
C605 C604 1.377 . S
C605 C606 1.379 . S
C606 H590 0.931 . S
C606 C600 1.383 . S
C606 C605 1.379 . S
H607 C601 0.959 . S
H608 C601 0.961 . S
H609 C601 0.960 . S
H610 C602 0.930 . S
H611 C603 0.929 . S
H612 C620 0.929 . S
H613 C622 0.930 . S
H614 C624 0.906 1_455 S
H615 C627 0.929 . S
H616 C630 0.930 . S
H617 C632 0.960 . S
H618 C632 0.960 . S
H619 C632 0.960 . S
C620 H612 0.929 . S
C620 C621 1.377 . S
C620 C622 1.384 . S
C621 C620 1.377 . S
C621 C627 1.390 . S
C622 H613 0.930 . S
C622 C620 1.384 . S
C622 C623 1.372 . S
C623 C622 1.372 . S
C623 C624 1.401 . S
C623 C628 1.490 1_655 S
C624 H614 0.906 1_655 S
C624 C623 1.401 . S
C624 C627 1.409 . S
H625 C641 0.930 . S
H626 C642 0.931 . S
C627 H615 0.929 . S
C627 C621 1.390 . S
C627 C624 1.409 . S
C628 C623 1.490 1_455 S
C628 C630 1.395 . S
C628 C631 1.403 . S
H629 C635 0.930 . S
C630 H616 0.930 . S
C630 C628 1.395 . S
C630 C633 1.403 . S
C631 C628 1.403 . S
C631 C632 1.524 . S
C631 C635 1.400 . S
C632 H617 0.960 . S
C632 H618 0.960 . S
C632 H619 0.960 . S
C632 C631 1.524 . S
C633 C630 1.403 . S
C633 C634 1.392 . S
C633 C637 1.495 . S
C634 C633 1.392 . S
C634 C635 1.385 . S
C634 C636 1.478 . S
C635 H629 0.930 . S
C635 C631 1.400 . S
C635 C634 1.385 . S
C636 C634 1.478 . S
C636 C638 1.381 . S
C636 C642 1.383 . S
C637 C633 1.495 . S
C637 H643 0.959 . S
C637 H644 0.961 . S
C637 H645 0.960 . S
C638 C636 1.381 . S
C638 C639 1.394 . S
C638 H646 0.930 . S
C639 C638 1.394 . S
C639 C640 1.383 . S
C639 H647 0.929 . S
C640 C639 1.383 . S
C640 C641 1.377 . S
C641 H625 0.930 . S
C641 C640 1.377 . S
C641 C642 1.379 . S
C642 H626 0.931 . S
C642 C636 1.383 . S
C642 C641 1.379 . S
H643 C637 0.959 . S
H644 C637 0.961 . S
H645 C637 0.960 . S
H646 C638 0.930 . S
H647 C639 0.929 . S
H648 C656 0.929 . S
H649 C658 0.930 . S
H650 C660 0.930 . S
H651 C663 0.929 . S
H652 C666 0.930 . S
H653 C668 0.960 . S
H654 C668 0.960 . S
H655 C668 0.960 . S
C656 H648 0.929 . S
C656 C657 1.377 . S
C656 C658 1.384 . S
C657 C656 1.377 . S
C657 C663 1.390 . S
C658 H649 0.930 . S
C658 C656 1.384 . S
C658 C659 1.372 . S
C659 C658 1.372 . S
C659 C660 1.400 . S
C659 C664 1.490 . S
C660 H650 0.930 . S
C660 C659 1.400 . S
C660 C663 1.386 . S
H661 C677 0.930 . S
H662 C678 0.931 . S
C663 H651 0.929 . S
C663 C657 1.390 . S
C663 C660 1.386 . S
C664 C659 1.490 . S
C664 C666 1.395 . S
C664 C667 1.403 . S
H665 C671 0.930 . S
C666 H652 0.930 . S
C666 C664 1.395 . S
C666 C669 1.403 . S
C667 C664 1.403 . S
C667 C668 1.524 . S
C667 C671 1.400 . S
C668 H653 0.960 . S
C668 H654 0.960 . S
C668 H655 0.960 . S
C668 C667 1.524 . S
C669 C666 1.403 . S
C669 C670 1.392 . S
C669 C673 1.495 . S
C670 C669 1.392 . S
C670 C671 1.385 . S
C670 C672 1.478 . S
C671 H665 0.930 . S
C671 C667 1.400 . S
C671 C670 1.385 . S
C672 C670 1.478 . S
C672 C674 1.381 . S
C672 C678 1.383 . S
C673 C669 1.495 . S
C673 H679 0.959 . S
C673 H680 0.961 . S
C673 H681 0.960 . S
C674 C672 1.381 . S
C674 C675 1.394 . S
C674 H682 0.930 . S
C675 C674 1.394 . S
C675 C676 1.383 . S
C675 H683 0.929 . S
C676 C675 1.383 . S
C676 C677 1.377 . S
C677 H661 0.930 . S
C677 C676 1.377 . S
C677 C678 1.379 . S
C678 H662 0.931 . S
C678 C672 1.383 . S
C678 C677 1.379 . S
H679 C673 0.959 . S
H680 C673 0.961 . S
H681 C673 0.960 . S
H682 C674 0.930 . S
H683 C675 0.929 . S
H684 C692 0.929 . S
H685 C694 0.930 . S
H686 C696 0.930 . S
H687 C699 0.929 . S
H688 C702 0.930 . S
H689 C704 0.960 . S
H690 C704 0.960 . S
H691 C704 0.960 . S
C692 H684 0.929 . S
C692 C693 1.377 . S
C692 C694 1.384 . S
C693 C692 1.377 . S
C693 C699 1.390 . S
C694 H685 0.930 . S
C694 C692 1.384 . S
C694 C695 1.372 . S
C695 C694 1.372 . S
C695 C696 1.400 . S
C695 C700 1.490 . S
C696 H686 0.930 . S
C696 C695 1.400 . S
C696 C699 1.386 . S
H697 C713 0.930 . S
H698 C714 0.931 . S
C699 H687 0.929 . S
C699 C693 1.390 . S
C699 C696 1.386 . S
C700 C695 1.490 . S
C700 C702 1.395 . S
C700 C703 1.403 . S
H701 C707 0.930 . S
C702 H688 0.930 . S
C702 C700 1.395 . S
C702 C705 1.403 . S
C703 C700 1.403 . S
C703 C704 1.524 . S
C703 C707 1.400 . S
C704 H689 0.960 . S
C704 H690 0.960 . S
C704 H691 0.960 . S
C704 C703 1.524 . S
C705 C702 1.403 . S
C705 C706 1.392 . S
C705 C709 1.495 1_565 S
C706 C705 1.392 . S
C706 C707 1.385 . S
C706 C708 1.478 1_565 S
C707 H701 0.930 . S
C707 C703 1.400 . S
C707 C706 1.385 . S
C708 C706 1.478 1_545 S
C708 C710 1.381 . S
C708 C714 1.383 . S
C709 C705 1.495 1_545 S
C709 H715 0.959 . S
C709 H716 0.961 . S
C709 H717 0.960 . S
C710 C708 1.381 . S
C710 C711 1.394 . S
C710 H718 0.930 . S
C711 C710 1.394 . S
C711 C712 1.383 . S
C711 H719 0.929 . S
C712 C711 1.383 . S
C712 C713 1.377 . S
C713 H697 0.930 . S
C713 C712 1.377 . S
C713 C714 1.379 . S
C714 H698 0.931 . S
C714 C708 1.383 . S
C714 C713 1.379 . S
H715 C709 0.959 . S
H716 C709 0.961 . S
H717 C709 0.960 . S
H718 C710 0.930 . S
H719 C711 0.929 . S
H720 C728 0.929 . S
H721 C730 0.930 . S
H722 C732 0.930 1_565 S
H723 C735 0.929 . S
H724 C738 0.930 . S
H725 C740 0.960 . S
H726 C740 0.960 . S
H727 C740 0.960 1_554 S
C728 H720 0.929 . S
C728 C729 1.377 . S
C728 C730 1.384 . S
C729 C728 1.377 . S
C729 C735 1.390 . S
C730 H721 0.930 . S
C730 C728 1.384 . S
C730 C731 1.372 . S
C731 C730 1.372 . S
C731 C732 1.400 . S
C731 C736 1.490 1_545 S
C732 H722 0.930 1_545 S
C732 C731 1.400 . S
C732 C735 1.386 . S
H733 C749 0.930 . S
H734 C750 0.931 . S
C735 H723 0.929 . S
C735 C729 1.390 . S
C735 C732 1.386 . S
C736 C731 1.490 1_565 S
C736 C738 1.395 . S
C736 C739 1.403 1_554 S
H737 C743 0.930 . S
C738 H724 0.930 . S
C738 C736 1.395 . S
C738 C741 1.403 1_554 S
C739 C736 1.403 1_556 S
C739 C740 1.524 . S
C739 C743 1.400 . S
C740 H725 0.960 . S
C740 H726 0.960 . S
C740 H727 0.960 1_556 S
C740 C739 1.524 . S
C741 C738 1.403 1_556 S
C741 C742 1.392 . S
C741 C745 1.495 . S
C742 C741 1.392 . S
C742 C743 1.385 . S
C742 C744 1.478 . S
C743 H737 0.930 . S
C743 C739 1.400 . S
C743 C742 1.385 . S
C744 C742 1.478 . S
C744 C746 1.381 . S
C744 C750 1.383 . S
C745 C741 1.495 . S
C745 H751 0.959 1_556 S
C745 H752 0.961 1_556 S
C745 H753 0.960 . S
C746 C744 1.381 . S
C746 C747 1.394 . S
C746 H754 0.930 . S
C747 C746 1.394 . S
C747 C748 1.383 . S
C747 H755 0.929 . S
C748 C747 1.383 . S
C748 C749 1.377 . S
C749 H733 0.930 . S
C749 C748 1.377 . S
C749 C750 1.379 . S
C750 H734 0.931 . S
C750 C744 1.383 . S
C750 C749 1.379 . S
H751 C745 0.959 1_554 S
H752 C745 0.961 1_554 S
H753 C745 0.960 . S
H754 C746 0.930 . S
H755 C747 0.929 . S
H756 C764 0.929 . S
H757 C766 0.930 1_455 S
H758 C768 0.965 . S
H759 C771 0.929 . S
H760 C774 0.930 . S
H761 C776 0.960 . S
H762 C776 0.960 . S
H763 C776 0.960 . S
C764 H756 0.929 . S
C764 C765 1.377 . S
C764 C766 1.384 . S
C765 C764 1.377 . S
C765 C771 1.390 . S
C766 H757 0.930 1_655 S
C766 C764 1.384 . S
C766 C767 1.372 . S
C767 C766 1.372 . S
C767 C768 1.400 . S
C767 C772 1.490 1_655 S
C768 H758 0.965 . S
C768 C767 1.400 . S
C768 C771 1.386 . S
H769 C785 0.930 . S
H770 C786 0.931 . S
C771 H759 0.929 . S
C771 C765 1.390 . S
C771 C768 1.386 . S
C772 C767 1.490 1_455 S
C772 C774 1.395 . S
C772 C775 1.403 1_554 S
H773 C779 0.930 . S
C774 H760 0.930 . S
C774 C772 1.395 . S
C774 C777 1.403 . S
C775 C772 1.403 1_556 S
C775 C776 1.524 1_455 S
C775 C779 1.400 . S
C776 H761 0.960 . S
C776 H762 0.960 . S
C776 H763 0.960 . S
C776 C775 1.524 1_655 S
C777 C774 1.403 . S
C777 C778 1.392 1_554 S
C777 C781 1.495 . S
C778 C777 1.392 1_556 S
C778 C779 1.385 . S
C778 C780 1.478 . S
C779 H773 0.930 . S
C779 C775 1.400 . S
C779 C778 1.385 . S
C780 C778 1.478 . S
C780 C782 1.381 . S
C780 C786 1.383 . S
C781 C777 1.495 . S
C781 H787 0.959 . S
C781 H788 0.961 . S
C781 H789 0.960 . S
C782 C780 1.381 . S
C782 C783 1.394 . S
C782 H790 0.930 . S
C783 C782 1.394 . S
C783 C784 1.383 . S
C783 H791 0.929 . S
C784 C783 1.383 . S
C784 C785 1.377 . S
C785 H769 0.930 . S
C785 C784 1.377 . S
C785 C786 1.379 . S
C786 H770 0.931 . S
C786 C780 1.383 . S
C786 C785 1.379 . S
H787 C781 0.959 . S
H788 C781 0.961 . S
H789 C781 0.960 . S
H790 C782 0.930 . S
H791 C783 0.929 . S
H792 C800 0.929 . S
H793 C802 0.930 . S
H794 C804 0.930 . S
H795 C807 0.929 . S
H796 C810 0.930 . S
H797 C812 0.960 . S
H798 C812 0.960 . S
H799 C812 0.960 . S
C800 H792 0.929 . S
C800 C801 1.377 . S
C800 C802 1.384 . S
C801 C800 1.377 . S
C801 C807 1.390 . S
C802 H793 0.930 . S
C802 C800 1.384 . S
C802 C803 1.372 . S
C803 C802 1.372 . S
C803 C804 1.400 . S
C803 C808 1.490 . S
C804 H794 0.930 . S
C804 C803 1.400 . S
C804 C807 1.386 . S
H805 C821 0.930 . S
H806 C822 0.931 . S
C807 H795 0.929 . S
C807 C801 1.390 . S
C807 C804 1.386 . S
C808 C803 1.490 . S
C808 C810 1.395 1_556 S
C808 C811 1.403 . S
H809 C815 0.930 . S
C810 H796 0.930 . S
C810 C808 1.395 1_554 S
C810 C813 1.403 . S
C811 C808 1.403 . S
C811 C812 1.524 . S
C811 C815 1.400 . S
C812 H797 0.960 . S
C812 H798 0.960 . S
C812 H799 0.960 . S
C812 C811 1.524 . S
C813 C810 1.403 . S
C813 C814 1.392 . S
C813 C817 1.495 . S
C814 C813 1.392 . S
C814 C815 1.385 1_554 S
C814 C816 1.478 . S
C815 H809 0.930 . S
C815 C811 1.400 . S
C815 C814 1.385 1_556 S
C816 C814 1.478 . S
C816 C818 1.381 . S
C816 C822 1.383 . S
C817 C813 1.495 . S
C817 H823 0.959 . S
C817 H824 0.961 . S
C817 H825 0.960 . S
C818 C816 1.381 . S
C818 C819 1.394 . S
C818 H826 0.930 . S
C819 C818 1.394 . S
C819 C820 1.383 . S
C819 H827 0.929 . S
C820 C819 1.383 . S
C820 C821 1.377 . S
C821 H805 0.930 . S
C821 C820 1.377 . S
C821 C822 1.379 . S
C822 H806 0.931 . S
C822 C816 1.383 . S
C822 C821 1.379 . S
H823 C817 0.959 . S
H824 C817 0.961 . S
H825 C817 0.960 . S
H826 C818 0.930 . S
H827 C819 0.929 . S
H828 C836 0.929 . S
H829 C838 0.930 . S
H830 C840 0.930 . S
H831 C843 0.929 . S
H832 C846 0.930 . S
H833 C848 0.960 . S
H834 C848 0.960 . S
H835 C848 0.960 . S
C836 H828 0.929 . S
C836 C837 1.377 . S
C836 C838 1.384 . S
C837 C836 1.377 . S
C837 C843 1.390 . S
C838 H829 0.930 . S
C838 C836 1.384 . S
C838 C839 1.372 . S
C839 C838 1.372 . S
C839 C840 1.400 . S
C839 C844 1.490 . S
C840 H830 0.930 . S
C840 C839 1.400 . S
C840 C843 1.386 . S
H841 C857 0.930 . S
H842 C858 0.931 . S
C843 H831 0.929 . S
C843 C837 1.390 . S
C843 C840 1.386 . S
C844 C839 1.490 . S
C844 C846 1.395 . S
C844 C847 1.403 . S
H845 C851 0.930 . S
C846 H832 0.930 . S
C846 C844 1.395 . S
C846 C849 1.403 . S
C847 C844 1.403 . S
C847 C848 1.524 . S
C847 C851 1.400 . S
C848 H833 0.960 . S
C848 H834 0.960 . S
C848 H835 0.960 . S
C848 C847 1.524 . S
C849 C846 1.403 . S
C849 C850 1.392 . S
C849 C853 1.495 1_655 S
C850 C849 1.392 . S
C850 C851 1.385 . S
C850 C852 1.478 1_655 S
C851 H845 0.930 . S
C851 C847 1.400 . S
C851 C850 1.385 . S
C852 C850 1.478 1_455 S
C852 C854 1.381 . S
C852 C858 1.383 . S
C853 C849 1.495 1_455 S
C853 H859 0.959 . S
C853 H860 0.961 . S
C853 H861 0.960 . S
C854 C852 1.381 . S
C854 C855 1.394 . S
C854 H862 0.930 . S
C855 C854 1.394 . S
C855 C856 1.383 . S
C855 H863 0.929 . S
C856 C855 1.383 . S
C856 C857 1.377 . S
C857 H841 0.930 . S
C857 C856 1.377 . S
C857 C858 1.379 . S
C858 H842 0.931 . S
C858 C852 1.383 . S
C858 C857 1.379 . S
H859 C853 0.959 . S
H860 C853 0.961 . S
H861 C853 0.960 . S
H862 C854 0.930 . S
H863 C855 0.929 . S
H864 C872 0.929 . S
H865 C874 0.930 . S
H866 C876 0.930 . S
H867 C879 0.929 . S
H868 C882 0.930 . S
H869 C884 0.960 . S
H870 C884 0.960 . S
H871 C884 0.960 . S
C872 H864 0.929 . S
C872 C873 1.377 . S
C872 C874 1.384 . S
C873 C872 1.377 . S
C873 C879 1.390 . S
C874 H865 0.930 . S
C874 C872 1.384 . S
C874 C875 1.372 . S
C875 C874 1.372 . S
C875 C876 1.400 . S
C875 C880 1.490 . S
C876 H866 0.930 . S
C876 C875 1.400 . S
C876 C879 1.386 . S
H877 C893 0.930 . S
H878 C894 0.931 . S
C879 H867 0.929 . S
C879 C873 1.390 . S
C879 C876 1.386 . S
C880 C875 1.490 . S
C880 C882 1.395 . S
C880 C883 1.403 . S
H881 C887 0.930 . S
C882 H868 0.930 . S
C882 C880 1.395 . S
C882 C885 1.403 . S
C883 C880 1.403 . S
C883 C884 1.524 . S
C883 C887 1.400 . S
C884 H869 0.960 . S
C884 H870 0.960 . S
C884 H871 0.960 . S
C884 C883 1.524 . S
C885 C882 1.403 . S
C885 C886 1.392 . S
C885 C889 1.495 . S
C886 C885 1.392 . S
C886 C887 1.385 . S
C886 C888 1.478 . S
C887 H881 0.930 . S
C887 C883 1.400 . S
C887 C886 1.385 . S
C888 C886 1.478 . S
C888 C890 1.381 . S
C888 C894 1.383 . S
C889 C885 1.495 . S
C889 H895 0.959 . S
C889 H896 0.961 . S
C889 H897 0.960 . S
C890 C888 1.381 . S
C890 C891 1.394 . S
C890 H898 0.930 . S
C891 C890 1.394 . S
C891 C892 1.383 . S
C891 H899 0.929 . S
C892 C891 1.383 . S
C892 C893 1.377 . S
C893 H877 0.930 . S
C893 C892 1.377 . S
C893 C894 1.379 . S
C894 H878 0.931 . S
C894 C888 1.383 . S
C894 C893 1.379 . S
H895 C889 0.959 . S
H896 C889 0.961 . S
H897 C889 0.960 . S
H898 C890 0.930 . S
H899 C891 0.929 . S
H900 C908 0.929 . S
H901 C910 0.930 . S
H902 C912 0.930 . S
H903 C915 0.929 . S
H904 C918 0.930 . S
H905 C920 0.960 . S
H906 C920 0.960 . S
H907 C920 0.960 . S
C908 H900 0.929 . S
C908 C909 1.377 . S
C908 C910 1.384 . S
C909 C908 1.377 . S
C909 C915 1.390 . S
C910 H901 0.930 . S
C910 C908 1.384 . S
C910 C911 1.372 . S
C911 C910 1.372 . S
C911 C912 1.400 . S
C911 C916 1.490 . S
C912 H902 0.930 . S
C912 C911 1.400 . S
C912 C915 1.386 . S
H913 C929 0.930 . S
H914 C930 0.931 . S
C915 H903 0.929 . S
C915 C909 1.390 . S
C915 C912 1.386 . S
C916 C911 1.490 . S
C916 C918 1.395 . S
C916 C919 1.403 . S
H917 C923 0.930 . S
C918 H904 0.930 . S
C918 C916 1.395 . S
C918 C921 1.403 . S
C919 C916 1.403 . S
C919 C920 1.524 . S
C919 C923 1.400 . S
C920 H905 0.960 . S
C920 H906 0.960 . S
C920 H907 0.960 . S
C920 C919 1.524 . S
C921 C918 1.403 . S
C921 C922 1.392 . S
C921 C925 1.495 . S
C922 C921 1.392 . S
C922 C923 1.385 . S
C922 C924 1.478 1_545 S
C923 H917 0.930 . S
C923 C919 1.400 . S
C923 C922 1.385 . S
C924 C922 1.478 1_565 S
C924 C926 1.381 . S
C924 C930 1.383 . S
C925 C921 1.495 . S
C925 H931 0.959 . S
C925 H932 0.961 . S
C925 H933 0.960 . S
C926 C924 1.381 . S
C926 C927 1.394 . S
C926 H934 0.930 1_565 S
C927 C926 1.394 . S
C927 C928 1.383 . S
C927 H935 0.929 . S
C928 C927 1.383 . S
C928 C929 1.377 . S
C929 H913 0.930 . S
C929 C928 1.377 . S
C929 C930 1.379 . S
C930 H914 0.931 . S
C930 C924 1.383 . S
C930 C929 1.379 . S
H931 C925 0.959 . S
H932 C925 0.961 . S
H933 C925 0.960 . S
H934 C926 0.930 1_545 S
H935 C927 0.929 . S
H936 C944 0.929 . S
H937 C946 0.930 . S
H938 C948 0.930 . S
H939 C951 0.929 . S
H940 C954 0.930 . S
H941 C956 0.960 . S
H942 C956 0.960 . S
H943 C956 0.960 . S
C944 H936 0.929 . S
C944 C945 1.377 . S
C944 C946 1.384 . S
C945 C944 1.377 . S
C945 C951 1.390 . S
C946 H937 0.930 . S
C946 C944 1.384 . S
C946 C947 1.372 . S
C947 C946 1.372 . S
C947 C948 1.400 . S
C947 C952 1.490 . S
C948 H938 0.930 . S
C948 C947 1.400 . S
C948 C951 1.386 . S
H949 C965 0.930 . S
H950 C966 0.931 . S
C951 H939 0.929 . S
C951 C945 1.390 . S
C951 C948 1.386 . S
C952 C947 1.490 . S
C952 C954 1.395 . S
C952 C955 1.403 . S
H953 C959 0.930 . S
C954 H940 0.930 . S
C954 C952 1.395 . S
C954 C957 1.403 . S
C955 C952 1.403 . S
C955 C956 1.524 . S
C955 C959 1.400 . S
C956 H941 0.960 . S
C956 H942 0.960 . S
C956 H943 0.960 . S
C956 C955 1.524 . S
C957 C954 1.403 . S
C957 C958 1.392 . S
C957 C961 1.495 . S
C958 C957 1.392 . S
C958 C959 1.385 . S
C958 C960 1.478 . S
C959 H953 0.930 . S
C959 C955 1.400 . S
C959 C958 1.385 . S
C960 C958 1.478 . S
C960 C962 1.381 . S
C960 C966 1.383 . S
C961 C957 1.495 . S
C961 H967 0.959 . S
C961 H968 0.961 . S
C961 H969 0.960 . S
C962 C960 1.381 . S
C962 C963 1.394 . S
C962 H970 0.930 . S
C963 C962 1.394 . S
C963 C964 1.383 . S
C963 H971 0.929 . S
C964 C963 1.383 . S
C964 C965 1.377 . S
C965 H949 0.930 . S
C965 C964 1.377 . S
C965 C966 1.379 . S
C966 H950 0.931 . S
C966 C960 1.383 . S
C966 C965 1.379 . S
H967 C961 0.959 . S
H968 C961 0.961 . S
H969 C961 0.960 . S
H970 C962 0.930 . S
H971 C963 0.929 . S
H972 C980 0.929 . S
H973 C982 0.930 . S
H974 C984 0.930 . S
H975 C987 0.929 . S
H976 C990 0.930 . S
H977 C992 0.960 . S
H978 C992 0.960 . S
H979 C992 0.960 . S
C980 H972 0.929 . S
C980 C981 1.377 . S
C980 C982 1.384 . S
C981 C980 1.377 . S
C981 C987 1.390 . S
C982 H973 0.930 . S
C982 C980 1.384 . S
C982 C983 1.372 . S
C983 C982 1.372 . S
C983 C984 1.400 . S
C983 C988 1.490 . S
C984 H974 0.930 . S
C984 C983 1.400 . S
C984 C987 1.386 . S
H985 C1001 0.930 . S
H986 C1002 0.931 . S
C987 H975 0.929 . S
C987 C981 1.390 . S
C987 C984 1.386 . S
C988 C983 1.490 . S
C988 C990 1.395 . S
C988 C991 1.403 . S
H989 C995 0.930 . S
C990 H976 0.930 . S
C990 C988 1.395 . S
C990 C993 1.403 . S
C991 C988 1.403 . S
C991 C992 1.524 . S
C991 C995 1.400 . S
C992 H977 0.960 . S
C992 H978 0.960 . S
C992 H979 0.960 . S
C992 C991 1.524 . S
C993 C990 1.403 . S
C993 C994 1.392 . S
C993 C997 1.495 . S
C994 C993 1.392 . S
C994 C995 1.385 . S
C994 C996 1.478 . S
C995 H989 0.930 . S
C995 C991 1.400 . S
C995 C994 1.385 . S
C996 C994 1.478 . S
C996 C998 1.381 . S
C996 C1002 1.383 . S
C997 C993 1.495 . S
C997 H1003 0.959 . S
C997 H1004 0.961 . S
C997 H1005 0.960 . S
C998 C996 1.381 . S
C998 C999 1.394 . S
C998 H1006 0.930 . S
C999 C998 1.394 . S
C999 C1000 1.383 . S
C999 H1007 0.929 . S
C1000 C999 1.383 . S
C1000 C1001 1.377 . S
C1001 H985 0.930 . S
C1001 C1000 1.377 . S
C1001 C1002 1.379 . S
C1002 H986 0.931 . S
C1002 C996 1.383 . S
C1002 C1001 1.379 . S
H1003 C997 0.959 . S
H1004 C997 0.961 . S
H1005 C997 0.960 . S
H1006 C998 0.930 . S
H1007 C999 0.929 . S
H1008 C1016 0.929 . S
H1009 C1018 0.930 . S
H1010 C1020 0.930 . S
H1011 C1023 0.929 . S
H1012 C1026 0.930 . S
H1013 C1028 0.960 . S
H1014 C1028 0.960 . S
H1015 C1028 0.960 . S
C1016 H1008 0.929 . S
C1016 C1017 1.377 . S
C1016 C1018 1.384 . S
C1017 C1016 1.377 . S
C1017 C1023 1.390 . S
C1018 H1009 0.930 . S
C1018 C1016 1.384 . S
C1018 C1019 1.372 . S
C1019 C1018 1.372 . S
C1019 C1020 1.400 . S
C1019 C1024 1.490 . S
C1020 H1010 0.930 . S
C1020 C1019 1.400 . S
C1020 C1023 1.386 . S
H1021 C1037 0.930 . S
H1022 C1038 0.931 . S
C1023 H1011 0.929 . S
C1023 C1017 1.390 . S
C1023 C1020 1.386 . S
C1024 C1019 1.490 . S
C1024 C1026 1.395 . S
C1024 C1027 1.403 . S
H1025 C1031 0.930 . S
C1026 H1012 0.930 . S
C1026 C1024 1.395 . S
C1026 C1029 1.403 . S
C1027 C1024 1.403 . S
C1027 C1028 1.524 . S
C1027 C1031 1.400 . S
C1028 H1013 0.960 . S
C1028 H1014 0.960 . S
C1028 H1015 0.960 . S
C1028 C1027 1.524 . S
C1029 C1026 1.403 . S
C1029 C1030 1.392 . S
C1029 C1033 1.495 . S
C1030 C1029 1.392 . S
C1030 C1031 1.385 . S
C1030 C1032 1.478 . S
C1031 H1025 0.930 . S
C1031 C1027 1.400 . S
C1031 C1030 1.385 . S
C1032 C1030 1.478 . S
C1032 C1034 1.381 . S
C1032 C1038 1.383 . S
C1033 C1029 1.495 . S
C1033 H1039 0.959 . S
C1033 H1040 0.961 . S
C1033 H1041 0.960 . S
C1034 C1032 1.381 . S
C1034 C1035 1.394 . S
C1034 H1042 0.930 . S
C1035 C1034 1.394 . S
C1035 C1036 1.383 . S
C1035 H1043 0.929 . S
C1036 C1035 1.383 . S
C1036 C1037 1.377 . S
C1037 H1021 0.930 . S
C1037 C1036 1.377 . S
C1037 C1038 1.379 . S
C1038 H1022 0.931 . S
C1038 C1032 1.383 . S
C1038 C1037 1.379 . S
H1039 C1033 0.959 . S
H1040 C1033 0.961 . S
H1041 C1033 0.960 . S
H1042 C1034 0.930 . S
H1043 C1035 0.929 . S
H1044 C1052 0.929 . S
H1045 C1054 0.930 . S
H1046 C1056 0.930 . S
H1047 C1059 0.929 . S
H1048 C1062 0.930 . S
H1049 C1064 0.960 . S
H1050 C1064 0.960 . S
H1051 C1064 0.960 . S
C1052 H1044 0.929 . S
C1052 C1053 1.377 . S
C1052 C1054 1.384 . S
C1053 C1052 1.377 . S
C1053 C1059 1.390 . S
C1054 H1045 0.930 . S
C1054 C1052 1.384 . S
C1054 C1055 1.372 . S
C1055 C1054 1.372 . S
C1055 C1056 1.400 . S
C1055 C1060 1.490 . S
C1056 H1046 0.930 . S
C1056 C1055 1.400 . S
C1056 C1059 1.386 . S
H1057 C1073 0.930 . S
H1058 C1074 0.931 . S
C1059 H1047 0.929 . S
C1059 C1053 1.390 . S
C1059 C1056 1.386 . S
C1060 C1055 1.490 . S
C1060 C1062 1.395 . S
C1060 C1063 1.403 . S
H1061 C1067 0.930 . S
C1062 H1048 0.930 . S
C1062 C1060 1.395 . S
C1062 C1065 1.403 . S
C1063 C1060 1.403 . S
C1063 C1064 1.524 . S
C1063 C1067 1.400 . S
C1064 H1049 0.960 . S
C1064 H1050 0.960 . S
C1064 H1051 0.960 . S
C1064 C1063 1.524 . S
C1065 C1062 1.403 . S
C1065 C1066 1.392 . S
C1065 C1069 1.495 . S
C1066 C1065 1.392 . S
C1066 C1067 1.385 . S
C1066 C1068 1.478 . S
C1067 H1061 0.930 . S
C1067 C1063 1.400 . S
C1067 C1066 1.385 . S
C1068 C1066 1.478 . S
C1068 C1070 1.381 . S
C1068 C1074 1.383 . S
C1069 C1065 1.495 . S
C1069 H1075 0.959 . S
C1069 H1076 0.961 . S
C1069 H1077 0.960 . S
C1070 C1068 1.381 . S
C1070 C1071 1.394 . S
C1070 H1078 0.930 . S
C1071 C1070 1.394 . S
C1071 C1072 1.383 . S
C1071 H1079 0.929 . S
C1072 C1071 1.383 . S
C1072 C1073 1.377 . S
C1073 H1057 0.930 . S
C1073 C1072 1.377 . S
C1073 C1074 1.379 . S
C1074 H1058 0.931 . S
C1074 C1068 1.383 . S
C1074 C1073 1.379 . S
H1075 C1069 0.959 . S
H1076 C1069 0.961 . S
H1077 C1069 0.960 . S
H1078 C1070 0.930 . S
H1079 C1071 0.929 . S
H1080 C1088 0.929 . S
H1081 C1090 0.930 . S
H1082 C1092 0.930 . S
H1083 C1095 0.929 . S
H1084 C1098 0.930 . S
H1085 C1100 0.960 . S
H1086 C1100 0.960 . S
H1087 C1100 0.960 . S
C1088 H1080 0.929 . S
C1088 C1089 1.377 . S
C1088 C1090 1.384 . S
C1089 C1088 1.377 . S
C1089 C1095 1.390 . S
C1090 H1081 0.930 . S
C1090 C1088 1.384 . S
C1090 C1091 1.372 . S
C1091 C1090 1.372 . S
C1091 C1092 1.400 . S
C1091 C1096 1.490 . S
C1092 H1082 0.930 . S
C1092 C1091 1.400 . S
C1092 C1095 1.386 . S
H1093 C1109 0.930 . S
H1094 C1110 0.931 . S
C1095 H1083 0.929 . S
C1095 C1089 1.390 . S
C1095 C1092 1.386 . S
C1096 C1091 1.490 . S
C1096 C1098 1.395 . S
C1096 C1099 1.403 . S
H1097 C1103 0.930 . S
C1098 H1084 0.930 . S
C1098 C1096 1.395 . S
C1098 C1101 1.403 . S
C1099 C1096 1.403 . S
C1099 C1100 1.524 . S
C1099 C1103 1.400 . S
C1100 H1085 0.960 . S
C1100 H1086 0.960 . S
C1100 H1087 0.960 . S
C1100 C1099 1.524 . S
C1101 C1098 1.403 . S
C1101 C1102 1.392 . S
C1101 C1105 1.495 . S
C1102 C1101 1.392 . S
C1102 C1103 1.385 . S
C1102 C1104 1.478 . S
C1103 H1097 0.930 . S
C1103 C1099 1.400 . S
C1103 C1102 1.385 . S
C1104 C1102 1.478 . S
C1104 C1106 1.381 . S
C1104 C1110 1.383 . S
C1105 C1101 1.495 . S
C1105 H1111 0.959 . S
C1105 H1112 0.961 . S
C1105 H1113 0.960 . S
C1106 C1104 1.381 . S
C1106 C1107 1.394 . S
C1106 H1114 0.930 . S
C1107 C1106 1.394 . S
C1107 C1108 1.383 . S
C1107 H1115 0.929 . S
C1108 C1107 1.383 . S
C1108 C1109 1.377 . S
C1109 H1093 0.930 . S
C1109 C1108 1.377 . S
C1109 C1110 1.379 . S
C1110 H1094 0.931 . S
C1110 C1104 1.383 . S
C1110 C1109 1.379 . S
H1111 C1105 0.959 . S
H1112 C1105 0.961 . S
H1113 C1105 0.960 . S
H1114 C1106 0.930 . S
H1115 C1107 0.929 . S
H1116 C1124 0.929 . S
H1117 C1126 0.930 . S
H1118 C1128 0.930 . S
H1119 C1131 0.929 . S
H1120 C1134 0.930 . S
H1121 C1136 0.960 . S
H1122 C1136 0.960 . S
H1123 C1136 0.960 . S
C1124 H1116 0.929 . S
C1124 C1125 1.377 . S
C1124 C1126 1.384 . S
C1125 C1124 1.377 . S
C1125 C1131 1.390 . S
C1126 H1117 0.930 . S
C1126 C1124 1.384 . S
C1126 C1127 1.372 . S
C1127 C1126 1.372 . S
C1127 C1128 1.400 . S
C1127 C1132 1.490 . S
C1128 H1118 0.930 . S
C1128 C1127 1.400 . S
C1128 C1131 1.386 . S
H1129 C1145 0.930 . S
H1130 C1146 0.931 . S
C1131 H1119 0.929 . S
C1131 C1125 1.390 . S
C1131 C1128 1.386 . S
C1132 C1127 1.490 . S
C1132 C1134 1.395 . S
C1132 C1135 1.403 . S
H1133 C1139 0.930 . S
C1134 H1120 0.930 . S
C1134 C1132 1.395 . S
C1134 C1137 1.403 . S
C1135 C1132 1.403 . S
C1135 C1136 1.524 . S
C1135 C1139 1.400 . S
C1136 H1121 0.960 . S
C1136 H1122 0.960 . S
C1136 H1123 0.960 . S
C1136 C1135 1.524 . S
C1137 C1134 1.403 . S
C1137 C1138 1.392 . S
C1137 C1141 1.495 . S
C1138 C1137 1.392 . S
C1138 C1139 1.385 . S
C1138 C1140 1.478 . S
C1139 H1133 0.930 . S
C1139 C1135 1.400 . S
C1139 C1138 1.385 . S
C1140 C1138 1.478 . S
C1140 C1142 1.381 . S
C1140 C1146 1.383 . S
C1141 C1137 1.495 . S
C1141 H1147 0.959 . S
C1141 H1148 0.961 . S
C1141 H1149 0.960 . S
C1142 C1140 1.381 . S
C1142 C1143 1.394 . S
C1142 H1150 0.930 . S
C1143 C1142 1.394 . S
C1143 C1144 1.383 . S
C1143 H1151 0.929 . S
C1144 C1143 1.383 . S
C1144 C1145 1.377 . S
C1145 H1129 0.930 . S
C1145 C1144 1.377 . S
C1145 C1146 1.379 . S
C1146 H1130 0.931 . S
C1146 C1140 1.383 . S
C1146 C1145 1.379 . S
H1147 C1141 0.959 . S
H1148 C1141 0.961 . S
H1149 C1141 0.960 . S
H1150 C1142 0.930 . S
H1151 C1143 0.929 . S
H1152 C1160 0.929 . S
H1153 C1162 0.930 . S
H1154 C1164 0.930 . S
H1155 C1167 0.929 . S
H1156 C1170 0.930 . S
H1157 C1172 0.960 . S
H1158 C1172 0.960 . S
H1159 C1172 0.960 . S
C1160 H1152 0.929 . S
C1160 C1161 1.377 . S
C1160 C1162 1.384 . S
C1161 C1160 1.377 . S
C1161 C1167 1.390 . S
C1162 H1153 0.930 . S
C1162 C1160 1.384 . S
C1162 C1163 1.372 . S
C1163 C1162 1.372 . S
C1163 C1164 1.400 . S
C1163 C1168 1.490 . S
C1164 H1154 0.930 . S
C1164 C1163 1.400 . S
C1164 C1167 1.386 . S
H1165 C1181 0.930 . S
H1166 C1182 0.931 . S
C1167 H1155 0.929 . S
C1167 C1161 1.390 . S
C1167 C1164 1.386 . S
C1168 C1163 1.490 . S
C1168 C1170 1.395 . S
C1168 C1171 1.403 . S
H1169 C1175 0.930 . S
C1170 H1156 0.930 . S
C1170 C1168 1.395 . S
C1170 C1173 1.403 . S
C1171 C1168 1.403 . S
C1171 C1172 1.524 . S
C1171 C1175 1.400 . S
C1172 H1157 0.960 . S
C1172 H1158 0.960 . S
C1172 H1159 0.960 . S
C1172 C1171 1.524 . S
C1173 C1170 1.403 . S
C1173 C1174 1.392 . S
C1173 C1177 1.495 . S
C1174 C1173 1.392 . S
C1174 C1175 1.385 . S
C1174 C1176 1.478 . S
C1175 H1169 0.930 . S
C1175 C1171 1.400 . S
C1175 C1174 1.385 . S
C1176 C1174 1.478 . S
C1176 C1178 1.381 . S
C1176 C1182 1.383 . S
C1177 C1173 1.495 . S
C1177 H1183 0.959 . S
C1177 H1184 0.961 . S
C1177 H1185 0.960 . S
C1178 C1176 1.381 . S
C1178 C1179 1.394 . S
C1178 H1186 0.930 . S
C1179 C1178 1.394 . S
C1179 C1180 1.383 . S
C1179 H1187 0.929 . S
C1180 C1179 1.383 . S
C1180 C1181 1.377 . S
C1181 H1165 0.930 . S
C1181 C1180 1.377 . S
C1181 C1182 1.379 . S
C1182 H1166 0.931 . S
C1182 C1176 1.383 . S
C1182 C1181 1.379 . S
H1183 C1177 0.959 . S
H1184 C1177 0.961 . S
H1185 C1177 0.960 . S
H1186 C1178 0.930 . S
H1187 C1179 0.929 . S
H1188 C1196 0.929 . S
H1189 C1198 0.930 . S
H1190 C1200 0.930 . S
H1191 C1203 0.929 . S
H1192 C1206 0.930 . S
H1193 C1208 0.960 . S
H1194 C1208 0.960 . S
H1195 C1208 0.960 . S
C1196 H1188 0.929 . S
C1196 C1197 1.377 . S
C1196 C1198 1.384 . S
C1197 C1196 1.377 . S
C1197 C1203 1.390 . S
C1198 H1189 0.930 . S
C1198 C1196 1.384 . S
C1198 C1199 1.372 . S
C1199 C1198 1.372 . S
C1199 C1200 1.400 . S
C1199 C1204 1.490 . S
C1200 H1190 0.930 . S
C1200 C1199 1.400 . S
C1200 C1203 1.386 . S
H1201 C1217 0.930 . S
H1202 C1218 0.931 . S
C1203 H1191 0.929 . S
C1203 C1197 1.390 . S
C1203 C1200 1.386 . S
C1204 C1199 1.490 . S
C1204 C1206 1.395 . S
C1204 C1207 1.403 . S
H1205 C1211 0.930 . S
C1206 H1192 0.930 . S
C1206 C1204 1.395 . S
C1206 C1209 1.403 . S
C1207 C1204 1.403 . S
C1207 C1208 1.524 . S
C1207 C1211 1.400 . S
C1208 H1193 0.960 . S
C1208 H1194 0.960 . S
C1208 H1195 0.960 . S
C1208 C1207 1.524 . S
C1209 C1206 1.403 . S
C1209 C1210 1.392 . S
C1209 C1213 1.495 . S
C1210 C1209 1.392 . S
C1210 C1211 1.385 . S
C1210 C1212 1.478 . S
C1211 H1205 0.930 . S
C1211 C1207 1.400 . S
C1211 C1210 1.385 . S
C1212 C1210 1.478 . S
C1212 C1214 1.381 . S
C1212 C1218 1.383 . S
C1213 C1209 1.495 . S
C1213 H1219 0.959 . S
C1213 H1220 0.961 . S
C1213 H1221 0.960 . S
C1214 C1212 1.381 . S
C1214 C1215 1.394 . S
C1214 H1222 0.930 . S
C1215 C1214 1.394 . S
C1215 C1216 1.383 . S
C1215 H1223 0.929 . S
C1216 C1215 1.383 . S
C1216 C1217 1.377 . S
C1217 H1201 0.930 . S
C1217 C1216 1.377 . S
C1217 C1218 1.379 . S
C1218 H1202 0.931 . S
C1218 C1212 1.383 . S
C1218 C1217 1.379 . S
H1219 C1213 0.959 . S
H1220 C1213 0.961 . S
H1221 C1213 0.960 . S
H1222 C1214 0.930 . S
H1223 C1215 0.929 . S
H1224 C1232 0.929 . S
H1225 C1234 0.930 . S
H1226 C1236 0.930 . S
H1227 C1239 0.929 . S
H1228 C1242 0.930 . S
H1229 C1244 0.960 . S
H1230 C1244 0.960 . S
H1231 C1244 0.960 . S
C1232 H1224 0.929 . S
C1232 C1233 1.377 . S
C1232 C1234 1.384 . S
C1233 C1232 1.377 . S
C1233 C1239 1.390 . S
C1234 H1225 0.930 . S
C1234 C1232 1.384 . S
C1234 C1235 1.372 . S
C1235 C1234 1.372 . S
C1235 C1236 1.400 . S
C1235 C1240 1.490 . S
C1236 H1226 0.930 . S
C1236 C1235 1.400 . S
C1236 C1239 1.386 . S
H1237 C1253 0.930 . S
H1238 C1254 0.931 . S
C1239 H1227 0.929 . S
C1239 C1233 1.390 . S
C1239 C1236 1.386 . S
C1240 C1235 1.490 . S
C1240 C1242 1.395 . S
C1240 C1243 1.403 . S
H1241 C1247 0.930 . S
C1242 H1228 0.930 . S
C1242 C1240 1.395 . S
C1242 C1245 1.403 . S
C1243 C1240 1.403 . S
C1243 C1244 1.524 . S
C1243 C1247 1.400 . S
C1244 H1229 0.960 . S
C1244 H1230 0.960 . S
C1244 H1231 0.960 . S
C1244 C1243 1.524 . S
C1245 C1242 1.403 . S
C1245 C1246 1.392 . S
C1245 C1249 1.495 . S
C1246 C1245 1.392 . S
C1246 C1247 1.385 . S
C1246 C1248 1.478 . S
C1247 H1241 0.930 . S
C1247 C1243 1.400 . S
C1247 C1246 1.385 . S
C1248 C1246 1.478 . S
C1248 C1250 1.381 . S
C1248 C1254 1.383 . S
C1249 C1245 1.495 . S
C1249 H1255 0.959 . S
C1249 H1256 0.961 . S
C1249 H1257 0.960 . S
C1250 C1248 1.381 . S
C1250 C1251 1.394 . S
C1250 H1258 0.930 . S
C1251 C1250 1.394 . S
C1251 C1252 1.383 . S
C1251 H1259 0.929 . S
C1252 C1251 1.383 . S
C1252 C1253 1.377 . S
C1253 H1237 0.930 . S
C1253 C1252 1.377 . S
C1253 C1254 1.379 . S
C1254 H1238 0.931 . S
C1254 C1248 1.383 . S
C1254 C1253 1.379 . S
H1255 C1249 0.959 . S
H1256 C1249 0.961 . S
H1257 C1249 0.960 . S
H1258 C1250 0.930 . S
H1259 C1251 0.929 . S
H1260 C1268 0.929 . S
H1261 C1270 0.930 . S
H1262 C1272 0.930 . S
H1263 C1275 0.929 . S
H1264 C1278 0.930 . S
H1265 C1280 0.960 . S
H1266 C1280 0.960 . S
H1267 C1280 0.960 . S
C1268 H1260 0.929 . S
C1268 C1269 1.377 . S
C1268 C1270 1.384 . S
C1269 C1268 1.377 . S
C1269 C1275 1.390 . S
C1270 H1261 0.930 . S
C1270 C1268 1.384 . S
C1270 C1271 1.372 . S
C1271 C1270 1.372 . S
C1271 C1272 1.400 . S
C1271 C1276 1.490 . S
C1272 H1262 0.930 . S
C1272 C1271 1.400 . S
C1272 C1275 1.386 . S
H1273 C1289 0.930 . S
H1274 C1290 0.931 . S
C1275 H1263 0.929 . S
C1275 C1269 1.390 . S
C1275 C1272 1.386 . S
C1276 C1271 1.490 . S
C1276 C1278 1.395 . S
C1276 C1279 1.403 . S
H1277 C1283 0.930 . S
C1278 H1264 0.930 . S
C1278 C1276 1.395 . S
C1278 C1281 1.403 . S
C1279 C1276 1.403 . S
C1279 C1280 1.524 . S
C1279 C1283 1.400 . S
C1280 H1265 0.960 . S
C1280 H1266 0.960 . S
C1280 H1267 0.960 . S
C1280 C1279 1.524 . S
C1281 C1278 1.403 . S
C1281 C1282 1.392 . S
C1281 C1285 1.495 . S
C1282 C1281 1.392 . S
C1282 C1283 1.385 . S
C1282 C1284 1.478 . S
C1283 H1277 0.930 . S
C1283 C1279 1.400 . S
C1283 C1282 1.385 . S
C1284 C1282 1.478 . S
C1284 C1286 1.381 . S
C1284 C1290 1.383 . S
C1285 C1281 1.495 . S
C1285 H1291 0.959 . S
C1285 H1292 0.961 . S
C1285 H1293 0.960 . S
C1286 C1284 1.381 . S
C1286 C1287 1.394 . S
C1286 H1294 0.930 . S
C1287 C1286 1.394 . S
C1287 C1288 1.383 . S
C1287 H1295 0.929 . S
C1288 C1287 1.383 . S
C1288 C1289 1.377 . S
C1289 H1273 0.930 . S
C1289 C1288 1.377 . S
C1289 C1290 1.379 . S
C1290 H1274 0.931 . S
C1290 C1284 1.383 . S
C1290 C1289 1.379 . S
H1291 C1285 0.959 . S
H1292 C1285 0.961 . S
H1293 C1285 0.960 . S
H1294 C1286 0.930 . S
H1295 C1287 0.929 . S
H1296 C1304 0.929 . S
H1297 C1306 0.930 . S
H1298 C1308 0.930 . S
H1299 C1311 0.929 . S
H1300 C1314 0.930 . S
H1301 C1316 0.960 . S
H1302 C1316 0.960 . S
H1303 C1316 0.960 . S
C1304 H1296 0.929 . S
C1304 C1305 1.377 . S
C1304 C1306 1.384 . S
C1305 C1304 1.377 . S
C1305 C1311 1.390 . S
C1306 H1297 0.930 . S
C1306 C1304 1.384 . S
C1306 C1307 1.372 . S
C1307 C1306 1.372 . S
C1307 C1308 1.400 . S
C1307 C1312 1.490 . S
C1308 H1298 0.930 . S
C1308 C1307 1.400 . S
C1308 C1311 1.386 . S
H1309 C1325 0.930 . S
H1310 C1326 0.931 . S
C1311 H1299 0.929 . S
C1311 C1305 1.390 . S
C1311 C1308 1.386 . S
C1312 C1307 1.490 . S
C1312 C1314 1.395 . S
C1312 C1315 1.403 . S
H1313 C1319 0.930 . S
C1314 H1300 0.930 . S
C1314 C1312 1.395 . S
C1314 C1317 1.403 . S
C1315 C1312 1.403 . S
C1315 C1316 1.524 . S
C1315 C1319 1.400 . S
C1316 H1301 0.960 . S
C1316 H1302 0.960 . S
C1316 H1303 0.960 . S
C1316 C1315 1.524 . S
C1317 C1314 1.403 . S
C1317 C1318 1.392 . S
C1317 C1321 1.495 . S
C1318 C1317 1.392 . S
C1318 C1319 1.385 . S
C1318 C1320 1.478 . S
C1319 H1313 0.930 . S
C1319 C1315 1.400 . S
C1319 C1318 1.385 . S
C1320 C1318 1.478 . S
C1320 C1322 1.381 . S
C1320 C1326 1.383 . S
C1321 C1317 1.495 . S
C1321 H1327 0.959 . S
C1321 H1328 0.961 . S
C1321 H1329 0.960 . S
C1322 C1320 1.381 . S
C1322 C1323 1.394 . S
C1322 H1330 0.930 . S
C1323 C1322 1.394 . S
C1323 C1324 1.383 . S
C1323 H1331 0.929 . S
C1324 C1323 1.383 . S
C1324 C1325 1.377 . S
C1325 H1309 0.930 . S
C1325 C1324 1.377 . S
C1325 C1326 1.379 . S
C1326 H1310 0.931 . S
C1326 C1320 1.383 . S
C1326 C1325 1.379 . S
H1327 C1321 0.959 . S
H1328 C1321 0.961 . S
H1329 C1321 0.960 . S
H1330 C1322 0.930 . S
H1331 C1323 0.929 . S
H1332 C1340 0.929 . S
H1333 C1342 0.930 . S
H1334 C1344 0.930 . S
H1335 C1347 0.929 . S
H1336 C1350 0.930 . S
H1337 C1352 0.960 . S
H1338 C1352 0.960 . S
H1339 C1352 0.960 . S
C1340 H1332 0.929 . S
C1340 C1341 1.377 . S
C1340 C1342 1.384 . S
C1341 C1340 1.377 . S
C1341 C1347 1.390 . S
C1342 H1333 0.930 . S
C1342 C1340 1.384 . S
C1342 C1343 1.372 . S
C1343 C1342 1.372 . S
C1343 C1344 1.400 . S
C1343 C1348 1.490 . S
C1344 H1334 0.930 . S
C1344 C1343 1.400 . S
C1344 C1347 1.386 . S
H1345 C1361 0.930 . S
H1346 C1362 0.931 . S
C1347 H1335 0.929 . S
C1347 C1341 1.390 . S
C1347 C1344 1.386 . S
C1348 C1343 1.490 . S
C1348 C1350 1.395 . S
C1348 C1351 1.403 . S
H1349 C1355 0.930 . S
C1350 H1336 0.930 . S
C1350 C1348 1.395 . S
C1350 C1353 1.403 . S
C1351 C1348 1.403 . S
C1351 C1352 1.524 . S
C1351 C1355 1.400 . S
C1352 H1337 0.960 . S
C1352 H1338 0.960 . S
C1352 H1339 0.960 . S
C1352 C1351 1.524 . S
C1353 C1350 1.403 . S
C1353 C1354 1.392 . S
C1353 C1357 1.495 . S
C1354 C1353 1.392 . S
C1354 C1355 1.385 . S
C1354 C1356 1.478 . S
C1355 H1349 0.930 . S
C1355 C1351 1.400 . S
C1355 C1354 1.385 . S
C1356 C1354 1.478 . S
C1356 C1358 1.381 . S
C1356 C1362 1.383 . S
C1357 C1353 1.495 . S
C1357 H1363 0.959 . S
C1357 H1364 0.961 . S
C1357 H1365 0.960 . S
C1358 C1356 1.381 . S
C1358 C1359 1.394 . S
C1358 H1366 0.930 . S
C1359 C1358 1.394 . S
C1359 C1360 1.383 . S
C1359 H1367 0.929 . S
C1360 C1359 1.383 . S
C1360 C1361 1.377 . S
C1361 H1345 0.930 . S
C1361 C1360 1.377 . S
C1361 C1362 1.379 . S
C1362 H1346 0.931 . S
C1362 C1356 1.383 . S
C1362 C1361 1.379 . S
H1363 C1357 0.959 . S
H1364 C1357 0.961 . S
H1365 C1357 0.960 . S
H1366 C1358 0.930 . S
H1367 C1359 0.929 . S
H1368 C1376 0.929 . S
H1369 C1378 0.930 . S
H1370 C1380 0.930 . S
H1371 C1383 0.929 . S
H1372 C1386 0.930 . S
H1373 C1388 0.960 . S
H1374 C1388 0.960 . S
H1375 C1388 0.960 . S
C1376 H1368 0.929 . S
C1376 C1377 1.377 . S
C1376 C1378 1.384 . S
C1377 C1376 1.377 . S
C1377 C1383 1.390 . S
C1378 H1369 0.930 . S
C1378 C1376 1.384 . S
C1378 C1379 1.372 . S
C1379 C1378 1.372 . S
C1379 C1380 1.400 . S
C1379 C1384 1.490 . S
C1380 H1370 0.930 . S
C1380 C1379 1.400 . S
C1380 C1383 1.386 . S
H1381 C1397 0.930 . S
H1382 C1398 0.931 . S
C1383 H1371 0.929 . S
C1383 C1377 1.390 . S
C1383 C1380 1.386 . S
C1384 C1379 1.490 . S
C1384 C1386 1.395 . S
C1384 C1387 1.403 . S
H1385 C1391 0.930 . S
C1386 H1372 0.930 . S
C1386 C1384 1.395 . S
C1386 C1389 1.403 . S
C1387 C1384 1.403 . S
C1387 C1388 1.524 . S
C1387 C1391 1.400 . S
C1388 H1373 0.960 . S
C1388 H1374 0.960 . S
C1388 H1375 0.960 . S
C1388 C1387 1.524 . S
C1389 C1386 1.403 . S
C1389 C1390 1.392 . S
C1389 C1393 1.495 . S
C1390 C1389 1.392 . S
C1390 C1391 1.385 . S
C1390 C1392 1.478 . S
C1391 H1385 0.930 . S
C1391 C1387 1.400 . S
C1391 C1390 1.385 . S
C1392 C1390 1.478 . S
C1392 C1394 1.381 . S
C1392 C1398 1.383 . S
C1393 C1389 1.495 . S
C1393 H1399 0.959 . S
C1393 H1400 0.961 . S
C1393 H1401 0.960 . S
C1394 C1392 1.381 . S
C1394 C1395 1.394 . S
C1394 H1402 0.930 . S
C1395 C1394 1.394 . S
C1395 C1396 1.383 . S
C1395 H1403 0.929 . S
C1396 C1395 1.383 . S
C1396 C1397 1.377 . S
C1397 H1381 0.930 . S
C1397 C1396 1.377 . S
C1397 C1398 1.379 . S
C1398 H1382 0.931 . S
C1398 C1392 1.383 . S
C1398 C1397 1.379 . S
H1399 C1393 0.959 . S
H1400 C1393 0.961 . S
H1401 C1393 0.960 . S
H1402 C1394 0.930 . S
H1403 C1395 0.929 . S
H1404 C1412 0.929 . S
H1405 C1414 0.930 . S
H1406 C1416 0.930 . S
H1407 C1419 0.929 . S
H1408 C1422 0.930 . S
H1409 C1424 0.960 . S
H1410 C1424 0.960 . S
H1411 C1424 0.960 . S
C1412 H1404 0.929 . S
C1412 C1413 1.377 . S
C1412 C1414 1.384 . S
C1413 C1412 1.377 . S
C1413 C1419 1.390 . S
C1414 H1405 0.930 . S
C1414 C1412 1.384 . S
C1414 C1415 1.372 . S
C1415 C1414 1.372 . S
C1415 C1416 1.400 . S
C1415 C1420 1.490 . S
C1416 H1406 0.930 . S
C1416 C1415 1.400 . S
C1416 C1419 1.386 . S
H1417 C1433 0.930 . S
H1418 C1434 0.931 . S
C1419 H1407 0.929 . S
C1419 C1413 1.390 . S
C1419 C1416 1.386 . S
C1420 C1415 1.490 . S
C1420 C1422 1.395 . S
C1420 C1423 1.403 . S
H1421 C1427 0.930 . S
C1422 H1408 0.930 . S
C1422 C1420 1.395 . S
C1422 C1425 1.403 . S
C1423 C1420 1.403 . S
C1423 C1424 1.524 . S
C1423 C1427 1.400 . S
C1424 H1409 0.960 . S
C1424 H1410 0.960 . S
C1424 H1411 0.960 . S
C1424 C1423 1.524 . S
C1425 C1422 1.403 . S
C1425 C1426 1.392 . S
C1425 C1429 1.495 . S
C1426 C1425 1.392 . S
C1426 C1427 1.385 . S
C1426 C1428 1.478 . S
C1427 H1421 0.930 . S
C1427 C1423 1.400 . S
C1427 C1426 1.385 . S
C1428 C1426 1.478 . S
C1428 C1430 1.381 . S
C1428 C1434 1.383 . S
C1429 C1425 1.495 . S
C1429 H1435 0.959 . S
C1429 H1436 0.961 . S
C1429 H1437 0.960 . S
C1430 C1428 1.381 . S
C1430 C1431 1.394 . S
C1430 H1438 0.930 . S
C1431 C1430 1.394 . S
C1431 C1432 1.383 . S
C1431 H1439 0.929 . S
C1432 C1431 1.383 . S
C1432 C1433 1.377 . S
C1433 H1417 0.930 . S
C1433 C1432 1.377 . S
C1433 C1434 1.379 . S
C1434 H1418 0.931 . S
C1434 C1428 1.383 . S
C1434 C1433 1.379 . S
H1435 C1429 0.959 . S
H1436 C1429 0.961 . S
H1437 C1429 0.960 . S
H1438 C1430 0.930 . S
H1439 C1431 0.929 . S
H1440 C1448 0.929 . S
H1441 C1450 0.930 . S
H1442 C1452 0.930 . S
H1443 C1455 0.929 . S
H1444 C1458 0.930 . S
H1445 C1460 0.960 . S
H1446 C1460 0.960 . S
H1447 C1460 0.960 . S
C1448 H1440 0.929 . S
C1448 C1449 1.377 . S
C1448 C1450 1.384 . S
C1449 C1448 1.377 . S
C1449 C1455 1.390 . S
C1450 H1441 0.930 . S
C1450 C1448 1.384 . S
C1450 C1451 1.372 . S
C1451 C1450 1.372 . S
C1451 C1452 1.400 . S
C1451 C1456 1.490 . S
C1452 H1442 0.930 . S
C1452 C1451 1.400 . S
C1452 C1455 1.386 . S
H1453 C1469 0.930 . S
H1454 C1470 0.931 . S
C1455 H1443 0.929 . S
C1455 C1449 1.390 . S
C1455 C1452 1.386 . S
C1456 C1451 1.490 . S
C1456 C1458 1.395 . S
C1456 C1459 1.403 . S
H1457 C1463 0.930 . S
C1458 H1444 0.930 . S
C1458 C1456 1.395 . S
C1458 C1461 1.403 . S
C1459 C1456 1.403 . S
C1459 C1460 1.524 . S
C1459 C1463 1.400 . S
C1460 H1445 0.960 . S
C1460 H1446 0.960 . S
C1460 H1447 0.960 . S
C1460 C1459 1.524 . S
C1461 C1458 1.403 . S
C1461 C1462 1.392 . S
C1461 C1465 1.495 . S
C1462 C1461 1.392 . S
C1462 C1463 1.385 . S
C1462 C1464 1.478 . S
C1463 H1457 0.930 . S
C1463 C1459 1.400 . S
C1463 C1462 1.385 . S
C1464 C1462 1.478 . S
C1464 C1466 1.381 . S
C1464 C1470 1.383 . S
C1465 C1461 1.495 . S
C1465 H1471 0.959 . S
C1465 H1472 0.961 . S
C1465 H1473 0.960 . S
C1466 C1464 1.381 . S
C1466 C1467 1.394 . S
C1466 H1474 0.930 . S
C1467 C1466 1.394 . S
C1467 C1468 1.383 . S
C1467 H1475 0.929 . S
C1468 C1467 1.383 . S
C1468 C1469 1.377 . S
C1469 H1453 0.930 . S
C1469 C1468 1.377 . S
C1469 C1470 1.379 . S
C1470 H1454 0.931 . S
C1470 C1464 1.383 . S
C1470 C1469 1.379 . S
H1471 C1465 0.959 . S
H1472 C1465 0.961 . S
H1473 C1465 0.960 . S
H1474 C1466 0.930 . S
H1475 C1467 0.929 . S
H1476 C1484 0.929 . S
H1477 C1486 0.930 . S
H1478 C1488 0.930 . S
H1479 C1491 0.929 . S
H1480 C1494 0.930 . S
H1481 C1496 0.960 . S
H1482 C1496 0.960 . S
H1483 C1496 0.960 . S
C1484 H1476 0.929 . S
C1484 C1485 1.377 . S
C1484 C1486 1.384 . S
C1485 C1484 1.377 . S
C1485 C1491 1.390 . S
C1486 H1477 0.930 . S
C1486 C1484 1.384 . S
C1486 C1487 1.372 . S
C1487 C1486 1.372 . S
C1487 C1488 1.400 . S
C1487 C1492 1.490 . S
C1488 H1478 0.930 . S
C1488 C1487 1.400 . S
C1488 C1491 1.386 . S
H1489 C1505 0.930 . S
H1490 C1506 0.931 . S
C1491 H1479 0.929 . S
C1491 C1485 1.390 . S
C1491 C1488 1.386 . S
C1492 C1487 1.490 . S
C1492 C1494 1.395 . S
C1492 C1495 1.403 . S
H1493 C1499 0.930 . S
C1494 H1480 0.930 . S
C1494 C1492 1.395 . S
C1494 C1497 1.403 . S
C1495 C1492 1.403 . S
C1495 C1496 1.524 . S
C1495 C1499 1.400 . S
C1496 H1481 0.960 . S
C1496 H1482 0.960 . S
C1496 H1483 0.960 . S
C1496 C1495 1.524 . S
C1497 C1494 1.403 . S
C1497 C1498 1.392 . S
C1497 C1501 1.495 . S
C1498 C1497 1.392 . S
C1498 C1499 1.385 . S
C1498 C1500 1.478 . S
C1499 H1493 0.930 . S
C1499 C1495 1.400 . S
C1499 C1498 1.385 . S
C1500 C1498 1.478 . S
C1500 C1502 1.381 . S
C1500 C1506 1.383 . S
C1501 C1497 1.495 . S
C1501 H1507 0.959 . S
C1501 H1508 0.961 . S
C1501 H1509 0.960 . S
C1502 C1500 1.381 . S
C1502 C1503 1.394 . S
C1502 H1510 0.930 . S
C1503 C1502 1.394 . S
C1503 C1504 1.383 . S
C1503 H1511 0.929 . S
C1504 C1503 1.383 . S
C1504 C1505 1.377 . S
C1505 H1489 0.930 . S
C1505 C1504 1.377 . S
C1505 C1506 1.379 . S
C1506 H1490 0.931 . S
C1506 C1500 1.383 . S
C1506 C1505 1.379 . S
H1507 C1501 0.959 . S
H1508 C1501 0.961 . S
H1509 C1501 0.960 . S
H1510 C1502 0.930 . S
H1511 C1503 0.929 . S
H1512 C1520 0.929 . S
H1513 C1522 0.930 . S
H1514 C1524 0.930 . S
H1515 C1527 0.929 . S
H1516 C1530 0.930 . S
H1517 C1532 0.960 . S
H1518 C1532 0.960 . S
H1519 C1532 0.960 . S
C1520 H1512 0.929 . S
C1520 C1521 1.377 . S
C1520 C1522 1.384 . S
C1521 C1520 1.377 . S
C1521 C1527 1.390 . S
C1522 H1513 0.930 . S
C1522 C1520 1.384 . S
C1522 C1523 1.372 . S
C1523 C1522 1.372 . S
C1523 C1524 1.400 . S
C1523 C1528 1.490 . S
C1524 H1514 0.930 . S
C1524 C1523 1.400 . S
C1524 C1527 1.386 . S
H1525 C1541 0.930 . S
H1526 C1542 0.931 . S
C1527 H1515 0.929 . S
C1527 C1521 1.390 . S
C1527 C1524 1.386 . S
C1528 C1523 1.490 . S
C1528 C1530 1.395 . S
C1528 C1531 1.403 . S
H1529 C1535 0.930 . S
C1530 H1516 0.930 . S
C1530 C1528 1.395 . S
C1530 C1533 1.403 . S
C1531 C1528 1.403 . S
C1531 C1532 1.524 . S
C1531 C1535 1.400 . S
C1532 H1517 0.960 . S
C1532 H1518 0.960 . S
C1532 H1519 0.960 . S
C1532 C1531 1.524 . S
C1533 C1530 1.403 . S
C1533 C1534 1.392 . S
C1533 C1537 1.495 . S
C1534 C1533 1.392 . S
C1534 C1535 1.385 . S
C1534 C1536 1.478 . S
C1535 H1529 0.930 . S
C1535 C1531 1.400 . S
C1535 C1534 1.385 . S
C1536 C1534 1.478 . S
C1536 C1538 1.381 . S
C1536 C1542 1.383 . S
C1537 C1533 1.495 . S
C1537 H1543 0.959 . S
C1537 H1544 0.961 . S
C1537 H1545 0.960 . S
C1538 C1536 1.381 . S
C1538 C1539 1.394 . S
C1538 H1546 0.930 . S
C1539 C1538 1.394 . S
C1539 C1540 1.383 . S
C1539 H1547 0.929 . S
C1540 C1539 1.383 . S
C1540 C1541 1.377 . S
C1541 H1525 0.930 . S
C1541 C1540 1.377 . S
C1541 C1542 1.379 . S
C1542 H1526 0.931 . S
C1542 C1536 1.383 . S
C1542 C1541 1.379 . S
H1543 C1537 0.959 . S
H1544 C1537 0.961 . S
H1545 C1537 0.960 . S
H1546 C1538 0.930 . S
H1547 C1539 0.929 . S
H1548 C1556 0.929 . S
H1549 C1558 0.930 . S
H1550 C1560 0.930 . S
H1551 C1563 0.929 . S
H1552 C1566 0.930 . S
H1553 C1568 0.960 . S
H1554 C1568 0.960 . S
H1555 C1568 0.960 . S
C1556 H1548 0.929 . S
C1556 C1557 1.377 . S
C1556 C1558 1.384 . S
C1557 C1556 1.377 . S
C1557 C1563 1.390 . S
C1558 H1549 0.930 . S
C1558 C1556 1.384 . S
C1558 C1559 1.372 . S
C1559 C1558 1.372 . S
C1559 C1560 1.400 . S
C1559 C1564 1.490 . S
C1560 H1550 0.930 . S
C1560 C1559 1.400 . S
C1560 C1563 1.386 . S
H1561 C1577 0.930 . S
H1562 C1578 0.931 . S
C1563 H1551 0.929 . S
C1563 C1557 1.390 . S
C1563 C1560 1.386 . S
C1564 C1559 1.490 . S
C1564 C1566 1.395 . S
C1564 C1567 1.403 . S
H1565 C1571 0.930 . S
C1566 H1552 0.930 . S
C1566 C1564 1.395 . S
C1566 C1569 1.403 . S
C1567 C1564 1.403 . S
C1567 C1568 1.524 . S
C1567 C1571 1.400 . S
C1568 H1553 0.960 . S
C1568 H1554 0.960 . S
C1568 H1555 0.960 . S
C1568 C1567 1.524 . S
C1569 C1566 1.403 . S
C1569 C1570 1.392 . S
C1569 C1573 1.495 . S
C1570 C1569 1.392 . S
C1570 C1571 1.385 . S
C1570 C1572 1.478 . S
C1571 H1565 0.930 . S
C1571 C1567 1.400 . S
C1571 C1570 1.385 . S
C1572 C1570 1.478 . S
C1572 C1574 1.381 . S
C1572 C1578 1.383 . S
C1573 C1569 1.495 . S
C1573 H1579 0.959 . S
C1573 H1580 0.961 . S
C1573 H1581 0.960 . S
C1574 C1572 1.381 . S
C1574 C1575 1.394 . S
C1574 H1582 0.930 . S
C1575 C1574 1.394 . S
C1575 C1576 1.383 . S
C1575 H1583 0.929 . S
C1576 C1575 1.383 . S
C1576 C1577 1.377 . S
C1577 H1561 0.930 . S
C1577 C1576 1.377 . S
C1577 C1578 1.379 . S
C1578 H1562 0.931 . S
C1578 C1572 1.383 . S
C1578 C1577 1.379 . S
H1579 C1573 0.959 . S
H1580 C1573 0.961 . S
H1581 C1573 0.960 . S
H1582 C1574 0.930 . S
H1583 C1575 0.929 . S
H1584 C1592 0.929 . S
H1585 C1594 0.930 . S
H1586 C1596 0.930 . S
H1587 C1599 0.929 . S
H1588 C1602 0.930 . S
H1589 C1604 0.960 . S
H1590 C1604 0.960 . S
H1591 C1604 0.960 . S
C1592 H1584 0.929 . S
C1592 C1593 1.377 . S
C1592 C1594 1.384 . S
C1593 C1592 1.377 . S
C1593 C1599 1.390 . S
C1594 H1585 0.930 . S
C1594 C1592 1.384 . S
C1594 C1595 1.372 . S
C1595 C1594 1.372 . S
C1595 C1596 1.400 . S
C1595 C1600 1.490 . S
C1596 H1586 0.930 . S
C1596 C1595 1.400 . S
C1596 C1599 1.386 . S
H1597 C1613 0.930 . S
H1598 C1614 0.931 . S
C1599 H1587 0.929 . S
C1599 C1593 1.390 . S
C1599 C1596 1.386 . S
C1600 C1595 1.490 . S
C1600 C1602 1.395 . S
C1600 C1603 1.403 . S
H1601 C1607 0.930 . S
C1602 H1588 0.930 . S
C1602 C1600 1.395 . S
C1602 C1605 1.403 . S
C1603 C1600 1.403 . S
C1603 C1604 1.524 . S
C1603 C1607 1.400 . S
C1604 H1589 0.960 . S
C1604 H1590 0.960 . S
C1604 H1591 0.960 . S
C1604 C1603 1.524 . S
C1605 C1602 1.403 . S
C1605 C1606 1.392 . S
C1605 C1609 1.495 . S
C1606 C1605 1.392 . S
C1606 C1607 1.385 . S
C1606 C1608 1.478 . S
C1607 H1601 0.930 . S
C1607 C1603 1.400 . S
C1607 C1606 1.385 . S
C1608 C1606 1.478 . S
C1608 C1610 1.381 . S
C1608 C1614 1.383 . S
C1609 C1605 1.495 . S
C1609 H1615 0.959 . S
C1609 H1616 0.961 . S
C1609 H1617 0.960 . S
C1610 C1608 1.381 . S
C1610 C1611 1.394 . S
C1610 H1618 0.930 . S
C1611 C1610 1.394 . S
C1611 C1612 1.383 . S
C1611 H1619 0.929 . S
C1612 C1611 1.383 . S
C1612 C1613 1.377 . S
C1613 H1597 0.930 . S
C1613 C1612 1.377 . S
C1613 C1614 1.379 . S
C1614 H1598 0.931 . S
C1614 C1608 1.383 . S
C1614 C1613 1.379 . S
H1615 C1609 0.959 . S
H1616 C1609 0.961 . S
H1617 C1609 0.960 . S
H1618 C1610 0.930 . S
H1619 C1611 0.929 . S
H1620 C1628 0.929 . S
H1621 C1630 0.930 . S
H1622 C1632 0.930 . S
H1623 C1635 0.929 . S
H1624 C1638 0.930 . S
H1625 C1640 0.960 . S
H1626 C1640 0.960 . S
H1627 C1640 0.960 . S
C1628 H1620 0.929 . S
C1628 C1629 1.377 . S
C1628 C1630 1.384 . S
C1629 C1628 1.377 . S
C1629 C1635 1.390 . S
C1630 H1621 0.930 . S
C1630 C1628 1.384 . S
C1630 C1631 1.372 . S
C1631 C1630 1.372 . S
C1631 C1632 1.400 . S
C1631 C1636 1.490 . S
C1632 H1622 0.930 . S
C1632 C1631 1.400 . S
C1632 C1635 1.386 . S
H1633 C1649 0.930 . S
H1634 C1650 0.931 . S
C1635 H1623 0.929 . S
C1635 C1629 1.390 . S
C1635 C1632 1.386 . S
C1636 C1631 1.490 . S
C1636 C1638 1.395 . S
C1636 C1639 1.403 . S
H1637 C1643 0.930 . S
C1638 H1624 0.930 . S
C1638 C1636 1.395 . S
C1638 C1641 1.403 . S
C1639 C1636 1.403 . S
C1639 C1640 1.524 . S
C1639 C1643 1.400 . S
C1640 H1625 0.960 . S
C1640 H1626 0.960 . S
C1640 H1627 0.960 . S
C1640 C1639 1.524 . S
C1641 C1638 1.403 . S
C1641 C1642 1.392 . S
C1641 C1645 1.495 . S
C1642 C1641 1.392 . S
C1642 C1643 1.385 . S
C1642 C1644 1.478 . S
C1643 H1637 0.930 . S
C1643 C1639 1.400 . S
C1643 C1642 1.385 . S
C1644 C1642 1.478 . S
C1644 C1646 1.381 . S
C1644 C1650 1.383 . S
C1645 C1641 1.495 . S
C1645 H1651 0.959 . S
C1645 H1652 0.961 . S
C1645 H1653 0.960 . S
C1646 C1644 1.381 . S
C1646 C1647 1.394 . S
C1646 H1654 0.930 . S
C1647 C1646 1.394 . S
C1647 C1648 1.383 . S
C1647 H1655 0.929 . S
C1648 C1647 1.383 . S
C1648 C1649 1.377 . S
C1649 H1633 0.930 . S
C1649 C1648 1.377 . S
C1649 C1650 1.379 . S
C1650 H1634 0.931 . S
C1650 C1644 1.383 . S
C1650 C1649 1.379 . S
H1651 C1645 0.959 . S
H1652 C1645 0.961 . S
H1653 C1645 0.960 . S
H1654 C1646 0.930 . S
H1655 C1647 0.929 . S
H1656 C1664 0.929 . S
H1657 C1666 0.930 . S
H1658 C1668 0.930 . S
H1659 C1671 0.929 . S
H1660 C1674 0.930 . S
H1661 C1676 0.960 . S
H1662 C1676 0.960 . S
H1663 C1676 0.960 . S
C1664 H1656 0.929 . S
C1664 C1665 1.377 . S
C1664 C1666 1.384 . S
C1665 C1664 1.377 . S
C1665 C1671 1.390 . S
C1666 H1657 0.930 . S
C1666 C1664 1.384 . S
C1666 C1667 1.372 . S
C1667 C1666 1.372 . S
C1667 C1668 1.400 . S
C1667 C1672 1.490 . S
C1668 H1658 0.930 . S
C1668 C1667 1.400 . S
C1668 C1671 1.386 . S
H1669 C1685 0.930 . S
H1670 C1686 0.931 . S
C1671 H1659 0.929 . S
C1671 C1665 1.390 . S
C1671 C1668 1.386 . S
C1672 C1667 1.490 . S
C1672 C1674 1.395 . S
C1672 C1675 1.403 . S
H1673 C1679 0.930 . S
C1674 H1660 0.930 . S
C1674 C1672 1.395 . S
C1674 C1677 1.403 . S
C1675 C1672 1.403 . S
C1675 C1676 1.524 . S
C1675 C1679 1.400 . S
C1676 H1661 0.960 . S
C1676 H1662 0.960 . S
C1676 H1663 0.960 . S
C1676 C1675 1.524 . S
C1677 C1674 1.403 . S
C1677 C1678 1.392 . S
C1677 C1681 1.495 . S
C1678 C1677 1.392 . S
C1678 C1679 1.385 . S
C1678 C1680 1.478 . S
C1679 H1673 0.930 . S
C1679 C1675 1.400 . S
C1679 C1678 1.385 . S
C1680 C1678 1.478 . S
C1680 C1682 1.381 . S
C1680 C1686 1.383 . S
C1681 C1677 1.495 . S
C1681 H1687 0.959 . S
C1681 H1688 0.961 . S
C1681 H1689 0.960 . S
C1682 C1680 1.381 . S
C1682 C1683 1.394 . S
C1682 H1690 0.930 . S
C1683 C1682 1.394 . S
C1683 C1684 1.383 . S
C1683 H1691 0.929 . S
C1684 C1683 1.383 . S
C1684 C1685 1.377 . S
C1685 H1669 0.930 . S
C1685 C1684 1.377 . S
C1685 C1686 1.379 . S
C1686 H1670 0.931 . S
C1686 C1680 1.383 . S
C1686 C1685 1.379 . S
H1687 C1681 0.959 . S
H1688 C1681 0.961 . S
H1689 C1681 0.960 . S
H1690 C1682 0.930 . S
H1691 C1683 0.929 . S
H1692 C1700 0.929 . S
H1693 C1702 0.930 . S
H1694 C1704 0.930 . S
H1695 C1707 0.929 . S
H1696 C1710 0.930 . S
H1697 C1712 0.960 . S
H1698 C1712 0.960 . S
H1699 C1712 0.960 . S
C1700 H1692 0.929 . S
C1700 C1701 1.377 . S
C1700 C1702 1.384 . S
C1701 C1700 1.377 . S
C1701 C1707 1.390 . S
C1702 H1693 0.930 . S
C1702 C1700 1.384 . S
C1702 C1703 1.372 . S
C1703 C1702 1.372 . S
C1703 C1704 1.400 . S
C1703 C1708 1.490 . S
C1704 H1694 0.930 . S
C1704 C1703 1.400 . S
C1704 C1707 1.386 . S
H1705 C1721 0.930 . S
H1706 C1722 0.931 . S
C1707 H1695 0.929 . S
C1707 C1701 1.390 . S
C1707 C1704 1.386 . S
C1708 C1703 1.490 . S
C1708 C1710 1.395 . S
C1708 C1711 1.403 . S
H1709 C1715 0.930 . S
C1710 H1696 0.930 . S
C1710 C1708 1.395 . S
C1710 C1713 1.403 . S
C1711 C1708 1.403 . S
C1711 C1712 1.524 . S
C1711 C1715 1.400 . S
C1712 H1697 0.960 . S
C1712 H1698 0.960 . S
C1712 H1699 0.960 . S
C1712 C1711 1.524 . S
C1713 C1710 1.403 . S
C1713 C1714 1.392 . S
C1713 C1717 1.495 . S
C1714 C1713 1.392 . S
C1714 C1715 1.385 . S
C1714 C1716 1.478 . S
C1715 H1709 0.930 . S
C1715 C1711 1.400 . S
C1715 C1714 1.385 . S
C1716 C1714 1.478 . S
C1716 C1718 1.381 . S
C1716 C1722 1.383 . S
C1717 C1713 1.495 . S
C1717 H1723 0.959 . S
C1717 H1724 0.961 . S
C1717 H1725 0.960 . S
C1718 C1716 1.381 . S
C1718 C1719 1.394 . S
C1718 H1726 0.930 . S
C1719 C1718 1.394 . S
C1719 C1720 1.383 . S
C1719 H1727 0.929 . S
C1720 C1719 1.383 . S
C1720 C1721 1.377 . S
C1721 H1705 0.930 . S
C1721 C1720 1.377 . S
C1721 C1722 1.379 . S
C1722 H1706 0.931 . S
C1722 C1716 1.383 . S
C1722 C1721 1.379 . S
H1723 C1717 0.959 . S
H1724 C1717 0.961 . S
H1725 C1717 0.960 . S
H1726 C1718 0.930 . S
H1727 C1719 0.929 . S
H1728 C1736 0.929 . S
H1729 C1738 0.930 . S
H1730 C1740 0.930 . S
H1731 C1743 0.929 . S
H1732 C1746 0.930 . S
H1733 C1748 0.960 . S
H1734 C1748 0.960 . S
H1735 C1748 0.960 . S
C1736 H1728 0.929 . S
C1736 C1737 1.377 . S
C1736 C1738 1.384 . S
C1737 C1736 1.377 . S
C1737 C1743 1.390 . S
C1738 H1729 0.930 . S
C1738 C1736 1.384 . S
C1738 C1739 1.372 . S
C1739 C1738 1.372 . S
C1739 C1740 1.400 . S
C1739 C1744 1.490 . S
C1740 H1730 0.930 . S
C1740 C1739 1.400 . S
C1740 C1743 1.386 . S
H1741 C1757 0.930 . S
H1742 C1758 0.931 . S
C1743 H1731 0.929 . S
C1743 C1737 1.390 . S
C1743 C1740 1.386 . S
C1744 C1739 1.490 . S
C1744 C1746 1.395 . S
C1744 C1747 1.403 . S
H1745 C1751 0.930 . S
C1746 H1732 0.930 . S
C1746 C1744 1.395 . S
C1746 C1749 1.403 . S
C1747 C1744 1.403 . S
C1747 C1748 1.524 . S
C1747 C1751 1.400 . S
C1748 H1733 0.960 . S
C1748 H1734 0.960 . S
C1748 H1735 0.960 . S
C1748 C1747 1.524 . S
C1749 C1746 1.403 . S
C1749 C1750 1.392 . S
C1749 C1753 1.495 . S
C1750 C1749 1.392 . S
C1750 C1751 1.385 . S
C1750 C1752 1.478 . S
C1751 H1745 0.930 . S
C1751 C1747 1.400 . S
C1751 C1750 1.385 . S
C1752 C1750 1.478 . S
C1752 C1754 1.381 . S
C1752 C1758 1.383 . S
C1753 C1749 1.495 . S
C1753 H1759 0.959 . S
C1753 H1760 0.961 . S
C1753 H1761 0.960 . S
C1754 C1752 1.381 . S
C1754 C1755 1.394 . S
C1754 H1762 0.930 . S
C1755 C1754 1.394 . S
C1755 C1756 1.383 . S
C1755 H1763 0.929 . S
C1756 C1755 1.383 . S
C1756 C1757 1.377 . S
C1757 H1741 0.930 . S
C1757 C1756 1.377 . S
C1757 C1758 1.379 . S
C1758 H1742 0.931 . S
C1758 C1752 1.383 . S
C1758 C1757 1.379 . S
H1759 C1753 0.959 . S
H1760 C1753 0.961 . S
H1761 C1753 0.960 . S
H1762 C1754 0.930 . S
H1763 C1755 0.929 . S
H1764 C1772 0.929 . S
H1765 C1774 0.930 . S
H1766 C1776 0.930 . S
H1767 C1779 0.929 . S
H1768 C1782 0.930 . S
H1769 C1784 0.960 . S
H1770 C1784 0.960 . S
H1771 C1784 0.960 . S
C1772 H1764 0.929 . S
C1772 C1773 1.377 . S
C1772 C1774 1.384 . S
C1773 C1772 1.377 . S
C1773 C1779 1.390 . S
C1774 H1765 0.930 . S
C1774 C1772 1.384 . S
C1774 C1775 1.372 . S
C1775 C1774 1.372 . S
C1775 C1776 1.400 . S
C1775 C1780 1.490 . S
C1776 H1766 0.930 . S
C1776 C1775 1.400 . S
C1776 C1779 1.386 . S
H1777 C1793 0.930 . S
H1778 C1794 0.931 . S
C1779 H1767 0.929 . S
C1779 C1773 1.390 . S
C1779 C1776 1.386 . S
C1780 C1775 1.490 . S
C1780 C1782 1.395 . S
C1780 C1783 1.403 . S
H1781 C1787 0.930 . S
C1782 H1768 0.930 . S
C1782 C1780 1.395 . S
C1782 C1785 1.403 . S
C1783 C1780 1.403 . S
C1783 C1784 1.524 . S
C1783 C1787 1.400 . S
C1784 H1769 0.960 . S
C1784 H1770 0.960 . S
C1784 H1771 0.960 . S
C1784 C1783 1.524 . S
C1785 C1782 1.403 . S
C1785 C1786 1.392 . S
C1785 C1789 1.495 . S
C1786 C1785 1.392 . S
C1786 C1787 1.385 . S
C1786 C1788 1.478 . S
C1787 H1781 0.930 . S
C1787 C1783 1.400 . S
C1787 C1786 1.385 . S
C1788 C1786 1.478 . S
C1788 C1790 1.381 . S
C1788 C1794 1.383 . S
C1789 C1785 1.495 . S
C1789 H1795 0.959 . S
C1789 H1796 0.961 . S
C1789 H1797 0.960 . S
C1790 C1788 1.381 . S
C1790 C1791 1.394 . S
C1790 H1798 0.930 . S
C1791 C1790 1.394 . S
C1791 C1792 1.383 . S
C1791 H1799 0.929 . S
C1792 C1791 1.383 . S
C1792 C1793 1.377 . S
C1793 H1777 0.930 . S
C1793 C1792 1.377 . S
C1793 C1794 1.379 . S
C1794 H1778 0.931 . S
C1794 C1788 1.383 . S
C1794 C1793 1.379 . S
H1795 C1789 0.959 . S
H1796 C1789 0.961 . S
H1797 C1789 0.960 . S
H1798 C1790 0.930 . S
H1799 C1791 0.929 . S
H1800 C1808 0.929 . S
H1801 C1810 0.930 . S
H1802 C1812 0.930 . S
H1803 C1815 0.929 . S
H1804 C1818 0.930 . S
H1805 C1820 0.960 . S
H1806 C1820 0.960 . S
H1807 C1820 0.960 . S
C1808 H1800 0.929 . S
C1808 C1809 1.377 . S
C1808 C1810 1.384 . S
C1809 C1808 1.377 . S
C1809 C1815 1.390 . S
C1810 H1801 0.930 . S
C1810 C1808 1.384 . S
C1810 C1811 1.372 . S
C1811 C1810 1.372 . S
C1811 C1812 1.400 . S
C1811 C1816 1.490 . S
C1812 H1802 0.930 . S
C1812 C1811 1.400 . S
C1812 C1815 1.386 . S
H1813 C1829 0.930 . S
H1814 C1830 0.931 . S
C1815 H1803 0.929 . S
C1815 C1809 1.390 . S
C1815 C1812 1.386 . S
C1816 C1811 1.490 . S
C1816 C1818 1.395 . S
C1816 C1819 1.403 . S
H1817 C1823 0.930 . S
C1818 H1804 0.930 . S
C1818 C1816 1.395 . S
C1818 C1821 1.403 . S
C1819 C1816 1.403 . S
C1819 C1820 1.524 . S
C1819 C1823 1.400 . S
C1820 H1805 0.960 . S
C1820 H1806 0.960 . S
C1820 H1807 0.960 . S
C1820 C1819 1.524 . S
C1821 C1818 1.403 . S
C1821 C1822 1.392 . S
C1821 C1825 1.495 . S
C1822 C1821 1.392 . S
C1822 C1823 1.385 . S
C1822 C1824 1.478 . S
C1823 H1817 0.930 . S
C1823 C1819 1.400 . S
C1823 C1822 1.385 . S
C1824 C1822 1.478 . S
C1824 C1826 1.381 . S
C1824 C1830 1.383 . S
C1825 C1821 1.495 . S
C1825 H1831 0.959 . S
C1825 H1832 0.961 . S
C1825 H1833 0.960 . S
C1826 C1824 1.381 . S
C1826 C1827 1.394 . S
C1826 H1834 0.930 . S
C1827 C1826 1.394 . S
C1827 C1828 1.383 . S
C1827 H1835 0.929 . S
C1828 C1827 1.383 . S
C1828 C1829 1.377 . S
C1829 H1813 0.930 . S
C1829 C1828 1.377 . S
C1829 C1830 1.379 . S
C1830 H1814 0.931 . S
C1830 C1824 1.383 . S
C1830 C1829 1.379 . S
H1831 C1825 0.959 . S
H1832 C1825 0.961 . S
H1833 C1825 0.960 . S
H1834 C1826 0.930 . S
H1835 C1827 0.929 . S
H1836 C1844 0.929 . S
H1837 C1846 0.930 . S
H1838 C1848 0.930 . S
H1839 C1851 0.929 . S
H1840 C1854 0.930 . S
H1841 C1856 0.960 . S
H1842 C1856 0.960 . S
H1843 C1856 0.960 . S
C1844 H1836 0.929 . S
C1844 C1845 1.377 . S
C1844 C1846 1.384 . S
C1845 C1844 1.377 . S
C1845 C1851 1.390 . S
C1846 H1837 0.930 . S
C1846 C1844 1.384 . S
C1846 C1847 1.372 . S
C1847 C1846 1.372 . S
C1847 C1848 1.400 . S
C1847 C1852 1.490 . S
C1848 H1838 0.930 . S
C1848 C1847 1.400 . S
C1848 C1851 1.386 . S
H1849 C1865 0.930 . S
H1850 C1866 0.931 . S
C1851 H1839 0.929 . S
C1851 C1845 1.390 . S
C1851 C1848 1.386 . S
C1852 C1847 1.490 . S
C1852 C1854 1.395 . S
C1852 C1855 1.403 1_565 S
H1853 C1859 0.930 . S
C1854 H1840 0.930 . S
C1854 C1852 1.395 . S
C1854 C1857 1.403 . S
C1855 C1852 1.403 1_545 S
C1855 C1856 1.524 . S
C1855 C1859 1.400 . S
C1856 H1841 0.960 . S
C1856 H1842 0.960 . S
C1856 H1843 0.960 . S
C1856 C1855 1.524 . S
C1857 C1854 1.403 . S
C1857 C1858 1.392 1_565 S
C1857 C1861 1.495 . S
C1858 C1857 1.392 1_545 S
C1858 C1859 1.385 . S
C1858 C1860 1.478 . S
C1859 H1853 0.930 . S
C1859 C1855 1.400 . S
C1859 C1858 1.385 . S
C1860 C1858 1.478 . S
C1860 C1862 1.381 . S
C1860 C1866 1.383 . S
C1861 C1857 1.495 . S
C1861 H1867 0.959 . S
C1861 H1868 0.961 . S
C1861 H1869 0.960 . S
C1862 C1860 1.381 . S
C1862 C1863 1.394 . S
C1862 H1870 0.930 . S
C1863 C1862 1.394 . S
C1863 C1864 1.383 . S
C1863 H1871 0.929 . S
C1864 C1863 1.383 . S
C1864 C1865 1.377 . S
C1865 H1849 0.930 . S
C1865 C1864 1.377 . S
C1865 C1866 1.379 . S
C1866 H1850 0.931 . S
C1866 C1860 1.383 . S
C1866 C1865 1.379 . S
H1867 C1861 0.959 . S
H1868 C1861 0.961 . S
H1869 C1861 0.960 . S
H1870 C1862 0.930 . S
H1871 C1863 0.929 . S
H1872 C1880 0.929 . S
H1873 C1882 0.930 . S
H1874 C1884 0.930 . S
H1875 C1887 0.929 . S
H1876 C1890 0.930 . S
H1877 C1892 0.960 . S
H1878 C1892 0.960 . S
H1879 C1892 0.960 . S
C1880 H1872 0.929 . S
C1880 C1881 1.377 . S
C1880 C1882 1.384 . S
C1881 C1880 1.377 . S
C1881 C1887 1.390 . S
C1882 H1873 0.930 . S
C1882 C1880 1.384 . S
C1882 C1883 1.372 . S
C1883 C1882 1.372 . S
C1883 C1884 1.400 . S
C1883 C1888 1.490 . S
C1884 H1874 0.930 . S
C1884 C1883 1.400 . S
C1884 C1887 1.386 . S
H1885 C1901 0.930 . S
H1886 C1902 0.931 . S
C1887 H1875 0.929 . S
C1887 C1881 1.390 . S
C1887 C1884 1.386 . S
C1888 C1883 1.490 . S
C1888 C1890 1.395 1_655 S
C1888 C1891 1.403 . S
H1889 C1895 0.955 . S
C1890 H1876 0.930 . S
C1890 C1888 1.395 1_455 S
C1890 C1893 1.403 . S
C1891 C1888 1.403 . S
C1891 C1892 1.524 . S
C1891 C1895 1.438 . S
C1892 H1877 0.960 . S
C1892 H1878 0.960 . S
C1892 H1879 0.960 . S
C1892 C1891 1.524 . S
C1893 C1890 1.403 . S
C1893 C1894 1.392 . S
C1893 C1897 1.495 . S
C1894 C1893 1.392 . S
C1894 C1895 1.326 1_455 S
C1894 C1896 1.478 . S
C1895 H1889 0.955 . S
C1895 C1891 1.438 . S
C1895 C1894 1.326 1_655 S
C1896 C1894 1.478 . S
C1896 C1898 1.381 . S
C1896 C1902 1.383 . S
C1897 C1893 1.495 . S
C1897 H1903 0.959 . S
C1897 H1904 0.961 . S
C1897 H1905 0.960 . S
C1898 C1896 1.381 . S
C1898 C1899 1.394 . S
C1898 H1906 0.930 . S
C1899 C1898 1.394 . S
C1899 C1900 1.383 . S
C1899 H1907 0.929 . S
C1900 C1899 1.383 . S
C1900 C1901 1.377 . S
C1901 H1885 0.930 . S
C1901 C1900 1.377 . S
C1901 C1902 1.379 . S
C1902 H1886 0.931 . S
C1902 C1896 1.383 . S
C1902 C1901 1.379 . S
H1903 C1897 0.959 . S
H1904 C1897 0.961 . S
H1905 C1897 0.960 . S
H1906 C1898 0.930 . S
H1907 C1899 0.929 . S
H1908 C1916 0.929 . S
H1909 C1918 0.930 . S
H1910 C1920 0.930 . S
H1911 C1923 0.929 . S
H1912 C1926 0.930 . S
H1913 C1928 0.960 . S
H1914 C1928 0.960 . S
H1915 C1928 0.960 . S
C1916 H1908 0.929 . S
C1916 C1917 1.377 . S
C1916 C1918 1.384 . S
C1917 C1916 1.377 . S
C1917 C1923 1.390 . S
C1918 H1909 0.930 . S
C1918 C1916 1.384 . S
C1918 C1919 1.372 . S
C1919 C1918 1.372 . S
C1919 C1920 1.400 . S
C1919 C1924 1.490 . S
C1920 H1910 0.930 . S
C1920 C1919 1.400 . S
C1920 C1923 1.386 . S
H1921 C1937 0.930 . S
H1922 C1938 0.931 . S
C1923 H1911 0.929 . S
C1923 C1917 1.390 . S
C1923 C1920 1.386 . S
C1924 C1919 1.490 . S
C1924 C1926 1.395 . S
C1924 C1927 1.403 . S
H1925 C1931 0.930 . S
C1926 H1912 0.930 . S
C1926 C1924 1.395 . S
C1926 C1929 1.403 . S
C1927 C1924 1.403 . S
C1927 C1928 1.524 . S
C1927 C1931 1.400 . S
C1928 H1913 0.960 . S
C1928 H1914 0.960 . S
C1928 H1915 0.960 . S
C1928 C1927 1.524 . S
C1929 C1926 1.403 . S
C1929 C1930 1.392 . S
C1929 C1933 1.495 . S
C1930 C1929 1.392 . S
C1930 C1931 1.385 . S
C1930 C1932 1.478 . S
C1931 H1925 0.930 . S
C1931 C1927 1.400 . S
C1931 C1930 1.385 . S
C1932 C1930 1.478 . S
C1932 C1934 1.381 . S
C1932 C1938 1.383 . S
C1933 C1929 1.495 . S
C1933 H1939 0.959 . S
C1933 H1940 0.961 . S
C1933 H1941 0.960 . S
C1934 C1932 1.381 . S
C1934 C1935 1.394 . S
C1934 H1942 0.930 . S
C1935 C1934 1.394 . S
C1935 C1936 1.383 . S
C1935 H1943 0.929 . S
C1936 C1935 1.383 . S
C1936 C1937 1.377 . S
C1937 H1921 0.930 . S
C1937 C1936 1.377 . S
C1937 C1938 1.379 . S
C1938 H1922 0.931 . S
C1938 C1932 1.383 . S
C1938 C1937 1.379 . S
H1939 C1933 0.959 . S
H1940 C1933 0.961 . S
H1941 C1933 0.960 . S
H1942 C1934 0.930 . S
H1943 C1935 0.929 . S
H1944 C1952 0.929 . S
H1945 C1954 0.930 . S
H1946 C1956 0.930 . S
H1947 C1959 0.929 . S
H1948 C1962 0.930 . S
H1949 C1964 0.960 . S
H1950 C1964 0.960 . S
H1951 C1964 0.960 1_545 S
C1952 H1944 0.929 . S
C1952 C1953 1.377 . S
C1952 C1954 1.384 . S
C1953 C1952 1.377 . S
C1953 C1959 1.390 . S
C1954 H1945 0.930 . S
C1954 C1952 1.384 . S
C1954 C1955 1.372 . S
C1955 C1954 1.372 . S
C1955 C1956 1.400 . S
C1955 C1960 1.490 . S
C1956 H1946 0.930 . S
C1956 C1955 1.400 . S
C1956 C1959 1.386 . S
H1957 C1973 0.930 . S
H1958 C1974 0.931 . S
C1959 H1947 0.929 . S
C1959 C1953 1.390 . S
C1959 C1956 1.386 . S
C1960 C1955 1.490 . S
C1960 C1962 1.395 . S
C1960 C1963 1.399 1_545 S
H1961 C1967 0.930 . S
C1962 H1948 0.930 . S
C1962 C1960 1.395 . S
C1962 C1965 1.408 . S
C1963 C1960 1.399 1_565 S
C1963 C1964 1.516 . S
C1963 C1967 1.413 . S
C1964 H1949 0.960 . S
C1964 H1950 0.960 . S
C1964 H1951 0.960 1_565 S
C1964 C1963 1.516 . S
C1965 C1962 1.408 . S
C1965 C1966 1.391 1_545 S
C1965 C1969 1.492 . S
C1966 C1965 1.391 1_565 S
C1966 C1967 1.385 . S
C1966 C1968 1.478 . S
C1967 H1961 0.930 . S
C1967 C1963 1.413 . S
C1967 C1966 1.385 . S
C1968 C1966 1.478 . S
C1968 C1970 1.381 . S
C1968 C1974 1.383 . S
C1969 C1965 1.492 . S
C1969 H1975 0.959 . S
C1969 H1976 0.961 . S
C1969 H1977 0.960 1_545 S
C1970 C1968 1.381 . S
C1970 C1971 1.394 . S
C1970 H1978 0.930 . S
C1971 C1970 1.394 . S
C1971 C1972 1.383 . S
C1971 H1979 0.929 . S
C1972 C1971 1.383 . S
C1972 C1973 1.377 . S
C1973 H1957 0.930 . S
C1973 C1972 1.377 . S
C1973 C1974 1.379 . S
C1974 H1958 0.931 . S
C1974 C1968 1.383 . S
C1974 C1973 1.379 . S
H1975 C1969 0.959 . S
H1976 C1969 0.961 . S
H1977 C1969 0.960 1_565 S
H1978 C1970 0.930 . S
H1979 C1971 0.929 . S
H1980 C1988 0.929 . S
H1981 C1990 0.930 . S
H1982 C1992 0.930 . S
H1983 C1995 0.929 . S
H1984 C1998 0.930 . S
H1985 C2000 0.960 . S
H1986 C2000 0.960 . S
H1987 C2000 0.960 . S
C1988 H1980 0.929 . S
C1988 C1989 1.377 . S
C1988 C1990 1.384 . S
C1989 C1988 1.377 . S
C1989 C1995 1.390 . S
C1990 H1981 0.930 . S
C1990 C1988 1.384 . S
C1990 C1991 1.372 . S
C1991 C1990 1.372 . S
C1991 C1992 1.400 . S
C1991 C1996 1.490 . S
C1992 H1982 0.930 . S
C1992 C1991 1.400 . S
C1992 C1995 1.386 . S
H1993 C2009 0.930 . S
H1994 C2010 0.931 . S
C1995 H1983 0.929 . S
C1995 C1989 1.390 . S
C1995 C1992 1.386 . S
C1996 C1991 1.490 . S
C1996 C1998 1.395 . S
C1996 C1999 1.403 . S
H1997 C2003 0.930 . S
C1998 H1984 0.930 . S
C1998 C1996 1.395 . S
C1998 C2001 1.403 1_655 S
C1999 C1996 1.403 . S
C1999 C2000 1.524 . S
C1999 C2003 1.400 1_655 S
C2000 H1985 0.960 . S
C2000 H1986 0.960 . S
C2000 H1987 0.960 . S
C2000 C1999 1.524 . S
C2001 C1998 1.403 1_455 S
C2001 C2002 1.392 . S
C2001 C2005 1.495 . S
C2002 C2001 1.392 . S
C2002 C2003 1.385 . S
C2002 C2004 1.478 . S
C2003 H1997 0.930 . S
C2003 C1999 1.400 1_455 S
C2003 C2002 1.385 . S
C2004 C2002 1.478 . S
C2004 C2006 1.381 . S
C2004 C2010 1.383 . S
C2005 C2001 1.495 . S
C2005 H2011 0.959 . S
C2005 H2012 0.961 . S
C2005 H2013 0.960 . S
C2006 C2004 1.381 . S
C2006 C2007 1.394 . S
C2006 H2014 0.930 . S
C2007 C2006 1.394 . S
C2007 C2008 1.383 . S
C2007 H2015 0.929 . S
C2008 C2007 1.383 . S
C2008 C2009 1.377 . S
C2009 H1993 0.930 . S
C2009 C2008 1.377 . S
C2009 C2010 1.379 . S
C2010 H1994 0.931 . S
C2010 C2004 1.383 . S
C2010 C2009 1.379 . S
H2011 C2005 0.959 . S
H2012 C2005 0.961 . S
H2013 C2005 0.960 . S
H2014 C2006 0.930 . S
H2015 C2007 0.929 . S
H2016 C2024 0.929 . S
H2017 C2026 0.930 . S
H2018 C2028 0.930 . S
H2019 C2031 0.929 . S
H2020 C2034 0.930 . S
H2021 C2036 0.960 . S
H2022 C2036 0.960 . S
H2023 C2036 0.960 . S
C2024 H2016 0.929 . S
C2024 C2025 1.377 . S
C2024 C2026 1.384 . S
C2025 C2024 1.377 . S
C2025 C2031 1.390 . S
C2026 H2017 0.930 . S
C2026 C2024 1.384 . S
C2026 C2027 1.372 . S
C2027 C2026 1.372 . S
C2027 C2028 1.400 . S
C2027 C2032 1.490 . S
C2028 H2018 0.930 . S
C2028 C2027 1.400 . S
C2028 C2031 1.386 . S
H2029 C2045 0.930 . S
H2030 C2046 0.931 . S
C2031 H2019 0.929 . S
C2031 C2025 1.390 . S
C2031 C2028 1.386 . S
C2032 C2027 1.490 . S
C2032 C2034 1.395 . S
C2032 C2035 1.403 . S
H2033 C2039 0.930 . S
C2034 H2020 0.930 . S
C2034 C2032 1.395 . S
C2034 C2037 1.403 . S
C2035 C2032 1.403 . S
C2035 C2036 1.524 . S
C2035 C2039 1.400 . S
C2036 H2021 0.960 . S
C2036 H2022 0.960 . S
C2036 H2023 0.960 . S
C2036 C2035 1.524 . S
C2037 C2034 1.403 . S
C2037 C2038 1.392 . S
C2037 C2041 1.495 . S
C2038 C2037 1.392 . S
C2038 C2039 1.385 . S
C2038 C2040 1.478 . S
C2039 H2033 0.930 . S
C2039 C2035 1.400 . S
C2039 C2038 1.385 . S
C2040 C2038 1.478 . S
C2040 C2042 1.381 . S
C2040 C2046 1.383 . S
C2041 C2037 1.495 . S
C2041 H2047 0.959 . S
C2041 H2048 0.961 . S
C2041 H2049 0.960 . S
C2042 C2040 1.381 . S
C2042 C2043 1.394 . S
C2042 H2050 0.930 . S
C2043 C2042 1.394 . S
C2043 C2044 1.383 . S
C2043 H2051 0.929 . S
C2044 C2043 1.383 . S
C2044 C2045 1.377 . S
C2045 H2029 0.930 . S
C2045 C2044 1.377 . S
C2045 C2046 1.379 . S
C2046 H2030 0.931 . S
C2046 C2040 1.383 . S
C2046 C2045 1.379 . S
H2047 C2041 0.959 . S
H2048 C2041 0.961 . S
H2049 C2041 0.960 . S
H2050 C2042 0.930 . S
H2051 C2043 0.929 . S
H2052 C2060 0.929 . S
H2053 C2062 0.930 . S
H2054 C2064 0.930 . S
H2055 C2067 0.929 . S
H2056 C2070 0.930 . S
H2057 C2072 0.960 . S
H2058 C2072 0.960 . S
H2059 C2072 0.960 . S
C2060 H2052 0.929 . S
C2060 C2061 1.377 . S
C2060 C2062 1.384 . S
C2061 C2060 1.377 . S
C2061 C2067 1.390 . S
C2062 H2053 0.930 . S
C2062 C2060 1.384 . S
C2062 C2063 1.372 . S
C2063 C2062 1.372 . S
C2063 C2064 1.400 . S
C2063 C2068 1.490 . S
C2064 H2054 0.930 . S
C2064 C2063 1.400 . S
C2064 C2067 1.386 . S
H2065 C2081 0.930 . S
H2066 C2082 0.931 . S
C2067 H2055 0.929 . S
C2067 C2061 1.390 . S
C2067 C2064 1.386 . S
C2068 C2063 1.490 . S
C2068 C2070 1.395 . S
C2068 C2071 1.403 . S
H2069 C2075 0.930 . S
C2070 H2056 0.930 . S
C2070 C2068 1.395 . S
C2070 C2073 1.403 . S
C2071 C2068 1.403 . S
C2071 C2072 1.524 . S
C2071 C2075 1.400 . S
C2072 H2057 0.960 . S
C2072 H2058 0.960 . S
C2072 H2059 0.960 . S
C2072 C2071 1.524 . S
C2073 C2070 1.403 . S
C2073 C2074 1.392 . S
C2073 C2077 1.495 . S
C2074 C2073 1.392 . S
C2074 C2075 1.385 . S
C2074 C2076 1.478 . S
C2075 H2069 0.930 . S
C2075 C2071 1.400 . S
C2075 C2074 1.385 . S
C2076 C2074 1.478 . S
C2076 C2078 1.381 . S
C2076 C2082 1.383 . S
C2077 C2073 1.495 . S
C2077 H2083 0.959 . S
C2077 H2084 0.961 . S
C2077 H2085 0.960 . S
C2078 C2076 1.381 . S
C2078 C2079 1.394 . S
C2078 H2086 0.930 . S
C2079 C2078 1.394 . S
C2079 C2080 1.383 . S
C2079 H2087 0.929 . S
C2080 C2079 1.383 . S
C2080 C2081 1.377 . S
C2081 H2065 0.930 . S
C2081 C2080 1.377 . S
C2081 C2082 1.379 . S
C2082 H2066 0.931 . S
C2082 C2076 1.383 . S
C2082 C2081 1.379 . S
H2083 C2077 0.959 . S
H2084 C2077 0.961 . S
H2085 C2077 0.960 . S
H2086 C2078 0.930 . S
H2087 C2079 0.929 . S
H2088 C2096 0.929 . S
H2089 C2098 0.930 . S
H2090 C2100 0.930 . S
H2091 C2103 0.929 . S
H2092 C2106 0.930 . S
H2093 C2108 0.960 . S
H2094 C2108 0.960 . S
H2095 C2108 0.960 . S
C2096 H2088 0.929 . S
C2096 C2097 1.377 . S
C2096 C2098 1.384 . S
C2097 C2096 1.377 . S
C2097 C2103 1.390 . S
C2098 H2089 0.930 . S
C2098 C2096 1.384 . S
C2098 C2099 1.372 . S
C2099 C2098 1.372 . S
C2099 C2100 1.400 . S
C2099 C2104 1.490 . S
C2100 H2090 0.930 . S
C2100 C2099 1.400 . S
C2100 C2103 1.386 . S
H2101 C2117 0.930 . S
H2102 C2118 0.931 . S
C2103 H2091 0.929 . S
C2103 C2097 1.390 . S
C2103 C2100 1.386 . S
C2104 C2099 1.490 . S
C2104 C2106 1.395 . S
C2104 C2107 1.403 . S
H2105 C2111 0.930 . S
C2106 H2092 0.930 . S
C2106 C2104 1.395 . S
C2106 C2109 1.403 . S
C2107 C2104 1.403 . S
C2107 C2108 1.524 . S
C2107 C2111 1.400 . S
C2108 H2093 0.960 . S
C2108 H2094 0.960 . S
C2108 H2095 0.960 . S
C2108 C2107 1.524 . S
C2109 C2106 1.403 . S
C2109 C2110 1.392 . S
C2109 C2113 1.495 . S
C2110 C2109 1.392 . S
C2110 C2111 1.385 . S
C2110 C2112 1.478 . S
C2111 H2105 0.930 . S
C2111 C2107 1.400 . S
C2111 C2110 1.385 . S
C2112 C2110 1.478 . S
C2112 C2114 1.381 . S
C2112 C2118 1.383 . S
C2113 C2109 1.495 . S
C2113 H2119 0.959 . S
C2113 H2120 0.961 . S
C2113 H2121 0.960 . S
C2114 C2112 1.381 . S
C2114 C2115 1.394 . S
C2114 H2122 0.930 . S
C2115 C2114 1.394 . S
C2115 C2116 1.383 . S
C2115 H2123 0.929 . S
C2116 C2115 1.383 . S
C2116 C2117 1.377 . S
C2117 H2101 0.930 . S
C2117 C2116 1.377 . S
C2117 C2118 1.379 . S
C2118 H2102 0.931 . S
C2118 C2112 1.383 . S
C2118 C2117 1.379 . S
H2119 C2113 0.959 . S
H2120 C2113 0.961 . S
H2121 C2113 0.960 . S
H2122 C2114 0.930 . S
H2123 C2115 0.929 . S
H2124 C2132 0.929 . S
H2125 C2134 0.930 . S
H2126 C2136 0.930 . S
H2127 C2139 0.931 1_556 S
H2128 C2142 0.930 . S
H2129 C2144 0.960 . S
H2130 C2144 0.960 . S
H2131 C2144 0.960 . S
C2132 H2124 0.929 . S
C2132 C2133 1.361 1_554 S
C2132 C2134 1.384 . S
C2133 C2132 1.361 1_556 S
C2133 C2139 1.378 1_556 S
C2134 H2125 0.930 . S
C2134 C2132 1.384 . S
C2134 C2135 1.372 . S
C2135 C2134 1.372 . S
C2135 C2136 1.400 . S
C2135 C2140 1.490 . S
C2136 H2126 0.930 . S
C2136 C2135 1.400 . S
C2136 C2139 1.386 . S
H2137 C2153 0.930 . S
H2138 C2154 0.931 . S
C2139 H2127 0.931 1_554 S
C2139 C2133 1.378 1_554 S
C2139 C2136 1.386 . S
C2140 C2135 1.490 . S
C2140 C2142 1.395 . S
C2140 C2143 1.403 . S
H2141 C2147 0.930 . S
C2142 H2128 0.930 . S
C2142 C2140 1.395 . S
C2142 C2145 1.403 . S
C2143 C2140 1.403 . S
C2143 C2144 1.524 . S
C2143 C2147 1.400 . S
C2144 H2129 0.960 . S
C2144 H2130 0.960 . S
C2144 H2131 0.960 . S
C2144 C2143 1.524 . S
C2145 C2142 1.403 . S
C2145 C2146 1.392 . S
C2145 C2149 1.495 . S
C2146 C2145 1.392 . S
C2146 C2147 1.385 . S
C2146 C2148 1.478 . S
C2147 H2141 0.930 . S
C2147 C2143 1.400 . S
C2147 C2146 1.385 . S
C2148 C2146 1.478 . S
C2148 C2150 1.381 . S
C2148 C2154 1.383 . S
C2149 C2145 1.495 . S
C2149 H2155 0.959 . S
C2149 H2156 0.961 . S
C2149 H2157 0.960 . S
C2150 C2148 1.381 . S
C2150 C2151 1.394 . S
C2150 H2158 0.930 . S
C2151 C2150 1.394 . S
C2151 C2152 1.383 . S
C2151 H2159 0.929 . S
C2152 C2151 1.383 . S
C2152 C2153 1.377 . S
C2153 H2137 0.930 . S
C2153 C2152 1.377 . S
C2153 C2154 1.379 . S
C2154 H2138 0.931 . S
C2154 C2148 1.383 . S
C2154 C2153 1.379 . S
H2155 C2149 0.959 . S
H2156 C2149 0.961 . S
H2157 C2149 0.960 . S
H2158 C2150 0.930 . S
H2159 C2151 0.929 . S
H2160 C2168 0.932 1_556 S
H2161 C2170 0.930 . S
H2162 C2172 0.930 . S
H2163 C2175 0.929 . S
H2164 C2178 0.930 . S
H2165 C2180 0.960 . S
H2166 C2180 0.960 . S
H2167 C2180 0.960 . S
C2168 H2160 0.932 1_554 S
C2168 C2169 1.377 1_554 S
C2168 C2170 1.381 . S
C2169 C2168 1.377 1_556 S
C2169 C2175 1.359 1_556 S
C2170 H2161 0.930 . S
C2170 C2168 1.381 . S
C2170 C2171 1.372 . S
C2171 C2170 1.372 . S
C2171 C2172 1.400 . S
C2171 C2176 1.490 . S
C2172 H2162 0.930 . S
C2172 C2171 1.400 . S
C2172 C2175 1.386 . S
H2173 C2189 0.930 . S
H2174 C2190 0.931 . S
C2175 H2163 0.929 . S
C2175 C2169 1.359 1_554 S
C2175 C2172 1.386 . S
C2176 C2171 1.490 . S
C2176 C2178 1.395 . S
C2176 C2179 1.403 . S
H2177 C2183 0.930 . S
C2178 H2164 0.930 . S
C2178 C2176 1.395 . S
C2178 C2181 1.403 . S
C2179 C2176 1.403 . S
C2179 C2180 1.524 . S
C2179 C2183 1.400 . S
C2180 H2165 0.960 . S
C2180 H2166 0.960 . S
C2180 H2167 0.960 . S
C2180 C2179 1.524 . S
C2181 C2178 1.403 . S
C2181 C2182 1.392 . S
C2181 C2185 1.495 . S
C2182 C2181 1.392 . S
C2182 C2183 1.385 . S
C2182 C2184 1.478 . S
C2183 H2177 0.930 . S
C2183 C2179 1.400 . S
C2183 C2182 1.385 . S
C2184 C2182 1.478 . S
C2184 C2186 1.381 . S
C2184 C2190 1.383 . S
C2185 C2181 1.495 . S
C2185 H2191 0.959 . S
C2185 H2192 0.961 . S
C2185 H2193 0.960 . S
C2186 C2184 1.381 . S
C2186 C2187 1.394 . S
C2186 H2194 0.930 . S
C2187 C2186 1.394 . S
C2187 C2188 1.383 . S
C2187 H2195 0.929 . S
C2188 C2187 1.383 . S
C2188 C2189 1.377 . S
C2189 H2173 0.930 . S
C2189 C2188 1.377 . S
C2189 C2190 1.379 . S
C2190 H2174 0.931 . S
C2190 C2184 1.383 . S
C2190 C2189 1.379 . S
H2191 C2185 0.959 . S
H2192 C2185 0.961 . S
H2193 C2185 0.960 . S
H2194 C2186 0.930 . S
H2195 C2187 0.929 . S
H2196 C2204 0.929 . S
H2197 C2206 0.930 . S
H2198 C2208 0.930 . S
H2199 C2211 0.929 . S
H2200 C2214 0.930 . S
H2201 C2216 0.960 . S
H2202 C2216 0.960 . S
H2203 C2216 0.960 . S
C2204 H2196 0.929 . S
C2204 C2205 1.370 1_554 S
C2204 C2206 1.384 . S
C2205 C2204 1.370 1_556 S
C2205 C2211 1.382 1_556 S
C2206 H2197 0.930 . S
C2206 C2204 1.384 . S
C2206 C2207 1.372 . S
C2207 C2206 1.372 . S
C2207 C2208 1.400 . S
C2207 C2212 1.490 . S
C2208 H2198 0.930 . S
C2208 C2207 1.400 . S
C2208 C2211 1.386 . S
H2209 C2225 0.930 . S
H2210 C2226 0.931 . S
C2211 H2199 0.929 . S
C2211 C2205 1.382 1_554 S
C2211 C2208 1.386 . S
C2212 C2207 1.490 . S
C2212 C2214 1.395 . S
C2212 C2215 1.403 . S
H2213 C2219 0.930 . S
C2214 H2200 0.930 . S
C2214 C2212 1.395 . S
C2214 C2217 1.403 . S
C2215 C2212 1.403 . S
C2215 C2216 1.524 . S
C2215 C2219 1.400 . S
C2216 H2201 0.960 . S
C2216 H2202 0.960 . S
C2216 H2203 0.960 . S
C2216 C2215 1.524 . S
C2217 C2214 1.403 . S
C2217 C2218 1.392 . S
C2217 C2221 1.495 . S
C2218 C2217 1.392 . S
C2218 C2219 1.385 . S
C2218 C2220 1.478 . S
C2219 H2213 0.930 . S
C2219 C2215 1.400 . S
C2219 C2218 1.385 . S
C2220 C2218 1.478 . S
C2220 C2222 1.381 . S
C2220 C2226 1.383 . S
C2221 C2217 1.495 . S
C2221 H2227 0.959 . S
C2221 H2228 0.961 . S
C2221 H2229 0.960 . S
C2222 C2220 1.381 . S
C2222 C2223 1.394 . S
C2222 H2230 0.930 . S
C2223 C2222 1.394 . S
C2223 C2224 1.383 . S
C2223 H2231 0.929 . S
C2224 C2223 1.383 . S
C2224 C2225 1.377 . S
C2225 H2209 0.930 . S
C2225 C2224 1.377 . S
C2225 C2226 1.379 . S
C2226 H2210 0.931 . S
C2226 C2220 1.383 . S
C2226 C2225 1.379 . S
H2227 C2221 0.959 . S
H2228 C2221 0.961 . S
H2229 C2221 0.960 . S
H2230 C2222 0.930 . S
H2231 C2223 0.929 . S
H2232 C2240 0.929 . S
H2233 C2242 0.930 . S
H2234 C2244 0.930 . S
H2235 C2247 0.929 . S
H2236 C2250 0.930 . S
H2237 C2252 0.960 . S
H2238 C2252 0.960 . S
H2239 C2252 0.960 . S
C2240 H2232 0.929 . S
C2240 C2241 1.356 1_556 S
C2240 C2242 1.384 . S
C2241 C2240 1.356 1_554 S
C2241 C2247 1.392 . S
C2242 H2233 0.930 . S
C2242 C2240 1.384 . S
C2242 C2243 1.372 . S
C2243 C2242 1.372 . S
C2243 C2244 1.400 . S
C2243 C2248 1.490 . S
C2244 H2234 0.930 . S
C2244 C2243 1.400 . S
C2244 C2247 1.386 1_556 S
H2245 C2261 0.930 . S
H2246 C2262 0.931 . S
C2247 H2235 0.929 . S
C2247 C2241 1.392 . S
C2247 C2244 1.386 1_554 S
C2248 C2243 1.490 . S
C2248 C2250 1.395 . S
C2248 C2251 1.403 . S
H2249 C2255 0.930 . S
C2250 H2236 0.930 . S
C2250 C2248 1.395 . S
C2250 C2253 1.403 . S
C2251 C2248 1.403 . S
C2251 C2252 1.524 . S
C2251 C2255 1.400 . S
C2252 H2237 0.960 . S
C2252 H2238 0.960 . S
C2252 H2239 0.960 . S
C2252 C2251 1.524 . S
C2253 C2250 1.403 . S
C2253 C2254 1.392 . S
C2253 C2257 1.495 . S
C2254 C2253 1.392 . S
C2254 C2255 1.385 . S
C2254 C2256 1.478 . S
C2255 H2249 0.930 . S
C2255 C2251 1.400 . S
C2255 C2254 1.385 . S
C2256 C2254 1.478 . S
C2256 C2258 1.381 . S
C2256 C2262 1.383 . S
C2257 C2253 1.495 . S
C2257 H2263 0.959 . S
C2257 H2264 0.961 . S
C2257 H2265 0.960 . S
C2258 C2256 1.381 . S
C2258 C2259 1.394 . S
C2258 H2266 0.930 . S
C2259 C2258 1.394 . S
C2259 C2260 1.383 . S
C2259 H2267 0.929 . S
C2260 C2259 1.383 . S
C2260 C2261 1.377 . S
C2261 H2245 0.930 . S
C2261 C2260 1.377 . S
C2261 C2262 1.379 . S
C2262 H2246 0.931 . S
C2262 C2256 1.383 . S
C2262 C2261 1.379 . S
H2263 C2257 0.959 . S
H2264 C2257 0.961 . S
H2265 C2257 0.960 . S
H2266 C2258 0.930 . S
H2267 C2259 0.929 . S
H2268 C2276 0.929 . S
H2269 C2278 0.930 . S
H2270 C2280 0.930 . S
H2271 C2283 0.929 . S
H2272 C2286 0.930 . S
H2273 C2288 0.960 . S
H2274 C2288 0.960 . S
H2275 C2288 0.960 . S
C2276 H2268 0.929 . S
C2276 C2277 1.377 . S
C2276 C2278 1.384 . S
C2277 C2276 1.377 . S
C2277 C2283 1.390 . S
C2278 H2269 0.930 . S
C2278 C2276 1.384 . S
C2278 C2279 1.372 . S
C2279 C2278 1.372 . S
C2279 C2280 1.400 . S
C2279 C2284 1.490 . S
C2280 H2270 0.930 . S
C2280 C2279 1.400 . S
C2280 C2283 1.386 . S
H2281 C2297 0.930 . S
H2282 C2298 0.931 . S
C2283 H2271 0.929 . S
C2283 C2277 1.390 . S
C2283 C2280 1.386 . S
C2284 C2279 1.490 . S
C2284 C2286 1.395 . S
C2284 C2287 1.403 . S
H2285 C2291 0.930 . S
C2286 H2272 0.930 . S
C2286 C2284 1.395 . S
C2286 C2289 1.403 . S
C2287 C2284 1.403 . S
C2287 C2288 1.524 . S
C2287 C2291 1.400 . S
C2288 H2273 0.960 . S
C2288 H2274 0.960 . S
C2288 H2275 0.960 . S
C2288 C2287 1.524 . S
C2289 C2286 1.403 . S
C2289 C2290 1.392 . S
C2289 C2293 1.495 . S
C2290 C2289 1.392 . S
C2290 C2291 1.385 . S
C2290 C2292 1.478 . S
C2291 H2285 0.930 . S
C2291 C2287 1.400 . S
C2291 C2290 1.385 . S
C2292 C2290 1.478 . S
C2292 C2294 1.381 . S
C2292 C2298 1.383 . S
C2293 C2289 1.495 . S
C2293 H2299 0.959 . S
C2293 H2300 0.961 . S
C2293 H2301 0.960 . S
C2294 C2292 1.381 . S
C2294 C2295 1.394 . S
C2294 H2302 0.930 . S
C2295 C2294 1.394 . S
C2295 C2296 1.386 . S
C2295 H2303 0.929 1_556 S
C2296 C2295 1.386 . S
C2296 C2297 1.382 . S
C2297 H2281 0.930 . S
C2297 C2296 1.382 . S
C2297 C2298 1.379 . S
C2298 H2282 0.931 . S
C2298 C2292 1.383 . S
C2298 C2297 1.379 . S
H2299 C2293 0.959 . S
H2300 C2293 0.961 . S
H2301 C2293 0.960 . S
H2302 C2294 0.930 . S
H2303 C2295 0.929 1_554 S
H2304 C2312 0.929 . S
H2305 C2314 0.930 . S
H2306 C2316 0.930 . S
H2307 C2319 0.929 . S
H2308 C2322 0.930 . S
H2309 C2324 0.960 . S
H2310 C2324 0.960 . S
H2311 C2324 0.960 . S
C2312 H2304 0.929 . S
C2312 C2313 1.380 . S
C2312 C2314 1.384 1_554 S
C2313 C2312 1.380 . S
C2313 C2319 1.364 1_554 S
C2314 H2305 0.930 . S
C2314 C2312 1.384 1_556 S
C2314 C2315 1.372 . S
C2315 C2314 1.372 . S
C2315 C2316 1.400 . S
C2315 C2320 1.490 . S
C2316 H2306 0.930 . S
C2316 C2315 1.400 . S
C2316 C2319 1.386 . S
H2317 C2333 0.930 . S
H2318 C2334 0.931 . S
C2319 H2307 0.929 . S
C2319 C2313 1.364 1_556 S
C2319 C2316 1.386 . S
C2320 C2315 1.490 . S
C2320 C2322 1.395 . S
C2320 C2323 1.403 . S
H2321 C2327 0.930 . S
C2322 H2308 0.930 . S
C2322 C2320 1.395 . S
C2322 C2325 1.403 . S
C2323 C2320 1.403 . S
C2323 C2324 1.524 . S
C2323 C2327 1.400 . S
C2324 H2309 0.960 . S
C2324 H2310 0.960 . S
C2324 H2311 0.960 . S
C2324 C2323 1.524 . S
C2325 C2322 1.403 . S
C2325 C2326 1.392 . S
C2325 C2329 1.495 . S
C2326 C2325 1.392 . S
C2326 C2327 1.385 . S
C2326 C2328 1.478 . S
C2327 H2321 0.930 . S
C2327 C2323 1.400 . S
C2327 C2326 1.385 . S
C2328 C2326 1.478 . S
C2328 C2330 1.381 . S
C2328 C2334 1.383 . S
C2329 C2325 1.495 . S
C2329 H2335 0.959 . S
C2329 H2336 0.961 . S
C2329 H2337 0.960 . S
C2330 C2328 1.381 . S
C2330 C2331 1.394 . S
C2330 H2338 0.930 . S
C2331 C2330 1.394 . S
C2331 C2332 1.383 . S
C2331 H2339 0.929 . S
C2332 C2331 1.383 . S
C2332 C2333 1.377 . S
C2333 H2317 0.930 . S
C2333 C2332 1.377 . S
C2333 C2334 1.379 . S
C2334 H2318 0.931 . S
C2334 C2328 1.383 . S
C2334 C2333 1.379 . S
H2335 C2329 0.959 . S
H2336 C2329 0.961 . S
H2337 C2329 0.960 . S
H2338 C2330 0.930 . S
H2339 C2331 0.929 . S
H2340 C2348 0.929 . S
H2341 C2350 0.930 . S
H2342 C2352 0.930 . S
H2343 C2355 0.929 . S
H2344 C2358 0.930 . S
H2345 C2360 0.960 . S
H2346 C2360 0.960 . S
H2347 C2360 0.960 . S
C2348 H2340 0.929 . S
C2348 C2349 1.377 . S
C2348 C2350 1.384 . S
C2349 C2348 1.377 . S
C2349 C2355 1.390 . S
C2350 H2341 0.930 . S
C2350 C2348 1.384 . S
C2350 C2351 1.372 . S
C2351 C2350 1.372 . S
C2351 C2352 1.400 . S
C2351 C2356 1.490 . S
C2352 H2342 0.930 . S
C2352 C2351 1.400 . S
C2352 C2355 1.386 . S
H2353 C2369 0.930 . S
H2354 C2370 0.931 . S
C2355 H2343 0.929 . S
C2355 C2349 1.390 . S
C2355 C2352 1.386 . S
C2356 C2351 1.490 . S
C2356 C2358 1.395 . S
C2356 C2359 1.403 . S
H2357 C2363 0.930 . S
C2358 H2344 0.930 . S
C2358 C2356 1.395 . S
C2358 C2361 1.403 . S
C2359 C2356 1.403 . S
C2359 C2360 1.524 . S
C2359 C2363 1.400 . S
C2360 H2345 0.960 . S
C2360 H2346 0.960 . S
C2360 H2347 0.960 . S
C2360 C2359 1.524 . S
C2361 C2358 1.403 . S
C2361 C2362 1.392 . S
C2361 C2365 1.495 . S
C2362 C2361 1.392 . S
C2362 C2363 1.385 . S
C2362 C2364 1.478 . S
C2363 H2357 0.930 . S
C2363 C2359 1.400 . S
C2363 C2362 1.385 . S
C2364 C2362 1.478 . S
C2364 C2366 1.381 . S
C2364 C2370 1.383 . S
C2365 C2361 1.495 . S
C2365 H2371 0.959 . S
C2365 H2372 0.961 . S
C2365 H2373 0.960 . S
C2366 C2364 1.381 . S
C2366 C2367 1.394 . S
C2366 H2374 0.930 . S
C2367 C2366 1.394 . S
C2367 C2368 1.383 . S
C2367 H2375 0.929 . S
C2368 C2367 1.383 . S
C2368 C2369 1.377 . S
C2369 H2353 0.930 . S
C2369 C2368 1.377 . S
C2369 C2370 1.379 . S
C2370 H2354 0.931 . S
C2370 C2364 1.383 . S
C2370 C2369 1.379 . S
H2371 C2365 0.959 . S
H2372 C2365 0.961 . S
H2373 C2365 0.960 . S
H2374 C2366 0.930 . S
H2375 C2367 0.929 . S
H2376 C2384 0.929 . S
H2377 C2386 0.930 . S
H2378 C2388 0.930 . S
H2379 C2391 0.929 . S
H2380 C2394 0.930 . S
H2381 C2396 0.960 . S
H2382 C2396 0.960 . S
H2383 C2396 0.960 . S
C2384 H2376 0.929 . S
C2384 C2385 1.377 . S
C2384 C2386 1.384 . S
C2385 C2384 1.377 . S
C2385 C2391 1.390 . S
C2386 H2377 0.930 . S
C2386 C2384 1.384 . S
C2386 C2387 1.372 . S
C2387 C2386 1.372 . S
C2387 C2388 1.400 . S
C2387 C2392 1.490 . S
C2388 H2378 0.930 . S
C2388 C2387 1.400 . S
C2388 C2391 1.386 . S
H2389 C2405 0.930 . S
H2390 C2406 0.931 . S
C2391 H2379 0.929 . S
C2391 C2385 1.390 . S
C2391 C2388 1.386 . S
C2392 C2387 1.490 . S
C2392 C2394 1.395 . S
C2392 C2395 1.403 . S
H2393 C2399 0.930 . S
C2394 H2380 0.930 . S
C2394 C2392 1.395 . S
C2394 C2397 1.403 . S
C2395 C2392 1.403 . S
C2395 C2396 1.524 . S
C2395 C2399 1.400 . S
C2396 H2381 0.960 . S
C2396 H2382 0.960 . S
C2396 H2383 0.960 . S
C2396 C2395 1.524 . S
C2397 C2394 1.403 . S
C2397 C2398 1.392 . S
C2397 C2401 1.495 . S
C2398 C2397 1.392 . S
C2398 C2399 1.385 . S
C2398 C2400 1.478 . S
C2399 H2393 0.930 . S
C2399 C2395 1.400 . S
C2399 C2398 1.385 . S
C2400 C2398 1.478 . S
C2400 C2402 1.381 . S
C2400 C2406 1.383 . S
C2401 C2397 1.495 . S
C2401 H2407 0.959 . S
C2401 H2408 0.961 . S
C2401 H2409 0.960 . S
C2402 C2400 1.381 . S
C2402 C2403 1.394 . S
C2402 H2410 0.930 . S
C2403 C2402 1.394 . S
C2403 C2404 1.383 . S
C2403 H2411 0.929 . S
C2404 C2403 1.383 . S
C2404 C2405 1.377 . S
C2405 H2389 0.930 . S
C2405 C2404 1.377 . S
C2405 C2406 1.379 . S
C2406 H2390 0.931 . S
C2406 C2400 1.383 . S
C2406 C2405 1.379 . S
H2407 C2401 0.959 . S
H2408 C2401 0.961 . S
H2409 C2401 0.960 . S
H2410 C2402 0.930 . S
H2411 C2403 0.929 . S
H2412 C2420 0.929 . S
H2413 C2422 0.930 . S
H2414 C2424 0.930 . S
H2415 C2427 0.929 . S
H2416 C2430 0.930 . S
H2417 C2432 0.960 . S
H2418 C2432 0.960 . S
H2419 C2432 0.960 . S
C2420 H2412 0.929 . S
C2420 C2421 1.377 . S
C2420 C2422 1.384 . S
C2421 C2420 1.377 . S
C2421 C2427 1.390 . S
C2422 H2413 0.930 . S
C2422 C2420 1.384 . S
C2422 C2423 1.372 . S
C2423 C2422 1.372 . S
C2423 C2424 1.400 . S
C2423 C2428 1.490 . S
C2424 H2414 0.930 . S
C2424 C2423 1.400 . S
C2424 C2427 1.386 . S
H2425 C2441 0.930 . S
H2426 C2442 0.931 . S
C2427 H2415 0.929 . S
C2427 C2421 1.390 . S
C2427 C2424 1.386 . S
C2428 C2423 1.490 . S
C2428 C2430 1.395 . S
C2428 C2431 1.403 . S
H2429 C2435 0.930 . S
C2430 H2416 0.930 . S
C2430 C2428 1.395 . S
C2430 C2433 1.403 . S
C2431 C2428 1.403 . S
C2431 C2432 1.524 . S
C2431 C2435 1.400 . S
C2432 H2417 0.960 . S
C2432 H2418 0.960 . S
C2432 H2419 0.960 . S
C2432 C2431 1.524 . S
C2433 C2430 1.403 . S
C2433 C2434 1.392 . S
C2433 C2437 1.495 . S
C2434 C2433 1.392 . S
C2434 C2435 1.385 . S
C2434 C2436 1.478 . S
C2435 H2429 0.930 . S
C2435 C2431 1.400 . S
C2435 C2434 1.385 . S
C2436 C2434 1.478 . S
C2436 C2438 1.381 . S
C2436 C2442 1.383 . S
C2437 C2433 1.495 . S
C2437 H2443 0.959 . S
C2437 H2444 0.961 . S
C2437 H2445 0.960 . S
C2438 C2436 1.381 . S
C2438 C2439 1.394 . S
C2438 H2446 0.930 . S
C2439 C2438 1.394 . S
C2439 C2440 1.383 . S
C2439 H2447 0.929 . S
C2440 C2439 1.383 . S
C2440 C2441 1.377 . S
C2441 H2425 0.930 . S
C2441 C2440 1.377 . S
C2441 C2442 1.379 . S
C2442 H2426 0.931 . S
C2442 C2436 1.383 . S
C2442 C2441 1.379 . S
H2443 C2437 0.959 . S
H2444 C2437 0.961 . S
H2445 C2437 0.960 . S
H2446 C2438 0.930 . S
H2447 C2439 0.929 . S
H2448 C2456 0.929 . S
H2449 C2458 0.930 . S
H2450 C2460 0.930 . S
H2451 C2463 0.929 . S
H2452 C2466 0.930 . S
H2453 C2468 0.960 . S
H2454 C2468 0.960 . S
H2455 C2468 0.960 . S
C2456 H2448 0.929 . S
C2456 C2457 1.377 . S
C2456 C2458 1.384 . S
C2457 C2456 1.377 . S
C2457 C2463 1.390 . S
C2458 H2449 0.930 . S
C2458 C2456 1.384 . S
C2458 C2459 1.372 . S
C2459 C2458 1.372 . S
C2459 C2460 1.400 . S
C2459 C2464 1.490 . S
C2460 H2450 0.930 . S
C2460 C2459 1.400 . S
C2460 C2463 1.386 . S
H2461 C2477 0.930 . S
H2462 C2478 0.931 . S
C2463 H2451 0.929 . S
C2463 C2457 1.390 . S
C2463 C2460 1.386 . S
C2464 C2459 1.490 . S
C2464 C2466 1.395 . S
C2464 C2467 1.403 . S
H2465 C2471 0.930 . S
C2466 H2452 0.930 . S
C2466 C2464 1.395 . S
C2466 C2469 1.403 . S
C2467 C2464 1.403 . S
C2467 C2468 1.524 . S
C2467 C2471 1.400 . S
C2468 H2453 0.960 . S
C2468 H2454 0.960 . S
C2468 H2455 0.960 . S
C2468 C2467 1.524 . S
C2469 C2466 1.403 . S
C2469 C2470 1.392 . S
C2469 C2473 1.495 . S
C2470 C2469 1.392 . S
C2470 C2471 1.385 . S
C2470 C2472 1.478 . S
C2471 H2465 0.930 . S
C2471 C2467 1.400 . S
C2471 C2470 1.385 . S
C2472 C2470 1.478 . S
C2472 C2474 1.381 . S
C2472 C2478 1.383 . S
C2473 C2469 1.495 . S
C2473 H2479 0.959 . S
C2473 H2480 0.961 . S
C2473 H2481 0.960 . S
C2474 C2472 1.381 . S
C2474 C2475 1.394 . S
C2474 H2482 0.930 . S
C2475 C2474 1.394 . S
C2475 C2476 1.383 . S
C2475 H2483 0.929 . S
C2476 C2475 1.383 . S
C2476 C2477 1.377 . S
C2477 H2461 0.930 . S
C2477 C2476 1.377 . S
C2477 C2478 1.379 . S
C2478 H2462 0.931 . S
C2478 C2472 1.383 . S
C2478 C2477 1.379 . S
H2479 C2473 0.959 . S
H2480 C2473 0.961 . S
H2481 C2473 0.960 . S
H2482 C2474 0.930 . S
H2483 C2475 0.929 . S
H2484 C2492 0.929 . S
H2485 C2494 0.930 . S
H2486 C2496 0.930 . S
H2487 C2499 0.929 . S
H2488 C2502 0.930 . S
H2489 C2504 0.960 . S
H2490 C2504 0.960 . S
H2491 C2504 0.960 . S
C2492 H2484 0.929 . S
C2492 C2493 1.377 . S
C2492 C2494 1.384 . S
C2493 C2492 1.377 . S
C2493 C2499 1.390 . S
C2494 H2485 0.930 . S
C2494 C2492 1.384 . S
C2494 C2495 1.372 . S
C2495 C2494 1.372 . S
C2495 C2496 1.400 . S
C2495 C2500 1.490 . S
C2496 H2486 0.930 . S
C2496 C2495 1.400 . S
C2496 C2499 1.386 . S
H2497 C2513 0.930 . S
H2498 C2514 0.931 . S
C2499 H2487 0.929 . S
C2499 C2493 1.390 . S
C2499 C2496 1.386 . S
C2500 C2495 1.490 . S
C2500 C2502 1.395 . S
C2500 C2503 1.403 . S
H2501 C2507 0.930 . S
C2502 H2488 0.930 . S
C2502 C2500 1.395 . S
C2502 C2505 1.403 . S
C2503 C2500 1.403 . S
C2503 C2504 1.524 . S
C2503 C2507 1.400 . S
C2504 H2489 0.960 . S
C2504 H2490 0.960 . S
C2504 H2491 0.960 . S
C2504 C2503 1.524 . S
C2505 C2502 1.403 . S
C2505 C2506 1.392 . S
C2505 C2509 1.495 . S
C2506 C2505 1.392 . S
C2506 C2507 1.385 . S
C2506 C2508 1.478 . S
C2507 H2501 0.930 . S
C2507 C2503 1.400 . S
C2507 C2506 1.385 . S
C2508 C2506 1.478 . S
C2508 C2510 1.381 . S
C2508 C2514 1.383 . S
C2509 C2505 1.495 . S
C2509 H2515 0.959 . S
C2509 H2516 0.961 . S
C2509 H2517 0.960 . S
C2510 C2508 1.381 . S
C2510 C2511 1.394 . S
C2510 H2518 0.930 . S
C2511 C2510 1.394 . S
C2511 C2512 1.383 . S
C2511 H2519 0.929 . S
C2512 C2511 1.383 . S
C2512 C2513 1.377 . S
C2513 H2497 0.930 . S
C2513 C2512 1.377 . S
C2513 C2514 1.379 . S
C2514 H2498 0.931 . S
C2514 C2508 1.383 . S
C2514 C2513 1.379 . S
H2515 C2509 0.959 . S
H2516 C2509 0.961 . S
H2517 C2509 0.960 . S
H2518 C2510 0.930 . S
H2519 C2511 0.929 . S
H2520 C2528 0.929 . S
H2521 C2530 0.930 . S
H2522 C2532 0.930 . S
H2523 C2535 0.929 . S
H2524 C2538 0.930 . S
H2525 C2540 0.960 . S
H2526 C2540 0.960 . S
H2527 C2540 0.960 . S
C2528 H2520 0.929 . S
C2528 C2529 1.377 . S
C2528 C2530 1.384 . S
C2529 C2528 1.377 . S
C2529 C2535 1.390 . S
C2530 H2521 0.930 . S
C2530 C2528 1.384 . S
C2530 C2531 1.372 . S
C2531 C2530 1.372 . S
C2531 C2532 1.400 . S
C2531 C2536 1.490 . S
C2532 H2522 0.930 . S
C2532 C2531 1.400 . S
C2532 C2535 1.386 . S
H2533 C2549 0.930 . S
H2534 C2550 0.931 . S
C2535 H2523 0.929 . S
C2535 C2529 1.390 . S
C2535 C2532 1.386 . S
C2536 C2531 1.490 . S
C2536 C2538 1.395 . S
C2536 C2539 1.403 . S
H2537 C2543 0.930 . S
C2538 H2524 0.930 . S
C2538 C2536 1.395 . S
C2538 C2541 1.403 . S
C2539 C2536 1.403 . S
C2539 C2540 1.524 . S
C2539 C2543 1.400 . S
C2540 H2525 0.960 . S
C2540 H2526 0.960 . S
C2540 H2527 0.960 . S
C2540 C2539 1.524 . S
C2541 C2538 1.403 . S
C2541 C2542 1.392 . S
C2541 C2545 1.495 . S
C2542 C2541 1.392 . S
C2542 C2543 1.385 . S
C2542 C2544 1.478 . S
C2543 H2537 0.930 . S
C2543 C2539 1.400 . S
C2543 C2542 1.385 . S
C2544 C2542 1.478 . S
C2544 C2546 1.381 . S
C2544 C2550 1.383 . S
C2545 C2541 1.495 . S
C2545 H2551 0.959 . S
C2545 H2552 0.961 . S
C2545 H2553 0.960 . S
C2546 C2544 1.381 . S
C2546 C2547 1.394 . S
C2546 H2554 0.930 . S
C2547 C2546 1.394 . S
C2547 C2548 1.383 . S
C2547 H2555 0.929 . S
C2548 C2547 1.383 . S
C2548 C2549 1.377 . S
C2549 H2533 0.930 . S
C2549 C2548 1.377 . S
C2549 C2550 1.379 . S
C2550 H2534 0.931 . S
C2550 C2544 1.383 . S
C2550 C2549 1.379 . S
H2551 C2545 0.959 . S
H2552 C2545 0.961 . S
H2553 C2545 0.960 . S
H2554 C2546 0.930 . S
H2555 C2547 0.929 . S
H2556 C2564 0.929 . S
H2557 C2566 0.930 . S
H2558 C2568 0.930 . S
H2559 C2571 0.929 . S
H2560 C2574 0.930 . S
H2561 C2576 0.960 . S
H2562 C2576 0.960 . S
H2563 C2576 0.960 . S
C2564 H2556 0.929 . S
C2564 C2565 1.377 . S
C2564 C2566 1.384 . S
C2565 C2564 1.377 . S
C2565 C2571 1.390 . S
C2566 H2557 0.930 . S
C2566 C2564 1.384 . S
C2566 C2567 1.372 . S
C2567 C2566 1.372 . S
C2567 C2568 1.400 . S
C2567 C2572 1.490 . S
C2568 H2558 0.930 . S
C2568 C2567 1.400 . S
C2568 C2571 1.386 . S
H2569 C2585 0.930 . S
H2570 C2586 0.931 . S
C2571 H2559 0.929 . S
C2571 C2565 1.390 . S
C2571 C2568 1.386 . S
C2572 C2567 1.490 . S
C2572 C2574 1.395 . S
C2572 C2575 1.403 . S
H2573 C2579 0.930 . S
C2574 H2560 0.930 . S
C2574 C2572 1.395 . S
C2574 C2577 1.403 . S
C2575 C2572 1.403 . S
C2575 C2576 1.524 . S
C2575 C2579 1.400 . S
C2576 H2561 0.960 . S
C2576 H2562 0.960 . S
C2576 H2563 0.960 . S
C2576 C2575 1.524 . S
C2577 C2574 1.403 . S
C2577 C2578 1.392 . S
C2577 C2581 1.495 . S
C2578 C2577 1.392 . S
C2578 C2579 1.385 . S
C2578 C2580 1.478 . S
C2579 H2573 0.930 . S
C2579 C2575 1.400 . S
C2579 C2578 1.385 . S
C2580 C2578 1.478 . S
C2580 C2582 1.381 . S
C2580 C2586 1.383 . S
C2581 C2577 1.495 . S
C2581 H2587 0.959 . S
C2581 H2588 0.961 . S
C2581 H2589 0.960 . S
C2582 C2580 1.381 . S
C2582 C2583 1.394 . S
C2582 H2590 0.930 . S
C2583 C2582 1.394 . S
C2583 C2584 1.383 . S
C2583 H2591 0.929 . S
C2584 C2583 1.383 . S
C2584 C2585 1.377 . S
C2585 H2569 0.930 . S
C2585 C2584 1.377 . S
C2585 C2586 1.379 . S
C2586 H2570 0.931 . S
C2586 C2580 1.383 . S
C2586 C2585 1.379 . S
H2587 C2581 0.959 . S
H2588 C2581 0.961 . S
H2589 C2581 0.960 . S
H2590 C2582 0.930 . S
H2591 C2583 0.929 . S
H2592 C2600 0.929 . S
H2593 C2602 0.930 . S
H2594 C2604 0.930 . S
H2595 C2607 0.929 . S
H2596 C2610 0.930 . S
H2597 C2612 0.960 . S
H2598 C2612 0.960 . S
H2599 C2612 0.960 . S
C2600 H2592 0.929 . S
C2600 C2601 1.377 . S
C2600 C2602 1.384 . S
C2601 C2600 1.377 . S
C2601 C2607 1.390 . S
C2602 H2593 0.930 . S
C2602 C2600 1.384 . S
C2602 C2603 1.372 . S
C2603 C2602 1.372 . S
C2603 C2604 1.400 . S
C2603 C2608 1.490 . S
C2604 H2594 0.930 . S
C2604 C2603 1.400 . S
C2604 C2607 1.386 . S
H2605 C2621 0.930 . S
H2606 C2622 0.931 . S
C2607 H2595 0.929 . S
C2607 C2601 1.390 . S
C2607 C2604 1.386 . S
C2608 C2603 1.490 . S
C2608 C2610 1.395 . S
C2608 C2611 1.403 . S
H2609 C2615 0.930 . S
C2610 H2596 0.930 . S
C2610 C2608 1.395 . S
C2610 C2613 1.403 . S
C2611 C2608 1.403 . S
C2611 C2612 1.524 . S
C2611 C2615 1.400 . S
C2612 H2597 0.960 . S
C2612 H2598 0.960 . S
C2612 H2599 0.960 . S
C2612 C2611 1.524 . S
C2613 C2610 1.403 . S
C2613 C2614 1.392 . S
C2613 C2617 1.495 . S
C2614 C2613 1.392 . S
C2614 C2615 1.385 . S
C2614 C2616 1.478 . S
C2615 H2609 0.930 . S
C2615 C2611 1.400 . S
C2615 C2614 1.385 . S
C2616 C2614 1.478 . S
C2616 C2618 1.381 . S
C2616 C2622 1.383 . S
C2617 C2613 1.495 . S
C2617 H2623 0.959 . S
C2617 H2624 0.961 . S
C2617 H2625 0.960 . S
C2618 C2616 1.381 . S
C2618 C2619 1.394 . S
C2618 H2626 0.930 . S
C2619 C2618 1.394 . S
C2619 C2620 1.383 . S
C2619 H2627 0.929 . S
C2620 C2619 1.383 . S
C2620 C2621 1.377 . S
C2621 H2605 0.930 . S
C2621 C2620 1.377 . S
C2621 C2622 1.379 . S
C2622 H2606 0.931 . S
C2622 C2616 1.383 . S
C2622 C2621 1.379 . S
H2623 C2617 0.959 . S
H2624 C2617 0.961 . S
H2625 C2617 0.960 . S
H2626 C2618 0.930 . S
H2627 C2619 0.929 . S
H2628 C2636 0.929 . S
H2629 C2638 0.930 . S
H2630 C2640 0.930 . S
H2631 C2643 0.929 . S
H2632 C2646 0.930 . S
H2633 C2648 0.960 . S
H2634 C2648 0.960 . S
H2635 C2648 0.960 . S
C2636 H2628 0.929 . S
C2636 C2637 1.377 . S
C2636 C2638 1.384 . S
C2637 C2636 1.377 . S
C2637 C2643 1.390 . S
C2638 H2629 0.930 . S
C2638 C2636 1.384 . S
C2638 C2639 1.372 . S
C2639 C2638 1.372 . S
C2639 C2640 1.400 . S
C2639 C2644 1.490 . S
C2640 H2630 0.930 . S
C2640 C2639 1.400 . S
C2640 C2643 1.386 . S
H2641 C2657 0.930 . S
H2642 C2658 0.931 . S
C2643 H2631 0.929 . S
C2643 C2637 1.390 . S
C2643 C2640 1.386 . S
C2644 C2639 1.490 . S
C2644 C2646 1.395 . S
C2644 C2647 1.403 . S
H2645 C2651 0.930 . S
C2646 H2632 0.930 . S
C2646 C2644 1.395 . S
C2646 C2649 1.403 . S
C2647 C2644 1.403 . S
C2647 C2648 1.524 . S
C2647 C2651 1.400 . S
C2648 H2633 0.960 . S
C2648 H2634 0.960 . S
C2648 H2635 0.960 . S
C2648 C2647 1.524 . S
C2649 C2646 1.403 . S
C2649 C2650 1.392 . S
C2649 C2653 1.495 . S
C2650 C2649 1.392 . S
C2650 C2651 1.385 . S
C2650 C2652 1.478 . S
C2651 H2645 0.930 . S
C2651 C2647 1.400 . S
C2651 C2650 1.385 . S
C2652 C2650 1.478 . S
C2652 C2654 1.381 . S
C2652 C2658 1.383 . S
C2653 C2649 1.495 . S
C2653 H2659 0.959 . S
C2653 H2660 0.961 . S
C2653 H2661 0.960 . S
C2654 C2652 1.381 . S
C2654 C2655 1.394 . S
C2654 H2662 0.930 . S
C2655 C2654 1.394 . S
C2655 C2656 1.383 . S
C2655 H2663 0.929 . S
C2656 C2655 1.383 . S
C2656 C2657 1.377 . S
C2657 H2641 0.930 . S
C2657 C2656 1.377 . S
C2657 C2658 1.379 . S
C2658 H2642 0.931 . S
C2658 C2652 1.383 . S
C2658 C2657 1.379 . S
H2659 C2653 0.959 . S
H2660 C2653 0.961 . S
H2661 C2653 0.960 . S
H2662 C2654 0.930 . S
H2663 C2655 0.929 . S
H2664 C2672 0.929 . S
H2665 C2674 0.930 . S
H2666 C2676 0.930 . S
H2667 C2679 0.929 . S
H2668 C2682 0.930 . S
H2669 C2684 0.960 . S
H2670 C2684 0.960 . S
H2671 C2684 0.960 . S
C2672 H2664 0.929 . S
C2672 C2673 1.377 . S
C2672 C2674 1.384 . S
C2673 C2672 1.377 . S
C2673 C2679 1.390 . S
C2674 H2665 0.930 . S
C2674 C2672 1.384 . S
C2674 C2675 1.372 . S
C2675 C2674 1.372 . S
C2675 C2676 1.400 . S
C2675 C2680 1.490 . S
C2676 H2666 0.930 . S
C2676 C2675 1.400 . S
C2676 C2679 1.386 . S
H2677 C2693 0.930 . S
H2678 C2694 0.931 . S
C2679 H2667 0.929 . S
C2679 C2673 1.390 . S
C2679 C2676 1.386 . S
C2680 C2675 1.490 . S
C2680 C2682 1.395 . S
C2680 C2683 1.403 . S
H2681 C2687 0.930 . S
C2682 H2668 0.930 . S
C2682 C2680 1.395 . S
C2682 C2685 1.403 . S
C2683 C2680 1.403 . S
C2683 C2684 1.524 . S
C2683 C2687 1.400 . S
C2684 H2669 0.960 . S
C2684 H2670 0.960 . S
C2684 H2671 0.960 . S
C2684 C2683 1.524 . S
C2685 C2682 1.403 . S
C2685 C2686 1.392 . S
C2685 C2689 1.495 . S
C2686 C2685 1.392 . S
C2686 C2687 1.385 . S
C2686 C2688 1.478 . S
C2687 H2681 0.930 . S
C2687 C2683 1.400 . S
C2687 C2686 1.385 . S
C2688 C2686 1.478 . S
C2688 C2690 1.381 . S
C2688 C2694 1.383 . S
C2689 C2685 1.495 . S
C2689 H2695 0.959 . S
C2689 H2696 0.961 . S
C2689 H2697 0.960 . S
C2690 C2688 1.381 . S
C2690 C2691 1.394 . S
C2690 H2698 0.930 . S
C2691 C2690 1.394 . S
C2691 C2692 1.383 . S
C2691 H2699 0.929 . S
C2692 C2691 1.383 . S
C2692 C2693 1.377 . S
C2693 H2677 0.930 . S
C2693 C2692 1.377 . S
C2693 C2694 1.379 . S
C2694 H2678 0.931 . S
C2694 C2688 1.383 . S
C2694 C2693 1.379 . S
H2695 C2689 0.959 . S
H2696 C2689 0.961 . S
H2697 C2689 0.960 . S
H2698 C2690 0.930 . S
H2699 C2691 0.929 . S
H2700 C2708 0.929 . S
H2701 C2710 0.930 . S
H2702 C2712 0.930 . S
H2703 C2715 0.929 . S
H2704 C2718 0.930 . S
H2705 C2720 0.960 . S
H2706 C2720 0.960 . S
H2707 C2720 0.960 . S
C2708 H2700 0.929 . S
C2708 C2709 1.377 . S
C2708 C2710 1.384 . S
C2709 C2708 1.377 . S
C2709 C2715 1.390 . S
C2710 H2701 0.930 . S
C2710 C2708 1.384 . S
C2710 C2711 1.372 . S
C2711 C2710 1.372 . S
C2711 C2712 1.400 . S
C2711 C2716 1.490 . S
C2712 H2702 0.930 . S
C2712 C2711 1.400 . S
C2712 C2715 1.386 . S
H2713 C2729 0.930 . S
H2714 C2730 0.931 . S
C2715 H2703 0.929 . S
C2715 C2709 1.390 . S
C2715 C2712 1.386 . S
C2716 C2711 1.490 . S
C2716 C2718 1.395 . S
C2716 C2719 1.403 . S
H2717 C2723 0.930 . S
C2718 H2704 0.930 . S
C2718 C2716 1.395 . S
C2718 C2721 1.403 . S
C2719 C2716 1.403 . S
C2719 C2720 1.524 . S
C2719 C2723 1.400 . S
C2720 H2705 0.960 . S
C2720 H2706 0.960 . S
C2720 H2707 0.960 . S
C2720 C2719 1.524 . S
C2721 C2718 1.403 . S
C2721 C2722 1.392 . S
C2721 C2725 1.495 . S
C2722 C2721 1.392 . S
C2722 C2723 1.385 . S
C2722 C2724 1.478 . S
C2723 H2717 0.930 . S
C2723 C2719 1.400 . S
C2723 C2722 1.385 . S
C2724 C2722 1.478 . S
C2724 C2726 1.381 . S
C2724 C2730 1.383 . S
C2725 C2721 1.495 . S
C2725 H2731 0.959 . S
C2725 H2732 0.961 . S
C2725 H2733 0.960 . S
C2726 C2724 1.381 . S
C2726 C2727 1.394 . S
C2726 H2734 0.930 . S
C2727 C2726 1.394 . S
C2727 C2728 1.383 . S
C2727 H2735 0.929 . S
C2728 C2727 1.383 . S
C2728 C2729 1.377 . S
C2729 H2713 0.930 . S
C2729 C2728 1.377 . S
C2729 C2730 1.379 . S
C2730 H2714 0.931 . S
C2730 C2724 1.383 . S
C2730 C2729 1.379 . S
H2731 C2725 0.959 . S
H2732 C2725 0.961 . S
H2733 C2725 0.960 . S
H2734 C2726 0.930 . S
H2735 C2727 0.929 . S
H2736 C2744 0.929 . S
H2737 C2746 0.930 . S
H2738 C2748 0.930 . S
H2739 C2751 0.929 . S
H2740 C2754 0.930 . S
H2741 C2756 0.960 . S
H2742 C2756 0.960 . S
H2743 C2756 0.960 . S
C2744 H2736 0.929 . S
C2744 C2745 1.377 . S
C2744 C2746 1.384 . S
C2745 C2744 1.377 . S
C2745 C2751 1.390 . S
C2746 H2737 0.930 . S
C2746 C2744 1.384 . S
C2746 C2747 1.372 . S
C2747 C2746 1.372 . S
C2747 C2748 1.400 . S
C2747 C2752 1.490 . S
C2748 H2738 0.930 . S
C2748 C2747 1.400 . S
C2748 C2751 1.386 . S
H2749 C2765 0.930 . S
H2750 C2766 0.931 . S
C2751 H2739 0.929 . S
C2751 C2745 1.390 . S
C2751 C2748 1.386 . S
C2752 C2747 1.490 . S
C2752 C2754 1.395 . S
C2752 C2755 1.403 . S
H2753 C2759 0.930 . S
C2754 H2740 0.930 . S
C2754 C2752 1.395 . S
C2754 C2757 1.403 . S
C2755 C2752 1.403 . S
C2755 C2756 1.524 . S
C2755 C2759 1.400 . S
C2756 H2741 0.960 . S
C2756 H2742 0.960 . S
C2756 H2743 0.960 . S
C2756 C2755 1.524 . S
C2757 C2754 1.403 . S
C2757 C2758 1.392 . S
C2757 C2761 1.495 . S
C2758 C2757 1.392 . S
C2758 C2759 1.385 . S
C2758 C2760 1.478 . S
C2759 H2753 0.930 . S
C2759 C2755 1.400 . S
C2759 C2758 1.385 . S
C2760 C2758 1.478 . S
C2760 C2762 1.381 . S
C2760 C2766 1.383 . S
C2761 C2757 1.495 . S
C2761 H2767 0.959 . S
C2761 H2768 0.961 . S
C2761 H2769 0.960 . S
C2762 C2760 1.381 . S
C2762 C2763 1.394 . S
C2762 H2770 0.930 . S
C2763 C2762 1.394 . S
C2763 C2764 1.383 . S
C2763 H2771 0.929 . S
C2764 C2763 1.383 . S
C2764 C2765 1.377 . S
C2765 H2749 0.930 . S
C2765 C2764 1.377 . S
C2765 C2766 1.379 . S
C2766 H2750 0.931 . S
C2766 C2760 1.383 . S
C2766 C2765 1.379 . S
H2767 C2761 0.959 . S
H2768 C2761 0.961 . S
H2769 C2761 0.960 . S
H2770 C2762 0.930 . S
H2771 C2763 0.929 . S
H2772 C2780 0.929 . S
H2773 C2782 0.930 . S
H2774 C2784 0.930 . S
H2775 C2787 0.929 . S
H2776 C2790 0.930 . S
H2777 C2792 0.960 . S
H2778 C2792 0.960 . S
H2779 C2792 0.960 . S
C2780 H2772 0.929 . S
C2780 C2781 1.377 . S
C2780 C2782 1.384 . S
C2781 C2780 1.377 . S
C2781 C2787 1.390 . S
C2782 H2773 0.930 . S
C2782 C2780 1.384 . S
C2782 C2783 1.372 . S
C2783 C2782 1.372 . S
C2783 C2784 1.400 . S
C2783 C2788 1.490 . S
C2784 H2774 0.930 . S
C2784 C2783 1.400 . S
C2784 C2787 1.386 . S
H2785 C2801 0.930 . S
H2786 C2802 0.931 . S
C2787 H2775 0.929 . S
C2787 C2781 1.390 . S
C2787 C2784 1.386 . S
C2788 C2783 1.490 . S
C2788 C2790 1.395 . S
C2788 C2791 1.403 . S
H2789 C2795 0.930 . S
C2790 H2776 0.930 . S
C2790 C2788 1.395 . S
C2790 C2793 1.403 . S
C2791 C2788 1.403 . S
C2791 C2792 1.524 . S
C2791 C2795 1.400 . S
C2792 H2777 0.960 . S
C2792 H2778 0.960 . S
C2792 H2779 0.960 . S
C2792 C2791 1.524 . S
C2793 C2790 1.403 . S
C2793 C2794 1.392 . S
C2793 C2797 1.495 . S
C2794 C2793 1.392 . S
C2794 C2795 1.385 . S
C2794 C2796 1.478 . S
C2795 H2789 0.930 . S
C2795 C2791 1.400 . S
C2795 C2794 1.385 . S
C2796 C2794 1.478 . S
C2796 C2798 1.381 . S
C2796 C2802 1.383 . S
C2797 C2793 1.495 . S
C2797 H2803 0.959 . S
C2797 H2804 0.961 . S
C2797 H2805 0.960 . S
C2798 C2796 1.381 . S
C2798 C2799 1.394 . S
C2798 H2806 0.930 . S
C2799 C2798 1.394 . S
C2799 C2800 1.383 . S
C2799 H2807 0.929 . S
C2800 C2799 1.383 . S
C2800 C2801 1.377 . S
C2801 H2785 0.930 . S
C2801 C2800 1.377 . S
C2801 C2802 1.379 . S
C2802 H2786 0.931 . S
C2802 C2796 1.383 . S
C2802 C2801 1.379 . S
H2803 C2797 0.959 . S
H2804 C2797 0.961 . S
H2805 C2797 0.960 . S
H2806 C2798 0.930 . S
H2807 C2799 0.929 . S
H2808 C2816 0.929 . S
H2809 C2818 0.930 . S
H2810 C2820 0.930 . S
H2811 C2823 0.929 . S
H2812 C2826 0.930 . S
H2813 C2828 0.960 . S
H2814 C2828 0.960 . S
H2815 C2828 0.960 . S
C2816 H2808 0.929 . S
C2816 C2817 1.377 . S
C2816 C2818 1.384 . S
C2817 C2816 1.377 . S
C2817 C2823 1.390 . S
C2818 H2809 0.930 . S
C2818 C2816 1.384 . S
C2818 C2819 1.372 . S
C2819 C2818 1.372 . S
C2819 C2820 1.400 . S
C2819 C2824 1.490 . S
C2820 H2810 0.930 . S
C2820 C2819 1.400 . S
C2820 C2823 1.386 . S
H2821 C2837 0.930 . S
H2822 C2838 0.931 . S
C2823 H2811 0.929 . S
C2823 C2817 1.390 . S
C2823 C2820 1.386 . S
C2824 C2819 1.490 . S
C2824 C2826 1.395 . S
C2824 C2827 1.403 . S
H2825 C2831 0.930 . S
C2826 H2812 0.930 . S
C2826 C2824 1.395 . S
C2826 C2829 1.403 . S
C2827 C2824 1.403 . S
C2827 C2828 1.524 . S
C2827 C2831 1.400 . S
C2828 H2813 0.960 . S
C2828 H2814 0.960 . S
C2828 H2815 0.960 . S
C2828 C2827 1.524 . S
C2829 C2826 1.403 . S
C2829 C2830 1.392 . S
C2829 C2833 1.495 . S
C2830 C2829 1.392 . S
C2830 C2831 1.385 . S
C2830 C2832 1.478 . S
C2831 H2825 0.930 . S
C2831 C2827 1.400 . S
C2831 C2830 1.385 . S
C2832 C2830 1.478 . S
C2832 C2834 1.381 . S
C2832 C2838 1.383 . S
C2833 C2829 1.495 . S
C2833 H2839 0.959 . S
C2833 H2840 0.961 . S
C2833 H2841 0.960 . S
C2834 C2832 1.381 . S
C2834 C2835 1.394 . S
C2834 H2842 0.930 . S
C2835 C2834 1.394 . S
C2835 C2836 1.383 . S
C2835 H2843 0.929 . S
C2836 C2835 1.383 . S
C2836 C2837 1.377 . S
C2837 H2821 0.930 . S
C2837 C2836 1.377 . S
C2837 C2838 1.379 . S
C2838 H2822 0.931 . S
C2838 C2832 1.383 . S
C2838 C2837 1.379 . S
H2839 C2833 0.959 . S
H2840 C2833 0.961 . S
H2841 C2833 0.960 . S
H2842 C2834 0.930 . S
H2843 C2835 0.929 . S
H2844 C2852 0.929 . S
H2845 C2854 0.930 . S
H2846 C2856 0.930 . S
H2847 C2859 0.929 . S
H2848 C2862 0.930 . S
H2849 C2864 0.960 . S
H2850 C2864 0.960 . S
H2851 C2864 0.960 . S
C2852 H2844 0.929 . S
C2852 C2853 1.377 . S
C2852 C2854 1.384 . S
C2853 C2852 1.377 . S
C2853 C2859 1.390 . S
C2854 H2845 0.930 . S
C2854 C2852 1.384 . S
C2854 C2855 1.372 . S
C2855 C2854 1.372 . S
C2855 C2856 1.400 . S
C2855 C2860 1.490 . S
C2856 H2846 0.930 . S
C2856 C2855 1.400 . S
C2856 C2859 1.386 . S
H2857 C2873 0.930 . S
H2858 C2874 0.931 . S
C2859 H2847 0.929 . S
C2859 C2853 1.390 . S
C2859 C2856 1.386 . S
C2860 C2855 1.490 . S
C2860 C2862 1.395 . S
C2860 C2863 1.403 . S
H2861 C2867 0.930 . S
C2862 H2848 0.930 . S
C2862 C2860 1.395 . S
C2862 C2865 1.403 . S
C2863 C2860 1.403 . S
C2863 C2864 1.524 . S
C2863 C2867 1.400 . S
C2864 H2849 0.960 . S
C2864 H2850 0.960 . S
C2864 H2851 0.960 . S
C2864 C2863 1.524 . S
C2865 C2862 1.403 . S
C2865 C2866 1.392 . S
C2865 C2869 1.495 . S
C2866 C2865 1.392 . S
C2866 C2867 1.385 . S
C2866 C2868 1.478 . S
C2867 H2861 0.930 . S
C2867 C2863 1.400 . S
C2867 C2866 1.385 . S
C2868 C2866 1.478 . S
C2868 C2870 1.381 . S
C2868 C2874 1.383 . S
C2869 C2865 1.495 . S
C2869 H2875 0.959 . S
C2869 H2876 0.961 . S
C2869 H2877 0.960 . S
C2870 C2868 1.381 . S
C2870 C2871 1.394 . S
C2870 H2878 0.930 . S
C2871 C2870 1.394 . S
C2871 C2872 1.383 . S
C2871 H2879 0.929 . S
C2872 C2871 1.383 . S
C2872 C2873 1.377 . S
C2873 H2857 0.930 . S
C2873 C2872 1.377 . S
C2873 C2874 1.379 . S
C2874 H2858 0.931 . S
C2874 C2868 1.383 . S
C2874 C2873 1.379 . S
H2875 C2869 0.959 . S
H2876 C2869 0.961 . S
H2877 C2869 0.960 . S
H2878 C2870 0.930 . S
H2879 C2871 0.929 . S
H2880 C2888 0.929 . S
H2881 C2890 0.930 . S
H2882 C2892 0.930 . S
H2883 C2895 0.929 . S
H2884 C2898 0.930 . S
H2885 C2900 0.958 . S
H2886 C2900 0.960 . S
H2887 C2900 0.960 . S
C2888 H2880 0.929 . S
C2888 C2889 1.377 . S
C2888 C2890 1.384 . S
C2889 C2888 1.377 . S
C2889 C2895 1.390 . S
C2890 H2881 0.930 . S
C2890 C2888 1.384 . S
C2890 C2891 1.372 . S
C2891 C2890 1.372 . S
C2891 C2892 1.400 . S
C2891 C2896 1.490 . S
C2892 H2882 0.930 . S
C2892 C2891 1.400 . S
C2892 C2895 1.386 . S
H2893 C2909 0.930 . S
H2894 C2910 0.931 . S
C2895 H2883 0.929 . S
C2895 C2889 1.390 . S
C2895 C2892 1.386 . S
C2896 C2891 1.490 . S
C2896 C2898 1.395 . S
C2896 C2899 1.403 . S
H2897 C2903 0.930 . S
C2898 H2884 0.930 . S
C2898 C2896 1.395 . S
C2898 C2901 1.403 1_455 S
C2899 C2896 1.403 . S
C2899 C2900 1.524 . S
C2899 C2903 1.400 1_455 S
C2900 H2885 0.958 . S
C2900 H2886 0.960 . S
C2900 H2887 0.960 . S
C2900 C2899 1.524 . S
C2901 C2898 1.403 1_655 S
C2901 C2902 1.392 . S
C2901 C2905 1.495 . S
C2902 C2901 1.392 . S
C2902 C2903 1.385 . S
C2902 C2904 1.478 . S
C2903 H2897 0.930 . S
C2903 C2899 1.400 1_655 S
C2903 C2902 1.385 . S
C2904 C2902 1.478 . S
C2904 C2906 1.381 . S
C2904 C2910 1.383 . S
C2905 C2901 1.495 . S
C2905 H2911 0.959 . S
C2905 H2912 0.961 . S
C2905 H2913 0.960 . S
C2906 C2904 1.381 . S
C2906 C2907 1.394 . S
C2906 H2914 0.930 . S
C2907 C2906 1.394 . S
C2907 C2908 1.383 . S
C2907 H2915 0.929 . S
C2908 C2907 1.383 . S
C2908 C2909 1.377 . S
C2909 H2893 0.930 . S
C2909 C2908 1.377 . S
C2909 C2910 1.379 . S
C2910 H2894 0.931 . S
C2910 C2904 1.383 . S
C2910 C2909 1.379 . S
H2911 C2905 0.959 . S
H2912 C2905 0.961 . S
H2913 C2905 0.960 . S
H2914 C2906 0.930 . S
H2915 C2907 0.929 . S
H2916 C2924 0.929 . S
H2917 C2926 0.930 . S
H2918 C2928 0.930 . S
H2919 C2931 0.929 . S
H2920 C2934 0.930 . S
H2921 C2936 0.960 . S
H2922 C2936 0.960 . S
H2923 C2936 0.960 . S
C2924 H2916 0.929 . S
C2924 C2925 1.377 . S
C2924 C2926 1.384 . S
C2925 C2924 1.377 . S
C2925 C2931 1.390 . S
C2926 H2917 0.930 . S
C2926 C2924 1.384 . S
C2926 C2927 1.372 . S
C2927 C2926 1.372 . S
C2927 C2928 1.400 . S
C2927 C2932 1.490 . S
C2928 H2918 0.930 . S
C2928 C2927 1.400 . S
C2928 C2931 1.386 . S
H2929 C2945 0.930 . S
H2930 C2946 0.931 . S
C2931 H2919 0.929 . S
C2931 C2925 1.390 . S
C2931 C2928 1.386 . S
C2932 C2927 1.490 . S
C2932 C2934 1.395 . S
C2932 C2935 1.403 . S
H2933 C2939 0.930 . S
C2934 H2920 0.930 . S
C2934 C2932 1.395 . S
C2934 C2937 1.403 . S
C2935 C2932 1.403 . S
C2935 C2936 1.524 . S
C2935 C2939 1.400 . S
C2936 H2921 0.960 . S
C2936 H2922 0.960 . S
C2936 H2923 0.960 . S
C2936 C2935 1.524 . S
C2937 C2934 1.403 . S
C2937 C2938 1.392 . S
C2937 C2941 1.495 . S
C2938 C2937 1.392 . S
C2938 C2939 1.385 . S
C2938 C2940 1.478 . S
C2939 H2933 0.930 . S
C2939 C2935 1.400 . S
C2939 C2938 1.385 . S
C2940 C2938 1.478 . S
C2940 C2942 1.381 . S
C2940 C2946 1.383 . S
C2941 C2937 1.495 . S
C2941 H2947 0.959 . S
C2941 H2948 0.961 . S
C2941 H2949 0.960 . S
C2942 C2940 1.381 . S
C2942 C2943 1.394 . S
C2942 H2950 0.930 . S
C2943 C2942 1.394 . S
C2943 C2944 1.383 . S
C2943 H2951 0.929 . S
C2944 C2943 1.383 . S
C2944 C2945 1.377 . S
C2945 H2929 0.930 . S
C2945 C2944 1.377 . S
C2945 C2946 1.379 . S
C2946 H2930 0.931 . S
C2946 C2940 1.383 . S
C2946 C2945 1.379 . S
H2947 C2941 0.959 . S
H2948 C2941 0.961 . S
H2949 C2941 0.960 . S
H2950 C2942 0.930 . S
H2951 C2943 0.929 . S
H2952 C2960 0.929 . S
H2953 C2962 0.930 . S
H2954 C2964 0.930 . S
H2955 C2967 0.929 . S
H2956 C2970 0.930 . S
H2957 C2972 0.960 1_565 S
H2958 C2972 0.960 . S
H2959 C2972 0.960 . S
C2960 H2952 0.929 . S
C2960 C2961 1.377 . S
C2960 C2962 1.384 . S
C2961 C2960 1.377 . S
C2961 C2967 1.390 . S
C2962 H2953 0.930 . S
C2962 C2960 1.384 . S
C2962 C2963 1.372 . S
C2963 C2962 1.372 . S
C2963 C2964 1.400 . S
C2963 C2968 1.490 . S
C2964 H2954 0.930 . S
C2964 C2963 1.400 . S
C2964 C2967 1.386 . S
H2965 C2981 0.930 . S
H2966 C2982 0.931 . S
C2967 H2955 0.929 . S
C2967 C2961 1.390 . S
C2967 C2964 1.386 . S
C2968 C2963 1.490 . S
C2968 C2970 1.395 . S
C2968 C2971 1.403 . S
H2969 C2975 0.930 . S
C2970 H2956 0.930 . S
C2970 C2968 1.395 . S
C2970 C2973 1.403 1_545 S
C2971 C2968 1.403 . S
C2971 C2972 1.524 . S
C2971 C2975 1.400 1_545 S
C2972 H2957 0.960 1_545 S
C2972 H2958 0.960 . S
C2972 H2959 0.960 . S
C2972 C2971 1.524 . S
C2973 C2970 1.403 1_565 S
C2973 C2974 1.392 . S
C2973 C2977 1.495 . S
C2974 C2973 1.392 . S
C2974 C2975 1.385 . S
C2974 C2976 1.478 . S
C2975 H2969 0.930 . S
C2975 C2971 1.400 1_565 S
C2975 C2974 1.385 . S
C2976 C2974 1.478 . S
C2976 C2978 1.381 . S
C2976 C2982 1.383 . S
C2977 C2973 1.495 . S
C2977 H2983 0.959 1_565 S
C2977 H2984 0.961 . S
C2977 H2985 0.960 . S
C2978 C2976 1.381 . S
C2978 C2979 1.394 . S
C2978 H2986 0.930 . S
C2979 C2978 1.394 . S
C2979 C2980 1.383 . S
C2979 H2987 0.929 . S
C2980 C2979 1.383 . S
C2980 C2981 1.377 . S
C2981 H2965 0.930 . S
C2981 C2980 1.377 . S
C2981 C2982 1.379 . S
C2982 H2966 0.931 . S
C2982 C2976 1.383 . S
C2982 C2981 1.379 . S
H2983 C2977 0.959 1_545 S
H2984 C2977 0.961 . S
H2985 C2977 0.960 . S
H2986 C2978 0.930 . S
H2987 C2979 0.929 . S
H2988 C2996 0.929 . S
H2989 C2998 0.930 . S
H2990 C3000 0.930 1_554 S
H2991 C3003 0.929 . S
H2992 C3006 0.930 . S
H2993 C3008 0.944 1_564 S
H2994 C3008 0.960 . S
H2995 C3008 0.960 1_554 S
C2996 H2988 0.929 . S
C2996 C2997 1.377 . S
C2996 C2998 1.384 . S
C2997 C2996 1.377 . S
C2997 C3003 1.390 . S
C2998 H2989 0.930 . S
C2998 C2996 1.384 . S
C2998 C2999 1.372 . S
C2999 C2998 1.372 . S
C2999 C3000 1.400 . S
C2999 C3004 1.490 . S
C3000 H2990 0.930 1_556 S
C3000 C2999 1.400 . S
C3000 C3003 1.386 . S
H3001 C3017 0.930 . S
H3002 C3018 0.931 . S
C3003 H2991 0.929 . S
C3003 C2997 1.390 . S
C3003 C3000 1.386 . S
C3004 C2999 1.490 . S
C3004 C3006 1.395 . S
C3004 C3007 1.403 . S
H3005 C3011 0.930 . S
C3006 H2992 0.930 . S
C3006 C3004 1.395 . S
C3006 C3009 1.395 1_546 S
C3007 C3004 1.403 . S
C3007 C3008 1.524 . S
C3007 C3011 1.400 1_546 S
C3008 H2993 0.944 1_546 S
C3008 H2994 0.960 . S
C3008 H2995 0.960 1_556 S
C3008 C3007 1.524 . S
C3009 C3006 1.395 1_564 S
C3009 C3010 1.400 . S
C3009 C3013 1.497 . S
C3010 C3009 1.400 . S
C3010 C3011 1.385 . S
C3010 C3012 1.478 . S
C3011 H3005 0.930 . S
C3011 C3007 1.400 1_564 S
C3011 C3010 1.385 . S
C3012 C3010 1.478 . S
C3012 C3014 1.381 . S
C3012 C3018 1.383 . S
C3013 C3009 1.497 . S
C3013 H3019 0.959 1_564 S
C3013 H3020 0.961 . S
C3013 H3021 0.960 1_554 S
C3014 C3012 1.381 . S
C3014 C3015 1.394 . S
C3014 H3022 0.930 1_554 S
C3015 C3014 1.394 . S
C3015 C3016 1.383 . S
C3015 H3023 0.929 . S
C3016 C3015 1.383 . S
C3016 C3017 1.377 . S
C3017 H3001 0.930 . S
C3017 C3016 1.377 . S
C3017 C3018 1.379 . S
C3018 H3002 0.931 . S
C3018 C3012 1.383 . S
C3018 C3017 1.379 . S
H3019 C3013 0.959 1_546 S
H3020 C3013 0.961 . S
H3021 C3013 0.960 1_556 S
H3022 C3014 0.930 1_556 S
H3023 C3015 0.929 . S
H3024 C3032 0.929 . S
H3025 C3034 0.930 1_554 S
H3026 C3036 0.930 . S
H3027 C3039 0.929 . S
H3028 C3042 0.930 . S
H3029 C3044 0.960 . S
H3030 C3044 0.960 . S
H3031 C3044 0.960 . S
C3032 H3024 0.929 . S
C3032 C3033 1.377 . S
C3032 C3034 1.384 . S
C3033 C3032 1.377 . S
C3033 C3039 1.390 . S
C3034 H3025 0.930 1_556 S
C3034 C3032 1.384 . S
C3034 C3035 1.372 . S
C3035 C3034 1.372 . S
C3035 C3036 1.400 . S
C3035 C3040 1.490 . S
C3036 H3026 0.930 . S
C3036 C3035 1.400 . S
C3036 C3039 1.386 . S
H3037 C3053 0.930 . S
H3038 C3054 0.931 1_556 S
C3039 H3027 0.929 . S
C3039 C3033 1.390 . S
C3039 C3036 1.386 . S
C3040 C3035 1.490 . S
C3040 C3042 1.395 1_556 S
C3040 C3043 1.403 . S
H3041 C3047 0.934 . S
C3042 H3028 0.930 . S
C3042 C3040 1.395 1_554 S
C3042 C3045 1.403 1_655 S
C3043 C3040 1.403 . S
C3043 C3044 1.524 . S
C3043 C3047 1.412 1_655 S
C3044 H3029 0.960 . S
C3044 H3030 0.960 . S
C3044 H3031 0.960 . S
C3044 C3043 1.524 . S
C3045 C3042 1.403 1_455 S
C3045 C3046 1.392 . S
C3045 C3049 1.495 . S
C3046 C3045 1.392 . S
C3046 C3047 1.370 1_554 S
C3046 C3048 1.478 . S
C3047 H3041 0.934 . S
C3047 C3043 1.412 1_455 S
C3047 C3046 1.370 1_556 S
C3048 C3046 1.478 . S
C3048 C3050 1.381 . S
C3048 C3054 1.383 . S
C3049 C3045 1.495 . S
C3049 H3055 0.959 . S
C3049 H3056 0.961 . S
C3049 H3057 0.960 . S
C3050 C3048 1.381 . S
C3050 C3051 1.394 . S
C3050 H3058 0.930 . S
C3051 C3050 1.394 . S
C3051 C3052 1.383 . S
C3051 H3059 0.929 . S
C3052 C3051 1.383 . S
C3052 C3053 1.377 . S
C3053 H3037 0.930 . S
C3053 C3052 1.377 . S
C3053 C3054 1.379 . S
C3054 H3038 0.931 1_554 S
C3054 C3048 1.383 . S
C3054 C3053 1.379 . S
H3055 C3049 0.959 . S
H3056 C3049 0.961 . S
H3057 C3049 0.960 . S
H3058 C3050 0.930 . S
H3059 C3051 0.929 . S
H3060 C3068 0.929 . S
H3061 C3070 0.930 . S
H3062 C3072 0.930 . S
H3063 C3075 0.929 . S
H3064 C3078 0.930 . S
H3065 C3080 0.960 . S
H3066 C3080 0.960 . S
H3067 C3080 0.960 . S
C3068 H3060 0.929 . S
C3068 C3069 1.377 . S
C3068 C3070 1.384 . S
C3069 C3068 1.377 . S
C3069 C3075 1.390 . S
C3070 H3061 0.930 . S
C3070 C3068 1.384 . S
C3070 C3071 1.372 . S
C3071 C3070 1.372 . S
C3071 C3072 1.400 . S
C3071 C3076 1.490 . S
C3072 H3062 0.930 . S
C3072 C3071 1.400 . S
C3072 C3075 1.386 . S
H3073 C3089 0.930 . S
H3074 C3090 0.931 . S
C3075 H3063 0.929 . S
C3075 C3069 1.390 . S
C3075 C3072 1.386 . S
C3076 C3071 1.490 . S
C3076 C3078 1.395 . S
C3076 C3079 1.403 1_556 S
H3077 C3083 0.930 . S
C3078 H3064 0.930 . S
C3078 C3076 1.395 . S
C3078 C3081 1.403 . S
C3079 C3076 1.403 1_554 S
C3079 C3080 1.524 . S
C3079 C3083 1.400 . S
C3080 H3065 0.960 . S
C3080 H3066 0.960 . S
C3080 H3067 0.960 . S
C3080 C3079 1.524 . S
C3081 C3078 1.403 . S
C3081 C3082 1.392 1_556 S
C3081 C3085 1.495 . S
C3082 C3081 1.392 1_554 S
C3082 C3083 1.385 . S
C3082 C3084 1.478 . S
C3083 H3077 0.930 . S
C3083 C3079 1.400 . S
C3083 C3082 1.385 . S
C3084 C3082 1.478 . S
C3084 C3086 1.381 . S
C3084 C3090 1.383 . S
C3085 C3081 1.495 . S
C3085 H3091 0.959 . S
C3085 H3092 0.961 . S
C3085 H3093 0.960 . S
C3086 C3084 1.381 . S
C3086 C3087 1.394 . S
C3086 H3094 0.930 . S
C3087 C3086 1.394 . S
C3087 C3088 1.383 . S
C3087 H3095 0.929 . S
C3088 C3087 1.383 . S
C3088 C3089 1.377 . S
C3089 H3073 0.930 . S
C3089 C3088 1.377 . S
C3089 C3090 1.379 . S
C3090 H3074 0.931 . S
C3090 C3084 1.383 . S
C3090 C3089 1.379 . S
H3091 C3085 0.959 . S
H3092 C3085 0.961 . S
H3093 C3085 0.960 . S
H3094 C3086 0.930 . S
H3095 C3087 0.929 . S
C513 C0 1.253 . S
C532 C103 1.251 . S
C549 C14 1.254 . S
C568 C117 1.236 . S
C585 C89 1.251 . S
C604 C28 1.258 . S
C621 C159 1.249 . S
C640 C42 1.261 . S
C657 C56 1.251 . S
C676 C131 1.242 . S
C693 C70 1.253 . S
C712 C145 1.255 . S
C729 C19 1.252 . S
C748 C84 1.238 . S
C765 C33 1.249 . S
C784 C98 1.249 . S
C801 C112 1.253 . S
C820 C5 1.237 . S
C837 C126 1.249 . S
C856 C75 1.248 . S
C873 C47 1.250 . S
C892 C140 1.261 . S
C909 C154 1.252 . S
C928 C61 1.236 . S
C945 C271 1.249 . S
C964 C168 1.262 . S
C981 C182 1.255 . S
C1000 C285 1.241 . S
C1017 C196 1.254 . S
C1036 C257 1.238 . S
C1053 C327 1.253 . S
C1072 C210 1.237 . S
C1089 C224 1.253 . S
C1108 C299 1.250 . S
C1125 C313 1.253 . S
C1144 C238 1.251 . S
C1161 C187 1.250 . S
C1180 C252 1.261 . S
C1197 C266 1.250 . S
C1216 C201 1.260 . S
C1233 C173 1.249 . S
C1252 C280 1.260 . S
C1269 C294 1.254 . S
C1288 C243 1.241 . S
C1305 C308 1.254 . S
C1324 C215 1.241 . S
C1341 C322 1.252 . S
C1360 C229 1.261 . S
C1377 C439 1.252 . S
C1396 C336 1.238 . S
C1413 C453 1.252 . S
C1432 C350 1.255 . S
C1449 C425 1.253 . S
C1468 C364 1.240 . S
C1485 C378 1.250 . S
C1504 C495 1.261 . S
C1521 C392 1.249 . S
C1540 C467 1.261 . S
C1557 C481 1.249 . S
C1576 C406 1.252 . S
C1593 C420 1.251 . S
C1612 C355 1.261 . S
C1629 C369 1.249 . S
C1648 C434 1.246 . S
C1665 C341 1.250 . S
C1684 C448 1.261 . S
C1701 C462 1.254 . S
C1720 C411 1.250 . S
C1737 C476 1.254 . S
C1756 C383 1.244 . S
C1773 C490 1.253 . S
C1792 C397 1.258 . S
C1809 C51 1.282 . S
C1828 C9 1.298 . S
C1845 C65 1.288 . S
C1864 C23 1.276 . S
C1881 C37 1.286 . S
C1900 C79 1.278 . S
C1917 C135 1.287 . S
C1936 C93 1.298 . S
C1953 C149 1.284 . S
C1972 C107 1.267 . S
C1989 C163 1.286 . S
C2008 C121 1.298 . S
C2025 C219 1.282 . S
C2044 C177 1.296 . S
C2061 C233 1.285 . S
C2080 C191 1.288 . S
C2097 C205 1.287 . S
C2116 C247 1.278 . S
C2133 C303 1.312 . S
C2152 C261 1.273 . S
C2169 C317 1.318 . S
C2188 C275 1.267 . S
C2205 C331 1.303 . S
C2224 C289 1.294 . S
C2241 C387 1.308 . S
C2260 C345 1.268 . S
C2277 C359 1.285 . S
C2296 C401 1.272 1_556 S
C2313 C415 1.307 . S
C2332 C373 1.296 . S
C2349 C429 1.286 . S
C2368 C471 1.298 . S
C2385 C443 1.283 . S
C2404 C485 1.268 . S
C2421 C457 1.285 . S
C2440 C499 1.267 . S
C2457 C11 1.401 . S
C2476 C263 1.392 . S
C2493 C277 1.401 . S
C2512 C25 1.401 . S
C2529 C291 1.401 . S
C2548 C39 1.399 . S
C2565 C473 1.403 . S
C2584 C53 1.398 . S
C2601 C487 1.404 . S
C2620 C67 1.405 . S
C2637 C501 1.401 . S
C2656 C81 1.395 . S
C2673 C95 1.402 . S
C2692 C347 1.405 . S
C2709 C361 1.403 . S
C2728 C109 1.403 . S
C2745 C375 1.403 . S
C2764 C123 1.395 . S
C2781 C137 1.400 . S
C2800 C221 1.393 . S
C2817 C151 1.404 . S
C2836 C235 1.402 . S
C2853 C165 1.402 . S
C2872 C249 1.405 . S
C2889 C431 1.403 . S
C2908 C179 1.396 . S
C2925 C445 1.401 . S
C2944 C193 1.402 . S
C2961 C207 1.401 . S
C2980 C459 1.396 . S
C2997 C305 1.403 . S
C3016 C389 1.398 . S
C3033 C319 1.402 . S
C3052 C403 1.403 . S
C3069 C333 1.402 . S
C3088 C417 1.392 . S
