# Generated by pormake.
# Topology why, (6)-cn, num edge types: 1
# Building blocks:
#     Node 0, Type 0, BuildingBlock: MIFKUJ_clean_sbu_0, # of connection points: 6
#     Node 1, Type 0, BuildingBlock: MIFKUJ_clean_sbu_0, # of connection points: 6
#     Node 2, Type 0, BuildingBlock: MIFKUJ_clean_sbu_0, # of connection points: 6
#     Node 3, Type 0, BuildingBlock: MIFKUJ_clean_sbu_0, # of connection points: 6
#     Node 4, Type 0, BuildingBlock: MIFKUJ_clean_sbu_0, # of connection points: 6
#     Node 5, Type 0, BuildingBlock: MIFKUJ_clean_sbu_0, # of connection points: 6
#     Node 6, Type 0, BuildingBlock: MIFKUJ_clean_sbu_0, # of connection points: 6
#     Node 7, Type 0, BuildingBlock: MIFKUJ_clean_sbu_0, # of connection points: 6
#     Node 8, Type 0, BuildingBlock: MIFKUJ_clean_sbu_0, # of connection points: 6
#     Node 9, Type 0, BuildingBlock: MIFKUJ_clean_sbu_0, # of connection points: 6
#     Node 10, Type 0, BuildingBlock: MIFKUJ_clean_sbu_0, # of connection points: 6
#     Node 11, Type 0, BuildingBlock: MIFKUJ_clean_sbu_0, # of connection points: 6
#     Node 12, Type 0, BuildingBlock: MIFKUJ_clean_sbu_0, # of connection points: 6
#     Node 13, Type 0, BuildingBlock: MIFKUJ_clean_sbu_0, # of connection points: 6
#     Node 14, Type 0, BuildingBlock: MIFKUJ_clean_sbu_0, # of connection points: 6
#     Node 15, Type 0, BuildingBlock: MIFKUJ_clean_sbu_0, # of connection points: 6
#     Edge 16, Type (0, 0), BuildingBlock: KIFKEQ_clean_linker_1, # of connection points: 2
#     Edge 17, Type (0, 0), BuildingBlock: KIFKEQ_clean_linker_1, # of connection points: 2
#     Edge 18, Type (0, 0), BuildingBlock: KIFKEQ_clean_linker_1, # of connection points: 2
#     Edge 19, Type (0, 0), BuildingBlock: KIFKEQ_clean_linker_1, # of connection points: 2
#     Edge 20, Type (0, 0), BuildingBlock: KIFKEQ_clean_linker_1, # of connection points: 2
#     Edge 21, Type (0, 0), BuildingBlock: KIFKEQ_clean_linker_1, # of connection points: 2
#     Edge 22, Type (0, 0), BuildingBlock: KIFKEQ_clean_linker_1, # of connection points: 2
#     Edge 23, Type (0, 0), BuildingBlock: KIFKEQ_clean_linker_1, # of connection points: 2
#     Edge 24, Type (0, 0), BuildingBlock: KIFKEQ_clean_linker_1, # of connection points: 2
#     Edge 25, Type (0, 0), BuildingBlock: KIFKEQ_clean_linker_1, # of connection points: 2
#     Edge 26, Type (0, 0), BuildingBlock: KIFKEQ_clean_linker_1, # of connection points: 2
#     Edge 27, Type (0, 0), BuildingBlock: KIFKEQ_clean_linker_1, # of connection points: 2
#     Edge 28, Type (0, 0), BuildingBlock: KIFKEQ_clean_linker_1, # of connection points: 2
#     Edge 29, Type (0, 0), BuildingBlock: KIFKEQ_clean_linker_1, # of connection points: 2
#     Edge 30, Type (0, 0), BuildingBlock: KIFKEQ_clean_linker_1, # of connection points: 2
#     Edge 31, Type (0, 0), BuildingBlock: KIFKEQ_clean_linker_1, # of connection points: 2
#     Edge 32, Type (0, 0), BuildingBlock: KIFKEQ_clean_linker_1, # of connection points: 2
#     Edge 33, Type (0, 0), BuildingBlock: KIFKEQ_clean_linker_1, # of connection points: 2
#     Edge 34, Type (0, 0), BuildingBlock: KIFKEQ_clean_linker_1, # of connection points: 2
#     Edge 35, Type (0, 0), BuildingBlock: KIFKEQ_clean_linker_1, # of connection points: 2
#     Edge 36, Type (0, 0), BuildingBlock: KIFKEQ_clean_linker_1, # of connection points: 2
#     Edge 37, Type (0, 0), BuildingBlock: KIFKEQ_clean_linker_1, # of connection points: 2
#     Edge 38, Type (0, 0), BuildingBlock: KIFKEQ_clean_linker_1, # of connection points: 2
#     Edge 39, Type (0, 0), BuildingBlock: KIFKEQ_clean_linker_1, # of connection points: 2
#     Edge 40, Type (0, 0), BuildingBlock: KIFKEQ_clean_linker_1, # of connection points: 2
#     Edge 41, Type (0, 0), BuildingBlock: KIFKEQ_clean_linker_1, # of connection points: 2
#     Edge 42, Type (0, 0), BuildingBlock: KIFKEQ_clean_linker_1, # of connection points: 2
#     Edge 43, Type (0, 0), BuildingBlock: KIFKEQ_clean_linker_1, # of connection points: 2
#     Edge 44, Type (0, 0), BuildingBlock: KIFKEQ_clean_linker_1, # of connection points: 2
#     Edge 45, Type (0, 0), BuildingBlock: KIFKEQ_clean_linker_1, # of connection points: 2
#     Edge 46, Type (0, 0), BuildingBlock: KIFKEQ_clean_linker_1, # of connection points: 2
#     Edge 47, Type (0, 0), BuildingBlock: KIFKEQ_clean_linker_1, # of connection points: 2
#     Edge 48, Type (0, 0), BuildingBlock: KIFKEQ_clean_linker_1, # of connection points: 2
#     Edge 49, Type (0, 0), BuildingBlock: KIFKEQ_clean_linker_1, # of connection points: 2
#     Edge 50, Type (0, 0), BuildingBlock: KIFKEQ_clean_linker_1, # of connection points: 2
#     Edge 51, Type (0, 0), BuildingBlock: KIFKEQ_clean_linker_1, # of connection points: 2
#     Edge 52, Type (0, 0), BuildingBlock: KIFKEQ_clean_linker_1, # of connection points: 2
#     Edge 53, Type (0, 0), BuildingBlock: KIFKEQ_clean_linker_1, # of connection points: 2
#     Edge 54, Type (0, 0), BuildingBlock: KIFKEQ_clean_linker_1, # of connection points: 2
#     Edge 55, Type (0, 0), BuildingBlock: KIFKEQ_clean_linker_1, # of connection points: 2
#     Edge 56, Type (0, 0), BuildingBlock: KIFKEQ_clean_linker_1, # of connection points: 2
#     Edge 57, Type (0, 0), BuildingBlock: KIFKEQ_clean_linker_1, # of connection points: 2
#     Edge 58, Type (0, 0), BuildingBlock: KIFKEQ_clean_linker_1, # of connection points: 2
#     Edge 59, Type (0, 0), BuildingBlock: KIFKEQ_clean_linker_1, # of connection points: 2
#     Edge 60, Type (0, 0), BuildingBlock: KIFKEQ_clean_linker_1, # of connection points: 2
#     Edge 61, Type (0, 0), BuildingBlock: KIFKEQ_clean_linker_1, # of connection points: 2
#     Edge 62, Type (0, 0), BuildingBlock: KIFKEQ_clean_linker_1, # of connection points: 2
#     Edge 63, Type (0, 0), BuildingBlock: KIFKEQ_clean_linker_1, # of connection points: 2
# Relax obj value: 0.197
# Max RMSD: 0.172
# Mean RMSD: 0.172
data_MOF--net-why--node1-MIFKUJ_clean_sbu_0--edge1-KIFKEQ_clean_linker_1
_symmetry_space_group_name_H-M    P1
_symmetry_Int_Tables_number       1
_symmetry_cell_setting            triclinic
loop_
_symmetry_equiv_pos_as_xyz
'x, y, z'
_cell_length_a     51.645923
_cell_length_b     51.721667
_cell_length_c     30.754524
_cell_angle_alpha  90.004362
_cell_angle_beta   90.058236
_cell_angle_gamma 90.019114
loop_
_atom_site_label
_atom_site_type_symbol
_atom_site_fract_x
_atom_site_fract_y
_atom_site_fract_z
_atom_type_partial_charge
Zn0 Zn 0.33269 0.16885 0.07856 0.0
Zn1 Zn 0.39293 0.15631 0.01248 0.0
C2 C 0.28497 0.17035 0.03268 0.0
O3 O 0.28803 0.19493 0.04225 0.0
C4 C 0.42683 0.19229 0.06203 0.0
O5 O 0.42131 0.17827 0.09641 0.0
O6 O 0.31826 0.18923 0.12866 0.0
O7 O 0.35487 0.13943 0.10233 0.0
O8 O 0.3906 0.13215 0.0635 0.0
C9 C 0.29829 0.18295 0.15032 0.0
O10 O 0.2867 0.16088 0.14206 0.0
O11 O 0.30223 0.15434 0.04479 0.0
C12 C 0.41796 0.15177 0.9314 0.0
O13 O 0.40988 0.17582 0.92941 0.0
O14 O 0.4119 0.13817 0.96428 0.0
O15 O 0.35858 0.16837 0.99006 0.0
O16 O 0.34964 0.19604 0.04133 0.0
O17 O 0.41617 0.18694 0.02585 0.0
C18 C 0.37579 0.12699 0.09543 0.0
C19 C 0.35493 0.19151 0.00186 0.0
Zn20 Zn 0.58231 0.58079 0.32636 0.0
Zn21 Zn 0.60016 0.63743 0.26573 0.0
C22 C 0.58257 0.53924 0.26451 0.0
O23 O 0.5579 0.54535 0.263 0.0
C24 C 0.57661 0.68352 0.29948 0.0
O25 O 0.60099 0.69079 0.3 0.0
O26 O 0.55999 0.56254 0.37015 0.0
O27 O 0.61167 0.59981 0.35701 0.0
O28 O 0.62605 0.63109 0.31343 0.0
C29 C 0.56825 0.54874 0.40135 0.0
O30 O 0.5933 0.5469 0.40815 0.0
O31 O 0.59759 0.55213 0.28918 0.0
C32 C 0.60262 0.6654 0.1872 0.0
O33 O 0.57846 0.65748 0.18637 0.0
O34 O 0.61706 0.65848 0.21861 0.0
O35 O 0.5846 0.60602 0.23782 0.0
O36 O 0.55677 0.60118 0.29047 0.0
O37 O 0.57118 0.66053 0.28783 0.0
C38 C 0.628 0.61749 0.34779 0.0
C39 C 0.56132 0.60433 0.25032 0.0
Zn40 Zn 0.17615 0.83779 0.57149 0.0
Zn41 Zn 0.11154 0.84794 0.51614 0.0
C42 C 0.22268 0.8633 0.54311 0.0
O43 O 0.22504 0.86729 0.58512 0.0
C44 C 0.06724 0.82325 0.55166 0.0
O45 O 0.06023 0.8476 0.55497 0.0
O46 O 0.19735 0.82142 0.61926 0.0
O47 O 0.15485 0.86737 0.59765 0.0
O48 O 0.11688 0.87334 0.56449 0.0
C49 C 0.1888 0.80362 0.64384 0.0
O50 O 0.16463 0.79607 0.6397 0.0
O51 O 0.20247 0.852 0.52898 0.0
C52 C 0.08013 0.85044 0.44031 0.0
O53 O 0.08566 0.82566 0.44043 0.0
O54 O 0.08993 0.86487 0.46948 0.0
O55 O 0.1445 0.83476 0.4904 0.0
O56 O 0.15761 0.80833 0.54112 0.0
O57 O 0.08976 0.81806 0.53744 0.0
C58 C 0.1334 0.87939 0.5935 0.0
C59 C 0.14878 0.81187 0.50309 0.0
Zn60 Zn 0.92483 0.42965 0.83278 0.0
Zn61 Zn 0.91687 0.36236 0.77812 0.0
C62 C 0.92273 0.46883 0.76529 0.0
O63 O 0.9462 0.46026 0.75757 0.0
C64 C 0.94303 0.3213 0.82227 0.0
O65 O 0.91917 0.31638 0.83458 0.0
O66 O 0.94221 0.44555 0.88534 0.0
O67 O 0.89512 0.40648 0.85495 0.0
O68 O 0.89063 0.36741 0.82496 0.0
C69 C 0.94444 0.46979 0.89134 0.0
O70 O 0.9339 0.48583 0.86336 0.0
O71 O 0.90956 0.45866 0.7958 0.0
C72 C 0.91637 0.32865 0.70549 0.0
O73 O 0.94146 0.33088 0.71129 0.0
O74 O 0.90106 0.34077 0.73063 0.0
O75 O 0.92775 0.39595 0.75256 0.0
O76 O 0.95442 0.41308 0.79921 0.0
O77 O 0.94744 0.34157 0.80004 0.0
C78 C 0.88359 0.38467 0.85198 0.0
C79 C 0.95066 0.40181 0.76317 0.0
Zn80 Zn 0.61651 0.84851 0.97245 0.0
Zn81 Zn 0.67151 0.83397 0.90795 0.0
C82 C 0.57001 0.82738 0.93657 0.0
O83 O 0.56327 0.85182 0.93948 0.0
C84 C 0.71251 0.83351 0.97242 0.0
O85 O 0.70699 0.80873 0.9734 0.0
O86 O 0.59623 0.86237 0.02298 0.0
O87 O 0.64815 0.83196 0.99713 0.0
O88 O 0.6518 0.8064 0.94117 0.0
C89 C 0.58557 0.84541 0.04697 0.0
O90 O 0.58966 0.82083 0.03871 0.0
O91 O 0.59307 0.821 0.94649 0.0
C92 C 0.71301 0.8164 0.85087 0.0
O93 O 0.72663 0.83444 0.87042 0.0
O94 O 0.68915 0.81386 0.86013 0.0
O95 O 0.65202 0.8646 0.88167 0.0
O96 O 0.62176 0.87673 0.9289 0.0
O97 O 0.69982 0.84832 0.94716 0.0
C98 C 0.64933 0.80928 0.98191 0.0
C99 C 0.63455 0.8804 0.89411 0.0
Zn100 Zn 0.41111 0.36406 0.72065 0.0
Zn101 Zn 0.42007 0.4281 0.66381 0.0
C102 C 0.4386 0.32211 0.68404 0.0
O103 O 0.41456 0.31464 0.67776 0.0
C104 C 0.41869 0.46969 0.72381 0.0
O105 O 0.44352 0.4642 0.72406 0.0
O106 O 0.39495 0.34131 0.76642 0.0
O107 O 0.42096 0.39752 0.74825 0.0
O108 O 0.44828 0.41119 0.69956 0.0
C109 C 0.41023 0.33064 0.79345 0.0
O110 O 0.43517 0.33529 0.79068 0.0
O111 O 0.44269 0.34436 0.7003 0.0
C112 C 0.44229 0.44271 0.57788 0.0
O113 O 0.42969 0.42312 0.56077 0.0
O114 O 0.43996 0.44752 0.61816 0.0
O115 O 0.39168 0.40559 0.63621 0.0
O116 O 0.38634 0.36818 0.67133 0.0
O117 O 0.40354 0.45615 0.70043 0.0
C118 C 0.44392 0.4033 0.73786 0.0
C119 C 0.38028 0.38386 0.64112 0.0
Zn120 Zn 0.89178 0.15795 0.4794 0.0
Zn121 Zn 0.83466 0.17453 0.41238 0.0
C122 C 0.93984 0.18238 0.45908 0.0
O123 O 0.94781 0.15869 0.46675 0.0
C124 C 0.79173 0.17596 0.47189 0.0
O125 O 0.79881 0.20031 0.47437 0.0
O126 O 0.91033 0.14041 0.52897 0.0
O127 O 0.85848 0.17252 0.50157 0.0
O128 O 0.85377 0.20055 0.44922 0.0
C129 C 0.917 0.15427 0.56124 0.0
O130 O 0.90996 0.17867 0.56214 0.0
O131 O 0.91568 0.18716 0.46069 0.0
C132 C 0.79812 0.19124 0.34573 0.0
O133 O 0.78479 0.17082 0.35777 0.0
O134 O 0.81992 0.19571 0.36338 0.0
O135 O 0.85497 0.14423 0.38732 0.0
O136 O 0.8878 0.13282 0.43029 0.0
O137 O 0.80428 0.1607 0.44724 0.0
C138 C 0.85718 0.19582 0.48924 0.0
C139 C 0.87395 0.12942 0.39649 0.0
Zn140 Zn 0.08668 0.65407 0.20686 0.0
Zn141 Zn 0.09168 0.57358 0.17668 0.0
C142 C 0.06513 0.70022 0.17193 0.0
O143 O 0.08956 0.70728 0.17363 0.0
C144 C 0.11832 0.54527 0.24213 0.0
O145 O 0.11164 0.5657 0.26492 0.0
O146 O 0.10201 0.67107 0.26004 0.0
O147 O 0.07498 0.61881 0.21479 0.0
O148 O 0.06303 0.57949 0.22192 0.0
C149 C 0.09347 0.67006 0.29876 0.0
O150 O 0.07351 0.65527 0.30764 0.0
O151 O 0.05908 0.67733 0.18291 0.0
C152 C 0.05856 0.53932 0.13129 0.0
O153 O 0.05744 0.52933 0.17054 0.0
O154 O 0.07297 0.55888 0.12481 0.0
O155 O 0.11376 0.6055 0.15536 0.0
O156 O 0.11469 0.64854 0.16395 0.0
O157 O 0.11373 0.54507 0.20152 0.0
C158 C 0.05973 0.60287 0.23199 0.0
C159 C 0.12375 0.62777 0.14735 0.0
Zn160 Zn 0.82852 0.67085 0.57925 0.0
Zn161 Zn 0.88801 0.65883 0.51504 0.0
C162 C 0.77557 0.66598 0.5466 0.0
O163 O 0.77099 0.68458 0.57459 0.0
C164 C 0.93167 0.68354 0.55338 0.0
O165 O 0.93898 0.65926 0.55608 0.0
O166 O 0.81447 0.69114 0.62988 0.0
O167 O 0.84948 0.64025 0.60244 0.0
O168 O 0.8841 0.63206 0.56151 0.0
C169 C 0.79984 0.68323 0.66027 0.0
O170 O 0.79303 0.65876 0.66157 0.0
O171 O 0.79847 0.6571 0.54298 0.0
C172 C 0.92128 0.66038 0.44208 0.0
O173 O 0.91764 0.68522 0.44858 0.0
O174 O 0.90951 0.64422 0.46617 0.0
O175 O 0.85483 0.67201 0.49019 0.0
O176 O 0.84641 0.69834 0.54363 0.0
O177 O 0.90917 0.68859 0.5388 0.0
C178 C 0.8695 0.62679 0.5936 0.0
C179 C 0.85159 0.69486 0.50378 0.0
Zn180 Zn 0.08593 0.07722 0.83552 0.0
Zn181 Zn 0.10044 0.13522 0.76891 0.0
C182 C 0.08483 0.03678 0.77072 0.0
O183 O 0.06025 0.0433 0.76975 0.0
C184 C 0.06712 0.17088 0.82061 0.0
O185 O 0.07934 0.16251 0.85534 0.0
O186 O 0.06612 0.06027 0.88451 0.0
O187 O 0.11598 0.09774 0.8615 0.0
O188 O 0.12524 0.13121 0.81875 0.0
C189 C 0.0657 0.03602 0.89132 0.0
O190 O 0.08039 0.0208 0.86771 0.0
O191 O 0.10008 0.04876 0.79629 0.0
C192 C 0.10538 0.15855 0.68693 0.0
O193 O 0.08099 0.15136 0.68585 0.0
O194 O 0.11912 0.15235 0.7196 0.0
O195 O 0.08378 0.1028 0.7472 0.0
O196 O 0.05819 0.09689 0.80275 0.0
O197 O 0.07258 0.16132 0.78366 0.0
C198 C 0.12979 0.11742 0.85217 0.0
C199 C 0.06109 0.10145 0.76254 0.0
Zn200 Zn 0.67914 0.33826 0.07841 0.0
Zn201 Zn 0.61575 0.34749 0.01766 0.0
C202 C 0.71968 0.33819 0.0135 0.0
O203 O 0.71251 0.3139 0.01019 0.0
C204 C 0.5732 0.32171 0.06007 0.0
O205 O 0.56809 0.34547 0.07248 0.0
O206 O 0.69596 0.32028 0.12968 0.0
O207 O 0.65675 0.36812 0.10128 0.0
O208 O 0.61967 0.37376 0.06509 0.0
C209 C 0.7203 0.32009 0.13615 0.0
O210 O 0.73541 0.33377 0.11069 0.0
O211 O 0.7079 0.35287 0.04016 0.0
C212 C 0.58439 0.34678 0.94292 0.0
O213 O 0.58802 0.32192 0.94922 0.0
O214 O 0.59542 0.36285 0.96817 0.0
O215 O 0.64938 0.33506 0.99411 0.0
O216 O 0.66144 0.30901 0.04594 0.0
O217 O 0.59381 0.31737 0.03865 0.0
C218 C 0.63545 0.38014 0.09507 0.0
C219 C 0.65335 0.31229 0.00743 0.0
Zn220 Zn 0.42462 0.92653 0.32972 0.0
Zn221 Zn 0.40977 0.86159 0.27427 0.0
C222 C 0.42668 0.9688 0.2688 0.0
O223 O 0.4502 0.95974 0.26319 0.0
C224 C 0.43549 0.81816 0.31312 0.0
O225 O 0.41136 0.81032 0.31636 0.0
O226 O 0.44556 0.94021 0.3799 0.0
O227 O 0.39341 0.90617 0.35233 0.0
O228 O 0.38321 0.86874 0.32051 0.0
C229 C 0.44075 0.96134 0.39937 0.0
O230 O 0.41985 0.97444 0.38896 0.0
O231 O 0.4117 0.95766 0.29576 0.0
C232 C 0.40971 0.82561 0.2044 0.0
O233 O 0.4346 0.82671 0.21295 0.0
O234 O 0.39417 0.83939 0.22662 0.0
O235 O 0.42256 0.89388 0.24616 0.0
O236 O 0.45099 0.90809 0.2929 0.0
O237 O 0.43989 0.84082 0.29873 0.0
C238 C 0.37891 0.88626 0.34876 0.0
C239 C 0.44589 0.8985 0.25599 0.0
Zn240 Zn 0.12143 0.34648 0.48218 0.0
Zn241 Zn 0.17764 0.32951 0.41608 0.0
C242 C 0.07241 0.32579 0.45515 0.0
O243 O 0.06521 0.34939 0.46531 0.0
C244 C 0.21982 0.32753 0.4789 0.0
O245 O 0.21319 0.30306 0.48168 0.0
O246 O 0.10262 0.36159 0.53399 0.0
O247 O 0.15248 0.32779 0.50528 0.0
O248 O 0.15731 0.3026 0.44884 0.0
C249 C 0.09217 0.34529 0.55953 0.0
O250 O 0.09567 0.3205 0.55222 0.0
O251 O 0.09635 0.32004 0.457 0.0
C252 C 0.21743 0.31205 0.35591 0.0
O253 O 0.23194 0.3289 0.3766 0.0
O254 O 0.19364 0.30996 0.36597 0.0
O255 O 0.15929 0.36118 0.39289 0.0
O256 O 0.12838 0.37449 0.43813 0.0
O257 O 0.20708 0.34244 0.45394 0.0
C258 C 0.15348 0.30525 0.48929 0.0
C259 C 0.14222 0.37763 0.40426 0.0
Zn260 Zn 0.89923 0.87302 0.22966 0.0
Zn261 Zn 0.91313 0.92808 0.16278 0.0
C262 C 0.92438 0.83246 0.18251 0.0
O263 O 0.90027 0.8257 0.17487 0.0
C264 C 0.91817 0.97507 0.20938 0.0
O265 O 0.94254 0.97031 0.20014 0.0
O266 O 0.88547 0.85014 0.27716 0.0
O267 O 0.91341 0.90561 0.25575 0.0
O268 O 0.93948 0.90987 0.20052 0.0
C269 C 0.90078 0.8425 0.30688 0.0
O270 O 0.92473 0.85105 0.30724 0.0
O271 O 0.92882 0.8529 0.20412 0.0
C272 C 0.92988 0.96181 0.09184 0.0
O273 O 0.9091 0.97534 0.10124 0.0
O274 O 0.93437 0.94102 0.11248 0.0
O275 O 0.88171 0.90866 0.13928 0.0
O276 O 0.87167 0.87661 0.18446 0.0
O277 O 0.90094 0.95926 0.19647 0.0
C278 C 0.93624 0.908 0.2413 0.0
C279 C 0.86712 0.88997 0.15064 0.0
Zn280 Zn 0.39061 0.66194 0.96568 0.0
Zn281 Zn 0.32418 0.67066 0.91224 0.0
C282 C 0.43205 0.68972 0.9281 0.0
O283 O 0.43926 0.66572 0.92109 0.0
C284 C 0.28255 0.66966 0.97148 0.0
O285 O 0.28726 0.69457 0.96849 0.0
O286 O 0.41346 0.64591 0.01145 0.0
O287 O 0.35664 0.67039 0.99276 0.0
O288 O 0.34053 0.69913 0.94883 0.0
C289 C 0.42459 0.66112 0.03807 0.0
O290 O 0.42044 0.68609 0.03491 0.0
O291 O 0.41 0.69381 0.94524 0.0
C292 C 0.30899 0.71151 0.85236 0.0
O293 O 0.32751 0.72438 0.87209 0.0
O294 O 0.30476 0.68812 0.86306 0.0
O295 O 0.34732 0.64209 0.88666 0.0
O296 O 0.38635 0.63702 0.91682 0.0
O297 O 0.29644 0.65407 0.94965 0.0
C298 C 0.35038 0.69359 0.9854 0.0
C299 C 0.36926 0.63076 0.88891 0.0
Zn300 Zn 0.6022 0.1409 0.72464 0.0
Zn301 Zn 0.59059 0.08161 0.65988 0.0
C302 C 0.57875 0.18683 0.69285 0.0
O303 O 0.60323 0.19378 0.6925 0.0
C304 C 0.58702 0.03798 0.71613 0.0
O305 O 0.56235 0.04255 0.70891 0.0
O306 O 0.6184 0.16108 0.77359 0.0
O307 O 0.58749 0.10793 0.74842 0.0
O308 O 0.56239 0.10033 0.69269 0.0
C309 C 0.60443 0.1668 0.80622 0.0
O310 O 0.58068 0.1578 0.80819 0.0
O311 O 0.57302 0.16383 0.70387 0.0
C312 C 0.5743 0.04164 0.59825 0.0
O313 O 0.5919 0.02739 0.61765 0.0
O314 O 0.57155 0.06514 0.6095 0.0
O315 O 0.62107 0.10226 0.63624 0.0
O316 O 0.62841 0.13716 0.67691 0.0
O317 O 0.60378 0.05273 0.69869 0.0
C318 C 0.56497 0.10456 0.73308 0.0
C319 C 0.63405 0.12259 0.64496 0.0
H320 H 0.44993 0.21719 0.99394 0.0
H321 H 0.4509 0.21221 0.13422 0.0
H322 H 0.4862 0.24736 0.99633 0.0
H323 H 0.48714 0.24273 0.13643 0.0
H324 H 0.53142 0.32164 0.11453 0.0
H325 H 0.49596 0.29031 0.11688 0.0
H326 H 0.53401 0.24469 0.01833 0.0
H327 H 0.56961 0.27581 0.01621 0.0
C328 C 0.45773 0.22265 0.02533 0.0
C329 C 0.44752 0.21219 0.06392 0.0
C330 C 0.47866 0.2398 0.02663 0.0
C331 C 0.48966 0.2472 0.06653 0.0
C332 C 0.47903 0.23736 0.10521 0.0
C333 C 0.4583 0.21989 0.10391 0.0
C334 C 0.53239 0.30474 0.09378 0.0
C335 C 0.55332 0.30124 0.06516 0.0
C336 C 0.5121 0.2868 0.09521 0.0
C337 C 0.51211 0.26519 0.06752 0.0
C338 C 0.53335 0.26133 0.03969 0.0
C339 C 0.55384 0.27904 0.03876 0.0
H340 H 0.52423 0.67761 0.28845 0.0
H341 H 0.58196 0.73299 0.32934 0.0
H342 H 0.49071 0.71046 0.29634 0.0
H343 H 0.5484 0.76564 0.33826 0.0
H344 H 0.48678 0.82453 0.29279 0.0
H345 H 0.52071 0.7918 0.29361 0.0
H346 H 0.46679 0.73643 0.34716 0.0
H347 H 0.43272 0.769 0.34535 0.0
C348 C 0.52973 0.69667 0.29978 0.0
C349 C 0.55582 0.70266 0.30812 0.0
C350 C 0.51047 0.71553 0.30449 0.0
C351 C 0.5168 0.74082 0.3178 0.0
C352 C 0.54283 0.74654 0.32726 0.0
C353 C 0.56208 0.72773 0.32242 0.0
C354 C 0.48224 0.80548 0.30533 0.0
C355 C 0.45698 0.7994 0.31889 0.0
C356 C 0.50175 0.78668 0.3059 0.0
C357 C 0.49651 0.76134 0.32019 0.0
C358 C 0.47144 0.75557 0.3352 0.0
C359 C 0.45193 0.77434 0.3345 0.0
H360 H 0.07278 0.77135 0.53651 0.0
H361 H 0.01819 0.82804 0.58378 0.0
H362 H 0.03967 0.73794 0.54219 0.0
H363 H 0.98526 0.79454 0.59035 0.0
H364 H 0.92589 0.7353 0.53721 0.0
H365 H 0.95895 0.76881 0.54185 0.0
H366 H 0.0135 0.71286 0.59181 0.0
H367 H 0.98061 0.67922 0.58628 0.0
C368 C 0.05385 0.77661 0.54879 0.0
C369 C 0.04811 0.8024 0.55948 0.0
C370 C 0.03486 0.75742 0.55223 0.0
C371 C 0.00971 0.76355 0.56653 0.0
C372 C 0.00428 0.78921 0.57855 0.0
C373 C 0.02323 0.80839 0.57504 0.0
C374 C 0.94483 0.73021 0.54974 0.0
C375 C 0.95064 0.70454 0.56118 0.0
C376 C 0.9638 0.74946 0.55254 0.0
C377 C 0.98898 0.74352 0.56695 0.0
C378 C 0.99446 0.71802 0.57987 0.0
C379 C 0.97553 0.69877 0.57698 0.0
H380 H 0.98943 0.31766 0.77982 0.0
H381 H 0.94229 0.27944 0.87641 0.0
H382 H 0.01998 0.28163 0.78177 0.0
H383 H 0.97295 0.24348 0.87839 0.0
H384 H 0.04804 0.1944 0.89394 0.0
H385 H 0.01946 0.2321 0.8978 0.0
H386 H 0.01654 0.23502 0.75761 0.0
H387 H 0.04486 0.19745 0.75358 0.0
C388 C 0.9858 0.3018 0.80201 0.0
C389 C 0.96337 0.30137 0.82786 0.0
C390 C 1.00319 0.28107 0.80284 0.0
C391 C 0.99872 0.25962 0.82994 0.0
C392 C 0.97696 0.25977 0.8573 0.0
C393 C 0.95938 0.28034 0.85607 0.0
C394 C 0.04121 0.20302 0.86396 0.0
C395 C 0.04878 0.1929 0.82347 0.0
C396 C 0.02484 0.22459 0.8662 0.0
C397 C 0.01599 0.23666 0.82801 0.0
C398 C 0.02339 0.2264 0.7876 0.0
C399 C 0.03947 0.20472 0.78534 0.0
H400 H 0.57517 0.77472 0.94127 0.0
H401 H 0.51953 0.83478 0.9129 0.0
H402 H 0.54117 0.74228 0.93457 0.0
H403 H 0.48565 0.80229 0.90526 0.0
H404 H 0.42778 0.74025 0.95432 0.0
H405 H 0.46111 0.77366 0.95158 0.0
H406 H 0.51225 0.72086 0.88478 0.0
H407 H 0.4792 0.68735 0.88838 0.0
C408 C 0.55579 0.78098 0.93286 0.0
C409 C 0.55009 0.80738 0.92774 0.0
C410 C 0.53626 0.76235 0.92887 0.0
C411 C 0.51058 0.76964 0.91954 0.0
C412 C 0.50509 0.796 0.91315 0.0
C413 C 0.52459 0.81462 0.91722 0.0
C414 C 0.44601 0.73589 0.93852 0.0
C415 C 0.45085 0.71108 0.92177 0.0
C416 C 0.46513 0.75508 0.93683 0.0
C417 C 0.4895 0.74992 0.91824 0.0
C418 C 0.49392 0.72538 0.90006 0.0
C419 C 0.47486 0.70621 0.90185 0.0
H420 H 0.43628 0.27416 0.6472 0.0
H421 H 0.48942 0.32762 0.70811 0.0
H422 H 0.47029 0.24161 0.64412 0.0
H423 H 0.52332 0.29484 0.70589 0.0
H424 H 0.58481 0.23695 0.66677 0.0
H425 H 0.55154 0.27003 0.65917 0.0
H426 H 0.49306 0.21418 0.69488 0.0
H427 H 0.52628 0.18094 0.70156 0.0
C428 C 0.45528 0.27905 0.65966 0.0
C429 C 0.4601 0.30349 0.67801 0.0
C430 C 0.47474 0.2603 0.65818 0.0
C431 C 0.4995 0.26548 0.67509 0.0
C432 C 0.50456 0.29024 0.69214 0.0
C433 C 0.48509 0.30905 0.69353 0.0
C434 C 0.56482 0.23165 0.67259 0.0
C435 C 0.55822 0.20629 0.68486 0.0
C436 C 0.54576 0.25068 0.66851 0.0
C437 C 0.51962 0.24486 0.67664 0.0
C438 C 0.51295 0.21931 0.68784 0.0
C439 C 0.53202 0.20024 0.69185 0.0
H440 H 0.99207 0.17988 0.47064 0.0
H441 H 0.93103 0.23243 0.43315 0.0
H442 H 0.02349 0.21456 0.46511 0.0
H443 H 0.96277 0.2671 0.42541 0.0
H444 H 0.02049 0.32909 0.47017 0.0
H445 H 0.98857 0.29471 0.46704 0.0
H446 H 0.04721 0.24199 0.42013 0.0
H447 H 0.07949 0.27627 0.42547 0.0
C448 C 0.9854 0.19879 0.46044 0.0
C449 C 0.959 0.20337 0.45241 0.0
C450 C 1.00353 0.21873 0.45691 0.0
C451 C 0.99585 0.24381 0.44469 0.0
C452 C 0.96945 0.24821 0.43561 0.0
C453 C 0.95122 0.22828 0.43972 0.0
C454 C 0.02656 0.31023 0.45874 0.0
C455 C 0.0526 0.30542 0.44821 0.0
C456 C 0.00813 0.29046 0.45669 0.0
C457 C 0.01515 0.26537 0.4435 0.0
C458 C 0.04108 0.26086 0.43134 0.0
C459 C 0.05961 0.28059 0.434 0.0
H460 H 0.01274 0.69339 0.1761 0.0
H461 H 0.07124 0.75082 0.14828 0.0
H462 H 0.97937 0.72638 0.17092 0.0
H463 H 0.03769 0.78379 0.14208 0.0
H464 H 0.97553 0.83739 0.20374 0.0
H465 H 0.00976 0.80574 0.1932 0.0
H466 H 0.95631 0.7561 0.12434 0.0
H467 H 0.92182 0.78755 0.13585 0.0
C468 C 0.01845 0.71296 0.16803 0.0
C469 C 0.04468 0.71952 0.16299 0.0
C470 C 0.99927 0.73189 0.16481 0.0
C471 C 0.00586 0.75778 0.15634 0.0
C472 C 0.03201 0.7641 0.14933 0.0
C473 C 0.05122 0.74517 0.15265 0.0
C474 C 0.97114 0.8199 0.18581 0.0
C475 C 0.94587 0.81486 0.17102 0.0
C476 C 0.99083 0.80179 0.17954 0.0
C477 C 0.98573 0.77828 0.15817 0.0
C478 C 0.96075 0.77382 0.14157 0.0
C479 C 0.94103 0.79191 0.14797 0.0
H480 H 0.16101 0.1598 0.84495 0.0
H481 H 0.1493 0.09132 0.92311 0.0
H482 H 0.19801 0.17154 0.88944 0.0
H483 H 0.18639 0.10345 0.96832 0.0
H484 H 0.27214 0.12115 0.0065 0.0
H485 H 0.23418 0.10776 0.96442 0.0
H486 H 0.20716 0.18676 0.96245 0.0
H487 H 0.24505 0.20017 0.00363 0.0
C488 C 0.16622 0.14726 0.87177 0.0
C489 C 0.15206 0.12459 0.88039 0.0
C490 C 0.18741 0.15411 0.89749 0.0
C491 C 0.19512 0.13852 0.93261 0.0
C492 C 0.18108 0.11578 0.94129 0.0
C493 C 0.15972 0.10892 0.91554 0.0
C494 C 0.25806 0.13563 0.9971 0.0
C495 C 0.26175 0.16176 0.00818 0.0
C496 C 0.23623 0.12793 0.97324 0.0
C497 C 0.2177 0.14621 0.95984 0.0
C498 C 0.22125 0.17224 0.9716 0.0
C499 C 0.24297 0.17991 0.99542 0.0
H500 H 0.66834 0.413 0.13835 0.0
H501 H 0.58735 0.39816 0.11407 0.0
H502 H 0.6569 0.45214 0.17848 0.0
H503 H 0.57576 0.43618 0.1559 0.0
H504 H 0.56126 0.51861 0.19159 0.0
H505 H 0.57524 0.48073 0.15136 0.0
H506 H 0.63887 0.47046 0.24129 0.0
H507 H 0.6255 0.50944 0.28008 0.0
C508 C 0.64808 0.4179 0.1422 0.0
C509 C 0.62877 0.40264 0.12271 0.0
C510 C 0.64147 0.44031 0.16536 0.0
C511 C 0.61535 0.44771 0.17012 0.0
C512 C 0.5961 0.43174 0.1519 0.0
C513 C 0.60273 0.40971 0.12817 0.0
C514 C 0.57833 0.50834 0.2026 0.0
C515 C 0.5922 0.51693 0.23909 0.0
C516 C 0.58626 0.4864 0.17976 0.0
C517 C 0.608 0.47205 0.19333 0.0
C518 C 0.6222 0.48102 0.22948 0.0
C519 C 0.61449 0.50333 0.25189 0.0
H520 H 0.36161 0.92033 0.41073 0.0
H521 H 0.34372 0.84664 0.35149 0.0
H522 H 0.32309 0.91665 0.4561 0.0
H523 H 0.30558 0.8428 0.39741 0.0
H524 H 0.22572 0.85467 0.45531 0.0
H525 H 0.26297 0.86148 0.40794 0.0
H526 H 0.30654 0.89165 0.51667 0.0
H527 H 0.2692 0.88535 0.56379 0.0
C528 C 0.34957 0.90329 0.40748 0.0
C529 C 0.35584 0.88379 0.37735 0.0
C530 C 0.32751 0.90115 0.43364 0.0
C531 C 0.31115 0.87948 0.43032 0.0
C532 C 0.31748 0.85997 0.40032 0.0
C533 C 0.33952 0.86209 0.37419 0.0
C534 C 0.24316 0.863 0.46903 0.0
C535 C 0.24448 0.86938 0.51341 0.0
C536 C 0.26459 0.86672 0.44193 0.0
C537 C 0.28785 0.87692 0.45854 0.0
C538 C 0.28889 0.88397 0.50267 0.0
C539 C 0.26748 0.88024 0.52976 0.0
H540 H 0.91685 0.60464 0.6033 0.0
H541 H 0.83751 0.598 0.64609 0.0
H542 H 0.92832 0.56683 0.64568 0.0
H543 H 0.84871 0.55909 0.68719 0.0
H544 H 0.8844 0.50302 0.78792 0.0
H545 H 0.8708 0.54162 0.74807 0.0
H546 H 0.92397 0.52211 0.64459 0.0
H547 H 0.93829 0.48456 0.68533 0.0
C548 C 0.90177 0.59492 0.62154 0.0
C549 C 0.87623 0.60422 0.62106 0.0
C550 C 0.90831 0.57304 0.64566 0.0
C551 C 0.8894 0.55947 0.66941 0.0
C552 C 0.86387 0.56907 0.66961 0.0
C553 C 0.85739 0.59133 0.64591 0.0
C554 C 0.89303 0.50701 0.75654 0.0
C555 C 0.91259 0.49093 0.73992 0.0
C556 C 0.88518 0.52908 0.73357 0.0
C557 C 0.8965 0.53532 0.69325 0.0
C558 C 0.91532 0.5185 0.67607 0.0
C559 C 0.92343 0.49678 0.69928 0.0
H560 H 0.74428 0.87453 0.95513 0.0
H561 H 0.72898 0.81525 0.05035 0.0
H562 H 0.78183 0.88877 0.99703 0.0
H563 H 0.7652 0.83038 0.09389 0.0
H564 H 0.84642 0.84219 0.14035 0.0
H565 H 0.80937 0.82964 0.09685 0.0
H566 H 0.79863 0.90932 0.05782 0.0
H567 H 0.83709 0.92145 0.09944 0.0
C568 C 0.74873 0.86487 0.98549 0.0
C569 C 0.73391 0.84366 -0.00064 0.0
C570 C 0.77019 0.8731 0.00972 0.0
C571 C 0.77696 0.86062 0.04887 0.0
C572 C 0.7613 0.84003 0.06335 0.0
C573 C 0.74031 0.83144 0.0386 0.0
C574 C 0.83616 0.85702 0.12239 0.0
C575 C 0.84458 0.88282 0.12346 0.0
C576 C 0.81466 0.84988 0.09765 0.0
C577 C 0.80049 0.86846 0.07408 0.0
C578 C 0.80909 0.89434 0.07499 0.0
C579 C 0.83107 0.90138 0.09904 0.0
H580 H 0.33506 0.59675 0.85154 0.0
H581 H 0.41649 0.61477 0.8612 0.0
H582 H 0.34552 0.55719 0.81167 0.0
H583 H 0.42693 0.57623 0.81978 0.0
H584 H 0.44178 0.49279 0.79286 0.0
H585 H 0.42841 0.53167 0.83083 0.0
H586 H 0.36138 0.53766 0.74704 0.0
H587 H 0.3743 0.49775 0.71033 0.0
C588 C 0.35515 0.59251 0.84435 0.0
C589 C 0.37498 0.60868 0.85988 0.0
C590 C 0.36117 0.56986 0.82144 0.0
C591 C 0.38714 0.56315 0.81311 0.0
C592 C 0.40678 0.5802 0.82677 0.0
C593 C 0.40079 0.60249 0.8502 0.0
C594 C 0.42409 0.50231 0.78272 0.0
C595 C 0.40918 0.49231 0.74847 0.0
C596 C 0.41651 0.5248 0.80422 0.0
C597 C 0.39405 0.53825 0.79153 0.0
C598 C 0.37871 0.52782 0.75792 0.0
C599 C 0.38613 0.50498 0.73678 0.0
H600 H 0.66533 0.09055 0.59725 0.0
H601 H 0.65341 0.17071 0.63069 0.0
H602 H 0.70395 0.10235 0.55607 0.0
H603 H 0.69084 0.18282 0.58765 0.0
H604 H 0.77284 0.19633 0.54674 0.0
H605 H 0.73533 0.18241 0.5881 0.0
H606 H 0.72122 0.12171 0.49416 0.0
H607 H 0.75991 0.13489 0.45432 0.0
C608 C 0.67078 0.11074 0.59523 0.0
C609 C 0.65649 0.12967 0.6175 0.0
C610 C 0.69287 0.11758 0.57143 0.0
C611 C 0.70088 0.14359 0.56868 0.0
C612 C 0.68593 0.16252 0.58993 0.0
C613 C 0.66424 0.15562 0.61439 0.0
C614 C 0.76176 0.17995 0.53506 0.0
C615 C 0.76924 0.16676 0.49725 0.0
C616 C 0.74004 0.17205 0.55857 0.0
C617 C 0.7248 0.15109 0.54435 0.0
C618 C 0.73253 0.13772 0.50659 0.0
C619 C 0.75465 0.14533 0.48354 0.0
H620 H 0.16827 0.39169 0.33022 0.0
H621 H 0.11 0.41852 0.42045 0.0
H622 H 0.1653 0.43248 0.29069 0.0
H623 H 0.10688 0.45903 0.38057 0.0
H624 H 0.12623 0.53828 0.32911 0.0
H625 H 0.13333 0.49765 0.36731 0.0
H626 H 0.13489 0.45702 0.24464 0.0
H627 H 0.12811 0.49775 0.20623 0.0
C628 C 0.15472 0.40618 0.34151 0.0
C629 C 0.13942 0.4018 0.37866 0.0
C630 C 0.15299 0.42953 0.31875 0.0
C631 C 0.13604 0.44908 0.33272 0.0
C632 C 0.1205 0.44455 0.36945 0.0
C633 C 0.12214 0.42121 0.39211 0.0
C634 C 0.12845 0.52076 0.31018 0.0
C635 C 0.12642 0.52126 0.26461 0.0
C636 C 0.1323 0.49744 0.33213 0.0
C637 C 0.13427 0.47406 0.30905 0.0
C638 C 0.13352 0.47471 0.26336 0.0
C639 C 0.12961 0.49806 0.24136 0.0
H640 H 0.63266 0.60407 0.43377 0.0
H641 H 0.67338 0.64209 0.32903 0.0
H642 H 0.6688 0.61364 0.48289 0.0
H643 H 0.70946 0.65124 0.37794 0.0
H644 H 0.77932 0.63944 0.46977 0.0
H645 H 0.74385 0.62567 0.42213 0.0
H646 H 0.68836 0.65636 0.51337 0.0
H647 H 0.72368 0.67045 0.56067 0.0
C648 C 0.64935 0.61429 0.42116 0.0
C649 C 0.65008 0.62242 0.37754 0.0
C650 C 0.66997 0.61982 0.44929 0.0
C651 C 0.69192 0.63312 0.43414 0.0
C652 C 0.69288 0.64076 0.39037 0.0
C653 C 0.67212 0.63566 0.36248 0.0
C654 C 0.75955 0.64307 0.47978 0.0
C655 C 0.75429 0.65614 0.51886 0.0
C656 C 0.73929 0.63528 0.45246 0.0
C657 C 0.71339 0.63997 0.4641 0.0
C658 C 0.70813 0.65234 0.50376 0.0
C659 C 0.72836 0.66053 0.53067 0.0
H660 H 0.0628 0.01771 0.69722 0.0
H661 H 0.12732 0.00599 0.78431 0.0
H662 H 0.07581 0.98016 0.65523 0.0
H663 H 0.13976 0.96737 0.74357 0.0
H664 H 0.16735 0.91114 0.63689 0.0
H665 H 0.15701 0.94985 0.67904 0.0
H666 H 0.07539 0.93541 0.65882 0.0
H667 H 0.08584 0.89779 0.61516 0.0
C668 C 0.07974 0.00696 0.70752 0.0
C669 C 0.09396 0.01473 0.74416 0.0
C670 C 0.08711 0.98522 0.68365 0.0
C671 C 0.10863 0.97027 0.69628 0.0
C672 C 0.12322 0.97842 0.73253 0.0
C673 C 0.11606 1.00053 0.75603 0.0
C674 C 0.14722 0.91626 0.64171 0.0
C675 C 0.12743 0.90156 0.62235 0.0
C676 C 0.14125 0.93842 0.666 0.0
C677 C 0.11533 0.94614 0.67199 0.0
C678 C 0.0956 0.93071 0.65391 0.0
C679 C 0.10157 0.90891 0.62911 0.0
H680 H 0.74073 0.31674 0.94108 0.0
H681 H 0.75052 0.38024 0.03072 0.0
H682 H 0.78 0.32941 0.90333 0.0
H683 H 0.7907 0.39241 0.99401 0.0
H684 H 0.85085 0.4193 0.89173 0.0
H685 H 0.81056 0.40966 0.93026 0.0
H686 H 0.82486 0.3279 0.91367 0.0
H687 H 0.86421 0.33757 0.8739 0.0
C688 C 0.75136 0.33341 0.9528 0.0
C689 C 0.74259 0.34739 0.98902 0.0
C690 C 0.77406 0.34058 0.93137 0.0
C691 C 0.78893 0.36169 0.946 0.0
C692 C 0.77975 0.37615 0.98159 0.0
C693 C 0.75673 0.36915 0.00274 0.0
C694 C 0.8454 0.39929 0.89665 0.0
C695 C 0.86059 0.37921 0.87935 0.0
C696 C 0.82232 0.39373 0.91882 0.0
C697 C 0.81411 0.36797 0.92455 0.0
C698 C 0.83001 0.34798 0.90879 0.0
C699 C 0.85277 0.35352 0.88624 0.0
H700 H 0.44701 0.98759 0.19372 0.0
H701 H 0.38716 1.00219 0.28845 0.0
H702 H 0.43403 0.02582 0.15352 0.0
H703 H 0.37488 0.04146 0.24947 0.0
H704 H 0.34363 0.09693 0.14501 0.0
H705 H 0.35513 0.05867 0.18723 0.0
H706 H 0.43576 0.07053 0.15487 0.0
H707 H 0.42398 0.10775 0.11096 0.0
C708 C 0.43119 0.99916 0.20618 0.0
C709 C 0.41814 0.99191 0.24429 0.0
C710 C 0.42384 0.02129 0.1833 0.0
C711 C 0.40356 0.03712 0.19836 0.0
C712 C 0.39038 0.02969 0.23647 0.0
C713 C 0.39747 0.00722 0.25899 0.0
C714 C 0.36381 0.09137 0.14718 0.0
C715 C 0.38287 0.1052 0.12433 0.0
C716 C 0.37046 0.06947 0.17156 0.0
C717 C 0.39639 0.06116 0.17423 0.0
C718 C 0.4155 0.07574 0.15266 0.0
C719 C 0.40879 0.09728 0.1277 0.0
H720 H 0.24852 0.37075 0.46128 0.0
H721 H 0.24341 0.30591 0.54924 0.0
H722 H 0.2883 0.38483 0.49699 0.0
H723 H 0.2823 0.32055 0.58638 0.0
H724 H 0.36505 0.33543 0.61881 0.0
H725 H 0.32695 0.32269 0.57781 0.0
H726 H 0.30694 0.40318 0.55972 0.0
H727 H 0.34608 0.41585 0.59907 0.0
C728 C 0.25572 0.35972 0.48867 0.0
C729 C 0.24293 0.33714 0.50232 0.0
C730 C 0.2785 0.36784 0.50929 0.0
C731 C 0.28882 0.35374 0.54443 0.0
C732 C 0.27547 0.33155 0.55871 0.0
C733 C 0.25298 0.32324 0.53767 0.0
C734 C 0.35264 0.35041 0.60568 0.0
C735 C 0.35846 0.37663 0.61237 0.0
C736 C 0.33059 0.34312 0.58249 0.0
C737 C 0.31341 0.36184 0.56608 0.0
C738 C 0.31973 0.38817 0.57156 0.0
C739 C 0.34214 0.39548 0.59419 0.0
H740 H 0.84762 0.11314 0.3237 0.0
H741 H 0.9142 0.09542 0.40373 0.0
H742 H 0.85795 0.07639 0.27685 0.0
H743 H 0.92412 0.0587 0.35749 0.0
H744 H 0.95066 0.01208 0.24117 0.0
H745 H 0.93958 0.04993 0.28426 0.0
H746 H 0.85876 0.02861 0.27889 0.0
H747 H 0.8698 0.9908 0.23499 0.0
C748 C 0.86442 0.10146 0.33135 0.0
C749 C 0.88009 0.10732 0.36749 0.0
C750 C 0.87023 0.08031 0.30464 0.0
C751 C 0.8919 0.06467 0.31338 0.0
C752 C 0.90752 0.07057 0.34946 0.0
C753 C 0.90171 0.09159 0.37616 0.0
C754 C 0.9305 0.01545 0.24903 0.0
C755 C 0.91113 0.99834 0.2348 0.0
C756 C 0.92417 0.03711 0.27394 0.0
C757 C 0.89831 0.04221 0.28524 0.0
C758 C 0.87885 0.02534 0.27041 0.0
C759 C 0.88519 0.0036 0.24549 0.0
H760 H 0.16185 0.59215 0.12796 0.0
H761 H 0.13586 0.6696 0.09879 0.0
H762 H 0.20138 0.59997 0.08535 0.0
H763 H 0.17439 0.67707 0.05586 0.0
H764 H 0.25693 0.69681 0.0333 0.0
H765 H 0.21903 0.68396 0.07436 0.0
H766 H 0.22001 0.60913 0.01194 0.0
H767 H 0.25883 0.62191 0.97124 0.0
C768 C 0.16437 0.61062 0.11189 0.0
C769 C 0.14599 0.63041 0.11733 0.0
C770 C 0.18695 0.6151 0.08752 0.0
C771 C 0.19133 0.63938 0.06808 0.0
C772 C 0.17209 0.65845 0.07153 0.0
C773 C 0.14987 0.6541 0.09599 0.0
C774 C 0.24921 0.67756 0.02835 0.0
C775 C 0.2607 0.66052 -0.00143 0.0
C776 C 0.22735 0.67021 0.05177 0.0
C777 C 0.2161 0.6457 0.04575 0.0
C778 C 0.22818 0.62816 0.01728 0.0
C779 C 0.25034 0.6355 0.99391 0.0
H780 H 0.55553 0.00349 0.75714 0.0
H781 H 0.63623 0.02073 0.73402 0.0
H782 H 0.56783 0.96555 0.7989 0.0
H783 H 0.6486 0.98276 0.77672 0.0
H784 H 0.65762 0.89663 0.81809 0.0
H785 H 0.64692 0.93491 0.77492 0.0
H786 H 0.58788 0.95549 0.86804 0.0
H787 H 0.5981 0.91733 0.91054 0.0
C788 C 0.57594 0.99928 0.76115 0.0
C789 C 0.59489 0.01523 0.74232 0.0
C790 C 0.583 0.97755 0.78531 0.0
C791 C 0.60921 0.97116 0.79136 0.0
C792 C 0.62823 0.98701 0.77235 0.0
C793 C 0.62114 0.00887 0.74816 0.0
C794 C 0.64235 0.90932 0.82931 0.0
C795 C 0.62865 0.90374 0.86772 0.0
C796 C 0.63633 0.93134 0.8047 0.0
C797 C 0.61644 0.94819 0.8179 0.0
C798 C 0.60301 0.94272 0.85652 0.0
C799 C 0.60901 0.92083 0.88105 0.0
H800 H 0.44691 0.10751 0.93487 0.0
H801 H 0.43143 0.1743 0.85449 0.0
H802 H 0.48124 0.09433 0.88503 0.0
H803 H 0.46579 0.16112 0.80489 0.0
H804 H 0.51594 0.11694 0.70659 0.0
H805 H 0.47838 0.12611 0.7524 0.0
H806 H 0.52485 0.11298 0.86712 0.0
H807 H 0.56231 0.10368 0.82144 0.0
C808 C 0.45058 0.11918 0.9063 0.0
C809 C 0.43655 0.14203 0.89875 0.0
C810 C 0.47035 0.11172 0.87795 0.0
C811 C 0.4763 0.12681 0.84129 0.0
C812 C 0.46153 0.14904 0.83274 0.0
C813 C 0.44193 0.15663 0.86127 0.0
C814 C 0.51808 0.11588 0.74159 0.0
C815 C 0.54209 0.10973 0.76049 0.0
C816 C 0.49662 0.12124 0.76776 0.0
C817 C 0.49869 0.12018 0.81329 0.0
C818 C 0.5226 0.11363 0.83211 0.0
C819 C 0.54409 0.10853 0.80598 0.0
H820 H 0.57897 0.67882 0.1112 0.0
H821 H 0.64696 0.69438 0.18901 0.0
H822 H 0.592 0.71243 0.06006 0.0
H823 H 0.65997 0.728 0.13765 0.0
H824 H 0.65093 0.80808 0.07038 0.0
H825 H 0.64157 0.7716 0.11808 0.0
H826 H 0.62702 0.72338 0.00604 0.0
H827 H 0.63634 0.75995 0.95813 0.0
C828 C 0.59684 0.68923 0.11715 0.0
C829 C 0.61188 0.68403 0.15425 0.0
C830 C 0.60434 0.70838 0.08773 0.0
C831 C 0.62692 0.72289 0.09501 0.0
C832 C 0.64233 0.71726 0.1315 0.0
C833 C 0.63496 0.69792 0.16072 0.0
C834 C 0.64582 0.78968 0.0559 0.0
C835 C 0.64431 0.78689 0.01052 0.0
C836 C 0.64065 0.76875 0.08321 0.0
C837 C 0.63365 0.74465 0.06574 0.0
C838 C 0.63225 0.74179 0.02036 0.0
C839 C 0.63769 0.76268 0.99298 0.0
H840 H 0.984 0.89055 0.21677 0.0
H841 H 0.93862 0.91051 0.32984 0.0
H842 H 0.02001 0.87808 0.26375 0.0
H843 H 0.97477 0.89806 0.37684 0.0
H844 H 0.05484 0.89693 0.4431 0.0
H845 H 0.0208 0.91225 0.39413 0.0
H846 H 0.02787 0.84238 0.31824 0.0
H847 H 0.06179 0.82701 0.36708 0.0
C848 C 0.98177 0.89245 0.25164 0.0
C849 C 0.95843 0.90142 0.26966 0.0
C850 C 1.00235 0.88518 0.27851 0.0
C851 C 1.00018 0.8871 0.32392 0.0
C852 C 0.97706 0.89661 0.34192 0.0
C853 C 0.95634 0.90358 0.31506 0.0
C854 C 0.0493 0.88496 0.41572 0.0
C855 C 0.06098 0.86074 0.40898 0.0
C856 C 0.0297 0.89366 0.3879 0.0
C857 C 0.02166 0.87847 0.35248 0.0
C858 C 0.03382 0.85458 0.34509 0.0
C859 C 0.05317 0.84575 0.37317 0.0
H860 H 0.85103 0.19641 0.57678 0.0
H861 H 0.88005 0.242 0.46968 0.0
H862 H 0.86408 0.23035 0.62762 0.0
H863 H 0.89327 0.27589 0.52066 0.0
H864 H 0.94268 0.30917 0.63624 0.0
H865 H 0.92708 0.27829 0.5822 0.0
H866 H 0.85201 0.27773 0.64384 0.0
H867 H 0.86751 0.30881 0.69791 0.0
C868 C 0.86015 0.21373 0.56419 0.0
C869 C 0.86462 0.21661 0.51944 0.0
C870 C 0.86744 0.23317 0.59317 0.0
C871 C 0.87959 0.2557 0.57795 0.0
C872 C 0.88399 0.25863 0.53315 0.0
C873 C 0.87634 0.23934 0.50406 0.0
C874 C 0.92279 0.3026 0.6381 0.0
C875 C 0.90632 0.31129 0.67138 0.0
C876 C 0.91385 0.28506 0.60704 0.0
C877 C 0.8884 0.27564 0.60903 0.0
C878 C 0.87179 0.28461 0.64186 0.0
C879 C 0.88061 0.30246 0.6726 0.0
H880 H 0.54906 0.81496 0.08483 0.0
H881 H 0.5793 0.89291 0.08468 0.0
H882 H 0.51574 0.82788 0.13668 0.0
H883 H 0.54606 0.90565 0.13731 0.0
H884 H 0.49794 0.90542 0.26757 0.0
H885 H 0.53286 0.89259 0.21845 0.0
H886 H 0.47672 0.86093 0.12909 0.0
H887 H 0.44171 0.87444 0.17723 0.0
C888 C 0.54879 0.83478 0.09625 0.0
C889 C 0.56674 0.85297 0.08066 0.0
C890 C 0.52964 0.84215 0.1257 0.0
C891 C 0.52838 0.86772 0.14069 0.0
C892 C 0.54677 0.88578 0.12624 0.0
C893 C 0.56567 0.87851 0.09611 0.0
C894 C 0.49302 0.89572 0.23746 0.0
C895 C 0.46706 0.8906 0.22657 0.0
C896 C 0.513 0.88848 0.20939 0.0
C897 C 0.50738 0.87567 0.17031 0.0
C898 C 0.4815 0.87054 0.15936 0.0
C899 C 0.46151 0.87823 0.18696 0.0
H900 H 0.36349 0.30575 0.79473 0.0
H901 H 0.43539 0.31339 0.86561 0.0
H902 H 0.34909 0.27276 0.84639 0.0
H903 H 0.42088 0.2806 0.91721 0.0
H904 H 0.37302 0.23943 0.02375 0.0
H905 H 0.38522 0.27447 0.97437 0.0
H906 H 0.36485 0.22673 0.86434 0.0
H907 H 0.3528 0.19164 0.91364 0.0
C908 C 0.37608 0.30058 0.82154 0.0
C909 C 0.40058 0.31207 0.82608 0.0
C910 C 0.3679 0.28163 0.85089 0.0
C911 C 0.38392 0.27415 0.88565 0.0
C912 C 0.4081 0.28616 0.89086 0.0
C913 C 0.41642 0.30481 0.8612 0.0
C914 C 0.37106 0.2365 0.98903 0.0
C915 C 0.36206 0.21284 0.97242 0.0
C916 C 0.37813 0.25647 0.96084 0.0
C917 C 0.37587 0.25328 0.91563 0.0
C918 C 0.36651 0.22976 0.89909 0.0
C919 C 0.35981 0.20966 0.92723 0.0
H920 H 0.05838 0.09947 0.67429 0.0
H921 H 0.01305 0.11764 0.78823 0.0
H922 H 0.02166 0.11057 0.62797 0.0
H923 H 0.97615 0.12859 0.74175 0.0
H924 H 0.93187 0.17747 0.63698 0.0
H925 H 0.96548 0.16327 0.68742 0.0
H926 H 0.97718 0.09438 0.6106 0.0
H927 H 0.94365 0.10858 0.55994 0.0
C928 C 0.04054 0.10582 0.68941 0.0
C929 C 0.03861 0.10784 0.73483 0.0
C930 C 0.01945 0.11194 0.66292 0.0
C931 C 0.99601 0.12035 0.68126 0.0
C932 C 0.99403 0.12229 0.72673 0.0
C933 C 0.01509 0.11591 0.7533 0.0
C934 C 0.94139 0.15914 0.63111 0.0
C935 C 0.93519 0.14421 0.59433 0.0
C936 C 0.96056 0.15097 0.66012 0.0
C937 C 0.97406 0.12781 0.65276 0.0
C938 C 0.96729 0.11248 0.61677 0.0
C939 C 0.94797 0.12053 0.58795 0.0
H940 H 0.13855 0.81276 0.41647 0.0
H941 H 0.14188 0.76111 0.52674 0.0
H942 H 0.12639 0.77683 0.36971 0.0
H943 H 0.12996 0.72486 0.47946 0.0
H944 H 0.07779 0.67619 0.3834 0.0
H945 H 0.09202 0.70935 0.43489 0.0
H946 H 0.14714 0.73749 0.3406 0.0
H947 H 0.1329 0.7047 0.28917 0.0
C948 C 0.13665 0.79371 0.43075 0.0
C949 C 0.14111 0.7898 0.47532 0.0
C950 C 0.1299 0.77307 0.40386 0.0
C951 C 0.12743 0.74797 0.42083 0.0
C952 C 0.13163 0.74401 0.46552 0.0
C953 C 0.13857 0.76472 0.4925 0.0
C954 C 0.09316 0.68926 0.37387 0.0
C955 C 0.10402 0.68794 0.332 0.0
C956 C 0.10135 0.70819 0.40342 0.0
C957 C 0.12045 0.72622 0.39156 0.0
C958 C 0.13204 0.72417 0.35039 0.0
C959 C 0.12396 0.70525 0.321 0.0
H960 H 0.95806 0.68942 0.40183 0.0
H961 H 0.92804 0.61159 0.40933 0.0
H962 H 0.99115 0.67512 0.35127 0.0
H963 H 0.96053 0.59735 0.35695 0.0
H964 H 0.03932 0.57551 0.29933 0.0
H965 H 0.00534 0.58912 0.34952 0.0
H966 H 0.99808 0.66132 0.27956 0.0
H967 H 0.03262 0.6479 0.23083 0.0
C968 C 0.95829 0.66928 0.39214 0.0
C969 C 0.94042 0.65163 0.40954 0.0
C970 C 0.97722 0.66108 0.3629 0.0
C971 C 0.97854 0.63506 0.34977 0.0
C972 C 0.96039 0.61745 0.36681 0.0
C973 C 0.94163 0.62562 0.39658 0.0
C974 C 0.03041 0.59429 0.2949 0.0
C975 C 0.03885 0.6109 0.26172 0.0
C976 C 0.01082 0.60205 0.32342 0.0
C977 C 0.99897 0.62642 0.31885 0.0
C978 C 0.00712 0.64269 0.28483 0.0
C979 C 0.0269 0.63504 0.25675 0.0
H980 H 0.14986 0.18716 0.69028 0.0
H981 H 0.08292 0.17181 0.60981 0.0
H982 H 0.163 0.22159 0.64064 0.0
H983 H 0.09613 0.20623 0.56032 0.0
H984 H 0.14139 0.25631 0.46263 0.0
H985 H 0.13189 0.21879 0.50818 0.0
H986 H 0.14336 0.26529 0.62323 0.0
H987 H 0.15289 0.3028 0.57784 0.0
C988 C 0.13818 0.19084 0.66167 0.0
C989 C 0.11528 0.17687 0.65406 0.0
C990 C 0.14561 0.21067 0.63348 0.0
C991 C 0.13045 0.21669 0.5969 0.0
C992 C 0.10823 0.20191 0.58817 0.0
C993 C 0.10065 0.18227 0.61659 0.0
C994 C 0.14198 0.2585 0.49765 0.0
C995 C 0.14785 0.2825 0.5167 0.0
C996 C 0.13645 0.23705 0.52365 0.0
C997 C 0.13703 0.23913 0.56917 0.0
C998 C 0.14313 0.26307 0.5882 0.0
C999 C 0.14838 0.28457 0.56223 0.0
H1000 H 0.44074 0.3846 0.82052 0.0
H1001 H 0.49605 0.4072 0.72214 0.0
H1002 H 0.47616 0.37097 0.86774 0.0
H1003 H 0.53155 0.39444 0.77058 0.0
H1004 H 0.57985 0.39499 0.90678 0.0
H1005 H 0.54674 0.40964 0.85496 0.0
H1006 H 0.5132 0.33324 0.85413 0.0
H1007 H 0.5464 0.31837 0.90481 0.0
C1008 C 0.46043 0.38664 0.80892 0.0
C1009 C 0.46556 0.3964 0.76716 0.0
C1010 C 0.48064 0.37893 0.83603 0.0
C1011 C 0.50642 0.38155 0.82247 0.0
C1012 C 0.51175 0.39224 0.78154 0.0
C1013 C 0.49145 0.39946 0.75392 0.0
C1014 C 0.56555 0.3813 0.89515 0.0
C1015 C 0.56566 0.35557 0.90983 0.0
C1016 C 0.54675 0.38966 0.86551 0.0
C1017 C 0.52752 0.37252 0.85096 0.0
C1018 C 0.52784 0.34677 0.86516 0.0
C1019 C 0.54688 0.33829 0.89398 0.0
H1020 H 0.34668 0.74633 0.97582 0.0
H1021 H 0.36996 0.68695 0.06671 0.0
H1022 H 0.35995 0.77957 0.02829 0.0
H1023 H 0.38376 0.72001 0.11803 0.0
H1024 H 0.43607 0.7858 0.16771 0.0
H1025 H 0.42061 0.75495 0.11377 0.0
H1026 H 0.34667 0.79371 0.10995 0.0
H1027 H 0.36201 0.82467 0.16481 0.0
C1028 C 0.35465 0.74037 0.00682 0.0
C1029 C 0.35775 0.714 0.01677 0.0
C1030 C 0.36212 0.75937 0.0368 0.0
C1031 C 0.37306 0.75226 0.07689 0.0
C1032 C 0.37568 0.72597 0.08708 0.0
C1033 C 0.36783 0.70707 0.0576 0.0
C1034 C 0.41654 0.78788 0.15535 0.0
C1035 C 0.4002 0.8076 0.17066 0.0
C1036 C 0.4077 0.77016 0.12457 0.0
C1037 C 0.38247 0.77198 0.10792 0.0
C1038 C 0.36625 0.79203 0.12227 0.0
C1039 C 0.37497 0.80959 0.15374 0.0
H1040 H 0.0553 0.31608 0.59905 0.0
H1041 H 0.08681 0.39348 0.59581 0.0
H1042 H 0.02213 0.33027 0.65016 0.0
H1043 H 0.05369 0.40749 0.64801 0.0
H1044 H 1.00276 0.40757 0.77877 0.0
H1045 H 0.03868 0.39442 0.73149 0.0
H1046 H 0.98402 0.36529 0.63733 0.0
H1047 H 0.94824 0.37932 0.6832 0.0
C1048 C 0.0554 0.33603 0.60973 0.0
C1049 C 0.07364 0.3537 0.59332 0.0
C1050 C 0.03635 0.34413 0.63884 0.0
C1051 C 0.03542 0.36993 0.65281 0.0
C1052 C 0.05416 0.38746 0.63777 0.0
C1053 C 0.07298 0.37946 0.60787 0.0
C1054 C 0.99842 0.3984 0.74795 0.0
C1055 C 0.97263 0.39397 0.73517 0.0
C1056 C 0.01895 0.39097 0.72096 0.0
C1057 C 0.01401 0.37865 0.68113 0.0
C1058 C 0.9883 0.37445 0.6682 0.0
C1059 C 0.96785 0.38236 0.69462 0.0
H1060 H 0.85809 0.81146 0.30218 0.0
H1061 H 0.92517 0.82777 0.38175 0.0
H1062 H 0.84636 0.77601 0.35078 0.0
H1063 H 0.91322 0.79238 0.43051 0.0
H1064 H 0.86445 0.74392 0.5293 0.0
H1065 H 0.87611 0.78048 0.48285 0.0
H1066 H 0.8672 0.73227 0.36921 0.0
H1067 H 0.85575 0.69564 0.41552 0.0
C1068 C 0.87018 0.80766 0.33026 0.0
C1069 C 0.89258 0.82238 0.33811 0.0
C1070 C 0.86355 0.78726 0.35787 0.0
C1071 C 0.87897 0.78141 0.3942 0.0
C1072 C 0.90096 0.79657 0.4028 0.0
C1073 C 0.90781 0.81675 0.37483 0.0
C1074 C 0.86498 0.74113 0.49441 0.0
C1075 C 0.85909 0.71694 0.476 0.0
C1076 C 0.87177 0.76201 0.4679 0.0
C1077 C 0.87238 0.7592 0.42249 0.0
C1078 C 0.86657 0.73502 0.40412 0.0
C1079 C 0.86016 0.71405 0.43062 0.0
H1080 H 0.44787 0.61364 0.04083 0.0
H1081 H 0.44283 0.68642 0.10937 0.0
H1082 H 0.48017 0.59855 0.0933 0.0
H1083 H 0.47495 0.67126 0.16171 0.0
H1084 H 0.51374 0.62391 0.27045 0.0
H1085 H 0.47932 0.63635 0.22002 0.0
H1086 H 0.52672 0.61224 0.11178 0.0
H1087 H 0.56123 0.59989 0.16218 0.0
C1088 C 0.45349 0.6263 0.06727 0.0
C1089 C 0.4429 0.65122 0.07095 0.0
C1090 C 0.47205 0.61772 0.09708 0.0
C1091 C 0.48003 0.63377 0.13144 0.0
C1092 C 0.46897 0.65843 0.13571 0.0
C1093 C 0.45071 0.66714 0.10561 0.0
C1094 C 0.51673 0.62111 0.23591 0.0
C1095 C 0.54016 0.61103 0.22014 0.0
C1096 C 0.49711 0.62835 0.20711 0.0
C1097 C 0.5004 0.62521 0.16208 0.0
C1098 C 0.52361 0.61463 0.14638 0.0
C1099 C 0.54338 0.60773 0.17514 0.0
H1100 H 0.6445 0.26219 0.03237 0.0
H1101 H 0.64638 0.31214 0.91981 0.0
H1102 H 0.63369 0.22542 0.98548 0.0
H1103 H 0.63582 0.27546 0.8732 0.0
H1104 H 0.64621 0.19902 0.80054 0.0
H1105 H 0.65851 0.23339 0.85094 0.0
H1106 H 0.59545 0.21212 0.93573 0.0
H1107 H 0.58294 0.17778 0.88522 0.0
C1108 C 0.64263 0.2653 -0.00232 0.0
C1109 C 0.64629 0.29003 0.97973 0.0
C1110 C 0.63637 0.24431 0.97094 0.0
C1111 C 0.63413 0.2476 0.92574 0.0
C1112 C 0.63777 0.27232 0.90788 0.0
C1113 C 0.64364 0.29333 0.93461 0.0
C1114 C 0.63515 0.20145 0.83016 0.0
C1115 C 0.61354 0.18575 0.83883 0.0
C1116 C 0.6421 0.22122 0.85884 0.0
C1117 C 0.62782 0.22548 0.89703 0.0
C1118 C 0.60684 0.20917 0.90659 0.0
C1119 C 0.59966 0.18959 0.87761 0.0
H1120 H 0.31374 0.23255 0.16596 0.0
H1121 H 0.2572 0.17556 0.2052 0.0
H1122 H 0.2939 0.26407 0.21409 0.0
H1123 H 0.23778 0.20695 0.2546 0.0
H1124 H 0.19281 0.27704 0.30342 0.0
H1125 H 0.21251 0.24591 0.25398 0.0
H1126 H 0.28842 0.2744 0.2889 0.0
H1127 H 0.26872 0.306 0.33715 0.0
C1128 C 0.29724 0.22663 0.18527 0.0
C1129 C 0.28706 0.20151 0.18173 0.0
C1130 C 0.28591 0.24472 0.21305 0.0
C1131 C 0.26421 0.2381 0.23825 0.0
C1132 C 0.25422 0.21285 0.23514 0.0
C1133 C 0.26548 0.19477 0.2071 0.0
C1134 C 0.2137 0.27677 0.30028 0.0
C1135 C 0.22919 0.29405 0.32416 0.0
C1136 C 0.22501 0.25876 0.27222 0.0
C1137 C 0.25208 0.25752 0.26758 0.0
C1138 C 0.26751 0.275 0.29119 0.0
C1139 C 0.2562 0.29311 0.31901 0.0
H1140 H 0.51698 0.5404 0.38486 0.0
H1141 H 0.57754 0.52264 0.47726 0.0
H1142 H 0.48651 0.51458 0.42702 0.0
H1143 H 0.5469 0.4968 0.51947 0.0
H1144 H 0.47637 0.47921 0.60667 0.0
H1145 H 0.50677 0.50469 0.56404 0.0
H1146 H 0.47976 0.46758 0.4467 0.0
H1147 H 0.44916 0.4419 0.4894 0.0
C1148 C 0.52379 0.53107 0.41426 0.0
C1149 C 0.5497 0.53362 0.42779 0.0
C1150 C 0.50635 0.51612 0.43818 0.0
C1151 C 0.51434 0.50364 0.47643 0.0
C1152 C 0.54017 0.50636 0.49023 0.0
C1153 C 0.55772 0.52108 0.46601 0.0
C1154 C 0.47681 0.47646 0.57176 0.0
C1155 C 0.46029 0.4585 0.55141 0.0
C1156 C 0.49438 0.49096 0.54742 0.0
C1157 C 0.4957 0.48806 0.50211 0.0
C1158 C 0.47903 0.47032 0.4816 0.0
C1159 C 0.46159 0.45557 0.50604 0.0
H1160 H 0.17661 0.76661 0.7041 0.0
H1161 H 0.2409 0.81089 0.65375 0.0
H1162 H 0.20586 0.74439 0.75391 0.0
H1163 H 0.27021 0.7882 0.7026 0.0
H1164 H 0.31044 0.76218 0.82749 0.0
H1165 H 0.2813 0.78454 0.77796 0.0
H1166 H 0.24034 0.71302 0.7544 0.0
H1167 H 0.26911 0.69076 0.80496 0.0
C1168 C 0.19698 0.77157 0.70358 0.0
C1169 C 0.20639 0.79057 0.67499 0.0
C1170 C 0.2138 0.75868 0.73192 0.0
C1171 C 0.24044 0.76442 0.73222 0.0
C1172 C 0.24978 0.78352 0.70371 0.0
C1173 C 0.23296 0.79647 0.67553 0.0
C1174 C 0.29529 0.75117 0.81164 0.0
C1175 C 0.29211 0.72467 0.82026 0.0
C1176 C 0.27863 0.76399 0.78304 0.0
C1177 C 0.2584 0.75062 0.7622 0.0
C1178 C 0.25544 0.72402 0.7704 0.0
C1179 C 0.27207 0.7112 0.79913 0.0
H1180 H 0.05459 0.55638 0.04724 0.0
H1181 H 0.02555 0.49816 0.13542 0.0
H1182 H 0.02677 0.53936 0.98981 0.0
H1183 H 0.99743 0.48151 0.07832 0.0
H1184 H 0.97147 0.44203 0.952 0.0
H1185 H 0.99941 0.4586 0.00949 0.0
H1186 H 0.98097 0.53681 0.97108 0.0
H1187 H 0.95343 0.52027 0.91301 0.0
C1188 C 0.04229 0.53996 0.05438 0.0
C1189 C 0.0423 0.52863 0.09591 0.0
C1190 C 0.0262 0.53033 0.02156 0.0
C1191 C 0.00981 0.50913 0.02952 0.0
C1192 C 0.01002 0.49767 0.07096 0.0
C1193 C 0.02608 0.50731 0.10376 0.0
C1194 C 0.97328 0.46276 0.95591 0.0
C1195 C 0.96024 0.47982 0.92783 0.0
C1196 C 0.98923 0.47226 0.989 0.0
C1197 C 0.99251 0.49903 0.99479 0.0
C1198 C 0.97919 0.51608 0.96706 0.0
C1199 C 0.96325 0.50658 0.93397 0.0
H1200 H 0.76426 0.81399 0.82919 0.0
H1201 H 0.69093 0.77581 0.80737 0.0
H1202 H 0.78592 0.78126 0.78542 0.0
H1203 H 0.71256 0.74336 0.76285 0.0
H1204 H 0.76341 0.6749 0.72364 0.0
H1205 H 0.74274 0.7072 0.77005 0.0
H1206 H 0.78919 0.76702 0.7107 0.0
H1207 H 0.81014 0.73487 0.66516 0.0
C1208 C 0.75271 0.79877 0.81471 0.0
C1209 C 0.72585 0.79755 0.82177 0.0
C1210 C 0.76513 0.78002 0.78953 0.0
C1211 C 0.75099 0.75962 0.77078 0.0
C1212 C 0.72408 0.75858 0.77742 0.0
C1213 C 0.71165 0.77733 0.80261 0.0
C1214 C 0.76936 0.69491 0.72081 0.0
C1215 C 0.78841 0.70228 0.69066 0.0
C1216 C 0.75737 0.71345 0.74713 0.0
C1217 C 0.76422 0.73972 0.74392 0.0
C1218 C 0.78363 0.74695 0.71436 0.0
C1219 C 0.79557 0.72848 0.68808 0.0
H1220 H 0.69502 0.29072 0.19688 0.0
H1221 H 0.77146 0.30945 0.14932 0.0
H1222 H 0.7139 0.2599 0.24785 0.0
H1223 H 0.79023 0.27814 0.19917 0.0
H1224 H 0.81771 0.23832 0.32265 0.0
H1225 H 0.79865 0.27018 0.27412 0.0
H1226 H 0.73473 0.21839 0.24856 0.0
H1227 H 0.75344 0.18677 0.29831 0.0
C1228 C 0.71585 0.28829 0.19734 0.0
C1229 C 0.73173 0.30257 0.16906 0.0
C1230 C 0.72666 0.27046 0.2263 0.0
C1231 C 0.75359 0.2664 0.22749 0.0
C1232 C 0.76946 0.28098 0.19959 0.0
C1233 C 0.75867 0.29891 0.17085 0.0
C1234 C 0.79963 0.23366 0.30657 0.0
C1235 C 0.7871 0.20997 0.31435 0.0
C1236 C 0.78874 0.25193 0.27857 0.0
C1237 C 0.76512 0.24691 0.2574 0.0
C1238 C 0.75272 0.22309 0.26486 0.0
C1239 C 0.76356 0.20485 0.29311 0.0
H1240 H 0.03399 0.0618 0.94783 0.0
H1241 H 0.0545 0.985 0.90457 0.0
H1242 H 1.0012 0.04349 0.99572 0.0
H1243 H 0.02123 0.96676 0.95143 0.0
H1244 H 0.97738 0.94149 0.07311 0.0
H1245 H 0.01063 0.95944 0.02605 0.0
H1246 H 0.95962 0.02258 0.99239 0.0
H1247 H 0.92655 0.00499 0.04061 0.0
C1248 C 0.03153 0.04101 0.94857 0.0
C1249 C 0.04689 0.02486 0.9224 0.0
C1250 C 0.01255 0.03052 0.97573 0.0
C1251 C 0.00842 0.00365 0.97724 0.0
C1252 C 0.02406 0.98751 0.9515 0.0
C1253 C 0.04312 0.99798 0.9245 0.0
C1254 C 0.97316 0.95913 0.0555 0.0
C1255 C 0.94929 0.97183 0.06068 0.0
C1256 C 0.99223 0.96938 0.02835 0.0
C1257 C 0.98787 0.99252 0.0055 0.0
C1258 C 0.96381 0.00497 0.01009 0.0
C1259 C 0.94475 0.99477 0.03744 0.0
H1260 H 0.56716 0.99028 0.58151 0.0
H1261 H 0.53943 0.0661 0.54542 0.0
H1262 H 0.53447 0.97052 0.5352 0.0
H1263 H 0.50731 0.04638 0.49774 0.0
H1264 H 0.43538 0.00359 0.45222 0.0
H1265 H 0.46788 0.02265 0.50003 0.0
H1266 H 0.52243 0.96345 0.46203 0.0
H1267 H 0.4897 0.94391 0.41569 0.0
C1268 C 0.55434 1.00275 0.56316 0.0
C1269 C 0.55589 0.02977 0.56719 0.0
C1270 C 0.53559 0.99141 0.53646 0.0
C1271 C 0.51811 0.00682 0.51277 0.0
C1272 C 0.52008 0.03388 0.51613 0.0
C1273 C 0.53867 0.04521 0.54317 0.0
C1274 C 0.45426 0.99455 0.45438 0.0
C1275 C 0.45991 0.97221 0.43021 0.0
C1276 C 0.47299 0.00561 0.4815 0.0
C1277 C 0.4979 0.99471 0.48477 0.0
C1278 C 0.50339 0.97219 0.46088 0.0
C1279 C 0.48461 0.96102 0.43411 0.0
loop_
_geom_bond_atom_site_label_1
_geom_bond_atom_site_label_2
_geom_bond_distance
_geom_bond_site_symmetry_2
_ccdc_geom_bond_type
Zn0 O6 1.969 . S
Zn0 O7 1.965 . S
Zn0 O11 2.024 . S
Zn0 O16 1.969 . S
Zn1 O8 1.969 . S
Zn1 O14 1.969 1_554 S
Zn1 O15 1.962 1_554 S
Zn1 O17 2.024 . S
C2 O3 1.229 . S
C2 O11 1.058 . S
O3 C2 1.229 . S
C4 O5 1.229 . S
C4 O17 1.058 . S
O5 C4 1.229 . S
O6 Zn0 1.969 . S
O6 C9 1.267 . S
O7 Zn0 1.965 . S
O7 C18 1.260 . S
O8 Zn1 1.969 . S
O8 C18 1.258 . S
C9 O6 1.267 . S
C9 O10 1.228 . S
O10 C9 1.228 . S
O11 Zn0 2.024 . S
O11 C2 1.058 . S
C12 O13 1.228 . S
C12 O14 1.267 . S
O13 C12 1.228 . S
O14 Zn1 1.969 1_556 S
O14 C12 1.267 . S
O15 Zn1 1.962 1_556 S
O15 C19 1.260 1_556 S
O16 Zn0 1.969 . S
O16 C19 1.258 . S
O17 Zn1 2.024 . S
O17 C4 1.058 . S
C18 O7 1.260 . S
C18 O8 1.258 . S
C19 O15 1.260 1_554 S
C19 O16 1.258 . S
Zn20 O26 1.969 . S
Zn20 O27 1.965 . S
Zn20 O31 2.024 . S
Zn20 O36 1.969 . S
Zn21 O28 1.969 . S
Zn21 O34 1.969 . S
Zn21 O35 1.965 . S
Zn21 O37 2.024 . S
C22 O23 1.229 . S
C22 O31 1.058 . S
O23 C22 1.229 . S
C24 O25 1.229 . S
C24 O37 1.058 . S
O25 C24 1.229 . S
O26 Zn20 1.969 . S
O26 C29 1.267 . S
O27 Zn20 1.965 . S
O27 C38 1.260 . S
O28 Zn21 1.969 . S
O28 C38 1.258 . S
C29 O26 1.267 . S
C29 O30 1.228 . S
O30 C29 1.228 . S
O31 Zn20 2.024 . S
O31 C22 1.058 . S
C32 O33 1.228 . S
C32 O34 1.267 . S
O33 C32 1.228 . S
O34 Zn21 1.969 . S
O34 C32 1.267 . S
O35 Zn21 1.965 . S
O35 C39 1.260 . S
O36 Zn20 1.969 . S
O36 C39 1.258 . S
O37 Zn21 2.024 . S
O37 C24 1.058 . S
C38 O27 1.260 . S
C38 O28 1.258 . S
C39 O35 1.260 . S
C39 O36 1.258 . S
Zn40 O46 1.969 . S
Zn40 O47 1.965 . S
Zn40 O51 2.024 . S
Zn40 O56 1.969 . S
Zn41 O48 1.969 . S
Zn41 O54 1.969 . S
Zn41 O55 1.965 . S
Zn41 O57 2.024 . S
C42 O43 1.229 . S
C42 O51 1.058 . S
O43 C42 1.229 . S
C44 O45 1.229 . S
C44 O57 1.058 . S
O45 C44 1.229 . S
O46 Zn40 1.969 . S
O46 C49 1.267 . S
O47 Zn40 1.965 . S
O47 C58 1.260 . S
O48 Zn41 1.969 . S
O48 C58 1.258 . S
C49 O46 1.267 . S
C49 O50 1.228 . S
O50 C49 1.228 . S
O51 Zn40 2.024 . S
O51 C42 1.058 . S
C52 O53 1.228 . S
C52 O54 1.267 . S
O53 C52 1.228 . S
O54 Zn41 1.969 . S
O54 C52 1.267 . S
O55 Zn41 1.965 . S
O55 C59 1.260 . S
O56 Zn40 1.969 . S
O56 C59 1.258 . S
O57 Zn41 2.024 . S
O57 C44 1.058 . S
C58 O47 1.260 . S
C58 O48 1.258 . S
C59 O55 1.260 . S
C59 O56 1.258 . S
Zn60 O66 1.969 . S
Zn60 O67 1.965 . S
Zn60 O71 2.024 . S
Zn60 O76 1.969 . S
Zn61 O68 1.969 . S
Zn61 O74 1.969 . S
Zn61 O75 1.965 . S
Zn61 O77 2.024 . S
C62 O63 1.229 . S
C62 O71 1.058 . S
O63 C62 1.229 . S
C64 O65 1.229 . S
C64 O77 1.058 . S
O65 C64 1.229 . S
O66 Zn60 1.969 . S
O66 C69 1.267 . S
O67 Zn60 1.965 . S
O67 C78 1.260 . S
O68 Zn61 1.969 . S
O68 C78 1.258 . S
C69 O66 1.267 . S
C69 O70 1.228 . S
O70 C69 1.228 . S
O71 Zn60 2.024 . S
O71 C62 1.058 . S
C72 O73 1.228 . S
C72 O74 1.267 . S
O73 C72 1.228 . S
O74 Zn61 1.969 . S
O74 C72 1.267 . S
O75 Zn61 1.965 . S
O75 C79 1.260 . S
O76 Zn60 1.969 . S
O76 C79 1.258 . S
O77 Zn61 2.024 . S
O77 C64 1.058 . S
C78 O67 1.260 . S
C78 O68 1.258 . S
C79 O75 1.260 . S
C79 O76 1.258 . S
Zn80 O86 1.969 1_556 S
Zn80 O87 1.962 1_556 S
Zn80 O91 2.024 . S
Zn80 O96 1.969 . S
Zn81 O88 1.969 . S
Zn81 O94 1.969 . S
Zn81 O95 1.965 . S
Zn81 O97 2.024 . S
C82 O83 1.229 . S
C82 O91 1.058 . S
O83 C82 1.229 . S
C84 O85 1.229 . S
C84 O97 1.058 . S
O85 C84 1.229 . S
O86 Zn80 1.969 1_554 S
O86 C89 1.267 . S
O87 Zn80 1.962 1_554 S
O87 C98 1.260 1_554 S
O88 Zn81 1.969 . S
O88 C98 1.258 . S
C89 O86 1.267 . S
C89 O90 1.228 . S
O90 C89 1.228 . S
O91 Zn80 2.024 . S
O91 C82 1.058 . S
C92 O93 1.228 . S
C92 O94 1.267 . S
O93 C92 1.228 . S
O94 Zn81 1.969 . S
O94 C92 1.267 . S
O95 Zn81 1.965 . S
O95 C99 1.260 . S
O96 Zn80 1.969 . S
O96 C99 1.258 . S
O97 Zn81 2.024 . S
O97 C84 1.058 . S
C98 O87 1.260 1_556 S
C98 O88 1.258 . S
C99 O95 1.260 . S
C99 O96 1.258 . S
Zn100 O106 1.969 . S
Zn100 O107 1.965 . S
Zn100 O111 2.024 . S
Zn100 O116 1.969 . S
Zn101 O108 1.969 . S
Zn101 O114 1.969 . S
Zn101 O115 1.965 . S
Zn101 O117 2.024 . S
C102 O103 1.229 . S
C102 O111 1.058 . S
O103 C102 1.229 . S
C104 O105 1.229 . S
C104 O117 1.058 . S
O105 C104 1.229 . S
O106 Zn100 1.969 . S
O106 C109 1.267 . S
O107 Zn100 1.965 . S
O107 C118 1.260 . S
O108 Zn101 1.969 . S
O108 C118 1.258 . S
C109 O106 1.267 . S
C109 O110 1.228 . S
O110 C109 1.228 . S
O111 Zn100 2.024 . S
O111 C102 1.058 . S
C112 O113 1.228 . S
C112 O114 1.267 . S
O113 C112 1.228 . S
O114 Zn101 1.969 . S
O114 C112 1.267 . S
O115 Zn101 1.965 . S
O115 C119 1.260 . S
O116 Zn100 1.969 . S
O116 C119 1.258 . S
O117 Zn101 2.024 . S
O117 C104 1.058 . S
C118 O107 1.260 . S
C118 O108 1.258 . S
C119 O115 1.260 . S
C119 O116 1.258 . S
Zn120 O126 1.969 . S
Zn120 O127 1.965 . S
Zn120 O131 2.024 . S
Zn120 O136 1.969 . S
Zn121 O128 1.969 . S
Zn121 O134 1.969 . S
Zn121 O135 1.965 . S
Zn121 O137 2.024 . S
C122 O123 1.229 . S
C122 O131 1.058 . S
O123 C122 1.229 . S
C124 O125 1.229 . S
C124 O137 1.058 . S
O125 C124 1.229 . S
O126 Zn120 1.969 . S
O126 C129 1.267 . S
O127 Zn120 1.965 . S
O127 C138 1.260 . S
O128 Zn121 1.969 . S
O128 C138 1.258 . S
C129 O126 1.267 . S
C129 O130 1.228 . S
O130 C129 1.228 . S
O131 Zn120 2.024 . S
O131 C122 1.058 . S
C132 O133 1.228 . S
C132 O134 1.267 . S
O133 C132 1.228 . S
O134 Zn121 1.969 . S
O134 C132 1.267 . S
O135 Zn121 1.965 . S
O135 C139 1.260 . S
O136 Zn120 1.969 . S
O136 C139 1.258 . S
O137 Zn121 2.024 . S
O137 C124 1.058 . S
C138 O127 1.260 . S
C138 O128 1.258 . S
C139 O135 1.260 . S
C139 O136 1.258 . S
Zn140 O146 1.969 . S
Zn140 O147 1.965 . S
Zn140 O151 2.024 . S
Zn140 O156 1.969 . S
Zn141 O148 1.969 . S
Zn141 O154 1.969 . S
Zn141 O155 1.965 . S
Zn141 O157 2.024 . S
C142 O143 1.229 . S
C142 O151 1.058 . S
O143 C142 1.229 . S
C144 O145 1.229 . S
C144 O157 1.058 . S
O145 C144 1.229 . S
O146 Zn140 1.969 . S
O146 C149 1.267 . S
O147 Zn140 1.965 . S
O147 C158 1.260 . S
O148 Zn141 1.969 . S
O148 C158 1.258 . S
C149 O146 1.267 . S
C149 O150 1.228 . S
O150 C149 1.228 . S
O151 Zn140 2.024 . S
O151 C142 1.058 . S
C152 O153 1.228 . S
C152 O154 1.267 . S
O153 C152 1.228 . S
O154 Zn141 1.969 . S
O154 C152 1.267 . S
O155 Zn141 1.965 . S
O155 C159 1.260 . S
O156 Zn140 1.969 . S
O156 C159 1.258 . S
O157 Zn141 2.024 . S
O157 C144 1.058 . S
C158 O147 1.260 . S
C158 O148 1.258 . S
C159 O155 1.260 . S
C159 O156 1.258 . S
Zn160 O166 1.969 . S
Zn160 O167 1.965 . S
Zn160 O171 2.024 . S
Zn160 O176 1.969 . S
Zn161 O168 1.969 . S
Zn161 O174 1.969 . S
Zn161 O175 1.965 . S
Zn161 O177 2.024 . S
C162 O163 1.229 . S
C162 O171 1.058 . S
O163 C162 1.229 . S
C164 O165 1.229 . S
C164 O177 1.058 . S
O165 C164 1.229 . S
O166 Zn160 1.969 . S
O166 C169 1.267 . S
O167 Zn160 1.965 . S
O167 C178 1.260 . S
O168 Zn161 1.969 . S
O168 C178 1.258 . S
C169 O166 1.267 . S
C169 O170 1.228 . S
O170 C169 1.228 . S
O171 Zn160 2.024 . S
O171 C162 1.058 . S
C172 O173 1.228 . S
C172 O174 1.267 . S
O173 C172 1.228 . S
O174 Zn161 1.969 . S
O174 C172 1.267 . S
O175 Zn161 1.965 . S
O175 C179 1.260 . S
O176 Zn160 1.969 . S
O176 C179 1.258 . S
O177 Zn161 2.024 . S
O177 C164 1.058 . S
C178 O167 1.260 . S
C178 O168 1.258 . S
C179 O175 1.260 . S
C179 O176 1.258 . S
Zn180 O186 1.969 . S
Zn180 O187 1.965 . S
Zn180 O191 2.024 . S
Zn180 O196 1.969 . S
Zn181 O188 1.969 . S
Zn181 O194 1.969 . S
Zn181 O195 1.965 . S
Zn181 O197 2.024 . S
C182 O183 1.229 . S
C182 O191 1.058 . S
O183 C182 1.229 . S
C184 O185 1.229 . S
C184 O197 1.058 . S
O185 C184 1.229 . S
O186 Zn180 1.969 . S
O186 C189 1.267 . S
O187 Zn180 1.965 . S
O187 C198 1.260 . S
O188 Zn181 1.969 . S
O188 C198 1.258 . S
C189 O186 1.267 . S
C189 O190 1.228 . S
O190 C189 1.228 . S
O191 Zn180 2.024 . S
O191 C182 1.058 . S
C192 O193 1.228 . S
C192 O194 1.267 . S
O193 C192 1.228 . S
O194 Zn181 1.969 . S
O194 C192 1.267 . S
O195 Zn181 1.965 . S
O195 C199 1.260 . S
O196 Zn180 1.969 . S
O196 C199 1.258 . S
O197 Zn181 2.024 . S
O197 C184 1.058 . S
C198 O187 1.260 . S
C198 O188 1.258 . S
C199 O195 1.260 . S
C199 O196 1.258 . S
Zn200 O206 1.969 . S
Zn200 O207 1.965 . S
Zn200 O211 2.024 . S
Zn200 O216 1.969 . S
Zn201 O208 1.969 . S
Zn201 O214 1.969 1_554 S
Zn201 O215 1.962 1_554 S
Zn201 O217 2.024 . S
C202 O203 1.229 . S
C202 O211 1.058 . S
O203 C202 1.229 . S
C204 O205 1.229 . S
C204 O217 1.058 . S
O205 C204 1.229 . S
O206 Zn200 1.969 . S
O206 C209 1.267 . S
O207 Zn200 1.965 . S
O207 C218 1.260 . S
O208 Zn201 1.969 . S
O208 C218 1.258 . S
C209 O206 1.267 . S
C209 O210 1.228 . S
O210 C209 1.228 . S
O211 Zn200 2.024 . S
O211 C202 1.058 . S
C212 O213 1.228 . S
C212 O214 1.267 . S
O213 C212 1.228 . S
O214 Zn201 1.969 1_556 S
O214 C212 1.267 . S
O215 Zn201 1.962 1_556 S
O215 C219 1.260 1_556 S
O216 Zn200 1.969 . S
O216 C219 1.258 . S
O217 Zn201 2.024 . S
O217 C204 1.058 . S
C218 O207 1.260 . S
C218 O208 1.258 . S
C219 O215 1.260 1_554 S
C219 O216 1.258 . S
Zn220 O226 1.969 . S
Zn220 O227 1.965 . S
Zn220 O231 2.024 . S
Zn220 O236 1.969 . S
Zn221 O228 1.969 . S
Zn221 O234 1.969 . S
Zn221 O235 1.965 . S
Zn221 O237 2.024 . S
C222 O223 1.229 . S
C222 O231 1.058 . S
O223 C222 1.229 . S
C224 O225 1.229 . S
C224 O237 1.058 . S
O225 C224 1.229 . S
O226 Zn220 1.969 . S
O226 C229 1.267 . S
O227 Zn220 1.965 . S
O227 C238 1.260 . S
O228 Zn221 1.969 . S
O228 C238 1.258 . S
C229 O226 1.267 . S
C229 O230 1.228 . S
O230 C229 1.228 . S
O231 Zn220 2.024 . S
O231 C222 1.058 . S
C232 O233 1.228 . S
C232 O234 1.267 . S
O233 C232 1.228 . S
O234 Zn221 1.969 . S
O234 C232 1.267 . S
O235 Zn221 1.965 . S
O235 C239 1.260 . S
O236 Zn220 1.969 . S
O236 C239 1.258 . S
O237 Zn221 2.024 . S
O237 C224 1.058 . S
C238 O227 1.260 . S
C238 O228 1.258 . S
C239 O235 1.260 . S
C239 O236 1.258 . S
Zn240 O246 1.969 . S
Zn240 O247 1.965 . S
Zn240 O251 2.024 . S
Zn240 O256 1.969 . S
Zn241 O248 1.969 . S
Zn241 O254 1.969 . S
Zn241 O255 1.965 . S
Zn241 O257 2.024 . S
C242 O243 1.229 . S
C242 O251 1.058 . S
O243 C242 1.229 . S
C244 O245 1.229 . S
C244 O257 1.058 . S
O245 C244 1.229 . S
O246 Zn240 1.969 . S
O246 C249 1.267 . S
O247 Zn240 1.965 . S
O247 C258 1.260 . S
O248 Zn241 1.969 . S
O248 C258 1.258 . S
C249 O246 1.267 . S
C249 O250 1.228 . S
O250 C249 1.228 . S
O251 Zn240 2.024 . S
O251 C242 1.058 . S
C252 O253 1.228 . S
C252 O254 1.267 . S
O253 C252 1.228 . S
O254 Zn241 1.969 . S
O254 C252 1.267 . S
O255 Zn241 1.965 . S
O255 C259 1.260 . S
O256 Zn240 1.969 . S
O256 C259 1.258 . S
O257 Zn241 2.024 . S
O257 C244 1.058 . S
C258 O247 1.260 . S
C258 O248 1.258 . S
C259 O255 1.260 . S
C259 O256 1.258 . S
Zn260 O266 1.969 . S
Zn260 O267 1.965 . S
Zn260 O271 2.024 . S
Zn260 O276 1.969 . S
Zn261 O268 1.969 . S
Zn261 O274 1.969 . S
Zn261 O275 1.965 . S
Zn261 O277 2.024 . S
C262 O263 1.229 . S
C262 O271 1.058 . S
O263 C262 1.229 . S
C264 O265 1.229 . S
C264 O277 1.058 . S
O265 C264 1.229 . S
O266 Zn260 1.969 . S
O266 C269 1.267 . S
O267 Zn260 1.965 . S
O267 C278 1.260 . S
O268 Zn261 1.969 . S
O268 C278 1.258 . S
C269 O266 1.267 . S
C269 O270 1.228 . S
O270 C269 1.228 . S
O271 Zn260 2.024 . S
O271 C262 1.058 . S
C272 O273 1.228 . S
C272 O274 1.267 . S
O273 C272 1.228 . S
O274 Zn261 1.969 . S
O274 C272 1.267 . S
O275 Zn261 1.965 . S
O275 C279 1.260 . S
O276 Zn260 1.969 . S
O276 C279 1.258 . S
O277 Zn261 2.024 . S
O277 C264 1.058 . S
C278 O267 1.260 . S
C278 O268 1.258 . S
C279 O275 1.260 . S
C279 O276 1.258 . S
Zn280 O286 1.969 1_556 S
Zn280 O287 1.962 1_556 S
Zn280 O291 2.024 . S
Zn280 O296 1.969 . S
Zn281 O288 1.969 . S
Zn281 O294 1.969 . S
Zn281 O295 1.965 . S
Zn281 O297 2.024 . S
C282 O283 1.229 . S
C282 O291 1.058 . S
O283 C282 1.229 . S
C284 O285 1.229 . S
C284 O297 1.058 . S
O285 C284 1.229 . S
O286 Zn280 1.969 1_554 S
O286 C289 1.267 . S
O287 Zn280 1.962 1_554 S
O287 C298 1.260 1_554 S
O288 Zn281 1.969 . S
O288 C298 1.258 . S
C289 O286 1.267 . S
C289 O290 1.228 . S
O290 C289 1.228 . S
O291 Zn280 2.024 . S
O291 C282 1.058 . S
C292 O293 1.228 . S
C292 O294 1.267 . S
O293 C292 1.228 . S
O294 Zn281 1.969 . S
O294 C292 1.267 . S
O295 Zn281 1.965 . S
O295 C299 1.260 . S
O296 Zn280 1.969 . S
O296 C299 1.258 . S
O297 Zn281 2.024 . S
O297 C284 1.058 . S
C298 O287 1.260 1_556 S
C298 O288 1.258 . S
C299 O295 1.260 . S
C299 O296 1.258 . S
Zn300 O306 1.969 . S
Zn300 O307 1.965 . S
Zn300 O311 2.024 . S
Zn300 O316 1.969 . S
Zn301 O308 1.969 . S
Zn301 O314 1.969 . S
Zn301 O315 1.965 . S
Zn301 O317 2.024 . S
C302 O303 1.229 . S
C302 O311 1.058 . S
O303 C302 1.229 . S
C304 O305 1.229 . S
C304 O317 1.058 . S
O305 C304 1.229 . S
O306 Zn300 1.969 . S
O306 C309 1.267 . S
O307 Zn300 1.965 . S
O307 C318 1.260 . S
O308 Zn301 1.969 . S
O308 C318 1.258 . S
C309 O306 1.267 . S
C309 O310 1.228 . S
O310 C309 1.228 . S
O311 Zn300 2.024 . S
O311 C302 1.058 . S
C312 O313 1.228 . S
C312 O314 1.267 . S
O313 C312 1.228 . S
O314 Zn301 1.969 . S
O314 C312 1.267 . S
O315 Zn301 1.965 . S
O315 C319 1.260 . S
O316 Zn300 1.969 . S
O316 C319 1.258 . S
O317 Zn301 2.024 . S
O317 C304 1.058 . S
C318 O307 1.260 . S
C318 O308 1.258 . S
C319 O315 1.260 . S
C319 O316 1.258 . S
H320 C328 0.950 . S
H321 C333 0.950 . S
H322 C330 0.950 . S
H323 C332 0.950 . S
H324 C334 0.950 . S
H325 C336 0.950 . S
H326 C338 0.950 . S
H327 C339 0.950 . S
C328 H320 0.950 . S
C328 C329 1.386 . S
C328 C330 1.391 . S
C329 C328 1.386 . S
C329 C333 1.393 . S
C330 H322 0.950 . S
C330 C328 1.391 . S
C330 C331 1.400 . S
C331 C330 1.400 . S
C331 C332 1.398 . S
C331 C337 1.491 . S
C332 H323 0.950 . S
C332 C331 1.398 . S
C332 C333 1.391 . S
C333 H321 0.950 . S
C333 C329 1.393 . S
C333 C332 1.391 . S
C334 H324 0.950 . S
C334 C335 1.386 . S
C334 C336 1.391 . S
C335 C334 1.386 . S
C335 C339 1.393 . S
C336 H325 0.950 . S
C336 C334 1.391 . S
C336 C337 1.400 . S
C337 C331 1.491 . S
C337 C336 1.400 . S
C337 C338 1.398 . S
C338 H326 0.950 . S
C338 C337 1.398 . S
C338 C339 1.391 . S
C339 H327 0.950 . S
C339 C335 1.393 . S
C339 C338 1.391 . S
H340 C348 0.950 . S
H341 C353 0.950 . S
H342 C350 0.950 . S
H343 C352 0.950 . S
H344 C354 0.950 . S
H345 C356 0.950 . S
H346 C358 0.950 . S
H347 C359 0.950 . S
C348 H340 0.950 . S
C348 C349 1.386 . S
C348 C350 1.391 . S
C349 C348 1.386 . S
C349 C353 1.393 . S
C350 H342 0.950 . S
C350 C348 1.391 . S
C350 C351 1.400 . S
C351 C350 1.400 . S
C351 C352 1.398 . S
C351 C357 1.491 . S
C352 H343 0.950 . S
C352 C351 1.398 . S
C352 C353 1.391 . S
C353 H341 0.950 . S
C353 C349 1.393 . S
C353 C352 1.391 . S
C354 H344 0.950 . S
C354 C355 1.386 . S
C354 C356 1.391 . S
C355 C354 1.386 . S
C355 C359 1.393 . S
C356 H345 0.950 . S
C356 C354 1.391 . S
C356 C357 1.400 . S
C357 C351 1.491 . S
C357 C356 1.400 . S
C357 C358 1.398 . S
C358 H346 0.950 . S
C358 C357 1.398 . S
C358 C359 1.391 . S
C359 H347 0.950 . S
C359 C355 1.393 . S
C359 C358 1.391 . S
H360 C368 0.950 . S
H361 C373 0.950 . S
H362 C370 0.950 . S
H363 C372 0.950 1_655 S
H364 C374 0.950 . S
H365 C376 0.950 . S
H366 C378 0.950 1_455 S
H367 C379 0.950 . S
C368 H360 0.950 . S
C368 C369 1.386 . S
C368 C370 1.391 . S
C369 C368 1.386 . S
C369 C373 1.393 . S
C370 H362 0.950 . S
C370 C368 1.391 . S
C370 C371 1.400 . S
C371 C370 1.400 . S
C371 C372 1.398 . S
C371 C377 1.491 1_455 S
C372 H363 0.950 1_455 S
C372 C371 1.398 . S
C372 C373 1.391 . S
C373 H361 0.950 . S
C373 C369 1.393 . S
C373 C372 1.391 . S
C374 H364 0.950 . S
C374 C375 1.386 . S
C374 C376 1.391 . S
C375 C374 1.386 . S
C375 C379 1.393 . S
C376 H365 0.950 . S
C376 C374 1.391 . S
C376 C377 1.400 . S
C377 C371 1.491 1_655 S
C377 C376 1.400 . S
C377 C378 1.398 . S
C378 H366 0.950 1_655 S
C378 C377 1.398 . S
C378 C379 1.391 . S
C379 H367 0.950 . S
C379 C375 1.393 . S
C379 C378 1.391 . S
H380 C388 0.950 . S
H381 C393 0.950 . S
H382 C390 0.950 . S
H383 C392 0.950 . S
H384 C394 0.950 . S
H385 C396 0.950 . S
H386 C398 0.950 . S
H387 C399 0.950 . S
C388 H380 0.950 . S
C388 C389 1.386 . S
C388 C390 1.391 . S
C389 C388 1.386 . S
C389 C393 1.393 . S
C390 H382 0.950 . S
C390 C388 1.391 . S
C390 C391 1.400 . S
C391 C390 1.400 . S
C391 C392 1.398 . S
C391 C397 1.491 1_655 S
C392 H383 0.950 . S
C392 C391 1.398 . S
C392 C393 1.391 . S
C393 H381 0.950 . S
C393 C389 1.393 . S
C393 C392 1.391 . S
C394 H384 0.950 . S
C394 C395 1.386 . S
C394 C396 1.391 . S
C395 C394 1.386 . S
C395 C399 1.393 . S
C396 H385 0.950 . S
C396 C394 1.391 . S
C396 C397 1.400 . S
C397 C391 1.491 1_455 S
C397 C396 1.400 . S
C397 C398 1.398 . S
C398 H386 0.950 . S
C398 C397 1.398 . S
C398 C399 1.391 . S
C399 H387 0.950 . S
C399 C395 1.393 . S
C399 C398 1.391 . S
H400 C408 0.950 . S
H401 C413 0.950 . S
H402 C410 0.950 . S
H403 C412 0.950 . S
H404 C414 0.950 . S
H405 C416 0.950 . S
H406 C418 0.950 . S
H407 C419 0.950 . S
C408 H400 0.950 . S
C408 C409 1.386 . S
C408 C410 1.391 . S
C409 C408 1.386 . S
C409 C413 1.393 . S
C410 H402 0.950 . S
C410 C408 1.391 . S
C410 C411 1.400 . S
C411 C410 1.400 . S
C411 C412 1.398 . S
C411 C417 1.491 . S
C412 H403 0.950 . S
C412 C411 1.398 . S
C412 C413 1.391 . S
C413 H401 0.950 . S
C413 C409 1.393 . S
C413 C412 1.391 . S
C414 H404 0.950 . S
C414 C415 1.386 . S
C414 C416 1.391 . S
C415 C414 1.386 . S
C415 C419 1.393 . S
C416 H405 0.950 . S
C416 C414 1.391 . S
C416 C417 1.400 . S
C417 C411 1.491 . S
C417 C416 1.400 . S
C417 C418 1.398 . S
C418 H406 0.950 . S
C418 C417 1.398 . S
C418 C419 1.391 . S
C419 H407 0.950 . S
C419 C415 1.393 . S
C419 C418 1.391 . S
H420 C428 0.950 . S
H421 C433 0.950 . S
H422 C430 0.950 . S
H423 C432 0.950 . S
H424 C434 0.950 . S
H425 C436 0.950 . S
H426 C438 0.950 . S
H427 C439 0.950 . S
C428 H420 0.950 . S
C428 C429 1.386 . S
C428 C430 1.391 . S
C429 C428 1.386 . S
C429 C433 1.393 . S
C430 H422 0.950 . S
C430 C428 1.391 . S
C430 C431 1.400 . S
C431 C430 1.400 . S
C431 C432 1.398 . S
C431 C437 1.491 . S
C432 H423 0.950 . S
C432 C431 1.398 . S
C432 C433 1.391 . S
C433 H421 0.950 . S
C433 C429 1.393 . S
C433 C432 1.391 . S
C434 H424 0.950 . S
C434 C435 1.386 . S
C434 C436 1.391 . S
C435 C434 1.386 . S
C435 C439 1.393 . S
C436 H425 0.950 . S
C436 C434 1.391 . S
C436 C437 1.400 . S
C437 C431 1.491 . S
C437 C436 1.400 . S
C437 C438 1.398 . S
C438 H426 0.950 . S
C438 C437 1.398 . S
C438 C439 1.391 . S
C439 H427 0.950 . S
C439 C435 1.393 . S
C439 C438 1.391 . S
H440 C448 0.950 . S
H441 C453 0.950 . S
H442 C450 0.950 1_455 S
H443 C452 0.950 . S
H444 C454 0.950 . S
H445 C456 0.950 1_655 S
H446 C458 0.950 . S
H447 C459 0.950 . S
C448 H440 0.950 . S
C448 C449 1.386 . S
C448 C450 1.391 . S
C449 C448 1.386 . S
C449 C453 1.393 . S
C450 H442 0.950 1_655 S
C450 C448 1.391 . S
C450 C451 1.400 . S
C451 C450 1.400 . S
C451 C452 1.398 . S
C451 C457 1.491 1_655 S
C452 H443 0.950 . S
C452 C451 1.398 . S
C452 C453 1.391 . S
C453 H441 0.950 . S
C453 C449 1.393 . S
C453 C452 1.391 . S
C454 H444 0.950 . S
C454 C455 1.386 . S
C454 C456 1.391 . S
C455 C454 1.386 . S
C455 C459 1.393 . S
C456 H445 0.950 1_455 S
C456 C454 1.391 . S
C456 C457 1.400 . S
C457 C451 1.491 1_455 S
C457 C456 1.400 . S
C457 C458 1.398 . S
C458 H446 0.950 . S
C458 C457 1.398 . S
C458 C459 1.391 . S
C459 H447 0.950 . S
C459 C455 1.393 . S
C459 C458 1.391 . S
H460 C468 0.950 . S
H461 C473 0.950 . S
H462 C470 0.950 1_655 S
H463 C472 0.950 . S
H464 C474 0.950 . S
H465 C476 0.950 1_455 S
H466 C478 0.950 . S
H467 C479 0.950 . S
C468 H460 0.950 . S
C468 C469 1.386 . S
C468 C470 1.391 . S
C469 C468 1.386 . S
C469 C473 1.393 . S
C470 H462 0.950 1_455 S
C470 C468 1.391 . S
C470 C471 1.400 . S
C471 C470 1.400 . S
C471 C472 1.398 . S
C471 C477 1.491 1_455 S
C472 H463 0.950 . S
C472 C471 1.398 . S
C472 C473 1.391 . S
C473 H461 0.950 . S
C473 C469 1.393 . S
C473 C472 1.391 . S
C474 H464 0.950 . S
C474 C475 1.386 . S
C474 C476 1.391 . S
C475 C474 1.386 . S
C475 C479 1.393 . S
C476 H465 0.950 1_655 S
C476 C474 1.391 . S
C476 C477 1.400 . S
C477 C471 1.491 1_655 S
C477 C476 1.400 . S
C477 C478 1.398 . S
C478 H466 0.950 . S
C478 C477 1.398 . S
C478 C479 1.391 . S
C479 H467 0.950 . S
C479 C475 1.393 . S
C479 C478 1.391 . S
H480 C488 0.950 . S
H481 C493 0.950 . S
H482 C490 0.950 . S
H483 C492 0.950 . S
H484 C494 0.950 . S
H485 C496 0.950 . S
H486 C498 0.950 . S
H487 C499 0.948 1_554 S
C488 H480 0.950 . S
C488 C489 1.386 . S
C488 C490 1.391 . S
C489 C488 1.386 . S
C489 C493 1.393 . S
C490 H482 0.950 . S
C490 C488 1.391 . S
C490 C491 1.400 . S
C491 C490 1.400 . S
C491 C492 1.398 . S
C491 C497 1.491 . S
C492 H483 0.950 . S
C492 C491 1.398 . S
C492 C493 1.391 . S
C493 H481 0.950 . S
C493 C489 1.393 . S
C493 C492 1.391 . S
C494 H484 0.950 . S
C494 C495 1.386 . S
C494 C496 1.391 . S
C495 C494 1.386 . S
C495 C499 1.393 . S
C496 H485 0.950 . S
C496 C494 1.391 . S
C496 C497 1.400 . S
C497 C491 1.491 . S
C497 C496 1.400 . S
C497 C498 1.398 . S
C498 H486 0.950 . S
C498 C497 1.398 . S
C498 C499 1.392 . S
C499 H487 0.948 1_556 S
C499 C495 1.393 . S
C499 C498 1.392 . S
H500 C508 0.950 . S
H501 C513 0.950 . S
H502 C510 0.950 . S
H503 C512 0.950 . S
H504 C514 0.950 . S
H505 C516 0.950 . S
H506 C518 0.950 . S
H507 C519 0.950 . S
C508 H500 0.950 . S
C508 C509 1.386 . S
C508 C510 1.391 . S
C509 C508 1.386 . S
C509 C513 1.393 . S
C510 H502 0.950 . S
C510 C508 1.391 . S
C510 C511 1.400 . S
C511 C510 1.400 . S
C511 C512 1.398 . S
C511 C517 1.491 . S
C512 H503 0.950 . S
C512 C511 1.398 . S
C512 C513 1.391 . S
C513 H501 0.950 . S
C513 C509 1.393 . S
C513 C512 1.391 . S
C514 H504 0.950 . S
C514 C515 1.386 . S
C514 C516 1.391 . S
C515 C514 1.386 . S
C515 C519 1.393 . S
C516 H505 0.950 . S
C516 C514 1.391 . S
C516 C517 1.400 . S
C517 C511 1.491 . S
C517 C516 1.400 . S
C517 C518 1.398 . S
C518 H506 0.950 . S
C518 C517 1.398 . S
C518 C519 1.391 . S
C519 H507 0.950 . S
C519 C515 1.393 . S
C519 C518 1.391 . S
H520 C528 0.950 . S
H521 C533 0.950 . S
H522 C530 0.950 . S
H523 C532 0.950 . S
H524 C534 0.950 . S
H525 C536 0.950 . S
H526 C538 0.950 . S
H527 C539 0.950 . S
C528 H520 0.950 . S
C528 C529 1.386 . S
C528 C530 1.391 . S
C529 C528 1.386 . S
C529 C533 1.393 . S
C530 H522 0.950 . S
C530 C528 1.391 . S
C530 C531 1.400 . S
C531 C530 1.400 . S
C531 C532 1.398 . S
C531 C537 1.491 . S
C532 H523 0.950 . S
C532 C531 1.398 . S
C532 C533 1.391 . S
C533 H521 0.950 . S
C533 C529 1.393 . S
C533 C532 1.391 . S
C534 H524 0.950 . S
C534 C535 1.386 . S
C534 C536 1.391 . S
C535 C534 1.386 . S
C535 C539 1.393 . S
C536 H525 0.950 . S
C536 C534 1.391 . S
C536 C537 1.400 . S
C537 C531 1.491 . S
C537 C536 1.400 . S
C537 C538 1.398 . S
C538 H526 0.950 . S
C538 C537 1.398 . S
C538 C539 1.391 . S
C539 H527 0.950 . S
C539 C535 1.393 . S
C539 C538 1.391 . S
H540 C548 0.950 . S
H541 C553 0.950 . S
H542 C550 0.950 . S
H543 C552 0.950 . S
H544 C554 0.950 . S
H545 C556 0.950 . S
H546 C558 0.950 . S
H547 C559 0.950 . S
C548 H540 0.950 . S
C548 C549 1.386 . S
C548 C550 1.391 . S
C549 C548 1.386 . S
C549 C553 1.393 . S
C550 H542 0.950 . S
C550 C548 1.391 . S
C550 C551 1.400 . S
C551 C550 1.400 . S
C551 C552 1.398 . S
C551 C557 1.491 . S
C552 H543 0.950 . S
C552 C551 1.398 . S
C552 C553 1.391 . S
C553 H541 0.950 . S
C553 C549 1.393 . S
C553 C552 1.391 . S
C554 H544 0.950 . S
C554 C555 1.386 . S
C554 C556 1.391 . S
C555 C554 1.386 . S
C555 C559 1.393 . S
C556 H545 0.950 . S
C556 C554 1.391 . S
C556 C557 1.400 . S
C557 C551 1.491 . S
C557 C556 1.400 . S
C557 C558 1.398 . S
C558 H546 0.950 . S
C558 C557 1.398 . S
C558 C559 1.391 . S
C559 H547 0.950 . S
C559 C555 1.393 . S
C559 C558 1.391 . S
H560 C568 0.948 . S
H561 C573 0.950 . S
H562 C570 0.950 . S
H563 C572 0.950 . S
H564 C574 0.950 . S
H565 C576 0.950 . S
H566 C578 0.950 . S
H567 C579 0.950 . S
C568 H560 0.948 . S
C568 C569 1.386 1_556 S
C568 C570 1.392 1_556 S
C569 C568 1.386 1_554 S
C569 C573 1.393 . S
C570 H562 0.950 . S
C570 C568 1.392 1_554 S
C570 C571 1.400 . S
C571 C570 1.400 . S
C571 C572 1.398 . S
C571 C577 1.491 . S
C572 H563 0.950 . S
C572 C571 1.398 . S
C572 C573 1.391 . S
C573 H561 0.950 . S
C573 C569 1.393 . S
C573 C572 1.391 . S
C574 H564 0.950 . S
C574 C575 1.386 . S
C574 C576 1.391 . S
C575 C574 1.386 . S
C575 C579 1.393 . S
C576 H565 0.950 . S
C576 C574 1.391 . S
C576 C577 1.400 . S
C577 C571 1.491 . S
C577 C576 1.400 . S
C577 C578 1.398 . S
C578 H566 0.950 . S
C578 C577 1.398 . S
C578 C579 1.391 . S
C579 H567 0.950 . S
C579 C575 1.393 . S
C579 C578 1.391 . S
H580 C588 0.950 . S
H581 C593 0.950 . S
H582 C590 0.950 . S
H583 C592 0.950 . S
H584 C594 0.950 . S
H585 C596 0.950 . S
H586 C598 0.950 . S
H587 C599 0.950 . S
C588 H580 0.950 . S
C588 C589 1.386 . S
C588 C590 1.391 . S
C589 C588 1.386 . S
C589 C593 1.393 . S
C590 H582 0.950 . S
C590 C588 1.391 . S
C590 C591 1.400 . S
C591 C590 1.400 . S
C591 C592 1.398 . S
C591 C597 1.491 . S
C592 H583 0.950 . S
C592 C591 1.398 . S
C592 C593 1.391 . S
C593 H581 0.950 . S
C593 C589 1.393 . S
C593 C592 1.391 . S
C594 H584 0.950 . S
C594 C595 1.386 . S
C594 C596 1.391 . S
C595 C594 1.386 . S
C595 C599 1.393 . S
C596 H585 0.950 . S
C596 C594 1.391 . S
C596 C597 1.400 . S
C597 C591 1.491 . S
C597 C596 1.400 . S
C597 C598 1.398 . S
C598 H586 0.950 . S
C598 C597 1.398 . S
C598 C599 1.391 . S
C599 H587 0.950 . S
C599 C595 1.393 . S
C599 C598 1.391 . S
H600 C608 0.950 . S
H601 C613 0.950 . S
H602 C610 0.950 . S
H603 C612 0.950 . S
H604 C614 0.950 . S
H605 C616 0.950 . S
H606 C618 0.950 . S
H607 C619 0.950 . S
C608 H600 0.950 . S
C608 C609 1.386 . S
C608 C610 1.391 . S
C609 C608 1.386 . S
C609 C613 1.393 . S
C610 H602 0.950 . S
C610 C608 1.391 . S
C610 C611 1.400 . S
C611 C610 1.400 . S
C611 C612 1.398 . S
C611 C617 1.491 . S
C612 H603 0.950 . S
C612 C611 1.398 . S
C612 C613 1.391 . S
C613 H601 0.950 . S
C613 C609 1.393 . S
C613 C612 1.391 . S
C614 H604 0.950 . S
C614 C615 1.386 . S
C614 C616 1.391 . S
C615 C614 1.386 . S
C615 C619 1.393 . S
C616 H605 0.950 . S
C616 C614 1.391 . S
C616 C617 1.400 . S
C617 C611 1.491 . S
C617 C616 1.400 . S
C617 C618 1.398 . S
C618 H606 0.950 . S
C618 C617 1.398 . S
C618 C619 1.391 . S
C619 H607 0.950 . S
C619 C615 1.393 . S
C619 C618 1.391 . S
H620 C628 0.950 . S
H621 C633 0.950 . S
H622 C630 0.950 . S
H623 C632 0.950 . S
H624 C634 0.950 . S
H625 C636 0.950 . S
H626 C638 0.950 . S
H627 C639 0.950 . S
C628 H620 0.950 . S
C628 C629 1.386 . S
C628 C630 1.391 . S
C629 C628 1.386 . S
C629 C633 1.393 . S
C630 H622 0.950 . S
C630 C628 1.391 . S
C630 C631 1.400 . S
C631 C630 1.400 . S
C631 C632 1.398 . S
C631 C637 1.491 . S
C632 H623 0.950 . S
C632 C631 1.398 . S
C632 C633 1.391 . S
C633 H621 0.950 . S
C633 C629 1.393 . S
C633 C632 1.391 . S
C634 H624 0.950 . S
C634 C635 1.386 . S
C634 C636 1.391 . S
C635 C634 1.386 . S
C635 C639 1.393 . S
C636 H625 0.950 . S
C636 C634 1.391 . S
C636 C637 1.400 . S
C637 C631 1.491 . S
C637 C636 1.400 . S
C637 C638 1.398 . S
C638 H626 0.950 . S
C638 C637 1.398 . S
C638 C639 1.391 . S
C639 H627 0.950 . S
C639 C635 1.393 . S
C639 C638 1.391 . S
H640 C648 0.950 . S
H641 C653 0.950 . S
H642 C650 0.950 . S
H643 C652 0.950 . S
H644 C654 0.950 . S
H645 C656 0.950 . S
H646 C658 0.950 . S
H647 C659 0.950 . S
C648 H640 0.950 . S
C648 C649 1.386 . S
C648 C650 1.391 . S
C649 C648 1.386 . S
C649 C653 1.393 . S
C650 H642 0.950 . S
C650 C648 1.391 . S
C650 C651 1.400 . S
C651 C650 1.400 . S
C651 C652 1.398 . S
C651 C657 1.491 . S
C652 H643 0.950 . S
C652 C651 1.398 . S
C652 C653 1.391 . S
C653 H641 0.950 . S
C653 C649 1.393 . S
C653 C652 1.391 . S
C654 H644 0.950 . S
C654 C655 1.386 . S
C654 C656 1.391 . S
C655 C654 1.386 . S
C655 C659 1.393 . S
C656 H645 0.950 . S
C656 C654 1.391 . S
C656 C657 1.400 . S
C657 C651 1.491 . S
C657 C656 1.400 . S
C657 C658 1.398 . S
C658 H646 0.950 . S
C658 C657 1.398 . S
C658 C659 1.391 . S
C659 H647 0.950 . S
C659 C655 1.393 . S
C659 C658 1.391 . S
H660 C668 0.950 1_545 S
H661 C673 0.945 1_545 S
H662 C670 0.950 . S
H663 C672 0.950 . S
H664 C674 0.950 . S
H665 C676 0.950 . S
H666 C678 0.950 . S
H667 C679 0.950 . S
C668 H660 0.950 1_565 S
C668 C669 1.386 1_565 S
C668 C670 1.391 . S
C669 C668 1.386 1_545 S
C669 C673 1.393 1_545 S
C670 H662 0.950 . S
C670 C668 1.391 . S
C670 C671 1.400 . S
C671 C670 1.400 . S
C671 C672 1.398 . S
C671 C677 1.491 . S
C672 H663 0.950 . S
C672 C671 1.398 . S
C672 C673 1.391 . S
C673 H661 0.945 1_565 S
C673 C669 1.393 1_565 S
C673 C672 1.391 . S
C674 H664 0.950 . S
C674 C675 1.386 . S
C674 C676 1.391 . S
C675 C674 1.386 . S
C675 C679 1.393 . S
C676 H665 0.950 . S
C676 C674 1.391 . S
C676 C677 1.400 . S
C677 C671 1.491 . S
C677 C676 1.400 . S
C677 C678 1.398 . S
C678 H666 0.950 . S
C678 C677 1.398 . S
C678 C679 1.391 . S
C679 H667 0.950 . S
C679 C675 1.393 . S
C679 C678 1.391 . S
H680 C688 0.950 . S
H681 C693 0.950 . S
H682 C690 0.950 . S
H683 C692 0.950 . S
H684 C694 0.950 . S
H685 C696 0.950 . S
H686 C698 0.950 . S
H687 C699 0.950 . S
C688 H680 0.950 . S
C688 C689 1.386 . S
C688 C690 1.391 . S
C689 C688 1.386 . S
C689 C693 1.393 . S
C690 H682 0.950 . S
C690 C688 1.391 . S
C690 C691 1.400 . S
C691 C690 1.400 . S
C691 C692 1.398 . S
C691 C697 1.491 . S
C692 H683 0.950 . S
C692 C691 1.398 . S
C692 C693 1.391 . S
C693 H681 0.950 . S
C693 C689 1.393 . S
C693 C692 1.391 . S
C694 H684 0.950 . S
C694 C695 1.386 . S
C694 C696 1.391 . S
C695 C694 1.386 . S
C695 C699 1.393 . S
C696 H685 0.950 . S
C696 C694 1.391 . S
C696 C697 1.400 . S
C697 C691 1.491 . S
C697 C696 1.400 . S
C697 C698 1.398 . S
C698 H686 0.950 . S
C698 C697 1.398 . S
C698 C699 1.391 . S
C699 H687 0.950 . S
C699 C695 1.393 . S
C699 C698 1.391 . S
H700 C708 0.950 . S
H701 C713 0.950 . S
H702 C710 0.950 . S
H703 C712 0.950 . S
H704 C714 0.950 . S
H705 C716 0.950 . S
H706 C718 0.950 . S
H707 C719 0.950 . S
C708 H700 0.950 . S
C708 C709 1.386 1_545 S
C708 C710 1.391 . S
C709 C708 1.386 1_565 S
C709 C713 1.393 . S
C710 H702 0.950 . S
C710 C708 1.391 . S
C710 C711 1.400 . S
C711 C710 1.400 . S
C711 C712 1.398 . S
C711 C717 1.491 . S
C712 H703 0.950 . S
C712 C711 1.398 . S
C712 C713 1.391 1_545 S
C713 H701 0.950 . S
C713 C709 1.393 . S
C713 C712 1.391 1_565 S
C714 H704 0.950 . S
C714 C715 1.386 . S
C714 C716 1.391 . S
C715 C714 1.386 . S
C715 C719 1.393 . S
C716 H705 0.950 . S
C716 C714 1.391 . S
C716 C717 1.400 . S
C717 C711 1.491 . S
C717 C716 1.400 . S
C717 C718 1.398 . S
C718 H706 0.950 . S
C718 C717 1.398 . S
C718 C719 1.391 . S
C719 H707 0.950 . S
C719 C715 1.393 . S
C719 C718 1.391 . S
H720 C728 0.950 . S
H721 C733 0.950 . S
H722 C730 0.950 . S
H723 C732 0.950 . S
H724 C734 0.950 . S
H725 C736 0.950 . S
H726 C738 0.950 . S
H727 C739 0.950 . S
C728 H720 0.950 . S
C728 C729 1.386 . S
C728 C730 1.391 . S
C729 C728 1.386 . S
C729 C733 1.393 . S
C730 H722 0.950 . S
C730 C728 1.391 . S
C730 C731 1.400 . S
C731 C730 1.400 . S
C731 C732 1.398 . S
C731 C737 1.491 . S
C732 H723 0.950 . S
C732 C731 1.398 . S
C732 C733 1.391 . S
C733 H721 0.950 . S
C733 C729 1.393 . S
C733 C732 1.391 . S
C734 H724 0.950 . S
C734 C735 1.386 . S
C734 C736 1.391 . S
C735 C734 1.386 . S
C735 C739 1.393 . S
C736 H725 0.950 . S
C736 C734 1.391 . S
C736 C737 1.400 . S
C737 C731 1.491 . S
C737 C736 1.400 . S
C737 C738 1.398 . S
C738 H726 0.950 . S
C738 C737 1.398 . S
C738 C739 1.391 . S
C739 H727 0.950 . S
C739 C735 1.393 . S
C739 C738 1.391 . S
H740 C748 0.950 . S
H741 C753 0.950 . S
H742 C750 0.950 . S
H743 C752 0.950 . S
H744 C754 0.950 . S
H745 C756 0.950 . S
H746 C758 0.950 . S
H747 C759 0.950 . S
C748 H740 0.950 . S
C748 C749 1.386 . S
C748 C750 1.391 . S
C749 C748 1.386 . S
C749 C753 1.393 . S
C750 H742 0.950 . S
C750 C748 1.391 . S
C750 C751 1.400 . S
C751 C750 1.400 . S
C751 C752 1.398 . S
C751 C757 1.491 . S
C752 H743 0.950 . S
C752 C751 1.398 . S
C752 C753 1.391 . S
C753 H741 0.950 . S
C753 C749 1.393 . S
C753 C752 1.391 . S
C754 H744 0.950 . S
C754 C755 1.386 1_545 S
C754 C756 1.391 . S
C755 C754 1.386 1_565 S
C755 C759 1.393 . S
C756 H745 0.950 . S
C756 C754 1.391 . S
C756 C757 1.400 . S
C757 C751 1.491 . S
C757 C756 1.400 . S
C757 C758 1.398 . S
C758 H746 0.950 . S
C758 C757 1.398 . S
C758 C759 1.391 1_545 S
C759 H747 0.950 . S
C759 C755 1.393 . S
C759 C758 1.391 1_565 S
H760 C768 0.950 . S
H761 C773 0.950 . S
H762 C770 0.950 . S
H763 C772 0.950 . S
H764 C774 0.950 . S
H765 C776 0.950 . S
H766 C778 0.950 1_556 S
H767 C779 0.950 . S
C768 H760 0.950 . S
C768 C769 1.386 . S
C768 C770 1.391 . S
C769 C768 1.386 . S
C769 C773 1.393 . S
C770 H762 0.950 . S
C770 C768 1.391 . S
C770 C771 1.400 . S
C771 C770 1.400 . S
C771 C772 1.398 . S
C771 C777 1.491 . S
C772 H763 0.950 . S
C772 C771 1.398 . S
C772 C773 1.391 . S
C773 H761 0.950 . S
C773 C769 1.393 . S
C773 C772 1.391 . S
C774 H764 0.950 . S
C774 C775 1.386 . S
C774 C776 1.391 . S
C775 C774 1.386 . S
C775 C779 1.393 1_554 S
C776 H765 0.950 . S
C776 C774 1.391 . S
C776 C777 1.400 . S
C777 C771 1.491 . S
C777 C776 1.400 . S
C777 C778 1.398 . S
C778 H766 0.950 1_554 S
C778 C777 1.398 . S
C778 C779 1.391 1_554 S
C779 H767 0.950 . S
C779 C775 1.393 1_556 S
C779 C778 1.391 1_556 S
H780 C788 0.950 . S
H781 C793 0.950 . S
H782 C790 0.950 . S
H783 C792 0.950 . S
H784 C794 0.950 . S
H785 C796 0.950 . S
H786 C798 0.950 . S
H787 C799 0.950 . S
C788 H780 0.950 . S
C788 C789 1.386 . S
C788 C790 1.391 1_545 S
C789 C788 1.386 . S
C789 C793 1.393 1_545 S
C790 H782 0.950 . S
C790 C788 1.391 1_565 S
C790 C791 1.400 . S
C791 C790 1.400 . S
C791 C792 1.398 . S
C791 C797 1.491 . S
C792 H783 0.950 . S
C792 C791 1.398 . S
C792 C793 1.391 . S
C793 H781 0.950 . S
C793 C789 1.393 1_565 S
C793 C792 1.391 . S
C794 H784 0.950 . S
C794 C795 1.386 . S
C794 C796 1.391 . S
C795 C794 1.386 . S
C795 C799 1.393 . S
C796 H785 0.950 . S
C796 C794 1.391 . S
C796 C797 1.400 . S
C797 C791 1.491 . S
C797 C796 1.400 . S
C797 C798 1.398 . S
C798 H786 0.950 . S
C798 C797 1.398 . S
C798 C799 1.391 . S
C799 H787 0.950 . S
C799 C795 1.393 . S
C799 C798 1.391 . S
H800 C808 0.950 . S
H801 C813 0.950 . S
H802 C810 0.950 . S
H803 C812 0.950 . S
H804 C814 0.950 . S
H805 C816 0.950 . S
H806 C818 0.950 . S
H807 C819 0.950 . S
C808 H800 0.950 . S
C808 C809 1.386 . S
C808 C810 1.391 . S
C809 C808 1.386 . S
C809 C813 1.393 . S
C810 H802 0.950 . S
C810 C808 1.391 . S
C810 C811 1.400 . S
C811 C810 1.400 . S
C811 C812 1.398 . S
C811 C817 1.491 . S
C812 H803 0.950 . S
C812 C811 1.398 . S
C812 C813 1.391 . S
C813 H801 0.950 . S
C813 C809 1.393 . S
C813 C812 1.391 . S
C814 H804 0.950 . S
C814 C815 1.386 . S
C814 C816 1.391 . S
C815 C814 1.386 . S
C815 C819 1.393 . S
C816 H805 0.950 . S
C816 C814 1.391 . S
C816 C817 1.400 . S
C817 C811 1.491 . S
C817 C816 1.400 . S
C817 C818 1.398 . S
C818 H806 0.950 . S
C818 C817 1.398 . S
C818 C819 1.391 . S
C819 H807 0.950 . S
C819 C815 1.393 . S
C819 C818 1.391 . S
H820 C828 0.950 . S
H821 C833 0.950 . S
H822 C830 0.950 . S
H823 C832 0.950 . S
H824 C834 0.950 . S
H825 C836 0.950 . S
H826 C838 0.950 . S
H827 C839 0.950 . S
C828 H820 0.950 . S
C828 C829 1.386 . S
C828 C830 1.391 . S
C829 C828 1.386 . S
C829 C833 1.393 . S
C830 H822 0.950 . S
C830 C828 1.391 . S
C830 C831 1.400 . S
C831 C830 1.400 . S
C831 C832 1.398 . S
C831 C837 1.491 . S
C832 H823 0.950 . S
C832 C831 1.398 . S
C832 C833 1.391 . S
C833 H821 0.950 . S
C833 C829 1.393 . S
C833 C832 1.391 . S
C834 H824 0.950 . S
C834 C835 1.386 . S
C834 C836 1.391 . S
C835 C834 1.386 . S
C835 C839 1.393 . S
C836 H825 0.950 . S
C836 C834 1.391 . S
C836 C837 1.400 . S
C837 C831 1.491 . S
C837 C836 1.400 . S
C837 C838 1.398 . S
C838 H826 0.950 . S
C838 C837 1.398 . S
C838 C839 1.391 . S
C839 H827 0.950 . S
C839 C835 1.393 . S
C839 C838 1.391 . S
H840 C848 0.938 1_455 S
H841 C853 0.950 . S
H842 C850 0.950 . S
H843 C852 0.950 . S
H844 C854 0.950 . S
H845 C856 0.950 . S
H846 C858 0.950 . S
H847 C859 0.950 . S
C848 H840 0.938 1_655 S
C848 C849 1.386 . S
C848 C850 1.391 1_655 S
C849 C848 1.386 . S
C849 C853 1.393 . S
C850 H842 0.950 . S
C850 C848 1.391 1_455 S
C850 C851 1.400 . S
C851 C850 1.400 . S
C851 C852 1.398 1_455 S
C851 C857 1.491 . S
C852 H843 0.950 . S
C852 C851 1.398 1_655 S
C852 C853 1.391 . S
C853 H841 0.950 . S
C853 C849 1.393 . S
C853 C852 1.391 . S
C854 H844 0.950 . S
C854 C855 1.386 . S
C854 C856 1.391 . S
C855 C854 1.386 . S
C855 C859 1.393 . S
C856 H845 0.950 . S
C856 C854 1.391 . S
C856 C857 1.400 . S
C857 C851 1.491 . S
C857 C856 1.400 . S
C857 C858 1.398 . S
C858 H846 0.950 . S
C858 C857 1.398 . S
C858 C859 1.391 . S
C859 H847 0.950 . S
C859 C855 1.393 . S
C859 C858 1.391 . S
H860 C868 0.950 . S
H861 C873 0.950 . S
H862 C870 0.950 . S
H863 C872 0.950 . S
H864 C874 0.950 . S
H865 C876 0.950 . S
H866 C878 0.950 . S
H867 C879 0.950 . S
C868 H860 0.950 . S
C868 C869 1.386 . S
C868 C870 1.391 . S
C869 C868 1.386 . S
C869 C873 1.393 . S
C870 H862 0.950 . S
C870 C868 1.391 . S
C870 C871 1.400 . S
C871 C870 1.400 . S
C871 C872 1.398 . S
C871 C877 1.491 . S
C872 H863 0.950 . S
C872 C871 1.398 . S
C872 C873 1.391 . S
C873 H861 0.950 . S
C873 C869 1.393 . S
C873 C872 1.391 . S
C874 H864 0.950 . S
C874 C875 1.386 . S
C874 C876 1.391 . S
C875 C874 1.386 . S
C875 C879 1.393 . S
C876 H865 0.950 . S
C876 C874 1.391 . S
C876 C877 1.400 . S
C877 C871 1.491 . S
C877 C876 1.400 . S
C877 C878 1.398 . S
C878 H866 0.950 . S
C878 C877 1.398 . S
C878 C879 1.391 . S
C879 H867 0.950 . S
C879 C875 1.393 . S
C879 C878 1.391 . S
H880 C888 0.950 . S
H881 C893 0.950 . S
H882 C890 0.950 . S
H883 C892 0.950 . S
H884 C894 0.950 . S
H885 C896 0.950 . S
H886 C898 0.950 . S
H887 C899 0.950 . S
C888 H880 0.950 . S
C888 C889 1.386 . S
C888 C890 1.391 . S
C889 C888 1.386 . S
C889 C893 1.393 . S
C890 H882 0.950 . S
C890 C888 1.391 . S
C890 C891 1.400 . S
C891 C890 1.400 . S
C891 C892 1.398 . S
C891 C897 1.491 . S
C892 H883 0.950 . S
C892 C891 1.398 . S
C892 C893 1.391 . S
C893 H881 0.950 . S
C893 C889 1.393 . S
C893 C892 1.391 . S
C894 H884 0.950 . S
C894 C895 1.386 . S
C894 C896 1.391 . S
C895 C894 1.386 . S
C895 C899 1.393 . S
C896 H885 0.950 . S
C896 C894 1.391 . S
C896 C897 1.400 . S
C897 C891 1.491 . S
C897 C896 1.400 . S
C897 C898 1.398 . S
C898 H886 0.950 . S
C898 C897 1.398 . S
C898 C899 1.391 . S
C899 H887 0.950 . S
C899 C895 1.393 . S
C899 C898 1.391 . S
H900 C908 0.950 . S
H901 C913 0.950 . S
H902 C910 0.950 . S
H903 C912 0.950 . S
H904 C914 0.950 1_554 S
H905 C916 0.950 . S
H906 C918 0.950 . S
H907 C919 0.950 . S
C908 H900 0.950 . S
C908 C909 1.386 . S
C908 C910 1.391 . S
C909 C908 1.386 . S
C909 C913 1.393 . S
C910 H902 0.950 . S
C910 C908 1.391 . S
C910 C911 1.400 . S
C911 C910 1.400 . S
C911 C912 1.398 . S
C911 C917 1.491 . S
C912 H903 0.950 . S
C912 C911 1.398 . S
C912 C913 1.391 . S
C913 H901 0.950 . S
C913 C909 1.393 . S
C913 C912 1.391 . S
C914 H904 0.950 1_556 S
C914 C915 1.386 . S
C914 C916 1.391 . S
C915 C914 1.386 . S
C915 C919 1.393 . S
C916 H905 0.950 . S
C916 C914 1.391 . S
C916 C917 1.400 . S
C917 C911 1.491 . S
C917 C916 1.400 . S
C917 C918 1.398 . S
C918 H906 0.950 . S
C918 C917 1.398 . S
C918 C919 1.391 . S
C919 H907 0.950 . S
C919 C915 1.393 . S
C919 C918 1.391 . S
H920 C928 0.950 . S
H921 C933 0.941 1_655 S
H922 C930 0.950 . S
H923 C932 0.950 . S
H924 C934 0.950 . S
H925 C936 0.950 . S
H926 C938 0.950 . S
H927 C939 0.950 . S
C928 H920 0.950 . S
C928 C929 1.386 . S
C928 C930 1.391 . S
C929 C928 1.386 . S
C929 C933 1.393 . S
C930 H922 0.950 . S
C930 C928 1.391 . S
C930 C931 1.400 1_455 S
C931 C930 1.400 1_655 S
C931 C932 1.398 . S
C931 C937 1.491 . S
C932 H923 0.950 . S
C932 C931 1.398 . S
C932 C933 1.391 1_655 S
C933 H921 0.941 1_455 S
C933 C929 1.393 . S
C933 C932 1.391 1_455 S
C934 H924 0.950 . S
C934 C935 1.386 . S
C934 C936 1.391 . S
C935 C934 1.386 . S
C935 C939 1.393 . S
C936 H925 0.950 . S
C936 C934 1.391 . S
C936 C937 1.400 . S
C937 C931 1.491 . S
C937 C936 1.400 . S
C937 C938 1.398 . S
C938 H926 0.950 . S
C938 C937 1.398 . S
C938 C939 1.391 . S
C939 H927 0.950 . S
C939 C935 1.393 . S
C939 C938 1.391 . S
H940 C948 0.950 . S
H941 C953 0.950 . S
H942 C950 0.950 . S
H943 C952 0.950 . S
H944 C954 0.950 . S
H945 C956 0.950 . S
H946 C958 0.950 . S
H947 C959 0.950 . S
C948 H940 0.950 . S
C948 C949 1.386 . S
C948 C950 1.391 . S
C949 C948 1.386 . S
C949 C953 1.393 . S
C950 H942 0.950 . S
C950 C948 1.391 . S
C950 C951 1.400 . S
C951 C950 1.400 . S
C951 C952 1.398 . S
C951 C957 1.491 . S
C952 H943 0.950 . S
C952 C951 1.398 . S
C952 C953 1.391 . S
C953 H941 0.950 . S
C953 C949 1.393 . S
C953 C952 1.391 . S
C954 H944 0.950 . S
C954 C955 1.386 . S
C954 C956 1.391 . S
C955 C954 1.386 . S
C955 C959 1.393 . S
C956 H945 0.950 . S
C956 C954 1.391 . S
C956 C957 1.400 . S
C957 C951 1.491 . S
C957 C956 1.400 . S
C957 C958 1.398 . S
C958 H946 0.950 . S
C958 C957 1.398 . S
C958 C959 1.391 . S
C959 H947 0.950 . S
C959 C955 1.393 . S
C959 C958 1.391 . S
H960 C968 0.950 . S
H961 C973 0.950 . S
H962 C970 0.950 . S
H963 C972 0.950 . S
H964 C974 0.950 . S
H965 C976 0.950 . S
H966 C978 0.950 . S
H967 C979 0.950 . S
C968 H960 0.950 . S
C968 C969 1.386 . S
C968 C970 1.391 . S
C969 C968 1.386 . S
C969 C973 1.393 . S
C970 H962 0.950 . S
C970 C968 1.391 . S
C970 C971 1.400 . S
C971 C970 1.400 . S
C971 C972 1.398 . S
C971 C977 1.491 . S
C972 H963 0.950 . S
C972 C971 1.398 . S
C972 C973 1.391 . S
C973 H961 0.950 . S
C973 C969 1.393 . S
C973 C972 1.391 . S
C974 H964 0.950 . S
C974 C975 1.386 . S
C974 C976 1.391 1_455 S
C975 C974 1.386 . S
C975 C979 1.393 . S
C976 H965 0.950 . S
C976 C974 1.391 1_655 S
C976 C977 1.400 . S
C977 C971 1.491 . S
C977 C976 1.400 . S
C977 C978 1.398 1_655 S
C978 H966 0.950 . S
C978 C977 1.398 1_455 S
C978 C979 1.391 . S
C979 H967 0.950 . S
C979 C975 1.393 . S
C979 C978 1.391 . S
H980 C988 0.950 . S
H981 C993 0.950 . S
H982 C990 0.950 . S
H983 C992 0.950 . S
H984 C994 0.950 . S
H985 C996 0.950 . S
H986 C998 0.950 . S
H987 C999 0.950 . S
C988 H980 0.950 . S
C988 C989 1.386 . S
C988 C990 1.391 . S
C989 C988 1.386 . S
C989 C993 1.393 . S
C990 H982 0.950 . S
C990 C988 1.391 . S
C990 C991 1.400 . S
C991 C990 1.400 . S
C991 C992 1.398 . S
C991 C997 1.491 . S
C992 H983 0.950 . S
C992 C991 1.398 . S
C992 C993 1.391 . S
C993 H981 0.950 . S
C993 C989 1.393 . S
C993 C992 1.391 . S
C994 H984 0.950 . S
C994 C995 1.386 . S
C994 C996 1.391 . S
C995 C994 1.386 . S
C995 C999 1.393 . S
C996 H985 0.950 . S
C996 C994 1.391 . S
C996 C997 1.400 . S
C997 C991 1.491 . S
C997 C996 1.400 . S
C997 C998 1.398 . S
C998 H986 0.950 . S
C998 C997 1.398 . S
C998 C999 1.391 . S
C999 H987 0.950 . S
C999 C995 1.393 . S
C999 C998 1.391 . S
H1000 C1008 0.950 . S
H1001 C1013 0.950 . S
H1002 C1010 0.950 . S
H1003 C1012 0.950 . S
H1004 C1014 0.950 . S
H1005 C1016 0.950 . S
H1006 C1018 0.950 . S
H1007 C1019 0.950 . S
C1008 H1000 0.950 . S
C1008 C1009 1.386 . S
C1008 C1010 1.391 . S
C1009 C1008 1.386 . S
C1009 C1013 1.393 . S
C1010 H1002 0.950 . S
C1010 C1008 1.391 . S
C1010 C1011 1.400 . S
C1011 C1010 1.400 . S
C1011 C1012 1.398 . S
C1011 C1017 1.491 . S
C1012 H1003 0.950 . S
C1012 C1011 1.398 . S
C1012 C1013 1.391 . S
C1013 H1001 0.950 . S
C1013 C1009 1.393 . S
C1013 C1012 1.391 . S
C1014 H1004 0.950 . S
C1014 C1015 1.386 . S
C1014 C1016 1.391 . S
C1015 C1014 1.386 . S
C1015 C1019 1.393 . S
C1016 H1005 0.950 . S
C1016 C1014 1.391 . S
C1016 C1017 1.400 . S
C1017 C1011 1.491 . S
C1017 C1016 1.400 . S
C1017 C1018 1.398 . S
C1018 H1006 0.950 . S
C1018 C1017 1.398 . S
C1018 C1019 1.391 . S
C1019 H1007 0.950 . S
C1019 C1015 1.393 . S
C1019 C1018 1.391 . S
H1020 C1028 0.950 . S
H1021 C1033 0.950 . S
H1022 C1030 0.950 . S
H1023 C1032 0.950 . S
H1024 C1034 0.950 . S
H1025 C1036 0.950 . S
H1026 C1038 0.950 . S
H1027 C1039 0.950 . S
C1028 H1020 0.950 . S
C1028 C1029 1.386 . S
C1028 C1030 1.391 . S
C1029 C1028 1.386 . S
C1029 C1033 1.393 . S
C1030 H1022 0.950 . S
C1030 C1028 1.391 . S
C1030 C1031 1.400 . S
C1031 C1030 1.400 . S
C1031 C1032 1.398 . S
C1031 C1037 1.491 . S
C1032 H1023 0.950 . S
C1032 C1031 1.398 . S
C1032 C1033 1.391 . S
C1033 H1021 0.950 . S
C1033 C1029 1.393 . S
C1033 C1032 1.391 . S
C1034 H1024 0.950 . S
C1034 C1035 1.386 . S
C1034 C1036 1.391 . S
C1035 C1034 1.386 . S
C1035 C1039 1.393 . S
C1036 H1025 0.950 . S
C1036 C1034 1.391 . S
C1036 C1037 1.400 . S
C1037 C1031 1.491 . S
C1037 C1036 1.400 . S
C1037 C1038 1.398 . S
C1038 H1026 0.950 . S
C1038 C1037 1.398 . S
C1038 C1039 1.391 . S
C1039 H1027 0.950 . S
C1039 C1035 1.393 . S
C1039 C1038 1.391 . S
H1040 C1048 0.950 . S
H1041 C1053 0.950 . S
H1042 C1050 0.950 . S
H1043 C1052 0.950 . S
H1044 C1054 0.950 . S
H1045 C1056 0.950 . S
H1046 C1058 0.950 . S
H1047 C1059 0.950 . S
C1048 H1040 0.950 . S
C1048 C1049 1.386 . S
C1048 C1050 1.391 . S
C1049 C1048 1.386 . S
C1049 C1053 1.393 . S
C1050 H1042 0.950 . S
C1050 C1048 1.391 . S
C1050 C1051 1.400 . S
C1051 C1050 1.400 . S
C1051 C1052 1.398 . S
C1051 C1057 1.491 . S
C1052 H1043 0.950 . S
C1052 C1051 1.398 . S
C1052 C1053 1.391 . S
C1053 H1041 0.950 . S
C1053 C1049 1.393 . S
C1053 C1052 1.391 . S
C1054 H1044 0.950 . S
C1054 C1055 1.386 . S
C1054 C1056 1.391 1_655 S
C1055 C1054 1.386 . S
C1055 C1059 1.393 . S
C1056 H1045 0.950 . S
C1056 C1054 1.391 1_455 S
C1056 C1057 1.400 . S
C1057 C1051 1.491 . S
C1057 C1056 1.400 . S
C1057 C1058 1.398 1_455 S
C1058 H1046 0.950 . S
C1058 C1057 1.398 1_655 S
C1058 C1059 1.391 . S
C1059 H1047 0.950 . S
C1059 C1055 1.393 . S
C1059 C1058 1.391 . S
H1060 C1068 0.950 . S
H1061 C1073 0.950 . S
H1062 C1070 0.950 . S
H1063 C1072 0.950 . S
H1064 C1074 0.950 . S
H1065 C1076 0.950 . S
H1066 C1078 0.950 . S
H1067 C1079 0.950 . S
C1068 H1060 0.950 . S
C1068 C1069 1.386 . S
C1068 C1070 1.391 . S
C1069 C1068 1.386 . S
C1069 C1073 1.393 . S
C1070 H1062 0.950 . S
C1070 C1068 1.391 . S
C1070 C1071 1.400 . S
C1071 C1070 1.400 . S
C1071 C1072 1.398 . S
C1071 C1077 1.491 . S
C1072 H1063 0.950 . S
C1072 C1071 1.398 . S
C1072 C1073 1.391 . S
C1073 H1061 0.950 . S
C1073 C1069 1.393 . S
C1073 C1072 1.391 . S
C1074 H1064 0.950 . S
C1074 C1075 1.386 . S
C1074 C1076 1.391 . S
C1075 C1074 1.386 . S
C1075 C1079 1.393 . S
C1076 H1065 0.950 . S
C1076 C1074 1.391 . S
C1076 C1077 1.400 . S
C1077 C1071 1.491 . S
C1077 C1076 1.400 . S
C1077 C1078 1.398 . S
C1078 H1066 0.950 . S
C1078 C1077 1.398 . S
C1078 C1079 1.391 . S
C1079 H1067 0.950 . S
C1079 C1075 1.393 . S
C1079 C1078 1.391 . S
H1080 C1088 0.950 . S
H1081 C1093 0.950 . S
H1082 C1090 0.950 . S
H1083 C1092 0.950 . S
H1084 C1094 0.950 . S
H1085 C1096 0.950 . S
H1086 C1098 0.950 . S
H1087 C1099 0.950 . S
C1088 H1080 0.950 . S
C1088 C1089 1.386 . S
C1088 C1090 1.391 . S
C1089 C1088 1.386 . S
C1089 C1093 1.393 . S
C1090 H1082 0.950 . S
C1090 C1088 1.391 . S
C1090 C1091 1.400 . S
C1091 C1090 1.400 . S
C1091 C1092 1.398 . S
C1091 C1097 1.491 . S
C1092 H1083 0.950 . S
C1092 C1091 1.398 . S
C1092 C1093 1.391 . S
C1093 H1081 0.950 . S
C1093 C1089 1.393 . S
C1093 C1092 1.391 . S
C1094 H1084 0.950 . S
C1094 C1095 1.386 . S
C1094 C1096 1.391 . S
C1095 C1094 1.386 . S
C1095 C1099 1.393 . S
C1096 H1085 0.950 . S
C1096 C1094 1.391 . S
C1096 C1097 1.400 . S
C1097 C1091 1.491 . S
C1097 C1096 1.400 . S
C1097 C1098 1.398 . S
C1098 H1086 0.950 . S
C1098 C1097 1.398 . S
C1098 C1099 1.391 . S
C1099 H1087 0.950 . S
C1099 C1095 1.393 . S
C1099 C1098 1.391 . S
H1100 C1108 0.950 1_554 S
H1101 C1113 0.950 . S
H1102 C1110 0.950 . S
H1103 C1112 0.950 . S
H1104 C1114 0.950 . S
H1105 C1116 0.950 . S
H1106 C1118 0.950 . S
H1107 C1119 0.950 . S
C1108 H1100 0.950 1_556 S
C1108 C1109 1.386 . S
C1108 C1110 1.391 . S
C1109 C1108 1.386 . S
C1109 C1113 1.393 . S
C1110 H1102 0.950 . S
C1110 C1108 1.391 . S
C1110 C1111 1.400 . S
C1111 C1110 1.400 . S
C1111 C1112 1.398 . S
C1111 C1117 1.491 . S
C1112 H1103 0.950 . S
C1112 C1111 1.398 . S
C1112 C1113 1.391 . S
C1113 H1101 0.950 . S
C1113 C1109 1.393 . S
C1113 C1112 1.391 . S
C1114 H1104 0.950 . S
C1114 C1115 1.386 . S
C1114 C1116 1.391 . S
C1115 C1114 1.386 . S
C1115 C1119 1.393 . S
C1116 H1105 0.950 . S
C1116 C1114 1.391 . S
C1116 C1117 1.400 . S
C1117 C1111 1.491 . S
C1117 C1116 1.400 . S
C1117 C1118 1.398 . S
C1118 H1106 0.950 . S
C1118 C1117 1.398 . S
C1118 C1119 1.391 . S
C1119 H1107 0.950 . S
C1119 C1115 1.393 . S
C1119 C1118 1.391 . S
H1120 C1128 0.950 . S
H1121 C1133 0.950 . S
H1122 C1130 0.950 . S
H1123 C1132 0.950 . S
H1124 C1134 0.950 . S
H1125 C1136 0.950 . S
H1126 C1138 0.950 . S
H1127 C1139 0.950 . S
C1128 H1120 0.950 . S
C1128 C1129 1.386 . S
C1128 C1130 1.391 . S
C1129 C1128 1.386 . S
C1129 C1133 1.393 . S
C1130 H1122 0.950 . S
C1130 C1128 1.391 . S
C1130 C1131 1.400 . S
C1131 C1130 1.400 . S
C1131 C1132 1.398 . S
C1131 C1137 1.491 . S
C1132 H1123 0.950 . S
C1132 C1131 1.398 . S
C1132 C1133 1.391 . S
C1133 H1121 0.950 . S
C1133 C1129 1.393 . S
C1133 C1132 1.391 . S
C1134 H1124 0.950 . S
C1134 C1135 1.386 . S
C1134 C1136 1.391 . S
C1135 C1134 1.386 . S
C1135 C1139 1.393 . S
C1136 H1125 0.950 . S
C1136 C1134 1.391 . S
C1136 C1137 1.400 . S
C1137 C1131 1.491 . S
C1137 C1136 1.400 . S
C1137 C1138 1.398 . S
C1138 H1126 0.950 . S
C1138 C1137 1.398 . S
C1138 C1139 1.391 . S
C1139 H1127 0.950 . S
C1139 C1135 1.393 . S
C1139 C1138 1.391 . S
H1140 C1148 0.950 . S
H1141 C1153 0.950 . S
H1142 C1150 0.950 . S
H1143 C1152 0.950 . S
H1144 C1154 0.950 . S
H1145 C1156 0.950 . S
H1146 C1158 0.950 . S
H1147 C1159 0.950 . S
C1148 H1140 0.950 . S
C1148 C1149 1.386 . S
C1148 C1150 1.391 . S
C1149 C1148 1.386 . S
C1149 C1153 1.393 . S
C1150 H1142 0.950 . S
C1150 C1148 1.391 . S
C1150 C1151 1.400 . S
C1151 C1150 1.400 . S
C1151 C1152 1.398 . S
C1151 C1157 1.491 . S
C1152 H1143 0.950 . S
C1152 C1151 1.398 . S
C1152 C1153 1.391 . S
C1153 H1141 0.950 . S
C1153 C1149 1.393 . S
C1153 C1152 1.391 . S
C1154 H1144 0.950 . S
C1154 C1155 1.386 . S
C1154 C1156 1.391 . S
C1155 C1154 1.386 . S
C1155 C1159 1.393 . S
C1156 H1145 0.950 . S
C1156 C1154 1.391 . S
C1156 C1157 1.400 . S
C1157 C1151 1.491 . S
C1157 C1156 1.400 . S
C1157 C1158 1.398 . S
C1158 H1146 0.950 . S
C1158 C1157 1.398 . S
C1158 C1159 1.391 . S
C1159 H1147 0.950 . S
C1159 C1155 1.393 . S
C1159 C1158 1.391 . S
H1160 C1168 0.950 . S
H1161 C1173 0.950 . S
H1162 C1170 0.950 . S
H1163 C1172 0.950 . S
H1164 C1174 0.950 . S
H1165 C1176 0.950 . S
H1166 C1178 0.950 . S
H1167 C1179 0.950 . S
C1168 H1160 0.950 . S
C1168 C1169 1.386 . S
C1168 C1170 1.391 . S
C1169 C1168 1.386 . S
C1169 C1173 1.393 . S
C1170 H1162 0.950 . S
C1170 C1168 1.391 . S
C1170 C1171 1.400 . S
C1171 C1170 1.400 . S
C1171 C1172 1.398 . S
C1171 C1177 1.491 . S
C1172 H1163 0.950 . S
C1172 C1171 1.398 . S
C1172 C1173 1.391 . S
C1173 H1161 0.950 . S
C1173 C1169 1.393 . S
C1173 C1172 1.391 . S
C1174 H1164 0.950 . S
C1174 C1175 1.386 . S
C1174 C1176 1.391 . S
C1175 C1174 1.386 . S
C1175 C1179 1.393 . S
C1176 H1165 0.950 . S
C1176 C1174 1.391 . S
C1176 C1177 1.400 . S
C1177 C1171 1.491 . S
C1177 C1176 1.400 . S
C1177 C1178 1.398 . S
C1178 H1166 0.950 . S
C1178 C1177 1.398 . S
C1178 C1179 1.391 . S
C1179 H1167 0.950 . S
C1179 C1175 1.393 . S
C1179 C1178 1.391 . S
H1180 C1188 0.950 . S
H1181 C1193 0.950 . S
H1182 C1190 0.950 . S
H1183 C1192 0.950 1_556 S
H1184 C1194 0.950 . S
H1185 C1196 0.950 . S
H1186 C1198 0.950 1_554 S
H1187 C1199 0.950 . S
C1188 H1180 0.950 . S
C1188 C1189 1.386 . S
C1188 C1190 1.391 1_455 S
C1189 C1188 1.386 . S
C1189 C1193 1.393 . S
C1190 H1182 0.950 . S
C1190 C1188 1.391 1_655 S
C1190 C1191 1.400 1_655 S
C1191 C1190 1.400 1_455 S
C1191 C1192 1.398 . S
C1191 C1197 1.491 1_454 S
C1192 H1183 0.950 1_554 S
C1192 C1191 1.398 . S
C1192 C1193 1.391 . S
C1193 H1181 0.950 . S
C1193 C1189 1.393 . S
C1193 C1192 1.391 . S
C1194 H1184 0.950 . S
C1194 C1195 1.386 . S
C1194 C1196 1.391 1_655 S
C1195 C1194 1.386 . S
C1195 C1199 1.393 . S
C1196 H1185 0.950 . S
C1196 C1194 1.391 1_455 S
C1196 C1197 1.400 1_455 S
C1197 C1191 1.491 1_656 S
C1197 C1196 1.400 1_655 S
C1197 C1198 1.398 . S
C1198 H1186 0.950 1_556 S
C1198 C1197 1.398 . S
C1198 C1199 1.391 . S
C1199 H1187 0.950 . S
C1199 C1195 1.393 . S
C1199 C1198 1.391 . S
H1200 C1208 0.950 . S
H1201 C1213 0.950 . S
H1202 C1210 0.950 . S
H1203 C1212 0.950 . S
H1204 C1214 0.950 . S
H1205 C1216 0.950 . S
H1206 C1218 0.950 . S
H1207 C1219 0.950 . S
C1208 H1200 0.950 . S
C1208 C1209 1.386 . S
C1208 C1210 1.391 . S
C1209 C1208 1.386 . S
C1209 C1213 1.393 . S
C1210 H1202 0.950 . S
C1210 C1208 1.391 . S
C1210 C1211 1.400 . S
C1211 C1210 1.400 . S
C1211 C1212 1.398 . S
C1211 C1217 1.491 . S
C1212 H1203 0.950 . S
C1212 C1211 1.398 . S
C1212 C1213 1.391 . S
C1213 H1201 0.950 . S
C1213 C1209 1.393 . S
C1213 C1212 1.391 . S
C1214 H1204 0.950 . S
C1214 C1215 1.386 . S
C1214 C1216 1.391 . S
C1215 C1214 1.386 . S
C1215 C1219 1.393 . S
C1216 H1205 0.950 . S
C1216 C1214 1.391 . S
C1216 C1217 1.400 . S
C1217 C1211 1.491 . S
C1217 C1216 1.400 . S
C1217 C1218 1.398 . S
C1218 H1206 0.950 . S
C1218 C1217 1.398 . S
C1218 C1219 1.391 . S
C1219 H1207 0.950 . S
C1219 C1215 1.393 . S
C1219 C1218 1.391 . S
H1220 C1228 0.950 . S
H1221 C1233 0.950 . S
H1222 C1230 0.950 . S
H1223 C1232 0.950 . S
H1224 C1234 0.950 . S
H1225 C1236 0.950 . S
H1226 C1238 0.950 . S
H1227 C1239 0.950 . S
C1228 H1220 0.950 . S
C1228 C1229 1.386 . S
C1228 C1230 1.391 . S
C1229 C1228 1.386 . S
C1229 C1233 1.393 . S
C1230 H1222 0.950 . S
C1230 C1228 1.391 . S
C1230 C1231 1.400 . S
C1231 C1230 1.400 . S
C1231 C1232 1.398 . S
C1231 C1237 1.491 . S
C1232 H1223 0.950 . S
C1232 C1231 1.398 . S
C1232 C1233 1.391 . S
C1233 H1221 0.950 . S
C1233 C1229 1.393 . S
C1233 C1232 1.391 . S
C1234 H1224 0.950 . S
C1234 C1235 1.386 . S
C1234 C1236 1.391 . S
C1235 C1234 1.386 . S
C1235 C1239 1.393 . S
C1236 H1225 0.950 . S
C1236 C1234 1.391 . S
C1236 C1237 1.400 . S
C1237 C1231 1.491 . S
C1237 C1236 1.400 . S
C1237 C1238 1.398 . S
C1238 H1226 0.950 . S
C1238 C1237 1.398 . S
C1238 C1239 1.391 . S
C1239 H1227 0.950 . S
C1239 C1235 1.393 . S
C1239 C1238 1.391 . S
H1240 C1248 0.950 . S
H1241 C1253 0.950 . S
H1242 C1250 0.918 1_655 S
H1243 C1252 0.950 1_554 S
H1244 C1254 0.950 . S
H1245 C1256 0.918 1_455 S
H1246 C1258 0.950 1_556 S
H1247 C1259 0.950 . S
C1248 H1240 0.950 . S
C1248 C1249 1.386 . S
C1248 C1250 1.412 . S
C1249 C1248 1.386 . S
C1249 C1253 1.393 . S
C1250 H1242 0.918 1_455 S
C1250 C1248 1.412 . S
C1250 C1251 1.411 . S
C1251 C1250 1.411 . S
C1251 C1252 1.398 . S
C1251 C1257 1.491 1_446 S
C1252 H1243 0.950 1_556 S
C1252 C1251 1.398 . S
C1252 C1253 1.391 . S
C1253 H1241 0.950 . S
C1253 C1249 1.393 . S
C1253 C1252 1.391 . S
C1254 H1244 0.950 . S
C1254 C1255 1.386 . S
C1254 C1256 1.412 . S
C1255 C1254 1.386 . S
C1255 C1259 1.393 . S
C1256 H1245 0.918 1_655 S
C1256 C1254 1.412 . S
C1256 C1257 1.411 . S
C1257 C1251 1.491 1_664 S
C1257 C1256 1.411 . S
C1257 C1258 1.398 . S
C1258 H1246 0.950 1_554 S
C1258 C1257 1.398 . S
C1258 C1259 1.391 . S
C1259 H1247 0.950 . S
C1259 C1255 1.393 . S
C1259 C1258 1.391 . S
H1260 C1268 0.950 . S
H1261 C1273 0.950 . S
H1262 C1270 0.950 1_565 S
H1263 C1272 0.950 . S
H1264 C1274 0.950 . S
H1265 C1276 0.950 1_545 S
H1266 C1278 0.950 . S
H1267 C1279 0.950 . S
C1268 H1260 0.950 . S
C1268 C1269 1.386 . S
C1268 C1270 1.391 . S
C1269 C1268 1.386 . S
C1269 C1273 1.393 . S
C1270 H1262 0.950 1_545 S
C1270 C1268 1.391 . S
C1270 C1271 1.400 . S
C1271 C1270 1.400 . S
C1271 C1272 1.398 . S
C1271 C1277 1.491 1_545 S
C1272 H1263 0.950 . S
C1272 C1271 1.398 . S
C1272 C1273 1.391 . S
C1273 H1261 0.950 . S
C1273 C1269 1.393 . S
C1273 C1272 1.391 . S
C1274 H1264 0.950 . S
C1274 C1275 1.386 . S
C1274 C1276 1.391 . S
C1275 C1274 1.386 . S
C1275 C1279 1.393 . S
C1276 H1265 0.950 1_565 S
C1276 C1274 1.391 . S
C1276 C1277 1.400 . S
C1277 C1271 1.491 1_565 S
C1277 C1276 1.400 . S
C1277 C1278 1.398 . S
C1278 H1266 0.950 . S
C1278 C1277 1.398 . S
C1278 C1279 1.391 . S
C1279 H1267 0.950 . S
C1279 C1275 1.393 . S
C1279 C1278 1.391 . S
C329 C4 1.106 . S
C335 C204 1.121 . S
C349 C24 1.129 . S
C355 C224 1.091 . S
C369 C44 1.118 . S
C375 C164 1.098 . S
C389 C64 1.123 . S
C395 C184 1.104 . S
C409 C82 1.091 . S
C415 C282 1.128 . S
C429 C102 1.130 . S
C435 C302 1.090 . S
C449 C122 1.125 . S
C455 C242 1.102 . S
C469 C142 1.095 . S
C475 C262 1.122 . S
C489 C198 2.101 . S
C495 C2 2.061 1_556 S
C509 C218 2.095 . S
C515 C22 2.059 . S
C529 C238 2.101 . S
C535 C42 2.057 . S
C549 C178 2.096 . S
C555 C62 2.070 . S
C569 C84 2.075 1_554 S
C575 C279 2.090 . S
C589 C299 2.091 . S
C595 C104 2.074 . S
C609 C319 2.087 . S
C615 C124 2.075 . S
C629 C259 2.087 . S
C635 C144 2.075 . S
C649 C38 2.101 . S
C655 C162 2.058 . S
C669 C182 2.075 . S
C675 C58 2.090 . S
C689 C202 2.069 1_556 S
C695 C78 2.096 . S
C709 C222 2.068 . S
C715 C18 2.097 . S
C729 C244 2.075 . S
C735 C119 2.088 . S
C749 C139 2.099 . S
C755 C264 2.065 . S
C769 C159 2.086 . S
C775 C284 2.075 1_554 S
C789 C304 2.056 . S
C795 C99 2.099 . S
C809 C12 1.076 . S
C815 C318 1.078 . S
C829 C32 1.062 . S
C835 C98 1.093 1_554 S
C849 C278 1.084 . S
C855 C52 1.057 . S
C869 C138 1.083 . S
C875 C72 1.082 . S
C889 C89 1.063 . S
C895 C239 1.081 . S
C909 C109 1.052 . S
C915 C19 1.092 1_556 S
C929 C199 1.087 . S
C935 C129 1.053 . S
C949 C59 1.090 . S
C955 C149 1.051 . S
C969 C172 1.064 . S
C975 C158 1.093 . S
C989 C192 1.080 . S
C995 C258 1.079 . S
C1009 C118 1.090 . S
C1015 C212 1.072 . S
C1029 C298 1.079 1_554 S
C1035 C232 1.070 . S
C1049 C249 1.066 . S
C1055 C79 1.080 . S
C1069 C269 1.054 . S
C1075 C179 1.085 . S
C1089 C289 1.052 . S
C1095 C39 1.088 . S
C1109 C219 1.087 1_556 S
C1115 C309 1.078 . S
C1129 C9 1.626 . S
C1135 C252 1.626 . S
C1149 C29 1.627 . S
C1155 C112 1.627 . S
C1169 C49 1.631 . S
C1175 C292 1.631 . S
C1189 C152 1.633 . S
C1195 C69 1.633 . S
C1209 C92 1.627 . S
C1215 C169 1.627 . S
C1229 C209 1.627 . S
C1235 C132 1.627 . S
C1249 C189 1.626 . S
C1255 C272 1.626 . S
C1269 C312 1.625 . S
C1275 C229 1.625 . S
