# Generated by pormake.
# Topology cag, (4)-cn, num edge types: 1
# Building blocks:
#     Node 0, Type 0, BuildingBlock: QUQFOY_clean_sbu_3, # of connection points: 4
#     Node 1, Type 0, BuildingBlock: QUQFOY_clean_sbu_3, # of connection points: 4
#     Node 2, Type 0, BuildingBlock: QUQFOY_clean_sbu_3, # of connection points: 4
#     Node 3, Type 0, BuildingBlock: QUQFOY_clean_sbu_3, # of connection points: 4
#     Node 4, Type 0, BuildingBlock: QUQFOY_clean_sbu_3, # of connection points: 4
#     Node 5, Type 0, BuildingBlock: QUQFOY_clean_sbu_3, # of connection points: 4
#     Node 6, Type 0, BuildingBlock: QUQFOY_clean_sbu_3, # of connection points: 4
#     Node 7, Type 0, BuildingBlock: QUQFOY_clean_sbu_3, # of connection points: 4
#     Node 8, Type 0, BuildingBlock: QUQFOY_clean_sbu_3, # of connection points: 4
#     Node 9, Type 0, BuildingBlock: QUQFOY_clean_sbu_3, # of connection points: 4
#     Node 10, Type 0, BuildingBlock: QUQFOY_clean_sbu_3, # of connection points: 4
#     Node 11, Type 0, BuildingBlock: QUQFOY_clean_sbu_3, # of connection points: 4
#     Node 12, Type 0, BuildingBlock: QUQFOY_clean_sbu_3, # of connection points: 4
#     Node 13, Type 0, BuildingBlock: QUQFOY_clean_sbu_3, # of connection points: 4
#     Node 14, Type 0, BuildingBlock: QUQFOY_clean_sbu_3, # of connection points: 4
#     Node 15, Type 0, BuildingBlock: QUQFOY_clean_sbu_3, # of connection points: 4
#     Edge 16, Type (0, 0), BuildingBlock: XIVTED_clean_linker_0, # of connection points: 2
#     Edge 17, Type (0, 0), BuildingBlock: XIVTED_clean_linker_0, # of connection points: 2
#     Edge 18, Type (0, 0), BuildingBlock: XIVTED_clean_linker_0, # of connection points: 2
#     Edge 19, Type (0, 0), BuildingBlock: XIVTED_clean_linker_0, # of connection points: 2
#     Edge 20, Type (0, 0), BuildingBlock: XIVTED_clean_linker_0, # of connection points: 2
#     Edge 21, Type (0, 0), BuildingBlock: XIVTED_clean_linker_0, # of connection points: 2
#     Edge 22, Type (0, 0), BuildingBlock: XIVTED_clean_linker_0, # of connection points: 2
#     Edge 23, Type (0, 0), BuildingBlock: XIVTED_clean_linker_0, # of connection points: 2
#     Edge 24, Type (0, 0), BuildingBlock: XIVTED_clean_linker_0, # of connection points: 2
#     Edge 25, Type (0, 0), BuildingBlock: XIVTED_clean_linker_0, # of connection points: 2
#     Edge 26, Type (0, 0), BuildingBlock: XIVTED_clean_linker_0, # of connection points: 2
#     Edge 27, Type (0, 0), BuildingBlock: XIVTED_clean_linker_0, # of connection points: 2
#     Edge 28, Type (0, 0), BuildingBlock: XIVTED_clean_linker_0, # of connection points: 2
#     Edge 29, Type (0, 0), BuildingBlock: XIVTED_clean_linker_0, # of connection points: 2
#     Edge 30, Type (0, 0), BuildingBlock: XIVTED_clean_linker_0, # of connection points: 2
#     Edge 31, Type (0, 0), BuildingBlock: XIVTED_clean_linker_0, # of connection points: 2
#     Edge 32, Type (0, 0), BuildingBlock: XIVTED_clean_linker_0, # of connection points: 2
#     Edge 33, Type (0, 0), BuildingBlock: XIVTED_clean_linker_0, # of connection points: 2
#     Edge 34, Type (0, 0), BuildingBlock: XIVTED_clean_linker_0, # of connection points: 2
#     Edge 35, Type (0, 0), BuildingBlock: XIVTED_clean_linker_0, # of connection points: 2
#     Edge 36, Type (0, 0), BuildingBlock: XIVTED_clean_linker_0, # of connection points: 2
#     Edge 37, Type (0, 0), BuildingBlock: XIVTED_clean_linker_0, # of connection points: 2
#     Edge 38, Type (0, 0), BuildingBlock: XIVTED_clean_linker_0, # of connection points: 2
#     Edge 39, Type (0, 0), BuildingBlock: XIVTED_clean_linker_0, # of connection points: 2
#     Edge 40, Type (0, 0), BuildingBlock: XIVTED_clean_linker_0, # of connection points: 2
#     Edge 41, Type (0, 0), BuildingBlock: XIVTED_clean_linker_0, # of connection points: 2
#     Edge 42, Type (0, 0), BuildingBlock: XIVTED_clean_linker_0, # of connection points: 2
#     Edge 43, Type (0, 0), BuildingBlock: XIVTED_clean_linker_0, # of connection points: 2
#     Edge 44, Type (0, 0), BuildingBlock: XIVTED_clean_linker_0, # of connection points: 2
#     Edge 45, Type (0, 0), BuildingBlock: XIVTED_clean_linker_0, # of connection points: 2
#     Edge 46, Type (0, 0), BuildingBlock: XIVTED_clean_linker_0, # of connection points: 2
#     Edge 47, Type (0, 0), BuildingBlock: XIVTED_clean_linker_0, # of connection points: 2
# Relax obj value: 0.111
# Max RMSD: 0.144
# Mean RMSD: 0.144
data_MOF--net-cag--node1-QUQFOY_clean_sbu_3--edge1-XIVTED_clean_linker_0
_symmetry_space_group_name_H-M    P1
_symmetry_Int_Tables_number       1
_symmetry_cell_setting            triclinic
loop_
_symmetry_equiv_pos_as_xyz
'x, y, z'
_cell_length_a     45.466077
_cell_length_b     51.557214
_cell_length_c     43.087985
_cell_angle_alpha  90.177493
_cell_angle_beta   89.979079
_cell_angle_gamma 90.352842
loop_
_atom_site_label
_atom_site_type_symbol
_atom_site_fract_x
_atom_site_fract_y
_atom_site_fract_z
_atom_type_partial_charge
C0 C 0.34281 0.13824 0.0505 0.0
O1 O 0.3396 0.14306 0.02182 0.0
Cd2 Cd 0.29237 0.14441 -0.00275 0.0
O3 O 0.32049 0.13448 0.06782 0.0
Cd4 Cd 0.26619 0.13436 0.0635 0.0
C5 C 0.26695 0.08351 0.01356 0.0
O6 O 0.26335 0.17183 0.03033 0.0
O7 O 0.22237 0.15106 0.03644 0.0
O8 O 0.26374 0.15496 0.11441 0.0
C9 C 0.23581 0.17086 0.0261 0.0
O10 O 0.27559 0.09921 -0.00734 0.0
C11 C 0.2482 0.13721 0.12667 0.0
O12 O 0.26329 0.09122 0.04132 0.0
O13 O 0.24064 0.11834 0.10936 0.0
C14 C 0.12913 0.8381 0.54073 0.0
O15 O 0.132 0.8333 0.51196 0.0
Cd16 Cd 0.17936 0.83105 0.48746 0.0
O17 O 0.15166 0.84127 0.55789 0.0
Cd18 Cd 0.2058 0.8403 0.55415 0.0
C19 C 0.20691 0.89116 0.50438 0.0
O20 O 0.20759 0.80296 0.52048 0.0
O21 O 0.24938 0.8221 0.52825 0.0
O22 O 0.20682 0.81966 0.60487 0.0
C23 C 0.23524 0.803 0.51694 0.0
O24 O 0.19726 0.87596 0.48333 0.0
C25 C 0.22171 0.83752 0.61788 0.0
O26 O 0.21066 0.88307 0.53191 0.0
O27 O 0.22991 0.85636 0.60099 0.0
C28 C 0.34292 0.84034 0.92787 0.0
O29 O 0.33898 0.83554 0.95648 0.0
Cd30 Cd 0.29094 0.8337 0.97928 0.0
O31 O 0.32106 0.84388 0.90994 0.0
Cd32 Cd 0.26675 0.84376 0.91177 0.0
C33 C 0.26613 0.89445 0.96205 0.0
O34 O 0.26338 0.80625 0.94455 0.0
O35 O 0.22211 0.82571 0.93673 0.0
O36 O 0.26696 0.82327 0.86082 0.0
C37 C 0.23571 0.80637 0.9477 0.0
O38 O 0.27428 0.8788 0.98313 0.0
C39 C 0.2523 0.84094 0.8476 0.0
O40 O 0.26308 0.88674 0.93418 0.0
O41 O 0.24374 0.85969 0.86443 0.0
C42 C 0.12343 0.13576 0.43988 0.0
O43 O 0.12878 0.13519 0.46881 0.0
Cd44 Cd 0.17746 0.13912 0.49099 0.0
O45 O 0.14419 0.13667 0.4201 0.0
Cd46 Cd 0.19818 0.1353 0.41971 0.0
C47 C 0.20371 0.08149 0.46604 0.0
O48 O 0.20412 0.169 0.45864 0.0
O49 O 0.24433 0.15326 0.43968 0.0
O50 O 0.19765 0.1572 0.36944 0.0
C51 C 0.23199 0.16925 0.45783 0.0
O52 O 0.19715 0.0954 0.48944 0.0
C53 C 0.21052 0.13886 0.35521 0.0
O54 O 0.20377 0.09104 0.43884 0.0
O55 O 0.21806 0.11936 0.37118 0.0
C56 C 0.5499 0.86616 0.85647 0.0
O57 O 0.5549 0.88397 0.83685 0.0
Cd58 Cd 0.6034 0.90132 0.8278 0.0
O59 O 0.57098 0.85608 0.87157 0.0
Cd60 Cd 0.62471 0.86068 0.87525 0.0
C61 C 0.61839 0.92259 0.9006 0.0
O62 O 0.63637 0.86525 0.82001 0.0
O63 O 0.67166 0.8729 0.85234 0.0
O64 O 0.62824 0.81406 0.88645 0.0
C65 C 0.6635 0.86973 0.82448 0.0
O66 O 0.61397 0.92945 0.87264 0.0
C67 C 0.64397 0.81749 0.91052 0.0
O68 O 0.62118 0.8988 0.90742 0.0
O69 O 0.65022 0.84072 0.91785 0.0
C70 C 0.92236 0.09928 0.35894 0.0
O71 O 0.91705 0.07933 0.3425 0.0
Cd72 Cd 0.86823 0.06458 0.32951 0.0
O73 O 0.90148 0.11236 0.37065 0.0
Cd74 Cd 0.84766 0.10723 0.37295 0.0
C75 C 0.85013 0.04613 0.40149 0.0
O76 O 0.83674 0.10092 0.31747 0.0
O77 O 0.80121 0.09432 0.3498 0.0
O78 O 0.84385 0.15422 0.382 0.0
C79 C 0.80949 0.09697 0.32193 0.0
O80 O 0.85336 0.03813 0.37375 0.0
C81 C 0.82709 0.15167 0.40543 0.0
O82 O 0.8499 0.07027 0.40746 0.0
O83 O 0.82054 0.12872 0.41353 0.0
C84 C 0.54879 0.10968 0.12143 0.0
O85 O 0.55364 0.09085 0.1396 0.0
Cd86 Cd 0.60202 0.07278 0.14634 0.0
O87 O 0.56987 0.12023 0.10657 0.0
Cd88 Cd 0.62328 0.11552 0.1003 0.0
C89 C 0.61674 0.05437 0.07208 0.0
O90 O 0.63679 0.1077 0.15422 0.0
O91 O 0.67082 0.10154 0.11991 0.0
O92 O 0.6337 0.16202 0.09742 0.0
C93 C 0.66361 0.10308 0.14829 0.0
O94 O 0.61167 0.04687 0.09971 0.0
C95 C 0.64131 0.16142 0.06907 0.0
O96 O 0.6202 0.07831 0.06609 0.0
O97 O 0.64029 0.13962 0.05538 0.0
C98 C 0.92489 0.86383 0.61987 0.0
O99 O 0.92017 0.88243 0.63857 0.0
Cd100 Cd 0.87136 0.89899 0.64781 0.0
O101 O 0.90357 0.85275 0.60596 0.0
Cd102 Cd 0.84992 0.85581 0.60231 0.0
C103 C 0.85288 0.91726 0.57472 0.0
O104 O 0.83799 0.86316 0.65686 0.0
O105 O 0.80273 0.86839 0.62377 0.0
O106 O 0.84085 0.80905 0.59913 0.0
C107 C 0.81084 0.86702 0.65187 0.0
O108 O 0.85893 0.92492 0.60212 0.0
C109 C 0.83273 0.80955 0.57095 0.0
O110 O 0.85003 0.89323 0.56872 0.0
O111 O 0.83275 0.83142 0.55754 0.0
C112 C 0.84387 0.63775 0.04405 0.0
O113 O 0.83985 0.64283 0.01554 0.0
Cd114 Cd 0.79186 0.64445 -0.00739 0.0
O115 O 0.82205 0.63374 0.06199 0.0
Cd116 Cd 0.76768 0.63325 0.05968 0.0
C117 C 0.76698 0.5833 0.00829 0.0
O118 O 0.76375 0.67115 0.02746 0.0
O119 O 0.72296 0.65035 0.03472 0.0
O120 O 0.76652 0.65294 0.11117 0.0
C121 C 0.7361 0.67024 0.0242 0.0
O122 O 0.77512 0.59926 0.98744 0.0
C123 C 0.75188 0.63468 0.1236 0.0
O124 O 0.76406 0.59065 0.03629 0.0
O125 O 0.74414 0.61598 0.10613 0.0
C126 C 0.62993 0.33656 0.54345 0.0
O127 O 0.63265 0.33116 0.51483 0.0
Cd128 Cd 0.68006 0.32842 0.49078 0.0
O129 O 0.65258 0.33981 0.56045 0.0
Cd130 Cd 0.70687 0.33776 0.55703 0.0
C131 C 0.70746 0.38882 0.50832 0.0
O132 O 0.7073 0.29978 0.52394 0.0
O133 O 0.74948 0.31837 0.5306 0.0
O134 O 0.7002 0.32117 0.60921 0.0
C135 C 0.73486 0.29935 0.51987 0.0
O136 O 0.69823 0.37331 0.48736 0.0
C137 C 0.72194 0.33327 0.62086 0.0
O138 O 0.71113 0.38103 0.53599 0.0
O139 O 0.73723 0.3472 0.60263 0.0
C140 C 0.84346 0.3385 0.93418 0.0
O141 O 0.83882 0.3345 0.96286 0.0
Cd142 Cd 0.79013 0.33303 0.98488 0.0
O143 O 0.82205 0.3414 0.91548 0.0
Cd144 Cd 0.76784 0.34136 0.91432 0.0
C145 C 0.76563 0.39319 0.96312 0.0
O146 O 0.76341 0.30528 0.95013 0.0
O147 O 0.72249 0.32144 0.93397 0.0
O148 O 0.77729 0.32445 0.86246 0.0
C149 C 0.73556 0.30466 0.95024 0.0
O150 O 0.77315 0.37801 0.98496 0.0
C151 C 0.75674 0.33705 0.84961 0.0
O152 O 0.76346 0.38498 0.93534 0.0
O153 O 0.74123 0.35152 0.86692 0.0
C154 C 0.62744 0.63417 0.43444 0.0
O155 O 0.6314 0.63784 0.46332 0.0
Cd156 Cd 0.67953 0.63896 0.48693 0.0
O157 O 0.64927 0.63135 0.41627 0.0
Cd158 Cd 0.70332 0.63074 0.41708 0.0
C159 C 0.70474 0.57905 0.46626 0.0
O160 O 0.70873 0.66607 0.45377 0.0
O161 O 0.74929 0.64844 0.43856 0.0
O162 O 0.7031 0.65203 0.36665 0.0
C163 C 0.73656 0.66556 0.45482 0.0
O164 O 0.69651 0.59407 0.48806 0.0
C165 C 0.71658 0.6339 0.35272 0.0
O166 O 0.70751 0.58739 0.43865 0.0
O167 O 0.72434 0.61458 0.36891 0.0
C168 C 0.04926 0.36613 0.85885 0.0
O169 O 0.054 0.3835 0.83861 0.0
Cd170 Cd 0.10234 0.40104 0.82904 0.0
O171 O 0.07053 0.35642 0.87398 0.0
Cd172 Cd 0.12439 0.36114 0.87641 0.0
C173 C 0.11776 0.42296 0.90155 0.0
O174 O 0.13594 0.36548 0.82096 0.0
O175 O 0.17096 0.37414 0.85328 0.0
O176 O 0.1283 0.31453 0.8874 0.0
C177 C 0.16298 0.37048 0.82544 0.0
O178 O 0.11303 0.42951 0.87354 0.0
C179 C 0.14441 0.31795 0.91119 0.0
O180 O 0.12083 0.39926 0.90867 0.0
O181 O 0.15069 0.34118 0.9185 0.0
C182 C 0.42209 0.60332 0.3599 0.0
O183 O 0.41816 0.58556 0.33982 0.0
Cd184 Cd 0.37012 0.56757 0.32956 0.0
O185 O 0.40025 0.61295 0.37424 0.0
Cd186 Cd 0.34646 0.60758 0.37515 0.0
C187 C 0.35306 0.54641 0.40175 0.0
O188 O 0.3364 0.60273 0.31939 0.0
O189 O 0.30065 0.59412 0.35082 0.0
O190 O 0.34283 0.65437 0.38488 0.0
C191 C 0.30924 0.59788 0.32322 0.0
O192 O 0.35861 0.53948 0.37399 0.0
C193 C 0.32559 0.65173 0.40789 0.0
O194 O 0.34951 0.5702 0.40838 0.0
O195 O 0.31856 0.62876 0.41547 0.0
C196 C 0.04937 0.60985 0.11841 0.0
O197 O 0.05433 0.5922 0.13818 0.0
Cd198 Cd 0.1028 0.57511 0.14695 0.0
O199 O 0.07045 0.61998 0.10314 0.0
Cd200 Cd 0.12422 0.61608 0.0991 0.0
C201 C 0.11756 0.55413 0.07381 0.0
O202 O 0.13623 0.61122 0.15422 0.0
O203 O 0.17136 0.60426 0.12158 0.0
O204 O 0.12734 0.66281 0.08835 0.0
C205 C 0.1633 0.60686 0.14955 0.0
O206 O 0.1131 0.54737 0.10182 0.0
C207 C 0.14298 0.65983 0.06415 0.0
O208 O 0.1205 0.57791 0.0668 0.0
O209 O 0.14941 0.63676 0.05656 0.0
C210 C 0.42592 0.36416 0.62252 0.0
O211 O 0.4214 0.38281 0.64121 0.0
Cd212 Cd 0.37285 0.40008 0.64997 0.0
O213 O 0.4045 0.35341 0.60841 0.0
Cd214 Cd 0.35087 0.35754 0.60447 0.0
C215 C 0.35586 0.41881 0.5767 0.0
O216 O 0.33861 0.36488 0.65903 0.0
O217 O 0.3038 0.37102 0.62567 0.0
O218 O 0.34101 0.3109 0.60102 0.0
C219 C 0.31159 0.36919 0.65383 0.0
O220 O 0.36149 0.42634 0.60424 0.0
C221 C 0.33248 0.31169 0.57299 0.0
O222 O 0.3526 0.39484 0.5706 0.0
O223 O 0.33273 0.33364 0.55977 0.0
H224 H 0.18033 0.17034 0.00068 0.0
H225 H 0.18695 0.31991 0.95542 0.0
H226 H 0.25686 0.2191 0.01389 0.0
H227 H 0.12883 0.26638 0.90805 0.0
H228 H 0.20783 0.2838 0.98409 0.0
H229 H 0.15637 0.2061 0.97292 0.0
C230 C 0.19202 0.18855 -0.0022 0.0
C231 C 0.22061 0.19181 0.00949 0.0
C232 C 0.1905 0.27993 0.96743 0.0
C233 C 0.1934 0.23253 0.97835 0.0
C234 C 0.17848 0.30054 0.95114 0.0
C235 C 0.15623 0.29609 0.92921 0.0
C236 C 0.18002 0.25468 0.96207 0.0
C237 C 0.1461 0.27058 0.92464 0.0
C238 C 0.17842 0.20883 0.98192 0.0
C239 C 0.23486 0.21572 0.00512 0.0
N240 N 0.15806 0.25074 0.94103 0.0
N241 N 0.22104 0.23518 -0.00995 0.0
H242 H 0.28022 0.65175 0.44898 0.0
H243 H 0.29174 0.8012 0.49434 0.0
H244 H 0.34335 0.70268 0.40511 0.0
H245 H 0.21203 0.75581 0.50271 0.0
H246 H 0.31509 0.76442 0.46772 0.0
H247 H 0.25919 0.68896 0.4758 0.0
C248 C 0.28975 0.67077 0.44509 0.0
C249 C 0.31349 0.67418 0.42471 0.0
C250 C 0.29248 0.76267 0.47538 0.0
C251 C 0.28957 0.71682 0.45545 0.0
C252 C 0.27921 0.78353 0.4906 0.0
C253 C 0.24994 0.7815 0.50068 0.0
C254 C 0.27644 0.73961 0.47082 0.0
C255 C 0.23462 0.75824 0.49523 0.0
C256 C 0.27764 0.692 0.4603 0.0
C257 C 0.32493 0.69929 0.42053 0.0
N258 N 0.24811 0.73816 0.48085 0.0
N259 N 0.3129 0.71973 0.43589 0.0
H260 H 0.25722 0.75851 0.95937 0.0
H261 H 0.12694 0.71109 0.06804 0.0
H262 H 0.18009 0.80561 0.97296 0.0
H263 H 0.18468 0.6589 0.019 0.0
H264 H 0.14793 0.74745 0.0384 0.0
H265 H 0.23307 0.72309 0.98678 0.0
C266 C 0.23515 0.76139 0.96817 0.0
C267 C 0.2206 0.785 0.96392 0.0
C268 C 0.15576 0.72798 0.0341 0.0
C269 C 0.19288 0.74454 -0.00449 0.0
C270 C 0.14393 0.70729 0.05102 0.0
C271 C 0.15419 0.68199 0.04602 0.0
C272 C 0.17827 0.72324 0.01254 0.0
C273 C 0.17612 0.67808 0.02364 0.0
C274 C 0.22133 0.74112 0.98368 0.0
C275 C 0.19198 0.78763 0.9757 0.0
N276 N 0.18759 0.6985 0.00794 0.0
N277 N 0.17905 0.76764 -0.00875 0.0
H278 H 0.33397 0.30184 0.51091 0.0
H279 H 0.21659 0.19089 0.51313 0.0
H280 H 0.30578 0.26913 0.59811 0.0
H281 H 0.28602 0.18985 0.44487 0.0
H282 H 0.24437 0.22347 0.54286 0.0
H283 H 0.31218 0.2645 0.48376 0.0
C284 C 0.32335 0.28669 0.5243 0.0
C285 C 0.32157 0.28845 0.55671 0.0
C286 C 0.25356 0.21589 0.52151 0.0
C287 C 0.29625 0.24631 0.52594 0.0
C288 C 0.23772 0.1975 0.5045 0.0
C289 C 0.2491 0.18783 0.47656 0.0
C290 C 0.28048 0.22513 0.50996 0.0
C291 C 0.2766 0.19685 0.46638 0.0
C292 C 0.31109 0.26543 0.50886 0.0
C293 C 0.30767 0.26836 0.57308 0.0
N294 N 0.29122 0.21537 0.48286 0.0
N295 N 0.29505 0.24825 0.55745 0.0
H296 H 0.68043 0.66955 -0.00076 0.0
H297 H 0.68544 0.81957 0.95586 0.0
H298 H 0.75637 0.7189 0.01311 0.0
H299 H 0.62879 0.76584 0.90686 0.0
H300 H 0.70615 0.78348 0.98468 0.0
H301 H 0.65594 0.70542 0.97216 0.0
C302 C 0.69185 0.68792 -0.00331 0.0
C303 C 0.72046 0.69131 0.0083 0.0
C304 C 0.68916 0.77958 0.96766 0.0
C305 C 0.69266 0.73212 0.97795 0.0
C306 C 0.67724 0.80017 0.95126 0.0
C307 C 0.65549 0.79565 0.92879 0.0
C308 C 0.6791 0.75426 0.96184 0.0
C309 C 0.64568 0.77009 0.92386 0.0
C310 C 0.67796 0.70825 0.98119 0.0
C311 C 0.73437 0.71541 0.00436 0.0
N312 N 0.65756 0.75026 0.94033 0.0
N313 N 0.72028 0.73492 -0.01034 0.0
H314 H 0.84437 0.20276 0.40222 0.0
H315 H 0.71082 0.2525 0.50526 0.0
H316 H 0.78191 0.15157 0.4467 0.0
H317 H 0.79061 0.29756 0.49548 0.0
H318 H 0.73397 0.21691 0.4772 0.0
H319 H 0.82253 0.23954 0.43023 0.0
C320 C 0.82612 0.19928 0.41785 0.0
C321 C 0.81491 0.17413 0.4222 0.0
C322 C 0.74644 0.23456 0.48124 0.0
C323 C 0.78982 0.21585 0.45377 0.0
C324 C 0.73322 0.25492 0.49713 0.0
C325 C 0.74888 0.27795 0.50275 0.0
C326 C 0.77541 0.23736 0.47048 0.0
C327 C 0.77786 0.28003 0.49173 0.0
C328 C 0.81378 0.2202 0.43384 0.0
C329 C 0.79129 0.17063 0.44273 0.0
N330 N 0.79021 0.25998 0.47592 0.0
N331 N 0.77941 0.19127 0.45758 0.0
H332 H 0.68124 0.28414 0.93834 0.0
H333 H 0.66909 0.20352 0.09424 0.0
H334 H 0.75291 0.2816 0.00385 0.0
H335 H 0.63801 0.17198 0.00728 0.0
H336 H 0.69043 0.24047 0.06603 0.0
H337 H 0.6555 0.25051 0.96846 0.0
C338 C 0.69138 0.27665 0.9592 0.0
C339 C 0.71924 0.28539 0.96862 0.0
C340 C 0.67869 0.22551 0.0533 0.0
C341 C 0.68986 0.24774 0.00319 0.0
C342 C 0.66644 0.20459 0.0693 0.0
C343 C 0.652 0.18473 0.05293 0.0
C344 C 0.67572 0.22679 0.02095 0.0
C345 C 0.64922 0.18687 0.02063 0.0
C346 C 0.67678 0.25752 0.97621 0.0
C347 C 0.73155 0.27512 -0.00427 0.0
N348 N 0.6609 0.20765 0.00563 0.0
N349 N 0.71667 0.25689 0.01225 0.0
H350 H 0.83604 0.79911 0.50909 0.0
H351 H 0.71911 0.68832 0.50869 0.0
H352 H 0.80593 0.76699 0.5959 0.0
H353 H 0.79141 0.68532 0.44394 0.0
H354 H 0.74596 0.72122 0.53884 0.0
H355 H 0.81549 0.76125 0.48186 0.0
C356 C 0.82526 0.78398 0.52237 0.0
C357 C 0.82256 0.78605 0.55469 0.0
C358 C 0.75598 0.71314 0.51818 0.0
C359 C 0.79867 0.74335 0.52382 0.0
C360 C 0.74068 0.69457 0.50093 0.0
C361 C 0.75315 0.68427 0.47385 0.0
C362 C 0.78347 0.72194 0.5077 0.0
C363 C 0.78118 0.69283 0.46478 0.0
C364 C 0.81373 0.76243 0.50689 0.0
C365 C 0.8085 0.76598 0.57094 0.0
N366 N 0.79528 0.71157 0.48142 0.0
N367 N 0.79656 0.74559 0.55524 0.0
H368 H 0.25593 0.04358 0.05371 0.0
H369 H 0.25636 0.93435 0.92167 0.0
H370 H 0.26791 0.06007 0.95628 0.0
H371 H 0.26608 0.91786 0.01934 0.0
H372 H 0.25288 0.98046 0.934 0.0
H373 H 0.25198 -0.00252 0.0413 0.0
C374 C 0.25752 0.03756 0.02966 0.0
C375 C 0.26249 0.05575 0.006 0.0
C376 C 0.25564 0.96673 0.95273 0.0
C377 C 0.25795 0.00294 -0.00828 0.0
C378 C 0.25753 0.94037 0.94575 0.0
C379 C 0.26175 0.92218 0.96951 0.0
C380 C 0.25778 0.975 0.9837 0.0
C381 C 0.26305 0.93118 0.00026 0.0
C382 C 0.25534 0.01121 0.02264 0.0
C383 C 0.2643 0.04675 0.97529 0.0
N384 N 0.26116 0.95698 0.00646 0.0
N385 N 0.26211 0.02096 0.96904 0.0
H386 H 0.22459 0.92926 0.54462 0.0
H387 H 0.20848 0.0438 0.42131 0.0
H388 H 0.20106 0.91643 0.44864 0.0
H389 H 0.21238 0.05551 0.52053 0.0
H390 H 0.21403 -0.00284 0.4294 0.0
H391 H 0.22866 0.97556 0.53435 0.0
C392 C 0.2205 0.93612 0.52129 0.0
C393 C 0.21214 0.9189 0.49752 0.0
C394 C 0.21387 0.00999 0.44935 0.0
C395 C 0.21673 0.97205 0.48568 0.0
C396 C 0.21079 0.03662 0.44478 0.0
C397 C 0.20969 0.05358 0.47032 0.0
C398 C 0.21606 0.00028 0.47965 0.0
C399 C 0.21284 0.04316 0.50017 0.0
C400 C 0.22278 0.96261 0.51549 0.0
C401 C 0.20733 0.92899 0.46773 0.0
N402 N 0.21576 0.01718 0.50401 0.0
N403 N 0.20952 0.95495 0.46269 0.0
H404 H 0.62365 0.91391 0.96282 0.0
H405 H 0.62186 0.06388 0.00984 0.0
H406 H 0.61599 0.97573 0.89592 0.0
H407 H 0.615 0.00131 0.07593 0.0
H408 H 0.62344 0.03209 0.9678 0.0
H409 H 0.62434 0.94594 0.0044 0.0
C410 C 0.62219 0.93424 0.95681 0.0
C411 C 0.61968 0.94213 0.92576 0.0
C412 C 0.6216 0.02533 -0.0085 0.0
C413 C 0.62045 0.97897 0.97348 0.0
C414 C 0.62076 0.04346 0.01555 0.0
C415 C 0.61824 0.03525 0.04651 0.0
C416 C 0.62007 -0.00121 -0.00159 0.0
C417 C 0.61687 0.00853 0.05244 0.0
C418 C 0.62252 0.95253 0.98064 0.0
C419 C 0.61789 0.96877 0.91951 0.0
N420 N 0.61782 -0.00874 0.02861 0.0
N421 N 0.6183 -0.01374 0.94319 0.0
H422 H 0.84694 0.05656 0.46369 0.0
H423 H 0.84342 0.9073 0.51315 0.0
H424 H 0.8478 -0.007 0.39815 0.0
H425 H 0.85543 0.97042 0.57819 0.0
H426 H 0.84032 0.93862 0.47108 0.0
H427 H 0.84533 0.02541 0.50612 0.0
C428 C 0.84665 0.03605 0.45817 0.0
C429 C 0.84765 0.02738 0.42726 0.0
C430 C 0.84357 0.94563 0.49455 0.0
C431 C 0.84584 -0.00838 0.47584 0.0
C432 C 0.8453 0.92776 0.51865 0.0
C433 C 0.84984 0.93623 0.54929 0.0
C434 C 0.8463 0.97221 0.50108 0.0
C435 C 0.85204 0.963 0.55493 0.0
C436 C 0.84579 0.01828 0.48246 0.0
C437 C 0.84717 0.00057 0.4216 0.0
N438 N 0.85031 0.98004 0.53102 0.0
N439 N 0.84637 0.98363 0.44567 0.0
H440 H 0.76182 0.41689 0.01993 0.0
H441 H 0.7687 0.56007 0.95083 0.0
H442 H 0.75928 0.43297 0.92166 0.0
H443 H 0.75471 0.54336 0.04791 0.0
H444 H 0.76439 0.51372 0.93933 0.0
H445 H 0.75827 0.46328 0.03046 0.0
C446 C 0.76033 0.43016 0.00055 0.0
C447 C 0.76105 0.42102 0.96986 0.0
C448 C 0.76203 0.52025 0.96311 0.0
C449 C 0.75719 0.47423 0.98177 0.0
C450 C 0.76453 0.54671 0.9697 0.0
C451 C 0.76228 0.55563 0.00041 0.0
C452 C 0.75749 0.50259 0.98744 0.0
C453 C 0.75674 0.5374 0.0239 0.0
C454 C 0.75825 0.45666 0.00659 0.0
C455 C 0.75887 0.43914 0.9457 0.0
N456 N 0.75478 0.51176 0.01694 0.0
N457 N 0.75731 0.4649 0.95216 0.0
H458 H 0.70578 0.41246 0.45136 0.0
H459 H 0.70762 0.55509 0.52284 0.0
H460 H 0.71938 0.42851 0.54876 0.0
H461 H 0.71316 0.53967 0.42444 0.0
H462 H 0.71248 0.50872 0.53276 0.0
H463 H 0.70914 0.45893 0.44078 0.0
C464 C 0.7097 0.42571 0.47049 0.0
C465 C 0.71208 0.41656 0.50102 0.0
C466 C 0.71287 0.5155 0.50901 0.0
C467 C 0.71571 0.46976 0.48911 0.0
C468 C 0.71002 0.54198 0.50332 0.0
C469 C 0.70978 0.55128 0.47275 0.0
C470 C 0.71518 0.49814 0.48395 0.0
C471 C 0.71315 0.53338 0.44839 0.0
C472 C 0.71165 0.45224 0.46443 0.0
C473 C 0.71729 0.43465 0.52487 0.0
N474 N 0.71544 0.50765 0.4545 0.0
N475 N 0.71865 0.46039 0.51844 0.0
H476 H 0.116 0.50108 0.07932 0.0
H477 H 0.11548 0.47598 0.8959 0.0
H478 H 0.12185 0.56228 0.01131 0.0
H479 H 0.12281 0.41503 0.96398 0.0
H480 H 0.11638 0.50799 0.93791 0.0
H481 H 0.11704 0.46916 0.03727 0.0
C482 C 0.11756 0.50782 0.05559 0.0
C483 C 0.11882 0.5344 0.04886 0.0
C484 C 0.11789 0.4876 0.9436 0.0
C485 C 0.11991 0.49801 0.00064 0.0
C486 C 0.11734 0.46932 0.91963 0.0
C487 C 0.11904 0.44278 0.9264 0.0
C488 C 0.11997 0.47926 0.97455 0.0
C489 C 0.12146 0.43529 0.95762 0.0
C490 C 0.11818 0.48959 0.03158 0.0
C491 C 0.12085 0.54199 0.01764 0.0
N492 N 0.12174 0.45342 0.98051 0.0
N493 N 0.12123 0.5239 -0.0053 0.0
H494 H 0.35616 0.49332 0.39707 0.0
H495 H 0.35663 0.47192 0.58083 0.0
H496 H 0.34682 0.55535 0.4639 0.0
H497 H 0.35043 0.40915 0.51449 0.0
H498 H 0.35451 0.50286 0.53808 0.0
H499 H 0.35546 0.46205 0.43969 0.0
C500 C 0.35387 0.50036 0.42065 0.0
C501 C 0.3516 0.527 0.4269 0.0
C502 C 0.3535 0.48231 0.5329 0.0
C503 C 0.35094 0.4914 0.47572 0.0
C504 C 0.35476 0.46463 0.55731 0.0
C505 C 0.35375 0.43789 0.55126 0.0
C506 C 0.35143 0.47319 0.50221 0.0
C507 C 0.35126 0.42958 0.52028 0.0
C508 C 0.35344 0.48252 0.44496 0.0
C509 C 0.34864 0.53501 0.45793 0.0
N510 N 0.35032 0.44716 0.49691 0.0
N511 N 0.34853 0.51731 0.48115 0.0
H512 H 0.53036 0.14565 0.07935 0.0
H513 H 0.359 0.11926 0.10731 0.0
H514 H 0.49762 0.09235 0.14857 0.0
H515 H 0.39472 0.15367 0.02407 0.0
H516 H 0.40896 0.11532 0.12786 0.0
H517 H 0.47988 0.15528 0.06454 0.0
C518 C 0.51257 0.13616 0.09171 0.0
C519 C 0.51829 0.11793 0.11505 0.0
C520 C 0.40578 0.12382 0.10516 0.0
C521 C 0.46038 0.12886 0.09803 0.0
C522 C 0.37731 0.12613 0.09343 0.0
C523 C 0.3727 0.13665 0.06381 0.0
C524 C 0.42975 0.13234 0.08729 0.0
C525 C 0.39724 0.14524 0.04688 0.0
C526 C 0.48374 0.1416 0.08311 0.0
C527 C 0.49427 0.10637 0.13029 0.0
N528 N 0.4247 0.14288 0.05886 0.0
N529 N 0.46632 0.11192 0.12138 0.0
H530 H 0.94254 0.82905 0.5758 0.0
H531 H 0.11424 0.85676 0.59816 0.0
H532 H 0.97666 0.88209 0.64495 0.0
H533 H 0.07646 0.8238 0.51485 0.0
H534 H 0.06485 0.86052 0.62016 0.0
H535 H -0.00741 0.82077 0.55834 0.0
C536 C 0.96056 0.83878 0.58757 0.0
C537 C 0.95533 0.8565 0.61174 0.0
C538 C 0.06743 0.85242 0.5971 0.0
C539 C 0.01274 0.84711 0.59168 0.0
C540 C 0.09559 0.85022 0.58453 0.0
C541 C 0.09947 0.84007 0.55453 0.0
C542 C 0.04303 0.84415 0.5797 0.0
C543 C 0.0745 0.83191 0.53796 0.0
C544 C -0.01087 0.83411 0.57745 0.0
C545 C 0.97963 0.86842 0.62612 0.0
N546 N 0.04735 0.83411 0.55079 0.0
N547 N 0.00732 0.86358 0.61577 0.0
H548 H 0.36017 0.85744 0.87053 0.0
H549 H 0.531 0.83335 0.90217 0.0
H550 H 0.3944 0.82671 0.95629 0.0
H551 H 0.49903 0.8818 0.82801 0.0
H552 H 0.48035 0.82467 0.91777 0.0
H553 H 0.41038 0.86086 0.85059 0.0
C554 C 0.37821 0.85131 0.88513 0.0
C555 C 0.37309 0.84192 0.91522 0.0
C556 C 0.48443 0.83708 0.89798 0.0
C557 C 0.43049 0.84565 0.89243 0.0
C558 C 0.51335 0.84197 0.88894 0.0
C559 C 0.51931 0.85854 0.86388 0.0
C560 C 0.46125 0.84871 0.88178 0.0
C561 C 0.49547 0.86907 0.8476 0.0
C562 C 0.40685 0.85331 0.87373 0.0
C563 C 0.39732 0.83424 0.93306 0.0
N564 N 0.46746 0.86407 0.85693 0.0
N565 N 0.42497 0.83629 0.92138 0.0
H566 H 0.0981 0.16086 0.39121 0.0
H567 H 0.96667 0.06556 0.37037 0.0
H568 H 0.08031 0.10431 0.46248 0.0
H569 H 0.94683 0.14727 0.36836 0.0
H570 H 0.01566 0.07602 0.39102 0.0
H571 H 0.0484 0.15331 0.37013 0.0
C572 C 0.08362 0.14702 0.40248 0.0
C573 C 0.09302 0.13327 0.42867 0.0
C574 C 0.00056 0.09157 0.38573 0.0
C575 C 0.03729 0.12401 0.40419 0.0
C576 C 0.97286 0.0857 0.37373 0.0
C577 C 0.95285 0.10563 0.36767 0.0
C578 C 0.0085 0.11754 0.39077 0.0
C579 C 0.96173 0.13141 0.37282 0.0
C580 C 0.05547 0.14279 0.39051 0.0
C581 C 0.07365 0.11546 0.44244 0.0
N582 N -0.01086 0.13671 0.38388 0.0
N583 N 0.04678 0.11098 0.42969 0.0
H584 H -0.00153 0.59431 0.14744 0.0
H585 H 0.89526 0.65204 0.01553 0.0
H586 H 0.03049 0.64198 0.07225 0.0
H587 H 0.86139 0.6199 0.10091 0.0
H588 H 0.94509 0.64804 0.0359 0.0
H589 H 0.94806 0.60337 0.13114 0.0
C590 C -0.00507 0.60687 0.1277 0.0
C591 C 0.01878 0.61725 0.11107 0.0
C592 C 0.92675 0.642 0.05026 0.0
C593 C 0.9612 0.62745 0.09213 0.0
C594 C 0.89828 0.64419 0.03859 0.0
C595 C 0.87411 0.63618 0.05647 0.0
C596 C 0.93114 0.63148 0.07992 0.0
C597 C 0.87938 0.62629 0.08628 0.0
C598 C 0.96614 0.61203 0.11841 0.0
C599 C 0.01283 0.63346 0.08572 0.0
N600 N 0.90735 0.62404 0.09699 0.0
N601 N 0.98466 0.63784 0.07687 0.0
H602 H 0.61529 0.35602 0.60063 0.0
H603 H 0.44332 0.32895 0.5788 0.0
H604 H 0.5771 0.32232 0.51796 0.0
H605 H 0.47784 0.38206 0.64764 0.0
H606 H 0.4933 0.32026 0.56144 0.0
H607 H 0.56595 0.3602 0.62273 0.0
C608 C 0.59656 0.34942 0.58715 0.0
C609 C 0.60032 0.33893 0.5573 0.0
C610 C 0.48995 0.3337 0.58046 0.0
C611 C 0.54394 0.34346 0.58259 0.0
C612 C 0.46141 0.3386 0.59053 0.0
C613 C 0.45631 0.35647 0.61457 0.0
C614 C 0.51367 0.34662 0.5946 0.0
C615 C 0.48071 0.36828 0.6289 0.0
C616 C 0.56844 0.35185 0.59979 0.0
C617 C 0.57525 0.33069 0.54094 0.0
N618 N 0.50837 0.36323 0.61859 0.0
N619 N 0.54815 0.33311 0.55382 0.0
H620 H -0.00171 0.37942 0.82895 0.0
H621 H 0.89474 0.32713 0.96463 0.0
H622 H 0.03063 0.33623 0.90746 0.0
H623 H 0.86155 0.35354 0.87637 0.0
H624 H 0.94483 0.33107 0.94449 0.0
H625 H 0.94797 0.37049 0.84599 0.0
C626 C -0.00517 0.36787 0.8496 0.0
C627 C 0.01873 0.35869 0.86689 0.0
C628 C 0.92656 0.33586 0.92949 0.0
C629 C 0.96123 0.34866 0.8867 0.0
C630 C 0.89796 0.33371 0.94102 0.0
C631 C 0.8739 0.34012 0.92222 0.0
C632 C 0.93115 0.34473 0.89906 0.0
C633 C 0.87942 0.34842 0.89173 0.0
C634 C 0.96609 0.36278 0.85932 0.0
C635 C 0.0129 0.34376 0.89343 0.0
N636 N 0.90746 0.35065 0.88118 0.0
N637 N 0.98475 0.33943 0.90268 0.0
H638 H 0.61093 0.61943 0.37593 0.0
H639 H 0.43883 0.6348 0.40805 0.0
H640 H 0.57525 0.64483 0.46375 0.0
H641 H 0.47408 0.59037 0.33163 0.0
H642 H 0.48888 0.64489 0.42487 0.0
H643 H 0.56101 0.61475 0.3558 0.0
C644 C 0.59262 0.62416 0.39096 0.0
C645 C 0.5973 0.63239 0.42168 0.0
C646 C 0.48563 0.63305 0.40433 0.0
C647 C 0.5401 0.62713 0.39865 0.0
C648 C 0.45707 0.62736 0.3946 0.0
C649 C 0.45223 0.61154 0.36848 0.0
C650 C 0.50957 0.62302 0.38771 0.0
C651 C 0.47676 0.60249 0.352 0.0
C652 C 0.56413 0.62142 0.37944 0.0
C653 C 0.57269 0.63826 0.44001 0.0
N654 N 0.50439 0.6083 0.36195 0.0
N655 N 0.54513 0.63549 0.42822 0.0
H656 H 0.22749 0.09741 0.16225 0.0
H657 H 0.20865 0.18099 0.31666 0.0
H658 H 0.2513 0.17853 0.16654 0.0
H659 H 0.22367 0.0984 0.31702 0.0
H660 H 0.21643 0.18122 0.26028 0.0
H661 H 0.21742 0.09826 0.218 0.0
C662 C 0.23037 0.11545 0.17488 0.0
C663 C 0.24036 0.13792 0.15985 0.0
C664 C 0.21805 0.1631 0.27281 0.0
C665 C 0.22879 0.13901 0.22343 0.0
C666 C 0.21358 0.16294 0.30488 0.0
C667 C 0.21564 0.13965 0.32146 0.0
C668 C 0.22405 0.13974 0.25731 0.0
C669 C 0.22207 0.1168 0.30513 0.0
C670 C 0.22478 0.11587 0.20668 0.0
C671 C 0.24379 0.16075 0.17734 0.0
N672 N 0.22587 0.11739 0.2739 0.0
N673 N 0.23794 0.16075 0.20827 0.0
H674 H 0.23567 0.88098 0.81034 0.0
H675 H 0.21844 0.79609 0.65718 0.0
H676 H 0.25642 0.7994 0.80833 0.0
H677 H 0.23814 0.87807 0.65497 0.0
H678 H 0.22568 0.79653 0.71354 0.0
H679 H 0.22902 0.87992 0.75397 0.0
C680 C 0.23861 0.86282 0.79805 0.0
C681 C 0.24664 0.84025 0.81394 0.0
C682 C 0.22855 0.81436 0.70063 0.0
C683 C 0.23899 0.83891 0.74972 0.0
C684 C 0.22441 0.81414 0.66855 0.0
C685 C 0.22777 0.83708 0.65146 0.0
C686 C 0.2355 0.83777 0.71568 0.0
C687 C 0.2355 0.85994 0.66728 0.0
C688 C 0.23501 0.86227 0.76593 0.0
C689 C 0.25032 0.81725 0.7969 0.0
N690 N 0.23885 0.85976 0.6986 0.0
N691 N 0.24632 0.81713 0.76566 0.0
H692 H 0.65213 0.86708 0.76216 0.0
H693 H 0.82208 0.86817 0.71423 0.0
H694 H 0.72316 0.87534 0.82798 0.0
H695 H 0.75106 0.87097 0.64787 0.0
H696 H 0.78612 0.87035 0.75632 0.0
H697 H 0.68801 0.86799 0.71988 0.0
C698 C 0.67526 0.86915 0.7677 0.0
C699 C 0.6847 0.87107 0.79861 0.0
C700 C 0.77841 0.8706 0.73255 0.0
C701 C 0.72584 0.87203 0.75043 0.0
C702 C 0.79892 0.86932 0.70852 0.0
C703 C 0.78952 0.86932 0.67753 0.0
C704 C 0.74827 0.8717 0.72551 0.0
C705 C 0.75927 0.87091 0.67145 0.0
C706 C 0.69573 0.86971 0.74357 0.0
C707 C 0.71493 0.87379 0.80448 0.0
N708 N 0.7397 0.87191 0.69524 0.0
N709 N 0.73443 0.87407 0.78062 0.0
H710 H 0.74999 0.0911 0.32589 0.0
H711 H 0.72324 0.09784 0.14261 0.0
H712 H 0.82034 0.10001 0.25938 0.0
H713 H 0.6538 0.10149 0.21081 0.0
H714 H 0.75923 0.09454 0.18458 0.0
H715 H 0.71458 0.09071 0.28344 0.0
C716 C 0.75801 0.09288 0.30231 0.0
C717 C 0.78816 0.0957 0.29615 0.0
C718 C 0.73611 0.096 0.19033 0.0
C719 C 0.74767 0.09529 0.24739 0.0
C720 C 0.71556 0.09783 0.16641 0.0
C721 C 0.68549 0.10004 0.17327 0.0
C722 C 0.72651 0.09626 0.2213 0.0
C723 C 0.67676 0.09993 0.20449 0.0
C724 C 0.73775 0.0927 0.27808 0.0
C725 C 0.79728 0.09789 0.26515 0.0
N726 N 0.69718 0.0981 0.22734 0.0
N727 N 0.77708 0.09768 0.24188 0.0
H728 H 0.71402 0.67602 0.31439 0.0
H729 H 0.73386 0.59388 0.15921 0.0
H730 H 0.7313 0.59379 0.31444 0.0
H731 H 0.75485 0.67555 0.16409 0.0
H732 H 0.72514 0.59389 0.21525 0.0
H733 H 0.72189 0.67662 0.25811 0.0
C734 C 0.7195 0.65812 0.30255 0.0
C735 C 0.7221 0.63483 0.31903 0.0
C736 C 0.73163 0.6118 0.204 0.0
C737 C 0.73065 0.63534 0.2549 0.0
C738 C 0.73643 0.61184 0.17205 0.0
C739 C 0.74515 0.63474 0.15707 0.0
C740 C 0.73512 0.63489 0.22096 0.0
C741 C 0.74828 0.65746 0.17481 0.0
C742 C 0.72403 0.6585 0.27053 0.0
C743 C 0.72924 0.61219 0.30262 0.0
N744 N 0.74315 0.657 0.20587 0.0
N745 N 0.73307 0.61296 0.27138 0.0
H746 H 0.77398 0.34353 0.65044 0.0
H747 H 0.7057 0.34677 0.81872 0.0
H748 H 0.68392 0.32068 0.6673 0.0
H749 H 0.79568 0.32349 0.80423 0.0
H750 H 0.69747 0.34435 0.76256 0.0
H751 H 0.78292 0.34308 0.70666 0.0
C752 C 0.75616 0.33837 0.66597 0.0
C753 C 0.72821 0.33209 0.65434 0.0
C754 C 0.71896 0.33969 0.77177 0.0
C755 C 0.73809 0.33204 0.71819 0.0
C756 C 0.72369 0.34118 0.80368 0.0
C757 C 0.75137 0.33527 0.81599 0.0
C758 C 0.74226 0.33288 0.75209 0.0
C759 C 0.77397 0.32805 0.79559 0.0
C760 C 0.76129 0.33804 0.69791 0.0
C761 C 0.70584 0.32551 0.67537 0.0
N762 N 0.76902 0.32732 0.7645 0.0
N763 N 0.71116 0.32594 0.70636 0.0
H764 H 0.32226 0.36992 0.71631 0.0
H765 H 0.15201 0.36726 0.76301 0.0
H766 H 0.2518 0.37308 0.64933 0.0
H767 H 0.2225 0.37689 0.82922 0.0
H768 H 0.18815 0.36848 0.72093 0.0
H769 H 0.28594 0.37165 0.75807 0.0
C770 C 0.29915 0.37106 0.71039 0.0
C771 C 0.29002 0.3713 0.67931 0.0
C772 C 0.19568 0.37043 0.74467 0.0
C773 C 0.24834 0.37315 0.72695 0.0
C774 C 0.17507 0.36969 0.76868 0.0
C775 C 0.18428 0.37192 0.79964 0.0
C776 C 0.22571 0.37323 0.75171 0.0
C777 C 0.21443 0.37509 0.80567 0.0
C778 C 0.27843 0.37208 0.73424 0.0
C779 C 0.2598 0.37285 0.67298 0.0
N780 N 0.23407 0.37553 0.78194 0.0
N781 N 0.24002 0.37358 0.6966 0.0
H782 H 0.32125 0.60221 0.26113 0.0
H783 H 0.15174 0.6064 0.21189 0.0
H784 H 0.24948 0.59294 0.32586 0.0
H785 H 0.22299 0.60189 0.14588 0.0
H786 H 0.18737 0.60294 0.25414 0.0
H787 H 0.2857 0.6034 0.21854 0.0
C788 C 0.29803 0.60033 0.26636 0.0
C789 C 0.28829 0.59752 0.29706 0.0
C790 C 0.1952 0.60263 0.23041 0.0
C791 C 0.24754 0.59903 0.24857 0.0
C792 C 0.17488 0.60466 0.2063 0.0
C793 C 0.18444 0.60446 0.17536 0.0
C794 C 0.22531 0.60057 0.22352 0.0
C795 C 0.21467 0.60211 0.16942 0.0
C796 C 0.27776 0.60099 0.24206 0.0
C797 C 0.25796 0.59514 0.30253 0.0
N798 N 0.23404 0.60036 0.19329 0.0
N799 N 0.23866 0.59607 0.27853 0.0
loop_
_geom_bond_atom_site_label_1
_geom_bond_atom_site_label_2
_geom_bond_distance
_geom_bond_site_symmetry_2
_ccdc_geom_bond_type
C0 O1 1.306 . S
C0 O3 1.160 . S
O1 C0 1.306 . S
O1 Cd2 2.228 . S
Cd2 O1 2.228 . S
Cd2 O6 2.273 . S
Cd2 O10 2.277 . S
O3 C0 1.160 . S
O3 Cd4 2.203 . S
Cd4 O3 2.203 . S
Cd4 O6 2.411 . S
Cd4 O7 2.333 . S
Cd4 O8 2.352 . S
Cd4 O12 2.277 . S
Cd4 O13 2.356 . S
C5 O10 1.209 . S
C5 O12 1.226 . S
O6 Cd2 2.273 . S
O6 Cd4 2.411 . S
O6 C9 1.320 . S
O7 Cd4 2.333 . S
O7 C9 1.214 . S
O8 Cd4 2.352 . S
O8 C11 1.258 . S
C9 O6 1.320 . S
C9 O7 1.214 . S
O10 Cd2 2.277 . S
O10 C5 1.209 . S
C11 O8 1.258 . S
C11 O13 1.282 . S
O12 Cd4 2.277 . S
O12 C5 1.226 . S
O13 Cd4 2.356 . S
O13 C11 1.282 . S
C14 O15 1.306 . S
C14 O17 1.160 . S
O15 C14 1.306 . S
O15 Cd16 2.228 . S
Cd16 O15 2.228 . S
Cd16 O20 2.273 . S
Cd16 O24 2.277 . S
O17 C14 1.160 . S
O17 Cd18 2.203 . S
Cd18 O17 2.203 . S
Cd18 O20 2.411 . S
Cd18 O21 2.333 . S
Cd18 O22 2.352 . S
Cd18 O26 2.277 . S
Cd18 O27 2.356 . S
C19 O24 1.209 . S
C19 O26 1.226 . S
O20 Cd16 2.273 . S
O20 Cd18 2.411 . S
O20 C23 1.320 . S
O21 Cd18 2.333 . S
O21 C23 1.214 . S
O22 Cd18 2.352 . S
O22 C25 1.258 . S
C23 O20 1.320 . S
C23 O21 1.214 . S
O24 Cd16 2.277 . S
O24 C19 1.209 . S
C25 O22 1.258 . S
C25 O27 1.282 . S
O26 Cd18 2.277 . S
O26 C19 1.226 . S
O27 Cd18 2.356 . S
O27 C25 1.282 . S
C28 O29 1.306 . S
C28 O31 1.160 . S
O29 C28 1.306 . S
O29 Cd30 2.228 . S
Cd30 O29 2.228 . S
Cd30 O34 2.273 . S
Cd30 O38 2.277 . S
O31 C28 1.160 . S
O31 Cd32 2.203 . S
Cd32 O31 2.203 . S
Cd32 O34 2.411 . S
Cd32 O35 2.333 . S
Cd32 O36 2.352 . S
Cd32 O40 2.277 . S
Cd32 O41 2.356 . S
C33 O38 1.209 . S
C33 O40 1.226 . S
O34 Cd30 2.273 . S
O34 Cd32 2.411 . S
O34 C37 1.320 . S
O35 Cd32 2.333 . S
O35 C37 1.214 . S
O36 Cd32 2.352 . S
O36 C39 1.258 . S
C37 O34 1.320 . S
C37 O35 1.214 . S
O38 Cd30 2.277 . S
O38 C33 1.209 . S
C39 O36 1.258 . S
C39 O41 1.282 . S
O40 Cd32 2.277 . S
O40 C33 1.226 . S
O41 Cd32 2.356 . S
O41 C39 1.282 . S
C42 O43 1.306 . S
C42 O45 1.160 . S
O43 C42 1.306 . S
O43 Cd44 2.228 . S
Cd44 O43 2.228 . S
Cd44 O48 2.273 . S
Cd44 O52 2.277 . S
O45 C42 1.160 . S
O45 Cd46 2.203 . S
Cd46 O45 2.203 . S
Cd46 O48 2.411 . S
Cd46 O49 2.333 . S
Cd46 O50 2.352 . S
Cd46 O54 2.277 . S
Cd46 O55 2.356 . S
C47 O52 1.209 . S
C47 O54 1.226 . S
O48 Cd44 2.273 . S
O48 Cd46 2.411 . S
O48 C51 1.320 . S
O49 Cd46 2.333 . S
O49 C51 1.214 . S
O50 Cd46 2.352 . S
O50 C53 1.258 . S
C51 O48 1.320 . S
C51 O49 1.214 . S
O52 Cd44 2.277 . S
O52 C47 1.209 . S
C53 O50 1.258 . S
C53 O55 1.282 . S
O54 Cd46 2.277 . S
O54 C47 1.226 . S
O55 Cd46 2.356 . S
O55 C53 1.282 . S
C56 O57 1.306 . S
C56 O59 1.160 . S
O57 C56 1.306 . S
O57 Cd58 2.228 . S
Cd58 O57 2.228 . S
Cd58 O62 2.273 . S
Cd58 O66 2.277 . S
O59 C56 1.160 . S
O59 Cd60 2.203 . S
Cd60 O59 2.203 . S
Cd60 O62 2.411 . S
Cd60 O63 2.333 . S
Cd60 O64 2.352 . S
Cd60 O68 2.277 . S
Cd60 O69 2.356 . S
C61 O66 1.209 . S
C61 O68 1.226 . S
O62 Cd58 2.273 . S
O62 Cd60 2.411 . S
O62 C65 1.320 . S
O63 Cd60 2.333 . S
O63 C65 1.214 . S
O64 Cd60 2.352 . S
O64 C67 1.258 . S
C65 O62 1.320 . S
C65 O63 1.214 . S
O66 Cd58 2.277 . S
O66 C61 1.209 . S
C67 O64 1.258 . S
C67 O69 1.282 . S
O68 Cd60 2.277 . S
O68 C61 1.226 . S
O69 Cd60 2.356 . S
O69 C67 1.282 . S
C70 O71 1.306 . S
C70 O73 1.160 . S
O71 C70 1.306 . S
O71 Cd72 2.228 . S
Cd72 O71 2.228 . S
Cd72 O76 2.273 . S
Cd72 O80 2.277 . S
O73 C70 1.160 . S
O73 Cd74 2.203 . S
Cd74 O73 2.203 . S
Cd74 O76 2.411 . S
Cd74 O77 2.333 . S
Cd74 O78 2.352 . S
Cd74 O82 2.277 . S
Cd74 O83 2.356 . S
C75 O80 1.209 . S
C75 O82 1.226 . S
O76 Cd72 2.273 . S
O76 Cd74 2.411 . S
O76 C79 1.320 . S
O77 Cd74 2.333 . S
O77 C79 1.214 . S
O78 Cd74 2.352 . S
O78 C81 1.258 . S
C79 O76 1.320 . S
C79 O77 1.214 . S
O80 Cd72 2.277 . S
O80 C75 1.209 . S
C81 O78 1.258 . S
C81 O83 1.282 . S
O82 Cd74 2.277 . S
O82 C75 1.226 . S
O83 Cd74 2.356 . S
O83 C81 1.282 . S
C84 O85 1.306 . S
C84 O87 1.160 . S
O85 C84 1.306 . S
O85 Cd86 2.228 . S
Cd86 O85 2.228 . S
Cd86 O90 2.273 . S
Cd86 O94 2.277 . S
O87 C84 1.160 . S
O87 Cd88 2.203 . S
Cd88 O87 2.203 . S
Cd88 O90 2.411 . S
Cd88 O91 2.333 . S
Cd88 O92 2.352 . S
Cd88 O96 2.277 . S
Cd88 O97 2.356 . S
C89 O94 1.209 . S
C89 O96 1.226 . S
O90 Cd86 2.273 . S
O90 Cd88 2.411 . S
O90 C93 1.320 . S
O91 Cd88 2.333 . S
O91 C93 1.214 . S
O92 Cd88 2.352 . S
O92 C95 1.258 . S
C93 O90 1.320 . S
C93 O91 1.214 . S
O94 Cd86 2.277 . S
O94 C89 1.209 . S
C95 O92 1.258 . S
C95 O97 1.282 . S
O96 Cd88 2.277 . S
O96 C89 1.226 . S
O97 Cd88 2.356 . S
O97 C95 1.282 . S
C98 O99 1.306 . S
C98 O101 1.160 . S
O99 C98 1.306 . S
O99 Cd100 2.228 . S
Cd100 O99 2.228 . S
Cd100 O104 2.273 . S
Cd100 O108 2.277 . S
O101 C98 1.160 . S
O101 Cd102 2.203 . S
Cd102 O101 2.203 . S
Cd102 O104 2.411 . S
Cd102 O105 2.333 . S
Cd102 O106 2.352 . S
Cd102 O110 2.277 . S
Cd102 O111 2.356 . S
C103 O108 1.209 . S
C103 O110 1.226 . S
O104 Cd100 2.273 . S
O104 Cd102 2.411 . S
O104 C107 1.320 . S
O105 Cd102 2.333 . S
O105 C107 1.214 . S
O106 Cd102 2.352 . S
O106 C109 1.258 . S
C107 O104 1.320 . S
C107 O105 1.214 . S
O108 Cd100 2.277 . S
O108 C103 1.209 . S
C109 O106 1.258 . S
C109 O111 1.282 . S
O110 Cd102 2.277 . S
O110 C103 1.226 . S
O111 Cd102 2.356 . S
O111 C109 1.282 . S
C112 O113 1.306 . S
C112 O115 1.160 . S
O113 C112 1.306 . S
O113 Cd114 2.228 . S
Cd114 O113 2.228 . S
Cd114 O118 2.273 . S
Cd114 O122 2.277 . S
O115 C112 1.160 . S
O115 Cd116 2.203 . S
Cd116 O115 2.203 . S
Cd116 O118 2.411 . S
Cd116 O119 2.333 . S
Cd116 O120 2.352 . S
Cd116 O124 2.277 . S
Cd116 O125 2.356 . S
C117 O122 1.209 . S
C117 O124 1.226 . S
O118 Cd114 2.273 . S
O118 Cd116 2.411 . S
O118 C121 1.320 . S
O119 Cd116 2.333 . S
O119 C121 1.214 . S
O120 Cd116 2.352 . S
O120 C123 1.258 . S
C121 O118 1.320 . S
C121 O119 1.214 . S
O122 Cd114 2.277 . S
O122 C117 1.209 . S
C123 O120 1.258 . S
C123 O125 1.282 . S
O124 Cd116 2.277 . S
O124 C117 1.226 . S
O125 Cd116 2.356 . S
O125 C123 1.282 . S
C126 O127 1.306 . S
C126 O129 1.160 . S
O127 C126 1.306 . S
O127 Cd128 2.228 . S
Cd128 O127 2.228 . S
Cd128 O132 2.273 . S
Cd128 O136 2.277 . S
O129 C126 1.160 . S
O129 Cd130 2.203 . S
Cd130 O129 2.203 . S
Cd130 O132 2.411 . S
Cd130 O133 2.333 . S
Cd130 O134 2.352 . S
Cd130 O138 2.277 . S
Cd130 O139 2.356 . S
C131 O136 1.209 . S
C131 O138 1.226 . S
O132 Cd128 2.273 . S
O132 Cd130 2.411 . S
O132 C135 1.320 . S
O133 Cd130 2.333 . S
O133 C135 1.214 . S
O134 Cd130 2.352 . S
O134 C137 1.258 . S
C135 O132 1.320 . S
C135 O133 1.214 . S
O136 Cd128 2.277 . S
O136 C131 1.209 . S
C137 O134 1.258 . S
C137 O139 1.282 . S
O138 Cd130 2.277 . S
O138 C131 1.226 . S
O139 Cd130 2.356 . S
O139 C137 1.282 . S
C140 O141 1.306 . S
C140 O143 1.160 . S
O141 C140 1.306 . S
O141 Cd142 2.228 . S
Cd142 O141 2.228 . S
Cd142 O146 2.273 . S
Cd142 O150 2.277 . S
O143 C140 1.160 . S
O143 Cd144 2.203 . S
Cd144 O143 2.203 . S
Cd144 O146 2.411 . S
Cd144 O147 2.333 . S
Cd144 O148 2.352 . S
Cd144 O152 2.277 . S
Cd144 O153 2.356 . S
C145 O150 1.209 . S
C145 O152 1.226 . S
O146 Cd142 2.273 . S
O146 Cd144 2.411 . S
O146 C149 1.320 . S
O147 Cd144 2.333 . S
O147 C149 1.214 . S
O148 Cd144 2.352 . S
O148 C151 1.258 . S
C149 O146 1.320 . S
C149 O147 1.214 . S
O150 Cd142 2.277 . S
O150 C145 1.209 . S
C151 O148 1.258 . S
C151 O153 1.282 . S
O152 Cd144 2.277 . S
O152 C145 1.226 . S
O153 Cd144 2.356 . S
O153 C151 1.282 . S
C154 O155 1.306 . S
C154 O157 1.160 . S
O155 C154 1.306 . S
O155 Cd156 2.228 . S
Cd156 O155 2.228 . S
Cd156 O160 2.273 . S
Cd156 O164 2.277 . S
O157 C154 1.160 . S
O157 Cd158 2.203 . S
Cd158 O157 2.203 . S
Cd158 O160 2.411 . S
Cd158 O161 2.333 . S
Cd158 O162 2.352 . S
Cd158 O166 2.277 . S
Cd158 O167 2.356 . S
C159 O164 1.209 . S
C159 O166 1.226 . S
O160 Cd156 2.273 . S
O160 Cd158 2.411 . S
O160 C163 1.320 . S
O161 Cd158 2.333 . S
O161 C163 1.214 . S
O162 Cd158 2.352 . S
O162 C165 1.258 . S
C163 O160 1.320 . S
C163 O161 1.214 . S
O164 Cd156 2.277 . S
O164 C159 1.209 . S
C165 O162 1.258 . S
C165 O167 1.282 . S
O166 Cd158 2.277 . S
O166 C159 1.226 . S
O167 Cd158 2.356 . S
O167 C165 1.282 . S
C168 O169 1.306 . S
C168 O171 1.160 . S
O169 C168 1.306 . S
O169 Cd170 2.228 . S
Cd170 O169 2.228 . S
Cd170 O174 2.273 . S
Cd170 O178 2.277 . S
O171 C168 1.160 . S
O171 Cd172 2.203 . S
Cd172 O171 2.203 . S
Cd172 O174 2.411 . S
Cd172 O175 2.333 . S
Cd172 O176 2.352 . S
Cd172 O180 2.277 . S
Cd172 O181 2.356 . S
C173 O178 1.209 . S
C173 O180 1.226 . S
O174 Cd170 2.273 . S
O174 Cd172 2.411 . S
O174 C177 1.320 . S
O175 Cd172 2.333 . S
O175 C177 1.214 . S
O176 Cd172 2.352 . S
O176 C179 1.258 . S
C177 O174 1.320 . S
C177 O175 1.214 . S
O178 Cd170 2.277 . S
O178 C173 1.209 . S
C179 O176 1.258 . S
C179 O181 1.282 . S
O180 Cd172 2.277 . S
O180 C173 1.226 . S
O181 Cd172 2.356 . S
O181 C179 1.282 . S
C182 O183 1.306 . S
C182 O185 1.160 . S
O183 C182 1.306 . S
O183 Cd184 2.228 . S
Cd184 O183 2.228 . S
Cd184 O188 2.273 . S
Cd184 O192 2.277 . S
O185 C182 1.160 . S
O185 Cd186 2.203 . S
Cd186 O185 2.203 . S
Cd186 O188 2.411 . S
Cd186 O189 2.333 . S
Cd186 O190 2.352 . S
Cd186 O194 2.277 . S
Cd186 O195 2.356 . S
C187 O192 1.209 . S
C187 O194 1.226 . S
O188 Cd184 2.273 . S
O188 Cd186 2.411 . S
O188 C191 1.320 . S
O189 Cd186 2.333 . S
O189 C191 1.214 . S
O190 Cd186 2.352 . S
O190 C193 1.258 . S
C191 O188 1.320 . S
C191 O189 1.214 . S
O192 Cd184 2.277 . S
O192 C187 1.209 . S
C193 O190 1.258 . S
C193 O195 1.282 . S
O194 Cd186 2.277 . S
O194 C187 1.226 . S
O195 Cd186 2.356 . S
O195 C193 1.282 . S
C196 O197 1.306 . S
C196 O199 1.160 . S
O197 C196 1.306 . S
O197 Cd198 2.228 . S
Cd198 O197 2.228 . S
Cd198 O202 2.273 . S
Cd198 O206 2.277 . S
O199 C196 1.160 . S
O199 Cd200 2.203 . S
Cd200 O199 2.203 . S
Cd200 O202 2.411 . S
Cd200 O203 2.333 . S
Cd200 O204 2.352 . S
Cd200 O208 2.277 . S
Cd200 O209 2.356 . S
C201 O206 1.209 . S
C201 O208 1.226 . S
O202 Cd198 2.273 . S
O202 Cd200 2.411 . S
O202 C205 1.320 . S
O203 Cd200 2.333 . S
O203 C205 1.214 . S
O204 Cd200 2.352 . S
O204 C207 1.258 . S
C205 O202 1.320 . S
C205 O203 1.214 . S
O206 Cd198 2.277 . S
O206 C201 1.209 . S
C207 O204 1.258 . S
C207 O209 1.282 . S
O208 Cd200 2.277 . S
O208 C201 1.226 . S
O209 Cd200 2.356 . S
O209 C207 1.282 . S
C210 O211 1.306 . S
C210 O213 1.160 . S
O211 C210 1.306 . S
O211 Cd212 2.228 . S
Cd212 O211 2.228 . S
Cd212 O216 2.273 . S
Cd212 O220 2.277 . S
O213 C210 1.160 . S
O213 Cd214 2.203 . S
Cd214 O213 2.203 . S
Cd214 O216 2.411 . S
Cd214 O217 2.333 . S
Cd214 O218 2.352 . S
Cd214 O222 2.277 . S
Cd214 O223 2.356 . S
C215 O220 1.209 . S
C215 O222 1.226 . S
O216 Cd212 2.273 . S
O216 Cd214 2.411 . S
O216 C219 1.320 . S
O217 Cd214 2.333 . S
O217 C219 1.214 . S
O218 Cd214 2.352 . S
O218 C221 1.258 . S
C219 O216 1.320 . S
C219 O217 1.214 . S
O220 Cd212 2.277 . S
O220 C215 1.209 . S
C221 O218 1.258 . S
C221 O223 1.282 . S
O222 Cd214 2.277 . S
O222 C215 1.226 . S
O223 Cd214 2.356 . S
O223 C221 1.282 . S
H224 C230 0.930 . S
H225 C234 0.930 . S
H226 C239 0.929 . S
H227 C237 0.929 . S
H228 C232 0.929 . S
H229 C238 0.929 . S
C230 H224 0.930 . S
C230 C231 1.367 . S
C230 C238 1.378 . S
C231 C230 1.367 . S
C231 C239 1.433 . S
C232 H228 0.929 . S
C232 C234 1.378 . S
C232 C236 1.350 . S
C233 C236 1.463 1_554 S
C233 C238 1.350 . S
C233 N241 1.427 . S
C234 H225 0.930 . S
C234 C232 1.378 . S
C234 C235 1.367 . S
C235 C234 1.367 . S
C235 C237 1.433 . S
C236 C232 1.350 . S
C236 C233 1.463 1_556 S
C236 N240 1.427 . S
C237 H227 0.929 . S
C237 C235 1.433 . S
C237 N240 1.384 . S
C238 H229 0.929 . S
C238 C230 1.378 . S
C238 C233 1.350 . S
C239 H226 0.929 . S
C239 C231 1.433 . S
C239 N241 1.384 . S
N240 C236 1.427 . S
N240 C237 1.384 . S
N241 C233 1.427 . S
N241 C239 1.384 . S
H242 C248 0.930 . S
H243 C252 0.930 . S
H244 C257 0.929 . S
H245 C255 0.929 . S
H246 C250 0.929 . S
H247 C256 0.929 . S
C248 H242 0.930 . S
C248 C249 1.367 . S
C248 C256 1.378 . S
C249 C248 1.367 . S
C249 C257 1.433 . S
C250 H246 0.929 . S
C250 C252 1.378 . S
C250 C254 1.350 . S
C251 C254 1.463 . S
C251 C256 1.350 . S
C251 N259 1.427 . S
C252 H243 0.930 . S
C252 C250 1.378 . S
C252 C253 1.367 . S
C253 C252 1.367 . S
C253 C255 1.433 . S
C254 C250 1.350 . S
C254 C251 1.463 . S
C254 N258 1.427 . S
C255 H245 0.929 . S
C255 C253 1.433 . S
C255 N258 1.384 . S
C256 H247 0.929 . S
C256 C248 1.378 . S
C256 C251 1.350 . S
C257 H244 0.929 . S
C257 C249 1.433 . S
C257 N259 1.384 . S
N258 C254 1.427 . S
N258 C255 1.384 . S
N259 C251 1.427 . S
N259 C257 1.384 . S
H260 C266 0.930 . S
H261 C270 0.930 . S
H262 C275 0.929 . S
H263 C273 0.929 . S
H264 C268 0.929 . S
H265 C274 0.929 . S
C266 H260 0.930 . S
C266 C267 1.367 . S
C266 C274 1.378 . S
C267 C266 1.367 . S
C267 C275 1.433 . S
C268 H264 0.929 . S
C268 C270 1.378 . S
C268 C272 1.350 . S
C269 C272 1.463 1_556 S
C269 C274 1.350 . S
C269 N277 1.427 1_556 S
C270 H261 0.930 . S
C270 C268 1.378 . S
C270 C271 1.367 . S
C271 C270 1.367 . S
C271 C273 1.433 . S
C272 C268 1.350 . S
C272 C269 1.463 1_554 S
C272 N276 1.427 . S
C273 H263 0.929 . S
C273 C271 1.433 . S
C273 N276 1.384 . S
C274 H265 0.929 . S
C274 C266 1.378 . S
C274 C269 1.350 . S
C275 H262 0.929 . S
C275 C267 1.433 . S
C275 N277 1.384 1_556 S
N276 C272 1.427 . S
N276 C273 1.384 . S
N277 C269 1.427 1_554 S
N277 C275 1.384 1_554 S
H278 C284 0.930 . S
H279 C288 0.930 . S
H280 C293 0.929 . S
H281 C291 0.929 . S
H282 C286 0.929 . S
H283 C292 0.929 . S
C284 H278 0.930 . S
C284 C285 1.367 . S
C284 C292 1.378 . S
C285 C284 1.367 . S
C285 C293 1.433 . S
C286 H282 0.929 . S
C286 C288 1.378 . S
C286 C290 1.350 . S
C287 C290 1.463 . S
C287 C292 1.350 . S
C287 N295 1.427 . S
C288 H279 0.930 . S
C288 C286 1.378 . S
C288 C289 1.367 . S
C289 C288 1.367 . S
C289 C291 1.433 . S
C290 C286 1.350 . S
C290 C287 1.463 . S
C290 N294 1.427 . S
C291 H281 0.929 . S
C291 C289 1.433 . S
C291 N294 1.384 . S
C292 H283 0.929 . S
C292 C284 1.378 . S
C292 C287 1.350 . S
C293 H280 0.929 . S
C293 C285 1.433 . S
C293 N295 1.384 . S
N294 C290 1.427 . S
N294 C291 1.384 . S
N295 C287 1.427 . S
N295 C293 1.384 . S
H296 C302 0.914 1_556 S
H297 C306 0.930 . S
H298 C311 0.929 . S
H299 C309 0.929 . S
H300 C304 0.930 . S
H301 C310 0.929 . S
C302 H296 0.914 1_554 S
C302 C303 1.402 . S
C302 C310 1.360 1_554 S
C303 C302 1.402 . S
C303 C311 1.433 . S
C304 H300 0.930 . S
C304 C306 1.377 1_554 S
C304 C308 1.349 1_554 S
C305 C308 1.460 1_554 S
C305 C310 1.348 1_554 S
C305 N313 1.432 . S
C306 H297 0.930 . S
C306 C304 1.377 1_556 S
C306 C307 1.367 . S
C307 C306 1.367 . S
C307 C309 1.433 . S
C308 C304 1.349 1_556 S
C308 C305 1.460 1_556 S
C308 N312 1.427 . S
C309 H299 0.929 . S
C309 C307 1.433 . S
C309 N312 1.384 . S
C310 H301 0.929 . S
C310 C302 1.360 1_556 S
C310 C305 1.348 1_556 S
C311 H298 0.929 . S
C311 C303 1.433 . S
C311 N313 1.384 . S
N312 C308 1.427 . S
N312 C309 1.384 . S
N313 C305 1.432 . S
N313 C311 1.384 . S
H314 C320 0.930 . S
H315 C324 0.930 . S
H316 C329 0.929 . S
H317 C327 0.929 . S
H318 C322 0.929 . S
H319 C328 0.929 . S
C320 H314 0.930 . S
C320 C321 1.367 . S
C320 C328 1.378 . S
C321 C320 1.367 . S
C321 C329 1.433 . S
C322 H318 0.929 . S
C322 C324 1.378 . S
C322 C326 1.350 . S
C323 C326 1.463 . S
C323 C328 1.350 . S
C323 N331 1.427 . S
C324 H315 0.930 . S
C324 C322 1.378 . S
C324 C325 1.367 . S
C325 C324 1.367 . S
C325 C327 1.433 . S
C326 C322 1.350 . S
C326 C323 1.463 . S
C326 N330 1.427 . S
C327 H317 0.929 . S
C327 C325 1.433 . S
C327 N330 1.384 . S
C328 H319 0.929 . S
C328 C320 1.378 . S
C328 C323 1.350 . S
C329 H316 0.929 . S
C329 C321 1.433 . S
C329 N331 1.384 . S
N330 C326 1.427 . S
N330 C327 1.384 . S
N331 C323 1.427 . S
N331 C329 1.384 . S
H332 C338 0.930 . S
H333 C342 0.930 . S
H334 C347 0.929 1_554 S
H335 C345 0.929 . S
H336 C340 0.929 . S
H337 C346 0.929 . S
C338 H332 0.930 . S
C338 C339 1.367 . S
C338 C346 1.378 . S
C339 C338 1.367 . S
C339 C347 1.433 . S
C340 H336 0.929 . S
C340 C342 1.378 . S
C340 C344 1.350 . S
C341 C344 1.463 1_556 S
C341 C346 1.350 . S
C341 N349 1.427 1_556 S
C342 H333 0.930 . S
C342 C340 1.378 . S
C342 C343 1.367 . S
C343 C342 1.367 . S
C343 C345 1.433 . S
C344 C340 1.350 . S
C344 C341 1.463 1_554 S
C344 N348 1.427 . S
C345 H335 0.929 . S
C345 C343 1.433 . S
C345 N348 1.384 . S
C346 H337 0.929 . S
C346 C338 1.378 . S
C346 C341 1.350 . S
C347 H334 0.929 1_556 S
C347 C339 1.433 . S
C347 N349 1.384 1_556 S
N348 C344 1.427 . S
N348 C345 1.384 . S
N349 C341 1.427 1_554 S
N349 C347 1.384 1_554 S
H350 C356 0.930 . S
H351 C360 0.930 . S
H352 C365 0.929 . S
H353 C363 0.929 . S
H354 C358 0.929 . S
H355 C364 0.929 . S
C356 H350 0.930 . S
C356 C357 1.367 . S
C356 C364 1.378 . S
C357 C356 1.367 . S
C357 C365 1.433 . S
C358 H354 0.929 . S
C358 C360 1.378 . S
C358 C362 1.350 . S
C359 C362 1.463 . S
C359 C364 1.350 . S
C359 N367 1.427 . S
C360 H351 0.930 . S
C360 C358 1.378 . S
C360 C361 1.367 . S
C361 C360 1.367 . S
C361 C363 1.433 . S
C362 C358 1.350 . S
C362 C359 1.463 . S
C362 N366 1.427 . S
C363 H353 0.929 . S
C363 C361 1.433 . S
C363 N366 1.384 . S
C364 H355 0.929 . S
C364 C356 1.378 . S
C364 C359 1.350 . S
C365 H352 0.929 . S
C365 C357 1.433 . S
C365 N367 1.384 . S
N366 C362 1.427 . S
N366 C363 1.384 . S
N367 C359 1.427 . S
N367 C365 1.384 . S
H368 C374 0.930 . S
H369 C378 0.930 . S
H370 C383 0.929 . S
H371 C381 0.929 . S
H372 C376 0.929 . S
H373 C382 0.929 . S
C374 H368 0.930 . S
C374 C375 1.367 . S
C374 C382 1.378 . S
C375 C374 1.367 . S
C375 C383 1.433 1_554 S
C376 H372 0.929 . S
C376 C378 1.378 . S
C376 C380 1.350 . S
C377 C380 1.463 1_544 S
C377 C382 1.350 . S
C377 N385 1.427 1_554 S
C378 H369 0.930 . S
C378 C376 1.378 . S
C378 C379 1.367 . S
C379 C378 1.367 . S
C379 C381 1.433 1_556 S
C380 C376 1.350 . S
C380 C377 1.463 1_566 S
C380 N384 1.427 1_556 S
C381 H371 0.929 . S
C381 C379 1.433 1_554 S
C381 N384 1.384 . S
C382 H373 0.929 . S
C382 C374 1.378 . S
C382 C377 1.350 . S
C383 H370 0.929 . S
C383 C375 1.433 1_556 S
C383 N385 1.384 . S
N384 C380 1.427 1_554 S
N384 C381 1.384 . S
N385 C377 1.427 1_556 S
N385 C383 1.384 . S
H386 C392 0.930 . S
H387 C396 0.930 . S
H388 C401 0.929 . S
H389 C399 0.929 . S
H390 C394 0.929 . S
H391 C400 0.929 . S
C392 H386 0.930 . S
C392 C393 1.367 . S
C392 C400 1.378 . S
C393 C392 1.367 . S
C393 C401 1.433 . S
C394 H390 0.929 . S
C394 C396 1.378 . S
C394 C398 1.350 . S
C395 C398 1.463 1_565 S
C395 C400 1.350 . S
C395 N403 1.427 . S
C396 H387 0.930 . S
C396 C394 1.378 . S
C396 C397 1.367 . S
C397 C396 1.367 . S
C397 C399 1.433 . S
C398 C394 1.350 . S
C398 C395 1.463 1_545 S
C398 N402 1.427 . S
C399 H389 0.929 . S
C399 C397 1.433 . S
C399 N402 1.384 . S
C400 H391 0.929 . S
C400 C392 1.378 . S
C400 C395 1.350 . S
C401 H388 0.929 . S
C401 C393 1.433 . S
C401 N403 1.384 . S
N402 C398 1.427 . S
N402 C399 1.384 . S
N403 C395 1.427 . S
N403 C401 1.384 . S
H404 C410 0.930 . S
H405 C414 0.930 . S
H406 C419 0.929 . S
H407 C417 0.929 . S
H408 C412 0.929 1_556 S
H409 C418 0.929 1_554 S
C410 H404 0.930 . S
C410 C411 1.367 . S
C410 C418 1.378 . S
C411 C410 1.367 . S
C411 C419 1.433 . S
C412 H408 0.929 1_554 S
C412 C414 1.378 . S
C412 C416 1.350 . S
C413 C416 1.463 1_566 S
C413 C418 1.350 . S
C413 N421 1.427 . S
C414 H405 0.930 . S
C414 C412 1.378 . S
C414 C415 1.367 . S
C415 C414 1.367 . S
C415 C417 1.433 . S
C416 C412 1.350 . S
C416 C413 1.463 1_544 S
C416 N420 1.427 . S
C417 H407 0.929 . S
C417 C415 1.433 . S
C417 N420 1.384 . S
C418 H409 0.929 1_556 S
C418 C410 1.378 . S
C418 C413 1.350 . S
C419 H406 0.929 . S
C419 C411 1.433 . S
C419 N421 1.384 . S
N420 C416 1.427 . S
N420 C417 1.384 . S
N421 C413 1.427 . S
N421 C419 1.384 . S
H422 C428 0.930 . S
H423 C432 0.930 . S
H424 C437 0.929 . S
H425 C435 0.929 . S
H426 C430 0.929 . S
H427 C436 0.929 . S
C428 H422 0.930 . S
C428 C429 1.367 . S
C428 C436 1.378 . S
C429 C428 1.367 . S
C429 C437 1.433 . S
C430 H426 0.929 . S
C430 C432 1.378 . S
C430 C434 1.350 . S
C431 C434 1.463 1_545 S
C431 C436 1.350 . S
C431 N439 1.427 . S
C432 H423 0.930 . S
C432 C430 1.378 . S
C432 C433 1.367 . S
C433 C432 1.367 . S
C433 C435 1.433 . S
C434 C430 1.350 . S
C434 C431 1.463 1_565 S
C434 N438 1.427 . S
C435 H425 0.929 . S
C435 C433 1.433 . S
C435 N438 1.384 . S
C436 H427 0.929 . S
C436 C428 1.378 . S
C436 C431 1.350 . S
C437 H424 0.929 . S
C437 C429 1.433 . S
C437 N439 1.384 . S
N438 C434 1.427 . S
N438 C435 1.384 . S
N439 C431 1.427 . S
N439 C437 1.384 . S
H440 C446 0.930 . S
H441 C450 0.930 . S
H442 C455 0.929 . S
H443 C453 0.929 . S
H444 C448 0.929 . S
H445 C454 0.929 . S
C446 H440 0.930 . S
C446 C447 1.367 1_554 S
C446 C454 1.378 . S
C447 C446 1.367 1_556 S
C447 C455 1.433 . S
C448 H444 0.929 . S
C448 C450 1.378 . S
C448 C452 1.350 1_556 S
C449 C452 1.463 1_556 S
C449 C454 1.350 1_556 S
C449 N457 1.427 . S
C450 H441 0.930 . S
C450 C448 1.378 . S
C450 C451 1.367 1_556 S
C451 C450 1.367 1_554 S
C451 C453 1.433 . S
C452 C448 1.350 1_554 S
C452 C449 1.463 1_554 S
C452 N456 1.427 . S
C453 H443 0.929 . S
C453 C451 1.433 . S
C453 N456 1.384 . S
C454 H445 0.929 . S
C454 C446 1.378 . S
C454 C449 1.350 1_554 S
C455 H442 0.929 . S
C455 C447 1.433 . S
C455 N457 1.384 . S
N456 C452 1.427 . S
N456 C453 1.384 . S
N457 C449 1.427 . S
N457 C455 1.384 . S
H458 C464 0.930 . S
H459 C468 0.930 . S
H460 C473 0.929 . S
H461 C471 0.929 . S
H462 C466 0.929 . S
H463 C472 0.929 . S
C464 H458 0.930 . S
C464 C465 1.367 . S
C464 C472 1.378 . S
C465 C464 1.367 . S
C465 C473 1.433 . S
C466 H462 0.929 . S
C466 C468 1.378 . S
C466 C470 1.350 . S
C467 C470 1.463 . S
C467 C472 1.350 . S
C467 N475 1.427 . S
C468 H459 0.930 . S
C468 C466 1.378 . S
C468 C469 1.367 . S
C469 C468 1.367 . S
C469 C471 1.433 . S
C470 C466 1.350 . S
C470 C467 1.463 . S
C470 N474 1.427 . S
C471 H461 0.929 . S
C471 C469 1.433 . S
C471 N474 1.384 . S
C472 H463 0.929 . S
C472 C464 1.378 . S
C472 C467 1.350 . S
C473 H460 0.929 . S
C473 C465 1.433 . S
C473 N475 1.384 . S
N474 C470 1.427 . S
N474 C471 1.384 . S
N475 C467 1.427 . S
N475 C473 1.384 . S
H476 C482 0.930 . S
H477 C486 0.930 . S
H478 C491 0.929 . S
H479 C489 0.929 . S
H480 C484 0.929 . S
H481 C490 0.929 . S
C482 H476 0.930 . S
C482 C483 1.367 . S
C482 C490 1.378 . S
C483 C482 1.367 . S
C483 C491 1.433 . S
C484 H480 0.929 . S
C484 C486 1.378 . S
C484 C488 1.350 . S
C485 C488 1.463 1_554 S
C485 C490 1.350 . S
C485 N493 1.427 . S
C486 H477 0.930 . S
C486 C484 1.378 . S
C486 C487 1.367 . S
C487 C486 1.367 . S
C487 C489 1.433 . S
C488 C484 1.350 . S
C488 C485 1.463 1_556 S
C488 N492 1.427 . S
C489 H479 0.929 . S
C489 C487 1.433 . S
C489 N492 1.384 . S
C490 H481 0.929 . S
C490 C482 1.378 . S
C490 C485 1.350 . S
C491 H478 0.929 . S
C491 C483 1.433 . S
C491 N493 1.384 . S
N492 C488 1.427 . S
N492 C489 1.384 . S
N493 C485 1.427 . S
N493 C491 1.384 . S
H494 C500 0.930 . S
H495 C504 0.930 . S
H496 C509 0.929 . S
H497 C507 0.929 . S
H498 C502 0.929 . S
H499 C508 0.929 . S
C500 H494 0.930 . S
C500 C501 1.367 . S
C500 C508 1.378 . S
C501 C500 1.367 . S
C501 C509 1.433 . S
C502 H498 0.929 . S
C502 C504 1.378 . S
C502 C506 1.350 . S
C503 C506 1.463 . S
C503 C508 1.350 . S
C503 N511 1.427 . S
C504 H495 0.930 . S
C504 C502 1.378 . S
C504 C505 1.367 . S
C505 C504 1.367 . S
C505 C507 1.433 . S
C506 C502 1.350 . S
C506 C503 1.463 . S
C506 N510 1.427 . S
C507 H497 0.929 . S
C507 C505 1.433 . S
C507 N510 1.384 . S
C508 H499 0.929 . S
C508 C500 1.378 . S
C508 C503 1.350 . S
C509 H496 0.929 . S
C509 C501 1.433 . S
C509 N511 1.384 . S
N510 C506 1.427 . S
N510 C507 1.384 . S
N511 C503 1.427 . S
N511 C509 1.384 . S
H512 C518 0.930 . S
H513 C522 0.930 . S
H514 C527 0.929 . S
H515 C525 0.929 . S
H516 C520 0.929 . S
H517 C526 0.929 . S
C518 H512 0.930 . S
C518 C519 1.367 . S
C518 C526 1.378 . S
C519 C518 1.367 . S
C519 C527 1.433 . S
C520 H516 0.929 . S
C520 C522 1.378 . S
C520 C524 1.350 . S
C521 C524 1.463 . S
C521 C526 1.350 . S
C521 N529 1.427 . S
C522 H513 0.930 . S
C522 C520 1.378 . S
C522 C523 1.367 . S
C523 C522 1.367 . S
C523 C525 1.433 . S
C524 C520 1.350 . S
C524 C521 1.463 . S
C524 N528 1.427 . S
C525 H515 0.929 . S
C525 C523 1.433 . S
C525 N528 1.384 . S
C526 H517 0.929 . S
C526 C518 1.378 . S
C526 C521 1.350 . S
C527 H514 0.929 . S
C527 C519 1.433 . S
C527 N529 1.384 . S
N528 C524 1.427 . S
N528 C525 1.384 . S
N529 C521 1.427 . S
N529 C527 1.384 . S
H530 C536 0.930 . S
H531 C540 0.930 . S
H532 C545 0.929 . S
H533 C543 0.929 . S
H534 C538 0.929 . S
H535 C544 0.929 . S
C536 H530 0.930 . S
C536 C537 1.367 . S
C536 C544 1.378 . S
C537 C536 1.367 . S
C537 C545 1.433 . S
C538 H534 0.929 . S
C538 C540 1.378 . S
C538 C542 1.350 . S
C539 C542 1.463 1_655 S
C539 C544 1.350 . S
C539 N547 1.427 . S
C540 H531 0.930 . S
C540 C538 1.378 . S
C540 C541 1.367 . S
C541 C540 1.367 . S
C541 C543 1.433 . S
C542 C538 1.350 . S
C542 C539 1.463 1_455 S
C542 N546 1.427 . S
C543 H533 0.929 . S
C543 C541 1.433 . S
C543 N546 1.384 . S
C544 H535 0.929 . S
C544 C536 1.378 . S
C544 C539 1.350 . S
C545 H532 0.929 . S
C545 C537 1.433 . S
C545 N547 1.384 . S
N546 C542 1.427 . S
N546 C543 1.384 . S
N547 C539 1.427 . S
N547 C545 1.384 . S
H548 C554 0.930 . S
H549 C558 0.930 . S
H550 C563 0.929 . S
H551 C561 0.929 . S
H552 C556 0.929 . S
H553 C562 0.929 . S
C554 H548 0.930 . S
C554 C555 1.367 . S
C554 C562 1.378 . S
C555 C554 1.367 . S
C555 C563 1.433 . S
C556 H552 0.929 . S
C556 C558 1.378 . S
C556 C560 1.350 . S
C557 C560 1.463 . S
C557 C562 1.350 . S
C557 N565 1.427 . S
C558 H549 0.930 . S
C558 C556 1.378 . S
C558 C559 1.367 . S
C559 C558 1.367 . S
C559 C561 1.433 . S
C560 C556 1.350 . S
C560 C557 1.463 . S
C560 N564 1.427 . S
C561 H551 0.929 . S
C561 C559 1.433 . S
C561 N564 1.384 . S
C562 H553 0.929 . S
C562 C554 1.378 . S
C562 C557 1.350 . S
C563 H550 0.929 . S
C563 C555 1.433 . S
C563 N565 1.384 . S
N564 C560 1.427 . S
N564 C561 1.384 . S
N565 C557 1.427 . S
N565 C563 1.384 . S
H566 C572 0.930 . S
H567 C576 0.930 . S
H568 C581 0.929 . S
H569 C579 0.929 . S
H570 C574 0.929 . S
H571 C580 0.929 . S
C572 H566 0.930 . S
C572 C573 1.367 . S
C572 C580 1.378 . S
C573 C572 1.367 . S
C573 C581 1.433 . S
C574 H570 0.929 . S
C574 C576 1.378 . S
C574 C578 1.350 . S
C575 C578 1.463 1_455 S
C575 C580 1.350 . S
C575 N583 1.427 . S
C576 H567 0.930 . S
C576 C574 1.378 . S
C576 C577 1.367 . S
C577 C576 1.367 . S
C577 C579 1.433 . S
C578 C574 1.350 . S
C578 C575 1.463 1_655 S
C578 N582 1.427 . S
C579 H569 0.929 . S
C579 C577 1.433 . S
C579 N582 1.384 . S
C580 H571 0.929 . S
C580 C572 1.378 . S
C580 C575 1.350 . S
C581 H568 0.929 . S
C581 C573 1.433 . S
C581 N583 1.384 . S
N582 C578 1.427 . S
N582 C579 1.384 . S
N583 C575 1.427 . S
N583 C581 1.384 . S
H584 C590 0.930 . S
H585 C594 0.930 . S
H586 C599 0.929 . S
H587 C597 0.929 . S
H588 C592 0.929 . S
H589 C598 0.929 . S
C590 H584 0.930 . S
C590 C591 1.367 . S
C590 C598 1.378 . S
C591 C590 1.367 . S
C591 C599 1.433 . S
C592 H588 0.929 . S
C592 C594 1.378 . S
C592 C596 1.350 . S
C593 C596 1.463 1_455 S
C593 C598 1.350 . S
C593 N601 1.427 . S
C594 H585 0.930 . S
C594 C592 1.378 . S
C594 C595 1.367 . S
C595 C594 1.367 . S
C595 C597 1.433 . S
C596 C592 1.350 . S
C596 C593 1.463 1_655 S
C596 N600 1.427 . S
C597 H587 0.929 . S
C597 C595 1.433 . S
C597 N600 1.384 . S
C598 H589 0.929 . S
C598 C590 1.378 . S
C598 C593 1.350 . S
C599 H586 0.929 . S
C599 C591 1.433 . S
C599 N601 1.384 . S
N600 C596 1.427 . S
N600 C597 1.384 . S
N601 C593 1.427 . S
N601 C599 1.384 . S
H602 C608 0.930 . S
H603 C612 0.930 . S
H604 C617 0.929 . S
H605 C615 0.929 . S
H606 C610 0.929 . S
H607 C616 0.929 . S
C608 H602 0.930 . S
C608 C609 1.367 . S
C608 C616 1.378 . S
C609 C608 1.367 . S
C609 C617 1.433 . S
C610 H606 0.929 . S
C610 C612 1.378 . S
C610 C614 1.350 . S
C611 C614 1.463 . S
C611 C616 1.350 . S
C611 N619 1.427 . S
C612 H603 0.930 . S
C612 C610 1.378 . S
C612 C613 1.367 . S
C613 C612 1.367 . S
C613 C615 1.433 . S
C614 C610 1.350 . S
C614 C611 1.463 . S
C614 N618 1.427 . S
C615 H605 0.929 . S
C615 C613 1.433 . S
C615 N618 1.384 . S
C616 H607 0.929 . S
C616 C608 1.378 . S
C616 C611 1.350 . S
C617 H604 0.929 . S
C617 C609 1.433 . S
C617 N619 1.384 . S
N618 C614 1.427 . S
N618 C615 1.384 . S
N619 C611 1.427 . S
N619 C617 1.384 . S
H620 C626 0.930 . S
H621 C630 0.930 . S
H622 C635 0.929 . S
H623 C633 0.929 . S
H624 C628 0.929 . S
H625 C634 0.929 . S
C626 H620 0.930 . S
C626 C627 1.367 . S
C626 C634 1.378 . S
C627 C626 1.367 . S
C627 C635 1.433 . S
C628 H624 0.929 . S
C628 C630 1.378 . S
C628 C632 1.350 . S
C629 C632 1.463 1_455 S
C629 C634 1.350 . S
C629 N637 1.427 . S
C630 H621 0.930 . S
C630 C628 1.378 . S
C630 C631 1.367 . S
C631 C630 1.367 . S
C631 C633 1.433 . S
C632 C628 1.350 . S
C632 C629 1.463 1_655 S
C632 N636 1.427 . S
C633 H623 0.929 . S
C633 C631 1.433 . S
C633 N636 1.384 . S
C634 H625 0.929 . S
C634 C626 1.378 . S
C634 C629 1.350 . S
C635 H622 0.929 . S
C635 C627 1.433 . S
C635 N637 1.384 . S
N636 C632 1.427 . S
N636 C633 1.384 . S
N637 C629 1.427 . S
N637 C635 1.384 . S
H638 C644 0.930 . S
H639 C648 0.930 . S
H640 C653 0.929 . S
H641 C651 0.929 . S
H642 C646 0.929 . S
H643 C652 0.929 . S
C644 H638 0.930 . S
C644 C645 1.367 . S
C644 C652 1.378 . S
C645 C644 1.367 . S
C645 C653 1.433 . S
C646 H642 0.929 . S
C646 C648 1.378 . S
C646 C650 1.350 . S
C647 C650 1.463 . S
C647 C652 1.350 . S
C647 N655 1.427 . S
C648 H639 0.930 . S
C648 C646 1.378 . S
C648 C649 1.367 . S
C649 C648 1.367 . S
C649 C651 1.433 . S
C650 C646 1.350 . S
C650 C647 1.463 . S
C650 N654 1.427 . S
C651 H641 0.929 . S
C651 C649 1.433 . S
C651 N654 1.384 . S
C652 H643 0.929 . S
C652 C644 1.378 . S
C652 C647 1.350 . S
C653 H640 0.929 . S
C653 C645 1.433 . S
C653 N655 1.384 . S
N654 C650 1.427 . S
N654 C651 1.384 . S
N655 C647 1.427 . S
N655 C653 1.384 . S
H656 C662 0.930 . S
H657 C666 0.930 . S
H658 C671 0.929 . S
H659 C669 0.929 . S
H660 C664 0.929 . S
H661 C670 0.929 . S
C662 H656 0.930 . S
C662 C663 1.367 . S
C662 C670 1.378 . S
C663 C662 1.367 . S
C663 C671 1.433 . S
C664 H660 0.929 . S
C664 C666 1.378 . S
C664 C668 1.350 . S
C665 C668 1.463 . S
C665 C670 1.350 . S
C665 N673 1.427 . S
C666 H657 0.930 . S
C666 C664 1.378 . S
C666 C667 1.367 . S
C667 C666 1.367 . S
C667 C669 1.433 . S
C668 C664 1.350 . S
C668 C665 1.463 . S
C668 N672 1.427 . S
C669 H659 0.929 . S
C669 C667 1.433 . S
C669 N672 1.384 . S
C670 H661 0.929 . S
C670 C662 1.378 . S
C670 C665 1.350 . S
C671 H658 0.929 . S
C671 C663 1.433 . S
C671 N673 1.384 . S
N672 C668 1.427 . S
N672 C669 1.384 . S
N673 C665 1.427 . S
N673 C671 1.384 . S
H674 C680 0.930 . S
H675 C684 0.930 . S
H676 C689 0.929 . S
H677 C687 0.929 . S
H678 C682 0.929 . S
H679 C688 0.929 . S
C680 H674 0.930 . S
C680 C681 1.367 . S
C680 C688 1.378 . S
C681 C680 1.367 . S
C681 C689 1.433 . S
C682 H678 0.929 . S
C682 C684 1.378 . S
C682 C686 1.350 . S
C683 C686 1.463 . S
C683 C688 1.350 . S
C683 N691 1.427 . S
C684 H675 0.930 . S
C684 C682 1.378 . S
C684 C685 1.367 . S
C685 C684 1.367 . S
C685 C687 1.433 . S
C686 C682 1.350 . S
C686 C683 1.463 . S
C686 N690 1.427 . S
C687 H677 0.929 . S
C687 C685 1.433 . S
C687 N690 1.384 . S
C688 H679 0.929 . S
C688 C680 1.378 . S
C688 C683 1.350 . S
C689 H676 0.929 . S
C689 C681 1.433 . S
C689 N691 1.384 . S
N690 C686 1.427 . S
N690 C687 1.384 . S
N691 C683 1.427 . S
N691 C689 1.384 . S
H692 C698 0.930 . S
H693 C702 0.930 . S
H694 C707 0.929 . S
H695 C705 0.929 . S
H696 C700 0.929 . S
H697 C706 0.929 . S
C698 H692 0.930 . S
C698 C699 1.367 . S
C698 C706 1.378 . S
C699 C698 1.367 . S
C699 C707 1.433 . S
C700 H696 0.929 . S
C700 C702 1.378 . S
C700 C704 1.350 . S
C701 C704 1.463 . S
C701 C706 1.350 . S
C701 N709 1.427 . S
C702 H693 0.930 . S
C702 C700 1.378 . S
C702 C703 1.367 . S
C703 C702 1.367 . S
C703 C705 1.433 . S
C704 C700 1.350 . S
C704 C701 1.463 . S
C704 N708 1.427 . S
C705 H695 0.929 . S
C705 C703 1.433 . S
C705 N708 1.384 . S
C706 H697 0.929 . S
C706 C698 1.378 . S
C706 C701 1.350 . S
C707 H694 0.929 . S
C707 C699 1.433 . S
C707 N709 1.384 . S
N708 C704 1.427 . S
N708 C705 1.384 . S
N709 C701 1.427 . S
N709 C707 1.384 . S
H710 C716 0.930 . S
H711 C720 0.930 . S
H712 C725 0.929 . S
H713 C723 0.929 . S
H714 C718 0.929 . S
H715 C724 0.929 . S
C716 H710 0.930 . S
C716 C717 1.367 . S
C716 C724 1.378 . S
C717 C716 1.367 . S
C717 C725 1.433 . S
C718 H714 0.929 . S
C718 C720 1.378 . S
C718 C722 1.350 . S
C719 C722 1.463 . S
C719 C724 1.350 . S
C719 N727 1.427 . S
C720 H711 0.930 . S
C720 C718 1.378 . S
C720 C721 1.367 . S
C721 C720 1.367 . S
C721 C723 1.433 . S
C722 C718 1.350 . S
C722 C719 1.463 . S
C722 N726 1.427 . S
C723 H713 0.929 . S
C723 C721 1.433 . S
C723 N726 1.384 . S
C724 H715 0.929 . S
C724 C716 1.378 . S
C724 C719 1.350 . S
C725 H712 0.929 . S
C725 C717 1.433 . S
C725 N727 1.384 . S
N726 C722 1.427 . S
N726 C723 1.384 . S
N727 C719 1.427 . S
N727 C725 1.384 . S
H728 C734 0.930 . S
H729 C738 0.930 . S
H730 C743 0.929 . S
H731 C741 0.929 . S
H732 C736 0.929 . S
H733 C742 0.929 . S
C734 H728 0.930 . S
C734 C735 1.367 . S
C734 C742 1.378 . S
C735 C734 1.367 . S
C735 C743 1.433 . S
C736 H732 0.929 . S
C736 C738 1.378 . S
C736 C740 1.350 . S
C737 C740 1.463 . S
C737 C742 1.350 . S
C737 N745 1.427 . S
C738 H729 0.930 . S
C738 C736 1.378 . S
C738 C739 1.367 . S
C739 C738 1.367 . S
C739 C741 1.433 . S
C740 C736 1.350 . S
C740 C737 1.463 . S
C740 N744 1.427 . S
C741 H731 0.929 . S
C741 C739 1.433 . S
C741 N744 1.384 . S
C742 H733 0.929 . S
C742 C734 1.378 . S
C742 C737 1.350 . S
C743 H730 0.929 . S
C743 C735 1.433 . S
C743 N745 1.384 . S
N744 C740 1.427 . S
N744 C741 1.384 . S
N745 C737 1.427 . S
N745 C743 1.384 . S
H746 C752 0.930 . S
H747 C756 0.930 . S
H748 C761 0.929 . S
H749 C759 0.929 . S
H750 C754 0.929 . S
H751 C760 0.929 . S
C752 H746 0.930 . S
C752 C753 1.367 . S
C752 C760 1.378 . S
C753 C752 1.367 . S
C753 C761 1.433 . S
C754 H750 0.929 . S
C754 C756 1.378 . S
C754 C758 1.350 . S
C755 C758 1.463 . S
C755 C760 1.350 . S
C755 N763 1.427 . S
C756 H747 0.930 . S
C756 C754 1.378 . S
C756 C757 1.367 . S
C757 C756 1.367 . S
C757 C759 1.433 . S
C758 C754 1.350 . S
C758 C755 1.463 . S
C758 N762 1.427 . S
C759 H749 0.929 . S
C759 C757 1.433 . S
C759 N762 1.384 . S
C760 H751 0.929 . S
C760 C752 1.378 . S
C760 C755 1.350 . S
C761 H748 0.929 . S
C761 C753 1.433 . S
C761 N763 1.384 . S
N762 C758 1.427 . S
N762 C759 1.384 . S
N763 C755 1.427 . S
N763 C761 1.384 . S
H764 C770 0.930 . S
H765 C774 0.930 . S
H766 C779 0.929 . S
H767 C777 0.929 . S
H768 C772 0.929 . S
H769 C778 0.929 . S
C770 H764 0.930 . S
C770 C771 1.367 . S
C770 C778 1.378 . S
C771 C770 1.367 . S
C771 C779 1.433 . S
C772 H768 0.929 . S
C772 C774 1.378 . S
C772 C776 1.350 . S
C773 C776 1.463 . S
C773 C778 1.350 . S
C773 N781 1.427 . S
C774 H765 0.930 . S
C774 C772 1.378 . S
C774 C775 1.367 . S
C775 C774 1.367 . S
C775 C777 1.433 . S
C776 C772 1.350 . S
C776 C773 1.463 . S
C776 N780 1.427 . S
C777 H767 0.929 . S
C777 C775 1.433 . S
C777 N780 1.384 . S
C778 H769 0.929 . S
C778 C770 1.378 . S
C778 C773 1.350 . S
C779 H766 0.929 . S
C779 C771 1.433 . S
C779 N781 1.384 . S
N780 C776 1.427 . S
N780 C777 1.384 . S
N781 C773 1.427 . S
N781 C779 1.384 . S
H782 C788 0.930 . S
H783 C792 0.930 . S
H784 C797 0.929 . S
H785 C795 0.929 . S
H786 C790 0.929 . S
H787 C796 0.929 . S
C788 H782 0.930 . S
C788 C789 1.367 . S
C788 C796 1.378 . S
C789 C788 1.367 . S
C789 C797 1.433 . S
C790 H786 0.929 . S
C790 C792 1.378 . S
C790 C794 1.350 . S
C791 C794 1.463 . S
C791 C796 1.350 . S
C791 N799 1.427 . S
C792 H783 0.930 . S
C792 C790 1.378 . S
C792 C793 1.367 . S
C793 C792 1.367 . S
C793 C795 1.433 . S
C794 C790 1.350 . S
C794 C791 1.463 . S
C794 N798 1.427 . S
C795 H785 0.929 . S
C795 C793 1.433 . S
C795 N798 1.384 . S
C796 H787 0.929 . S
C796 C788 1.378 . S
C796 C791 1.350 . S
C797 H784 0.929 . S
C797 C789 1.433 . S
C797 N799 1.384 . S
N798 C794 1.427 . S
N798 C795 1.384 . S
N799 C791 1.427 . S
N799 C797 1.384 . S
C231 C9 1.505 . S
C235 C179 1.488 . S
C249 C193 1.490 . S
C253 C23 1.505 . S
C267 C37 1.504 . S
C271 C207 1.496 . S
C285 C221 1.490 . S
C289 C51 1.506 . S
C303 C121 1.507 . S
C307 C67 1.489 . S
C321 C81 1.494 . S
C325 C135 1.505 . S
C339 C149 1.504 . S
C343 C95 1.492 . S
C357 C109 1.491 . S
C361 C163 1.506 . S
C375 C5 1.465 . S
C379 C33 1.464 . S
C393 C19 1.464 . S
C397 C47 1.465 . S
C411 C61 1.676 . S
C415 C89 1.674 . S
C429 C75 1.674 . S
C433 C103 1.675 . S
C447 C145 1.471 . S
C451 C117 1.473 . S
C465 C131 1.471 . S
C469 C159 1.468 . S
C483 C201 1.680 . S
C487 C173 1.681 . S
C501 C187 1.681 . S
C505 C215 1.681 . S
C519 C84 1.486 . S
C523 C0 1.486 . S
C537 C98 1.483 . S
C541 C14 1.491 . S
C555 C28 1.490 . S
C559 C56 1.482 . S
C573 C42 1.488 . S
C577 C70 1.479 . S
C591 C196 1.481 . S
C595 C112 1.483 . S
C609 C126 1.491 . S
C613 C210 1.486 . S
C627 C168 1.481 . S
C631 C140 1.483 . S
C645 C154 1.490 . S
C649 C182 1.487 . S
C663 C11 1.194 . S
C667 C53 1.201 . S
C681 C39 1.197 . S
C685 C25 1.201 . S
C699 C65 1.767 . S
C703 C107 1.770 . S
C717 C79 1.769 . S
C721 C93 1.768 . S
C735 C165 1.198 . S
C739 C123 1.192 . S
C753 C137 1.194 . S
C757 C151 1.194 . S
C771 C219 1.767 . S
C775 C177 1.770 . S
C789 C191 1.767 . S
C793 C205 1.770 . S
