# Generated by pormake.
# Topology uow, (4)-cn, num edge types: 1
# Building blocks:
#     Node 0, Type 0, BuildingBlock: TATPOV_clean_sbu_0, # of connection points: 4
#     Node 1, Type 0, BuildingBlock: TATPOV_clean_sbu_0, # of connection points: 4
#     Node 2, Type 0, BuildingBlock: TATPOV_clean_sbu_0, # of connection points: 4
#     Node 3, Type 0, BuildingBlock: TATPOV_clean_sbu_0, # of connection points: 4
#     Node 4, Type 0, BuildingBlock: TATPOV_clean_sbu_0, # of connection points: 4
#     Node 5, Type 0, BuildingBlock: TATPOV_clean_sbu_0, # of connection points: 4
#     Node 6, Type 0, BuildingBlock: TATPOV_clean_sbu_0, # of connection points: 4
#     Node 7, Type 0, BuildingBlock: TATPOV_clean_sbu_0, # of connection points: 4
#     Node 8, Type 0, BuildingBlock: TATPOV_clean_sbu_0, # of connection points: 4
#     Node 9, Type 0, BuildingBlock: TATPOV_clean_sbu_0, # of connection points: 4
#     Node 10, Type 0, BuildingBlock: TATPOV_clean_sbu_0, # of connection points: 4
#     Node 11, Type 0, BuildingBlock: TATPOV_clean_sbu_0, # of connection points: 4
#     Node 12, Type 0, BuildingBlock: TATPOV_clean_sbu_0, # of connection points: 4
#     Node 13, Type 0, BuildingBlock: TATPOV_clean_sbu_0, # of connection points: 4
#     Node 14, Type 0, BuildingBlock: TATPOV_clean_sbu_0, # of connection points: 4
#     Node 15, Type 0, BuildingBlock: TATPOV_clean_sbu_0, # of connection points: 4
#     Node 16, Type 0, BuildingBlock: TATPOV_clean_sbu_0, # of connection points: 4
#     Node 17, Type 0, BuildingBlock: TATPOV_clean_sbu_0, # of connection points: 4
#     Node 18, Type 0, BuildingBlock: TATPOV_clean_sbu_0, # of connection points: 4
#     Node 19, Type 0, BuildingBlock: TATPOV_clean_sbu_0, # of connection points: 4
#     Node 20, Type 0, BuildingBlock: TATPOV_clean_sbu_0, # of connection points: 4
#     Node 21, Type 0, BuildingBlock: TATPOV_clean_sbu_0, # of connection points: 4
#     Node 22, Type 0, BuildingBlock: TATPOV_clean_sbu_0, # of connection points: 4
#     Node 23, Type 0, BuildingBlock: TATPOV_clean_sbu_0, # of connection points: 4
#     Node 24, Type 0, BuildingBlock: TATPOV_clean_sbu_0, # of connection points: 4
#     Node 25, Type 0, BuildingBlock: TATPOV_clean_sbu_0, # of connection points: 4
#     Node 26, Type 0, BuildingBlock: TATPOV_clean_sbu_0, # of connection points: 4
#     Node 27, Type 0, BuildingBlock: TATPOV_clean_sbu_0, # of connection points: 4
#     Node 28, Type 0, BuildingBlock: TATPOV_clean_sbu_0, # of connection points: 4
#     Node 29, Type 0, BuildingBlock: TATPOV_clean_sbu_0, # of connection points: 4
#     Node 30, Type 0, BuildingBlock: TATPOV_clean_sbu_0, # of connection points: 4
#     Node 31, Type 0, BuildingBlock: TATPOV_clean_sbu_0, # of connection points: 4
#     Edge 32, Type (0, 0), BuildingBlock: OJICUG_clean_linker_0, # of connection points: 2
#     Edge 33, Type (0, 0), BuildingBlock: OJICUG_clean_linker_0, # of connection points: 2
#     Edge 34, Type (0, 0), BuildingBlock: OJICUG_clean_linker_0, # of connection points: 2
#     Edge 35, Type (0, 0), BuildingBlock: OJICUG_clean_linker_0, # of connection points: 2
#     Edge 36, Type (0, 0), BuildingBlock: OJICUG_clean_linker_0, # of connection points: 2
#     Edge 37, Type (0, 0), BuildingBlock: OJICUG_clean_linker_0, # of connection points: 2
#     Edge 38, Type (0, 0), BuildingBlock: OJICUG_clean_linker_0, # of connection points: 2
#     Edge 39, Type (0, 0), BuildingBlock: OJICUG_clean_linker_0, # of connection points: 2
#     Edge 40, Type (0, 0), BuildingBlock: OJICUG_clean_linker_0, # of connection points: 2
#     Edge 41, Type (0, 0), BuildingBlock: OJICUG_clean_linker_0, # of connection points: 2
#     Edge 42, Type (0, 0), BuildingBlock: OJICUG_clean_linker_0, # of connection points: 2
#     Edge 43, Type (0, 0), BuildingBlock: OJICUG_clean_linker_0, # of connection points: 2
#     Edge 44, Type (0, 0), BuildingBlock: OJICUG_clean_linker_0, # of connection points: 2
#     Edge 45, Type (0, 0), BuildingBlock: OJICUG_clean_linker_0, # of connection points: 2
#     Edge 46, Type (0, 0), BuildingBlock: OJICUG_clean_linker_0, # of connection points: 2
#     Edge 47, Type (0, 0), BuildingBlock: OJICUG_clean_linker_0, # of connection points: 2
#     Edge 48, Type (0, 0), BuildingBlock: OJICUG_clean_linker_0, # of connection points: 2
#     Edge 49, Type (0, 0), BuildingBlock: OJICUG_clean_linker_0, # of connection points: 2
#     Edge 50, Type (0, 0), BuildingBlock: OJICUG_clean_linker_0, # of connection points: 2
#     Edge 51, Type (0, 0), BuildingBlock: OJICUG_clean_linker_0, # of connection points: 2
#     Edge 52, Type (0, 0), BuildingBlock: OJICUG_clean_linker_0, # of connection points: 2
#     Edge 53, Type (0, 0), BuildingBlock: OJICUG_clean_linker_0, # of connection points: 2
#     Edge 54, Type (0, 0), BuildingBlock: OJICUG_clean_linker_0, # of connection points: 2
#     Edge 55, Type (0, 0), BuildingBlock: OJICUG_clean_linker_0, # of connection points: 2
#     Edge 56, Type (0, 0), BuildingBlock: OJICUG_clean_linker_0, # of connection points: 2
#     Edge 57, Type (0, 0), BuildingBlock: OJICUG_clean_linker_0, # of connection points: 2
#     Edge 58, Type (0, 0), BuildingBlock: OJICUG_clean_linker_0, # of connection points: 2
#     Edge 59, Type (0, 0), BuildingBlock: OJICUG_clean_linker_0, # of connection points: 2
#     Edge 60, Type (0, 0), BuildingBlock: OJICUG_clean_linker_0, # of connection points: 2
#     Edge 61, Type (0, 0), BuildingBlock: OJICUG_clean_linker_0, # of connection points: 2
#     Edge 62, Type (0, 0), BuildingBlock: OJICUG_clean_linker_0, # of connection points: 2
#     Edge 63, Type (0, 0), BuildingBlock: OJICUG_clean_linker_0, # of connection points: 2
#     Edge 64, Type (0, 0), BuildingBlock: OJICUG_clean_linker_0, # of connection points: 2
#     Edge 65, Type (0, 0), BuildingBlock: OJICUG_clean_linker_0, # of connection points: 2
#     Edge 66, Type (0, 0), BuildingBlock: OJICUG_clean_linker_0, # of connection points: 2
#     Edge 67, Type (0, 0), BuildingBlock: OJICUG_clean_linker_0, # of connection points: 2
#     Edge 68, Type (0, 0), BuildingBlock: OJICUG_clean_linker_0, # of connection points: 2
#     Edge 69, Type (0, 0), BuildingBlock: OJICUG_clean_linker_0, # of connection points: 2
#     Edge 70, Type (0, 0), BuildingBlock: OJICUG_clean_linker_0, # of connection points: 2
#     Edge 71, Type (0, 0), BuildingBlock: OJICUG_clean_linker_0, # of connection points: 2
#     Edge 72, Type (0, 0), BuildingBlock: OJICUG_clean_linker_0, # of connection points: 2
#     Edge 73, Type (0, 0), BuildingBlock: OJICUG_clean_linker_0, # of connection points: 2
#     Edge 74, Type (0, 0), BuildingBlock: OJICUG_clean_linker_0, # of connection points: 2
#     Edge 75, Type (0, 0), BuildingBlock: OJICUG_clean_linker_0, # of connection points: 2
#     Edge 76, Type (0, 0), BuildingBlock: OJICUG_clean_linker_0, # of connection points: 2
#     Edge 77, Type (0, 0), BuildingBlock: OJICUG_clean_linker_0, # of connection points: 2
#     Edge 78, Type (0, 0), BuildingBlock: OJICUG_clean_linker_0, # of connection points: 2
#     Edge 79, Type (0, 0), BuildingBlock: OJICUG_clean_linker_0, # of connection points: 2
#     Edge 80, Type (0, 0), BuildingBlock: OJICUG_clean_linker_0, # of connection points: 2
#     Edge 81, Type (0, 0), BuildingBlock: OJICUG_clean_linker_0, # of connection points: 2
#     Edge 82, Type (0, 0), BuildingBlock: OJICUG_clean_linker_0, # of connection points: 2
#     Edge 83, Type (0, 0), BuildingBlock: OJICUG_clean_linker_0, # of connection points: 2
#     Edge 84, Type (0, 0), BuildingBlock: OJICUG_clean_linker_0, # of connection points: 2
#     Edge 85, Type (0, 0), BuildingBlock: OJICUG_clean_linker_0, # of connection points: 2
#     Edge 86, Type (0, 0), BuildingBlock: OJICUG_clean_linker_0, # of connection points: 2
#     Edge 87, Type (0, 0), BuildingBlock: OJICUG_clean_linker_0, # of connection points: 2
#     Edge 88, Type (0, 0), BuildingBlock: OJICUG_clean_linker_0, # of connection points: 2
#     Edge 89, Type (0, 0), BuildingBlock: OJICUG_clean_linker_0, # of connection points: 2
#     Edge 90, Type (0, 0), BuildingBlock: OJICUG_clean_linker_0, # of connection points: 2
#     Edge 91, Type (0, 0), BuildingBlock: OJICUG_clean_linker_0, # of connection points: 2
#     Edge 92, Type (0, 0), BuildingBlock: OJICUG_clean_linker_0, # of connection points: 2
#     Edge 93, Type (0, 0), BuildingBlock: OJICUG_clean_linker_0, # of connection points: 2
#     Edge 94, Type (0, 0), BuildingBlock: OJICUG_clean_linker_0, # of connection points: 2
#     Edge 95, Type (0, 0), BuildingBlock: OJICUG_clean_linker_0, # of connection points: 2
# Relax obj value: 0.169
# Max RMSD: 0.205
# Mean RMSD: 0.205
data_MOF--net-uow--node1-TATPOV_clean_sbu_0--edge1-OJICUG_clean_linker_0
_symmetry_space_group_name_H-M    P1
_symmetry_Int_Tables_number       1
_symmetry_cell_setting            triclinic
loop_
_symmetry_equiv_pos_as_xyz
'x, y, z'
_cell_length_a     42.756069
_cell_length_b     42.746157
_cell_length_c     33.135098
_cell_angle_alpha  90.030335
_cell_angle_beta   89.967276
_cell_angle_gamma 88.555131
loop_
_atom_site_label
_atom_site_type_symbol
_atom_site_fract_x
_atom_site_fract_y
_atom_site_fract_z
_atom_type_partial_charge
Zn0 Zn 0.99715 0.33034 0.213 0.0
Zn1 Zn 0.03164 0.37862 0.20611 0.0
O2 O 0.98606 0.39378 0.21689 0.0
O3 O 0.95605 0.35362 0.20795 0.0
O4 O 0.05105 0.41983 0.19319 0.0
O5 O 0.01664 0.30927 0.16524 0.0
O6 O 0.04157 0.35294 0.1553 0.0
C7 C 0.95877 0.38252 0.21474 0.0
C8 C 0.04218 0.33714 0.27809 0.0
O9 O 0.05321 0.35878 0.25614 0.0
O10 O 0.01731 0.32373 0.26772 0.0
C11 C 0.05511 0.44101 0.21941 0.0
O12 O 0.05015 0.43463 0.25764 0.0
C13 C 0.03514 0.32528 0.14441 0.0
Zn14 Zn 0.93613 0.84116 0.52134 0.0
Zn15 Zn 0.88106 0.81998 0.51304 0.0
O16 O 0.90309 0.77886 0.52974 0.0
O17 O 0.95106 0.7964 0.53183 0.0
O18 O 0.83705 0.80914 0.49846 0.0
O19 O 0.94112 0.86072 0.46827 0.0
O20 O 0.89617 0.83807 0.45792 0.0
C21 C 0.93227 0.77407 0.53544 0.0
C22 C 0.89562 0.86623 0.58096 0.0
O23 O 0.87631 0.84811 0.56407 0.0
O24 O 0.92294 0.86846 0.56686 0.0
C25 C 0.81931 0.79079 0.51736 0.0
O26 O 0.82956 0.77684 0.55029 0.0
C27 C 0.91898 0.85398 0.44501 0.0
Zn28 Zn 0.43758 0.7114 0.7478 0.0
Zn29 Zn 0.46351 0.65439 0.74592 0.0
O30 O 0.49875 0.67627 0.77596 0.0
O31 O 0.47701 0.72351 0.77764 0.0
O32 O 0.47914 0.6105 0.73393 0.0
O33 O 0.43389 0.71689 0.68851 0.0
O34 O 0.45553 0.66967 0.68784 0.0
C35 C 0.49955 0.70491 0.78652 0.0
C36 C 0.40229 0.66754 0.79255 0.0
O37 O 0.42538 0.64943 0.78354 0.0
O38 O 0.40098 0.69509 0.77855 0.0
C39 C 0.47199 0.58675 0.75464 0.0
O40 O 0.4559 0.59075 0.78811 0.0
C41 C 0.44425 0.6934 0.66912 0.0
Zn42 Zn 0.59036 0.17195 -0.01023 0.0
Zn43 Zn 0.64741 0.19117 -0.00346 0.0
O44 O 0.6234 0.22986 0.01989 0.0
O45 O 0.5753 0.21343 0.01334 0.0
O46 O 0.69278 0.20332 -0.00482 0.0
O47 O 0.59113 0.16468 0.93112 0.0
O48 O 0.63914 0.18163 0.93601 0.0
C49 C 0.59399 0.23435 0.02442 0.0
C50 C 0.62557 0.13423 0.0445 0.0
O51 O 0.64627 0.15448 0.03724 0.0
O52 O 0.59982 0.1356 0.02573 0.0
C53 C 0.71237 0.18728 -0.02575 0.0
O54 O 0.70283 0.16234 0.95513 0.0
C55 C 0.61681 0.1712 0.91478 0.0
Zn56 Zn 1.00438 0.68632 0.22438 0.0
Zn57 Zn 0.03565 0.63526 0.20491 0.0
O58 O 0.98928 0.62911 0.19068 0.0
O59 O 0.96207 0.6666 0.22054 0.0
O60 O 0.05443 0.59167 0.20193 0.0
O61 O 0.02699 0.69222 0.27682 0.0
O62 O 0.04817 0.64613 0.26258 0.0
C63 C 0.96286 0.64201 0.19922 0.0
C64 C 0.04541 0.69069 0.15317 0.0
O65 O 0.05614 0.66358 0.1627 0.0
O66 O 0.0232 0.70342 0.17314 0.0
C67 C 0.04857 0.57109 0.17554 0.0
O68 O 0.0314 0.57892 0.14407 0.0
C69 C 0.04465 0.66928 0.28638 0.0
Zn70 Zn 0.5742 0.82299 0.42579 0.0
Zn71 Zn 0.63512 0.80779 0.42766 0.0
O72 O 0.6173 0.76623 0.40741 0.0
O73 O 0.56682 0.77785 0.40986 0.0
O74 O 0.68112 0.79921 0.43611 0.0
O75 O 0.57205 0.83618 0.48307 0.0
O76 O 0.6218 0.82167 0.48503 0.0
C77 C 0.58897 0.75828 0.40298 0.0
C78 C 0.61126 0.85972 0.37157 0.0
O79 O 0.63382 0.84225 0.38406 0.0
O80 O 0.58384 0.85601 0.38488 0.0
C81 C 0.69051 0.78328 0.46638 0.0
O82 O 0.66975 0.77051 0.49008 0.0
C83 C 0.59731 0.83264 0.50244 0.0
Zn84 Zn 0.43704 0.34113 0.672 0.0
Zn85 Zn 0.45283 0.40055 0.67584 0.0
O86 O 0.49524 0.38156 0.65782 0.0
O87 O 0.48283 0.33182 0.65874 0.0
O88 O 0.46012 0.44497 0.69193 0.0
O89 O 0.42101 0.33668 0.72773 0.0
O90 O 0.43614 0.38538 0.73053 0.0
C91 C 0.50289 0.35278 0.65322 0.0
C92 C 0.40476 0.38118 0.61415 0.0
O93 O 0.42194 0.40256 0.62815 0.0
O94 O 0.40653 0.35383 0.62877 0.0
C95 C 0.47987 0.46472 0.68027 0.0
O96 O 0.49935 0.45753 0.65083 0.0
C97 C 0.4243 0.36166 0.74739 0.0
Zn98 Zn 0.94494 0.27931 0.9243 0.0
Zn99 Zn 0.89749 0.24188 0.9212 0.0
O100 O 0.88095 0.28646 0.90612 0.0
O101 O 0.91887 0.31832 0.91996 0.0
O102 O 0.85682 0.21899 0.92544 0.0
O103 O 0.95706 0.26538 -0.02079 0.0
O104 O 0.91595 0.23536 -0.02204 0.0
C105 C 0.89097 0.31423 0.90903 0.0
C106 C 0.94965 0.23183 0.86073 0.0
O107 O 0.92497 0.22094 0.87659 0.0
O108 O 0.96123 0.25675 0.87428 0.0
C109 C 0.83844 0.23066 0.95204 0.0
O110 O 0.84778 0.25467 -0.02675 0.0
C111 C 0.93951 0.2461 -0.00369 0.0
Zn112 Zn 0.03246 0.70488 0.7124 0.0
Zn113 Zn 1.01344 0.64618 0.70502 0.0
O114 O 0.06111 0.64448 0.69675 0.0
O115 O 0.07823 0.69097 0.7122 0.0
O116 O 1.00248 0.60088 0.70644 0.0
O117 O 1.0074 0.71091 0.76383 0.0
O118 O 0.99621 0.66109 0.75911 0.0
C119 C 0.0838 0.66292 0.70152 0.0
C120 C 0.99277 0.69263 0.64216 0.0
O121 O 0.98937 0.66555 0.65725 0.0
O122 O 1.01063 0.71211 0.65867 0.0
C123 C 1.01369 0.58488 0.73563 0.0
O124 O 0.03212 0.59847 0.76169 0.0
C125 C 0.99421 0.68704 0.77779 0.0
Zn126 Zn 0.09687 0.18573 0.40683 0.0
Zn127 Zn 0.15417 0.20451 0.40402 0.0
O128 O 0.13069 0.24498 0.38623 0.0
O129 O 0.08213 0.22962 0.39166 0.0
O130 O 0.19931 0.21696 0.40729 0.0
O131 O 0.09712 0.17163 0.46322 0.0
O132 O 0.145 0.18936 0.46261 0.0
C133 C 0.10139 0.25074 0.38327 0.0
C134 C 0.13225 0.15381 0.34608 0.0
O135 O 0.15345 0.17234 0.3574 0.0
O136 O 0.10618 0.15404 0.36417 0.0
C137 C 0.21923 0.20129 0.42804 0.0
O138 O 0.21034 0.17606 0.44705 0.0
C139 C 0.12246 0.17667 0.48126 0.0
Zn140 Zn 0.49334 0.33052 0.19952 0.0
Zn141 Zn 0.52879 0.37928 0.18878 0.0
O142 O 0.48254 0.39228 0.17658 0.0
O143 O 0.45264 0.35378 0.1946 0.0
O144 O 0.54918 0.42143 0.18641 0.0
O145 O 0.51055 0.32298 0.25433 0.0
O146 O 0.54005 0.36401 0.24601 0.0
C147 C 0.4553 0.38124 0.1812 0.0
C148 C 0.53824 0.32442 0.13255 0.0
O149 O 0.54848 0.3506 0.1447 0.0
O150 O 0.5149 0.31239 0.14973 0.0
C151 C 0.54344 0.43986 0.15708 0.0
O152 O 0.5274 0.42952 0.12622 0.0
C153 C 0.53079 0.3414 0.26757 0.0
Zn154 Zn 0.43088 0.75001 0.93467 0.0
Zn155 Zn 0.38358 0.78336 0.94312 0.0
O156 O 0.37224 0.73789 0.92715 0.0
O157 O 0.41235 0.70803 0.94356 0.0
O158 O 0.34108 0.80147 0.95771 0.0
O159 O 0.45547 0.76998 -0.02234 0.0
O160 O 0.41104 0.79416 -0.0075 0.0
C161 C 0.38463 0.71054 0.93061 0.0
C162 C 0.42085 0.79439 0.86967 0.0
O163 O 0.40074 0.80659 0.89379 0.0
O164 O 0.43407 0.76834 0.87827 0.0
C165 C 0.33003 0.79148 -0.00917 0.0
O166 O 0.34732 0.77218 0.01279 0.0
C167 C 0.43992 0.78865 -0.00012 0.0
Zn168 Zn 0.92943 0.34155 0.72344 0.0
Zn169 Zn 0.94779 0.39908 0.73383 0.0
O170 O 0.98672 0.37428 0.7545 0.0
O171 O 0.97191 0.3261 0.74355 0.0
O172 O 0.96029 0.44394 0.73401 0.0
O173 O 0.92001 0.34607 0.66542 0.0
O174 O 0.93599 0.39418 0.67373 0.0
C175 C 0.99226 0.34487 0.75606 0.0
C176 C 0.89208 0.37573 0.78132 0.0
O177 O 0.91159 0.3972 0.77465 0.0
O178 O 0.89435 0.35018 0.76207 0.0
C179 C 0.97977 0.45598 0.75798 0.0
O180 O 0.9927 0.43865 0.78646 0.0
C181 C 0.92507 0.37287 0.65127 0.0
Zn182 Zn 0.45456 0.28846 0.46533 0.0
Zn183 Zn 0.40654 0.25378 0.47133 0.0
O184 O 0.39349 0.29997 0.48338 0.0
O185 O 0.43165 0.32977 0.4642 0.0
O186 O 0.36467 0.23317 0.47006 0.0
O187 O 0.46843 0.26806 0.41432 0.0
O188 O 0.42533 0.24121 0.41624 0.0
C189 C 0.40431 0.32723 0.47811 0.0
C190 C 0.45664 0.24568 0.53383 0.0
O191 O 0.43235 0.23418 0.51784 0.0
O192 O 0.46881 0.26975 0.51869 0.0
C193 C 0.34582 0.24461 0.44394 0.0
O194 O 0.3552 0.26759 0.42093 0.0
C195 C 0.45075 0.24813 0.39873 0.0
Zn196 Zn 0.49917 0.67336 0.23406 0.0
Zn197 Zn 0.53374 0.6279 0.22742 0.0
O198 O 0.48803 0.61612 0.24299 0.0
O199 O 0.45781 0.65462 0.22223 0.0
O200 O 0.55255 0.58489 0.2156 0.0
O201 O 0.51944 0.69894 0.19289 0.0
O202 O 0.54473 0.65526 0.17738 0.0
C203 C 0.46051 0.62767 0.23753 0.0
C204 C 0.54162 0.66613 0.30086 0.0
O205 O 0.55545 0.6468 0.27706 0.0
O206 O 0.51493 0.67755 0.29153 0.0
C207 C 0.54508 0.57317 0.18173 0.0
O208 O 0.52871 0.59059 0.15633 0.0
C209 C 0.53862 0.68417 0.17055 0.0
Zn210 Zn 0.0786 0.85163 0.02564 0.0
Zn211 Zn 0.13562 0.83268 0.02145 0.0
O212 O 0.11857 0.79165 0.04345 0.0
O213 O 0.06924 0.80771 0.04513 0.0
O214 O 0.18146 0.82486 0.01056 0.0
O215 O 0.07187 0.86311 -0.03109 0.0
O216 O 0.11919 0.84211 -0.03683 0.0
C217 C 0.08994 0.78635 0.05082 0.0
C218 C 0.11398 0.88537 0.08022 0.0
O219 O 0.13499 0.86599 0.06766 0.0
O220 O 0.08704 0.88544 0.06461 0.0
C221 C 0.20102 0.81511 0.0368 0.0
O222 O 0.19124 0.80904 0.07351 0.0
C223 C 0.09468 0.85442 0.9472 0.0
Zn224 Zn 0.57671 0.83045 0.75029 0.0
Zn225 Zn 0.56062 0.89085 0.74539 0.0
O226 O 0.51853 0.87394 0.76459 0.0
O227 O 0.53102 0.82358 0.76432 0.0
O228 O 0.55346 0.93678 0.7349 0.0
O229 O 0.59122 0.82634 0.69375 0.0
O230 O 0.57492 0.87545 0.68895 0.0
C231 C 0.51092 0.84556 0.76951 0.0
C232 C 0.61087 0.86857 0.80537 0.0
O233 O 0.59342 0.89047 0.79111 0.0
O234 O 0.60842 0.84086 0.79247 0.0
C235 C 0.54002 0.94672 0.70297 0.0
O236 O 0.52807 0.92649 0.67781 0.0
C237 C 0.5867 0.85073 0.67289 0.0
Zn238 Zn 0.43229 0.34451 -0.00646 0.0
Zn239 Zn 0.37377 0.32823 -0.00594 0.0
O240 O 0.39458 0.28677 0.01405 0.0
O241 O 0.44391 0.30025 0.01049 0.0
O242 O 0.32805 0.31921 -0.01457 0.0
O243 O 0.43495 0.35725 0.9368 0.0
O244 O 0.38619 0.34199 0.93621 0.0
C245 C 0.42363 0.27995 0.0182 0.0
C246 C 0.39574 0.37994 0.05026 0.0
O247 O 0.37412 0.36179 0.03917 0.0
O248 O 0.42246 0.37768 0.03398 0.0
C249 C 0.32099 0.30395 0.95388 0.0
O250 O 0.34361 0.29282 0.93073 0.0
C251 C 0.40978 0.35298 0.91801 0.0
Zn252 Zn 0.02473 0.2111 0.21739 0.0
Zn253 Zn 0.99219 0.1618 0.22109 0.0
O254 O 0.03896 0.14919 0.22878 0.0
O255 O 0.06643 0.18935 0.21052 0.0
O256 O 0.97333 0.11896 0.21827 0.0
O257 O 1.00125 0.22732 0.1697 0.0
O258 O 0.97853 0.18184 0.16736 0.0
C259 C 0.06547 0.16114 0.22176 0.0
C260 C 0.98463 0.20979 0.28727 0.0
O261 O 0.97295 0.18624 0.26959 0.0
O262 O 1.00866 0.22246 0.27285 0.0
C263 C 0.98061 0.10408 0.18618 0.0
O264 O 0.99734 0.1182 0.15868 0.0
C265 C 0.98294 0.2088 0.15248 0.0
Zn266 Zn 0.10309 0.67366 0.51977 0.0
Zn267 Zn 0.14988 0.70371 0.50274 0.0
O268 O 0.12904 0.7434 0.52426 0.0
O269 O 0.08776 0.71648 0.54134 0.0
O270 O 0.19156 0.71354 0.47838 0.0
O271 O 0.08763 0.65851 0.46792 0.0
O272 O 0.12606 0.6891 0.45107 0.0
C273 C 0.10198 0.74225 0.54013 0.0
C274 C 0.14752 0.65365 0.57147 0.0
O275 O 0.15971 0.67728 0.55463 0.0
O276 O 0.12315 0.64253 0.55627 0.0
C277 C 0.21394 0.7287 0.49331 0.0
O278 O 0.21105 0.74078 0.52963 0.0
C279 C 0.1034 0.6718 0.44113 0.0
Zn280 Zn 0.61124 0.19173 0.66638 0.0
Zn281 Zn 0.58878 0.13531 0.66477 0.0
O282 O 0.54949 0.15911 0.64496 0.0
O283 O 0.56808 0.20666 0.64733 0.0
O284 O 0.57608 0.09099 0.67385 0.0
O285 O 0.62284 0.19313 0.72421 0.0
O286 O 0.60289 0.14626 0.72262 0.0
C287 C 0.54581 0.18848 0.63967 0.0
C288 C 0.642 0.15255 0.60798 0.0
O289 O 0.62143 0.1332 0.61893 0.0
O290 O 0.64382 0.17857 0.62599 0.0
C291 C 0.55665 0.07498 0.65417 0.0
O292 O 0.54268 0.08718 0.62236 0.0
C293 C 0.61561 0.1683 0.74212 0.0
Zn294 Zn 0.07883 0.23617 0.92612 0.0
Zn295 Zn 0.1284 0.2726 0.92546 0.0
O296 O 0.14319 0.22707 0.91373 0.0
O297 O 0.10379 0.19606 0.92306 0.0
O298 O 0.17001 0.29335 0.93138 0.0
O299 O 0.06601 0.25231 -0.01973 0.0
O300 O 0.10746 0.28193 -0.02033 0.0
C301 C 0.13241 0.19955 0.91513 0.0
C302 C 0.07916 0.28402 0.86195 0.0
O303 O 0.10389 0.29375 0.87885 0.0
O304 O 0.06586 0.25984 0.8751 0.0
C305 C 0.19222 0.28576 0.90751 0.0
O306 O 0.18624 0.26798 0.87623 0.0
C307 C 0.08294 0.27236 -0.00298 0.0
Zn308 Zn 1.007 0.85585 0.22565 0.0
Zn309 Zn 0.9794 0.90928 0.21015 0.0
O310 O 0.02696 0.91347 0.20218 0.0
O311 O 0.05059 0.87275 0.2297 0.0
O312 O 0.9646 0.95416 0.2048 0.0
O313 O 0.97982 0.84866 0.27392 0.0
O314 O 0.96255 0.8972 0.2659 0.0
C315 C 0.05221 0.89884 0.21188 0.0
C316 C 0.97088 0.85763 0.15102 0.0
O317 O 0.96034 0.88409 0.16344 0.0
O318 O 0.99179 0.84272 0.17074 0.0
C319 C 0.97278 0.97008 0.1744 0.0
O320 O 0.98806 0.95588 0.14492 0.0
C321 C 0.96319 0.87174 0.28581 0.0
Zn322 Zn 0.45907 0.68817 0.41717 0.0
Zn323 Zn 0.40176 0.71272 0.41874 0.0
O324 O 0.42305 0.74833 0.38834 0.0
O325 O 0.4706 0.72738 0.38673 0.0
O326 O 0.35783 0.72792 0.43147 0.0
O327 O 0.46524 0.68517 0.47627 0.0
O328 O 0.41744 0.70538 0.47691 0.0
C329 C 0.45167 0.74961 0.37779 0.0
C330 C 0.41586 0.65115 0.37358 0.0
O331 O 0.39716 0.67401 0.38172 0.0
O332 O 0.44341 0.65085 0.38756 0.0
C333 C 0.33339 0.72062 0.41223 0.0
O334 O 0.3362 0.70403 0.37898 0.0
C335 C 0.44154 0.69495 0.49566 0.0
Zn336 Zn 0.52694 0.18637 0.17958 0.0
Zn337 Zn 0.49145 0.14048 0.18408 0.0
O338 O 0.5368 0.12466 0.16998 0.0
O339 O 0.56788 0.16346 0.18191 0.0
O340 O 0.47101 0.09858 0.18906 0.0
O341 O 0.51038 0.20525 0.22967 0.0
O342 O 0.48355 0.16261 0.23896 0.0
C343 C 0.56443 0.13514 0.17256 0.0
C344 C 0.48074 0.18698 0.11676 0.0
O345 O 0.46925 0.16498 0.13765 0.0
O346 O 0.50689 0.1981 0.12638 0.0
C347 C 0.47194 0.08129 0.15783 0.0
O348 O 0.48182 0.09331 0.12377 0.0
C349 C 0.49228 0.18932 0.25113 0.0
Zn350 Zn 0.58913 0.79448 -0.02315 0.0
Zn351 Zn 0.63496 0.75623 -0.03596 0.0
O352 O 0.64421 0.802 0.94706 0.0
O353 O 0.61035 0.83543 -0.0269 0.0
O354 O 0.67775 0.73471 -0.0346 0.0
O355 O 0.57708 0.77723 0.02978 0.0
O356 O 0.6158 0.74351 0.01895 0.0
C357 C 0.63452 0.83025 0.95197 0.0
C358 C 0.58359 0.75099 0.90669 0.0
O359 O 0.60892 0.73773 0.91879 0.0
O360 O 0.57237 0.77479 0.92519 0.0
C361 C 0.70066 0.74483 0.94514 0.0
O362 O 0.6958 0.76789 0.91958 0.0
C363 C 0.59309 0.7535 0.04072 0.0
Zn364 Zn 1.00752 0.82442 0.72758 0.0
Zn365 Zn 0.02987 0.88013 0.70692 0.0
O366 O 0.9822 0.88382 0.70114 0.0
O367 O 0.96262 0.84122 0.72683 0.0
O368 O 0.04377 0.92401 0.69809 0.0
O369 O 0.03404 0.8238 0.77829 0.0
O370 O 0.04726 0.8718 0.76308 0.0
C371 C 0.95852 0.86788 0.71071 0.0
C372 C 0.04469 0.82522 0.6531 0.0
O373 O 0.0506 0.85336 0.66247 0.0
O374 O 0.02641 0.80931 0.67462 0.0
C375 C 0.03024 0.94379 0.67496 0.0
O376 O 1.0067 0.93504 0.65252 0.0
C377 C 0.04838 0.84848 0.78686 0.0
Zn378 Zn 0.93576 0.37082 0.40492 0.0
Zn379 Zn 0.87801 0.3513 0.40507 0.0
O380 O 0.89988 0.30994 0.3887 0.0
O381 O 0.94848 0.32577 0.39078 0.0
O382 O 0.8329 0.3409 0.41427 0.0
O383 O 0.93758 0.38551 0.46152 0.0
O384 O 0.89014 0.36692 0.46182 0.0
C385 C 0.92911 0.30423 0.38478 0.0
C386 C 0.89844 0.4002 0.34369 0.0
O387 O 0.87785 0.38165 0.35675 0.0
O388 O 0.92466 0.40141 0.36127 0.0
C389 C 0.82706 0.32419 0.44497 0.0
O390 O 0.85051 0.31317 0.46678 0.0
C391 C 0.91274 0.37955 0.48025 0.0
Zn392 Zn 0.54331 0.84736 0.19466 0.0
Zn393 Zn 0.5028 0.89007 0.20726 0.0
O394 O 0.54709 0.90024 0.22891 0.0
O395 O 0.58316 0.86994 0.20161 0.0
O396 O 0.48148 0.93308 0.20513 0.0
O397 O 0.5299 0.83416 0.14055 0.0
O398 O 0.4926 0.86928 0.15213 0.0
C399 C 0.57593 0.89227 0.22503 0.0
C400 C 0.49757 0.83808 0.2624 0.0
O401 O 0.4835 0.86319 0.25092 0.0
O402 O 0.52233 0.82853 0.24447 0.0
C403 C 0.48267 0.9474 0.17149 0.0
O404 O 0.49548 0.93289 0.14042 0.0
C405 C 0.50484 0.84798 0.1298 0.0
Zn406 Zn 0.95203 0.70317 0.01488 0.0
Zn407 Zn 0.8935 0.71802 0.00284 0.0
O408 O 0.90831 0.75928 0.02788 0.0
O409 O 0.95841 0.74722 0.03464 0.0
O410 O 0.84847 0.72731 -0.01263 0.0
O411 O 0.96239 0.69176 0.95916 0.0
O412 O 0.91383 0.7075 0.94677 0.0
C413 C 0.93583 0.76682 0.03817 0.0
C414 C 0.91271 0.6658 0.06248 0.0
O415 O 0.89136 0.68342 0.04711 0.0
O416 O 0.94095 0.66912 0.05246 0.0
C417 C 0.8268 0.70756 -0.00978 0.0
O418 O 0.83326 0.6796 0.0049 0.0
C419 C 0.94043 0.69705 0.93456 0.0
Zn420 Zn 0.10633 0.18584 0.72977 0.0
Zn421 Zn 0.08806 0.12777 0.72742 0.0
O422 O 0.04774 0.14904 0.74969 0.0
O423 O 0.06242 0.19802 0.74894 0.0
O424 O 0.07699 0.08289 0.71992 0.0
O425 O 0.11824 0.18851 0.67222 0.0
O426 O 0.10184 0.14016 0.66971 0.0
C427 C 0.04179 0.17795 0.75618 0.0
C428 C 0.14084 0.1459 0.78397 0.0
O429 O 0.12192 0.12554 0.77137 0.0
O430 O 0.13965 0.17329 0.76943 0.0
C431 C 0.05903 0.07448 0.69158 0.0
O432 O 0.04667 0.09579 0.66744 0.0
C433 C 0.11345 0.16387 0.6524 0.0
Zn434 Zn 0.58596 0.25746 0.48304 0.0
Zn435 Zn 0.63501 0.28916 0.47853 0.0
O436 O 0.64775 0.24233 0.48659 0.0
O437 O 0.60614 0.21527 0.47391 0.0
O438 O 0.6771 0.30827 0.4708 0.0
O439 O 0.56607 0.28077 0.43747 0.0
O440 O 0.61157 0.30207 0.42677 0.0
C441 C 0.635 0.21591 0.48191 0.0
C442 C 0.5929 0.2987 0.55055 0.0
O443 O 0.61441 0.30999 0.52868 0.0
O444 O 0.57938 0.27406 0.53959 0.0
C445 C 0.69997 0.29928 0.49275 0.0
O446 O 0.69485 0.28004 0.52283 0.0
C447 C 0.5832 0.29824 0.41664 0.0
C448 C 0.04486 0.27989 0.09868 0.0
C449 C 0.04929 0.31155 0.10774 0.0
H450 H 0.05167 0.24279 0.05613 0.0
C451 C 0.06716 0.32971 0.08144 0.0
H452 H 0.03246 0.26494 0.11915 0.0
C453 C 0.0793 0.31661 0.04595 0.0
C454 C 0.07325 0.28541 0.03607 0.0
H455 H 0.07131 0.35409 0.08789 0.0
H456 H 0.09239 0.33116 0.02557 0.0
C457 C 0.05622 0.26707 0.06287 0.0
C458 C 0.94504 0.89443 0.3511 0.0
C459 C 0.94592 0.8693 0.3239 0.0
H460 H 0.93565 0.909 0.41189 0.0
C461 C 0.9328 0.84075 0.33499 0.0
H462 H 0.95506 0.91662 0.34311 0.0
C463 C 0.92069 0.83678 0.37372 0.0
C464 C 0.92248 0.86101 0.40205 0.0
H465 H 0.93306 0.82115 0.31423 0.0
H466 H 0.91237 0.81403 0.38247 0.0
C467 C 0.93388 0.89013 0.39023 0.0
C468 C 0.46336 0.67354 0.60259 0.0
C469 C 0.44328 0.69353 0.62478 0.0
H470 H 0.47878 0.65865 0.54411 0.0
C471 C 0.42236 0.71377 0.60426 0.0
H472 H 0.47976 0.65777 0.6177 0.0
C473 C 0.42145 0.71392 0.56219 0.0
C474 C 0.44188 0.69429 0.54001 0.0
H475 H 0.40651 0.72931 0.6207 0.0
H476 H 0.40509 0.72973 0.54707 0.0
C477 C 0.46288 0.67414 0.56054 0.0
C478 C 0.63933 0.18635 0.80671 0.0
C479 C 0.61941 0.16607 0.78615 0.0
H480 H 0.65461 0.20344 0.86406 0.0
C481 C 0.60113 0.14539 0.80833 0.0
H482 H 0.65385 0.20237 0.79025 0.0
C483 C 0.60121 0.14639 0.85033 0.0
C484 C 0.62001 0.16765 0.87087 0.0
H485 H 0.58561 0.12948 0.7933 0.0
H486 H 0.58593 0.13104 0.86673 0.0
C487 C 0.63986 0.18691 0.84884 0.0
C488 C 0.07353 0.69757 0.33976 0.0
C489 C 0.06181 0.66951 0.32466 0.0
H490 H 0.09738 0.7199 0.38837 0.0
C491 C 0.06665 0.64164 0.34635 0.0
H492 H 0.07033 0.71926 0.32319 0.0
C493 C 0.0815 0.64214 0.3838 0.0
C494 C 0.09267 0.67029 0.39926 0.0
H495 H 0.05789 0.61973 0.3351 0.0
H496 H 0.08368 0.62068 0.40108 0.0
C497 C 0.08931 0.69787 0.37661 0.0
C498 C 0.6175 0.82337 0.57201 0.0
C499 C 0.59771 0.84018 0.54566 0.0
H500 H 0.62925 0.81344 0.63354 0.0
C501 C 0.57663 0.86285 0.56126 0.0
H502 H 0.63396 0.8058 0.56063 0.0
C503 C 0.57441 0.86771 0.60277 0.0
C504 C 0.59272 0.84941 0.62928 0.0
H505 H 0.56133 0.87632 0.5414 0.0
H506 H 0.55723 0.88457 0.61414 0.0
C507 C 0.61474 0.82768 0.6136 0.0
C508 C 0.42819 0.38143 0.8577 0.0
C509 C 0.40901 0.35864 0.87443 0.0
H510 H 0.44754 0.40066 0.80399 0.0
C511 C 0.39207 0.33911 0.84892 0.0
H512 H 0.44131 0.39688 0.87691 0.0
C513 C 0.39614 0.34081 0.8072 0.0
C514 C 0.41663 0.36254 0.79058 0.0
H515 H 0.3772 0.32132 0.86125 0.0
H516 H 0.38402 0.32452 0.78807 0.0
C517 C 0.4317 0.38361 0.81605 0.0
C518 C 0.95847 0.25891 0.06444 0.0
C519 C 0.94659 0.23673 0.03781 0.0
H520 H 0.97739 0.26769 0.12261 0.0
C521 C 0.94354 0.20564 0.05047 0.0
H522 H 0.96042 0.28317 0.0555 0.0
C523 C 0.9544 0.19645 0.08858 0.0
C524 C 0.96786 0.21845 0.11444 0.0
H525 H 0.93427 0.18824 0.03025 0.0
H526 H 0.95331 0.17205 0.09713 0.0
C527 C 0.96846 0.24996 0.10267 0.0
C528 C 0.96369 0.71774 0.82935 0.0
C529 C 0.97668 0.68904 0.81597 0.0
H530 H 0.94038 0.7424 0.87765 0.0
C531 C 0.97342 0.66219 0.83985 0.0
H532 H 0.96562 0.7387 0.81124 0.0
C533 C 0.95934 0.66444 0.87772 0.0
C534 C 0.94744 0.69331 0.89166 0.0
H535 H 0.98315 0.63976 0.83018 0.0
H536 H 0.95894 0.64391 0.89688 0.0
C537 C 0.94885 0.71979 0.86689 0.0
C538 C 0.10524 0.14703 0.54152 0.0
C539 C 0.1245 0.16977 0.52463 0.0
H540 H 0.0871 0.1269 0.59552 0.0
C541 C 0.14289 0.18799 0.55002 0.0
H542 H 0.09103 0.13249 0.52245 0.0
C543 C 0.14022 0.18516 0.59183 0.0
C544 C 0.11961 0.16363 0.60873 0.0
H545 H 0.15791 0.20566 0.53769 0.0
H546 H 0.15354 0.20052 0.61091 0.0
C547 C 0.10304 0.14376 0.58327 0.0
C548 C 0.58905 0.32743 0.35136 0.0
C549 C 0.56992 0.31344 0.38041 0.0
H550 H 0.59131 0.34792 0.29226 0.0
C551 C 0.53751 0.31274 0.37391 0.0
H552 H 0.61408 0.32863 0.35586 0.0
C553 C 0.52472 0.32331 0.33774 0.0
C554 C 0.54399 0.33547 0.30771 0.0
H555 H 0.52203 0.30303 0.39626 0.0
H556 H 0.49981 0.32114 0.33279 0.0
C557 C 0.57607 0.33857 0.31518 0.0
C558 C 0.45569 0.84031 0.09032 0.0
C559 C 0.48831 0.83644 0.09403 0.0
H560 H 0.4145 0.82773 0.05778 0.0
C561 C 0.50476 0.81811 0.06563 0.0
H562 H 0.44242 0.85424 0.11198 0.0
C563 C 0.48889 0.80261 0.03532 0.0
C564 C 0.45615 0.80535 0.03238 0.0
H565 H 0.52994 0.81527 0.06728 0.0
H566 H 0.50242 0.78833 0.01429 0.0
C567 C 0.4397 0.82486 0.05966 0.0
C568 C 0.9371 0.3994 0.58629 0.0
C569 C 0.9187 0.37883 0.60844 0.0
H570 H 0.94962 0.41578 0.52755 0.0
C571 C 0.89539 0.36205 0.58875 0.0
H572 H 0.9551 0.41269 0.60096 0.0
C573 C 0.89177 0.3643 0.54711 0.0
C574 C 0.9119 0.38283 0.52441 0.0
H575 H 0.88059 0.34639 0.6054 0.0
H576 H 0.87453 0.34998 0.53256 0.0
C577 C 0.93395 0.40114 0.54441 0.0
C578 C 0.49848 0.22707 0.3069 0.0
C579 C 0.48162 0.20264 0.28987 0.0
H580 H 0.50205 0.26011 0.35428 0.0
C581 C 0.45429 0.19272 0.30906 0.0
H582 H 0.51979 0.23515 0.29303 0.0
C583 C 0.44374 0.20764 0.34441 0.0
C584 C 0.46063 0.23236 0.36106 0.0
H585 H 0.4408 0.17401 0.29638 0.0
H586 H 0.4225 0.19983 0.35865 0.0
C587 C 0.48822 0.24159 0.34205 0.0
C588 C 0.54942 0.73399 0.13526 0.0
C589 C 0.5545 0.70145 0.13821 0.0
H590 H 0.55864 0.77591 0.1032 0.0
C591 C 0.57505 0.68643 0.11085 0.0
H592 H 0.53423 0.74652 0.15625 0.0
C593 C 0.58919 0.7036 0.0801 0.0
C594 C 0.5829 0.73594 0.0764 0.0
H595 H 0.57969 0.66145 0.11269 0.0
H596 H 0.60398 0.69141 0.05835 0.0
C597 C 0.56349 0.75098 0.10485 0.0
C598 C 0.06609 0.8798 0.84545 0.0
C599 C 0.06513 0.85089 0.82543 0.0
H600 H 0.07645 0.90349 0.90069 0.0
C601 C 0.07863 0.82416 0.84367 0.0
H602 H 0.05583 0.90074 0.83196 0.0
C603 C 0.09151 0.82605 0.88231 0.0
C604 C 0.0902 0.85448 0.90345 0.0
H605 H 0.07838 0.80168 0.82858 0.0
H606 H 0.10028 0.80487 0.8968 0.0
C607 C 0.07804 0.88146 0.88452 0.0
C608 C 0.09221 0.31791 0.30983 0.0
C609 C 0.05979 0.32379 0.31259 0.0
H610 H 0.13128 0.28978 0.3307 0.0
C611 C 0.04313 0.31053 0.34454 0.0
H612 H 0.10556 0.32773 0.28532 0.0
C613 C 0.05777 0.28905 0.37045 0.0
C614 C 0.08927 0.28013 0.3647 0.0
H615 H 0.01819 0.31502 0.34757 0.0
H616 H 0.04387 0.27765 0.39317 0.0
C617 C 0.1069 0.29612 0.33576 0.0
C618 C 0.88712 0.85332 0.65182 0.0
C619 C 0.89121 0.87683 0.62285 0.0
H620 H 0.90635 0.83186 0.70481 0.0
C621 C 0.90661 0.90406 0.6344 0.0
H622 H 0.87463 0.83238 0.64415 0.0
C623 C 0.9251 0.90376 0.66913 0.0
C624 C 0.92785 0.87631 0.69236 0.0
H625 H 0.90932 0.92297 0.613 0.0
H626 H 0.94085 0.92288 0.67384 0.0
C627 C 0.90574 0.85288 0.68654 0.0
C628 C 0.35143 0.69261 0.87445 0.0
C629 C 0.37282 0.68479 0.90528 0.0
H630 H 0.34398 0.69167 0.81072 0.0
C631 C 0.39207 0.65787 0.9001 0.0
H632 H 0.33494 0.71207 0.87805 0.0
C633 C 0.39718 0.64599 0.86125 0.0
C634 C 0.38276 0.66106 0.82823 0.0
H635 H 0.40764 0.65 0.92402 0.0
H636 H 0.41654 0.62952 0.85671 0.0
C637 C 0.35659 0.68082 0.83561 0.0
C638 C 0.60264 0.09437 0.08852 0.0
C639 C 0.62611 0.11644 0.08271 0.0
H640 H 0.56308 0.08288 0.12446 0.0
C641 C 0.6381 0.13149 0.11682 0.0
H642 H 0.594 0.08112 0.06315 0.0
C643 C 0.62031 0.13257 0.1522 0.0
C644 C 0.59103 0.11824 0.1531 0.0
H645 H 0.65725 0.14748 0.11395 0.0
H646 H 0.62669 0.14901 0.17551 0.0
C647 C 0.58472 0.09553 0.12378 0.0
C648 C 0.0907 0.71362 0.11635 0.0
C649 C 0.05844 0.70872 0.11959 0.0
H650 H 0.12636 0.74256 0.0916 0.0
C651 C 0.03767 0.72588 0.0949 0.0
H652 H 0.1071 0.70074 0.13538 0.0
C653 C 0.04853 0.7494 0.06995 0.0
C654 C 0.08037 0.75666 0.06955 0.0
H655 H 1.01268 0.72231 0.09662 0.0
H656 H 0.03168 0.76309 0.05268 0.0
C657 C 0.10165 0.73759 0.09146 0.0
C658 C 0.58526 0.91535 0.29241 0.0
C659 C 0.59747 0.89912 0.25877 0.0
H660 H 0.5803 0.91481 0.3566 0.0
C661 C 0.62412 0.8795 0.26434 0.0
H662 H 0.56558 0.93163 0.28915 0.0
C663 C 0.63267 0.8699 0.30325 0.0
C664 C 0.61491 0.8804 0.33642 0.0
H665 H 0.63496 0.8675 0.23894 0.0
H666 H 0.6498 0.85097 0.30658 0.0
C667 C 0.59359 0.9056 0.33119 0.0
C668 C 0.36589 0.34849 0.52781 0.0
C669 C 0.39009 0.35414 0.50026 0.0
H670 H 0.3507 0.35499 0.58871 0.0
C671 C 0.40776 0.38122 0.50547 0.0
H672 H 0.35081 0.32873 0.52385 0.0
C673 C 0.4075 0.39648 0.5428 0.0
C674 C 0.38959 0.38448 0.57445 0.0
H675 H 0.42565 0.3872 0.48384 0.0
H676 H 0.42547 0.41329 0.5488 0.0
C677 C 0.36566 0.36374 0.56507 0.0
C678 C 0.99741 0.16998 0.80495 0.0
C679 C 1.01233 0.18858 0.77605 0.0
H680 H 0.96498 0.16924 0.85467 0.0
C681 C 1.00176 0.21959 0.77065 0.0
H682 H 1.00506 0.14592 0.80974 0.0
C683 C 0.97945 0.23299 0.79655 0.0
C684 C 0.96655 0.21533 0.82781 0.0
H685 H 1.01218 0.23395 0.74768 0.0
H686 H 0.97345 0.25765 0.79345 0.0
C687 C 0.9745 0.18329 0.83064 0.0
C688 C 0.94234 0.70885 0.61024 0.0
C689 C 0.9747 0.70316 0.60686 0.0
H690 H 0.90285 0.73602 0.58889 0.0
C691 C 0.99081 0.71499 0.57365 0.0
H692 H 0.92958 0.70009 0.63595 0.0
C693 C 0.97567 0.73548 0.54686 0.0
C694 C 0.94427 0.74449 0.55315 0.0
H695 H 0.01571 0.71039 0.57045 0.0
H696 H 0.98916 0.74638 0.52329 0.0
C697 C 0.9271 0.72941 0.58333 0.0
C698 C 0.09159 0.11981 0.26345 0.0
C699 C 0.09428 0.14594 0.23807 0.0
H700 H 0.10507 0.10011 0.32021 0.0
C701 C 0.12186 0.16319 0.24003 0.0
H702 H 0.07141 0.10504 0.26158 0.0
C703 C 0.14143 0.16003 0.27364 0.0
C704 C 0.1328 0.14015 0.30523 0.0
H705 H 0.12551 0.18256 0.21963 0.0
H706 H 0.15898 0.17752 0.27833 0.0
C707 C 0.1112 0.11672 0.29698 0.0
C708 C 0.6 0.28101 0.07056 0.0
C709 C 0.58109 0.26222 0.04618 0.0
H710 H 0.60113 0.31622 0.11703 0.0
C711 C 0.54859 0.26792 0.04634 0.0
H712 H 0.62514 0.27731 0.07103 0.0
C713 C 0.53496 0.28953 0.07295 0.0
C714 C 0.55356 0.30671 0.09937 0.0
H715 H 0.53348 0.25457 0.0271 0.0
H716 H 0.50967 0.29197 0.0739 0.0
C717 C 0.58629 0.30329 0.09684 0.0
C718 C 0.44469 0.79573 0.80163 0.0
C719 C 0.43385 0.81217 0.83573 0.0
H720 H 0.47743 0.79412 0.7528 0.0
C721 C 0.44308 0.84316 0.84159 0.0
H722 H 0.4376 0.77193 0.79629 0.0
C723 C 0.46615 0.85586 0.81682 0.0
C724 C 0.48005 0.8376 0.78606 0.0
H725 H 0.43517 0.85625 0.86785 0.0
H726 H 0.4753 0.87852 0.82439 0.0
C727 C 0.46753 0.8084 0.77688 0.0
C728 C 0.88792 0.3701 0.88892 0.0
C729 C 0.87412 0.34054 0.88905 0.0
H730 H 0.90324 0.4073 0.85148 0.0
C731 C 0.85229 0.33386 0.85881 0.0
H732 H 0.90358 0.37673 0.91298 0.0
C733 C 0.85178 0.35178 0.82359 0.0
C734 C 0.87356 0.37565 0.81887 0.0
H735 H 0.84001 0.312 0.85893 0.0
H736 H 0.83935 0.34293 0.79766 0.0
C737 C 0.88751 0.38789 0.85359 0.0
C738 C 0.51155 0.23408 0.6211 0.0
C739 C 0.51729 0.20164 0.62002 0.0
H740 H 0.48768 0.27351 0.59463 0.0
C741 C 0.49834 0.18311 0.59542 0.0
H742 H 0.52509 0.24873 0.64065 0.0
C743 C 0.4762 0.19726 0.56951 0.0
C744 C 0.47304 0.23004 0.56772 0.0
H745 H 0.50213 0.15798 0.59405 0.0
H746 H 0.46346 0.18275 0.54871 0.0
C747 C 0.48995 0.2482 0.59497 0.0
C748 C 0.60065 0.71344 0.35597 0.0
C749 C 0.58125 0.72762 0.38538 0.0
H750 H 0.60318 0.68167 0.30578 0.0
C751 C 0.55173 0.71515 0.39282 0.0
H752 H 0.62359 0.7225 0.34975 0.0
C753 C 0.54019 0.6918 0.36791 0.0
C754 C 0.55796 0.68046 0.33517 0.0
H755 H 0.53653 0.7252 0.41585 0.0
H756 H 0.51633 0.68449 0.3721 0.0
C757 C 0.58903 0.68994 0.33093 0.0
C758 C 0.12367 0.88121 0.15299 0.0
C759 C 0.11645 0.9006 0.11992 0.0
H760 H 0.10826 0.86578 0.21084 0.0
C761 C 0.09813 0.92786 0.12658 0.0
H762 H 0.13833 0.86038 0.14902 0.0
C763 C 0.08071 0.93101 0.16209 0.0
C764 C 0.08158 0.90676 0.19079 0.0
H765 H 0.09287 0.94368 0.10181 0.0
H766 H 0.06298 0.94953 0.1637 0.0
C767 C 0.10607 0.88418 0.18847 0.0
C768 C 0.6624 0.84393 0.88904 0.0
C769 C 0.64281 0.85367 0.92099 0.0
H770 H 0.66701 0.84132 0.82486 0.0
C771 C 0.62218 0.87942 0.91449 0.0
H772 H 0.67961 0.82522 0.89326 0.0
C773 C 0.61519 0.88898 0.87507 0.0
C774 C 0.62919 0.87308 0.84243 0.0
H775 H 0.60757 0.88848 0.93876 0.0
H776 H 0.59551 0.90501 0.87028 0.0
C777 C 0.65518 0.85316 0.84968 0.0
C778 C 0.40003 0.37959 0.15814 0.0
C779 C 0.42815 0.396 0.16029 0.0
H780 H 0.36487 0.36277 0.11849 0.0
C781 C 0.43344 0.41944 0.13157 0.0
H782 H 0.39438 0.36243 0.18088 0.0
C783 C 0.41602 0.41996 0.09593 0.0
C784 C 0.39397 0.39666 0.08909 0.0
H785 H 0.45408 0.43358 0.13322 0.0
H786 H 0.42414 0.43412 0.0711 0.0
C787 C 0.38275 0.38004 0.12236 0.0
C788 C 0.97266 0.26555 0.37315 0.0
C789 C 0.94089 0.27385 0.3686 0.0
H790 H 1.01142 0.2379 0.3511 0.0
C791 C 0.9222 0.2555 0.34345 0.0
H792 H 0.98737 0.27873 0.39317 0.0
C793 C 0.93593 0.23162 0.31975 0.0
C794 C 0.96845 0.22602 0.32092 0.0
H795 H 0.89758 0.26125 0.3395 0.0
H796 H 0.92164 0.21972 0.29787 0.0
C797 C 0.98635 0.24203 0.34936 0.0
C798 C 0.1547 0.67464 0.63978 0.0
C799 C 0.15202 0.64805 0.61514 0.0
H800 H 0.13392 0.70065 0.68839 0.0
C801 C 0.1382 0.62146 0.63178 0.0
H802 H 0.16632 0.69518 0.62872 0.0
C803 C 0.11911 0.62468 0.66587 0.0
C804 C 0.11473 0.65425 0.68391 0.0
H805 H 0.13691 0.60012 0.61424 0.0
H806 H 0.10434 0.60543 0.67398 0.0
C807 C 0.13567 0.67792 0.67397 0.0
C808 C 0.63311 0.1598 0.50131 0.0
C809 C 0.65049 0.18723 0.49821 0.0
H810 H 0.61836 0.12392 0.54125 0.0
C811 C 0.67672 0.19029 0.52334 0.0
H812 H 0.61372 0.15579 0.48107 0.0
C813 C 0.67952 0.17168 0.55786 0.0
C814 C 0.65577 0.15066 0.56716 0.0
H815 H 0.69166 0.21027 0.52059 0.0
H816 H 0.69617 0.1783 0.58078 0.0
C817 C 0.636 0.1412 0.53585 0.0
C818 C 0.03637 0.34915 0.80615 0.0
C819 C 0.0205 0.3319 0.7767 0.0
H820 H 0.06825 0.34732 0.85638 0.0
C821 C 0.02894 0.30026 0.77111 0.0
H822 H 0.03046 0.37365 0.81111 0.0
C823 C 0.05 0.2852 0.79723 0.0
C824 C 0.06376 0.30169 0.8289 0.0
H825 H 0.01781 0.28677 0.74783 0.0
H826 H 0.05441 0.26026 0.79393 0.0
C827 C 0.05801 0.33413 0.83202 0.0
C828 C 0.919 0.81121 0.08359 0.0
C829 C 0.94172 0.79686 0.05851 0.0
H830 H 0.91057 0.84292 0.1331 0.0
C831 C 0.97218 0.80835 0.05839 0.0
H832 H 0.89532 0.8028 0.08423 0.0
C833 C 0.98085 0.83089 0.08629 0.0
C834 C 0.95904 0.84284 0.11426 0.0
H835 H 0.9899 0.79834 0.03857 0.0
H836 H 1.00518 0.83732 0.08794 0.0
C837 C 0.92766 0.83419 0.11143 0.0
C838 C 0.39527 0.64321 0.30485 0.0
C839 C 0.40989 0.63022 0.33911 0.0
H840 H 0.39986 0.65077 0.24148 0.0
C841 C 0.42977 0.6038 0.33396 0.0
H842 H 0.37879 0.66276 0.30775 0.0
C843 C 0.44203 0.59695 0.29578 0.0
C844 C 0.43452 0.61689 0.26328 0.0
H845 H 0.4403 0.5923 0.35994 0.0
H846 H 0.46157 0.58038 0.29375 0.0
C847 C 0.40751 0.6363 0.26663 0.0
C848 C 0.43097 0.21111 0.08958 0.0
C849 C 0.46278 0.20292 0.08437 0.0
H850 H 0.39315 0.24233 0.07209 0.0
C851 C 0.47915 0.21579 0.05196 0.0
H852 H 0.41789 0.20161 0.11454 0.0
C853 C 0.46516 0.23895 0.02792 0.0
C854 C 0.4345 0.24978 0.03583 0.0
H855 H 0.50355 0.20946 0.04699 0.0
H856 H 0.47906 0.24987 0.00476 0.0
C857 C 0.41687 0.23447 0.06537 0.0
C858 C 0.52607 0.7486 0.8211 0.0
C859 C 0.52506 0.7165 0.81238 0.0
H860 H 0.54542 0.78451 0.85731 0.0
C861 C 0.54646 0.69592 0.83176 0.0
H862 H 0.5104 0.76517 0.8064 0.0
C863 C 0.56701 0.70717 0.86114 0.0
C864 C 0.56618 0.73905 0.87167 0.0
H865 H 0.54633 0.67104 0.82562 0.0
H866 H 0.58228 0.69076 0.87703 0.0
C867 C 0.54621 0.75971 0.85042 0.0
C868 C 0.04086 0.79075 0.59352 0.0
C869 C 0.05913 0.81011 0.61758 0.0
H870 H 0.04057 0.75556 0.54782 0.0
C871 C 0.0915 0.81129 0.6105 0.0
H872 H 0.01578 0.78981 0.59799 0.0
C873 C 0.10574 0.79088 0.58238 0.0
C874 C 0.08758 0.76951 0.56095 0.0
H875 H 0.10599 0.8261 0.62882 0.0
H876 H 0.131 0.79018 0.5797 0.0
C877 C 0.05497 0.77103 0.56509 0.0
C878 C 0.88574 0.39086 0.27253 0.0
C879 C 0.89715 0.41155 0.30165 0.0
H880 H 0.8975 0.36494 0.21928 0.0
C881 C 0.91967 0.4331 0.28966 0.0
H882 H 0.86737 0.37486 0.28006 0.0
C883 C 0.93726 0.42728 0.2548 0.0
C884 C 0.93173 0.40026 0.23195 0.0
H885 H 0.92791 0.45037 0.31085 0.0
H886 H 0.95815 0.44063 0.25003 0.0
C887 C 0.90333 0.38493 0.23767 0.0
C888 C 0.50621 0.79818 0.31583 0.0
C889 C 0.48553 0.81898 0.29591 0.0
H890 H 0.51181 0.76069 0.35748 0.0
C891 C 0.45364 0.81925 0.30633 0.0
H892 H 0.53101 0.79772 0.30902 0.0
C893 C 0.44245 0.79759 0.33441 0.0
C894 C 0.46307 0.77559 0.35256 0.0
H895 H 0.4372 0.83511 0.29146 0.0
H896 H 0.41759 0.79727 0.34064 0.0
C897 C 0.49516 0.77689 0.34378 0.0
C898 C 0.93966 0.61365 0.14151 0.0
C899 C 0.93558 0.63515 0.17333 0.0
H900 H 0.93352 0.60644 0.07822 0.0
C901 C 0.9108 0.65742 0.17069 0.0
H902 H 0.95764 0.59537 0.14304 0.0
C903 C 0.89655 0.66343 0.13338 0.0
C904 C 0.90722 0.64722 0.09901 0.0
H905 H 0.90611 0.67364 0.19521 0.0
H906 H 0.88185 0.68432 0.13031 0.0
C907 C 0.92557 0.61981 0.10424 0.0
C908 C 0.13517 0.14461 0.89081 0.0
C909 C 0.1501 0.17329 0.89609 0.0
H910 H 0.12242 0.11019 0.84764 0.0
C911 C 0.17534 0.18011 0.87066 0.0
H912 H 0.11678 0.13768 0.9112 0.0
C913 C 0.17866 0.16411 0.8341 0.0
C914 C 0.15639 0.14193 0.82339 0.0
H915 H 0.18861 0.20109 0.87508 0.0
H916 H 0.19394 0.17366 0.81136 0.0
C917 C 0.13865 0.12856 0.85429 0.0
C918 C 0.57073 0.34792 0.58083 0.0
C919 C 0.57937 0.31614 0.58503 0.0
H920 H 0.53921 0.38494 0.59995 0.0
C921 C 0.56799 0.29935 0.61803 0.0
H922 H 0.57907 0.3613 0.55542 0.0
C923 C 0.54542 0.31285 0.64349 0.0
C924 C 0.53358 0.3432 0.63605 0.0
H925 H 0.57464 0.27493 0.6221 0.0
H926 H 0.53537 0.2987 0.66705 0.0
C927 C 0.54785 0.36141 0.60625 0.0
C928 C 0.06632 0.497 0.23456 0.0
C929 C 0.0591 0.47379 0.20632 0.0
H930 H 0.06937 0.54592 0.24675 0.0
C931 C 0.05225 0.48277 0.16635 0.0
H932 H 0.07188 0.49084 0.26549 0.0
C933 C 0.05037 0.51442 0.15565 0.0
C934 C 0.05577 0.53772 0.18455 0.0
H935 H 0.04661 0.46545 0.14379 0.0
H936 H 0.04348 0.52065 0.12519 0.0
C937 C 0.06492 0.52861 0.22372 0.0
C938 C 0.77688 0.80047 0.4666 0.0
C939 C 0.78691 0.78653 0.50295 0.0
H940 H 0.7388 0.81008 0.42634 0.0
C941 C 0.76543 0.76956 0.52575 0.0
H942 H 0.79286 0.81352 0.4481 0.0
C943 C 0.73429 0.76757 0.51319 0.0
C944 C 0.72405 0.78246 0.47753 0.0
H945 H 0.77244 0.75843 0.5538 0.0
H946 H 0.7181 0.75502 0.53197 0.0
C947 C 0.74585 0.79843 0.45403 0.0
C948 C 0.46491 0.49985 0.73766 0.0
C949 C 0.48051 0.49551 0.70061 0.0
H950 H 0.45055 0.53178 0.7841 0.0
C951 C 0.4957 0.52092 0.68316 0.0
H952 H 0.45332 0.48064 0.75222 0.0
C953 C 0.49399 0.55044 0.7015 0.0
C954 C 0.47734 0.55498 0.73781 0.0
H955 H 0.50803 0.51825 0.65476 0.0
H956 H 0.50503 0.56986 0.68666 0.0
C957 C 0.46347 0.52918 0.75613 0.0
C958 C 0.79612 0.1925 0.93707 0.0
C959 C 0.80664 0.21857 0.9585 0.0
H960 H 0.75815 0.16203 0.9254 0.0
C961 C 0.78619 0.23364 -0.014 0.0
H962 H 0.8113 0.18034 0.91574 0.0
C963 C 0.75576 0.22325 -0.00854 0.0
C964 C 0.74507 0.19744 -0.03029 0.0
H965 H 0.7935 0.25378 0.00308 0.0
H966 H 0.74056 0.23565 0.01255 0.0
C967 C 0.76566 0.182 0.94269 0.0
C968 C 1.00967 0.50303 0.77889 0.0
C969 C 0.98842 0.489 0.75259 0.0
H970 H 0.03439 0.54431 0.79411 0.0
C971 C 0.97575 0.50671 0.72049 0.0
H972 H 0.01989 0.49002 0.80385 0.0
C973 C 0.98413 0.53775 0.7148 0.0
C974 C 1.00531 0.55181 0.74113 0.0
H975 H 0.95935 0.49661 0.69958 0.0
H976 H 0.97388 0.55072 0.68982 0.0
C977 C 0.01801 0.53414 0.77324 0.0
C978 C 0.29249 0.24794 0.41305 0.0
C979 C 0.31366 0.23298 0.43965 0.0
H980 H 0.24622 0.24976 0.38855 0.0
C981 C 0.30365 0.20719 0.46205 0.0
H982 H 0.29941 0.2679 0.39533 0.0
C983 C 0.27307 0.19667 0.458 0.0
C984 C 0.25184 0.21185 0.43164 0.0
H985 H 0.3194 0.19513 0.48276 0.0
H986 H 0.26602 0.17681 0.47581 0.0
C987 C 0.26194 0.23756 0.40916 0.0
C988 C 0.5611 0.51868 0.20343 0.0
C989 C 0.55006 0.53931 0.17331 0.0
H990 H 0.56801 0.47096 0.22185 0.0
C991 C 0.5407 0.52685 0.13605 0.0
H992 H 0.5686 0.52748 0.23241 0.0
C993 C 0.54035 0.49451 0.12998 0.0
C994 C 0.54935 0.4738 0.16102 0.0
H995 H 0.53234 0.54205 0.11201 0.0
H996 H 0.53168 0.48579 0.10151 0.0
C997 C 0.56075 0.48624 0.19734 0.0
C998 C 0.25545 0.79571 0.05263 0.0
C999 C 0.23436 0.81031 0.0257 0.0
H1000 H 0.30216 0.7784 0.06276 0.0
C1001 C 0.24536 0.81995 -0.01224 0.0
H1002 H 0.24778 0.78807 0.0821 0.0
C1003 C 0.27663 0.81463 -0.02325 0.0
C1004 C 0.29751 0.79933 0.00333 0.0
H1005 H 0.22976 0.83144 -0.03364 0.0
H1006 H 0.28424 0.82193 0.94711 0.0
C1007 C 0.28664 0.79017 0.04151 0.0
C1008 C 0.52892 0.99129 0.65525 0.0
C1009 C 0.54155 0.9802 0.69191 0.0
H1010 H 0.5237 0.03003 0.61447 0.0
C1011 C 0.55769 1.00097 0.71674 0.0
H1012 H 0.51633 0.97587 0.63544 0.0
C1013 C 0.56209 0.03178 0.70461 0.0
C1014 C 0.55031 0.04269 0.66744 0.0
H1015 H 0.56767 0.99327 0.7452 0.0
H1016 H 0.57512 0.04695 0.72427 0.0
C1017 C 0.53318 0.02229 0.64318 0.0
C1018 C 0.28075 0.28489 0.90556 0.0
C1019 C 0.28792 0.30013 0.94189 0.0
H1020 H 0.24509 0.26886 0.86598 0.0
C1021 C 0.26327 0.31212 -0.03413 0.0
H1022 H 0.29914 0.27558 0.88617 0.0
C1023 C 0.23213 0.30839 0.95413 0.0
C1024 C 0.22501 0.29261 0.91814 0.0
H1025 H 0.26799 0.32418 -0.00611 0.0
H1026 H 0.21366 0.31737 -0.02635 0.0
C1027 C 0.2497 0.2812 0.89382 0.0
C1028 C 0.96143 0.05306 0.21327 0.0
C1029 C 0.97402 0.07042 0.18143 0.0
H1030 H 0.95082 1.00762 0.23594 0.0
C1031 C 0.98279 0.05477 0.14566 0.0
H1032 H 0.95433 0.06443 0.24115 0.0
C1033 C 0.98082 0.02231 0.14266 0.0
C1034 C 0.96999 1.00469 0.17533 0.0
H1035 H 0.9923 0.06745 0.12035 0.0
H1036 H 0.98893 1.01094 0.11522 0.0
C1037 C 0.95941 0.02049 0.21024 0.0
C1038 C 0.27518 0.71543 0.41201 0.0
C1039 C 0.3022 0.72655 0.43066 0.0
H1040 H 0.22619 0.70754 0.41701 0.0
C1041 C 0.29943 0.74093 0.46879 0.0
H1042 H 0.27642 0.70437 0.38261 0.0
C1043 C 0.27054 0.74271 0.48866 0.0
C1044 C 0.24385 0.73013 0.47082 0.0
H1045 H 0.31977 0.74987 0.48398 0.0
H1046 H 0.26939 0.753 0.51851 0.0
C1047 C 0.24636 0.71719 0.43185 0.0
C1048 C 0.47124 0.0281 0.12664 0.0
C1049 C 0.46842 0.04696 0.16125 0.0
H1050 H 0.47756 0.98195 0.10278 0.0
C1051 C 0.46613 0.03238 0.19919 0.0
H1052 H 0.47278 0.03849 0.09692 0.0
C1053 C 0.46889 0.99973 0.20258 0.0
C1054 C 0.47404 0.98111 0.1681 0.0
H1055 H 0.46385 0.04622 0.22647 0.0
H1056 H 0.46864 0.98927 0.23234 0.0
C1057 C 0.47404 0.9956 0.13003 0.0
C1058 C 0.78901 0.74258 0.95286 0.0
C1059 C 0.79461 0.71609 -0.02287 0.0
H1060 H 0.75509 0.77202 0.92308 0.0
C1061 C 0.76914 0.69806 -0.01099 0.0
H1062 H 0.80815 0.75682 0.94292 0.0
C1063 C 0.73861 0.70693 -0.0221 0.0
C1064 C 0.73299 0.73374 0.95417 0.0
H1065 H 0.7727 0.67748 0.00767 0.0
H1066 H 0.71938 0.69301 -0.01169 0.0
C1067 C 0.75858 0.75117 0.94126 0.0
C1068 C 0.03016 0.03146 0.65745 0.0
C1069 C 0.0524 0.04099 0.68586 0.0
H1070 H 1.00573 0.99318 0.63152 0.0
C1071 C 0.06828 0.01817 0.70909 0.0
H1072 H 0.01761 0.04848 0.63898 0.0
C1073 C 0.06168 0.98658 0.7046 0.0
C1074 C 0.0389 0.97704 0.67694 0.0
H1075 H 0.08572 0.02468 0.73104 0.0
H1076 H 0.07408 0.96971 0.72346 0.0
C1077 C 0.02341 0.99977 0.6531 0.0
C1078 C 0.73832 0.32523 0.44709 0.0
C1079 C 0.73235 0.30725 0.48166 0.0
H1080 H 0.77288 0.34452 0.40816 0.0
C1081 C 0.75776 0.29529 0.50422 0.0
H1082 H 0.71926 0.33471 0.42896 0.0
C1083 C 0.78844 0.30078 0.49219 0.0
C1084 C 0.79445 0.31836 0.45732 0.0
H1085 H 0.75401 0.28129 0.53095 0.0
H1086 H 0.80746 0.29107 0.51021 0.0
C1087 C 0.76905 0.33072 0.43504 0.0
loop_
_geom_bond_atom_site_label_1
_geom_bond_atom_site_label_2
_geom_bond_distance
_geom_bond_site_symmetry_2
_ccdc_geom_bond_type
Zn0 O3 2.031 1_455 S
Zn0 O5 2.049 . S
Zn0 O10 2.067 . S
Zn1 O2 1.962 1_455 S
Zn1 O4 1.986 . S
Zn1 O6 1.996 . S
Zn1 O9 1.943 . S
O2 Zn1 1.962 1_655 S
O2 C7 1.254 . S
O3 Zn0 2.031 1_655 S
O3 C7 1.269 . S
O4 Zn1 1.986 . S
O4 C11 1.262 . S
O5 Zn0 2.049 . S
O5 C13 1.260 . S
O6 Zn1 1.996 . S
O6 C13 1.257 . S
C7 O2 1.254 . S
C7 O3 1.269 . S
C8 O9 1.249 . S
C8 O10 1.270 . S
O9 Zn1 1.943 . S
O9 C8 1.249 . S
O10 Zn0 2.067 . S
O10 C8 1.270 . S
C11 O4 1.262 . S
C11 O12 1.232 . S
O12 C11 1.232 . S
C13 O5 1.260 . S
C13 O6 1.257 . S
Zn14 O17 2.031 . S
Zn14 O19 2.049 . S
Zn14 O24 2.067 . S
Zn15 O16 1.962 . S
Zn15 O18 1.986 . S
Zn15 O20 1.996 . S
Zn15 O23 1.943 . S
O16 Zn15 1.962 . S
O16 C21 1.254 . S
O17 Zn14 2.031 . S
O17 C21 1.269 . S
O18 Zn15 1.986 . S
O18 C25 1.262 . S
O19 Zn14 2.049 . S
O19 C27 1.260 . S
O20 Zn15 1.996 . S
O20 C27 1.257 . S
C21 O16 1.254 . S
C21 O17 1.269 . S
C22 O23 1.249 . S
C22 O24 1.270 . S
O23 Zn15 1.943 . S
O23 C22 1.249 . S
O24 Zn14 2.067 . S
O24 C22 1.270 . S
C25 O18 1.262 . S
C25 O26 1.232 . S
O26 C25 1.232 . S
C27 O19 1.260 . S
C27 O20 1.257 . S
Zn28 O31 2.031 . S
Zn28 O33 2.049 . S
Zn28 O38 2.067 . S
Zn29 O30 1.962 . S
Zn29 O32 1.986 . S
Zn29 O34 1.996 . S
Zn29 O37 1.943 . S
O30 Zn29 1.962 . S
O30 C35 1.254 . S
O31 Zn28 2.031 . S
O31 C35 1.269 . S
O32 Zn29 1.986 . S
O32 C39 1.262 . S
O33 Zn28 2.049 . S
O33 C41 1.260 . S
O34 Zn29 1.996 . S
O34 C41 1.257 . S
C35 O30 1.254 . S
C35 O31 1.269 . S
C36 O37 1.249 . S
C36 O38 1.270 . S
O37 Zn29 1.943 . S
O37 C36 1.249 . S
O38 Zn28 2.067 . S
O38 C36 1.270 . S
C39 O32 1.262 . S
C39 O40 1.232 . S
O40 C39 1.232 . S
C41 O33 1.260 . S
C41 O34 1.257 . S
Zn42 O45 2.031 . S
Zn42 O47 2.049 1_554 S
Zn42 O52 2.067 . S
Zn43 O44 1.962 . S
Zn43 O46 1.986 1_554 S
Zn43 O48 1.996 1_554 S
Zn43 O51 1.943 . S
O44 Zn43 1.962 . S
O44 C49 1.254 . S
O45 Zn42 2.031 . S
O45 C49 1.269 . S
O46 Zn43 1.986 1_556 S
O46 C53 1.262 1_556 S
O47 Zn42 2.049 1_556 S
O47 C55 1.260 . S
O48 Zn43 1.996 1_556 S
O48 C55 1.257 . S
C49 O44 1.254 . S
C49 O45 1.269 . S
C50 O51 1.249 . S
C50 O52 1.270 . S
O51 Zn43 1.943 . S
O51 C50 1.249 . S
O52 Zn42 2.067 . S
O52 C50 1.270 . S
C53 O46 1.262 1_554 S
C53 O54 1.232 . S
O54 C53 1.232 . S
C55 O47 1.260 . S
C55 O48 1.257 . S
Zn56 O59 2.031 1_455 S
Zn56 O61 2.049 . S
Zn56 O66 2.067 . S
Zn57 O58 1.962 1_455 S
Zn57 O60 1.986 . S
Zn57 O62 1.996 . S
Zn57 O65 1.943 . S
O58 Zn57 1.962 1_655 S
O58 C63 1.254 . S
O59 Zn56 2.031 1_655 S
O59 C63 1.269 . S
O60 Zn57 1.986 . S
O60 C67 1.262 . S
O61 Zn56 2.049 . S
O61 C69 1.260 . S
O62 Zn57 1.996 . S
O62 C69 1.257 . S
C63 O58 1.254 . S
C63 O59 1.269 . S
C64 O65 1.249 . S
C64 O66 1.270 . S
O65 Zn57 1.943 . S
O65 C64 1.249 . S
O66 Zn56 2.067 . S
O66 C64 1.270 . S
C67 O60 1.262 . S
C67 O68 1.232 . S
O68 C67 1.232 . S
C69 O61 1.260 . S
C69 O62 1.257 . S
Zn70 O73 2.031 . S
Zn70 O75 2.049 . S
Zn70 O80 2.067 . S
Zn71 O72 1.962 . S
Zn71 O74 1.986 . S
Zn71 O76 1.996 . S
Zn71 O79 1.943 . S
O72 Zn71 1.962 . S
O72 C77 1.254 . S
O73 Zn70 2.031 . S
O73 C77 1.269 . S
O74 Zn71 1.986 . S
O74 C81 1.262 . S
O75 Zn70 2.049 . S
O75 C83 1.260 . S
O76 Zn71 1.996 . S
O76 C83 1.257 . S
C77 O72 1.254 . S
C77 O73 1.269 . S
C78 O79 1.249 . S
C78 O80 1.270 . S
O79 Zn71 1.943 . S
O79 C78 1.249 . S
O80 Zn70 2.067 . S
O80 C78 1.270 . S
C81 O74 1.262 . S
C81 O82 1.232 . S
O82 C81 1.232 . S
C83 O75 1.260 . S
C83 O76 1.257 . S
Zn84 O87 2.031 . S
Zn84 O89 2.049 . S
Zn84 O94 2.067 . S
Zn85 O86 1.962 . S
Zn85 O88 1.986 . S
Zn85 O90 1.996 . S
Zn85 O93 1.943 . S
O86 Zn85 1.962 . S
O86 C91 1.254 . S
O87 Zn84 2.031 . S
O87 C91 1.269 . S
O88 Zn85 1.986 . S
O88 C95 1.262 . S
O89 Zn84 2.049 . S
O89 C97 1.260 . S
O90 Zn85 1.996 . S
O90 C97 1.257 . S
C91 O86 1.254 . S
C91 O87 1.269 . S
C92 O93 1.249 . S
C92 O94 1.270 . S
O93 Zn85 1.943 . S
O93 C92 1.249 . S
O94 Zn84 2.067 . S
O94 C92 1.270 . S
C95 O88 1.262 . S
C95 O96 1.232 . S
O96 C95 1.232 . S
C97 O89 1.260 . S
C97 O90 1.257 . S
Zn98 O101 2.031 . S
Zn98 O103 2.049 1_556 S
Zn98 O108 2.067 . S
Zn99 O100 1.962 . S
Zn99 O102 1.986 1_556 S
Zn99 O104 1.996 1_556 S
Zn99 O107 1.943 . S
O100 Zn99 1.962 . S
O100 C105 1.254 . S
O101 Zn98 2.031 . S
O101 C105 1.269 . S
O102 Zn99 1.986 1_554 S
O102 C109 1.262 1_554 S
O103 Zn98 2.049 1_554 S
O103 C111 1.260 . S
O104 Zn99 1.996 1_554 S
O104 C111 1.257 . S
C105 O100 1.254 . S
C105 O101 1.269 . S
C106 O107 1.249 . S
C106 O108 1.270 . S
O107 Zn99 1.943 . S
O107 C106 1.249 . S
O108 Zn98 2.067 . S
O108 C106 1.270 . S
C109 O102 1.262 1_556 S
C109 O110 1.232 . S
O110 C109 1.232 . S
C111 O103 1.260 . S
C111 O104 1.257 . S
Zn112 O115 2.031 1_655 S
Zn112 O117 2.049 . S
Zn112 O122 2.067 . S
Zn113 O114 1.962 1_655 S
Zn113 O116 1.986 . S
Zn113 O118 1.996 . S
Zn113 O121 1.943 . S
O114 Zn113 1.962 1_455 S
O114 C119 1.254 . S
O115 Zn112 2.031 1_455 S
O115 C119 1.269 . S
O116 Zn113 1.986 . S
O116 C123 1.262 . S
O117 Zn112 2.049 . S
O117 C125 1.260 . S
O118 Zn113 1.996 . S
O118 C125 1.257 . S
C119 O114 1.254 . S
C119 O115 1.269 . S
C120 O121 1.249 . S
C120 O122 1.270 . S
O121 Zn113 1.943 . S
O121 C120 1.249 . S
O122 Zn112 2.067 . S
O122 C120 1.270 . S
C123 O116 1.262 . S
C123 O124 1.232 . S
O124 C123 1.232 . S
C125 O117 1.260 . S
C125 O118 1.257 . S
Zn126 O129 2.031 . S
Zn126 O131 2.049 . S
Zn126 O136 2.067 . S
Zn127 O128 1.962 . S
Zn127 O130 1.986 . S
Zn127 O132 1.996 . S
Zn127 O135 1.943 . S
O128 Zn127 1.962 . S
O128 C133 1.254 . S
O129 Zn126 2.031 . S
O129 C133 1.269 . S
O130 Zn127 1.986 . S
O130 C137 1.262 . S
O131 Zn126 2.049 . S
O131 C139 1.260 . S
O132 Zn127 1.996 . S
O132 C139 1.257 . S
C133 O128 1.254 . S
C133 O129 1.269 . S
C134 O135 1.249 . S
C134 O136 1.270 . S
O135 Zn127 1.943 . S
O135 C134 1.249 . S
O136 Zn126 2.067 . S
O136 C134 1.270 . S
C137 O130 1.262 . S
C137 O138 1.232 . S
O138 C137 1.232 . S
C139 O131 1.260 . S
C139 O132 1.257 . S
Zn140 O143 2.031 . S
Zn140 O145 2.049 . S
Zn140 O150 2.067 . S
Zn141 O142 1.962 . S
Zn141 O144 1.986 . S
Zn141 O146 1.996 . S
Zn141 O149 1.943 . S
O142 Zn141 1.962 . S
O142 C147 1.254 . S
O143 Zn140 2.031 . S
O143 C147 1.269 . S
O144 Zn141 1.986 . S
O144 C151 1.262 . S
O145 Zn140 2.049 . S
O145 C153 1.260 . S
O146 Zn141 1.996 . S
O146 C153 1.257 . S
C147 O142 1.254 . S
C147 O143 1.269 . S
C148 O149 1.249 . S
C148 O150 1.270 . S
O149 Zn141 1.943 . S
O149 C148 1.249 . S
O150 Zn140 2.067 . S
O150 C148 1.270 . S
C151 O144 1.262 . S
C151 O152 1.232 . S
O152 C151 1.232 . S
C153 O145 1.260 . S
C153 O146 1.257 . S
Zn154 O157 2.031 . S
Zn154 O159 2.049 1_556 S
Zn154 O164 2.067 . S
Zn155 O156 1.962 . S
Zn155 O158 1.986 1_556 S
Zn155 O160 1.996 1_556 S
Zn155 O163 1.943 . S
O156 Zn155 1.962 . S
O156 C161 1.254 . S
O157 Zn154 2.031 . S
O157 C161 1.269 . S
O158 Zn155 1.986 1_554 S
O158 C165 1.262 1_554 S
O159 Zn154 2.049 1_554 S
O159 C167 1.260 . S
O160 Zn155 1.996 1_554 S
O160 C167 1.257 . S
C161 O156 1.254 . S
C161 O157 1.269 . S
C162 O163 1.249 . S
C162 O164 1.270 . S
O163 Zn155 1.943 . S
O163 C162 1.249 . S
O164 Zn154 2.067 . S
O164 C162 1.270 . S
C165 O158 1.262 1_556 S
C165 O166 1.232 . S
O166 C165 1.232 . S
C167 O159 1.260 . S
C167 O160 1.257 . S
Zn168 O171 2.031 1_655 S
Zn168 O173 2.049 . S
Zn168 O178 2.067 . S
Zn169 O170 1.962 1_655 S
Zn169 O172 1.986 . S
Zn169 O174 1.996 . S
Zn169 O177 1.943 . S
O170 Zn169 1.962 1_455 S
O170 C175 1.254 . S
O171 Zn168 2.031 1_455 S
O171 C175 1.269 . S
O172 Zn169 1.986 . S
O172 C179 1.262 . S
O173 Zn168 2.049 . S
O173 C181 1.260 . S
O174 Zn169 1.996 . S
O174 C181 1.257 . S
C175 O170 1.254 . S
C175 O171 1.269 . S
C176 O177 1.249 . S
C176 O178 1.270 . S
O177 Zn169 1.943 . S
O177 C176 1.249 . S
O178 Zn168 2.067 . S
O178 C176 1.270 . S
C179 O172 1.262 . S
C179 O180 1.232 . S
O180 C179 1.232 . S
C181 O173 1.260 . S
C181 O174 1.257 . S
Zn182 O185 2.031 . S
Zn182 O187 2.049 . S
Zn182 O192 2.067 . S
Zn183 O184 1.962 . S
Zn183 O186 1.986 . S
Zn183 O188 1.996 . S
Zn183 O191 1.943 . S
O184 Zn183 1.962 . S
O184 C189 1.254 . S
O185 Zn182 2.031 . S
O185 C189 1.269 . S
O186 Zn183 1.986 . S
O186 C193 1.262 . S
O187 Zn182 2.049 . S
O187 C195 1.260 . S
O188 Zn183 1.996 . S
O188 C195 1.257 . S
C189 O184 1.254 . S
C189 O185 1.269 . S
C190 O191 1.249 . S
C190 O192 1.270 . S
O191 Zn183 1.943 . S
O191 C190 1.249 . S
O192 Zn182 2.067 . S
O192 C190 1.270 . S
C193 O186 1.262 . S
C193 O194 1.232 . S
O194 C193 1.232 . S
C195 O187 1.260 . S
C195 O188 1.257 . S
Zn196 O199 2.031 . S
Zn196 O201 2.049 . S
Zn196 O206 2.067 . S
Zn197 O198 1.962 . S
Zn197 O200 1.986 . S
Zn197 O202 1.996 . S
Zn197 O205 1.943 . S
O198 Zn197 1.962 . S
O198 C203 1.254 . S
O199 Zn196 2.031 . S
O199 C203 1.269 . S
O200 Zn197 1.986 . S
O200 C207 1.262 . S
O201 Zn196 2.049 . S
O201 C209 1.260 . S
O202 Zn197 1.996 . S
O202 C209 1.257 . S
C203 O198 1.254 . S
C203 O199 1.269 . S
C204 O205 1.249 . S
C204 O206 1.270 . S
O205 Zn197 1.943 . S
O205 C204 1.249 . S
O206 Zn196 2.067 . S
O206 C204 1.270 . S
C207 O200 1.262 . S
C207 O208 1.232 . S
O208 C207 1.232 . S
C209 O201 1.260 . S
C209 O202 1.257 . S
Zn210 O213 2.031 . S
Zn210 O215 2.049 1_554 S
Zn210 O220 2.067 . S
Zn211 O212 1.962 . S
Zn211 O214 1.986 1_554 S
Zn211 O216 1.996 1_554 S
Zn211 O219 1.943 . S
O212 Zn211 1.962 . S
O212 C217 1.254 . S
O213 Zn210 2.031 . S
O213 C217 1.269 . S
O214 Zn211 1.986 1_556 S
O214 C221 1.262 1_556 S
O215 Zn210 2.049 1_556 S
O215 C223 1.260 . S
O216 Zn211 1.996 1_556 S
O216 C223 1.257 . S
C217 O212 1.254 . S
C217 O213 1.269 . S
C218 O219 1.249 . S
C218 O220 1.270 . S
O219 Zn211 1.943 . S
O219 C218 1.249 . S
O220 Zn210 2.067 . S
O220 C218 1.270 . S
C221 O214 1.262 1_554 S
C221 O222 1.232 . S
O222 C221 1.232 . S
C223 O215 1.260 . S
C223 O216 1.257 . S
Zn224 O227 2.031 . S
Zn224 O229 2.049 . S
Zn224 O234 2.067 . S
Zn225 O226 1.962 . S
Zn225 O228 1.986 . S
Zn225 O230 1.996 . S
Zn225 O233 1.943 . S
O226 Zn225 1.962 . S
O226 C231 1.254 . S
O227 Zn224 2.031 . S
O227 C231 1.269 . S
O228 Zn225 1.986 . S
O228 C235 1.262 . S
O229 Zn224 2.049 . S
O229 C237 1.260 . S
O230 Zn225 1.996 . S
O230 C237 1.257 . S
C231 O226 1.254 . S
C231 O227 1.269 . S
C232 O233 1.249 . S
C232 O234 1.270 . S
O233 Zn225 1.943 . S
O233 C232 1.249 . S
O234 Zn224 2.067 . S
O234 C232 1.270 . S
C235 O228 1.262 . S
C235 O236 1.232 . S
O236 C235 1.232 . S
C237 O229 1.260 . S
C237 O230 1.257 . S
Zn238 O241 2.031 . S
Zn238 O243 2.049 1_554 S
Zn238 O248 2.067 . S
Zn239 O240 1.962 . S
Zn239 O242 1.986 1_554 S
Zn239 O244 1.996 1_554 S
Zn239 O247 1.943 . S
O240 Zn239 1.962 . S
O240 C245 1.254 . S
O241 Zn238 2.031 . S
O241 C245 1.269 . S
O242 Zn239 1.986 1_556 S
O242 C249 1.262 1_556 S
O243 Zn238 2.049 1_556 S
O243 C251 1.260 . S
O244 Zn239 1.996 1_556 S
O244 C251 1.257 . S
C245 O240 1.254 . S
C245 O241 1.269 . S
C246 O247 1.249 . S
C246 O248 1.270 . S
O247 Zn239 1.943 . S
O247 C246 1.249 . S
O248 Zn238 2.067 . S
O248 C246 1.270 . S
C249 O242 1.262 1_554 S
C249 O250 1.232 . S
O250 C249 1.232 . S
C251 O243 1.260 . S
C251 O244 1.257 . S
Zn252 O255 2.031 1_655 S
Zn252 O257 2.049 . S
Zn252 O262 2.067 . S
Zn253 O254 1.962 1_655 S
Zn253 O256 1.986 . S
Zn253 O258 1.996 . S
Zn253 O261 1.943 . S
O254 Zn253 1.962 1_455 S
O254 C259 1.254 . S
O255 Zn252 2.031 1_455 S
O255 C259 1.269 . S
O256 Zn253 1.986 . S
O256 C263 1.262 . S
O257 Zn252 2.049 . S
O257 C265 1.260 . S
O258 Zn253 1.996 . S
O258 C265 1.257 . S
C259 O254 1.254 . S
C259 O255 1.269 . S
C260 O261 1.249 . S
C260 O262 1.270 . S
O261 Zn253 1.943 . S
O261 C260 1.249 . S
O262 Zn252 2.067 . S
O262 C260 1.270 . S
C263 O256 1.262 . S
C263 O264 1.232 . S
O264 C263 1.232 . S
C265 O257 1.260 . S
C265 O258 1.257 . S
Zn266 O269 2.031 . S
Zn266 O271 2.049 . S
Zn266 O276 2.067 . S
Zn267 O268 1.962 . S
Zn267 O270 1.986 . S
Zn267 O272 1.996 . S
Zn267 O275 1.943 . S
O268 Zn267 1.962 . S
O268 C273 1.254 . S
O269 Zn266 2.031 . S
O269 C273 1.269 . S
O270 Zn267 1.986 . S
O270 C277 1.262 . S
O271 Zn266 2.049 . S
O271 C279 1.260 . S
O272 Zn267 1.996 . S
O272 C279 1.257 . S
C273 O268 1.254 . S
C273 O269 1.269 . S
C274 O275 1.249 . S
C274 O276 1.270 . S
O275 Zn267 1.943 . S
O275 C274 1.249 . S
O276 Zn266 2.067 . S
O276 C274 1.270 . S
C277 O270 1.262 . S
C277 O278 1.232 . S
O278 C277 1.232 . S
C279 O271 1.260 . S
C279 O272 1.257 . S
Zn280 O283 2.031 . S
Zn280 O285 2.049 . S
Zn280 O290 2.067 . S
Zn281 O282 1.962 . S
Zn281 O284 1.986 . S
Zn281 O286 1.996 . S
Zn281 O289 1.943 . S
O282 Zn281 1.962 . S
O282 C287 1.254 . S
O283 Zn280 2.031 . S
O283 C287 1.269 . S
O284 Zn281 1.986 . S
O284 C291 1.262 . S
O285 Zn280 2.049 . S
O285 C293 1.260 . S
O286 Zn281 1.996 . S
O286 C293 1.257 . S
C287 O282 1.254 . S
C287 O283 1.269 . S
C288 O289 1.249 . S
C288 O290 1.270 . S
O289 Zn281 1.943 . S
O289 C288 1.249 . S
O290 Zn280 2.067 . S
O290 C288 1.270 . S
C291 O284 1.262 . S
C291 O292 1.232 . S
O292 C291 1.232 . S
C293 O285 1.260 . S
C293 O286 1.257 . S
Zn294 O297 2.031 . S
Zn294 O299 2.049 1_556 S
Zn294 O304 2.067 . S
Zn295 O296 1.962 . S
Zn295 O298 1.986 1_556 S
Zn295 O300 1.996 1_556 S
Zn295 O303 1.943 . S
O296 Zn295 1.962 . S
O296 C301 1.254 . S
O297 Zn294 2.031 . S
O297 C301 1.269 . S
O298 Zn295 1.986 1_554 S
O298 C305 1.262 1_554 S
O299 Zn294 2.049 1_554 S
O299 C307 1.260 . S
O300 Zn295 1.996 1_554 S
O300 C307 1.257 . S
C301 O296 1.254 . S
C301 O297 1.269 . S
C302 O303 1.249 . S
C302 O304 1.270 . S
O303 Zn295 1.943 . S
O303 C302 1.249 . S
O304 Zn294 2.067 . S
O304 C302 1.270 . S
C305 O298 1.262 1_556 S
C305 O306 1.232 . S
O306 C305 1.232 . S
C307 O299 1.260 . S
C307 O300 1.257 . S
Zn308 O311 2.031 1_655 S
Zn308 O313 2.049 . S
Zn308 O318 2.067 . S
Zn309 O310 1.962 1_655 S
Zn309 O312 1.986 . S
Zn309 O314 1.996 . S
Zn309 O317 1.943 . S
O310 Zn309 1.962 1_455 S
O310 C315 1.254 . S
O311 Zn308 2.031 1_455 S
O311 C315 1.269 . S
O312 Zn309 1.986 . S
O312 C319 1.262 . S
O313 Zn308 2.049 . S
O313 C321 1.260 . S
O314 Zn309 1.996 . S
O314 C321 1.257 . S
C315 O310 1.254 . S
C315 O311 1.269 . S
C316 O317 1.249 . S
C316 O318 1.270 . S
O317 Zn309 1.943 . S
O317 C316 1.249 . S
O318 Zn308 2.067 . S
O318 C316 1.270 . S
C319 O312 1.262 . S
C319 O320 1.232 . S
O320 C319 1.232 . S
C321 O313 1.260 . S
C321 O314 1.257 . S
Zn322 O325 2.031 . S
Zn322 O327 2.049 . S
Zn322 O332 2.067 . S
Zn323 O324 1.962 . S
Zn323 O326 1.986 . S
Zn323 O328 1.996 . S
Zn323 O331 1.943 . S
O324 Zn323 1.962 . S
O324 C329 1.254 . S
O325 Zn322 2.031 . S
O325 C329 1.269 . S
O326 Zn323 1.986 . S
O326 C333 1.262 . S
O327 Zn322 2.049 . S
O327 C335 1.260 . S
O328 Zn323 1.996 . S
O328 C335 1.257 . S
C329 O324 1.254 . S
C329 O325 1.269 . S
C330 O331 1.249 . S
C330 O332 1.270 . S
O331 Zn323 1.943 . S
O331 C330 1.249 . S
O332 Zn322 2.067 . S
O332 C330 1.270 . S
C333 O326 1.262 . S
C333 O334 1.232 . S
O334 C333 1.232 . S
C335 O327 1.260 . S
C335 O328 1.257 . S
Zn336 O339 2.031 . S
Zn336 O341 2.049 . S
Zn336 O346 2.067 . S
Zn337 O338 1.962 . S
Zn337 O340 1.986 . S
Zn337 O342 1.996 . S
Zn337 O345 1.943 . S
O338 Zn337 1.962 . S
O338 C343 1.254 . S
O339 Zn336 2.031 . S
O339 C343 1.269 . S
O340 Zn337 1.986 . S
O340 C347 1.262 . S
O341 Zn336 2.049 . S
O341 C349 1.260 . S
O342 Zn337 1.996 . S
O342 C349 1.257 . S
C343 O338 1.254 . S
C343 O339 1.269 . S
C344 O345 1.249 . S
C344 O346 1.270 . S
O345 Zn337 1.943 . S
O345 C344 1.249 . S
O346 Zn336 2.067 . S
O346 C344 1.270 . S
C347 O340 1.262 . S
C347 O348 1.232 . S
O348 C347 1.232 . S
C349 O341 1.260 . S
C349 O342 1.257 . S
Zn350 O353 2.031 . S
Zn350 O355 2.049 1_556 S
Zn350 O360 2.067 . S
Zn351 O352 1.962 . S
Zn351 O354 1.986 1_556 S
Zn351 O356 1.996 1_556 S
Zn351 O359 1.943 . S
O352 Zn351 1.962 . S
O352 C357 1.254 . S
O353 Zn350 2.031 . S
O353 C357 1.269 . S
O354 Zn351 1.986 1_554 S
O354 C361 1.262 1_554 S
O355 Zn350 2.049 1_554 S
O355 C363 1.260 . S
O356 Zn351 1.996 1_554 S
O356 C363 1.257 . S
C357 O352 1.254 . S
C357 O353 1.269 . S
C358 O359 1.249 . S
C358 O360 1.270 . S
O359 Zn351 1.943 . S
O359 C358 1.249 . S
O360 Zn350 2.067 . S
O360 C358 1.270 . S
C361 O354 1.262 1_556 S
C361 O362 1.232 . S
O362 C361 1.232 . S
C363 O355 1.260 . S
C363 O356 1.257 . S
Zn364 O367 2.031 1_455 S
Zn364 O369 2.049 . S
Zn364 O374 2.067 . S
Zn365 O366 1.962 1_455 S
Zn365 O368 1.986 . S
Zn365 O370 1.996 . S
Zn365 O373 1.943 . S
O366 Zn365 1.962 1_655 S
O366 C371 1.254 . S
O367 Zn364 2.031 1_655 S
O367 C371 1.269 . S
O368 Zn365 1.986 . S
O368 C375 1.262 . S
O369 Zn364 2.049 . S
O369 C377 1.260 . S
O370 Zn365 1.996 . S
O370 C377 1.257 . S
C371 O366 1.254 . S
C371 O367 1.269 . S
C372 O373 1.249 . S
C372 O374 1.270 . S
O373 Zn365 1.943 . S
O373 C372 1.249 . S
O374 Zn364 2.067 . S
O374 C372 1.270 . S
C375 O368 1.262 . S
C375 O376 1.232 . S
O376 C375 1.232 . S
C377 O369 1.260 . S
C377 O370 1.257 . S
Zn378 O381 2.031 . S
Zn378 O383 2.049 . S
Zn378 O388 2.067 . S
Zn379 O380 1.962 . S
Zn379 O382 1.986 . S
Zn379 O384 1.996 . S
Zn379 O387 1.943 . S
O380 Zn379 1.962 . S
O380 C385 1.254 . S
O381 Zn378 2.031 . S
O381 C385 1.269 . S
O382 Zn379 1.986 . S
O382 C389 1.262 . S
O383 Zn378 2.049 . S
O383 C391 1.260 . S
O384 Zn379 1.996 . S
O384 C391 1.257 . S
C385 O380 1.254 . S
C385 O381 1.269 . S
C386 O387 1.249 . S
C386 O388 1.270 . S
O387 Zn379 1.943 . S
O387 C386 1.249 . S
O388 Zn378 2.067 . S
O388 C386 1.270 . S
C389 O382 1.262 . S
C389 O390 1.232 . S
O390 C389 1.232 . S
C391 O383 1.260 . S
C391 O384 1.257 . S
Zn392 O395 2.031 . S
Zn392 O397 2.049 . S
Zn392 O402 2.067 . S
Zn393 O394 1.962 . S
Zn393 O396 1.986 . S
Zn393 O398 1.996 . S
Zn393 O401 1.943 . S
O394 Zn393 1.962 . S
O394 C399 1.254 . S
O395 Zn392 2.031 . S
O395 C399 1.269 . S
O396 Zn393 1.986 . S
O396 C403 1.262 . S
O397 Zn392 2.049 . S
O397 C405 1.260 . S
O398 Zn393 1.996 . S
O398 C405 1.257 . S
C399 O394 1.254 . S
C399 O395 1.269 . S
C400 O401 1.249 . S
C400 O402 1.270 . S
O401 Zn393 1.943 . S
O401 C400 1.249 . S
O402 Zn392 2.067 . S
O402 C400 1.270 . S
C403 O396 1.262 . S
C403 O404 1.232 . S
O404 C403 1.232 . S
C405 O397 1.260 . S
C405 O398 1.257 . S
Zn406 O409 2.031 . S
Zn406 O411 2.049 1_554 S
Zn406 O416 2.067 . S
Zn407 O408 1.962 . S
Zn407 O410 1.986 1_554 S
Zn407 O412 1.996 1_554 S
Zn407 O415 1.943 . S
O408 Zn407 1.962 . S
O408 C413 1.254 . S
O409 Zn406 2.031 . S
O409 C413 1.269 . S
O410 Zn407 1.986 1_556 S
O410 C417 1.262 1_556 S
O411 Zn406 2.049 1_556 S
O411 C419 1.260 . S
O412 Zn407 1.996 1_556 S
O412 C419 1.257 . S
C413 O408 1.254 . S
C413 O409 1.269 . S
C414 O415 1.249 . S
C414 O416 1.270 . S
O415 Zn407 1.943 . S
O415 C414 1.249 . S
O416 Zn406 2.067 . S
O416 C414 1.270 . S
C417 O410 1.262 1_554 S
C417 O418 1.232 . S
O418 C417 1.232 . S
C419 O411 1.260 . S
C419 O412 1.257 . S
Zn420 O423 2.031 1_455 S
Zn420 O425 2.049 . S
Zn420 O430 2.067 . S
Zn421 O422 1.962 1_455 S
Zn421 O424 1.986 . S
Zn421 O426 1.996 . S
Zn421 O429 1.943 . S
O422 Zn421 1.962 1_655 S
O422 C427 1.254 . S
O423 Zn420 2.031 1_655 S
O423 C427 1.269 . S
O424 Zn421 1.986 . S
O424 C431 1.262 . S
O425 Zn420 2.049 . S
O425 C433 1.260 . S
O426 Zn421 1.996 . S
O426 C433 1.257 . S
C427 O422 1.254 . S
C427 O423 1.269 . S
C428 O429 1.249 . S
C428 O430 1.270 . S
O429 Zn421 1.943 . S
O429 C428 1.249 . S
O430 Zn420 2.067 . S
O430 C428 1.270 . S
C431 O424 1.262 . S
C431 O432 1.232 . S
O432 C431 1.232 . S
C433 O425 1.260 . S
C433 O426 1.257 . S
Zn434 O437 2.031 . S
Zn434 O439 2.049 . S
Zn434 O444 2.067 . S
Zn435 O436 1.962 . S
Zn435 O438 1.986 . S
Zn435 O440 1.996 . S
Zn435 O443 1.943 . S
O436 Zn435 1.962 . S
O436 C441 1.254 . S
O437 Zn434 2.031 . S
O437 C441 1.269 . S
O438 Zn435 1.986 . S
O438 C445 1.262 . S
O439 Zn434 2.049 . S
O439 C447 1.260 . S
O440 Zn435 1.996 . S
O440 C447 1.257 . S
C441 O436 1.254 . S
C441 O437 1.269 . S
C442 O443 1.249 . S
C442 O444 1.270 . S
O443 Zn435 1.943 . S
O443 C442 1.249 . S
O444 Zn434 2.067 . S
O444 C442 1.270 . S
C445 O438 1.262 . S
C445 O446 1.232 . S
O446 C445 1.232 . S
C447 O439 1.260 . S
C447 O440 1.257 . S
C448 C449 1.387 . S
C448 H452 0.950 . S
C448 C457 1.390 . S
C449 C448 1.387 . S
C449 C451 1.387 . S
H450 C457 0.950 . S
C451 C449 1.387 . S
C451 C453 1.390 . S
C451 H455 0.950 . S
H452 C448 0.950 . S
C453 C451 1.390 . S
C453 C454 1.387 . S
C453 H456 0.950 . S
C454 C453 1.387 . S
C454 C457 1.387 . S
H455 C451 0.950 . S
H456 C453 0.950 . S
C457 C448 1.390 . S
C457 H450 0.950 . S
C457 C454 1.387 . S
C458 C459 1.387 . S
C458 H462 0.950 . S
C458 C467 1.390 . S
C459 C458 1.387 . S
C459 C461 1.387 . S
H460 C467 0.950 . S
C461 C459 1.387 . S
C461 C463 1.390 . S
C461 H465 0.950 . S
H462 C458 0.950 . S
C463 C461 1.390 . S
C463 C464 1.387 . S
C463 H466 0.950 . S
C464 C463 1.387 . S
C464 C467 1.387 . S
H465 C461 0.950 . S
H466 C463 0.950 . S
C467 C458 1.390 . S
C467 H460 0.950 . S
C467 C464 1.387 . S
C468 C469 1.387 . S
C468 H472 0.950 . S
C468 C477 1.390 . S
C469 C468 1.387 . S
C469 C471 1.387 . S
H470 C477 0.950 . S
C471 C469 1.387 . S
C471 C473 1.390 . S
C471 H475 0.950 . S
H472 C468 0.950 . S
C473 C471 1.390 . S
C473 C474 1.387 . S
C473 H476 0.950 . S
C474 C473 1.387 . S
C474 C477 1.387 . S
H475 C471 0.950 . S
H476 C473 0.950 . S
C477 C468 1.390 . S
C477 H470 0.950 . S
C477 C474 1.387 . S
C478 C479 1.387 . S
C478 H482 0.950 . S
C478 C487 1.390 . S
C479 C478 1.387 . S
C479 C481 1.387 . S
H480 C487 0.950 . S
C481 C479 1.387 . S
C481 C483 1.390 . S
C481 H485 0.950 . S
H482 C478 0.950 . S
C483 C481 1.390 . S
C483 C484 1.387 . S
C483 H486 0.950 . S
C484 C483 1.387 . S
C484 C487 1.387 . S
H485 C481 0.950 . S
H486 C483 0.950 . S
C487 C478 1.390 . S
C487 H480 0.950 . S
C487 C484 1.387 . S
C488 C489 1.387 . S
C488 H492 0.950 . S
C488 C497 1.390 . S
C489 C488 1.387 . S
C489 C491 1.387 . S
H490 C497 0.950 . S
C491 C489 1.387 . S
C491 C493 1.390 . S
C491 H495 0.950 . S
H492 C488 0.950 . S
C493 C491 1.390 . S
C493 C494 1.387 . S
C493 H496 0.950 . S
C494 C493 1.387 . S
C494 C497 1.387 . S
H495 C491 0.950 . S
H496 C493 0.950 . S
C497 C488 1.390 . S
C497 H490 0.950 . S
C497 C494 1.387 . S
C498 C499 1.387 . S
C498 H502 0.950 . S
C498 C507 1.390 . S
C499 C498 1.387 . S
C499 C501 1.387 . S
H500 C507 0.950 . S
C501 C499 1.387 . S
C501 C503 1.390 . S
C501 H505 0.950 . S
H502 C498 0.950 . S
C503 C501 1.390 . S
C503 C504 1.387 . S
C503 H506 0.950 . S
C504 C503 1.387 . S
C504 C507 1.387 . S
H505 C501 0.950 . S
H506 C503 0.950 . S
C507 C498 1.390 . S
C507 H500 0.950 . S
C507 C504 1.387 . S
C508 C509 1.387 . S
C508 H512 0.950 . S
C508 C517 1.390 . S
C509 C508 1.387 . S
C509 C511 1.387 . S
H510 C517 0.950 . S
C511 C509 1.387 . S
C511 C513 1.390 . S
C511 H515 0.950 . S
H512 C508 0.950 . S
C513 C511 1.390 . S
C513 C514 1.387 . S
C513 H516 0.950 . S
C514 C513 1.387 . S
C514 C517 1.387 . S
H515 C511 0.950 . S
H516 C513 0.950 . S
C517 C508 1.390 . S
C517 H510 0.950 . S
C517 C514 1.387 . S
C518 C519 1.387 . S
C518 H522 0.950 . S
C518 C527 1.390 . S
C519 C518 1.387 . S
C519 C521 1.387 . S
H520 C527 0.950 . S
C521 C519 1.387 . S
C521 C523 1.390 . S
C521 H525 0.950 . S
H522 C518 0.950 . S
C523 C521 1.390 . S
C523 C524 1.387 . S
C523 H526 0.950 . S
C524 C523 1.387 . S
C524 C527 1.387 . S
H525 C521 0.950 . S
H526 C523 0.950 . S
C527 C518 1.390 . S
C527 H520 0.950 . S
C527 C524 1.387 . S
C528 C529 1.387 . S
C528 H532 0.950 . S
C528 C537 1.390 . S
C529 C528 1.387 . S
C529 C531 1.387 . S
H530 C537 0.950 . S
C531 C529 1.387 . S
C531 C533 1.390 . S
C531 H535 0.950 . S
H532 C528 0.950 . S
C533 C531 1.390 . S
C533 C534 1.387 . S
C533 H536 0.950 . S
C534 C533 1.387 . S
C534 C537 1.387 . S
H535 C531 0.950 . S
H536 C533 0.950 . S
C537 C528 1.390 . S
C537 H530 0.950 . S
C537 C534 1.387 . S
C538 C539 1.387 . S
C538 H542 0.950 . S
C538 C547 1.390 . S
C539 C538 1.387 . S
C539 C541 1.387 . S
H540 C547 0.950 . S
C541 C539 1.387 . S
C541 C543 1.390 . S
C541 H545 0.950 . S
H542 C538 0.950 . S
C543 C541 1.390 . S
C543 C544 1.387 . S
C543 H546 0.950 . S
C544 C543 1.387 . S
C544 C547 1.387 . S
H545 C541 0.950 . S
H546 C543 0.950 . S
C547 C538 1.390 . S
C547 H540 0.950 . S
C547 C544 1.387 . S
C548 C549 1.387 . S
C548 H552 0.950 . S
C548 C557 1.390 . S
C549 C548 1.387 . S
C549 C551 1.387 . S
H550 C557 0.950 . S
C551 C549 1.387 . S
C551 C553 1.390 . S
C551 H555 0.950 . S
H552 C548 0.950 . S
C553 C551 1.390 . S
C553 C554 1.387 . S
C553 H556 0.950 . S
C554 C553 1.387 . S
C554 C557 1.387 . S
H555 C551 0.950 . S
H556 C553 0.950 . S
C557 C548 1.390 . S
C557 H550 0.950 . S
C557 C554 1.387 . S
C558 C559 1.387 . S
C558 H562 0.950 . S
C558 C567 1.390 . S
C559 C558 1.387 . S
C559 C561 1.387 . S
H560 C567 0.950 . S
C561 C559 1.387 . S
C561 C563 1.390 . S
C561 H565 0.950 . S
H562 C558 0.950 . S
C563 C561 1.390 . S
C563 C564 1.387 . S
C563 H566 0.950 . S
C564 C563 1.387 . S
C564 C567 1.387 . S
H565 C561 0.950 . S
H566 C563 0.950 . S
C567 C558 1.390 . S
C567 H560 0.950 . S
C567 C564 1.387 . S
C568 C569 1.387 . S
C568 H572 0.950 . S
C568 C577 1.390 . S
C569 C568 1.387 . S
C569 C571 1.387 . S
H570 C577 0.950 . S
C571 C569 1.387 . S
C571 C573 1.390 . S
C571 H575 0.950 . S
H572 C568 0.950 . S
C573 C571 1.390 . S
C573 C574 1.387 . S
C573 H576 0.950 . S
C574 C573 1.387 . S
C574 C577 1.387 . S
H575 C571 0.950 . S
H576 C573 0.950 . S
C577 C568 1.390 . S
C577 H570 0.950 . S
C577 C574 1.387 . S
C578 C579 1.387 . S
C578 H582 0.950 . S
C578 C587 1.390 . S
C579 C578 1.387 . S
C579 C581 1.387 . S
H580 C587 0.950 . S
C581 C579 1.387 . S
C581 C583 1.390 . S
C581 H585 0.950 . S
H582 C578 0.950 . S
C583 C581 1.390 . S
C583 C584 1.387 . S
C583 H586 0.950 . S
C584 C583 1.387 . S
C584 C587 1.387 . S
H585 C581 0.950 . S
H586 C583 0.950 . S
C587 C578 1.390 . S
C587 H580 0.950 . S
C587 C584 1.387 . S
C588 C589 1.387 . S
C588 H592 0.950 . S
C588 C597 1.390 . S
C589 C588 1.387 . S
C589 C591 1.387 . S
H590 C597 0.950 . S
C591 C589 1.387 . S
C591 C593 1.390 . S
C591 H595 0.950 . S
H592 C588 0.950 . S
C593 C591 1.390 . S
C593 C594 1.387 . S
C593 H596 0.950 . S
C594 C593 1.387 . S
C594 C597 1.387 . S
H595 C591 0.950 . S
H596 C593 0.950 . S
C597 C588 1.390 . S
C597 H590 0.950 . S
C597 C594 1.387 . S
C598 C599 1.387 . S
C598 H602 0.950 . S
C598 C607 1.390 . S
C599 C598 1.387 . S
C599 C601 1.387 . S
H600 C607 0.950 . S
C601 C599 1.387 . S
C601 C603 1.390 . S
C601 H605 0.950 . S
H602 C598 0.950 . S
C603 C601 1.390 . S
C603 C604 1.387 . S
C603 H606 0.950 . S
C604 C603 1.387 . S
C604 C607 1.387 . S
H605 C601 0.950 . S
H606 C603 0.950 . S
C607 C598 1.390 . S
C607 H600 0.950 . S
C607 C604 1.387 . S
C608 C609 1.387 . S
C608 H612 0.950 . S
C608 C617 1.390 . S
C609 C608 1.387 . S
C609 C611 1.387 . S
H610 C617 0.950 . S
C611 C609 1.387 . S
C611 C613 1.390 . S
C611 H615 0.950 . S
H612 C608 0.950 . S
C613 C611 1.390 . S
C613 C614 1.387 . S
C613 H616 0.950 . S
C614 C613 1.387 . S
C614 C617 1.387 . S
H615 C611 0.950 . S
H616 C613 0.950 . S
C617 C608 1.390 . S
C617 H610 0.950 . S
C617 C614 1.387 . S
C618 C619 1.387 . S
C618 H622 0.950 . S
C618 C627 1.390 . S
C619 C618 1.387 . S
C619 C621 1.387 . S
H620 C627 0.950 . S
C621 C619 1.387 . S
C621 C623 1.390 . S
C621 H625 0.950 . S
H622 C618 0.950 . S
C623 C621 1.390 . S
C623 C624 1.387 . S
C623 H626 0.950 . S
C624 C623 1.387 . S
C624 C627 1.387 . S
H625 C621 0.950 . S
H626 C623 0.950 . S
C627 C618 1.390 . S
C627 H620 0.950 . S
C627 C624 1.387 . S
C628 C629 1.387 . S
C628 H632 0.950 . S
C628 C637 1.390 . S
C629 C628 1.387 . S
C629 C631 1.387 . S
H630 C637 0.950 . S
C631 C629 1.387 . S
C631 C633 1.390 . S
C631 H635 0.950 . S
H632 C628 0.950 . S
C633 C631 1.390 . S
C633 C634 1.387 . S
C633 H636 0.950 . S
C634 C633 1.387 . S
C634 C637 1.387 . S
H635 C631 0.950 . S
H636 C633 0.950 . S
C637 C628 1.390 . S
C637 H630 0.950 . S
C637 C634 1.387 . S
C638 C639 1.387 . S
C638 H642 0.950 . S
C638 C647 1.390 . S
C639 C638 1.387 . S
C639 C641 1.387 . S
H640 C647 0.950 . S
C641 C639 1.387 . S
C641 C643 1.390 . S
C641 H645 0.950 . S
H642 C638 0.950 . S
C643 C641 1.390 . S
C643 C644 1.387 . S
C643 H646 0.950 . S
C644 C643 1.387 . S
C644 C647 1.387 . S
H645 C641 0.950 . S
H646 C643 0.950 . S
C647 C638 1.390 . S
C647 H640 0.950 . S
C647 C644 1.387 . S
C648 C649 1.387 . S
C648 H652 0.950 . S
C648 C657 1.390 . S
C649 C648 1.387 . S
C649 C651 1.387 . S
H650 C657 0.950 . S
C651 C649 1.387 . S
C651 C653 1.390 . S
C651 H655 0.950 . S
H652 C648 0.950 . S
C653 C651 1.390 . S
C653 C654 1.387 . S
C653 H656 0.950 . S
C654 C653 1.387 . S
C654 C657 1.387 . S
H655 C651 0.950 . S
H656 C653 0.950 . S
C657 C648 1.390 . S
C657 H650 0.950 . S
C657 C654 1.387 . S
C658 C659 1.387 . S
C658 H662 0.950 . S
C658 C667 1.390 . S
C659 C658 1.387 . S
C659 C661 1.387 . S
H660 C667 0.950 . S
C661 C659 1.387 . S
C661 C663 1.390 . S
C661 H665 0.950 . S
H662 C658 0.950 . S
C663 C661 1.390 . S
C663 C664 1.387 . S
C663 H666 0.950 . S
C664 C663 1.387 . S
C664 C667 1.387 . S
H665 C661 0.950 . S
H666 C663 0.950 . S
C667 C658 1.390 . S
C667 H660 0.950 . S
C667 C664 1.387 . S
C668 C669 1.387 . S
C668 H672 0.950 . S
C668 C677 1.390 . S
C669 C668 1.387 . S
C669 C671 1.387 . S
H670 C677 0.950 . S
C671 C669 1.387 . S
C671 C673 1.390 . S
C671 H675 0.950 . S
H672 C668 0.950 . S
C673 C671 1.390 . S
C673 C674 1.387 . S
C673 H676 0.950 . S
C674 C673 1.387 . S
C674 C677 1.387 . S
H675 C671 0.950 . S
H676 C673 0.950 . S
C677 C668 1.390 . S
C677 H670 0.950 . S
C677 C674 1.387 . S
C678 C679 1.387 . S
C678 H682 0.950 . S
C678 C687 1.390 . S
C679 C678 1.387 . S
C679 C681 1.387 . S
H680 C687 0.950 . S
C681 C679 1.387 . S
C681 C683 1.390 . S
C681 H685 0.950 . S
H682 C678 0.950 . S
C683 C681 1.390 . S
C683 C684 1.387 . S
C683 H686 0.950 . S
C684 C683 1.387 . S
C684 C687 1.387 . S
H685 C681 0.950 . S
H686 C683 0.950 . S
C687 C678 1.390 . S
C687 H680 0.950 . S
C687 C684 1.387 . S
C688 C689 1.387 . S
C688 H692 0.950 . S
C688 C697 1.390 . S
C689 C688 1.387 . S
C689 C691 1.387 . S
H690 C697 0.950 . S
C691 C689 1.387 . S
C691 C693 1.390 . S
C691 H695 0.950 . S
H692 C688 0.950 . S
C693 C691 1.390 . S
C693 C694 1.387 . S
C693 H696 0.950 . S
C694 C693 1.387 . S
C694 C697 1.387 . S
H695 C691 0.950 . S
H696 C693 0.950 . S
C697 C688 1.390 . S
C697 H690 0.950 . S
C697 C694 1.387 . S
C698 C699 1.387 . S
C698 H702 0.950 . S
C698 C707 1.390 . S
C699 C698 1.387 . S
C699 C701 1.387 . S
H700 C707 0.950 . S
C701 C699 1.387 . S
C701 C703 1.390 . S
C701 H705 0.950 . S
H702 C698 0.950 . S
C703 C701 1.390 . S
C703 C704 1.387 . S
C703 H706 0.950 . S
C704 C703 1.387 . S
C704 C707 1.387 . S
H705 C701 0.950 . S
H706 C703 0.950 . S
C707 C698 1.390 . S
C707 H700 0.950 . S
C707 C704 1.387 . S
C708 C709 1.387 . S
C708 H712 0.950 . S
C708 C717 1.390 . S
C709 C708 1.387 . S
C709 C711 1.387 . S
H710 C717 0.950 . S
C711 C709 1.387 . S
C711 C713 1.390 . S
C711 H715 0.950 . S
H712 C708 0.950 . S
C713 C711 1.390 . S
C713 C714 1.387 . S
C713 H716 0.950 . S
C714 C713 1.387 . S
C714 C717 1.387 . S
H715 C711 0.950 . S
H716 C713 0.950 . S
C717 C708 1.390 . S
C717 H710 0.950 . S
C717 C714 1.387 . S
C718 C719 1.387 . S
C718 H722 0.950 . S
C718 C727 1.390 . S
C719 C718 1.387 . S
C719 C721 1.387 . S
H720 C727 0.950 . S
C721 C719 1.387 . S
C721 C723 1.390 . S
C721 H725 0.950 . S
H722 C718 0.950 . S
C723 C721 1.390 . S
C723 C724 1.387 . S
C723 H726 0.950 . S
C724 C723 1.387 . S
C724 C727 1.387 . S
H725 C721 0.950 . S
H726 C723 0.950 . S
C727 C718 1.390 . S
C727 H720 0.950 . S
C727 C724 1.387 . S
C728 C729 1.387 . S
C728 H732 0.950 . S
C728 C737 1.390 . S
C729 C728 1.387 . S
C729 C731 1.387 . S
H730 C737 0.950 . S
C731 C729 1.387 . S
C731 C733 1.390 . S
C731 H735 0.950 . S
H732 C728 0.950 . S
C733 C731 1.390 . S
C733 C734 1.387 . S
C733 H736 0.950 . S
C734 C733 1.387 . S
C734 C737 1.387 . S
H735 C731 0.950 . S
H736 C733 0.950 . S
C737 C728 1.390 . S
C737 H730 0.950 . S
C737 C734 1.387 . S
C738 C739 1.387 . S
C738 H742 0.950 . S
C738 C747 1.390 . S
C739 C738 1.387 . S
C739 C741 1.387 . S
H740 C747 0.950 . S
C741 C739 1.387 . S
C741 C743 1.390 . S
C741 H745 0.950 . S
H742 C738 0.950 . S
C743 C741 1.390 . S
C743 C744 1.387 . S
C743 H746 0.950 . S
C744 C743 1.387 . S
C744 C747 1.387 . S
H745 C741 0.950 . S
H746 C743 0.950 . S
C747 C738 1.390 . S
C747 H740 0.950 . S
C747 C744 1.387 . S
C748 C749 1.387 . S
C748 H752 0.950 . S
C748 C757 1.390 . S
C749 C748 1.387 . S
C749 C751 1.387 . S
H750 C757 0.950 . S
C751 C749 1.387 . S
C751 C753 1.390 . S
C751 H755 0.950 . S
H752 C748 0.950 . S
C753 C751 1.390 . S
C753 C754 1.387 . S
C753 H756 0.950 . S
C754 C753 1.387 . S
C754 C757 1.387 . S
H755 C751 0.950 . S
H756 C753 0.950 . S
C757 C748 1.390 . S
C757 H750 0.950 . S
C757 C754 1.387 . S
C758 C759 1.387 . S
C758 H762 0.950 . S
C758 C767 1.390 . S
C759 C758 1.387 . S
C759 C761 1.387 . S
H760 C767 0.950 . S
C761 C759 1.387 . S
C761 C763 1.390 . S
C761 H765 0.950 . S
H762 C758 0.950 . S
C763 C761 1.390 . S
C763 C764 1.387 . S
C763 H766 0.950 . S
C764 C763 1.387 . S
C764 C767 1.387 . S
H765 C761 0.950 . S
H766 C763 0.950 . S
C767 C758 1.390 . S
C767 H760 0.950 . S
C767 C764 1.387 . S
C768 C769 1.387 . S
C768 H772 0.950 . S
C768 C777 1.390 . S
C769 C768 1.387 . S
C769 C771 1.387 . S
H770 C777 0.950 . S
C771 C769 1.387 . S
C771 C773 1.390 . S
C771 H775 0.950 . S
H772 C768 0.950 . S
C773 C771 1.390 . S
C773 C774 1.387 . S
C773 H776 0.950 . S
C774 C773 1.387 . S
C774 C777 1.387 . S
H775 C771 0.950 . S
H776 C773 0.950 . S
C777 C768 1.390 . S
C777 H770 0.950 . S
C777 C774 1.387 . S
C778 C779 1.387 . S
C778 H782 0.950 . S
C778 C787 1.390 . S
C779 C778 1.387 . S
C779 C781 1.387 . S
H780 C787 0.950 . S
C781 C779 1.387 . S
C781 C783 1.390 . S
C781 H785 0.950 . S
H782 C778 0.950 . S
C783 C781 1.390 . S
C783 C784 1.387 . S
C783 H786 0.950 . S
C784 C783 1.387 . S
C784 C787 1.387 . S
H785 C781 0.950 . S
H786 C783 0.950 . S
C787 C778 1.390 . S
C787 H780 0.950 . S
C787 C784 1.387 . S
C788 C789 1.387 . S
C788 H792 0.950 . S
C788 C797 1.390 . S
C789 C788 1.387 . S
C789 C791 1.387 . S
H790 C797 0.950 . S
C791 C789 1.387 . S
C791 C793 1.390 . S
C791 H795 0.950 . S
H792 C788 0.950 . S
C793 C791 1.390 . S
C793 C794 1.387 . S
C793 H796 0.950 . S
C794 C793 1.387 . S
C794 C797 1.387 . S
H795 C791 0.950 . S
H796 C793 0.950 . S
C797 C788 1.390 . S
C797 H790 0.950 . S
C797 C794 1.387 . S
C798 C799 1.387 . S
C798 H802 0.950 . S
C798 C807 1.390 . S
C799 C798 1.387 . S
C799 C801 1.387 . S
H800 C807 0.950 . S
C801 C799 1.387 . S
C801 C803 1.390 . S
C801 H805 0.950 . S
H802 C798 0.950 . S
C803 C801 1.390 . S
C803 C804 1.387 . S
C803 H806 0.950 . S
C804 C803 1.387 . S
C804 C807 1.387 . S
H805 C801 0.950 . S
H806 C803 0.950 . S
C807 C798 1.390 . S
C807 H800 0.950 . S
C807 C804 1.387 . S
C808 C809 1.387 . S
C808 H812 0.950 . S
C808 C817 1.390 . S
C809 C808 1.387 . S
C809 C811 1.387 . S
H810 C817 0.950 . S
C811 C809 1.387 . S
C811 C813 1.390 . S
C811 H815 0.950 . S
H812 C808 0.950 . S
C813 C811 1.390 . S
C813 C814 1.387 . S
C813 H816 0.950 . S
C814 C813 1.387 . S
C814 C817 1.387 . S
H815 C811 0.950 . S
H816 C813 0.950 . S
C817 C808 1.390 . S
C817 H810 0.950 . S
C817 C814 1.387 . S
C818 C819 1.387 . S
C818 H822 0.950 . S
C818 C827 1.390 . S
C819 C818 1.387 . S
C819 C821 1.387 . S
H820 C827 0.950 . S
C821 C819 1.387 . S
C821 C823 1.390 . S
C821 H825 0.950 . S
H822 C818 0.950 . S
C823 C821 1.390 . S
C823 C824 1.387 . S
C823 H826 0.950 . S
C824 C823 1.387 . S
C824 C827 1.387 . S
H825 C821 0.950 . S
H826 C823 0.950 . S
C827 C818 1.390 . S
C827 H820 0.950 . S
C827 C824 1.387 . S
C828 C829 1.387 . S
C828 H832 0.950 . S
C828 C837 1.390 . S
C829 C828 1.387 . S
C829 C831 1.387 . S
H830 C837 0.950 . S
C831 C829 1.387 . S
C831 C833 1.390 . S
C831 H835 0.950 . S
H832 C828 0.950 . S
C833 C831 1.390 . S
C833 C834 1.387 . S
C833 H836 0.950 . S
C834 C833 1.387 . S
C834 C837 1.387 . S
H835 C831 0.950 . S
H836 C833 0.950 . S
C837 C828 1.390 . S
C837 H830 0.950 . S
C837 C834 1.387 . S
C838 C839 1.387 . S
C838 H842 0.950 . S
C838 C847 1.390 . S
C839 C838 1.387 . S
C839 C841 1.387 . S
H840 C847 0.950 . S
C841 C839 1.387 . S
C841 C843 1.390 . S
C841 H845 0.950 . S
H842 C838 0.950 . S
C843 C841 1.390 . S
C843 C844 1.387 . S
C843 H846 0.950 . S
C844 C843 1.387 . S
C844 C847 1.387 . S
H845 C841 0.950 . S
H846 C843 0.950 . S
C847 C838 1.390 . S
C847 H840 0.950 . S
C847 C844 1.387 . S
C848 C849 1.387 . S
C848 H852 0.950 . S
C848 C857 1.390 . S
C849 C848 1.387 . S
C849 C851 1.387 . S
H850 C857 0.950 . S
C851 C849 1.387 . S
C851 C853 1.390 . S
C851 H855 0.950 . S
H852 C848 0.950 . S
C853 C851 1.390 . S
C853 C854 1.387 . S
C853 H856 0.950 . S
C854 C853 1.387 . S
C854 C857 1.387 . S
H855 C851 0.950 . S
H856 C853 0.950 . S
C857 C848 1.390 . S
C857 H850 0.950 . S
C857 C854 1.387 . S
C858 C859 1.387 . S
C858 H862 0.950 . S
C858 C867 1.390 . S
C859 C858 1.387 . S
C859 C861 1.387 . S
H860 C867 0.950 . S
C861 C859 1.387 . S
C861 C863 1.390 . S
C861 H865 0.950 . S
H862 C858 0.950 . S
C863 C861 1.390 . S
C863 C864 1.387 . S
C863 H866 0.950 . S
C864 C863 1.387 . S
C864 C867 1.387 . S
H865 C861 0.950 . S
H866 C863 0.950 . S
C867 C858 1.390 . S
C867 H860 0.950 . S
C867 C864 1.387 . S
C868 C869 1.387 . S
C868 H872 0.950 . S
C868 C877 1.390 . S
C869 C868 1.387 . S
C869 C871 1.387 . S
H870 C877 0.950 . S
C871 C869 1.387 . S
C871 C873 1.390 . S
C871 H875 0.950 . S
H872 C868 0.950 . S
C873 C871 1.390 . S
C873 C874 1.387 . S
C873 H876 0.950 . S
C874 C873 1.387 . S
C874 C877 1.387 . S
H875 C871 0.950 . S
H876 C873 0.950 . S
C877 C868 1.390 . S
C877 H870 0.950 . S
C877 C874 1.387 . S
C878 C879 1.387 . S
C878 H882 0.950 . S
C878 C887 1.390 . S
C879 C878 1.387 . S
C879 C881 1.387 . S
H880 C887 0.950 . S
C881 C879 1.387 . S
C881 C883 1.390 . S
C881 H885 0.950 . S
H882 C878 0.950 . S
C883 C881 1.390 . S
C883 C884 1.387 . S
C883 H886 0.950 . S
C884 C883 1.387 . S
C884 C887 1.387 . S
H885 C881 0.950 . S
H886 C883 0.950 . S
C887 C878 1.390 . S
C887 H880 0.950 . S
C887 C884 1.387 . S
C888 C889 1.387 . S
C888 H892 0.950 . S
C888 C897 1.390 . S
C889 C888 1.387 . S
C889 C891 1.387 . S
H890 C897 0.950 . S
C891 C889 1.387 . S
C891 C893 1.390 . S
C891 H895 0.950 . S
H892 C888 0.950 . S
C893 C891 1.390 . S
C893 C894 1.387 . S
C893 H896 0.950 . S
C894 C893 1.387 . S
C894 C897 1.387 . S
H895 C891 0.950 . S
H896 C893 0.950 . S
C897 C888 1.390 . S
C897 H890 0.950 . S
C897 C894 1.387 . S
C898 C899 1.387 . S
C898 H902 0.950 . S
C898 C907 1.390 . S
C899 C898 1.387 . S
C899 C901 1.387 . S
H900 C907 0.950 . S
C901 C899 1.387 . S
C901 C903 1.390 . S
C901 H905 0.950 . S
H902 C898 0.950 . S
C903 C901 1.390 . S
C903 C904 1.387 . S
C903 H906 0.950 . S
C904 C903 1.387 . S
C904 C907 1.387 . S
H905 C901 0.950 . S
H906 C903 0.950 . S
C907 C898 1.390 . S
C907 H900 0.950 . S
C907 C904 1.387 . S
C908 C909 1.387 . S
C908 H912 0.950 . S
C908 C917 1.390 . S
C909 C908 1.387 . S
C909 C911 1.387 . S
H910 C917 0.950 . S
C911 C909 1.387 . S
C911 C913 1.390 . S
C911 H915 0.950 . S
H912 C908 0.950 . S
C913 C911 1.390 . S
C913 C914 1.387 . S
C913 H916 0.950 . S
C914 C913 1.387 . S
C914 C917 1.387 . S
H915 C911 0.950 . S
H916 C913 0.950 . S
C917 C908 1.390 . S
C917 H910 0.950 . S
C917 C914 1.387 . S
C918 C919 1.387 . S
C918 H922 0.950 . S
C918 C927 1.390 . S
C919 C918 1.387 . S
C919 C921 1.387 . S
H920 C927 0.950 . S
C921 C919 1.387 . S
C921 C923 1.390 . S
C921 H925 0.950 . S
H922 C918 0.950 . S
C923 C921 1.390 . S
C923 C924 1.387 . S
C923 H926 0.950 . S
C924 C923 1.387 . S
C924 C927 1.387 . S
H925 C921 0.950 . S
H926 C923 0.950 . S
C927 C918 1.390 . S
C927 H920 0.950 . S
C927 C924 1.387 . S
C928 C929 1.387 . S
C928 H932 0.950 1_455 S
C928 C937 1.390 . S
C929 C928 1.387 . S
C929 C931 1.387 . S
H930 C937 0.950 1_655 S
C931 C929 1.387 . S
C931 C933 1.390 . S
C931 H935 0.950 . S
H932 C928 0.950 1_655 S
C933 C931 1.390 . S
C933 C934 1.387 . S
C933 H936 0.950 . S
C934 C933 1.387 . S
C934 C937 1.387 . S
H935 C931 0.950 . S
H936 C933 0.950 . S
C937 C928 1.390 . S
C937 H930 0.950 1_455 S
C937 C934 1.387 . S
C938 C939 1.387 . S
C938 H942 0.950 . S
C938 C947 1.390 . S
C939 C938 1.387 . S
C939 C941 1.387 . S
H940 C947 0.950 . S
C941 C939 1.387 . S
C941 C943 1.390 . S
C941 H945 0.950 . S
H942 C938 0.950 . S
C943 C941 1.390 . S
C943 C944 1.387 . S
C943 H946 0.950 . S
C944 C943 1.387 . S
C944 C947 1.387 . S
H945 C941 0.950 . S
H946 C943 0.950 . S
C947 C938 1.390 . S
C947 H940 0.950 . S
C947 C944 1.387 . S
C948 C949 1.387 . S
C948 H952 0.950 . S
C948 C957 1.390 . S
C949 C948 1.387 . S
C949 C951 1.387 . S
H950 C957 0.950 . S
C951 C949 1.387 . S
C951 C953 1.390 . S
C951 H955 0.950 . S
H952 C948 0.950 . S
C953 C951 1.390 . S
C953 C954 1.387 . S
C953 H956 0.950 . S
C954 C953 1.387 . S
C954 C957 1.387 . S
H955 C951 0.950 . S
H956 C953 0.950 . S
C957 C948 1.390 . S
C957 H950 0.950 . S
C957 C954 1.387 . S
C958 C959 1.387 . S
C958 H962 0.950 . S
C958 C967 1.390 1_556 S
C959 C958 1.387 . S
C959 C961 1.387 . S
H960 C967 0.950 . S
C961 C959 1.387 . S
C961 C963 1.390 1_556 S
C961 H965 0.950 . S
H962 C958 0.950 . S
C963 C961 1.390 1_554 S
C963 C964 1.387 . S
C963 H966 0.950 . S
C964 C963 1.387 . S
C964 C967 1.387 . S
H965 C961 0.950 . S
H966 C963 0.950 . S
C967 C958 1.390 1_554 S
C967 H960 0.950 . S
C967 C964 1.387 . S
C968 C969 1.387 . S
C968 H972 0.950 1_655 S
C968 C977 1.390 . S
C969 C968 1.387 . S
C969 C971 1.387 . S
H970 C977 0.950 1_455 S
C971 C969 1.387 . S
C971 C973 1.390 . S
C971 H975 0.950 . S
H972 C968 0.950 1_455 S
C973 C971 1.390 . S
C973 C974 1.387 . S
C973 H976 0.950 . S
C974 C973 1.387 . S
C974 C977 1.387 . S
H975 C971 0.950 . S
H976 C973 0.950 . S
C977 C968 1.390 . S
C977 H970 0.950 1_655 S
C977 C974 1.387 . S
C978 C979 1.387 . S
C978 H982 0.950 . S
C978 C987 1.390 . S
C979 C978 1.387 . S
C979 C981 1.387 . S
H980 C987 0.950 . S
C981 C979 1.387 . S
C981 C983 1.390 . S
C981 H985 0.950 . S
H982 C978 0.950 . S
C983 C981 1.390 . S
C983 C984 1.387 . S
C983 H986 0.950 . S
C984 C983 1.387 . S
C984 C987 1.387 . S
H985 C981 0.950 . S
H986 C983 0.950 . S
C987 C978 1.390 . S
C987 H980 0.950 . S
C987 C984 1.387 . S
C988 C989 1.387 . S
C988 H992 0.950 . S
C988 C997 1.390 . S
C989 C988 1.387 . S
C989 C991 1.387 . S
H990 C997 0.950 . S
C991 C989 1.387 . S
C991 C993 1.390 . S
C991 H995 0.950 . S
H992 C988 0.950 . S
C993 C991 1.390 . S
C993 C994 1.387 . S
C993 H996 0.950 . S
C994 C993 1.387 . S
C994 C997 1.387 . S
H995 C991 0.950 . S
H996 C993 0.950 . S
C997 C988 1.390 . S
C997 H990 0.950 . S
C997 C994 1.387 . S
C998 C999 1.387 . S
C998 H1002 0.950 . S
C998 C1007 1.390 1_554 S
C999 C998 1.387 . S
C999 C1001 1.387 . S
H1000 C1007 0.950 . S
C1001 C999 1.387 . S
C1001 C1003 1.390 1_554 S
C1001 H1005 0.950 . S
H1002 C998 0.950 . S
C1003 C1001 1.390 1_556 S
C1003 C1004 1.387 . S
C1003 H1006 0.950 . S
C1004 C1003 1.387 . S
C1004 C1007 1.387 . S
H1005 C1001 0.950 . S
H1006 C1003 0.950 . S
C1007 C998 1.390 1_556 S
C1007 H1000 0.950 . S
C1007 C1004 1.387 . S
C1008 C1009 1.387 . S
C1008 H1012 0.950 . S
C1008 C1017 1.390 1_565 S
C1009 C1008 1.387 . S
C1009 C1011 1.387 . S
H1010 C1017 0.950 . S
C1011 C1009 1.387 . S
C1011 C1013 1.390 1_565 S
C1011 H1015 0.950 . S
H1012 C1008 0.950 . S
C1013 C1011 1.390 1_545 S
C1013 C1014 1.387 . S
C1013 H1016 0.950 . S
C1014 C1013 1.387 . S
C1014 C1017 1.387 . S
H1015 C1011 0.950 . S
H1016 C1013 0.950 . S
C1017 C1008 1.390 1_545 S
C1017 H1010 0.950 . S
C1017 C1014 1.387 . S
C1018 C1019 1.387 . S
C1018 H1022 0.950 . S
C1018 C1027 1.390 1_554 S
C1019 C1018 1.387 . S
C1019 C1021 1.387 . S
H1020 C1027 0.950 . S
C1021 C1019 1.387 . S
C1021 C1023 1.390 1_554 S
C1021 H1025 0.950 . S
H1022 C1018 0.950 . S
C1023 C1021 1.390 1_556 S
C1023 C1024 1.387 . S
C1023 H1026 0.950 . S
C1024 C1023 1.387 . S
C1024 C1027 1.387 . S
H1025 C1021 0.950 . S
H1026 C1023 0.950 . S
C1027 C1018 1.390 1_556 S
C1027 H1020 0.950 . S
C1027 C1024 1.387 . S
C1028 C1029 1.387 . S
C1028 H1032 0.950 . S
C1028 C1037 1.390 1_545 S
C1029 C1028 1.387 . S
C1029 C1031 1.387 . S
H1030 C1037 0.950 . S
C1031 C1029 1.387 . S
C1031 C1033 1.390 1_545 S
C1031 H1035 0.950 1_655 S
H1032 C1028 0.950 . S
C1033 C1031 1.390 1_565 S
C1033 C1034 1.387 . S
C1033 H1036 0.950 1_655 S
C1034 C1033 1.387 . S
C1034 C1037 1.387 . S
H1035 C1031 0.950 1_455 S
H1036 C1033 0.950 1_455 S
C1037 C1028 1.390 1_565 S
C1037 H1030 0.950 . S
C1037 C1034 1.387 . S
C1038 C1039 1.387 . S
C1038 H1042 0.950 . S
C1038 C1047 1.390 . S
C1039 C1038 1.387 . S
C1039 C1041 1.387 . S
H1040 C1047 0.950 . S
C1041 C1039 1.387 . S
C1041 C1043 1.390 . S
C1041 H1045 0.950 . S
H1042 C1038 0.950 . S
C1043 C1041 1.390 . S
C1043 C1044 1.387 . S
C1043 H1046 0.950 . S
C1044 C1043 1.387 . S
C1044 C1047 1.387 . S
H1045 C1041 0.950 . S
H1046 C1043 0.950 . S
C1047 C1038 1.390 . S
C1047 H1040 0.950 . S
C1047 C1044 1.387 . S
C1048 C1049 1.387 . S
C1048 H1052 0.950 . S
C1048 C1057 1.390 1_545 S
C1049 C1048 1.387 . S
C1049 C1051 1.387 . S
H1050 C1057 0.950 . S
C1051 C1049 1.387 . S
C1051 C1053 1.390 1_545 S
C1051 H1055 0.950 . S
H1052 C1048 0.950 . S
C1053 C1051 1.390 1_565 S
C1053 C1054 1.387 . S
C1053 H1056 0.950 . S
C1054 C1053 1.387 . S
C1054 C1057 1.387 . S
H1055 C1051 0.950 . S
H1056 C1053 0.950 . S
C1057 C1048 1.390 1_565 S
C1057 H1050 0.950 . S
C1057 C1054 1.387 . S
C1058 C1059 1.387 . S
C1058 H1062 0.950 . S
C1058 C1067 1.390 1_554 S
C1059 C1058 1.387 . S
C1059 C1061 1.387 . S
H1060 C1067 0.950 . S
C1061 C1059 1.387 . S
C1061 C1063 1.390 1_554 S
C1061 H1065 0.950 . S
H1062 C1058 0.950 . S
C1063 C1061 1.390 1_556 S
C1063 C1064 1.387 . S
C1063 H1066 0.950 . S
C1064 C1063 1.387 . S
C1064 C1067 1.387 . S
H1065 C1061 0.950 . S
H1066 C1063 0.950 . S
C1067 C1058 1.390 1_556 S
C1067 H1060 0.950 . S
C1067 C1064 1.387 . S
C1068 C1069 1.387 . S
C1068 H1072 0.950 1_455 S
C1068 C1077 1.390 1_545 S
C1069 C1068 1.387 . S
C1069 C1071 1.387 . S
H1070 C1077 0.950 1_655 S
C1071 C1069 1.387 . S
C1071 C1073 1.390 1_545 S
C1071 H1075 0.950 . S
H1072 C1068 0.950 1_655 S
C1073 C1071 1.390 1_565 S
C1073 C1074 1.387 . S
C1073 H1076 0.950 . S
C1074 C1073 1.387 . S
C1074 C1077 1.387 . S
H1075 C1071 0.950 . S
H1076 C1073 0.950 . S
C1077 C1068 1.390 1_565 S
C1077 H1070 0.950 1_455 S
C1077 C1074 1.387 . S
C1078 C1079 1.387 . S
C1078 H1082 0.950 . S
C1078 C1087 1.390 . S
C1079 C1078 1.387 . S
C1079 C1081 1.387 . S
H1080 C1087 0.950 . S
C1081 C1079 1.387 . S
C1081 C1083 1.390 . S
C1081 H1085 0.950 . S
H1082 C1078 0.950 . S
C1083 C1081 1.390 . S
C1083 C1084 1.387 . S
C1083 H1086 0.950 . S
C1084 C1083 1.387 . S
C1084 C1087 1.387 . S
H1085 C1081 0.950 . S
H1086 C1083 0.950 . S
C1087 C1078 1.390 . S
C1087 H1080 0.950 . S
C1087 C1084 1.387 . S
C449 C13 1.370 . S
C454 C307 1.368 . S
C459 C321 1.371 . S
C464 C27 1.373 . S
C469 C41 1.370 . S
C474 C335 1.368 . S
C479 C293 1.371 . S
C484 C55 1.368 . S
C489 C69 1.371 . S
C494 C279 1.368 . S
C499 C83 1.368 . S
C504 C237 1.370 . S
C509 C251 1.373 . S
C514 C97 1.372 . S
C519 C111 1.368 . S
C524 C265 1.369 . S
C529 C125 1.369 . S
C534 C419 1.373 . S
C539 C139 1.368 . S
C544 C433 1.370 . S
C549 C447 1.373 . S
C554 C153 1.370 . S
C559 C405 1.368 . S
C564 C167 1.370 . S
C569 C181 1.370 . S
C574 C391 1.373 . S
C579 C349 1.373 . S
C584 C195 1.369 . S
C589 C209 1.371 . S
C594 C363 1.368 . S
C599 C377 1.371 . S
C604 C223 1.368 . S
C609 C8 1.185 . S
C614 C133 1.206 . S
C619 C22 1.187 . S
C624 C371 1.204 . S
C629 C161 1.207 . S
C634 C36 1.183 . S
C639 C50 1.183 . S
C644 C343 1.207 . S
C649 C64 1.183 . S
C654 C217 1.207 . S
C659 C399 1.207 . S
C664 C78 1.183 . S
C669 C189 1.207 . S
C674 C92 1.184 . S
C679 C427 1.207 . S
C684 C106 1.183 . S
C689 C120 1.187 . S
C694 C21 1.204 . S
C699 C259 1.205 . S
C704 C134 1.186 . S
C709 C49 1.205 . S
C714 C148 1.187 . S
C719 C162 1.183 . S
C724 C231 1.207 . S
C729 C105 1.206 . S
C734 C176 1.185 . S
C739 C287 1.207 . S
C744 C190 1.183 . S
C749 C77 1.204 . S
C754 C204 1.187 . S
C759 C218 1.183 . S
C764 C315 1.207 . S
C769 C357 1.207 . S
C774 C232 1.183 . S
C779 C147 1.204 . S
C784 C246 1.187 . S
C789 C385 1.205 . S
C794 C260 1.186 . S
C799 C274 1.187 . S
C804 C119 1.204 . S
C809 C441 1.204 . S
C814 C288 1.187 . S
C819 C175 1.207 . S
C824 C302 1.183 . S
C829 C413 1.207 . S
C834 C316 1.184 . S
C839 C330 1.187 . S
C844 C203 1.204 . S
C849 C344 1.187 . S
C854 C245 1.205 . S
C859 C35 1.207 . S
C864 C358 1.183 . S
C869 C372 1.185 . S
C874 C273 1.206 . S
C879 C386 1.183 . S
C884 C7 1.207 . S
C889 C400 1.183 . S
C894 C329 1.207 . S
C899 C63 1.205 . S
C904 C414 1.186 . S
C909 C301 1.206 . S
C914 C428 1.185 . S
C919 C442 1.187 . S
C924 C91 1.204 . S
C929 C11 1.355 . S
C934 C67 1.355 . S
C939 C25 1.356 . S
C944 C81 1.356 . S
C949 C95 1.356 . S
C954 C39 1.356 . S
C959 C109 1.355 . S
C964 C53 1.355 . S
C969 C179 1.356 . S
C974 C123 1.356 . S
C979 C193 1.355 . S
C984 C137 1.355 . S
C989 C207 1.355 . S
C994 C151 1.355 . S
C999 C221 1.356 . S
C1004 C165 1.356 . S
C1009 C235 1.355 . S
C1014 C291 1.355 . S
C1019 C249 1.355 . S
C1024 C305 1.355 . S
C1029 C263 1.356 . S
C1034 C319 1.356 . S
C1039 C333 1.355 . S
C1044 C277 1.355 . S
C1049 C347 1.356 . S
C1054 C403 1.356 . S
C1059 C417 1.355 . S
C1064 C361 1.355 . S
C1069 C431 1.356 . S
C1074 C375 1.356 . S
C1079 C445 1.355 . S
C1084 C389 1.355 . S
