# Generated by pormake.
# Topology ukk, (4)-cn, num edge types: 1
# Building blocks:
#     Node 0, Type 0, BuildingBlock: MUDLON_clean_sbu_0, # of connection points: 4
#     Node 1, Type 0, BuildingBlock: MUDLON_clean_sbu_0, # of connection points: 4
#     Node 2, Type 0, BuildingBlock: MUDLON_clean_sbu_0, # of connection points: 4
#     Node 3, Type 0, BuildingBlock: MUDLON_clean_sbu_0, # of connection points: 4
#     Node 4, Type 0, BuildingBlock: MUDLON_clean_sbu_0, # of connection points: 4
#     Node 5, Type 0, BuildingBlock: MUDLON_clean_sbu_0, # of connection points: 4
#     Node 6, Type 0, BuildingBlock: MUDLON_clean_sbu_0, # of connection points: 4
#     Node 7, Type 0, BuildingBlock: MUDLON_clean_sbu_0, # of connection points: 4
#     Node 8, Type 0, BuildingBlock: MUDLON_clean_sbu_0, # of connection points: 4
#     Node 9, Type 0, BuildingBlock: MUDLON_clean_sbu_0, # of connection points: 4
#     Node 10, Type 0, BuildingBlock: MUDLON_clean_sbu_0, # of connection points: 4
#     Node 11, Type 0, BuildingBlock: MUDLON_clean_sbu_0, # of connection points: 4
#     Node 12, Type 0, BuildingBlock: MUDLON_clean_sbu_0, # of connection points: 4
#     Node 13, Type 0, BuildingBlock: MUDLON_clean_sbu_0, # of connection points: 4
#     Node 14, Type 0, BuildingBlock: MUDLON_clean_sbu_0, # of connection points: 4
#     Node 15, Type 0, BuildingBlock: MUDLON_clean_sbu_0, # of connection points: 4
#     Edge 16, Type (0, 0), BuildingBlock: EZIPEK_clean_linker_0, # of connection points: 2
#     Edge 17, Type (0, 0), BuildingBlock: EZIPEK_clean_linker_0, # of connection points: 2
#     Edge 18, Type (0, 0), BuildingBlock: EZIPEK_clean_linker_0, # of connection points: 2
#     Edge 19, Type (0, 0), BuildingBlock: EZIPEK_clean_linker_0, # of connection points: 2
#     Edge 20, Type (0, 0), BuildingBlock: EZIPEK_clean_linker_0, # of connection points: 2
#     Edge 21, Type (0, 0), BuildingBlock: EZIPEK_clean_linker_0, # of connection points: 2
#     Edge 22, Type (0, 0), BuildingBlock: EZIPEK_clean_linker_0, # of connection points: 2
#     Edge 23, Type (0, 0), BuildingBlock: EZIPEK_clean_linker_0, # of connection points: 2
#     Edge 24, Type (0, 0), BuildingBlock: EZIPEK_clean_linker_0, # of connection points: 2
#     Edge 25, Type (0, 0), BuildingBlock: EZIPEK_clean_linker_0, # of connection points: 2
#     Edge 26, Type (0, 0), BuildingBlock: EZIPEK_clean_linker_0, # of connection points: 2
#     Edge 27, Type (0, 0), BuildingBlock: EZIPEK_clean_linker_0, # of connection points: 2
#     Edge 28, Type (0, 0), BuildingBlock: EZIPEK_clean_linker_0, # of connection points: 2
#     Edge 29, Type (0, 0), BuildingBlock: EZIPEK_clean_linker_0, # of connection points: 2
#     Edge 30, Type (0, 0), BuildingBlock: EZIPEK_clean_linker_0, # of connection points: 2
#     Edge 31, Type (0, 0), BuildingBlock: EZIPEK_clean_linker_0, # of connection points: 2
#     Edge 32, Type (0, 0), BuildingBlock: EZIPEK_clean_linker_0, # of connection points: 2
#     Edge 33, Type (0, 0), BuildingBlock: EZIPEK_clean_linker_0, # of connection points: 2
#     Edge 34, Type (0, 0), BuildingBlock: EZIPEK_clean_linker_0, # of connection points: 2
#     Edge 35, Type (0, 0), BuildingBlock: EZIPEK_clean_linker_0, # of connection points: 2
#     Edge 36, Type (0, 0), BuildingBlock: EZIPEK_clean_linker_0, # of connection points: 2
#     Edge 37, Type (0, 0), BuildingBlock: EZIPEK_clean_linker_0, # of connection points: 2
#     Edge 38, Type (0, 0), BuildingBlock: EZIPEK_clean_linker_0, # of connection points: 2
#     Edge 39, Type (0, 0), BuildingBlock: EZIPEK_clean_linker_0, # of connection points: 2
#     Edge 40, Type (0, 0), BuildingBlock: EZIPEK_clean_linker_0, # of connection points: 2
#     Edge 41, Type (0, 0), BuildingBlock: EZIPEK_clean_linker_0, # of connection points: 2
#     Edge 42, Type (0, 0), BuildingBlock: EZIPEK_clean_linker_0, # of connection points: 2
#     Edge 43, Type (0, 0), BuildingBlock: EZIPEK_clean_linker_0, # of connection points: 2
#     Edge 44, Type (0, 0), BuildingBlock: EZIPEK_clean_linker_0, # of connection points: 2
#     Edge 45, Type (0, 0), BuildingBlock: EZIPEK_clean_linker_0, # of connection points: 2
#     Edge 46, Type (0, 0), BuildingBlock: EZIPEK_clean_linker_0, # of connection points: 2
#     Edge 47, Type (0, 0), BuildingBlock: EZIPEK_clean_linker_0, # of connection points: 2
# Relax obj value: 0.000
# Max RMSD: 0.074
# Mean RMSD: 0.074
data_MOF--net-ukk--node1-MUDLON_clean_sbu_0--edge1-EZIPEK_clean_linker_0
_symmetry_space_group_name_H-M    P1
_symmetry_Int_Tables_number       1
_symmetry_cell_setting            triclinic
loop_
_symmetry_equiv_pos_as_xyz
'x, y, z'
_cell_length_a     44.409136
_cell_length_b     44.607326
_cell_length_c     7.0557132
_cell_angle_alpha  90.071398
_cell_angle_beta   89.855701
_cell_angle_gamma 90.157882
loop_
_atom_site_label
_atom_site_type_symbol
_atom_site_fract_x
_atom_site_fract_y
_atom_site_fract_z
_atom_type_partial_charge
Mg0 Mg 0.39257 0.13075 0.14162 0.0
C1 C 0.38696 0.19578 0.07329 0.0
O2 O 0.38201 0.18376 0.90611 0.0
C3 C 0.3996 0.07276 0.32969 0.0
O4 O 0.40997 0.06883 0.15701 0.0
C5 C 0.33269 0.10416 0.96728 0.0
O6 O 0.34268 0.07753 0.01474 0.0
O7 O 0.3498 0.12697 0.98552 0.0
O8 O 0.39228 0.17858 0.21369 0.0
O9 O 0.43788 0.12133 0.0245 0.0
C10 C 0.45568 0.1413 0.95955 0.0
O11 O 0.44489 0.16779 0.91743 0.0
O12 O 0.39 0.09863 0.37686 0.0
Mg13 Mg 0.13675 0.63643 0.88998 0.0
C14 C 0.20299 0.62531 0.78958 0.0
O15 O 0.19484 0.59726 0.8125 0.0
C16 C 0.085 0.64718 0.58794 0.0
O17 O 0.09897 0.67204 0.54057 0.0
C18 C 0.13259 0.70169 0.95745 0.0
O19 O 0.14296 0.70004 0.78336 0.0
O20 O 0.12721 0.67755 0.04845 0.0
O21 O 0.18284 0.64558 0.78899 0.0
O22 O 0.14005 0.59472 0.0557 0.0
C23 C 0.13151 0.57112 0.96882 0.0
O24 O 0.11994 0.57379 0.7987 0.0
O25 O 0.09691 0.62961 0.70824 0.0
Mg26 Mg 0.63824 0.89655 0.15527 0.0
C27 C 0.64231 0.83019 0.08433 0.0
O28 O 0.64397 0.84089 0.91118 0.0
C29 C 0.63151 0.95399 0.3366 0.0
O30 O 0.62245 0.95718 0.16084 0.0
C31 C 0.70321 0.89203 -0.00086 0.0
O32 O 0.69973 0.86425 0.05521 0.0
O33 O 0.68046 0.90963 0.00306 0.0
O34 O 0.64 0.84846 0.22293 0.0
O35 O 0.59087 0.90544 0.06984 0.0
C36 C 0.57342 0.89096 0.95936 0.0
O37 O 0.58455 0.8699 0.84993 0.0
O38 O 0.64035 0.92826 0.39175 0.0
Mg39 Mg 0.89736 0.38953 0.93241 0.0
C40 C 0.83022 0.36766 0.92023 0.0
O41 O 0.84161 0.34117 0.95581 0.0
C42 C 0.94754 0.40669 0.64698 0.0
O43 O 0.93675 0.43376 0.67264 0.0
C44 C 0.90556 0.3254 0.00707 0.0
O45 O 0.90084 0.32748 0.82367 0.0
O46 O 0.90641 0.34956 0.10392 0.0
O47 O 0.8479 0.38957 0.88397 0.0
O48 O 0.90508 0.4342 0.05947 0.0
C49 C 0.89079 0.45524 0.97685 0.0
O50 O 0.87236 0.4481 0.83856 0.0
O51 O 0.93267 0.38446 0.71196 0.0
Mg52 Mg 0.38281 0.38965 0.01856 0.0
C53 C 0.38667 0.32574 0.08546 0.0
O54 O 0.39283 0.33844 0.24897 0.0
C55 C 0.38639 0.44911 0.84405 0.0
O56 O 0.39595 0.45275 0.01845 0.0
C57 C 0.32402 0.41399 0.21112 0.0
O58 O 0.3318 0.44011 0.14054 0.0
O59 O 0.34253 0.39218 0.20255 0.0
O60 O 0.38116 0.34232 0.94257 0.0
O61 O 0.43066 0.39421 0.09956 0.0
C62 C 0.44792 0.39636 0.24324 0.0
O63 O 0.43635 0.39751 0.41454 0.0
O64 O 0.37787 0.42309 0.79159 0.0
Mg65 Mg 0.39795 0.63283 0.79365 0.0
C66 C 0.33127 0.65154 0.86194 0.0
O67 O 0.34104 0.67859 0.82206 0.0
C68 C 0.4495 0.64036 0.10737 0.0
O69 O 0.43371 0.66185 0.1864 0.0
C70 C 0.40459 0.6995 0.74974 0.0
O71 O 0.40041 0.6968 0.93317 0.0
O72 O 0.40514 0.67588 0.64739 0.0
O73 O 0.35025 0.63041 0.88419 0.0
O74 O 0.39858 0.59151 0.62508 0.0
C75 C 0.38989 0.56975 0.72913 0.0
O76 O 0.38218 0.5753 0.90551 0.0
O77 O 0.43846 0.62551 0.96946 0.0
Mg78 Mg 0.64376 0.63456 0.10735 0.0
C79 C 0.64668 0.70045 0.16935 0.0
O80 O 0.64439 0.68991 0.34273 0.0
C81 C 0.64546 0.57567 0.96012 0.0
O82 O 0.65206 0.57533 0.14152 0.0
C83 C 0.70981 0.63877 0.23415 0.0
O84 O 0.70677 0.66579 0.16345 0.0
O85 O 0.68655 0.62198 0.24789 0.0
O86 O 0.64763 0.68195 0.03154 0.0
O87 O 0.5978 0.62619 0.2243 0.0
C88 C 0.57822 0.64688 0.2446 0.0
O89 O 0.58699 0.67491 0.23686 0.0
O90 O 0.64141 0.601 0.88107 0.0
Mg91 Mg 0.63431 0.38655 0.8476 0.0
C92 C 0.70106 0.38543 0.03709 0.0
O93 O 0.6914 0.39871 0.19189 0.0
C94 C 0.57515 0.40401 0.03355 0.0
O95 O 0.58282 0.42885 0.94689 0.0
C96 C 0.62206 0.324 0.75161 0.0
O97 O 0.61543 0.32597 0.93277 0.0
O98 O 0.62851 0.34792 0.66099 0.0
O99 O 0.68257 0.37851 0.90649 0.0
O100 O 0.63229 0.43247 0.73273 0.0
C101 C 0.64913 0.45179 0.81384 0.0
O102 O 0.66854 0.44265 0.94057 0.0
O103 O 0.59421 0.38259 0.03766 0.0
Mg104 Mg 0.89286 0.63298 0.59835 0.0
C105 C 0.88214 0.69827 0.53611 0.0
O106 O 0.87006 0.68626 0.38412 0.0
C107 C 0.89883 0.57508 0.79052 0.0
O108 O 0.90947 0.57067 0.61893 0.0
C109 C 0.83306 0.60562 0.42368 0.0
O110 O 0.84319 0.57893 0.46862 0.0
O111 O 0.85003 0.62848 0.44365 0.0
O112 O 0.89296 0.68113 0.6638 0.0
O113 O 0.9383 0.62396 0.4813 0.0
C114 C 0.95634 0.64562 0.44778 0.0
O115 O 0.9456 0.67294 0.44455 0.0
O116 O 0.88987 0.60127 0.83576 0.0
Mg117 Mg 0.6343 0.13731 0.39497 0.0
C118 C 0.70244 0.14488 0.24344 0.0
O119 O 0.69305 0.15924 0.0924 0.0
C120 C 0.58351 0.15011 0.11311 0.0
O121 O 0.59187 0.17788 0.14388 0.0
C122 C 0.63705 0.20385 0.44737 0.0
O123 O 0.655 0.19996 0.3015 0.0
O124 O 0.62475 0.18101 0.52444 0.0
O125 O 0.68357 0.13478 0.36339 0.0
O126 O 0.62717 0.09699 0.56463 0.0
C127 C 0.63709 0.07483 0.46915 0.0
O128 O 0.64978 0.08004 0.30401 0.0
O129 O 0.60008 0.12901 0.1746 0.0
Mg130 Mg 0.14107 0.39151 0.67795 0.0
C131 C 0.14216 0.32587 0.64923 0.0
O132 O 0.13577 0.33497 0.47688 0.0
C133 C 0.14906 0.4518 0.85579 0.0
O134 O 0.15979 0.45553 0.68376 0.0
C135 C 0.20314 0.38446 0.48081 0.0
O136 O 0.19914 0.3562 0.5249 0.0
O137 O 0.18175 0.40306 0.50859 0.0
O138 O 0.14649 0.34547 0.77807 0.0
O139 O 0.09494 0.38876 0.55963 0.0
C140 C 0.07727 0.41088 0.53653 0.0
O141 O 0.08825 0.43818 0.54963 0.0
O142 O 0.1394 0.42591 0.9026 0.0
Mg143 Mg 0.3979 0.88858 0.45758 0.0
C144 C 0.33116 0.8732 0.31612 0.0
O145 O 0.34207 0.85118 0.21363 0.0
C146 C 0.44482 0.90269 0.11747 0.0
O147 O 0.42585 0.92155 0.03984 0.0
C148 C 0.40369 0.82327 0.49688 0.0
O149 O 0.40204 0.82779 0.31331 0.0
O150 O 0.40307 0.84586 0.60822 0.0
O151 O 0.3489 0.89081 0.40399 0.0
O152 O 0.40515 0.93156 0.60155 0.0
C153 C 0.39402 0.95276 0.50304 0.0
O154 O 0.37952 0.94599 0.34673 0.0
O155 O 0.4367 0.88742 0.2615 0.0
Mg156 Mg 0.88438 0.89343 0.56692 0.0
C157 C 0.89156 0.82788 0.59571 0.0
O158 O 0.90672 0.83796 0.74229 0.0
C159 C 0.89073 0.95268 0.39152 0.0
O160 O 0.90089 0.95587 0.56493 0.0
C161 C 0.82613 0.91998 0.75532 0.0
O162 O 0.83509 0.94581 0.68584 0.0
O163 O 0.84394 0.89755 0.74952 0.0
O164 O 0.87962 0.84662 0.48226 0.0
O165 O 0.9327 0.89567 0.64581 0.0
C166 C 0.94995 0.89741 0.78991 0.0
O167 O 0.9383 0.89977 0.96053 0.0
O168 O 0.88078 0.92712 0.3404 0.0
Mg169 Mg 0.89641 0.13684 0.35147 0.0
C170 C 0.82861 0.12388 0.41838 0.0
O171 O 0.837 0.09586 0.40099 0.0
C172 C 0.95137 0.14905 0.60171 0.0
O173 O 0.94422 0.17678 0.55945 0.0
C174 C 0.89133 0.20161 0.2208 0.0
O175 O 0.86344 0.19664 0.2743 0.0
O176 O 0.90995 0.17985 0.22079 0.0
O177 O 0.8487 0.14422 0.43116 0.0
O178 O 0.89614 0.09566 0.17679 0.0
C179 C 0.89814 0.07208 0.27823 0.0
O180 O 0.90092 0.07505 0.4625 0.0
O181 O 0.93331 0.12808 0.55486 0.0
Mg182 Mg 0.14262 0.13055 0.65168 0.0
C183 C 0.14594 0.19633 0.7287 0.0
O184 O 0.14653 0.18484 0.90009 0.0
C185 C 0.14677 0.072 0.491 0.0
O186 O 0.15364 0.07067 0.67178 0.0
C187 C 0.20899 0.13552 0.76917 0.0
O188 O 0.20538 0.16196 0.6913 0.0
O189 O 0.18589 0.11868 0.79105 0.0
O190 O 0.14472 0.17864 0.5865 0.0
O191 O 0.09649 0.12083 0.76096 0.0
C192 C 0.07736 0.14102 0.80498 0.0
O193 O 0.08693 0.16839 0.83582 0.0
O194 O 0.14153 0.09771 0.41971 0.0
Mg195 Mg 0.13431 0.8833 0.37611 0.0
C196 C 0.2039 0.88822 0.48631 0.0
O197 O 0.19818 0.91479 0.55756 0.0
C198 C 0.07817 0.89997 0.60335 0.0
O199 O 0.08737 0.92642 0.54743 0.0
C200 C 0.12605 0.8213 0.27766 0.0
O201 O 0.12849 0.82268 0.46305 0.0
O202 O 0.12587 0.84575 0.18354 0.0
O203 O 0.18226 0.87172 0.42925 0.0
O204 O 0.13064 0.93058 0.28031 0.0
C205 C 0.15171 0.94939 0.24646 0.0
O206 O 0.17934 0.93989 0.22371 0.0
O207 O 0.09528 0.87743 0.57406 0.0
C208 C 0.4261 0.99919 0.5162 0.0
C209 C 0.39799 0.98503 0.54985 0.0
C210 C 0.37191 0.03324 0.51842 0.0
C211 C 0.39948 0.04651 0.46003 0.0
N212 N 0.45349 0.04598 0.46997 0.0
N213 N 0.34648 0.98933 0.64824 0.0
C214 C 0.42687 0.03068 0.48314 0.0
C215 C 0.37169 1.00254 0.57452 0.0
N216 N 0.4516 0.98227 0.50203 0.0
N217 N 0.3458 0.04924 0.50745 0.0
H218 H 0.3463 0.96687 0.69014 0.0
H219 H 0.32697 1.00095 0.68355 0.0
H220 H 0.34541 0.07199 0.47479 0.0
H221 H 0.32447 0.03995 0.52564 0.0
H222 H 0.47221 0.99056 0.45463 0.0
H223 H 0.45188 0.9594 0.53212 0.0
H224 H 0.47439 0.03653 0.49868 0.0
H225 H 0.45419 0.0691 0.44718 0.0
C226 C 0.03177 0.65496 0.69463 0.0
C227 C 0.05202 0.6445 0.55288 0.0
C228 C 1.00915 0.63077 0.34807 0.0
C229 C 0.9891 0.64208 0.48785 0.0
N230 N 0.98018 0.6592 0.80714 0.0
N231 N 0.06116 0.6228 0.2459 0.0
C232 C 1.00016 0.6525 0.66503 0.0
C233 C 0.04101 0.6323 0.37996 0.0
N234 N 0.04289 0.66826 0.85514 0.0
N235 N 0.99751 0.61834 0.1868 0.0
H236 H 0.0844 0.62342 0.26722 0.0
H237 H 0.05539 0.61488 0.11228 0.0
H238 H 0.97438 0.61685 0.16249 0.0
H239 H 1.01022 0.60866 0.07922 0.0
H240 H 0.02983 0.6795 0.95472 0.0
H241 H 0.0658 0.66972 0.88569 0.0
H242 H 0.98626 0.66522 0.94411 0.0
H243 H 0.95694 0.65665 0.79327 0.0
C244 C 0.60588 0.99648 0.49751 0.0
C245 C 0.63311 0.98123 0.45695 0.0
C246 C 0.6615 0.02647 0.54008 0.0
C247 C 0.63453 0.04319 0.53187 0.0
N248 N 0.58039 0.04445 0.522 0.0
N249 N 0.68733 0.98133 0.44124 0.0
C250 C 0.60638 0.02819 0.52225 0.0
C251 C 0.66117 0.99582 0.48488 0.0
N252 N 0.57962 0.98054 0.50616 0.0
N253 N 0.6875 0.04048 0.59347 0.0
H254 H 0.68771 0.95916 0.39527 0.0
H255 H 0.70833 0.99176 0.43853 0.0
H256 H 0.68783 0.06306 0.63308 0.0
H257 H 0.7077 0.02924 0.61616 0.0
H258 H 0.55909 0.9897 0.54748 0.0
H259 H 0.57909 0.9573 0.48785 0.0
H260 H 0.55928 0.03542 0.49244 0.0
H261 H 0.58017 0.0675 0.54573 0.0
C262 C 0.0315 0.41497 0.74404 0.0
C263 C 0.04418 0.40617 0.56736 0.0
C264 C 0.99358 0.39192 0.45265 0.0
C265 C 0.98087 0.4036 0.6222 0.0
N266 N 0.9873 0.41905 0.94625 0.0
N267 N 0.03869 0.38333 0.26061 0.0
C268 C 0.9998 0.41317 0.77263 0.0
C269 C 0.02561 0.39338 0.42428 0.0
N270 N 0.05014 0.42444 0.88614 0.0
N271 N 0.9749 0.3793 0.3209 0.0
H272 H 0.0619 0.38415 0.2378 0.0
H273 H 0.027 0.37451 0.14595 0.0
H274 H 0.95159 0.37836 0.33903 0.0
H275 H 0.9821 0.3688 0.1974 0.0
H276 H 0.04301 0.43452 0.01109 0.0
H277 H 0.07344 0.42208 0.87954 0.0
H278 H 0.99905 0.42622 0.06501 0.0
H279 H 0.9647 0.41494 0.97699 0.0
C280 C 0.3582 0.49232 0.70453 0.0
C281 C 0.3853 0.47588 0.71894 0.0
C282 C 0.4148 0.52097 0.64623 0.0
C283 C 0.38813 0.53819 0.66219 0.0
N284 N 0.33426 0.54052 0.64451 0.0
N285 N 0.43719 0.47122 0.63233 0.0
C286 C 0.35966 0.52375 0.66849 0.0
C287 C 0.4129 0.4892 0.6642 0.0
N288 N 0.33143 0.47802 0.73545 0.0
N289 N 0.44197 0.53511 0.62871 0.0
H290 H 0.43569 0.44794 0.64508 0.0
H291 H 0.45763 0.47887 0.57813 0.0
H292 H 0.44381 0.55821 0.60907 0.0
H293 H 0.4626 0.52421 0.63893 0.0
H294 H 0.31076 0.48878 0.74685 0.0
H295 H 0.33019 0.45479 0.75016 0.0
H296 H 0.31259 0.53168 0.63868 0.0
H297 H 0.33533 0.56348 0.61618 0.0
C298 C 0.50237 0.65091 -0.00152 0.0
C299 C 0.48272 0.63917 0.13998 0.0
C300 C 0.52647 0.62805 0.34376 0.0
C301 C 0.54581 0.64056 0.20401 0.0
N302 N 0.55358 0.65728 0.88318 0.0
N303 N 0.47506 0.61695 0.44698 0.0
C304 C 0.53409 0.65 0.02676 0.0
C305 C 0.49454 0.62765 0.31252 0.0
N306 N 0.49061 0.66434 0.84072 0.0
N307 N 0.53887 0.61626 0.50425 0.0
H308 H 0.45184 0.61584 0.42557 0.0
H309 H 0.48134 0.60971 0.58104 0.0
H310 H 0.56206 0.61617 0.52797 0.0
H311 H 0.52679 0.60569 0.61141 0.0
H312 H 0.50322 0.67652 0.74302 0.0
H313 H 0.46764 0.6654 0.8123 0.0
H314 H 0.54705 0.66284 0.7464 0.0
H315 H 0.5769 0.65538 0.89547 0.0
C316 C 0.62515 0.49585 0.97218 0.0
C317 C 0.64113 0.48403 0.81444 0.0
C318 C 0.6531 0.53524 0.70953 0.0
C319 C 0.63754 0.54652 0.87035 0.0
N320 N 0.59831 0.53841 0.09994 0.0
N321 N 0.66386 0.49207 0.50848 0.0
C322 C 0.61974 0.52696 0.98124 0.0
C323 C 0.6527 0.50366 0.67336 0.0
N324 N 0.61712 0.47796 0.12123 0.0
N325 N 0.66948 0.55431 0.59864 0.0
H326 H 0.66412 0.46905 0.4814 0.0
H327 H 0.6704 0.5052 0.39355 0.0
H328 H 0.66891 0.57746 0.61749 0.0
H329 H 0.68417 0.54718 0.49266 0.0
H330 H 0.60823 0.48639 0.24728 0.0
H331 H 0.62203 0.45517 0.12772 0.0
H332 H 0.58311 0.52498 0.17441 0.0
H333 H 0.59376 0.56136 0.10623 0.0
C334 C 0.49101 0.41747 0.0564 0.0
C335 C 0.4812 0.39941 0.2094 0.0
C336 C 0.53439 0.38622 0.2674 0.0
C337 C 0.5429 0.40025 0.09407 0.0
N338 N 0.52539 0.42029 0.79435 0.0
N339 N 0.4941 0.36209 0.4442 0.0
C340 C 0.52008 0.41323 0.97987 0.0
C341 C 0.50304 0.38251 0.31146 0.0
N342 N 0.47313 0.43973 0.98783 0.0
N343 N 0.55591 0.37742 0.39307 0.0
H344 H 0.47158 0.35797 0.47677 0.0
H345 H 0.50896 0.34725 0.50884 0.0
H346 H 0.57885 0.38075 0.36947 0.0
H347 H 0.55083 0.36942 0.52812 0.0
H348 H 0.48084 0.45514 0.88767 0.0
H349 H 0.45259 0.44526 0.05016 0.0
H350 H 0.50839 0.42772 0.70411 0.0
H351 H 0.54539 0.41499 0.72456 0.0
C352 C 0.92354 0.50187 -0.00318 0.0
C353 C 0.89504 0.48783 0.02088 0.0
C354 C 0.86974 0.53628 0.97688 0.0
C355 C 0.89773 0.54904 0.92245 0.0
N356 N 0.95157 0.54823 0.94517 0.0
N357 N 0.84308 0.49315 0.10734 0.0
C358 C 0.92479 0.53313 0.95498 0.0
C359 C 0.86882 0.50575 0.0366 0.0
N360 N 0.94915 0.48514 0.00415 0.0
N361 N 0.84396 0.55265 0.95985 0.0
H362 H 0.84245 0.47093 0.15384 0.0
H363 H 0.8235 0.50509 0.13621 0.0
H364 H 0.84416 0.57534 0.92546 0.0
H365 H 0.82241 0.54377 0.97524 0.0
H366 H 0.97024 0.49275 0.96072 0.0
H367 H 0.94923 0.46337 0.0559 0.0
H368 H 0.97228 0.53891 0.97986 0.0
H369 H 0.95259 0.57122 0.91769 0.0
C370 C 0.52981 0.15217 0.22164 0.0
C371 C 0.5509 0.14408 0.07842 0.0
C372 C 0.50929 0.12829 0.86953 0.0
C373 C 0.48835 0.13917 0.00544 0.0
N374 N 0.4776 0.15968 0.31453 0.0
N375 N 0.56188 0.12282 0.77309 0.0
C376 C 0.49837 0.15039 0.18327 0.0
C377 C 0.54095 0.13132 0.90481 0.0
N378 N 0.54004 0.16083 0.39644 0.0
N379 N 0.49868 0.11517 0.70752 0.0
H380 H 0.58499 0.12477 0.79646 0.0
H381 H 0.5568 0.11437 0.63978 0.0
H382 H 0.47571 0.11287 0.67986 0.0
H383 H 0.51211 0.10554 0.60327 0.0
H384 H 0.5264 0.16572 0.51205 0.0
H385 H 0.56279 0.16145 0.43236 0.0
H386 H 0.4827 0.17128 0.43818 0.0
H387 H 0.45449 0.15646 0.29844 0.0
C388 C 0.16676 0.5291 0.04354 0.0
C389 C 0.137 0.54031 0.04173 0.0
C390 C 0.11825 0.48859 0.0453 0.0
C391 C 0.14681 0.4787 0.98162 0.0
N392 N 0.19992 0.4885 0.95064 0.0
N393 N 0.08386 0.53066 0.0672 0.0
C394 C 0.17174 0.4986 0.99362 0.0
C395 C 0.11254 0.51994 0.05404 0.0
N396 N 0.18999 0.54754 0.09234 0.0
N397 N 0.09704 0.46828 0.10014 0.0
H398 H 0.07937 0.55348 0.08428 0.0
H399 H 0.06483 0.5171 0.05428 0.0
H400 H 0.10195 0.44554 0.11174 0.0
H401 H 0.0764 0.47438 0.15894 0.0
H402 H 0.21215 0.54032 0.10661 0.0
H403 H 0.18622 0.56924 0.14125 0.0
H404 H 0.21854 0.50254 0.9348 0.0
H405 H 0.20425 0.46592 0.92437 0.0
C406 C 0.49525 0.92612 0.02156 0.0
C407 C 0.47683 0.9002 0.04953 0.0
C408 C 0.52209 0.86873 0.02982 0.0
C409 C 0.53997 0.89412 0.98169 0.0
N410 N 0.54202 0.94633 0.89542 0.0
N411 N 0.47238 0.84637 0.0294 0.0
C412 C 0.52602 0.92261 0.96569 0.0
C413 C 0.49018 0.87137 0.03676 0.0
N414 N 0.4843 0.95405 0.06101 0.0
N415 N 0.53551 0.84255 0.08293 0.0
H416 H 0.44893 0.84743 0.0242 0.0
H417 H 0.48093 0.82492 0.00733 0.0
H418 H 0.55873 0.84038 0.097 0.0
H419 H 0.52355 0.82428 0.13641 0.0
H420 H 0.49779 0.97319 0.06277 0.0
H421 H 0.46261 0.95796 0.11113 0.0
H422 H 0.5322 0.96684 0.86214 0.0
H423 H 0.56449 0.94458 0.85351 0.0
C424 C 0.92001 0.99172 0.22045 0.0
C425 C 0.89156 0.97919 0.26403 0.0
C426 C 0.86802 0.02715 0.18579 0.0
C427 C 0.89656 0.04116 0.19993 0.0
N428 N 0.95042 0.03699 0.20052 0.0
N429 N 0.83762 0.98315 0.25773 0.0
C430 C 0.92287 0.02336 0.20292 0.0
C431 C 0.86516 0.99618 0.23256 0.0
N432 N 0.94408 0.97316 0.19758 0.0
N433 N 0.84393 0.0437 0.12955 0.0
H434 H 0.83525 0.96023 0.28233 0.0
H435 H 0.81746 0.99499 0.25837 0.0
H436 H 0.84662 0.06587 0.08627 0.0
H437 H 0.82254 0.03482 0.10647 0.0
H438 H 0.96514 0.98046 0.15125 0.0
H439 H 0.94179 0.94991 0.20789 0.0
H440 H 0.97056 0.02569 0.22409 0.0
H441 H 0.95275 0.06006 0.17984 0.0
C442 C 0.99175 0.12949 0.8242 0.0
C443 C 0.98355 0.14209 0.64651 0.0
C444 C 0.03717 0.1473 0.56016 0.0
C445 C 0.04533 0.13739 0.74433 0.0
N446 N 0.03199 0.1139 0.03859 0.0
N447 N 0.99768 0.16059 0.33752 0.0
C448 C 0.02302 0.12674 0.8723 0.0
C449 C 1.00613 0.15008 0.51177 0.0
N450 N 0.96956 0.12124 0.94853 0.0
N451 N 0.05936 0.15337 0.43038 0.0
H452 H 0.97552 0.16001 0.28926 0.0
H453 H 1.01219 0.17018 0.23897 0.0
H454 H 0.08222 0.15065 0.459 0.0
H455 H 0.05573 0.1596 0.29058 0.0
H456 H 0.9733 0.11306 0.08419 0.0
H457 H 0.94672 0.12305 0.91661 0.0
H458 H 0.01754 0.10445 0.13809 0.0
H459 H 0.05466 0.11149 0.07405 0.0
C460 C 0.15695 1.00451 0.16045 0.0
C461 C 0.14679 0.98184 0.28756 0.0
C462 C 0.12609 0.02058 0.49458 0.0
C463 C 0.14122 0.04308 0.39008 0.0
N464 N 0.17108 0.05679 0.11797 0.0
N465 N 0.13058 0.97008 0.60657 0.0
C466 C 0.15631 0.03526 0.21922 0.0
C467 C 0.13338 0.99026 0.46224 0.0
N468 N 0.16713 0.99669 0.98451 0.0
N469 N 0.10536 0.02829 0.62922 0.0
H470 H 0.13989 0.94867 0.60095 0.0
H471 H 0.12228 0.97582 0.74004 0.0
H472 H 0.09899 0.05052 0.6525 0.0
H473 H 0.09224 1.01245 0.7005 0.0
H474 H 0.17204 1.01221 0.87865 0.0
H475 H 0.1684 0.97445 0.93946 0.0
H476 H 0.18585 0.05208 0.00704 0.0
H477 H 0.16929 0.07947 0.15005 0.0
C478 C 1.00403 0.88058 0.86348 0.0
C479 C 0.98343 0.89847 0.75788 0.0
C480 C 0.02405 0.91088 0.53616 0.0
C481 C 0.04554 0.89653 0.65332 0.0
N482 N 0.05631 0.87232 0.95045 0.0
N483 N 0.97812 0.93912 0.5355 0.0
C484 C 0.03567 0.88261 0.8236 0.0
C485 C 0.99469 0.91605 0.60627 0.0
N486 N 0.99361 0.86075 0.99556 0.0
N487 N 0.03121 0.91892 0.35468 0.0
H488 H 0.95741 0.94532 0.59282 0.0
H489 H 0.98711 0.95449 0.43942 0.0
H490 H 0.05191 0.91392 0.29216 0.0
H491 H 1.01525 0.92725 0.26021 0.0
H492 H 1.00748 0.8453 0.06308 0.0
H493 H 0.9708 0.85779 0.025 0.0
H494 H 0.05044 0.86543 0.08671 0.0
H495 H 0.07945 0.8732 0.92511 0.0
C496 C 0.35923 0.27668 0.04724 0.0
C497 C 0.38668 0.29252 0.07274 0.0
C498 C 0.41315 0.24513 0.13262 0.0
C499 C 0.38626 0.22904 0.09193 0.0
N500 N 0.33396 0.22897 -0.00074 0.0
N501 N 0.44053 0.29222 0.11157 0.0
C502 C 0.3594 0.24472 0.04526 0.0
C503 C 0.41383 0.27683 0.10865 0.0
N504 N 0.33278 0.2922 0.03428 0.0
N505 N 0.43808 0.23018 0.19444 0.0
H506 H 0.44195 0.31536 0.09179 0.0
H507 H 0.46153 0.28196 0.11643 0.0
H508 H 0.43898 0.20699 0.20688 0.0
H509 H 0.45719 0.2408 0.24747 0.0
H510 H 0.31162 0.28215 0.03798 0.0
H511 H 0.33177 0.31555 0.03293 0.0
H512 H 0.31497 0.23867 0.93906 0.0
H513 H 0.33218 0.20577 0.01394 0.0
C514 C 0.25088 0.62563 0.98 0.0
C515 C 0.23547 0.63355 0.81048 0.0
C516 C 0.28273 0.65304 0.676 0.0
C517 C 0.29832 0.64476 0.8448 0.0
N518 N 0.29821 0.6201 0.14863 0.0
N519 N 0.23504 0.65957 0.51202 0.0
C520 C 0.28267 0.63 0.9938 0.0
C521 C 0.25089 0.64888 0.66347 0.0
N522 N 0.23458 0.61618 0.13367 0.0
N523 N 0.29877 0.66259 0.52147 0.0
H524 H 0.21216 0.65533 0.49215 0.0
H525 H 0.24388 0.67415 0.41115 0.0
H526 H 0.32221 0.66279 0.51654 0.0
H527 H 0.28934 0.66754 0.39059 0.0
H528 H 0.24371 0.61158 0.26594 0.0
H529 H 0.21112 0.6157 0.13531 0.0
H530 H 0.2893 0.60567 0.25012 0.0
H531 H 0.32076 0.62528 0.17322 0.0
C532 C 0.62181 0.77872 0.01602 0.0
C533 C 0.643 0.79705 0.1133 0.0
C534 C 0.66701 0.75191 0.24384 0.0
C535 C 0.64666 0.73356 0.13903 0.0
N536 N 0.60631 0.72944 0.91015 0.0
N537 N 0.68787 0.80133 0.3038 0.0
C538 C 0.62472 0.74695 0.01964 0.0
C539 C 0.66599 0.78372 0.22452 0.0
N540 N 0.59764 0.79169 0.92902 0.0
N541 N 0.68759 0.7389 0.36181 0.0
H542 H 0.68749 0.82463 0.30058 0.0
H543 H 0.70753 0.79305 0.36389 0.0
H544 H 0.69213 0.716 0.36195 0.0
H545 H 0.6996 0.75057 0.46476 0.0
H546 H 0.57919 0.77982 0.87743 0.0
H547 H 0.59456 0.81474 0.92258 0.0
H548 H 0.59347 0.73775 0.7988 0.0
H549 H 0.60474 0.70627 0.92202 0.0
C550 C 0.74879 0.39394 0.84592 0.0
C551 C 0.73408 0.38076 0.00546 0.0
C552 C 0.78294 0.36224 0.11827 0.0
C553 C 0.79715 0.37274 0.94935 0.0
N554 N 0.79244 0.39462 0.6385 0.0
N555 N 0.7364 0.34761 0.27438 0.0
C556 C 0.77976 0.38757 0.80953 0.0
C557 C 0.75097 0.36351 0.13606 0.0
N558 N 0.73357 0.41351 0.73241 0.0
N559 N 0.80006 0.35243 0.26651 0.0
H560 H 0.71306 0.34779 0.29114 0.0
H561 H 0.74704 0.33201 0.36082 0.0
H562 H 0.82348 0.35371 0.26752 0.0
H563 H 0.79117 0.34613 0.39716 0.0
H564 H 0.74395 0.42658 0.62885 0.0
H565 H 0.71098 0.41879 0.75151 0.0
H566 H 0.78013 0.40235 0.52314 0.0
H567 H 0.81481 0.39 0.60466 0.0
C568 C 0.89876 0.74816 0.40438 0.0
C569 C 0.88421 0.73153 0.551 0.0
C570 C 0.87336 0.77833 0.72207 0.0
C571 C 0.88721 0.79497 0.57312 0.0
N572 N 0.91001 0.79651 0.26259 0.0
N573 N 0.85324 0.7307 0.83197 0.0
C574 C 0.89875 0.7801 0.41062 0.0
C575 C 0.87049 0.74658 0.706 0.0
N576 N 0.91402 0.73336 0.26391 0.0
N577 N 0.86263 0.79298 0.8787 0.0
H578 H 0.85011 0.70757 0.8233 0.0
H579 H 0.83998 0.74045 0.93686 0.0
H580 H 0.86096 0.81625 0.8874 0.0
H581 H 0.85637 0.78225 0.00368 0.0
H582 H 0.92809 0.74381 0.16598 0.0
H583 H 0.91461 0.71013 0.25181 0.0
H584 H 0.91517 0.78751 0.13037 0.0
H585 H 0.91268 0.81971 0.26666 0.0
C586 C 0.7852 0.12296 0.19069 0.0
C587 C 0.79695 0.13209 0.36914 0.0
C588 C 0.74794 0.15441 0.44906 0.0
C589 C 0.73529 0.14157 0.28211 0.0
N590 N 0.74105 0.11046 0.00464 0.0
N591 N 0.78953 0.15571 0.67253 0.0
C592 C 0.75372 0.12503 0.15543 0.0
C593 C 0.77836 0.14779 0.49924 0.0
N594 N 0.80445 0.11358 0.05134 0.0
N595 N 0.73116 0.1738 0.55595 0.0
H596 H 0.81191 0.15216 0.71087 0.0
H597 H 0.77631 0.16394 0.78285 0.0
H598 H 0.70909 0.17963 0.52196 0.0
H599 H 0.73977 0.18617 0.66869 0.0
H600 H 0.79766 0.10787 0.91496 0.0
H601 H 0.82779 0.11464 0.06567 0.0
H602 H 0.7527 0.09535 0.91935 0.0
H603 H 0.71813 0.11145 0.97361 0.0
C604 C 0.11752 0.2755 0.63181 0.0
C605 C 0.14257 0.2931 0.68919 0.0
C606 C 0.16916 0.24727 0.78447 0.0
C607 C 0.14548 0.22956 0.70618 0.0
N608 N 0.09818 0.22702 0.53735 0.0
N609 N 0.19359 0.29583 0.80538 0.0
C610 C 0.12008 0.24374 0.62343 0.0
C611 C 0.16866 0.27905 0.76344 0.0
N612 N 0.0906 0.28916 0.59514 0.0
N613 N 0.19225 0.23377 0.87938 0.0
H614 H 0.19396 0.31913 0.80047 0.0
H615 H 0.21461 0.28665 0.83413 0.0
H616 H 0.19517 0.21065 0.88479 0.0
H617 H 0.20772 0.24545 0.96221 0.0
H618 H 0.07059 0.27752 0.5723 0.0
H619 H 0.08745 0.31225 0.60811 0.0
H620 H 0.0813 0.23627 0.45374 0.0
H621 H 0.09785 0.20371 0.5374 0.0
C622 C 0.24694 0.8881 0.25232 0.0
C623 C 0.23567 0.88034 0.43484 0.0
C624 C 0.28648 0.8646 0.5315 0.0
C625 C 0.29811 0.87486 0.35438 0.0
N626 N 0.29045 0.89792 0.05038 0.0
N627 N 0.2426 0.85591 0.73401 0.0
C628 C 0.27856 0.88692 0.21547 0.0
C629 C 0.25492 0.86708 0.57079 0.0
N630 N 0.22712 0.89553 0.11233 0.0
N631 N 0.30584 0.85282 0.66235 0.0
H632 H 0.21953 0.85673 0.762 0.0
H633 H 0.25448 0.84467 0.83866 0.0
H634 H 0.32875 0.84983 0.63621 0.0
H635 H 0.2998 0.84643 0.79879 0.0
H636 H 0.23317 0.9017 0.97556 0.0
H637 H 0.20394 0.89297 0.12808 0.0
H638 H 0.27825 0.90956 0.94889 0.0
H639 H 0.31336 0.89684 0.01797 0.0
C640 C 0.26405 0.12939 0.68119 0.0
C641 C 0.2403 0.12489 0.815 0.0
C642 C 0.27646 0.10068 0.03143 0.0
C643 C 0.30063 0.10858 0.90722 0.0
N644 N 0.31775 0.13108 0.61578 0.0
N645 N 0.2244 0.10895 0.12548 0.0
C646 C 0.29445 0.12319 0.73299 0.0
C647 C 0.24656 0.11074 0.99099 0.0
N648 N 0.25745 0.13815 0.50027 0.0
N649 N 0.28221 0.08474 0.1928 0.0
H650 H 0.2037 0.11963 0.11191 0.0
H651 H 0.22685 0.09901 0.25756 0.0
H652 H 0.30377 0.08007 0.24127 0.0
H653 H 0.26563 0.07483 0.27626 0.0
H654 H 0.27321 0.13946 0.39131 0.0
H655 H 0.23561 0.14136 0.45154 0.0
H656 H 0.31556 0.14562 0.50138 0.0
H657 H 0.33988 0.12417 0.63743 0.0
C658 C 0.10394 0.7804 0.0712 0.0
C659 C 0.12791 0.79138 0.1845 0.0
C660 C 0.15211 0.74187 0.17324 0.0
C661 C 0.12951 0.73166 0.04705 0.0
N662 N 0.08613 0.74218 0.8532 0.0
N663 N 0.17802 0.78464 0.30884 0.0
C664 C 0.10613 0.75129 0.98862 0.0
C665 C 0.15286 0.77263 0.22652 0.0
N666 N 0.07845 0.79713 0.05023 0.0
N667 N 0.17299 0.72223 0.24201 0.0
H668 H 0.18001 0.80734 0.34239 0.0
H669 H 0.19807 0.77292 0.3257 0.0
H670 H 0.17399 0.69979 0.20087 0.0
H671 H 0.18782 0.72754 0.3512 0.0
H672 H 0.0589 0.78917 0.98623 0.0
H673 H 0.07597 0.81825 0.11134 0.0
H674 H 0.07085 0.75656 0.78853 0.0
H675 H 0.08608 0.7206 0.79634 0.0
C676 C 0.73949 0.91501 0.76201 0.0
C677 C 0.73421 0.90265 0.9444 0.0
C678 C 0.78905 0.90433 0.00963 0.0
C679 C 0.79434 0.91588 0.82495 0.0
N680 N 0.77432 0.93634 0.53389 0.0
N681 N 0.7538 0.88459 0.24237 0.0
C682 C 0.76945 0.9227 0.70474 0.0
C683 C 0.759 0.89716 0.06846 0.0
N684 N 0.7162 0.91681 0.63609 0.0
N685 N 0.81277 0.90174 0.13218 0.0
H686 H 0.73235 0.88172 0.29946 0.0
H687 H 0.77046 0.87614 0.33043 0.0
H688 H 0.8347 0.90795 0.0965 0.0
H689 H 0.81097 0.89546 0.27348 0.0
H690 H 0.71896 0.92172 0.49332 0.0
H691 H 0.69406 0.91103 0.66896 0.0
H692 H 0.75744 0.94645 0.45461 0.0
H693 H 0.79547 0.93882 0.47259 0.0
C694 C 0.91727 0.24156 0.02101 0.0
C695 C 0.90113 0.23323 0.18643 0.0
C696 C 0.89184 0.28637 0.25839 0.0
C697 C 0.90813 0.2948 0.0927 0.0
N698 N 0.9455 0.28063 0.86077 0.0
N699 N 0.88385 0.24818 0.49695 0.0
C700 C 0.92387 0.2724 0.9887 0.0
C701 C 0.89193 0.25583 0.31631 0.0
N702 N 0.9249 0.22052 0.88895 0.0
N703 N 0.87463 0.30667 0.35482 0.0
H704 H 0.88477 0.22618 0.54656 0.0
H705 H 0.8798 0.264 0.60285 0.0
H706 H 0.87318 0.32923 0.31979 0.0
H707 H 0.85967 0.3005 0.46205 0.0
H708 H 0.93374 0.22609 0.75673 0.0
H709 H 0.92005 0.19779 0.90418 0.0
H710 H 0.95945 0.26528 0.79237 0.0
H711 H 0.95184 0.30295 0.84043 0.0
C712 C 0.25909 0.38945 0.53598 0.0
C713 C 0.23366 0.39476 0.4176 0.0
C714 C 0.26717 0.41485 0.16923 0.0
C715 C 0.29273 0.40884 0.28567 0.0
N716 N 0.31294 0.39525 0.58978 0.0
N717 N 0.21336 0.40897 0.11516 0.0
C718 C 0.28863 0.39725 0.47148 0.0
C719 C 0.23762 0.40707 0.23386 0.0
N720 N 0.25495 0.37649 0.70989 0.0
N721 N 0.27107 0.42784 0.99543 0.0
H722 H 0.19145 0.40361 0.15656 0.0
H723 H 0.21482 0.41382 0.97139 0.0
H724 H 0.29193 0.43034 0.93037 0.0
H725 H 0.2537 0.43701 0.91593 0.0
H726 H 0.27222 0.36807 0.79331 0.0
H727 H 0.23381 0.3732 0.77091 0.0
H728 H 0.31182 0.38915 0.73171 0.0
H729 H 0.33458 0.40184 0.54997 0.0
C730 C 0.42981 0.78043 0.66213 0.0
C731 C 0.40411 0.79187 0.56828 0.0
C732 C 0.38263 0.74107 0.55273 0.0
C733 C 0.40647 0.73022 0.66724 0.0
N734 N 0.45173 0.74019 0.84609 0.0
N735 N 0.3534 0.78418 0.4575 0.0
C736 C 0.42973 0.75014 0.72678 0.0
C737 C 0.37984 0.77244 0.52205 0.0
N738 N 0.45486 0.79801 0.68163 0.0
N739 N 0.36256 0.72157 0.47267 0.0
H740 H 0.35008 0.80713 0.44139 0.0
H741 H 0.33379 0.77162 0.44019 0.0
H742 H 0.3635 0.69848 0.49176 0.0
H743 H 0.34673 0.728 0.372 0.0
H744 H 0.47556 0.78982 0.72703 0.0
H745 H 0.45567 0.82033 0.63792 0.0
H746 H 0.467 0.75442 0.91319 0.0
H747 H 0.45376 0.71781 0.88628 0.0
C748 C 0.747 0.61246 0.45075 0.0
C749 C 0.74079 0.62719 0.27667 0.0
C750 C 0.79473 0.62499 0.19143 0.0
C751 C 0.80098 0.6101 0.36465 0.0
N752 N 0.78265 0.58579 0.64884 0.0
N753 N 0.75751 0.6404 0.96124 0.0
C754 C 0.77687 0.60216 0.48934 0.0
C755 C 0.76435 0.63151 0.14155 0.0
N756 N 0.72479 0.61011 0.58477 0.0
N757 N 0.81794 0.63297 0.07377 0.0
H758 H 0.73558 0.64389 0.91457 0.0
H759 H 0.77309 0.64143 0.85109 0.0
H760 H 0.84009 0.62603 0.09461 0.0
H761 H 0.81564 0.64761 0.96001 0.0
H762 H 0.7275 0.60044 0.71748 0.0
H763 H 0.70364 0.61984 0.56999 0.0
H764 H 0.76609 0.57592 0.73267 0.0
H765 H 0.80422 0.58061 0.69471 0.0
C766 C 0.64535 0.24223 0.70285 0.0
C767 C 0.63273 0.23457 0.52467 0.0
C768 C 0.61231 0.28556 0.49487 0.0
C769 C 0.6267 0.29378 0.66645 0.0
N770 N 0.66373 0.28207 0.90546 0.0
N771 N 0.60986 0.25088 0.23154 0.0
C772 C 0.64503 0.27266 0.76327 0.0
C773 C 0.61805 0.25686 0.41428 0.0
N774 N 0.65821 0.22061 0.81322 0.0
N775 N 0.59205 0.30454 0.41318 0.0
H776 H 0.61295 0.2301 0.16751 0.0
H777 H 0.60235 0.26729 0.13809 0.0
H778 H 0.58685 0.32546 0.46993 0.0
H779 H 0.5784 0.2985 0.29946 0.0
H780 H 0.66459 0.22427 0.95326 0.0
H781 H 0.66085 0.19843 0.76979 0.0
H782 H 0.6797 0.26835 0.96918 0.0
H783 H 0.66586 0.30448 0.94559 0.0
loop_
_geom_bond_atom_site_label_1
_geom_bond_atom_site_label_2
_geom_bond_distance
_geom_bond_site_symmetry_2
_ccdc_geom_bond_type
Mg0 O7 2.141 . S
Mg0 O8 2.048 . S
Mg0 O9 2.048 . S
Mg0 O12 2.141 . S
C1 O2 1.313 1_554 S
C1 O8 1.195 . S
O2 C1 1.313 1_556 S
C3 O4 1.245 1_554 S
C3 O12 1.289 . S
O4 C3 1.245 1_556 S
C5 O6 1.245 1_554 S
C5 O7 1.289 . S
O6 C5 1.245 1_556 S
O7 Mg0 2.141 . S
O7 C5 1.289 . S
O8 Mg0 2.048 . S
O8 C1 1.195 . S
O9 Mg0 2.048 . S
O9 C10 1.195 . S
C10 O9 1.195 . S
C10 O11 1.313 . S
O11 C10 1.313 . S
O12 Mg0 2.141 . S
O12 C3 1.289 . S
Mg13 O20 2.141 1_556 S
Mg13 O21 2.048 . S
Mg13 O22 2.048 . S
Mg13 O25 2.141 . S
C14 O15 1.313 . S
C14 O21 1.195 . S
O15 C14 1.313 . S
C16 O17 1.245 . S
C16 O25 1.289 . S
O17 C16 1.245 . S
C18 O19 1.245 . S
C18 O20 1.289 1_556 S
O19 C18 1.245 . S
O20 Mg13 2.141 1_554 S
O20 C18 1.289 1_554 S
O21 Mg13 2.048 . S
O21 C14 1.195 . S
O22 Mg13 2.048 . S
O22 C23 1.195 . S
C23 O22 1.195 . S
C23 O24 1.313 . S
O24 C23 1.313 . S
O25 Mg13 2.141 . S
O25 C16 1.289 . S
Mg26 O33 2.141 . S
Mg26 O34 2.048 . S
Mg26 O35 2.048 . S
Mg26 O38 2.141 . S
C27 O28 1.313 1_554 S
C27 O34 1.195 . S
O28 C27 1.313 1_556 S
C29 O30 1.245 1_554 S
C29 O38 1.289 . S
O30 C29 1.245 1_556 S
C31 O32 1.245 1_554 S
C31 O33 1.289 . S
O32 C31 1.245 1_556 S
O33 Mg26 2.141 . S
O33 C31 1.289 . S
O34 Mg26 2.048 . S
O34 C27 1.195 . S
O35 Mg26 2.048 . S
O35 C36 1.195 . S
C36 O35 1.195 . S
C36 O37 1.313 . S
O37 C36 1.313 . S
O38 Mg26 2.141 . S
O38 C29 1.289 . S
Mg39 O46 2.141 1_556 S
Mg39 O47 2.048 . S
Mg39 O48 2.048 . S
Mg39 O51 2.141 . S
C40 O41 1.313 . S
C40 O47 1.195 . S
O41 C40 1.313 . S
C42 O43 1.245 . S
C42 O51 1.289 . S
O43 C42 1.245 . S
C44 O45 1.245 . S
C44 O46 1.289 1_556 S
O45 C44 1.245 . S
O46 Mg39 2.141 1_554 S
O46 C44 1.289 1_554 S
O47 Mg39 2.048 . S
O47 C40 1.195 . S
O48 Mg39 2.048 . S
O48 C49 1.195 . S
C49 O48 1.195 . S
C49 O50 1.313 . S
O50 C49 1.313 . S
O51 Mg39 2.141 . S
O51 C42 1.289 . S
Mg52 O59 2.141 . S
Mg52 O60 2.048 . S
Mg52 O61 2.048 1_554 S
Mg52 O64 2.141 1_554 S
C53 O54 1.313 . S
C53 O60 1.195 . S
O54 C53 1.313 . S
C55 O56 1.245 . S
C55 O64 1.289 1_554 S
O56 C55 1.245 . S
C57 O58 1.245 . S
C57 O59 1.289 . S
O58 C57 1.245 . S
O59 Mg52 2.141 . S
O59 C57 1.289 . S
O60 Mg52 2.048 . S
O60 C53 1.195 . S
O61 Mg52 2.048 1_556 S
O61 C62 1.195 1_556 S
C62 O61 1.195 1_554 S
C62 O63 1.313 . S
O63 C62 1.313 . S
O64 Mg52 2.141 1_556 S
O64 C55 1.289 1_556 S
Mg65 O72 2.141 . S
Mg65 O73 2.048 . S
Mg65 O74 2.048 . S
Mg65 O77 2.141 . S
C66 O67 1.313 1_556 S
C66 O73 1.195 . S
O67 C66 1.313 1_554 S
C68 O69 1.245 1_556 S
C68 O77 1.289 . S
O69 C68 1.245 1_554 S
C70 O71 1.245 . S
C70 O72 1.289 . S
O71 C70 1.245 . S
O72 Mg65 2.141 . S
O72 C70 1.289 . S
O73 Mg65 2.048 . S
O73 C66 1.195 . S
O74 Mg65 2.048 . S
O74 C75 1.197 . S
C75 O74 1.197 . S
C75 O76 1.311 1_556 S
O76 C75 1.311 1_554 S
O77 Mg65 2.141 . S
O77 C68 1.289 . S
Mg78 O85 2.141 . S
Mg78 O86 2.048 . S
Mg78 O87 2.048 1_554 S
Mg78 O90 2.141 1_554 S
C79 O80 1.313 . S
C79 O86 1.195 . S
O80 C79 1.313 . S
C81 O82 1.245 . S
C81 O90 1.289 1_554 S
O82 C81 1.245 . S
C83 O84 1.245 . S
C83 O85 1.289 . S
O84 C83 1.245 . S
O85 Mg78 2.141 . S
O85 C83 1.289 . S
O86 Mg78 2.048 . S
O86 C79 1.195 . S
O87 Mg78 2.048 1_556 S
O87 C88 1.195 1_556 S
C88 O87 1.195 1_554 S
C88 O89 1.313 . S
O89 C88 1.313 . S
O90 Mg78 2.141 1_556 S
O90 C81 1.289 1_556 S
Mg91 O98 2.141 . S
Mg91 O99 2.048 . S
Mg91 O100 2.048 . S
Mg91 O103 2.141 . S
C92 O93 1.313 1_556 S
C92 O99 1.195 . S
O93 C92 1.313 1_554 S
C94 O95 1.245 1_556 S
C94 O103 1.289 . S
O95 C94 1.245 1_554 S
C96 O97 1.245 . S
C96 O98 1.289 . S
O97 C96 1.245 . S
O98 Mg91 2.141 . S
O98 C96 1.289 . S
O99 Mg91 2.048 . S
O99 C92 1.195 . S
O100 Mg91 2.048 . S
O100 C101 1.197 . S
C101 O100 1.197 . S
C101 O102 1.311 1_556 S
O102 C101 1.311 1_554 S
O103 Mg91 2.141 . S
O103 C94 1.289 . S
Mg104 O111 2.141 . S
Mg104 O112 2.048 . S
Mg104 O113 2.048 . S
Mg104 O116 2.141 . S
C105 O106 1.313 . S
C105 O112 1.195 . S
O106 C105 1.313 . S
C107 O108 1.245 . S
C107 O116 1.289 . S
O108 C107 1.245 . S
C109 O110 1.245 . S
C109 O111 1.289 . S
O110 C109 1.245 . S
O111 Mg104 2.141 . S
O111 C109 1.289 . S
O112 Mg104 2.048 . S
O112 C105 1.195 . S
O113 Mg104 2.048 . S
O113 C114 1.195 . S
C114 O113 1.195 . S
C114 O115 1.313 . S
O115 C114 1.313 . S
O116 Mg104 2.141 . S
O116 C107 1.289 . S
Mg117 O124 2.141 . S
Mg117 O125 2.048 . S
Mg117 O126 2.048 . S
Mg117 O129 2.141 . S
C118 O119 1.313 . S
C118 O125 1.195 . S
O119 C118 1.313 . S
C120 O121 1.245 . S
C120 O129 1.289 . S
O121 C120 1.245 . S
C122 O123 1.245 . S
C122 O124 1.289 . S
O123 C122 1.245 . S
O124 Mg117 2.141 . S
O124 C122 1.289 . S
O125 Mg117 2.048 . S
O125 C118 1.195 . S
O126 Mg117 2.048 . S
O126 C127 1.195 . S
C127 O126 1.195 . S
C127 O128 1.313 . S
O128 C127 1.313 . S
O129 Mg117 2.141 . S
O129 C120 1.289 . S
Mg130 O137 2.141 . S
Mg130 O138 2.048 . S
Mg130 O139 2.048 . S
Mg130 O142 2.141 . S
C131 O132 1.313 . S
C131 O138 1.195 . S
O132 C131 1.313 . S
C133 O134 1.245 . S
C133 O142 1.289 . S
O134 C133 1.245 . S
C135 O136 1.245 . S
C135 O137 1.289 . S
O136 C135 1.245 . S
O137 Mg130 2.141 . S
O137 C135 1.289 . S
O138 Mg130 2.048 . S
O138 C131 1.195 . S
O139 Mg130 2.048 . S
O139 C140 1.195 . S
C140 O139 1.195 . S
C140 O141 1.313 . S
O141 C140 1.313 . S
O142 Mg130 2.141 . S
O142 C133 1.289 . S
Mg143 O150 2.141 . S
Mg143 O151 2.048 . S
Mg143 O152 2.048 . S
Mg143 O155 2.141 . S
C144 O145 1.313 . S
C144 O151 1.195 . S
O145 C144 1.313 . S
C146 O147 1.245 . S
C146 O155 1.289 . S
O147 C146 1.245 . S
C148 O149 1.245 . S
C148 O150 1.289 . S
O149 C148 1.245 . S
O150 Mg143 2.141 . S
O150 C148 1.289 . S
O151 Mg143 2.048 . S
O151 C144 1.195 . S
O152 Mg143 2.048 . S
O152 C153 1.195 . S
C153 O152 1.195 . S
C153 O154 1.313 . S
O154 C153 1.313 . S
O155 Mg143 2.141 . S
O155 C146 1.289 . S
Mg156 O163 2.141 . S
Mg156 O164 2.048 . S
Mg156 O165 2.048 . S
Mg156 O168 2.141 . S
C157 O158 1.313 . S
C157 O164 1.195 . S
O158 C157 1.313 . S
C159 O160 1.245 . S
C159 O168 1.289 . S
O160 C159 1.245 . S
C161 O162 1.245 . S
C161 O163 1.289 . S
O162 C161 1.245 . S
O163 Mg156 2.141 . S
O163 C161 1.289 . S
O164 Mg156 2.048 . S
O164 C157 1.195 . S
O165 Mg156 2.048 . S
O165 C166 1.195 . S
C166 O165 1.195 . S
C166 O167 1.313 . S
O167 C166 1.313 . S
O168 Mg156 2.141 . S
O168 C159 1.289 . S
Mg169 O176 2.141 . S
Mg169 O177 2.048 . S
Mg169 O178 2.048 . S
Mg169 O181 2.141 . S
C170 O171 1.313 . S
C170 O177 1.195 . S
O171 C170 1.313 . S
C172 O173 1.245 . S
C172 O181 1.289 . S
O173 C172 1.245 . S
C174 O175 1.245 . S
C174 O176 1.289 . S
O175 C174 1.245 . S
O176 Mg169 2.141 . S
O176 C174 1.289 . S
O177 Mg169 2.048 . S
O177 C170 1.195 . S
O178 Mg169 2.048 . S
O178 C179 1.195 . S
C179 O178 1.195 . S
C179 O180 1.313 . S
O180 C179 1.313 . S
O181 Mg169 2.141 . S
O181 C172 1.289 . S
Mg182 O189 2.141 . S
Mg182 O190 2.048 . S
Mg182 O191 2.048 . S
Mg182 O194 2.141 . S
C183 O184 1.313 . S
C183 O190 1.195 . S
O184 C183 1.313 . S
C185 O186 1.245 . S
C185 O194 1.289 . S
O186 C185 1.245 . S
C187 O188 1.245 . S
C187 O189 1.289 . S
O188 C187 1.245 . S
O189 Mg182 2.141 . S
O189 C187 1.289 . S
O190 Mg182 2.048 . S
O190 C183 1.195 . S
O191 Mg182 2.048 . S
O191 C192 1.195 . S
C192 O191 1.195 . S
C192 O193 1.313 . S
O193 C192 1.313 . S
O194 Mg182 2.141 . S
O194 C185 1.289 . S
Mg195 O202 2.141 . S
Mg195 O203 2.048 . S
Mg195 O204 2.048 . S
Mg195 O207 2.141 . S
C196 O197 1.313 . S
C196 O203 1.195 . S
O197 C196 1.313 . S
C198 O199 1.245 . S
C198 O207 1.289 . S
O199 C198 1.245 . S
C200 O201 1.245 . S
C200 O202 1.289 . S
O201 C200 1.245 . S
O202 Mg195 2.141 . S
O202 C200 1.289 . S
O203 Mg195 2.048 . S
O203 C196 1.195 . S
O204 Mg195 2.048 . S
O204 C205 1.195 . S
C205 O204 1.195 . S
C205 O206 1.313 . S
O206 C205 1.313 . S
O207 Mg195 2.141 . S
O207 C198 1.289 . S
C208 C209 1.363 . S
C208 C214 1.379 1_565 S
C208 N216 1.356 . S
C209 C208 1.363 . S
C209 C215 1.363 . S
C210 C211 1.363 . S
C210 C215 1.379 1_545 S
C210 N217 1.356 . S
C211 C210 1.363 . S
C211 C214 1.363 . S
N212 C214 1.356 . S
N212 H224 0.984 . S
N212 H225 0.985 . S
N213 C215 1.356 . S
N213 H218 0.984 . S
N213 H219 0.985 . S
C214 C208 1.379 1_545 S
C214 C211 1.363 . S
C214 N212 1.356 . S
C215 C209 1.363 . S
C215 C210 1.379 1_565 S
C215 N213 1.356 . S
N216 C208 1.356 . S
N216 H222 0.984 . S
N216 H223 0.984 . S
N217 C210 1.356 . S
N217 H220 0.984 . S
N217 H221 0.985 . S
H218 N213 0.984 . S
H219 N213 0.985 . S
H220 N217 0.984 . S
H221 N217 0.985 . S
H222 N216 0.984 . S
H223 N216 0.984 . S
H224 N212 0.984 . S
H225 N212 0.985 . S
C226 C227 1.363 . S
C226 C232 1.379 1_455 S
C226 N234 1.356 . S
C227 C226 1.363 . S
C227 C233 1.363 . S
C228 C229 1.363 . S
C228 C233 1.379 1_655 S
C228 N235 1.356 . S
C229 C228 1.363 . S
C229 C232 1.363 . S
N230 C232 1.356 . S
N230 H242 0.984 1_556 S
N230 H243 0.985 . S
N231 C233 1.356 . S
N231 H236 0.984 . S
N231 H237 0.985 . S
C232 C226 1.379 1_655 S
C232 C229 1.363 . S
C232 N230 1.356 . S
C233 C227 1.363 . S
C233 C228 1.379 1_455 S
C233 N231 1.356 . S
N234 C226 1.356 . S
N234 H240 0.984 1_556 S
N234 H241 0.984 . S
N235 C228 1.356 . S
N235 H238 0.984 . S
N235 H239 0.985 . S
H236 N231 0.984 . S
H237 N231 0.985 . S
H238 N235 0.984 . S
H239 N235 0.985 . S
H240 N234 0.984 1_554 S
H241 N234 0.984 . S
H242 N230 0.984 1_554 S
H243 N230 0.985 . S
C244 C245 1.363 . S
C244 C250 1.379 1_565 S
C244 N252 1.356 . S
C245 C244 1.363 . S
C245 C251 1.363 . S
C246 C247 1.363 . S
C246 C251 1.379 1_545 S
C246 N253 1.356 1_554 S
C247 C246 1.363 . S
C247 C250 1.363 . S
N248 C250 1.356 . S
N248 H260 0.984 . S
N248 H261 0.985 . S
N249 C251 1.356 1_556 S
N249 H254 0.984 . S
N249 H255 0.985 . S
C250 C244 1.379 1_545 S
C250 C247 1.363 . S
C250 N248 1.356 . S
C251 C245 1.363 . S
C251 C246 1.379 1_565 S
C251 N249 1.356 1_554 S
N252 C244 1.356 . S
N252 H258 0.984 . S
N252 H259 0.984 . S
N253 C246 1.356 1_556 S
N253 H256 0.984 1_556 S
N253 H257 0.985 . S
H254 N249 0.984 . S
H255 N249 0.985 . S
H256 N253 0.984 1_554 S
H257 N253 0.985 . S
H258 N252 0.984 . S
H259 N252 0.984 . S
H260 N248 0.984 . S
H261 N248 0.985 . S
C262 C263 1.363 . S
C262 C268 1.379 1_455 S
C262 N270 1.356 . S
C263 C262 1.363 . S
C263 C269 1.363 . S
C264 C265 1.363 . S
C264 C269 1.379 1_655 S
C264 N271 1.356 . S
C265 C264 1.363 . S
C265 C268 1.363 . S
N266 C268 1.356 . S
N266 H278 0.984 1_556 S
N266 H279 0.985 . S
N267 C269 1.356 . S
N267 H272 0.984 . S
N267 H273 0.985 . S
C268 C262 1.379 1_655 S
C268 C265 1.363 . S
C268 N266 1.356 . S
C269 C263 1.363 . S
C269 C264 1.379 1_455 S
C269 N267 1.356 . S
N270 C262 1.356 . S
N270 H276 0.984 . S
N270 H277 0.984 . S
N271 C264 1.356 . S
N271 H274 0.984 . S
N271 H275 0.985 . S
H272 N267 0.984 . S
H273 N267 0.985 . S
H274 N271 0.984 . S
H275 N271 0.985 . S
H276 N270 0.984 . S
H277 N270 0.984 . S
H278 N266 0.984 1_554 S
H279 N266 0.985 . S
C280 C281 1.363 . S
C280 C286 1.379 . S
C280 N288 1.356 . S
C281 C280 1.363 . S
C281 C287 1.363 1_554 S
C282 C283 1.363 1_556 S
C282 C287 1.379 . S
C282 N289 1.356 . S
C283 C282 1.363 1_554 S
C283 C286 1.363 . S
N284 C286 1.356 . S
N284 H296 0.984 . S
N284 H297 0.985 . S
N285 C287 1.356 . S
N285 H290 0.984 . S
N285 H291 0.985 . S
C286 C280 1.379 . S
C286 C283 1.363 . S
C286 N284 1.356 . S
C287 C281 1.363 1_556 S
C287 C282 1.379 . S
C287 N285 1.356 . S
N288 C280 1.356 . S
N288 H294 0.984 . S
N288 H295 0.984 . S
N289 C282 1.356 . S
N289 H292 0.984 . S
N289 H293 0.985 . S
H290 N285 0.984 . S
H291 N285 0.985 . S
H292 N289 0.984 . S
H293 N289 0.985 . S
H294 N288 0.984 . S
H295 N288 0.984 . S
H296 N284 0.984 . S
H297 N284 0.985 . S
C298 C299 1.363 . S
C298 C304 1.379 . S
C298 N306 1.356 . S
C299 C298 1.363 . S
C299 C305 1.363 1_556 S
C300 C301 1.363 1_554 S
C300 C305 1.379 . S
C300 N307 1.356 . S
C301 C300 1.363 1_556 S
C301 C304 1.363 . S
N302 C304 1.356 . S
N302 H314 0.984 . S
N302 H315 0.985 . S
N303 C305 1.356 . S
N303 H308 0.984 . S
N303 H309 0.985 . S
C304 C298 1.379 . S
C304 C301 1.363 . S
C304 N302 1.356 . S
C305 C299 1.363 1_554 S
C305 C300 1.379 . S
C305 N303 1.356 . S
N306 C298 1.356 . S
N306 H312 0.984 . S
N306 H313 0.984 . S
N307 C300 1.356 . S
N307 H310 0.984 . S
N307 H311 0.985 . S
H308 N303 0.984 . S
H309 N303 0.985 . S
H310 N307 0.984 . S
H311 N307 0.985 . S
H312 N306 0.984 . S
H313 N306 0.984 . S
H314 N302 0.984 . S
H315 N302 0.985 . S
C316 C317 1.363 . S
C316 C322 1.379 . S
C316 N324 1.356 . S
C317 C316 1.363 . S
C317 C323 1.363 1_554 S
C318 C319 1.363 1_556 S
C318 C323 1.379 . S
C318 N325 1.356 . S
C319 C318 1.363 1_554 S
C319 C322 1.363 . S
N320 C322 1.356 . S
N320 H332 0.984 . S
N320 H333 0.985 . S
N321 C323 1.356 . S
N321 H326 0.984 . S
N321 H327 0.985 . S
C322 C316 1.379 . S
C322 C319 1.363 . S
C322 N320 1.356 . S
C323 C317 1.363 1_556 S
C323 C318 1.379 . S
C323 N321 1.356 . S
N324 C316 1.356 . S
N324 H330 0.984 . S
N324 H331 0.984 . S
N325 C318 1.356 . S
N325 H328 0.984 . S
N325 H329 0.985 . S
H326 N321 0.984 . S
H327 N321 0.985 . S
H328 N325 0.984 . S
H329 N325 0.985 . S
H330 N324 0.984 . S
H331 N324 0.984 . S
H332 N320 0.984 . S
H333 N320 0.985 . S
C334 C335 1.363 . S
C334 C340 1.379 . S
C334 N342 1.356 . S
C335 C334 1.363 . S
C335 C341 1.363 1_556 S
C336 C337 1.363 1_554 S
C336 C341 1.379 . S
C336 N343 1.356 . S
C337 C336 1.363 1_556 S
C337 C340 1.363 . S
N338 C340 1.356 . S
N338 H350 0.984 . S
N338 H351 0.985 . S
N339 C341 1.356 . S
N339 H344 0.984 . S
N339 H345 0.985 . S
C340 C334 1.379 . S
C340 C337 1.363 . S
C340 N338 1.356 . S
C341 C335 1.363 1_554 S
C341 C336 1.379 . S
C341 N339 1.356 . S
N342 C334 1.356 . S
N342 H348 0.984 . S
N342 H349 0.984 . S
N343 C336 1.356 . S
N343 H346 0.984 . S
N343 H347 0.985 . S
H344 N339 0.984 . S
H345 N339 0.985 . S
H346 N343 0.984 . S
H347 N343 0.985 . S
H348 N342 0.984 . S
H349 N342 0.984 . S
H350 N338 0.984 . S
H351 N338 0.985 . S
C352 C353 1.363 . S
C352 C358 1.379 . S
C352 N360 1.356 . S
C353 C352 1.363 . S
C353 C359 1.363 . S
C354 C355 1.363 . S
C354 C359 1.379 . S
C354 N361 1.356 . S
C355 C354 1.363 . S
C355 C358 1.363 . S
N356 C358 1.356 . S
N356 H368 0.984 . S
N356 H369 0.985 . S
N357 C359 1.356 . S
N357 H362 0.984 . S
N357 H363 0.985 1_556 S
C358 C352 1.379 . S
C358 C355 1.363 . S
C358 N356 1.356 . S
C359 C353 1.363 . S
C359 C354 1.379 . S
C359 N357 1.356 . S
N360 C352 1.356 . S
N360 H366 0.984 . S
N360 H367 0.984 . S
N361 C354 1.356 . S
N361 H364 0.984 . S
N361 H365 0.985 1_556 S
H362 N357 0.984 . S
H363 N357 0.985 1_554 S
H364 N361 0.984 . S
H365 N361 0.985 1_554 S
H366 N360 0.984 . S
H367 N360 0.984 . S
H368 N356 0.984 . S
H369 N356 0.985 . S
C370 C371 1.363 . S
C370 C376 1.379 . S
C370 N378 1.356 . S
C371 C370 1.363 . S
C371 C377 1.363 . S
C372 C373 1.363 . S
C372 C377 1.379 . S
C372 N379 1.356 . S
C373 C372 1.363 . S
C373 C376 1.363 . S
N374 C376 1.356 . S
N374 H386 0.984 . S
N374 H387 0.985 . S
N375 C377 1.356 . S
N375 H380 0.984 . S
N375 H381 0.985 1_554 S
C376 C370 1.379 . S
C376 C373 1.363 . S
C376 N374 1.356 . S
C377 C371 1.363 . S
C377 C372 1.379 . S
C377 N375 1.356 . S
N378 C370 1.356 . S
N378 H384 0.984 . S
N378 H385 0.984 . S
N379 C372 1.356 . S
N379 H382 0.984 . S
N379 H383 0.985 1_554 S
H380 N375 0.984 . S
H381 N375 0.985 1_556 S
H382 N379 0.984 . S
H383 N379 0.985 1_556 S
H384 N378 0.984 . S
H385 N378 0.984 . S
H386 N374 0.984 . S
H387 N374 0.985 . S
C388 C389 1.363 . S
C388 C394 1.379 . S
C388 N396 1.356 . S
C389 C388 1.363 . S
C389 C395 1.363 . S
C390 C391 1.363 . S
C390 C395 1.379 . S
C390 N397 1.356 . S
C391 C390 1.363 . S
C391 C394 1.363 . S
N392 C394 1.356 . S
N392 H404 0.984 1_556 S
N392 H405 0.985 . S
N393 C395 1.356 . S
N393 H398 0.984 . S
N393 H399 0.985 . S
C394 C388 1.379 . S
C394 C391 1.363 . S
C394 N392 1.356 . S
C395 C389 1.363 . S
C395 C390 1.379 . S
C395 N393 1.356 . S
N396 C388 1.356 . S
N396 H402 0.984 1_556 S
N396 H403 0.984 . S
N397 C390 1.356 . S
N397 H400 0.984 . S
N397 H401 0.985 . S
H398 N393 0.984 . S
H399 N393 0.985 . S
H400 N397 0.984 . S
H401 N397 0.985 . S
H402 N396 0.984 1_554 S
H403 N396 0.984 . S
H404 N392 0.984 1_554 S
H405 N392 0.985 . S
C406 C407 1.363 . S
C406 C412 1.379 . S
C406 N414 1.356 . S
C407 C406 1.363 . S
C407 C413 1.363 . S
C408 C409 1.363 . S
C408 C413 1.379 . S
C408 N415 1.356 . S
C409 C408 1.363 . S
C409 C412 1.363 . S
N410 C412 1.356 . S
N410 H422 0.984 . S
N410 H423 0.985 . S
N411 C413 1.356 . S
N411 H416 0.984 . S
N411 H417 0.985 . S
C412 C406 1.379 . S
C412 C409 1.363 . S
C412 N410 1.356 . S
C413 C407 1.363 . S
C413 C408 1.379 . S
C413 N411 1.356 . S
N414 C406 1.356 . S
N414 H420 0.984 . S
N414 H421 0.984 . S
N415 C408 1.356 . S
N415 H418 0.984 . S
N415 H419 0.985 . S
H416 N411 0.984 . S
H417 N411 0.985 . S
H418 N415 0.984 . S
H419 N415 0.985 . S
H420 N414 0.984 . S
H421 N414 0.984 . S
H422 N410 0.984 . S
H423 N410 0.985 . S
C424 C425 1.363 . S
C424 C430 1.379 1_565 S
C424 N432 1.356 . S
C425 C424 1.363 . S
C425 C431 1.363 . S
C426 C427 1.363 . S
C426 C431 1.379 1_545 S
C426 N433 1.356 . S
C427 C426 1.363 . S
C427 C430 1.363 . S
N428 C430 1.356 . S
N428 H440 0.984 . S
N428 H441 0.985 . S
N429 C431 1.356 . S
N429 H434 0.984 . S
N429 H435 0.985 . S
C430 C424 1.379 1_545 S
C430 C427 1.363 . S
C430 N428 1.356 . S
C431 C425 1.363 . S
C431 C426 1.379 1_565 S
C431 N429 1.356 . S
N432 C424 1.356 . S
N432 H438 0.984 . S
N432 H439 0.984 . S
N433 C426 1.356 . S
N433 H436 0.984 . S
N433 H437 0.985 . S
H434 N429 0.984 . S
H435 N429 0.985 . S
H436 N433 0.984 . S
H437 N433 0.985 . S
H438 N432 0.984 . S
H439 N432 0.984 . S
H440 N428 0.984 . S
H441 N428 0.985 . S
C442 C443 1.363 . S
C442 C448 1.379 1_655 S
C442 N450 1.356 . S
C443 C442 1.363 . S
C443 C449 1.363 . S
C444 C445 1.363 . S
C444 C449 1.379 1_455 S
C444 N451 1.356 . S
C445 C444 1.363 . S
C445 C448 1.363 . S
N446 C448 1.356 . S
N446 H458 0.984 . S
N446 H459 0.985 . S
N447 C449 1.356 . S
N447 H452 0.984 . S
N447 H453 0.985 . S
C448 C442 1.379 1_455 S
C448 C445 1.363 . S
C448 N446 1.356 . S
C449 C443 1.363 . S
C449 C444 1.379 1_655 S
C449 N447 1.356 . S
N450 C442 1.356 . S
N450 H456 0.984 . S
N450 H457 0.984 . S
N451 C444 1.356 . S
N451 H454 0.984 . S
N451 H455 0.985 . S
H452 N447 0.984 . S
H453 N447 0.985 . S
H454 N451 0.984 . S
H455 N451 0.985 . S
H456 N450 0.984 . S
H457 N450 0.984 . S
H458 N446 0.984 . S
H459 N446 0.985 . S
C460 C461 1.363 . S
C460 C466 1.379 1_565 S
C460 N468 1.356 . S
C461 C460 1.363 . S
C461 C467 1.363 . S
C462 C463 1.363 . S
C462 C467 1.379 1_545 S
C462 N469 1.356 . S
C463 C462 1.363 . S
C463 C466 1.363 . S
N464 C466 1.356 . S
N464 H476 0.984 . S
N464 H477 0.985 . S
N465 C467 1.356 . S
N465 H470 0.984 . S
N465 H471 0.985 . S
C466 C460 1.379 1_545 S
C466 C463 1.363 . S
C466 N464 1.356 . S
C467 C461 1.363 . S
C467 C462 1.379 1_565 S
C467 N465 1.356 . S
N468 C460 1.356 . S
N468 H474 0.984 . S
N468 H475 0.984 . S
N469 C462 1.356 . S
N469 H472 0.984 . S
N469 H473 0.985 . S
H470 N465 0.984 . S
H471 N465 0.985 . S
H472 N469 0.984 . S
H473 N469 0.985 . S
H474 N468 0.984 . S
H475 N468 0.984 . S
H476 N464 0.984 . S
H477 N464 0.985 . S
C478 C479 1.363 . S
C478 C484 1.379 1_655 S
C478 N486 1.356 . S
C479 C478 1.363 . S
C479 C485 1.363 . S
C480 C481 1.363 . S
C480 C485 1.379 1_455 S
C480 N487 1.356 . S
C481 C480 1.363 . S
C481 C484 1.363 . S
N482 C484 1.356 . S
N482 H494 0.984 . S
N482 H495 0.985 . S
N483 C485 1.356 . S
N483 H488 0.984 . S
N483 H489 0.985 . S
C484 C478 1.379 1_455 S
C484 C481 1.363 . S
C484 N482 1.356 . S
C485 C479 1.363 . S
C485 C480 1.379 1_655 S
C485 N483 1.356 . S
N486 C478 1.356 . S
N486 H492 0.984 . S
N486 H493 0.984 . S
N487 C480 1.356 . S
N487 H490 0.984 . S
N487 H491 0.985 . S
H488 N483 0.984 . S
H489 N483 0.985 . S
H490 N487 0.984 . S
H491 N487 0.985 . S
H492 N486 0.984 . S
H493 N486 0.984 . S
H494 N482 0.984 . S
H495 N482 0.985 . S
C496 C497 1.363 1_556 S
C496 C502 1.379 . S
C496 N504 1.356 . S
C497 C496 1.363 1_554 S
C497 C503 1.363 . S
C498 C499 1.363 . S
C498 C503 1.379 . S
C498 N505 1.356 . S
C499 C498 1.363 . S
C499 C502 1.363 1_554 S
N500 C502 1.356 . S
N500 H512 0.984 . S
N500 H513 0.985 . S
N501 C503 1.356 . S
N501 H506 0.984 . S
N501 H507 0.985 . S
C502 C496 1.379 . S
C502 C499 1.363 1_556 S
C502 N500 1.356 . S
C503 C497 1.363 . S
C503 C498 1.379 . S
C503 N501 1.356 . S
N504 C496 1.356 . S
N504 H510 0.984 . S
N504 H511 0.984 . S
N505 C498 1.356 . S
N505 H508 0.984 . S
N505 H509 0.985 . S
H506 N501 0.984 . S
H507 N501 0.985 . S
H508 N505 0.984 . S
H509 N505 0.985 . S
H510 N504 0.984 . S
H511 N504 0.984 . S
H512 N500 0.984 . S
H513 N500 0.985 . S
C514 C515 1.363 . S
C514 C520 1.379 . S
C514 N522 1.356 1_556 S
C515 C514 1.363 . S
C515 C521 1.363 . S
C516 C517 1.363 . S
C516 C521 1.379 . S
C516 N523 1.356 . S
C517 C516 1.363 . S
C517 C520 1.363 . S
N518 C520 1.356 1_554 S
N518 H530 0.984 . S
N518 H531 0.985 1_554 S
N519 C521 1.356 . S
N519 H524 0.984 . S
N519 H525 0.985 . S
C520 C514 1.379 . S
C520 C517 1.363 . S
C520 N518 1.356 1_556 S
C521 C515 1.363 . S
C521 C516 1.379 . S
C521 N519 1.356 . S
N522 C514 1.356 1_554 S
N522 H528 0.984 . S
N522 H529 0.984 . S
N523 C516 1.356 . S
N523 H526 0.984 . S
N523 H527 0.985 . S
H524 N519 0.984 . S
H525 N519 0.985 . S
H526 N523 0.984 . S
H527 N523 0.985 . S
H528 N522 0.984 . S
H529 N522 0.984 . S
H530 N518 0.984 . S
H531 N518 0.985 1_556 S
C532 C533 1.363 . S
C532 C538 1.379 . S
C532 N540 1.356 1_554 S
C533 C532 1.363 . S
C533 C539 1.363 . S
C534 C535 1.363 . S
C534 C539 1.379 . S
C534 N541 1.356 . S
C535 C534 1.363 . S
C535 C538 1.363 . S
N536 C538 1.356 1_556 S
N536 H548 0.984 . S
N536 H549 0.985 1_556 S
N537 C539 1.356 . S
N537 H542 0.984 . S
N537 H543 0.985 . S
C538 C532 1.379 . S
C538 C535 1.363 . S
C538 N536 1.356 1_554 S
C539 C533 1.363 . S
C539 C534 1.379 . S
C539 N537 1.356 . S
N540 C532 1.356 1_556 S
N540 H546 0.984 . S
N540 H547 0.984 . S
N541 C534 1.356 . S
N541 H544 0.984 . S
N541 H545 0.985 . S
H542 N537 0.984 . S
H543 N537 0.985 . S
H544 N541 0.984 . S
H545 N541 0.985 . S
H546 N540 0.984 . S
H547 N540 0.984 . S
H548 N536 0.984 . S
H549 N536 0.985 1_554 S
C550 C551 1.363 . S
C550 C556 1.379 . S
C550 N558 1.356 . S
C551 C550 1.363 . S
C551 C557 1.363 . S
C552 C553 1.363 . S
C552 C557 1.379 . S
C552 N559 1.356 1_556 S
C553 C552 1.363 . S
C553 C556 1.363 . S
N554 C556 1.356 . S
N554 H566 0.984 . S
N554 H567 0.985 . S
N555 C557 1.356 1_554 S
N555 H560 0.984 1_554 S
N555 H561 0.985 . S
C556 C550 1.379 . S
C556 C553 1.363 . S
C556 N554 1.356 . S
C557 C551 1.363 . S
C557 C552 1.379 . S
C557 N555 1.356 1_556 S
N558 C550 1.356 . S
N558 H564 0.984 . S
N558 H565 0.984 . S
N559 C552 1.356 1_554 S
N559 H562 0.984 . S
N559 H563 0.985 . S
H560 N555 0.984 1_556 S
H561 N555 0.985 . S
H562 N559 0.984 . S
H563 N559 0.985 . S
H564 N558 0.984 . S
H565 N558 0.984 . S
H566 N554 0.984 . S
H567 N554 0.985 . S
C568 C569 1.363 . S
C568 C574 1.379 . S
C568 N576 1.356 . S
C569 C568 1.363 . S
C569 C575 1.363 . S
C570 C571 1.363 . S
C570 C575 1.379 . S
C570 N577 1.356 . S
C571 C570 1.363 . S
C571 C574 1.363 . S
N572 C574 1.356 . S
N572 H584 0.984 . S
N572 H585 0.985 . S
N573 C575 1.356 . S
N573 H578 0.984 . S
N573 H579 0.985 . S
C574 C568 1.379 . S
C574 C571 1.363 . S
C574 N572 1.356 . S
C575 C569 1.363 . S
C575 C570 1.379 . S
C575 N573 1.356 . S
N576 C568 1.356 . S
N576 H582 0.984 . S
N576 H583 0.984 . S
N577 C570 1.356 . S
N577 H580 0.984 . S
N577 H581 0.985 . S
H578 N573 0.984 . S
H579 N573 0.985 . S
H580 N577 0.984 . S
H581 N577 0.985 . S
H582 N576 0.984 . S
H583 N576 0.984 . S
H584 N572 0.984 . S
H585 N572 0.985 . S
C586 C587 1.363 . S
C586 C592 1.379 . S
C586 N594 1.356 . S
C587 C586 1.363 . S
C587 C593 1.363 . S
C588 C589 1.363 . S
C588 C593 1.379 . S
C588 N595 1.356 . S
C589 C588 1.363 . S
C589 C592 1.363 . S
N590 C592 1.356 . S
N590 H602 0.984 . S
N590 H603 0.985 . S
N591 C593 1.356 . S
N591 H596 0.984 . S
N591 H597 0.985 . S
C592 C586 1.379 . S
C592 C589 1.363 . S
C592 N590 1.356 . S
C593 C587 1.363 . S
C593 C588 1.379 . S
C593 N591 1.356 . S
N594 C586 1.356 . S
N594 H600 0.984 . S
N594 H601 0.984 . S
N595 C588 1.356 . S
N595 H598 0.984 . S
N595 H599 0.985 . S
H596 N591 0.984 . S
H597 N591 0.985 . S
H598 N595 0.984 . S
H599 N595 0.985 . S
H600 N594 0.984 . S
H601 N594 0.984 . S
H602 N590 0.984 . S
H603 N590 0.985 . S
C604 C605 1.363 . S
C604 C610 1.379 . S
C604 N612 1.356 . S
C605 C604 1.363 . S
C605 C611 1.363 . S
C606 C607 1.363 . S
C606 C611 1.379 . S
C606 N613 1.356 . S
C607 C606 1.363 . S
C607 C610 1.363 . S
N608 C610 1.356 . S
N608 H620 0.984 . S
N608 H621 0.985 . S
N609 C611 1.356 . S
N609 H614 0.984 . S
N609 H615 0.985 . S
C610 C604 1.379 . S
C610 C607 1.363 . S
C610 N608 1.356 . S
C611 C605 1.363 . S
C611 C606 1.379 . S
C611 N609 1.356 . S
N612 C604 1.356 . S
N612 H618 0.984 . S
N612 H619 0.984 . S
N613 C606 1.356 . S
N613 H616 0.984 . S
N613 H617 0.985 . S
H614 N609 0.984 . S
H615 N609 0.985 . S
H616 N613 0.984 . S
H617 N613 0.985 . S
H618 N612 0.984 . S
H619 N612 0.984 . S
H620 N608 0.984 . S
H621 N608 0.985 . S
C622 C623 1.363 . S
C622 C628 1.379 . S
C622 N630 1.356 . S
C623 C622 1.363 . S
C623 C629 1.363 . S
C624 C625 1.363 . S
C624 C629 1.379 . S
C624 N631 1.356 . S
C625 C624 1.363 . S
C625 C628 1.363 . S
N626 C628 1.356 . S
N626 H638 0.984 . S
N626 H639 0.985 . S
N627 C629 1.356 . S
N627 H632 0.984 . S
N627 H633 0.985 . S
C628 C622 1.379 . S
C628 C625 1.363 . S
C628 N626 1.356 . S
C629 C623 1.363 . S
C629 C624 1.379 . S
C629 N627 1.356 . S
N630 C622 1.356 . S
N630 H636 0.984 . S
N630 H637 0.984 . S
N631 C624 1.356 . S
N631 H634 0.984 . S
N631 H635 0.985 . S
H632 N627 0.984 . S
H633 N627 0.985 . S
H634 N631 0.984 . S
H635 N631 0.985 . S
H636 N630 0.984 . S
H637 N630 0.984 . S
H638 N626 0.984 . S
H639 N626 0.985 . S
C640 C641 1.363 . S
C640 C646 1.379 . S
C640 N648 1.356 . S
C641 C640 1.363 . S
C641 C647 1.363 . S
C642 C643 1.363 1_554 S
C642 C647 1.379 1_554 S
C642 N649 1.356 . S
C643 C642 1.363 1_556 S
C643 C646 1.363 . S
N644 C646 1.356 . S
N644 H656 0.984 . S
N644 H657 0.985 . S
N645 C647 1.356 . S
N645 H650 0.984 . S
N645 H651 0.985 1_556 S
C646 C640 1.379 . S
C646 C643 1.363 . S
C646 N644 1.356 . S
C647 C641 1.363 . S
C647 C642 1.379 1_556 S
C647 N645 1.356 . S
N648 C640 1.356 . S
N648 H654 0.984 . S
N648 H655 0.984 . S
N649 C642 1.356 . S
N649 H652 0.984 . S
N649 H653 0.985 . S
H650 N645 0.984 . S
H651 N645 0.985 1_554 S
H652 N649 0.984 . S
H653 N649 0.985 . S
H654 N648 0.984 . S
H655 N648 0.984 . S
H656 N644 0.984 . S
H657 N644 0.985 . S
C658 C659 1.363 . S
C658 C664 1.379 1_554 S
C658 N666 1.356 1_554 S
C659 C658 1.363 . S
C659 C665 1.363 . S
C660 C661 1.363 . S
C660 C665 1.379 . S
C660 N667 1.356 . S
C661 C660 1.363 . S
C661 C664 1.363 1_554 S
N662 C664 1.356 . S
N662 H674 0.984 . S
N662 H675 0.985 . S
N663 C665 1.356 . S
N663 H668 0.984 . S
N663 H669 0.985 . S
C664 C658 1.379 1_556 S
C664 C661 1.363 1_556 S
C664 N662 1.356 . S
C665 C659 1.363 . S
C665 C660 1.379 . S
C665 N663 1.356 . S
N666 C658 1.356 1_556 S
N666 H672 0.984 . S
N666 H673 0.984 1_556 S
N667 C660 1.356 . S
N667 H670 0.984 . S
N667 H671 0.985 . S
H668 N663 0.984 . S
H669 N663 0.985 . S
H670 N667 0.984 . S
H671 N667 0.985 . S
H672 N666 0.984 . S
H673 N666 0.984 1_554 S
H674 N662 0.984 . S
H675 N662 0.985 . S
C676 C677 1.363 . S
C676 C682 1.379 . S
C676 N684 1.356 . S
C677 C676 1.363 . S
C677 C683 1.363 1_556 S
C678 C679 1.363 . S
C678 C683 1.379 1_556 S
C678 N685 1.356 . S
C679 C678 1.363 . S
C679 C682 1.363 . S
N680 C682 1.356 . S
N680 H692 0.984 . S
N680 H693 0.985 . S
N681 C683 1.356 . S
N681 H686 0.984 . S
N681 H687 0.985 . S
C682 C676 1.379 . S
C682 C679 1.363 . S
C682 N680 1.356 . S
C683 C677 1.363 1_554 S
C683 C678 1.379 1_554 S
C683 N681 1.356 . S
N684 C676 1.356 . S
N684 H690 0.984 . S
N684 H691 0.984 . S
N685 C678 1.356 . S
N685 H688 0.984 . S
N685 H689 0.985 1_556 S
H686 N681 0.984 . S
H687 N681 0.985 . S
H688 N685 0.984 . S
H689 N685 0.985 1_554 S
H690 N684 0.984 . S
H691 N684 0.984 . S
H692 N680 0.984 . S
H693 N680 0.985 . S
C694 C695 1.363 . S
C694 C700 1.379 1_554 S
C694 N702 1.356 1_554 S
C695 C694 1.363 . S
C695 C701 1.363 . S
C696 C697 1.363 . S
C696 C701 1.379 . S
C696 N703 1.356 . S
C697 C696 1.363 . S
C697 C700 1.363 1_554 S
N698 C700 1.356 . S
N698 H710 0.984 . S
N698 H711 0.985 . S
N699 C701 1.356 . S
N699 H704 0.984 . S
N699 H705 0.985 . S
C700 C694 1.379 1_556 S
C700 C697 1.363 1_556 S
C700 N698 1.356 . S
C701 C695 1.363 . S
C701 C696 1.379 . S
C701 N699 1.356 . S
N702 C694 1.356 1_556 S
N702 H708 0.984 . S
N702 H709 0.984 1_556 S
N703 C696 1.356 . S
N703 H706 0.984 . S
N703 H707 0.985 . S
H704 N699 0.984 . S
H705 N699 0.985 . S
H706 N703 0.984 . S
H707 N703 0.985 . S
H708 N702 0.984 . S
H709 N702 0.984 1_554 S
H710 N698 0.984 . S
H711 N698 0.985 . S
C712 C713 1.363 . S
C712 C718 1.379 . S
C712 N720 1.356 . S
C713 C712 1.363 . S
C713 C719 1.363 . S
C714 C715 1.363 . S
C714 C719 1.379 . S
C714 N721 1.356 . S
C715 C714 1.363 . S
C715 C718 1.363 . S
N716 C718 1.356 . S
N716 H728 0.984 . S
N716 H729 0.985 . S
N717 C719 1.356 . S
N717 H722 0.984 . S
N717 H723 0.985 . S
C718 C712 1.379 . S
C718 C715 1.363 . S
C718 N716 1.356 . S
C719 C713 1.363 . S
C719 C714 1.379 . S
C719 N717 1.356 . S
N720 C712 1.356 . S
N720 H726 0.984 . S
N720 H727 0.984 . S
N721 C714 1.356 . S
N721 H724 0.984 . S
N721 H725 0.985 . S
H722 N717 0.984 . S
H723 N717 0.985 . S
H724 N721 0.984 . S
H725 N721 0.985 . S
H726 N720 0.984 . S
H727 N720 0.984 . S
H728 N716 0.984 . S
H729 N716 0.985 . S
C730 C731 1.363 . S
C730 C736 1.379 . S
C730 N738 1.356 . S
C731 C730 1.363 . S
C731 C737 1.363 . S
C732 C733 1.363 . S
C732 C737 1.379 . S
C732 N739 1.356 . S
C733 C732 1.363 . S
C733 C736 1.363 . S
N734 C736 1.356 . S
N734 H746 0.984 1_556 S
N734 H747 0.985 . S
N735 C737 1.356 . S
N735 H740 0.984 . S
N735 H741 0.985 . S
C736 C730 1.379 . S
C736 C733 1.363 . S
C736 N734 1.356 . S
C737 C731 1.363 . S
C737 C732 1.379 . S
C737 N735 1.356 . S
N738 C730 1.356 . S
N738 H744 0.984 . S
N738 H745 0.984 . S
N739 C732 1.356 . S
N739 H742 0.984 . S
N739 H743 0.985 . S
H740 N735 0.984 . S
H741 N735 0.985 . S
H742 N739 0.984 . S
H743 N739 0.985 . S
H744 N738 0.984 . S
H745 N738 0.984 . S
H746 N734 0.984 1_554 S
H747 N734 0.985 . S
C748 C749 1.363 . S
C748 C754 1.379 . S
C748 N756 1.356 . S
C749 C748 1.363 . S
C749 C755 1.363 . S
C750 C751 1.363 . S
C750 C755 1.379 . S
C750 N757 1.356 . S
C751 C750 1.363 . S
C751 C754 1.363 . S
N752 C754 1.356 . S
N752 H764 0.984 . S
N752 H765 0.985 . S
N753 C755 1.356 . S
N753 H758 0.984 . S
N753 H759 0.985 . S
C754 C748 1.379 . S
C754 C751 1.363 . S
C754 N752 1.356 . S
C755 C749 1.363 . S
C755 C750 1.379 . S
C755 N753 1.356 . S
N756 C748 1.356 . S
N756 H762 0.984 . S
N756 H763 0.984 . S
N757 C750 1.356 . S
N757 H760 0.984 . S
N757 H761 0.985 . S
H758 N753 0.984 . S
H759 N753 0.985 . S
H760 N757 0.984 . S
H761 N757 0.985 . S
H762 N756 0.984 . S
H763 N756 0.984 . S
H764 N752 0.984 . S
H765 N752 0.985 . S
C766 C767 1.363 . S
C766 C772 1.379 . S
C766 N774 1.356 . S
C767 C766 1.363 . S
C767 C773 1.363 . S
C768 C769 1.363 . S
C768 C773 1.379 . S
C768 N775 1.356 . S
C769 C768 1.363 . S
C769 C772 1.363 . S
N770 C772 1.356 . S
N770 H782 0.984 1_556 S
N770 H783 0.985 1_556 S
N771 C773 1.356 . S
N771 H776 0.984 . S
N771 H777 0.985 . S
C772 C766 1.379 . S
C772 C769 1.363 . S
C772 N770 1.356 . S
C773 C767 1.363 . S
C773 C768 1.379 . S
C773 N771 1.356 . S
N774 C766 1.356 . S
N774 H780 0.984 . S
N774 H781 0.984 . S
N775 C768 1.356 . S
N775 H778 0.984 . S
N775 H779 0.985 . S
H776 N771 0.984 . S
H777 N771 0.985 . S
H778 N775 0.984 . S
H779 N775 0.985 . S
H780 N774 0.984 . S
H781 N774 0.984 . S
H782 N770 0.984 1_554 S
H783 N770 0.985 1_554 S
C209 C153 1.522 . S
C211 C3 1.514 . S
C227 C16 1.509 . S
C229 C114 1.505 . S
C245 C29 1.514 . S
C247 C127 1.522 . S
C263 C140 1.505 . S
C265 C42 1.509 . S
C281 C55 1.514 . S
C283 C75 1.522 1_554 S
C299 C68 1.509 . S
C301 C88 1.505 1_556 S
C317 C101 1.522 1_554 S
C319 C81 1.514 . S
C335 C62 1.505 1_556 S
C337 C94 1.509 . S
C353 C49 1.522 . S
C355 C107 1.514 . S
C371 C120 1.509 . S
C373 C10 1.505 . S
C389 C23 1.522 . S
C391 C133 1.514 . S
C407 C146 1.509 . S
C409 C36 1.505 . S
C425 C159 1.514 . S
C427 C179 1.522 . S
C443 C172 1.509 . S
C445 C192 1.505 . S
C461 C205 1.522 . S
C463 C185 1.514 . S
C479 C166 1.505 . S
C481 C198 1.509 . S
C497 C53 1.519 . S
C499 C1 1.519 . S
C515 C14 1.499 . S
C517 C66 1.499 . S
C533 C27 1.519 . S
C535 C79 1.519 . S
C551 C92 1.500 . S
C553 C40 1.500 . S
C569 C105 1.519 . S
C571 C157 1.519 . S
C587 C170 1.499 . S
C589 C118 1.499 . S
C605 C131 1.519 . S
C607 C183 1.519 . S
C623 C196 1.500 . S
C625 C144 1.500 . S
C641 C187 1.513 . S
C643 C5 1.513 1_556 S
C659 C200 1.558 . S
C661 C18 1.558 1_554 S
C677 C31 1.513 1_556 S
C679 C161 1.513 . S
C695 C174 1.558 . S
C697 C44 1.558 1_554 S
C713 C135 1.513 . S
C715 C57 1.513 . S
C731 C148 1.558 . S
C733 C70 1.558 . S
C749 C83 1.513 . S
C751 C109 1.513 . S
C767 C122 1.558 . S
C769 C96 1.558 . S
