# Generated by pormake.
# Topology hbo, (4)-cn, num edge types: 1
# Building blocks:
#     Node 0, Type 0, BuildingBlock: QUQFOY_clean_sbu_1, # of connection points: 4
#     Node 1, Type 0, BuildingBlock: QUQFOY_clean_sbu_1, # of connection points: 4
#     Node 2, Type 0, BuildingBlock: QUQFOY_clean_sbu_1, # of connection points: 4
#     Node 3, Type 0, BuildingBlock: QUQFOY_clean_sbu_1, # of connection points: 4
#     Node 4, Type 0, BuildingBlock: QUQFOY_clean_sbu_1, # of connection points: 4
#     Node 5, Type 0, BuildingBlock: QUQFOY_clean_sbu_1, # of connection points: 4
#     Node 6, Type 0, BuildingBlock: QUQFOY_clean_sbu_1, # of connection points: 4
#     Node 7, Type 0, BuildingBlock: QUQFOY_clean_sbu_1, # of connection points: 4
#     Node 8, Type 0, BuildingBlock: QUQFOY_clean_sbu_1, # of connection points: 4
#     Node 9, Type 0, BuildingBlock: QUQFOY_clean_sbu_1, # of connection points: 4
#     Node 10, Type 0, BuildingBlock: QUQFOY_clean_sbu_1, # of connection points: 4
#     Node 11, Type 0, BuildingBlock: QUQFOY_clean_sbu_1, # of connection points: 4
#     Node 12, Type 0, BuildingBlock: QUQFOY_clean_sbu_1, # of connection points: 4
#     Node 13, Type 0, BuildingBlock: QUQFOY_clean_sbu_1, # of connection points: 4
#     Node 14, Type 0, BuildingBlock: QUQFOY_clean_sbu_1, # of connection points: 4
#     Node 15, Type 0, BuildingBlock: QUQFOY_clean_sbu_1, # of connection points: 4
#     Node 16, Type 0, BuildingBlock: QUQFOY_clean_sbu_1, # of connection points: 4
#     Node 17, Type 0, BuildingBlock: QUQFOY_clean_sbu_1, # of connection points: 4
#     Node 18, Type 0, BuildingBlock: QUQFOY_clean_sbu_1, # of connection points: 4
#     Node 19, Type 0, BuildingBlock: QUQFOY_clean_sbu_1, # of connection points: 4
#     Node 20, Type 0, BuildingBlock: QUQFOY_clean_sbu_1, # of connection points: 4
#     Node 21, Type 0, BuildingBlock: QUQFOY_clean_sbu_1, # of connection points: 4
#     Node 22, Type 0, BuildingBlock: QUQFOY_clean_sbu_1, # of connection points: 4
#     Node 23, Type 0, BuildingBlock: QUQFOY_clean_sbu_1, # of connection points: 4
#     Edge 24, Type (0, 0), BuildingBlock: XIVTED_clean_linker_0, # of connection points: 2
#     Edge 25, Type (0, 0), BuildingBlock: XIVTED_clean_linker_0, # of connection points: 2
#     Edge 26, Type (0, 0), BuildingBlock: XIVTED_clean_linker_0, # of connection points: 2
#     Edge 27, Type (0, 0), BuildingBlock: XIVTED_clean_linker_0, # of connection points: 2
#     Edge 28, Type (0, 0), BuildingBlock: XIVTED_clean_linker_0, # of connection points: 2
#     Edge 29, Type (0, 0), BuildingBlock: XIVTED_clean_linker_0, # of connection points: 2
#     Edge 30, Type (0, 0), BuildingBlock: XIVTED_clean_linker_0, # of connection points: 2
#     Edge 31, Type (0, 0), BuildingBlock: XIVTED_clean_linker_0, # of connection points: 2
#     Edge 32, Type (0, 0), BuildingBlock: XIVTED_clean_linker_0, # of connection points: 2
#     Edge 33, Type (0, 0), BuildingBlock: XIVTED_clean_linker_0, # of connection points: 2
#     Edge 34, Type (0, 0), BuildingBlock: XIVTED_clean_linker_0, # of connection points: 2
#     Edge 35, Type (0, 0), BuildingBlock: XIVTED_clean_linker_0, # of connection points: 2
#     Edge 36, Type (0, 0), BuildingBlock: XIVTED_clean_linker_0, # of connection points: 2
#     Edge 37, Type (0, 0), BuildingBlock: XIVTED_clean_linker_0, # of connection points: 2
#     Edge 38, Type (0, 0), BuildingBlock: XIVTED_clean_linker_0, # of connection points: 2
#     Edge 39, Type (0, 0), BuildingBlock: XIVTED_clean_linker_0, # of connection points: 2
#     Edge 40, Type (0, 0), BuildingBlock: XIVTED_clean_linker_0, # of connection points: 2
#     Edge 41, Type (0, 0), BuildingBlock: XIVTED_clean_linker_0, # of connection points: 2
#     Edge 42, Type (0, 0), BuildingBlock: XIVTED_clean_linker_0, # of connection points: 2
#     Edge 43, Type (0, 0), BuildingBlock: XIVTED_clean_linker_0, # of connection points: 2
#     Edge 44, Type (0, 0), BuildingBlock: XIVTED_clean_linker_0, # of connection points: 2
#     Edge 45, Type (0, 0), BuildingBlock: XIVTED_clean_linker_0, # of connection points: 2
#     Edge 46, Type (0, 0), BuildingBlock: XIVTED_clean_linker_0, # of connection points: 2
#     Edge 47, Type (0, 0), BuildingBlock: XIVTED_clean_linker_0, # of connection points: 2
#     Edge 48, Type (0, 0), BuildingBlock: XIVTED_clean_linker_0, # of connection points: 2
#     Edge 49, Type (0, 0), BuildingBlock: XIVTED_clean_linker_0, # of connection points: 2
#     Edge 50, Type (0, 0), BuildingBlock: XIVTED_clean_linker_0, # of connection points: 2
#     Edge 51, Type (0, 0), BuildingBlock: XIVTED_clean_linker_0, # of connection points: 2
#     Edge 52, Type (0, 0), BuildingBlock: XIVTED_clean_linker_0, # of connection points: 2
#     Edge 53, Type (0, 0), BuildingBlock: XIVTED_clean_linker_0, # of connection points: 2
#     Edge 54, Type (0, 0), BuildingBlock: XIVTED_clean_linker_0, # of connection points: 2
#     Edge 55, Type (0, 0), BuildingBlock: XIVTED_clean_linker_0, # of connection points: 2
#     Edge 56, Type (0, 0), BuildingBlock: XIVTED_clean_linker_0, # of connection points: 2
#     Edge 57, Type (0, 0), BuildingBlock: XIVTED_clean_linker_0, # of connection points: 2
#     Edge 58, Type (0, 0), BuildingBlock: XIVTED_clean_linker_0, # of connection points: 2
#     Edge 59, Type (0, 0), BuildingBlock: XIVTED_clean_linker_0, # of connection points: 2
#     Edge 60, Type (0, 0), BuildingBlock: XIVTED_clean_linker_0, # of connection points: 2
#     Edge 61, Type (0, 0), BuildingBlock: XIVTED_clean_linker_0, # of connection points: 2
#     Edge 62, Type (0, 0), BuildingBlock: XIVTED_clean_linker_0, # of connection points: 2
#     Edge 63, Type (0, 0), BuildingBlock: XIVTED_clean_linker_0, # of connection points: 2
#     Edge 64, Type (0, 0), BuildingBlock: XIVTED_clean_linker_0, # of connection points: 2
#     Edge 65, Type (0, 0), BuildingBlock: XIVTED_clean_linker_0, # of connection points: 2
#     Edge 66, Type (0, 0), BuildingBlock: XIVTED_clean_linker_0, # of connection points: 2
#     Edge 67, Type (0, 0), BuildingBlock: XIVTED_clean_linker_0, # of connection points: 2
#     Edge 68, Type (0, 0), BuildingBlock: XIVTED_clean_linker_0, # of connection points: 2
#     Edge 69, Type (0, 0), BuildingBlock: XIVTED_clean_linker_0, # of connection points: 2
#     Edge 70, Type (0, 0), BuildingBlock: XIVTED_clean_linker_0, # of connection points: 2
#     Edge 71, Type (0, 0), BuildingBlock: XIVTED_clean_linker_0, # of connection points: 2
# Relax obj value: 0.234
# Max RMSD: 0.214
# Mean RMSD: 0.214
data_MOF--net-hbo--node1-QUQFOY_clean_sbu_1--edge1-XIVTED_clean_linker_0
_symmetry_space_group_name_H-M    P1
_symmetry_Int_Tables_number       1
_symmetry_cell_setting            triclinic
loop_
_symmetry_equiv_pos_as_xyz
'x, y, z'
_cell_length_a     55.098673
_cell_length_b     55.063434
_cell_length_c     55.142655
_cell_angle_alpha  89.982213
_cell_angle_beta   89.981634
_cell_angle_gamma 89.966936
loop_
_atom_site_label
_atom_site_type_symbol
_atom_site_fract_x
_atom_site_fract_y
_atom_site_fract_z
_atom_type_partial_charge
O0 O 0.13218 0.316 0.26164 0.0
Cd1 Cd 0.12748 0.33998 0.2333 0.0
Cd2 Cd 0.15539 0.36837 0.26029 0.0
O3 O 0.15291 0.34065 0.28533 0.0
O4 O 0.09814 0.32895 0.21542 0.0
O5 O 0.10035 0.36418 0.23464 0.0
C6 C 0.08783 0.34893 0.22202 0.0
C7 C 0.14646 0.40821 0.27112 0.0
C8 C 0.14306 0.32012 0.28154 0.0
C9 C 0.17578 0.35231 0.21239 0.0
O10 O 0.17963 0.36347 0.23219 0.0
O11 O 0.15538 0.34226 0.20852 0.0
O12 O 0.16633 0.39789 0.278 0.0
O13 O 0.13129 0.39559 0.25852 0.0
O14 O 0.13068 0.68072 0.73659 0.0
Cd15 Cd 0.12622 0.65571 0.76409 0.0
Cd16 Cd 0.15407 0.62846 0.73582 0.0
O17 O 0.15064 0.65677 0.71153 0.0
O18 O 0.09664 0.66581 0.78219 0.0
O19 O 0.0993 0.63142 0.76156 0.0
C20 C 0.0865 0.64612 0.77458 0.0
C21 C 0.14605 0.58862 0.72427 0.0
C22 C 0.14097 0.6772 0.71626 0.0
C23 C 0.17482 0.64323 0.78402 0.0
O24 O 0.17863 0.63313 0.76364 0.0
O25 O 0.15425 0.65259 0.78867 0.0
O26 O 0.16547 0.59964 0.71723 0.0
O27 O 0.13073 0.60058 0.73738 0.0
O28 O 0.81529 0.63217 0.23349 0.0
Cd29 Cd 0.83923 0.62735 0.26182 0.0
Cd30 Cd 0.86749 0.65559 0.23499 0.0
O31 O 0.83983 0.65321 0.20993 0.0
O32 O 0.8282 0.59783 0.2795 0.0
O33 O 0.86336 0.60015 0.2602 0.0
C34 C 0.8481 0.58751 0.27272 0.0
C35 C 0.90739 0.64688 0.22425 0.0
C36 C 0.81936 0.64324 0.21366 0.0
C37 C 0.85126 0.67567 0.28296 0.0
O38 O 0.86241 0.67967 0.26318 0.0
O39 O 0.84137 0.65516 0.28676 0.0
O40 O 0.89701 0.66675 0.21742 0.0
O41 O 0.89479 0.63157 0.23674 0.0
O42 O 0.8159 0.36372 0.76523 0.0
Cd43 Cd 0.84009 0.36815 0.73702 0.0
Cd44 Cd 0.86806 0.34044 0.76463 0.0
O45 O 0.84037 0.34356 0.78961 0.0
O46 O 0.82864 0.39697 0.71848 0.0
O47 O 0.86374 0.39579 0.73796 0.0
C48 C 0.84835 0.40778 0.72498 0.0
C49 C 0.90799 0.34954 0.77474 0.0
C50 C 0.81987 0.35328 0.78541 0.0
C51 C 0.85243 0.31944 0.71696 0.0
O52 O 0.86309 0.31567 0.73704 0.0
O53 O 0.84277 0.33994 0.71261 0.0
O54 O 0.89772 0.3299 0.78231 0.0
O55 O 0.89521 0.36449 0.76198 0.0
O56 O 0.23642 0.17952 0.36394 0.0
Cd57 Cd 0.26402 0.15456 0.36819 0.0
Cd58 Cd 0.23524 0.12684 0.34131 0.0
O59 O 0.2112 0.15539 0.34442 0.0
O60 O 0.28301 0.16495 0.39706 0.0
O61 O 0.26233 0.13052 0.39535 0.0
C62 C 0.27587 0.14524 0.40753 0.0
C63 C 0.22362 0.08737 0.3508 0.0
C64 C 0.216 0.17591 0.35384 0.0
C65 C 0.2833 0.14079 0.31968 0.0
O66 O 0.26291 0.13052 0.31636 0.0
O67 O 0.28805 0.15088 0.33984 0.0
O68 O 0.21638 0.09775 0.33111 0.0
O69 O 0.23694 0.09979 0.36553 0.0
O70 O 0.36433 0.76238 0.81541 0.0
Cd71 Cd 0.36889 0.73492 0.84048 0.0
Cd72 Cd 0.34151 0.76361 0.86782 0.0
O73 O 0.34469 0.78768 0.83937 0.0
O74 O 0.39817 0.71642 0.83015 0.0
O75 O 0.39611 0.73726 0.86441 0.0
C76 C 0.40859 0.72397 0.84969 0.0
C77 C 0.35052 0.77528 0.90733 0.0
C78 C 0.35414 0.7828 0.81891 0.0
C79 C 0.32028 0.71539 0.8538 0.0
O80 O 0.31668 0.73589 0.86377 0.0
O81 O 0.34071 0.71057 0.8442 0.0
O82 O 0.33092 0.78249 0.89674 0.0
O83 O 0.36542 0.76193 0.89512 0.0
O84 O 0.75546 0.81574 0.36513 0.0
Cd85 Cd 0.72827 0.84117 0.3692 0.0
Cd86 Cd 0.75743 0.86834 0.34208 0.0
O87 O 0.78101 0.83942 0.34546 0.0
O88 O 0.70948 0.83172 0.39854 0.0
O89 O 0.73085 0.86567 0.39584 0.0
C90 C 0.71726 0.85142 0.40855 0.0
C91 C 0.77005 0.90773 0.35062 0.0
C92 C 0.77593 0.81903 0.35501 0.0
C93 C 0.70914 0.85476 0.32061 0.0
O94 O 0.72965 0.86477 0.31725 0.0
O95 O 0.70422 0.84489 0.34086 0.0
O96 O 0.77692 0.89675 0.33113 0.0
O97 O 0.75649 0.89598 0.36569 0.0
O98 O 0.62998 0.23425 0.81716 0.0
Cd99 Cd 0.62598 0.2616 0.84244 0.0
Cd100 Cd 0.6535 0.23237 0.86924 0.0
O101 O 0.64994 0.20865 0.84056 0.0
O102 O 0.59682 0.28057 0.83253 0.0
O103 O 0.59897 0.25947 0.86663 0.0
C104 C 0.58652 0.27304 0.85215 0.0
C105 C 0.64403 0.22067 0.90863 0.0
C106 C 0.64016 0.21377 0.82031 0.0
C107 C 0.67488 0.28063 0.85554 0.0
O108 O 0.67844 0.26003 0.86533 0.0
O109 O 0.65443 0.28563 0.8461 0.0
O110 O 0.66369 0.21333 0.89823 0.0
O111 O 0.62936 0.23414 0.8963 0.0
O112 O 0.25989 0.86599 0.67938 0.0
Cd113 Cd 0.23197 0.87025 0.65484 0.0
Cd114 Cd 0.26014 0.84277 0.62701 0.0
O115 O 0.28455 0.84584 0.65517 0.0
O116 O 0.21356 0.89961 0.66514 0.0
O117 O 0.23388 0.89723 0.63057 0.0
C118 C 0.22081 0.90986 0.64538 0.0
C119 C 0.27172 0.85168 0.58741 0.0
C120 C 0.28013 0.85556 0.67561 0.0
C121 C 0.21225 0.82151 0.64215 0.0
O122 O 0.2324 0.81801 0.63147 0.0
O123 O 0.20771 0.84189 0.65198 0.0
O124 O 0.27872 0.83198 0.59797 0.0
O125 O 0.25852 0.8667 0.59965 0.0
O126 O 0.67921 0.73807 0.13092 0.0
Cd127 Cd 0.65358 0.76507 0.12667 0.0
Cd128 Cd 0.62651 0.73549 0.15333 0.0
O129 O 0.65556 0.7121 0.15005 0.0
O130 O 0.66377 0.78441 0.09795 0.0
O131 O 0.62995 0.76274 0.0992 0.0
C132 C 0.64449 0.77665 0.08719 0.0
C133 C 0.58736 0.72287 0.14397 0.0
C134 C 0.676 0.71746 0.1408 0.0
C135 C 0.6393 0.7837 0.17531 0.0
O136 O 0.62959 0.76301 0.17851 0.0
O137 O 0.64917 0.78889 0.15513 0.0
O138 O 0.59803 0.71575 0.16353 0.0
O139 O 0.5993 0.73669 0.12928 0.0
O140 O 0.73164 0.13138 0.6788 0.0
Cd141 Cd 0.75956 0.1276 0.65414 0.0
Cd142 Cd 0.73124 0.15545 0.62692 0.0
O143 O 0.70684 0.15191 0.65506 0.0
O144 O 0.77855 0.09873 0.6647 0.0
O145 O 0.75844 0.10044 0.63 0.0
C146 C 0.77178 0.08825 0.64492 0.0
C147 C 0.72023 0.14665 0.58718 0.0
C148 C 0.71137 0.14185 0.67531 0.0
C149 C 0.77902 0.17666 0.64207 0.0
O150 O 0.75879 0.18034 0.63162 0.0
O151 O 0.78363 0.15612 0.65153 0.0
O152 O 0.71278 0.16615 0.5978 0.0
O153 O 0.73345 0.1317 0.59948 0.0
O154 O 0.31595 0.25721 0.13011 0.0
Cd155 Cd 0.34136 0.22998 0.12619 0.0
Cd156 Cd 0.36848 0.2593 0.15309 0.0
O157 O 0.33956 0.28282 0.14973 0.0
O158 O 0.33156 0.21081 0.09725 0.0
O159 O 0.36557 0.23212 0.09924 0.0
C160 C 0.35116 0.21838 0.08691 0.0
C161 C 0.40766 0.27197 0.14391 0.0
C162 C 0.3192 0.27771 0.14017 0.0
C163 C 0.35512 0.21113 0.17489 0.0
O164 O 0.36512 0.23167 0.17814 0.0
O165 O 0.3452 0.20614 0.1547 0.0
O166 O 0.39693 0.27896 0.16349 0.0
O167 O 0.39579 0.25819 0.12915 0.0
O168 O 0.86342 0.67903 0.72979 0.0
Cd169 Cd 0.86753 0.65478 0.75803 0.0
Cd170 Cd 0.83942 0.6272 0.73035 0.0
O171 O 0.84257 0.65502 0.70554 0.0
O172 O 0.89631 0.66611 0.77666 0.0
O173 O 0.89508 0.63098 0.75722 0.0
C174 C 0.90708 0.64635 0.77019 0.0
C175 C 0.84875 0.58735 0.72011 0.0
C176 C 0.85273 0.67532 0.7097 0.0
C177 C 0.81868 0.64278 0.77815 0.0
O178 O 0.81481 0.63212 0.75808 0.0
O179 O 0.83923 0.65235 0.78242 0.0
O180 O 0.82903 0.59753 0.71261 0.0
O181 O 0.86361 0.60017 0.7329 0.0
O182 O 0.8639 0.31557 0.25785 0.0
Cd183 Cd 0.86868 0.34046 0.23031 0.0
Cd184 Cd 0.84143 0.36823 0.25858 0.0
O185 O 0.84451 0.33997 0.28293 0.0
O186 O 0.89779 0.3297 0.21188 0.0
O187 O 0.89615 0.36416 0.2325 0.0
C188 C 0.90843 0.3492 0.21928 0.0
C189 C 0.85024 0.40789 0.2701 0.0
C190 C 0.85379 0.31935 0.27823 0.0
C191 C 0.82028 0.35384 0.21048 0.0
O192 O 0.81665 0.36401 0.23085 0.0
O193 O 0.84067 0.34412 0.20583 0.0
O194 O 0.83062 0.39726 0.27716 0.0
O195 O 0.86529 0.39565 0.25695 0.0
O196 O 0.1801 0.36339 0.76207 0.0
Cd197 Cd 0.1565 0.36875 0.73355 0.0
Cd198 Cd 0.12766 0.34034 0.7595 0.0
O199 O 0.15505 0.3422 0.78492 0.0
O200 O 0.1676 0.39865 0.7166 0.0
O201 O 0.13219 0.39578 0.73537 0.0
C202 C 0.14755 0.40873 0.7233 0.0
C203 C 0.08771 0.34833 0.77065 0.0
C204 C 0.17564 0.35205 0.78165 0.0
C205 C 0.14455 0.32088 0.71147 0.0
O206 O 0.13297 0.3167 0.73097 0.0
O207 O 0.15469 0.34134 0.70815 0.0
O208 O 0.09836 0.32844 0.77692 0.0
O209 O 0.10001 0.36404 0.75836 0.0
O210 O 0.17929 0.63211 0.23311 0.0
Cd211 Cd 0.15495 0.62763 0.26116 0.0
Cd212 Cd 0.12707 0.65544 0.23358 0.0
O213 O 0.15481 0.65219 0.20868 0.0
O214 O 0.16598 0.59846 0.27939 0.0
O215 O 0.13106 0.60024 0.25961 0.0
C216 C 0.14628 0.58789 0.27247 0.0
C217 C 0.08713 0.64703 0.22284 0.0
C218 C 0.17532 0.6425 0.21291 0.0
C219 C 0.14282 0.67629 0.28136 0.0
O220 O 0.13215 0.68009 0.26128 0.0
O221 O 0.15238 0.65573 0.28572 0.0
O222 O 0.09781 0.66657 0.21559 0.0
O223 O 0.09946 0.63183 0.23575 0.0
O224 O 0.76024 0.81753 0.62951 0.0
Cd225 Cd 0.73299 0.84304 0.62631 0.0
Cd226 Cd 0.76305 0.86963 0.65295 0.0
O227 O 0.78654 0.84079 0.64864 0.0
O228 O 0.71292 0.83289 0.59807 0.0
O229 O 0.73426 0.86693 0.59896 0.0
C230 C 0.72015 0.85236 0.58724 0.0
C231 C 0.77445 0.90905 0.64315 0.0
C232 C 0.78103 0.82055 0.63904 0.0
C233 C 0.71543 0.85624 0.67572 0.0
O234 O 0.73618 0.86587 0.67873 0.0
O235 O 0.70984 0.84688 0.65541 0.0
O236 O 0.78242 0.89859 0.66252 0.0
O237 O 0.76054 0.89672 0.6289 0.0
O238 O 0.63036 0.23632 0.17921 0.0
Cd239 Cd 0.62613 0.2635 0.15379 0.0
Cd240 Cd 0.65358 0.23442 0.12687 0.0
O241 O 0.65025 0.21079 0.15569 0.0
O242 O 0.59683 0.28226 0.16354 0.0
O243 O 0.59922 0.26098 0.12956 0.0
C244 C 0.58663 0.27453 0.14395 0.0
C245 C 0.64463 0.22197 0.08758 0.0
C246 C 0.6406 0.21588 0.176 0.0
C247 C 0.67477 0.28283 0.14038 0.0
O248 O 0.67836 0.26226 0.13054 0.0
O249 O 0.65438 0.2877 0.15 0.0
O250 O 0.66425 0.21503 0.0983 0.0
O251 O 0.62971 0.23554 0.09952 0.0
O252 O 0.24144 0.18117 0.62974 0.0
Cd253 Cd 0.26848 0.15559 0.62561 0.0
Cd254 Cd 0.2389 0.12832 0.65215 0.0
O255 O 0.21552 0.15743 0.64884 0.0
O256 O 0.28768 0.16535 0.59667 0.0
O257 O 0.26598 0.13155 0.59856 0.0
C258 C 0.27984 0.1459 0.58625 0.0
C259 C 0.22614 0.08909 0.64304 0.0
C260 C 0.22083 0.17789 0.63958 0.0
C261 C 0.2871 0.14129 0.67417 0.0
O262 O 0.26648 0.13142 0.67727 0.0
O263 O 0.29226 0.15133 0.65407 0.0
O264 O 0.21919 0.09988 0.66261 0.0
O265 O 0.23986 0.10095 0.62821 0.0
O266 O 0.36478 0.7612 0.17823 0.0
Cd267 Cd 0.36885 0.73342 0.15344 0.0
Cd268 Cd 0.34137 0.76203 0.12604 0.0
O269 O 0.34491 0.78633 0.15425 0.0
O270 O 0.39806 0.71473 0.16366 0.0
O271 O 0.39582 0.73522 0.12919 0.0
C272 C 0.40833 0.72195 0.1439 0.0
C273 C 0.35055 0.7734 0.08647 0.0
C274 C 0.35463 0.78163 0.17463 0.0
C275 C 0.32002 0.71403 0.14074 0.0
O276 O 0.31645 0.73442 0.1305 0.0
O277 O 0.34047 0.70926 0.15028 0.0
O278 O 0.3309 0.78069 0.09692 0.0
O279 O 0.36534 0.76007 0.09882 0.0
O280 O 0.73312 0.13147 0.31596 0.0
Cd281 Cd 0.76123 0.12685 0.34023 0.0
Cd282 Cd 0.73391 0.15518 0.368 0.0
O283 O 0.70913 0.15247 0.34012 0.0
O284 O 0.77907 0.09725 0.32961 0.0
O285 O 0.75946 0.0999 0.36456 0.0
C286 C 0.77213 0.08712 0.34954 0.0
C287 C 0.72282 0.14643 0.40776 0.0
C288 C 0.71316 0.14242 0.31976 0.0
C289 C 0.78205 0.17531 0.35225 0.0
O290 O 0.76206 0.17935 0.36305 0.0
O291 O 0.78608 0.15473 0.3426 0.0
O292 O 0.71597 0.16626 0.39733 0.0
O293 O 0.73554 0.1312 0.39529 0.0
O294 O 0.3153 0.25702 0.86445 0.0
Cd295 Cd 0.34075 0.22988 0.86881 0.0
Cd296 Cd 0.36843 0.25942 0.84269 0.0
O297 O 0.33945 0.28292 0.84583 0.0
O298 O 0.33072 0.21053 0.89758 0.0
O299 O 0.36456 0.23219 0.89606 0.0
C300 C 0.35014 0.21822 0.90816 0.0
C301 C 0.40755 0.27208 0.85216 0.0
C302 C 0.31883 0.27767 0.85476 0.0
C303 C 0.35557 0.21134 0.82036 0.0
O304 O 0.3655 0.23196 0.81739 0.0
O305 O 0.34531 0.20617 0.84034 0.0
O306 O 0.39692 0.27919 0.83257 0.0
O307 O 0.3956 0.25824 0.8668 0.0
O308 O 0.26467 0.86433 0.31626 0.0
Cd309 Cd 0.23688 0.86853 0.34099 0.0
Cd310 Cd 0.2654 0.84124 0.36855 0.0
O311 O 0.2898 0.84469 0.34039 0.0
O312 O 0.21792 0.89737 0.33021 0.0
O313 O 0.23828 0.89597 0.36478 0.0
C314 C 0.2249 0.90805 0.34982 0.0
C315 C 0.27627 0.8506 0.4082 0.0
C316 C 0.28509 0.85422 0.31993 0.0
C317 C 0.21765 0.81961 0.35383 0.0
O318 O 0.238 0.81612 0.36411 0.0
O319 O 0.21284 0.84005 0.34424 0.0
O320 O 0.28391 0.83103 0.39783 0.0
O321 O 0.26296 0.86528 0.39569 0.0
O322 O 0.68015 0.7368 0.86424 0.0
Cd323 Cd 0.65553 0.76467 0.86868 0.0
Cd324 Cd 0.62769 0.73687 0.84097 0.0
O325 O 0.65596 0.71246 0.84372 0.0
O326 O 0.66572 0.78289 0.89811 0.0
O327 O 0.63107 0.76271 0.89546 0.0
C328 C 0.64581 0.77575 0.90816 0.0
C329 C 0.58806 0.72505 0.84945 0.0
C330 C 0.6764 0.71672 0.85351 0.0
C331 C 0.64278 0.78506 0.82032 0.0
O332 O 0.63202 0.76499 0.81662 0.0
O333 O 0.65278 0.78926 0.84066 0.0
O334 O 0.59879 0.71831 0.82978 0.0
O335 O 0.60016 0.73807 0.8647 0.0
H336 H 0.17325 0.55832 0.30167 0.0
H337 H 0.10931 0.43706 0.25469 0.0
H338 H 0.11043 0.55814 0.2549 0.0
H339 H 0.17391 0.43862 0.29894 0.0
H340 H 0.10562 0.48112 0.25939 0.0
H341 H 0.16982 0.5144 0.30582 0.0
C342 C 0.15856 0.54906 0.29247 0.0
C343 C 0.14229 0.56187 0.27766 0.0
C344 C 0.12044 0.47176 0.26828 0.0
C345 C 0.13838 0.51146 0.28215 0.0
C346 C 0.12254 0.44661 0.26565 0.0
C347 C 0.14213 0.4342 0.2762 0.0
C348 C 0.13806 0.48454 0.28155 0.0
C349 C 0.15867 0.44747 0.29027 0.0
C350 C 0.15661 0.52395 0.29483 0.0
C351 C 0.12348 0.54894 0.26636 0.0
N352 N 0.15637 0.47192 0.29235 0.0
N353 N 0.12221 0.52438 0.2686 0.0
H354 H 0.93576 0.6735 0.80005 0.0
H355 H 0.05818 0.60917 0.75694 0.0
H356 H 0.9373 0.61032 0.75375 0.0
H357 H 0.05542 0.67303 0.80226 0.0
H358 H 0.01403 0.60557 0.76024 0.0
H359 H 0.97946 0.66985 0.80576 0.0
C360 C 0.94526 0.65869 0.79127 0.0
C361 C 0.93292 0.64237 0.77615 0.0
C362 C 0.02313 0.62019 0.76969 0.0
C363 C 0.98309 0.6382 0.78243 0.0
C364 C 0.04834 0.62223 0.76786 0.0
C365 C 0.06046 0.64162 0.77909 0.0
C366 C 0.01 0.63769 0.78281 0.0
C367 C 0.04681 0.65795 0.79308 0.0
C368 C 0.97025 0.65661 0.79453 0.0
C369 C 0.94614 0.6234 0.76543 0.0
N370 N 0.02231 0.65574 0.79433 0.0
N371 N 0.97059 0.622 0.76854 0.0
H372 H 0.8869 0.43733 0.25367 0.0
H373 H 0.82114 0.55736 0.30132 0.0
H374 H 0.82272 0.43765 0.2986 0.0
H375 H 0.88451 0.55834 0.25528 0.0
H376 H 0.82517 0.51347 0.30524 0.0
H377 H 0.89 0.48139 0.25869 0.0
C378 C 0.87365 0.44661 0.26485 0.0
C379 C 0.85434 0.43385 0.27548 0.0
C380 C 0.83837 0.52326 0.29446 0.0
C381 C 0.8577 0.4842 0.28118 0.0
C382 C 0.83607 0.54837 0.29223 0.0
C383 C 0.85233 0.5615 0.2777 0.0
C384 C 0.85694 0.51111 0.28192 0.0
C385 C 0.87146 0.5489 0.26653 0.0
C386 C 0.87541 0.47176 0.26767 0.0
C387 C 0.83776 0.44678 0.28985 0.0
N388 N 0.87307 0.52434 0.26863 0.0
N389 N 0.83969 0.47124 0.29208 0.0
H390 H 0.05859 0.32067 0.7996 0.0
H391 H 0.93663 0.38621 0.75695 0.0
H392 H 0.05768 0.38456 0.75422 0.0
H393 H 0.93895 0.32217 0.80208 0.0
H394 H 0.98083 0.38935 0.76003 0.0
H395 H 0.01486 0.32436 0.80499 0.0
C396 C 0.04921 0.33562 0.79093 0.0
C397 C 0.06176 0.35216 0.7762 0.0
C398 C 0.97162 0.37478 0.76948 0.0
C399 C 0.01154 0.35641 0.78213 0.0
C400 C 0.94638 0.37301 0.76778 0.0
C401 C 0.93412 0.35372 0.77904 0.0
C402 C 0.98464 0.35711 0.7825 0.0
C403 C 0.94766 0.33719 0.79289 0.0
C404 C 0.02421 0.33774 0.79402 0.0
C405 C 0.04868 0.37131 0.76561 0.0
N406 N 0.97219 0.33914 0.79403 0.0
N407 N 0.02421 0.37275 0.76855 0.0
H408 H 0.11003 0.43713 0.7397 0.0
H409 H 0.1737 0.55958 0.69515 0.0
H410 H 0.17534 0.43979 0.69651 0.0
H411 H 0.11047 0.55827 0.74138 0.0
H412 H 0.17077 0.51567 0.69056 0.0
H413 H 0.10621 0.48126 0.73573 0.0
C414 C 0.12339 0.44694 0.72913 0.0
C415 C 0.1432 0.4348 0.71866 0.0
C416 C 0.15737 0.52497 0.70153 0.0
C417 C 0.139 0.48523 0.71413 0.0
C418 C 0.15903 0.55008 0.70414 0.0
C419 C 0.14248 0.56258 0.71891 0.0
C420 C 0.13914 0.51216 0.71391 0.0
C421 C 0.12372 0.54933 0.72995 0.0
C422 C 0.12123 0.47213 0.72691 0.0
C423 C 0.15991 0.44841 0.7051 0.0
N424 N 0.12272 0.52478 0.72745 0.0
N425 N 0.15754 0.47289 0.70341 0.0
H426 H 0.93633 0.60978 0.24065 0.0
H427 H 0.05747 0.6742 0.19392 0.0
H428 H 0.93779 0.67466 0.1967 0.0
H429 H 0.05737 0.61128 0.24065 0.0
H430 H 0.01356 0.6708 0.18991 0.0
H431 H 0.98039 0.60631 0.23612 0.0
C432 C 0.94586 0.62311 0.2298 0.0
C433 C 0.93341 0.64271 0.21928 0.0
C434 C 0.02313 0.65758 0.20087 0.0
C435 C 0.98376 0.63891 0.21412 0.0
C436 C 0.04823 0.6595 0.20315 0.0
C437 C 0.06107 0.64317 0.21788 0.0
C438 C 0.01067 0.6393 0.21355 0.0
C439 C 0.04816 0.62437 0.22924 0.0
C440 C 0.97102 0.62115 0.22726 0.0
C441 C 0.94666 0.6594 0.20535 0.0
N442 N 0.02361 0.6231 0.22706 0.0
N443 N 0.97112 0.65723 0.20336 0.0
H444 H 0.88573 0.55895 0.73763 0.0
H445 H 0.82109 0.43648 0.6952 0.0
H446 H 0.82156 0.55622 0.69281 0.0
H447 H 0.88437 0.43801 0.74131 0.0
H448 H 0.82472 0.4802 0.68941 0.0
H449 H 0.88923 0.51476 0.73448 0.0
C450 C 0.87257 0.54911 0.72686 0.0
C451 C 0.85313 0.56125 0.71572 0.0
C452 C 0.83798 0.47098 0.70061 0.0
C453 C 0.85695 0.51074 0.71217 0.0
C454 C 0.83591 0.44599 0.70393 0.0
C455 C 0.85227 0.43363 0.71902 0.0
C456 C 0.85642 0.48382 0.71263 0.0
C457 C 0.87125 0.44686 0.72967 0.0
C458 C 0.87456 0.52387 0.72511 0.0
C459 C 0.83668 0.54759 0.70192 0.0
N460 N 0.87264 0.47131 0.7265 0.0
N461 N 0.83884 0.52307 0.70074 0.0
H462 H 0.93809 0.32248 0.18994 0.0
H463 H 0.05896 0.38628 0.23791 0.0
H464 H 0.93806 0.38492 0.23725 0.0
H465 H 0.05767 0.32141 0.19399 0.0
H466 H 0.015 0.39008 0.23276 0.0
H467 H 0.98201 0.32597 0.18599 0.0
C468 C 0.9473 0.3371 0.1993 0.0
C469 C 0.93444 0.35324 0.21422 0.0
C470 C 0.0244 0.37518 0.22403 0.0
C471 C 0.98482 0.35721 0.20996 0.0
C472 C 0.04949 0.37302 0.22693 0.0
C473 C 0.06194 0.35332 0.21663 0.0
C474 C 0.01172 0.35749 0.21075 0.0
C475 C 0.04878 0.33674 0.2025 0.0
C476 C 0.97241 0.33907 0.19706 0.0
C477 C 0.9473 0.37197 0.22572 0.0
N478 N 0.02437 0.33908 0.20016 0.0
N479 N 0.97185 0.37327 0.22359 0.0
H480 H 0.3103 0.17125 0.5565 0.0
H481 H 0.25949 0.10829 0.43656 0.0
H482 H 0.26115 0.11022 0.55709 0.0
H483 H 0.30542 0.17178 0.43711 0.0
H484 H 0.26531 0.10429 0.48037 0.0
H485 H 0.31426 0.16712 0.51266 0.0
C486 C 0.30054 0.15678 0.54744 0.0
C487 C 0.28507 0.14129 0.56041 0.0
C488 C 0.27434 0.11892 0.47084 0.0
C489 C 0.28934 0.1366 0.51014 0.0
C490 C 0.27105 0.1212 0.44583 0.0
C491 C 0.2817 0.14061 0.43325 0.0
C492 C 0.28834 0.13621 0.48329 0.0
C493 C 0.29661 0.15671 0.44614 0.0
C494 C 0.3028 0.15445 0.52238 0.0
C495 C 0.2731 0.12271 0.54775 0.0
N496 N 0.29928 0.15429 0.47048 0.0
N497 N 0.27523 0.12108 0.52325 0.0
H498 H 0.324 0.80501 0.93681 0.0
H499 H 0.38757 0.75684 0.05762 0.0
H500 H 0.38637 0.75753 0.93691 0.0
H501 H 0.32355 0.80205 0.05636 0.0
H502 H 0.3914 0.7619 0.0137 0.0
H503 H 0.32767 0.80927 0.98065 0.0
C504 C 0.33865 0.79569 0.94602 0.0
C505 C 0.3547 0.78062 0.93323 0.0
C506 C 0.37668 0.77093 0.02308 0.0
C507 C 0.35887 0.78522 0.98353 0.0
C508 C 0.3745 0.76808 0.04816 0.0
C509 C 0.35502 0.77878 0.06061 0.0
C510 C 0.35922 0.78454 0.01041 0.0
C511 C 0.3387 0.79325 0.04747 0.0
C512 C 0.34073 0.79811 0.97109 0.0
C513 C 0.37348 0.76917 0.9461 0.0
N514 N 0.34104 0.79551 0.02307 0.0
N515 N 0.37487 0.77146 0.97061 0.0
H516 H 0.73497 0.88852 0.43657 0.0
H517 H 0.68869 0.82668 0.55889 0.0
H518 H 0.6883 0.82563 0.43941 0.0
H519 H 0.7376 0.88787 0.55707 0.0
H520 H 0.68297 0.83051 0.51523 0.0
H521 H 0.73084 0.89293 0.48052 0.0
C522 C 0.72359 0.87584 0.44637 0.0
C523 C 0.71225 0.85646 0.43437 0.0
C524 C 0.69476 0.84328 0.52438 0.0
C525 C 0.70756 0.86132 0.4846 0.0
C526 C 0.69802 0.84111 0.54934 0.0
C527 C 0.71393 0.85675 0.56157 0.0
C528 C 0.70765 0.8611 0.51148 0.0
C529 C 0.72534 0.87528 0.54831 0.0
C530 C 0.72127 0.87835 0.47147 0.0
C531 C 0.69761 0.84067 0.44795 0.0
N532 N 0.72222 0.87674 0.5239 0.0
N533 N 0.6959 0.8433 0.47236 0.0
H534 H 0.67131 0.19186 0.05861 0.0
H535 H 0.60679 0.23711 0.93725 0.0
H536 H 0.60844 0.23868 0.05781 0.0
H537 H 0.67112 0.19235 0.93901 0.0
H538 H 0.60307 0.23263 0.98123 0.0
H539 H 0.66741 0.18655 0.0149 0.0
C540 C 0.6565 0.20082 0.04927 0.0
C541 C 0.64038 0.21602 0.06182 0.0
C542 C 0.61783 0.22356 0.97195 0.0
C543 C 0.63593 0.21019 0.01167 0.0
C544 C 0.61994 0.22607 0.94683 0.0
C545 C 0.6395 0.21537 0.9345 0.0
C546 C 0.63543 0.2103 0.98478 0.0
C547 C 0.65591 0.20116 0.94781 0.0
C548 C 0.65429 0.19779 0.02428 0.0
C549 C 0.6214 0.22696 0.04881 0.0
N550 N 0.65365 0.19925 0.97225 0.0
N551 N 0.61988 0.22408 0.02437 0.0
H552 H 0.30579 0.82458 0.43831 0.0
H553 H 0.25531 0.88846 0.5581 0.0
H554 H 0.25755 0.88637 0.43733 0.0
H555 H 0.30073 0.82455 0.55778 0.0
H556 H 0.26089 0.89203 0.5142 0.0
H557 H 0.30925 0.82849 0.4822 0.0
C558 C 0.29613 0.83915 0.4473 0.0
C559 C 0.2811 0.85497 0.43418 0.0
C560 C 0.26985 0.87739 0.5238 0.0
C561 C 0.28478 0.85942 0.48454 0.0
C562 C 0.26671 0.87536 0.54886 0.0
C563 C 0.27732 0.85599 0.56156 0.0
C564 C 0.28369 0.8599 0.5114 0.0
C565 C 0.29198 0.83962 0.54869 0.0
C566 C 0.29809 0.84137 0.4724 0.0
C567 C 0.26919 0.87366 0.44677 0.0
N568 N 0.29454 0.84182 0.52431 0.0
N569 N 0.27105 0.87519 0.47131 0.0
H570 H 0.67023 0.80743 0.05811 0.0
H571 H 0.60863 0.75872 0.93653 0.0
H572 H 0.60936 0.7581 0.05724 0.0
H573 H 0.67213 0.80456 0.93865 0.0
H574 H 0.60429 0.76354 0.98044 0.0
H575 H 0.66671 0.81194 0.01429 0.0
C576 C 0.65593 0.79774 0.04873 0.0
C577 C 0.64029 0.78209 0.0613 0.0
C578 C 0.619 0.77276 0.97124 0.0
C579 C 0.63629 0.78699 0.01102 0.0
C580 C 0.62147 0.77006 0.94617 0.0
C581 C 0.64097 0.78099 0.93398 0.0
C582 C 0.63618 0.78648 0.98414 0.0
C583 C 0.65699 0.79556 0.94735 0.0
C584 C 0.65394 0.80031 0.02368 0.0
C585 C 0.62195 0.7702 0.04823 0.0
N586 N 0.65436 0.79769 0.97172 0.0
N587 N 0.62064 0.77266 0.02373 0.0
H588 H 0.69093 0.17335 0.55745 0.0
H589 H 0.73908 0.10933 0.43674 0.0
H590 H 0.73836 0.11093 0.5576 0.0
H591 H 0.69477 0.174 0.4379 0.0
H592 H 0.73409 0.10573 0.48071 0.0
H593 H 0.68708 0.16982 0.51357 0.0
C594 C 0.70034 0.15872 0.54828 0.0
C595 C 0.71524 0.1426 0.56117 0.0
C596 C 0.72525 0.12055 0.47128 0.0
C597 C 0.71111 0.13858 0.51081 0.0
C598 C 0.72805 0.12259 0.44618 0.0
C599 C 0.71757 0.14217 0.43369 0.0
C600 C 0.71188 0.13822 0.48393 0.0
C601 C 0.7034 0.15876 0.44682 0.0
C602 C 0.69815 0.15673 0.52318 0.0
C603 C 0.72682 0.12387 0.54834 0.0
N604 N 0.70115 0.15652 0.47123 0.0
N605 N 0.72474 0.12254 0.5238 0.0
H606 H 0.38791 0.23566 0.05816 0.0
H607 H 0.32477 0.18727 0.93739 0.0
H608 H 0.32506 0.18888 0.05687 0.0
H609 H 0.38578 0.23642 0.93766 0.0
H610 H 0.32908 0.1823 0.9811 0.0
H611 H 0.3918 0.23084 0.01424 0.0
C612 C 0.37513 0.2241 0.0487 0.0
C613 C 0.35591 0.21295 0.06113 0.0
C614 C 0.34171 0.19399 0.9716 0.0
C615 C 0.36017 0.20747 0.01093 0.0
C616 C 0.33926 0.19682 0.94661 0.0
C617 C 0.35472 0.21257 0.93393 0.0
C618 C 0.35962 0.20714 0.98406 0.0
C619 C 0.37332 0.22427 0.94678 0.0
C620 C 0.37734 0.22139 0.02362 0.0
C621 C 0.33998 0.19807 0.04799 0.0
N622 N 0.37507 0.22157 0.97122 0.0
N623 N 0.34232 0.19598 0.02358 0.0
H624 H 0.55831 0.25712 0.10696 0.0
H625 H 0.43629 0.30284 0.17 0.0
H626 H 0.55591 0.30321 0.17024 0.0
H627 H 0.43767 0.25488 0.10809 0.0
H628 H 0.48 0.30843 0.16609 0.0
H629 H 0.51429 0.26128 0.10292 0.0
C630 C 0.54858 0.26838 0.11981 0.0
C631 C 0.56074 0.27955 0.13918 0.0
C632 C 0.47074 0.29688 0.15318 0.0
C633 C 0.51042 0.28427 0.13474 0.0
C634 C 0.44575 0.29369 0.1554 0.0
C635 C 0.43338 0.27809 0.13956 0.0
C636 C 0.48352 0.28423 0.13512 0.0
C637 C 0.44654 0.26691 0.12083 0.0
C638 C 0.52345 0.27072 0.11751 0.0
C639 C 0.54725 0.29404 0.15519 0.0
N640 N 0.47097 0.26995 0.11932 0.0
N641 N 0.5228 0.29576 0.15276 0.0
H642 H 0.5589 0.69566 0.82227 0.0
H643 H 0.43729 0.74092 0.88662 0.0
H644 H 0.55814 0.74187 0.88549 0.0
H645 H 0.43917 0.69596 0.82252 0.0
H646 H 0.48135 0.73671 0.89021 0.0
H647 H 0.51509 0.69075 0.82585 0.0
C648 C 0.54954 0.70458 0.83707 0.0
C649 C 0.56215 0.71946 0.85342 0.0
C650 C 0.47208 0.72754 0.87552 0.0
C651 C 0.51187 0.71409 0.85751 0.0
C652 C 0.44692 0.7299 0.87349 0.0
C653 C 0.43458 0.71903 0.85406 0.0
C654 C 0.48495 0.71427 0.85797 0.0
C655 C 0.44795 0.70488 0.83765 0.0
C656 C 0.52449 0.70178 0.83911 0.0
C657 C 0.5491 0.73038 0.87238 0.0
N658 N 0.47243 0.70311 0.83984 0.0
N659 N 0.5246 0.72772 0.87373 0.0
H660 H 0.79997 0.9364 0.32345 0.0
H661 H 0.75589 0.05886 0.38715 0.0
H662 H 0.75355 0.93801 0.38651 0.0
H663 H 0.79946 0.05616 0.32213 0.0
H664 H 0.76004 0.01479 0.39114 0.0
H665 H 0.80528 0.98022 0.32675 0.0
C666 C 0.7911 0.94594 0.33817 0.0
C667 C 0.77602 0.93358 0.35453 0.0
C668 C 0.76892 0.02389 0.37617 0.0
C669 C 0.78184 0.98386 0.35829 0.0
C670 C 0.76659 0.04905 0.3739 0.0
C671 C 0.77708 0.06115 0.35409 0.0
C672 C 0.7818 0.01078 0.35848 0.0
C673 C 0.79084 0.04756 0.33754 0.0
C674 C 0.79413 0.97099 0.34003 0.0
C675 C 0.76518 0.94685 0.37338 0.0
N676 N 0.7926 0.02309 0.33998 0.0
N677 N 0.76806 0.97134 0.37457 0.0
H678 H 0.43642 0.30288 0.82621 0.0
H679 H 0.55804 0.25612 0.88926 0.0
H680 H 0.43738 0.25474 0.88801 0.0
H681 H 0.55604 0.30181 0.82566 0.0
H682 H 0.51406 0.26073 0.89332 0.0
H683 H 0.48017 0.3081 0.8301 0.0
C684 C 0.4458 0.29362 0.84079 0.0
C685 C 0.43329 0.27807 0.85659 0.0
C686 C 0.5233 0.26998 0.87866 0.0
C687 C 0.48349 0.28377 0.86101 0.0
C688 C 0.54841 0.26739 0.87634 0.0
C689 C 0.56066 0.27832 0.85688 0.0
C690 C 0.51039 0.28355 0.86135 0.0
C691 C 0.5473 0.29282 0.84077 0.0
C692 C 0.47081 0.2966 0.843 0.0
C693 C 0.44635 0.26674 0.8753 0.0
N694 N 0.52287 0.2948 0.84323 0.0
N695 N 0.47082 0.26957 0.8768 0.0
H696 H 0.19504 0.93725 0.32313 0.0
H697 H 0.24024 0.05861 0.38786 0.0
H698 H 0.24178 0.9378 0.38594 0.0
H699 H 0.19534 0.057 0.32374 0.0
H700 H 0.23591 0.01453 0.39141 0.0
H701 H 0.18984 0.98103 0.32708 0.0
C702 C 0.20401 0.94655 0.33792 0.0
C703 C 0.21914 0.93391 0.35403 0.0
C704 C 0.22677 0.02388 0.37674 0.0
C705 C 0.21343 0.98414 0.35855 0.0
C706 C 0.2292 0.04904 0.37473 0.0
C707 C 0.21841 0.06145 0.35528 0.0
C708 C 0.21351 0.01107 0.35914 0.0
C709 C 0.20421 0.04816 0.33887 0.0
C710 C 0.20104 0.97158 0.34017 0.0
C711 C 0.23011 0.94687 0.37299 0.0
N712 N 0.20239 0.02367 0.34104 0.0
N713 N 0.22728 0.97135 0.37456 0.0
H714 H 0.55846 0.69229 0.17015 0.0
H715 H 0.43683 0.7385 0.10663 0.0
H716 H 0.55751 0.74006 0.10806 0.0
H717 H 0.43883 0.69356 0.17076 0.0
H718 H 0.48082 0.73391 0.10266 0.0
H719 H 0.51469 0.68711 0.16632 0.0
C720 C 0.54908 0.70148 0.15552 0.0
C721 C 0.5616 0.71691 0.13961 0.0
C722 C 0.47158 0.72482 0.11743 0.0
C723 C 0.51139 0.71124 0.13526 0.0
C724 C 0.44646 0.72739 0.11968 0.0
C725 C 0.4342 0.71667 0.13926 0.0
C726 C 0.48448 0.71146 0.1349 0.0
C727 C 0.44757 0.70239 0.15555 0.0
C728 C 0.52406 0.69853 0.15335 0.0
C729 C 0.54854 0.72816 0.12085 0.0
N730 N 0.47201 0.70041 0.15315 0.0
N731 N 0.52407 0.72534 0.11938 0.0
H732 H 0.75678 0.93784 0.60661 0.0
H733 H 0.80219 0.05916 0.67108 0.0
H734 H 0.80338 0.93945 0.66951 0.0
H735 H 0.75484 0.05861 0.60873 0.0
H736 H 0.80776 0.01546 0.66677 0.0
H737 H 0.76078 0.98194 0.6031 0.0
C738 C 0.76813 0.94741 0.61947 0.0
C739 C 0.77949 0.935 0.63859 0.0
C740 C 0.79635 0.02489 0.65385 0.0
C741 C 0.784 0.98542 0.63479 0.0
C742 C 0.79316 0.04988 0.65631 0.0
C743 C 0.77776 0.06249 0.64044 0.0
C744 C 0.78388 0.01234 0.63552 0.0
C745 C 0.76672 0.04955 0.62149 0.0
C746 C 0.77037 0.9726 0.61749 0.0
C747 C 0.79407 0.9483 0.65465 0.0
N748 N 0.76975 0.02511 0.61974 0.0
N749 N 0.79569 0.97281 0.65254 0.0
H750 H 0.24184 0.05944 0.60627 0.0
H751 H 0.1919 0.9403 0.67176 0.0
H752 H 0.19676 0.05995 0.67031 0.0
H753 H 0.23864 0.93867 0.60893 0.0
H754 H 0.18836 0.98422 0.66749 0.0
H755 H 0.23584 0.01553 0.60301 0.0
C756 C 0.23041 0.05038 0.61945 0.0
C757 C 0.22005 0.06332 0.63879 0.0
C758 C 0.19919 0.97426 0.65446 0.0
C759 C 0.21323 0.01313 0.63525 0.0
C760 C 0.20121 0.94915 0.65688 0.0
C761 C 0.21586 0.93584 0.64087 0.0
C762 C 0.21208 0.98623 0.636 0.0
C763 C 0.22731 0.94825 0.62181 0.0
C764 C 0.22703 0.02531 0.6176 0.0
C765 C 0.20532 0.05067 0.65526 0.0
N766 N 0.22542 0.97281 0.62008 0.0
N767 N 0.20256 0.02627 0.65326 0.0
H768 H 0.16973 0.32052 0.32355 0.0
H769 H 0.17235 0.17612 0.32993 0.0
H770 H 0.12546 0.27365 0.27905 0.0
H771 H 0.22108 0.2228 0.36973 0.0
H772 H 0.14871 0.21172 0.31815 0.0
H773 H 0.18213 0.28527 0.34739 0.0
C774 C 0.16226 0.3029 0.31904 0.0
C775 C 0.1469 0.29999 0.29893 0.0
C776 C 0.16437 0.21414 0.32976 0.0
C777 C 0.16122 0.25952 0.32606 0.0
C778 C 0.17787 0.19379 0.33655 0.0
C779 C 0.19904 0.1965 0.35045 0.0
C780 C 0.17213 0.23737 0.33683 0.0
C781 C 0.20512 0.21985 0.35868 0.0
C782 C 0.16941 0.28275 0.33264 0.0
C783 C 0.13764 0.27673 0.29413 0.0
N784 N 0.19194 0.23942 0.35145 0.0
N785 N 0.14522 0.25735 0.30736 0.0
H786 H 0.31972 0.67191 0.8295 0.0
H787 H 0.1753 0.66899 0.82662 0.0
H788 H 0.27382 0.72012 0.87092 0.0
H789 H 0.22125 0.62583 0.78003 0.0
H790 H 0.21104 0.68101 0.84986 0.0
H791 H 0.28396 0.64827 0.81833 0.0
C792 C 0.3022 0.67731 0.83661 0.0
C793 C 0.29973 0.69835 0.85077 0.0
C794 C 0.21325 0.66861 0.83478 0.0
C795 C 0.25867 0.67145 0.83786 0.0
C796 C 0.19282 0.66167 0.82152 0.0
C797 C 0.19532 0.64677 0.80101 0.0
C798 C 0.23634 0.66064 0.82745 0.0
C799 C 0.21848 0.63768 0.79545 0.0
C800 C 0.28176 0.66381 0.83016 0.0
C801 C 0.27657 0.70427 0.85964 0.0
N802 N 0.23813 0.64505 0.80836 0.0
N803 N 0.2569 0.69111 0.85274 0.0
H804 H 0.8704 0.72156 0.28136 0.0
H805 H 0.77083 0.77259 0.37224 0.0
H806 H 0.8224 0.67615 0.3235 0.0
H807 H 0.81909 0.81787 0.33025 0.0
H808 H 0.7947 0.73712 0.3606 0.0
H809 H 0.85728 0.75663 0.30499 0.0
C810 C 0.8574 0.71886 0.29585 0.0
C811 C 0.84715 0.69592 0.30013 0.0
C812 C 0.80029 0.75485 0.35423 0.0
C813 C 0.83182 0.73612 0.32709 0.0
C814 C 0.78667 0.77516 0.36089 0.0
C815 C 0.79267 0.79823 0.35183 0.0
C816 C 0.81997 0.75759 0.33826 0.0
C817 C 0.81356 0.80042 0.33741 0.0
C818 C 0.84988 0.73894 0.30933 0.0
C819 C 0.83058 0.69353 0.31934 0.0
N820 N 0.82623 0.78032 0.33077 0.0
N821 N 0.82314 0.71345 0.33184 0.0
H822 H 0.81975 0.32702 0.82771 0.0
H823 H 0.67538 0.3245 0.83193 0.0
H824 H 0.77352 0.37107 0.78225 0.0
H825 H 0.72149 0.27546 0.87212 0.0
H826 H 0.7111 0.34824 0.82084 0.0
H827 H 0.78419 0.31481 0.85116 0.0
C828 C 0.80221 0.3345 0.82291 0.0
C829 C 0.79957 0.3497 0.80264 0.0
C830 C 0.71336 0.33249 0.83239 0.0
C831 C 0.75875 0.3356 0.82931 0.0
C832 C 0.69294 0.31893 0.83878 0.0
C833 C 0.69547 0.29764 0.85257 0.0
C834 C 0.73648 0.32467 0.83975 0.0
C835 C 0.71869 0.29151 0.86113 0.0
C836 C 0.78188 0.32745 0.83629 0.0
C837 C 0.77639 0.35898 0.79747 0.0
N838 N 0.73833 0.30474 0.85428 0.0
N839 N 0.75684 0.3515 0.81048 0.0
H840 H 0.21583 0.77546 0.62362 0.0
H841 H 0.12234 0.7232 0.72004 0.0
H842 H 0.17058 0.82024 0.66935 0.0
H843 H 0.16732 0.67842 0.67406 0.0
H844 H 0.13399 0.75866 0.69621 0.0
H845 H 0.1926 0.73991 0.63618 0.0
C846 C 0.20075 0.77791 0.636 0.0
C847 C 0.19546 0.80084 0.64581 0.0
C848 C 0.14104 0.74103 0.69109 0.0
C849 C 0.16894 0.7601 0.66048 0.0
C850 C 0.13437 0.72073 0.7047 0.0
C851 C 0.14422 0.69783 0.69935 0.0
C852 C 0.15784 0.73847 0.67211 0.0
C853 C 0.1595 0.69574 0.67906 0.0
C854 C 0.1875 0.75756 0.64319 0.0
C855 C 0.17553 0.80289 0.66155 0.0
N856 N 0.16614 0.71586 0.66643 0.0
N857 N 0.16325 0.78273 0.6687 0.0
H858 H 0.72248 0.72304 0.12394 0.0
H859 H 0.77364 0.62373 0.215 0.0
H860 H 0.67732 0.67417 0.16535 0.0
H861 H 0.81894 0.67199 0.17304 0.0
H862 H 0.73865 0.63655 0.19112 0.0
H863 H 0.75804 0.6994 0.13572 0.0
C864 C 0.71997 0.70711 0.1352 0.0
C865 C 0.6969 0.70087 0.14405 0.0
C866 C 0.7563 0.64407 0.18687 0.0
C867 C 0.73763 0.67383 0.1578 0.0
C868 C 0.77633 0.63673 0.2005 0.0
C869 C 0.79921 0.64715 0.19635 0.0
C870 C 0.7591 0.66213 0.16909 0.0
C871 C 0.80161 0.66369 0.17711 0.0
C872 C 0.74032 0.69362 0.14194 0.0
C873 C 0.69477 0.67988 0.15835 0.0
N874 N 0.78172 0.67097 0.16446 0.0
N875 N 0.71492 0.66734 0.16509 0.0
H876 H 0.77532 0.22305 0.62442 0.0
H877 H 0.8706 0.27319 0.72005 0.0
H878 H 0.82108 0.17727 0.66863 0.0
H879 H 0.8256 0.31899 0.67509 0.0
H880 H 0.85831 0.23814 0.69596 0.0
H881 H 0.799 0.25825 0.63709 0.0
C882 C 0.79059 0.22032 0.63649 0.0
C883 C 0.79591 0.1972 0.64584 0.0
C884 C 0.8514 0.25591 0.69112 0.0
C885 C 0.82295 0.23752 0.66063 0.0
C886 C 0.85843 0.27597 0.70487 0.0
C887 C 0.84876 0.29903 0.69989 0.0
C888 C 0.83441 0.25887 0.67236 0.0
C889 C 0.83328 0.30152 0.67981 0.0
C890 C 0.8041 0.24046 0.64374 0.0
C891 C 0.81609 0.19477 0.66119 0.0
N892 N 0.82629 0.28163 0.66703 0.0
N893 N 0.82863 0.21473 0.66841 0.0
H894 H 0.22162 0.37151 0.21424 0.0
H895 H 0.27285 0.27262 0.12283 0.0
H896 H 0.17637 0.32388 0.17157 0.0
H897 H 0.318 0.32087 0.16492 0.0
H898 H 0.23737 0.29644 0.13447 0.0
H899 H 0.25672 0.3587 0.1905 0.0
C900 C 0.21897 0.35866 0.19962 0.0
C901 C 0.19607 0.3484 0.19522 0.0
C902 C 0.25507 0.30205 0.14086 0.0
C903 C 0.23629 0.33344 0.16812 0.0
C904 C 0.27538 0.28845 0.1342 0.0
C905 C 0.29841 0.29446 0.14329 0.0
C906 C 0.25777 0.3217 0.15688 0.0
C907 C 0.30057 0.31534 0.15774 0.0
C908 C 0.23906 0.35132 0.18606 0.0
C909 C 0.19372 0.33204 0.17583 0.0
N910 N 0.28046 0.32798 0.16439 0.0
N911 N 0.21365 0.32477 0.16326 0.0
H912 H 0.37417 0.21546 0.22059 0.0
H913 H 0.27958 0.12125 0.27413 0.0
H914 H 0.32942 0.16855 0.17661 0.0
H915 H 0.32566 0.16683 0.31813 0.0
H916 H 0.30345 0.13232 0.23854 0.0
H917 H 0.3627 0.19202 0.25635 0.0
C918 C 0.36226 0.19998 0.21837 0.0
C919 C 0.35232 0.1943 0.19562 0.0
C920 C 0.3086 0.13961 0.25604 0.0
C921 C 0.3389 0.16755 0.23657 0.0
C922 C 0.29496 0.13328 0.2764 0.0
C923 C 0.30029 0.14354 0.29908 0.0
C924 C 0.32755 0.1565 0.25833 0.0
C925 C 0.32064 0.15876 0.30095 0.0
C926 C 0.35569 0.1866 0.23882 0.0
C927 C 0.33724 0.17384 0.19382 0.0
N928 N 0.33327 0.16511 0.28076 0.0
N929 N 0.33065 0.16147 0.2141 0.0
H930 H 0.37194 0.77857 0.77268 0.0
H931 H 0.27714 0.8743 0.72156 0.0
H932 H 0.32807 0.82522 0.81788 0.0
H933 H 0.32205 0.8287 0.67631 0.0
H934 H 0.30115 0.8622 0.7567 0.0
H935 H 0.35965 0.80217 0.7373 0.0
C936 C 0.36003 0.79402 0.77525 0.0
C937 C 0.35065 0.79961 0.79826 0.0
C938 C 0.30601 0.85512 0.73903 0.0
C939 C 0.33629 0.82657 0.75772 0.0
C940 C 0.2923 0.86204 0.71892 0.0
C941 C 0.29727 0.85213 0.69599 0.0
C942 C 0.32471 0.83799 0.73626 0.0
C943 C 0.31733 0.83656 0.69367 0.0
C944 C 0.353 0.80749 0.755 0.0
C945 C 0.33551 0.82002 0.80047 0.0
N946 N 0.33006 0.82966 0.71362 0.0
N947 N 0.32849 0.83251 0.78041 0.0
H948 H 0.71295 0.87443 0.27512 0.0
H949 H 0.61998 0.7791 0.22089 0.0
H950 H 0.66697 0.8284 0.31881 0.0
H951 H 0.6645 0.82657 0.17724 0.0
H952 H 0.63085 0.80266 0.25673 0.0
H953 H 0.68951 0.86308 0.23936 0.0
C954 C 0.69767 0.86224 0.27729 0.0
C955 C 0.69226 0.85194 0.29994 0.0
C956 C 0.63794 0.80818 0.23926 0.0
C957 C 0.6655 0.83865 0.25898 0.0
C958 C 0.63172 0.79472 0.21875 0.0
C959 C 0.64176 0.80053 0.19608 0.0
C960 C 0.6545 0.82745 0.23713 0.0
C961 C 0.65661 0.82118 0.1944 0.0
C962 C 0.68428 0.85576 0.25683 0.0
C963 C 0.67204 0.83652 0.30167 0.0
N964 N 0.66286 0.83363 0.21472 0.0
N965 N 0.65967 0.83001 0.28138 0.0
H966 H 0.71461 0.12233 0.72093 0.0
H967 H 0.62163 0.21854 0.77442 0.0
H968 H 0.66965 0.16901 0.67683 0.0
H969 H 0.66587 0.17114 0.81847 0.0
H970 H 0.63307 0.19513 0.73865 0.0
H971 H 0.69118 0.13425 0.75653 0.0
C972 C 0.69955 0.13478 0.71863 0.0
C973 C 0.69442 0.14506 0.6959 0.0
C974 C 0.63999 0.1896 0.75619 0.0
C975 C 0.66767 0.159 0.73671 0.0
C976 C 0.63344 0.20297 0.77666 0.0
C977 C 0.64318 0.19711 0.79945 0.0
C978 C 0.65656 0.17034 0.75846 0.0
C979 C 0.65817 0.17655 0.80123 0.0
C980 C 0.68618 0.14161 0.73901 0.0
C981 C 0.67449 0.16086 0.69403 0.0
N982 N 0.66471 0.16416 0.78095 0.0
N983 N 0.66211 0.16766 0.71424 0.0
H984 H 0.77535 0.77458 0.62085 0.0
H985 H 0.87306 0.72067 0.71177 0.0
H986 H 0.82437 0.81844 0.66339 0.0
H987 H 0.82466 0.6767 0.66865 0.0
H988 H 0.86119 0.75619 0.68814 0.0
H989 H 0.79868 0.73857 0.63187 0.0
C990 C 0.79126 0.77672 0.63219 0.0
C991 C 0.7976 0.79954 0.64162 0.0
C992 C 0.85344 0.73871 0.68358 0.0
C993 C 0.82427 0.75828 0.65452 0.0
C994 C 0.86023 0.71838 0.69707 0.0
C995 C 0.84947 0.69573 0.69253 0.0
C996 C 0.83557 0.73645 0.66556 0.0
C997 C 0.83319 0.69385 0.67303 0.0
C998 C 0.80458 0.75611 0.6385 0.0
C999 C 0.81858 0.80119 0.65597 0.0
N1000 N 0.82643 0.71402 0.66054 0.0
N1001 N 0.83092 0.78079 0.66231 0.0
H1002 H 0.67537 0.32635 0.16458 0.0
H1003 H 0.81974 0.32885 0.16745 0.0
H1004 H 0.72119 0.2781 0.12312 0.0
H1005 H 0.7739 0.37135 0.21474 0.0
H1006 H 0.78398 0.31733 0.144 0.0
H1007 H 0.71115 0.34992 0.17576 0.0
C1008 C 0.69287 0.32094 0.15746 0.0
C1009 C 0.69532 0.29988 0.1433 0.0
C1010 C 0.7818 0.32948 0.15929 0.0
C1011 C 0.7364 0.32672 0.15622 0.0
C1012 C 0.80224 0.33613 0.17267 0.0
C1013 C 0.79977 0.35068 0.19343 0.0
C1014 C 0.75873 0.33738 0.16675 0.0
C1015 C 0.77664 0.35976 0.19913 0.0
C1016 C 0.71333 0.3344 0.16391 0.0
C1017 C 0.71846 0.29395 0.13441 0.0
N1018 N 0.75697 0.35266 0.18609 0.0
N1019 N 0.73814 0.30708 0.14132 0.0
H1020 H 0.12507 0.2751 0.71209 0.0
H1021 H 0.22644 0.22448 0.62292 0.0
H1022 H 0.17429 0.32068 0.67155 0.0
H1023 H 0.17728 0.17902 0.66365 0.0
H1024 H 0.20247 0.25993 0.63439 0.0
H1025 H 0.13859 0.24019 0.68843 0.0
C1026 C 0.13843 0.27787 0.69794 0.0
C1027 C 0.1489 0.3008 0.69414 0.0
C1028 C 0.1967 0.24217 0.64053 0.0
C1029 C 0.16468 0.26079 0.66716 0.0
C1030 C 0.21039 0.22187 0.63397 0.0
C1031 C 0.20415 0.19875 0.64271 0.0
C1032 C 0.17671 0.23937 0.65609 0.0
C1033 C 0.18299 0.19651 0.65674 0.0
C1034 C 0.14618 0.25789 0.68444 0.0
C1035 C 0.16592 0.3033 0.67534 0.0
N1036 N 0.17026 0.2166 0.66329 0.0
N1037 N 0.17357 0.28346 0.66283 0.0
H1038 H 0.17528 0.66826 0.17031 0.0
H1039 H 0.31963 0.67064 0.16519 0.0
H1040 H 0.22174 0.62493 0.21621 0.0
H1041 H 0.27332 0.71891 0.12431 0.0
H1042 H 0.28396 0.64717 0.17698 0.0
H1043 H 0.21072 0.68014 0.14651 0.0
C1044 C 0.19285 0.66088 0.17514 0.0
C1045 C 0.19559 0.64596 0.19561 0.0
C1046 C 0.28164 0.66269 0.16513 0.0
C1047 C 0.23627 0.65967 0.16854 0.0
C1048 C 0.30203 0.67609 0.15834 0.0
C1049 C 0.29944 0.6971 0.14413 0.0
C1050 C 0.25848 0.67039 0.15776 0.0
C1051 C 0.27617 0.70308 0.1356 0.0
C1052 C 0.2131 0.66773 0.16156 0.0
C1053 C 0.2188 0.63678 0.20083 0.0
N1054 N 0.25656 0.69001 0.14284 0.0
N1055 N 0.23828 0.64408 0.18761 0.0
H1056 H 0.82945 0.31942 0.32164 0.0
H1057 H 0.82426 0.17498 0.32584 0.0
H1058 H 0.86989 0.27247 0.27363 0.0
H1059 H 0.77894 0.22198 0.36922 0.0
H1060 H 0.84783 0.21029 0.31314 0.0
H1061 H 0.8177 0.28398 0.34552 0.0
C1062 C 0.83621 0.30173 0.31633 0.0
C1063 C 0.8503 0.29889 0.2953 0.0
C1064 C 0.83296 0.21283 0.32573 0.0
C1065 C 0.83673 0.2582 0.32248 0.0
C1066 C 0.81951 0.19264 0.33306 0.0
C1067 C 0.79927 0.19556 0.34826 0.0
C1068 C 0.82607 0.2361 0.33358 0.0
C1069 C 0.79415 0.21889 0.35718 0.0
C1070 C 0.82944 0.28148 0.32997 0.0
C1071 C 0.8587 0.27551 0.28948 0.0
N1072 N 0.80724 0.2383 0.34943 0.0
N1073 N 0.85149 0.25604 0.30279 0.0
H1074 H 0.17455 0.3241 0.82283 0.0
H1075 H 0.31875 0.32205 0.83217 0.0
H1076 H 0.2221 0.36976 0.78044 0.0
H1077 H 0.27159 0.27154 0.86917 0.0
H1078 H 0.28326 0.34575 0.82027 0.0
H1079 H 0.20937 0.31102 0.84691 0.0
C1080 C 0.19222 0.33173 0.81884 0.0
C1081 C 0.19546 0.34771 0.79925 0.0
C1082 C 0.2807 0.32967 0.83129 0.0
C1083 C 0.23544 0.33262 0.82665 0.0
C1084 C 0.30098 0.31613 0.83814 0.0
C1085 C 0.29814 0.29448 0.8513 0.0
C1086 C 0.25739 0.32148 0.83754 0.0
C1087 C 0.27466 0.2879 0.85872 0.0
C1088 C 0.21212 0.32419 0.83258 0.0
C1089 C 0.21878 0.35713 0.79512 0.0
N1090 N 0.25516 0.30115 0.85144 0.0
N1091 N 0.23792 0.34918 0.80846 0.0
H1092 H 0.22191 0.77328 0.37155 0.0
H1093 H 0.12445 0.72246 0.2785 0.0
H1094 H 0.17504 0.81873 0.32816 0.0
H1095 H 0.17044 0.67694 0.32273 0.0
H1096 H 0.13727 0.75765 0.30208 0.0
H1097 H 0.19801 0.73796 0.35962 0.0
C1098 C 0.20636 0.77592 0.35982 0.0
C1099 C 0.20077 0.79897 0.35047 0.0
C1100 C 0.14429 0.73992 0.30688 0.0
C1101 C 0.17346 0.75851 0.33655 0.0
C1102 C 0.13694 0.71977 0.29342 0.0
C1103 C 0.14673 0.69675 0.29833 0.0
C1104 C 0.16171 0.73708 0.32526 0.0
C1105 C 0.16264 0.69437 0.31808 0.0
C1106 C 0.19272 0.7557 0.353 0.0
C1107 C 0.18024 0.80128 0.33557 0.0
N1108 N 0.16994 0.71435 0.33056 0.0
N1109 N 0.16757 0.78125 0.32877 0.0
H1110 H 0.77245 0.62465 0.77531 0.0
H1111 H 0.72274 0.71998 0.87132 0.0
H1112 H 0.81839 0.66973 0.81997 0.0
H1113 H 0.67683 0.67472 0.82681 0.0
H1114 H 0.75782 0.69615 0.85853 0.0
H1115 H 0.73752 0.63702 0.79955 0.0
C1116 C 0.77528 0.63686 0.79045 0.0
C1117 C 0.79835 0.64653 0.79531 0.0
C1118 C 0.74003 0.69118 0.85185 0.0
C1119 C 0.75833 0.66095 0.82301 0.0
C1120 C 0.71995 0.70478 0.85918 0.0
C1121 C 0.69683 0.69966 0.84976 0.0
C1122 C 0.73703 0.67245 0.83483 0.0
C1123 C 0.69433 0.67956 0.83429 0.0
C1124 C 0.75529 0.64393 0.80429 0.0
C1125 C 0.80092 0.66205 0.81535 0.0
N1126 N 0.71424 0.66694 0.82701 0.0
N1127 N 0.78109 0.66907 0.82822 0.0
H1128 H 0.72128 0.8738 0.72186 0.0
H1129 H 0.62306 0.78281 0.77477 0.0
H1130 H 0.67208 0.8319 0.67759 0.0
H1131 H 0.67086 0.82615 0.81919 0.0
H1132 H 0.63533 0.80642 0.73941 0.0
H1133 H 0.69785 0.86253 0.75768 0.0
C1134 C 0.70532 0.86254 0.7196 0.0
C1135 C 0.69894 0.85338 0.69671 0.0
C1136 C 0.64286 0.81103 0.75695 0.0
C1137 C 0.67214 0.84021 0.73774 0.0
C1138 C 0.63583 0.79755 0.77719 0.0
C1139 C 0.64631 0.80217 0.79992 0.0
C1140 C 0.66066 0.82911 0.7594 0.0
C1141 C 0.66254 0.82171 0.80197 0.0
C1142 C 0.69194 0.8561 0.74009 0.0
C1143 C 0.6779 0.83912 0.69489 0.0
N1144 N 0.66953 0.83419 0.78189 0.0
N1145 N 0.6655 0.83265 0.71518 0.0
H1146 H 0.71533 0.12306 0.27404 0.0
H1147 H 0.62297 0.22089 0.22224 0.0
H1148 H 0.67204 0.17051 0.31896 0.0
H1149 H 0.66589 0.173 0.17741 0.0
H1150 H 0.63476 0.1973 0.2578 0.0
H1151 H 0.69158 0.13554 0.23885 0.0
C1152 C 0.70057 0.1358 0.2766 0.0
C1153 C 0.696 0.14611 0.29944 0.0
C1154 C 0.64131 0.19171 0.24014 0.0
C1155 C 0.66888 0.16069 0.25911 0.0
C1156 C 0.63456 0.20518 0.21979 0.0
C1157 C 0.64383 0.19921 0.19683 0.0
C1158 C 0.65759 0.17225 0.23757 0.0
C1159 C 0.65856 0.17849 0.19478 0.0
C1160 C 0.68701 0.14295 0.25646 0.0
C1161 C 0.67644 0.16231 0.30166 0.0
N1162 N 0.66529 0.16599 0.21494 0.0
N1163 N 0.66386 0.16941 0.28168 0.0
H1164 H 0.28272 0.12135 0.7195 0.0
H1165 H 0.37548 0.21602 0.77504 0.0
H1166 H 0.32951 0.16719 0.67647 0.0
H1167 H 0.33033 0.16852 0.81802 0.0
H1168 H 0.36503 0.19254 0.73902 0.0
H1169 H 0.3059 0.13233 0.75553 0.0
C1170 C 0.29812 0.13341 0.71754 0.0
C1171 C 0.30383 0.14379 0.69499 0.0
C1172 C 0.35771 0.18699 0.75639 0.0
C1173 C 0.33029 0.15666 0.73627 0.0
C1174 C 0.36369 0.2004 0.777 0.0
C1175 C 0.35334 0.19457 0.79952 0.0
C1176 C 0.34109 0.16775 0.75827 0.0
C1177 C 0.33845 0.17393 0.80098 0.0
C1178 C 0.31136 0.13969 0.73816 0.0
C1179 C 0.32421 0.15903 0.69353 0.0
N1180 N 0.33243 0.16153 0.78056 0.0
N1181 N 0.33643 0.16534 0.71396 0.0
H1182 H 0.32802 0.82895 0.31937 0.0
H1183 H 0.33013 0.82501 0.17508 0.0
H1184 H 0.2807 0.87134 0.27347 0.0
H1185 H 0.3719 0.77718 0.22103 0.0
H1186 H 0.31901 0.84885 0.21071 0.0
H1187 H 0.35117 0.81686 0.28359 0.0
C1188 C 0.32274 0.83609 0.30184 0.0
C1189 C 0.30205 0.85079 0.29938 0.0
C1190 C 0.33091 0.83335 0.21295 0.0
C1191 C 0.32838 0.83682 0.25832 0.0
C1192 C 0.33732 0.81974 0.19258 0.0
C1193 C 0.35158 0.79874 0.19511 0.0
C1194 C 0.33874 0.82588 0.23602 0.0
C1195 C 0.36055 0.79298 0.21824 0.0
C1196 C 0.33595 0.82911 0.28139 0.0
C1197 C 0.29626 0.85966 0.27621 0.0
N1198 N 0.35369 0.80626 0.23784 0.0
N1199 N 0.30913 0.85224 0.25654 0.0
loop_
_geom_bond_atom_site_label_1
_geom_bond_atom_site_label_2
_geom_bond_distance
_geom_bond_site_symmetry_2
_ccdc_geom_bond_type
O0 Cd1 2.223 . S
O0 C8 1.315 . S
Cd1 O0 2.223 . S
Cd1 O4 2.297 . S
Cd1 O5 2.439 . S
Cd1 O11 2.240 . S
Cd2 O3 2.240 . S
Cd2 O10 2.223 . S
Cd2 O12 2.297 . S
Cd2 O13 2.439 . S
O3 Cd2 2.240 . S
O3 C8 1.279 . S
O4 Cd1 2.297 . S
O4 C6 1.247 . S
O5 Cd1 2.439 . S
O5 C6 1.208 . S
C6 O4 1.247 . S
C6 O5 1.208 . S
C7 O12 1.247 . S
C7 O13 1.208 . S
C8 O0 1.315 . S
C8 O3 1.279 . S
C9 O10 1.315 . S
C9 O11 1.279 . S
O10 Cd2 2.223 . S
O10 C9 1.315 . S
O11 Cd1 2.240 . S
O11 C9 1.279 . S
O12 Cd2 2.297 . S
O12 C7 1.247 . S
O13 Cd2 2.439 . S
O13 C7 1.208 . S
O14 Cd15 2.223 . S
O14 C22 1.315 . S
Cd15 O14 2.223 . S
Cd15 O18 2.297 . S
Cd15 O19 2.439 . S
Cd15 O25 2.240 . S
Cd16 O17 2.240 . S
Cd16 O24 2.223 . S
Cd16 O26 2.297 . S
Cd16 O27 2.439 . S
O17 Cd16 2.240 . S
O17 C22 1.279 . S
O18 Cd15 2.297 . S
O18 C20 1.247 . S
O19 Cd15 2.439 . S
O19 C20 1.208 . S
C20 O18 1.247 . S
C20 O19 1.208 . S
C21 O26 1.247 . S
C21 O27 1.208 . S
C22 O14 1.315 . S
C22 O17 1.279 . S
C23 O24 1.315 . S
C23 O25 1.279 . S
O24 Cd16 2.223 . S
O24 C23 1.315 . S
O25 Cd15 2.240 . S
O25 C23 1.279 . S
O26 Cd16 2.297 . S
O26 C21 1.247 . S
O27 Cd16 2.439 . S
O27 C21 1.208 . S
O28 Cd29 2.223 . S
O28 C36 1.315 . S
Cd29 O28 2.223 . S
Cd29 O32 2.297 . S
Cd29 O33 2.439 . S
Cd29 O39 2.240 . S
Cd30 O31 2.240 . S
Cd30 O38 2.223 . S
Cd30 O40 2.297 . S
Cd30 O41 2.439 . S
O31 Cd30 2.240 . S
O31 C36 1.279 . S
O32 Cd29 2.297 . S
O32 C34 1.247 . S
O33 Cd29 2.439 . S
O33 C34 1.208 . S
C34 O32 1.247 . S
C34 O33 1.208 . S
C35 O40 1.247 . S
C35 O41 1.208 . S
C36 O28 1.315 . S
C36 O31 1.279 . S
C37 O38 1.315 . S
C37 O39 1.279 . S
O38 Cd30 2.223 . S
O38 C37 1.315 . S
O39 Cd29 2.240 . S
O39 C37 1.279 . S
O40 Cd30 2.297 . S
O40 C35 1.247 . S
O41 Cd30 2.439 . S
O41 C35 1.208 . S
O42 Cd43 2.223 . S
O42 C50 1.315 . S
Cd43 O42 2.223 . S
Cd43 O46 2.297 . S
Cd43 O47 2.439 . S
Cd43 O53 2.240 . S
Cd44 O45 2.240 . S
Cd44 O52 2.223 . S
Cd44 O54 2.297 . S
Cd44 O55 2.439 . S
O45 Cd44 2.240 . S
O45 C50 1.279 . S
O46 Cd43 2.297 . S
O46 C48 1.247 . S
O47 Cd43 2.439 . S
O47 C48 1.208 . S
C48 O46 1.247 . S
C48 O47 1.208 . S
C49 O54 1.247 . S
C49 O55 1.208 . S
C50 O42 1.315 . S
C50 O45 1.279 . S
C51 O52 1.315 . S
C51 O53 1.279 . S
O52 Cd44 2.223 . S
O52 C51 1.315 . S
O53 Cd43 2.240 . S
O53 C51 1.279 . S
O54 Cd44 2.297 . S
O54 C49 1.247 . S
O55 Cd44 2.439 . S
O55 C49 1.208 . S
O56 Cd57 2.223 . S
O56 C64 1.315 . S
Cd57 O56 2.223 . S
Cd57 O60 2.297 . S
Cd57 O61 2.439 . S
Cd57 O67 2.240 . S
Cd58 O59 2.240 . S
Cd58 O66 2.223 . S
Cd58 O68 2.297 . S
Cd58 O69 2.439 . S
O59 Cd58 2.240 . S
O59 C64 1.279 . S
O60 Cd57 2.297 . S
O60 C62 1.247 . S
O61 Cd57 2.439 . S
O61 C62 1.208 . S
C62 O60 1.247 . S
C62 O61 1.208 . S
C63 O68 1.247 . S
C63 O69 1.208 . S
C64 O56 1.315 . S
C64 O59 1.279 . S
C65 O66 1.315 . S
C65 O67 1.279 . S
O66 Cd58 2.223 . S
O66 C65 1.315 . S
O67 Cd57 2.240 . S
O67 C65 1.279 . S
O68 Cd58 2.297 . S
O68 C63 1.247 . S
O69 Cd58 2.439 . S
O69 C63 1.208 . S
O70 Cd71 2.223 . S
O70 C78 1.315 . S
Cd71 O70 2.223 . S
Cd71 O74 2.297 . S
Cd71 O75 2.439 . S
Cd71 O81 2.240 . S
Cd72 O73 2.240 . S
Cd72 O80 2.223 . S
Cd72 O82 2.297 . S
Cd72 O83 2.439 . S
O73 Cd72 2.240 . S
O73 C78 1.279 . S
O74 Cd71 2.297 . S
O74 C76 1.247 . S
O75 Cd71 2.439 . S
O75 C76 1.208 . S
C76 O74 1.247 . S
C76 O75 1.208 . S
C77 O82 1.247 . S
C77 O83 1.208 . S
C78 O70 1.315 . S
C78 O73 1.279 . S
C79 O80 1.315 . S
C79 O81 1.279 . S
O80 Cd72 2.223 . S
O80 C79 1.315 . S
O81 Cd71 2.240 . S
O81 C79 1.279 . S
O82 Cd72 2.297 . S
O82 C77 1.247 . S
O83 Cd72 2.439 . S
O83 C77 1.208 . S
O84 Cd85 2.223 . S
O84 C92 1.315 . S
Cd85 O84 2.223 . S
Cd85 O88 2.297 . S
Cd85 O89 2.439 . S
Cd85 O95 2.240 . S
Cd86 O87 2.240 . S
Cd86 O94 2.223 . S
Cd86 O96 2.297 . S
Cd86 O97 2.439 . S
O87 Cd86 2.240 . S
O87 C92 1.279 . S
O88 Cd85 2.297 . S
O88 C90 1.247 . S
O89 Cd85 2.439 . S
O89 C90 1.208 . S
C90 O88 1.247 . S
C90 O89 1.208 . S
C91 O96 1.247 . S
C91 O97 1.208 . S
C92 O84 1.315 . S
C92 O87 1.279 . S
C93 O94 1.315 . S
C93 O95 1.279 . S
O94 Cd86 2.223 . S
O94 C93 1.315 . S
O95 Cd85 2.240 . S
O95 C93 1.279 . S
O96 Cd86 2.297 . S
O96 C91 1.247 . S
O97 Cd86 2.439 . S
O97 C91 1.208 . S
O98 Cd99 2.223 . S
O98 C106 1.315 . S
Cd99 O98 2.223 . S
Cd99 O102 2.297 . S
Cd99 O103 2.439 . S
Cd99 O109 2.240 . S
Cd100 O101 2.240 . S
Cd100 O108 2.223 . S
Cd100 O110 2.297 . S
Cd100 O111 2.439 . S
O101 Cd100 2.240 . S
O101 C106 1.279 . S
O102 Cd99 2.297 . S
O102 C104 1.247 . S
O103 Cd99 2.439 . S
O103 C104 1.208 . S
C104 O102 1.247 . S
C104 O103 1.208 . S
C105 O110 1.247 . S
C105 O111 1.208 . S
C106 O98 1.315 . S
C106 O101 1.279 . S
C107 O108 1.315 . S
C107 O109 1.279 . S
O108 Cd100 2.223 . S
O108 C107 1.315 . S
O109 Cd99 2.240 . S
O109 C107 1.279 . S
O110 Cd100 2.297 . S
O110 C105 1.247 . S
O111 Cd100 2.439 . S
O111 C105 1.208 . S
O112 Cd113 2.223 . S
O112 C120 1.315 . S
Cd113 O112 2.223 . S
Cd113 O116 2.297 . S
Cd113 O117 2.439 . S
Cd113 O123 2.240 . S
Cd114 O115 2.240 . S
Cd114 O122 2.223 . S
Cd114 O124 2.297 . S
Cd114 O125 2.439 . S
O115 Cd114 2.240 . S
O115 C120 1.279 . S
O116 Cd113 2.297 . S
O116 C118 1.247 . S
O117 Cd113 2.439 . S
O117 C118 1.208 . S
C118 O116 1.247 . S
C118 O117 1.208 . S
C119 O124 1.247 . S
C119 O125 1.208 . S
C120 O112 1.315 . S
C120 O115 1.279 . S
C121 O122 1.315 . S
C121 O123 1.279 . S
O122 Cd114 2.223 . S
O122 C121 1.315 . S
O123 Cd113 2.240 . S
O123 C121 1.279 . S
O124 Cd114 2.297 . S
O124 C119 1.247 . S
O125 Cd114 2.439 . S
O125 C119 1.208 . S
O126 Cd127 2.223 . S
O126 C134 1.315 . S
Cd127 O126 2.223 . S
Cd127 O130 2.297 . S
Cd127 O131 2.439 . S
Cd127 O137 2.240 . S
Cd128 O129 2.240 . S
Cd128 O136 2.223 . S
Cd128 O138 2.297 . S
Cd128 O139 2.439 . S
O129 Cd128 2.240 . S
O129 C134 1.279 . S
O130 Cd127 2.297 . S
O130 C132 1.247 . S
O131 Cd127 2.439 . S
O131 C132 1.208 . S
C132 O130 1.247 . S
C132 O131 1.208 . S
C133 O138 1.247 . S
C133 O139 1.208 . S
C134 O126 1.315 . S
C134 O129 1.279 . S
C135 O136 1.315 . S
C135 O137 1.279 . S
O136 Cd128 2.223 . S
O136 C135 1.315 . S
O137 Cd127 2.240 . S
O137 C135 1.279 . S
O138 Cd128 2.297 . S
O138 C133 1.247 . S
O139 Cd128 2.439 . S
O139 C133 1.208 . S
O140 Cd141 2.223 . S
O140 C148 1.315 . S
Cd141 O140 2.223 . S
Cd141 O144 2.297 . S
Cd141 O145 2.439 . S
Cd141 O151 2.240 . S
Cd142 O143 2.240 . S
Cd142 O150 2.223 . S
Cd142 O152 2.297 . S
Cd142 O153 2.439 . S
O143 Cd142 2.240 . S
O143 C148 1.279 . S
O144 Cd141 2.297 . S
O144 C146 1.247 . S
O145 Cd141 2.439 . S
O145 C146 1.208 . S
C146 O144 1.247 . S
C146 O145 1.208 . S
C147 O152 1.247 . S
C147 O153 1.208 . S
C148 O140 1.315 . S
C148 O143 1.279 . S
C149 O150 1.315 . S
C149 O151 1.279 . S
O150 Cd142 2.223 . S
O150 C149 1.315 . S
O151 Cd141 2.240 . S
O151 C149 1.279 . S
O152 Cd142 2.297 . S
O152 C147 1.247 . S
O153 Cd142 2.439 . S
O153 C147 1.208 . S
O154 Cd155 2.223 . S
O154 C162 1.315 . S
Cd155 O154 2.223 . S
Cd155 O158 2.297 . S
Cd155 O159 2.439 . S
Cd155 O165 2.240 . S
Cd156 O157 2.240 . S
Cd156 O164 2.223 . S
Cd156 O166 2.297 . S
Cd156 O167 2.439 . S
O157 Cd156 2.240 . S
O157 C162 1.279 . S
O158 Cd155 2.297 . S
O158 C160 1.247 . S
O159 Cd155 2.439 . S
O159 C160 1.208 . S
C160 O158 1.247 . S
C160 O159 1.208 . S
C161 O166 1.247 . S
C161 O167 1.208 . S
C162 O154 1.315 . S
C162 O157 1.279 . S
C163 O164 1.315 . S
C163 O165 1.279 . S
O164 Cd156 2.223 . S
O164 C163 1.315 . S
O165 Cd155 2.240 . S
O165 C163 1.279 . S
O166 Cd156 2.297 . S
O166 C161 1.247 . S
O167 Cd156 2.439 . S
O167 C161 1.208 . S
O168 Cd169 2.223 . S
O168 C176 1.315 . S
Cd169 O168 2.223 . S
Cd169 O172 2.297 . S
Cd169 O173 2.439 . S
Cd169 O179 2.240 . S
Cd170 O171 2.240 . S
Cd170 O178 2.223 . S
Cd170 O180 2.297 . S
Cd170 O181 2.439 . S
O171 Cd170 2.240 . S
O171 C176 1.279 . S
O172 Cd169 2.297 . S
O172 C174 1.247 . S
O173 Cd169 2.439 . S
O173 C174 1.208 . S
C174 O172 1.247 . S
C174 O173 1.208 . S
C175 O180 1.247 . S
C175 O181 1.208 . S
C176 O168 1.315 . S
C176 O171 1.279 . S
C177 O178 1.315 . S
C177 O179 1.279 . S
O178 Cd170 2.223 . S
O178 C177 1.315 . S
O179 Cd169 2.240 . S
O179 C177 1.279 . S
O180 Cd170 2.297 . S
O180 C175 1.247 . S
O181 Cd170 2.439 . S
O181 C175 1.208 . S
O182 Cd183 2.223 . S
O182 C190 1.315 . S
Cd183 O182 2.223 . S
Cd183 O186 2.297 . S
Cd183 O187 2.439 . S
Cd183 O193 2.240 . S
Cd184 O185 2.240 . S
Cd184 O192 2.223 . S
Cd184 O194 2.297 . S
Cd184 O195 2.439 . S
O185 Cd184 2.240 . S
O185 C190 1.279 . S
O186 Cd183 2.297 . S
O186 C188 1.247 . S
O187 Cd183 2.439 . S
O187 C188 1.208 . S
C188 O186 1.247 . S
C188 O187 1.208 . S
C189 O194 1.247 . S
C189 O195 1.208 . S
C190 O182 1.315 . S
C190 O185 1.279 . S
C191 O192 1.315 . S
C191 O193 1.279 . S
O192 Cd184 2.223 . S
O192 C191 1.315 . S
O193 Cd183 2.240 . S
O193 C191 1.279 . S
O194 Cd184 2.297 . S
O194 C189 1.247 . S
O195 Cd184 2.439 . S
O195 C189 1.208 . S
O196 Cd197 2.223 . S
O196 C204 1.315 . S
Cd197 O196 2.223 . S
Cd197 O200 2.297 . S
Cd197 O201 2.439 . S
Cd197 O207 2.240 . S
Cd198 O199 2.240 . S
Cd198 O206 2.223 . S
Cd198 O208 2.297 . S
Cd198 O209 2.439 . S
O199 Cd198 2.240 . S
O199 C204 1.279 . S
O200 Cd197 2.297 . S
O200 C202 1.247 . S
O201 Cd197 2.439 . S
O201 C202 1.208 . S
C202 O200 1.247 . S
C202 O201 1.208 . S
C203 O208 1.247 . S
C203 O209 1.208 . S
C204 O196 1.315 . S
C204 O199 1.279 . S
C205 O206 1.315 . S
C205 O207 1.279 . S
O206 Cd198 2.223 . S
O206 C205 1.315 . S
O207 Cd197 2.240 . S
O207 C205 1.279 . S
O208 Cd198 2.297 . S
O208 C203 1.247 . S
O209 Cd198 2.439 . S
O209 C203 1.208 . S
O210 Cd211 2.223 . S
O210 C218 1.315 . S
Cd211 O210 2.223 . S
Cd211 O214 2.297 . S
Cd211 O215 2.439 . S
Cd211 O221 2.240 . S
Cd212 O213 2.240 . S
Cd212 O220 2.223 . S
Cd212 O222 2.297 . S
Cd212 O223 2.439 . S
O213 Cd212 2.240 . S
O213 C218 1.279 . S
O214 Cd211 2.297 . S
O214 C216 1.247 . S
O215 Cd211 2.439 . S
O215 C216 1.208 . S
C216 O214 1.247 . S
C216 O215 1.208 . S
C217 O222 1.247 . S
C217 O223 1.208 . S
C218 O210 1.315 . S
C218 O213 1.279 . S
C219 O220 1.315 . S
C219 O221 1.279 . S
O220 Cd212 2.223 . S
O220 C219 1.315 . S
O221 Cd211 2.240 . S
O221 C219 1.279 . S
O222 Cd212 2.297 . S
O222 C217 1.247 . S
O223 Cd212 2.439 . S
O223 C217 1.208 . S
O224 Cd225 2.223 . S
O224 C232 1.315 . S
Cd225 O224 2.223 . S
Cd225 O228 2.297 . S
Cd225 O229 2.439 . S
Cd225 O235 2.240 . S
Cd226 O227 2.240 . S
Cd226 O234 2.223 . S
Cd226 O236 2.297 . S
Cd226 O237 2.439 . S
O227 Cd226 2.240 . S
O227 C232 1.279 . S
O228 Cd225 2.297 . S
O228 C230 1.247 . S
O229 Cd225 2.439 . S
O229 C230 1.208 . S
C230 O228 1.247 . S
C230 O229 1.208 . S
C231 O236 1.247 . S
C231 O237 1.208 . S
C232 O224 1.315 . S
C232 O227 1.279 . S
C233 O234 1.315 . S
C233 O235 1.279 . S
O234 Cd226 2.223 . S
O234 C233 1.315 . S
O235 Cd225 2.240 . S
O235 C233 1.279 . S
O236 Cd226 2.297 . S
O236 C231 1.247 . S
O237 Cd226 2.439 . S
O237 C231 1.208 . S
O238 Cd239 2.223 . S
O238 C246 1.315 . S
Cd239 O238 2.223 . S
Cd239 O242 2.297 . S
Cd239 O243 2.439 . S
Cd239 O249 2.240 . S
Cd240 O241 2.240 . S
Cd240 O248 2.223 . S
Cd240 O250 2.297 . S
Cd240 O251 2.439 . S
O241 Cd240 2.240 . S
O241 C246 1.279 . S
O242 Cd239 2.297 . S
O242 C244 1.247 . S
O243 Cd239 2.439 . S
O243 C244 1.208 . S
C244 O242 1.247 . S
C244 O243 1.208 . S
C245 O250 1.247 . S
C245 O251 1.208 . S
C246 O238 1.315 . S
C246 O241 1.279 . S
C247 O248 1.315 . S
C247 O249 1.279 . S
O248 Cd240 2.223 . S
O248 C247 1.315 . S
O249 Cd239 2.240 . S
O249 C247 1.279 . S
O250 Cd240 2.297 . S
O250 C245 1.247 . S
O251 Cd240 2.439 . S
O251 C245 1.208 . S
O252 Cd253 2.223 . S
O252 C260 1.315 . S
Cd253 O252 2.223 . S
Cd253 O256 2.297 . S
Cd253 O257 2.439 . S
Cd253 O263 2.240 . S
Cd254 O255 2.240 . S
Cd254 O262 2.223 . S
Cd254 O264 2.297 . S
Cd254 O265 2.439 . S
O255 Cd254 2.240 . S
O255 C260 1.279 . S
O256 Cd253 2.297 . S
O256 C258 1.247 . S
O257 Cd253 2.439 . S
O257 C258 1.208 . S
C258 O256 1.247 . S
C258 O257 1.208 . S
C259 O264 1.247 . S
C259 O265 1.208 . S
C260 O252 1.315 . S
C260 O255 1.279 . S
C261 O262 1.315 . S
C261 O263 1.279 . S
O262 Cd254 2.223 . S
O262 C261 1.315 . S
O263 Cd253 2.240 . S
O263 C261 1.279 . S
O264 Cd254 2.297 . S
O264 C259 1.247 . S
O265 Cd254 2.439 . S
O265 C259 1.208 . S
O266 Cd267 2.223 . S
O266 C274 1.315 . S
Cd267 O266 2.223 . S
Cd267 O270 2.297 . S
Cd267 O271 2.439 . S
Cd267 O277 2.240 . S
Cd268 O269 2.240 . S
Cd268 O276 2.223 . S
Cd268 O278 2.297 . S
Cd268 O279 2.439 . S
O269 Cd268 2.240 . S
O269 C274 1.279 . S
O270 Cd267 2.297 . S
O270 C272 1.247 . S
O271 Cd267 2.439 . S
O271 C272 1.208 . S
C272 O270 1.247 . S
C272 O271 1.208 . S
C273 O278 1.247 . S
C273 O279 1.208 . S
C274 O266 1.315 . S
C274 O269 1.279 . S
C275 O276 1.315 . S
C275 O277 1.279 . S
O276 Cd268 2.223 . S
O276 C275 1.315 . S
O277 Cd267 2.240 . S
O277 C275 1.279 . S
O278 Cd268 2.297 . S
O278 C273 1.247 . S
O279 Cd268 2.439 . S
O279 C273 1.208 . S
O280 Cd281 2.223 . S
O280 C288 1.315 . S
Cd281 O280 2.223 . S
Cd281 O284 2.297 . S
Cd281 O285 2.439 . S
Cd281 O291 2.240 . S
Cd282 O283 2.240 . S
Cd282 O290 2.223 . S
Cd282 O292 2.297 . S
Cd282 O293 2.439 . S
O283 Cd282 2.240 . S
O283 C288 1.279 . S
O284 Cd281 2.297 . S
O284 C286 1.247 . S
O285 Cd281 2.439 . S
O285 C286 1.208 . S
C286 O284 1.247 . S
C286 O285 1.208 . S
C287 O292 1.247 . S
C287 O293 1.208 . S
C288 O280 1.315 . S
C288 O283 1.279 . S
C289 O290 1.315 . S
C289 O291 1.279 . S
O290 Cd282 2.223 . S
O290 C289 1.315 . S
O291 Cd281 2.240 . S
O291 C289 1.279 . S
O292 Cd282 2.297 . S
O292 C287 1.247 . S
O293 Cd282 2.439 . S
O293 C287 1.208 . S
O294 Cd295 2.223 . S
O294 C302 1.315 . S
Cd295 O294 2.223 . S
Cd295 O298 2.297 . S
Cd295 O299 2.439 . S
Cd295 O305 2.240 . S
Cd296 O297 2.240 . S
Cd296 O304 2.223 . S
Cd296 O306 2.297 . S
Cd296 O307 2.439 . S
O297 Cd296 2.240 . S
O297 C302 1.279 . S
O298 Cd295 2.297 . S
O298 C300 1.247 . S
O299 Cd295 2.439 . S
O299 C300 1.208 . S
C300 O298 1.247 . S
C300 O299 1.208 . S
C301 O306 1.247 . S
C301 O307 1.208 . S
C302 O294 1.315 . S
C302 O297 1.279 . S
C303 O304 1.315 . S
C303 O305 1.279 . S
O304 Cd296 2.223 . S
O304 C303 1.315 . S
O305 Cd295 2.240 . S
O305 C303 1.279 . S
O306 Cd296 2.297 . S
O306 C301 1.247 . S
O307 Cd296 2.439 . S
O307 C301 1.208 . S
O308 Cd309 2.223 . S
O308 C316 1.315 . S
Cd309 O308 2.223 . S
Cd309 O312 2.297 . S
Cd309 O313 2.439 . S
Cd309 O319 2.240 . S
Cd310 O311 2.240 . S
Cd310 O318 2.223 . S
Cd310 O320 2.297 . S
Cd310 O321 2.439 . S
O311 Cd310 2.240 . S
O311 C316 1.279 . S
O312 Cd309 2.297 . S
O312 C314 1.247 . S
O313 Cd309 2.439 . S
O313 C314 1.208 . S
C314 O312 1.247 . S
C314 O313 1.208 . S
C315 O320 1.247 . S
C315 O321 1.208 . S
C316 O308 1.315 . S
C316 O311 1.279 . S
C317 O318 1.315 . S
C317 O319 1.279 . S
O318 Cd310 2.223 . S
O318 C317 1.315 . S
O319 Cd309 2.240 . S
O319 C317 1.279 . S
O320 Cd310 2.297 . S
O320 C315 1.247 . S
O321 Cd310 2.439 . S
O321 C315 1.208 . S
O322 Cd323 2.223 . S
O322 C330 1.315 . S
Cd323 O322 2.223 . S
Cd323 O326 2.297 . S
Cd323 O327 2.439 . S
Cd323 O333 2.240 . S
Cd324 O325 2.240 . S
Cd324 O332 2.223 . S
Cd324 O334 2.297 . S
Cd324 O335 2.439 . S
O325 Cd324 2.240 . S
O325 C330 1.279 . S
O326 Cd323 2.297 . S
O326 C328 1.247 . S
O327 Cd323 2.439 . S
O327 C328 1.208 . S
C328 O326 1.247 . S
C328 O327 1.208 . S
C329 O334 1.247 . S
C329 O335 1.208 . S
C330 O322 1.315 . S
C330 O325 1.279 . S
C331 O332 1.315 . S
C331 O333 1.279 . S
O332 Cd324 2.223 . S
O332 C331 1.315 . S
O333 Cd323 2.240 . S
O333 C331 1.279 . S
O334 Cd324 2.297 . S
O334 C329 1.247 . S
O335 Cd324 2.439 . S
O335 C329 1.208 . S
H336 C342 0.930 . S
H337 C346 0.930 . S
H338 C351 0.929 . S
H339 C349 0.929 . S
H340 C344 0.929 . S
H341 C350 0.929 . S
C342 H336 0.930 . S
C342 C343 1.367 . S
C342 C350 1.378 . S
C343 C342 1.367 . S
C343 C351 1.433 . S
C344 H340 0.929 . S
C344 C346 1.378 . S
C344 C348 1.350 . S
C345 C348 1.463 . S
C345 C350 1.350 . S
C345 N353 1.427 . S
C346 H337 0.930 . S
C346 C344 1.378 . S
C346 C347 1.367 . S
C347 C346 1.367 . S
C347 C349 1.433 . S
C348 C344 1.350 . S
C348 C345 1.463 . S
C348 N352 1.427 . S
C349 H339 0.929 . S
C349 C347 1.433 . S
C349 N352 1.384 . S
C350 H341 0.929 . S
C350 C342 1.378 . S
C350 C345 1.350 . S
C351 H338 0.929 . S
C351 C343 1.433 . S
C351 N353 1.384 . S
N352 C348 1.427 . S
N352 C349 1.384 . S
N353 C345 1.427 . S
N353 C351 1.384 . S
H354 C360 0.930 . S
H355 C364 0.930 . S
H356 C369 0.929 . S
H357 C367 0.929 . S
H358 C362 0.929 . S
H359 C368 0.929 . S
C360 H354 0.930 . S
C360 C361 1.367 . S
C360 C368 1.378 . S
C361 C360 1.367 . S
C361 C369 1.433 . S
C362 H358 0.929 . S
C362 C364 1.378 . S
C362 C366 1.350 . S
C363 C366 1.463 1_655 S
C363 C368 1.350 . S
C363 N371 1.427 . S
C364 H355 0.930 . S
C364 C362 1.378 . S
C364 C365 1.367 . S
C365 C364 1.367 . S
C365 C367 1.433 . S
C366 C362 1.350 . S
C366 C363 1.463 1_455 S
C366 N370 1.427 . S
C367 H357 0.929 . S
C367 C365 1.433 . S
C367 N370 1.384 . S
C368 H359 0.929 . S
C368 C360 1.378 . S
C368 C363 1.350 . S
C369 H356 0.929 . S
C369 C361 1.433 . S
C369 N371 1.384 . S
N370 C366 1.427 . S
N370 C367 1.384 . S
N371 C363 1.427 . S
N371 C369 1.384 . S
H372 C378 0.930 . S
H373 C382 0.930 . S
H374 C387 0.929 . S
H375 C385 0.929 . S
H376 C380 0.929 . S
H377 C386 0.929 . S
C378 H372 0.930 . S
C378 C379 1.367 . S
C378 C386 1.378 . S
C379 C378 1.367 . S
C379 C387 1.433 . S
C380 H376 0.929 . S
C380 C382 1.378 . S
C380 C384 1.350 . S
C381 C384 1.463 . S
C381 C386 1.350 . S
C381 N389 1.427 . S
C382 H373 0.930 . S
C382 C380 1.378 . S
C382 C383 1.367 . S
C383 C382 1.367 . S
C383 C385 1.433 . S
C384 C380 1.350 . S
C384 C381 1.463 . S
C384 N388 1.427 . S
C385 H375 0.929 . S
C385 C383 1.433 . S
C385 N388 1.384 . S
C386 H377 0.929 . S
C386 C378 1.378 . S
C386 C381 1.350 . S
C387 H374 0.929 . S
C387 C379 1.433 . S
C387 N389 1.384 . S
N388 C384 1.427 . S
N388 C385 1.384 . S
N389 C381 1.427 . S
N389 C387 1.384 . S
H390 C396 0.930 . S
H391 C400 0.930 . S
H392 C405 0.929 . S
H393 C403 0.929 . S
H394 C398 0.929 . S
H395 C404 0.929 . S
C396 H390 0.930 . S
C396 C397 1.367 . S
C396 C404 1.378 . S
C397 C396 1.367 . S
C397 C405 1.433 . S
C398 H394 0.929 . S
C398 C400 1.378 . S
C398 C402 1.350 . S
C399 C402 1.463 1_455 S
C399 C404 1.350 . S
C399 N407 1.427 . S
C400 H391 0.930 . S
C400 C398 1.378 . S
C400 C401 1.367 . S
C401 C400 1.367 . S
C401 C403 1.433 . S
C402 C398 1.350 . S
C402 C399 1.463 1_655 S
C402 N406 1.427 . S
C403 H393 0.929 . S
C403 C401 1.433 . S
C403 N406 1.384 . S
C404 H395 0.929 . S
C404 C396 1.378 . S
C404 C399 1.350 . S
C405 H392 0.929 . S
C405 C397 1.433 . S
C405 N407 1.384 . S
N406 C402 1.427 . S
N406 C403 1.384 . S
N407 C399 1.427 . S
N407 C405 1.384 . S
H408 C414 0.930 . S
H409 C418 0.930 . S
H410 C423 0.929 . S
H411 C421 0.929 . S
H412 C416 0.929 . S
H413 C422 0.929 . S
C414 H408 0.930 . S
C414 C415 1.367 . S
C414 C422 1.378 . S
C415 C414 1.367 . S
C415 C423 1.433 . S
C416 H412 0.929 . S
C416 C418 1.378 . S
C416 C420 1.350 . S
C417 C420 1.463 . S
C417 C422 1.350 . S
C417 N425 1.427 . S
C418 H409 0.930 . S
C418 C416 1.378 . S
C418 C419 1.367 . S
C419 C418 1.367 . S
C419 C421 1.433 . S
C420 C416 1.350 . S
C420 C417 1.463 . S
C420 N424 1.427 . S
C421 H411 0.929 . S
C421 C419 1.433 . S
C421 N424 1.384 . S
C422 H413 0.929 . S
C422 C414 1.378 . S
C422 C417 1.350 . S
C423 H410 0.929 . S
C423 C415 1.433 . S
C423 N425 1.384 . S
N424 C420 1.427 . S
N424 C421 1.384 . S
N425 C417 1.427 . S
N425 C423 1.384 . S
H426 C432 0.930 . S
H427 C436 0.930 . S
H428 C441 0.929 . S
H429 C439 0.929 . S
H430 C434 0.929 . S
H431 C440 0.929 . S
C432 H426 0.930 . S
C432 C433 1.367 . S
C432 C440 1.378 . S
C433 C432 1.367 . S
C433 C441 1.433 . S
C434 H430 0.929 . S
C434 C436 1.378 . S
C434 C438 1.350 . S
C435 C438 1.463 1_655 S
C435 C440 1.350 . S
C435 N443 1.427 . S
C436 H427 0.930 . S
C436 C434 1.378 . S
C436 C437 1.367 . S
C437 C436 1.367 . S
C437 C439 1.433 . S
C438 C434 1.350 . S
C438 C435 1.463 1_455 S
C438 N442 1.427 . S
C439 H429 0.929 . S
C439 C437 1.433 . S
C439 N442 1.384 . S
C440 H431 0.929 . S
C440 C432 1.378 . S
C440 C435 1.350 . S
C441 H428 0.929 . S
C441 C433 1.433 . S
C441 N443 1.384 . S
N442 C438 1.427 . S
N442 C439 1.384 . S
N443 C435 1.427 . S
N443 C441 1.384 . S
H444 C450 0.930 . S
H445 C454 0.930 . S
H446 C459 0.929 . S
H447 C457 0.929 . S
H448 C452 0.929 . S
H449 C458 0.929 . S
C450 H444 0.930 . S
C450 C451 1.367 . S
C450 C458 1.378 . S
C451 C450 1.367 . S
C451 C459 1.433 . S
C452 H448 0.929 . S
C452 C454 1.378 . S
C452 C456 1.350 . S
C453 C456 1.463 . S
C453 C458 1.350 . S
C453 N461 1.427 . S
C454 H445 0.930 . S
C454 C452 1.378 . S
C454 C455 1.367 . S
C455 C454 1.367 . S
C455 C457 1.433 . S
C456 C452 1.350 . S
C456 C453 1.463 . S
C456 N460 1.427 . S
C457 H447 0.929 . S
C457 C455 1.433 . S
C457 N460 1.384 . S
C458 H449 0.929 . S
C458 C450 1.378 . S
C458 C453 1.350 . S
C459 H446 0.929 . S
C459 C451 1.433 . S
C459 N461 1.384 . S
N460 C456 1.427 . S
N460 C457 1.384 . S
N461 C453 1.427 . S
N461 C459 1.384 . S
H462 C468 0.930 . S
H463 C472 0.930 . S
H464 C477 0.929 . S
H465 C475 0.929 . S
H466 C470 0.929 . S
H467 C476 0.929 . S
C468 H462 0.930 . S
C468 C469 1.367 . S
C468 C476 1.378 . S
C469 C468 1.367 . S
C469 C477 1.433 . S
C470 H466 0.929 . S
C470 C472 1.378 . S
C470 C474 1.350 . S
C471 C474 1.463 1_655 S
C471 C476 1.350 . S
C471 N479 1.427 . S
C472 H463 0.930 . S
C472 C470 1.378 . S
C472 C473 1.367 . S
C473 C472 1.367 . S
C473 C475 1.433 . S
C474 C470 1.350 . S
C474 C471 1.463 1_455 S
C474 N478 1.427 . S
C475 H465 0.929 . S
C475 C473 1.433 . S
C475 N478 1.384 . S
C476 H467 0.929 . S
C476 C468 1.378 . S
C476 C471 1.350 . S
C477 H464 0.929 . S
C477 C469 1.433 . S
C477 N479 1.384 . S
N478 C474 1.427 . S
N478 C475 1.384 . S
N479 C471 1.427 . S
N479 C477 1.384 . S
H480 C486 0.930 . S
H481 C490 0.930 . S
H482 C495 0.929 . S
H483 C493 0.929 . S
H484 C488 0.929 . S
H485 C494 0.929 . S
C486 H480 0.930 . S
C486 C487 1.367 . S
C486 C494 1.378 . S
C487 C486 1.367 . S
C487 C495 1.433 . S
C488 H484 0.929 . S
C488 C490 1.378 . S
C488 C492 1.350 . S
C489 C492 1.463 . S
C489 C494 1.350 . S
C489 N497 1.427 . S
C490 H481 0.930 . S
C490 C488 1.378 . S
C490 C491 1.367 . S
C491 C490 1.367 . S
C491 C493 1.433 . S
C492 C488 1.350 . S
C492 C489 1.463 . S
C492 N496 1.427 . S
C493 H483 0.929 . S
C493 C491 1.433 . S
C493 N496 1.384 . S
C494 H485 0.929 . S
C494 C486 1.378 . S
C494 C489 1.350 . S
C495 H482 0.929 . S
C495 C487 1.433 . S
C495 N497 1.384 . S
N496 C492 1.427 . S
N496 C493 1.384 . S
N497 C489 1.427 . S
N497 C495 1.384 . S
H498 C504 0.930 . S
H499 C508 0.930 . S
H500 C513 0.929 . S
H501 C511 0.929 . S
H502 C506 0.929 . S
H503 C512 0.929 . S
C504 H498 0.930 . S
C504 C505 1.367 . S
C504 C512 1.378 . S
C505 C504 1.367 . S
C505 C513 1.433 . S
C506 H502 0.929 . S
C506 C508 1.378 . S
C506 C510 1.350 . S
C507 C510 1.463 1_556 S
C507 C512 1.350 . S
C507 N515 1.427 . S
C508 H499 0.930 . S
C508 C506 1.378 . S
C508 C509 1.367 . S
C509 C508 1.367 . S
C509 C511 1.433 . S
C510 C506 1.350 . S
C510 C507 1.463 1_554 S
C510 N514 1.427 . S
C511 H501 0.929 . S
C511 C509 1.433 . S
C511 N514 1.384 . S
C512 H503 0.929 . S
C512 C504 1.378 . S
C512 C507 1.350 . S
C513 H500 0.929 . S
C513 C505 1.433 . S
C513 N515 1.384 . S
N514 C510 1.427 . S
N514 C511 1.384 . S
N515 C507 1.427 . S
N515 C513 1.384 . S
H516 C522 0.930 . S
H517 C526 0.930 . S
H518 C531 0.929 . S
H519 C529 0.929 . S
H520 C524 0.929 . S
H521 C530 0.929 . S
C522 H516 0.930 . S
C522 C523 1.367 . S
C522 C530 1.378 . S
C523 C522 1.367 . S
C523 C531 1.433 . S
C524 H520 0.929 . S
C524 C526 1.378 . S
C524 C528 1.350 . S
C525 C528 1.463 . S
C525 C530 1.350 . S
C525 N533 1.427 . S
C526 H517 0.930 . S
C526 C524 1.378 . S
C526 C527 1.367 . S
C527 C526 1.367 . S
C527 C529 1.433 . S
C528 C524 1.350 . S
C528 C525 1.463 . S
C528 N532 1.427 . S
C529 H519 0.929 . S
C529 C527 1.433 . S
C529 N532 1.384 . S
C530 H521 0.929 . S
C530 C522 1.378 . S
C530 C525 1.350 . S
C531 H518 0.929 . S
C531 C523 1.433 . S
C531 N533 1.384 . S
N532 C528 1.427 . S
N532 C529 1.384 . S
N533 C525 1.427 . S
N533 C531 1.384 . S
H534 C540 0.930 . S
H535 C544 0.930 . S
H536 C549 0.929 . S
H537 C547 0.929 . S
H538 C542 0.929 . S
H539 C548 0.929 . S
C540 H534 0.930 . S
C540 C541 1.367 . S
C540 C548 1.378 . S
C541 C540 1.367 . S
C541 C549 1.433 . S
C542 H538 0.929 . S
C542 C544 1.378 . S
C542 C546 1.350 . S
C543 C546 1.463 1_554 S
C543 C548 1.350 . S
C543 N551 1.427 . S
C544 H535 0.930 . S
C544 C542 1.378 . S
C544 C545 1.367 . S
C545 C544 1.367 . S
C545 C547 1.433 . S
C546 C542 1.350 . S
C546 C543 1.463 1_556 S
C546 N550 1.427 . S
C547 H537 0.929 . S
C547 C545 1.433 . S
C547 N550 1.384 . S
C548 H539 0.929 . S
C548 C540 1.378 . S
C548 C543 1.350 . S
C549 H536 0.929 . S
C549 C541 1.433 . S
C549 N551 1.384 . S
N550 C546 1.427 . S
N550 C547 1.384 . S
N551 C543 1.427 . S
N551 C549 1.384 . S
H552 C558 0.930 . S
H553 C562 0.930 . S
H554 C567 0.929 . S
H555 C565 0.929 . S
H556 C560 0.929 . S
H557 C566 0.929 . S
C558 H552 0.930 . S
C558 C559 1.367 . S
C558 C566 1.378 . S
C559 C558 1.367 . S
C559 C567 1.433 . S
C560 H556 0.929 . S
C560 C562 1.378 . S
C560 C564 1.350 . S
C561 C564 1.463 . S
C561 C566 1.350 . S
C561 N569 1.427 . S
C562 H553 0.930 . S
C562 C560 1.378 . S
C562 C563 1.367 . S
C563 C562 1.367 . S
C563 C565 1.433 . S
C564 C560 1.350 . S
C564 C561 1.463 . S
C564 N568 1.427 . S
C565 H555 0.929 . S
C565 C563 1.433 . S
C565 N568 1.384 . S
C566 H557 0.929 . S
C566 C558 1.378 . S
C566 C561 1.350 . S
C567 H554 0.929 . S
C567 C559 1.433 . S
C567 N569 1.384 . S
N568 C564 1.427 . S
N568 C565 1.384 . S
N569 C561 1.427 . S
N569 C567 1.384 . S
H570 C576 0.930 . S
H571 C580 0.930 . S
H572 C585 0.929 . S
H573 C583 0.929 . S
H574 C578 0.929 . S
H575 C584 0.929 . S
C576 H570 0.930 . S
C576 C577 1.367 . S
C576 C584 1.378 . S
C577 C576 1.367 . S
C577 C585 1.433 . S
C578 H574 0.929 . S
C578 C580 1.378 . S
C578 C582 1.350 . S
C579 C582 1.463 1_554 S
C579 C584 1.350 . S
C579 N587 1.427 . S
C580 H571 0.930 . S
C580 C578 1.378 . S
C580 C581 1.367 . S
C581 C580 1.367 . S
C581 C583 1.433 . S
C582 C578 1.350 . S
C582 C579 1.463 1_556 S
C582 N586 1.427 . S
C583 H573 0.929 . S
C583 C581 1.433 . S
C583 N586 1.384 . S
C584 H575 0.929 . S
C584 C576 1.378 . S
C584 C579 1.350 . S
C585 H572 0.929 . S
C585 C577 1.433 . S
C585 N587 1.384 . S
N586 C582 1.427 . S
N586 C583 1.384 . S
N587 C579 1.427 . S
N587 C585 1.384 . S
H588 C594 0.930 . S
H589 C598 0.930 . S
H590 C603 0.929 . S
H591 C601 0.929 . S
H592 C596 0.929 . S
H593 C602 0.929 . S
C594 H588 0.930 . S
C594 C595 1.367 . S
C594 C602 1.378 . S
C595 C594 1.367 . S
C595 C603 1.433 . S
C596 H592 0.929 . S
C596 C598 1.378 . S
C596 C600 1.350 . S
C597 C600 1.463 . S
C597 C602 1.350 . S
C597 N605 1.427 . S
C598 H589 0.930 . S
C598 C596 1.378 . S
C598 C599 1.367 . S
C599 C598 1.367 . S
C599 C601 1.433 . S
C600 C596 1.350 . S
C600 C597 1.463 . S
C600 N604 1.427 . S
C601 H591 0.929 . S
C601 C599 1.433 . S
C601 N604 1.384 . S
C602 H593 0.929 . S
C602 C594 1.378 . S
C602 C597 1.350 . S
C603 H590 0.929 . S
C603 C595 1.433 . S
C603 N605 1.384 . S
N604 C600 1.427 . S
N604 C601 1.384 . S
N605 C597 1.427 . S
N605 C603 1.384 . S
H606 C612 0.930 . S
H607 C616 0.930 . S
H608 C621 0.929 . S
H609 C619 0.929 . S
H610 C614 0.929 . S
H611 C620 0.929 . S
C612 H606 0.930 . S
C612 C613 1.367 . S
C612 C620 1.378 . S
C613 C612 1.367 . S
C613 C621 1.433 . S
C614 H610 0.929 . S
C614 C616 1.378 . S
C614 C618 1.350 . S
C615 C618 1.463 1_554 S
C615 C620 1.350 . S
C615 N623 1.427 . S
C616 H607 0.930 . S
C616 C614 1.378 . S
C616 C617 1.367 . S
C617 C616 1.367 . S
C617 C619 1.433 . S
C618 C614 1.350 . S
C618 C615 1.463 1_556 S
C618 N622 1.427 . S
C619 H609 0.929 . S
C619 C617 1.433 . S
C619 N622 1.384 . S
C620 H611 0.929 . S
C620 C612 1.378 . S
C620 C615 1.350 . S
C621 H608 0.929 . S
C621 C613 1.433 . S
C621 N623 1.384 . S
N622 C618 1.427 . S
N622 C619 1.384 . S
N623 C615 1.427 . S
N623 C621 1.384 . S
H624 C630 0.930 . S
H625 C634 0.930 . S
H626 C639 0.929 . S
H627 C637 0.929 . S
H628 C632 0.929 . S
H629 C638 0.929 . S
C630 H624 0.930 . S
C630 C631 1.367 . S
C630 C638 1.378 . S
C631 C630 1.367 . S
C631 C639 1.433 . S
C632 H628 0.929 . S
C632 C634 1.378 . S
C632 C636 1.350 . S
C633 C636 1.463 . S
C633 C638 1.350 . S
C633 N641 1.427 . S
C634 H625 0.930 . S
C634 C632 1.378 . S
C634 C635 1.367 . S
C635 C634 1.367 . S
C635 C637 1.433 . S
C636 C632 1.350 . S
C636 C633 1.463 . S
C636 N640 1.427 . S
C637 H627 0.929 . S
C637 C635 1.433 . S
C637 N640 1.384 . S
C638 H629 0.929 . S
C638 C630 1.378 . S
C638 C633 1.350 . S
C639 H626 0.929 . S
C639 C631 1.433 . S
C639 N641 1.384 . S
N640 C636 1.427 . S
N640 C637 1.384 . S
N641 C633 1.427 . S
N641 C639 1.384 . S
H642 C648 0.930 . S
H643 C652 0.930 . S
H644 C657 0.929 . S
H645 C655 0.929 . S
H646 C650 0.929 . S
H647 C656 0.929 . S
C648 H642 0.930 . S
C648 C649 1.367 . S
C648 C656 1.378 . S
C649 C648 1.367 . S
C649 C657 1.433 . S
C650 H646 0.929 . S
C650 C652 1.378 . S
C650 C654 1.350 . S
C651 C654 1.463 . S
C651 C656 1.350 . S
C651 N659 1.427 . S
C652 H643 0.930 . S
C652 C650 1.378 . S
C652 C653 1.367 . S
C653 C652 1.367 . S
C653 C655 1.433 . S
C654 C650 1.350 . S
C654 C651 1.463 . S
C654 N658 1.427 . S
C655 H645 0.929 . S
C655 C653 1.433 . S
C655 N658 1.384 . S
C656 H647 0.929 . S
C656 C648 1.378 . S
C656 C651 1.350 . S
C657 H644 0.929 . S
C657 C649 1.433 . S
C657 N659 1.384 . S
N658 C654 1.427 . S
N658 C655 1.384 . S
N659 C651 1.427 . S
N659 C657 1.384 . S
H660 C666 0.930 . S
H661 C670 0.930 . S
H662 C675 0.929 . S
H663 C673 0.929 . S
H664 C668 0.929 . S
H665 C674 0.929 . S
C666 H660 0.930 . S
C666 C667 1.367 . S
C666 C674 1.378 . S
C667 C666 1.367 . S
C667 C675 1.433 . S
C668 H664 0.929 . S
C668 C670 1.378 . S
C668 C672 1.350 . S
C669 C672 1.463 1_565 S
C669 C674 1.350 . S
C669 N677 1.427 . S
C670 H661 0.930 . S
C670 C668 1.378 . S
C670 C671 1.367 . S
C671 C670 1.367 . S
C671 C673 1.433 . S
C672 C668 1.350 . S
C672 C669 1.463 1_545 S
C672 N676 1.427 . S
C673 H663 0.929 . S
C673 C671 1.433 . S
C673 N676 1.384 . S
C674 H665 0.929 . S
C674 C666 1.378 . S
C674 C669 1.350 . S
C675 H662 0.929 . S
C675 C667 1.433 . S
C675 N677 1.384 . S
N676 C672 1.427 . S
N676 C673 1.384 . S
N677 C669 1.427 . S
N677 C675 1.384 . S
H678 C684 0.930 . S
H679 C688 0.930 . S
H680 C693 0.929 . S
H681 C691 0.929 . S
H682 C686 0.929 . S
H683 C692 0.929 . S
C684 H678 0.930 . S
C684 C685 1.367 . S
C684 C692 1.378 . S
C685 C684 1.367 . S
C685 C693 1.433 . S
C686 H682 0.929 . S
C686 C688 1.378 . S
C686 C690 1.350 . S
C687 C690 1.463 . S
C687 C692 1.350 . S
C687 N695 1.427 . S
C688 H679 0.930 . S
C688 C686 1.378 . S
C688 C689 1.367 . S
C689 C688 1.367 . S
C689 C691 1.433 . S
C690 C686 1.350 . S
C690 C687 1.463 . S
C690 N694 1.427 . S
C691 H681 0.929 . S
C691 C689 1.433 . S
C691 N694 1.384 . S
C692 H683 0.929 . S
C692 C684 1.378 . S
C692 C687 1.350 . S
C693 H680 0.929 . S
C693 C685 1.433 . S
C693 N695 1.384 . S
N694 C690 1.427 . S
N694 C691 1.384 . S
N695 C687 1.427 . S
N695 C693 1.384 . S
H696 C702 0.930 . S
H697 C706 0.930 . S
H698 C711 0.929 . S
H699 C709 0.929 . S
H700 C704 0.929 . S
H701 C710 0.929 . S
C702 H696 0.930 . S
C702 C703 1.367 . S
C702 C710 1.378 . S
C703 C702 1.367 . S
C703 C711 1.433 . S
C704 H700 0.929 . S
C704 C706 1.378 . S
C704 C708 1.350 . S
C705 C708 1.463 1_565 S
C705 C710 1.350 . S
C705 N713 1.427 . S
C706 H697 0.930 . S
C706 C704 1.378 . S
C706 C707 1.367 . S
C707 C706 1.367 . S
C707 C709 1.433 . S
C708 C704 1.350 . S
C708 C705 1.463 1_545 S
C708 N712 1.427 . S
C709 H699 0.929 . S
C709 C707 1.433 . S
C709 N712 1.384 . S
C710 H701 0.929 . S
C710 C702 1.378 . S
C710 C705 1.350 . S
C711 H698 0.929 . S
C711 C703 1.433 . S
C711 N713 1.384 . S
N712 C708 1.427 . S
N712 C709 1.384 . S
N713 C705 1.427 . S
N713 C711 1.384 . S
H714 C720 0.930 . S
H715 C724 0.930 . S
H716 C729 0.929 . S
H717 C727 0.929 . S
H718 C722 0.929 . S
H719 C728 0.929 . S
C720 H714 0.930 . S
C720 C721 1.367 . S
C720 C728 1.378 . S
C721 C720 1.367 . S
C721 C729 1.433 . S
C722 H718 0.929 . S
C722 C724 1.378 . S
C722 C726 1.350 . S
C723 C726 1.463 . S
C723 C728 1.350 . S
C723 N731 1.427 . S
C724 H715 0.930 . S
C724 C722 1.378 . S
C724 C725 1.367 . S
C725 C724 1.367 . S
C725 C727 1.433 . S
C726 C722 1.350 . S
C726 C723 1.463 . S
C726 N730 1.427 . S
C727 H717 0.929 . S
C727 C725 1.433 . S
C727 N730 1.384 . S
C728 H719 0.929 . S
C728 C720 1.378 . S
C728 C723 1.350 . S
C729 H716 0.929 . S
C729 C721 1.433 . S
C729 N731 1.384 . S
N730 C726 1.427 . S
N730 C727 1.384 . S
N731 C723 1.427 . S
N731 C729 1.384 . S
H732 C738 0.930 . S
H733 C742 0.930 . S
H734 C747 0.929 . S
H735 C745 0.929 . S
H736 C740 0.929 . S
H737 C746 0.929 . S
C738 H732 0.930 . S
C738 C739 1.367 . S
C738 C746 1.378 . S
C739 C738 1.367 . S
C739 C747 1.433 . S
C740 H736 0.929 . S
C740 C742 1.378 . S
C740 C744 1.350 . S
C741 C744 1.463 1_565 S
C741 C746 1.350 . S
C741 N749 1.427 . S
C742 H733 0.930 . S
C742 C740 1.378 . S
C742 C743 1.367 . S
C743 C742 1.367 . S
C743 C745 1.433 . S
C744 C740 1.350 . S
C744 C741 1.463 1_545 S
C744 N748 1.427 . S
C745 H735 0.929 . S
C745 C743 1.433 . S
C745 N748 1.384 . S
C746 H737 0.929 . S
C746 C738 1.378 . S
C746 C741 1.350 . S
C747 H734 0.929 . S
C747 C739 1.433 . S
C747 N749 1.384 . S
N748 C744 1.427 . S
N748 C745 1.384 . S
N749 C741 1.427 . S
N749 C747 1.384 . S
H750 C756 0.930 . S
H751 C760 0.930 . S
H752 C765 0.929 . S
H753 C763 0.929 . S
H754 C758 0.929 . S
H755 C764 0.929 . S
C756 H750 0.930 . S
C756 C757 1.367 . S
C756 C764 1.378 . S
C757 C756 1.367 . S
C757 C765 1.433 . S
C758 H754 0.929 . S
C758 C760 1.378 . S
C758 C762 1.350 . S
C759 C762 1.463 1_545 S
C759 C764 1.350 . S
C759 N767 1.427 . S
C760 H751 0.930 . S
C760 C758 1.378 . S
C760 C761 1.367 . S
C761 C760 1.367 . S
C761 C763 1.433 . S
C762 C758 1.350 . S
C762 C759 1.463 1_565 S
C762 N766 1.427 . S
C763 H753 0.929 . S
C763 C761 1.433 . S
C763 N766 1.384 . S
C764 H755 0.929 . S
C764 C756 1.378 . S
C764 C759 1.350 . S
C765 H752 0.929 . S
C765 C757 1.433 . S
C765 N767 1.384 . S
N766 C762 1.427 . S
N766 C763 1.384 . S
N767 C759 1.427 . S
N767 C765 1.384 . S
H768 C774 0.930 . S
H769 C778 0.930 . S
H770 C783 0.929 . S
H771 C781 0.929 . S
H772 C776 0.929 . S
H773 C782 0.929 . S
C774 H768 0.930 . S
C774 C775 1.367 . S
C774 C782 1.378 . S
C775 C774 1.367 . S
C775 C783 1.433 . S
C776 H772 0.929 . S
C776 C778 1.378 . S
C776 C780 1.350 . S
C777 C780 1.463 . S
C777 C782 1.350 . S
C777 N785 1.427 . S
C778 H769 0.930 . S
C778 C776 1.378 . S
C778 C779 1.367 . S
C779 C778 1.367 . S
C779 C781 1.433 . S
C780 C776 1.350 . S
C780 C777 1.463 . S
C780 N784 1.427 . S
C781 H771 0.929 . S
C781 C779 1.433 . S
C781 N784 1.384 . S
C782 H773 0.929 . S
C782 C774 1.378 . S
C782 C777 1.350 . S
C783 H770 0.929 . S
C783 C775 1.433 . S
C783 N785 1.384 . S
N784 C780 1.427 . S
N784 C781 1.384 . S
N785 C777 1.427 . S
N785 C783 1.384 . S
H786 C792 0.930 . S
H787 C796 0.930 . S
H788 C801 0.929 . S
H789 C799 0.929 . S
H790 C794 0.929 . S
H791 C800 0.929 . S
C792 H786 0.930 . S
C792 C793 1.367 . S
C792 C800 1.378 . S
C793 C792 1.367 . S
C793 C801 1.433 . S
C794 H790 0.929 . S
C794 C796 1.378 . S
C794 C798 1.350 . S
C795 C798 1.463 . S
C795 C800 1.350 . S
C795 N803 1.427 . S
C796 H787 0.930 . S
C796 C794 1.378 . S
C796 C797 1.367 . S
C797 C796 1.367 . S
C797 C799 1.433 . S
C798 C794 1.350 . S
C798 C795 1.463 . S
C798 N802 1.427 . S
C799 H789 0.929 . S
C799 C797 1.433 . S
C799 N802 1.384 . S
C800 H791 0.929 . S
C800 C792 1.378 . S
C800 C795 1.350 . S
C801 H788 0.929 . S
C801 C793 1.433 . S
C801 N803 1.384 . S
N802 C798 1.427 . S
N802 C799 1.384 . S
N803 C795 1.427 . S
N803 C801 1.384 . S
H804 C810 0.930 . S
H805 C814 0.930 . S
H806 C819 0.929 . S
H807 C817 0.929 . S
H808 C812 0.929 . S
H809 C818 0.929 . S
C810 H804 0.930 . S
C810 C811 1.367 . S
C810 C818 1.378 . S
C811 C810 1.367 . S
C811 C819 1.433 . S
C812 H808 0.929 . S
C812 C814 1.378 . S
C812 C816 1.350 . S
C813 C816 1.463 . S
C813 C818 1.350 . S
C813 N821 1.427 . S
C814 H805 0.930 . S
C814 C812 1.378 . S
C814 C815 1.367 . S
C815 C814 1.367 . S
C815 C817 1.433 . S
C816 C812 1.350 . S
C816 C813 1.463 . S
C816 N820 1.427 . S
C817 H807 0.929 . S
C817 C815 1.433 . S
C817 N820 1.384 . S
C818 H809 0.929 . S
C818 C810 1.378 . S
C818 C813 1.350 . S
C819 H806 0.929 . S
C819 C811 1.433 . S
C819 N821 1.384 . S
N820 C816 1.427 . S
N820 C817 1.384 . S
N821 C813 1.427 . S
N821 C819 1.384 . S
H822 C828 0.930 . S
H823 C832 0.930 . S
H824 C837 0.929 . S
H825 C835 0.929 . S
H826 C830 0.929 . S
H827 C836 0.929 . S
C828 H822 0.930 . S
C828 C829 1.367 . S
C828 C836 1.378 . S
C829 C828 1.367 . S
C829 C837 1.433 . S
C830 H826 0.929 . S
C830 C832 1.378 . S
C830 C834 1.350 . S
C831 C834 1.463 . S
C831 C836 1.350 . S
C831 N839 1.427 . S
C832 H823 0.930 . S
C832 C830 1.378 . S
C832 C833 1.367 . S
C833 C832 1.367 . S
C833 C835 1.433 . S
C834 C830 1.350 . S
C834 C831 1.463 . S
C834 N838 1.427 . S
C835 H825 0.929 . S
C835 C833 1.433 . S
C835 N838 1.384 . S
C836 H827 0.929 . S
C836 C828 1.378 . S
C836 C831 1.350 . S
C837 H824 0.929 . S
C837 C829 1.433 . S
C837 N839 1.384 . S
N838 C834 1.427 . S
N838 C835 1.384 . S
N839 C831 1.427 . S
N839 C837 1.384 . S
H840 C846 0.930 . S
H841 C850 0.930 . S
H842 C855 0.929 . S
H843 C853 0.929 . S
H844 C848 0.929 . S
H845 C854 0.929 . S
C846 H840 0.930 . S
C846 C847 1.367 . S
C846 C854 1.378 . S
C847 C846 1.367 . S
C847 C855 1.433 . S
C848 H844 0.929 . S
C848 C850 1.378 . S
C848 C852 1.350 . S
C849 C852 1.463 . S
C849 C854 1.350 . S
C849 N857 1.427 . S
C850 H841 0.930 . S
C850 C848 1.378 . S
C850 C851 1.367 . S
C851 C850 1.367 . S
C851 C853 1.433 . S
C852 C848 1.350 . S
C852 C849 1.463 . S
C852 N856 1.427 . S
C853 H843 0.929 . S
C853 C851 1.433 . S
C853 N856 1.384 . S
C854 H845 0.929 . S
C854 C846 1.378 . S
C854 C849 1.350 . S
C855 H842 0.929 . S
C855 C847 1.433 . S
C855 N857 1.384 . S
N856 C852 1.427 . S
N856 C853 1.384 . S
N857 C849 1.427 . S
N857 C855 1.384 . S
H858 C864 0.930 . S
H859 C868 0.930 . S
H860 C873 0.929 . S
H861 C871 0.929 . S
H862 C866 0.929 . S
H863 C872 0.929 . S
C864 H858 0.930 . S
C864 C865 1.367 . S
C864 C872 1.378 . S
C865 C864 1.367 . S
C865 C873 1.433 . S
C866 H862 0.929 . S
C866 C868 1.378 . S
C866 C870 1.350 . S
C867 C870 1.463 . S
C867 C872 1.350 . S
C867 N875 1.427 . S
C868 H859 0.930 . S
C868 C866 1.378 . S
C868 C869 1.367 . S
C869 C868 1.367 . S
C869 C871 1.433 . S
C870 C866 1.350 . S
C870 C867 1.463 . S
C870 N874 1.427 . S
C871 H861 0.929 . S
C871 C869 1.433 . S
C871 N874 1.384 . S
C872 H863 0.929 . S
C872 C864 1.378 . S
C872 C867 1.350 . S
C873 H860 0.929 . S
C873 C865 1.433 . S
C873 N875 1.384 . S
N874 C870 1.427 . S
N874 C871 1.384 . S
N875 C867 1.427 . S
N875 C873 1.384 . S
H876 C882 0.930 . S
H877 C886 0.930 . S
H878 C891 0.929 . S
H879 C889 0.929 . S
H880 C884 0.929 . S
H881 C890 0.929 . S
C882 H876 0.930 . S
C882 C883 1.367 . S
C882 C890 1.378 . S
C883 C882 1.367 . S
C883 C891 1.433 . S
C884 H880 0.929 . S
C884 C886 1.378 . S
C884 C888 1.350 . S
C885 C888 1.463 . S
C885 C890 1.350 . S
C885 N893 1.427 . S
C886 H877 0.930 . S
C886 C884 1.378 . S
C886 C887 1.367 . S
C887 C886 1.367 . S
C887 C889 1.433 . S
C888 C884 1.350 . S
C888 C885 1.463 . S
C888 N892 1.427 . S
C889 H879 0.929 . S
C889 C887 1.433 . S
C889 N892 1.384 . S
C890 H881 0.929 . S
C890 C882 1.378 . S
C890 C885 1.350 . S
C891 H878 0.929 . S
C891 C883 1.433 . S
C891 N893 1.384 . S
N892 C888 1.427 . S
N892 C889 1.384 . S
N893 C885 1.427 . S
N893 C891 1.384 . S
H894 C900 0.930 . S
H895 C904 0.930 . S
H896 C909 0.929 . S
H897 C907 0.929 . S
H898 C902 0.929 . S
H899 C908 0.929 . S
C900 H894 0.930 . S
C900 C901 1.367 . S
C900 C908 1.378 . S
C901 C900 1.367 . S
C901 C909 1.433 . S
C902 H898 0.929 . S
C902 C904 1.378 . S
C902 C906 1.350 . S
C903 C906 1.463 . S
C903 C908 1.350 . S
C903 N911 1.427 . S
C904 H895 0.930 . S
C904 C902 1.378 . S
C904 C905 1.367 . S
C905 C904 1.367 . S
C905 C907 1.433 . S
C906 C902 1.350 . S
C906 C903 1.463 . S
C906 N910 1.427 . S
C907 H897 0.929 . S
C907 C905 1.433 . S
C907 N910 1.384 . S
C908 H899 0.929 . S
C908 C900 1.378 . S
C908 C903 1.350 . S
C909 H896 0.929 . S
C909 C901 1.433 . S
C909 N911 1.384 . S
N910 C906 1.427 . S
N910 C907 1.384 . S
N911 C903 1.427 . S
N911 C909 1.384 . S
H912 C918 0.930 . S
H913 C922 0.930 . S
H914 C927 0.929 . S
H915 C925 0.929 . S
H916 C920 0.929 . S
H917 C926 0.929 . S
C918 H912 0.930 . S
C918 C919 1.367 . S
C918 C926 1.378 . S
C919 C918 1.367 . S
C919 C927 1.433 . S
C920 H916 0.929 . S
C920 C922 1.378 . S
C920 C924 1.350 . S
C921 C924 1.463 . S
C921 C926 1.350 . S
C921 N929 1.427 . S
C922 H913 0.930 . S
C922 C920 1.378 . S
C922 C923 1.367 . S
C923 C922 1.367 . S
C923 C925 1.433 . S
C924 C920 1.350 . S
C924 C921 1.463 . S
C924 N928 1.427 . S
C925 H915 0.929 . S
C925 C923 1.433 . S
C925 N928 1.384 . S
C926 H917 0.929 . S
C926 C918 1.378 . S
C926 C921 1.350 . S
C927 H914 0.929 . S
C927 C919 1.433 . S
C927 N929 1.384 . S
N928 C924 1.427 . S
N928 C925 1.384 . S
N929 C921 1.427 . S
N929 C927 1.384 . S
H930 C936 0.930 . S
H931 C940 0.930 . S
H932 C945 0.929 . S
H933 C943 0.929 . S
H934 C938 0.929 . S
H935 C944 0.929 . S
C936 H930 0.930 . S
C936 C937 1.367 . S
C936 C944 1.378 . S
C937 C936 1.367 . S
C937 C945 1.433 . S
C938 H934 0.929 . S
C938 C940 1.378 . S
C938 C942 1.350 . S
C939 C942 1.463 . S
C939 C944 1.350 . S
C939 N947 1.427 . S
C940 H931 0.930 . S
C940 C938 1.378 . S
C940 C941 1.367 . S
C941 C940 1.367 . S
C941 C943 1.433 . S
C942 C938 1.350 . S
C942 C939 1.463 . S
C942 N946 1.427 . S
C943 H933 0.929 . S
C943 C941 1.433 . S
C943 N946 1.384 . S
C944 H935 0.929 . S
C944 C936 1.378 . S
C944 C939 1.350 . S
C945 H932 0.929 . S
C945 C937 1.433 . S
C945 N947 1.384 . S
N946 C942 1.427 . S
N946 C943 1.384 . S
N947 C939 1.427 . S
N947 C945 1.384 . S
H948 C954 0.930 . S
H949 C958 0.930 . S
H950 C963 0.929 . S
H951 C961 0.929 . S
H952 C956 0.929 . S
H953 C962 0.929 . S
C954 H948 0.930 . S
C954 C955 1.367 . S
C954 C962 1.378 . S
C955 C954 1.367 . S
C955 C963 1.433 . S
C956 H952 0.929 . S
C956 C958 1.378 . S
C956 C960 1.350 . S
C957 C960 1.463 . S
C957 C962 1.350 . S
C957 N965 1.427 . S
C958 H949 0.930 . S
C958 C956 1.378 . S
C958 C959 1.367 . S
C959 C958 1.367 . S
C959 C961 1.433 . S
C960 C956 1.350 . S
C960 C957 1.463 . S
C960 N964 1.427 . S
C961 H951 0.929 . S
C961 C959 1.433 . S
C961 N964 1.384 . S
C962 H953 0.929 . S
C962 C954 1.378 . S
C962 C957 1.350 . S
C963 H950 0.929 . S
C963 C955 1.433 . S
C963 N965 1.384 . S
N964 C960 1.427 . S
N964 C961 1.384 . S
N965 C957 1.427 . S
N965 C963 1.384 . S
H966 C972 0.930 . S
H967 C976 0.930 . S
H968 C981 0.929 . S
H969 C979 0.929 . S
H970 C974 0.929 . S
H971 C980 0.929 . S
C972 H966 0.930 . S
C972 C973 1.367 . S
C972 C980 1.378 . S
C973 C972 1.367 . S
C973 C981 1.433 . S
C974 H970 0.929 . S
C974 C976 1.378 . S
C974 C978 1.350 . S
C975 C978 1.463 . S
C975 C980 1.350 . S
C975 N983 1.427 . S
C976 H967 0.930 . S
C976 C974 1.378 . S
C976 C977 1.367 . S
C977 C976 1.367 . S
C977 C979 1.433 . S
C978 C974 1.350 . S
C978 C975 1.463 . S
C978 N982 1.427 . S
C979 H969 0.929 . S
C979 C977 1.433 . S
C979 N982 1.384 . S
C980 H971 0.929 . S
C980 C972 1.378 . S
C980 C975 1.350 . S
C981 H968 0.929 . S
C981 C973 1.433 . S
C981 N983 1.384 . S
N982 C978 1.427 . S
N982 C979 1.384 . S
N983 C975 1.427 . S
N983 C981 1.384 . S
H984 C990 0.930 . S
H985 C994 0.930 . S
H986 C999 0.929 . S
H987 C997 0.929 . S
H988 C992 0.929 . S
H989 C998 0.929 . S
C990 H984 0.930 . S
C990 C991 1.367 . S
C990 C998 1.378 . S
C991 C990 1.367 . S
C991 C999 1.433 . S
C992 H988 0.929 . S
C992 C994 1.378 . S
C992 C996 1.350 . S
C993 C996 1.463 . S
C993 C998 1.350 . S
C993 N1001 1.427 . S
C994 H985 0.930 . S
C994 C992 1.378 . S
C994 C995 1.367 . S
C995 C994 1.367 . S
C995 C997 1.433 . S
C996 C992 1.350 . S
C996 C993 1.463 . S
C996 N1000 1.427 . S
C997 H987 0.929 . S
C997 C995 1.433 . S
C997 N1000 1.384 . S
C998 H989 0.929 . S
C998 C990 1.378 . S
C998 C993 1.350 . S
C999 H986 0.929 . S
C999 C991 1.433 . S
C999 N1001 1.384 . S
N1000 C996 1.427 . S
N1000 C997 1.384 . S
N1001 C993 1.427 . S
N1001 C999 1.384 . S
H1002 C1008 0.930 . S
H1003 C1012 0.930 . S
H1004 C1017 0.929 . S
H1005 C1015 0.929 . S
H1006 C1010 0.929 . S
H1007 C1016 0.929 . S
C1008 H1002 0.930 . S
C1008 C1009 1.367 . S
C1008 C1016 1.378 . S
C1009 C1008 1.367 . S
C1009 C1017 1.433 . S
C1010 H1006 0.929 . S
C1010 C1012 1.378 . S
C1010 C1014 1.350 . S
C1011 C1014 1.463 . S
C1011 C1016 1.350 . S
C1011 N1019 1.427 . S
C1012 H1003 0.930 . S
C1012 C1010 1.378 . S
C1012 C1013 1.367 . S
C1013 C1012 1.367 . S
C1013 C1015 1.433 . S
C1014 C1010 1.350 . S
C1014 C1011 1.463 . S
C1014 N1018 1.427 . S
C1015 H1005 0.929 . S
C1015 C1013 1.433 . S
C1015 N1018 1.384 . S
C1016 H1007 0.929 . S
C1016 C1008 1.378 . S
C1016 C1011 1.350 . S
C1017 H1004 0.929 . S
C1017 C1009 1.433 . S
C1017 N1019 1.384 . S
N1018 C1014 1.427 . S
N1018 C1015 1.384 . S
N1019 C1011 1.427 . S
N1019 C1017 1.384 . S
H1020 C1026 0.930 . S
H1021 C1030 0.930 . S
H1022 C1035 0.929 . S
H1023 C1033 0.929 . S
H1024 C1028 0.929 . S
H1025 C1034 0.929 . S
C1026 H1020 0.930 . S
C1026 C1027 1.367 . S
C1026 C1034 1.378 . S
C1027 C1026 1.367 . S
C1027 C1035 1.433 . S
C1028 H1024 0.929 . S
C1028 C1030 1.378 . S
C1028 C1032 1.350 . S
C1029 C1032 1.463 . S
C1029 C1034 1.350 . S
C1029 N1037 1.427 . S
C1030 H1021 0.930 . S
C1030 C1028 1.378 . S
C1030 C1031 1.367 . S
C1031 C1030 1.367 . S
C1031 C1033 1.433 . S
C1032 C1028 1.350 . S
C1032 C1029 1.463 . S
C1032 N1036 1.427 . S
C1033 H1023 0.929 . S
C1033 C1031 1.433 . S
C1033 N1036 1.384 . S
C1034 H1025 0.929 . S
C1034 C1026 1.378 . S
C1034 C1029 1.350 . S
C1035 H1022 0.929 . S
C1035 C1027 1.433 . S
C1035 N1037 1.384 . S
N1036 C1032 1.427 . S
N1036 C1033 1.384 . S
N1037 C1029 1.427 . S
N1037 C1035 1.384 . S
H1038 C1044 0.930 . S
H1039 C1048 0.930 . S
H1040 C1053 0.929 . S
H1041 C1051 0.929 . S
H1042 C1046 0.929 . S
H1043 C1052 0.929 . S
C1044 H1038 0.930 . S
C1044 C1045 1.367 . S
C1044 C1052 1.378 . S
C1045 C1044 1.367 . S
C1045 C1053 1.433 . S
C1046 H1042 0.929 . S
C1046 C1048 1.378 . S
C1046 C1050 1.350 . S
C1047 C1050 1.463 . S
C1047 C1052 1.350 . S
C1047 N1055 1.427 . S
C1048 H1039 0.930 . S
C1048 C1046 1.378 . S
C1048 C1049 1.367 . S
C1049 C1048 1.367 . S
C1049 C1051 1.433 . S
C1050 C1046 1.350 . S
C1050 C1047 1.463 . S
C1050 N1054 1.427 . S
C1051 H1041 0.929 . S
C1051 C1049 1.433 . S
C1051 N1054 1.384 . S
C1052 H1043 0.929 . S
C1052 C1044 1.378 . S
C1052 C1047 1.350 . S
C1053 H1040 0.929 . S
C1053 C1045 1.433 . S
C1053 N1055 1.384 . S
N1054 C1050 1.427 . S
N1054 C1051 1.384 . S
N1055 C1047 1.427 . S
N1055 C1053 1.384 . S
H1056 C1062 0.930 . S
H1057 C1066 0.930 . S
H1058 C1071 0.929 . S
H1059 C1069 0.929 . S
H1060 C1064 0.929 . S
H1061 C1070 0.929 . S
C1062 H1056 0.930 . S
C1062 C1063 1.367 . S
C1062 C1070 1.378 . S
C1063 C1062 1.367 . S
C1063 C1071 1.433 . S
C1064 H1060 0.929 . S
C1064 C1066 1.378 . S
C1064 C1068 1.350 . S
C1065 C1068 1.463 . S
C1065 C1070 1.350 . S
C1065 N1073 1.427 . S
C1066 H1057 0.930 . S
C1066 C1064 1.378 . S
C1066 C1067 1.367 . S
C1067 C1066 1.367 . S
C1067 C1069 1.433 . S
C1068 C1064 1.350 . S
C1068 C1065 1.463 . S
C1068 N1072 1.427 . S
C1069 H1059 0.929 . S
C1069 C1067 1.433 . S
C1069 N1072 1.384 . S
C1070 H1061 0.929 . S
C1070 C1062 1.378 . S
C1070 C1065 1.350 . S
C1071 H1058 0.929 . S
C1071 C1063 1.433 . S
C1071 N1073 1.384 . S
N1072 C1068 1.427 . S
N1072 C1069 1.384 . S
N1073 C1065 1.427 . S
N1073 C1071 1.384 . S
H1074 C1080 0.930 . S
H1075 C1084 0.930 . S
H1076 C1089 0.929 . S
H1077 C1087 0.929 . S
H1078 C1082 0.929 . S
H1079 C1088 0.929 . S
C1080 H1074 0.930 . S
C1080 C1081 1.367 . S
C1080 C1088 1.378 . S
C1081 C1080 1.367 . S
C1081 C1089 1.433 . S
C1082 H1078 0.929 . S
C1082 C1084 1.378 . S
C1082 C1086 1.350 . S
C1083 C1086 1.463 . S
C1083 C1088 1.350 . S
C1083 N1091 1.427 . S
C1084 H1075 0.930 . S
C1084 C1082 1.378 . S
C1084 C1085 1.367 . S
C1085 C1084 1.367 . S
C1085 C1087 1.433 . S
C1086 C1082 1.350 . S
C1086 C1083 1.463 . S
C1086 N1090 1.427 . S
C1087 H1077 0.929 . S
C1087 C1085 1.433 . S
C1087 N1090 1.384 . S
C1088 H1079 0.929 . S
C1088 C1080 1.378 . S
C1088 C1083 1.350 . S
C1089 H1076 0.929 . S
C1089 C1081 1.433 . S
C1089 N1091 1.384 . S
N1090 C1086 1.427 . S
N1090 C1087 1.384 . S
N1091 C1083 1.427 . S
N1091 C1089 1.384 . S
H1092 C1098 0.930 . S
H1093 C1102 0.930 . S
H1094 C1107 0.929 . S
H1095 C1105 0.929 . S
H1096 C1100 0.929 . S
H1097 C1106 0.929 . S
C1098 H1092 0.930 . S
C1098 C1099 1.367 . S
C1098 C1106 1.378 . S
C1099 C1098 1.367 . S
C1099 C1107 1.433 . S
C1100 H1096 0.929 . S
C1100 C1102 1.378 . S
C1100 C1104 1.350 . S
C1101 C1104 1.463 . S
C1101 C1106 1.350 . S
C1101 N1109 1.427 . S
C1102 H1093 0.930 . S
C1102 C1100 1.378 . S
C1102 C1103 1.367 . S
C1103 C1102 1.367 . S
C1103 C1105 1.433 . S
C1104 C1100 1.350 . S
C1104 C1101 1.463 . S
C1104 N1108 1.427 . S
C1105 H1095 0.929 . S
C1105 C1103 1.433 . S
C1105 N1108 1.384 . S
C1106 H1097 0.929 . S
C1106 C1098 1.378 . S
C1106 C1101 1.350 . S
C1107 H1094 0.929 . S
C1107 C1099 1.433 . S
C1107 N1109 1.384 . S
N1108 C1104 1.427 . S
N1108 C1105 1.384 . S
N1109 C1101 1.427 . S
N1109 C1107 1.384 . S
H1110 C1116 0.930 . S
H1111 C1120 0.930 . S
H1112 C1125 0.929 . S
H1113 C1123 0.929 . S
H1114 C1118 0.929 . S
H1115 C1124 0.929 . S
C1116 H1110 0.930 . S
C1116 C1117 1.367 . S
C1116 C1124 1.378 . S
C1117 C1116 1.367 . S
C1117 C1125 1.433 . S
C1118 H1114 0.929 . S
C1118 C1120 1.378 . S
C1118 C1122 1.350 . S
C1119 C1122 1.463 . S
C1119 C1124 1.350 . S
C1119 N1127 1.427 . S
C1120 H1111 0.930 . S
C1120 C1118 1.378 . S
C1120 C1121 1.367 . S
C1121 C1120 1.367 . S
C1121 C1123 1.433 . S
C1122 C1118 1.350 . S
C1122 C1119 1.463 . S
C1122 N1126 1.427 . S
C1123 H1113 0.929 . S
C1123 C1121 1.433 . S
C1123 N1126 1.384 . S
C1124 H1115 0.929 . S
C1124 C1116 1.378 . S
C1124 C1119 1.350 . S
C1125 H1112 0.929 . S
C1125 C1117 1.433 . S
C1125 N1127 1.384 . S
N1126 C1122 1.427 . S
N1126 C1123 1.384 . S
N1127 C1119 1.427 . S
N1127 C1125 1.384 . S
H1128 C1134 0.930 . S
H1129 C1138 0.930 . S
H1130 C1143 0.929 . S
H1131 C1141 0.929 . S
H1132 C1136 0.929 . S
H1133 C1142 0.929 . S
C1134 H1128 0.930 . S
C1134 C1135 1.367 . S
C1134 C1142 1.378 . S
C1135 C1134 1.367 . S
C1135 C1143 1.433 . S
C1136 H1132 0.929 . S
C1136 C1138 1.378 . S
C1136 C1140 1.350 . S
C1137 C1140 1.463 . S
C1137 C1142 1.350 . S
C1137 N1145 1.427 . S
C1138 H1129 0.930 . S
C1138 C1136 1.378 . S
C1138 C1139 1.367 . S
C1139 C1138 1.367 . S
C1139 C1141 1.433 . S
C1140 C1136 1.350 . S
C1140 C1137 1.463 . S
C1140 N1144 1.427 . S
C1141 H1131 0.929 . S
C1141 C1139 1.433 . S
C1141 N1144 1.384 . S
C1142 H1133 0.929 . S
C1142 C1134 1.378 . S
C1142 C1137 1.350 . S
C1143 H1130 0.929 . S
C1143 C1135 1.433 . S
C1143 N1145 1.384 . S
N1144 C1140 1.427 . S
N1144 C1141 1.384 . S
N1145 C1137 1.427 . S
N1145 C1143 1.384 . S
H1146 C1152 0.930 . S
H1147 C1156 0.930 . S
H1148 C1161 0.929 . S
H1149 C1159 0.929 . S
H1150 C1154 0.929 . S
H1151 C1160 0.929 . S
C1152 H1146 0.930 . S
C1152 C1153 1.367 . S
C1152 C1160 1.378 . S
C1153 C1152 1.367 . S
C1153 C1161 1.433 . S
C1154 H1150 0.929 . S
C1154 C1156 1.378 . S
C1154 C1158 1.350 . S
C1155 C1158 1.463 . S
C1155 C1160 1.350 . S
C1155 N1163 1.427 . S
C1156 H1147 0.930 . S
C1156 C1154 1.378 . S
C1156 C1157 1.367 . S
C1157 C1156 1.367 . S
C1157 C1159 1.433 . S
C1158 C1154 1.350 . S
C1158 C1155 1.463 . S
C1158 N1162 1.427 . S
C1159 H1149 0.929 . S
C1159 C1157 1.433 . S
C1159 N1162 1.384 . S
C1160 H1151 0.929 . S
C1160 C1152 1.378 . S
C1160 C1155 1.350 . S
C1161 H1148 0.929 . S
C1161 C1153 1.433 . S
C1161 N1163 1.384 . S
N1162 C1158 1.427 . S
N1162 C1159 1.384 . S
N1163 C1155 1.427 . S
N1163 C1161 1.384 . S
H1164 C1170 0.930 . S
H1165 C1174 0.930 . S
H1166 C1179 0.929 . S
H1167 C1177 0.929 . S
H1168 C1172 0.929 . S
H1169 C1178 0.929 . S
C1170 H1164 0.930 . S
C1170 C1171 1.367 . S
C1170 C1178 1.378 . S
C1171 C1170 1.367 . S
C1171 C1179 1.433 . S
C1172 H1168 0.929 . S
C1172 C1174 1.378 . S
C1172 C1176 1.350 . S
C1173 C1176 1.463 . S
C1173 C1178 1.350 . S
C1173 N1181 1.427 . S
C1174 H1165 0.930 . S
C1174 C1172 1.378 . S
C1174 C1175 1.367 . S
C1175 C1174 1.367 . S
C1175 C1177 1.433 . S
C1176 C1172 1.350 . S
C1176 C1173 1.463 . S
C1176 N1180 1.427 . S
C1177 H1167 0.929 . S
C1177 C1175 1.433 . S
C1177 N1180 1.384 . S
C1178 H1169 0.929 . S
C1178 C1170 1.378 . S
C1178 C1173 1.350 . S
C1179 H1166 0.929 . S
C1179 C1171 1.433 . S
C1179 N1181 1.384 . S
N1180 C1176 1.427 . S
N1180 C1177 1.384 . S
N1181 C1173 1.427 . S
N1181 C1179 1.384 . S
H1182 C1188 0.930 . S
H1183 C1192 0.930 . S
H1184 C1197 0.929 . S
H1185 C1195 0.929 . S
H1186 C1190 0.929 . S
H1187 C1196 0.929 . S
C1188 H1182 0.930 . S
C1188 C1189 1.367 . S
C1188 C1196 1.378 . S
C1189 C1188 1.367 . S
C1189 C1197 1.433 . S
C1190 H1186 0.929 . S
C1190 C1192 1.378 . S
C1190 C1194 1.350 . S
C1191 C1194 1.463 . S
C1191 C1196 1.350 . S
C1191 N1199 1.427 . S
C1192 H1183 0.930 . S
C1192 C1190 1.378 . S
C1192 C1193 1.367 . S
C1193 C1192 1.367 . S
C1193 C1195 1.433 . S
C1194 C1190 1.350 . S
C1194 C1191 1.463 . S
C1194 N1198 1.427 . S
C1195 H1185 0.929 . S
C1195 C1193 1.433 . S
C1195 N1198 1.384 . S
C1196 H1187 0.929 . S
C1196 C1188 1.378 . S
C1196 C1191 1.350 . S
C1197 H1184 0.929 . S
C1197 C1189 1.433 . S
C1197 N1199 1.384 . S
N1198 C1194 1.427 . S
N1198 C1195 1.384 . S
N1199 C1191 1.427 . S
N1199 C1197 1.384 . S
C343 C216 1.389 . S
C347 C7 1.396 . S
C361 C174 1.394 . S
C365 C20 1.390 . S
C379 C189 1.396 . S
C383 C34 1.388 . S
C397 C203 1.394 . S
C401 C49 1.391 . S
C415 C202 1.392 . S
C419 C21 1.392 . S
C433 C35 1.390 . S
C437 C217 1.394 . S
C451 C175 1.390 . S
C455 C48 1.394 . S
C469 C188 1.389 . S
C473 C6 1.395 . S
C487 C258 1.389 . S
C491 C62 1.395 . S
C505 C77 1.389 . S
C509 C273 1.396 . S
C523 C90 1.394 . S
C527 C230 1.390 . S
C541 C245 1.394 . S
C545 C105 1.391 . S
C559 C315 1.389 . S
C563 C119 1.395 . S
C577 C132 1.389 . S
C581 C328 1.395 . S
C595 C147 1.389 . S
C599 C287 1.395 . S
C613 C160 1.396 . S
C617 C300 1.388 . S
C631 C244 1.396 . S
C635 C161 1.389 . S
C649 C329 1.393 . S
C653 C76 1.391 . S
C667 C91 1.393 . S
C671 C286 1.391 . S
C685 C301 1.389 . S
C689 C104 1.395 . S
C703 C314 1.391 . S
C707 C63 1.394 . S
C721 C133 1.390 . S
C725 C272 1.394 . S
C739 C231 1.395 . S
C743 C146 1.389 . S
C757 C259 1.395 . S
C761 C118 1.390 . S
C775 C8 0.918 . S
C779 C64 0.928 . S
C793 C79 0.931 . S
C797 C23 0.929 . S
C811 C37 0.925 . S
C815 C92 0.916 . S
C829 C50 0.924 . S
C833 C107 0.931 . S
C847 C121 0.920 . S
C851 C22 0.913 . S
C865 C134 0.914 . S
C869 C36 0.922 . S
C883 C149 0.915 . S
C887 C51 0.912 . S
C901 C9 0.925 . S
C905 C162 0.916 . S
C919 C163 0.918 . S
C923 C65 0.912 . S
C937 C78 0.914 . S
C941 C120 0.913 . S
C955 C93 0.913 . S
C959 C135 0.914 . S
C973 C148 0.918 . S
C977 C106 0.912 . S
C991 C232 0.913 . S
C995 C176 0.921 . S
C1009 C247 0.931 . S
C1013 C191 0.927 . S
C1027 C205 0.926 . S
C1031 C260 0.916 . S
C1045 C218 0.928 . S
C1049 C275 0.919 . S
C1063 C190 0.930 . S
C1067 C289 0.930 . S
C1081 C204 0.919 . S
C1085 C302 0.928 . S
C1099 C317 0.916 . S
C1103 C219 0.925 . S
C1117 C177 0.913 . S
C1121 C330 0.913 . S
C1135 C233 0.916 . S
C1139 C331 0.925 . S
C1153 C288 0.922 . S
C1157 C246 0.914 . S
C1171 C261 0.913 . S
C1175 C303 0.914 . S
C1189 C316 0.920 . S
C1193 C274 0.929 . S
