# Generated by pormake.
# Topology ubt, (5)-cn, num edge types: 1
# Building blocks:
#     Node 0, Type 0, BuildingBlock: XOMCOT_clean_sbu_1, # of connection points: 5
#     Node 1, Type 0, BuildingBlock: XOMCOT_clean_sbu_1, # of connection points: 5
#     Node 2, Type 0, BuildingBlock: XOMCOT_clean_sbu_1, # of connection points: 5
#     Node 3, Type 0, BuildingBlock: XOMCOT_clean_sbu_1, # of connection points: 5
#     Node 4, Type 0, BuildingBlock: XOMCOT_clean_sbu_1, # of connection points: 5
#     Node 5, Type 0, BuildingBlock: XOMCOT_clean_sbu_1, # of connection points: 5
#     Node 6, Type 0, BuildingBlock: XOMCOT_clean_sbu_1, # of connection points: 5
#     Node 7, Type 0, BuildingBlock: XOMCOT_clean_sbu_1, # of connection points: 5
#     Node 8, Type 0, BuildingBlock: XOMCOT_clean_sbu_1, # of connection points: 5
#     Node 9, Type 0, BuildingBlock: XOMCOT_clean_sbu_1, # of connection points: 5
#     Node 10, Type 0, BuildingBlock: XOMCOT_clean_sbu_1, # of connection points: 5
#     Node 11, Type 0, BuildingBlock: XOMCOT_clean_sbu_1, # of connection points: 5
#     Node 12, Type 0, BuildingBlock: XOMCOT_clean_sbu_1, # of connection points: 5
#     Node 13, Type 0, BuildingBlock: XOMCOT_clean_sbu_1, # of connection points: 5
#     Node 14, Type 0, BuildingBlock: XOMCOT_clean_sbu_1, # of connection points: 5
#     Node 15, Type 0, BuildingBlock: XOMCOT_clean_sbu_1, # of connection points: 5
#     Node 16, Type 0, BuildingBlock: XOMCOT_clean_sbu_1, # of connection points: 5
#     Node 17, Type 0, BuildingBlock: XOMCOT_clean_sbu_1, # of connection points: 5
#     Node 18, Type 0, BuildingBlock: XOMCOT_clean_sbu_1, # of connection points: 5
#     Node 19, Type 0, BuildingBlock: XOMCOT_clean_sbu_1, # of connection points: 5
#     Node 20, Type 0, BuildingBlock: XOMCOT_clean_sbu_1, # of connection points: 5
#     Node 21, Type 0, BuildingBlock: XOMCOT_clean_sbu_1, # of connection points: 5
#     Node 22, Type 0, BuildingBlock: XOMCOT_clean_sbu_1, # of connection points: 5
#     Node 23, Type 0, BuildingBlock: XOMCOT_clean_sbu_1, # of connection points: 5
#     Node 24, Type 0, BuildingBlock: XOMCOT_clean_sbu_1, # of connection points: 5
#     Node 25, Type 0, BuildingBlock: XOMCOT_clean_sbu_1, # of connection points: 5
#     Node 26, Type 0, BuildingBlock: XOMCOT_clean_sbu_1, # of connection points: 5
#     Node 27, Type 0, BuildingBlock: XOMCOT_clean_sbu_1, # of connection points: 5
#     Node 28, Type 0, BuildingBlock: XOMCOT_clean_sbu_1, # of connection points: 5
#     Node 29, Type 0, BuildingBlock: XOMCOT_clean_sbu_1, # of connection points: 5
#     Node 30, Type 0, BuildingBlock: XOMCOT_clean_sbu_1, # of connection points: 5
#     Node 31, Type 0, BuildingBlock: XOMCOT_clean_sbu_1, # of connection points: 5
#     Node 32, Type 0, BuildingBlock: XOMCOT_clean_sbu_1, # of connection points: 5
#     Node 33, Type 0, BuildingBlock: XOMCOT_clean_sbu_1, # of connection points: 5
#     Node 34, Type 0, BuildingBlock: XOMCOT_clean_sbu_1, # of connection points: 5
#     Node 35, Type 0, BuildingBlock: XOMCOT_clean_sbu_1, # of connection points: 5
#     Node 36, Type 0, BuildingBlock: XOMCOT_clean_sbu_1, # of connection points: 5
#     Node 37, Type 0, BuildingBlock: XOMCOT_clean_sbu_1, # of connection points: 5
#     Node 38, Type 0, BuildingBlock: XOMCOT_clean_sbu_1, # of connection points: 5
#     Node 39, Type 0, BuildingBlock: XOMCOT_clean_sbu_1, # of connection points: 5
#     Node 40, Type 0, BuildingBlock: XOMCOT_clean_sbu_1, # of connection points: 5
#     Node 41, Type 0, BuildingBlock: XOMCOT_clean_sbu_1, # of connection points: 5
#     Node 42, Type 0, BuildingBlock: XOMCOT_clean_sbu_1, # of connection points: 5
#     Node 43, Type 0, BuildingBlock: XOMCOT_clean_sbu_1, # of connection points: 5
#     Node 44, Type 0, BuildingBlock: XOMCOT_clean_sbu_1, # of connection points: 5
#     Node 45, Type 0, BuildingBlock: XOMCOT_clean_sbu_1, # of connection points: 5
#     Node 46, Type 0, BuildingBlock: XOMCOT_clean_sbu_1, # of connection points: 5
#     Node 47, Type 0, BuildingBlock: XOMCOT_clean_sbu_1, # of connection points: 5
#     Edge 48, Type (0, 0), BuildingBlock: CIFDUS_clean_linker_0, # of connection points: 2
#     Edge 49, Type (0, 0), BuildingBlock: CIFDUS_clean_linker_0, # of connection points: 2
#     Edge 50, Type (0, 0), BuildingBlock: CIFDUS_clean_linker_0, # of connection points: 2
#     Edge 51, Type (0, 0), BuildingBlock: CIFDUS_clean_linker_0, # of connection points: 2
#     Edge 52, Type (0, 0), BuildingBlock: CIFDUS_clean_linker_0, # of connection points: 2
#     Edge 53, Type (0, 0), BuildingBlock: CIFDUS_clean_linker_0, # of connection points: 2
#     Edge 54, Type (0, 0), BuildingBlock: CIFDUS_clean_linker_0, # of connection points: 2
#     Edge 55, Type (0, 0), BuildingBlock: CIFDUS_clean_linker_0, # of connection points: 2
#     Edge 56, Type (0, 0), BuildingBlock: CIFDUS_clean_linker_0, # of connection points: 2
#     Edge 57, Type (0, 0), BuildingBlock: CIFDUS_clean_linker_0, # of connection points: 2
#     Edge 58, Type (0, 0), BuildingBlock: CIFDUS_clean_linker_0, # of connection points: 2
#     Edge 59, Type (0, 0), BuildingBlock: CIFDUS_clean_linker_0, # of connection points: 2
#     Edge 60, Type (0, 0), BuildingBlock: CIFDUS_clean_linker_0, # of connection points: 2
#     Edge 61, Type (0, 0), BuildingBlock: CIFDUS_clean_linker_0, # of connection points: 2
#     Edge 62, Type (0, 0), BuildingBlock: CIFDUS_clean_linker_0, # of connection points: 2
#     Edge 63, Type (0, 0), BuildingBlock: CIFDUS_clean_linker_0, # of connection points: 2
#     Edge 64, Type (0, 0), BuildingBlock: CIFDUS_clean_linker_0, # of connection points: 2
#     Edge 65, Type (0, 0), BuildingBlock: CIFDUS_clean_linker_0, # of connection points: 2
#     Edge 66, Type (0, 0), BuildingBlock: CIFDUS_clean_linker_0, # of connection points: 2
#     Edge 67, Type (0, 0), BuildingBlock: CIFDUS_clean_linker_0, # of connection points: 2
#     Edge 68, Type (0, 0), BuildingBlock: CIFDUS_clean_linker_0, # of connection points: 2
#     Edge 69, Type (0, 0), BuildingBlock: CIFDUS_clean_linker_0, # of connection points: 2
#     Edge 70, Type (0, 0), BuildingBlock: CIFDUS_clean_linker_0, # of connection points: 2
#     Edge 71, Type (0, 0), BuildingBlock: CIFDUS_clean_linker_0, # of connection points: 2
#     Edge 72, Type (0, 0), BuildingBlock: CIFDUS_clean_linker_0, # of connection points: 2
#     Edge 73, Type (0, 0), BuildingBlock: CIFDUS_clean_linker_0, # of connection points: 2
#     Edge 74, Type (0, 0), BuildingBlock: CIFDUS_clean_linker_0, # of connection points: 2
#     Edge 75, Type (0, 0), BuildingBlock: CIFDUS_clean_linker_0, # of connection points: 2
#     Edge 76, Type (0, 0), BuildingBlock: CIFDUS_clean_linker_0, # of connection points: 2
#     Edge 77, Type (0, 0), BuildingBlock: CIFDUS_clean_linker_0, # of connection points: 2
#     Edge 78, Type (0, 0), BuildingBlock: CIFDUS_clean_linker_0, # of connection points: 2
#     Edge 79, Type (0, 0), BuildingBlock: CIFDUS_clean_linker_0, # of connection points: 2
#     Edge 80, Type (0, 0), BuildingBlock: CIFDUS_clean_linker_0, # of connection points: 2
#     Edge 81, Type (0, 0), BuildingBlock: CIFDUS_clean_linker_0, # of connection points: 2
#     Edge 82, Type (0, 0), BuildingBlock: CIFDUS_clean_linker_0, # of connection points: 2
#     Edge 83, Type (0, 0), BuildingBlock: CIFDUS_clean_linker_0, # of connection points: 2
#     Edge 84, Type (0, 0), BuildingBlock: CIFDUS_clean_linker_0, # of connection points: 2
#     Edge 85, Type (0, 0), BuildingBlock: CIFDUS_clean_linker_0, # of connection points: 2
#     Edge 86, Type (0, 0), BuildingBlock: CIFDUS_clean_linker_0, # of connection points: 2
#     Edge 87, Type (0, 0), BuildingBlock: CIFDUS_clean_linker_0, # of connection points: 2
#     Edge 88, Type (0, 0), BuildingBlock: CIFDUS_clean_linker_0, # of connection points: 2
#     Edge 89, Type (0, 0), BuildingBlock: CIFDUS_clean_linker_0, # of connection points: 2
#     Edge 90, Type (0, 0), BuildingBlock: CIFDUS_clean_linker_0, # of connection points: 2
#     Edge 91, Type (0, 0), BuildingBlock: CIFDUS_clean_linker_0, # of connection points: 2
#     Edge 92, Type (0, 0), BuildingBlock: CIFDUS_clean_linker_0, # of connection points: 2
#     Edge 93, Type (0, 0), BuildingBlock: CIFDUS_clean_linker_0, # of connection points: 2
#     Edge 94, Type (0, 0), BuildingBlock: CIFDUS_clean_linker_0, # of connection points: 2
#     Edge 95, Type (0, 0), BuildingBlock: CIFDUS_clean_linker_0, # of connection points: 2
#     Edge 96, Type (0, 0), BuildingBlock: CIFDUS_clean_linker_0, # of connection points: 2
#     Edge 97, Type (0, 0), BuildingBlock: CIFDUS_clean_linker_0, # of connection points: 2
#     Edge 98, Type (0, 0), BuildingBlock: CIFDUS_clean_linker_0, # of connection points: 2
#     Edge 99, Type (0, 0), BuildingBlock: CIFDUS_clean_linker_0, # of connection points: 2
#     Edge 100, Type (0, 0), BuildingBlock: CIFDUS_clean_linker_0, # of connection points: 2
#     Edge 101, Type (0, 0), BuildingBlock: CIFDUS_clean_linker_0, # of connection points: 2
#     Edge 102, Type (0, 0), BuildingBlock: CIFDUS_clean_linker_0, # of connection points: 2
#     Edge 103, Type (0, 0), BuildingBlock: CIFDUS_clean_linker_0, # of connection points: 2
#     Edge 104, Type (0, 0), BuildingBlock: CIFDUS_clean_linker_0, # of connection points: 2
#     Edge 105, Type (0, 0), BuildingBlock: CIFDUS_clean_linker_0, # of connection points: 2
#     Edge 106, Type (0, 0), BuildingBlock: CIFDUS_clean_linker_0, # of connection points: 2
#     Edge 107, Type (0, 0), BuildingBlock: CIFDUS_clean_linker_0, # of connection points: 2
#     Edge 108, Type (0, 0), BuildingBlock: CIFDUS_clean_linker_0, # of connection points: 2
#     Edge 109, Type (0, 0), BuildingBlock: CIFDUS_clean_linker_0, # of connection points: 2
#     Edge 110, Type (0, 0), BuildingBlock: CIFDUS_clean_linker_0, # of connection points: 2
#     Edge 111, Type (0, 0), BuildingBlock: CIFDUS_clean_linker_0, # of connection points: 2
#     Edge 112, Type (0, 0), BuildingBlock: CIFDUS_clean_linker_0, # of connection points: 2
#     Edge 113, Type (0, 0), BuildingBlock: CIFDUS_clean_linker_0, # of connection points: 2
#     Edge 114, Type (0, 0), BuildingBlock: CIFDUS_clean_linker_0, # of connection points: 2
#     Edge 115, Type (0, 0), BuildingBlock: CIFDUS_clean_linker_0, # of connection points: 2
#     Edge 116, Type (0, 0), BuildingBlock: CIFDUS_clean_linker_0, # of connection points: 2
#     Edge 117, Type (0, 0), BuildingBlock: CIFDUS_clean_linker_0, # of connection points: 2
#     Edge 118, Type (0, 0), BuildingBlock: CIFDUS_clean_linker_0, # of connection points: 2
#     Edge 119, Type (0, 0), BuildingBlock: CIFDUS_clean_linker_0, # of connection points: 2
#     Edge 120, Type (0, 0), BuildingBlock: CIFDUS_clean_linker_0, # of connection points: 2
#     Edge 121, Type (0, 0), BuildingBlock: CIFDUS_clean_linker_0, # of connection points: 2
#     Edge 122, Type (0, 0), BuildingBlock: CIFDUS_clean_linker_0, # of connection points: 2
#     Edge 123, Type (0, 0), BuildingBlock: CIFDUS_clean_linker_0, # of connection points: 2
#     Edge 124, Type (0, 0), BuildingBlock: CIFDUS_clean_linker_0, # of connection points: 2
#     Edge 125, Type (0, 0), BuildingBlock: CIFDUS_clean_linker_0, # of connection points: 2
#     Edge 126, Type (0, 0), BuildingBlock: CIFDUS_clean_linker_0, # of connection points: 2
#     Edge 127, Type (0, 0), BuildingBlock: CIFDUS_clean_linker_0, # of connection points: 2
#     Edge 128, Type (0, 0), BuildingBlock: CIFDUS_clean_linker_0, # of connection points: 2
#     Edge 129, Type (0, 0), BuildingBlock: CIFDUS_clean_linker_0, # of connection points: 2
#     Edge 130, Type (0, 0), BuildingBlock: CIFDUS_clean_linker_0, # of connection points: 2
#     Edge 131, Type (0, 0), BuildingBlock: CIFDUS_clean_linker_0, # of connection points: 2
#     Edge 132, Type (0, 0), BuildingBlock: CIFDUS_clean_linker_0, # of connection points: 2
#     Edge 133, Type (0, 0), BuildingBlock: CIFDUS_clean_linker_0, # of connection points: 2
#     Edge 134, Type (0, 0), BuildingBlock: CIFDUS_clean_linker_0, # of connection points: 2
#     Edge 135, Type (0, 0), BuildingBlock: CIFDUS_clean_linker_0, # of connection points: 2
#     Edge 136, Type (0, 0), BuildingBlock: CIFDUS_clean_linker_0, # of connection points: 2
#     Edge 137, Type (0, 0), BuildingBlock: CIFDUS_clean_linker_0, # of connection points: 2
#     Edge 138, Type (0, 0), BuildingBlock: CIFDUS_clean_linker_0, # of connection points: 2
#     Edge 139, Type (0, 0), BuildingBlock: CIFDUS_clean_linker_0, # of connection points: 2
#     Edge 140, Type (0, 0), BuildingBlock: CIFDUS_clean_linker_0, # of connection points: 2
#     Edge 141, Type (0, 0), BuildingBlock: CIFDUS_clean_linker_0, # of connection points: 2
#     Edge 142, Type (0, 0), BuildingBlock: CIFDUS_clean_linker_0, # of connection points: 2
#     Edge 143, Type (0, 0), BuildingBlock: CIFDUS_clean_linker_0, # of connection points: 2
#     Edge 144, Type (0, 0), BuildingBlock: CIFDUS_clean_linker_0, # of connection points: 2
#     Edge 145, Type (0, 0), BuildingBlock: CIFDUS_clean_linker_0, # of connection points: 2
#     Edge 146, Type (0, 0), BuildingBlock: CIFDUS_clean_linker_0, # of connection points: 2
#     Edge 147, Type (0, 0), BuildingBlock: CIFDUS_clean_linker_0, # of connection points: 2
#     Edge 148, Type (0, 0), BuildingBlock: CIFDUS_clean_linker_0, # of connection points: 2
#     Edge 149, Type (0, 0), BuildingBlock: CIFDUS_clean_linker_0, # of connection points: 2
#     Edge 150, Type (0, 0), BuildingBlock: CIFDUS_clean_linker_0, # of connection points: 2
#     Edge 151, Type (0, 0), BuildingBlock: CIFDUS_clean_linker_0, # of connection points: 2
#     Edge 152, Type (0, 0), BuildingBlock: CIFDUS_clean_linker_0, # of connection points: 2
#     Edge 153, Type (0, 0), BuildingBlock: CIFDUS_clean_linker_0, # of connection points: 2
#     Edge 154, Type (0, 0), BuildingBlock: CIFDUS_clean_linker_0, # of connection points: 2
#     Edge 155, Type (0, 0), BuildingBlock: CIFDUS_clean_linker_0, # of connection points: 2
#     Edge 156, Type (0, 0), BuildingBlock: CIFDUS_clean_linker_0, # of connection points: 2
#     Edge 157, Type (0, 0), BuildingBlock: CIFDUS_clean_linker_0, # of connection points: 2
#     Edge 158, Type (0, 0), BuildingBlock: CIFDUS_clean_linker_0, # of connection points: 2
#     Edge 159, Type (0, 0), BuildingBlock: CIFDUS_clean_linker_0, # of connection points: 2
#     Edge 160, Type (0, 0), BuildingBlock: CIFDUS_clean_linker_0, # of connection points: 2
#     Edge 161, Type (0, 0), BuildingBlock: CIFDUS_clean_linker_0, # of connection points: 2
#     Edge 162, Type (0, 0), BuildingBlock: CIFDUS_clean_linker_0, # of connection points: 2
#     Edge 163, Type (0, 0), BuildingBlock: CIFDUS_clean_linker_0, # of connection points: 2
#     Edge 164, Type (0, 0), BuildingBlock: CIFDUS_clean_linker_0, # of connection points: 2
#     Edge 165, Type (0, 0), BuildingBlock: CIFDUS_clean_linker_0, # of connection points: 2
#     Edge 166, Type (0, 0), BuildingBlock: CIFDUS_clean_linker_0, # of connection points: 2
#     Edge 167, Type (0, 0), BuildingBlock: CIFDUS_clean_linker_0, # of connection points: 2
# Relax obj value: 0.234
# Max RMSD: 0.185
# Mean RMSD: 0.181
data_MOF--net-ubt--node1-XOMCOT_clean_sbu_1--edge1-CIFDUS_clean_linker_0
_symmetry_space_group_name_H-M    P1
_symmetry_Int_Tables_number       1
_symmetry_cell_setting            triclinic
loop_
_symmetry_equiv_pos_as_xyz
'x, y, z'
_cell_length_a     63.468429
_cell_length_b     63.856823
_cell_length_c     63.497622
_cell_angle_alpha  89.917478
_cell_angle_beta   90.352309
_cell_angle_gamma 91.388886
loop_
_atom_site_label
_atom_site_type_symbol
_atom_site_fract_x
_atom_site_fract_y
_atom_site_fract_z
_atom_type_partial_charge
C0 C 0.99489 0.20853 0.1543 0.0
C1 C 0.9759 0.21084 0.14413 0.0
N2 N 0.97025 0.19236 0.13526 0.0
N3 N 1.00104 0.1886 0.15203 0.0
C4 C 0.98575 0.17917 0.14031 0.0
H5 H 0.00386 0.22077 0.16226 0.0
Co6 Co 0.02608 0.17669 0.16049 0.0
C7 C 0.01198 0.1391 0.18477 0.0
O8 O 0.0273 0.14279 0.19839 0.0
N9 N 0.05148 0.16424 0.16808 0.0
C10 C 0.0854 0.15761 0.17342 0.0
C11 C 0.07012 0.17251 0.17489 0.0
C12 C 0.05598 0.14444 0.16245 0.0
N13 N 0.07635 0.14001 0.16557 0.0
O14 O 0.03016 0.16587 0.13274 0.0
H15 H 0.07302 0.1886 0.17941 0.0
H16 H 0.04477 0.13384 0.15483 0.0
O17 O 0.00978 0.15139 0.16903 0.0
C18 C 0.03583 0.17994 0.11954 0.0
O19 O 0.03403 0.19969 0.12478 0.0
N20 N 0.02364 0.18958 0.18706 0.0
C21 C 0.0218 0.21706 0.22117 0.0
C22 C 0.00848 0.19921 0.22024 0.0
C23 C 0.00928 0.18585 0.2027 0.0
C24 C 0.03638 0.20704 0.18777 0.0
C25 C 0.03589 0.22083 0.20469 0.0
H26 H 0.99766 0.17331 0.20133 0.0
H27 H 0.04624 0.21092 0.17443 0.0
H28 H 0.98617 0.16298 0.13532 0.0
H29 H 0.96729 0.22521 0.14274 0.0
H30 H 0.10196 0.15975 0.1772 0.0
H31 H 0.9968 0.19629 0.23233 0.0
H32 H 0.04598 0.23477 0.20454 0.0
C33 C 0.89601 0.03703 0.21843 0.0
C34 C 0.91028 0.05352 0.21834 0.0
N35 N 0.9163 0.05713 0.19835 0.0
N36 N 0.89276 0.03021 0.19853 0.0
C37 C 0.90535 0.04288 0.18661 0.0
H38 H 0.88941 0.02995 0.23241 0.0
Co39 Co 0.8778 0.00577 0.19009 0.0
C40 C 0.85299 0.01808 0.15169 0.0
O41 O 0.83942 0.00258 0.15496 0.0
N42 N 0.86348 0.98075 0.18162 0.0
C43 C 0.84305 0.95196 0.18004 0.0
C44 C 0.84757 0.96995 0.19109 0.0
C45 C 0.8683 0.96876 0.16479 0.0
N46 N 0.85619 0.95113 0.16353 0.0
O47 O 0.90284 0.99569 0.17672 0.0
H48 H 0.83947 0.97451 0.20514 0.0
H49 H 0.88062 0.9728 0.15372 0.0
O50 O 0.86861 0.02079 0.16437 0.0
C51 C 0.91172 0.98518 0.19128 0.0
O52 O 0.90493 0.98758 0.21062 0.0
N53 N 0.85411 0.01376 0.20593 0.0
C54 C 0.82057 0.014 0.23435 0.0
C55 C 0.81869 0.02341 0.21441 0.0
C56 C 0.83588 0.02344 0.20044 0.0
C57 C 0.85628 0.00539 0.22556 0.0
C58 C 0.83988 0.0054 0.23994 0.0
H59 H 0.83413 0.03075 0.18527 0.0
H60 H 0.87052 0.99736 0.22965 0.0
H61 H 0.90742 0.04085 0.16983 0.0
H62 H 0.91627 0.06182 0.23206 0.0
H63 H 0.83081 0.94051 0.18383 0.0
H64 H 0.80412 0.03058 0.20966 0.0
H65 H 0.84204 0.9978 0.25504 0.0
C66 C 1.00114 0.85645 0.20171 0.0
C67 C 0.98709 0.87063 0.20921 0.0
N68 N 0.97946 0.88169 0.19283 0.0
N69 N 1.00234 0.85833 0.18063 0.0
C70 C 0.98903 0.87388 0.17567 0.0
H71 H 0.01056 0.84609 0.21116 0.0
Co72 Co 0.02152 0.84529 0.16301 0.0
C73 C 0.99505 0.83039 0.12738 0.0
O74 O 0.00549 0.81291 0.12667 0.0
N75 N 0.0415 0.83275 0.14456 0.0
C76 C 0.06303 0.81136 0.12767 0.0
C77 C 0.04843 0.81289 0.14351 0.0
C78 C 0.05234 0.84286 0.129 0.0
N79 N 0.06556 0.83029 0.1186 0.0
O80 O 0.03145 0.87226 0.15454 0.0
H81 H 0.04307 0.79996 0.1532 0.0
H82 H 0.0504 0.85914 0.12492 0.0
O83 O 1.00021 0.84448 0.14085 0.0
C84 C 0.04422 0.87786 0.16913 0.0
O85 O 0.04759 0.86496 0.18487 0.0
N86 N 0.01284 0.81915 0.17428 0.0
C87 C 0.00263 0.78573 0.20105 0.0
C88 C 0.98789 0.79284 0.18632 0.0
C89 C 0.99311 0.81004 0.17341 0.0
C90 C 0.02722 0.81234 0.18863 0.0
C91 C 0.0225 0.79562 0.20207 0.0
H92 H 0.98091 0.81662 0.16373 0.0
H93 H 0.0423 0.82049 0.19011 0.0
H94 H 0.98689 0.87972 0.15981 0.0
H95 H 0.98356 0.87319 0.22564 0.0
H96 H 0.0713 0.7974 0.12332 0.0
H97 H 0.97217 0.78588 0.18556 0.0
H98 H 0.03416 0.7907 0.21347 0.0
C99 C 0.15141 0.98864 0.19487 0.0
C100 C 0.13844 0.9711 0.19654 0.0
N101 N 0.13214 0.96547 0.177 0.0
N102 N 0.15305 0.99393 0.17438 0.0
C103 C 0.14131 0.97945 0.16391 0.0
H104 H 0.15829 0.99758 0.20775 0.0
Co105 Co 0.16468 0.01799 0.16256 0.0
C106 C 0.19099 0.99939 0.12921 0.0
O107 O 0.20698 0.01149 0.13518 0.0
N108 N 0.17531 0.04269 0.15016 0.0
C109 C 0.17648 0.07689 0.14272 0.0
C110 C 0.17442 0.06215 0.15848 0.0
C111 C 0.17718 0.04616 0.12924 0.0
N112 N 0.17823 0.06662 0.12442 0.0
O113 O 0.13824 0.02431 0.1494 0.0
H114 H 0.16975 0.06557 0.17442 0.0
H115 H 0.17488 0.03426 0.11734 0.0
O116 O 0.17318 0.00097 0.13832 0.0
C117 C 0.1228 0.02864 0.16127 0.0
O118 O 0.12387 0.0239 0.18136 0.0
N119 N 0.19031 0.01307 0.17699 0.0
C120 C 0.22466 0.00688 0.20367 0.0
C121 C 0.217 0.99059 0.19076 0.0
C122 C 0.19974 0.99402 0.17747 0.0
C123 C 0.19731 0.02869 0.19009 0.0
C124 C 0.21479 0.02614 0.20307 0.0
H125 H 0.19339 0.98108 0.16827 0.0
H126 H 0.18871 0.04285 0.1916 0.0
H127 H 0.13824 0.98008 0.14713 0.0
H128 H 0.13343 0.96353 0.211 0.0
H129 H 0.17494 0.09366 0.14433 0.0
H130 H 0.22389 0.97525 0.19141 0.0
H131 H 0.21969 0.03871 0.2136 0.0
C132 C 0.00457 0.86535 0.83026 0.0
C133 C 0.0177 0.8794 0.82001 0.0
N134 N 0.03291 0.88591 0.83359 0.0
N135 N 0.01148 0.86292 0.85018 0.0
C136 C 0.02867 0.87574 0.85182 0.0
H137 H 0.99083 0.85739 0.82365 0.0
Co138 Co 0.99876 0.84549 0.8701 0.0
C139 C 0.0351 0.83098 0.89552 0.0
O140 O 0.02846 0.81151 0.89316 0.0
N141 N 0.98528 0.8278 0.8907 0.0
C142 C 0.97232 0.80052 0.90895 0.0
C143 C 0.98409 0.80661 0.89188 0.0
C144 C 0.97407 0.83403 0.90762 0.0
N145 N 0.96595 0.81781 0.91885 0.0
O146 O 0.98929 0.86997 0.88424 0.0
H147 H 0.99147 0.79585 0.88129 0.0
H148 H 0.97196 0.85019 0.91189 0.0
O149 O 0.02485 0.84579 0.88698 0.0
C150 C 0.97192 0.87462 0.87542 0.0
O151 O 0.96419 0.86217 0.86069 0.0
N152 N 0.00631 0.82242 0.85376 0.0
C153 C 0.01186 0.79385 0.82125 0.0
C154 C 0.0293 0.80414 0.83061 0.0
C155 C 0.02619 0.81852 0.84687 0.0
C156 C 0.98924 0.81296 0.84429 0.0
C157 C 0.99167 0.79813 0.82848 0.0
H158 H 0.03957 0.82746 0.85291 0.0
H159 H 0.97354 0.81741 0.84873 0.0
H160 H 0.03804 0.87741 0.86603 0.0
H161 H 0.01594 0.88461 0.80389 0.0
H162 H 0.96845 0.78453 0.91341 0.0
H163 H 0.04508 0.8017 0.82484 0.0
H164 H 0.97783 0.79106 0.82107 0.0
C165 C 0.18897 0.00179 0.85877 0.0
C166 C 0.1979 0.98907 0.87372 0.0
N167 N 0.18258 0.97683 0.88235 0.0
N168 N 0.16812 0.9975 0.85775 0.0
C169 C 0.16468 0.98234 0.87237 0.0
H170 H 0.197 0.01386 0.84967 0.0
Co171 Co 0.14781 0.01214 0.84266 0.0
C172 C 0.12288 0.97463 0.82675 0.0
O173 O 0.12819 0.97782 0.80706 0.0
N174 N 0.12629 0.02703 0.82805 0.0
C175 C 0.10364 0.03832 0.80379 0.0
C176 C 0.11961 0.02475 0.80788 0.0
C177 C 0.11378 0.04215 0.83579 0.0
N178 N 0.09996 0.0493 0.82139 0.0
O179 O 0.13565 0.01926 0.8689 0.0
H180 H 0.12622 0.01436 0.79645 0.0
H181 H 0.11488 0.04827 0.85158 0.0
O182 O 0.13004 0.9868 0.8412 0.0
C183 C 0.1464 0.03552 0.87426 0.0
O184 O 0.16033 0.04342 0.86105 0.0
N185 N 0.1625 0.00724 0.81722 0.0
C186 C 0.19185 0.00697 0.78411 0.0
C187 C 0.18632 0.98845 0.79515 0.0
C188 C 0.17171 0.98894 0.8117 0.0
C189 C 0.16805 0.02535 0.80701 0.0
C190 C 0.18198 0.02545 0.7901 0.0
H191 H 0.16861 0.97486 0.82077 0.0
H192 H 0.16204 0.04011 0.81236 0.0
H193 H 0.14922 0.9758 0.8759 0.0
H194 H 0.21434 0.98937 0.87833 0.0
H195 H 0.09545 0.04001 0.7889 0.0
H196 H 0.19386 0.97383 0.79177 0.0
H197 H 0.18523 0.04017 0.78218 0.0
C198 C 0.97387 0.15712 0.82011 0.0
C199 C 0.95985 0.1415 0.81409 0.0
N200 N 0.95449 0.13023 0.83128 0.0
N201 N 0.97721 0.15587 0.84106 0.0
C202 C 0.96517 0.13934 0.84743 0.0
H203 H 0.98178 0.16806 0.80965 0.0
Co204 Co 0.99716 0.17093 0.85688 0.0
C205 C 0.97462 0.18382 0.89553 0.0
O206 O 0.98529 0.20169 0.89515 0.0
N207 N 0.01795 0.18581 0.87308 0.0
C208 C 0.04111 0.20921 0.88632 0.0
C209 C 0.0257 0.20569 0.87135 0.0
C210 C 0.02902 0.17774 0.88939 0.0
N211 N 0.04325 0.19155 0.8976 0.0
O212 O 0.00968 0.14483 0.86483 0.0
H213 H 0.02066 0.21725 0.86014 0.0
H214 H 0.0266 0.162 0.89535 0.0
O215 O 0.97778 0.17016 0.8812 0.0
C216 C 0.02245 0.14108 0.8499 0.0
O217 O 0.0241 0.15487 0.83457 0.0
N218 N 0.98637 0.19593 0.84597 0.0
C219 C 0.97442 0.22896 0.82005 0.0
C220 C 0.96161 0.2225 0.83694 0.0
C221 C 0.96764 0.20544 0.84949 0.0
C222 C 0.99874 0.20209 0.82951 0.0
C223 C 0.99315 0.21854 0.81646 0.0
H224 H 0.95691 0.19956 0.86133 0.0
H225 H 0.01305 0.19385 0.82631 0.0
H226 H 0.96526 0.13334 0.86338 0.0
H227 H 0.95449 0.13835 0.79817 0.0
H228 H 0.05038 0.22352 0.88837 0.0
H229 H 0.94682 0.23003 0.83988 0.0
H230 H 0.00342 0.22307 0.80358 0.0
C231 C 0.80764 0.02434 0.87903 0.0
C232 C 0.80078 0.03895 0.8932 0.0
N233 N 0.81755 0.04643 0.90426 0.0
N234 N 0.82869 0.02269 0.88102 0.0
C235 C 0.83425 0.0364 0.8964 0.0
H236 H 0.7978 0.01497 0.86855 0.0
Co237 Co 0.84634 0.00334 0.86849 0.0
C238 C 0.88012 0.02995 0.84982 0.0
O239 O 0.87981 0.0182 0.83287 0.0
N240 N 0.86497 0.98353 0.85623 0.0
C241 C 0.88255 0.96322 0.83414 0.0
C242 C 0.86559 0.97588 0.83632 0.0
C243 C 0.88195 0.97489 0.86576 0.0
N244 N 0.89286 0.96263 0.85263 0.0
O245 O 0.857 0.99674 0.89571 0.0
H246 H 0.85534 0.97996 0.82346 0.0
H247 H 0.88685 0.97809 0.88179 0.0
O248 O 0.86753 0.02569 0.86492 0.0
C249 C 0.84336 0.98407 0.90352 0.0
O250 O 0.82676 0.97855 0.89218 0.0
N251 N 0.83322 0.00829 0.84247 0.0
C252 C 0.80836 0.00977 0.80591 0.0
C253 C 0.82049 0.02739 0.8126 0.0
C254 C 0.83274 0.02638 0.83103 0.0
C255 C 0.82032 0.99175 0.8372 0.0
C256 C 0.8085 0.99181 0.81869 0.0
H257 H 0.84127 0.04024 0.83636 0.0
H258 H 0.81993 0.97796 0.84713 0.0
H259 H 0.85014 0.03801 0.90259 0.0
H260 H 0.78458 0.04328 0.89549 0.0
H261 H 0.88712 0.95526 0.8199 0.0
H262 H 0.82023 0.04203 0.804 0.0
H263 H 0.79982 0.97763 0.8145 0.0
C264 C 0.19323 0.14326 0.97058 0.0
C265 C 0.19056 0.12824 0.95517 0.0
N266 N 0.16975 0.12551 0.95166 0.0
N267 N 0.17411 0.14968 0.97673 0.0
C268 C 0.16016 0.13866 0.96477 0.0
H269 H 0.20803 0.14801 0.97784 0.0
Co270 Co 0.16742 0.16488 1.00049 0.0
C271 C 0.13274 0.19209 0.98582 0.0
O272 O 0.1398 0.20779 0.99746 0.0
N273 N 0.16006 0.17935 0.02497 0.0
C274 C 0.15987 0.18973 0.05842 0.0
C275 C 0.17217 0.18718 0.04081 0.0
C276 C 0.14056 0.17752 0.03334 0.0
N277 N 0.14001 0.18348 0.05363 0.0
O278 O 0.1522 0.14127 0.01136 0.0
H279 H 0.18909 0.18917 0.04046 0.0
H280 H 0.12739 0.16985 0.02534 0.0
O281 O 0.14248 0.17483 0.98582 0.0
C282 C 0.16567 0.12924 0.0196 0.0
O283 O 0.18576 0.13327 0.01618 0.0
N284 N 0.18473 0.18701 0.99104 0.0
C285 C 0.21854 0.21292 0.9791 0.0
C286 C 0.19894 0.21442 0.96892 0.0
C287 C 0.18224 0.20082 0.97478 0.0
C288 C 0.20378 0.18538 1.00079 0.0
C289 C 0.22081 0.19818 0.99518 0.0
H290 H 0.16782 0.20096 0.96573 0.0
H291 H 0.20596 0.17336 0.01256 0.0
H292 H 0.14326 0.13894 0.96687 0.0
H293 H 0.20282 0.11942 0.94775 0.0
H294 H 0.16537 0.19462 0.07386 0.0
H295 H 0.19681 0.22543 0.95614 0.0
H296 H 0.23571 0.19649 0.00335 0.0
C297 C 0.21252 0.88414 0.02621 0.0
C298 C 0.21481 0.89924 0.04148 0.0
N299 N 0.1955 0.90492 0.04769 0.0
N300 N 0.19184 0.88003 0.02289 0.0
C301 C 0.18183 0.89296 0.03617 0.0
H302 H 0.22517 0.87705 0.01768 0.0
Co303 Co 0.18062 0.8624 1.0021 0.0
C304 C 0.14566 0.83842 0.02224 0.0
O305 O 0.1518 0.82213 0.01145 0.0
N306 N 0.16903 0.84519 0.98039 0.0
C307 C 0.16253 0.82185 0.95498 0.0
C308 C 0.17729 0.82942 0.96916 0.0
C309 C 0.14936 0.84714 0.97224 0.0
N310 N 0.14496 0.83302 0.95695 0.0
O311 O 0.1674 0.88612 0.98896 0.0
H312 H 0.19295 0.8235 0.97088 0.0
H313 H 0.13818 0.85832 0.97794 0.0
O314 O 0.15576 0.85596 0.02027 0.0
C315 C 0.18118 0.89306 0.97591 0.0
O316 O 0.19947 0.88384 0.9756 0.0
N317 N 0.19646 0.84011 0.01346 0.0
C318 C 0.22714 0.81189 0.02645 0.0
C319 C 0.20891 0.81471 0.03848 0.0
C320 C 0.194 0.82942 0.03203 0.0
C321 C 0.21445 0.83794 1.00213 0.0
C322 C 0.22981 0.82388 0.00817 0.0
H323 H 0.18102 0.83255 0.04233 0.0
H324 H 0.21701 0.84748 0.98826 0.0
H325 H 0.16487 0.8942 0.03672 0.0
H326 H 0.22964 0.90567 0.04737 0.0
H327 H 0.16463 0.80915 0.94397 0.0
H328 H 0.20659 0.80618 0.05307 0.0
H329 H 0.2437 0.82238 0.9985 0.0
C330 C 0.86065 0.19816 0.00629 0.0
C331 C 0.87428 0.20591 0.99122 0.0
N332 N 0.88521 0.18988 0.98331 0.0
N333 N 0.8628 0.17728 0.00783 0.0
C334 C 0.87785 0.17269 0.99362 0.0
H335 H 0.85027 0.20725 0.01592 0.0
Co336 Co 0.85026 0.15912 0.02762 0.0
C337 C 0.8333 0.12485 1.00101 0.0
O338 O 0.81551 0.1259 0.01133 0.0
N339 N 0.83825 0.13978 0.04813 0.0
C340 C 0.81739 0.1207 0.0695 0.0
C341 C 0.81814 0.13647 0.05469 0.0
C342 C 0.84924 0.12551 0.05942 0.0
N343 N 0.83703 0.1139 0.07255 0.0
O344 O 0.87791 0.1517 0.03669 0.0
H345 H 0.80449 0.1444 0.04879 0.0
H346 H 0.86595 0.12312 0.05786 0.0
O347 O 0.84875 0.13714 0.00601 0.0
C348 C 0.88091 0.16542 0.05112 0.0
O349 O 0.86611 0.17917 0.05409 0.0
N350 N 0.82363 0.16995 0.02062 0.0
C351 C 0.79112 0.19814 0.01365 0.0
C352 C 0.79901 0.18612 0.99702 0.0
C353 C 0.81539 0.17212 1.00081 0.0
C354 C 0.81614 0.18164 0.03679 0.0
C355 C 0.79961 0.19532 0.03381 0.0
H356 H 0.82246 0.16432 0.98761 0.0
H357 H 0.82373 0.18103 0.05207 0.0
H358 H 0.88406 0.15718 0.9917 0.0
H359 H 0.87622 0.22219 0.98674 0.0
H360 H 0.80344 0.11478 0.07748 0.0
H361 H 0.79321 0.18819 0.9811 0.0
H362 H 0.79455 0.20472 0.04695 0.0
C363 C 0.8153 0.88021 0.0132 0.0
C364 C 0.81484 0.89697 0.99947 0.0
N365 N 0.83465 0.901 0.99281 0.0
N366 N 0.8353 0.87377 0.01498 0.0
C367 C 0.84668 0.88687 0.00258 0.0
H368 H 0.802 0.87326 0.02143 0.0
Co369 Co 0.84619 0.85314 0.03198 0.0
C370 C 0.87919 0.83348 0.00659 0.0
O371 O 0.87341 0.81503 0.01407 0.0
N372 N 0.85813 0.83268 0.04974 0.0
C373 C 0.8669 0.80638 0.07097 0.0
C374 C 0.85105 0.81462 0.05869 0.0
C375 C 0.87813 0.83499 0.05695 0.0
N376 N 0.88383 0.81942 0.0699 0.0
O377 O 0.86132 0.87447 0.04733 0.0
H378 H 0.83548 0.80774 0.05671 0.0
H379 H 0.88862 0.8478 0.05241 0.0
O380 O 0.86947 0.84982 0.01226 0.0
C381 C 0.8507 0.87754 0.06394 0.0
O382 O 0.83314 0.86655 0.06667 0.0
N383 N 0.82892 0.8332 0.0181 0.0
C384 C 0.79491 0.81045 1.00077 0.0
C385 C 0.8127 0.81543 0.98854 0.0
C386 C 0.82941 0.82734 0.99739 0.0
C387 C 0.81168 0.82852 0.03001 0.0
C388 C 0.79467 0.81701 0.0218 0.0
H389 H 0.84204 0.83268 0.98727 0.0
H390 H 0.81084 0.83447 0.04591 0.0
H391 H 0.86363 0.88648 1.00115 0.0
H392 H 0.801 0.90531 0.99453 0.0
H393 H 0.86589 0.79218 0.08028 0.0
H394 H 0.81322 0.81105 0.97209 0.0
H395 H 0.78124 0.81356 0.03178 0.0
C396 C 0.98981 0.71006 0.65242 0.0
C397 C 0.974 0.71349 0.63803 0.0
N398 N 0.9715 0.69623 0.62598 0.0
N399 N 0.99721 0.69066 0.64954 0.0
C400 C 0.98555 0.68254 0.63349 0.0
H401 H 0.99631 0.72151 0.66333 0.0
Co402 Co 0.02149 0.67919 0.66092 0.0
C403 C 0.00651 0.64001 0.68118 0.0
O404 O 0.02078 0.64291 0.69604 0.0
N405 N 0.04643 0.6672 0.67151 0.0
C406 C 0.07832 0.66161 0.68491 0.0
C407 C 0.06161 0.67483 0.68468 0.0
C408 C 0.05449 0.6492 0.66404 0.0
N409 N 0.07386 0.64557 0.67182 0.0
O410 O 0.02967 0.67049 0.63344 0.0
H411 H 0.06145 0.68943 0.69309 0.0
H412 H 0.04669 0.6394 0.65233 0.0
O413 O 0.00538 0.65316 0.66603 0.0
C414 C 0.03866 0.68644 0.62496 0.0
O415 O 0.03833 0.70437 0.63509 0.0
N416 N 0.01477 0.69034 0.68741 0.0
C417 C 0.00971 0.71361 0.72437 0.0
C418 C 0.99609 0.69646 0.71956 0.0
C419 C 0.99877 0.68511 0.70086 0.0
C420 C 0.0268 0.7079 0.69098 0.0
C421 C 0.0252 0.71916 0.70956 0.0
H422 H 0.98762 0.67264 0.69705 0.0
H423 H 0.03817 0.71298 0.6793 0.0
H424 H 0.98851 0.66754 0.6263 0.0
H425 H 0.96574 0.72798 0.63589 0.0
H426 H 0.09288 0.6639 0.69366 0.0
H427 H 0.9832 0.69205 0.72986 0.0
H428 H 0.03634 0.73199 0.71216 0.0
C429 C 0.87966 0.5493 0.70866 0.0
C430 C 0.89574 0.56405 0.71037 0.0
N431 N 0.90244 0.56895 0.69086 0.0
N432 N 0.87616 0.5449 0.68811 0.0
C433 C 0.8903 0.5572 0.6777 0.0
H434 H 0.87195 0.54157 0.72173 0.0
Co435 Co 0.8594 0.52342 0.67591 0.0
C436 C 0.84079 0.54421 0.63745 0.0
O437 O 0.82378 0.53207 0.63718 0.0
N438 N 0.84313 0.50168 0.66331 0.0
C439 C 0.81936 0.47639 0.65647 0.0
C440 C 0.82543 0.49184 0.67036 0.0
C441 C 0.84755 0.49165 0.64512 0.0
N442 N 0.8333 0.47625 0.64061 0.0
O443 O 0.88417 0.51233 0.66326 0.0
H444 H 0.81727 0.49529 0.68473 0.0
H445 H 0.86083 0.49571 0.63519 0.0
O446 O 0.85474 0.54192 0.6518 0.0
C447 C 0.89294 0.50194 0.67792 0.0
O448 O 0.88444 0.50201 0.69673 0.0
N449 N 0.83577 0.53238 0.69097 0.0
C450 C 0.80241 0.53513 0.7193 0.0
C451 C 0.80203 0.54617 0.70011 0.0
C452 C 0.81917 0.54482 0.68614 0.0
C453 C 0.83627 0.52196 0.7097 0.0
C454 C 0.81996 0.52318 0.72403 0.0
H455 H 0.8188 0.55348 0.67157 0.0
H456 H 0.84919 0.5118 0.71318 0.0
H457 H 0.89265 0.55651 0.66086 0.0
H458 H 0.9024 0.57024 0.72488 0.0
H459 H 0.80597 0.46572 0.65819 0.0
H460 H 0.78877 0.55576 0.69605 0.0
H461 H 0.82082 0.51428 0.73855 0.0
C462 C 0.98389 0.38495 0.71862 0.0
C463 C 0.97178 0.40229 0.72105 0.0
N464 N 0.96932 0.41136 0.70205 0.0
N465 N 0.98892 0.38295 0.69813 0.0
C466 C 0.97969 0.39923 0.6884 0.0
H467 H 0.9896 0.37522 0.73125 0.0
Co468 Co 0.00856 0.3651 0.68666 0.0
C469 C 0.98803 0.34762 0.64814 0.0
O470 O 0.99811 0.33005 0.65057 0.0
N471 N 0.02903 0.34756 0.67474 0.0
C472 C 0.05132 0.32216 0.6677 0.0
C473 C 0.03541 0.32836 0.68064 0.0
C474 C 0.0414 0.3525 0.65799 0.0
N475 N 0.05522 0.33742 0.6535 0.0
O476 O 0.02337 0.38895 0.6754 0.0
H477 H 0.02903 0.31907 0.69338 0.0
H478 H 0.04052 0.36705 0.64936 0.0
O479 O 0.99091 0.36249 0.66138 0.0
C480 C 0.0348 0.39664 0.69017 0.0
O481 O 0.03376 0.38784 0.70888 0.0
N482 N 0.99507 0.34228 0.70033 0.0
C483 C 0.97953 0.31145 0.72779 0.0
C484 C 0.96891 0.31578 0.70886 0.0
C485 C 0.97667 0.33172 0.69552 0.0
C486 C 0.00517 0.33852 0.71892 0.0
C487 C 0.99774 0.32322 0.73282 0.0
H488 H 0.96761 0.33568 0.68174 0.0
H489 H 0.01928 0.34753 0.7229 0.0
H490 H 0.98182 0.40296 0.6719 0.0
H491 H 0.96589 0.40821 0.7358 0.0
H492 H 0.05931 0.3074 0.66868 0.0
H493 H 0.95456 0.30722 0.70466 0.0
H494 H 0.00646 0.32033 0.74721 0.0
C495 C 0.15344 0.50372 0.70749 0.0
C496 C 0.13761 0.49091 0.71528 0.0
N497 N 0.12662 0.48253 0.69893 0.0
N498 N 0.1527 0.50322 0.68631 0.0
C499 C 0.13622 0.49031 0.68155 0.0
H500 H 0.1646 0.51302 0.71667 0.0
Co501 Co 0.169 0.51874 0.66746 0.0
C502 C 0.18509 0.4858 0.63933 0.0
O503 O 0.20431 0.49323 0.64229 0.0
N504 N 0.18536 0.53499 0.64765 0.0
C505 C 0.21135 0.55163 0.63034 0.0
C506 C 0.20657 0.53699 0.64548 0.0
C507 C 0.17781 0.54853 0.63309 0.0
N508 N 0.19321 0.55892 0.62264 0.0
O509 O 0.14359 0.52831 0.65467 0.0
H510 H 0.21821 0.52868 0.65446 0.0
H511 H 0.16134 0.55158 0.63056 0.0
O512 O 0.16968 0.49435 0.64861 0.0
C513 C 0.13941 0.54421 0.66591 0.0
O514 O 0.15192 0.54884 0.68191 0.0
N515 N 0.19324 0.51154 0.68265 0.0
C516 C 0.2255 0.5074 0.71256 0.0
C517 C 0.21573 0.48961 0.7032 0.0
C518 C 0.19951 0.49201 0.68831 0.0
C519 C 0.20194 0.52881 0.69218 0.0
C520 C 0.21855 0.52719 0.70636 0.0
H521 H 0.19131 0.47827 0.68218 0.0
H522 H 0.19591 0.54412 0.68861 0.0
H523 H 0.131 0.48734 0.66557 0.0
H524 H 0.13453 0.48814 0.73179 0.0
H525 H 0.227 0.55686 0.62567 0.0
H526 H 0.2199 0.47394 0.7079 0.0
H527 H 0.22559 0.54151 0.71256 0.0
C528 C 0.02882 0.36574 0.32863 0.0
C529 C 0.04397 0.38038 0.32324 0.0
N530 N 0.05069 0.39026 0.34085 0.0
N531 N 0.02604 0.36596 0.34967 0.0
C532 C 0.03966 0.38111 0.35674 0.0
H533 H 0.01978 0.35625 0.31763 0.0
Co534 Co 0.00453 0.35114 0.36384 0.0
C535 C 0.02472 0.32871 0.39879 0.0
O536 O 0.01204 0.31276 0.39426 0.0
N537 N 0.98208 0.33684 0.37828 0.0
C538 C 0.95608 0.31518 0.38879 0.0
C539 C 0.96998 0.31987 0.3729 0.0
C540 C 0.97472 0.34229 0.39751 0.0
N541 N 0.95904 0.32933 0.40419 0.0
O542 O 0.99574 0.37669 0.37645 0.0
H543 H 0.9711 0.31084 0.35869 0.0
H544 H 0.98123 0.35508 0.40684 0.0
O545 O 0.02401 0.34539 0.38756 0.0
C546 C 0.98208 0.38384 0.3637 0.0
O547 O 0.97884 0.37402 0.34577 0.0
N548 N 0.01163 0.32665 0.349 0.0
C549 C 0.01765 0.29421 0.32021 0.0
C550 C 0.03221 0.29802 0.33663 0.0
C551 C 0.02918 0.31472 0.35063 0.0
C552 C 0.99793 0.32358 0.33263 0.0
C553 C 1.00038 0.30733 0.31838 0.0
H554 H 0.04122 0.31832 0.36223 0.0
H555 H 0.98482 0.33394 0.33069 0.0
H556 H 0.04055 0.38615 0.37299 0.0
H557 H 0.0492 0.38389 0.3074 0.0
H558 H 0.9447 0.30227 0.38908 0.0
H559 H 0.04616 0.28869 0.33817 0.0
H560 H 0.98877 0.30511 0.30595 0.0
C561 C 0.21254 0.47387 0.37962 0.0
C562 C 0.21823 0.45754 0.3925 0.0
N563 N 0.20151 0.45186 0.40443 0.0
N564 N 0.19224 0.47836 0.38324 0.0
C565 C 0.18594 0.46459 0.39826 0.0
H566 H 0.22287 0.48269 0.36921 0.0
Co567 Co 0.17715 0.50177 0.37457 0.0
C568 C 0.14083 0.4782 0.35486 0.0
O569 O 0.1439 0.48779 0.33676 0.0
N570 N 0.16182 0.52571 0.36728 0.0
C571 C 0.15373 0.55943 0.36995 0.0
C572 C 0.16943 0.5451 0.37205 0.0
C573 C 0.14121 0.52873 0.3627 0.0
N574 N 0.13601 0.54906 0.36405 0.0
O575 O 0.16964 0.50722 0.40312 0.0
H576 H 0.1852 0.54841 0.37789 0.0
H577 H 0.12961 0.51639 0.36016 0.0
O578 O 0.15242 0.48306 0.37073 0.0
C579 C 0.18547 0.51408 0.41374 0.0
O580 O 0.20427 0.5135 0.40524 0.0
N581 N 0.18676 0.49823 0.34641 0.0
C582 C 0.21171 0.49496 0.31029 0.0
C583 C 0.20094 0.47731 0.31853 0.0
C584 C 0.18846 0.47928 0.33659 0.0
C585 C 0.1968 0.51551 0.33817 0.0
C586 C 0.2089 0.51432 0.31999 0.0
H587 H 0.18142 0.46532 0.34352 0.0
H588 H 0.19697 0.53017 0.34648 0.0
H589 H 0.17072 0.46517 0.40579 0.0
H590 H 0.23378 0.45104 0.3936 0.0
H591 H 0.15508 0.57608 0.37304 0.0
H592 H 0.2029 0.46198 0.31164 0.0
H593 H 0.21741 0.52821 0.31459 0.0
C594 C 0.98943 0.63109 0.31481 0.0
C595 C 0.97404 0.61567 0.31361 0.0
N596 N 0.96773 0.61094 0.3333 0.0
N597 N 0.99279 0.63625 0.33516 0.0
C598 C 0.97928 0.62371 0.34609 0.0
H599 H 0.99823 0.63741 0.30166 0.0
Co600 Co 0.01431 0.65407 0.34516 0.0
C601 C 0.99557 0.67895 0.37964 0.0
O602 O 0.00756 0.69502 0.37396 0.0
N603 N 0.03671 0.67154 0.35534 0.0
C604 C 0.06235 0.69564 0.35984 0.0
C605 C 0.04736 0.68769 0.34612 0.0
C606 C 0.04597 0.66983 0.37457 0.0
N607 N 0.06146 0.68435 0.3777 0.0
O608 O 0.02596 0.63134 0.36087 0.0
H609 H 0.04462 0.69369 0.33051 0.0
H610 H 0.04093 0.65861 0.3864 0.0
O611 O 0.99635 0.6618 0.36926 0.0
C612 C 0.03635 0.61907 0.34924 0.0
O613 O 0.03562 0.62176 0.32873 0.0
N614 N 0.00417 0.67564 0.32762 0.0
C615 C 0.99532 0.70573 0.29698 0.0
C616 C 0.98334 0.70427 0.31548 0.0
C617 C 0.98764 0.68867 0.33041 0.0
C618 C 0.01503 0.67612 0.30916 0.0
C619 C 0.01097 0.69103 0.29371 0.0
H620 H 0.9776 0.68718 0.34397 0.0
H621 H 0.02751 0.66514 0.30674 0.0
H622 H 0.97874 0.62316 0.36312 0.0
H623 H 0.96824 0.6082 0.29935 0.0
H624 H 0.07318 0.70864 0.35685 0.0
H625 H 0.97071 0.71501 0.3183 0.0
H626 H 0.02055 0.69153 0.27965 0.0
C627 C 0.81742 0.53488 0.37395 0.0
C628 C 0.8155 0.55248 0.38615 0.0
N629 N 0.8342 0.55671 0.39553 0.0
N630 N 0.8373 0.52799 0.37554 0.0
C631 C 0.84719 0.54177 0.38868 0.0
H632 H 0.80469 0.527 0.36556 0.0
Co633 Co 0.84776 0.50241 0.36628 0.0
C634 C 0.88737 0.51414 0.34398 0.0
O635 O 0.88464 0.49852 0.33072 0.0
N636 N 0.85852 0.4764 0.35788 0.0
C637 C 0.86191 0.44345 0.34732 0.0
C638 C 0.84927 0.4606 0.3468 0.0
C639 C 0.87681 0.46828 0.36499 0.0
N640 N 0.87919 0.44826 0.35888 0.0
O641 O 0.85859 0.49708 0.39383 0.0
H642 H 0.83398 0.46086 0.33936 0.0
H643 H 0.88783 0.47668 0.37516 0.0
O644 O 0.87377 0.51713 0.35834 0.0
C645 C 0.84364 0.49053 0.40558 0.0
O646 O 0.82424 0.49145 0.39835 0.0
N647 N 0.83482 0.50636 0.33976 0.0
C648 C 0.80811 0.5083 0.30465 0.0
C649 C 0.82761 0.51921 0.30483 0.0
C650 C 0.84065 0.51838 0.32282 0.0
C651 C 0.81575 0.49611 0.33981 0.0
C652 C 0.80231 0.49667 0.32247 0.0
H653 H 0.85494 0.52783 0.32316 0.0
H654 H 0.81094 0.48738 0.35366 0.0
H655 H 0.86315 0.53993 0.39438 0.0
H656 H 0.80118 0.56099 0.38865 0.0
H657 H 0.85846 0.42845 0.33998 0.0
H658 H 0.83235 0.52885 0.29156 0.0
H659 H 0.78736 0.48814 0.32309 0.0
C660 C 0.20489 0.64566 0.49069 0.0
C661 C 0.20713 0.62698 0.48016 0.0
N662 N 0.18789 0.62019 0.47367 0.0
N663 N 0.18435 0.65056 0.49066 0.0
C664 C 0.17446 0.63477 0.4802 0.0
H665 H 0.21725 0.65441 0.49882 0.0
Co666 Co 0.17085 0.67052 0.50633 0.0
C667 C 0.13634 0.68526 0.47857 0.0
O668 O 0.139 0.70439 0.48589 0.0
N669 N 0.15647 0.69013 0.52268 0.0
C670 C 0.14632 0.71624 0.54313 0.0
C671 C 0.16232 0.70898 0.53075 0.0
C672 C 0.13693 0.68639 0.53039 0.0
N673 N 0.13042 0.70188 0.54296 0.0
O674 O 0.15767 0.64809 0.52205 0.0
H675 H 0.17733 0.71689 0.52838 0.0
H676 H 0.12761 0.67241 0.52689 0.0
O677 O 0.14803 0.67065 0.48536 0.0
C678 C 0.17002 0.64664 0.53789 0.0
O679 O 0.18543 0.66063 0.53971 0.0
N680 N 0.18674 0.69176 0.49281 0.0
C681 C 0.21804 0.72026 0.4798 0.0
C682 C 0.20073 0.71547 0.46661 0.0
C683 C 0.18541 0.70057 0.47321 0.0
C684 C 0.20375 0.69609 0.50537 0.0
C685 C 0.21945 0.71023 0.49927 0.0
H686 H 0.17296 0.69599 0.46241 0.0
H687 H 0.20516 0.68847 0.52046 0.0
H688 H 0.1575 0.63313 0.47878 0.0
H689 H 0.22167 0.61874 0.478 0.0
H690 H 0.14674 0.73056 0.55223 0.0
H691 H 0.19935 0.72277 0.45127 0.0
H692 H 0.2325 0.71356 0.50993 0.0
C693 C 0.13904 0.30941 0.50599 0.0
C694 C 0.12397 0.30648 0.4905 0.0
N695 N 0.11816 0.32541 0.48337 0.0
N696 N 0.14282 0.3301 0.50858 0.0
C697 C 0.1298 0.33943 0.49467 0.0
H698 H 0.14659 0.29725 0.51493 0.0
Co699 Co 0.16096 0.3431 0.52803 0.0
C700 C 0.18142 0.3777 0.50379 0.0
O701 O 0.19918 0.37471 0.51398 0.0
N702 N 0.17891 0.35693 0.54807 0.0
C703 C 0.20399 0.36653 0.57109 0.0
C704 C 0.19686 0.35095 0.55779 0.0
C705 C 0.17549 0.37623 0.55611 0.0
N706 N 0.19051 0.3824 0.57006 0.0
O707 O 0.13713 0.35585 0.54099 0.0
H708 H 0.20472 0.33639 0.5556 0.0
H709 H 0.16246 0.38586 0.55142 0.0
O710 O 0.16513 0.36639 0.50819 0.0
C711 C 0.13264 0.34288 0.55572 0.0
O712 O 0.14347 0.32564 0.55687 0.0
N713 N 0.18351 0.32787 0.51707 0.0
C714 C 0.21515 0.3 0.50728 0.0
C715 C 0.20971 0.31582 0.493 0.0
C716 C 0.19357 0.32959 0.49813 0.0
C717 C 0.18748 0.31136 0.53002 0.0
C718 C 0.20361 0.29766 0.52578 0.0
H719 H 0.18899 0.34119 0.48672 0.0
H720 H 0.17843 0.30922 0.54425 0.0
H721 H 0.12841 0.35622 0.49331 0.0
H722 H 0.11785 0.29152 0.48489 0.0
H723 H 0.21796 0.36613 0.58093 0.0
H724 H 0.21779 0.31744 0.47809 0.0
H725 H 0.20685 0.28513 0.53678 0.0
C726 C 0.87973 0.7042 0.48138 0.0
C727 C 0.89446 0.70554 0.46563 0.0
N728 N 0.90063 0.68605 0.46095 0.0
N729 N 0.87638 0.68393 0.48662 0.0
C730 C 0.88935 0.67323 0.47385 0.0
H731 H 0.87255 0.71733 0.48899 0.0
Co732 Co 0.85993 0.67357 0.50905 0.0
C733 C 0.83608 0.6372 0.49126 0.0
O734 O 0.81999 0.64175 0.5032 0.0
N735 N 0.84386 0.66265 0.53207 0.0
C736 C 0.81991 0.65614 0.55697 0.0
C737 C 0.82651 0.66999 0.54162 0.0
C738 C 0.8476 0.64442 0.54236 0.0
N739 N 0.83321 0.64008 0.55743 0.0
O740 O 0.88447 0.66103 0.52102 0.0
H741 H 0.81855 0.68418 0.53762 0.0
H742 H 0.86016 0.63403 0.5383 0.0
O743 O 0.85288 0.64864 0.4921 0.0
C744 C 0.89302 0.67623 0.53125 0.0
O745 O 0.88438 0.69468 0.52986 0.0
N746 N 0.83682 0.68885 0.49883 0.0
C747 C 0.80704 0.71892 0.48883 0.0
C748 C 0.80774 0.70011 0.47742 0.0
C749 C 0.82323 0.68541 0.48232 0.0
C750 C 0.83646 0.70729 0.50961 0.0
C751 C 0.82179 0.72244 0.50493 0.0
H752 H 0.8244 0.67166 0.47259 0.0
H753 H 0.84769 0.71019 0.52218 0.0
H754 H 0.89124 0.65645 0.47474 0.0
H755 H 0.90042 0.71985 0.45843 0.0
H756 H 0.8063 0.65771 0.56699 0.0
H757 H 0.79678 0.69708 0.46458 0.0
H758 H 0.82179 0.73675 0.5141 0.0
C759 C 0.81492 0.37585 0.50822 0.0
C760 C 0.81007 0.39281 0.49599 0.0
N761 N 0.82815 0.40305 0.49089 0.0
N762 N 0.836 0.37519 0.51064 0.0
C763 C 0.84366 0.39195 0.49988 0.0
H764 H 0.80368 0.36524 0.51559 0.0
Co765 Co 0.85045 0.35763 0.5287 0.0
C766 C 0.88686 0.34288 0.50458 0.0
O767 O 0.8844 0.32458 0.51384 0.0
N768 N 0.86527 0.34033 0.54773 0.0
C769 C 0.87651 0.31503 0.56893 0.0
C770 C 0.86067 0.32102 0.55552 0.0
C771 C 0.88394 0.34571 0.55697 0.0
N772 N 0.8911 0.33062 0.56985 0.0
O773 O 0.86162 0.38184 0.54304 0.0
H774 H 0.84692 0.3115 0.55181 0.0
H775 H 0.89246 0.36027 0.55391 0.0
O776 O 0.87435 0.35766 0.50903 0.0
C777 C 0.84747 0.38702 0.55607 0.0
O778 O 0.83024 0.37522 0.55722 0.0
N779 N 0.83691 0.33442 0.51562 0.0
C780 C 0.80846 0.30456 0.49916 0.0
C781 C 0.82566 0.31183 0.4872 0.0
C782 C 0.83943 0.32728 0.49551 0.0
C783 C 0.81998 0.32776 0.52715 0.0
C784 C 0.8057 0.31277 0.51935 0.0
H785 H 0.85137 0.33399 0.48537 0.0
H786 H 0.81734 0.33454 0.54248 0.0
H787 H 0.86018 0.39656 0.49966 0.0
H788 H 0.79436 0.39743 0.49152 0.0
H789 H 0.87711 0.30042 0.57756 0.0
H790 H 0.82794 0.30623 0.4713 0.0
H791 H 0.79257 0.30766 0.52905 0.0
C792 C 0.49451 0.20795 0.6364 0.0
C793 C 0.4795 0.21415 0.62216 0.0
N794 N 0.47158 0.19702 0.61221 0.0
N795 N 0.49599 0.18695 0.63566 0.0
C796 C 0.48184 0.18072 0.62078 0.0
H797 H 0.50405 0.21817 0.64635 0.0
Co798 Co 0.51522 0.1707 0.65042 0.0
C799 C 0.48828 0.13769 0.66991 0.0
O800 O 0.49925 0.13991 0.68737 0.0
N801 N 0.53528 0.15369 0.66511 0.0
C802 C 0.55772 0.14073 0.68878 0.0
C803 C 0.54139 0.15406 0.68564 0.0
C804 C 0.54805 0.13927 0.65642 0.0
N805 N 0.56189 0.1315 0.67036 0.0
O806 O 0.52457 0.1594 0.62423 0.0
H807 H 0.53456 0.16326 0.69796 0.0
H808 H 0.54802 0.135 0.63997 0.0
O809 O 0.49314 0.14881 0.6538 0.0
C810 C 0.53914 0.17259 0.61914 0.0
O811 O 0.54149 0.18968 0.63051 0.0
N812 N 0.50815 0.18468 0.67531 0.0
C813 C 0.50343 0.21205 0.70895 0.0
C814 C 0.48637 0.19936 0.70207 0.0
C815 C 0.48902 0.18574 0.68498 0.0
C816 C 0.52432 0.19795 0.68111 0.0
C817 C 0.52252 0.21127 0.69825 0.0
H818 H 0.47561 0.17677 0.67909 0.0
H819 H 0.53891 0.19798 0.6724 0.0
H820 H 0.47976 0.16461 0.61574 0.0
H821 H 0.47497 0.23013 0.61925 0.0
H822 H 0.5662 0.1383 0.70339 0.0
H823 H 0.47112 0.20032 0.70953 0.0
H824 H 0.53573 0.22144 0.70265 0.0
C825 C 0.36108 0.04465 0.70477 0.0
C826 C 0.37532 0.06046 0.70999 0.0
N827 N 0.38714 0.06502 0.69292 0.0
N828 N 0.36386 0.0393 0.68447 0.0
C829 C 0.3797 0.05208 0.67767 0.0
H830 H 0.35009 0.03699 0.71539 0.0
Co831 Co 0.35199 0.01695 0.66915 0.0
C832 C 0.33487 0.03736 0.63074 0.0
O833 O 0.3183 0.02464 0.63106 0.0
N834 N 0.34058 0.99428 0.6529 0.0
C835 C 0.32069 0.96918 0.63768 0.0
C836 C 0.32164 0.98401 0.65337 0.0
C837 C 0.35069 0.98525 0.63662 0.0
N838 N 0.33906 0.96997 0.62731 0.0
O839 O 0.37974 0.00929 0.66057 0.0
H840 H 0.30881 0.98725 0.66383 0.0
H841 H 0.36606 0.99018 0.631 0.0
O842 O 0.349 0.03592 0.64507 0.0
C843 C 0.38776 0.99931 0.67594 0.0
O844 O 0.3772 0.99817 0.69367 0.0
N845 N 0.32538 0.02264 0.68049 0.0
C846 C 0.28872 0.02503 0.70456 0.0
C847 C 0.2937 0.04048 0.68939 0.0
C848 C 0.31228 0.03905 0.67749 0.0
C849 C 0.3213 0.00834 0.696 0.0
C850 C 0.30294 0.00893 0.70781 0.0
H851 H 0.31628 0.05131 0.66638 0.0
H852 H 0.33241 0.99607 0.69895 0.0
H853 H 0.38655 0.05092 0.66216 0.0
H854 H 0.3772 0.06757 0.72536 0.0
H855 H 0.30754 0.95861 0.63418 0.0
H856 H 0.28338 0.05351 0.68684 0.0
H857 H 0.30015 0.99712 0.7198 0.0
C858 C 0.48069 0.8822 0.71447 0.0
C859 C 0.46751 0.89859 0.71743 0.0
N860 N 0.46597 0.90926 0.69919 0.0
N861 N 0.48735 0.8822 0.69432 0.0
C862 C 0.4779 0.89882 0.68534 0.0
H863 H 0.48586 0.87172 0.72669 0.0
Co864 Co 0.50891 0.86606 0.68302 0.0
C865 C 0.48922 0.84282 0.64771 0.0
O866 O 0.50095 0.8269 0.65276 0.0
N867 N 0.53128 0.85039 0.67131 0.0
C868 C 0.55625 0.82733 0.66499 0.0
C869 C 0.53991 0.83232 0.67791 0.0
C870 C 0.54279 0.85581 0.65405 0.0
N871 N 0.55822 0.84218 0.65004 0.0
O872 O 0.52076 0.89078 0.67023 0.0
H873 H 0.53475 0.82283 0.691 0.0
H874 H 0.54017 0.86969 0.64472 0.0
O875 O 0.49087 0.85979 0.65838 0.0
C876 C 0.53073 0.90041 0.68494 0.0
O877 O 0.53025 0.89252 0.70405 0.0
N878 N 0.49852 0.84272 0.6984 0.0
C879 C 0.48557 0.8145 0.72974 0.0
C880 C 0.47336 0.8171 0.71144 0.0
C881 C 0.47986 0.83175 0.69611 0.0
C882 C 0.51031 0.84045 0.71625 0.0
C883 C 0.50429 0.82634 0.73193 0.0
H884 H 0.46939 0.83485 0.68309 0.0
H885 H 0.5244 0.85009 0.71845 0.0
H886 H 0.4809 0.90401 0.66937 0.0
H887 H 0.46019 0.90275 0.73215 0.0
H888 H 0.56584 0.81361 0.66644 0.0
H889 H 0.45852 0.80857 0.70944 0.0
H890 H 0.51419 0.82486 0.74579 0.0
C891 C 0.65029 1.00072 0.69666 0.0
C892 C 0.63346 0.98709 0.70007 0.0
N893 N 0.62823 0.9779 0.68159 0.0
N894 N 0.65556 1.0 0.67616 0.0
C895 C 0.64187 0.98598 0.66743 0.0
H896 H 0.65762 0.0111 0.70814 0.0
Co897 Co 0.67395 0.01744 0.66152 0.0
C898 C 0.69548 0.98969 0.63208 0.0
O899 O 0.71301 1.00023 0.63636 0.0
N900 N 0.69207 0.03548 0.64564 0.0
C901 C 0.71638 0.05749 0.63236 0.0
C902 C 0.71033 0.04615 0.64983 0.0
C903 C 0.68757 0.04068 0.62546 0.0
N904 N 0.70191 0.05408 0.61714 0.0
O905 O 0.65009 0.02844 0.64662 0.0
H906 H 0.719 0.04605 0.66446 0.0
H907 H 0.67401 0.0346 0.61683 0.0
O908 O 0.67827 0.99498 0.64082 0.0
C909 C 0.64659 0.04483 0.65743 0.0
O910 O 0.65876 0.04874 0.67385 0.0
N911 N 0.69614 0.0087 0.6789 0.0
C912 C 0.72551 0.00128 0.71071 0.0
C913 C 0.71868 0.98498 0.69731 0.0
C914 C 0.70372 0.98898 0.68149 0.0
C915 C 0.7015 0.02406 0.69295 0.0
C916 C 0.71662 0.02094 0.70847 0.0
H917 H 0.69777 0.97614 0.67194 0.0
H918 H 0.69401 0.03905 0.692 0.0
H919 H 0.64105 0.98271 0.65072 0.0
H920 H 0.62544 0.98446 0.71487 0.0
H921 H 0.73004 0.0679 0.63114 0.0
H922 H 0.72462 0.96933 0.69923 0.0
H923 H 0.72081 0.03364 0.71911 0.0
C924 C 0.53413 0.84878 0.32015 0.0
C925 C 0.54986 0.86214 0.31312 0.0
N926 N 0.55606 0.87467 0.32917 0.0
N927 N 0.53045 0.85262 0.34067 0.0
C928 C 0.54417 0.86841 0.34576 0.0
H929 H 0.52525 0.83771 0.31053 0.0
Co930 Co 0.50786 0.84181 0.35675 0.0
C931 C 0.52722 0.82237 0.39357 0.0
O932 O 0.51387 0.80659 0.39071 0.0
N933 N 0.48464 0.83162 0.37343 0.0
C934 C 0.45868 0.81315 0.38896 0.0
C935 C 0.47259 0.81378 0.37247 0.0
C936 C 0.47732 0.84154 0.39074 0.0
N937 N 0.46164 0.83066 0.40034 0.0
O938 O 0.50157 0.8696 0.3653 0.0
H939 H 0.47408 0.80126 0.3613 0.0
H940 H 0.48391 0.85609 0.39685 0.0
O941 O 0.52706 0.83792 0.38082 0.0
C942 C 0.49134 0.87712 0.34983 0.0
O943 O 0.48894 0.8656 0.33279 0.0
N944 N 0.51268 0.81509 0.34556 0.0
C945 C 0.51787 0.78063 0.31934 0.0
C946 C 0.5337 0.7866 0.33383 0.0
C947 C 0.53083 0.80404 0.34684 0.0
C948 C 0.4977 0.8099 0.33086 0.0
C949 C 0.49963 0.79236 0.31812 0.0
H950 H 0.54368 0.80937 0.35685 0.0
H951 H 0.48428 0.81983 0.32873 0.0
H952 H 0.54438 0.87613 0.36093 0.0
H953 H 0.55576 0.86301 0.29718 0.0
H954 H 0.44741 0.80065 0.3925 0.0
H955 H 0.5484 0.77836 0.33451 0.0
H956 H 0.48751 0.78876 0.30649 0.0
C957 C 0.70524 0.9771 0.38165 0.0
C958 C 0.70799 0.96246 0.39733 0.0
N959 N 0.68885 0.95566 0.40389 0.0
N960 N 0.68444 0.97949 0.37826 0.0
C961 C 0.67491 0.96626 0.39208 0.0
H962 H 0.71767 0.98574 0.37368 0.0
Co963 Co 0.6707 0.9983 0.36045 0.0
C964 C 0.63754 0.97134 0.3393 0.0
O965 O 0.6384 0.98225 0.32176 0.0
N966 N 0.6561 0.01736 0.34281 0.0
C967 C 0.64589 0.03859 0.31698 0.0
C968 C 0.66132 0.02544 0.32376 0.0
C969 C 0.63725 0.02598 0.34708 0.0
N970 N 0.63077 0.03895 0.33169 0.0
O971 O 0.65517 0.00829 0.38402 0.0
H972 H 0.67522 0.02201 0.31486 0.0
H973 H 0.62809 0.02251 0.36101 0.0
O974 O 0.6496 0.97633 0.35474 0.0
C975 C 0.66764 0.02209 0.39205 0.0
O976 O 0.68707 0.02339 0.38512 0.0
N977 N 0.68845 0.99102 0.33818 0.0
C978 C 0.71981 0.9911 0.30729 0.0
C979 C 0.70397 0.97519 0.30778 0.0
C980 C 0.68838 0.97532 0.32358 0.0
C981 C 0.7041 0.00598 0.33823 0.0
C982 C 0.71954 0.00655 0.32291 0.0
H983 H 0.67646 0.96299 0.32395 0.0
H984 H 0.704 0.01831 0.34983 0.0
H985 H 0.65801 0.96509 0.39407 0.0
H986 H 0.72294 0.95733 0.40349 0.0
H987 H 0.64594 0.0474 0.3024 0.0
H988 H 0.70369 0.96274 0.29622 0.0
H989 H 0.73085 0.01951 0.3231 0.0
C990 C 0.49225 0.13899 0.31176 0.0
C991 C 0.47611 0.12459 0.30835 0.0
N992 N 0.47055 0.11616 0.32704 0.0
N993 N 0.49678 0.13968 0.33253 0.0
C994 C 0.48336 0.12553 0.34137 0.0
H995 H 0.50051 0.1479 0.29976 0.0
Co996 Co 0.51822 0.1546 0.34644 0.0
C997 C 0.49792 0.1698 0.38581 0.0
O998 O 0.51011 0.18671 0.38626 0.0
N999 N 0.54008 0.16924 0.36098 0.0
C1000 C 0.56373 0.19253 0.3735 0.0
C1001 C 0.54921 0.18835 0.35775 0.0
C1002 C 0.5496 0.16213 0.37865 0.0
N1003 N 0.56393 0.17594 0.38653 0.0
O1004 O 0.52938 0.12865 0.35626 0.0
H1005 H 0.54542 0.19899 0.34514 0.0
H1006 H 0.54554 0.1474 0.38621 0.0
O1007 O 0.49983 0.15651 0.37097 0.0
C1008 C 0.54044 0.12115 0.3415 0.0
O1009 O 0.54104 0.13117 0.32341 0.0
N1010 N 0.5086 0.17949 0.33428 0.0
C1011 C 0.49935 0.21376 0.30884 0.0
C1012 C 0.48762 0.20957 0.32711 0.0
C1013 C 0.49218 0.19193 0.33945 0.0
C1014 C 0.51982 0.1833 0.31639 0.0
C1015 C 0.51546 0.20027 0.30345 0.0
H1016 H 0.48228 0.18826 0.35273 0.0
H1017 H 0.53239 0.17298 0.3122 0.0
H1018 H 0.48366 0.12143 0.3579 0.0
H1019 H 0.46919 0.12045 0.29325 0.0
H1020 H 0.57341 0.20663 0.37523 0.0
H1021 H 0.47483 0.21956 0.33152 0.0
H1022 H 0.52486 0.20301 0.28949 0.0
C1023 C 0.32187 0.01689 0.36426 0.0
C1024 C 0.31665 0.031 0.37953 0.0
N1025 N 0.33435 0.03698 0.39001 0.0
N1026 N 0.34284 0.01414 0.36478 0.0
C1027 C 0.35004 0.02661 0.3806 0.0
H1028 H 0.31093 0.00868 0.35389 0.0
Co1029 Co 0.35768 0.99452 0.34957 0.0
C1030 C 0.3911 0.01794 0.32792 0.0
O1031 O 0.38633 0.0064 0.31137 0.0
N1032 N 0.37335 0.97413 0.33482 0.0
C1033 C 0.38659 0.95037 0.3132 0.0
C1034 C 0.36941 0.96224 0.31749 0.0
C1035 C 0.39305 0.96878 0.34078 0.0
N1036 N 0.40139 0.95453 0.32789 0.0
O1037 O 0.36962 0.98452 0.37539 0.0
H1038 H 0.35529 0.96198 0.30804 0.0
H1039 H 0.40142 0.97563 0.35408 0.0
O1040 O 0.38071 0.01527 0.34501 0.0
C1041 C 0.35649 0.96967 0.37963 0.0
O1042 O 0.33991 0.96716 0.3673 0.0
N1043 N 0.3432 0.00248 0.32504 0.0
C1044 C 0.31543 0.00866 0.29131 0.0
C1045 C 0.32941 0.02484 0.29805 0.0
C1046 C 0.34307 0.0215 0.31516 0.0
C1047 C 0.32857 0.98745 0.31982 0.0
C1048 C 0.31538 0.98973 0.30256 0.0
H1049 H 0.353 0.03432 0.32077 0.0
H1050 H 0.3275 0.97315 0.32892 0.0
H1051 H 0.36633 0.02721 0.38576 0.0
H1052 H 0.3009 0.03618 0.38281 0.0
H1053 H 0.38799 0.9393 0.30041 0.0
H1054 H 0.32948 0.0401 0.2906 0.0
H1055 H 0.30534 0.97651 0.2982 0.0
C1056 C 0.70111 0.15268 0.46467 0.0
C1057 C 0.6997 0.1397 0.44737 0.0
N1058 N 0.68167 0.12825 0.44878 0.0
N1059 N 0.6839 0.14949 0.47676 0.0
C1060 C 0.67244 0.13447 0.46663 0.0
H1061 H 0.71397 0.16355 0.46815 0.0
Co1062 Co 0.67558 0.16175 0.50195 0.0
C1063 C 0.63536 0.18183 0.48938 0.0
O1064 O 0.6383 0.19736 0.50272 0.0
N1065 N 0.66626 0.1734 0.52731 0.0
C1066 C 0.66262 0.18951 0.55804 0.0
C1067 C 0.67538 0.18727 0.54079 0.0
C1068 C 0.64808 0.16737 0.53689 0.0
N1069 N 0.64543 0.17692 0.55557 0.0
O1070 O 0.66577 0.13502 0.51192 0.0
H1071 H 0.69045 0.19512 0.53866 0.0
H1072 H 0.63713 0.15583 0.53037 0.0
O1073 O 0.64883 0.16736 0.48831 0.0
C1074 C 0.68209 0.12599 0.51893 0.0
O1075 O 0.70059 0.13498 0.51542 0.0
N1076 N 0.68807 0.18737 0.49352 0.0
C1077 C 0.71471 0.22188 0.48566 0.0
C1078 C 0.6947 0.22032 0.47611 0.0
C1079 C 0.68172 0.20256 0.47985 0.0
C1080 C 0.70772 0.18848 0.50226 0.0
C1081 C 0.72121 0.20553 0.49864 0.0
H1082 H 0.66694 0.20107 0.4715 0.0
H1083 H 0.71286 0.17594 0.51239 0.0
H1084 H 0.65749 0.12822 0.47224 0.0
H1085 H 0.7113 0.13835 0.43505 0.0
H1086 H 0.6658 0.19969 0.57136 0.0
H1087 H 0.68931 0.23252 0.46566 0.0
H1088 H 0.73647 0.20611 0.50639 0.0
C1089 C 0.64216 0.80916 0.50024 0.0
C1090 C 0.62783 0.8055 0.48427 0.0
N1091 N 0.62187 0.82411 0.47647 0.0
N1092 N 0.64534 0.82997 0.50243 0.0
C1093 C 0.63276 0.8387 0.48776 0.0
H1094 H 0.64938 0.7974 0.50999 0.0
Co1095 Co 0.66157 0.84313 0.52314 0.0
C1096 C 0.68428 0.87782 0.50204 0.0
O1097 O 0.70084 0.87292 0.51338 0.0
N1098 N 0.67742 0.85702 0.54474 0.0
C1099 C 0.69913 0.86774 0.57055 0.0
C1100 C 0.69444 0.85187 0.55643 0.0
C1101 C 0.67214 0.87603 0.55225 0.0
N1102 N 0.6849 0.88281 0.56794 0.0
O1103 O 0.63647 0.85527 0.53439 0.0
H1104 H 0.70311 0.83763 0.55507 0.0
H1105 H 0.65925 0.88502 0.54607 0.0
O1106 O 0.66708 0.86709 0.50403 0.0
C1107 C 0.63114 0.8426 0.54911 0.0
O1108 O 0.64166 0.82521 0.55104 0.0
N1109 N 0.68518 0.82843 0.51359 0.0
C1110 C 0.71316 0.79743 0.50154 0.0
C1111 C 0.70921 0.8145 0.48822 0.0
C1112 C 0.69468 0.82961 0.49431 0.0
C1113 C 0.68884 0.81183 0.52651 0.0
C1114 C 0.70286 0.79637 0.52096 0.0
H1115 H 0.69036 0.84148 0.48307 0.0
H1116 H 0.68015 0.81019 0.54103 0.0
H1117 H 0.63091 0.85542 0.48604 0.0
H1118 H 0.62206 0.79029 0.47899 0.0
H1119 H 0.71174 0.86799 0.58211 0.0
H1120 H 0.71645 0.81557 0.47284 0.0
H1121 H 0.70532 0.78343 0.53167 0.0
C1122 C 0.31286 0.14383 0.5142 0.0
C1123 C 0.30606 0.12934 0.52884 0.0
N1124 N 0.32306 0.12091 0.53809 0.0
N1125 N 0.33409 0.14473 0.51424 0.0
C1126 C 0.33988 0.13059 0.52897 0.0
H1127 H 0.30291 0.15274 0.50382 0.0
Co1128 Co 0.35108 0.16044 0.49574 0.0
C1129 C 0.38398 0.17998 0.52286 0.0
O1130 O 0.38177 0.19756 0.51242 0.0
N1131 N 0.36882 0.17604 0.47672 0.0
C1132 C 0.3845 0.2008 0.457 0.0
C1133 C 0.3671 0.19568 0.46879 0.0
C1134 C 0.38761 0.16969 0.46918 0.0
N1135 N 0.39738 0.18446 0.45726 0.0
O1136 O 0.36337 0.13501 0.48622 0.0
H1137 H 0.35475 0.20645 0.47196 0.0
H1138 H 0.39455 0.15485 0.47305 0.0
O1139 O 0.3724 0.16398 0.51811 0.0
C1140 C 0.35027 0.12763 0.47266 0.0
O1141 O 0.33303 0.13802 0.46886 0.0
N1142 N 0.33632 0.18449 0.50321 0.0
C1143 C 0.30787 0.21709 0.50819 0.0
C1144 C 0.32108 0.21085 0.52496 0.0
C1145 C 0.33512 0.19438 0.52219 0.0
C1146 C 0.32263 0.18929 0.48743 0.0
C1147 C 0.30904 0.20593 0.48921 0.0
H1148 H 0.34442 0.18921 0.53543 0.0
H1149 H 0.32284 0.18045 0.47291 0.0
H1150 H 0.3561 0.12683 0.53227 0.0
H1151 H 0.28979 0.12519 0.53222 0.0
H1152 H 0.3876 0.21558 0.44908 0.0
H1153 H 0.32026 0.21817 0.54027 0.0
H1154 H 0.29972 0.20994 0.47555 0.0
C1155 C 0.32211 0.86204 0.48874 0.0
C1156 C 0.3197 0.87302 0.47031 0.0
N1157 N 0.33838 0.88221 0.46549 0.0
N1158 N 0.34231 0.86406 0.4953 0.0
C1159 C 0.35178 0.87669 0.48094 0.0
H1160 H 0.30987 0.85326 0.49687 0.0
Co1161 Co 0.35413 0.85241 0.5193 0.0
C1162 C 0.39424 0.83496 0.50493 0.0
O1163 O 0.39119 0.81939 0.51819 0.0
N1164 N 0.36644 0.84124 0.54406 0.0
C1165 C 0.37615 0.82249 0.57199 0.0
C1166 C 0.36192 0.82389 0.55561 0.0
C1167 C 0.38333 0.85017 0.55405 0.0
N1168 N 0.38952 0.8391 0.57098 0.0
O1169 O 0.3615 0.87996 0.52912 0.0
H1170 H 0.34948 0.81254 0.55239 0.0
H1171 H 0.39152 0.86418 0.54856 0.0
O1172 O 0.3809 0.84967 0.50412 0.0
C1173 C 0.34455 0.88671 0.53706 0.0
O1174 O 0.3275 0.87464 0.53624 0.0
N1175 N 0.34389 0.82598 0.51026 0.0
C1176 C 0.31726 0.79407 0.49479 0.0
C1177 C 0.33614 0.79924 0.48447 0.0
C1178 C 0.34903 0.81571 0.49216 0.0
C1179 C 0.32567 0.82082 0.5205 0.0
C1180 C 0.31221 0.80488 0.51314 0.0
H1181 H 0.36214 0.82101 0.48267 0.0
H1182 H 0.32095 0.83003 0.53388 0.0
H1183 H 0.36822 0.88158 0.48168 0.0
H1184 H 0.30527 0.87438 0.46128 0.0
H1185 H 0.37665 0.81019 0.58372 0.0
H1186 H 0.34023 0.79148 0.46995 0.0
H1187 H 0.29766 0.80143 0.52141 0.0
C1188 C 0.49254 0.70076 0.15719 0.0
C1189 C 0.47617 0.70785 0.14494 0.0
N1190 N 0.46856 0.69176 0.13317 0.0
N1191 N 0.49518 0.68026 0.15323 0.0
C1192 C 0.48034 0.67524 0.13862 0.0
H1193 H 0.50236 0.7101 0.16773 0.0
Co1194 Co 0.51667 0.66277 0.16238 0.0
C1195 C 0.49285 0.62664 0.17971 0.0
O1196 O 0.50512 0.62785 0.19638 0.0
N1197 N 0.53863 0.64405 0.1709 0.0
C1198 C 0.56101 0.62373 0.1885 0.0
C1199 C 0.54707 0.63976 0.1901 0.0
C1200 C 0.5482 0.63027 0.15796 0.0
N1201 N 0.5617 0.61788 0.16826 0.0
O1202 O 0.52295 0.65706 0.13354 0.0
H1203 H 0.54267 0.64674 0.20484 0.0
H1204 H 0.54486 0.62853 0.14136 0.0
O1205 O 0.49574 0.63955 0.1645 0.0
C1206 C 0.53501 0.67273 0.12899 0.0
O1207 O 0.53815 0.68726 0.14342 0.0
N1208 N 0.51248 0.67189 0.19014 0.0
C1209 C 0.51074 0.69475 0.2278 0.0
C1210 C 0.49281 0.6837 0.21993 0.0
C1211 C 0.494 0.6724 0.20101 0.0
C1212 C 0.52956 0.68332 0.19697 0.0
C1213 C 0.5294 0.69384 0.21609 0.0
H1214 H 0.47986 0.66502 0.19457 0.0
H1215 H 0.54366 0.68405 0.1875 0.0
H1216 H 0.47904 0.66001 0.13121 0.0
H1217 H 0.47065 0.72374 0.14442 0.0
H1218 H 0.56978 0.61671 0.20125 0.0
H1219 H 0.47774 0.68442 0.22772 0.0
H1220 H 0.54392 0.70142 0.22127 0.0
C1221 C 0.37561 0.52217 0.21642 0.0
C1222 C 0.39047 0.53734 0.22174 0.0
N1223 N 0.3998 0.54435 0.20394 0.0
N1224 N 0.37548 0.51969 0.19535 0.0
C1225 C 0.39031 0.53343 0.1882 0.0
H1226 H 0.366 0.51307 0.22726 0.0
Co1227 Co 0.36064 0.49968 0.17942 0.0
C1228 C 0.33968 0.52772 0.14819 0.0
O1229 O 0.32121 0.51929 0.1527 0.0
N1230 N 0.34575 0.47924 0.16258 0.0
C1231 C 0.32082 0.45885 0.1476 0.0
C1232 C 0.32468 0.47557 0.16066 0.0
C1233 C 0.35419 0.46444 0.15007 0.0
N1234 N 0.3394 0.45189 0.14096 0.0
O1235 O 0.38696 0.49144 0.16704 0.0
H1236 H 0.31253 0.48422 0.16835 0.0
H1237 H 0.37086 0.46232 0.14797 0.0
O1238 O 0.35624 0.52121 0.15748 0.0
C1239 C 0.39552 0.47983 0.18096 0.0
O1240 O 0.38559 0.4768 0.19886 0.0
N1241 N 0.33593 0.50563 0.19454 0.0
C1242 C 0.30153 0.5075 0.2221 0.0
C1243 C 0.30899 0.52552 0.21124 0.0
C1244 C 0.32637 0.5243 0.19765 0.0
C1245 C 0.3299 0.48853 0.20608 0.0
C1246 C 0.31241 0.48885 0.21914 0.0
H1247 H 0.33239 0.53835 0.19004 0.0
H1248 H 0.33848 0.47418 0.20459 0.0
H1249 H 0.39484 0.53456 0.17182 0.0
H1250 H 0.39437 0.54248 0.23755 0.0
H1251 H 0.30551 0.45224 0.14335 0.0
H1252 H 0.30186 0.54056 0.21352 0.0
H1253 H 0.30752 0.47434 0.22664 0.0
C1254 C 0.50502 0.3728 0.20997 0.0
C1255 C 0.49249 0.38924 0.21526 0.0
N1256 N 0.4857 0.39853 0.19742 0.0
N1257 N 0.506 0.37145 0.18885 0.0
C1258 C 0.49413 0.38731 0.18164 0.0
H1259 H 0.51307 0.36266 0.22084 0.0
Co1260 Co 0.52193 0.35306 0.17297 0.0
C1261 C 0.49827 0.35189 0.13331 0.0
O1262 O 0.51533 0.35754 0.12294 0.0
N1263 N 0.53779 0.33458 0.1563 0.0
C1264 C 0.5455 0.30724 0.13631 0.0
C1265 C 0.53187 0.31481 0.151 0.0
C1266 C 0.55519 0.33859 0.14448 0.0
N1267 N 0.56014 0.32225 0.13204 0.0
O1268 O 0.53391 0.37665 0.15856 0.0
H1269 H 0.51779 0.30671 0.15647 0.0
H1270 H 0.56364 0.35346 0.14432 0.0
O1271 O 0.49893 0.35013 0.15327 0.0
C1272 C 0.54871 0.3832 0.17068 0.0
O1273 O 0.55271 0.37273 0.18801 0.0
N1274 N 0.51163 0.33048 0.18919 0.0
C1275 C 0.501 0.29871 0.21764 0.0
C1276 C 0.48617 0.30565 0.20288 0.0
C1277 C 0.49169 0.32191 0.18895 0.0
C1278 C 0.52622 0.32379 0.20334 0.0
C1279 C 0.52119 0.30803 0.21782 0.0
H1280 H 0.47993 0.32759 0.1782 0.0
H1281 H 0.54181 0.33099 0.20353 0.0
H1282 H 0.49226 0.39087 0.16508 0.0
H1283 H 0.48869 0.39383 0.23115 0.0
H1284 H 0.5439 0.29226 0.12846 0.0
H1285 H 0.47038 0.29882 0.20238 0.0
H1286 H 0.53308 0.30297 0.22891 0.0
C1287 C 0.6621 0.48786 0.19011 0.0
C1288 C 0.64787 0.47143 0.19279 0.0
N1289 N 0.6429 0.46365 0.17365 0.0
N1290 N 0.6658 0.49039 0.16935 0.0
C1291 C 0.65396 0.47534 0.15978 0.0
H1292 H 0.6681 0.49822 0.20232 0.0
Co1293 Co 0.67838 0.51315 0.15589 0.0
C1294 C 0.70095 0.49405 0.11968 0.0
O1295 O 0.71635 0.50807 0.12118 0.0
N1296 N 0.69065 0.53673 0.14175 0.0
C1297 C 0.71068 0.56429 0.13226 0.0
C1298 C 0.70954 0.54668 0.14468 0.0
C1299 C 0.68097 0.54851 0.12695 0.0
N1300 N 0.6926 0.56546 0.12124 0.0
O1301 O 0.6514 0.51938 0.1438 0.0
H1302 H 0.72196 0.54173 0.15509 0.0
H1303 H 0.66535 0.54527 0.12078 0.0
O1304 O 0.68544 0.49471 0.13238 0.0
C1305 C 0.64218 0.52984 0.15801 0.0
O1306 O 0.65205 0.53333 0.17595 0.0
N1307 N 0.70346 0.50831 0.17067 0.0
C1308 C 0.7358 0.50569 0.20065 0.0
C1309 C 0.7341 0.49112 0.18404 0.0
C1310 C 0.71753 0.49252 0.16927 0.0
C1311 C 0.70476 0.52223 0.18688 0.0
C1312 C 0.72093 0.52152 0.20166 0.0
H1313 H 0.71569 0.4806 0.15731 0.0
H1314 H 0.69308 0.5342 0.18819 0.0
H1315 H 0.65191 0.47418 0.1429 0.0
H1316 H 0.64095 0.46624 0.2075 0.0
H1317 H 0.72376 0.57546 0.13152 0.0
H1318 H 0.74495 0.47835 0.18292 0.0
H1319 H 0.72163 0.53331 0.2139 0.0
C1320 C 0.52991 0.3669 0.81454 0.0
C1321 C 0.54525 0.382 0.81081 0.0
N1322 N 0.55122 0.39053 0.82937 0.0
N1323 N 0.52623 0.36575 0.83542 0.0
C1324 C 0.53953 0.38028 0.84404 0.0
H1325 H 0.52142 0.358 0.80263 0.0
Co1326 Co 0.5047 0.35039 0.84902 0.0
C1327 C 0.52633 0.32736 0.88288 0.0
O1328 O 0.51383 0.31109 0.87904 0.0
N1329 N 0.48263 0.33536 0.86328 0.0
C1330 C 0.45763 0.31252 0.87369 0.0
C1331 C 0.47088 0.31825 0.85761 0.0
C1332 C 0.47573 0.3398 0.88296 0.0
N1333 N 0.46068 0.32609 0.88959 0.0
O1334 O 0.49592 0.37541 0.86261 0.0
H1335 H 0.47191 0.30966 0.84311 0.0
H1336 H 0.48229 0.35229 0.89267 0.0
O1337 O 0.52453 0.34402 0.87188 0.0
C1338 C 0.48464 0.38415 0.84859 0.0
O1339 O 0.48344 0.37547 0.82985 0.0
N1340 N 0.51143 0.32675 0.83306 0.0
C1341 C 0.51415 0.29447 0.8034 0.0
C1342 C 0.52996 0.29761 0.81891 0.0
C1343 C 0.52839 0.31401 0.83357 0.0
C1344 C 0.49707 0.32498 0.81714 0.0
C1345 C 0.49759 0.30863 0.80282 0.0
H1346 H 0.54092 0.31662 0.84492 0.0
H1347 H 0.48434 0.3359 0.81623 0.0
H1348 H 0.53974 0.38409 0.86065 0.0
H1349 H 0.55119 0.38666 0.79552 0.0
H1350 H 0.44678 0.29918 0.87385 0.0
H1351 H 0.54359 0.28777 0.81961 0.0
H1352 H 0.48467 0.30709 0.79172 0.0
C1353 C 0.69224 0.49281 0.87232 0.0
C1354 C 0.69447 0.47707 0.88702 0.0
N1355 N 0.67528 0.46842 0.89074 0.0
N1356 N 0.67171 0.49406 0.86692 0.0
C1357 C 0.66185 0.47891 0.87834 0.0
H1358 H 0.70456 0.50354 0.86706 0.0
Co1359 Co 0.65815 0.51566 0.85286 0.0
C1360 C 0.62421 0.49394 0.82788 0.0
O1361 O 0.62605 0.50783 0.81267 0.0
N1362 N 0.64371 0.53769 0.83934 0.0
C1363 C 0.6331 0.56336 0.81826 0.0
C1364 C 0.64916 0.55001 0.82278 0.0
C1365 C 0.62424 0.5442 0.84466 0.0
N1366 N 0.61748 0.55969 0.83207 0.0
O1367 O 0.64371 0.52182 0.87835 0.0
H1368 H 0.66355 0.54931 0.81393 0.0
H1369 H 0.61477 0.53717 0.85702 0.0
O1370 O 0.63613 0.49546 0.84411 0.0
C1371 C 0.65702 0.53328 0.88842 0.0
O1372 O 0.67549 0.53735 0.87997 0.0
N1373 N 0.67497 0.51144 0.82898 0.0
C1374 C 0.70472 0.51415 0.79651 0.0
C1375 C 0.68861 0.4985 0.79632 0.0
C1376 C 0.67392 0.49728 0.81288 0.0
C1377 C 0.69122 0.52572 0.82999 0.0
C1378 C 0.70578 0.52773 0.81385 0.0
H1379 H 0.66197 0.48498 0.8127 0.0
H1380 H 0.69218 0.53655 0.84303 0.0
H1381 H 0.6449 0.47677 0.87894 0.0
H1382 H 0.70891 0.47282 0.89494 0.0
H1383 H 0.63286 0.57481 0.80568 0.0
H1384 H 0.68745 0.4872 0.78366 0.0
H1385 H 0.71742 0.54036 0.81485 0.0
C1386 C 0.47042 0.64997 0.81642 0.0
C1387 C 0.4568 0.63377 0.81127 0.0
N1388 N 0.45375 0.62181 0.82851 0.0
N1389 N 0.47584 0.64851 0.83696 0.0
C1390 C 0.46531 0.63121 0.84393 0.0
H1391 H 0.4767 0.6614 0.80546 0.0
Co1392 Co 0.49706 0.66402 0.85099 0.0
C1393 C 0.4766 0.68309 0.88764 0.0
O1394 O 0.48809 0.69998 0.88361 0.0
N1395 N 0.51913 0.67912 0.86529 0.0
C1396 C 0.54421 0.70187 0.87598 0.0
C1397 C 0.52894 0.69772 0.86103 0.0
C1398 C 0.52897 0.67239 0.88299 0.0
N1399 N 0.54425 0.68586 0.88972 0.0
O1400 O 0.50847 0.6384 0.86158 0.0
H1401 H 0.52537 0.70808 0.84817 0.0
H1402 H 0.52478 0.658 0.89112 0.0
O1403 O 0.47824 0.66703 0.87572 0.0
C1404 C 0.51983 0.6318 0.84657 0.0
O1405 O 0.51979 0.6423 0.82875 0.0
N1406 N 0.48753 0.68846 0.83768 0.0
C1407 C 0.47673 0.71904 0.80838 0.0
C1408 C 0.46353 0.71456 0.82555 0.0
C1409 C 0.46898 0.6987 0.83985 0.0
C1410 C 0.50025 0.69267 0.82089 0.0
C1411 C 0.49526 0.70794 0.80621 0.0
H1412 H 0.45788 0.69414 0.85193 0.0
H1413 H 0.51423 0.6836 0.81864 0.0
H1414 H 0.46722 0.62488 0.85963 0.0
H1415 H 0.45019 0.63068 0.7958 0.0
H1416 H 0.55469 0.71549 0.87652 0.0
H1417 H 0.44881 0.72258 0.82735 0.0
H1418 H 0.50571 0.71085 0.79304 0.0
C1419 C 0.31362 0.52062 0.88819 0.0
C1420 C 0.31211 0.53559 0.90374 0.0
N1421 N 0.33179 0.54146 0.90972 0.0
N1422 N 0.33415 0.51715 0.88456 0.0
C1423 C 0.34475 0.53006 0.89793 0.0
H1424 H 0.30063 0.51226 0.88063 0.0
Co1425 Co 0.3466 0.49676 0.86829 0.0
C1426 C 0.3828 0.51958 0.84835 0.0
O1427 O 0.38055 0.50865 0.83092 0.0
N1428 N 0.36 0.476 0.85243 0.0
C1429 C 0.37032 0.45264 0.82886 0.0
C1430 C 0.35418 0.46521 0.83491 0.0
C1431 C 0.3796 0.46924 0.85687 0.0
N1432 N 0.38624 0.45525 0.84272 0.0
O1433 O 0.35919 0.48573 0.89312 0.0
H1434 H 0.33947 0.46641 0.82651 0.0
H1435 H 0.3893 0.47523 0.86969 0.0
O1436 O 0.37041 0.51606 0.86378 0.0
C1437 C 0.34478 0.47448 0.90168 0.0
O1438 O 0.3261 0.47339 0.89263 0.0
N1439 N 0.33182 0.50621 0.84462 0.0
C1440 C 0.30497 0.51363 0.81077 0.0
C1441 C 0.3213 0.52804 0.81577 0.0
C1442 C 0.33457 0.5241 0.83302 0.0
C1443 C 0.3148 0.49327 0.84104 0.0
C1444 C 0.30155 0.49632 0.82386 0.0
H1445 H 0.34667 0.53555 0.8371 0.0
H1446 H 0.31202 0.47992 0.85124 0.0
H1447 H 0.36169 0.53022 0.89992 0.0
H1448 H 0.29773 0.54148 0.91033 0.0
H1449 H 0.37043 0.44249 0.81523 0.0
H1450 H 0.32382 0.54204 0.80639 0.0
H1451 H 0.28861 0.4853 0.82092 0.0
C1452 C 0.69155 0.6475 0.98221 0.0
C1453 C 0.69103 0.63083 0.9684 0.0
N1454 N 0.67104 0.62802 0.96154 0.0
N1455 N 0.67194 0.65493 0.98397 0.0
C1456 C 0.65985 0.64277 0.97114 0.0
H1457 H 0.70499 0.65292 0.99142 0.0
Co1458 Co 0.66195 0.67261 0.00437 0.0
C1459 C 0.62687 0.6947 0.98406 0.0
O1460 O 0.63315 0.7119 0.99383 0.0
N1461 N 0.65096 0.68978 0.0256 0.0
C1462 C 0.64411 0.71117 0.05221 0.0
C1463 C 0.65886 0.70573 0.03744 0.0
C1464 C 0.63154 0.68589 0.03355 0.0
N1465 N 0.62699 0.6985 0.04975 0.0
O1466 O 0.64915 0.64864 0.01809 0.0
H1467 H 0.67443 0.71272 0.03608 0.0
H1468 H 0.62086 0.67384 0.02752 0.0
O1469 O 0.63693 0.67778 0.98687 0.0
C1470 C 0.6633 0.64466 0.0318 0.0
O1471 O 0.68073 0.65617 0.0318 0.0
N1472 N 0.67759 0.695 0.99244 0.0
C1473 C 0.70841 0.724 0.97951 0.0
C1474 C 0.6904 0.7202 0.96703 0.0
C1475 C 0.6753 0.70508 0.97355 0.0
C1476 C 0.69549 0.6981 0.00408 0.0
C1477 C 0.71092 0.71261 0.99807 0.0
H1478 H 0.66223 0.70123 0.96319 0.0
H1479 H 0.69788 0.68913 0.01826 0.0
H1480 H 0.64286 0.64346 0.97017 0.0
H1481 H 0.7041 0.62106 0.96432 0.0
H1482 H 0.64617 0.72296 0.06432 0.0
H1483 H 0.6883 0.72846 0.95228 0.0
H1484 H 0.72478 0.71496 0.00793 0.0
C1485 C 0.70776 0.36943 0.02362 0.0
C1486 C 0.71351 0.38465 0.03815 0.0
N1487 N 0.69584 0.39222 0.04669 0.0
N1488 N 0.68658 0.36743 0.02306 0.0
C1489 C 0.67982 0.38149 0.03725 0.0
H1490 H 0.71829 0.36089 0.01363 0.0
Co1491 Co 0.66931 0.35207 0.00447 0.0
C1492 C 0.63765 0.33316 0.03404 0.0
O1493 O 0.6399 0.31465 0.02552 0.0
N1494 N 0.65085 0.33691 0.9853 0.0
C1495 C 0.63317 0.3122 0.96701 0.0
C1496 C 0.64887 0.31605 0.98155 0.0
C1497 C 0.63582 0.3452 0.97264 0.0
N1498 N 0.62493 0.33058 0.96138 0.0
O1499 O 0.6577 0.37797 0.9953 0.0
H1500 H 0.65767 0.30397 0.98929 0.0
H1501 H 0.6323 0.36165 0.97201 0.0
O1502 O 0.64824 0.34892 0.02696 0.0
C1503 C 0.67002 0.38462 0.98081 0.0
O1504 O 0.68612 0.37323 0.97556 0.0
N1505 N 0.68362 0.32746 0.01177 0.0
C1506 C 0.70927 0.29243 0.01653 0.0
C1507 C 0.69868 0.30103 0.03389 0.0
C1508 C 0.68609 0.31869 0.03122 0.0
C1509 C 0.69503 0.32041 0.99523 0.0
C1510 C 0.70723 0.30262 0.99702 0.0
H1511 H 0.6787 0.32549 0.0448 0.0
H1512 H 0.69402 0.32831 0.98018 0.0
H1513 H 0.66335 0.38464 0.03975 0.0
H1514 H 0.72943 0.38992 0.04188 0.0
H1515 H 0.6282 0.29697 0.96108 0.0
H1516 H 0.70039 0.29452 0.04953 0.0
H1517 H 0.7147 0.2969 0.98297 0.0
C1518 C 0.30829 0.64335 0.04368 0.0
C1519 C 0.30294 0.62984 0.05972 0.0
N1520 N 0.32072 0.62202 0.06811 0.0
N1521 N 0.3294 0.64429 0.04181 0.0
C1522 C 0.33656 0.63108 0.05683 0.0
H1523 H 0.29739 0.65128 0.03346 0.0
Co1524 Co 0.34446 0.6582 0.02041 0.0
C1525 C 0.38149 0.67727 0.04287 0.0
O1526 O 0.3803 0.69433 0.03141 0.0
N1527 N 0.36014 0.67184 0.99828 0.0
C1528 C 0.37309 0.69478 0.97482 0.0
C1529 C 0.35867 0.69157 0.99061 0.0
C1530 C 0.37575 0.66349 0.98656 0.0
N1531 N 0.38384 0.6771 0.97221 0.0
O1532 O 0.35456 0.63179 0.01135 0.0
H1533 H 0.34827 0.70338 0.9963 0.0
H1534 H 0.38155 0.64786 0.98876 0.0
O1535 O 0.3682 0.66218 0.03993 0.0
C1536 C 0.33952 0.62408 1.00016 0.0
O1537 O 0.32236 0.63491 0.99764 0.0
N1538 N 0.33147 0.68333 0.028 0.0
C1539 C 0.30274 0.71494 0.03555 0.0
C1540 C 0.31947 0.71154 0.04966 0.0
C1541 C 0.33348 0.6952 0.04585 0.0
C1542 C 0.31526 0.68658 0.01428 0.0
C1543 C 0.30084 0.70228 0.01768 0.0
H1544 H 0.34521 0.69166 0.05762 0.0
H1545 H 0.31329 0.67651 1.0007 0.0
H1546 H 0.35306 0.6278 0.05898 0.0
H1547 H 0.28699 0.62551 0.06411 0.0
H1548 H 0.37542 0.70908 0.96587 0.0
H1549 H 0.32112 0.72079 0.06389 0.0
H1550 H 0.28809 0.70433 0.0065 0.0
C1551 C 0.32005 0.36049 0.00686 0.0
C1552 C 0.31391 0.37753 0.9953 0.0
N1553 N 0.33136 0.38807 0.98873 0.0
N1554 N 0.34125 0.36014 0.00731 0.0
C1555 C 0.3477 0.37715 0.99629 0.0
H1556 H 0.30972 0.34929 0.01468 0.0
Co1557 Co 0.35802 0.34196 0.02205 0.0
C1558 C 0.39106 0.32993 0.9926 0.0
O1559 O 0.3885 0.31069 0.9997 0.0
N1560 N 0.37546 0.32418 0.0378 0.0
C1561 C 0.38894 0.30365 0.06262 0.0
C1562 C 0.3713 0.30768 0.05064 0.0
C1563 C 0.39573 0.32961 0.04218 0.0
N1564 N 0.40424 0.3175 0.05715 0.0
O1565 O 0.3696 0.36534 0.0374 0.0
H1566 H 0.35618 0.29991 0.05257 0.0
H1567 H 0.40361 0.34341 0.03577 0.0
O1568 O 0.37976 0.34447 1.00007 0.0
C1569 C 0.35816 0.36614 0.05379 0.0
O1570 O 0.34325 0.35166 0.0561 0.0
N1571 N 0.34404 0.31945 0.00843 0.0
C1572 C 0.31141 0.29454 0.99173 0.0
C1573 C 0.32676 0.3034 0.97846 0.0
C1574 C 0.34281 0.31625 0.98712 0.0
C1575 C 0.32927 0.31059 0.02136 0.0
C1576 C 0.31302 0.29789 0.0134 0.0
H1577 H 0.35295 0.32495 0.9765 0.0
H1578 H 0.32877 0.31513 0.03772 0.0
H1579 H 0.3641 0.38177 0.9945 0.0
H1580 H 0.29781 0.3817 0.99198 0.0
H1581 H 0.39005 0.29228 0.07521 0.0
H1582 H 0.32549 0.30161 0.96154 0.0
H1583 H 0.30103 0.29176 0.02399 0.0
H1584 H 0.01301 0.29708 0.27791 0.0
H1585 H 0.02865 0.25336 0.32704 0.0
H1586 H 0.03062 0.22517 0.30094 0.0
H1587 H 0.02715 0.21288 0.26381 0.0
H1588 H 0.01191 0.25745 0.21532 0.0
H1589 H 0.01 0.28526 0.24152 0.0
C1590 C 0.01673 0.28135 0.28296 0.0
C1591 C 0.02048 0.2773 0.30442 0.0
C1592 C 0.01768 0.26532 0.26796 0.0
C1593 C 0.0258 0.25693 0.3106 0.0
C1594 C 0.02675 0.24078 0.2957 0.0
C1595 C 0.02326 0.22867 0.25913 0.0
C1596 C 0.01958 0.23317 0.23773 0.0
C1597 C 0.02254 0.24475 0.27432 0.0
C1598 C 0.01481 0.25369 0.23171 0.0
C1599 C 0.01375 0.26958 0.24666 0.0
H1600 H 0.77975 1.00009 0.22747 0.0
H1601 H 0.82194 0.02407 0.27573 0.0
H1602 H 0.79527 0.01725 0.30243 0.0
H1603 H 0.76081 0.00355 0.31241 0.0
H1604 H 0.71674 0.98171 0.26482 0.0
H1605 H 0.74359 0.98769 0.23768 0.0
C1606 C 0.78289 0.00415 0.24378 0.0
C1607 C 0.80286 0.01256 0.2496 0.0
C1608 C 0.76737 1.00008 0.25924 0.0
C1609 C 0.80679 0.01748 0.27085 0.0
C1610 C 0.79158 0.0135 0.28615 0.0
C1611 C 0.75681 1.00034 0.29609 0.0
C1612 C 0.73655 0.99242 0.29077 0.0
C1613 C 0.77195 0.0046 0.28057 0.0
C1614 C 0.73218 0.98766 0.26952 0.0
C1615 C 0.74748 0.99134 0.25393 0.0
H1616 H 0.99093 0.70293 0.25435 0.0
H1617 H 0.99437 0.74747 0.30528 0.0
H1618 H 0.99568 0.77642 0.27999 0.0
H1619 H 0.99916 0.78887 0.24331 0.0
H1620 H 0.9946 0.74459 0.19231 0.0
H1621 H 0.99036 0.71568 0.21758 0.0
C1622 C 0.99168 0.71901 0.25986 0.0
C1623 C 0.99269 0.72308 0.28164 0.0
C1624 C 0.99242 0.73556 0.2452 0.0
C1625 C 0.99345 0.74396 0.28861 0.0
C1626 C 0.99437 0.76049 0.27415 0.0
C1627 C 0.99694 0.77288 0.23782 0.0
C1628 C 0.99731 0.76871 0.21609 0.0
C1629 C 0.99435 0.75646 0.25242 0.0
C1630 C 0.99432 0.74805 0.209 0.0
C1631 C 0.99199 0.73158 0.22344 0.0
H1632 H 0.27651 0.99001 0.28554 0.0
H1633 H 0.32053 0.03336 0.25579 0.0
H1634 H 0.29647 0.03653 0.22589 0.0
H1635 H 0.26283 0.0266 0.20799 0.0
H1636 H 0.2218 0.97983 0.2362 0.0
H1637 H 0.2456 0.97739 0.26648 0.0
C1638 C 0.28141 0.99971 0.27236 0.0
C1639 C 0.30064 0.01124 0.2731 0.0
C1640 C 0.26815 1.00055 0.25472 0.0
C1641 C 0.3058 0.02448 0.25603 0.0
C1642 C 0.29214 0.02611 0.23873 0.0
C1643 C 0.25941 0.01564 0.22066 0.0
C1644 C 0.24079 0.00328 0.21996 0.0
C1645 C 0.27332 0.01413 0.23787 0.0
C1646 C 0.23625 0.98922 0.23638 0.0
C1647 C 0.24972 0.988 0.25374 0.0
H1648 H 0.99981 0.75302 0.81567 0.0
H1649 H 0.02838 0.80617 0.78402 0.0
H1650 H 0.02879 0.78656 0.75099 0.0
H1651 H 0.01979 0.75514 0.73108 0.0
H1652 H 0.99541 0.70003 0.76325 0.0
H1653 H 0.99365 0.71993 0.7959 0.0
C1654 C 0.00634 0.76011 0.80154 0.0
C1655 C 0.01418 0.7809 0.80218 0.0
C1656 C 0.00685 0.7486 0.78268 0.0
C1657 C 0.02254 0.79008 0.78387 0.0
C1658 C 0.02261 0.77894 0.76499 0.0
C1659 C 0.01461 0.74708 0.74521 0.0
C1660 C 0.00792 0.72585 0.74439 0.0
C1661 C 0.0147 0.75825 0.7642 0.0
C1662 C 1.00038 0.71635 0.76302 0.0
C1663 C 0.9996 0.72768 0.78187 0.0
H1664 H 0.26 0.99368 0.71251 0.0
H1665 H 0.27497 0.05822 0.72733 0.0
H1666 H 0.24648 0.05833 0.75317 0.0
H1667 H 0.21921 0.03938 0.77319 0.0
H1668 H 0.20235 0.97547 0.75659 0.0
H1669 H 0.23021 0.97567 0.73035 0.0
C1670 C 0.25685 0.00783 0.72127 0.0
C1671 C 0.26962 0.02593 0.71804 0.0
C1672 C 0.2404 0.00778 0.73607 0.0
C1673 C 0.26528 0.04417 0.72936 0.0
C1674 C 0.2491 0.04416 0.74428 0.0
C1675 C 0.22109 0.02556 0.76359 0.0
C1676 C 0.20843 0.00737 0.76723 0.0
C1677 C 0.23676 0.02596 0.74797 0.0
C1678 C 0.21193 0.98959 0.75473 0.0
C1679 C 0.2278 0.98974 0.73948 0.0
H1680 H 0.97274 0.3135 0.76997 0.0
H1681 H 0.97133 0.2707 0.71753 0.0
H1682 H 0.96677 0.24106 0.74171 0.0
H1683 H 0.96813 0.22721 0.77795 0.0
H1684 H 0.96941 0.26987 0.83045 0.0
H1685 H 0.96875 0.29976 0.80616 0.0
C1686 C 0.97103 0.29769 0.76387 0.0
C1687 C 0.97259 0.29421 0.74204 0.0
C1688 C 0.96853 0.28075 0.77789 0.0
C1689 C 0.97013 0.27373 0.73425 0.0
C1690 C 0.96767 0.25679 0.74809 0.0
C1691 C 0.96772 0.24308 0.784 0.0
C1692 C 0.9689 0.24645 0.80588 0.0
C1693 C 0.96755 0.26008 0.76995 0.0
C1694 C 0.96836 0.26698 0.81366 0.0
C1695 C 0.96818 0.28402 0.79977 0.0
H1696 H 0.77172 0.98747 0.79687 0.0
H1697 H 0.81564 0.03257 0.76958 0.0
H1698 H 0.79434 0.03335 0.73761 0.0
H1699 H 0.76277 0.02172 0.71749 0.0
H1700 H 0.72121 0.97412 0.74344 0.0
H1701 H 0.74285 0.97296 0.77549 0.0
C1702 C 0.77717 0.99711 0.78387 0.0
C1703 C 0.79546 0.01002 0.78604 0.0
C1704 C 0.76538 0.9968 0.76508 0.0
C1705 C 0.80147 0.02283 0.76889 0.0
C1706 C 0.78941 0.0231 0.75038 0.0
C1707 C 0.75875 0.01084 0.73007 0.0
C1708 C 0.74054 0.99796 0.72821 0.0
C1709 C 0.77131 0.01022 0.74834 0.0
C1710 C 0.73533 0.98396 0.7445 0.0
C1711 C 0.74756 0.98348 0.76287 0.0
H1712 H 0.221 0.2553 0.97984 0.0
H1713 H 0.25732 0.20068 0.96715 0.0
H1714 H 0.28977 0.22212 0.96656 0.0
H1715 H 0.30823 0.25542 0.97541 0.0
H1716 H 0.27203 0.30946 0.99055 0.0
H1717 H 0.23918 0.28954 0.98417 0.0
C1718 C 0.23596 0.24829 0.97629 0.0
C1719 C 0.23689 0.22653 0.97363 0.0
C1720 C 0.25462 0.26062 0.97671 0.0
C1721 C 0.25635 0.21746 0.96931 0.0
C1722 C 0.27489 0.22967 0.96909 0.0
C1723 C 0.29311 0.26287 0.97667 0.0
C1724 C 0.29236 0.28374 0.98337 0.0
C1725 C 0.27432 0.25112 0.97362 0.0
C1726 C 0.2728 0.29335 0.98532 0.0
C1727 C 0.25407 0.28195 0.98179 0.0
H1728 H 0.22202 0.77047 0.03618 0.0
H1729 H 0.26941 0.81953 0.03002 0.0
H1730 H 0.29725 0.79415 0.03499 0.0
H1731 H 0.30825 0.75734 0.03728 0.0
H1732 H 0.26085 0.70811 0.04114 0.0
H1733 H 0.23303 0.73398 0.04121 0.0
C1734 C 0.23844 0.77561 0.03638 0.0
C1735 C 0.24364 0.79682 0.03264 0.0
C1736 C 0.25442 0.7608 0.0387 0.0
C1737 C 0.26501 0.80325 0.03269 0.0
C1738 C 0.28094 0.78874 0.03552 0.0
C1739 C 0.29185 0.7524 0.03864 0.0
C1740 C 0.28656 0.73091 0.0393 0.0
C1741 C 0.27588 0.76738 0.03799 0.0
C1742 C 0.26524 0.72461 0.04068 0.0
C1743 C 0.24934 0.73939 0.04062 0.0
H1744 H 0.75584 0.20721 0.03609 0.0
H1745 H 0.79324 0.22837 0.98337 0.0
H1746 H 0.77178 0.25947 0.98001 0.0
H1747 H 0.74402 0.28161 0.99336 0.0
H1748 H 0.70446 0.25928 0.04428 0.0
H1749 H 0.72576 0.22822 0.04755 0.0
C1750 C 0.75913 0.21854 0.02373 0.0
C1751 C 0.77611 0.21541 0.00995 0.0
C1752 C 0.74666 0.23644 0.02186 0.0
C1753 C 0.78011 0.2302 0.99398 0.0
C1754 C 0.76797 0.24812 0.9922 0.0
C1755 C 0.73954 0.26987 0.00491 0.0
C1756 C 0.72241 0.2732 0.01856 0.0
C1757 C 0.75137 0.25153 0.00621 0.0
C1758 C 0.71769 0.25771 0.03379 0.0
C1759 C 0.72976 0.23969 0.03554 0.0
H1760 H 0.70711 0.76558 0.98579 0.0
H1761 H 0.74699 0.71701 0.96327 0.0
H1762 H 0.77772 0.74095 0.96499 0.0
H1763 H 0.79391 0.77381 0.97871 0.0
H1764 H 0.75394 0.82145 0.00339 0.0
H1765 H 0.72265 0.80005 0.99492 0.0
C1766 C 0.72241 0.7606 0.98048 0.0
C1767 C 0.72487 0.73978 0.97413 0.0
C1768 C 0.74008 0.77418 0.9824 0.0
C1769 C 0.7448 0.73315 0.96784 0.0
C1770 C 0.76237 0.74675 0.96909 0.0
C1771 C 0.77831 0.77967 0.98171 0.0
C1772 C 0.77622 0.799 0.99196 0.0
C1773 C 0.76035 0.76703 0.97721 0.0
C1774 C 0.75593 0.80643 0.99585 0.0
C1775 C 0.73803 0.79422 0.99099 0.0
H1776 H 0.74594 0.52724 0.79954 0.0
H1777 H 0.69915 0.50692 0.75382 0.0
H1778 H 0.7246 0.51301 0.72551 0.0
H1779 H 0.7607 0.52397 0.71377 0.0
H1780 H 0.80579 0.54622 0.76015 0.0
H1781 H 0.78 0.54065 0.78801 0.0
C1782 C 0.74094 0.52455 0.7834 0.0
C1783 C 0.72039 0.51676 0.77903 0.0
C1784 C 0.75533 0.52882 0.76718 0.0
C1785 C 0.71485 0.51265 0.75788 0.0
C1786 C 0.72935 0.51638 0.7416 0.0
C1787 C 0.76461 0.52806 0.72992 0.0
C1788 C 0.7851 0.53558 0.73491 0.0
C1789 C 0.74966 0.52457 0.74604 0.0
C1790 C 0.79012 0.54048 0.75595 0.0
C1791 C 0.77543 0.53713 0.7719 0.0
H1792 H 0.23363 0.53401 0.7457 0.0
H1793 H 0.25504 0.4767 0.71762 0.0
H1794 H 0.28157 0.47376 0.74534 0.0
H1795 H 0.29859 0.48738 0.77783 0.0
H1796 H 0.27939 0.54636 0.80338 0.0
H1797 H 0.25267 0.54929 0.77558 0.0
C1798 C 0.24437 0.52111 0.74508 0.0
C1799 C 0.24212 0.50563 0.72928 0.0
C1800 C 0.26018 0.51995 0.76053 0.0
C1801 C 0.25593 0.4887 0.72963 0.0
C1802 C 0.27133 0.4871 0.74539 0.0
C1803 C 0.28868 0.50097 0.77707 0.0
C1804 C 0.29083 0.51667 0.79251 0.0
C1805 C 0.27355 0.50261 0.76093 0.0
C1806 C 0.27805 0.53423 0.7915 0.0
C1807 C 0.26271 0.5358 0.77573 0.0
H1808 H 0.29363 0.48293 0.257 0.0
H1809 H 0.26688 0.533 0.2204 0.0
H1810 H 0.23665 0.53325 0.24391 0.0
H1811 H 0.21766 0.51922 0.27511 0.0
H1812 H 0.24328 0.46704 0.3091 0.0
H1813 H 0.27348 0.46689 0.28548 0.0
C1814 C 0.28107 0.49361 0.25358 0.0
C1815 C 0.28287 0.50789 0.23661 0.0
C1816 C 0.26323 0.49306 0.26658 0.0
C1817 C 0.26644 0.52204 0.23341 0.0
C1818 C 0.24891 0.52204 0.24675 0.0
C1819 C 0.22975 0.50765 0.27713 0.0
C1820 C 0.22816 0.49309 0.29381 0.0
C1821 C 0.24712 0.50761 0.26339 0.0
C1822 C 0.24392 0.47819 0.29623 0.0
C1823 C 0.26133 0.47826 0.28286 0.0
H1824 H 0.81493 0.50156 0.26251 0.0
H1825 H 0.76703 0.51814 0.307 0.0
H1826 H 0.74058 0.51777 0.27905 0.0
H1827 H 0.7307 0.51194 0.2425 0.0
H1828 H 0.77784 0.49627 0.19689 0.0
H1829 H 0.80479 0.49642 0.22479 0.0
C1830 C 0.79874 0.50531 0.26594 0.0
C1831 C 0.79293 0.50981 0.28682 0.0
C1832 C 0.78343 0.5049 0.2497 0.0
C1833 C 0.77186 0.51446 0.29111 0.0
C1834 C 0.75671 0.51423 0.27515 0.0
C1835 C 0.74691 0.50881 0.23851 0.0
C1836 C 0.75222 0.50435 0.21752 0.0
C1837 C 0.76227 0.50931 0.25446 0.0
C1838 C 0.77324 0.49965 0.2129 0.0
C1839 C 0.7887 0.49992 0.22884 0.0
H1840 H 0.26 0.71462 0.4771 0.0
H1841 H 0.21274 0.76168 0.47198 0.0
H1842 H 0.24014 0.78934 0.47394 0.0
H1843 H 0.27684 0.79979 0.48285 0.0
H1844 H 0.32406 0.7527 0.48817 0.0
H1845 H 0.29748 0.72527 0.48026 0.0
C1846 C 0.25584 0.73095 0.47574 0.0
C1847 C 0.23446 0.73621 0.47448 0.0
C1848 C 0.27162 0.74667 0.47733 0.0
C1849 C 0.22912 0.75733 0.47277 0.0
C1850 C 0.24476 0.77311 0.47417 0.0
C1851 C 0.2813 0.78352 0.48186 0.0
C1852 C 0.30221 0.77811 0.48633 0.0
C1853 C 0.26594 0.76793 0.47735 0.0
C1854 C 0.30801 0.75712 0.48481 0.0
C1855 C 0.29281 0.74148 0.48039 0.0
H1856 H 0.27015 0.22244 0.48733 0.0
H1857 H 0.31102 0.25199 0.53391 0.0
H1858 H 0.28631 0.28035 0.53732 0.0
H1859 H 0.25271 0.29676 0.52733 0.0
H1860 H 0.21429 0.26904 0.47814 0.0
H1861 H 0.23914 0.24047 0.47468 0.0
C1862 C 0.27422 0.23524 0.49785 0.0
C1863 C 0.29275 0.23472 0.51031 0.0
C1864 C 0.26044 0.25208 0.49905 0.0
C1865 C 0.29683 0.25141 0.52438 0.0
C1866 C 0.28278 0.26789 0.52618 0.0
C1867 C 0.25009 0.28463 0.51559 0.0
C1868 C 0.23189 0.28496 0.50286 0.0
C1869 C 0.26454 0.26838 0.51361 0.0
C1870 C 0.22839 0.26916 0.48785 0.0
C1871 C 0.24248 0.25277 0.48604 0.0
H1872 H 0.75341 0.80049 0.4867 0.0
H1873 H 0.7043 0.75556 0.5027 0.0
H1874 H 0.72837 0.72681 0.49722 0.0
H1875 H 0.76451 0.71462 0.49178 0.0
H1876 H 0.81415 0.75961 0.47794 0.0
H1877 H 0.7889 0.78799 0.47824 0.0
C1878 C 0.74793 0.78438 0.48857 0.0
C1879 C 0.72718 0.78017 0.49529 0.0
C1880 C 0.76204 0.76789 0.48584 0.0
C1881 C 0.7203 0.75921 0.49781 0.0
C1882 C 0.73405 0.74275 0.49464 0.0
C1883 C 0.76961 0.73057 0.48827 0.0
C1884 C 0.79108 0.73505 0.48473 0.0
C1885 C 0.75511 0.74691 0.48921 0.0
C1886 C 0.79765 0.75584 0.48062 0.0
C1887 C 0.78324 0.77207 0.48092 0.0
H1888 H 0.76578 0.30637 0.4981 0.0
H1889 H 0.81724 0.26666 0.48211 0.0
H1890 H 0.79227 0.23796 0.47383 0.0
H1891 H 0.75614 0.22306 0.4753 0.0
H1892 H 0.70468 0.2627 0.49146 0.0
H1893 H 0.7292 0.29269 0.49512 0.0
C1894 C 0.77145 0.29149 0.49254 0.0
C1895 C 0.79329 0.28847 0.49098 0.0
C1896 C 0.75701 0.27509 0.48791 0.0
C1897 C 0.80051 0.2693 0.48343 0.0
C1898 C 0.78624 0.25288 0.47882 0.0
C1899 C 0.7503 0.23838 0.47925 0.0
C1900 C 0.72869 0.24068 0.48332 0.0
C1901 C 0.76452 0.25543 0.48159 0.0
C1902 C 0.72122 0.2606 0.48818 0.0
C1903 C 0.73527 0.27768 0.49047 0.0
H1904 H 0.52041 0.21164 0.74828 0.0
H1905 H 0.48265 0.24827 0.70614 0.0
H1906 H 0.48394 0.27755 0.731 0.0
H1907 H 0.49756 0.29316 0.7633 0.0
H1908 H 0.53166 0.25542 0.80802 0.0
H1909 H 0.53098 0.22644 0.78303 0.0
C1910 C 0.51212 0.22592 0.74487 0.0
C1911 C 0.50122 0.22787 0.72564 0.0
C1912 C 0.51278 0.24259 0.75935 0.0
C1913 C 0.49078 0.24643 0.72106 0.0
C1914 C 0.49173 0.26318 0.73515 0.0
C1915 C 0.50436 0.27852 0.76812 0.0
C1916 C 0.51451 0.27675 0.78789 0.0
C1917 C 0.5029 0.26151 0.75421 0.0
C1918 C 0.52402 0.25765 0.79293 0.0
C1919 C 0.5234 0.24087 0.77872 0.0
H1920 H 0.47321 0.77349 0.72627 0.0
H1921 H 0.48375 0.82278 0.77171 0.0
H1922 H 0.47871 0.79782 0.80054 0.0
H1923 H 0.47581 0.7612 0.81278 0.0
H1924 H 0.46743 0.71166 0.76736 0.0
H1925 H 0.46666 0.73731 0.73868 0.0
C1926 C 0.47392 0.77879 0.74249 0.0
C1927 C 0.47907 0.79987 0.74686 0.0
C1928 C 0.47147 0.76423 0.75903 0.0
C1929 C 0.48009 0.80654 0.76796 0.0
C1930 C 0.4772 0.79229 0.78446 0.0
C1931 C 0.47319 0.75617 0.79665 0.0
C1932 C 0.47152 0.7347 0.7921 0.0
C1933 C 0.47352 0.77098 0.7802 0.0
C1934 C 0.46858 0.7282 0.77113 0.0
C1935 C 0.4683 0.74284 0.75476 0.0
H1936 H 0.49472 0.74478 0.31267 0.0
H1937 H 0.548 0.78085 0.28952 0.0
H1938 H 0.55017 0.75777 0.25896 0.0
H1939 H 0.53509 0.72967 0.23768 0.0
H1940 H 0.48449 0.69037 0.2624 0.0
H1941 H 0.48255 0.71304 0.29312 0.0
C1942 C 0.50705 0.74723 0.3011 0.0
C1943 C 0.52128 0.76435 0.30329 0.0
C1944 C 0.50833 0.73373 0.28367 0.0
C1945 C 0.53711 0.76757 0.28824 0.0
C1946 C 0.53819 0.75452 0.27069 0.0
C1947 C 0.52403 0.72534 0.24993 0.0
C1948 C 0.50997 0.70801 0.24731 0.0
C1949 C 0.52366 0.73779 0.26809 0.0
C1950 C 0.49528 0.70371 0.26341 0.0
C1951 C 0.49429 0.71657 0.28123 0.0
H1952 H 0.48876 0.21402 0.26749 0.0
H1953 H 0.50232 0.2548 0.32007 0.0
H1954 H 0.50279 0.28528 0.29651 0.0
H1955 H 0.5029 0.2997 0.26033 0.0
H1956 H 0.48805 0.25901 0.20797 0.0
H1957 H 0.48434 0.22907 0.23197 0.0
C1958 C 0.49139 0.22967 0.27377 0.0
C1959 C 0.49557 0.23227 0.2954 0.0
C1960 C 0.4916 0.24703 0.26013 0.0
C1961 C 0.49893 0.25253 0.30348 0.0
C1962 C 0.49936 0.26989 0.28999 0.0
C1963 C 0.49856 0.2843 0.2543 0.0
C1964 C 0.49591 0.28142 0.23247 0.0
C1965 C 0.49628 0.26725 0.26822 0.0
C1966 C 0.49012 0.26151 0.22474 0.0
C1967 C 0.48809 0.24442 0.23843 0.0
H1968 H 0.13345 0.06511 0.14254 0.0
H1969 H 0.08081 0.0305 0.16876 0.0
H1970 H 0.06045 0.06258 0.17024 0.0
H1971 H 0.06004 0.10114 0.16961 0.0
H1972 H 0.11507 0.13605 0.14896 0.0
H1973 H 0.1327 0.10345 0.14092 0.0
C1974 C 0.11737 0.06456 0.14808 0.0
C1975 C 0.10857 0.04555 0.15542 0.0
C1976 C 0.10658 0.08328 0.15065 0.0
C1977 C 0.08775 0.04497 0.16275 0.0
C1978 C 0.07628 0.06334 0.16392 0.0
C1979 C 0.07576 0.10152 0.16299 0.0
C1980 C 0.08635 0.12087 0.15999 0.0
C1981 C 0.0859 0.0827 0.15882 0.0
C1982 C 0.10678 0.12129 0.15166 0.0
C1983 C 0.11673 0.10266 0.14681 0.0
H1984 H 0.95165 0.06732 0.21963 0.0
H1985 H 0.91802 0.0795 0.16198 0.0
H1986 H 0.94506 0.10584 0.152 0.0
H1987 H 0.97771 0.12647 0.16072 0.0
H1988 H 0.01092 0.11304 0.21862 0.0
H1989 H 0.98459 0.08626 0.22745 0.0
C1990 C 0.95017 0.0758 0.20492 0.0
C1991 C 0.93271 0.07169 0.1917 0.0
C1992 C 0.96572 0.09076 0.19936 0.0
C1993 C 0.93132 0.08241 0.17241 0.0
C1994 C 0.94674 0.09751 0.16678 0.0
C1995 C 0.97923 0.1176 0.17521 0.0
C1996 C 0.99629 0.12196 0.18903 0.0
C1997 C 0.96394 0.10199 0.18026 0.0
C1998 C 0.99801 0.11018 0.20768 0.0
C1999 C 0.98291 0.09482 0.2128 0.0
H2000 H 0.91645 0.95161 0.21594 0.0
H2001 H 0.93732 0.97783 0.15681 0.0
H2002 H 0.96007 0.94752 0.15157 0.0
H2003 H 0.97475 0.91397 0.16491 0.0
H2004 H 0.95115 0.88827 0.22344 0.0
H2005 H 0.9288 0.91816 0.22779 0.0
C2006 C 0.92605 0.95091 0.20189 0.0
C2007 C 0.92551 0.96722 0.18698 0.0
C2008 C 0.93863 0.93349 0.19892 0.0
C2009 C 0.93762 0.9656 0.16864 0.0
C2010 C 0.95059 0.94826 0.16567 0.0
C2011 C 0.96456 0.91478 0.17848 0.0
C2012 C 0.96506 0.8989 0.19405 0.0
C2013 C 0.95133 0.93212 0.18083 0.0
C2014 C 0.95165 0.90037 0.2115 0.0
C2015 C 0.9387 0.91745 0.21396 0.0
H2016 H 0.09681 0.95596 0.19799 0.0
H2017 H 0.13217 0.9407 0.14266 0.0
H2018 H 0.10561 0.91383 0.13296 0.0
H2019 H 0.07385 0.89262 0.14224 0.0
H2020 H 0.03944 0.90757 0.19827 0.0
H2021 H 0.0637 0.93704 0.20552 0.0
C2022 C 0.09868 0.94666 0.18389 0.0
C2023 C 0.1165 0.94989 0.17127 0.0
C2024 C 0.08334 0.93148 0.17841 0.0
C2025 C 0.11856 0.93825 0.15266 0.0
C2026 C 0.1034 0.92298 0.14711 0.0
C2027 C 0.07136 0.90285 0.15557 0.0
C2028 C 0.05489 0.89835 0.16958 0.0
C2029 C 0.08584 0.91926 0.16003 0.0
C2030 C 0.05196 0.91115 0.18719 0.0
C2031 C 0.06593 0.92777 0.19145 0.0
H2032 H 0.05406 0.91054 0.86169 0.0
H2033 H 0.05064 0.89433 0.79577 0.0
H2034 H 0.0786 0.91991 0.78803 0.0
H2035 H 0.1034 0.94745 0.79968 0.0
H2036 H 0.10729 0.96379 0.86556 0.0
H2037 H 0.08007 0.93729 0.87363 0.0
C2038 C 0.05958 0.9124 0.84568 0.0
C2039 C 0.05005 0.90057 0.82933 0.0
C2040 C 0.07579 0.92716 0.84131 0.0
C2041 C 0.05733 0.90344 0.80862 0.0
C2042 C 0.07345 0.918 0.80418 0.0
C2043 C 0.09842 0.94518 0.81584 0.0
C2044 C 0.10735 0.9577 0.83195 0.0
C2045 C 0.08267 0.93006 0.82036 0.0
C2046 C 0.10067 0.95444 0.85281 0.0
C2047 C 0.08506 0.9393 0.85745 0.0
H2048 H 0.04081 0.126 0.81539 0.0
H2049 H 0.03293 0.11329 0.88163 0.0
H2050 H 0.05645 0.08332 0.87873 0.0
H2051 H 0.08006 0.0614 0.85706 0.0
H2052 H 0.08713 0.07555 0.79092 0.0
H2053 H 0.06304 0.10433 0.79413 0.0
C2054 C 0.04416 0.11672 0.82929 0.0
C2055 C 0.03523 0.12197 0.84875 0.0
C2056 C 0.05759 0.09977 0.82747 0.0
C2057 C 0.03956 0.10955 0.86646 0.0
C2058 C 0.05308 0.0925 0.86479 0.0
C2059 C 0.07636 0.07084 0.8434 0.0
C2060 C 0.08541 0.06619 0.82371 0.0
C2061 C 0.06236 0.08757 0.84536 0.0
C2062 C 0.08023 0.07848 0.80614 0.0
C2063 C 0.06651 0.09506 0.80798 0.0
H2064 H 0.93099 0.1154 0.86363 0.0
H2065 H 0.94998 0.10176 0.80006 0.0
H2066 H 0.92891 0.06942 0.80049 0.0
H2067 H 0.90508 0.04508 0.81861 0.0
H2068 H 0.88538 0.05822 0.88209 0.0
H2069 H 0.90697 0.09052 0.8821 0.0
C2070 C 0.93059 0.10526 0.84995 0.0
C2071 C 0.94195 0.1111 0.83179 0.0
C2072 C 0.91839 0.08656 0.85029 0.0
C2073 C 0.94111 0.09789 0.8141 0.0
C2074 C 0.92918 0.07928 0.81438 0.0
C2075 C 0.90552 0.05492 0.83252 0.0
C2076 C 0.89364 0.04918 0.85033 0.0
C2077 C 0.91774 0.0735 0.83234 0.0
C2078 C 0.89439 0.06223 0.86816 0.0
C2079 C 0.90671 0.08073 0.86817 0.0
H2080 H 0.90285 0.9411 0.88786 0.0
H2081 H 0.9256 0.9591 0.82648 0.0
H2082 H 0.9552 0.93573 0.83026 0.0
H2083 H 0.9713 0.90638 0.84845 0.0
H2084 H 0.94807 0.88632 0.90888 0.0
H2085 H 0.92232 0.91448 0.90847 0.0
C2086 C 0.91461 0.9402 0.87561 0.0
C2087 C 0.91191 0.9515 0.85676 0.0
C2088 C 0.93145 0.92631 0.87774 0.0
C2089 C 0.92717 0.95021 0.84092 0.0
C2090 C 0.94411 0.93691 0.84309 0.0
C2091 C 0.96109 0.90874 0.86186 0.0
C2092 C 0.96164 0.89466 0.87878 0.0
C2093 C 0.94596 0.92435 0.86107 0.0
C2094 C 0.94812 0.89736 0.89591 0.0
C2095 C 0.93324 0.91326 0.8955 0.0
H2096 H 0.15061 0.09455 0.11008 0.0
H2097 H 0.20231 0.05628 0.09192 0.0
H2098 H 0.20035 0.06982 0.05587 0.0
H2099 H 0.18598 0.09477 0.03074 0.0
H2100 H 0.13427 0.13339 0.04857 0.0
H2101 H 0.13351 0.11702 0.08346 0.0
C2102 C 0.16146 0.08939 0.09819 0.0
C2103 C 0.17697 0.07497 0.10354 0.0
C2104 C 0.15992 0.09698 0.07751 0.0
C2105 C 0.19054 0.06768 0.088 0.0
C2106 C 0.18931 0.07529 0.06748 0.0
C2107 C 0.17417 0.09915 0.0421 0.0
C2108 C 0.16031 0.11527 0.03725 0.0
C2109 C 0.17428 0.09016 0.06217 0.0
C2110 C 0.14499 0.12087 0.05194 0.0
C2111 C 0.14478 0.11175 0.07199 0.0
H2112 H 0.8851 0.18849 0.08609 0.0
H2113 H 0.91824 0.14394 0.04838 0.0
H2114 H 0.94902 0.14765 0.07201 0.0
H2115 H 0.96677 0.16521 0.10256 0.0
H2116 H 0.93242 0.20982 0.13909 0.0
H2117 H 0.90168 0.20452 0.11646 0.0
C2118 C 0.89901 0.17952 0.08288 0.0
C2119 C 0.89947 0.16612 0.06533 0.0
C2120 C 0.9164 0.18186 0.09628 0.0
C2121 C 0.91755 0.15443 0.06173 0.0
C2122 C 0.9351 0.15659 0.07522 0.0
C2123 C 0.95245 0.17354 0.10567 0.0
C2124 C 0.95191 0.18805 0.12241 0.0
C2125 C 0.93476 0.17047 0.09244 0.0
C2126 C 0.93334 0.19888 0.12614 0.0
C2127 C 0.91574 0.19578 0.11327 0.0
H2128 H 0.84424 0.87309 0.10519 0.0
H2129 H 0.87208 0.91526 0.0596 0.0
H2130 H 0.87756 0.94193 0.08714 0.0
H2131 H 0.87083 0.95413 0.12349 0.0
H2132 H 0.84354 0.91076 0.16855 0.0
H2133 H 0.84123 0.8837 0.14177 0.0
C2134 C 0.85172 0.88807 0.10132 0.0
C2135 C 0.8575 0.89242 0.08046 0.0
C2136 C 0.8546 0.90316 0.11706 0.0
C2137 C 0.86752 0.91164 0.07563 0.0
C2138 C 0.87048 0.92689 0.09133 0.0
C2139 C 0.8647 0.93869 0.12755 0.0
C2140 C 0.8569 0.93472 0.14797 0.0
C2141 C 0.86356 0.92299 0.11201 0.0
C2142 C 0.84904 0.91453 0.15288 0.0
C2143 C 0.84786 0.89894 0.1376 0.0
H2144 H 0.13202 0.86552 0.05302 0.0
H2145 H 0.12093 0.8036 0.02729 0.0
H2146 H 0.09516 0.79588 0.05442 0.0
H2147 H 0.07647 0.80579 0.08628 0.0
H2148 H 0.08637 0.86745 0.11244 0.0
H2149 H 0.11153 0.87619 0.08442 0.0
C2150 C 0.12382 0.85043 0.05325 0.0
C2151 C 0.12867 0.83516 0.03811 0.0
C2152 C 0.10877 0.84594 0.06909 0.0
C2153 C 0.11778 0.81568 0.03873 0.0
C2154 C 0.10296 0.81117 0.0543 0.0
C2155 C 0.08417 0.82112 0.08588 0.0
C2156 C 0.07964 0.83586 0.10154 0.0
C2157 C 0.09852 0.82603 0.06972 0.0
C2158 C 0.08947 0.85583 0.10053 0.0
C2159 C 0.10395 0.8608 0.08454 0.0
H2160 H 0.20932 0.90977 0.94877 0.0
H2161 H 0.14439 0.91434 0.96756 0.0
H2162 H 0.13894 0.94095 0.94009 0.0
H2163 H 0.15294 0.96256 0.9103 0.0
H2164 H 0.21786 0.95596 0.8919 0.0
H2165 H 0.22293 0.93051 0.91978 0.0
C2166 C 0.19389 0.91653 0.94702 0.0
C2167 C 0.17728 0.91 0.9603 0.0
C2168 C 0.19089 0.93149 0.93119 0.0
C2169 C 0.15749 0.9191 0.95766 0.0
C2170 C 0.15438 0.93426 0.94188 0.0
C2171 C 0.16814 0.95545 0.91227 0.0
C2172 C 0.18505 0.96141 0.89891 0.0
C2173 C 0.17098 0.9405 0.92843 0.0
C2174 C 0.20467 0.95209 0.90201 0.0
C2175 C 0.20758 0.93739 0.91793 0.0
H2176 H 0.11337 0.1628 0.96067 0.0
H2177 H 0.11137 0.228 0.97829 0.0
H2178 H 0.08293 0.23339 0.95297 0.0
H2179 H 0.05943 0.21992 0.92495 0.0
H2180 H 0.06162 0.15487 0.90714 0.0
H2181 H 0.08903 0.14905 0.93355 0.0
C2182 C 0.10671 0.17819 0.95904 0.0
C2183 C 0.11466 0.19499 0.9713 0.0
C2184 C 0.09035 0.18121 0.94441 0.0
C2185 C 0.10564 0.21478 0.96906 0.0
C2186 C 0.08937 0.2179 0.95454 0.0
C2187 C 0.06594 0.20449 0.92683 0.0
C2188 C 0.05853 0.18789 0.91402 0.0
C2189 C 0.08177 0.20129 0.94198 0.0
C2190 C 0.06687 0.16788 0.91692 0.0
C2191 C 0.08265 0.16457 0.93193 0.0
H2192 H 0.84959 0.07141 0.91885 0.0
H2193 H 0.78505 0.05229 0.93085 0.0
H2194 H 0.78454 0.07466 0.96177 0.0
H2195 H 0.8022 0.09932 0.98563 0.0
H2196 H 0.86672 0.11892 0.97439 0.0
H2197 H 0.86754 0.09641 0.94319 0.0
C2198 C 0.83546 0.07205 0.92829 0.0
C2199 C 0.81734 0.06017 0.92234 0.0
C2200 C 0.83529 0.08493 0.94629 0.0
C2201 C 0.7991 0.06145 0.9347 0.0
C2202 C 0.79884 0.07414 0.95255 0.0
C2203 C 0.81652 0.09868 0.97645 0.0
C2204 C 0.8344 0.11078 0.98245 0.0
C2205 C 0.81682 0.08591 0.95851 0.0
C2206 C 0.85275 0.10973 0.97023 0.0
C2207 C 0.8532 0.0969 0.95234 0.0
H2208 H 0.94044 0.84927 0.93003 0.0
H2209 H 0.96097 0.78802 0.94892 0.0
H2210 H 0.93623 0.7878 0.97805 0.0
H2211 H 0.90784 0.80426 0.99737 0.0
H2212 H 0.88776 0.86585 0.97935 0.0
H2213 H 0.91359 0.86686 0.95095 0.0
C2214 C 0.93979 0.83601 0.94069 0.0
C2215 C 0.95246 0.81858 0.93704 0.0
C2216 C 0.92559 0.83603 0.95758 0.0
C2217 C 0.95115 0.80146 0.95099 0.0
C2218 C 0.93707 0.80136 0.96777 0.0
C2219 C 0.90915 0.81795 0.98728 0.0
C2220 C 0.89578 0.83487 0.99037 0.0
C2221 C 0.92402 0.81841 0.97103 0.0
C2222 C 0.89787 0.8526 0.97733 0.0
C2223 C 0.91259 0.85316 0.96103 0.0
H2224 H 0.07486 0.16625 0.1258 0.0
H2225 H 0.03186 0.18588 0.07739 0.0
H2226 H 0.06076 0.18768 0.0519 0.0
H2227 H 0.0989 0.18746 0.0447 0.0
H2228 H 0.14214 0.17087 0.09424 0.0
H2229 H 0.11266 0.1644 0.11821 0.0
C2230 C 0.07175 0.17015 0.10947 0.0
C2231 C 0.05126 0.17531 0.10319 0.0
C2232 C 0.08862 0.17235 0.09538 0.0
C2233 C 0.04746 0.1813 0.08229 0.0
C2234 C 0.06402 0.18262 0.06787 0.0
C2235 C 0.10179 0.1823 0.06071 0.0
C2236 C 0.12264 0.17994 0.0678 0.0
C2237 C 0.08476 0.17883 0.07443 0.0
C2238 C 0.12626 0.17329 0.08859 0.0
C2239 C 0.1094 0.16936 0.10221 0.0
H2240 H 0.06332 0.80268 0.90892 0.0
H2241 H 0.05205 0.86905 0.90807 0.0
H2242 H 0.08503 0.87563 0.92751 0.0
H2243 H 0.1173 0.86231 0.94472 0.0
H2244 H 0.12831 0.79594 0.94425 0.0
H2245 H 0.09524 0.78959 0.92532 0.0
C2246 C 0.06798 0.81862 0.913 0.0
C2247 C 0.05512 0.83532 0.90712 0.0
C2248 C 0.08699 0.82228 0.92393 0.0
C2249 C 0.06161 0.85588 0.91241 0.0
C2250 C 0.08047 0.85965 0.92355 0.0
C2251 C 0.11234 0.84648 0.94055 0.0
C2252 C 0.12527 0.82961 0.94586 0.0
C2253 C 0.09329 0.84295 0.92942 0.0
C2254 C 0.1188 0.8092 0.94013 0.0
C2255 C 0.09983 0.80555 0.92939 0.0
H2256 H 0.17673 0.08443 0.95212 0.0
H2257 H 0.13969 0.13199 0.92275 0.0
H2258 H 0.1247 0.10612 0.89795 0.0
H2259 H 0.12677 0.07134 0.88159 0.0
H2260 H 0.16366 0.02368 0.91108 0.0
H2261 H 0.17361 0.04788 0.93955 0.0
C2262 C 0.16522 0.08892 0.94037 0.0
C2263 C 0.15964 0.10997 0.93864 0.0
C2264 C 0.15653 0.07393 0.92652 0.0
C2265 C 0.14432 0.11581 0.92391 0.0
C2266 C 0.13577 0.10107 0.90987 0.0
C2267 C 0.13612 0.06603 0.89483 0.0
C2268 C 0.1443 0.04583 0.89459 0.0
C2269 C 0.14226 0.08023 0.91064 0.0
C2270 C 0.15685 0.03908 0.91139 0.0
C2271 C 0.16285 0.05303 0.92738 0.0
H2272 H 0.96215 0.21165 0.9249 0.0
H2273 H 0.94833 0.14932 0.90167 0.0
H2274 H 0.91957 0.14541 0.92711 0.0
H2275 H 0.89775 0.16023 0.95567 0.0
H2276 H 0.91208 0.22286 0.97782 0.0
H2277 H 0.94101 0.22611 0.95301 0.0
C2278 C 0.95295 0.19713 0.92536 0.0
C2279 C 0.95752 0.1808 0.91133 0.0
C2280 C 0.93635 0.19509 0.93982 0.0
C2281 C 0.94526 0.16216 0.91226 0.0
C2282 C 0.92876 0.15993 0.92681 0.0
C2283 C 0.9073 0.17452 0.95513 0.0
C2284 C 0.90253 0.19134 0.96857 0.0
C2285 C 0.92408 0.17635 0.94064 0.0
C2286 C 0.91502 0.20981 0.96749 0.0
C2287 C 0.93173 0.21165 0.95336 0.0
H2288 H 0.81905 0.93931 0.98669 0.0
H2289 H 0.86614 0.89711 0.96481 0.0
H2290 H 0.87636 0.9218 0.93712 0.0
H2291 H 0.86855 0.95325 0.91626 0.0
H2292 H 0.82026 0.99451 0.93702 0.0
H2293 H 0.81413 0.97276 0.96826 0.0
C2294 C 0.8316 0.93564 0.97591 0.0
C2295 C 0.84163 0.91636 0.97762 0.0
C2296 C 0.83729 0.94986 0.95994 0.0
C2297 C 0.8582 0.9119 0.96384 0.0
C2298 C 0.86403 0.92598 0.94796 0.0
C2299 C 0.85735 0.95784 0.92814 0.0
C2300 C 0.8451 0.97549 0.92477 0.0
C2301 C 0.85334 0.94478 0.94554 0.0
C2302 C 0.83009 0.98111 0.93972 0.0
C2303 C 0.8264 0.96854 0.95737 0.0
H2304 H 0.97089 0.79851 0.11127 0.0
H2305 H 0.97366 0.86577 0.11803 0.0
H2306 H 0.93923 0.86823 0.10082 0.0
H2307 H 0.90811 0.85121 0.08459 0.0
H2308 H 0.90456 0.78397 0.07895 0.0
H2309 H 0.93946 0.78145 0.0954 0.0
C2310 C 0.96408 0.81373 0.10875 0.0
C2311 C 0.97492 0.83197 0.1157 0.0
C2312 C 0.94407 0.81497 0.09932 0.0
C2313 C 0.96568 0.85153 0.11272 0.0
C2314 C 0.94598 0.85293 0.10295 0.0
C2315 C 0.91506 0.83602 0.08682 0.0
C2316 C 0.90388 0.81779 0.08043 0.0
C2317 C 0.93501 0.83475 0.0963 0.0
C2318 C 0.91283 0.79818 0.08386 0.0
C2319 C 0.93281 0.79677 0.09312 0.0
H2320 H 0.21971 0.93885 0.05715 0.0
H2321 H 0.16045 0.9079 0.07181 0.0
H2322 H 0.15316 0.93501 0.09786 0.0
H2323 H 0.16442 0.96694 0.11742 0.0
H2324 H 0.22436 0.99681 0.10281 0.0
H2325 H 0.23063 0.97056 0.07597 0.0
C2326 C 0.20527 0.93785 0.06614 0.0
C2327 C 0.19076 0.92119 0.06261 0.0
C2328 C 0.20131 0.95334 0.08116 0.0
C2329 C 0.17186 0.92057 0.07409 0.0
C2330 C 0.16774 0.93603 0.08907 0.0
C2331 C 0.17878 0.96778 0.10825 0.0
C2332 C 0.19392 0.98384 0.1122 0.0
C2333 C 0.18243 0.95243 0.09285 0.0
C2334 C 0.21247 0.98461 0.10023 0.0
C2335 C 0.2161 0.96959 0.08483 0.0
H2336 H 0.87654 0.05286 0.13949 0.0
H2337 H 0.81813 0.01901 0.12662 0.0
H2338 H 0.80817 0.04547 0.10117 0.0
H2339 H 0.8153 0.07873 0.08295 0.0
H2340 H 0.87376 0.11254 0.09447 0.0
H2341 H 0.88444 0.0857 0.11976 0.0
C2342 C 0.8617 0.05122 0.13103 0.0
C2343 C 0.84811 0.0339 0.13517 0.0
C2344 C 0.85599 0.06657 0.11611 0.0
C2345 C 0.82897 0.03208 0.12391 0.0
C2346 C 0.82317 0.04727 0.1093 0.0
C2347 C 0.83034 0.08025 0.09105 0.0
C2348 C 0.84363 0.09769 0.08691 0.0
C2349 C 0.83643 0.06467 0.1054 0.0
C2350 C 0.86328 0.09921 0.09727 0.0
C2351 C 0.86935 0.0839 0.1118 0.0
H2352 H 0.14774 0.58457 0.65984 0.0
H2353 H 0.09678 0.53886 0.65924 0.0
H2354 H 0.07105 0.56714 0.65873 0.0
H2355 H 0.06364 0.60497 0.66392 0.0
H2356 H 0.11565 0.64963 0.66646 0.0
H2357 H 0.14049 0.62174 0.66079 0.0
C2358 C 0.13096 0.58085 0.65905 0.0
C2359 C 0.12401 0.55986 0.65961 0.0
C2360 C 0.11655 0.59702 0.65956 0.0
C2361 C 0.10237 0.55501 0.65859 0.0
C2362 C 0.08773 0.57117 0.65858 0.0
C2363 C 0.08038 0.60852 0.66285 0.0
C2364 C 0.0879 0.62922 0.66604 0.0
C2365 C 0.09468 0.59224 0.65991 0.0
C2366 C 0.1096 0.63374 0.6646 0.0
C2367 C 0.12378 0.61784 0.66122 0.0
H2368 H 0.97135 0.63254 0.6568 0.0
H2369 H 0.00347 0.61127 0.71277 0.0
H2370 H 0.97412 0.58735 0.72057 0.0
H2371 H 0.93868 0.57348 0.71253 0.0
H2372 H 0.90641 0.59379 0.65652 0.0
H2373 H 0.93645 0.61697 0.64763 0.0
C2374 C 0.97203 0.62251 0.67057 0.0
C2375 C 0.98959 0.62387 0.68424 0.0
C2376 C 0.95498 0.60872 0.67506 0.0
C2377 C 0.99017 0.61069 0.702 0.0
C2378 C 0.97334 0.597 0.70654 0.0
C2379 C 0.9382 0.58308 0.69845 0.0
C2380 C 0.92028 0.58218 0.68536 0.0
C2381 C 0.95554 0.59614 0.6934 0.0
C2382 C 0.92006 0.59428 0.66685 0.0
C2383 C 0.9372 0.60753 0.6618 0.0
H2384 H 0.94763 0.4228 0.6672 0.0
H2385 H 0.97023 0.44485 0.72762 0.0
H2386 H 0.95139 0.47729 0.72307 0.0
H2387 H 0.92501 0.49718 0.70439 0.0
H2388 H 0.90018 0.4753 0.64491 0.0
H2389 H 0.92391 0.44541 0.64608 0.0
C2390 C 0.94864 0.4349 0.67914 0.0
C2391 C 0.95987 0.43125 0.69796 0.0
C2392 C 0.93746 0.45355 0.67651 0.0
C2393 C 0.96118 0.44704 0.71331 0.0
C2394 C 0.95056 0.46567 0.71065 0.0
C2395 C 0.92525 0.48616 0.69139 0.0
C2396 C 0.91096 0.48829 0.67464 0.0
C2397 C 0.93815 0.46877 0.69267 0.0
C2398 C 0.9113 0.47404 0.65784 0.0
C2399 C 0.92461 0.4568 0.6587 0.0
H2400 H 0.10921 0.45916 0.66712 0.0
H2401 H 0.10169 0.47484 0.73287 0.0
H2402 H 0.07188 0.45059 0.73523 0.0
H2403 H 0.0489 0.4238 0.71943 0.0
H2404 H 0.05493 0.40841 0.65369 0.0
H2405 H 0.08397 0.43432 0.65038 0.0
C2406 C 0.10098 0.45759 0.68193 0.0
C2407 C 0.10818 0.46878 0.69987 0.0
C2408 C 0.08344 0.44376 0.68317 0.0
C2409 C 0.0971 0.46622 0.71888 0.0
C2410 C 0.07982 0.45242 0.72025 0.0
C2411 C 0.05644 0.42625 0.7043 0.0
C2412 C 0.04997 0.41416 0.68687 0.0
C2413 C 0.07306 0.44094 0.70261 0.0
C2414 C 0.05963 0.41765 0.66731 0.0
C2415 C 0.07632 0.43231 0.66548 0.0
H2416 H 0.07784 0.40141 0.37233 0.0
H2417 H 0.0554 0.42002 0.31099 0.0
H2418 H 0.0809 0.44899 0.31027 0.0
H2419 H 0.11042 0.46839 0.32615 0.0
H2420 H 0.13346 0.45076 0.38756 0.0
H2421 H 0.10686 0.42237 0.38927 0.0
C2422 C 0.07845 0.41196 0.35895 0.0
C2423 C 0.06492 0.40826 0.34159 0.0
C2424 C 0.09331 0.42879 0.3586 0.0
C2425 C 0.06592 0.4221 0.32433 0.0
C2426 C 0.08044 0.43881 0.32394 0.0
C2427 C 0.10964 0.45842 0.33997 0.0
C2428 C 0.12402 0.46169 0.35663 0.0
C2429 C 0.0944 0.44213 0.34082 0.0
C2430 C 0.12259 0.44864 0.37448 0.0
C2431 C 0.10739 0.43234 0.37545 0.0
H2432 H 0.11749 0.57861 0.38733 0.0
H2433 H 0.10863 0.53883 0.33311 0.0
H2434 H 0.07527 0.55563 0.32497 0.0
H2435 H 0.05049 0.58381 0.33144 0.0
H2436 H 0.05835 0.62293 0.38633 0.0
H2437 H 0.09003 0.60405 0.39635 0.0
C2438 C 0.10813 0.57362 0.37383 0.0
C2439 C 0.11557 0.55777 0.3606 0.0
C2440 C 0.08883 0.58318 0.36945 0.0
C2441 C 0.10317 0.55104 0.34342 0.0
C2442 C 0.08417 0.56066 0.33876 0.0
C2443 C 0.05892 0.58791 0.34583 0.0
C2444 C 0.05224 0.60486 0.35802 0.0
C2445 C 0.07707 0.57702 0.35142 0.0
C2446 C 0.06315 0.60992 0.37672 0.0
C2447 C 0.08138 0.59924 0.38234 0.0
H2448 H 0.96134 0.57422 0.31353 0.0
H2449 H 0.94113 0.61052 0.36653 0.0
H2450 H 0.91479 0.58318 0.3753 0.0
H2451 H 0.89651 0.54963 0.36673 0.0
H2452 H 0.9173 0.51372 0.31344 0.0
H2453 H 0.94436 0.54031 0.30592 0.0
C2454 C 0.95109 0.57621 0.32693 0.0
C2455 C 0.95297 0.59448 0.3392 0.0
C2456 C 0.93608 0.56051 0.3318 0.0
C2457 C 0.93998 0.59658 0.35687 0.0
C2458 C 0.92488 0.581 0.36181 0.0
C2459 C 0.90705 0.54755 0.35355 0.0
C2460 C 0.90472 0.52972 0.34058 0.0
C2461 C 0.92264 0.56298 0.34924 0.0
C2462 C 0.9186 0.52728 0.32364 0.0
C2463 C 0.9341 0.5425 0.31929 0.0
H2464 H 0.94168 0.37515 0.37083 0.0
H2465 H 0.98715 0.4262 0.36917 0.0
H2466 H 0.95853 0.45152 0.36958 0.0
H2467 H 0.92038 0.45855 0.36518 0.0
H2468 H 0.87562 0.40662 0.36519 0.0
H2469 H 0.90403 0.38218 0.37059 0.0
C2470 C 0.94526 0.39187 0.37122 0.0
C2471 C 0.96631 0.39895 0.37019 0.0
C2472 C 0.92881 0.40609 0.37065 0.0
C2473 C 0.97097 0.42052 0.37036 0.0
C2474 C 0.95461 0.43492 0.37029 0.0
C2475 C 0.91688 0.44192 0.36674 0.0
C2476 C 0.89595 0.43437 0.36435 0.0
C2477 C 0.93344 0.42785 0.36963 0.0
C2478 C 0.89162 0.41278 0.3664 0.0
C2479 C 0.90785 0.3988 0.36964 0.0
H2480 H 0.19648 0.64125 0.57026 0.0
H2481 H 0.14232 0.6124 0.53957 0.0
H2482 H 0.14429 0.58243 0.56391 0.0
H2483 H 0.16285 0.564 0.5931 0.0
H2484 H 0.21799 0.59346 0.62134 0.0
H2485 H 0.21437 0.62369 0.59839 0.0
C2486 C 0.18495 0.62851 0.56878 0.0
C2487 C 0.16928 0.62905 0.55306 0.0
C2488 C 0.18657 0.61137 0.58225 0.0
C2489 C 0.15452 0.61236 0.55157 0.0
C2490 C 0.15573 0.59523 0.56541 0.0
C2491 C 0.17397 0.57712 0.59416 0.0
C2492 C 0.19081 0.57646 0.60872 0.0
C2493 C 0.17189 0.59447 0.58067 0.0
C2494 C 0.20519 0.59345 0.60999 0.0
C2495 C 0.20303 0.61079 0.597 0.0
H2496 H 0.92055 0.70634 0.54246 0.0
H2497 H 0.90448 0.64144 0.55425 0.0
H2498 H 0.92885 0.64148 0.58459 0.0
H2499 H 0.95182 0.66158 0.60998 0.0
H2500 H 0.96512 0.7271 0.59807 0.0
H2501 H 0.9444 0.72536 0.56578 0.0
C2502 C 0.92257 0.69207 0.55148 0.0
C2503 C 0.91071 0.67396 0.54624 0.0
C2504 C 0.93577 0.69251 0.56917 0.0
C2505 C 0.91363 0.65553 0.55789 0.0
C2506 C 0.92733 0.65566 0.57538 0.0
C2507 C 0.95023 0.67536 0.60017 0.0
C2508 C 0.95964 0.69457 0.60662 0.0
C2509 C 0.93801 0.67429 0.58155 0.0
C2510 C 0.95757 0.71232 0.59378 0.0
C2511 C 0.9459 0.71129 0.57519 0.0
H2512 H 0.8669 0.46076 0.62016 0.0
H2513 H 0.79892 0.45979 0.62143 0.0
H2514 H 0.79764 0.43296 0.59424 0.0
H2515 H 0.8155 0.40825 0.57203 0.0
H2516 H 0.88337 0.40812 0.56994 0.0
H2517 H 0.88513 0.43724 0.59528 0.0
C2518 C 0.85185 0.45488 0.6142 0.0
C2519 C 0.833 0.46205 0.62301 0.0
C2520 C 0.85124 0.43926 0.59854 0.0
C2521 C 0.81361 0.45423 0.61522 0.0
C2522 C 0.81286 0.43895 0.59962 0.0
C2523 C 0.83073 0.41463 0.57702 0.0
C2524 C 0.84929 0.40592 0.56938 0.0
C2525 C 0.83154 0.43107 0.59153 0.0
C2526 C 0.86887 0.4146 0.57566 0.0
C2527 C 0.86984 0.43115 0.5902 0.0
H2528 H 0.132 0.32555 0.59399 0.0
H2529 H 0.0982 0.36882 0.55495 0.0
H2530 H 0.07106 0.37152 0.58235 0.0
H2531 H 0.05619 0.35956 0.61674 0.0
H2532 H 0.09163 0.31654 0.65484 0.0
H2533 H 0.11874 0.31551 0.62819 0.0
C2534 C 0.11871 0.33563 0.59136 0.0
C2535 C 0.11694 0.34675 0.57234 0.0
C2536 C 0.10336 0.33693 0.60695 0.0
C2537 C 0.09987 0.36007 0.56946 0.0
C2538 C 0.08434 0.3615 0.58508 0.0
C2539 C 0.06993 0.35013 0.61929 0.0
C2540 C 0.07157 0.33783 0.63774 0.0
C2541 C 0.08578 0.34972 0.6038 0.0
C2542 C 0.08954 0.3257 0.64067 0.0
C2543 C 0.10521 0.32523 0.62548 0.0
H2544 H 0.21501 0.39778 0.48586 0.0
H2545 H 0.14764 0.38895 0.47944 0.0
H2546 H 0.14798 0.41066 0.44769 0.0
H2547 H 0.16755 0.43193 0.42152 0.0
H2548 H 0.23491 0.44059 0.42843 0.0
H2549 H 0.23442 0.41881 0.45988 0.0
C2550 C 0.20034 0.40068 0.47763 0.0
C2551 C 0.18131 0.39178 0.48515 0.0
C2552 C 0.20067 0.41297 0.45927 0.0
C2553 C 0.16252 0.39561 0.4741 0.0
C2554 C 0.1627 0.408 0.45588 0.0
C2555 C 0.18211 0.42915 0.42994 0.0
C2556 C 0.20124 0.43796 0.42245 0.0
C2557 C 0.18171 0.41672 0.44828 0.0
C2558 C 0.21999 0.43385 0.43349 0.0
C2559 C 0.21971 0.42151 0.45166 0.0
H2560 H 0.07728 0.65479 0.40327 0.0
H2561 H 0.07399 0.72148 0.39399 0.0
H2562 H 0.0962 0.72763 0.42503 0.0
H2563 H 0.11723 0.71414 0.45418 0.0
H2564 H 0.12224 0.6474 0.4629 0.0
H2565 H 0.09863 0.64113 0.4328 0.0
C2566 C 0.08132 0.67062 0.40822 0.0
C2567 C 0.07404 0.68768 0.3964 0.0
C2568 C 0.09442 0.67401 0.42592 0.0
C2569 C 0.07959 0.70814 0.40275 0.0
C2570 C 0.09221 0.71165 0.42052 0.0
C2571 C 0.11307 0.6982 0.44964 0.0
C2572 C 0.12145 0.68128 0.46085 0.0
C2573 C 0.09983 0.69472 0.43214 0.0
C2574 C 0.11603 0.66073 0.45454 0.0
C2575 C 0.10252 0.65713 0.43733 0.0
H2576 H 0.86457 0.62453 0.46171 0.0
H2577 H 0.80131 0.61248 0.48425 0.0
H2578 H 0.79526 0.58678 0.45657 0.0
H2579 H 0.80736 0.56807 0.42561 0.0
H2580 H 0.87051 0.57875 0.40291 0.0
H2581 H 0.87723 0.60451 0.43101 0.0
C2582 C 0.84951 0.61619 0.46063 0.0
C2583 C 0.8334 0.62059 0.47506 0.0
C2584 C 0.84607 0.60123 0.44458 0.0
C2585 C 0.81401 0.60955 0.47341 0.0
C2586 C 0.81048 0.59482 0.45752 0.0
C2587 C 0.82253 0.57618 0.42669 0.0
C2588 C 0.83832 0.57176 0.41205 0.0
C2589 C 0.82628 0.59068 0.44293 0.0
C2590 C 0.85811 0.58195 0.414 0.0
C2591 C 0.86192 0.59667 0.43003 0.0
H2592 H 0.90983 0.31219 0.48748 0.0
H2593 H 0.89723 0.37803 0.48127 0.0
H2594 H 0.92 0.38012 0.45022 0.0
H2595 H 0.94202 0.36244 0.42351 0.0
H2596 H 0.95204 0.29621 0.42924 0.0
H2597 H 0.93184 0.29502 0.46187 0.0
C2598 C 0.91215 0.3271 0.47952 0.0
C2599 C 0.9018 0.34493 0.48675 0.0
C2600 C 0.92478 0.32805 0.4615 0.0
C2601 C 0.905 0.36405 0.47606 0.0
C2602 C 0.91799 0.36524 0.45828 0.0
C2603 C 0.93992 0.34789 0.43216 0.0
C2604 C 0.94843 0.32941 0.42412 0.0
C2605 C 0.92776 0.34725 0.45068 0.0
C2606 C 0.94547 0.31053 0.43516 0.0
C2607 C 0.93396 0.30987 0.45378 0.0
H2608 H 0.10891 0.66836 0.5586 0.0
H2609 H 0.10913 0.73585 0.555 0.0
H2610 H 0.07864 0.73661 0.57821 0.0
H2611 H 0.05402 0.71842 0.60163 0.0
H2612 H 0.05433 0.65105 0.60675 0.0
H2613 H 0.08212 0.64981 0.58014 0.0
C2614 C 0.10204 0.68321 0.56256 0.0
C2615 C 0.11139 0.70207 0.5552 0.0
C2616 C 0.08462 0.68351 0.5761 0.0
C2617 C 0.10245 0.72118 0.56073 0.0
C2618 C 0.08496 0.7216 0.5739 0.0
C2619 C 0.05994 0.70341 0.59674 0.0
C2620 C 0.05226 0.68486 0.60625 0.0
C2621 C 0.07624 0.70291 0.58201 0.0
C2622 C 0.05994 0.66554 0.5996 0.0
C2623 C 0.07595 0.66486 0.58454 0.0
H2624 H 0.0581 0.35498 0.41002 0.0
H2625 H 0.02653 0.29663 0.42666 0.0
H2626 H 0.05237 0.29068 0.45417 0.0
H2627 H 0.08416 0.30139 0.4734 0.0
H2628 H 0.11656 0.3593 0.45746 0.0
H2629 H 0.09018 0.36614 0.43016 0.0
C2630 C 0.05685 0.34104 0.41974 0.0
C2631 C 0.04038 0.32626 0.41608 0.0
C2632 C 0.07195 0.33757 0.43575 0.0
C2633 C 0.03904 0.30826 0.4289 0.0
C2634 C 0.05385 0.30479 0.44473 0.0
C2635 C 0.0856 0.31543 0.46386 0.0
C2636 C 0.10244 0.3297 0.46745 0.0
C2637 C 0.07044 0.31921 0.4482 0.0
C2638 C 0.1037 0.34808 0.45519 0.0
C2639 C 0.08865 0.35196 0.43948 0.0
H2640 H 0.20667 0.58328 0.47906 0.0
H2641 H 0.15613 0.6132 0.44591 0.0
H2642 H 0.14749 0.58053 0.42739 0.0
H2643 H 0.15724 0.54482 0.41753 0.0
H2644 H 0.20949 0.51596 0.4489 0.0
H2645 H 0.21405 0.54645 0.47184 0.0
C2646 C 0.19378 0.5826 0.46779 0.0
C2647 C 0.1823 0.60067 0.46356 0.0
C2648 C 0.189 0.56383 0.45716 0.0
C2649 C 0.16524 0.59948 0.44934 0.0
C2650 C 0.16029 0.58081 0.43877 0.0
C2651 C 0.16908 0.54494 0.42993 0.0
C2652 C 0.18298 0.52824 0.43168 0.0
C2653 C 0.17235 0.56301 0.44222 0.0
C2654 C 0.19853 0.52864 0.44749 0.0
C2655 C 0.20133 0.54618 0.46037 0.0
H2656 H 0.93498 0.70933 0.45114 0.0
H2657 H 0.90338 0.65029 0.43799 0.0
H2658 H 0.93049 0.64206 0.41203 0.0
H2659 H 0.96265 0.65263 0.39191 0.0
H2660 H 0.99336 0.71216 0.40597 0.0
H2661 H 0.96712 0.71918 0.4325 0.0
C2662 C 0.93389 0.69472 0.44251 0.0
C2663 C 0.917 0.68059 0.44633 0.0
C2664 C 0.94943 0.69017 0.42767 0.0
C2665 C 0.91623 0.66144 0.43538 0.0
C2666 C 0.93169 0.65678 0.42047 0.0
C2667 C 0.96366 0.66705 0.4009 0.0
C2668 C 0.97997 0.68189 0.39673 0.0
C2669 C 0.94832 0.67114 0.41632 0.0
C2670 C 0.98098 0.70049 0.4086 0.0
C2671 C 0.96595 0.70457 0.42386 0.0
H2672 H 0.86116 0.41641 0.4672 0.0
H2673 H 0.79963 0.43366 0.48884 0.0
H2674 H 0.80075 0.46455 0.46642 0.0
H2675 H 0.81719 0.48433 0.43784 0.0
H2676 H 0.8783 0.46734 0.41512 0.0
H2677 H 0.87979 0.43919 0.44135 0.0
C2678 C 0.84819 0.42714 0.46727 0.0
C2679 C 0.8301 0.42242 0.4793 0.0
C2680 C 0.84891 0.44497 0.45422 0.0
C2681 C 0.81343 0.43652 0.47925 0.0
C2682 C 0.81413 0.45432 0.46656 0.0
C2683 C 0.83106 0.47476 0.43895 0.0
C2684 C 0.8475 0.47774 0.4245 0.0
C2685 C 0.83148 0.45834 0.45355 0.0
C2686 C 0.86547 0.4654 0.42617 0.0
C2687 C 0.86619 0.44914 0.44099 0.0
H2688 H 0.90941 0.36403 0.58914 0.0
H2689 H 0.91574 0.29787 0.57827 0.0
H2690 H 0.94726 0.29766 0.60053 0.0
H2691 H 0.972 0.31583 0.62421 0.0
H2692 H 0.96512 0.38174 0.63668 0.0
H2693 H 0.93501 0.38259 0.61246 0.0
C2694 C 0.91788 0.34966 0.59148 0.0
C2695 C 0.91025 0.33096 0.58215 0.0
C2696 C 0.93584 0.34962 0.60459 0.0
C2697 C 0.92118 0.31238 0.58551 0.0
C2698 C 0.93923 0.31228 0.59815 0.0
C2699 C 0.96409 0.33047 0.62152 0.0
C2700 C 0.97086 0.3487 0.63227 0.0
C2701 C 0.94656 0.33074 0.60796 0.0
C2702 C 0.96025 0.36746 0.62864 0.0
C2703 C 0.943 0.36795 0.61481 0.0
H2704 H 0.21515 0.46378 0.6199 0.0
H2705 H 0.14783 0.46519 0.6288 0.0
H2706 H 0.14335 0.43359 0.60715 0.0
H2707 H 0.15896 0.40489 0.58637 0.0
H2708 H 0.22639 0.40383 0.57892 0.0
H2709 H 0.23043 0.43601 0.59932 0.0
C2710 C 0.19943 0.45729 0.61712 0.0
C2711 C 0.18186 0.4669 0.62599 0.0
C2712 C 0.19702 0.43912 0.6049 0.0
C2713 C 0.16165 0.45814 0.62217 0.0
C2714 C 0.15908 0.44006 0.60979 0.0
C2715 C 0.17446 0.41189 0.58909 0.0
C2716 C 0.19238 0.40198 0.58123 0.0
C2717 C 0.17669 0.43035 0.60113 0.0
C2718 C 0.21243 0.41103 0.58503 0.0
C2719 C 0.21473 0.42945 0.59663 0.0
H2720 H 0.86488 0.6202 0.57697 0.0
H2721 H 0.7976 0.61879 0.56759 0.0
H2722 H 0.79403 0.58834 0.5908 0.0
H2723 H 0.80989 0.56264 0.61457 0.0
H2724 H 0.87699 0.56517 0.62584 0.0
H2725 H 0.88082 0.59448 0.60123 0.0
C2726 C 0.84951 0.61306 0.57993 0.0
C2727 C 0.83152 0.62169 0.57059 0.0
C2728 C 0.84754 0.59579 0.59372 0.0
C2729 C 0.81163 0.61251 0.57474 0.0
C2730 C 0.8096 0.59507 0.58797 0.0
C2731 C 0.82538 0.56951 0.61154 0.0
C2732 C 0.84312 0.56165 0.62203 0.0
C2733 C 0.82742 0.58665 0.59768 0.0
C2734 C 0.86304 0.57094 0.61808 0.0
C2735 C 0.86526 0.5877 0.60395 0.0
H2736 H 0.56237 0.09493 0.64892 0.0
H2737 H 0.60157 0.14024 0.68194 0.0
H2738 H 0.63213 0.11828 0.67763 0.0
H2739 H 0.6468 0.08518 0.66781 0.0
H2740 H 0.60826 0.03765 0.63718 0.0
H2741 H 0.57838 0.06159 0.6366 0.0
C2742 C 0.57771 0.09993 0.65489 0.0
C2743 C 0.57982 0.11896 0.666 0.0
C2744 C 0.59519 0.08686 0.65278 0.0
C2745 C 0.59965 0.12547 0.6737 0.0
C2746 C 0.61708 0.11298 0.67116 0.0
C2747 C 0.63192 0.08005 0.66079 0.0
C2748 C 0.6296 0.05961 0.65282 0.0
C2749 C 0.61489 0.09347 0.66125 0.0
C2750 C 0.61039 0.05335 0.64341 0.0
C2751 C 0.5933 0.06697 0.64328 0.0
H2752 H 0.4032 0.08466 0.6585 0.0
H2753 H 0.41334 0.0756 0.72515 0.0
H2754 H 0.44551 0.09702 0.72361 0.0
H2755 H 0.47106 0.11778 0.70355 0.0
H2756 H 0.46153 0.12763 0.63694 0.0
H2757 H 0.42901 0.10614 0.6382 0.0
C2758 C 0.4125 0.08731 0.67266 0.0
C2759 C 0.40573 0.07851 0.69194 0.0
C2760 C 0.43118 0.09964 0.67165 0.0
C2761 C 0.41788 0.08238 0.71018 0.0
C2762 C 0.43643 0.09451 0.70928 0.0
C2763 C 0.46198 0.11521 0.68922 0.0
C2764 C 0.46886 0.12423 0.67013 0.0
C2765 C 0.44326 0.10312 0.69012 0.0
C2766 C 0.45669 0.12081 0.65182 0.0
C2767 C 0.43806 0.10856 0.65256 0.0
H2768 H 0.448 0.92416 0.66345 0.0
H2769 H 0.46151 0.93927 0.72845 0.0
H2770 H 0.44098 0.97075 0.7256 0.0
H2771 H 0.4158 0.99158 0.70626 0.0
H2772 H 0.40123 0.97736 0.64145 0.0
H2773 H 0.42603 0.94842 0.64229 0.0
C2774 C 0.44668 0.93455 0.67683 0.0
C2775 C 0.45577 0.92901 0.69632 0.0
C2776 C 0.43471 0.95281 0.6751 0.0
C2777 C 0.45409 0.94273 0.7135 0.0
C2778 C 0.4425 0.96087 0.71185 0.0
C2779 C 0.41845 0.98246 0.69215 0.0
C2780 C 0.40659 0.98637 0.67392 0.0
C2781 C 0.43223 0.9657 0.69297 0.0
C2782 C 0.41024 0.97463 0.65567 0.0
C2783 C 0.42424 0.95794 0.65625 0.0
H2784 H 0.56348 0.90565 0.65806 0.0
H2785 H 0.52767 0.93678 0.70561 0.0
H2786 H 0.55461 0.96466 0.70806 0.0
H2787 H 0.59021 0.97779 0.69984 0.0
H2788 H 0.62702 0.94623 0.65338 0.0
H2789 H 0.59802 0.92094 0.64726 0.0
C2790 C 0.56133 0.91898 0.66834 0.0
C2791 C 0.54363 0.91945 0.68146 0.0
C2792 C 0.57733 0.93453 0.67026 0.0
C2793 C 0.54114 0.93637 0.69521 0.0
C2794 C 0.55663 0.95215 0.69679 0.0
C2795 C 0.59184 0.96536 0.6884 0.0
C2796 C 0.6108 0.96364 0.67735 0.0
C2797 C 0.57514 0.95095 0.685 0.0
C2798 C 0.61256 0.9478 0.66214 0.0
C2799 C 0.596 0.93334 0.65864 0.0
H2800 H 0.58027 0.89135 0.36044 0.0
H2801 H 0.56361 0.89894 0.29495 0.0
H2802 H 0.5873 0.92934 0.29234 0.0
H2803 H 0.61269 0.95404 0.3085 0.0
H2804 H 0.62974 0.94675 0.37395 0.0
H2805 H 0.60598 0.91625 0.37672 0.0
C2806 C 0.58177 0.89973 0.34565 0.0
C2807 C 0.57023 0.89269 0.3279 0.0
C2808 C 0.59551 0.91735 0.34422 0.0
C2809 C 0.57253 0.90368 0.30878 0.0
C2810 C 0.586 0.92122 0.30729 0.0
C2811 C 0.61122 0.94582 0.3234 0.0
C2812 C 0.62303 0.95278 0.34097 0.0
C2813 C 0.59759 0.9282 0.32488 0.0
C2814 C 0.62091 0.94181 0.36012 0.0
C2815 C 0.60728 0.92432 0.36174 0.0
H2816 H 0.61044 0.0563 0.36452 0.0
H2817 H 0.60845 0.04866 0.29703 0.0
H2818 H 0.57864 0.07188 0.29465 0.0
H2819 H 0.5552 0.09646 0.31113 0.0
H2820 H 0.55688 0.10544 0.3784 0.0
H2821 H 0.58437 0.07916 0.38162 0.0
C2822 C 0.60322 0.05947 0.34937 0.0
C2823 C 0.61184 0.05099 0.33092 0.0
C2824 C 0.58606 0.07305 0.3481 0.0
C2825 C 0.6024 0.05532 0.31138 0.0
C2826 C 0.58529 0.06851 0.31002 0.0
C2827 C 0.56138 0.09251 0.32656 0.0
C2828 C 0.55416 0.10297 0.34447 0.0
C2829 C 0.57733 0.07781 0.32818 0.0
C2830 C 0.56213 0.09751 0.36438 0.0
C2831 C 0.57797 0.08263 0.36618 0.0
H2832 H 0.46053 0.08455 0.30086 0.0
H2833 H 0.44673 0.11001 0.3619 0.0
H2834 H 0.42113 0.08138 0.36824 0.0
H2835 H 0.40212 0.04925 0.35587 0.0
H2836 H 0.4169 0.02437 0.2946 0.0
H2837 H 0.4425 0.05258 0.28896 0.0
C2838 C 0.45177 0.08395 0.31546 0.0
C2839 C 0.45539 0.09944 0.33078 0.0
C2840 C 0.43724 0.06747 0.319 0.0
C2841 C 0.44428 0.09819 0.34987 0.0
C2842 C 0.4296 0.08186 0.35348 0.0
C2843 C 0.41104 0.04997 0.34137 0.0
C2844 C 0.40744 0.03473 0.32567 0.0
C2845 C 0.42591 0.06639 0.33811 0.0
C2846 C 0.41917 0.0359 0.30695 0.0
C2847 C 0.43387 0.05207 0.30364 0.0
H2848 H 0.4816 0.90201 0.31763 0.0
H2849 H 0.47405 0.89529 0.38473 0.0
H2850 H 0.44653 0.92167 0.38421 0.0
H2851 H 0.42074 0.94199 0.36344 0.0
H2852 H 0.42722 0.94582 0.29602 0.0
H2853 H 0.45905 0.92516 0.29776 0.0
C2854 C 0.47425 0.90668 0.33223 0.0
C2855 C 0.47957 0.89664 0.35113 0.0
C2856 C 0.45799 0.92103 0.33161 0.0
C2857 C 0.47021 0.90292 0.36999 0.0
C2858 C 0.45431 0.91779 0.36964 0.0
C2859 C 0.42946 0.93863 0.34926 0.0
C2860 C 0.42161 0.94507 0.32957 0.0
C2861 C 0.44746 0.92625 0.35038 0.0
C2862 C 0.43287 0.94064 0.31124 0.0
C2863 C 0.45105 0.92892 0.31225 0.0
H2864 H 0.66716 0.06679 0.59677 0.0
H2865 H 0.73474 0.06368 0.59208 0.0
H2866 H 0.73387 0.08315 0.55893 0.0
H2867 H 0.71445 0.10364 0.53341 0.0
H2868 H 0.64713 0.10954 0.53911 0.0
H2869 H 0.64715 0.08568 0.56941 0.0
C2870 C 0.68161 0.07008 0.58824 0.0
C2871 C 0.70103 0.06396 0.59682 0.0
C2872 C 0.68098 0.08168 0.56944 0.0
C2873 C 0.7197 0.06851 0.58585 0.0
C2874 C 0.71917 0.07953 0.5669 0.0
C2875 C 0.69968 0.09951 0.54106 0.0
C2876 C 0.68084 0.1085 0.53415 0.0
C2877 C 0.69998 0.0866 0.55885 0.0
C2878 C 0.66184 0.1028 0.54411 0.0
C2879 C 0.6619 0.08932 0.56154 0.0
H2880 H 0.4449 0.16505 0.60083 0.0
H2881 H 0.4645 0.22815 0.58434 0.0
H2882 H 0.43908 0.22828 0.5556 0.0
H2883 H 0.41143 0.21081 0.53499 0.0
H2884 H 0.39145 0.14758 0.55039 0.0
H2885 H 0.41701 0.14711 0.57948 0.0
C2886 C 0.4437 0.17875 0.59085 0.0
C2887 C 0.45657 0.19663 0.59497 0.0
C2888 C 0.429 0.17871 0.57409 0.0
C2889 C 0.45461 0.21432 0.58193 0.0
C2890 C 0.44014 0.21437 0.56532 0.0
C2891 C 0.41259 0.19687 0.54467 0.0
C2892 C 0.39948 0.17926 0.54047 0.0
C2893 C 0.42724 0.19672 0.5613 0.0
C2894 C 0.40134 0.16136 0.55322 0.0
C2895 C 0.41595 0.16109 0.56988 0.0
H2896 H 0.37394 0.90466 0.56352 0.0
H2897 H 0.31195 0.91265 0.53697 0.0
H2898 H 0.30518 0.94053 0.562 0.0
H2899 H 0.31503 0.95946 0.59418 0.0
H2900 H 0.37656 0.95183 0.62151 0.0
H2901 H 0.3855 0.92711 0.59357 0.0
C2902 C 0.35927 0.91301 0.56286 0.0
C2903 C 0.34342 0.90664 0.54854 0.0
C2904 C 0.35524 0.92876 0.57773 0.0
C2905 C 0.32432 0.9173 0.54796 0.0
C2906 C 0.32037 0.93313 0.56234 0.0
C2907 C 0.33043 0.95246 0.59384 0.0
C2908 C 0.34502 0.95712 0.60989 0.0
C2909 C 0.33538 0.93841 0.57778 0.0
C2910 C 0.36511 0.94837 0.60922 0.0
C2911 C 0.37018 0.93423 0.59331 0.0
H2912 H 0.63438 0.83181 0.58948 0.0
H2913 H 0.59433 0.86505 0.54656 0.0
H2914 H 0.56811 0.86899 0.57471 0.0
H2915 H 0.55567 0.86013 0.61109 0.0
H2916 H 0.59737 0.82718 0.65292 0.0
H2917 H 0.62377 0.82584 0.62555 0.0
C2918 C 0.61994 0.84001 0.58623 0.0
C2919 C 0.61609 0.84782 0.56592 0.0
C2920 C 0.60515 0.84205 0.60229 0.0
C2921 C 0.59758 0.85884 0.56209 0.0
C2922 C 0.58258 0.86097 0.57816 0.0
C2923 C 0.57063 0.8529 0.61424 0.0
C2924 C 0.57426 0.84331 0.63398 0.0
C2925 C 0.58602 0.85223 0.59826 0.0
C2926 C 0.59382 0.83409 0.63778 0.0
C2927 C 0.60905 0.83345 0.62216 0.0
H2928 H 0.65798 0.88678 0.46876 0.0
H2929 H 0.71634 0.90642 0.49893 0.0
H2930 H 0.72272 0.93225 0.47143 0.0
H2931 H 0.71254 0.94875 0.43834 0.0
H2932 H 0.6546 0.92961 0.40742 0.0
H2933 H 0.64717 0.90438 0.43566 0.0
C2934 C 0.67197 0.89685 0.46939 0.0
C2935 C 0.6867 0.89452 0.48588 0.0
C2936 C 0.67571 0.91176 0.45332 0.0
C2937 C 0.70479 0.90769 0.48639 0.0
C2938 C 0.7085 0.92252 0.47064 0.0
C2939 C 0.69836 0.93897 0.43767 0.0
C2940 C 0.68426 0.94099 0.42069 0.0
C2941 C 0.69423 0.92452 0.45391 0.0
C2942 C 0.66569 0.92848 0.42036 0.0
C2943 C 0.66148 0.91397 0.43648 0.0
H2944 H 0.62279 0.15147 0.46175 0.0
H2945 H 0.61183 0.21566 0.47899 0.0
H2946 H 0.58863 0.21952 0.44849 0.0
H2947 H 0.57288 0.20519 0.41578 0.0
H2948 H 0.58293 0.14084 0.39922 0.0
H2949 H 0.60515 0.13648 0.43052 0.0
C2950 C 0.61517 0.16625 0.45896 0.0
C2951 C 0.61917 0.18328 0.47258 0.0
C2952 C 0.60186 0.16839 0.44138 0.0
C2953 C 0.60902 0.20227 0.46881 0.0
C2954 C 0.59585 0.20455 0.45128 0.0
C2955 C 0.58001 0.19028 0.41909 0.0
C2956 C 0.57653 0.17342 0.40521 0.0
C2957 C 0.59245 0.18783 0.43726 0.0
C2958 C 0.58543 0.15399 0.40977 0.0
C2959 C 0.59813 0.15153 0.4276 0.0
H2960 H 0.32117 0.0978 0.46553 0.0
H2961 H 0.38594 0.11454 0.45268 0.0
H2962 H 0.38731 0.08647 0.4262 0.0
H2963 H 0.36829 0.06006 0.40384 0.0
H2964 H 0.30336 0.04406 0.41791 0.0
H2965 H 0.30379 0.06908 0.4466 0.0
C2966 C 0.33574 0.09496 0.45724 0.0
C2967 C 0.3534 0.10809 0.46092 0.0
C2968 C 0.3362 0.07924 0.44194 0.0
C2969 C 0.37222 0.10438 0.45022 0.0
C2970 C 0.37289 0.08853 0.43492 0.0
C2971 C 0.35436 0.06182 0.41338 0.0
C2972 C 0.33563 0.0505 0.40824 0.0
C2973 C 0.35472 0.07629 0.43017 0.0
C2974 C 0.31776 0.05298 0.42091 0.0
C2975 C 0.31803 0.06718 0.43753 0.0
H2976 H 0.40544 0.86314 0.4739 0.0
H2977 H 0.41879 0.80145 0.49784 0.0
H2978 H 0.44126 0.795 0.46785 0.0
H2979 H 0.45527 0.80564 0.43347 0.0
H2980 H 0.44404 0.86752 0.40978 0.0
H2981 H 0.42273 0.87523 0.44094 0.0
C2982 C 0.41349 0.8484 0.47269 0.0
C2983 C 0.41016 0.83275 0.48808 0.0
C2984 C 0.42666 0.84475 0.45533 0.0
C2985 C 0.42089 0.8138 0.48628 0.0
C2986 C 0.43374 0.81001 0.46905 0.0
C2987 C 0.44823 0.82083 0.43529 0.0
C2988 C 0.45089 0.83592 0.4194 0.0
C2989 C 0.43639 0.82516 0.45329 0.0
C2990 C 0.44209 0.85572 0.42192 0.0
C2991 C 0.42989 0.86006 0.43966 0.0
H2992 H 0.60514 0.16465 0.5463 0.0
H2993 H 0.64675 0.18221 0.59773 0.0
H2994 H 0.61745 0.17985 0.62218 0.0
H2995 H 0.57985 0.17566 0.62861 0.0
H2996 H 0.53733 0.15846 0.57809 0.0
H2997 H 0.56728 0.15706 0.55362 0.0
C2998 C 0.60786 0.16766 0.56289 0.0
C2999 C 0.62815 0.17399 0.57006 0.0
C3000 C 0.59082 0.16623 0.57699 0.0
C3001 C 0.6313 0.17787 0.59164 0.0
C3002 C 0.61456 0.17635 0.60569 0.0
C3003 C 0.57719 0.17132 0.61227 0.0
C3004 C 0.55654 0.16734 0.605 0.0
C3005 C 0.59425 0.17101 0.59847 0.0
C3006 C 0.55318 0.16148 0.58396 0.0
C3007 C 0.57026 0.1609 0.57 0.0
H3008 H 0.56072 0.8492 0.40251 0.0
H3009 H 0.52934 0.79212 0.42341 0.0
H3010 H 0.55567 0.78788 0.45081 0.0
H3011 H 0.58778 0.79969 0.46867 0.0
H3012 H 0.61992 0.85647 0.44877 0.0
H3013 H 0.59306 0.86164 0.42142 0.0
C3014 C 0.55962 0.83591 0.41313 0.0
C3015 C 0.54308 0.82096 0.41073 0.0
C3016 C 0.57496 0.83346 0.42906 0.0
C3017 C 0.5419 0.80384 0.4247 0.0
C3018 C 0.55698 0.80135 0.44045 0.0
C3019 C 0.58905 0.8131 0.45824 0.0
C3020 C 0.60594 0.82753 0.46061 0.0
C3021 C 0.57364 0.81593 0.44267 0.0
C3022 C 0.60702 0.84515 0.4473 0.0
C3023 C 0.59171 0.84806 0.43162 0.0
H3024 H 0.66341 0.09142 0.45994 0.0
H3025 H 0.68412 0.12809 0.40659 0.0
H3026 H 0.67611 0.09863 0.38308 0.0
H3027 H 0.66862 0.06128 0.37869 0.0
H3028 H 0.65191 0.02304 0.43218 0.0
H3029 H 0.652 0.05436 0.45472 0.0
C3030 C 0.66571 0.09301 0.44311 0.0
C3031 C 0.67456 0.11174 0.43492 0.0
C3032 C 0.66167 0.07575 0.42983 0.0
C3033 C 0.67766 0.11367 0.41316 0.0
C3034 C 0.67299 0.0969 0.39977 0.0
C3035 C 0.6643 0.05998 0.39517 0.0
C3036 C 0.66016 0.04011 0.40389 0.0
C3037 C 0.66572 0.0777 0.40805 0.0
C3038 C 0.6548 0.03832 0.42519 0.0
C3039 C 0.65522 0.05616 0.43807 0.0
H3040 H 0.48401 0.19932 0.41271 0.0
H3041 H 0.47087 0.13612 0.39158 0.0
H3042 H 0.4392 0.1344 0.4133 0.0
H3043 H 0.41382 0.15189 0.43661 0.0
H3044 H 0.42653 0.21561 0.45592 0.0
H3045 H 0.45979 0.21608 0.43678 0.0
C3046 C 0.47439 0.18506 0.41299 0.0
C3047 C 0.47981 0.16792 0.40042 0.0
C3048 C 0.456 0.18433 0.42517 0.0
C3049 C 0.46704 0.14961 0.40099 0.0
C3050 C 0.44889 0.14861 0.41342 0.0
C3051 C 0.42408 0.16571 0.4368 0.0
C3052 C 0.41776 0.18374 0.44752 0.0
C3053 C 0.44302 0.166 0.42532 0.0
C3054 C 0.43102 0.20167 0.44754 0.0
C3055 C 0.45003 0.20192 0.43665 0.0
H3056 H 0.3633 0.9171 0.46361 0.0
H3057 H 0.32347 0.87554 0.42653 0.0
H3058 H 0.32791 0.89824 0.39593 0.0
H3059 H 0.34041 0.93083 0.38072 0.0
H3060 H 0.37882 0.97431 0.41704 0.0
H3061 H 0.37818 0.94967 0.44697 0.0
C3062 C 0.3559 0.91299 0.4487 0.0
C3063 C 0.34285 0.89486 0.44728 0.0
C3064 C 0.35823 0.92641 0.43121 0.0
C3065 C 0.33324 0.88961 0.428 0.0
C3066 C 0.33585 0.90252 0.41053 0.0
C3067 C 0.34876 0.93498 0.39515 0.0
C3068 C 0.35934 0.95448 0.39687 0.0
C3069 C 0.34785 0.92114 0.41213 0.0
C3070 C 0.3705 0.95938 0.41543 0.0
C3071 C 0.37 0.94536 0.43252 0.0
H3072 H 0.41648 0.81134 0.58643 0.0
H3073 H 0.40271 0.87699 0.58555 0.0
H3074 H 0.43274 0.88444 0.60917 0.0
H3075 H 0.4626 0.87184 0.63078 0.0
H3076 H 0.47668 0.80599 0.62974 0.0
H3077 H 0.44703 0.79911 0.60623 0.0
C3078 C 0.42004 0.82724 0.59152 0.0
C3079 C 0.40736 0.84356 0.5845 0.0
C3080 C 0.43746 0.83137 0.60473 0.0
C3081 C 0.41234 0.8642 0.59079 0.0
C3082 C 0.42945 0.86842 0.6043 0.0
C3083 C 0.45924 0.85603 0.62529 0.0
C3084 C 0.47189 0.83949 0.63216 0.0
C3085 C 0.44212 0.8521 0.61146 0.0
C3086 C 0.46732 0.81909 0.62478 0.0
C3087 C 0.45027 0.81506 0.61134 0.0
H3088 H 0.71679 0.9077 0.58158 0.0
H3089 H 0.64912 0.90107 0.58034 0.0
H3090 H 0.64608 0.93381 0.60005 0.0
H3091 H 0.66288 0.96433 0.61792 0.0
H3092 H 0.73075 0.9712 0.61771 0.0
H3093 H 0.73346 0.93857 0.59835 0.0
C3094 C 0.70142 0.91342 0.58575 0.0
C3095 C 0.68324 0.90202 0.57961 0.0
C3096 C 0.69982 0.93238 0.59677 0.0
C3097 C 0.66335 0.90971 0.58479 0.0
C3098 C 0.66162 0.92838 0.5961 0.0
C3099 C 0.67824 0.95872 0.61356 0.0
C3100 C 0.69655 0.97027 0.61934 0.0
C3101 C 0.67976 0.93989 0.60218 0.0
C3102 C 0.71634 0.96275 0.61348 0.0
C3103 C 0.71796 0.944 0.60243 0.0
H3104 H 0.3524 0.11349 0.56829 0.0
H3105 H 0.29344 0.09012 0.54226 0.0
H3106 H 0.29211 0.06231 0.56846 0.0
H3107 H 0.30719 0.04473 0.59897 0.0
H3108 H 0.3661 0.06751 0.62562 0.0
H3109 H 0.36802 0.0952 0.59893 0.0
C3110 C 0.33937 0.1022 0.56827 0.0
C3111 C 0.32295 0.10409 0.55337 0.0
C3112 C 0.33866 0.0861 0.58352 0.0
C3113 C 0.30609 0.08937 0.55372 0.0
C3114 C 0.30536 0.07333 0.56865 0.0
C3115 C 0.32051 0.05569 0.59899 0.0
C3116 C 0.33645 0.05398 0.61436 0.0
C3117 C 0.32146 0.07161 0.5837 0.0
C3118 C 0.35357 0.06841 0.61401 0.0
C3119 C 0.35468 0.08428 0.59874 0.0
H3120 H 0.56368 0.5787 0.18264 0.0
H3121 H 0.58736 0.62043 0.13464 0.0
H3122 H 0.61265 0.59413 0.12353 0.0
H3123 H 0.63151 0.56146 0.13168 0.0
H3124 H 0.60748 0.52022 0.18009 0.0
H3125 H 0.57833 0.54361 0.18643 0.0
C3126 C 0.57417 0.58177 0.16952 0.0
C3127 C 0.57408 0.60144 0.15968 0.0
C3128 C 0.58844 0.56657 0.16324 0.0
C3129 C 0.58738 0.60534 0.14246 0.0
C3130 C 0.60181 0.59035 0.13618 0.0
C3131 C 0.61929 0.55717 0.14286 0.0
C3132 C 0.62139 0.53908 0.15526 0.0
C3133 C 0.60295 0.57114 0.14692 0.0
C3134 C 0.60589 0.53393 0.17018 0.0
C3135 C 0.58942 0.54746 0.17402 0.0
H3136 H 0.41018 0.56939 0.17088 0.0
H3137 H 0.43011 0.55134 0.23331 0.0
H3138 H 0.46067 0.5749 0.23087 0.0
H3139 H 0.48178 0.60039 0.21136 0.0
H3140 H 0.46258 0.61943 0.14902 0.0
H3141 H 0.43186 0.59543 0.15095 0.0
C3142 C 0.42128 0.57055 0.18389 0.0
C3143 C 0.4177 0.55864 0.20232 0.0
C3144 C 0.439 0.58419 0.18236 0.0
C3145 C 0.43217 0.56052 0.21911 0.0
C3146 C 0.44978 0.57389 0.21767 0.0
C3147 C 0.47098 0.59932 0.19808 0.0
C3148 C 0.47457 0.61169 0.18003 0.0
C3149 C 0.45334 0.58577 0.19941 0.0
C3150 C 0.46026 0.61005 0.16308 0.0
C3151 C 0.44267 0.59636 0.16421 0.0
H3152 H 0.46262 0.41141 0.16349 0.0
H3153 H 0.47903 0.42742 0.22776 0.0
H3154 H 0.45431 0.45573 0.22702 0.0
H3155 H 0.42564 0.47386 0.20969 0.0
H3156 H 0.40908 0.45941 0.14538 0.0
H3157 H 0.43674 0.43315 0.14432 0.0
C3158 C 0.46108 0.42124 0.17724 0.0
C3159 C 0.47244 0.41668 0.19588 0.0
C3160 C 0.44685 0.43792 0.17669 0.0
C3161 C 0.47014 0.42987 0.21343 0.0
C3162 C 0.45609 0.4463 0.21299 0.0
C3163 C 0.42841 0.46529 0.19526 0.0
C3164 C 0.41526 0.46842 0.17771 0.0
C3165 C 0.44402 0.45013 0.19493 0.0
C3166 C 0.41905 0.45735 0.15908 0.0
C3167 C 0.43473 0.44217 0.15858 0.0
H3168 H 0.60344 0.46293 0.18808 0.0
H3169 H 0.64586 0.43126 0.14699 0.0
H3170 H 0.61847 0.40454 0.13909 0.0
H3171 H 0.58365 0.3884 0.14717 0.0
H3172 H 0.5413 0.42049 0.18807 0.0
H3173 H 0.56711 0.4493 0.19237 0.0
C3174 C 0.60655 0.45014 0.17742 0.0
C3175 C 0.62661 0.44855 0.16853 0.0
C3176 C 0.59066 0.43521 0.17271 0.0
C3177 C 0.6305 0.43241 0.1542 0.0
C3178 C 0.61488 0.41726 0.14966 0.0
C3179 C 0.57985 0.40214 0.15629 0.0
C3180 C 0.56061 0.4027 0.167 0.0
C3181 C 0.59501 0.4183 0.15914 0.0
C3182 C 0.55592 0.42014 0.17934 0.0
C3183 C 0.57077 0.4364 0.18206 0.0
H3184 H 0.55859 0.42237 0.80237 0.0
H3185 H 0.5757 0.39886 0.86365 0.0
H3186 H 0.5998 0.42899 0.86889 0.0
H3187 H 0.61623 0.46192 0.85575 0.0
H3188 H 0.59857 0.48507 0.79433 0.0
H3189 H 0.5746 0.4551 0.78944 0.0
C3190 C 0.56774 0.42368 0.81679 0.0
C3191 C 0.56544 0.40826 0.83252 0.0
C3192 C 0.58146 0.44104 0.81969 0.0
C3193 C 0.57708 0.41054 0.85134 0.0
C3194 C 0.59092 0.42774 0.8543 0.0
C3195 C 0.60713 0.46044 0.8413 0.0
C3196 C 0.60931 0.47579 0.82542 0.0
C3197 C 0.59325 0.44309 0.83856 0.0
C3198 C 0.5973 0.47356 0.80684 0.0
C3199 C 0.58356 0.45639 0.80399 0.0
H3200 H 0.59579 0.57261 0.86603 0.0
H3201 H 0.59403 0.56882 0.79827 0.0
H3202 H 0.56154 0.58843 0.79736 0.0
H3203 H 0.53579 0.60931 0.81526 0.0
H3204 H 0.53783 0.61591 0.8828 0.0
H3205 H 0.56769 0.59209 0.88456 0.0
C3206 C 0.58802 0.57587 0.85117 0.0
C3207 C 0.59733 0.56952 0.83218 0.0
C3208 C 0.56947 0.58762 0.85077 0.0
C3209 C 0.58728 0.57387 0.81298 0.0
C3210 C 0.5687 0.58499 0.81248 0.0
C3211 C 0.54256 0.60535 0.83045 0.0
C3212 C 0.53473 0.61446 0.84885 0.0
C3213 C 0.55998 0.59236 0.8312 0.0
C3214 C 0.54351 0.60898 0.86841 0.0
C3215 C 0.56071 0.59554 0.86937 0.0
H3216 H 0.43444 0.60438 0.86227 0.0
H3217 H 0.44812 0.59415 0.79666 0.0
H3218 H 0.42829 0.56109 0.79739 0.0
H3219 H 0.40605 0.53561 0.81614 0.0
H3220 H 0.39194 0.54549 0.88173 0.0
H3221 H 0.41319 0.57786 0.8816 0.0
C3222 C 0.43322 0.5948 0.84821 0.0
C3223 C 0.44254 0.60192 0.82939 0.0
C3224 C 0.42174 0.57569 0.84872 0.0
C3225 C 0.44072 0.58935 0.81125 0.0
C3226 C 0.42951 0.57032 0.81167 0.0
C3227 C 0.40775 0.5447 0.83048 0.0
C3228 C 0.39728 0.53813 0.84887 0.0
C3229 C 0.41978 0.56343 0.83025 0.0
C3230 C 0.3997 0.55019 0.8673 0.0
C3231 C 0.41185 0.56876 0.86724 0.0
H3232 H 0.4089 0.43962 0.87491 0.0
H3233 H 0.40928 0.45068 0.80794 0.0
H3234 H 0.44259 0.43267 0.80484 0.0
H3235 H 0.46913 0.41065 0.8203 0.0
H3236 H 0.46784 0.39606 0.8866 0.0
H3237 H 0.4378 0.41921 0.89115 0.0
C3238 C 0.41654 0.43827 0.85976 0.0
C3239 C 0.40666 0.44615 0.84159 0.0
C3240 C 0.43547 0.42737 0.85806 0.0
C3241 C 0.41651 0.44435 0.82199 0.0
C3242 C 0.43555 0.43418 0.82026 0.0
C3243 C 0.46251 0.41279 0.83585 0.0
C3244 C 0.4705 0.40157 0.85305 0.0
C3245 C 0.44482 0.42516 0.83806 0.0
C3246 C 0.462 0.40466 0.87314 0.0
C3247 C 0.44468 0.41767 0.87566 0.0
H3248 H 0.6672 0.56305 0.08682 0.0
H3249 H 0.70302 0.60617 0.12612 0.0
H3250 H 0.69374 0.63512 0.10318 0.0
H3251 H 0.67838 0.64764 0.07072 0.0
H3252 H 0.6442 0.60533 0.02939 0.0
H3253 H 0.64907 0.57661 0.05481 0.0
C3254 C 0.67275 0.57883 0.09041 0.0
C3255 C 0.68614 0.58243 0.10793 0.0
C3256 C 0.66749 0.59547 0.07694 0.0
C3257 C 0.69321 0.60293 0.11245 0.0
C3258 C 0.68774 0.61951 0.09946 0.0
C3259 C 0.67171 0.63217 0.06737 0.0
C3260 C 0.66116 0.62844 0.04821 0.0
C3261 C 0.67533 0.61586 0.08148 0.0
C3262 C 0.65229 0.60851 0.04415 0.0
C3263 C 0.65534 0.5921 0.05854 0.0
H3264 H 0.44331 0.65986 0.11932 0.0
H3265 H 0.45851 0.72534 0.10934 0.0
H3266 H 0.43301 0.72652 0.08054 0.0
H3267 H 0.40679 0.70897 0.05775 0.0
H3268 H 0.39118 0.64354 0.06758 0.0
H3269 H 0.41659 0.64229 0.09663 0.0
C3270 C 0.44112 0.67436 0.11078 0.0
C3271 C 0.45288 0.69248 0.11658 0.0
C3272 C 0.42641 0.67492 0.0941 0.0
C3273 C 0.44955 0.71121 0.1055 0.0
C3274 C 0.43505 0.71187 0.08887 0.0
C3275 C 0.40896 0.69439 0.06617 0.0
C3276 C 0.39711 0.67635 0.06036 0.0
C3277 C 0.42346 0.69382 0.08298 0.0
C3278 C 0.40007 0.65767 0.07164 0.0
C3279 C 0.41461 0.65694 0.08829 0.0
H3280 H 0.36756 0.44808 0.10955 0.0
H3281 H 0.31817 0.41528 0.14338 0.0
H3282 H 0.32113 0.38514 0.12017 0.0
H3283 H 0.33597 0.3691 0.08941 0.0
H3284 H 0.38407 0.40159 0.05339 0.0
H3285 H 0.38371 0.43086 0.0785 0.0
C3286 C 0.35768 0.43419 0.11186 0.0
C3287 C 0.34253 0.43385 0.12798 0.0
C3288 C 0.3592 0.41701 0.0981 0.0
C3289 C 0.32968 0.41591 0.13087 0.0
C3290 C 0.33143 0.3987 0.11767 0.0
C3291 C 0.34651 0.3825 0.08698 0.0
C3292 C 0.35991 0.38324 0.06944 0.0
C3293 C 0.34584 0.39925 0.10106 0.0
C3294 C 0.37356 0.40068 0.06675 0.0
C3295 C 0.37329 0.41742 0.08106 0.0
H3296 H 0.57791 0.3549 0.11029 0.0
H3297 H 0.57827 0.2876 0.11683 0.0
H3298 H 0.60206 0.2852 0.08709 0.0
H3299 H 0.6218 0.30181 0.05847 0.0
H3300 H 0.62307 0.36909 0.05214 0.0
H3301 H 0.59984 0.37189 0.08267 0.0
C3302 C 0.58342 0.33974 0.10545 0.0
C3303 C 0.57596 0.32141 0.11574 0.0
C3304 C 0.59732 0.33844 0.08825 0.0
C3305 C 0.58329 0.30192 0.10902 0.0
C3306 C 0.59701 0.30052 0.09202 0.0
C3307 C 0.617 0.31713 0.0637 0.0
C3308 C 0.62398 0.33519 0.05282 0.0
C3309 C 0.60386 0.31862 0.08133 0.0
C3310 C 0.61784 0.35491 0.06011 0.0
C3311 C 0.60455 0.35651 0.07759 0.0
H3312 H 0.64676 0.39142 0.94593 0.0
H3313 H 0.68951 0.42138 0.98998 0.0
H3314 H 0.69471 0.45094 0.96579 0.0
H3315 H 0.69024 0.46609 0.93033 0.0
H3316 H 0.64731 0.43635 0.88625 0.0
H3317 H 0.63889 0.40884 0.91207 0.0
C3318 C 0.65649 0.40487 0.9505 0.0
C3319 C 0.66736 0.4046 0.96982 0.0
C3320 C 0.65979 0.4215 0.93624 0.0
C3321 C 0.68059 0.42164 0.97538 0.0
C3322 C 0.6838 0.43835 0.96142 0.0
C3323 C 0.67904 0.45357 0.92647 0.0
C3324 C 0.66972 0.4529 0.90634 0.0
C3325 C 0.67408 0.43807 0.94151 0.0
C3326 C 0.65479 0.43698 0.90162 0.0
C3327 C 0.64997 0.42132 0.91637 0.0
H3328 H 0.60896 0.66269 0.96084 0.0
H3329 H 0.60646 0.72944 0.97113 0.0
H3330 H 0.5803 0.73241 0.94323 0.0
H3331 H 0.55903 0.71649 0.91495 0.0
H3332 H 0.5607 0.64993 0.90448 0.0
H3333 H 0.58608 0.64639 0.93346 0.0
C3334 C 0.60261 0.67786 0.95705 0.0
C3335 C 0.60985 0.69582 0.96802 0.0
C3336 C 0.58742 0.67951 0.94092 0.0
C3337 C 0.60129 0.71533 0.96297 0.0
C3338 C 0.58631 0.71709 0.94696 0.0
C3339 C 0.56498 0.70123 0.91903 0.0
C3340 C 0.55815 0.68354 0.90754 0.0
C3341 C 0.57946 0.69936 0.93567 0.0
C3342 C 0.56565 0.66377 0.91321 0.0
C3343 C 0.58024 0.66177 0.92969 0.0
H3344 H 0.31303 0.5463 0.94704 0.0
H3345 H 0.36489 0.56872 0.90912 0.0
H3346 H 0.37475 0.5945 0.9362 0.0
H3347 H 0.36603 0.61313 0.96904 0.0
H3348 H 0.31351 0.591 0.00623 0.0
H3349 H 0.3068 0.56225 0.98153 0.0
C3350 C 0.32648 0.55684 0.9448 0.0
C3351 C 0.338 0.55594 0.92606 0.0
C3352 C 0.3321 0.57144 0.96047 0.0
C3353 C 0.35574 0.56928 0.92344 0.0
C3354 C 0.36139 0.58397 0.93891 0.0
C3355 C 0.35371 0.60147 0.97208 0.0
C3356 C 0.34046 0.60382 0.98948 0.0
C3357 C 0.34945 0.58546 0.95734 0.0
C3358 C 0.32407 0.58913 0.99304 0.0
C3359 C 0.32006 0.57291 0.97879 0.0
H3360 H 0.44306 0.3572 0.9116 0.0
H3361 H 0.45654 0.29144 0.91299 0.0
H3362 H 0.43737 0.28728 0.94601 0.0
H3363 H 0.41503 0.30163 0.97302 0.0
H3364 H 0.3992 0.36697 0.97146 0.0
H3365 H 0.42109 0.37212 0.94008 0.0
C3366 C 0.44196 0.3421 0.9194 0.0
C3367 C 0.45108 0.32459 0.90998 0.0
C3368 C 0.43039 0.33974 0.93819 0.0
C3369 C 0.44946 0.30502 0.91997 0.0
C3370 C 0.43853 0.30266 0.9388 0.0
C3371 C 0.41641 0.31708 0.96597 0.0
C3372 C 0.40539 0.33385 0.97457 0.0
C3373 C 0.42862 0.3198 0.94782 0.0
C3374 C 0.40749 0.35375 0.96516 0.0
C3375 C 0.41998 0.3567 0.94719 0.0
H3376 H 0.55272 0.70762 0.11285 0.0
H3377 H 0.54671 0.64101 0.10235 0.0
H3378 H 0.57428 0.64347 0.07543 0.0
H3379 H 0.60275 0.66411 0.05814 0.0
H3380 H 0.60928 0.73042 0.07036 0.0
H3381 H 0.579 0.72845 0.09387 0.0
C3382 C 0.55721 0.69363 0.10447 0.0
C3383 C 0.54786 0.67412 0.1097 0.0
C3384 C 0.57342 0.69509 0.08969 0.0
C3385 C 0.55363 0.65621 0.09855 0.0
C3386 C 0.56954 0.6576 0.08334 0.0
C3387 C 0.59732 0.6782 0.06564 0.0
C3388 C 0.60836 0.69742 0.0626 0.0
C3389 C 0.57997 0.67688 0.07927 0.0
C3390 C 0.60129 0.71544 0.07271 0.0
C3391 C 0.5839 0.71433 0.08602 0.0
H3392 H 0.59279 0.30361 0.95274 0.0
H3393 H 0.61819 0.36483 0.93706 0.0
H3394 H 0.58955 0.36975 0.91168 0.0
H3395 H 0.55766 0.35606 0.89315 0.0
H3396 H 0.53296 0.29447 0.90915 0.0
H3397 H 0.561 0.29028 0.93495 0.0
C3398 C 0.5922 0.31797 0.94368 0.0
C3399 C 0.60774 0.33376 0.94677 0.0
C3400 C 0.57576 0.32063 0.92908 0.0
C3401 C 0.60638 0.35247 0.93516 0.0
C3402 C 0.59004 0.35525 0.92055 0.0
C3403 C 0.55837 0.34177 0.90234 0.0
C3404 C 0.54319 0.32559 0.89907 0.0
C3405 C 0.57468 0.33937 0.91728 0.0
C3406 C 0.5444 0.30718 0.91118 0.0
C3407 C 0.56047 0.30473 0.926 0.0
H3408 H 0.63437 0.56791 0.89239 0.0
H3409 H 0.67167 0.52403 0.92698 0.0
H3410 H 0.67864 0.55013 0.95444 0.0
H3411 H 0.67954 0.58728 0.96485 0.0
H3412 H 0.64301 0.63155 0.92994 0.0
H3413 H 0.63034 0.60367 0.90618 0.0
C3414 C 0.64305 0.56382 0.90653 0.0
C3415 C 0.65225 0.54411 0.90798 0.0
C3416 C 0.64784 0.57926 0.92166 0.0
C3417 C 0.66408 0.53902 0.92592 0.0
C3418 C 0.66843 0.55407 0.94135 0.0
C3419 C 0.66872 0.59067 0.95208 0.0
C3420 C 0.66262 0.61136 0.94863 0.0
C3421 C 0.66138 0.57456 0.93874 0.0
C3422 C 0.6481 0.61568 0.93253 0.0
C3423 C 0.64083 0.59978 0.91906 0.0
H3424 H 0.41253 0.70576 0.95936 0.0
H3425 H 0.39306 0.64117 0.95155 0.0
H3426 H 0.42031 0.63672 0.9247 0.0
H3427 H 0.44916 0.65194 0.90236 0.0
H3428 H 0.46802 0.71678 0.91171 0.0
H3429 H 0.44159 0.7203 0.93871 0.0
C3430 C 0.41418 0.69072 0.95174 0.0
C3431 C 0.40064 0.67391 0.95733 0.0
C3432 C 0.42982 0.68831 0.93643 0.0
C3433 C 0.40333 0.65436 0.94762 0.0
C3434 C 0.41885 0.65186 0.93217 0.0
C3435 C 0.44751 0.66679 0.91037 0.0
C3436 C 0.46063 0.68407 0.90475 0.0
C3437 C 0.43213 0.66881 0.92627 0.0
C3438 C 0.45825 0.70316 0.91547 0.0
C3439 C 0.44306 0.70527 0.93102 0.0
H3440 H 0.31711 0.46657 0.93224 0.0
H3441 H 0.38019 0.45313 0.91251 0.0
H3442 H 0.38224 0.42547 0.93934 0.0
H3443 H 0.36404 0.40245 0.965 0.0
H3444 H 0.30086 0.41672 0.98446 0.0
H3445 H 0.30079 0.44664 0.9608 0.0
C3446 C 0.33147 0.45783 0.93413 0.0
C3447 C 0.34841 0.46162 0.92046 0.0
C3448 C 0.3323 0.44188 0.94916 0.0
C3449 C 0.36702 0.45048 0.92304 0.0
C3450 C 0.36807 0.43455 0.93819 0.0
C3451 C 0.3504 0.41228 0.96442 0.0
C3452 C 0.33229 0.40695 0.97624 0.0
C3453 C 0.3505 0.42967 0.95084 0.0
C3454 C 0.31477 0.41997 0.97514 0.0
C3455 C 0.31476 0.43724 0.96174 0.0
H3456 H 0.49284 0.34724 0.09094 0.0
H3457 H 0.45978 0.34206 0.15003 0.0
H3458 H 0.42829 0.32907 0.13175 0.0
H3459 H 0.40977 0.31969 0.09888 0.0
H3460 H 0.44173 0.32679 0.03965 0.0
H3461 H 0.4741 0.33837 0.05798 0.0
C3462 C 0.47873 0.34336 0.09981 0.0
C3463 C 0.4788 0.34544 0.12186 0.0
C3464 C 0.46053 0.33606 0.08916 0.0
C3465 C 0.46032 0.34037 0.13309 0.0
C3466 C 0.44225 0.33294 0.12265 0.0
C3467 C 0.42398 0.32341 0.09011 0.0
C3468 C 0.42365 0.32211 0.06806 0.0
C3469 C 0.4422 0.33063 0.10072 0.0
C3470 C 0.44187 0.32755 0.05668 0.0
C3471 C 0.46025 0.33424 0.06714 0.0
H3472 H 0.72255 0.42549 0.05164 0.0
H3473 H 0.66491 0.3974 0.07526 0.0
H3474 H 0.66106 0.42658 0.0997 0.0
H3475 H 0.6741 0.46015 0.11442 0.0
H3476 H 0.7318 0.48819 0.09064 0.0
H3477 H 0.73558 0.45901 0.06636 0.0
C3478 C 0.70927 0.42563 0.06227 0.0
C3479 C 0.69407 0.40921 0.06158 0.0
C3480 C 0.7071 0.44255 0.07625 0.0
C3481 C 0.67675 0.4099 0.07528 0.0
C3482 C 0.67456 0.42657 0.08932 0.0
C3483 C 0.68747 0.45995 0.1039 0.0
C3484 C 0.70262 0.47646 0.10445 0.0
C3485 C 0.6896 0.44304 0.0899 0.0
C3486 C 0.71986 0.47578 0.09065 0.0
C3487 C 0.72208 0.45905 0.07673 0.0
H3488 H 0.30825 0.55382 0.13859 0.0
H3489 H 0.37331 0.54221 0.12459 0.0
H3490 H 0.37351 0.57083 0.09866 0.0
H3491 H 0.35442 0.59813 0.07893 0.0
H3492 H 0.28988 0.61037 0.09552 0.0
H3493 H 0.29034 0.58244 0.12124 0.0
C3494 C 0.32252 0.55749 0.12987 0.0
C3495 C 0.34065 0.54568 0.1333 0.0
C3496 C 0.32258 0.57404 0.11529 0.0
C3497 C 0.3591 0.551 0.12218 0.0
C3498 C 0.35919 0.56733 0.10732 0.0
C3499 C 0.34049 0.59492 0.08825 0.0
C3500 C 0.32195 0.60632 0.08464 0.0
C3501 C 0.34091 0.57886 0.10358 0.0
C3502 C 0.3042 0.6017 0.0972 0.0
C3503 C 0.30446 0.58572 0.11216 0.0
loop_
_geom_bond_atom_site_label_1
_geom_bond_atom_site_label_2
_geom_bond_distance
_geom_bond_site_symmetry_2
_ccdc_geom_bond_type
C0 C1 1.351 . S
C0 N3 1.368 . S
C0 H5 0.931 1_655 S
C1 C0 1.351 . S
C1 N2 1.373 . S
C1 H29 0.930 . S
N2 C1 1.373 . S
N2 C4 1.340 . S
N3 C0 1.368 . S
N3 C4 1.321 . S
N3 Co6 2.135 1_655 S
C4 N2 1.340 . S
C4 N3 1.321 . S
C4 H28 0.930 . S
H5 C0 0.931 1_455 S
Co6 N3 2.135 1_455 S
Co6 N9 2.121 . S
Co6 O14 2.055 . S
Co6 O17 2.039 1_455 S
Co6 N20 2.140 . S
C7 O8 1.227 . S
C7 O17 1.265 . S
O8 C7 1.227 . S
N9 Co6 2.121 . S
N9 C11 1.375 . S
N9 C12 1.313 . S
C10 C11 1.338 . S
C10 N13 1.377 . S
C10 H30 0.930 . S
C11 N9 1.375 . S
C11 C10 1.338 . S
C11 H15 0.931 . S
C12 N9 1.313 . S
C12 N13 1.344 . S
C12 H16 0.930 . S
N13 C10 1.377 . S
N13 C12 1.344 . S
O14 Co6 2.055 . S
O14 C18 1.253 . S
H15 C11 0.931 . S
H16 C12 0.930 . S
O17 Co6 2.039 1_655 S
O17 C7 1.265 . S
C18 O14 1.253 . S
C18 O19 1.227 . S
O19 C18 1.227 . S
N20 Co6 2.140 . S
N20 C23 1.346 1_455 S
N20 C24 1.345 . S
C21 C22 1.387 1_455 S
C21 C25 1.391 . S
C22 C21 1.387 1_655 S
C22 C23 1.369 . S
C22 H31 0.929 . S
C23 N20 1.346 1_655 S
C23 C22 1.369 . S
C23 H26 0.928 . S
C24 N20 1.345 . S
C24 C25 1.371 . S
C24 H27 0.931 . S
C25 C21 1.391 . S
C25 C24 1.371 . S
C25 H32 0.930 . S
H26 C23 0.928 . S
H27 C24 0.931 . S
H28 C4 0.930 . S
H29 C1 0.930 . S
H30 C10 0.930 . S
H31 C22 0.929 . S
H32 C25 0.930 . S
C33 C34 1.351 . S
C33 N36 1.368 . S
C33 H38 0.931 . S
C34 C33 1.351 . S
C34 N35 1.373 . S
C34 H62 0.930 . S
N35 C34 1.373 . S
N35 C37 1.340 . S
N36 C33 1.368 . S
N36 C37 1.321 . S
N36 Co39 2.135 . S
C37 N35 1.340 . S
C37 N36 1.321 . S
C37 H61 0.930 . S
H38 C33 0.931 . S
Co39 N36 2.135 . S
Co39 N42 2.121 1_545 S
Co39 O47 2.055 1_545 S
Co39 O50 2.039 . S
Co39 N53 2.140 . S
C40 O41 1.227 . S
C40 O50 1.265 . S
O41 C40 1.227 . S
N42 Co39 2.121 1_565 S
N42 C44 1.375 . S
N42 C45 1.313 . S
C43 C44 1.338 . S
C43 N46 1.377 . S
C43 H63 0.930 . S
C44 N42 1.375 . S
C44 C43 1.338 . S
C44 H48 0.931 1_565 S
C45 N42 1.313 . S
C45 N46 1.344 . S
C45 H49 0.930 . S
N46 C43 1.377 . S
N46 C45 1.344 . S
O47 Co39 2.055 1_565 S
O47 C51 1.253 . S
H48 C44 0.931 1_545 S
H49 C45 0.930 . S
O50 Co39 2.039 . S
O50 C40 1.265 . S
C51 O47 1.253 . S
C51 O52 1.227 . S
O52 C51 1.227 . S
N53 Co39 2.140 . S
N53 C56 1.346 . S
N53 C57 1.345 1_545 S
C54 C55 1.387 . S
C54 C58 1.391 1_545 S
C55 C54 1.387 . S
C55 C56 1.369 . S
C55 H64 0.929 . S
C56 N53 1.346 . S
C56 C55 1.369 . S
C56 H59 0.928 . S
C57 N53 1.345 1_565 S
C57 C58 1.371 . S
C57 H60 0.931 . S
C58 C54 1.391 1_565 S
C58 C57 1.371 . S
C58 H65 0.930 . S
H59 C56 0.928 . S
H60 C57 0.931 . S
H61 C37 0.930 . S
H62 C34 0.930 . S
H63 C43 0.930 . S
H64 C55 0.929 . S
H65 C58 0.930 . S
C66 C67 1.351 . S
C66 N69 1.368 . S
C66 H71 0.931 1_655 S
C67 C66 1.351 . S
C67 N68 1.373 . S
C67 H95 0.930 . S
N68 C67 1.373 . S
N68 C70 1.340 . S
N69 C66 1.368 . S
N69 C70 1.321 . S
N69 Co72 2.135 1_655 S
C70 N68 1.340 . S
C70 N69 1.321 . S
C70 H94 0.930 . S
H71 C66 0.931 1_455 S
Co72 N69 2.135 1_455 S
Co72 N75 2.121 . S
Co72 O80 2.055 . S
Co72 O83 2.039 1_455 S
Co72 N86 2.140 . S
C73 O74 1.227 . S
C73 O83 1.265 . S
O74 C73 1.227 . S
N75 Co72 2.121 . S
N75 C77 1.375 . S
N75 C78 1.313 . S
C76 C77 1.338 . S
C76 N79 1.377 . S
C76 H96 0.930 . S
C77 N75 1.375 . S
C77 C76 1.338 . S
C77 H81 0.931 . S
C78 N75 1.313 . S
C78 N79 1.344 . S
C78 H82 0.930 . S
N79 C76 1.377 . S
N79 C78 1.344 . S
O80 Co72 2.055 . S
O80 C84 1.253 . S
H81 C77 0.931 . S
H82 C78 0.930 . S
O83 Co72 2.039 1_655 S
O83 C73 1.265 . S
C84 O80 1.253 . S
C84 O85 1.227 . S
O85 C84 1.227 . S
N86 Co72 2.140 . S
N86 C89 1.346 1_455 S
N86 C90 1.345 . S
C87 C88 1.387 1_455 S
C87 C91 1.391 . S
C88 C87 1.387 1_655 S
C88 C89 1.369 . S
C88 H97 0.929 . S
C89 N86 1.346 1_655 S
C89 C88 1.369 . S
C89 H92 0.928 . S
C90 N86 1.345 . S
C90 C91 1.371 . S
C90 H93 0.931 . S
C91 C87 1.391 . S
C91 C90 1.371 . S
C91 H98 0.930 . S
H92 C89 0.928 . S
H93 C90 0.931 . S
H94 C70 0.930 . S
H95 C67 0.930 . S
H96 C76 0.930 . S
H97 C88 0.929 . S
H98 C91 0.930 . S
C99 C100 1.351 . S
C99 N102 1.368 . S
C99 H104 0.931 1_565 S
C100 C99 1.351 . S
C100 N101 1.373 . S
C100 H128 0.930 . S
N101 C100 1.373 . S
N101 C103 1.340 . S
N102 C99 1.368 . S
N102 C103 1.321 . S
N102 Co105 2.135 1_565 S
C103 N101 1.340 . S
C103 N102 1.321 . S
C103 H127 0.930 . S
H104 C99 0.931 1_545 S
Co105 N102 2.135 1_545 S
Co105 N108 2.121 . S
Co105 O113 2.055 . S
Co105 O116 2.039 1_545 S
Co105 N119 2.140 . S
C106 O107 1.227 . S
C106 O116 1.265 . S
O107 C106 1.227 . S
N108 Co105 2.121 . S
N108 C110 1.375 . S
N108 C111 1.313 . S
C109 C110 1.338 . S
C109 N112 1.377 . S
C109 H129 0.930 . S
C110 N108 1.375 . S
C110 C109 1.338 . S
C110 H114 0.931 . S
C111 N108 1.313 . S
C111 N112 1.344 . S
C111 H115 0.930 . S
N112 C109 1.377 . S
N112 C111 1.344 . S
O113 Co105 2.055 . S
O113 C117 1.253 . S
H114 C110 0.931 . S
H115 C111 0.930 . S
O116 Co105 2.039 1_565 S
O116 C106 1.265 . S
C117 O113 1.253 . S
C117 O118 1.227 . S
O118 C117 1.227 . S
N119 Co105 2.140 . S
N119 C122 1.346 1_545 S
N119 C123 1.345 . S
C120 C121 1.387 1_545 S
C120 C124 1.391 . S
C121 C120 1.387 1_565 S
C121 C122 1.369 . S
C121 H130 0.929 . S
C122 N119 1.346 1_565 S
C122 C121 1.369 . S
C122 H125 0.928 . S
C123 N119 1.345 . S
C123 C124 1.371 . S
C123 H126 0.931 . S
C124 C120 1.391 . S
C124 C123 1.371 . S
C124 H131 0.930 . S
H125 C122 0.928 . S
H126 C123 0.931 . S
H127 C103 0.930 . S
H128 C100 0.930 . S
H129 C109 0.930 . S
H130 C121 0.929 . S
H131 C124 0.930 . S
C132 C133 1.351 . S
C132 N135 1.368 . S
C132 H137 0.931 . S
C133 C132 1.351 . S
C133 N134 1.373 . S
C133 H161 0.930 . S
N134 C133 1.373 . S
N134 C136 1.340 . S
N135 C132 1.368 . S
N135 C136 1.321 . S
N135 Co138 2.135 . S
C136 N134 1.340 . S
C136 N135 1.321 . S
C136 H160 0.930 . S
H137 C132 0.931 . S
Co138 N135 2.135 . S
Co138 N141 2.121 1_455 S
Co138 O146 2.055 1_455 S
Co138 O149 2.039 . S
Co138 N152 2.140 . S
C139 O140 1.227 . S
C139 O149 1.265 . S
O140 C139 1.227 . S
N141 Co138 2.121 1_655 S
N141 C143 1.375 . S
N141 C144 1.313 . S
C142 C143 1.338 . S
C142 N145 1.377 . S
C142 H162 0.930 . S
C143 N141 1.375 . S
C143 C142 1.338 . S
C143 H147 0.931 1_655 S
C144 N141 1.313 . S
C144 N145 1.344 . S
C144 H148 0.930 . S
N145 C142 1.377 . S
N145 C144 1.344 . S
O146 Co138 2.055 1_655 S
O146 C150 1.253 . S
H147 C143 0.931 1_455 S
H148 C144 0.930 . S
O149 Co138 2.039 . S
O149 C139 1.265 . S
C150 O146 1.253 . S
C150 O151 1.227 . S
O151 C150 1.227 . S
N152 Co138 2.140 . S
N152 C155 1.346 . S
N152 C156 1.345 1_455 S
C153 C154 1.387 . S
C153 C157 1.391 1_455 S
C154 C153 1.387 . S
C154 C155 1.369 . S
C154 H163 0.929 . S
C155 N152 1.346 . S
C155 C154 1.369 . S
C155 H158 0.928 . S
C156 N152 1.345 1_655 S
C156 C157 1.371 . S
C156 H159 0.931 . S
C157 C153 1.391 1_655 S
C157 C156 1.371 . S
C157 H164 0.930 . S
H158 C155 0.928 . S
H159 C156 0.931 . S
H160 C136 0.930 . S
H161 C133 0.930 . S
H162 C142 0.930 . S
H163 C154 0.929 . S
H164 C157 0.930 . S
C165 C166 1.351 . S
C165 N168 1.368 . S
C165 H170 0.931 1_565 S
C166 C165 1.351 . S
C166 N167 1.373 . S
C166 H194 0.930 . S
N167 C166 1.373 . S
N167 C169 1.340 . S
N168 C165 1.368 . S
N168 C169 1.321 . S
N168 Co171 2.135 1_565 S
C169 N167 1.340 . S
C169 N168 1.321 . S
C169 H193 0.930 . S
H170 C165 0.931 1_545 S
Co171 N168 2.135 1_545 S
Co171 N174 2.121 . S
Co171 O179 2.055 . S
Co171 O182 2.039 1_545 S
Co171 N185 2.140 . S
C172 O173 1.227 . S
C172 O182 1.265 . S
O173 C172 1.227 . S
N174 Co171 2.121 . S
N174 C176 1.375 . S
N174 C177 1.313 . S
C175 C176 1.338 . S
C175 N178 1.377 . S
C175 H195 0.930 . S
C176 N174 1.375 . S
C176 C175 1.338 . S
C176 H180 0.931 . S
C177 N174 1.313 . S
C177 N178 1.344 . S
C177 H181 0.930 . S
N178 C175 1.377 . S
N178 C177 1.344 . S
O179 Co171 2.055 . S
O179 C183 1.253 . S
H180 C176 0.931 . S
H181 C177 0.930 . S
O182 Co171 2.039 1_565 S
O182 C172 1.265 . S
C183 O179 1.253 . S
C183 O184 1.227 . S
O184 C183 1.227 . S
N185 Co171 2.140 . S
N185 C188 1.346 1_545 S
N185 C189 1.345 . S
C186 C187 1.387 1_545 S
C186 C190 1.391 . S
C187 C186 1.387 1_565 S
C187 C188 1.369 . S
C187 H196 0.929 . S
C188 N185 1.346 1_565 S
C188 C187 1.369 . S
C188 H191 0.928 . S
C189 N185 1.345 . S
C189 C190 1.371 . S
C189 H192 0.931 . S
C190 C186 1.391 . S
C190 C189 1.371 . S
C190 H197 0.930 . S
H191 C188 0.928 . S
H192 C189 0.931 . S
H193 C169 0.930 . S
H194 C166 0.930 . S
H195 C175 0.930 . S
H196 C187 0.929 . S
H197 C190 0.930 . S
C198 C199 1.351 . S
C198 N201 1.368 . S
C198 H203 0.931 1_655 S
C199 C198 1.351 . S
C199 N200 1.373 . S
C199 H227 0.930 . S
N200 C199 1.373 . S
N200 C202 1.340 . S
N201 C198 1.368 . S
N201 C202 1.321 . S
N201 Co204 2.135 1_655 S
C202 N200 1.340 . S
C202 N201 1.321 . S
C202 H226 0.930 . S
H203 C198 0.931 1_455 S
Co204 N201 2.135 1_455 S
Co204 N207 2.121 . S
Co204 O212 2.055 . S
Co204 O215 2.039 1_455 S
Co204 N218 2.140 . S
C205 O206 1.227 . S
C205 O215 1.265 . S
O206 C205 1.227 . S
N207 Co204 2.121 . S
N207 C209 1.375 . S
N207 C210 1.313 . S
C208 C209 1.338 . S
C208 N211 1.377 . S
C208 H228 0.930 . S
C209 N207 1.375 . S
C209 C208 1.338 . S
C209 H213 0.931 . S
C210 N207 1.313 . S
C210 N211 1.344 . S
C210 H214 0.930 . S
N211 C208 1.377 . S
N211 C210 1.344 . S
O212 Co204 2.055 . S
O212 C216 1.253 . S
H213 C209 0.931 . S
H214 C210 0.930 . S
O215 Co204 2.039 1_655 S
O215 C205 1.265 . S
C216 O212 1.253 . S
C216 O217 1.227 . S
O217 C216 1.227 . S
N218 Co204 2.140 . S
N218 C221 1.346 1_455 S
N218 C222 1.345 . S
C219 C220 1.387 1_455 S
C219 C223 1.391 . S
C220 C219 1.387 1_655 S
C220 C221 1.369 . S
C220 H229 0.929 . S
C221 N218 1.346 1_655 S
C221 C220 1.369 . S
C221 H224 0.928 . S
C222 N218 1.345 . S
C222 C223 1.371 . S
C222 H225 0.931 . S
C223 C219 1.391 . S
C223 C222 1.371 . S
C223 H230 0.930 . S
H224 C221 0.928 . S
H225 C222 0.931 . S
H226 C202 0.930 . S
H227 C199 0.930 . S
H228 C208 0.930 . S
H229 C220 0.929 . S
H230 C223 0.930 . S
C231 C232 1.351 . S
C231 N234 1.368 . S
C231 H236 0.931 . S
C232 C231 1.351 . S
C232 N233 1.373 . S
C232 H260 0.930 . S
N233 C232 1.373 . S
N233 C235 1.340 . S
N234 C231 1.368 . S
N234 C235 1.321 . S
N234 Co237 2.135 . S
C235 N233 1.340 . S
C235 N234 1.321 . S
C235 H259 0.930 . S
H236 C231 0.931 . S
Co237 N234 2.135 . S
Co237 N240 2.121 1_545 S
Co237 O245 2.055 1_545 S
Co237 O248 2.039 . S
Co237 N251 2.140 . S
C238 O239 1.227 . S
C238 O248 1.265 . S
O239 C238 1.227 . S
N240 Co237 2.121 1_565 S
N240 C242 1.375 . S
N240 C243 1.313 . S
C241 C242 1.338 . S
C241 N244 1.377 . S
C241 H261 0.930 . S
C242 N240 1.375 . S
C242 C241 1.338 . S
C242 H246 0.931 1_565 S
C243 N240 1.313 . S
C243 N244 1.344 . S
C243 H247 0.930 . S
N244 C241 1.377 . S
N244 C243 1.344 . S
O245 Co237 2.055 1_565 S
O245 C249 1.253 . S
H246 C242 0.931 1_545 S
H247 C243 0.930 . S
O248 Co237 2.039 . S
O248 C238 1.265 . S
C249 O245 1.253 . S
C249 O250 1.227 . S
O250 C249 1.227 . S
N251 Co237 2.140 . S
N251 C254 1.346 . S
N251 C255 1.345 1_545 S
C252 C253 1.387 . S
C252 C256 1.391 1_545 S
C253 C252 1.387 . S
C253 C254 1.369 . S
C253 H262 0.929 . S
C254 N251 1.346 . S
C254 C253 1.369 . S
C254 H257 0.928 . S
C255 N251 1.345 1_565 S
C255 C256 1.371 . S
C255 H258 0.931 . S
C256 C252 1.391 1_565 S
C256 C255 1.371 . S
C256 H263 0.930 . S
H257 C254 0.928 . S
H258 C255 0.931 . S
H259 C235 0.930 . S
H260 C232 0.930 . S
H261 C241 0.930 . S
H262 C253 0.929 . S
H263 C256 0.930 . S
C264 C265 1.351 . S
C264 N267 1.368 . S
C264 H269 0.931 1_556 S
C265 C264 1.351 . S
C265 N266 1.373 . S
C265 H293 0.930 . S
N266 C265 1.373 . S
N266 C268 1.340 . S
N267 C264 1.368 . S
N267 C268 1.321 . S
N267 Co270 2.135 1_556 S
C268 N266 1.340 . S
C268 N267 1.321 . S
C268 H292 0.930 . S
H269 C264 0.931 1_554 S
Co270 N267 2.135 1_554 S
Co270 N273 2.121 . S
Co270 O278 2.055 . S
Co270 O281 2.039 1_554 S
Co270 N284 2.140 . S
C271 O272 1.227 . S
C271 O281 1.265 . S
O272 C271 1.227 . S
N273 Co270 2.121 . S
N273 C275 1.375 . S
N273 C276 1.313 . S
C274 C275 1.338 . S
C274 N277 1.377 . S
C274 H294 0.930 . S
C275 N273 1.375 . S
C275 C274 1.338 . S
C275 H279 0.931 . S
C276 N273 1.313 . S
C276 N277 1.344 . S
C276 H280 0.930 . S
N277 C274 1.377 . S
N277 C276 1.344 . S
O278 Co270 2.055 . S
O278 C282 1.253 . S
H279 C275 0.931 . S
H280 C276 0.930 . S
O281 Co270 2.039 1_556 S
O281 C271 1.265 . S
C282 O278 1.253 . S
C282 O283 1.227 . S
O283 C282 1.227 . S
N284 Co270 2.140 . S
N284 C287 1.346 1_554 S
N284 C288 1.345 . S
C285 C286 1.387 1_554 S
C285 C289 1.391 . S
C286 C285 1.387 1_556 S
C286 C287 1.369 . S
C286 H295 0.929 . S
C287 N284 1.346 1_556 S
C287 C286 1.369 . S
C287 H290 0.928 . S
C288 N284 1.345 . S
C288 C289 1.371 . S
C288 H291 0.931 . S
C289 C285 1.391 . S
C289 C288 1.371 . S
C289 H296 0.930 . S
H290 C287 0.928 . S
H291 C288 0.931 . S
H292 C268 0.930 . S
H293 C265 0.930 . S
H294 C274 0.930 . S
H295 C286 0.929 . S
H296 C289 0.930 . S
C297 C298 1.351 . S
C297 N300 1.368 . S
C297 H302 0.931 . S
C298 C297 1.351 . S
C298 N299 1.373 . S
C298 H326 0.930 . S
N299 C298 1.373 . S
N299 C301 1.340 . S
N300 C297 1.368 . S
N300 C301 1.321 . S
N300 Co303 2.135 . S
C301 N299 1.340 . S
C301 N300 1.321 . S
C301 H325 0.930 . S
H302 C297 0.931 . S
Co303 N300 2.135 . S
Co303 N306 2.121 1_554 S
Co303 O311 2.055 1_554 S
Co303 O314 2.039 . S
Co303 N317 2.140 . S
C304 O305 1.227 . S
C304 O314 1.265 . S
O305 C304 1.227 . S
N306 Co303 2.121 1_556 S
N306 C308 1.375 . S
N306 C309 1.313 . S
C307 C308 1.338 . S
C307 N310 1.377 . S
C307 H327 0.930 . S
C308 N306 1.375 . S
C308 C307 1.338 . S
C308 H312 0.931 1_556 S
C309 N306 1.313 . S
C309 N310 1.344 . S
C309 H313 0.930 . S
N310 C307 1.377 . S
N310 C309 1.344 . S
O311 Co303 2.055 1_556 S
O311 C315 1.253 . S
H312 C308 0.931 1_554 S
H313 C309 0.930 . S
O314 Co303 2.039 . S
O314 C304 1.265 . S
C315 O311 1.253 . S
C315 O316 1.227 . S
O316 C315 1.227 . S
N317 Co303 2.140 . S
N317 C320 1.346 . S
N317 C321 1.345 1_554 S
C318 C319 1.387 . S
C318 C322 1.391 1_554 S
C319 C318 1.387 . S
C319 C320 1.369 . S
C319 H328 0.929 . S
C320 N317 1.346 . S
C320 C319 1.369 . S
C320 H323 0.928 . S
C321 N317 1.345 1_556 S
C321 C322 1.371 . S
C321 H324 0.931 . S
C322 C318 1.391 1_556 S
C322 C321 1.371 . S
C322 H329 0.930 . S
H323 C320 0.928 . S
H324 C321 0.931 . S
H325 C301 0.930 . S
H326 C298 0.930 . S
H327 C307 0.930 . S
H328 C319 0.929 . S
H329 C322 0.930 . S
C330 C331 1.325 1_554 S
C330 N333 1.360 1_554 S
C330 H335 0.961 . S
C331 C330 1.325 1_556 S
C331 N332 1.373 . S
C331 H359 0.930 . S
N332 C331 1.373 . S
N332 C334 1.340 . S
N333 C330 1.360 1_556 S
N333 C334 1.321 . S
N333 Co336 2.135 1_556 S
C334 N332 1.340 . S
C334 N333 1.321 . S
C334 H358 0.930 . S
H335 C330 0.961 . S
Co336 N333 2.135 1_554 S
Co336 N339 2.121 . S
Co336 O344 2.055 . S
Co336 O347 2.039 1_554 S
Co336 N350 2.140 . S
C337 O338 1.227 . S
C337 O347 1.265 . S
O338 C337 1.227 . S
N339 Co336 2.121 . S
N339 C341 1.375 . S
N339 C342 1.313 . S
C340 C341 1.338 . S
C340 N343 1.377 . S
C340 H360 0.930 . S
C341 N339 1.375 . S
C341 C340 1.338 . S
C341 H345 0.931 . S
C342 N339 1.313 . S
C342 N343 1.344 . S
C342 H346 0.930 . S
N343 C340 1.377 . S
N343 C342 1.344 . S
O344 Co336 2.055 . S
O344 C348 1.253 . S
H345 C341 0.931 . S
H346 C342 0.930 . S
O347 Co336 2.039 1_556 S
O347 C337 1.265 . S
C348 O344 1.253 . S
C348 O349 1.227 . S
O349 C348 1.227 . S
N350 Co336 2.140 . S
N350 C353 1.346 1_554 S
N350 C354 1.345 . S
C351 C352 1.387 1_554 S
C351 C355 1.391 . S
C352 C351 1.387 1_556 S
C352 C353 1.369 . S
C352 H361 0.929 . S
C353 N350 1.346 1_556 S
C353 C352 1.369 . S
C353 H356 0.928 . S
C354 N350 1.345 . S
C354 C355 1.371 . S
C354 H357 0.931 . S
C355 C351 1.391 . S
C355 C354 1.371 . S
C355 H362 0.930 . S
H356 C353 0.928 . S
H357 C354 0.931 . S
H358 C334 0.930 . S
H359 C331 0.930 . S
H360 C340 0.930 . S
H361 C352 0.929 . S
H362 C355 0.930 . S
C363 C364 1.351 . S
C363 N366 1.368 . S
C363 H368 0.931 1_556 S
C364 C363 1.351 . S
C364 N365 1.373 . S
C364 H392 0.930 . S
N365 C364 1.373 . S
N365 C367 1.340 . S
N366 C363 1.368 . S
N366 C367 1.321 . S
N366 Co369 2.135 1_556 S
C367 N365 1.340 . S
C367 N366 1.321 . S
C367 H391 0.930 . S
H368 C363 0.931 1_554 S
Co369 N366 2.135 1_554 S
Co369 N372 2.121 . S
Co369 O377 2.055 . S
Co369 O380 2.039 1_554 S
Co369 N383 2.140 . S
C370 O371 1.227 . S
C370 O380 1.265 . S
O371 C370 1.227 . S
N372 Co369 2.121 . S
N372 C374 1.375 . S
N372 C375 1.313 . S
C373 C374 1.338 . S
C373 N376 1.377 . S
C373 H393 0.930 . S
C374 N372 1.375 . S
C374 C373 1.338 . S
C374 H378 0.931 . S
C375 N372 1.313 . S
C375 N376 1.344 . S
C375 H379 0.930 . S
N376 C373 1.377 . S
N376 C375 1.344 . S
O377 Co369 2.055 . S
O377 C381 1.253 . S
H378 C374 0.931 . S
H379 C375 0.930 . S
O380 Co369 2.039 1_556 S
O380 C370 1.265 . S
C381 O377 1.253 . S
C381 O382 1.227 . S
O382 C381 1.227 . S
N383 Co369 2.140 . S
N383 C386 1.346 1_554 S
N383 C387 1.345 . S
C384 C385 1.387 1_554 S
C384 C388 1.391 . S
C385 C384 1.387 1_556 S
C385 C386 1.369 . S
C385 H394 0.929 . S
C386 N383 1.346 1_556 S
C386 C385 1.369 . S
C386 H389 0.928 . S
C387 N383 1.345 . S
C387 C388 1.371 . S
C387 H390 0.931 . S
C388 C384 1.391 . S
C388 C387 1.371 . S
C388 H395 0.930 . S
H389 C386 0.928 . S
H390 C387 0.931 . S
H391 C367 0.930 . S
H392 C364 0.930 . S
H393 C373 0.930 . S
H394 C385 0.929 . S
H395 C388 0.930 . S
C396 C397 1.351 . S
C396 N399 1.368 . S
C396 H401 0.931 1_655 S
C397 C396 1.351 . S
C397 N398 1.373 . S
C397 H425 0.930 . S
N398 C397 1.373 . S
N398 C400 1.340 . S
N399 C396 1.368 . S
N399 C400 1.321 . S
N399 Co402 2.135 1_655 S
C400 N398 1.340 . S
C400 N399 1.321 . S
C400 H424 0.930 . S
H401 C396 0.931 1_455 S
Co402 N399 2.135 1_455 S
Co402 N405 2.121 . S
Co402 O410 2.055 . S
Co402 O413 2.039 1_455 S
Co402 N416 2.140 . S
C403 O404 1.227 . S
C403 O413 1.265 . S
O404 C403 1.227 . S
N405 Co402 2.121 . S
N405 C407 1.375 . S
N405 C408 1.313 . S
C406 C407 1.338 . S
C406 N409 1.377 . S
C406 H426 0.930 . S
C407 N405 1.375 . S
C407 C406 1.338 . S
C407 H411 0.931 . S
C408 N405 1.313 . S
C408 N409 1.344 . S
C408 H412 0.930 . S
N409 C406 1.377 . S
N409 C408 1.344 . S
O410 Co402 2.055 . S
O410 C414 1.253 . S
H411 C407 0.931 . S
H412 C408 0.930 . S
O413 Co402 2.039 1_655 S
O413 C403 1.265 . S
C414 O410 1.253 . S
C414 O415 1.227 . S
O415 C414 1.227 . S
N416 Co402 2.140 . S
N416 C419 1.346 1_455 S
N416 C420 1.345 . S
C417 C418 1.387 1_455 S
C417 C421 1.391 . S
C418 C417 1.387 1_655 S
C418 C419 1.369 . S
C418 H427 0.929 . S
C419 N416 1.346 1_655 S
C419 C418 1.369 . S
C419 H422 0.928 . S
C420 N416 1.345 . S
C420 C421 1.371 . S
C420 H423 0.931 . S
C421 C417 1.391 . S
C421 C420 1.371 . S
C421 H428 0.930 . S
H422 C419 0.928 . S
H423 C420 0.931 . S
H424 C400 0.930 . S
H425 C397 0.930 . S
H426 C406 0.930 . S
H427 C418 0.929 . S
H428 C421 0.930 . S
C429 C430 1.351 . S
C429 N432 1.368 . S
C429 H434 0.931 . S
C430 C429 1.351 . S
C430 N431 1.373 . S
C430 H458 0.930 . S
N431 C430 1.373 . S
N431 C433 1.340 . S
N432 C429 1.368 . S
N432 C433 1.321 . S
N432 Co435 2.135 . S
C433 N431 1.340 . S
C433 N432 1.321 . S
C433 H457 0.930 . S
H434 C429 0.931 . S
Co435 N432 2.135 . S
Co435 N438 2.121 . S
Co435 O443 2.055 . S
Co435 O446 2.039 . S
Co435 N449 2.140 . S
C436 O437 1.227 . S
C436 O446 1.265 . S
O437 C436 1.227 . S
N438 Co435 2.121 . S
N438 C440 1.375 . S
N438 C441 1.313 . S
C439 C440 1.338 . S
C439 N442 1.377 . S
C439 H459 0.930 . S
C440 N438 1.375 . S
C440 C439 1.338 . S
C440 H444 0.931 . S
C441 N438 1.313 . S
C441 N442 1.344 . S
C441 H445 0.930 . S
N442 C439 1.377 . S
N442 C441 1.344 . S
O443 Co435 2.055 . S
O443 C447 1.253 . S
H444 C440 0.931 . S
H445 C441 0.930 . S
O446 Co435 2.039 . S
O446 C436 1.265 . S
C447 O443 1.253 . S
C447 O448 1.227 . S
O448 C447 1.227 . S
N449 Co435 2.140 . S
N449 C452 1.346 . S
N449 C453 1.345 . S
C450 C451 1.387 . S
C450 C454 1.391 . S
C451 C450 1.387 . S
C451 C452 1.369 . S
C451 H460 0.929 . S
C452 N449 1.346 . S
C452 C451 1.369 . S
C452 H455 0.928 . S
C453 N449 1.345 . S
C453 C454 1.371 . S
C453 H456 0.931 . S
C454 C450 1.391 . S
C454 C453 1.371 . S
C454 H461 0.930 . S
H455 C452 0.928 . S
H456 C453 0.931 . S
H457 C433 0.930 . S
H458 C430 0.930 . S
H459 C439 0.930 . S
H460 C451 0.929 . S
H461 C454 0.930 . S
C462 C463 1.351 . S
C462 N465 1.368 . S
C462 H467 0.931 1_655 S
C463 C462 1.351 . S
C463 N464 1.373 . S
C463 H491 0.930 . S
N464 C463 1.373 . S
N464 C466 1.340 . S
N465 C462 1.368 . S
N465 C466 1.321 . S
N465 Co468 2.135 1_655 S
C466 N464 1.340 . S
C466 N465 1.321 . S
C466 H490 0.930 . S
H467 C462 0.931 1_455 S
Co468 N465 2.135 1_455 S
Co468 N471 2.121 . S
Co468 O476 2.055 . S
Co468 O479 2.039 1_455 S
Co468 N482 2.140 . S
C469 O470 1.227 . S
C469 O479 1.265 . S
O470 C469 1.227 . S
N471 Co468 2.121 . S
N471 C473 1.375 . S
N471 C474 1.313 . S
C472 C473 1.338 . S
C472 N475 1.377 . S
C472 H492 0.930 . S
C473 N471 1.375 . S
C473 C472 1.338 . S
C473 H477 0.931 . S
C474 N471 1.313 . S
C474 N475 1.344 . S
C474 H478 0.930 . S
N475 C472 1.377 . S
N475 C474 1.344 . S
O476 Co468 2.055 . S
O476 C480 1.253 . S
H477 C473 0.931 . S
H478 C474 0.930 . S
O479 Co468 2.039 1_655 S
O479 C469 1.265 . S
C480 O476 1.253 . S
C480 O481 1.227 . S
O481 C480 1.227 . S
N482 Co468 2.140 . S
N482 C485 1.346 1_455 S
N482 C486 1.345 . S
C483 C484 1.387 1_455 S
C483 C487 1.391 . S
C484 C483 1.387 1_655 S
C484 C485 1.369 . S
C484 H493 0.929 . S
C485 N482 1.346 1_655 S
C485 C484 1.369 . S
C485 H488 0.928 . S
C486 N482 1.345 . S
C486 C487 1.371 . S
C486 H489 0.931 . S
C487 C483 1.391 . S
C487 C486 1.371 . S
C487 H494 0.930 . S
H488 C485 0.928 . S
H489 C486 0.931 . S
H490 C466 0.930 . S
H491 C463 0.930 . S
H492 C472 0.930 . S
H493 C484 0.929 . S
H494 C487 0.930 . S
C495 C496 1.351 . S
C495 N498 1.368 . S
C495 H500 0.931 . S
C496 C495 1.351 . S
C496 N497 1.373 . S
C496 H524 0.930 . S
N497 C496 1.373 . S
N497 C499 1.340 . S
N498 C495 1.368 . S
N498 C499 1.321 . S
N498 Co501 2.135 . S
C499 N497 1.340 . S
C499 N498 1.321 . S
C499 H523 0.930 . S
H500 C495 0.931 . S
Co501 N498 2.135 . S
Co501 N504 2.121 . S
Co501 O509 2.055 . S
Co501 O512 2.039 . S
Co501 N515 2.140 . S
C502 O503 1.227 . S
C502 O512 1.265 . S
O503 C502 1.227 . S
N504 Co501 2.121 . S
N504 C506 1.375 . S
N504 C507 1.313 . S
C505 C506 1.338 . S
C505 N508 1.377 . S
C505 H525 0.930 . S
C506 N504 1.375 . S
C506 C505 1.338 . S
C506 H510 0.931 . S
C507 N504 1.313 . S
C507 N508 1.344 . S
C507 H511 0.930 . S
N508 C505 1.377 . S
N508 C507 1.344 . S
O509 Co501 2.055 . S
O509 C513 1.253 . S
H510 C506 0.931 . S
H511 C507 0.930 . S
O512 Co501 2.039 . S
O512 C502 1.265 . S
C513 O509 1.253 . S
C513 O514 1.227 . S
O514 C513 1.227 . S
N515 Co501 2.140 . S
N515 C518 1.346 . S
N515 C519 1.345 . S
C516 C517 1.387 . S
C516 C520 1.391 . S
C517 C516 1.387 . S
C517 C518 1.369 . S
C517 H526 0.929 . S
C518 N515 1.346 . S
C518 C517 1.369 . S
C518 H521 0.928 . S
C519 N515 1.345 . S
C519 C520 1.371 . S
C519 H522 0.931 . S
C520 C516 1.391 . S
C520 C519 1.371 . S
C520 H527 0.930 . S
H521 C518 0.928 . S
H522 C519 0.931 . S
H523 C499 0.930 . S
H524 C496 0.930 . S
H525 C505 0.930 . S
H526 C517 0.929 . S
H527 C520 0.930 . S
C528 C529 1.351 . S
C528 N531 1.368 . S
C528 H533 0.931 . S
C529 C528 1.351 . S
C529 N530 1.373 . S
C529 H557 0.930 . S
N530 C529 1.373 . S
N530 C532 1.340 . S
N531 C528 1.368 . S
N531 C532 1.321 . S
N531 Co534 2.135 . S
C532 N530 1.340 . S
C532 N531 1.321 . S
C532 H556 0.930 . S
H533 C528 0.931 . S
Co534 N531 2.135 . S
Co534 N537 2.121 1_455 S
Co534 O542 2.055 1_455 S
Co534 O545 2.039 . S
Co534 N548 2.140 . S
C535 O536 1.227 . S
C535 O545 1.265 . S
O536 C535 1.227 . S
N537 Co534 2.121 1_655 S
N537 C539 1.375 . S
N537 C540 1.313 . S
C538 C539 1.338 . S
C538 N541 1.377 . S
C538 H558 0.930 . S
C539 N537 1.375 . S
C539 C538 1.338 . S
C539 H543 0.931 1_655 S
C540 N537 1.313 . S
C540 N541 1.344 . S
C540 H544 0.930 . S
N541 C538 1.377 . S
N541 C540 1.344 . S
O542 Co534 2.055 1_655 S
O542 C546 1.253 . S
H543 C539 0.931 1_455 S
H544 C540 0.930 . S
O545 Co534 2.039 . S
O545 C535 1.265 . S
C546 O542 1.253 . S
C546 O547 1.227 . S
O547 C546 1.227 . S
N548 Co534 2.140 . S
N548 C551 1.346 . S
N548 C552 1.345 1_455 S
C549 C550 1.387 . S
C549 C553 1.391 1_455 S
C550 C549 1.387 . S
C550 C551 1.369 . S
C550 H559 0.929 . S
C551 N548 1.346 . S
C551 C550 1.369 . S
C551 H554 0.928 . S
C552 N548 1.345 1_655 S
C552 C553 1.371 . S
C552 H555 0.931 . S
C553 C549 1.391 1_655 S
C553 C552 1.371 . S
C553 H560 0.930 . S
H554 C551 0.928 . S
H555 C552 0.931 . S
H556 C532 0.930 . S
H557 C529 0.930 . S
H558 C538 0.930 . S
H559 C550 0.929 . S
H560 C553 0.930 . S
C561 C562 1.351 . S
C561 N564 1.368 . S
C561 H566 0.931 . S
C562 C561 1.351 . S
C562 N563 1.373 . S
C562 H590 0.930 . S
N563 C562 1.373 . S
N563 C565 1.340 . S
N564 C561 1.368 . S
N564 C565 1.321 . S
N564 Co567 2.135 . S
C565 N563 1.340 . S
C565 N564 1.321 . S
C565 H589 0.930 . S
H566 C561 0.931 . S
Co567 N564 2.135 . S
Co567 N570 2.121 . S
Co567 O575 2.055 . S
Co567 O578 2.039 . S
Co567 N581 2.140 . S
C568 O569 1.227 . S
C568 O578 1.265 . S
O569 C568 1.227 . S
N570 Co567 2.121 . S
N570 C572 1.375 . S
N570 C573 1.313 . S
C571 C572 1.338 . S
C571 N574 1.377 . S
C571 H591 0.930 . S
C572 N570 1.375 . S
C572 C571 1.338 . S
C572 H576 0.931 . S
C573 N570 1.313 . S
C573 N574 1.344 . S
C573 H577 0.930 . S
N574 C571 1.377 . S
N574 C573 1.344 . S
O575 Co567 2.055 . S
O575 C579 1.253 . S
H576 C572 0.931 . S
H577 C573 0.930 . S
O578 Co567 2.039 . S
O578 C568 1.265 . S
C579 O575 1.253 . S
C579 O580 1.227 . S
O580 C579 1.227 . S
N581 Co567 2.140 . S
N581 C584 1.346 . S
N581 C585 1.345 . S
C582 C583 1.387 . S
C582 C586 1.391 . S
C583 C582 1.387 . S
C583 C584 1.369 . S
C583 H592 0.929 . S
C584 N581 1.346 . S
C584 C583 1.369 . S
C584 H587 0.928 . S
C585 N581 1.345 . S
C585 C586 1.371 . S
C585 H588 0.931 . S
C586 C582 1.391 . S
C586 C585 1.371 . S
C586 H593 0.930 . S
H587 C584 0.928 . S
H588 C585 0.931 . S
H589 C565 0.930 . S
H590 C562 0.930 . S
H591 C571 0.930 . S
H592 C583 0.929 . S
H593 C586 0.930 . S
C594 C595 1.351 . S
C594 N597 1.368 . S
C594 H599 0.931 1_655 S
C595 C594 1.351 . S
C595 N596 1.373 . S
C595 H623 0.930 . S
N596 C595 1.373 . S
N596 C598 1.340 . S
N597 C594 1.368 . S
N597 C598 1.321 . S
N597 Co600 2.135 1_655 S
C598 N596 1.340 . S
C598 N597 1.321 . S
C598 H622 0.930 . S
H599 C594 0.931 1_455 S
Co600 N597 2.135 1_455 S
Co600 N603 2.121 . S
Co600 O608 2.055 . S
Co600 O611 2.039 1_455 S
Co600 N614 2.140 . S
C601 O602 1.227 . S
C601 O611 1.265 . S
O602 C601 1.227 . S
N603 Co600 2.121 . S
N603 C605 1.375 . S
N603 C606 1.313 . S
C604 C605 1.338 . S
C604 N607 1.377 . S
C604 H624 0.930 . S
C605 N603 1.375 . S
C605 C604 1.338 . S
C605 H609 0.931 . S
C606 N603 1.313 . S
C606 N607 1.344 . S
C606 H610 0.930 . S
N607 C604 1.377 . S
N607 C606 1.344 . S
O608 Co600 2.055 . S
O608 C612 1.253 . S
H609 C605 0.931 . S
H610 C606 0.930 . S
O611 Co600 2.039 1_655 S
O611 C601 1.265 . S
C612 O608 1.253 . S
C612 O613 1.227 . S
O613 C612 1.227 . S
N614 Co600 2.140 . S
N614 C617 1.346 1_455 S
N614 C618 1.345 . S
C615 C616 1.387 1_455 S
C615 C619 1.391 . S
C616 C615 1.387 1_655 S
C616 C617 1.369 . S
C616 H625 0.929 . S
C617 N614 1.346 1_655 S
C617 C616 1.369 . S
C617 H620 0.928 . S
C618 N614 1.345 . S
C618 C619 1.371 . S
C618 H621 0.931 . S
C619 C615 1.391 . S
C619 C618 1.371 . S
C619 H626 0.930 . S
H620 C617 0.928 . S
H621 C618 0.931 . S
H622 C598 0.930 . S
H623 C595 0.930 . S
H624 C604 0.930 . S
H625 C616 0.929 . S
H626 C619 0.930 . S
C627 C628 1.351 . S
C627 N630 1.368 . S
C627 H632 0.931 . S
C628 C627 1.351 . S
C628 N629 1.373 . S
C628 H656 0.930 . S
N629 C628 1.373 . S
N629 C631 1.340 . S
N630 C627 1.368 . S
N630 C631 1.321 . S
N630 Co633 2.135 . S
C631 N629 1.340 . S
C631 N630 1.321 . S
C631 H655 0.930 . S
H632 C627 0.931 . S
Co633 N630 2.135 . S
Co633 N636 2.121 . S
Co633 O641 2.055 . S
Co633 O644 2.039 . S
Co633 N647 2.140 . S
C634 O635 1.227 . S
C634 O644 1.265 . S
O635 C634 1.227 . S
N636 Co633 2.121 . S
N636 C638 1.375 . S
N636 C639 1.313 . S
C637 C638 1.338 . S
C637 N640 1.377 . S
C637 H657 0.930 . S
C638 N636 1.375 . S
C638 C637 1.338 . S
C638 H642 0.931 . S
C639 N636 1.313 . S
C639 N640 1.344 . S
C639 H643 0.930 . S
N640 C637 1.377 . S
N640 C639 1.344 . S
O641 Co633 2.055 . S
O641 C645 1.253 . S
H642 C638 0.931 . S
H643 C639 0.930 . S
O644 Co633 2.039 . S
O644 C634 1.265 . S
C645 O641 1.253 . S
C645 O646 1.227 . S
O646 C645 1.227 . S
N647 Co633 2.140 . S
N647 C650 1.346 . S
N647 C651 1.345 . S
C648 C649 1.387 . S
C648 C652 1.391 . S
C649 C648 1.387 . S
C649 C650 1.369 . S
C649 H658 0.929 . S
C650 N647 1.346 . S
C650 C649 1.369 . S
C650 H653 0.928 . S
C651 N647 1.345 . S
C651 C652 1.371 . S
C651 H654 0.931 . S
C652 C648 1.391 . S
C652 C651 1.371 . S
C652 H659 0.930 . S
H653 C650 0.928 . S
H654 C651 0.931 . S
H655 C631 0.930 . S
H656 C628 0.930 . S
H657 C637 0.930 . S
H658 C649 0.929 . S
H659 C652 0.930 . S
C660 C661 1.351 . S
C660 N663 1.368 . S
C660 H665 0.931 . S
C661 C660 1.351 . S
C661 N662 1.373 . S
C661 H689 0.930 . S
N662 C661 1.373 . S
N662 C664 1.340 . S
N663 C660 1.368 . S
N663 C664 1.321 . S
N663 Co666 2.135 . S
C664 N662 1.340 . S
C664 N663 1.321 . S
C664 H688 0.930 . S
H665 C660 0.931 . S
Co666 N663 2.135 . S
Co666 N669 2.121 . S
Co666 O674 2.055 . S
Co666 O677 2.039 . S
Co666 N680 2.140 . S
C667 O668 1.227 . S
C667 O677 1.265 . S
O668 C667 1.227 . S
N669 Co666 2.121 . S
N669 C671 1.375 . S
N669 C672 1.313 . S
C670 C671 1.338 . S
C670 N673 1.377 . S
C670 H690 0.930 . S
C671 N669 1.375 . S
C671 C670 1.338 . S
C671 H675 0.931 . S
C672 N669 1.313 . S
C672 N673 1.344 . S
C672 H676 0.930 . S
N673 C670 1.377 . S
N673 C672 1.344 . S
O674 Co666 2.055 . S
O674 C678 1.253 . S
H675 C671 0.931 . S
H676 C672 0.930 . S
O677 Co666 2.039 . S
O677 C667 1.265 . S
C678 O674 1.253 . S
C678 O679 1.227 . S
O679 C678 1.227 . S
N680 Co666 2.140 . S
N680 C683 1.346 . S
N680 C684 1.345 . S
C681 C682 1.387 . S
C681 C685 1.391 . S
C682 C681 1.387 . S
C682 C683 1.369 . S
C682 H691 0.929 . S
C683 N680 1.346 . S
C683 C682 1.369 . S
C683 H686 0.928 . S
C684 N680 1.345 . S
C684 C685 1.371 . S
C684 H687 0.931 . S
C685 C681 1.391 . S
C685 C684 1.371 . S
C685 H692 0.930 . S
H686 C683 0.928 . S
H687 C684 0.931 . S
H688 C664 0.930 . S
H689 C661 0.930 . S
H690 C670 0.930 . S
H691 C682 0.929 . S
H692 C685 0.930 . S
C693 C694 1.351 . S
C693 N696 1.368 . S
C693 H698 0.931 . S
C694 C693 1.351 . S
C694 N695 1.373 . S
C694 H722 0.930 . S
N695 C694 1.373 . S
N695 C697 1.340 . S
N696 C693 1.368 . S
N696 C697 1.321 . S
N696 Co699 2.135 . S
C697 N695 1.340 . S
C697 N696 1.321 . S
C697 H721 0.930 . S
H698 C693 0.931 . S
Co699 N696 2.135 . S
Co699 N702 2.121 . S
Co699 O707 2.055 . S
Co699 O710 2.039 . S
Co699 N713 2.140 . S
C700 O701 1.227 . S
C700 O710 1.265 . S
O701 C700 1.227 . S
N702 Co699 2.121 . S
N702 C704 1.375 . S
N702 C705 1.313 . S
C703 C704 1.338 . S
C703 N706 1.377 . S
C703 H723 0.930 . S
C704 N702 1.375 . S
C704 C703 1.338 . S
C704 H708 0.931 . S
C705 N702 1.313 . S
C705 N706 1.344 . S
C705 H709 0.930 . S
N706 C703 1.377 . S
N706 C705 1.344 . S
O707 Co699 2.055 . S
O707 C711 1.253 . S
H708 C704 0.931 . S
H709 C705 0.930 . S
O710 Co699 2.039 . S
O710 C700 1.265 . S
C711 O707 1.253 . S
C711 O712 1.227 . S
O712 C711 1.227 . S
N713 Co699 2.140 . S
N713 C716 1.346 . S
N713 C717 1.345 . S
C714 C715 1.387 . S
C714 C718 1.391 . S
C715 C714 1.387 . S
C715 C716 1.369 . S
C715 H724 0.929 . S
C716 N713 1.346 . S
C716 C715 1.369 . S
C716 H719 0.928 . S
C717 N713 1.345 . S
C717 C718 1.371 . S
C717 H720 0.931 . S
C718 C714 1.391 . S
C718 C717 1.371 . S
C718 H725 0.930 . S
H719 C716 0.928 . S
H720 C717 0.931 . S
H721 C697 0.930 . S
H722 C694 0.930 . S
H723 C703 0.930 . S
H724 C715 0.929 . S
H725 C718 0.930 . S
C726 C727 1.351 . S
C726 N729 1.368 . S
C726 H731 0.931 . S
C727 C726 1.351 . S
C727 N728 1.373 . S
C727 H755 0.930 . S
N728 C727 1.373 . S
N728 C730 1.340 . S
N729 C726 1.368 . S
N729 C730 1.321 . S
N729 Co732 2.135 . S
C730 N728 1.340 . S
C730 N729 1.321 . S
C730 H754 0.930 . S
H731 C726 0.931 . S
Co732 N729 2.135 . S
Co732 N735 2.121 . S
Co732 O740 2.055 . S
Co732 O743 2.039 . S
Co732 N746 2.140 . S
C733 O734 1.227 . S
C733 O743 1.265 . S
O734 C733 1.227 . S
N735 Co732 2.121 . S
N735 C737 1.375 . S
N735 C738 1.313 . S
C736 C737 1.338 . S
C736 N739 1.377 . S
C736 H756 0.930 . S
C737 N735 1.375 . S
C737 C736 1.338 . S
C737 H741 0.931 . S
C738 N735 1.313 . S
C738 N739 1.344 . S
C738 H742 0.930 . S
N739 C736 1.377 . S
N739 C738 1.344 . S
O740 Co732 2.055 . S
O740 C744 1.253 . S
H741 C737 0.931 . S
H742 C738 0.930 . S
O743 Co732 2.039 . S
O743 C733 1.265 . S
C744 O740 1.253 . S
C744 O745 1.227 . S
O745 C744 1.227 . S
N746 Co732 2.140 . S
N746 C749 1.346 . S
N746 C750 1.345 . S
C747 C748 1.387 . S
C747 C751 1.391 . S
C748 C747 1.387 . S
C748 C749 1.369 . S
C748 H757 0.929 . S
C749 N746 1.346 . S
C749 C748 1.369 . S
C749 H752 0.928 . S
C750 N746 1.345 . S
C750 C751 1.371 . S
C750 H753 0.931 . S
C751 C747 1.391 . S
C751 C750 1.371 . S
C751 H758 0.930 . S
H752 C749 0.928 . S
H753 C750 0.931 . S
H754 C730 0.930 . S
H755 C727 0.930 . S
H756 C736 0.930 . S
H757 C748 0.929 . S
H758 C751 0.930 . S
C759 C760 1.351 . S
C759 N762 1.368 . S
C759 H764 0.931 . S
C760 C759 1.351 . S
C760 N761 1.373 . S
C760 H788 0.930 . S
N761 C760 1.373 . S
N761 C763 1.340 . S
N762 C759 1.368 . S
N762 C763 1.321 . S
N762 Co765 2.135 . S
C763 N761 1.340 . S
C763 N762 1.321 . S
C763 H787 0.930 . S
H764 C759 0.931 . S
Co765 N762 2.135 . S
Co765 N768 2.121 . S
Co765 O773 2.055 . S
Co765 O776 2.039 . S
Co765 N779 2.140 . S
C766 O767 1.227 . S
C766 O776 1.265 . S
O767 C766 1.227 . S
N768 Co765 2.121 . S
N768 C770 1.375 . S
N768 C771 1.313 . S
C769 C770 1.338 . S
C769 N772 1.377 . S
C769 H789 0.930 . S
C770 N768 1.375 . S
C770 C769 1.338 . S
C770 H774 0.931 . S
C771 N768 1.313 . S
C771 N772 1.344 . S
C771 H775 0.930 . S
N772 C769 1.377 . S
N772 C771 1.344 . S
O773 Co765 2.055 . S
O773 C777 1.253 . S
H774 C770 0.931 . S
H775 C771 0.930 . S
O776 Co765 2.039 . S
O776 C766 1.265 . S
C777 O773 1.253 . S
C777 O778 1.227 . S
O778 C777 1.227 . S
N779 Co765 2.140 . S
N779 C782 1.346 . S
N779 C783 1.345 . S
C780 C781 1.387 . S
C780 C784 1.391 . S
C781 C780 1.387 . S
C781 C782 1.369 . S
C781 H790 0.929 . S
C782 N779 1.346 . S
C782 C781 1.369 . S
C782 H785 0.928 . S
C783 N779 1.345 . S
C783 C784 1.371 . S
C783 H786 0.931 . S
C784 C780 1.391 . S
C784 C783 1.371 . S
C784 H791 0.930 . S
H785 C782 0.928 . S
H786 C783 0.931 . S
H787 C763 0.930 . S
H788 C760 0.930 . S
H789 C769 0.930 . S
H790 C781 0.929 . S
H791 C784 0.930 . S
C792 C793 1.351 . S
C792 N795 1.368 . S
C792 H797 0.931 . S
C793 C792 1.351 . S
C793 N794 1.373 . S
C793 H821 0.930 . S
N794 C793 1.373 . S
N794 C796 1.340 . S
N795 C792 1.368 . S
N795 C796 1.321 . S
N795 Co798 2.135 . S
C796 N794 1.340 . S
C796 N795 1.321 . S
C796 H820 0.930 . S
H797 C792 0.931 . S
Co798 N795 2.135 . S
Co798 N801 2.121 . S
Co798 O806 2.055 . S
Co798 O809 2.039 . S
Co798 N812 2.140 . S
C799 O800 1.227 . S
C799 O809 1.265 . S
O800 C799 1.227 . S
N801 Co798 2.121 . S
N801 C803 1.375 . S
N801 C804 1.313 . S
C802 C803 1.338 . S
C802 N805 1.377 . S
C802 H822 0.930 . S
C803 N801 1.375 . S
C803 C802 1.338 . S
C803 H807 0.931 . S
C804 N801 1.313 . S
C804 N805 1.344 . S
C804 H808 0.930 . S
N805 C802 1.377 . S
N805 C804 1.344 . S
O806 Co798 2.055 . S
O806 C810 1.253 . S
H807 C803 0.931 . S
H808 C804 0.930 . S
O809 Co798 2.039 . S
O809 C799 1.265 . S
C810 O806 1.253 . S
C810 O811 1.227 . S
O811 C810 1.227 . S
N812 Co798 2.140 . S
N812 C815 1.346 . S
N812 C816 1.345 . S
C813 C814 1.387 . S
C813 C817 1.391 . S
C814 C813 1.387 . S
C814 C815 1.369 . S
C814 H823 0.929 . S
C815 N812 1.346 . S
C815 C814 1.369 . S
C815 H818 0.928 . S
C816 N812 1.345 . S
C816 C817 1.371 . S
C816 H819 0.931 . S
C817 C813 1.391 . S
C817 C816 1.371 . S
C817 H824 0.930 . S
H818 C815 0.928 . S
H819 C816 0.931 . S
H820 C796 0.930 . S
H821 C793 0.930 . S
H822 C802 0.930 . S
H823 C814 0.929 . S
H824 C817 0.930 . S
C825 C826 1.351 . S
C825 N828 1.368 . S
C825 H830 0.931 . S
C826 C825 1.351 . S
C826 N827 1.373 . S
C826 H854 0.930 . S
N827 C826 1.373 . S
N827 C829 1.340 . S
N828 C825 1.368 . S
N828 C829 1.321 . S
N828 Co831 2.135 . S
C829 N827 1.340 . S
C829 N828 1.321 . S
C829 H853 0.930 . S
H830 C825 0.931 . S
Co831 N828 2.135 . S
Co831 N834 2.121 1_545 S
Co831 O839 2.055 1_545 S
Co831 O842 2.039 . S
Co831 N845 2.140 . S
C832 O833 1.227 . S
C832 O842 1.265 . S
O833 C832 1.227 . S
N834 Co831 2.121 1_565 S
N834 C836 1.375 . S
N834 C837 1.313 . S
C835 C836 1.338 . S
C835 N838 1.377 . S
C835 H855 0.930 . S
C836 N834 1.375 . S
C836 C835 1.338 . S
C836 H840 0.931 1_565 S
C837 N834 1.313 . S
C837 N838 1.344 . S
C837 H841 0.930 . S
N838 C835 1.377 . S
N838 C837 1.344 . S
O839 Co831 2.055 1_565 S
O839 C843 1.253 . S
H840 C836 0.931 1_545 S
H841 C837 0.930 . S
O842 Co831 2.039 . S
O842 C832 1.265 . S
C843 O839 1.253 . S
C843 O844 1.227 . S
O844 C843 1.227 . S
N845 Co831 2.140 . S
N845 C848 1.346 . S
N845 C849 1.345 1_545 S
C846 C847 1.387 . S
C846 C850 1.391 1_545 S
C847 C846 1.387 . S
C847 C848 1.369 . S
C847 H856 0.929 . S
C848 N845 1.346 . S
C848 C847 1.369 . S
C848 H851 0.928 . S
C849 N845 1.345 1_565 S
C849 C850 1.371 . S
C849 H852 0.931 . S
C850 C846 1.391 1_565 S
C850 C849 1.371 . S
C850 H857 0.930 . S
H851 C848 0.928 . S
H852 C849 0.931 . S
H853 C829 0.930 . S
H854 C826 0.930 . S
H855 C835 0.930 . S
H856 C847 0.929 . S
H857 C850 0.930 . S
C858 C859 1.351 . S
C858 N861 1.368 . S
C858 H863 0.931 . S
C859 C858 1.351 . S
C859 N860 1.373 . S
C859 H887 0.930 . S
N860 C859 1.373 . S
N860 C862 1.340 . S
N861 C858 1.368 . S
N861 C862 1.321 . S
N861 Co864 2.135 . S
C862 N860 1.340 . S
C862 N861 1.321 . S
C862 H886 0.930 . S
H863 C858 0.931 . S
Co864 N861 2.135 . S
Co864 N867 2.121 . S
Co864 O872 2.055 . S
Co864 O875 2.039 . S
Co864 N878 2.140 . S
C865 O866 1.227 . S
C865 O875 1.265 . S
O866 C865 1.227 . S
N867 Co864 2.121 . S
N867 C869 1.375 . S
N867 C870 1.313 . S
C868 C869 1.338 . S
C868 N871 1.377 . S
C868 H888 0.930 . S
C869 N867 1.375 . S
C869 C868 1.338 . S
C869 H873 0.931 . S
C870 N867 1.313 . S
C870 N871 1.344 . S
C870 H874 0.930 . S
N871 C868 1.377 . S
N871 C870 1.344 . S
O872 Co864 2.055 . S
O872 C876 1.253 . S
H873 C869 0.931 . S
H874 C870 0.930 . S
O875 Co864 2.039 . S
O875 C865 1.265 . S
C876 O872 1.253 . S
C876 O877 1.227 . S
O877 C876 1.227 . S
N878 Co864 2.140 . S
N878 C881 1.346 . S
N878 C882 1.345 . S
C879 C880 1.387 . S
C879 C883 1.391 . S
C880 C879 1.387 . S
C880 C881 1.369 . S
C880 H889 0.929 . S
C881 N878 1.346 . S
C881 C880 1.369 . S
C881 H884 0.928 . S
C882 N878 1.345 . S
C882 C883 1.371 . S
C882 H885 0.931 . S
C883 C879 1.391 . S
C883 C882 1.371 . S
C883 H890 0.930 . S
H884 C881 0.928 . S
H885 C882 0.931 . S
H886 C862 0.930 . S
H887 C859 0.930 . S
H888 C868 0.930 . S
H889 C880 0.929 . S
H890 C883 0.930 . S
C891 C892 1.351 . S
C891 N894 1.368 . S
C891 H896 0.931 1_565 S
C892 C891 1.351 . S
C892 N893 1.373 . S
C892 H920 0.930 . S
N893 C892 1.373 . S
N893 C895 1.340 . S
N894 C891 1.368 . S
N894 C895 1.321 . S
N894 Co897 2.135 1_565 S
C895 N893 1.340 . S
C895 N894 1.321 . S
C895 H919 0.930 . S
H896 C891 0.931 1_545 S
Co897 N894 2.135 1_545 S
Co897 N900 2.121 . S
Co897 O905 2.055 . S
Co897 O908 2.039 1_545 S
Co897 N911 2.140 . S
C898 O899 1.227 . S
C898 O908 1.265 . S
O899 C898 1.227 . S
N900 Co897 2.121 . S
N900 C902 1.375 . S
N900 C903 1.313 . S
C901 C902 1.338 . S
C901 N904 1.377 . S
C901 H921 0.930 . S
C902 N900 1.375 . S
C902 C901 1.338 . S
C902 H906 0.931 . S
C903 N900 1.313 . S
C903 N904 1.344 . S
C903 H907 0.930 . S
N904 C901 1.377 . S
N904 C903 1.344 . S
O905 Co897 2.055 . S
O905 C909 1.253 . S
H906 C902 0.931 . S
H907 C903 0.930 . S
O908 Co897 2.039 1_565 S
O908 C898 1.265 . S
C909 O905 1.253 . S
C909 O910 1.227 . S
O910 C909 1.227 . S
N911 Co897 2.140 . S
N911 C914 1.346 1_545 S
N911 C915 1.345 . S
C912 C913 1.387 1_545 S
C912 C916 1.391 . S
C913 C912 1.387 1_565 S
C913 C914 1.369 . S
C913 H922 0.929 . S
C914 N911 1.346 1_565 S
C914 C913 1.369 . S
C914 H917 0.928 . S
C915 N911 1.345 . S
C915 C916 1.371 . S
C915 H918 0.931 . S
C916 C912 1.391 . S
C916 C915 1.371 . S
C916 H923 0.930 . S
H917 C914 0.928 . S
H918 C915 0.931 . S
H919 C895 0.930 . S
H920 C892 0.930 . S
H921 C901 0.930 . S
H922 C913 0.929 . S
H923 C916 0.930 . S
C924 C925 1.351 . S
C924 N927 1.368 . S
C924 H929 0.931 . S
C925 C924 1.351 . S
C925 N926 1.373 . S
C925 H953 0.930 . S
N926 C925 1.373 . S
N926 C928 1.340 . S
N927 C924 1.368 . S
N927 C928 1.321 . S
N927 Co930 2.135 . S
C928 N926 1.340 . S
C928 N927 1.321 . S
C928 H952 0.930 . S
H929 C924 0.931 . S
Co930 N927 2.135 . S
Co930 N933 2.121 . S
Co930 O938 2.055 . S
Co930 O941 2.039 . S
Co930 N944 2.140 . S
C931 O932 1.227 . S
C931 O941 1.265 . S
O932 C931 1.227 . S
N933 Co930 2.121 . S
N933 C935 1.375 . S
N933 C936 1.313 . S
C934 C935 1.338 . S
C934 N937 1.377 . S
C934 H954 0.930 . S
C935 N933 1.375 . S
C935 C934 1.338 . S
C935 H939 0.931 . S
C936 N933 1.313 . S
C936 N937 1.344 . S
C936 H940 0.930 . S
N937 C934 1.377 . S
N937 C936 1.344 . S
O938 Co930 2.055 . S
O938 C942 1.253 . S
H939 C935 0.931 . S
H940 C936 0.930 . S
O941 Co930 2.039 . S
O941 C931 1.265 . S
C942 O938 1.253 . S
C942 O943 1.227 . S
O943 C942 1.227 . S
N944 Co930 2.140 . S
N944 C947 1.346 . S
N944 C948 1.345 . S
C945 C946 1.387 . S
C945 C949 1.391 . S
C946 C945 1.387 . S
C946 C947 1.369 . S
C946 H955 0.929 . S
C947 N944 1.346 . S
C947 C946 1.369 . S
C947 H950 0.928 . S
C948 N944 1.345 . S
C948 C949 1.371 . S
C948 H951 0.931 . S
C949 C945 1.391 . S
C949 C948 1.371 . S
C949 H956 0.930 . S
H950 C947 0.928 . S
H951 C948 0.931 . S
H952 C928 0.930 . S
H953 C925 0.930 . S
H954 C934 0.930 . S
H955 C946 0.929 . S
H956 C949 0.930 . S
C957 C958 1.351 . S
C957 N960 1.368 . S
C957 H962 0.931 1_565 S
C958 C957 1.351 . S
C958 N959 1.373 . S
C958 H986 0.930 . S
N959 C958 1.373 . S
N959 C961 1.340 . S
N960 C957 1.368 . S
N960 C961 1.321 . S
N960 Co963 2.135 1_565 S
C961 N959 1.340 . S
C961 N960 1.321 . S
C961 H985 0.930 . S
H962 C957 0.931 1_545 S
Co963 N960 2.135 1_545 S
Co963 N966 2.121 . S
Co963 O971 2.055 . S
Co963 O974 2.039 1_545 S
Co963 N977 2.140 . S
C964 O965 1.227 . S
C964 O974 1.265 . S
O965 C964 1.227 . S
N966 Co963 2.121 . S
N966 C968 1.375 . S
N966 C969 1.313 . S
C967 C968 1.338 . S
C967 N970 1.377 . S
C967 H987 0.930 . S
C968 N966 1.375 . S
C968 C967 1.338 . S
C968 H972 0.931 . S
C969 N966 1.313 . S
C969 N970 1.344 . S
C969 H973 0.930 . S
N970 C967 1.377 . S
N970 C969 1.344 . S
O971 Co963 2.055 . S
O971 C975 1.253 . S
H972 C968 0.931 . S
H973 C969 0.930 . S
O974 Co963 2.039 1_565 S
O974 C964 1.265 . S
C975 O971 1.253 . S
C975 O976 1.227 . S
O976 C975 1.227 . S
N977 Co963 2.140 . S
N977 C980 1.346 1_545 S
N977 C981 1.345 . S
C978 C979 1.387 1_545 S
C978 C982 1.391 . S
C979 C978 1.387 1_565 S
C979 C980 1.369 . S
C979 H988 0.929 . S
C980 N977 1.346 1_565 S
C980 C979 1.369 . S
C980 H983 0.928 . S
C981 N977 1.345 . S
C981 C982 1.371 . S
C981 H984 0.931 . S
C982 C978 1.391 . S
C982 C981 1.371 . S
C982 H989 0.930 . S
H983 C980 0.928 . S
H984 C981 0.931 . S
H985 C961 0.930 . S
H986 C958 0.930 . S
H987 C967 0.930 . S
H988 C979 0.929 . S
H989 C982 0.930 . S
C990 C991 1.351 . S
C990 N993 1.368 . S
C990 H995 0.931 . S
C991 C990 1.351 . S
C991 N992 1.373 . S
C991 H1019 0.930 . S
N992 C991 1.373 . S
N992 C994 1.340 . S
N993 C990 1.368 . S
N993 C994 1.321 . S
N993 Co996 2.135 . S
C994 N992 1.340 . S
C994 N993 1.321 . S
C994 H1018 0.930 . S
H995 C990 0.931 . S
Co996 N993 2.135 . S
Co996 N999 2.121 . S
Co996 O1004 2.055 . S
Co996 O1007 2.039 . S
Co996 N1010 2.140 . S
C997 O998 1.227 . S
C997 O1007 1.265 . S
O998 C997 1.227 . S
N999 Co996 2.121 . S
N999 C1001 1.375 . S
N999 C1002 1.313 . S
C1000 C1001 1.338 . S
C1000 N1003 1.377 . S
C1000 H1020 0.930 . S
C1001 N999 1.375 . S
C1001 C1000 1.338 . S
C1001 H1005 0.931 . S
C1002 N999 1.313 . S
C1002 N1003 1.344 . S
C1002 H1006 0.930 . S
N1003 C1000 1.377 . S
N1003 C1002 1.344 . S
O1004 Co996 2.055 . S
O1004 C1008 1.253 . S
H1005 C1001 0.931 . S
H1006 C1002 0.930 . S
O1007 Co996 2.039 . S
O1007 C997 1.265 . S
C1008 O1004 1.253 . S
C1008 O1009 1.227 . S
O1009 C1008 1.227 . S
N1010 Co996 2.140 . S
N1010 C1013 1.346 . S
N1010 C1014 1.345 . S
C1011 C1012 1.387 . S
C1011 C1015 1.391 . S
C1012 C1011 1.387 . S
C1012 C1013 1.369 . S
C1012 H1021 0.929 . S
C1013 N1010 1.346 . S
C1013 C1012 1.369 . S
C1013 H1016 0.928 . S
C1014 N1010 1.345 . S
C1014 C1015 1.371 . S
C1014 H1017 0.931 . S
C1015 C1011 1.391 . S
C1015 C1014 1.371 . S
C1015 H1022 0.930 . S
H1016 C1013 0.928 . S
H1017 C1014 0.931 . S
H1018 C994 0.930 . S
H1019 C991 0.930 . S
H1020 C1000 0.930 . S
H1021 C1012 0.929 . S
H1022 C1015 0.930 . S
C1023 C1024 1.351 . S
C1023 N1026 1.368 . S
C1023 H1028 0.931 . S
C1024 C1023 1.351 . S
C1024 N1025 1.373 . S
C1024 H1052 0.930 . S
N1025 C1024 1.373 . S
N1025 C1027 1.340 . S
N1026 C1023 1.368 . S
N1026 C1027 1.321 . S
N1026 Co1029 2.135 . S
C1027 N1025 1.340 . S
C1027 N1026 1.321 . S
C1027 H1051 0.930 . S
H1028 C1023 0.931 . S
Co1029 N1026 2.135 . S
Co1029 N1032 2.121 1_545 S
Co1029 O1037 2.055 1_545 S
Co1029 O1040 2.039 . S
Co1029 N1043 2.140 . S
C1030 O1031 1.227 . S
C1030 O1040 1.265 . S
O1031 C1030 1.227 . S
N1032 Co1029 2.121 1_565 S
N1032 C1034 1.375 . S
N1032 C1035 1.313 . S
C1033 C1034 1.338 . S
C1033 N1036 1.377 . S
C1033 H1053 0.930 . S
C1034 N1032 1.375 . S
C1034 C1033 1.338 . S
C1034 H1038 0.931 1_565 S
C1035 N1032 1.313 . S
C1035 N1036 1.344 . S
C1035 H1039 0.930 . S
N1036 C1033 1.377 . S
N1036 C1035 1.344 . S
O1037 Co1029 2.055 1_565 S
O1037 C1041 1.253 . S
H1038 C1034 0.931 1_545 S
H1039 C1035 0.930 . S
O1040 Co1029 2.039 . S
O1040 C1030 1.265 . S
C1041 O1037 1.253 . S
C1041 O1042 1.227 . S
O1042 C1041 1.227 . S
N1043 Co1029 2.140 . S
N1043 C1046 1.346 . S
N1043 C1047 1.345 1_545 S
C1044 C1045 1.387 . S
C1044 C1048 1.391 1_545 S
C1045 C1044 1.387 . S
C1045 C1046 1.369 . S
C1045 H1054 0.929 . S
C1046 N1043 1.346 . S
C1046 C1045 1.369 . S
C1046 H1049 0.928 . S
C1047 N1043 1.345 1_565 S
C1047 C1048 1.371 . S
C1047 H1050 0.931 . S
C1048 C1044 1.391 1_565 S
C1048 C1047 1.371 . S
C1048 H1055 0.930 . S
H1049 C1046 0.928 . S
H1050 C1047 0.931 . S
H1051 C1027 0.930 . S
H1052 C1024 0.930 . S
H1053 C1033 0.930 . S
H1054 C1045 0.929 . S
H1055 C1048 0.930 . S
C1056 C1057 1.351 . S
C1056 N1059 1.368 . S
C1056 H1061 0.931 . S
C1057 C1056 1.351 . S
C1057 N1058 1.373 . S
C1057 H1085 0.930 . S
N1058 C1057 1.373 . S
N1058 C1060 1.340 . S
N1059 C1056 1.368 . S
N1059 C1060 1.321 . S
N1059 Co1062 2.135 . S
C1060 N1058 1.340 . S
C1060 N1059 1.321 . S
C1060 H1084 0.930 . S
H1061 C1056 0.931 . S
Co1062 N1059 2.135 . S
Co1062 N1065 2.121 . S
Co1062 O1070 2.055 . S
Co1062 O1073 2.039 . S
Co1062 N1076 2.140 . S
C1063 O1064 1.227 . S
C1063 O1073 1.265 . S
O1064 C1063 1.227 . S
N1065 Co1062 2.121 . S
N1065 C1067 1.375 . S
N1065 C1068 1.313 . S
C1066 C1067 1.338 . S
C1066 N1069 1.377 . S
C1066 H1086 0.930 . S
C1067 N1065 1.375 . S
C1067 C1066 1.338 . S
C1067 H1071 0.931 . S
C1068 N1065 1.313 . S
C1068 N1069 1.344 . S
C1068 H1072 0.930 . S
N1069 C1066 1.377 . S
N1069 C1068 1.344 . S
O1070 Co1062 2.055 . S
O1070 C1074 1.253 . S
H1071 C1067 0.931 . S
H1072 C1068 0.930 . S
O1073 Co1062 2.039 . S
O1073 C1063 1.265 . S
C1074 O1070 1.253 . S
C1074 O1075 1.227 . S
O1075 C1074 1.227 . S
N1076 Co1062 2.140 . S
N1076 C1079 1.346 . S
N1076 C1080 1.345 . S
C1077 C1078 1.387 . S
C1077 C1081 1.391 . S
C1078 C1077 1.387 . S
C1078 C1079 1.369 . S
C1078 H1087 0.929 . S
C1079 N1076 1.346 . S
C1079 C1078 1.369 . S
C1079 H1082 0.928 . S
C1080 N1076 1.345 . S
C1080 C1081 1.371 . S
C1080 H1083 0.931 . S
C1081 C1077 1.391 . S
C1081 C1080 1.371 . S
C1081 H1088 0.930 . S
H1082 C1079 0.928 . S
H1083 C1080 0.931 . S
H1084 C1060 0.930 . S
H1085 C1057 0.930 . S
H1086 C1066 0.930 . S
H1087 C1078 0.929 . S
H1088 C1081 0.930 . S
C1089 C1090 1.351 . S
C1089 N1092 1.368 . S
C1089 H1094 0.931 . S
C1090 C1089 1.351 . S
C1090 N1091 1.373 . S
C1090 H1118 0.930 . S
N1091 C1090 1.373 . S
N1091 C1093 1.340 . S
N1092 C1089 1.368 . S
N1092 C1093 1.321 . S
N1092 Co1095 2.135 . S
C1093 N1091 1.340 . S
C1093 N1092 1.321 . S
C1093 H1117 0.930 . S
H1094 C1089 0.931 . S
Co1095 N1092 2.135 . S
Co1095 N1098 2.121 . S
Co1095 O1103 2.055 . S
Co1095 O1106 2.039 . S
Co1095 N1109 2.140 . S
C1096 O1097 1.227 . S
C1096 O1106 1.265 . S
O1097 C1096 1.227 . S
N1098 Co1095 2.121 . S
N1098 C1100 1.375 . S
N1098 C1101 1.313 . S
C1099 C1100 1.338 . S
C1099 N1102 1.377 . S
C1099 H1119 0.930 . S
C1100 N1098 1.375 . S
C1100 C1099 1.338 . S
C1100 H1104 0.931 . S
C1101 N1098 1.313 . S
C1101 N1102 1.344 . S
C1101 H1105 0.930 . S
N1102 C1099 1.377 . S
N1102 C1101 1.344 . S
O1103 Co1095 2.055 . S
O1103 C1107 1.253 . S
H1104 C1100 0.931 . S
H1105 C1101 0.930 . S
O1106 Co1095 2.039 . S
O1106 C1096 1.265 . S
C1107 O1103 1.253 . S
C1107 O1108 1.227 . S
O1108 C1107 1.227 . S
N1109 Co1095 2.140 . S
N1109 C1112 1.346 . S
N1109 C1113 1.345 . S
C1110 C1111 1.387 . S
C1110 C1114 1.391 . S
C1111 C1110 1.387 . S
C1111 C1112 1.369 . S
C1111 H1120 0.929 . S
C1112 N1109 1.346 . S
C1112 C1111 1.369 . S
C1112 H1115 0.928 . S
C1113 N1109 1.345 . S
C1113 C1114 1.371 . S
C1113 H1116 0.931 . S
C1114 C1110 1.391 . S
C1114 C1113 1.371 . S
C1114 H1121 0.930 . S
H1115 C1112 0.928 . S
H1116 C1113 0.931 . S
H1117 C1093 0.930 . S
H1118 C1090 0.930 . S
H1119 C1099 0.930 . S
H1120 C1111 0.929 . S
H1121 C1114 0.930 . S
C1122 C1123 1.351 . S
C1122 N1125 1.368 . S
C1122 H1127 0.931 . S
C1123 C1122 1.351 . S
C1123 N1124 1.373 . S
C1123 H1151 0.930 . S
N1124 C1123 1.373 . S
N1124 C1126 1.340 . S
N1125 C1122 1.368 . S
N1125 C1126 1.321 . S
N1125 Co1128 2.135 . S
C1126 N1124 1.340 . S
C1126 N1125 1.321 . S
C1126 H1150 0.930 . S
H1127 C1122 0.931 . S
Co1128 N1125 2.135 . S
Co1128 N1131 2.121 . S
Co1128 O1136 2.055 . S
Co1128 O1139 2.039 . S
Co1128 N1142 2.140 . S
C1129 O1130 1.227 . S
C1129 O1139 1.265 . S
O1130 C1129 1.227 . S
N1131 Co1128 2.121 . S
N1131 C1133 1.375 . S
N1131 C1134 1.313 . S
C1132 C1133 1.338 . S
C1132 N1135 1.377 . S
C1132 H1152 0.930 . S
C1133 N1131 1.375 . S
C1133 C1132 1.338 . S
C1133 H1137 0.931 . S
C1134 N1131 1.313 . S
C1134 N1135 1.344 . S
C1134 H1138 0.930 . S
N1135 C1132 1.377 . S
N1135 C1134 1.344 . S
O1136 Co1128 2.055 . S
O1136 C1140 1.253 . S
H1137 C1133 0.931 . S
H1138 C1134 0.930 . S
O1139 Co1128 2.039 . S
O1139 C1129 1.265 . S
C1140 O1136 1.253 . S
C1140 O1141 1.227 . S
O1141 C1140 1.227 . S
N1142 Co1128 2.140 . S
N1142 C1145 1.346 . S
N1142 C1146 1.345 . S
C1143 C1144 1.387 . S
C1143 C1147 1.391 . S
C1144 C1143 1.387 . S
C1144 C1145 1.369 . S
C1144 H1153 0.929 . S
C1145 N1142 1.346 . S
C1145 C1144 1.369 . S
C1145 H1148 0.928 . S
C1146 N1142 1.345 . S
C1146 C1147 1.371 . S
C1146 H1149 0.931 . S
C1147 C1143 1.391 . S
C1147 C1146 1.371 . S
C1147 H1154 0.930 . S
H1148 C1145 0.928 . S
H1149 C1146 0.931 . S
H1150 C1126 0.930 . S
H1151 C1123 0.930 . S
H1152 C1132 0.930 . S
H1153 C1144 0.929 . S
H1154 C1147 0.930 . S
C1155 C1156 1.351 . S
C1155 N1158 1.368 . S
C1155 H1160 0.931 . S
C1156 C1155 1.351 . S
C1156 N1157 1.373 . S
C1156 H1184 0.930 . S
N1157 C1156 1.373 . S
N1157 C1159 1.340 . S
N1158 C1155 1.368 . S
N1158 C1159 1.321 . S
N1158 Co1161 2.135 . S
C1159 N1157 1.340 . S
C1159 N1158 1.321 . S
C1159 H1183 0.930 . S
H1160 C1155 0.931 . S
Co1161 N1158 2.135 . S
Co1161 N1164 2.121 . S
Co1161 O1169 2.055 . S
Co1161 O1172 2.039 . S
Co1161 N1175 2.140 . S
C1162 O1163 1.227 . S
C1162 O1172 1.265 . S
O1163 C1162 1.227 . S
N1164 Co1161 2.121 . S
N1164 C1166 1.375 . S
N1164 C1167 1.313 . S
C1165 C1166 1.338 . S
C1165 N1168 1.377 . S
C1165 H1185 0.930 . S
C1166 N1164 1.375 . S
C1166 C1165 1.338 . S
C1166 H1170 0.931 . S
C1167 N1164 1.313 . S
C1167 N1168 1.344 . S
C1167 H1171 0.930 . S
N1168 C1165 1.377 . S
N1168 C1167 1.344 . S
O1169 Co1161 2.055 . S
O1169 C1173 1.253 . S
H1170 C1166 0.931 . S
H1171 C1167 0.930 . S
O1172 Co1161 2.039 . S
O1172 C1162 1.265 . S
C1173 O1169 1.253 . S
C1173 O1174 1.227 . S
O1174 C1173 1.227 . S
N1175 Co1161 2.140 . S
N1175 C1178 1.346 . S
N1175 C1179 1.345 . S
C1176 C1177 1.387 . S
C1176 C1180 1.391 . S
C1177 C1176 1.387 . S
C1177 C1178 1.369 . S
C1177 H1186 0.929 . S
C1178 N1175 1.346 . S
C1178 C1177 1.369 . S
C1178 H1181 0.928 . S
C1179 N1175 1.345 . S
C1179 C1180 1.371 . S
C1179 H1182 0.931 . S
C1180 C1176 1.391 . S
C1180 C1179 1.371 . S
C1180 H1187 0.930 . S
H1181 C1178 0.928 . S
H1182 C1179 0.931 . S
H1183 C1159 0.930 . S
H1184 C1156 0.930 . S
H1185 C1165 0.930 . S
H1186 C1177 0.929 . S
H1187 C1180 0.930 . S
C1188 C1189 1.351 . S
C1188 N1191 1.368 . S
C1188 H1193 0.931 . S
C1189 C1188 1.351 . S
C1189 N1190 1.373 . S
C1189 H1217 0.930 . S
N1190 C1189 1.373 . S
N1190 C1192 1.340 . S
N1191 C1188 1.368 . S
N1191 C1192 1.321 . S
N1191 Co1194 2.135 . S
C1192 N1190 1.340 . S
C1192 N1191 1.321 . S
C1192 H1216 0.930 . S
H1193 C1188 0.931 . S
Co1194 N1191 2.135 . S
Co1194 N1197 2.121 . S
Co1194 O1202 2.055 . S
Co1194 O1205 2.039 . S
Co1194 N1208 2.140 . S
C1195 O1196 1.227 . S
C1195 O1205 1.265 . S
O1196 C1195 1.227 . S
N1197 Co1194 2.121 . S
N1197 C1199 1.375 . S
N1197 C1200 1.313 . S
C1198 C1199 1.338 . S
C1198 N1201 1.377 . S
C1198 H1218 0.930 . S
C1199 N1197 1.375 . S
C1199 C1198 1.338 . S
C1199 H1203 0.931 . S
C1200 N1197 1.313 . S
C1200 N1201 1.344 . S
C1200 H1204 0.930 . S
N1201 C1198 1.377 . S
N1201 C1200 1.344 . S
O1202 Co1194 2.055 . S
O1202 C1206 1.253 . S
H1203 C1199 0.931 . S
H1204 C1200 0.930 . S
O1205 Co1194 2.039 . S
O1205 C1195 1.265 . S
C1206 O1202 1.253 . S
C1206 O1207 1.227 . S
O1207 C1206 1.227 . S
N1208 Co1194 2.140 . S
N1208 C1211 1.346 . S
N1208 C1212 1.345 . S
C1209 C1210 1.387 . S
C1209 C1213 1.391 . S
C1210 C1209 1.387 . S
C1210 C1211 1.369 . S
C1210 H1219 0.929 . S
C1211 N1208 1.346 . S
C1211 C1210 1.369 . S
C1211 H1214 0.928 . S
C1212 N1208 1.345 . S
C1212 C1213 1.371 . S
C1212 H1215 0.931 . S
C1213 C1209 1.391 . S
C1213 C1212 1.371 . S
C1213 H1220 0.930 . S
H1214 C1211 0.928 . S
H1215 C1212 0.931 . S
H1216 C1192 0.930 . S
H1217 C1189 0.930 . S
H1218 C1198 0.930 . S
H1219 C1210 0.929 . S
H1220 C1213 0.930 . S
C1221 C1222 1.351 . S
C1221 N1224 1.368 . S
C1221 H1226 0.931 . S
C1222 C1221 1.351 . S
C1222 N1223 1.373 . S
C1222 H1250 0.930 . S
N1223 C1222 1.373 . S
N1223 C1225 1.340 . S
N1224 C1221 1.368 . S
N1224 C1225 1.321 . S
N1224 Co1227 2.135 . S
C1225 N1223 1.340 . S
C1225 N1224 1.321 . S
C1225 H1249 0.930 . S
H1226 C1221 0.931 . S
Co1227 N1224 2.135 . S
Co1227 N1230 2.121 . S
Co1227 O1235 2.055 . S
Co1227 O1238 2.039 . S
Co1227 N1241 2.140 . S
C1228 O1229 1.227 . S
C1228 O1238 1.265 . S
O1229 C1228 1.227 . S
N1230 Co1227 2.121 . S
N1230 C1232 1.375 . S
N1230 C1233 1.313 . S
C1231 C1232 1.338 . S
C1231 N1234 1.377 . S
C1231 H1251 0.930 . S
C1232 N1230 1.375 . S
C1232 C1231 1.338 . S
C1232 H1236 0.931 . S
C1233 N1230 1.313 . S
C1233 N1234 1.344 . S
C1233 H1237 0.930 . S
N1234 C1231 1.377 . S
N1234 C1233 1.344 . S
O1235 Co1227 2.055 . S
O1235 C1239 1.253 . S
H1236 C1232 0.931 . S
H1237 C1233 0.930 . S
O1238 Co1227 2.039 . S
O1238 C1228 1.265 . S
C1239 O1235 1.253 . S
C1239 O1240 1.227 . S
O1240 C1239 1.227 . S
N1241 Co1227 2.140 . S
N1241 C1244 1.346 . S
N1241 C1245 1.345 . S
C1242 C1243 1.387 . S
C1242 C1246 1.391 . S
C1243 C1242 1.387 . S
C1243 C1244 1.369 . S
C1243 H1252 0.929 . S
C1244 N1241 1.346 . S
C1244 C1243 1.369 . S
C1244 H1247 0.928 . S
C1245 N1241 1.345 . S
C1245 C1246 1.371 . S
C1245 H1248 0.931 . S
C1246 C1242 1.391 . S
C1246 C1245 1.371 . S
C1246 H1253 0.930 . S
H1247 C1244 0.928 . S
H1248 C1245 0.931 . S
H1249 C1225 0.930 . S
H1250 C1222 0.930 . S
H1251 C1231 0.930 . S
H1252 C1243 0.929 . S
H1253 C1246 0.930 . S
C1254 C1255 1.351 . S
C1254 N1257 1.368 . S
C1254 H1259 0.931 . S
C1255 C1254 1.351 . S
C1255 N1256 1.373 . S
C1255 H1283 0.930 . S
N1256 C1255 1.373 . S
N1256 C1258 1.340 . S
N1257 C1254 1.368 . S
N1257 C1258 1.321 . S
N1257 Co1260 2.135 . S
C1258 N1256 1.340 . S
C1258 N1257 1.321 . S
C1258 H1282 0.930 . S
H1259 C1254 0.931 . S
Co1260 N1257 2.135 . S
Co1260 N1263 2.121 . S
Co1260 O1268 2.055 . S
Co1260 O1271 2.039 . S
Co1260 N1274 2.140 . S
C1261 O1262 1.227 . S
C1261 O1271 1.265 . S
O1262 C1261 1.227 . S
N1263 Co1260 2.121 . S
N1263 C1265 1.375 . S
N1263 C1266 1.313 . S
C1264 C1265 1.338 . S
C1264 N1267 1.377 . S
C1264 H1284 0.930 . S
C1265 N1263 1.375 . S
C1265 C1264 1.338 . S
C1265 H1269 0.931 . S
C1266 N1263 1.313 . S
C1266 N1267 1.344 . S
C1266 H1270 0.930 . S
N1267 C1264 1.377 . S
N1267 C1266 1.344 . S
O1268 Co1260 2.055 . S
O1268 C1272 1.253 . S
H1269 C1265 0.931 . S
H1270 C1266 0.930 . S
O1271 Co1260 2.039 . S
O1271 C1261 1.265 . S
C1272 O1268 1.253 . S
C1272 O1273 1.227 . S
O1273 C1272 1.227 . S
N1274 Co1260 2.140 . S
N1274 C1277 1.346 . S
N1274 C1278 1.345 . S
C1275 C1276 1.387 . S
C1275 C1279 1.391 . S
C1276 C1275 1.387 . S
C1276 C1277 1.369 . S
C1276 H1285 0.929 . S
C1277 N1274 1.346 . S
C1277 C1276 1.369 . S
C1277 H1280 0.928 . S
C1278 N1274 1.345 . S
C1278 C1279 1.371 . S
C1278 H1281 0.931 . S
C1279 C1275 1.391 . S
C1279 C1278 1.371 . S
C1279 H1286 0.930 . S
H1280 C1277 0.928 . S
H1281 C1278 0.931 . S
H1282 C1258 0.930 . S
H1283 C1255 0.930 . S
H1284 C1264 0.930 . S
H1285 C1276 0.929 . S
H1286 C1279 0.930 . S
C1287 C1288 1.351 . S
C1287 N1290 1.368 . S
C1287 H1292 0.931 . S
C1288 C1287 1.351 . S
C1288 N1289 1.373 . S
C1288 H1316 0.930 . S
N1289 C1288 1.373 . S
N1289 C1291 1.340 . S
N1290 C1287 1.368 . S
N1290 C1291 1.321 . S
N1290 Co1293 2.135 . S
C1291 N1289 1.340 . S
C1291 N1290 1.321 . S
C1291 H1315 0.930 . S
H1292 C1287 0.931 . S
Co1293 N1290 2.135 . S
Co1293 N1296 2.121 . S
Co1293 O1301 2.055 . S
Co1293 O1304 2.039 . S
Co1293 N1307 2.140 . S
C1294 O1295 1.227 . S
C1294 O1304 1.265 . S
O1295 C1294 1.227 . S
N1296 Co1293 2.121 . S
N1296 C1298 1.375 . S
N1296 C1299 1.313 . S
C1297 C1298 1.338 . S
C1297 N1300 1.377 . S
C1297 H1317 0.930 . S
C1298 N1296 1.375 . S
C1298 C1297 1.338 . S
C1298 H1302 0.931 . S
C1299 N1296 1.313 . S
C1299 N1300 1.344 . S
C1299 H1303 0.930 . S
N1300 C1297 1.377 . S
N1300 C1299 1.344 . S
O1301 Co1293 2.055 . S
O1301 C1305 1.253 . S
H1302 C1298 0.931 . S
H1303 C1299 0.930 . S
O1304 Co1293 2.039 . S
O1304 C1294 1.265 . S
C1305 O1301 1.253 . S
C1305 O1306 1.227 . S
O1306 C1305 1.227 . S
N1307 Co1293 2.140 . S
N1307 C1310 1.346 . S
N1307 C1311 1.345 . S
C1308 C1309 1.387 . S
C1308 C1312 1.391 . S
C1309 C1308 1.387 . S
C1309 C1310 1.369 . S
C1309 H1318 0.929 . S
C1310 N1307 1.346 . S
C1310 C1309 1.369 . S
C1310 H1313 0.928 . S
C1311 N1307 1.345 . S
C1311 C1312 1.371 . S
C1311 H1314 0.931 . S
C1312 C1308 1.391 . S
C1312 C1311 1.371 . S
C1312 H1319 0.930 . S
H1313 C1310 0.928 . S
H1314 C1311 0.931 . S
H1315 C1291 0.930 . S
H1316 C1288 0.930 . S
H1317 C1297 0.930 . S
H1318 C1309 0.929 . S
H1319 C1312 0.930 . S
C1320 C1321 1.351 . S
C1320 N1323 1.368 . S
C1320 H1325 0.931 . S
C1321 C1320 1.351 . S
C1321 N1322 1.373 . S
C1321 H1349 0.930 . S
N1322 C1321 1.373 . S
N1322 C1324 1.340 . S
N1323 C1320 1.368 . S
N1323 C1324 1.321 . S
N1323 Co1326 2.135 . S
C1324 N1322 1.340 . S
C1324 N1323 1.321 . S
C1324 H1348 0.930 . S
H1325 C1320 0.931 . S
Co1326 N1323 2.135 . S
Co1326 N1329 2.121 . S
Co1326 O1334 2.055 . S
Co1326 O1337 2.039 . S
Co1326 N1340 2.140 . S
C1327 O1328 1.227 . S
C1327 O1337 1.265 . S
O1328 C1327 1.227 . S
N1329 Co1326 2.121 . S
N1329 C1331 1.375 . S
N1329 C1332 1.313 . S
C1330 C1331 1.338 . S
C1330 N1333 1.377 . S
C1330 H1350 0.930 . S
C1331 N1329 1.375 . S
C1331 C1330 1.338 . S
C1331 H1335 0.931 . S
C1332 N1329 1.313 . S
C1332 N1333 1.344 . S
C1332 H1336 0.930 . S
N1333 C1330 1.377 . S
N1333 C1332 1.344 . S
O1334 Co1326 2.055 . S
O1334 C1338 1.253 . S
H1335 C1331 0.931 . S
H1336 C1332 0.930 . S
O1337 Co1326 2.039 . S
O1337 C1327 1.265 . S
C1338 O1334 1.253 . S
C1338 O1339 1.227 . S
O1339 C1338 1.227 . S
N1340 Co1326 2.140 . S
N1340 C1343 1.346 . S
N1340 C1344 1.345 . S
C1341 C1342 1.387 . S
C1341 C1345 1.391 . S
C1342 C1341 1.387 . S
C1342 C1343 1.369 . S
C1342 H1351 0.929 . S
C1343 N1340 1.346 . S
C1343 C1342 1.369 . S
C1343 H1346 0.928 . S
C1344 N1340 1.345 . S
C1344 C1345 1.371 . S
C1344 H1347 0.931 . S
C1345 C1341 1.391 . S
C1345 C1344 1.371 . S
C1345 H1352 0.930 . S
H1346 C1343 0.928 . S
H1347 C1344 0.931 . S
H1348 C1324 0.930 . S
H1349 C1321 0.930 . S
H1350 C1330 0.930 . S
H1351 C1342 0.929 . S
H1352 C1345 0.930 . S
C1353 C1354 1.351 . S
C1353 N1356 1.368 . S
C1353 H1358 0.931 . S
C1354 C1353 1.351 . S
C1354 N1355 1.373 . S
C1354 H1382 0.930 . S
N1355 C1354 1.373 . S
N1355 C1357 1.340 . S
N1356 C1353 1.368 . S
N1356 C1357 1.321 . S
N1356 Co1359 2.135 . S
C1357 N1355 1.340 . S
C1357 N1356 1.321 . S
C1357 H1381 0.930 . S
H1358 C1353 0.931 . S
Co1359 N1356 2.135 . S
Co1359 N1362 2.121 . S
Co1359 O1367 2.055 . S
Co1359 O1370 2.039 . S
Co1359 N1373 2.140 . S
C1360 O1361 1.227 . S
C1360 O1370 1.265 . S
O1361 C1360 1.227 . S
N1362 Co1359 2.121 . S
N1362 C1364 1.375 . S
N1362 C1365 1.313 . S
C1363 C1364 1.338 . S
C1363 N1366 1.377 . S
C1363 H1383 0.930 . S
C1364 N1362 1.375 . S
C1364 C1363 1.338 . S
C1364 H1368 0.931 . S
C1365 N1362 1.313 . S
C1365 N1366 1.344 . S
C1365 H1369 0.930 . S
N1366 C1363 1.377 . S
N1366 C1365 1.344 . S
O1367 Co1359 2.055 . S
O1367 C1371 1.253 . S
H1368 C1364 0.931 . S
H1369 C1365 0.930 . S
O1370 Co1359 2.039 . S
O1370 C1360 1.265 . S
C1371 O1367 1.253 . S
C1371 O1372 1.227 . S
O1372 C1371 1.227 . S
N1373 Co1359 2.140 . S
N1373 C1376 1.346 . S
N1373 C1377 1.345 . S
C1374 C1375 1.387 . S
C1374 C1378 1.391 . S
C1375 C1374 1.387 . S
C1375 C1376 1.369 . S
C1375 H1384 0.929 . S
C1376 N1373 1.346 . S
C1376 C1375 1.369 . S
C1376 H1379 0.928 . S
C1377 N1373 1.345 . S
C1377 C1378 1.371 . S
C1377 H1380 0.931 . S
C1378 C1374 1.391 . S
C1378 C1377 1.371 . S
C1378 H1385 0.930 . S
H1379 C1376 0.928 . S
H1380 C1377 0.931 . S
H1381 C1357 0.930 . S
H1382 C1354 0.930 . S
H1383 C1363 0.930 . S
H1384 C1375 0.929 . S
H1385 C1378 0.930 . S
C1386 C1387 1.351 . S
C1386 N1389 1.368 . S
C1386 H1391 0.931 . S
C1387 C1386 1.351 . S
C1387 N1388 1.373 . S
C1387 H1415 0.930 . S
N1388 C1387 1.373 . S
N1388 C1390 1.340 . S
N1389 C1386 1.368 . S
N1389 C1390 1.321 . S
N1389 Co1392 2.135 . S
C1390 N1388 1.340 . S
C1390 N1389 1.321 . S
C1390 H1414 0.930 . S
H1391 C1386 0.931 . S
Co1392 N1389 2.135 . S
Co1392 N1395 2.121 . S
Co1392 O1400 2.055 . S
Co1392 O1403 2.039 . S
Co1392 N1406 2.140 . S
C1393 O1394 1.227 . S
C1393 O1403 1.265 . S
O1394 C1393 1.227 . S
N1395 Co1392 2.121 . S
N1395 C1397 1.375 . S
N1395 C1398 1.313 . S
C1396 C1397 1.338 . S
C1396 N1399 1.377 . S
C1396 H1416 0.930 . S
C1397 N1395 1.375 . S
C1397 C1396 1.338 . S
C1397 H1401 0.931 . S
C1398 N1395 1.313 . S
C1398 N1399 1.344 . S
C1398 H1402 0.930 . S
N1399 C1396 1.377 . S
N1399 C1398 1.344 . S
O1400 Co1392 2.055 . S
O1400 C1404 1.253 . S
H1401 C1397 0.931 . S
H1402 C1398 0.930 . S
O1403 Co1392 2.039 . S
O1403 C1393 1.265 . S
C1404 O1400 1.253 . S
C1404 O1405 1.227 . S
O1405 C1404 1.227 . S
N1406 Co1392 2.140 . S
N1406 C1409 1.346 . S
N1406 C1410 1.345 . S
C1407 C1408 1.387 . S
C1407 C1411 1.391 . S
C1408 C1407 1.387 . S
C1408 C1409 1.369 . S
C1408 H1417 0.929 . S
C1409 N1406 1.346 . S
C1409 C1408 1.369 . S
C1409 H1412 0.928 . S
C1410 N1406 1.345 . S
C1410 C1411 1.371 . S
C1410 H1413 0.931 . S
C1411 C1407 1.391 . S
C1411 C1410 1.371 . S
C1411 H1418 0.930 . S
H1412 C1409 0.928 . S
H1413 C1410 0.931 . S
H1414 C1390 0.930 . S
H1415 C1387 0.930 . S
H1416 C1396 0.930 . S
H1417 C1408 0.929 . S
H1418 C1411 0.930 . S
C1419 C1420 1.351 . S
C1419 N1422 1.368 . S
C1419 H1424 0.931 . S
C1420 C1419 1.351 . S
C1420 N1421 1.373 . S
C1420 H1448 0.930 . S
N1421 C1420 1.373 . S
N1421 C1423 1.340 . S
N1422 C1419 1.368 . S
N1422 C1423 1.321 . S
N1422 Co1425 2.135 . S
C1423 N1421 1.340 . S
C1423 N1422 1.321 . S
C1423 H1447 0.930 . S
H1424 C1419 0.931 . S
Co1425 N1422 2.135 . S
Co1425 N1428 2.121 . S
Co1425 O1433 2.055 . S
Co1425 O1436 2.039 . S
Co1425 N1439 2.140 . S
C1426 O1427 1.227 . S
C1426 O1436 1.265 . S
O1427 C1426 1.227 . S
N1428 Co1425 2.121 . S
N1428 C1430 1.375 . S
N1428 C1431 1.313 . S
C1429 C1430 1.338 . S
C1429 N1432 1.377 . S
C1429 H1449 0.930 . S
C1430 N1428 1.375 . S
C1430 C1429 1.338 . S
C1430 H1434 0.931 . S
C1431 N1428 1.313 . S
C1431 N1432 1.344 . S
C1431 H1435 0.930 . S
N1432 C1429 1.377 . S
N1432 C1431 1.344 . S
O1433 Co1425 2.055 . S
O1433 C1437 1.253 . S
H1434 C1430 0.931 . S
H1435 C1431 0.930 . S
O1436 Co1425 2.039 . S
O1436 C1426 1.265 . S
C1437 O1433 1.253 . S
C1437 O1438 1.227 . S
O1438 C1437 1.227 . S
N1439 Co1425 2.140 . S
N1439 C1442 1.346 . S
N1439 C1443 1.345 . S
C1440 C1441 1.387 . S
C1440 C1444 1.391 . S
C1441 C1440 1.387 . S
C1441 C1442 1.369 . S
C1441 H1450 0.929 . S
C1442 N1439 1.346 . S
C1442 C1441 1.369 . S
C1442 H1445 0.928 . S
C1443 N1439 1.345 . S
C1443 C1444 1.371 . S
C1443 H1446 0.931 . S
C1444 C1440 1.391 . S
C1444 C1443 1.371 . S
C1444 H1451 0.930 . S
H1445 C1442 0.928 . S
H1446 C1443 0.931 . S
H1447 C1423 0.930 . S
H1448 C1420 0.930 . S
H1449 C1429 0.930 . S
H1450 C1441 0.929 . S
H1451 C1444 0.930 . S
C1452 C1453 1.351 . S
C1452 N1455 1.368 . S
C1452 H1457 0.931 1_556 S
C1453 C1452 1.351 . S
C1453 N1454 1.373 . S
C1453 H1481 0.930 . S
N1454 C1453 1.373 . S
N1454 C1456 1.340 . S
N1455 C1452 1.368 . S
N1455 C1456 1.321 . S
N1455 Co1458 2.135 1_556 S
C1456 N1454 1.340 . S
C1456 N1455 1.321 . S
C1456 H1480 0.930 . S
H1457 C1452 0.931 1_554 S
Co1458 N1455 2.135 1_554 S
Co1458 N1461 2.121 . S
Co1458 O1466 2.055 . S
Co1458 O1469 2.039 1_554 S
Co1458 N1472 2.140 . S
C1459 O1460 1.227 . S
C1459 O1469 1.265 . S
O1460 C1459 1.227 . S
N1461 Co1458 2.121 . S
N1461 C1463 1.375 . S
N1461 C1464 1.313 . S
C1462 C1463 1.338 . S
C1462 N1465 1.377 . S
C1462 H1482 0.930 . S
C1463 N1461 1.375 . S
C1463 C1462 1.338 . S
C1463 H1467 0.931 . S
C1464 N1461 1.313 . S
C1464 N1465 1.344 . S
C1464 H1468 0.930 . S
N1465 C1462 1.377 . S
N1465 C1464 1.344 . S
O1466 Co1458 2.055 . S
O1466 C1470 1.253 . S
H1467 C1463 0.931 . S
H1468 C1464 0.930 . S
O1469 Co1458 2.039 1_556 S
O1469 C1459 1.265 . S
C1470 O1466 1.253 . S
C1470 O1471 1.227 . S
O1471 C1470 1.227 . S
N1472 Co1458 2.140 . S
N1472 C1475 1.346 1_554 S
N1472 C1476 1.345 . S
C1473 C1474 1.387 1_554 S
C1473 C1477 1.391 . S
C1474 C1473 1.387 1_556 S
C1474 C1475 1.369 . S
C1474 H1483 0.929 . S
C1475 N1472 1.346 1_556 S
C1475 C1474 1.369 . S
C1475 H1478 0.928 . S
C1476 N1472 1.345 . S
C1476 C1477 1.371 . S
C1476 H1479 0.931 . S
C1477 C1473 1.391 . S
C1477 C1476 1.371 . S
C1477 H1484 0.930 . S
H1478 C1475 0.928 . S
H1479 C1476 0.931 . S
H1480 C1456 0.930 . S
H1481 C1453 0.930 . S
H1482 C1462 0.930 . S
H1483 C1474 0.929 . S
H1484 C1477 0.930 . S
C1485 C1486 1.351 . S
C1485 N1488 1.368 . S
C1485 H1490 0.931 . S
C1486 C1485 1.351 . S
C1486 N1487 1.373 . S
C1486 H1514 0.930 . S
N1487 C1486 1.373 . S
N1487 C1489 1.340 . S
N1488 C1485 1.368 . S
N1488 C1489 1.321 . S
N1488 Co1491 2.135 . S
C1489 N1487 1.340 . S
C1489 N1488 1.321 . S
C1489 H1513 0.930 . S
H1490 C1485 0.931 . S
Co1491 N1488 2.135 . S
Co1491 N1494 2.121 1_554 S
Co1491 O1499 2.055 1_554 S
Co1491 O1502 2.039 . S
Co1491 N1505 2.140 . S
C1492 O1493 1.227 . S
C1492 O1502 1.265 . S
O1493 C1492 1.227 . S
N1494 Co1491 2.121 1_556 S
N1494 C1496 1.375 . S
N1494 C1497 1.313 . S
C1495 C1496 1.338 . S
C1495 N1498 1.377 . S
C1495 H1515 0.930 . S
C1496 N1494 1.375 . S
C1496 C1495 1.338 . S
C1496 H1500 0.931 1_556 S
C1497 N1494 1.313 . S
C1497 N1498 1.344 . S
C1497 H1501 0.930 . S
N1498 C1495 1.377 . S
N1498 C1497 1.344 . S
O1499 Co1491 2.055 1_556 S
O1499 C1503 1.253 . S
H1500 C1496 0.931 1_554 S
H1501 C1497 0.930 . S
O1502 Co1491 2.039 . S
O1502 C1492 1.265 . S
C1503 O1499 1.253 . S
C1503 O1504 1.227 . S
O1504 C1503 1.227 . S
N1505 Co1491 2.140 . S
N1505 C1508 1.346 . S
N1505 C1509 1.345 1_554 S
C1506 C1507 1.387 . S
C1506 C1510 1.391 1_554 S
C1507 C1506 1.387 . S
C1507 C1508 1.369 . S
C1507 H1516 0.929 . S
C1508 N1505 1.346 . S
C1508 C1507 1.369 . S
C1508 H1511 0.928 . S
C1509 N1505 1.345 1_556 S
C1509 C1510 1.371 . S
C1509 H1512 0.931 . S
C1510 C1506 1.391 1_556 S
C1510 C1509 1.371 . S
C1510 H1517 0.930 . S
H1511 C1508 0.928 . S
H1512 C1509 0.931 . S
H1513 C1489 0.930 . S
H1514 C1486 0.930 . S
H1515 C1495 0.930 . S
H1516 C1507 0.929 . S
H1517 C1510 0.930 . S
C1518 C1519 1.351 . S
C1518 N1521 1.368 . S
C1518 H1523 0.931 . S
C1519 C1518 1.351 . S
C1519 N1520 1.373 . S
C1519 H1547 0.930 . S
N1520 C1519 1.373 . S
N1520 C1522 1.340 . S
N1521 C1518 1.368 . S
N1521 C1522 1.321 . S
N1521 Co1524 2.135 . S
C1522 N1520 1.340 . S
C1522 N1521 1.321 . S
C1522 H1546 0.930 . S
H1523 C1518 0.931 . S
Co1524 N1521 2.135 . S
Co1524 N1527 2.121 1_554 S
Co1524 O1532 2.055 1_554 S
Co1524 O1535 2.039 . S
Co1524 N1538 2.140 . S
C1525 O1526 1.227 . S
C1525 O1535 1.265 . S
O1526 C1525 1.227 . S
N1527 Co1524 2.121 1_556 S
N1527 C1529 1.375 . S
N1527 C1530 1.313 . S
C1528 C1529 1.338 . S
C1528 N1531 1.377 . S
C1528 H1548 0.930 . S
C1529 N1527 1.375 . S
C1529 C1528 1.338 . S
C1529 H1533 0.931 1_556 S
C1530 N1527 1.313 . S
C1530 N1531 1.344 . S
C1530 H1534 0.930 . S
N1531 C1528 1.377 . S
N1531 C1530 1.344 . S
O1532 Co1524 2.055 1_556 S
O1532 C1536 1.253 . S
H1533 C1529 0.931 1_554 S
H1534 C1530 0.930 . S
O1535 Co1524 2.039 . S
O1535 C1525 1.265 . S
C1536 O1532 1.253 . S
C1536 O1537 1.227 . S
O1537 C1536 1.227 . S
N1538 Co1524 2.140 . S
N1538 C1541 1.346 . S
N1538 C1542 1.345 1_554 S
C1539 C1540 1.387 . S
C1539 C1543 1.391 1_554 S
C1540 C1539 1.387 . S
C1540 C1541 1.369 . S
C1540 H1549 0.929 . S
C1541 N1538 1.346 . S
C1541 C1540 1.369 . S
C1541 H1544 0.928 . S
C1542 N1538 1.345 1_556 S
C1542 C1543 1.371 . S
C1542 H1545 0.931 . S
C1543 C1539 1.391 1_556 S
C1543 C1542 1.371 . S
C1543 H1550 0.930 . S
H1544 C1541 0.928 . S
H1545 C1542 0.931 . S
H1546 C1522 0.930 . S
H1547 C1519 0.930 . S
H1548 C1528 0.930 . S
H1549 C1540 0.929 . S
H1550 C1543 0.930 . S
C1551 C1552 1.351 . S
C1551 N1554 1.368 . S
C1551 H1556 0.931 1_556 S
C1552 C1551 1.351 . S
C1552 N1553 1.373 . S
C1552 H1580 0.930 . S
N1553 C1552 1.373 . S
N1553 C1555 1.340 . S
N1554 C1551 1.368 . S
N1554 C1555 1.321 . S
N1554 Co1557 2.135 1_556 S
C1555 N1553 1.340 . S
C1555 N1554 1.321 . S
C1555 H1579 0.930 . S
H1556 C1551 0.931 1_554 S
Co1557 N1554 2.135 1_554 S
Co1557 N1560 2.121 . S
Co1557 O1565 2.055 . S
Co1557 O1568 2.039 1_554 S
Co1557 N1571 2.140 . S
C1558 O1559 1.227 . S
C1558 O1568 1.265 . S
O1559 C1558 1.227 . S
N1560 Co1557 2.121 . S
N1560 C1562 1.375 . S
N1560 C1563 1.313 . S
C1561 C1562 1.338 . S
C1561 N1564 1.377 . S
C1561 H1581 0.930 . S
C1562 N1560 1.375 . S
C1562 C1561 1.338 . S
C1562 H1566 0.931 . S
C1563 N1560 1.313 . S
C1563 N1564 1.344 . S
C1563 H1567 0.930 . S
N1564 C1561 1.377 . S
N1564 C1563 1.344 . S
O1565 Co1557 2.055 . S
O1565 C1569 1.253 . S
H1566 C1562 0.931 . S
H1567 C1563 0.930 . S
O1568 Co1557 2.039 1_556 S
O1568 C1558 1.265 . S
C1569 O1565 1.253 . S
C1569 O1570 1.227 . S
O1570 C1569 1.227 . S
N1571 Co1557 2.140 . S
N1571 C1574 1.346 1_554 S
N1571 C1575 1.345 . S
C1572 C1573 1.387 1_554 S
C1572 C1576 1.391 . S
C1573 C1572 1.387 1_556 S
C1573 C1574 1.369 . S
C1573 H1582 0.929 . S
C1574 N1571 1.346 1_556 S
C1574 C1573 1.369 . S
C1574 H1577 0.928 . S
C1575 N1571 1.345 . S
C1575 C1576 1.371 . S
C1575 H1578 0.931 . S
C1576 C1572 1.391 . S
C1576 C1575 1.371 . S
C1576 H1583 0.930 . S
H1577 C1574 0.928 . S
H1578 C1575 0.931 . S
H1579 C1555 0.930 . S
H1580 C1552 0.930 . S
H1581 C1561 0.930 . S
H1582 C1573 0.929 . S
H1583 C1576 0.930 . S
H1584 C1590 0.930 . S
H1585 C1593 0.930 . S
H1586 C1594 0.930 . S
H1587 C1595 0.930 . S
H1588 C1598 0.930 . S
H1589 C1599 0.930 . S
C1590 H1584 0.930 . S
C1590 C1591 1.355 . S
C1590 C1592 1.415 . S
C1591 C1590 1.355 . S
C1591 C1593 1.419 1_455 S
C1592 C1590 1.415 . S
C1592 C1597 1.424 . S
C1592 C1599 1.409 . S
C1593 H1585 0.930 . S
C1593 C1591 1.419 1_655 S
C1593 C1594 1.362 . S
C1594 H1586 0.930 . S
C1594 C1593 1.362 . S
C1594 C1597 1.410 1_655 S
C1595 H1587 0.930 . S
C1595 C1596 1.355 1_655 S
C1595 C1597 1.415 1_655 S
C1596 C1595 1.355 1_455 S
C1596 C1598 1.419 . S
C1597 C1592 1.424 . S
C1597 C1594 1.410 1_455 S
C1597 C1595 1.415 1_455 S
C1598 H1588 0.930 . S
C1598 C1596 1.419 . S
C1598 C1599 1.362 . S
C1599 H1589 0.930 . S
C1599 C1592 1.409 . S
C1599 C1598 1.362 . S
H1600 C1606 0.930 . S
H1601 C1609 0.930 . S
H1602 C1610 0.930 . S
H1603 C1611 0.930 . S
H1604 C1614 0.930 . S
H1605 C1615 0.930 . S
C1606 H1600 0.930 . S
C1606 C1607 1.355 . S
C1606 C1608 1.415 . S
C1607 C1606 1.355 . S
C1607 C1609 1.419 1_545 S
C1608 C1606 1.415 . S
C1608 C1613 1.425 1_545 S
C1608 C1615 1.409 . S
C1609 H1601 0.930 . S
C1609 C1607 1.419 1_565 S
C1609 C1610 1.362 . S
C1610 H1602 0.930 . S
C1610 C1609 1.362 . S
C1610 C1613 1.409 . S
C1611 H1603 0.930 . S
C1611 C1612 1.355 1_565 S
C1611 C1613 1.415 . S
C1612 C1611 1.355 1_545 S
C1612 C1614 1.419 . S
C1613 C1608 1.425 1_565 S
C1613 C1610 1.409 . S
C1613 C1611 1.415 . S
C1614 H1604 0.930 . S
C1614 C1612 1.419 . S
C1614 C1615 1.362 . S
C1615 H1605 0.930 . S
C1615 C1608 1.409 . S
C1615 C1614 1.362 . S
H1616 C1622 0.930 . S
H1617 C1625 0.930 . S
H1618 C1626 0.930 . S
H1619 C1627 0.930 . S
H1620 C1630 0.930 . S
H1621 C1631 0.930 . S
C1622 H1616 0.930 . S
C1622 C1623 1.355 . S
C1622 C1624 1.415 . S
C1623 C1622 1.355 . S
C1623 C1625 1.419 . S
C1624 C1622 1.415 . S
C1624 C1629 1.425 . S
C1624 C1631 1.409 . S
C1625 H1617 0.930 . S
C1625 C1623 1.419 . S
C1625 C1626 1.362 . S
C1626 H1618 0.930 . S
C1626 C1625 1.362 . S
C1626 C1629 1.409 . S
C1627 H1619 0.930 . S
C1627 C1628 1.355 . S
C1627 C1629 1.415 . S
C1628 C1627 1.355 . S
C1628 C1630 1.419 . S
C1629 C1624 1.425 . S
C1629 C1626 1.409 . S
C1629 C1627 1.415 . S
C1630 H1620 0.930 . S
C1630 C1628 1.419 . S
C1630 C1631 1.362 . S
C1631 H1621 0.930 . S
C1631 C1624 1.409 . S
C1631 C1630 1.362 . S
H1632 C1638 0.930 . S
H1633 C1641 0.930 . S
H1634 C1642 0.930 . S
H1635 C1643 0.930 . S
H1636 C1646 0.930 . S
H1637 C1647 0.930 . S
C1638 H1632 0.930 . S
C1638 C1639 1.355 . S
C1638 C1640 1.415 . S
C1639 C1638 1.355 . S
C1639 C1641 1.419 . S
C1640 C1638 1.415 . S
C1640 C1645 1.425 . S
C1640 C1647 1.409 . S
C1641 H1633 0.930 . S
C1641 C1639 1.419 . S
C1641 C1642 1.362 . S
C1642 H1634 0.930 . S
C1642 C1641 1.362 . S
C1642 C1645 1.409 . S
C1643 H1635 0.930 . S
C1643 C1644 1.355 . S
C1643 C1645 1.415 . S
C1644 C1643 1.355 . S
C1644 C1646 1.419 . S
C1645 C1640 1.425 . S
C1645 C1642 1.409 . S
C1645 C1643 1.415 . S
C1646 H1636 0.930 . S
C1646 C1644 1.419 . S
C1646 C1647 1.362 . S
C1647 H1637 0.930 . S
C1647 C1640 1.409 . S
C1647 C1646 1.362 . S
H1648 C1654 0.930 . S
H1649 C1657 0.930 . S
H1650 C1658 0.930 . S
H1651 C1659 0.930 . S
H1652 C1662 0.930 . S
H1653 C1663 0.930 . S
C1654 H1648 0.930 . S
C1654 C1655 1.355 . S
C1654 C1656 1.415 . S
C1655 C1654 1.355 . S
C1655 C1657 1.419 1_455 S
C1656 C1654 1.415 . S
C1656 C1661 1.441 . S
C1656 C1663 1.409 . S
C1657 H1649 0.930 . S
C1657 C1655 1.419 1_655 S
C1657 C1658 1.362 . S
C1658 H1650 0.930 . S
C1658 C1657 1.362 . S
C1658 C1661 1.397 1_655 S
C1659 H1651 0.930 . S
C1659 C1660 1.355 1_655 S
C1659 C1661 1.412 1_655 S
C1660 C1659 1.355 1_455 S
C1660 C1662 1.419 . S
C1661 C1656 1.441 . S
C1661 C1658 1.397 1_455 S
C1661 C1659 1.412 1_455 S
C1662 H1652 0.930 . S
C1662 C1660 1.419 . S
C1662 C1663 1.362 . S
C1663 H1653 0.930 . S
C1663 C1656 1.409 . S
C1663 C1662 1.362 . S
H1664 C1670 0.930 . S
H1665 C1673 0.930 . S
H1666 C1674 0.930 . S
H1667 C1675 0.930 . S
H1668 C1678 0.930 . S
H1669 C1679 0.930 . S
C1670 H1664 0.930 . S
C1670 C1671 1.355 . S
C1670 C1672 1.415 . S
C1671 C1670 1.355 . S
C1671 C1673 1.419 1_545 S
C1672 C1670 1.415 . S
C1672 C1677 1.395 1_545 S
C1672 C1679 1.409 . S
C1673 H1665 0.930 . S
C1673 C1671 1.419 1_565 S
C1673 C1674 1.362 . S
C1674 H1666 0.930 . S
C1674 C1673 1.362 . S
C1674 C1677 1.433 . S
C1675 H1667 0.930 . S
C1675 C1676 1.355 1_565 S
C1675 C1677 1.421 . S
C1676 C1675 1.355 1_545 S
C1676 C1678 1.419 . S
C1677 C1672 1.395 1_565 S
C1677 C1674 1.433 . S
C1677 C1675 1.421 . S
C1678 H1668 0.930 . S
C1678 C1676 1.419 . S
C1678 C1679 1.362 . S
C1679 H1669 0.930 . S
C1679 C1672 1.409 . S
C1679 C1678 1.362 . S
H1680 C1686 0.930 . S
H1681 C1689 0.930 . S
H1682 C1690 0.930 . S
H1683 C1691 0.930 . S
H1684 C1694 0.930 . S
H1685 C1695 0.930 . S
C1686 H1680 0.930 . S
C1686 C1687 1.355 . S
C1686 C1688 1.415 . S
C1687 C1686 1.355 . S
C1687 C1689 1.419 1_455 S
C1688 C1686 1.415 . S
C1688 C1693 1.425 1_455 S
C1688 C1695 1.409 . S
C1689 H1681 0.930 . S
C1689 C1687 1.419 1_655 S
C1689 C1690 1.362 . S
C1690 H1682 0.930 . S
C1690 C1689 1.362 . S
C1690 C1693 1.409 . S
C1691 H1683 0.930 . S
C1691 C1692 1.355 1_655 S
C1691 C1693 1.415 . S
C1692 C1691 1.355 1_455 S
C1692 C1694 1.419 . S
C1693 C1688 1.425 1_655 S
C1693 C1690 1.409 . S
C1693 C1691 1.415 . S
C1694 H1684 0.930 . S
C1694 C1692 1.419 . S
C1694 C1695 1.362 . S
C1695 H1685 0.930 . S
C1695 C1688 1.409 . S
C1695 C1694 1.362 . S
H1696 C1702 0.930 . S
H1697 C1705 0.930 . S
H1698 C1706 0.930 . S
H1699 C1707 0.930 . S
H1700 C1710 0.930 . S
H1701 C1711 0.930 . S
C1702 H1696 0.930 . S
C1702 C1703 1.355 1_565 S
C1702 C1704 1.415 1_565 S
C1703 C1702 1.355 1_545 S
C1703 C1705 1.419 . S
C1704 C1702 1.415 1_545 S
C1704 C1709 1.422 . S
C1704 C1711 1.412 1_545 S
C1705 H1697 0.930 . S
C1705 C1703 1.419 . S
C1705 C1706 1.362 . S
C1706 H1698 0.930 . S
C1706 C1705 1.362 . S
C1706 C1709 1.409 . S
C1707 H1699 0.930 . S
C1707 C1708 1.355 . S
C1707 C1709 1.415 . S
C1708 C1707 1.355 . S
C1708 C1710 1.419 1_545 S
C1709 C1704 1.422 . S
C1709 C1706 1.409 . S
C1709 C1707 1.415 . S
C1710 H1700 0.930 . S
C1710 C1708 1.419 1_565 S
C1710 C1711 1.362 . S
C1711 H1701 0.930 . S
C1711 C1704 1.412 1_565 S
C1711 C1710 1.362 . S
H1712 C1718 0.930 . S
H1713 C1721 0.930 . S
H1714 C1722 0.930 . S
H1715 C1723 0.930 . S
H1716 C1726 0.930 . S
H1717 C1727 0.930 . S
C1718 H1712 0.930 . S
C1718 C1719 1.355 . S
C1718 C1720 1.415 . S
C1719 C1718 1.355 . S
C1719 C1721 1.419 . S
C1720 C1718 1.415 . S
C1720 C1725 1.425 . S
C1720 C1727 1.409 . S
C1721 H1713 0.930 . S
C1721 C1719 1.419 . S
C1721 C1722 1.362 . S
C1722 H1714 0.930 . S
C1722 C1721 1.362 . S
C1722 C1725 1.409 . S
C1723 H1715 0.930 . S
C1723 C1724 1.355 . S
C1723 C1725 1.415 . S
C1724 C1723 1.355 . S
C1724 C1726 1.419 . S
C1725 C1720 1.425 . S
C1725 C1722 1.409 . S
C1725 C1723 1.415 . S
C1726 H1716 0.930 . S
C1726 C1724 1.419 . S
C1726 C1727 1.362 . S
C1727 H1717 0.930 . S
C1727 C1720 1.409 . S
C1727 C1726 1.362 . S
H1728 C1734 0.930 . S
H1729 C1737 0.930 . S
H1730 C1738 0.930 . S
H1731 C1739 0.930 . S
H1732 C1742 0.930 1_556 S
H1733 C1743 0.930 1_556 S
C1734 H1728 0.930 . S
C1734 C1735 1.355 . S
C1734 C1736 1.415 . S
C1735 C1734 1.355 . S
C1735 C1737 1.419 . S
C1736 C1734 1.415 . S
C1736 C1741 1.425 . S
C1736 C1743 1.409 . S
C1737 H1729 0.930 . S
C1737 C1735 1.419 . S
C1737 C1738 1.362 . S
C1738 H1730 0.930 . S
C1738 C1737 1.362 . S
C1738 C1741 1.409 . S
C1739 H1731 0.930 . S
C1739 C1740 1.355 . S
C1739 C1741 1.415 . S
C1740 C1739 1.355 . S
C1740 C1742 1.419 . S
C1741 C1736 1.425 . S
C1741 C1738 1.409 . S
C1741 C1739 1.415 . S
C1742 H1732 0.930 1_554 S
C1742 C1740 1.419 . S
C1742 C1743 1.362 . S
C1743 H1733 0.930 1_554 S
C1743 C1736 1.409 . S
C1743 C1742 1.362 . S
H1744 C1750 0.930 . S
H1745 C1753 0.930 . S
H1746 C1754 0.930 . S
H1747 C1755 0.897 1_556 S
H1748 C1758 0.930 . S
H1749 C1759 0.930 . S
C1750 H1744 0.930 . S
C1750 C1751 1.355 . S
C1750 C1752 1.415 . S
C1751 C1750 1.355 . S
C1751 C1753 1.419 1_554 S
C1752 C1750 1.415 . S
C1752 C1757 1.425 . S
C1752 C1759 1.409 . S
C1753 H1745 0.930 . S
C1753 C1751 1.419 1_556 S
C1753 C1754 1.362 . S
C1754 H1746 0.930 . S
C1754 C1753 1.362 . S
C1754 C1757 1.409 1_556 S
C1755 H1747 0.897 1_554 S
C1755 C1756 1.383 . S
C1755 C1757 1.422 . S
C1756 C1755 1.383 . S
C1756 C1758 1.419 . S
C1757 C1752 1.425 . S
C1757 C1754 1.409 1_554 S
C1757 C1755 1.422 . S
C1758 H1748 0.930 . S
C1758 C1756 1.419 . S
C1758 C1759 1.362 . S
C1759 H1749 0.930 . S
C1759 C1752 1.409 . S
C1759 C1758 1.362 . S
H1760 C1766 0.930 . S
H1761 C1769 0.930 . S
H1762 C1770 0.930 . S
H1763 C1771 0.930 . S
H1764 C1774 0.930 . S
H1765 C1775 0.930 . S
C1766 H1760 0.930 . S
C1766 C1767 1.355 . S
C1766 C1768 1.415 . S
C1767 C1766 1.355 . S
C1767 C1769 1.419 1_554 S
C1768 C1766 1.415 . S
C1768 C1773 1.425 1_554 S
C1768 C1775 1.409 . S
C1769 H1761 0.930 . S
C1769 C1767 1.419 1_556 S
C1769 C1770 1.362 . S
C1770 H1762 0.930 . S
C1770 C1769 1.362 . S
C1770 C1773 1.409 . S
C1771 H1763 0.930 . S
C1771 C1772 1.355 1_556 S
C1771 C1773 1.415 . S
C1772 C1771 1.355 1_554 S
C1772 C1774 1.419 . S
C1773 C1768 1.425 1_556 S
C1773 C1770 1.409 . S
C1773 C1771 1.415 . S
C1774 H1764 0.930 . S
C1774 C1772 1.419 . S
C1774 C1775 1.362 . S
C1775 H1765 0.930 . S
C1775 C1768 1.409 . S
C1775 C1774 1.362 . S
H1776 C1782 0.930 . S
H1777 C1785 0.930 . S
H1778 C1786 0.930 . S
H1779 C1787 0.930 . S
H1780 C1790 0.930 . S
H1781 C1791 0.930 . S
C1782 H1776 0.930 . S
C1782 C1783 1.355 . S
C1782 C1784 1.415 . S
C1783 C1782 1.355 . S
C1783 C1785 1.419 . S
C1784 C1782 1.415 . S
C1784 C1789 1.425 . S
C1784 C1791 1.409 . S
C1785 H1777 0.930 . S
C1785 C1783 1.419 . S
C1785 C1786 1.362 . S
C1786 H1778 0.930 . S
C1786 C1785 1.362 . S
C1786 C1789 1.409 . S
C1787 H1779 0.930 . S
C1787 C1788 1.355 . S
C1787 C1789 1.415 . S
C1788 C1787 1.355 . S
C1788 C1790 1.419 . S
C1789 C1784 1.425 . S
C1789 C1786 1.409 . S
C1789 C1787 1.415 . S
C1790 H1780 0.930 . S
C1790 C1788 1.419 . S
C1790 C1791 1.362 . S
C1791 H1781 0.930 . S
C1791 C1784 1.409 . S
C1791 C1790 1.362 . S
H1792 C1798 0.930 . S
H1793 C1801 0.930 . S
H1794 C1802 0.930 . S
H1795 C1803 0.930 . S
H1796 C1806 0.930 . S
H1797 C1807 0.930 . S
C1798 H1792 0.930 . S
C1798 C1799 1.355 . S
C1798 C1800 1.415 . S
C1799 C1798 1.355 . S
C1799 C1801 1.419 . S
C1800 C1798 1.415 . S
C1800 C1805 1.425 . S
C1800 C1807 1.409 . S
C1801 H1793 0.930 . S
C1801 C1799 1.419 . S
C1801 C1802 1.362 . S
C1802 H1794 0.930 . S
C1802 C1801 1.362 . S
C1802 C1805 1.409 . S
C1803 H1795 0.930 . S
C1803 C1804 1.355 . S
C1803 C1805 1.415 . S
C1804 C1803 1.355 . S
C1804 C1806 1.419 . S
C1805 C1800 1.425 . S
C1805 C1802 1.409 . S
C1805 C1803 1.415 . S
C1806 H1796 0.930 . S
C1806 C1804 1.419 . S
C1806 C1807 1.362 . S
C1807 H1797 0.930 . S
C1807 C1800 1.409 . S
C1807 C1806 1.362 . S
H1808 C1814 0.930 . S
H1809 C1817 0.930 . S
H1810 C1818 0.930 . S
H1811 C1819 0.930 . S
H1812 C1822 0.930 . S
H1813 C1823 0.930 . S
C1814 H1808 0.930 . S
C1814 C1815 1.355 . S
C1814 C1816 1.415 . S
C1815 C1814 1.355 . S
C1815 C1817 1.419 . S
C1816 C1814 1.415 . S
C1816 C1821 1.425 . S
C1816 C1823 1.409 . S
C1817 H1809 0.930 . S
C1817 C1815 1.419 . S
C1817 C1818 1.362 . S
C1818 H1810 0.930 . S
C1818 C1817 1.362 . S
C1818 C1821 1.409 . S
C1819 H1811 0.930 . S
C1819 C1820 1.355 . S
C1819 C1821 1.415 . S
C1820 C1819 1.355 . S
C1820 C1822 1.419 . S
C1821 C1816 1.425 . S
C1821 C1818 1.409 . S
C1821 C1819 1.415 . S
C1822 H1812 0.930 . S
C1822 C1820 1.419 . S
C1822 C1823 1.362 . S
C1823 H1813 0.930 . S
C1823 C1816 1.409 . S
C1823 C1822 1.362 . S
H1824 C1830 0.930 . S
H1825 C1833 0.930 . S
H1826 C1834 0.930 . S
H1827 C1835 0.930 . S
H1828 C1838 0.930 . S
H1829 C1839 0.930 . S
C1830 H1824 0.930 . S
C1830 C1831 1.355 . S
C1830 C1832 1.415 . S
C1831 C1830 1.355 . S
C1831 C1833 1.419 . S
C1832 C1830 1.415 . S
C1832 C1837 1.425 . S
C1832 C1839 1.409 . S
C1833 H1825 0.930 . S
C1833 C1831 1.419 . S
C1833 C1834 1.362 . S
C1834 H1826 0.930 . S
C1834 C1833 1.362 . S
C1834 C1837 1.409 . S
C1835 H1827 0.930 . S
C1835 C1836 1.355 . S
C1835 C1837 1.415 . S
C1836 C1835 1.355 . S
C1836 C1838 1.419 . S
C1837 C1832 1.425 . S
C1837 C1834 1.409 . S
C1837 C1835 1.415 . S
C1838 H1828 0.930 . S
C1838 C1836 1.419 . S
C1838 C1839 1.362 . S
C1839 H1829 0.930 . S
C1839 C1832 1.409 . S
C1839 C1838 1.362 . S
H1840 C1846 0.930 . S
H1841 C1849 0.930 . S
H1842 C1850 0.930 . S
H1843 C1851 0.930 . S
H1844 C1854 0.930 . S
H1845 C1855 0.930 . S
C1846 H1840 0.930 . S
C1846 C1847 1.355 . S
C1846 C1848 1.415 . S
C1847 C1846 1.355 . S
C1847 C1849 1.419 . S
C1848 C1846 1.415 . S
C1848 C1853 1.425 . S
C1848 C1855 1.409 . S
C1849 H1841 0.930 . S
C1849 C1847 1.419 . S
C1849 C1850 1.362 . S
C1850 H1842 0.930 . S
C1850 C1849 1.362 . S
C1850 C1853 1.409 . S
C1851 H1843 0.930 . S
C1851 C1852 1.355 . S
C1851 C1853 1.415 . S
C1852 C1851 1.355 . S
C1852 C1854 1.419 . S
C1853 C1848 1.425 . S
C1853 C1850 1.409 . S
C1853 C1851 1.415 . S
C1854 H1844 0.930 . S
C1854 C1852 1.419 . S
C1854 C1855 1.362 . S
C1855 H1845 0.930 . S
C1855 C1848 1.409 . S
C1855 C1854 1.362 . S
H1856 C1862 0.930 . S
H1857 C1865 0.930 . S
H1858 C1866 0.930 . S
H1859 C1867 0.930 . S
H1860 C1870 0.930 . S
H1861 C1871 0.930 . S
C1862 H1856 0.930 . S
C1862 C1863 1.355 . S
C1862 C1864 1.415 . S
C1863 C1862 1.355 . S
C1863 C1865 1.419 . S
C1864 C1862 1.415 . S
C1864 C1869 1.425 . S
C1864 C1871 1.409 . S
C1865 H1857 0.930 . S
C1865 C1863 1.419 . S
C1865 C1866 1.362 . S
C1866 H1858 0.930 . S
C1866 C1865 1.362 . S
C1866 C1869 1.409 . S
C1867 H1859 0.930 . S
C1867 C1868 1.355 . S
C1867 C1869 1.415 . S
C1868 C1867 1.355 . S
C1868 C1870 1.419 . S
C1869 C1864 1.425 . S
C1869 C1866 1.409 . S
C1869 C1867 1.415 . S
C1870 H1860 0.930 . S
C1870 C1868 1.419 . S
C1870 C1871 1.362 . S
C1871 H1861 0.930 . S
C1871 C1864 1.409 . S
C1871 C1870 1.362 . S
H1872 C1878 0.930 . S
H1873 C1881 0.930 . S
H1874 C1882 0.930 . S
H1875 C1883 0.930 . S
H1876 C1886 0.930 . S
H1877 C1887 0.930 . S
C1878 H1872 0.930 . S
C1878 C1879 1.355 . S
C1878 C1880 1.415 . S
C1879 C1878 1.355 . S
C1879 C1881 1.419 . S
C1880 C1878 1.415 . S
C1880 C1885 1.425 . S
C1880 C1887 1.409 . S
C1881 H1873 0.930 . S
C1881 C1879 1.419 . S
C1881 C1882 1.362 . S
C1882 H1874 0.930 . S
C1882 C1881 1.362 . S
C1882 C1885 1.409 . S
C1883 H1875 0.930 . S
C1883 C1884 1.355 . S
C1883 C1885 1.415 . S
C1884 C1883 1.355 . S
C1884 C1886 1.419 . S
C1885 C1880 1.425 . S
C1885 C1882 1.409 . S
C1885 C1883 1.415 . S
C1886 H1876 0.930 . S
C1886 C1884 1.419 . S
C1886 C1887 1.362 . S
C1887 H1877 0.930 . S
C1887 C1880 1.409 . S
C1887 C1886 1.362 . S
H1888 C1894 0.930 . S
H1889 C1897 0.930 . S
H1890 C1898 0.930 . S
H1891 C1899 0.930 . S
H1892 C1902 0.930 . S
H1893 C1903 0.930 . S
C1894 H1888 0.930 . S
C1894 C1895 1.355 . S
C1894 C1896 1.415 . S
C1895 C1894 1.355 . S
C1895 C1897 1.419 . S
C1896 C1894 1.415 . S
C1896 C1901 1.425 . S
C1896 C1903 1.409 . S
C1897 H1889 0.930 . S
C1897 C1895 1.419 . S
C1897 C1898 1.362 . S
C1898 H1890 0.930 . S
C1898 C1897 1.362 . S
C1898 C1901 1.409 . S
C1899 H1891 0.930 . S
C1899 C1900 1.355 . S
C1899 C1901 1.415 . S
C1900 C1899 1.355 . S
C1900 C1902 1.419 . S
C1901 C1896 1.425 . S
C1901 C1898 1.409 . S
C1901 C1899 1.415 . S
C1902 H1892 0.930 . S
C1902 C1900 1.419 . S
C1902 C1903 1.362 . S
C1903 H1893 0.930 . S
C1903 C1896 1.409 . S
C1903 C1902 1.362 . S
H1904 C1910 0.930 . S
H1905 C1913 0.930 . S
H1906 C1914 0.930 . S
H1907 C1915 0.930 . S
H1908 C1918 0.930 . S
H1909 C1919 0.930 . S
C1910 H1904 0.930 . S
C1910 C1911 1.355 . S
C1910 C1912 1.415 . S
C1911 C1910 1.355 . S
C1911 C1913 1.419 . S
C1912 C1910 1.415 . S
C1912 C1917 1.425 . S
C1912 C1919 1.409 . S
C1913 H1905 0.930 . S
C1913 C1911 1.419 . S
C1913 C1914 1.362 . S
C1914 H1906 0.930 . S
C1914 C1913 1.362 . S
C1914 C1917 1.409 . S
C1915 H1907 0.930 . S
C1915 C1916 1.355 . S
C1915 C1917 1.415 . S
C1916 C1915 1.355 . S
C1916 C1918 1.419 . S
C1917 C1912 1.425 . S
C1917 C1914 1.409 . S
C1917 C1915 1.415 . S
C1918 H1908 0.930 . S
C1918 C1916 1.419 . S
C1918 C1919 1.362 . S
C1919 H1909 0.930 . S
C1919 C1912 1.409 . S
C1919 C1918 1.362 . S
H1920 C1926 0.930 . S
H1921 C1929 0.930 . S
H1922 C1930 0.930 . S
H1923 C1931 0.930 . S
H1924 C1934 0.930 . S
H1925 C1935 0.930 . S
C1926 H1920 0.930 . S
C1926 C1927 1.355 . S
C1926 C1928 1.415 . S
C1927 C1926 1.355 . S
C1927 C1929 1.419 . S
C1928 C1926 1.415 . S
C1928 C1933 1.425 . S
C1928 C1935 1.409 . S
C1929 H1921 0.930 . S
C1929 C1927 1.419 . S
C1929 C1930 1.362 . S
C1930 H1922 0.930 . S
C1930 C1929 1.362 . S
C1930 C1933 1.409 . S
C1931 H1923 0.930 . S
C1931 C1932 1.355 . S
C1931 C1933 1.415 . S
C1932 C1931 1.355 . S
C1932 C1934 1.419 . S
C1933 C1928 1.425 . S
C1933 C1930 1.409 . S
C1933 C1931 1.415 . S
C1934 H1924 0.930 . S
C1934 C1932 1.419 . S
C1934 C1935 1.362 . S
C1935 H1925 0.930 . S
C1935 C1928 1.409 . S
C1935 C1934 1.362 . S
H1936 C1942 0.930 . S
H1937 C1945 0.930 . S
H1938 C1946 0.930 . S
H1939 C1947 0.930 . S
H1940 C1950 0.930 . S
H1941 C1951 0.930 . S
C1942 H1936 0.930 . S
C1942 C1943 1.355 . S
C1942 C1944 1.415 . S
C1943 C1942 1.355 . S
C1943 C1945 1.419 . S
C1944 C1942 1.415 . S
C1944 C1949 1.425 . S
C1944 C1951 1.409 . S
C1945 H1937 0.930 . S
C1945 C1943 1.419 . S
C1945 C1946 1.362 . S
C1946 H1938 0.930 . S
C1946 C1945 1.362 . S
C1946 C1949 1.409 . S
C1947 H1939 0.930 . S
C1947 C1948 1.355 . S
C1947 C1949 1.415 . S
C1948 C1947 1.355 . S
C1948 C1950 1.419 . S
C1949 C1944 1.425 . S
C1949 C1946 1.409 . S
C1949 C1947 1.415 . S
C1950 H1940 0.930 . S
C1950 C1948 1.419 . S
C1950 C1951 1.362 . S
C1951 H1941 0.930 . S
C1951 C1944 1.409 . S
C1951 C1950 1.362 . S
H1952 C1958 0.930 . S
H1953 C1961 0.930 . S
H1954 C1962 0.930 . S
H1955 C1963 0.930 . S
H1956 C1966 0.930 . S
H1957 C1967 0.930 . S
C1958 H1952 0.930 . S
C1958 C1959 1.355 . S
C1958 C1960 1.415 . S
C1959 C1958 1.355 . S
C1959 C1961 1.419 . S
C1960 C1958 1.415 . S
C1960 C1965 1.425 . S
C1960 C1967 1.409 . S
C1961 H1953 0.930 . S
C1961 C1959 1.419 . S
C1961 C1962 1.362 . S
C1962 H1954 0.930 . S
C1962 C1961 1.362 . S
C1962 C1965 1.409 . S
C1963 H1955 0.930 . S
C1963 C1964 1.355 . S
C1963 C1965 1.415 . S
C1964 C1963 1.355 . S
C1964 C1966 1.419 . S
C1965 C1960 1.425 . S
C1965 C1962 1.409 . S
C1965 C1963 1.415 . S
C1966 H1956 0.930 . S
C1966 C1964 1.419 . S
C1966 C1967 1.362 . S
C1967 H1957 0.930 . S
C1967 C1960 1.409 . S
C1967 C1966 1.362 . S
H1968 C1974 0.930 . S
H1969 C1977 0.930 . S
H1970 C1978 0.930 . S
H1971 C1979 0.930 . S
H1972 C1982 0.930 . S
H1973 C1983 0.930 . S
C1974 H1968 0.930 . S
C1974 C1975 1.355 . S
C1974 C1976 1.415 . S
C1975 C1974 1.355 . S
C1975 C1977 1.419 . S
C1976 C1974 1.415 . S
C1976 C1981 1.425 . S
C1976 C1983 1.409 . S
C1977 H1969 0.930 . S
C1977 C1975 1.419 . S
C1977 C1978 1.362 . S
C1978 H1970 0.930 . S
C1978 C1977 1.362 . S
C1978 C1981 1.409 . S
C1979 H1971 0.930 . S
C1979 C1980 1.355 . S
C1979 C1981 1.415 . S
C1980 C1979 1.355 . S
C1980 C1982 1.419 . S
C1981 C1976 1.425 . S
C1981 C1978 1.409 . S
C1981 C1979 1.415 . S
C1982 H1972 0.930 . S
C1982 C1980 1.419 . S
C1982 C1983 1.362 . S
C1983 H1973 0.930 . S
C1983 C1976 1.409 . S
C1983 C1982 1.362 . S
H1984 C1990 0.930 . S
H1985 C1993 0.930 . S
H1986 C1994 0.930 . S
H1987 C1995 0.930 . S
H1988 C1998 0.930 . S
H1989 C1999 0.930 . S
C1990 H1984 0.930 . S
C1990 C1991 1.355 . S
C1990 C1992 1.415 . S
C1991 C1990 1.355 . S
C1991 C1993 1.419 . S
C1992 C1990 1.415 . S
C1992 C1997 1.425 . S
C1992 C1999 1.409 . S
C1993 H1985 0.930 . S
C1993 C1991 1.419 . S
C1993 C1994 1.362 . S
C1994 H1986 0.930 . S
C1994 C1993 1.362 . S
C1994 C1997 1.409 . S
C1995 H1987 0.930 . S
C1995 C1996 1.355 . S
C1995 C1997 1.415 . S
C1996 C1995 1.355 . S
C1996 C1998 1.419 . S
C1997 C1992 1.425 . S
C1997 C1994 1.409 . S
C1997 C1995 1.415 . S
C1998 H1988 0.930 . S
C1998 C1996 1.419 . S
C1998 C1999 1.362 . S
C1999 H1989 0.930 . S
C1999 C1992 1.409 . S
C1999 C1998 1.362 . S
H2000 C2006 0.930 . S
H2001 C2009 0.930 . S
H2002 C2010 0.930 . S
H2003 C2011 0.930 . S
H2004 C2014 0.930 . S
H2005 C2015 0.930 . S
C2006 H2000 0.930 . S
C2006 C2007 1.355 . S
C2006 C2008 1.415 . S
C2007 C2006 1.355 . S
C2007 C2009 1.419 . S
C2008 C2006 1.415 . S
C2008 C2013 1.425 . S
C2008 C2015 1.409 . S
C2009 H2001 0.930 . S
C2009 C2007 1.419 . S
C2009 C2010 1.362 . S
C2010 H2002 0.930 . S
C2010 C2009 1.362 . S
C2010 C2013 1.409 . S
C2011 H2003 0.930 . S
C2011 C2012 1.355 . S
C2011 C2013 1.415 . S
C2012 C2011 1.355 . S
C2012 C2014 1.419 . S
C2013 C2008 1.425 . S
C2013 C2010 1.409 . S
C2013 C2011 1.415 . S
C2014 H2004 0.930 . S
C2014 C2012 1.419 . S
C2014 C2015 1.362 . S
C2015 H2005 0.930 . S
C2015 C2008 1.409 . S
C2015 C2014 1.362 . S
H2016 C2022 0.930 . S
H2017 C2025 0.930 . S
H2018 C2026 0.930 . S
H2019 C2027 0.930 . S
H2020 C2030 0.930 . S
H2021 C2031 0.930 . S
C2022 H2016 0.930 . S
C2022 C2023 1.355 . S
C2022 C2024 1.415 . S
C2023 C2022 1.355 . S
C2023 C2025 1.419 . S
C2024 C2022 1.415 . S
C2024 C2029 1.425 . S
C2024 C2031 1.409 . S
C2025 H2017 0.930 . S
C2025 C2023 1.419 . S
C2025 C2026 1.362 . S
C2026 H2018 0.930 . S
C2026 C2025 1.362 . S
C2026 C2029 1.409 . S
C2027 H2019 0.930 . S
C2027 C2028 1.355 . S
C2027 C2029 1.415 . S
C2028 C2027 1.355 . S
C2028 C2030 1.419 . S
C2029 C2024 1.425 . S
C2029 C2026 1.409 . S
C2029 C2027 1.415 . S
C2030 H2020 0.930 . S
C2030 C2028 1.419 . S
C2030 C2031 1.362 . S
C2031 H2021 0.930 . S
C2031 C2024 1.409 . S
C2031 C2030 1.362 . S
H2032 C2038 0.930 . S
H2033 C2041 0.930 . S
H2034 C2042 0.930 . S
H2035 C2043 0.930 . S
H2036 C2046 0.930 . S
H2037 C2047 0.930 . S
C2038 H2032 0.930 . S
C2038 C2039 1.355 . S
C2038 C2040 1.415 . S
C2039 C2038 1.355 . S
C2039 C2041 1.419 . S
C2040 C2038 1.415 . S
C2040 C2045 1.425 . S
C2040 C2047 1.409 . S
C2041 H2033 0.930 . S
C2041 C2039 1.419 . S
C2041 C2042 1.362 . S
C2042 H2034 0.930 . S
C2042 C2041 1.362 . S
C2042 C2045 1.409 . S
C2043 H2035 0.930 . S
C2043 C2044 1.355 . S
C2043 C2045 1.415 . S
C2044 C2043 1.355 . S
C2044 C2046 1.419 . S
C2045 C2040 1.425 . S
C2045 C2042 1.409 . S
C2045 C2043 1.415 . S
C2046 H2036 0.930 . S
C2046 C2044 1.419 . S
C2046 C2047 1.362 . S
C2047 H2037 0.930 . S
C2047 C2040 1.409 . S
C2047 C2046 1.362 . S
H2048 C2054 0.930 . S
H2049 C2057 0.930 . S
H2050 C2058 0.930 . S
H2051 C2059 0.930 . S
H2052 C2062 0.930 . S
H2053 C2063 0.930 . S
C2054 H2048 0.930 . S
C2054 C2055 1.355 . S
C2054 C2056 1.415 . S
C2055 C2054 1.355 . S
C2055 C2057 1.419 . S
C2056 C2054 1.415 . S
C2056 C2061 1.425 . S
C2056 C2063 1.409 . S
C2057 H2049 0.930 . S
C2057 C2055 1.419 . S
C2057 C2058 1.362 . S
C2058 H2050 0.930 . S
C2058 C2057 1.362 . S
C2058 C2061 1.409 . S
C2059 H2051 0.930 . S
C2059 C2060 1.355 . S
C2059 C2061 1.415 . S
C2060 C2059 1.355 . S
C2060 C2062 1.419 . S
C2061 C2056 1.425 . S
C2061 C2058 1.409 . S
C2061 C2059 1.415 . S
C2062 H2052 0.930 . S
C2062 C2060 1.419 . S
C2062 C2063 1.362 . S
C2063 H2053 0.930 . S
C2063 C2056 1.409 . S
C2063 C2062 1.362 . S
H2064 C2070 0.930 . S
H2065 C2073 0.930 . S
H2066 C2074 0.930 . S
H2067 C2075 0.930 . S
H2068 C2078 0.930 . S
H2069 C2079 0.930 . S
C2070 H2064 0.930 . S
C2070 C2071 1.355 . S
C2070 C2072 1.415 . S
C2071 C2070 1.355 . S
C2071 C2073 1.419 . S
C2072 C2070 1.415 . S
C2072 C2077 1.425 . S
C2072 C2079 1.409 . S
C2073 H2065 0.930 . S
C2073 C2071 1.419 . S
C2073 C2074 1.362 . S
C2074 H2066 0.930 . S
C2074 C2073 1.362 . S
C2074 C2077 1.409 . S
C2075 H2067 0.930 . S
C2075 C2076 1.355 . S
C2075 C2077 1.415 . S
C2076 C2075 1.355 . S
C2076 C2078 1.419 . S
C2077 C2072 1.425 . S
C2077 C2074 1.409 . S
C2077 C2075 1.415 . S
C2078 H2068 0.930 . S
C2078 C2076 1.419 . S
C2078 C2079 1.362 . S
C2079 H2069 0.930 . S
C2079 C2072 1.409 . S
C2079 C2078 1.362 . S
H2080 C2086 0.930 . S
H2081 C2089 0.930 . S
H2082 C2090 0.930 . S
H2083 C2091 0.930 . S
H2084 C2094 0.930 . S
H2085 C2095 0.930 . S
C2086 H2080 0.930 . S
C2086 C2087 1.355 . S
C2086 C2088 1.415 . S
C2087 C2086 1.355 . S
C2087 C2089 1.419 . S
C2088 C2086 1.415 . S
C2088 C2093 1.425 . S
C2088 C2095 1.409 . S
C2089 H2081 0.930 . S
C2089 C2087 1.419 . S
C2089 C2090 1.362 . S
C2090 H2082 0.930 . S
C2090 C2089 1.362 . S
C2090 C2093 1.409 . S
C2091 H2083 0.930 . S
C2091 C2092 1.355 . S
C2091 C2093 1.415 . S
C2092 C2091 1.355 . S
C2092 C2094 1.419 . S
C2093 C2088 1.425 . S
C2093 C2090 1.409 . S
C2093 C2091 1.415 . S
C2094 H2084 0.930 . S
C2094 C2092 1.419 . S
C2094 C2095 1.362 . S
C2095 H2085 0.930 . S
C2095 C2088 1.409 . S
C2095 C2094 1.362 . S
H2096 C2102 0.930 . S
H2097 C2105 0.930 . S
H2098 C2106 0.930 . S
H2099 C2107 0.930 . S
H2100 C2110 0.930 . S
H2101 C2111 0.930 . S
C2102 H2096 0.930 . S
C2102 C2103 1.355 . S
C2102 C2104 1.415 . S
C2103 C2102 1.355 . S
C2103 C2105 1.419 . S
C2104 C2102 1.415 . S
C2104 C2109 1.425 . S
C2104 C2111 1.409 . S
C2105 H2097 0.930 . S
C2105 C2103 1.419 . S
C2105 C2106 1.362 . S
C2106 H2098 0.930 . S
C2106 C2105 1.362 . S
C2106 C2109 1.409 . S
C2107 H2099 0.930 . S
C2107 C2108 1.355 . S
C2107 C2109 1.415 . S
C2108 C2107 1.355 . S
C2108 C2110 1.419 . S
C2109 C2104 1.425 . S
C2109 C2106 1.409 . S
C2109 C2107 1.415 . S
C2110 H2100 0.930 . S
C2110 C2108 1.419 . S
C2110 C2111 1.362 . S
C2111 H2101 0.930 . S
C2111 C2104 1.409 . S
C2111 C2110 1.362 . S
H2112 C2118 0.930 . S
H2113 C2121 0.930 . S
H2114 C2122 0.930 . S
H2115 C2123 0.930 . S
H2116 C2126 0.930 . S
H2117 C2127 0.930 . S
C2118 H2112 0.930 . S
C2118 C2119 1.355 . S
C2118 C2120 1.415 . S
C2119 C2118 1.355 . S
C2119 C2121 1.419 . S
C2120 C2118 1.415 . S
C2120 C2125 1.425 . S
C2120 C2127 1.409 . S
C2121 H2113 0.930 . S
C2121 C2119 1.419 . S
C2121 C2122 1.362 . S
C2122 H2114 0.930 . S
C2122 C2121 1.362 . S
C2122 C2125 1.409 . S
C2123 H2115 0.930 . S
C2123 C2124 1.355 . S
C2123 C2125 1.415 . S
C2124 C2123 1.355 . S
C2124 C2126 1.419 . S
C2125 C2120 1.425 . S
C2125 C2122 1.409 . S
C2125 C2123 1.415 . S
C2126 H2116 0.930 . S
C2126 C2124 1.419 . S
C2126 C2127 1.362 . S
C2127 H2117 0.930 . S
C2127 C2120 1.409 . S
C2127 C2126 1.362 . S
H2128 C2134 0.930 . S
H2129 C2137 0.930 . S
H2130 C2138 0.930 . S
H2131 C2139 0.930 . S
H2132 C2142 0.930 . S
H2133 C2143 0.930 . S
C2134 H2128 0.930 . S
C2134 C2135 1.355 . S
C2134 C2136 1.415 . S
C2135 C2134 1.355 . S
C2135 C2137 1.419 . S
C2136 C2134 1.415 . S
C2136 C2141 1.425 . S
C2136 C2143 1.409 . S
C2137 H2129 0.930 . S
C2137 C2135 1.419 . S
C2137 C2138 1.362 . S
C2138 H2130 0.930 . S
C2138 C2137 1.362 . S
C2138 C2141 1.409 . S
C2139 H2131 0.930 . S
C2139 C2140 1.355 . S
C2139 C2141 1.415 . S
C2140 C2139 1.355 . S
C2140 C2142 1.419 . S
C2141 C2136 1.425 . S
C2141 C2138 1.409 . S
C2141 C2139 1.415 . S
C2142 H2132 0.930 . S
C2142 C2140 1.419 . S
C2142 C2143 1.362 . S
C2143 H2133 0.930 . S
C2143 C2136 1.409 . S
C2143 C2142 1.362 . S
H2144 C2150 0.930 . S
H2145 C2153 0.930 . S
H2146 C2154 0.930 . S
H2147 C2155 0.930 . S
H2148 C2158 0.930 . S
H2149 C2159 0.930 . S
C2150 H2144 0.930 . S
C2150 C2151 1.355 . S
C2150 C2152 1.415 . S
C2151 C2150 1.355 . S
C2151 C2153 1.419 . S
C2152 C2150 1.415 . S
C2152 C2157 1.425 . S
C2152 C2159 1.409 . S
C2153 H2145 0.930 . S
C2153 C2151 1.419 . S
C2153 C2154 1.362 . S
C2154 H2146 0.930 . S
C2154 C2153 1.362 . S
C2154 C2157 1.409 . S
C2155 H2147 0.930 . S
C2155 C2156 1.355 . S
C2155 C2157 1.415 . S
C2156 C2155 1.355 . S
C2156 C2158 1.419 . S
C2157 C2152 1.425 . S
C2157 C2154 1.409 . S
C2157 C2155 1.415 . S
C2158 H2148 0.930 . S
C2158 C2156 1.419 . S
C2158 C2159 1.362 . S
C2159 H2149 0.930 . S
C2159 C2152 1.409 . S
C2159 C2158 1.362 . S
H2160 C2166 0.930 . S
H2161 C2169 0.930 . S
H2162 C2170 0.930 . S
H2163 C2171 0.930 . S
H2164 C2174 0.930 . S
H2165 C2175 0.930 . S
C2166 H2160 0.930 . S
C2166 C2167 1.355 . S
C2166 C2168 1.415 . S
C2167 C2166 1.355 . S
C2167 C2169 1.419 . S
C2168 C2166 1.415 . S
C2168 C2173 1.425 . S
C2168 C2175 1.409 . S
C2169 H2161 0.930 . S
C2169 C2167 1.419 . S
C2169 C2170 1.362 . S
C2170 H2162 0.930 . S
C2170 C2169 1.362 . S
C2170 C2173 1.409 . S
C2171 H2163 0.930 . S
C2171 C2172 1.355 . S
C2171 C2173 1.415 . S
C2172 C2171 1.355 . S
C2172 C2174 1.419 . S
C2173 C2168 1.425 . S
C2173 C2170 1.409 . S
C2173 C2171 1.415 . S
C2174 H2164 0.930 . S
C2174 C2172 1.419 . S
C2174 C2175 1.362 . S
C2175 H2165 0.930 . S
C2175 C2168 1.409 . S
C2175 C2174 1.362 . S
H2176 C2182 0.930 . S
H2177 C2185 0.930 . S
H2178 C2186 0.930 . S
H2179 C2187 0.930 . S
H2180 C2190 0.930 . S
H2181 C2191 0.930 . S
C2182 H2176 0.930 . S
C2182 C2183 1.355 . S
C2182 C2184 1.415 . S
C2183 C2182 1.355 . S
C2183 C2185 1.419 . S
C2184 C2182 1.415 . S
C2184 C2189 1.425 . S
C2184 C2191 1.409 . S
C2185 H2177 0.930 . S
C2185 C2183 1.419 . S
C2185 C2186 1.362 . S
C2186 H2178 0.930 . S
C2186 C2185 1.362 . S
C2186 C2189 1.409 . S
C2187 H2179 0.930 . S
C2187 C2188 1.355 . S
C2187 C2189 1.415 . S
C2188 C2187 1.355 . S
C2188 C2190 1.419 . S
C2189 C2184 1.425 . S
C2189 C2186 1.409 . S
C2189 C2187 1.415 . S
C2190 H2180 0.930 . S
C2190 C2188 1.419 . S
C2190 C2191 1.362 . S
C2191 H2181 0.930 . S
C2191 C2184 1.409 . S
C2191 C2190 1.362 . S
H2192 C2198 0.930 . S
H2193 C2201 0.930 . S
H2194 C2202 0.930 . S
H2195 C2203 0.930 . S
H2196 C2206 0.930 . S
H2197 C2207 0.930 . S
C2198 H2192 0.930 . S
C2198 C2199 1.355 . S
C2198 C2200 1.415 . S
C2199 C2198 1.355 . S
C2199 C2201 1.419 . S
C2200 C2198 1.415 . S
C2200 C2205 1.425 . S
C2200 C2207 1.409 . S
C2201 H2193 0.930 . S
C2201 C2199 1.419 . S
C2201 C2202 1.362 . S
C2202 H2194 0.930 . S
C2202 C2201 1.362 . S
C2202 C2205 1.409 . S
C2203 H2195 0.930 . S
C2203 C2204 1.355 . S
C2203 C2205 1.415 . S
C2204 C2203 1.355 . S
C2204 C2206 1.419 . S
C2205 C2200 1.425 . S
C2205 C2202 1.409 . S
C2205 C2203 1.415 . S
C2206 H2196 0.930 . S
C2206 C2204 1.419 . S
C2206 C2207 1.362 . S
C2207 H2197 0.930 . S
C2207 C2200 1.409 . S
C2207 C2206 1.362 . S
H2208 C2214 0.930 . S
H2209 C2217 0.930 . S
H2210 C2218 0.930 . S
H2211 C2219 0.930 . S
H2212 C2222 0.930 . S
H2213 C2223 0.930 . S
C2214 H2208 0.930 . S
C2214 C2215 1.355 . S
C2214 C2216 1.415 . S
C2215 C2214 1.355 . S
C2215 C2217 1.419 . S
C2216 C2214 1.415 . S
C2216 C2221 1.425 . S
C2216 C2223 1.409 . S
C2217 H2209 0.930 . S
C2217 C2215 1.419 . S
C2217 C2218 1.362 . S
C2218 H2210 0.930 . S
C2218 C2217 1.362 . S
C2218 C2221 1.409 . S
C2219 H2211 0.930 . S
C2219 C2220 1.355 . S
C2219 C2221 1.415 . S
C2220 C2219 1.355 . S
C2220 C2222 1.419 . S
C2221 C2216 1.425 . S
C2221 C2218 1.409 . S
C2221 C2219 1.415 . S
C2222 H2212 0.930 . S
C2222 C2220 1.419 . S
C2222 C2223 1.362 . S
C2223 H2213 0.930 . S
C2223 C2216 1.409 . S
C2223 C2222 1.362 . S
H2224 C2230 0.930 . S
H2225 C2233 0.930 . S
H2226 C2234 0.930 . S
H2227 C2235 0.930 . S
H2228 C2238 0.930 . S
H2229 C2239 0.930 . S
C2230 H2224 0.930 . S
C2230 C2231 1.355 . S
C2230 C2232 1.415 . S
C2231 C2230 1.355 . S
C2231 C2233 1.419 . S
C2232 C2230 1.415 . S
C2232 C2237 1.425 . S
C2232 C2239 1.409 . S
C2233 H2225 0.930 . S
C2233 C2231 1.419 . S
C2233 C2234 1.362 . S
C2234 H2226 0.930 . S
C2234 C2233 1.362 . S
C2234 C2237 1.409 . S
C2235 H2227 0.930 . S
C2235 C2236 1.355 . S
C2235 C2237 1.415 . S
C2236 C2235 1.355 . S
C2236 C2238 1.419 . S
C2237 C2232 1.425 . S
C2237 C2234 1.409 . S
C2237 C2235 1.415 . S
C2238 H2228 0.930 . S
C2238 C2236 1.419 . S
C2238 C2239 1.362 . S
C2239 H2229 0.930 . S
C2239 C2232 1.409 . S
C2239 C2238 1.362 . S
H2240 C2246 0.930 . S
H2241 C2249 0.930 . S
H2242 C2250 0.930 . S
H2243 C2251 0.930 . S
H2244 C2254 0.930 . S
H2245 C2255 0.930 . S
C2246 H2240 0.930 . S
C2246 C2247 1.355 . S
C2246 C2248 1.415 . S
C2247 C2246 1.355 . S
C2247 C2249 1.419 . S
C2248 C2246 1.415 . S
C2248 C2253 1.425 . S
C2248 C2255 1.409 . S
C2249 H2241 0.930 . S
C2249 C2247 1.419 . S
C2249 C2250 1.362 . S
C2250 H2242 0.930 . S
C2250 C2249 1.362 . S
C2250 C2253 1.409 . S
C2251 H2243 0.930 . S
C2251 C2252 1.355 . S
C2251 C2253 1.415 . S
C2252 C2251 1.355 . S
C2252 C2254 1.419 . S
C2253 C2248 1.425 . S
C2253 C2250 1.409 . S
C2253 C2251 1.415 . S
C2254 H2244 0.930 . S
C2254 C2252 1.419 . S
C2254 C2255 1.362 . S
C2255 H2245 0.930 . S
C2255 C2248 1.409 . S
C2255 C2254 1.362 . S
H2256 C2262 0.930 . S
H2257 C2265 0.930 . S
H2258 C2266 0.930 . S
H2259 C2267 0.930 . S
H2260 C2270 0.930 . S
H2261 C2271 0.930 . S
C2262 H2256 0.930 . S
C2262 C2263 1.355 . S
C2262 C2264 1.415 . S
C2263 C2262 1.355 . S
C2263 C2265 1.419 . S
C2264 C2262 1.415 . S
C2264 C2269 1.425 . S
C2264 C2271 1.409 . S
C2265 H2257 0.930 . S
C2265 C2263 1.419 . S
C2265 C2266 1.362 . S
C2266 H2258 0.930 . S
C2266 C2265 1.362 . S
C2266 C2269 1.409 . S
C2267 H2259 0.930 . S
C2267 C2268 1.355 . S
C2267 C2269 1.415 . S
C2268 C2267 1.355 . S
C2268 C2270 1.419 . S
C2269 C2264 1.425 . S
C2269 C2266 1.409 . S
C2269 C2267 1.415 . S
C2270 H2260 0.930 . S
C2270 C2268 1.419 . S
C2270 C2271 1.362 . S
C2271 H2261 0.930 . S
C2271 C2264 1.409 . S
C2271 C2270 1.362 . S
H2272 C2278 0.930 . S
H2273 C2281 0.930 . S
H2274 C2282 0.930 . S
H2275 C2283 0.930 . S
H2276 C2286 0.930 . S
H2277 C2287 0.930 . S
C2278 H2272 0.930 . S
C2278 C2279 1.355 . S
C2278 C2280 1.415 . S
C2279 C2278 1.355 . S
C2279 C2281 1.419 . S
C2280 C2278 1.415 . S
C2280 C2285 1.425 . S
C2280 C2287 1.409 . S
C2281 H2273 0.930 . S
C2281 C2279 1.419 . S
C2281 C2282 1.362 . S
C2282 H2274 0.930 . S
C2282 C2281 1.362 . S
C2282 C2285 1.409 . S
C2283 H2275 0.930 . S
C2283 C2284 1.355 . S
C2283 C2285 1.415 . S
C2284 C2283 1.355 . S
C2284 C2286 1.419 . S
C2285 C2280 1.425 . S
C2285 C2282 1.409 . S
C2285 C2283 1.415 . S
C2286 H2276 0.930 . S
C2286 C2284 1.419 . S
C2286 C2287 1.362 . S
C2287 H2277 0.930 . S
C2287 C2280 1.409 . S
C2287 C2286 1.362 . S
H2288 C2294 0.930 . S
H2289 C2297 0.930 . S
H2290 C2298 0.930 . S
H2291 C2299 0.930 . S
H2292 C2302 0.930 . S
H2293 C2303 0.930 . S
C2294 H2288 0.930 . S
C2294 C2295 1.355 . S
C2294 C2296 1.415 . S
C2295 C2294 1.355 . S
C2295 C2297 1.419 . S
C2296 C2294 1.415 . S
C2296 C2301 1.425 . S
C2296 C2303 1.409 . S
C2297 H2289 0.930 . S
C2297 C2295 1.419 . S
C2297 C2298 1.362 . S
C2298 H2290 0.930 . S
C2298 C2297 1.362 . S
C2298 C2301 1.409 . S
C2299 H2291 0.930 . S
C2299 C2300 1.355 . S
C2299 C2301 1.415 . S
C2300 C2299 1.355 . S
C2300 C2302 1.419 . S
C2301 C2296 1.425 . S
C2301 C2298 1.409 . S
C2301 C2299 1.415 . S
C2302 H2292 0.930 . S
C2302 C2300 1.419 . S
C2302 C2303 1.362 . S
C2303 H2293 0.930 . S
C2303 C2296 1.409 . S
C2303 C2302 1.362 . S
H2304 C2310 0.930 . S
H2305 C2313 0.930 . S
H2306 C2314 0.930 . S
H2307 C2315 0.930 . S
H2308 C2318 0.930 . S
H2309 C2319 0.930 . S
C2310 H2304 0.930 . S
C2310 C2311 1.355 . S
C2310 C2312 1.415 . S
C2311 C2310 1.355 . S
C2311 C2313 1.419 . S
C2312 C2310 1.415 . S
C2312 C2317 1.425 . S
C2312 C2319 1.409 . S
C2313 H2305 0.930 . S
C2313 C2311 1.419 . S
C2313 C2314 1.362 . S
C2314 H2306 0.930 . S
C2314 C2313 1.362 . S
C2314 C2317 1.409 . S
C2315 H2307 0.930 . S
C2315 C2316 1.355 . S
C2315 C2317 1.415 . S
C2316 C2315 1.355 . S
C2316 C2318 1.419 . S
C2317 C2312 1.425 . S
C2317 C2314 1.409 . S
C2317 C2315 1.415 . S
C2318 H2308 0.930 . S
C2318 C2316 1.419 . S
C2318 C2319 1.362 . S
C2319 H2309 0.930 . S
C2319 C2312 1.409 . S
C2319 C2318 1.362 . S
H2320 C2326 0.930 . S
H2321 C2329 0.930 . S
H2322 C2330 0.930 . S
H2323 C2331 0.930 . S
H2324 C2334 0.930 . S
H2325 C2335 0.930 . S
C2326 H2320 0.930 . S
C2326 C2327 1.355 . S
C2326 C2328 1.415 . S
C2327 C2326 1.355 . S
C2327 C2329 1.419 . S
C2328 C2326 1.415 . S
C2328 C2333 1.425 . S
C2328 C2335 1.409 . S
C2329 H2321 0.930 . S
C2329 C2327 1.419 . S
C2329 C2330 1.362 . S
C2330 H2322 0.930 . S
C2330 C2329 1.362 . S
C2330 C2333 1.409 . S
C2331 H2323 0.930 . S
C2331 C2332 1.355 . S
C2331 C2333 1.415 . S
C2332 C2331 1.355 . S
C2332 C2334 1.419 . S
C2333 C2328 1.425 . S
C2333 C2330 1.409 . S
C2333 C2331 1.415 . S
C2334 H2324 0.930 . S
C2334 C2332 1.419 . S
C2334 C2335 1.362 . S
C2335 H2325 0.930 . S
C2335 C2328 1.409 . S
C2335 C2334 1.362 . S
H2336 C2342 0.930 . S
H2337 C2345 0.930 . S
H2338 C2346 0.930 . S
H2339 C2347 0.930 . S
H2340 C2350 0.930 . S
H2341 C2351 0.930 . S
C2342 H2336 0.930 . S
C2342 C2343 1.355 . S
C2342 C2344 1.415 . S
C2343 C2342 1.355 . S
C2343 C2345 1.419 . S
C2344 C2342 1.415 . S
C2344 C2349 1.425 . S
C2344 C2351 1.409 . S
C2345 H2337 0.930 . S
C2345 C2343 1.419 . S
C2345 C2346 1.362 . S
C2346 H2338 0.930 . S
C2346 C2345 1.362 . S
C2346 C2349 1.409 . S
C2347 H2339 0.930 . S
C2347 C2348 1.355 . S
C2347 C2349 1.415 . S
C2348 C2347 1.355 . S
C2348 C2350 1.419 . S
C2349 C2344 1.425 . S
C2349 C2346 1.409 . S
C2349 C2347 1.415 . S
C2350 H2340 0.930 . S
C2350 C2348 1.419 . S
C2350 C2351 1.362 . S
C2351 H2341 0.930 . S
C2351 C2344 1.409 . S
C2351 C2350 1.362 . S
H2352 C2358 0.930 . S
H2353 C2361 0.930 . S
H2354 C2362 0.930 . S
H2355 C2363 0.930 . S
H2356 C2366 0.930 . S
H2357 C2367 0.930 . S
C2358 H2352 0.930 . S
C2358 C2359 1.355 . S
C2358 C2360 1.415 . S
C2359 C2358 1.355 . S
C2359 C2361 1.419 . S
C2360 C2358 1.415 . S
C2360 C2365 1.425 . S
C2360 C2367 1.409 . S
C2361 H2353 0.930 . S
C2361 C2359 1.419 . S
C2361 C2362 1.362 . S
C2362 H2354 0.930 . S
C2362 C2361 1.362 . S
C2362 C2365 1.409 . S
C2363 H2355 0.930 . S
C2363 C2364 1.355 . S
C2363 C2365 1.415 . S
C2364 C2363 1.355 . S
C2364 C2366 1.419 . S
C2365 C2360 1.425 . S
C2365 C2362 1.409 . S
C2365 C2363 1.415 . S
C2366 H2356 0.930 . S
C2366 C2364 1.419 . S
C2366 C2367 1.362 . S
C2367 H2357 0.930 . S
C2367 C2360 1.409 . S
C2367 C2366 1.362 . S
H2368 C2374 0.930 . S
H2369 C2377 0.930 . S
H2370 C2378 0.930 . S
H2371 C2379 0.930 . S
H2372 C2382 0.930 . S
H2373 C2383 0.930 . S
C2374 H2368 0.930 . S
C2374 C2375 1.355 . S
C2374 C2376 1.415 . S
C2375 C2374 1.355 . S
C2375 C2377 1.419 . S
C2376 C2374 1.415 . S
C2376 C2381 1.425 . S
C2376 C2383 1.409 . S
C2377 H2369 0.930 . S
C2377 C2375 1.419 . S
C2377 C2378 1.362 . S
C2378 H2370 0.930 . S
C2378 C2377 1.362 . S
C2378 C2381 1.409 . S
C2379 H2371 0.930 . S
C2379 C2380 1.355 . S
C2379 C2381 1.415 . S
C2380 C2379 1.355 . S
C2380 C2382 1.419 . S
C2381 C2376 1.425 . S
C2381 C2378 1.409 . S
C2381 C2379 1.415 . S
C2382 H2372 0.930 . S
C2382 C2380 1.419 . S
C2382 C2383 1.362 . S
C2383 H2373 0.930 . S
C2383 C2376 1.409 . S
C2383 C2382 1.362 . S
H2384 C2390 0.930 . S
H2385 C2393 0.930 . S
H2386 C2394 0.930 . S
H2387 C2395 0.930 . S
H2388 C2398 0.930 . S
H2389 C2399 0.930 . S
C2390 H2384 0.930 . S
C2390 C2391 1.355 . S
C2390 C2392 1.415 . S
C2391 C2390 1.355 . S
C2391 C2393 1.419 . S
C2392 C2390 1.415 . S
C2392 C2397 1.425 . S
C2392 C2399 1.409 . S
C2393 H2385 0.930 . S
C2393 C2391 1.419 . S
C2393 C2394 1.362 . S
C2394 H2386 0.930 . S
C2394 C2393 1.362 . S
C2394 C2397 1.409 . S
C2395 H2387 0.930 . S
C2395 C2396 1.355 . S
C2395 C2397 1.415 . S
C2396 C2395 1.355 . S
C2396 C2398 1.419 . S
C2397 C2392 1.425 . S
C2397 C2394 1.409 . S
C2397 C2395 1.415 . S
C2398 H2388 0.930 . S
C2398 C2396 1.419 . S
C2398 C2399 1.362 . S
C2399 H2389 0.930 . S
C2399 C2392 1.409 . S
C2399 C2398 1.362 . S
H2400 C2406 0.930 . S
H2401 C2409 0.930 . S
H2402 C2410 0.930 . S
H2403 C2411 0.930 . S
H2404 C2414 0.930 . S
H2405 C2415 0.930 . S
C2406 H2400 0.930 . S
C2406 C2407 1.355 . S
C2406 C2408 1.415 . S
C2407 C2406 1.355 . S
C2407 C2409 1.419 . S
C2408 C2406 1.415 . S
C2408 C2413 1.425 . S
C2408 C2415 1.409 . S
C2409 H2401 0.930 . S
C2409 C2407 1.419 . S
C2409 C2410 1.362 . S
C2410 H2402 0.930 . S
C2410 C2409 1.362 . S
C2410 C2413 1.409 . S
C2411 H2403 0.930 . S
C2411 C2412 1.355 . S
C2411 C2413 1.415 . S
C2412 C2411 1.355 . S
C2412 C2414 1.419 . S
C2413 C2408 1.425 . S
C2413 C2410 1.409 . S
C2413 C2411 1.415 . S
C2414 H2404 0.930 . S
C2414 C2412 1.419 . S
C2414 C2415 1.362 . S
C2415 H2405 0.930 . S
C2415 C2408 1.409 . S
C2415 C2414 1.362 . S
H2416 C2422 0.930 . S
H2417 C2425 0.930 . S
H2418 C2426 0.930 . S
H2419 C2427 0.930 . S
H2420 C2430 0.930 . S
H2421 C2431 0.930 . S
C2422 H2416 0.930 . S
C2422 C2423 1.355 . S
C2422 C2424 1.415 . S
C2423 C2422 1.355 . S
C2423 C2425 1.419 . S
C2424 C2422 1.415 . S
C2424 C2429 1.425 . S
C2424 C2431 1.409 . S
C2425 H2417 0.930 . S
C2425 C2423 1.419 . S
C2425 C2426 1.362 . S
C2426 H2418 0.930 . S
C2426 C2425 1.362 . S
C2426 C2429 1.409 . S
C2427 H2419 0.930 . S
C2427 C2428 1.355 . S
C2427 C2429 1.415 . S
C2428 C2427 1.355 . S
C2428 C2430 1.419 . S
C2429 C2424 1.425 . S
C2429 C2426 1.409 . S
C2429 C2427 1.415 . S
C2430 H2420 0.930 . S
C2430 C2428 1.419 . S
C2430 C2431 1.362 . S
C2431 H2421 0.930 . S
C2431 C2424 1.409 . S
C2431 C2430 1.362 . S
H2432 C2438 0.930 . S
H2433 C2441 0.930 . S
H2434 C2442 0.930 . S
H2435 C2443 0.930 . S
H2436 C2446 0.930 . S
H2437 C2447 0.930 . S
C2438 H2432 0.930 . S
C2438 C2439 1.355 . S
C2438 C2440 1.415 . S
C2439 C2438 1.355 . S
C2439 C2441 1.419 . S
C2440 C2438 1.415 . S
C2440 C2445 1.425 . S
C2440 C2447 1.409 . S
C2441 H2433 0.930 . S
C2441 C2439 1.419 . S
C2441 C2442 1.362 . S
C2442 H2434 0.930 . S
C2442 C2441 1.362 . S
C2442 C2445 1.409 . S
C2443 H2435 0.930 . S
C2443 C2444 1.355 . S
C2443 C2445 1.415 . S
C2444 C2443 1.355 . S
C2444 C2446 1.419 . S
C2445 C2440 1.425 . S
C2445 C2442 1.409 . S
C2445 C2443 1.415 . S
C2446 H2436 0.930 . S
C2446 C2444 1.419 . S
C2446 C2447 1.362 . S
C2447 H2437 0.930 . S
C2447 C2440 1.409 . S
C2447 C2446 1.362 . S
H2448 C2454 0.930 . S
H2449 C2457 0.930 . S
H2450 C2458 0.930 . S
H2451 C2459 0.930 . S
H2452 C2462 0.930 . S
H2453 C2463 0.930 . S
C2454 H2448 0.930 . S
C2454 C2455 1.355 . S
C2454 C2456 1.415 . S
C2455 C2454 1.355 . S
C2455 C2457 1.419 . S
C2456 C2454 1.415 . S
C2456 C2461 1.425 . S
C2456 C2463 1.409 . S
C2457 H2449 0.930 . S
C2457 C2455 1.419 . S
C2457 C2458 1.362 . S
C2458 H2450 0.930 . S
C2458 C2457 1.362 . S
C2458 C2461 1.409 . S
C2459 H2451 0.930 . S
C2459 C2460 1.355 . S
C2459 C2461 1.415 . S
C2460 C2459 1.355 . S
C2460 C2462 1.419 . S
C2461 C2456 1.425 . S
C2461 C2458 1.409 . S
C2461 C2459 1.415 . S
C2462 H2452 0.930 . S
C2462 C2460 1.419 . S
C2462 C2463 1.362 . S
C2463 H2453 0.930 . S
C2463 C2456 1.409 . S
C2463 C2462 1.362 . S
H2464 C2470 0.930 . S
H2465 C2473 0.930 . S
H2466 C2474 0.930 . S
H2467 C2475 0.930 . S
H2468 C2478 0.930 . S
H2469 C2479 0.930 . S
C2470 H2464 0.930 . S
C2470 C2471 1.355 . S
C2470 C2472 1.415 . S
C2471 C2470 1.355 . S
C2471 C2473 1.419 . S
C2472 C2470 1.415 . S
C2472 C2477 1.425 . S
C2472 C2479 1.409 . S
C2473 H2465 0.930 . S
C2473 C2471 1.419 . S
C2473 C2474 1.362 . S
C2474 H2466 0.930 . S
C2474 C2473 1.362 . S
C2474 C2477 1.409 . S
C2475 H2467 0.930 . S
C2475 C2476 1.355 . S
C2475 C2477 1.415 . S
C2476 C2475 1.355 . S
C2476 C2478 1.419 . S
C2477 C2472 1.425 . S
C2477 C2474 1.409 . S
C2477 C2475 1.415 . S
C2478 H2468 0.930 . S
C2478 C2476 1.419 . S
C2478 C2479 1.362 . S
C2479 H2469 0.930 . S
C2479 C2472 1.409 . S
C2479 C2478 1.362 . S
H2480 C2486 0.930 . S
H2481 C2489 0.930 . S
H2482 C2490 0.930 . S
H2483 C2491 0.930 . S
H2484 C2494 0.930 . S
H2485 C2495 0.930 . S
C2486 H2480 0.930 . S
C2486 C2487 1.355 . S
C2486 C2488 1.415 . S
C2487 C2486 1.355 . S
C2487 C2489 1.419 . S
C2488 C2486 1.415 . S
C2488 C2493 1.425 . S
C2488 C2495 1.409 . S
C2489 H2481 0.930 . S
C2489 C2487 1.419 . S
C2489 C2490 1.362 . S
C2490 H2482 0.930 . S
C2490 C2489 1.362 . S
C2490 C2493 1.409 . S
C2491 H2483 0.930 . S
C2491 C2492 1.355 . S
C2491 C2493 1.415 . S
C2492 C2491 1.355 . S
C2492 C2494 1.419 . S
C2493 C2488 1.425 . S
C2493 C2490 1.409 . S
C2493 C2491 1.415 . S
C2494 H2484 0.930 . S
C2494 C2492 1.419 . S
C2494 C2495 1.362 . S
C2495 H2485 0.930 . S
C2495 C2488 1.409 . S
C2495 C2494 1.362 . S
H2496 C2502 0.930 . S
H2497 C2505 0.930 . S
H2498 C2506 0.930 . S
H2499 C2507 0.930 . S
H2500 C2510 0.930 . S
H2501 C2511 0.930 . S
C2502 H2496 0.930 . S
C2502 C2503 1.355 . S
C2502 C2504 1.415 . S
C2503 C2502 1.355 . S
C2503 C2505 1.419 . S
C2504 C2502 1.415 . S
C2504 C2509 1.425 . S
C2504 C2511 1.409 . S
C2505 H2497 0.930 . S
C2505 C2503 1.419 . S
C2505 C2506 1.362 . S
C2506 H2498 0.930 . S
C2506 C2505 1.362 . S
C2506 C2509 1.409 . S
C2507 H2499 0.930 . S
C2507 C2508 1.355 . S
C2507 C2509 1.415 . S
C2508 C2507 1.355 . S
C2508 C2510 1.419 . S
C2509 C2504 1.425 . S
C2509 C2506 1.409 . S
C2509 C2507 1.415 . S
C2510 H2500 0.930 . S
C2510 C2508 1.419 . S
C2510 C2511 1.362 . S
C2511 H2501 0.930 . S
C2511 C2504 1.409 . S
C2511 C2510 1.362 . S
H2512 C2518 0.930 . S
H2513 C2521 0.930 . S
H2514 C2522 0.930 . S
H2515 C2523 0.930 . S
H2516 C2526 0.930 . S
H2517 C2527 0.930 . S
C2518 H2512 0.930 . S
C2518 C2519 1.355 . S
C2518 C2520 1.415 . S
C2519 C2518 1.355 . S
C2519 C2521 1.419 . S
C2520 C2518 1.415 . S
C2520 C2525 1.425 . S
C2520 C2527 1.409 . S
C2521 H2513 0.930 . S
C2521 C2519 1.419 . S
C2521 C2522 1.362 . S
C2522 H2514 0.930 . S
C2522 C2521 1.362 . S
C2522 C2525 1.409 . S
C2523 H2515 0.930 . S
C2523 C2524 1.355 . S
C2523 C2525 1.415 . S
C2524 C2523 1.355 . S
C2524 C2526 1.419 . S
C2525 C2520 1.425 . S
C2525 C2522 1.409 . S
C2525 C2523 1.415 . S
C2526 H2516 0.930 . S
C2526 C2524 1.419 . S
C2526 C2527 1.362 . S
C2527 H2517 0.930 . S
C2527 C2520 1.409 . S
C2527 C2526 1.362 . S
H2528 C2534 0.930 . S
H2529 C2537 0.930 . S
H2530 C2538 0.930 . S
H2531 C2539 0.930 . S
H2532 C2542 0.930 . S
H2533 C2543 0.930 . S
C2534 H2528 0.930 . S
C2534 C2535 1.355 . S
C2534 C2536 1.415 . S
C2535 C2534 1.355 . S
C2535 C2537 1.419 . S
C2536 C2534 1.415 . S
C2536 C2541 1.425 . S
C2536 C2543 1.409 . S
C2537 H2529 0.930 . S
C2537 C2535 1.419 . S
C2537 C2538 1.362 . S
C2538 H2530 0.930 . S
C2538 C2537 1.362 . S
C2538 C2541 1.409 . S
C2539 H2531 0.930 . S
C2539 C2540 1.355 . S
C2539 C2541 1.415 . S
C2540 C2539 1.355 . S
C2540 C2542 1.419 . S
C2541 C2536 1.425 . S
C2541 C2538 1.409 . S
C2541 C2539 1.415 . S
C2542 H2532 0.930 . S
C2542 C2540 1.419 . S
C2542 C2543 1.362 . S
C2543 H2533 0.930 . S
C2543 C2536 1.409 . S
C2543 C2542 1.362 . S
H2544 C2550 0.930 . S
H2545 C2553 0.930 . S
H2546 C2554 0.930 . S
H2547 C2555 0.930 . S
H2548 C2558 0.930 . S
H2549 C2559 0.930 . S
C2550 H2544 0.930 . S
C2550 C2551 1.355 . S
C2550 C2552 1.415 . S
C2551 C2550 1.355 . S
C2551 C2553 1.419 . S
C2552 C2550 1.415 . S
C2552 C2557 1.425 . S
C2552 C2559 1.409 . S
C2553 H2545 0.930 . S
C2553 C2551 1.419 . S
C2553 C2554 1.362 . S
C2554 H2546 0.930 . S
C2554 C2553 1.362 . S
C2554 C2557 1.409 . S
C2555 H2547 0.930 . S
C2555 C2556 1.355 . S
C2555 C2557 1.415 . S
C2556 C2555 1.355 . S
C2556 C2558 1.419 . S
C2557 C2552 1.425 . S
C2557 C2554 1.409 . S
C2557 C2555 1.415 . S
C2558 H2548 0.930 . S
C2558 C2556 1.419 . S
C2558 C2559 1.362 . S
C2559 H2549 0.930 . S
C2559 C2552 1.409 . S
C2559 C2558 1.362 . S
H2560 C2566 0.930 . S
H2561 C2569 0.930 . S
H2562 C2570 0.930 . S
H2563 C2571 0.930 . S
H2564 C2574 0.930 . S
H2565 C2575 0.930 . S
C2566 H2560 0.930 . S
C2566 C2567 1.355 . S
C2566 C2568 1.415 . S
C2567 C2566 1.355 . S
C2567 C2569 1.419 . S
C2568 C2566 1.415 . S
C2568 C2573 1.425 . S
C2568 C2575 1.409 . S
C2569 H2561 0.930 . S
C2569 C2567 1.419 . S
C2569 C2570 1.362 . S
C2570 H2562 0.930 . S
C2570 C2569 1.362 . S
C2570 C2573 1.409 . S
C2571 H2563 0.930 . S
C2571 C2572 1.355 . S
C2571 C2573 1.415 . S
C2572 C2571 1.355 . S
C2572 C2574 1.419 . S
C2573 C2568 1.425 . S
C2573 C2570 1.409 . S
C2573 C2571 1.415 . S
C2574 H2564 0.930 . S
C2574 C2572 1.419 . S
C2574 C2575 1.362 . S
C2575 H2565 0.930 . S
C2575 C2568 1.409 . S
C2575 C2574 1.362 . S
H2576 C2582 0.930 . S
H2577 C2585 0.930 . S
H2578 C2586 0.930 . S
H2579 C2587 0.930 . S
H2580 C2590 0.930 . S
H2581 C2591 0.930 . S
C2582 H2576 0.930 . S
C2582 C2583 1.355 . S
C2582 C2584 1.415 . S
C2583 C2582 1.355 . S
C2583 C2585 1.419 . S
C2584 C2582 1.415 . S
C2584 C2589 1.425 . S
C2584 C2591 1.409 . S
C2585 H2577 0.930 . S
C2585 C2583 1.419 . S
C2585 C2586 1.362 . S
C2586 H2578 0.930 . S
C2586 C2585 1.362 . S
C2586 C2589 1.409 . S
C2587 H2579 0.930 . S
C2587 C2588 1.355 . S
C2587 C2589 1.415 . S
C2588 C2587 1.355 . S
C2588 C2590 1.419 . S
C2589 C2584 1.425 . S
C2589 C2586 1.409 . S
C2589 C2587 1.415 . S
C2590 H2580 0.930 . S
C2590 C2588 1.419 . S
C2590 C2591 1.362 . S
C2591 H2581 0.930 . S
C2591 C2584 1.409 . S
C2591 C2590 1.362 . S
H2592 C2598 0.930 . S
H2593 C2601 0.930 . S
H2594 C2602 0.930 . S
H2595 C2603 0.930 . S
H2596 C2606 0.930 . S
H2597 C2607 0.930 . S
C2598 H2592 0.930 . S
C2598 C2599 1.355 . S
C2598 C2600 1.415 . S
C2599 C2598 1.355 . S
C2599 C2601 1.419 . S
C2600 C2598 1.415 . S
C2600 C2605 1.425 . S
C2600 C2607 1.409 . S
C2601 H2593 0.930 . S
C2601 C2599 1.419 . S
C2601 C2602 1.362 . S
C2602 H2594 0.930 . S
C2602 C2601 1.362 . S
C2602 C2605 1.409 . S
C2603 H2595 0.930 . S
C2603 C2604 1.355 . S
C2603 C2605 1.415 . S
C2604 C2603 1.355 . S
C2604 C2606 1.419 . S
C2605 C2600 1.425 . S
C2605 C2602 1.409 . S
C2605 C2603 1.415 . S
C2606 H2596 0.930 . S
C2606 C2604 1.419 . S
C2606 C2607 1.362 . S
C2607 H2597 0.930 . S
C2607 C2600 1.409 . S
C2607 C2606 1.362 . S
H2608 C2614 0.930 . S
H2609 C2617 0.930 . S
H2610 C2618 0.930 . S
H2611 C2619 0.930 . S
H2612 C2622 0.930 . S
H2613 C2623 0.930 . S
C2614 H2608 0.930 . S
C2614 C2615 1.355 . S
C2614 C2616 1.415 . S
C2615 C2614 1.355 . S
C2615 C2617 1.419 . S
C2616 C2614 1.415 . S
C2616 C2621 1.425 . S
C2616 C2623 1.409 . S
C2617 H2609 0.930 . S
C2617 C2615 1.419 . S
C2617 C2618 1.362 . S
C2618 H2610 0.930 . S
C2618 C2617 1.362 . S
C2618 C2621 1.409 . S
C2619 H2611 0.930 . S
C2619 C2620 1.355 . S
C2619 C2621 1.415 . S
C2620 C2619 1.355 . S
C2620 C2622 1.419 . S
C2621 C2616 1.425 . S
C2621 C2618 1.409 . S
C2621 C2619 1.415 . S
C2622 H2612 0.930 . S
C2622 C2620 1.419 . S
C2622 C2623 1.362 . S
C2623 H2613 0.930 . S
C2623 C2616 1.409 . S
C2623 C2622 1.362 . S
H2624 C2630 0.930 . S
H2625 C2633 0.930 . S
H2626 C2634 0.930 . S
H2627 C2635 0.930 . S
H2628 C2638 0.930 . S
H2629 C2639 0.930 . S
C2630 H2624 0.930 . S
C2630 C2631 1.355 . S
C2630 C2632 1.415 . S
C2631 C2630 1.355 . S
C2631 C2633 1.419 . S
C2632 C2630 1.415 . S
C2632 C2637 1.425 . S
C2632 C2639 1.409 . S
C2633 H2625 0.930 . S
C2633 C2631 1.419 . S
C2633 C2634 1.362 . S
C2634 H2626 0.930 . S
C2634 C2633 1.362 . S
C2634 C2637 1.409 . S
C2635 H2627 0.930 . S
C2635 C2636 1.355 . S
C2635 C2637 1.415 . S
C2636 C2635 1.355 . S
C2636 C2638 1.419 . S
C2637 C2632 1.425 . S
C2637 C2634 1.409 . S
C2637 C2635 1.415 . S
C2638 H2628 0.930 . S
C2638 C2636 1.419 . S
C2638 C2639 1.362 . S
C2639 H2629 0.930 . S
C2639 C2632 1.409 . S
C2639 C2638 1.362 . S
H2640 C2646 0.930 . S
H2641 C2649 0.930 . S
H2642 C2650 0.930 . S
H2643 C2651 0.930 . S
H2644 C2654 0.930 . S
H2645 C2655 0.930 . S
C2646 H2640 0.930 . S
C2646 C2647 1.355 . S
C2646 C2648 1.415 . S
C2647 C2646 1.355 . S
C2647 C2649 1.419 . S
C2648 C2646 1.415 . S
C2648 C2653 1.425 . S
C2648 C2655 1.409 . S
C2649 H2641 0.930 . S
C2649 C2647 1.419 . S
C2649 C2650 1.362 . S
C2650 H2642 0.930 . S
C2650 C2649 1.362 . S
C2650 C2653 1.409 . S
C2651 H2643 0.930 . S
C2651 C2652 1.355 . S
C2651 C2653 1.415 . S
C2652 C2651 1.355 . S
C2652 C2654 1.419 . S
C2653 C2648 1.425 . S
C2653 C2650 1.409 . S
C2653 C2651 1.415 . S
C2654 H2644 0.930 . S
C2654 C2652 1.419 . S
C2654 C2655 1.362 . S
C2655 H2645 0.930 . S
C2655 C2648 1.409 . S
C2655 C2654 1.362 . S
H2656 C2662 0.930 . S
H2657 C2665 0.930 . S
H2658 C2666 0.930 . S
H2659 C2667 0.930 . S
H2660 C2670 0.930 . S
H2661 C2671 0.930 . S
C2662 H2656 0.930 . S
C2662 C2663 1.355 . S
C2662 C2664 1.415 . S
C2663 C2662 1.355 . S
C2663 C2665 1.419 . S
C2664 C2662 1.415 . S
C2664 C2669 1.425 . S
C2664 C2671 1.409 . S
C2665 H2657 0.930 . S
C2665 C2663 1.419 . S
C2665 C2666 1.362 . S
C2666 H2658 0.930 . S
C2666 C2665 1.362 . S
C2666 C2669 1.409 . S
C2667 H2659 0.930 . S
C2667 C2668 1.355 . S
C2667 C2669 1.415 . S
C2668 C2667 1.355 . S
C2668 C2670 1.419 . S
C2669 C2664 1.425 . S
C2669 C2666 1.409 . S
C2669 C2667 1.415 . S
C2670 H2660 0.930 . S
C2670 C2668 1.419 . S
C2670 C2671 1.362 . S
C2671 H2661 0.930 . S
C2671 C2664 1.409 . S
C2671 C2670 1.362 . S
H2672 C2678 0.930 . S
H2673 C2681 0.930 . S
H2674 C2682 0.930 . S
H2675 C2683 0.930 . S
H2676 C2686 0.930 . S
H2677 C2687 0.930 . S
C2678 H2672 0.930 . S
C2678 C2679 1.355 . S
C2678 C2680 1.415 . S
C2679 C2678 1.355 . S
C2679 C2681 1.419 . S
C2680 C2678 1.415 . S
C2680 C2685 1.425 . S
C2680 C2687 1.409 . S
C2681 H2673 0.930 . S
C2681 C2679 1.419 . S
C2681 C2682 1.362 . S
C2682 H2674 0.930 . S
C2682 C2681 1.362 . S
C2682 C2685 1.409 . S
C2683 H2675 0.930 . S
C2683 C2684 1.355 . S
C2683 C2685 1.415 . S
C2684 C2683 1.355 . S
C2684 C2686 1.419 . S
C2685 C2680 1.425 . S
C2685 C2682 1.409 . S
C2685 C2683 1.415 . S
C2686 H2676 0.930 . S
C2686 C2684 1.419 . S
C2686 C2687 1.362 . S
C2687 H2677 0.930 . S
C2687 C2680 1.409 . S
C2687 C2686 1.362 . S
H2688 C2694 0.930 . S
H2689 C2697 0.930 . S
H2690 C2698 0.930 . S
H2691 C2699 0.930 . S
H2692 C2702 0.930 . S
H2693 C2703 0.930 . S
C2694 H2688 0.930 . S
C2694 C2695 1.355 . S
C2694 C2696 1.415 . S
C2695 C2694 1.355 . S
C2695 C2697 1.419 . S
C2696 C2694 1.415 . S
C2696 C2701 1.425 . S
C2696 C2703 1.409 . S
C2697 H2689 0.930 . S
C2697 C2695 1.419 . S
C2697 C2698 1.362 . S
C2698 H2690 0.930 . S
C2698 C2697 1.362 . S
C2698 C2701 1.409 . S
C2699 H2691 0.930 . S
C2699 C2700 1.355 . S
C2699 C2701 1.415 . S
C2700 C2699 1.355 . S
C2700 C2702 1.419 . S
C2701 C2696 1.425 . S
C2701 C2698 1.409 . S
C2701 C2699 1.415 . S
C2702 H2692 0.930 . S
C2702 C2700 1.419 . S
C2702 C2703 1.362 . S
C2703 H2693 0.930 . S
C2703 C2696 1.409 . S
C2703 C2702 1.362 . S
H2704 C2710 0.930 . S
H2705 C2713 0.930 . S
H2706 C2714 0.930 . S
H2707 C2715 0.930 . S
H2708 C2718 0.930 . S
H2709 C2719 0.930 . S
C2710 H2704 0.930 . S
C2710 C2711 1.355 . S
C2710 C2712 1.415 . S
C2711 C2710 1.355 . S
C2711 C2713 1.419 . S
C2712 C2710 1.415 . S
C2712 C2717 1.425 . S
C2712 C2719 1.409 . S
C2713 H2705 0.930 . S
C2713 C2711 1.419 . S
C2713 C2714 1.362 . S
C2714 H2706 0.930 . S
C2714 C2713 1.362 . S
C2714 C2717 1.409 . S
C2715 H2707 0.930 . S
C2715 C2716 1.355 . S
C2715 C2717 1.415 . S
C2716 C2715 1.355 . S
C2716 C2718 1.419 . S
C2717 C2712 1.425 . S
C2717 C2714 1.409 . S
C2717 C2715 1.415 . S
C2718 H2708 0.930 . S
C2718 C2716 1.419 . S
C2718 C2719 1.362 . S
C2719 H2709 0.930 . S
C2719 C2712 1.409 . S
C2719 C2718 1.362 . S
H2720 C2726 0.930 . S
H2721 C2729 0.930 . S
H2722 C2730 0.930 . S
H2723 C2731 0.930 . S
H2724 C2734 0.930 . S
H2725 C2735 0.930 . S
C2726 H2720 0.930 . S
C2726 C2727 1.355 . S
C2726 C2728 1.415 . S
C2727 C2726 1.355 . S
C2727 C2729 1.419 . S
C2728 C2726 1.415 . S
C2728 C2733 1.425 . S
C2728 C2735 1.409 . S
C2729 H2721 0.930 . S
C2729 C2727 1.419 . S
C2729 C2730 1.362 . S
C2730 H2722 0.930 . S
C2730 C2729 1.362 . S
C2730 C2733 1.409 . S
C2731 H2723 0.930 . S
C2731 C2732 1.355 . S
C2731 C2733 1.415 . S
C2732 C2731 1.355 . S
C2732 C2734 1.419 . S
C2733 C2728 1.425 . S
C2733 C2730 1.409 . S
C2733 C2731 1.415 . S
C2734 H2724 0.930 . S
C2734 C2732 1.419 . S
C2734 C2735 1.362 . S
C2735 H2725 0.930 . S
C2735 C2728 1.409 . S
C2735 C2734 1.362 . S
H2736 C2742 0.930 . S
H2737 C2745 0.930 . S
H2738 C2746 0.930 . S
H2739 C2747 0.930 . S
H2740 C2750 0.930 . S
H2741 C2751 0.930 . S
C2742 H2736 0.930 . S
C2742 C2743 1.355 . S
C2742 C2744 1.415 . S
C2743 C2742 1.355 . S
C2743 C2745 1.419 . S
C2744 C2742 1.415 . S
C2744 C2749 1.425 . S
C2744 C2751 1.409 . S
C2745 H2737 0.930 . S
C2745 C2743 1.419 . S
C2745 C2746 1.362 . S
C2746 H2738 0.930 . S
C2746 C2745 1.362 . S
C2746 C2749 1.409 . S
C2747 H2739 0.930 . S
C2747 C2748 1.355 . S
C2747 C2749 1.415 . S
C2748 C2747 1.355 . S
C2748 C2750 1.419 . S
C2749 C2744 1.425 . S
C2749 C2746 1.409 . S
C2749 C2747 1.415 . S
C2750 H2740 0.930 . S
C2750 C2748 1.419 . S
C2750 C2751 1.362 . S
C2751 H2741 0.930 . S
C2751 C2744 1.409 . S
C2751 C2750 1.362 . S
H2752 C2758 0.930 . S
H2753 C2761 0.930 . S
H2754 C2762 0.930 . S
H2755 C2763 0.930 . S
H2756 C2766 0.930 . S
H2757 C2767 0.930 . S
C2758 H2752 0.930 . S
C2758 C2759 1.355 . S
C2758 C2760 1.415 . S
C2759 C2758 1.355 . S
C2759 C2761 1.419 . S
C2760 C2758 1.415 . S
C2760 C2765 1.425 . S
C2760 C2767 1.409 . S
C2761 H2753 0.930 . S
C2761 C2759 1.419 . S
C2761 C2762 1.362 . S
C2762 H2754 0.930 . S
C2762 C2761 1.362 . S
C2762 C2765 1.409 . S
C2763 H2755 0.930 . S
C2763 C2764 1.355 . S
C2763 C2765 1.415 . S
C2764 C2763 1.355 . S
C2764 C2766 1.419 . S
C2765 C2760 1.425 . S
C2765 C2762 1.409 . S
C2765 C2763 1.415 . S
C2766 H2756 0.930 . S
C2766 C2764 1.419 . S
C2766 C2767 1.362 . S
C2767 H2757 0.930 . S
C2767 C2760 1.409 . S
C2767 C2766 1.362 . S
H2768 C2774 0.930 . S
H2769 C2777 0.930 . S
H2770 C2778 0.930 . S
H2771 C2779 0.930 . S
H2772 C2782 0.930 . S
H2773 C2783 0.930 . S
C2774 H2768 0.930 . S
C2774 C2775 1.355 . S
C2774 C2776 1.415 . S
C2775 C2774 1.355 . S
C2775 C2777 1.419 . S
C2776 C2774 1.415 . S
C2776 C2781 1.425 . S
C2776 C2783 1.409 . S
C2777 H2769 0.930 . S
C2777 C2775 1.419 . S
C2777 C2778 1.362 . S
C2778 H2770 0.930 . S
C2778 C2777 1.362 . S
C2778 C2781 1.409 . S
C2779 H2771 0.930 . S
C2779 C2780 1.355 . S
C2779 C2781 1.415 . S
C2780 C2779 1.355 . S
C2780 C2782 1.419 . S
C2781 C2776 1.425 . S
C2781 C2778 1.409 . S
C2781 C2779 1.415 . S
C2782 H2772 0.930 . S
C2782 C2780 1.419 . S
C2782 C2783 1.362 . S
C2783 H2773 0.930 . S
C2783 C2776 1.409 . S
C2783 C2782 1.362 . S
H2784 C2790 0.930 . S
H2785 C2793 0.930 . S
H2786 C2794 0.930 . S
H2787 C2795 0.930 . S
H2788 C2798 0.930 . S
H2789 C2799 0.930 . S
C2790 H2784 0.930 . S
C2790 C2791 1.355 . S
C2790 C2792 1.415 . S
C2791 C2790 1.355 . S
C2791 C2793 1.419 . S
C2792 C2790 1.415 . S
C2792 C2797 1.425 . S
C2792 C2799 1.409 . S
C2793 H2785 0.930 . S
C2793 C2791 1.419 . S
C2793 C2794 1.362 . S
C2794 H2786 0.930 . S
C2794 C2793 1.362 . S
C2794 C2797 1.409 . S
C2795 H2787 0.930 . S
C2795 C2796 1.355 . S
C2795 C2797 1.415 . S
C2796 C2795 1.355 . S
C2796 C2798 1.419 . S
C2797 C2792 1.425 . S
C2797 C2794 1.409 . S
C2797 C2795 1.415 . S
C2798 H2788 0.930 . S
C2798 C2796 1.419 . S
C2798 C2799 1.362 . S
C2799 H2789 0.930 . S
C2799 C2792 1.409 . S
C2799 C2798 1.362 . S
H2800 C2806 0.930 . S
H2801 C2809 0.930 . S
H2802 C2810 0.930 . S
H2803 C2811 0.930 . S
H2804 C2814 0.930 . S
H2805 C2815 0.930 . S
C2806 H2800 0.930 . S
C2806 C2807 1.355 . S
C2806 C2808 1.415 . S
C2807 C2806 1.355 . S
C2807 C2809 1.419 . S
C2808 C2806 1.415 . S
C2808 C2813 1.425 . S
C2808 C2815 1.409 . S
C2809 H2801 0.930 . S
C2809 C2807 1.419 . S
C2809 C2810 1.362 . S
C2810 H2802 0.930 . S
C2810 C2809 1.362 . S
C2810 C2813 1.409 . S
C2811 H2803 0.930 . S
C2811 C2812 1.355 . S
C2811 C2813 1.415 . S
C2812 C2811 1.355 . S
C2812 C2814 1.419 . S
C2813 C2808 1.425 . S
C2813 C2810 1.409 . S
C2813 C2811 1.415 . S
C2814 H2804 0.930 . S
C2814 C2812 1.419 . S
C2814 C2815 1.362 . S
C2815 H2805 0.930 . S
C2815 C2808 1.409 . S
C2815 C2814 1.362 . S
H2816 C2822 0.930 . S
H2817 C2825 0.930 . S
H2818 C2826 0.930 . S
H2819 C2827 0.930 . S
H2820 C2830 0.930 . S
H2821 C2831 0.930 . S
C2822 H2816 0.930 . S
C2822 C2823 1.355 . S
C2822 C2824 1.415 . S
C2823 C2822 1.355 . S
C2823 C2825 1.419 . S
C2824 C2822 1.415 . S
C2824 C2829 1.425 . S
C2824 C2831 1.409 . S
C2825 H2817 0.930 . S
C2825 C2823 1.419 . S
C2825 C2826 1.362 . S
C2826 H2818 0.930 . S
C2826 C2825 1.362 . S
C2826 C2829 1.409 . S
C2827 H2819 0.930 . S
C2827 C2828 1.355 . S
C2827 C2829 1.415 . S
C2828 C2827 1.355 . S
C2828 C2830 1.419 . S
C2829 C2824 1.425 . S
C2829 C2826 1.409 . S
C2829 C2827 1.415 . S
C2830 H2820 0.930 . S
C2830 C2828 1.419 . S
C2830 C2831 1.362 . S
C2831 H2821 0.930 . S
C2831 C2824 1.409 . S
C2831 C2830 1.362 . S
H2832 C2838 0.930 . S
H2833 C2841 0.930 . S
H2834 C2842 0.930 . S
H2835 C2843 0.930 . S
H2836 C2846 0.930 . S
H2837 C2847 0.930 . S
C2838 H2832 0.930 . S
C2838 C2839 1.355 . S
C2838 C2840 1.415 . S
C2839 C2838 1.355 . S
C2839 C2841 1.419 . S
C2840 C2838 1.415 . S
C2840 C2845 1.425 . S
C2840 C2847 1.409 . S
C2841 H2833 0.930 . S
C2841 C2839 1.419 . S
C2841 C2842 1.362 . S
C2842 H2834 0.930 . S
C2842 C2841 1.362 . S
C2842 C2845 1.409 . S
C2843 H2835 0.930 . S
C2843 C2844 1.355 . S
C2843 C2845 1.415 . S
C2844 C2843 1.355 . S
C2844 C2846 1.419 . S
C2845 C2840 1.425 . S
C2845 C2842 1.409 . S
C2845 C2843 1.415 . S
C2846 H2836 0.930 . S
C2846 C2844 1.419 . S
C2846 C2847 1.362 . S
C2847 H2837 0.930 . S
C2847 C2840 1.409 . S
C2847 C2846 1.362 . S
H2848 C2854 0.930 . S
H2849 C2857 0.930 . S
H2850 C2858 0.930 . S
H2851 C2859 0.930 . S
H2852 C2862 0.930 . S
H2853 C2863 0.930 . S
C2854 H2848 0.930 . S
C2854 C2855 1.355 . S
C2854 C2856 1.415 . S
C2855 C2854 1.355 . S
C2855 C2857 1.419 . S
C2856 C2854 1.415 . S
C2856 C2861 1.425 . S
C2856 C2863 1.409 . S
C2857 H2849 0.930 . S
C2857 C2855 1.419 . S
C2857 C2858 1.362 . S
C2858 H2850 0.930 . S
C2858 C2857 1.362 . S
C2858 C2861 1.409 . S
C2859 H2851 0.930 . S
C2859 C2860 1.355 . S
C2859 C2861 1.415 . S
C2860 C2859 1.355 . S
C2860 C2862 1.419 . S
C2861 C2856 1.425 . S
C2861 C2858 1.409 . S
C2861 C2859 1.415 . S
C2862 H2852 0.930 . S
C2862 C2860 1.419 . S
C2862 C2863 1.362 . S
C2863 H2853 0.930 . S
C2863 C2856 1.409 . S
C2863 C2862 1.362 . S
H2864 C2870 0.930 . S
H2865 C2873 0.930 . S
H2866 C2874 0.930 . S
H2867 C2875 0.930 . S
H2868 C2878 0.930 . S
H2869 C2879 0.930 . S
C2870 H2864 0.930 . S
C2870 C2871 1.355 . S
C2870 C2872 1.415 . S
C2871 C2870 1.355 . S
C2871 C2873 1.419 . S
C2872 C2870 1.415 . S
C2872 C2877 1.425 . S
C2872 C2879 1.409 . S
C2873 H2865 0.930 . S
C2873 C2871 1.419 . S
C2873 C2874 1.362 . S
C2874 H2866 0.930 . S
C2874 C2873 1.362 . S
C2874 C2877 1.409 . S
C2875 H2867 0.930 . S
C2875 C2876 1.355 . S
C2875 C2877 1.415 . S
C2876 C2875 1.355 . S
C2876 C2878 1.419 . S
C2877 C2872 1.425 . S
C2877 C2874 1.409 . S
C2877 C2875 1.415 . S
C2878 H2868 0.930 . S
C2878 C2876 1.419 . S
C2878 C2879 1.362 . S
C2879 H2869 0.930 . S
C2879 C2872 1.409 . S
C2879 C2878 1.362 . S
H2880 C2886 0.930 . S
H2881 C2889 0.930 . S
H2882 C2890 0.930 . S
H2883 C2891 0.930 . S
H2884 C2894 0.930 . S
H2885 C2895 0.930 . S
C2886 H2880 0.930 . S
C2886 C2887 1.355 . S
C2886 C2888 1.415 . S
C2887 C2886 1.355 . S
C2887 C2889 1.419 . S
C2888 C2886 1.415 . S
C2888 C2893 1.425 . S
C2888 C2895 1.409 . S
C2889 H2881 0.930 . S
C2889 C2887 1.419 . S
C2889 C2890 1.362 . S
C2890 H2882 0.930 . S
C2890 C2889 1.362 . S
C2890 C2893 1.409 . S
C2891 H2883 0.930 . S
C2891 C2892 1.355 . S
C2891 C2893 1.415 . S
C2892 C2891 1.355 . S
C2892 C2894 1.419 . S
C2893 C2888 1.425 . S
C2893 C2890 1.409 . S
C2893 C2891 1.415 . S
C2894 H2884 0.930 . S
C2894 C2892 1.419 . S
C2894 C2895 1.362 . S
C2895 H2885 0.930 . S
C2895 C2888 1.409 . S
C2895 C2894 1.362 . S
H2896 C2902 0.930 . S
H2897 C2905 0.930 . S
H2898 C2906 0.930 . S
H2899 C2907 0.930 . S
H2900 C2910 0.930 . S
H2901 C2911 0.930 . S
C2902 H2896 0.930 . S
C2902 C2903 1.355 . S
C2902 C2904 1.415 . S
C2903 C2902 1.355 . S
C2903 C2905 1.419 . S
C2904 C2902 1.415 . S
C2904 C2909 1.425 . S
C2904 C2911 1.409 . S
C2905 H2897 0.930 . S
C2905 C2903 1.419 . S
C2905 C2906 1.362 . S
C2906 H2898 0.930 . S
C2906 C2905 1.362 . S
C2906 C2909 1.409 . S
C2907 H2899 0.930 . S
C2907 C2908 1.355 . S
C2907 C2909 1.415 . S
C2908 C2907 1.355 . S
C2908 C2910 1.419 . S
C2909 C2904 1.425 . S
C2909 C2906 1.409 . S
C2909 C2907 1.415 . S
C2910 H2900 0.930 . S
C2910 C2908 1.419 . S
C2910 C2911 1.362 . S
C2911 H2901 0.930 . S
C2911 C2904 1.409 . S
C2911 C2910 1.362 . S
H2912 C2918 0.930 . S
H2913 C2921 0.930 . S
H2914 C2922 0.930 . S
H2915 C2923 0.930 . S
H2916 C2926 0.930 . S
H2917 C2927 0.930 . S
C2918 H2912 0.930 . S
C2918 C2919 1.355 . S
C2918 C2920 1.415 . S
C2919 C2918 1.355 . S
C2919 C2921 1.419 . S
C2920 C2918 1.415 . S
C2920 C2925 1.425 . S
C2920 C2927 1.409 . S
C2921 H2913 0.930 . S
C2921 C2919 1.419 . S
C2921 C2922 1.362 . S
C2922 H2914 0.930 . S
C2922 C2921 1.362 . S
C2922 C2925 1.409 . S
C2923 H2915 0.930 . S
C2923 C2924 1.355 . S
C2923 C2925 1.415 . S
C2924 C2923 1.355 . S
C2924 C2926 1.419 . S
C2925 C2920 1.425 . S
C2925 C2922 1.409 . S
C2925 C2923 1.415 . S
C2926 H2916 0.930 . S
C2926 C2924 1.419 . S
C2926 C2927 1.362 . S
C2927 H2917 0.930 . S
C2927 C2920 1.409 . S
C2927 C2926 1.362 . S
H2928 C2934 0.930 . S
H2929 C2937 0.930 . S
H2930 C2938 0.930 . S
H2931 C2939 0.930 . S
H2932 C2942 0.930 . S
H2933 C2943 0.930 . S
C2934 H2928 0.930 . S
C2934 C2935 1.355 . S
C2934 C2936 1.415 . S
C2935 C2934 1.355 . S
C2935 C2937 1.419 . S
C2936 C2934 1.415 . S
C2936 C2941 1.425 . S
C2936 C2943 1.409 . S
C2937 H2929 0.930 . S
C2937 C2935 1.419 . S
C2937 C2938 1.362 . S
C2938 H2930 0.930 . S
C2938 C2937 1.362 . S
C2938 C2941 1.409 . S
C2939 H2931 0.930 . S
C2939 C2940 1.355 . S
C2939 C2941 1.415 . S
C2940 C2939 1.355 . S
C2940 C2942 1.419 . S
C2941 C2936 1.425 . S
C2941 C2938 1.409 . S
C2941 C2939 1.415 . S
C2942 H2932 0.930 . S
C2942 C2940 1.419 . S
C2942 C2943 1.362 . S
C2943 H2933 0.930 . S
C2943 C2936 1.409 . S
C2943 C2942 1.362 . S
H2944 C2950 0.930 . S
H2945 C2953 0.930 . S
H2946 C2954 0.930 . S
H2947 C2955 0.930 . S
H2948 C2958 0.930 . S
H2949 C2959 0.930 . S
C2950 H2944 0.930 . S
C2950 C2951 1.355 . S
C2950 C2952 1.415 . S
C2951 C2950 1.355 . S
C2951 C2953 1.419 . S
C2952 C2950 1.415 . S
C2952 C2957 1.425 . S
C2952 C2959 1.409 . S
C2953 H2945 0.930 . S
C2953 C2951 1.419 . S
C2953 C2954 1.362 . S
C2954 H2946 0.930 . S
C2954 C2953 1.362 . S
C2954 C2957 1.409 . S
C2955 H2947 0.930 . S
C2955 C2956 1.355 . S
C2955 C2957 1.415 . S
C2956 C2955 1.355 . S
C2956 C2958 1.419 . S
C2957 C2952 1.425 . S
C2957 C2954 1.409 . S
C2957 C2955 1.415 . S
C2958 H2948 0.930 . S
C2958 C2956 1.419 . S
C2958 C2959 1.362 . S
C2959 H2949 0.930 . S
C2959 C2952 1.409 . S
C2959 C2958 1.362 . S
H2960 C2966 0.930 . S
H2961 C2969 0.930 . S
H2962 C2970 0.930 . S
H2963 C2971 0.930 . S
H2964 C2974 0.930 . S
H2965 C2975 0.930 . S
C2966 H2960 0.930 . S
C2966 C2967 1.355 . S
C2966 C2968 1.415 . S
C2967 C2966 1.355 . S
C2967 C2969 1.419 . S
C2968 C2966 1.415 . S
C2968 C2973 1.425 . S
C2968 C2975 1.409 . S
C2969 H2961 0.930 . S
C2969 C2967 1.419 . S
C2969 C2970 1.362 . S
C2970 H2962 0.930 . S
C2970 C2969 1.362 . S
C2970 C2973 1.409 . S
C2971 H2963 0.930 . S
C2971 C2972 1.355 . S
C2971 C2973 1.415 . S
C2972 C2971 1.355 . S
C2972 C2974 1.419 . S
C2973 C2968 1.425 . S
C2973 C2970 1.409 . S
C2973 C2971 1.415 . S
C2974 H2964 0.930 . S
C2974 C2972 1.419 . S
C2974 C2975 1.362 . S
C2975 H2965 0.930 . S
C2975 C2968 1.409 . S
C2975 C2974 1.362 . S
H2976 C2982 0.930 . S
H2977 C2985 0.930 . S
H2978 C2986 0.930 . S
H2979 C2987 0.930 . S
H2980 C2990 0.930 . S
H2981 C2991 0.930 . S
C2982 H2976 0.930 . S
C2982 C2983 1.355 . S
C2982 C2984 1.415 . S
C2983 C2982 1.355 . S
C2983 C2985 1.419 . S
C2984 C2982 1.415 . S
C2984 C2989 1.425 . S
C2984 C2991 1.409 . S
C2985 H2977 0.930 . S
C2985 C2983 1.419 . S
C2985 C2986 1.362 . S
C2986 H2978 0.930 . S
C2986 C2985 1.362 . S
C2986 C2989 1.409 . S
C2987 H2979 0.930 . S
C2987 C2988 1.355 . S
C2987 C2989 1.415 . S
C2988 C2987 1.355 . S
C2988 C2990 1.419 . S
C2989 C2984 1.425 . S
C2989 C2986 1.409 . S
C2989 C2987 1.415 . S
C2990 H2980 0.930 . S
C2990 C2988 1.419 . S
C2990 C2991 1.362 . S
C2991 H2981 0.930 . S
C2991 C2984 1.409 . S
C2991 C2990 1.362 . S
H2992 C2998 0.930 . S
H2993 C3001 0.930 . S
H2994 C3002 0.930 . S
H2995 C3003 0.930 . S
H2996 C3006 0.930 . S
H2997 C3007 0.930 . S
C2998 H2992 0.930 . S
C2998 C2999 1.355 . S
C2998 C3000 1.415 . S
C2999 C2998 1.355 . S
C2999 C3001 1.419 . S
C3000 C2998 1.415 . S
C3000 C3005 1.425 . S
C3000 C3007 1.409 . S
C3001 H2993 0.930 . S
C3001 C2999 1.419 . S
C3001 C3002 1.362 . S
C3002 H2994 0.930 . S
C3002 C3001 1.362 . S
C3002 C3005 1.409 . S
C3003 H2995 0.930 . S
C3003 C3004 1.355 . S
C3003 C3005 1.415 . S
C3004 C3003 1.355 . S
C3004 C3006 1.419 . S
C3005 C3000 1.425 . S
C3005 C3002 1.409 . S
C3005 C3003 1.415 . S
C3006 H2996 0.930 . S
C3006 C3004 1.419 . S
C3006 C3007 1.362 . S
C3007 H2997 0.930 . S
C3007 C3000 1.409 . S
C3007 C3006 1.362 . S
H3008 C3014 0.930 . S
H3009 C3017 0.930 . S
H3010 C3018 0.930 . S
H3011 C3019 0.930 . S
H3012 C3022 0.930 . S
H3013 C3023 0.930 . S
C3014 H3008 0.930 . S
C3014 C3015 1.355 . S
C3014 C3016 1.415 . S
C3015 C3014 1.355 . S
C3015 C3017 1.419 . S
C3016 C3014 1.415 . S
C3016 C3021 1.425 . S
C3016 C3023 1.409 . S
C3017 H3009 0.930 . S
C3017 C3015 1.419 . S
C3017 C3018 1.362 . S
C3018 H3010 0.930 . S
C3018 C3017 1.362 . S
C3018 C3021 1.409 . S
C3019 H3011 0.930 . S
C3019 C3020 1.355 . S
C3019 C3021 1.415 . S
C3020 C3019 1.355 . S
C3020 C3022 1.419 . S
C3021 C3016 1.425 . S
C3021 C3018 1.409 . S
C3021 C3019 1.415 . S
C3022 H3012 0.930 . S
C3022 C3020 1.419 . S
C3022 C3023 1.362 . S
C3023 H3013 0.930 . S
C3023 C3016 1.409 . S
C3023 C3022 1.362 . S
H3024 C3030 0.930 . S
H3025 C3033 0.930 . S
H3026 C3034 0.930 . S
H3027 C3035 0.930 . S
H3028 C3038 0.930 . S
H3029 C3039 0.930 . S
C3030 H3024 0.930 . S
C3030 C3031 1.355 . S
C3030 C3032 1.415 . S
C3031 C3030 1.355 . S
C3031 C3033 1.419 . S
C3032 C3030 1.415 . S
C3032 C3037 1.425 . S
C3032 C3039 1.409 . S
C3033 H3025 0.930 . S
C3033 C3031 1.419 . S
C3033 C3034 1.362 . S
C3034 H3026 0.930 . S
C3034 C3033 1.362 . S
C3034 C3037 1.409 . S
C3035 H3027 0.930 . S
C3035 C3036 1.355 . S
C3035 C3037 1.415 . S
C3036 C3035 1.355 . S
C3036 C3038 1.419 . S
C3037 C3032 1.425 . S
C3037 C3034 1.409 . S
C3037 C3035 1.415 . S
C3038 H3028 0.930 . S
C3038 C3036 1.419 . S
C3038 C3039 1.362 . S
C3039 H3029 0.930 . S
C3039 C3032 1.409 . S
C3039 C3038 1.362 . S
H3040 C3046 0.930 . S
H3041 C3049 0.930 . S
H3042 C3050 0.930 . S
H3043 C3051 0.930 . S
H3044 C3054 0.930 . S
H3045 C3055 0.930 . S
C3046 H3040 0.930 . S
C3046 C3047 1.355 . S
C3046 C3048 1.415 . S
C3047 C3046 1.355 . S
C3047 C3049 1.419 . S
C3048 C3046 1.415 . S
C3048 C3053 1.425 . S
C3048 C3055 1.409 . S
C3049 H3041 0.930 . S
C3049 C3047 1.419 . S
C3049 C3050 1.362 . S
C3050 H3042 0.930 . S
C3050 C3049 1.362 . S
C3050 C3053 1.409 . S
C3051 H3043 0.930 . S
C3051 C3052 1.355 . S
C3051 C3053 1.415 . S
C3052 C3051 1.355 . S
C3052 C3054 1.419 . S
C3053 C3048 1.425 . S
C3053 C3050 1.409 . S
C3053 C3051 1.415 . S
C3054 H3044 0.930 . S
C3054 C3052 1.419 . S
C3054 C3055 1.362 . S
C3055 H3045 0.930 . S
C3055 C3048 1.409 . S
C3055 C3054 1.362 . S
H3056 C3062 0.930 . S
H3057 C3065 0.930 . S
H3058 C3066 0.930 . S
H3059 C3067 0.930 . S
H3060 C3070 0.930 . S
H3061 C3071 0.930 . S
C3062 H3056 0.930 . S
C3062 C3063 1.355 . S
C3062 C3064 1.415 . S
C3063 C3062 1.355 . S
C3063 C3065 1.419 . S
C3064 C3062 1.415 . S
C3064 C3069 1.425 . S
C3064 C3071 1.409 . S
C3065 H3057 0.930 . S
C3065 C3063 1.419 . S
C3065 C3066 1.362 . S
C3066 H3058 0.930 . S
C3066 C3065 1.362 . S
C3066 C3069 1.409 . S
C3067 H3059 0.930 . S
C3067 C3068 1.355 . S
C3067 C3069 1.415 . S
C3068 C3067 1.355 . S
C3068 C3070 1.419 . S
C3069 C3064 1.425 . S
C3069 C3066 1.409 . S
C3069 C3067 1.415 . S
C3070 H3060 0.930 . S
C3070 C3068 1.419 . S
C3070 C3071 1.362 . S
C3071 H3061 0.930 . S
C3071 C3064 1.409 . S
C3071 C3070 1.362 . S
H3072 C3078 0.930 . S
H3073 C3081 0.930 . S
H3074 C3082 0.930 . S
H3075 C3083 0.930 . S
H3076 C3086 0.930 . S
H3077 C3087 0.930 . S
C3078 H3072 0.930 . S
C3078 C3079 1.355 . S
C3078 C3080 1.415 . S
C3079 C3078 1.355 . S
C3079 C3081 1.419 . S
C3080 C3078 1.415 . S
C3080 C3085 1.425 . S
C3080 C3087 1.409 . S
C3081 H3073 0.930 . S
C3081 C3079 1.419 . S
C3081 C3082 1.362 . S
C3082 H3074 0.930 . S
C3082 C3081 1.362 . S
C3082 C3085 1.409 . S
C3083 H3075 0.930 . S
C3083 C3084 1.355 . S
C3083 C3085 1.415 . S
C3084 C3083 1.355 . S
C3084 C3086 1.419 . S
C3085 C3080 1.425 . S
C3085 C3082 1.409 . S
C3085 C3083 1.415 . S
C3086 H3076 0.930 . S
C3086 C3084 1.419 . S
C3086 C3087 1.362 . S
C3087 H3077 0.930 . S
C3087 C3080 1.409 . S
C3087 C3086 1.362 . S
H3088 C3094 0.930 . S
H3089 C3097 0.930 . S
H3090 C3098 0.930 . S
H3091 C3099 0.930 . S
H3092 C3102 0.930 . S
H3093 C3103 0.930 . S
C3094 H3088 0.930 . S
C3094 C3095 1.355 . S
C3094 C3096 1.415 . S
C3095 C3094 1.355 . S
C3095 C3097 1.419 . S
C3096 C3094 1.415 . S
C3096 C3101 1.425 . S
C3096 C3103 1.409 . S
C3097 H3089 0.930 . S
C3097 C3095 1.419 . S
C3097 C3098 1.362 . S
C3098 H3090 0.930 . S
C3098 C3097 1.362 . S
C3098 C3101 1.409 . S
C3099 H3091 0.930 . S
C3099 C3100 1.355 . S
C3099 C3101 1.415 . S
C3100 C3099 1.355 . S
C3100 C3102 1.419 . S
C3101 C3096 1.425 . S
C3101 C3098 1.409 . S
C3101 C3099 1.415 . S
C3102 H3092 0.930 . S
C3102 C3100 1.419 . S
C3102 C3103 1.362 . S
C3103 H3093 0.930 . S
C3103 C3096 1.409 . S
C3103 C3102 1.362 . S
H3104 C3110 0.930 . S
H3105 C3113 0.930 . S
H3106 C3114 0.930 . S
H3107 C3115 0.930 . S
H3108 C3118 0.930 . S
H3109 C3119 0.930 . S
C3110 H3104 0.930 . S
C3110 C3111 1.355 . S
C3110 C3112 1.415 . S
C3111 C3110 1.355 . S
C3111 C3113 1.419 . S
C3112 C3110 1.415 . S
C3112 C3117 1.425 . S
C3112 C3119 1.409 . S
C3113 H3105 0.930 . S
C3113 C3111 1.419 . S
C3113 C3114 1.362 . S
C3114 H3106 0.930 . S
C3114 C3113 1.362 . S
C3114 C3117 1.409 . S
C3115 H3107 0.930 . S
C3115 C3116 1.355 . S
C3115 C3117 1.415 . S
C3116 C3115 1.355 . S
C3116 C3118 1.419 . S
C3117 C3112 1.425 . S
C3117 C3114 1.409 . S
C3117 C3115 1.415 . S
C3118 H3108 0.930 . S
C3118 C3116 1.419 . S
C3118 C3119 1.362 . S
C3119 H3109 0.930 . S
C3119 C3112 1.409 . S
C3119 C3118 1.362 . S
H3120 C3126 0.930 . S
H3121 C3129 0.930 . S
H3122 C3130 0.930 . S
H3123 C3131 0.930 . S
H3124 C3134 0.930 . S
H3125 C3135 0.930 . S
C3126 H3120 0.930 . S
C3126 C3127 1.355 . S
C3126 C3128 1.415 . S
C3127 C3126 1.355 . S
C3127 C3129 1.419 . S
C3128 C3126 1.415 . S
C3128 C3133 1.425 . S
C3128 C3135 1.409 . S
C3129 H3121 0.930 . S
C3129 C3127 1.419 . S
C3129 C3130 1.362 . S
C3130 H3122 0.930 . S
C3130 C3129 1.362 . S
C3130 C3133 1.409 . S
C3131 H3123 0.930 . S
C3131 C3132 1.355 . S
C3131 C3133 1.415 . S
C3132 C3131 1.355 . S
C3132 C3134 1.419 . S
C3133 C3128 1.425 . S
C3133 C3130 1.409 . S
C3133 C3131 1.415 . S
C3134 H3124 0.930 . S
C3134 C3132 1.419 . S
C3134 C3135 1.362 . S
C3135 H3125 0.930 . S
C3135 C3128 1.409 . S
C3135 C3134 1.362 . S
H3136 C3142 0.930 . S
H3137 C3145 0.930 . S
H3138 C3146 0.930 . S
H3139 C3147 0.930 . S
H3140 C3150 0.930 . S
H3141 C3151 0.930 . S
C3142 H3136 0.930 . S
C3142 C3143 1.355 . S
C3142 C3144 1.415 . S
C3143 C3142 1.355 . S
C3143 C3145 1.419 . S
C3144 C3142 1.415 . S
C3144 C3149 1.425 . S
C3144 C3151 1.409 . S
C3145 H3137 0.930 . S
C3145 C3143 1.419 . S
C3145 C3146 1.362 . S
C3146 H3138 0.930 . S
C3146 C3145 1.362 . S
C3146 C3149 1.409 . S
C3147 H3139 0.930 . S
C3147 C3148 1.355 . S
C3147 C3149 1.415 . S
C3148 C3147 1.355 . S
C3148 C3150 1.419 . S
C3149 C3144 1.425 . S
C3149 C3146 1.409 . S
C3149 C3147 1.415 . S
C3150 H3140 0.930 . S
C3150 C3148 1.419 . S
C3150 C3151 1.362 . S
C3151 H3141 0.930 . S
C3151 C3144 1.409 . S
C3151 C3150 1.362 . S
H3152 C3158 0.930 . S
H3153 C3161 0.930 . S
H3154 C3162 0.930 . S
H3155 C3163 0.930 . S
H3156 C3166 0.930 . S
H3157 C3167 0.930 . S
C3158 H3152 0.930 . S
C3158 C3159 1.355 . S
C3158 C3160 1.415 . S
C3159 C3158 1.355 . S
C3159 C3161 1.419 . S
C3160 C3158 1.415 . S
C3160 C3165 1.425 . S
C3160 C3167 1.409 . S
C3161 H3153 0.930 . S
C3161 C3159 1.419 . S
C3161 C3162 1.362 . S
C3162 H3154 0.930 . S
C3162 C3161 1.362 . S
C3162 C3165 1.409 . S
C3163 H3155 0.930 . S
C3163 C3164 1.355 . S
C3163 C3165 1.415 . S
C3164 C3163 1.355 . S
C3164 C3166 1.419 . S
C3165 C3160 1.425 . S
C3165 C3162 1.409 . S
C3165 C3163 1.415 . S
C3166 H3156 0.930 . S
C3166 C3164 1.419 . S
C3166 C3167 1.362 . S
C3167 H3157 0.930 . S
C3167 C3160 1.409 . S
C3167 C3166 1.362 . S
H3168 C3174 0.930 . S
H3169 C3177 0.930 . S
H3170 C3178 0.930 . S
H3171 C3179 0.930 . S
H3172 C3182 0.930 . S
H3173 C3183 0.930 . S
C3174 H3168 0.930 . S
C3174 C3175 1.355 . S
C3174 C3176 1.415 . S
C3175 C3174 1.355 . S
C3175 C3177 1.419 . S
C3176 C3174 1.415 . S
C3176 C3181 1.425 . S
C3176 C3183 1.409 . S
C3177 H3169 0.930 . S
C3177 C3175 1.419 . S
C3177 C3178 1.362 . S
C3178 H3170 0.930 . S
C3178 C3177 1.362 . S
C3178 C3181 1.409 . S
C3179 H3171 0.930 . S
C3179 C3180 1.355 . S
C3179 C3181 1.415 . S
C3180 C3179 1.355 . S
C3180 C3182 1.419 . S
C3181 C3176 1.425 . S
C3181 C3178 1.409 . S
C3181 C3179 1.415 . S
C3182 H3172 0.930 . S
C3182 C3180 1.419 . S
C3182 C3183 1.362 . S
C3183 H3173 0.930 . S
C3183 C3176 1.409 . S
C3183 C3182 1.362 . S
H3184 C3190 0.930 . S
H3185 C3193 0.930 . S
H3186 C3194 0.930 . S
H3187 C3195 0.930 . S
H3188 C3198 0.930 . S
H3189 C3199 0.930 . S
C3190 H3184 0.930 . S
C3190 C3191 1.355 . S
C3190 C3192 1.415 . S
C3191 C3190 1.355 . S
C3191 C3193 1.419 . S
C3192 C3190 1.415 . S
C3192 C3197 1.425 . S
C3192 C3199 1.409 . S
C3193 H3185 0.930 . S
C3193 C3191 1.419 . S
C3193 C3194 1.362 . S
C3194 H3186 0.930 . S
C3194 C3193 1.362 . S
C3194 C3197 1.409 . S
C3195 H3187 0.930 . S
C3195 C3196 1.355 . S
C3195 C3197 1.415 . S
C3196 C3195 1.355 . S
C3196 C3198 1.419 . S
C3197 C3192 1.425 . S
C3197 C3194 1.409 . S
C3197 C3195 1.415 . S
C3198 H3188 0.930 . S
C3198 C3196 1.419 . S
C3198 C3199 1.362 . S
C3199 H3189 0.930 . S
C3199 C3192 1.409 . S
C3199 C3198 1.362 . S
H3200 C3206 0.930 . S
H3201 C3209 0.930 . S
H3202 C3210 0.930 . S
H3203 C3211 0.930 . S
H3204 C3214 0.930 . S
H3205 C3215 0.930 . S
C3206 H3200 0.930 . S
C3206 C3207 1.355 . S
C3206 C3208 1.415 . S
C3207 C3206 1.355 . S
C3207 C3209 1.419 . S
C3208 C3206 1.415 . S
C3208 C3213 1.425 . S
C3208 C3215 1.409 . S
C3209 H3201 0.930 . S
C3209 C3207 1.419 . S
C3209 C3210 1.362 . S
C3210 H3202 0.930 . S
C3210 C3209 1.362 . S
C3210 C3213 1.409 . S
C3211 H3203 0.930 . S
C3211 C3212 1.355 . S
C3211 C3213 1.415 . S
C3212 C3211 1.355 . S
C3212 C3214 1.419 . S
C3213 C3208 1.425 . S
C3213 C3210 1.409 . S
C3213 C3211 1.415 . S
C3214 H3204 0.930 . S
C3214 C3212 1.419 . S
C3214 C3215 1.362 . S
C3215 H3205 0.930 . S
C3215 C3208 1.409 . S
C3215 C3214 1.362 . S
H3216 C3222 0.930 . S
H3217 C3225 0.930 . S
H3218 C3226 0.930 . S
H3219 C3227 0.930 . S
H3220 C3230 0.930 . S
H3221 C3231 0.930 . S
C3222 H3216 0.930 . S
C3222 C3223 1.355 . S
C3222 C3224 1.415 . S
C3223 C3222 1.355 . S
C3223 C3225 1.419 . S
C3224 C3222 1.415 . S
C3224 C3229 1.425 . S
C3224 C3231 1.409 . S
C3225 H3217 0.930 . S
C3225 C3223 1.419 . S
C3225 C3226 1.362 . S
C3226 H3218 0.930 . S
C3226 C3225 1.362 . S
C3226 C3229 1.409 . S
C3227 H3219 0.930 . S
C3227 C3228 1.355 . S
C3227 C3229 1.415 . S
C3228 C3227 1.355 . S
C3228 C3230 1.419 . S
C3229 C3224 1.425 . S
C3229 C3226 1.409 . S
C3229 C3227 1.415 . S
C3230 H3220 0.930 . S
C3230 C3228 1.419 . S
C3230 C3231 1.362 . S
C3231 H3221 0.930 . S
C3231 C3224 1.409 . S
C3231 C3230 1.362 . S
H3232 C3238 0.930 . S
H3233 C3241 0.930 . S
H3234 C3242 0.930 . S
H3235 C3243 0.930 . S
H3236 C3246 0.930 . S
H3237 C3247 0.930 . S
C3238 H3232 0.930 . S
C3238 C3239 1.355 . S
C3238 C3240 1.415 . S
C3239 C3238 1.355 . S
C3239 C3241 1.419 . S
C3240 C3238 1.415 . S
C3240 C3245 1.425 . S
C3240 C3247 1.409 . S
C3241 H3233 0.930 . S
C3241 C3239 1.419 . S
C3241 C3242 1.362 . S
C3242 H3234 0.930 . S
C3242 C3241 1.362 . S
C3242 C3245 1.409 . S
C3243 H3235 0.930 . S
C3243 C3244 1.355 . S
C3243 C3245 1.415 . S
C3244 C3243 1.355 . S
C3244 C3246 1.419 . S
C3245 C3240 1.425 . S
C3245 C3242 1.409 . S
C3245 C3243 1.415 . S
C3246 H3236 0.930 . S
C3246 C3244 1.419 . S
C3246 C3247 1.362 . S
C3247 H3237 0.930 . S
C3247 C3240 1.409 . S
C3247 C3246 1.362 . S
H3248 C3254 0.930 . S
H3249 C3257 0.930 . S
H3250 C3258 0.930 . S
H3251 C3259 0.930 . S
H3252 C3262 0.930 . S
H3253 C3263 0.930 . S
C3254 H3248 0.930 . S
C3254 C3255 1.355 . S
C3254 C3256 1.415 . S
C3255 C3254 1.355 . S
C3255 C3257 1.419 . S
C3256 C3254 1.415 . S
C3256 C3261 1.425 . S
C3256 C3263 1.409 . S
C3257 H3249 0.930 . S
C3257 C3255 1.419 . S
C3257 C3258 1.362 . S
C3258 H3250 0.930 . S
C3258 C3257 1.362 . S
C3258 C3261 1.409 . S
C3259 H3251 0.930 . S
C3259 C3260 1.355 . S
C3259 C3261 1.415 . S
C3260 C3259 1.355 . S
C3260 C3262 1.419 . S
C3261 C3256 1.425 . S
C3261 C3258 1.409 . S
C3261 C3259 1.415 . S
C3262 H3252 0.930 . S
C3262 C3260 1.419 . S
C3262 C3263 1.362 . S
C3263 H3253 0.930 . S
C3263 C3256 1.409 . S
C3263 C3262 1.362 . S
H3264 C3270 0.930 . S
H3265 C3273 0.930 . S
H3266 C3274 0.930 . S
H3267 C3275 0.930 . S
H3268 C3278 0.930 . S
H3269 C3279 0.930 . S
C3270 H3264 0.930 . S
C3270 C3271 1.355 . S
C3270 C3272 1.415 . S
C3271 C3270 1.355 . S
C3271 C3273 1.419 . S
C3272 C3270 1.415 . S
C3272 C3277 1.425 . S
C3272 C3279 1.409 . S
C3273 H3265 0.930 . S
C3273 C3271 1.419 . S
C3273 C3274 1.362 . S
C3274 H3266 0.930 . S
C3274 C3273 1.362 . S
C3274 C3277 1.409 . S
C3275 H3267 0.930 . S
C3275 C3276 1.355 . S
C3275 C3277 1.415 . S
C3276 C3275 1.355 . S
C3276 C3278 1.419 . S
C3277 C3272 1.425 . S
C3277 C3274 1.409 . S
C3277 C3275 1.415 . S
C3278 H3268 0.930 . S
C3278 C3276 1.419 . S
C3278 C3279 1.362 . S
C3279 H3269 0.930 . S
C3279 C3272 1.409 . S
C3279 C3278 1.362 . S
H3280 C3286 0.930 . S
H3281 C3289 0.930 . S
H3282 C3290 0.930 . S
H3283 C3291 0.930 . S
H3284 C3294 0.930 . S
H3285 C3295 0.930 . S
C3286 H3280 0.930 . S
C3286 C3287 1.355 . S
C3286 C3288 1.415 . S
C3287 C3286 1.355 . S
C3287 C3289 1.419 . S
C3288 C3286 1.415 . S
C3288 C3293 1.425 . S
C3288 C3295 1.409 . S
C3289 H3281 0.930 . S
C3289 C3287 1.419 . S
C3289 C3290 1.362 . S
C3290 H3282 0.930 . S
C3290 C3289 1.362 . S
C3290 C3293 1.409 . S
C3291 H3283 0.930 . S
C3291 C3292 1.355 . S
C3291 C3293 1.415 . S
C3292 C3291 1.355 . S
C3292 C3294 1.419 . S
C3293 C3288 1.425 . S
C3293 C3290 1.409 . S
C3293 C3291 1.415 . S
C3294 H3284 0.930 . S
C3294 C3292 1.419 . S
C3294 C3295 1.362 . S
C3295 H3285 0.930 . S
C3295 C3288 1.409 . S
C3295 C3294 1.362 . S
H3296 C3302 0.930 . S
H3297 C3305 0.930 . S
H3298 C3306 0.930 . S
H3299 C3307 0.930 . S
H3300 C3310 0.930 . S
H3301 C3311 0.930 . S
C3302 H3296 0.930 . S
C3302 C3303 1.355 . S
C3302 C3304 1.415 . S
C3303 C3302 1.355 . S
C3303 C3305 1.419 . S
C3304 C3302 1.415 . S
C3304 C3309 1.425 . S
C3304 C3311 1.409 . S
C3305 H3297 0.930 . S
C3305 C3303 1.419 . S
C3305 C3306 1.362 . S
C3306 H3298 0.930 . S
C3306 C3305 1.362 . S
C3306 C3309 1.409 . S
C3307 H3299 0.930 . S
C3307 C3308 1.355 . S
C3307 C3309 1.415 . S
C3308 C3307 1.355 . S
C3308 C3310 1.419 . S
C3309 C3304 1.425 . S
C3309 C3306 1.409 . S
C3309 C3307 1.415 . S
C3310 H3300 0.930 . S
C3310 C3308 1.419 . S
C3310 C3311 1.362 . S
C3311 H3301 0.930 . S
C3311 C3304 1.409 . S
C3311 C3310 1.362 . S
H3312 C3318 0.930 . S
H3313 C3321 0.930 . S
H3314 C3322 0.930 . S
H3315 C3323 0.930 . S
H3316 C3326 0.930 . S
H3317 C3327 0.930 . S
C3318 H3312 0.930 . S
C3318 C3319 1.355 . S
C3318 C3320 1.415 . S
C3319 C3318 1.355 . S
C3319 C3321 1.419 . S
C3320 C3318 1.415 . S
C3320 C3325 1.425 . S
C3320 C3327 1.409 . S
C3321 H3313 0.930 . S
C3321 C3319 1.419 . S
C3321 C3322 1.362 . S
C3322 H3314 0.930 . S
C3322 C3321 1.362 . S
C3322 C3325 1.409 . S
C3323 H3315 0.930 . S
C3323 C3324 1.355 . S
C3323 C3325 1.415 . S
C3324 C3323 1.355 . S
C3324 C3326 1.419 . S
C3325 C3320 1.425 . S
C3325 C3322 1.409 . S
C3325 C3323 1.415 . S
C3326 H3316 0.930 . S
C3326 C3324 1.419 . S
C3326 C3327 1.362 . S
C3327 H3317 0.930 . S
C3327 C3320 1.409 . S
C3327 C3326 1.362 . S
H3328 C3334 0.930 . S
H3329 C3337 0.930 . S
H3330 C3338 0.930 . S
H3331 C3339 0.930 . S
H3332 C3342 0.930 . S
H3333 C3343 0.930 . S
C3334 H3328 0.930 . S
C3334 C3335 1.355 . S
C3334 C3336 1.415 . S
C3335 C3334 1.355 . S
C3335 C3337 1.419 . S
C3336 C3334 1.415 . S
C3336 C3341 1.425 . S
C3336 C3343 1.409 . S
C3337 H3329 0.930 . S
C3337 C3335 1.419 . S
C3337 C3338 1.362 . S
C3338 H3330 0.930 . S
C3338 C3337 1.362 . S
C3338 C3341 1.409 . S
C3339 H3331 0.930 . S
C3339 C3340 1.355 . S
C3339 C3341 1.415 . S
C3340 C3339 1.355 . S
C3340 C3342 1.419 . S
C3341 C3336 1.425 . S
C3341 C3338 1.409 . S
C3341 C3339 1.415 . S
C3342 H3332 0.930 . S
C3342 C3340 1.419 . S
C3342 C3343 1.362 . S
C3343 H3333 0.930 . S
C3343 C3336 1.409 . S
C3343 C3342 1.362 . S
H3344 C3350 0.930 . S
H3345 C3353 0.930 . S
H3346 C3354 0.930 . S
H3347 C3355 0.930 . S
H3348 C3358 0.930 . S
H3349 C3359 0.930 . S
C3350 H3344 0.930 . S
C3350 C3351 1.355 . S
C3350 C3352 1.415 . S
C3351 C3350 1.355 . S
C3351 C3353 1.419 . S
C3352 C3350 1.415 . S
C3352 C3357 1.425 . S
C3352 C3359 1.409 . S
C3353 H3345 0.930 . S
C3353 C3351 1.419 . S
C3353 C3354 1.362 . S
C3354 H3346 0.930 . S
C3354 C3353 1.362 . S
C3354 C3357 1.409 . S
C3355 H3347 0.930 . S
C3355 C3356 1.355 . S
C3355 C3357 1.415 . S
C3356 C3355 1.355 . S
C3356 C3358 1.419 . S
C3357 C3352 1.425 . S
C3357 C3354 1.409 . S
C3357 C3355 1.415 . S
C3358 H3348 0.930 . S
C3358 C3356 1.419 . S
C3358 C3359 1.362 . S
C3359 H3349 0.930 . S
C3359 C3352 1.409 . S
C3359 C3358 1.362 . S
H3360 C3366 0.930 . S
H3361 C3369 0.930 . S
H3362 C3370 0.930 . S
H3363 C3371 0.930 . S
H3364 C3374 0.930 . S
H3365 C3375 0.930 . S
C3366 H3360 0.930 . S
C3366 C3367 1.355 . S
C3366 C3368 1.415 . S
C3367 C3366 1.355 . S
C3367 C3369 1.419 . S
C3368 C3366 1.415 . S
C3368 C3373 1.425 . S
C3368 C3375 1.409 . S
C3369 H3361 0.930 . S
C3369 C3367 1.419 . S
C3369 C3370 1.362 . S
C3370 H3362 0.930 . S
C3370 C3369 1.362 . S
C3370 C3373 1.409 . S
C3371 H3363 0.930 . S
C3371 C3372 1.355 . S
C3371 C3373 1.415 . S
C3372 C3371 1.355 . S
C3372 C3374 1.419 . S
C3373 C3368 1.425 . S
C3373 C3370 1.409 . S
C3373 C3371 1.415 . S
C3374 H3364 0.930 . S
C3374 C3372 1.419 . S
C3374 C3375 1.362 . S
C3375 H3365 0.930 . S
C3375 C3368 1.409 . S
C3375 C3374 1.362 . S
H3376 C3382 0.930 . S
H3377 C3385 0.930 . S
H3378 C3386 0.930 . S
H3379 C3387 0.930 . S
H3380 C3390 0.930 . S
H3381 C3391 0.930 . S
C3382 H3376 0.930 . S
C3382 C3383 1.355 . S
C3382 C3384 1.415 . S
C3383 C3382 1.355 . S
C3383 C3385 1.419 . S
C3384 C3382 1.415 . S
C3384 C3389 1.425 . S
C3384 C3391 1.409 . S
C3385 H3377 0.930 . S
C3385 C3383 1.419 . S
C3385 C3386 1.362 . S
C3386 H3378 0.930 . S
C3386 C3385 1.362 . S
C3386 C3389 1.409 . S
C3387 H3379 0.930 . S
C3387 C3388 1.355 . S
C3387 C3389 1.415 . S
C3388 C3387 1.355 . S
C3388 C3390 1.419 . S
C3389 C3384 1.425 . S
C3389 C3386 1.409 . S
C3389 C3387 1.415 . S
C3390 H3380 0.930 . S
C3390 C3388 1.419 . S
C3390 C3391 1.362 . S
C3391 H3381 0.930 . S
C3391 C3384 1.409 . S
C3391 C3390 1.362 . S
H3392 C3398 0.930 . S
H3393 C3401 0.930 . S
H3394 C3402 0.930 . S
H3395 C3403 0.930 . S
H3396 C3406 0.930 . S
H3397 C3407 0.930 . S
C3398 H3392 0.930 . S
C3398 C3399 1.355 . S
C3398 C3400 1.415 . S
C3399 C3398 1.355 . S
C3399 C3401 1.419 . S
C3400 C3398 1.415 . S
C3400 C3405 1.425 . S
C3400 C3407 1.409 . S
C3401 H3393 0.930 . S
C3401 C3399 1.419 . S
C3401 C3402 1.362 . S
C3402 H3394 0.930 . S
C3402 C3401 1.362 . S
C3402 C3405 1.409 . S
C3403 H3395 0.930 . S
C3403 C3404 1.355 . S
C3403 C3405 1.415 . S
C3404 C3403 1.355 . S
C3404 C3406 1.419 . S
C3405 C3400 1.425 . S
C3405 C3402 1.409 . S
C3405 C3403 1.415 . S
C3406 H3396 0.930 . S
C3406 C3404 1.419 . S
C3406 C3407 1.362 . S
C3407 H3397 0.930 . S
C3407 C3400 1.409 . S
C3407 C3406 1.362 . S
H3408 C3414 0.930 . S
H3409 C3417 0.930 . S
H3410 C3418 0.930 . S
H3411 C3419 0.930 . S
H3412 C3422 0.930 . S
H3413 C3423 0.930 . S
C3414 H3408 0.930 . S
C3414 C3415 1.355 . S
C3414 C3416 1.415 . S
C3415 C3414 1.355 . S
C3415 C3417 1.419 . S
C3416 C3414 1.415 . S
C3416 C3421 1.425 . S
C3416 C3423 1.409 . S
C3417 H3409 0.930 . S
C3417 C3415 1.419 . S
C3417 C3418 1.362 . S
C3418 H3410 0.930 . S
C3418 C3417 1.362 . S
C3418 C3421 1.409 . S
C3419 H3411 0.930 . S
C3419 C3420 1.355 . S
C3419 C3421 1.415 . S
C3420 C3419 1.355 . S
C3420 C3422 1.419 . S
C3421 C3416 1.425 . S
C3421 C3418 1.409 . S
C3421 C3419 1.415 . S
C3422 H3412 0.930 . S
C3422 C3420 1.419 . S
C3422 C3423 1.362 . S
C3423 H3413 0.930 . S
C3423 C3416 1.409 . S
C3423 C3422 1.362 . S
H3424 C3430 0.930 . S
H3425 C3433 0.930 . S
H3426 C3434 0.930 . S
H3427 C3435 0.930 . S
H3428 C3438 0.930 . S
H3429 C3439 0.930 . S
C3430 H3424 0.930 . S
C3430 C3431 1.355 . S
C3430 C3432 1.415 . S
C3431 C3430 1.355 . S
C3431 C3433 1.419 . S
C3432 C3430 1.415 . S
C3432 C3437 1.425 . S
C3432 C3439 1.409 . S
C3433 H3425 0.930 . S
C3433 C3431 1.419 . S
C3433 C3434 1.362 . S
C3434 H3426 0.930 . S
C3434 C3433 1.362 . S
C3434 C3437 1.409 . S
C3435 H3427 0.930 . S
C3435 C3436 1.355 . S
C3435 C3437 1.415 . S
C3436 C3435 1.355 . S
C3436 C3438 1.419 . S
C3437 C3432 1.425 . S
C3437 C3434 1.409 . S
C3437 C3435 1.415 . S
C3438 H3428 0.930 . S
C3438 C3436 1.419 . S
C3438 C3439 1.362 . S
C3439 H3429 0.930 . S
C3439 C3432 1.409 . S
C3439 C3438 1.362 . S
H3440 C3446 0.930 . S
H3441 C3449 0.930 . S
H3442 C3450 0.930 . S
H3443 C3451 0.930 . S
H3444 C3454 0.930 . S
H3445 C3455 0.930 . S
C3446 H3440 0.930 . S
C3446 C3447 1.355 . S
C3446 C3448 1.415 . S
C3447 C3446 1.355 . S
C3447 C3449 1.419 . S
C3448 C3446 1.415 . S
C3448 C3453 1.425 . S
C3448 C3455 1.409 . S
C3449 H3441 0.930 . S
C3449 C3447 1.419 . S
C3449 C3450 1.362 . S
C3450 H3442 0.930 . S
C3450 C3449 1.362 . S
C3450 C3453 1.409 . S
C3451 H3443 0.930 . S
C3451 C3452 1.355 . S
C3451 C3453 1.415 . S
C3452 C3451 1.355 . S
C3452 C3454 1.419 . S
C3453 C3448 1.425 . S
C3453 C3450 1.409 . S
C3453 C3451 1.415 . S
C3454 H3444 0.930 . S
C3454 C3452 1.419 . S
C3454 C3455 1.362 . S
C3455 H3445 0.930 . S
C3455 C3448 1.409 . S
C3455 C3454 1.362 . S
H3456 C3462 0.930 . S
H3457 C3465 0.930 . S
H3458 C3466 0.930 . S
H3459 C3467 0.930 . S
H3460 C3470 0.930 . S
H3461 C3471 0.930 . S
C3462 H3456 0.930 . S
C3462 C3463 1.355 . S
C3462 C3464 1.415 . S
C3463 C3462 1.355 . S
C3463 C3465 1.419 . S
C3464 C3462 1.415 . S
C3464 C3469 1.425 . S
C3464 C3471 1.409 . S
C3465 H3457 0.930 . S
C3465 C3463 1.419 . S
C3465 C3466 1.362 . S
C3466 H3458 0.930 . S
C3466 C3465 1.362 . S
C3466 C3469 1.409 . S
C3467 H3459 0.930 . S
C3467 C3468 1.355 . S
C3467 C3469 1.415 . S
C3468 C3467 1.355 . S
C3468 C3470 1.419 . S
C3469 C3464 1.425 . S
C3469 C3466 1.409 . S
C3469 C3467 1.415 . S
C3470 H3460 0.930 . S
C3470 C3468 1.419 . S
C3470 C3471 1.362 . S
C3471 H3461 0.930 . S
C3471 C3464 1.409 . S
C3471 C3470 1.362 . S
H3472 C3478 0.930 . S
H3473 C3481 0.930 . S
H3474 C3482 0.930 . S
H3475 C3483 0.930 . S
H3476 C3486 0.930 . S
H3477 C3487 0.930 . S
C3478 H3472 0.930 . S
C3478 C3479 1.355 . S
C3478 C3480 1.415 . S
C3479 C3478 1.355 . S
C3479 C3481 1.419 . S
C3480 C3478 1.415 . S
C3480 C3485 1.425 . S
C3480 C3487 1.409 . S
C3481 H3473 0.930 . S
C3481 C3479 1.419 . S
C3481 C3482 1.362 . S
C3482 H3474 0.930 . S
C3482 C3481 1.362 . S
C3482 C3485 1.409 . S
C3483 H3475 0.930 . S
C3483 C3484 1.355 . S
C3483 C3485 1.415 . S
C3484 C3483 1.355 . S
C3484 C3486 1.419 . S
C3485 C3480 1.425 . S
C3485 C3482 1.409 . S
C3485 C3483 1.415 . S
C3486 H3476 0.930 . S
C3486 C3484 1.419 . S
C3486 C3487 1.362 . S
C3487 H3477 0.930 . S
C3487 C3480 1.409 . S
C3487 C3486 1.362 . S
H3488 C3494 0.930 . S
H3489 C3497 0.930 . S
H3490 C3498 0.930 . S
H3491 C3499 0.930 . S
H3492 C3502 0.930 . S
H3493 C3503 0.930 . S
C3494 H3488 0.930 . S
C3494 C3495 1.355 . S
C3494 C3496 1.415 . S
C3495 C3494 1.355 . S
C3495 C3497 1.419 . S
C3496 C3494 1.415 . S
C3496 C3501 1.425 . S
C3496 C3503 1.409 . S
C3497 H3489 0.930 . S
C3497 C3495 1.419 . S
C3497 C3498 1.362 . S
C3498 H3490 0.930 . S
C3498 C3497 1.362 . S
C3498 C3501 1.409 . S
C3499 H3491 0.930 . S
C3499 C3500 1.355 . S
C3499 C3501 1.415 . S
C3500 C3499 1.355 . S
C3500 C3502 1.419 . S
C3501 C3496 1.425 . S
C3501 C3498 1.409 . S
C3501 C3499 1.415 . S
C3502 H3492 0.930 . S
C3502 C3500 1.419 . S
C3502 C3503 1.362 . S
C3503 H3493 0.930 . S
C3503 C3496 1.409 . S
C3503 C3502 1.362 . S
C1591 C549 0.932 . S
C1596 C21 0.933 . S
C1607 C54 0.923 . S
C1612 C978 0.921 . S
C1623 C615 0.919 . S
C1628 C87 0.922 . S
C1639 C1044 0.842 . S
C1644 C120 0.838 . S
C1655 C153 0.942 . S
C1660 C417 0.943 . S
C1671 C846 0.959 . S
C1676 C186 0.962 . S
C1687 C483 0.919 . S
C1692 C219 0.914 . S
C1703 C252 0.907 . S
C1708 C912 0.906 . S
C1719 C285 0.822 . S
C1724 C1572 0.819 . S
C1735 C318 1.032 . S
C1740 C1539 1.027 . S
C1751 C351 1.023 . S
C1756 C1506 1.025 . S
C1767 C1473 0.843 . S
C1772 C384 0.836 . S
C1783 C1374 0.921 . S
C1788 C450 0.920 . S
C1799 C516 0.851 . S
C1804 C1440 0.850 . S
C1815 C1242 0.961 . S
C1820 C582 0.961 . S
C1831 C648 0.910 . S
C1836 C1308 0.912 . S
C1847 C681 0.824 . S
C1852 C1176 0.831 . S
C1863 C1143 1.026 . S
C1868 C714 1.025 . S
C1879 C1110 1.022 . S
C1884 C747 1.023 . S
C1895 C780 0.838 . S
C1900 C1077 0.844 . S
C1911 C813 0.913 . S
C1916 C1341 0.914 . S
C1927 C879 0.942 . S
C1932 C1407 0.935 . S
C1943 C945 0.904 . S
C1948 C1209 0.906 . S
C1959 C1011 0.934 . S
C1964 C1275 0.939 . S
C1975 C117 1.632 . S
C1980 N13 1.497 . S
C1991 N35 1.482 . S
C1996 C7 1.619 . S
C2007 C51 1.654 . S
C2012 N68 1.531 . S
C2023 N101 1.440 . S
C2028 C84 1.608 . S
C2039 N134 1.546 . S
C2044 C172 1.651 . S
C2055 C216 1.720 . S
C2060 N178 1.622 . S
C2071 N200 1.457 . S
C2076 C238 1.628 . S
C2087 N244 1.530 . S
C2092 C150 1.663 . S
C2103 N112 1.470 . S
C2108 C282 1.604 . S
C2119 C348 1.665 . S
C2124 N2 1.545 . S
C2135 C381 1.676 . S
C2140 N46 1.594 . S
C2151 C304 1.654 . S
C2156 N79 1.570 . S
C2167 C315 1.686 . S
C2172 N167 1.546 . S
C2183 C271 1.585 . S
C2188 N211 1.476 . S
C2199 N233 1.593 . S
C2204 C337 1.702 . S
C2215 N145 1.486 . S
C2220 C370 1.578 . S
C2231 C18 1.625 . S
C2236 N277 1.539 . S
C2247 C139 1.711 . S
C2252 N310 1.638 . S
C2263 N266 1.400 . S
C2268 C183 1.574 . S
C2279 C205 1.686 . S
C2284 N332 1.566 . S
C2295 N365 1.444 . S
C2300 C249 1.606 . S
C2311 C73 1.590 . S
C2316 N376 1.509 . S
C2327 N299 1.444 . S
C2332 C106 1.612 . S
C2343 C40 1.701 . S
C2348 N343 1.583 . S
C2359 C513 1.637 . S
C2364 N409 1.559 . S
C2375 C403 1.590 . S
C2380 N431 1.426 . S
C2391 N464 1.412 . S
C2396 C447 1.601 . S
C2407 N497 1.408 . S
C2412 C480 1.584 . S
C2423 N530 1.484 . S
C2428 C568 1.637 . S
C2439 N574 1.597 . S
C2444 C612 1.722 . S
C2455 N596 1.500 . S
C2460 C634 1.650 . S
C2471 C546 1.706 . S
C2476 N640 1.602 . S
C2487 C678 1.606 . S
C2492 N508 1.507 . S
C2503 C744 1.657 . S
C2508 N398 1.485 . S
C2519 N442 1.512 . S
C2524 C777 1.648 . S
C2535 C711 1.672 . S
C2540 N475 1.582 . S
C2551 C700 1.671 . S
C2556 N563 1.560 . S
C2567 N607 1.472 . S
C2572 C667 1.578 . S
C2583 C733 1.681 . S
C2588 N629 1.549 . S
C2599 C766 1.625 . S
C2604 N541 1.557 . S
C2615 N673 1.539 . S
C2620 C414 1.626 . S
C2631 C535 1.683 . S
C2636 N695 1.552 . S
C2647 N662 1.474 . S
C2652 C579 1.600 . S
C2663 N728 1.581 . S
C2668 C601 1.699 . S
C2679 N761 1.421 . S
C2684 C645 1.603 . S
C2695 N772 1.552 . S
C2700 C469 1.614 . S
C2711 C502 1.670 . S
C2716 N706 1.596 . S
C2727 N739 1.657 . S
C2732 C436 1.728 . S
C2743 N805 1.591 . S
C2748 C909 1.668 . S
C2759 N827 1.538 . S
C2764 C799 1.650 . S
C2775 N860 1.460 . S
C2780 C843 1.651 . S
C2791 C876 1.576 . S
C2796 N893 1.427 . S
C2807 N926 1.581 . S
C2812 C964 1.690 . S
C2823 N970 1.555 . S
C2828 C1008 1.689 . S
C2839 N992 1.441 . S
C2844 C1030 1.614 . S
C2855 C942 1.655 . S
C2860 N1036 1.534 . S
C2871 N904 1.536 . S
C2876 C1074 1.617 . S
C2887 N794 1.463 . S
C2892 C1129 1.632 . S
C2903 C1173 1.671 . S
C2908 N838 1.558 . S
C2919 C1107 1.708 . S
C2924 N871 1.632 . S
C2935 C1096 1.609 . S
C2940 N959 1.456 . S
C2951 C1063 1.567 . S
C2956 N1003 1.458 . S
C2967 C1140 1.648 . S
C2972 N1025 1.467 . S
C2983 C1162 1.602 . S
C2988 N937 1.489 . S
C2999 N1069 1.551 . S
C3004 C810 1.622 . S
C3015 C931 1.645 . S
C3020 N1091 1.507 . S
C3031 N1058 1.516 . S
C3036 C975 1.629 . S
C3047 C997 1.666 . S
C3052 N1135 1.573 . S
C3063 N1157 1.516 . S
C3068 C1041 1.637 . S
C3079 N1168 1.481 . S
C3084 C865 1.575 . S
C3095 N1102 1.557 . S
C3100 C898 1.671 . S
C3111 N1124 1.549 . S
C3116 C832 1.704 . S
C3127 N1201 1.570 . S
C3132 C1305 1.676 . S
C3143 N1223 1.485 . S
C3148 C1195 1.623 . S
C3159 N1256 1.506 . S
C3164 C1239 1.682 . S
C3175 N1289 1.420 . S
C3180 C1272 1.591 . S
C3191 N1322 1.519 . S
C3196 C1360 1.654 . S
C3207 N1366 1.527 . S
C3212 C1404 1.663 . S
C3223 N1388 1.439 . S
C3228 C1426 1.613 . S
C3239 N1432 1.492 . S
C3244 C1338 1.618 . S
C3255 N1300 1.548 . S
C3260 C1470 1.635 . S
C3271 N1190 1.558 . S
C3276 C1525 1.664 . S
C3287 N1234 1.607 . S
C3292 C1569 1.693 . S
C3303 N1267 1.588 . S
C3308 C1492 1.666 . S
C3319 C1503 1.633 . S
C3324 N1355 1.474 . S
C3335 C1459 1.610 . S
C3340 N1399 1.533 . S
C3351 N1421 1.511 . S
C3356 C1536 1.667 . S
C3367 N1333 1.474 . S
C3372 C1558 1.585 . S
C3383 C1206 1.593 . S
C3388 N1465 1.466 . S
C3399 N1498 1.593 . S
C3404 C1327 1.674 . S
C3415 C1371 1.594 . S
C3420 N1454 1.422 . S
C3431 N1531 1.616 . S
C3436 C1393 1.685 . S
C3447 C1437 1.608 . S
C3452 N1553 1.428 . S
C3463 C1261 1.556 . S
C3468 N1564 1.452 . S
C3479 N1487 1.575 . S
C3484 C1294 1.693 . S
C3495 C1228 1.747 . S
C3500 N1520 1.613 . S
