# Generated by pormake.
# Topology can, (4)-cn, num edge types: 1
# Building blocks:
#     Node 0, Type 0, BuildingBlock: QUQFOY_clean_sbu_3, # of connection points: 4
#     Node 1, Type 0, BuildingBlock: QUQFOY_clean_sbu_3, # of connection points: 4
#     Node 2, Type 0, BuildingBlock: QUQFOY_clean_sbu_3, # of connection points: 4
#     Node 3, Type 0, BuildingBlock: QUQFOY_clean_sbu_3, # of connection points: 4
#     Node 4, Type 0, BuildingBlock: QUQFOY_clean_sbu_3, # of connection points: 4
#     Node 5, Type 0, BuildingBlock: QUQFOY_clean_sbu_3, # of connection points: 4
#     Node 6, Type 0, BuildingBlock: QUQFOY_clean_sbu_3, # of connection points: 4
#     Node 7, Type 0, BuildingBlock: QUQFOY_clean_sbu_3, # of connection points: 4
#     Node 8, Type 0, BuildingBlock: QUQFOY_clean_sbu_3, # of connection points: 4
#     Node 9, Type 0, BuildingBlock: QUQFOY_clean_sbu_3, # of connection points: 4
#     Node 10, Type 0, BuildingBlock: QUQFOY_clean_sbu_3, # of connection points: 4
#     Node 11, Type 0, BuildingBlock: QUQFOY_clean_sbu_3, # of connection points: 4
#     Edge 12, Type (0, 0), BuildingBlock: XUDNAN_clean_linker_2, # of connection points: 2
#     Edge 13, Type (0, 0), BuildingBlock: XUDNAN_clean_linker_2, # of connection points: 2
#     Edge 14, Type (0, 0), BuildingBlock: XUDNAN_clean_linker_2, # of connection points: 2
#     Edge 15, Type (0, 0), BuildingBlock: XUDNAN_clean_linker_2, # of connection points: 2
#     Edge 16, Type (0, 0), BuildingBlock: XUDNAN_clean_linker_2, # of connection points: 2
#     Edge 17, Type (0, 0), BuildingBlock: XUDNAN_clean_linker_2, # of connection points: 2
#     Edge 18, Type (0, 0), BuildingBlock: XUDNAN_clean_linker_2, # of connection points: 2
#     Edge 19, Type (0, 0), BuildingBlock: XUDNAN_clean_linker_2, # of connection points: 2
#     Edge 20, Type (0, 0), BuildingBlock: XUDNAN_clean_linker_2, # of connection points: 2
#     Edge 21, Type (0, 0), BuildingBlock: XUDNAN_clean_linker_2, # of connection points: 2
#     Edge 22, Type (0, 0), BuildingBlock: XUDNAN_clean_linker_2, # of connection points: 2
#     Edge 23, Type (0, 0), BuildingBlock: XUDNAN_clean_linker_2, # of connection points: 2
#     Edge 24, Type (0, 0), BuildingBlock: XUDNAN_clean_linker_2, # of connection points: 2
#     Edge 25, Type (0, 0), BuildingBlock: XUDNAN_clean_linker_2, # of connection points: 2
#     Edge 26, Type (0, 0), BuildingBlock: XUDNAN_clean_linker_2, # of connection points: 2
#     Edge 27, Type (0, 0), BuildingBlock: XUDNAN_clean_linker_2, # of connection points: 2
#     Edge 28, Type (0, 0), BuildingBlock: XUDNAN_clean_linker_2, # of connection points: 2
#     Edge 29, Type (0, 0), BuildingBlock: XUDNAN_clean_linker_2, # of connection points: 2
#     Edge 30, Type (0, 0), BuildingBlock: XUDNAN_clean_linker_2, # of connection points: 2
#     Edge 31, Type (0, 0), BuildingBlock: XUDNAN_clean_linker_2, # of connection points: 2
#     Edge 32, Type (0, 0), BuildingBlock: XUDNAN_clean_linker_2, # of connection points: 2
#     Edge 33, Type (0, 0), BuildingBlock: XUDNAN_clean_linker_2, # of connection points: 2
#     Edge 34, Type (0, 0), BuildingBlock: XUDNAN_clean_linker_2, # of connection points: 2
#     Edge 35, Type (0, 0), BuildingBlock: XUDNAN_clean_linker_2, # of connection points: 2
# Relax obj value: 0.050
# Max RMSD: 0.036
# Mean RMSD: 0.036
data_MOF--net-can--node1-QUQFOY_clean_sbu_3--edge1-XUDNAN_clean_linker_2
_symmetry_space_group_name_H-M    P1
_symmetry_Int_Tables_number       1
_symmetry_cell_setting            triclinic
loop_
_symmetry_equiv_pos_as_xyz
'x, y, z'
_cell_length_a     56.83844
_cell_length_b     56.558462
_cell_length_c     28.355313
_cell_angle_alpha  89.794451
_cell_angle_beta   90.448558
_cell_angle_gamma 120.18774
loop_
_atom_site_label
_atom_site_type_symbol
_atom_site_fract_x
_atom_site_fract_y
_atom_site_fract_z
_atom_type_partial_charge
C0 C 0.00536 0.35268 0.29139 0.0
O1 O 0.98876 0.34231 0.25715 0.0
Cd2 Cd 0.00065 0.35981 0.17895 0.0
O3 O 0.02994 0.37138 0.2842 0.0
Cd4 Cd 0.0619 0.39653 0.21838 0.0
C5 C 0.02711 0.42931 0.20338 0.0
O6 O 0.04153 0.36017 0.15989 0.0
O7 O 0.06759 0.40076 0.1328 0.0
O8 O 0.09051 0.38361 0.26108 0.0
C9 C 0.05326 0.37533 0.12473 0.0
O10 O 0.00884 0.4065 0.18631 0.0
C11 C 0.11286 0.40555 0.25438 0.0
O12 O 0.04917 0.43202 0.2204 0.0
O13 O 0.11186 0.42431 0.23116 0.0
C14 C 0.65442 0.0117 0.85145 0.0
O15 O 0.64175 0.98887 0.83011 0.0
Cd16 Cd 0.62823 0.98311 0.7486 0.0
O17 O 0.66156 0.03405 0.82969 0.0
Cd18 Cd 0.66009 0.05162 0.75025 0.0
C19 C 0.59066 0.01629 0.7505 0.0
O20 O 0.66613 0.01809 0.70833 0.0
O21 O 0.65949 0.04541 0.66455 0.0
O22 O 0.70691 0.08744 0.76191 0.0
C23 C 0.66324 0.02516 0.66728 0.0
O24 O 0.59258 0.99487 0.74682 0.0
C25 C 0.70281 0.10721 0.75437 0.0
O26 O 0.61189 0.03992 0.75426 0.0
O27 O 0.67843 0.1012 0.74576 0.0
C28 C 0.62549 0.65869 0.33665 0.0
O29 O 0.63666 0.64704 0.31586 0.0
Cd30 Cd 0.6324 0.6363 0.23329 0.0
O31 O 0.6106 0.66578 0.31385 0.0
Cd32 Cd 0.59406 0.66475 0.23227 0.0
C33 C 0.56238 0.59535 0.22466 0.0
O34 O 0.63638 0.67539 0.19468 0.0
O35 O 0.60302 0.66659 0.14762 0.0
O36 O 0.60199 0.71049 0.24291 0.0
C37 C 0.62772 0.67308 0.15274 0.0
O38 O 0.5862 0.59854 0.22272 0.0
C39 C 0.57798 0.705 0.2328 0.0
O40 O 0.55897 0.61576 0.23082 0.0
O41 O 0.56067 0.68015 0.22379 0.0
C42 C 0.97631 0.64671 0.817 0.0
O43 O -0.00395 0.64874 0.79302 0.0
Cd44 Cd 0.99243 0.63207 0.7137 0.0
O45 O 0.95212 0.63435 0.80045 0.0
Cd46 Cd 0.92806 0.60907 0.72845 0.0
C47 C 0.95161 0.56386 0.73263 0.0
O48 O 0.96127 0.64229 0.67353 0.0
O49 O 0.92666 0.60652 0.64324 0.0
O50 O 0.89342 0.6224 0.73624 0.0
C51 C 0.94826 0.62918 0.63711 0.0
O52 O 0.97501 0.58311 0.72059 0.0
C53 C 0.87342 0.59803 0.73598 0.0
O54 O 0.93218 0.56846 0.7398 0.0
O55 O 0.87901 0.57897 0.73409 0.0
C56 C 0.33577 0.99495 0.29592 0.0
O57 O 0.34516 0.01254 0.26296 0.0
Cd58 Cd 0.35242 0.00384 0.18339 0.0
O59 O 0.32782 0.96983 0.28779 0.0
Cd60 Cd 0.32321 0.9397 0.22019 0.0
C61 C 0.39217 0.97496 0.20917 0.0
O62 O 0.31171 0.96348 0.16169 0.0
O63 O 0.31782 0.93141 0.13475 0.0
O64 O 0.27858 0.90488 0.24696 0.0
C65 C 0.31179 0.94976 0.1266 0.0
O66 O 0.38972 0.99464 0.19287 0.0
C67 C 0.28361 0.88539 0.2462 0.0
O68 O 0.37145 0.95282 0.22282 0.0
O69 O 0.30773 0.89148 0.23584 0.0
C70 C 0.34141 0.3358 0.80761 0.0
O71 O 0.33338 0.34492 0.77397 0.0
Cd72 Cd 0.35477 0.35685 0.69925 0.0
O73 O 0.36077 0.33085 0.80157 0.0
Cd74 Cd 0.39048 0.33175 0.73603 0.0
C75 C 0.42159 0.40028 0.73506 0.0
O76 O 0.35725 0.31817 0.67307 0.0
O77 O 0.39909 0.33808 0.65091 0.0
O78 O 0.38052 0.28588 0.75503 0.0
C79 C 0.37407 0.32495 0.63972 0.0
O80 O 0.39958 0.39659 0.71613 0.0
C81 C 0.40503 0.29122 0.75653 0.0
O82 O 0.42407 0.38004 0.74797 0.0
O83 O 0.42332 0.31607 0.75072 0.0
C84 C 0.6377 0.98482 0.19153 0.0
O85 O 0.64619 0.00268 0.2241 0.0
Cd86 Cd 0.6272 0.9946 0.30153 0.0
O87 O 0.61896 0.96024 0.19943 0.0
Cd88 Cd 0.59019 0.93048 0.26462 0.0
C89 C 0.55973 0.96893 0.26816 0.0
O90 O 0.62439 0.95295 0.32493 0.0
O91 O 0.58521 0.92176 0.35011 0.0
O92 O 0.60039 0.89632 0.23702 0.0
C93 C 0.60968 0.93955 0.3594 0.0
O94 O 0.58206 0.98791 0.28532 0.0
C95 C 0.57597 0.87665 0.2364 0.0
O96 O 0.55697 0.94588 0.25673 0.0
O97 O 0.5576 0.88222 0.247 0.0
C98 C 0.64673 0.65156 0.67823 0.0
O99 O 0.63801 0.6604 0.71093 0.0
Cd100 Cd 0.63211 0.64585 0.7915 0.0
O101 O 0.65467 0.63452 0.68713 0.0
Cd102 Cd 0.66038 0.61037 0.75597 0.0
C103 C 0.59165 0.57623 0.77132 0.0
O104 O 0.67305 0.64684 0.81243 0.0
O105 O 0.66706 0.60889 0.84122 0.0
O106 O 0.70492 0.62113 0.7278 0.0
C107 C 0.67345 0.63353 0.84809 0.0
O108 O 0.59467 0.59886 0.78608 0.0
C109 C 0.70045 0.59678 0.73005 0.0
O110 O 0.61195 0.5745 0.75695 0.0
O111 O 0.67661 0.57833 0.74169 0.0
C112 C 0.01094 0.66606 0.1522 0.0
O113 O 0.99046 0.65429 0.17919 0.0
Cd114 Cd 0.98954 0.63773 0.2564 0.0
O115 O 0.03462 0.67163 0.1662 0.0
Cd116 Cd 0.05669 0.6687 0.24158 0.0
C117 C 0.02074 0.59931 0.23455 0.0
O118 O 0.02708 0.6763 0.29013 0.0
O119 O 0.05324 0.66613 0.32923 0.0
O120 O 0.09291 0.7154 0.23011 0.0
C121 C 0.03484 0.67253 0.32979 0.0
O122 O -0.00014 0.60114 0.24428 0.0
C123 C 0.11234 0.71072 0.23627 0.0
O124 O 0.04415 0.62064 0.23049 0.0
O125 O 0.10597 0.68597 0.24284 0.0
C126 C 0.357 0.02475 0.63653 0.0
O127 O 0.34528 0.00187 0.65776 0.0
Cd128 Cd 0.35062 0.9949 0.7396 0.0
O129 O 0.37289 0.04678 0.65873 0.0
Cd130 Cd 0.39077 0.06254 0.73993 0.0
C131 C 0.42097 0.02363 0.74278 0.0
O132 O 0.34896 0.03074 0.77909 0.0
O133 O 0.38304 0.055 0.82507 0.0
O134 O 0.38257 0.10015 0.72912 0.0
C135 C 0.35821 0.03674 0.82075 0.0
O136 O 0.39683 0.00332 0.74534 0.0
C137 C 0.4064 0.11902 0.73992 0.0
O138 O 0.42524 0.04795 0.73829 0.0
O139 O 0.42384 0.11183 0.74911 0.0
C140 C 0.31973 0.34691 0.14376 0.0
O141 O 0.33233 0.33699 0.16569 0.0
Cd142 Cd 0.35078 0.35009 0.24291 0.0
O143 O 0.31467 0.36401 0.16383 0.0
Cd144 Cd 0.32186 0.38604 0.24276 0.0
C145 C 0.38952 0.42049 0.22696 0.0
O146 O 0.31683 0.34881 0.2926 0.0
O147 O 0.33867 0.38928 0.32322 0.0
O148 O 0.27519 0.3726 0.258 0.0
C149 C 0.3277 0.36361 0.32867 0.0
O150 O 0.38741 0.3972 0.23354 0.0
C151 C 0.2781 0.39631 0.25737 0.0
O152 O 0.36848 0.42308 0.22648 0.0
O153 O 0.30163 0.41613 0.24772 0.0
C154 C 0.97062 0.33552 0.63112 0.0
O155 O 0.99248 0.35198 0.65265 0.0
Cd156 Cd -0.00513 0.36366 0.73441 0.0
O157 O 0.94805 0.32372 0.65301 0.0
Cd158 Cd 0.93218 0.32355 0.73445 0.0
C159 C 0.95375 0.39133 0.73418 0.0
O160 O 0.96854 0.32219 0.77902 0.0
O161 O 0.94316 0.33339 0.81802 0.0
O162 O 0.89687 0.27498 0.73385 0.0
C163 C 0.96165 0.32713 0.81851 0.0
O164 O 0.9779 0.39582 0.74006 0.0
C165 C 0.87725 0.27942 0.73915 0.0
O166 O 0.93404 0.36713 0.72806 0.0
O167 O 0.88328 0.30422 0.74205 0.0
H168 H 0.03416 0.39705 0.06043 0.0
H169 H 0.04935 0.33009 0.08294 0.0
H170 H 0.02991 0.3115 0.0038 0.0
H171 H 0.96947 0.35622 0.0089 0.0
H172 H 0.97234 0.38212 0.9683 0.0
H173 H 0.99067 0.39192 0.02345 0.0
H174 H 0.03601 0.42106 0.97884 0.0
H175 H 0.01779 0.41149 0.92349 0.0
H176 H 0.04565 0.40538 0.93346 0.0
H177 H 0.0086 0.30063 0.92169 0.0
H178 H 0.98265 0.29541 0.84783 0.0
H179 H 0.97694 0.3666 0.88511 0.0
C180 C 0.03397 0.37884 0.04808 0.0
C181 C 0.04379 0.36526 0.07676 0.0
C182 C 0.04225 0.34089 0.06073 0.0
C183 C 0.03132 0.33028 0.01599 0.0
C184 C 0.0215 0.34404 0.98857 0.0
C185 C 0.0224 0.3676 0.00436 0.0
C186 C 0.0081 0.37703 0.97055 0.0
C187 C 0.9837 0.37679 -0.00578 0.0
C188 C 0.02809 0.40542 0.95039 0.0
C189 C -0.00109 0.35509 0.93323 0.0
C190 C 0.0073 0.33655 0.94362 0.0
C191 C 0.00176 0.31491 0.9134 0.0
C192 C 0.98708 0.3121 0.87167 0.0
C193 C 0.9776 0.33038 0.8615 0.0
C194 C 0.98363 0.3521 0.89262 0.0
H195 H 0.64225 0.99053 0.39447 0.0
H196 H 0.59774 0.90496 0.43403 0.0
H197 H 0.61219 0.91769 0.51723 0.0
H198 H 0.69854 0.01438 0.48108 0.0
H199 H 0.6986 0.04579 0.49204 0.0
H200 H 0.68865 0.0297 0.43492 0.0
H201 H 0.64272 0.02882 0.44082 0.0
H202 H 0.65252 0.04491 0.49777 0.0
H203 H 0.62118 0.01282 0.49106 0.0
H204 H 0.62975 0.94002 0.59619 0.0
H205 H 0.64345 0.97007 0.66628 0.0
H206 H 0.67236 0.041 0.57532 0.0
C207 C 0.63616 0.9745 0.42057 0.0
C208 C 0.61938 0.94679 0.40819 0.0
C209 C 0.61085 0.92629 0.44318 0.0
C210 C 0.61909 0.93333 0.49028 0.0
C211 C 0.63544 0.96094 0.50158 0.0
C212 C 0.64355 0.98122 0.46779 0.0
C213 C 0.65797 0.0094 0.4898 0.0
C214 C 0.68771 0.02578 0.47349 0.0
C215 C 0.64267 0.02488 0.47924 0.0
C216 C 0.65624 0.00183 0.54134 0.0
C217 C 0.64388 0.97383 0.54735 0.0
C218 C 0.63954 0.96198 0.59194 0.0
C219 C 0.64744 0.97918 0.63148 0.0
C220 C 0.65884 0.00776 0.62595 0.0
C221 C 0.66368 0.01919 0.58036 0.0
H222 H 0.62232 0.68402 0.06107 0.0
H223 H 0.66829 0.66065 0.15363 0.0
H224 H 0.68999 0.65332 0.08435 0.0
H225 H 0.60725 0.63649 0.97524 0.0
H226 H 0.61121 0.65818 0.92564 0.0
H227 H 0.60237 0.6654 0.98234 0.0
H228 H 0.64423 0.71442 0.98007 0.0
H229 H 0.65313 0.70742 0.923 0.0
H230 H 0.67763 0.71908 0.97061 0.0
H231 H 0.69919 0.63981 0.00573 0.0
H232 H 0.69947 0.62629 0.92282 0.0
H233 H 0.65132 0.66283 0.88138 0.0
C234 C 0.6375 0.67805 0.06667 0.0
C235 C 0.64368 0.67283 0.1124 0.0
C236 C 0.66349 0.66493 0.11872 0.0
C237 C 0.67588 0.66072 0.07964 0.0
C238 C 0.66875 0.66526 0.03479 0.0
C239 C 0.65051 0.6744 0.02816 0.0
C240 C 0.64513 0.67623 0.97633 0.0
C241 C 0.61469 0.65798 0.96421 0.0
C242 C 0.65567 0.70607 0.96164 0.0
C243 C 0.66202 0.66529 0.9549 0.0
C244 C 0.67556 0.65911 -0.01083 0.0
C245 C 0.6895 0.64541 0.97841 0.0
C246 C 0.68946 0.63771 0.93145 0.0
C247 C 0.67596 0.64415 0.89605 0.0
C248 C 0.66257 0.65856 0.90776 0.0
H249 H 0.05012 0.67275 0.42195 0.0
H250 H 0.98429 0.66637 0.33395 0.0
H251 H 0.9562 0.65815 0.40445 0.0
H252 H 0.01034 0.62101 0.50167 0.0
H253 H 0.0301 0.63826 0.55342 0.0
H254 H 0.04606 0.64583 0.49652 0.0
H255 H 0.06239 0.69725 0.5082 0.0
H256 H 0.04654 0.68984 0.56533 0.0
H257 H 0.03792 0.70758 0.52175 0.0
H258 H 0.93316 0.64427 0.48172 0.0
H259 H 0.91802 0.63014 0.56378 0.0
H260 H -0.00037 0.64964 0.60354 0.0
C261 C 0.02994 0.67002 0.41773 0.0
C262 C 0.01931 0.67008 0.37262 0.0
C263 C -0.00714 0.66647 0.36826 0.0
C264 C 0.97673 0.66179 0.40805 0.0
C265 C 0.98759 0.66138 0.45196 0.0
C266 C 0.01373 0.66587 0.45725 0.0
C267 C 0.02011 0.66365 0.50848 0.0
C268 C 0.02705 0.64082 0.5154 0.0
C269 C 0.0431 0.69123 0.52703 0.0
C270 C -0.00687 0.65623 0.53077 0.0
C271 C 0.97465 0.65496 0.49742 0.0
C272 C 0.94759 0.64588 0.50846 0.0
C273 C 0.93915 0.63781 0.55489 0.0
C274 C 0.95787 0.63941 0.58957 0.0
C275 C 0.98524 0.64906 0.57762 0.0
H276 H 0.36423 0.0526 0.91264 0.0
H277 H 0.31804 0.98315 0.82011 0.0
H278 H 0.29682 0.9535 0.88947 0.0
H279 H 0.37955 0.01984 -0.00118 0.0
H280 H 0.37555 0.03741 0.0483 0.0
H281 H 0.38449 0.05373 -0.00845 0.0
H282 H 0.34267 0.06052 -0.00647 0.0
H283 H 0.33368 0.04435 0.05061 0.0
H284 H 0.30924 0.03142 0.00292 0.0
H285 H 0.2876 0.93038 0.96831 0.0
H286 H 0.28657 0.9164 0.05155 0.0
H287 H 0.33485 0.00151 0.09265 0.0
C288 C 0.34917 0.03128 0.90708 0.0
C289 C 0.34275 0.02005 0.86132 0.0
C290 C 0.32304 0.99211 0.85505 0.0
C291 C 0.31093 0.97514 0.89417 0.0
C292 C 0.31824 0.98669 0.93903 0.0
C293 C 0.3364 0.01426 0.94564 0.0
C294 C 0.34171 0.02138 -0.00254 0.0
C295 C 0.37212 0.03381 0.00972 0.0
C296 C 0.33119 0.04055 0.01198 0.0
C297 C 0.32476 0.99329 0.01894 0.0
C298 C 0.31138 0.97352 0.98468 0.0
C299 C 0.29722 0.94571 -0.0044 0.0
C300 C 0.29684 0.93795 0.04274 0.0
C301 C 0.31011 0.95797 0.07816 0.0
C302 C 0.32381 0.98593 0.06622 0.0
H303 H 0.36885 0.38825 0.39316 0.0
H304 H 0.29427 0.31235 0.36269 0.0
H305 H 0.29952 0.29267 0.43747 0.0
H306 H 0.405 0.3561 0.44468 0.0
H307 H 0.42234 0.38274 0.48797 0.0
H308 H 0.41288 0.39054 0.43172 0.0
H309 H 0.38637 0.41047 0.47399 0.0
H310 H 0.39585 0.40287 0.53027 0.0
H311 H 0.36045 0.38965 0.51602 0.0
H312 H 0.31065 0.28328 0.51882 0.0
H313 H 0.32866 0.28361 0.5988 0.0
H314 H 0.39816 0.36392 0.57206 0.0
C315 C 0.35366 0.36748 0.40228 0.0
C316 C 0.33102 0.35181 0.37269 0.0
C317 C 0.31173 0.3246 0.38519 0.0
C318 C 0.31456 0.3133 0.42743 0.0
C319 C 0.33712 0.32932 0.45597 0.0
C320 C 0.35653 0.35569 0.44364 0.0
C321 C 0.37888 0.36859 0.48041 0.0
C322 C 0.4064 0.37485 0.45996 0.0
C323 C 0.38046 0.39441 0.50142 0.0
C324 C 0.36862 0.34564 0.51606 0.0
C325 C 0.34444 0.3232 0.50141 0.0
C326 C 0.32986 0.30045 0.53026 0.0
C327 C 0.34017 0.30081 0.57548 0.0
C328 C 0.36497 0.32353 0.59078 0.0
C329 C 0.37955 0.34598 0.56046 0.0
H330 H 0.01932 0.65775 0.87526 0.0
H331 H 0.9435 0.65875 0.86907 0.0
H332 H 0.94872 0.67159 0.95309 0.0
H333 H 0.00757 0.62544 0.98173 0.0
H334 H 0.04216 0.64381 0.00332 0.0
H335 H 0.03555 0.64011 0.94092 0.0
H336 H 0.06347 0.69275 0.9308 0.0
H337 H 0.07024 0.69663 -0.00663 0.0
H338 H 0.05482 0.7141 0.96495 0.0
H339 H 0.95813 0.67735 0.03853 0.0
H340 H 0.9705 0.67458 0.12092 0.0
H341 H 0.04029 0.66966 0.07329 0.0
C342 C 0.00428 0.66152 0.89126 0.0
C343 C 0.9811 0.65746 0.86563 0.0
C344 C 0.96144 0.66181 0.88806 0.0
C345 C 0.96432 0.66929 0.93567 0.0
C346 C 0.98701 0.6724 0.9603 0.0
C347 C 0.00673 0.66875 0.93893 0.0
C348 C 0.02733 0.67006 0.97468 0.0
C349 C 0.02818 0.64326 0.97519 0.0
C350 C 0.05565 0.69487 0.96539 0.0
C351 C 0.01536 0.6737 0.01974 0.0
C352 C 0.99242 0.67557 0.01041 0.0
C353 C 0.97634 0.67646 0.0463 0.0
C354 C 0.98346 0.67473 0.09297 0.0
C355 C 0.00642 0.67205 0.10338 0.0
C356 C 0.02298 0.6723 0.06632 0.0
H357 H 0.32039 0.96392 0.37666 0.0
H358 H 0.35296 0.04716 0.32614 0.0
H359 H 0.35877 0.06348 0.40821 0.0
H360 H 0.28448 0.97018 0.4801 0.0
H361 H 0.29267 0.94894 0.51612 0.0
H362 H 0.28832 0.94346 0.45332 0.0
H363 H 0.33628 0.94885 0.44809 0.0
H364 H 0.34088 0.95455 0.51069 0.0
H365 H 0.36531 0.97948 0.47067 0.0
H366 H 0.36573 0.07143 0.49543 0.0
H367 H 0.37125 0.07 0.58172 0.0
H368 H 0.33341 0.98156 0.5751 0.0
C369 C 0.32821 0.98551 0.38274 0.0
C370 C 0.33618 0.00422 0.34486 0.0
C371 C 0.34663 0.03237 0.3545 0.0
C372 C 0.35 0.04187 0.40103 0.0
C373 C 0.34261 0.02297 0.43754 0.0
C374 C 0.33165 0.99534 0.42894 0.0
C375 C 0.32677 0.97949 0.47443 0.0
C376 C 0.29624 0.95933 0.4814 0.0
C377 C 0.3433 0.96474 0.47604 0.0
C378 C 0.33741 0.00263 0.50983 0.0
C379 C 0.34631 0.02753 0.4879 0.0
C380 C 0.35845 0.05201 0.51311 0.0
C381 C 0.3616 0.051 0.56206 0.0
C382 C 0.35263 0.02567 0.58522 0.0
C383 C 0.34016 0.00122 0.55859 0.0
H384 H 0.35358 0.31749 0.88882 0.0
H385 H 0.30248 0.34812 0.83355 0.0
H386 H 0.28649 0.34855 0.91383 0.0
H387 H 0.30643 0.27478 0.98508 0.0
H388 H 0.3344 0.28312 0.02494 0.0
H389 H 0.3387 0.2813 0.96238 0.0
H390 H 0.38005 0.33067 0.96398 0.0
H391 H 0.37585 0.33266 0.02631 0.0
H392 H 0.37592 0.35796 0.98737 0.0
H393 H 0.28144 0.35237 0.00065 0.0
H394 H 0.28673 0.35768 0.08724 0.0
H395 H 0.33976 0.32309 0.08543 0.0
C396 C 0.33852 0.32364 0.8934 0.0
C397 C 0.32932 0.33276 0.85484 0.0
C398 C 0.30982 0.34096 0.86248 0.0
C399 C 0.30052 0.34121 0.90798 0.0
C400 C 0.31059 0.33283 0.94539 0.0
C401 C 0.3289 0.32387 0.93853 0.0
C402 C 0.33826 0.31806 0.98497 0.0
C403 C 0.32888 0.28749 -0.0104 0.0
C404 C 0.36935 0.33591 -0.00901 0.0
C405 C 0.3233 0.32633 0.019 0.0
C406 C 0.30719 0.3345 -0.00443 0.0
C407 C 0.29349 0.34544 0.0195 0.0
C408 C 0.29668 0.34847 0.06863 0.0
C409 C 0.31344 0.34057 0.09314 0.0
C410 C 0.32636 0.32881 0.0679 0.0
H411 H 0.01401 0.36224 0.57161 0.0
H412 H 0.92852 0.29957 0.57419 0.0
H413 H 0.92897 0.29491 0.48768 0.0
H414 H 0.01058 0.39497 0.46881 0.0
H415 H 0.04341 0.40277 0.44697 0.0
H416 H 0.03707 0.39936 0.50938 0.0
H417 H 0.051 0.36223 0.5139 0.0
H418 H 0.05748 0.3656 0.45143 0.0
H419 H 0.0342 0.3326 0.47621 0.0
H420 H 0.93796 0.29933 0.40054 0.0
H421 H 0.95469 0.31254 0.31924 0.0
H422 H 0.03425 0.37257 0.37396 0.0
C423 C -0.00454 0.3472 0.55418 0.0
C424 C 0.97125 0.33119 0.57978 0.0
C425 C 0.94734 0.31202 0.5554 0.0
C426 C 0.9474 0.30918 0.50627 0.0
C427 C 0.97153 0.32561 0.4821 0.0
C428 C -0.00486 0.34418 0.50525 0.0
C429 C 0.01796 0.36044 0.47087 0.0
C430 C 0.02782 0.3912 0.47422 0.0
C431 C 0.04155 0.35487 0.47857 0.0
C432 C 0.00336 0.34848 0.42465 0.0
C433 C 0.97667 0.32826 0.43189 0.0
C434 C 0.95889 0.31495 0.39444 0.0
C435 C 0.9686 0.32266 0.34837 0.0
C436 C -0.00418 0.34358 0.34012 0.0
C437 C 0.0134 0.35639 0.37896 0.0
H438 H 0.63193 0.96871 0.91326 0.0
H439 H 0.68831 0.05619 0.90559 0.0
H440 H 0.69416 0.05775 -0.00792 0.0
H441 H 0.59813 0.97074 0.01288 0.0
H442 H 0.59308 0.93921 0.03803 0.0
H443 H 0.59628 0.94422 0.97524 0.0
H444 H 0.63626 0.9345 0.97526 0.0
H445 H 0.63314 0.9294 0.0382 0.0
H446 H 0.6653 0.95419 0.01312 0.0
H447 H 0.69056 0.05063 0.07944 0.0
H448 H 0.67671 0.03568 0.16139 0.0
H449 H 0.62212 0.95294 0.11191 0.0
C450 C 0.646 0.9881 0.92961 0.0
C451 C 0.65979 0.0123 0.90264 0.0
C452 C 0.67757 0.03737 0.92553 0.0
C453 C 0.68113 0.03845 0.9746 0.0
C454 C 0.66682 0.01429 0.00022 0.0
C455 C 0.64964 0.98957 0.97852 0.0
C456 C 0.63477 0.96705 0.01435 0.0
C457 C 0.60374 0.95459 0.00985 0.0
C458 C 0.64286 0.94498 0.00997 0.0
C459 C 0.64565 0.98313 0.05963 0.0
C460 C 0.66443 0.01024 0.05074 0.0
C461 C 0.67613 0.02938 0.0869 0.0
C462 C 0.66809 0.02068 0.13335 0.0
C463 C 0.64833 0.99311 0.14316 0.0
C464 C 0.63742 0.97409 0.10572 0.0
H465 H 0.6479 0.63833 0.39917 0.0
H466 H 0.61174 0.69004 0.39048 0.0
H467 H 0.61697 0.69701 0.47667 0.0
H468 H 0.61532 0.60458 0.50362 0.0
H469 H 0.64389 0.60263 0.52693 0.0
H470 H 0.63964 0.60378 0.46419 0.0
H471 H 0.68806 0.6462 0.45836 0.0
H472 H 0.69244 0.64519 0.52121 0.0
H473 H 0.69684 0.67595 0.49379 0.0
H474 H 0.62376 0.6963 0.56395 0.0
H475 H 0.62977 0.68641 0.64647 0.0
H476 H 0.66089 0.6346 0.59813 0.0
C477 C 0.64141 0.65144 0.41523 0.0
C478 C 0.62951 0.66374 0.38802 0.0
C479 C 0.62093 0.68041 0.41058 0.0
C480 C 0.62392 0.6846 0.45948 0.0
C481 C 0.63553 0.67199 0.48527 0.0
C482 C 0.6441 0.65571 0.46396 0.0
C483 C 0.65432 0.64311 0.5 0.0
C484 C 0.63726 0.61167 0.4986 0.0
C485 C 0.68472 0.65323 0.49291 0.0
C486 C 0.64964 0.6544 0.54501 0.0
C487 C 0.63912 0.67128 0.5357 0.0
C488 C 0.63219 0.68328 0.57169 0.0
C489 C 0.63568 0.67751 0.61848 0.0
C490 C 0.64582 0.65972 0.62888 0.0
C491 C 0.65327 0.64842 0.59147 0.0
H492 H 0.0596 0.58368 0.23937 0.0
H493 H 0.97367 0.55276 0.21211 0.0
H494 H 0.96672 0.50665 0.19942 0.0
H495 H 0.06852 0.54097 0.15435 0.0
H496 H 0.09105 0.53539 0.19182 0.0
H497 H 0.08983 0.5665 0.19708 0.0
H498 H 0.07898 0.5569 0.28601 0.0
H499 H 0.08015 0.52577 0.28102 0.0
H500 H 0.05022 0.52482 0.30409 0.0
H501 H 0.9686 0.46428 0.18947 0.0
H502 H 0.9787 0.42689 0.18641 0.0
H503 H 0.06314 0.48388 0.22306 0.0
C504 C 0.03939 0.56722 0.23042 0.0
C505 C 0.01718 0.57185 0.22662 0.0
C506 C 0.99097 0.54971 0.2154 0.0
C507 C 0.98681 0.52345 0.20795 0.0
C508 C 0.009 0.51952 0.2122 0.0
C509 C 0.03475 0.54065 0.22344 0.0
C510 C 0.05479 0.53042 0.22746 0.0
C511 C 0.07738 0.54414 0.19046 0.0
C512 C 0.06673 0.53473 0.27763 0.0
C513 C 0.03619 0.50027 0.21674 0.0
C514 C 0.00995 0.4946 0.20767 0.0
C515 C 0.98906 0.4684 0.19657 0.0
C516 C -0.00494 0.44729 0.19485 0.0
C517 C 0.02172 0.45237 0.20457 0.0
C518 C 0.04255 0.4793 0.21564 0.0
H519 H 0.47661 0.06079 0.74174 0.0
H520 H 0.41727 0.97384 0.74833 0.0
H521 H 0.4542 0.96345 0.75172 0.0
H522 H 0.52486 0.05444 0.66837 0.0
H523 H 0.5545 0.08097 0.69818 0.0
H524 H 0.52345 0.08222 0.69653 0.0
H525 H 0.52389 0.08479 0.78774 0.0
H526 H 0.55494 0.08352 0.78967 0.0
H527 H 0.52558 0.05875 0.82196 0.0
H528 H 0.49629 0.96161 0.75364 0.0
H529 H 0.54241 0.96842 0.75433 0.0
H530 H 0.5762 0.05647 0.7472 0.0
C531 C 0.47142 0.03959 0.74391 0.0
C532 C 0.44392 0.01817 0.74476 0.0
C533 C 0.43806 0.99069 0.74765 0.0
C534 C 0.45893 0.9845 0.74961 0.0
C535 C 0.48567 0.00595 0.74873 0.0
C536 C 0.49214 0.03294 0.74599 0.0
C537 C 0.52283 0.05189 0.74555 0.0
C538 C 0.53194 0.06835 0.69941 0.0
C539 C 0.53236 0.07086 0.78882 0.0
C540 C 0.53239 0.03119 0.74834 0.0
C541 C 0.51047 0.00487 0.75011 0.0
C542 C 0.51368 0.98211 0.75233 0.0
C543 C 0.54006 0.98626 0.75264 0.0
C544 C 0.56307 0.013 0.7508 0.0
C545 C 0.55909 0.03579 0.7488 0.0
H546 H 0.50762 0.578 0.2352 0.0
H547 H 0.56355 0.54907 0.20299 0.0
H548 H 0.5251 0.50215 0.19629 0.0
H549 H 0.4628 0.52113 0.30641 0.0
H550 H 0.43211 0.5199 0.28586 0.0
H551 H 0.46386 0.55185 0.28585 0.0
H552 H 0.45788 0.55764 0.19666 0.0
H553 H 0.4261 0.52566 0.19639 0.0
H554 H 0.45272 0.53088 0.15623 0.0
H555 H 0.48188 0.45851 0.19641 0.0
H556 H 0.43536 0.41961 0.2037 0.0
H557 H 0.40603 0.47545 0.2352 0.0
C558 C 0.51173 0.56183 0.22636 0.0
C559 C 0.53869 0.56734 0.21964 0.0
C560 C 0.54317 0.5455 0.20843 0.0
C561 C 0.52144 0.51871 0.20437 0.0
C562 C 0.49524 0.51396 0.21148 0.0
C563 C 0.49016 0.53478 0.22218 0.0
C564 C 0.45994 0.52362 0.22955 0.0
C565 C 0.45436 0.52947 0.27992 0.0
C566 C 0.44849 0.53514 0.19249 0.0
C567 C 0.44903 0.49328 0.22195 0.0
C568 C 0.46986 0.48834 0.21136 0.0
C569 C 0.46533 0.46206 0.20438 0.0
C570 C 0.43879 0.44009 0.20876 0.0
C571 C 0.417 0.44444 0.21998 0.0
C572 C 0.42221 0.47149 0.22613 0.0
H573 H 0.98925 0.54702 0.72964 0.0
H574 H 0.90269 0.51679 0.74467 0.0
H575 H 0.89409 0.46952 0.74785 0.0
H576 H 0.98331 0.4938 0.65539 0.0
H577 H 0.01134 0.49218 0.68213 0.0
H578 H 0.01094 0.52381 0.68254 0.0
H579 H 0.01598 0.52614 0.77359 0.0
H580 H 0.01652 0.49457 0.77346 0.0
H581 H 0.99192 0.49764 0.80866 0.0
H582 H 0.89454 0.42561 0.74542 0.0
H583 H 0.9042 0.38779 0.74174 0.0
H584 H 0.99062 0.44653 0.73036 0.0
C585 C 0.96849 0.53049 0.73385 0.0
C586 C 0.94664 0.53563 0.7368 0.0
C587 C 0.91978 0.5134 0.74242 0.0
C588 C 0.91467 0.48646 0.74419 0.0
C589 C 0.93663 0.48212 0.74067 0.0
C590 C 0.96302 0.50349 0.73602 0.0
C591 C 0.98294 0.49319 0.73276 0.0
C592 C -0.00199 0.50122 0.68538 0.0
C593 C 0.00302 0.5035 0.77462 0.0
C594 C 0.96356 0.46265 0.73572 0.0
C595 C 0.93694 0.45674 0.74017 0.0
C596 C 0.91531 0.42997 0.74226 0.0
C597 C 0.92102 0.40864 0.73996 0.0
C598 C 0.94818 0.41419 0.73585 0.0
C599 C 0.96968 0.44161 0.7338 0.0
H600 H 0.40664 0.93564 0.2237 0.0
H601 H 0.44021 0.02324 0.20795 0.0
H602 H 0.48628 0.03074 0.22134 0.0
H603 H 0.45179 0.93865 0.31494 0.0
H604 H 0.45517 0.91076 0.29235 0.0
H605 H 0.42451 0.91185 0.281 0.0
H606 H 0.43052 0.90884 0.19114 0.0
H607 H 0.46113 0.90759 0.20222 0.0
H608 H 0.46198 0.93343 0.1637 0.0
H609 H 0.52809 0.02938 0.24057 0.0
H610 H 0.56438 0.01893 0.258 0.0
H611 H 0.50486 0.93206 0.25742 0.0
C612 C 0.42371 0.95637 0.2229 0.0
C613 C 0.41979 0.97885 0.21488 0.0
C614 C 0.44267 0.00567 0.21382 0.0
C615 C 0.46894 0.01018 0.22156 0.0
C616 C 0.47208 0.98766 0.22975 0.0
C617 C 0.45023 0.96125 0.2299 0.0
C618 C 0.45951 0.94074 0.23894 0.0
C619 C 0.447 0.92455 0.28452 0.0
C620 C 0.45289 0.92152 0.19646 0.0
C621 C 0.48994 0.95984 0.24437 0.0
C622 C 0.49662 0.98681 0.23927 0.0
C623 C 0.52321 0.00834 0.24426 0.0
C624 C 0.54365 0.00218 0.2544 0.0
C625 C 0.53746 0.97468 0.25894 0.0
C626 C 0.51021 0.95325 0.25376 0.0
H627 H 0.57623 0.52168 0.76167 0.0
H628 H 0.54396 0.57655 0.77504 0.0
H629 H 0.49738 0.53744 0.76839 0.0
H630 H 0.52735 0.47602 0.67751 0.0
H631 H 0.52465 0.44551 0.70295 0.0
H632 H 0.5558 0.47777 0.70923 0.0
H633 H 0.55329 0.47201 0.80006 0.0
H634 H 0.52214 0.4397 0.79405 0.0
H635 H 0.5231 0.46624 0.83043 0.0
H636 H 0.45465 0.49342 0.75615 0.0
H637 H 0.41755 0.44595 0.74416 0.0
H638 H 0.47645 0.41848 0.74286 0.0
C639 C 0.55934 0.52542 0.76332 0.0
C640 C 0.5638 0.55222 0.76882 0.0
C641 C 0.54113 0.55624 0.77107 0.0
C642 C 0.51455 0.53416 0.7672 0.0
C643 C 0.51086 0.50809 0.76164 0.0
C644 C 0.53252 0.50348 0.76018 0.0
C645 C 0.52266 0.47324 0.75438 0.0
C646 C 0.53324 0.46783 0.70827 0.0
C647 C 0.53078 0.46215 0.79729 0.0
C648 C 0.49212 0.46173 0.75226 0.0
C649 C 0.48587 0.48228 0.75623 0.0
C650 C 0.45922 0.47707 0.75344 0.0
C651 C 0.43831 0.45006 0.74645 0.0
C652 C 0.44411 0.42854 0.74285 0.0
C653 C 0.4714 0.43449 0.74608 0.0
H654 H 0.16386 0.43627 0.21596 0.0
H655 H 0.11948 0.37867 0.32779 0.0
H656 H 0.1601 0.3756 0.3475 0.0
H657 H 0.19559 0.40292 0.17464 0.0
H658 H 0.2279 0.43262 0.16091 0.0
H659 H 0.19755 0.43504 0.16114 0.0
H660 H 0.21958 0.4746 0.22174 0.0
H661 H 0.25021 0.47252 0.22136 0.0
H662 H 0.23322 0.46982 0.27622 0.0
H663 H 0.20114 0.37196 0.34615 0.0
H664 H 0.24214 0.36978 0.32656 0.0
H665 H 0.26202 0.43046 0.2169 0.0
C666 C 0.16313 0.42387 0.24571 0.0
C667 C 0.13865 0.40787 0.27068 0.0
C668 C 0.13807 0.39115 0.30839 0.0
C669 C 0.16107 0.38936 0.31996 0.0
C670 C 0.18457 0.40448 0.29358 0.0
C671 C 0.18599 0.42168 0.25755 0.0
C672 C 0.21285 0.43325 0.23158 0.0
C673 C 0.20818 0.42548 0.17897 0.0
C674 C 0.22998 0.4644 0.23813 0.0
C675 C 0.22561 0.41882 0.25723 0.0
C676 C 0.20898 0.40261 0.29323 0.0
C677 C 0.2147 0.38507 0.31892 0.0
C678 C 0.23791 0.38384 0.30733 0.0
C679 C 0.25526 0.40016 0.27066 0.0
C680 C 0.24936 0.41829 0.24585 0.0
H681 H 0.85866 0.22445 0.74608 0.0
H682 H 0.83136 0.28358 0.7388 0.0
H683 H 0.7836 0.24605 0.74333 0.0
H684 H 0.80513 0.17255 0.67594 0.0
H685 H 0.80251 0.14467 0.71095 0.0
H686 H 0.8345 0.17625 0.70735 0.0
H687 H 0.83634 0.18019 0.79854 0.0
H688 H 0.80432 0.14864 0.8024 0.0
H689 H 0.80827 0.17925 0.82941 0.0
H690 H 0.73867 0.20183 0.74648 0.0
H691 H 0.7001 0.15425 0.74974 0.0
H692 H 0.75714 0.12454 0.75734 0.0
C693 C 0.84264 0.22951 0.7454 0.0
C694 C 0.8487 0.25691 0.74196 0.0
C695 C 0.82717 0.26271 0.74144 0.0
C696 C 0.79998 0.24155 0.74399 0.0
C697 C 0.79471 0.21475 0.74738 0.0
C698 C 0.81543 0.20869 0.7483 0.0
C699 C 0.80432 0.1782 0.75231 0.0
C700 C 0.81207 0.16728 0.70906 0.0
C701 C 0.81388 0.17117 0.79841 0.0
C702 C 0.7741 0.16805 0.75311 0.0
C703 C 0.76893 0.18941 0.75016 0.0
C704 C 0.74247 0.18494 0.74909 0.0
C705 C 0.72071 0.15789 0.75093 0.0
C706 C 0.72563 0.13574 0.75405 0.0
C707 C 0.75271 0.14104 0.7554 0.0
H708 H 0.61349 0.75972 0.23032 0.0
H709 H 0.5272 0.69983 0.22816 0.0
H710 H 0.51669 0.73737 0.22347 0.0
H711 H 0.61018 0.80882 0.30165 0.0
H712 H 0.63631 0.83769 0.27001 0.0
H713 H 0.63648 0.80599 0.27156 0.0
H714 H 0.63647 0.80502 0.1801 0.0
H715 H 0.63612 0.83669 0.17828 0.0
H716 H 0.61009 0.80701 0.14775 0.0
H717 H 0.51618 0.78229 0.22389 0.0
H718 H 0.52569 0.83005 0.22886 0.0
H719 H 0.61237 0.85918 0.22705 0.0
C720 C 0.59235 0.75442 0.22884 0.0
C721 C 0.57113 0.72691 0.22993 0.0
C722 C 0.54375 0.72084 0.22746 0.0
C723 C 0.53762 0.74199 0.22468 0.0
C724 C 0.55913 0.76897 0.22373 0.0
C725 C 0.58593 0.77513 0.22546 0.0
C726 C 0.60543 0.80561 0.22463 0.0
C727 C 0.62313 0.81507 0.26964 0.0
C728 C 0.62306 0.81407 0.18003 0.0
C729 C 0.58547 0.8158 0.22327 0.0
C730 C 0.55883 0.79446 0.22259 0.0
C731 C 0.53696 0.79913 0.22384 0.0
C732 C 0.54255 0.82629 0.22662 0.0
C733 C 0.56976 0.84831 0.22798 0.0
C734 C 0.59135 0.84285 0.22543 0.0
H735 H 0.85543 0.63469 0.72905 0.0
H736 H 0.82707 0.54788 0.74059 0.0
H737 H 0.77948 0.53775 0.73556 0.0
H738 H 0.80304 0.63448 0.79859 0.0
H739 H 0.80065 0.65948 0.76246 0.0
H740 H 0.83233 0.65961 0.76657 0.0
H741 H 0.83309 0.65615 0.6755 0.0
H742 H 0.80123 0.65569 0.67116 0.0
H743 H 0.80454 0.62843 0.64537 0.0
H744 H 0.7349 0.53723 0.73083 0.0
H745 H 0.69681 0.54656 0.72995 0.0
H746 H 0.75462 0.63358 0.71952 0.0
C747 C 0.83922 0.61355 0.73072 0.0
C748 C 0.84494 0.59207 0.73534 0.0
C749 C 0.82315 0.56467 0.73714 0.0
C750 C 0.79606 0.5587 0.73413 0.0
C751 C 0.79113 0.58035 0.72907 0.0
C752 C 0.8121 0.60722 0.7275 0.0
C753 C 0.80135 0.62674 0.72251 0.0
C754 C 0.80984 0.64621 0.76507 0.0
C755 C 0.81061 0.64269 0.67586 0.0
C756 C 0.77104 0.60669 0.72209 0.0
C757 C 0.76553 0.58001 0.72568 0.0
C758 C 0.73896 0.55802 0.7277 0.0
C759 C 0.71747 0.56351 0.72705 0.0
C760 C 0.72274 0.59076 0.72436 0.0
C761 C 0.74989 0.6125 0.721 0.0
H762 H 0.22917 0.86648 0.25212 0.0
H763 H 0.28838 0.83947 0.25143 0.0
H764 H 0.25091 0.79128 0.2512 0.0
H765 H 0.17822 0.81133 0.32569 0.0
H766 H 0.15029 0.80956 0.29219 0.0
H767 H 0.18185 0.84154 0.29724 0.0
H768 H 0.18475 0.8452 0.20606 0.0
H769 H 0.15344 0.81308 0.2007 0.0
H770 H 0.18375 0.81776 0.17227 0.0
H771 H 0.20643 0.74587 0.24653 0.0
H772 H 0.15898 0.70744 0.23923 0.0
H773 H 0.12997 0.76525 0.23971 0.0
C774 C 0.23433 0.85047 0.25295 0.0
C775 C 0.26168 0.8567 0.25216 0.0
C776 C 0.26753 0.83513 0.25236 0.0
C777 C 0.2464 0.80772 0.25214 0.0
C778 C 0.21961 0.80231 0.25162 0.0
C779 C 0.21358 0.82314 0.25227 0.0
C780 C 0.18326 0.81212 0.24895 0.0
C781 C 0.17279 0.81904 0.29369 0.0
C782 C 0.17588 0.82267 0.20434 0.0
C783 C 0.17313 0.78184 0.24565 0.0
C784 C 0.1943 0.77648 0.24765 0.0
C785 C 0.18971 0.74985 0.24507 0.0
C786 C 0.16274 0.72819 0.24076 0.0
C787 C 0.14084 0.73338 0.2386 0.0
C788 C 0.14627 0.7606 0.24089 0.0
H789 H 0.36921 0.23646 0.75477 0.0
H790 H 0.45544 0.29582 0.76573 0.0
H791 H 0.46573 0.25811 0.76477 0.0
H792 H 0.3695 0.18306 0.82632 0.0
H793 H 0.34465 0.15614 0.78916 0.0
H794 H 0.34448 0.18776 0.79481 0.0
H795 H 0.34783 0.19359 0.70392 0.0
H796 H 0.34832 0.16218 0.69801 0.0
H797 H 0.37545 0.19338 0.67344 0.0
H798 H 0.46615 0.21312 0.7596 0.0
H799 H 0.45663 0.16548 0.75054 0.0
H800 H 0.37027 0.13718 0.73953 0.0
C801 C 0.39027 0.2416 0.7578 0.0
C802 C 0.41153 0.26906 0.7607 0.0
C803 C 0.43882 0.27488 0.76379 0.0
C804 C 0.44484 0.25361 0.76321 0.0
C805 C 0.42333 0.22673 0.75932 0.0
C806 C 0.3966 0.22077 0.75677 0.0
C807 C 0.37716 0.19049 0.75047 0.0
C808 C 0.35781 0.17867 0.79271 0.0
C809 C 0.36127 0.18458 0.70368 0.0
C810 C 0.39709 0.18025 0.74941 0.0
C811 C 0.42363 0.20131 0.75496 0.0
C812 C 0.44543 0.1965 0.75524 0.0
C813 C 0.43985 0.16943 0.74998 0.0
C814 C 0.41275 0.14769 0.74399 0.0
C815 C 0.39125 0.15336 0.7436 0.0
loop_
_geom_bond_atom_site_label_1
_geom_bond_atom_site_label_2
_geom_bond_distance
_geom_bond_site_symmetry_2
_ccdc_geom_bond_type
C0 O1 1.306 . S
C0 O3 1.160 . S
O1 C0 1.306 . S
O1 Cd2 2.228 1_455 S
Cd2 O1 2.228 1_655 S
Cd2 O6 2.273 1_655 S
Cd2 O10 2.277 1_655 S
O3 C0 1.160 . S
O3 Cd4 2.203 . S
Cd4 O3 2.203 . S
Cd4 O6 2.411 . S
Cd4 O7 2.333 . S
Cd4 O8 2.352 . S
Cd4 O12 2.277 . S
Cd4 O13 2.356 . S
C5 O10 1.209 . S
C5 O12 1.226 . S
O6 Cd2 2.273 1_455 S
O6 Cd4 2.411 . S
O6 C9 1.320 . S
O7 Cd4 2.333 . S
O7 C9 1.214 . S
O8 Cd4 2.352 . S
O8 C11 1.258 . S
C9 O6 1.320 . S
C9 O7 1.214 . S
O10 Cd2 2.277 1_455 S
O10 C5 1.209 . S
C11 O8 1.258 . S
C11 O13 1.282 . S
O12 Cd4 2.277 . S
O12 C5 1.226 . S
O13 Cd4 2.356 . S
O13 C11 1.282 . S
C14 O15 1.306 . S
C14 O17 1.160 . S
O15 C14 1.306 . S
O15 Cd16 2.228 1_545 S
Cd16 O15 2.228 1_565 S
Cd16 O20 2.273 1_565 S
Cd16 O24 2.277 1_565 S
O17 C14 1.160 . S
O17 Cd18 2.203 . S
Cd18 O17 2.203 . S
Cd18 O20 2.411 . S
Cd18 O21 2.333 . S
Cd18 O22 2.352 . S
Cd18 O26 2.277 . S
Cd18 O27 2.356 . S
C19 O24 1.209 . S
C19 O26 1.226 . S
O20 Cd16 2.273 1_545 S
O20 Cd18 2.411 . S
O20 C23 1.320 . S
O21 Cd18 2.333 . S
O21 C23 1.214 . S
O22 Cd18 2.352 . S
O22 C25 1.258 . S
C23 O20 1.320 . S
C23 O21 1.214 . S
O24 Cd16 2.277 1_545 S
O24 C19 1.209 . S
C25 O22 1.258 . S
C25 O27 1.282 . S
O26 Cd18 2.277 . S
O26 C19 1.226 . S
O27 Cd18 2.356 . S
O27 C25 1.282 . S
C28 O29 1.306 . S
C28 O31 1.160 . S
O29 C28 1.306 . S
O29 Cd30 2.228 . S
Cd30 O29 2.228 . S
Cd30 O34 2.273 . S
Cd30 O38 2.277 . S
O31 C28 1.160 . S
O31 Cd32 2.203 . S
Cd32 O31 2.203 . S
Cd32 O34 2.411 . S
Cd32 O35 2.333 . S
Cd32 O36 2.352 . S
Cd32 O40 2.277 . S
Cd32 O41 2.356 . S
C33 O38 1.209 . S
C33 O40 1.226 . S
O34 Cd30 2.273 . S
O34 Cd32 2.411 . S
O34 C37 1.320 . S
O35 Cd32 2.333 . S
O35 C37 1.214 . S
O36 Cd32 2.352 . S
O36 C39 1.258 . S
C37 O34 1.320 . S
C37 O35 1.214 . S
O38 Cd30 2.277 . S
O38 C33 1.209 . S
C39 O36 1.258 . S
C39 O41 1.282 . S
O40 Cd32 2.277 . S
O40 C33 1.226 . S
O41 Cd32 2.356 . S
O41 C39 1.282 . S
C42 O43 1.306 . S
C42 O45 1.160 . S
O43 C42 1.306 . S
O43 Cd44 2.228 1_655 S
Cd44 O43 2.228 1_455 S
Cd44 O48 2.273 1_455 S
Cd44 O52 2.277 1_455 S
O45 C42 1.160 . S
O45 Cd46 2.203 . S
Cd46 O45 2.203 . S
Cd46 O48 2.411 . S
Cd46 O49 2.333 . S
Cd46 O50 2.352 . S
Cd46 O54 2.277 . S
Cd46 O55 2.356 . S
C47 O52 1.209 . S
C47 O54 1.226 . S
O48 Cd44 2.273 1_655 S
O48 Cd46 2.411 . S
O48 C51 1.320 . S
O49 Cd46 2.333 . S
O49 C51 1.214 . S
O50 Cd46 2.352 . S
O50 C53 1.258 . S
C51 O48 1.320 . S
C51 O49 1.214 . S
O52 Cd44 2.277 1_655 S
O52 C47 1.209 . S
C53 O50 1.258 . S
C53 O55 1.282 . S
O54 Cd46 2.277 . S
O54 C47 1.226 . S
O55 Cd46 2.356 . S
O55 C53 1.282 . S
C56 O57 1.306 . S
C56 O59 1.160 . S
O57 C56 1.306 . S
O57 Cd58 2.228 1_565 S
Cd58 O57 2.228 1_545 S
Cd58 O62 2.273 1_545 S
Cd58 O66 2.277 1_545 S
O59 C56 1.160 . S
O59 Cd60 2.203 . S
Cd60 O59 2.203 . S
Cd60 O62 2.411 . S
Cd60 O63 2.333 . S
Cd60 O64 2.352 . S
Cd60 O68 2.277 . S
Cd60 O69 2.356 . S
C61 O66 1.209 . S
C61 O68 1.226 . S
O62 Cd58 2.273 1_565 S
O62 Cd60 2.411 . S
O62 C65 1.320 . S
O63 Cd60 2.333 . S
O63 C65 1.214 . S
O64 Cd60 2.352 . S
O64 C67 1.258 . S
C65 O62 1.320 . S
C65 O63 1.214 . S
O66 Cd58 2.277 1_565 S
O66 C61 1.209 . S
C67 O64 1.258 . S
C67 O69 1.282 . S
O68 Cd60 2.277 . S
O68 C61 1.226 . S
O69 Cd60 2.356 . S
O69 C67 1.282 . S
C70 O71 1.306 . S
C70 O73 1.160 . S
O71 C70 1.306 . S
O71 Cd72 2.228 . S
Cd72 O71 2.228 . S
Cd72 O76 2.273 . S
Cd72 O80 2.277 . S
O73 C70 1.160 . S
O73 Cd74 2.203 . S
Cd74 O73 2.203 . S
Cd74 O76 2.411 . S
Cd74 O77 2.333 . S
Cd74 O78 2.352 . S
Cd74 O82 2.277 . S
Cd74 O83 2.356 . S
C75 O80 1.209 . S
C75 O82 1.226 . S
O76 Cd72 2.273 . S
O76 Cd74 2.411 . S
O76 C79 1.320 . S
O77 Cd74 2.333 . S
O77 C79 1.214 . S
O78 Cd74 2.352 . S
O78 C81 1.258 . S
C79 O76 1.320 . S
C79 O77 1.214 . S
O80 Cd72 2.277 . S
O80 C75 1.209 . S
C81 O78 1.258 . S
C81 O83 1.282 . S
O82 Cd74 2.277 . S
O82 C75 1.226 . S
O83 Cd74 2.356 . S
O83 C81 1.282 . S
C84 O85 1.306 . S
C84 O87 1.160 . S
O85 C84 1.306 . S
O85 Cd86 2.228 1_565 S
Cd86 O85 2.228 1_545 S
Cd86 O90 2.273 1_545 S
Cd86 O94 2.277 1_545 S
O87 C84 1.160 . S
O87 Cd88 2.203 . S
Cd88 O87 2.203 . S
Cd88 O90 2.411 . S
Cd88 O91 2.333 . S
Cd88 O92 2.352 . S
Cd88 O96 2.277 . S
Cd88 O97 2.356 . S
C89 O94 1.209 . S
C89 O96 1.226 . S
O90 Cd86 2.273 1_565 S
O90 Cd88 2.411 . S
O90 C93 1.320 . S
O91 Cd88 2.333 . S
O91 C93 1.214 . S
O92 Cd88 2.352 . S
O92 C95 1.258 . S
C93 O90 1.320 . S
C93 O91 1.214 . S
O94 Cd86 2.277 1_565 S
O94 C89 1.209 . S
C95 O92 1.258 . S
C95 O97 1.282 . S
O96 Cd88 2.277 . S
O96 C89 1.226 . S
O97 Cd88 2.356 . S
O97 C95 1.282 . S
C98 O99 1.306 . S
C98 O101 1.160 . S
O99 C98 1.306 . S
O99 Cd100 2.228 . S
Cd100 O99 2.228 . S
Cd100 O104 2.273 . S
Cd100 O108 2.277 . S
O101 C98 1.160 . S
O101 Cd102 2.203 . S
Cd102 O101 2.203 . S
Cd102 O104 2.411 . S
Cd102 O105 2.333 . S
Cd102 O106 2.352 . S
Cd102 O110 2.277 . S
Cd102 O111 2.356 . S
C103 O108 1.209 . S
C103 O110 1.226 . S
O104 Cd100 2.273 . S
O104 Cd102 2.411 . S
O104 C107 1.320 . S
O105 Cd102 2.333 . S
O105 C107 1.214 . S
O106 Cd102 2.352 . S
O106 C109 1.258 . S
C107 O104 1.320 . S
C107 O105 1.214 . S
O108 Cd100 2.277 . S
O108 C103 1.209 . S
C109 O106 1.258 . S
C109 O111 1.282 . S
O110 Cd102 2.277 . S
O110 C103 1.226 . S
O111 Cd102 2.356 . S
O111 C109 1.282 . S
C112 O113 1.306 . S
C112 O115 1.160 . S
O113 C112 1.306 . S
O113 Cd114 2.228 1_455 S
Cd114 O113 2.228 1_655 S
Cd114 O118 2.273 1_655 S
Cd114 O122 2.277 1_655 S
O115 C112 1.160 . S
O115 Cd116 2.203 . S
Cd116 O115 2.203 . S
Cd116 O118 2.411 . S
Cd116 O119 2.333 . S
Cd116 O120 2.352 . S
Cd116 O124 2.277 . S
Cd116 O125 2.356 . S
C117 O122 1.209 . S
C117 O124 1.226 . S
O118 Cd114 2.273 1_455 S
O118 Cd116 2.411 . S
O118 C121 1.320 . S
O119 Cd116 2.333 . S
O119 C121 1.214 . S
O120 Cd116 2.352 . S
O120 C123 1.258 . S
C121 O118 1.320 . S
C121 O119 1.214 . S
O122 Cd114 2.277 1_455 S
O122 C117 1.209 . S
C123 O120 1.258 . S
C123 O125 1.282 . S
O124 Cd116 2.277 . S
O124 C117 1.226 . S
O125 Cd116 2.356 . S
O125 C123 1.282 . S
C126 O127 1.306 . S
C126 O129 1.160 . S
O127 C126 1.306 . S
O127 Cd128 2.228 1_545 S
Cd128 O127 2.228 1_565 S
Cd128 O132 2.273 1_565 S
Cd128 O136 2.277 1_565 S
O129 C126 1.160 . S
O129 Cd130 2.203 . S
Cd130 O129 2.203 . S
Cd130 O132 2.411 . S
Cd130 O133 2.333 . S
Cd130 O134 2.352 . S
Cd130 O138 2.277 . S
Cd130 O139 2.356 . S
C131 O136 1.209 . S
C131 O138 1.226 . S
O132 Cd128 2.273 1_545 S
O132 Cd130 2.411 . S
O132 C135 1.320 . S
O133 Cd130 2.333 . S
O133 C135 1.214 . S
O134 Cd130 2.352 . S
O134 C137 1.258 . S
C135 O132 1.320 . S
C135 O133 1.214 . S
O136 Cd128 2.277 1_545 S
O136 C131 1.209 . S
C137 O134 1.258 . S
C137 O139 1.282 . S
O138 Cd130 2.277 . S
O138 C131 1.226 . S
O139 Cd130 2.356 . S
O139 C137 1.282 . S
C140 O141 1.306 . S
C140 O143 1.160 . S
O141 C140 1.306 . S
O141 Cd142 2.228 . S
Cd142 O141 2.228 . S
Cd142 O146 2.273 . S
Cd142 O150 2.277 . S
O143 C140 1.160 . S
O143 Cd144 2.203 . S
Cd144 O143 2.203 . S
Cd144 O146 2.411 . S
Cd144 O147 2.333 . S
Cd144 O148 2.352 . S
Cd144 O152 2.277 . S
Cd144 O153 2.356 . S
C145 O150 1.209 . S
C145 O152 1.226 . S
O146 Cd142 2.273 . S
O146 Cd144 2.411 . S
O146 C149 1.320 . S
O147 Cd144 2.333 . S
O147 C149 1.214 . S
O148 Cd144 2.352 . S
O148 C151 1.258 . S
C149 O146 1.320 . S
C149 O147 1.214 . S
O150 Cd142 2.277 . S
O150 C145 1.209 . S
C151 O148 1.258 . S
C151 O153 1.282 . S
O152 Cd144 2.277 . S
O152 C145 1.226 . S
O153 Cd144 2.356 . S
O153 C151 1.282 . S
C154 O155 1.306 . S
C154 O157 1.160 . S
O155 C154 1.306 . S
O155 Cd156 2.228 1_655 S
Cd156 O155 2.228 1_455 S
Cd156 O160 2.273 1_455 S
Cd156 O164 2.277 1_455 S
O157 C154 1.160 . S
O157 Cd158 2.203 . S
Cd158 O157 2.203 . S
Cd158 O160 2.411 . S
Cd158 O161 2.333 . S
Cd158 O162 2.352 . S
Cd158 O166 2.277 . S
Cd158 O167 2.356 . S
C159 O164 1.209 . S
C159 O166 1.226 . S
O160 Cd156 2.273 1_655 S
O160 Cd158 2.411 . S
O160 C163 1.320 . S
O161 Cd158 2.333 . S
O161 C163 1.214 . S
O162 Cd158 2.352 . S
O162 C165 1.258 . S
C163 O160 1.320 . S
C163 O161 1.214 . S
O164 Cd156 2.277 1_655 S
O164 C159 1.209 . S
C165 O162 1.258 . S
C165 O167 1.282 . S
O166 Cd158 2.277 . S
O166 C159 1.226 . S
O167 Cd158 2.356 . S
O167 C165 1.282 . S
H168 C180 0.930 . S
H169 C182 0.930 . S
H170 C183 0.930 . S
H171 C187 0.959 . S
H172 C187 0.959 1_556 S
H173 C187 0.961 . S
H174 C188 0.960 1_554 S
H175 C188 0.961 . S
H176 C188 0.959 . S
H177 C191 0.929 . S
H178 C192 0.931 . S
H179 C194 0.930 . S
C180 H168 0.930 . S
C180 C181 1.399 . S
C180 C185 1.399 . S
C181 C180 1.399 . S
C181 C182 1.376 . S
C182 H169 0.930 . S
C182 C181 1.376 . S
C182 C183 1.388 . S
C183 H170 0.930 . S
C183 C182 1.388 . S
C183 C184 1.390 . S
C184 C183 1.390 . S
C184 C185 1.394 . S
C184 C190 1.465 1_454 S
C185 C180 1.399 . S
C185 C184 1.394 . S
C185 C186 1.516 1_554 S
C186 C185 1.516 1_556 S
C186 C187 1.502 1_456 S
C186 C188 1.561 . S
C186 C189 1.526 1_455 S
C187 H171 0.959 . S
C187 H172 0.959 1_554 S
C187 H173 0.961 . S
C187 C186 1.502 1_654 S
C188 H174 0.960 1_556 S
C188 H175 0.961 . S
C188 H176 0.959 . S
C188 C186 1.561 . S
C189 C186 1.526 1_655 S
C189 C190 1.396 . S
C189 C194 1.390 . S
C190 C184 1.465 1_656 S
C190 C189 1.396 . S
C190 C191 1.399 . S
C191 H177 0.929 . S
C191 C190 1.399 . S
C191 C192 1.385 . S
C192 H178 0.931 . S
C192 C191 1.385 . S
C192 C193 1.389 . S
C193 C192 1.389 . S
C193 C194 1.387 . S
C194 H179 0.930 . S
C194 C189 1.390 . S
C194 C193 1.387 . S
H195 C207 0.930 . S
H196 C209 0.930 . S
H197 C210 0.930 . S
H198 C214 0.959 . S
H199 C214 0.959 . S
H200 C214 0.961 . S
H201 C215 0.960 . S
H202 C215 0.961 . S
H203 C215 0.959 . S
H204 C218 0.929 . S
H205 C219 0.931 . S
H206 C221 0.930 . S
C207 H195 0.930 . S
C207 C208 1.399 1_545 S
C207 C212 1.399 . S
C208 C207 1.399 1_565 S
C208 C209 1.376 . S
C209 H196 0.930 . S
C209 C208 1.376 . S
C209 C210 1.388 . S
C210 H197 0.930 . S
C210 C209 1.388 . S
C210 C211 1.390 . S
C211 C210 1.390 . S
C211 C212 1.394 1_565 S
C211 C217 1.465 . S
C212 C207 1.399 . S
C212 C211 1.394 1_545 S
C212 C213 1.516 . S
C213 C212 1.516 . S
C213 C214 1.502 . S
C213 C215 1.561 . S
C213 C216 1.526 . S
C214 H198 0.959 . S
C214 H199 0.959 . S
C214 H200 0.961 . S
C214 C213 1.502 . S
C215 H201 0.960 . S
C215 H202 0.961 . S
C215 H203 0.959 . S
C215 C213 1.561 . S
C216 C213 1.526 . S
C216 C217 1.396 1_545 S
C216 C221 1.390 . S
C217 C211 1.465 . S
C217 C216 1.396 1_565 S
C217 C218 1.399 . S
C218 H204 0.929 . S
C218 C217 1.399 . S
C218 C219 1.385 . S
C219 H205 0.931 . S
C219 C218 1.385 . S
C219 C220 1.389 1_565 S
C220 C219 1.389 1_545 S
C220 C221 1.387 . S
C221 H206 0.930 . S
C221 C216 1.390 . S
C221 C220 1.387 . S
H222 C234 0.930 . S
H223 C236 0.930 . S
H224 C237 0.930 . S
H225 C241 0.959 . S
H226 C241 0.959 . S
H227 C241 0.961 . S
H228 C242 0.960 1_554 S
H229 C242 0.961 . S
H230 C242 0.959 . S
H231 C245 0.929 . S
H232 C246 0.931 . S
H233 C248 0.930 . S
C234 H222 0.930 . S
C234 C235 1.399 . S
C234 C239 1.399 . S
C235 C234 1.399 . S
C235 C236 1.376 . S
C236 H223 0.930 . S
C236 C235 1.376 . S
C236 C237 1.388 . S
C237 H224 0.930 . S
C237 C236 1.388 . S
C237 C238 1.390 . S
C238 C237 1.390 . S
C238 C239 1.394 . S
C238 C244 1.465 1_554 S
C239 C234 1.399 . S
C239 C238 1.394 . S
C239 C240 1.516 1_554 S
C240 C239 1.516 1_556 S
C240 C241 1.502 . S
C240 C242 1.561 . S
C240 C243 1.526 . S
C241 H225 0.959 . S
C241 H226 0.959 . S
C241 H227 0.961 . S
C241 C240 1.502 . S
C242 H228 0.960 1_556 S
C242 H229 0.961 . S
C242 H230 0.959 . S
C242 C240 1.561 . S
C243 C240 1.526 . S
C243 C244 1.396 . S
C243 C248 1.390 . S
C244 C238 1.465 1_556 S
C244 C243 1.396 . S
C244 C245 1.399 . S
C245 H231 0.929 . S
C245 C244 1.399 . S
C245 C246 1.385 . S
C246 H232 0.931 . S
C246 C245 1.385 . S
C246 C247 1.389 . S
C247 C246 1.389 . S
C247 C248 1.387 . S
C248 H233 0.930 . S
C248 C243 1.390 . S
C248 C247 1.387 . S
H249 C261 0.930 . S
H250 C263 0.930 . S
H251 C264 0.930 . S
H252 C268 0.959 . S
H253 C268 0.959 . S
H254 C268 0.961 . S
H255 C269 0.960 . S
H256 C269 0.961 . S
H257 C269 0.959 1_655 S
H258 C272 0.929 . S
H259 C273 0.931 . S
H260 C275 0.930 1_455 S
C261 H249 0.930 . S
C261 C262 1.399 . S
C261 C266 1.399 . S
C262 C261 1.399 . S
C262 C263 1.376 1_455 S
C263 H250 0.930 . S
C263 C262 1.376 1_655 S
C263 C264 1.388 . S
C264 H251 0.930 . S
C264 C263 1.388 . S
C264 C265 1.390 . S
C265 C264 1.390 . S
C265 C266 1.394 1_655 S
C265 C271 1.465 . S
C266 C261 1.399 . S
C266 C265 1.394 1_455 S
C266 C267 1.516 . S
C267 C266 1.516 . S
C267 C268 1.502 . S
C267 C269 1.561 . S
C267 C270 1.526 . S
C268 H252 0.959 . S
C268 H253 0.959 . S
C268 H254 0.961 . S
C268 C267 1.502 . S
C269 H255 0.960 . S
C269 H256 0.961 . S
C269 H257 0.959 1_455 S
C269 C267 1.561 . S
C270 C267 1.526 . S
C270 C271 1.396 1_455 S
C270 C275 1.390 1_455 S
C271 C265 1.465 . S
C271 C270 1.396 1_655 S
C271 C272 1.399 . S
C272 H258 0.929 . S
C272 C271 1.399 . S
C272 C273 1.385 . S
C273 H259 0.931 . S
C273 C272 1.385 . S
C273 C274 1.389 . S
C274 C273 1.389 . S
C274 C275 1.387 . S
C275 H260 0.930 1_655 S
C275 C270 1.390 1_655 S
C275 C274 1.387 . S
H276 C288 0.930 . S
H277 C290 0.930 . S
H278 C291 0.930 . S
H279 C295 0.959 . S
H280 C295 0.959 . S
H281 C295 0.961 . S
H282 C296 0.960 . S
H283 C296 0.961 . S
H284 C296 0.959 . S
H285 C299 0.929 . S
H286 C300 0.931 . S
H287 C302 0.930 . S
C288 H276 0.930 . S
C288 C289 1.399 . S
C288 C293 1.399 . S
C289 C288 1.399 . S
C289 C290 1.376 1_545 S
C290 H277 0.930 . S
C290 C289 1.376 1_565 S
C290 C291 1.388 . S
C291 H278 0.930 . S
C291 C290 1.388 . S
C291 C292 1.390 . S
C292 C291 1.390 . S
C292 C293 1.394 1_565 S
C292 C298 1.465 1_556 S
C293 C288 1.399 . S
C293 C292 1.394 1_545 S
C293 C294 1.516 1_556 S
C294 C293 1.516 1_554 S
C294 C295 1.502 . S
C294 C296 1.561 . S
C294 C297 1.526 . S
C295 H279 0.959 . S
C295 H280 0.959 . S
C295 H281 0.961 . S
C295 C294 1.502 . S
C296 H282 0.960 . S
C296 H283 0.961 . S
C296 H284 0.959 . S
C296 C294 1.561 . S
C297 C294 1.526 . S
C297 C298 1.396 1_545 S
C297 C302 1.390 . S
C298 C292 1.465 1_554 S
C298 C297 1.396 1_565 S
C298 C299 1.399 . S
C299 H285 0.929 . S
C299 C298 1.399 . S
C299 C300 1.385 . S
C300 H286 0.931 . S
C300 C299 1.385 . S
C300 C301 1.389 . S
C301 C300 1.389 . S
C301 C302 1.387 1_565 S
C302 H287 0.930 . S
C302 C297 1.390 . S
C302 C301 1.387 1_545 S
H303 C315 0.930 . S
H304 C317 0.930 . S
H305 C318 0.930 . S
H306 C322 0.959 . S
H307 C322 0.959 . S
H308 C322 0.961 . S
H309 C323 0.960 . S
H310 C323 0.961 . S
H311 C323 0.959 . S
H312 C326 0.929 . S
H313 C327 0.931 . S
H314 C329 0.930 . S
C315 H303 0.930 . S
C315 C316 1.399 . S
C315 C320 1.399 . S
C316 C315 1.399 . S
C316 C317 1.376 . S
C317 H304 0.930 . S
C317 C316 1.376 . S
C317 C318 1.388 . S
C318 H305 0.930 . S
C318 C317 1.388 . S
C318 C319 1.390 . S
C319 C318 1.390 . S
C319 C320 1.394 . S
C319 C325 1.465 . S
C320 C315 1.399 . S
C320 C319 1.394 . S
C320 C321 1.516 . S
C321 C320 1.516 . S
C321 C322 1.502 . S
C321 C323 1.561 . S
C321 C324 1.526 . S
C322 H306 0.959 . S
C322 H307 0.959 . S
C322 H308 0.961 . S
C322 C321 1.502 . S
C323 H309 0.960 . S
C323 H310 0.961 . S
C323 H311 0.959 . S
C323 C321 1.561 . S
C324 C321 1.526 . S
C324 C325 1.396 . S
C324 C329 1.390 . S
C325 C319 1.465 . S
C325 C324 1.396 . S
C325 C326 1.399 . S
C326 H312 0.929 . S
C326 C325 1.399 . S
C326 C327 1.385 . S
C327 H313 0.931 . S
C327 C326 1.385 . S
C327 C328 1.389 . S
C328 C327 1.389 . S
C328 C329 1.387 . S
C329 H314 0.930 . S
C329 C324 1.390 . S
C329 C328 1.387 . S
H330 C342 0.919 1_455 S
H331 C344 0.930 . S
H332 C345 0.930 . S
H333 C349 0.959 . S
H334 C349 0.974 . S
H335 C349 0.961 . S
H336 C350 0.960 . S
H337 C350 0.961 1_554 S
H338 C350 0.959 1_654 S
H339 C353 0.929 . S
H340 C354 0.931 . S
H341 C356 0.930 . S
C342 H330 0.919 1_655 S
C342 C343 1.418 . S
C342 C347 1.393 1_655 S
C343 C342 1.418 . S
C343 C344 1.376 . S
C344 H331 0.930 . S
C344 C343 1.376 . S
C344 C345 1.388 . S
C345 H332 0.930 . S
C345 C344 1.388 . S
C345 C346 1.390 . S
C346 C345 1.390 . S
C346 C347 1.394 1_655 S
C346 C352 1.465 1_556 S
C347 C342 1.393 1_455 S
C347 C346 1.394 1_455 S
C347 C348 1.516 . S
C348 C347 1.516 . S
C348 C349 1.502 . S
C348 C350 1.561 . S
C348 C351 1.526 1_556 S
C349 H333 0.959 . S
C349 H334 0.974 . S
C349 H335 0.961 . S
C349 C348 1.502 . S
C350 H336 0.960 . S
C350 H337 0.961 1_556 S
C350 H338 0.959 1_456 S
C350 C348 1.561 . S
C351 C348 1.526 1_554 S
C351 C352 1.396 1_455 S
C351 C356 1.390 . S
C352 C346 1.465 1_554 S
C352 C351 1.396 1_655 S
C352 C353 1.399 . S
C353 H339 0.929 . S
C353 C352 1.399 . S
C353 C354 1.385 . S
C354 H340 0.931 . S
C354 C353 1.385 . S
C354 C355 1.389 1_655 S
C355 C354 1.389 1_455 S
C355 C356 1.387 . S
C356 H341 0.930 . S
C356 C351 1.390 . S
C356 C355 1.387 . S
H357 C369 0.930 . S
H358 C371 0.930 . S
H359 C372 0.930 . S
H360 C376 0.959 . S
H361 C376 0.959 . S
H362 C376 0.961 . S
H363 C377 0.960 . S
H364 C377 0.961 . S
H365 C377 0.959 . S
H366 C380 0.929 . S
H367 C381 0.931 . S
H368 C383 0.930 . S
C369 H357 0.930 . S
C369 C370 1.399 . S
C369 C374 1.399 . S
C370 C369 1.399 . S
C370 C371 1.376 1_565 S
C371 H358 0.930 . S
C371 C370 1.376 1_545 S
C371 C372 1.388 . S
C372 H359 0.930 . S
C372 C371 1.388 . S
C372 C373 1.390 . S
C373 C372 1.390 . S
C373 C374 1.394 1_545 S
C373 C379 1.465 . S
C374 C369 1.399 . S
C374 C373 1.394 1_565 S
C374 C375 1.516 . S
C375 C374 1.516 . S
C375 C376 1.502 . S
C375 C377 1.561 . S
C375 C378 1.526 . S
C376 H360 0.959 . S
C376 H361 0.959 . S
C376 H362 0.961 . S
C376 C375 1.502 . S
C377 H363 0.960 . S
C377 H364 0.961 . S
C377 H365 0.959 . S
C377 C375 1.561 . S
C378 C375 1.526 . S
C378 C379 1.396 1_565 S
C378 C383 1.390 . S
C379 C373 1.465 . S
C379 C378 1.396 1_545 S
C379 C380 1.399 . S
C380 H366 0.929 . S
C380 C379 1.399 . S
C380 C381 1.385 . S
C381 H367 0.931 . S
C381 C380 1.385 . S
C381 C382 1.389 . S
C382 C381 1.389 . S
C382 C383 1.387 1_545 S
C383 H368 0.930 . S
C383 C378 1.390 . S
C383 C382 1.387 1_565 S
H384 C396 0.930 . S
H385 C398 0.930 . S
H386 C399 0.930 . S
H387 C403 0.959 . S
H388 C403 0.959 . S
H389 C403 0.961 1_556 S
H390 C404 0.960 . S
H391 C404 0.961 1_554 S
H392 C404 0.959 . S
H393 C407 0.929 . S
H394 C408 0.931 . S
H395 C410 0.930 . S
C396 H384 0.930 . S
C396 C397 1.399 . S
C396 C401 1.399 . S
C397 C396 1.399 . S
C397 C398 1.376 . S
C398 H385 0.930 . S
C398 C397 1.376 . S
C398 C399 1.388 . S
C399 H386 0.930 . S
C399 C398 1.388 . S
C399 C400 1.390 . S
C400 C399 1.390 . S
C400 C401 1.394 . S
C400 C406 1.465 1_556 S
C401 C396 1.399 . S
C401 C400 1.394 . S
C401 C402 1.524 . S
C402 C401 1.524 . S
C402 C403 1.500 1_556 S
C402 C404 1.564 . S
C402 C405 1.518 1_556 S
C403 H387 0.959 . S
C403 H388 0.959 . S
C403 H389 0.961 1_554 S
C403 C402 1.500 1_554 S
C404 H390 0.960 . S
C404 H391 0.961 1_556 S
C404 H392 0.959 . S
C404 C402 1.564 . S
C405 C402 1.518 1_554 S
C405 C406 1.396 . S
C405 C410 1.390 . S
C406 C400 1.465 1_554 S
C406 C405 1.396 . S
C406 C407 1.399 . S
C407 H393 0.929 . S
C407 C406 1.399 . S
C407 C408 1.385 . S
C408 H394 0.931 . S
C408 C407 1.385 . S
C408 C409 1.389 . S
C409 C408 1.389 . S
C409 C410 1.387 . S
C410 H395 0.930 . S
C410 C405 1.390 . S
C410 C409 1.387 . S
H411 C423 0.930 . S
H412 C425 0.930 . S
H413 C426 0.930 . S
H414 C430 0.959 . S
H415 C430 0.959 . S
H416 C430 0.961 . S
H417 C431 0.960 . S
H418 C431 0.961 . S
H419 C431 0.959 . S
H420 C434 0.929 . S
H421 C435 0.931 . S
H422 C437 0.930 . S
C423 H411 0.930 . S
C423 C424 1.399 . S
C423 C428 1.399 . S
C424 C423 1.399 . S
C424 C425 1.376 . S
C425 H412 0.930 . S
C425 C424 1.376 . S
C425 C426 1.388 . S
C426 H413 0.930 . S
C426 C425 1.388 . S
C426 C427 1.390 . S
C427 C426 1.390 . S
C427 C428 1.394 . S
C427 C433 1.465 1_655 S
C428 C423 1.399 . S
C428 C427 1.394 . S
C428 C429 1.516 1_655 S
C429 C428 1.516 1_455 S
C429 C430 1.502 1_455 S
C429 C431 1.561 . S
C429 C432 1.526 . S
C430 H414 0.959 . S
C430 H415 0.959 . S
C430 H416 0.961 . S
C430 C429 1.502 1_655 S
C431 H417 0.960 . S
C431 H418 0.961 . S
C431 H419 0.959 . S
C431 C429 1.561 . S
C432 C429 1.526 . S
C432 C433 1.396 . S
C432 C437 1.390 . S
C433 C427 1.465 1_455 S
C433 C432 1.396 . S
C433 C434 1.399 . S
C434 H420 0.929 . S
C434 C433 1.399 . S
C434 C435 1.385 . S
C435 H421 0.931 . S
C435 C434 1.385 . S
C435 C436 1.389 . S
C436 C435 1.389 . S
C436 C437 1.387 . S
C437 H422 0.930 . S
C437 C432 1.390 . S
C437 C436 1.387 . S
H438 C450 0.930 . S
H439 C452 0.930 . S
H440 C453 0.930 . S
H441 C457 0.959 . S
H442 C457 0.959 1_554 S
H443 C457 0.961 . S
H444 C458 0.960 . S
H445 C458 0.961 . S
H446 C458 0.959 . S
H447 C461 0.929 . S
H448 C462 0.931 . S
H449 C464 0.930 . S
C450 H438 0.930 . S
C450 C451 1.399 1_565 S
C450 C455 1.399 . S
C451 C450 1.399 1_545 S
C451 C452 1.376 . S
C452 H439 0.930 . S
C452 C451 1.376 . S
C452 C453 1.388 . S
C453 H440 0.930 . S
C453 C452 1.388 . S
C453 C454 1.390 . S
C454 C453 1.390 . S
C454 C455 1.394 1_545 S
C454 C460 1.465 1_556 S
C455 C450 1.399 . S
C455 C454 1.394 1_565 S
C455 C456 1.516 . S
C456 C455 1.516 . S
C456 C457 1.502 . S
C456 C458 1.561 . S
C456 C459 1.526 1_556 S
C457 H441 0.959 . S
C457 H442 0.959 1_556 S
C457 H443 0.961 . S
C457 C456 1.502 . S
C458 H444 0.960 . S
C458 H445 0.961 . S
C458 H446 0.959 . S
C458 C456 1.561 . S
C459 C456 1.526 1_554 S
C459 C460 1.396 1_565 S
C459 C464 1.390 . S
C460 C454 1.465 1_554 S
C460 C459 1.396 1_545 S
C460 C461 1.399 . S
C461 H447 0.929 . S
C461 C460 1.399 . S
C461 C462 1.385 . S
C462 H448 0.931 . S
C462 C461 1.385 . S
C462 C463 1.389 1_545 S
C463 C462 1.389 1_565 S
C463 C464 1.387 . S
C464 H449 0.930 . S
C464 C459 1.390 . S
C464 C463 1.387 . S
H465 C477 0.930 . S
H466 C479 0.930 . S
H467 C480 0.930 . S
H468 C484 0.959 . S
H469 C484 0.959 . S
H470 C484 0.961 . S
H471 C485 0.960 . S
H472 C485 0.961 . S
H473 C485 0.959 . S
H474 C488 0.929 . S
H475 C489 0.931 . S
H476 C491 0.930 . S
C477 H465 0.930 . S
C477 C478 1.399 . S
C477 C482 1.399 . S
C478 C477 1.399 . S
C478 C479 1.376 . S
C479 H466 0.930 . S
C479 C478 1.376 . S
C479 C480 1.388 . S
C480 H467 0.930 . S
C480 C479 1.388 . S
C480 C481 1.390 . S
C481 C480 1.390 . S
C481 C482 1.394 . S
C481 C487 1.465 . S
C482 C477 1.399 . S
C482 C481 1.394 . S
C482 C483 1.516 . S
C483 C482 1.516 . S
C483 C484 1.502 . S
C483 C485 1.561 . S
C483 C486 1.526 . S
C484 H468 0.959 . S
C484 H469 0.959 . S
C484 H470 0.961 . S
C484 C483 1.502 . S
C485 H471 0.960 . S
C485 H472 0.961 . S
C485 H473 0.959 . S
C485 C483 1.561 . S
C486 C483 1.526 . S
C486 C487 1.396 . S
C486 C491 1.390 . S
C487 C481 1.465 . S
C487 C486 1.396 . S
C487 C488 1.399 . S
C488 H474 0.929 . S
C488 C487 1.399 . S
C488 C489 1.385 . S
C489 H475 0.931 . S
C489 C488 1.385 . S
C489 C490 1.389 . S
C490 C489 1.389 . S
C490 C491 1.387 . S
C491 H476 0.930 . S
C491 C486 1.390 . S
C491 C490 1.387 . S
H492 C504 0.930 . S
H493 C506 0.930 . S
H494 C507 0.930 1_655 S
H495 C511 0.959 . S
H496 C511 0.959 . S
H497 C511 0.961 . S
H498 C512 0.960 . S
H499 C512 0.961 . S
H500 C512 0.959 . S
H501 C515 0.929 1_655 S
H502 C516 0.931 . S
H503 C518 0.930 . S
C504 H492 0.930 . S
C504 C505 1.399 . S
C504 C509 1.399 . S
C505 C504 1.399 . S
C505 C506 1.376 . S
C506 H493 0.930 . S
C506 C505 1.376 . S
C506 C507 1.388 . S
C507 H494 0.930 1_455 S
C507 C506 1.388 . S
C507 C508 1.390 . S
C508 C507 1.390 . S
C508 C509 1.394 . S
C508 C514 1.465 . S
C509 C504 1.399 . S
C509 C508 1.394 . S
C509 C510 1.516 . S
C510 C509 1.516 . S
C510 C511 1.502 . S
C510 C512 1.561 . S
C510 C513 1.526 . S
C511 H495 0.959 . S
C511 H496 0.959 . S
C511 H497 0.961 . S
C511 C510 1.502 . S
C512 H498 0.960 . S
C512 H499 0.961 . S
C512 H500 0.959 . S
C512 C510 1.561 . S
C513 C510 1.526 . S
C513 C514 1.396 . S
C513 C518 1.390 . S
C514 C508 1.465 . S
C514 C513 1.396 . S
C514 C515 1.399 . S
C515 H501 0.929 1_455 S
C515 C514 1.399 . S
C515 C516 1.385 . S
C516 H502 0.931 . S
C516 C515 1.385 . S
C516 C517 1.389 . S
C517 C516 1.389 . S
C517 C518 1.387 . S
C518 H503 0.930 . S
C518 C513 1.390 . S
C518 C517 1.387 . S
H519 C531 0.930 . S
H520 C533 0.930 . S
H521 C534 0.930 1_565 S
H522 C538 0.959 . S
H523 C538 0.959 . S
H524 C538 0.961 . S
H525 C539 0.960 . S
H526 C539 0.961 . S
H527 C539 0.959 . S
H528 C542 0.929 1_565 S
H529 C543 0.931 . S
H530 C545 0.930 . S
C531 H519 0.930 . S
C531 C532 1.399 . S
C531 C536 1.399 . S
C532 C531 1.399 . S
C532 C533 1.376 . S
C533 H520 0.930 . S
C533 C532 1.376 . S
C533 C534 1.388 . S
C534 H521 0.930 1_545 S
C534 C533 1.388 . S
C534 C535 1.390 . S
C535 C534 1.390 . S
C535 C536 1.394 . S
C535 C541 1.465 . S
C536 C531 1.399 . S
C536 C535 1.394 . S
C536 C537 1.516 . S
C537 C536 1.516 . S
C537 C538 1.502 . S
C537 C539 1.561 . S
C537 C540 1.526 . S
C538 H522 0.959 . S
C538 H523 0.959 . S
C538 H524 0.961 . S
C538 C537 1.502 . S
C539 H525 0.960 . S
C539 H526 0.961 . S
C539 H527 0.959 . S
C539 C537 1.561 . S
C540 C537 1.526 . S
C540 C541 1.396 . S
C540 C545 1.390 . S
C541 C535 1.465 . S
C541 C540 1.396 . S
C541 C542 1.399 . S
C542 H528 0.929 1_545 S
C542 C541 1.399 . S
C542 C543 1.385 . S
C543 H529 0.931 . S
C543 C542 1.385 . S
C543 C544 1.389 . S
C544 C543 1.389 . S
C544 C545 1.387 . S
C545 H530 0.930 . S
C545 C540 1.390 . S
C545 C544 1.387 . S
H546 C558 0.930 . S
H547 C560 0.930 . S
H548 C561 0.930 . S
H549 C565 0.959 . S
H550 C565 0.959 . S
H551 C565 0.961 . S
H552 C566 0.960 . S
H553 C566 0.961 . S
H554 C566 0.959 . S
H555 C569 0.929 . S
H556 C570 0.931 . S
H557 C572 0.930 . S
C558 H546 0.930 . S
C558 C559 1.399 . S
C558 C563 1.399 . S
C559 C558 1.399 . S
C559 C560 1.376 . S
C560 H547 0.930 . S
C560 C559 1.376 . S
C560 C561 1.388 . S
C561 H548 0.930 . S
C561 C560 1.388 . S
C561 C562 1.390 . S
C562 C561 1.390 . S
C562 C563 1.394 . S
C562 C568 1.465 . S
C563 C558 1.399 . S
C563 C562 1.394 . S
C563 C564 1.516 . S
C564 C563 1.516 . S
C564 C565 1.502 . S
C564 C566 1.561 . S
C564 C567 1.526 . S
C565 H549 0.959 . S
C565 H550 0.959 . S
C565 H551 0.961 . S
C565 C564 1.502 . S
C566 H552 0.960 . S
C566 H553 0.961 . S
C566 H554 0.959 . S
C566 C564 1.561 . S
C567 C564 1.526 . S
C567 C568 1.396 . S
C567 C572 1.390 . S
C568 C562 1.465 . S
C568 C567 1.396 . S
C568 C569 1.399 . S
C569 H555 0.929 . S
C569 C568 1.399 . S
C569 C570 1.385 . S
C570 H556 0.931 . S
C570 C569 1.385 . S
C570 C571 1.389 . S
C571 C570 1.389 . S
C571 C572 1.387 . S
C572 H557 0.930 . S
C572 C567 1.390 . S
C572 C571 1.387 . S
H573 C585 0.930 . S
H574 C587 0.930 . S
H575 C588 0.930 . S
H576 C592 0.959 . S
H577 C592 0.959 . S
H578 C592 0.961 . S
H579 C593 0.960 . S
H580 C593 0.961 . S
H581 C593 0.959 . S
H582 C596 0.929 . S
H583 C597 0.931 . S
H584 C599 0.930 . S
C585 H573 0.930 . S
C585 C586 1.399 . S
C585 C590 1.399 . S
C586 C585 1.399 . S
C586 C587 1.376 . S
C587 H574 0.930 . S
C587 C586 1.376 . S
C587 C588 1.388 . S
C588 H575 0.930 . S
C588 C587 1.388 . S
C588 C589 1.390 . S
C589 C588 1.390 . S
C589 C590 1.394 . S
C589 C595 1.465 . S
C590 C585 1.399 . S
C590 C589 1.394 . S
C590 C591 1.516 . S
C591 C590 1.516 . S
C591 C592 1.502 . S
C591 C593 1.561 . S
C591 C594 1.526 . S
C592 H576 0.959 . S
C592 H577 0.959 . S
C592 H578 0.961 . S
C592 C591 1.502 . S
C593 H579 0.960 . S
C593 H580 0.961 . S
C593 H581 0.959 . S
C593 C591 1.561 . S
C594 C591 1.526 . S
C594 C595 1.396 . S
C594 C599 1.390 . S
C595 C589 1.465 . S
C595 C594 1.396 . S
C595 C596 1.399 . S
C596 H582 0.929 . S
C596 C595 1.399 . S
C596 C597 1.385 . S
C597 H583 0.931 . S
C597 C596 1.385 . S
C597 C598 1.389 . S
C598 C597 1.389 . S
C598 C599 1.387 . S
C599 H584 0.930 . S
C599 C594 1.390 . S
C599 C598 1.387 . S
H600 C612 0.930 . S
H601 C614 0.930 . S
H602 C615 0.930 1_545 S
H603 C619 0.959 . S
H604 C619 0.959 . S
H605 C619 0.961 . S
H606 C620 0.960 . S
H607 C620 0.961 . S
H608 C620 0.959 . S
H609 C623 0.929 1_545 S
H610 C624 0.931 . S
H611 C626 0.930 . S
C612 H600 0.930 . S
C612 C613 1.399 . S
C612 C617 1.399 . S
C613 C612 1.399 . S
C613 C614 1.376 . S
C614 H601 0.930 . S
C614 C613 1.376 . S
C614 C615 1.388 . S
C615 H602 0.930 1_565 S
C615 C614 1.388 . S
C615 C616 1.390 . S
C616 C615 1.390 . S
C616 C617 1.394 . S
C616 C622 1.465 . S
C617 C612 1.399 . S
C617 C616 1.394 . S
C617 C618 1.516 . S
C618 C617 1.516 . S
C618 C619 1.502 . S
C618 C620 1.561 . S
C618 C621 1.526 . S
C619 H603 0.959 . S
C619 H604 0.959 . S
C619 H605 0.961 . S
C619 C618 1.502 . S
C620 H606 0.960 . S
C620 H607 0.961 . S
C620 H608 0.959 . S
C620 C618 1.561 . S
C621 C618 1.526 . S
C621 C622 1.396 . S
C621 C626 1.390 . S
C622 C616 1.465 . S
C622 C621 1.396 . S
C622 C623 1.399 . S
C623 H609 0.929 1_565 S
C623 C622 1.399 . S
C623 C624 1.385 . S
C624 H610 0.931 . S
C624 C623 1.385 . S
C624 C625 1.389 . S
C625 C624 1.389 . S
C625 C626 1.387 . S
C626 H611 0.930 . S
C626 C621 1.390 . S
C626 C625 1.387 . S
H627 C639 0.930 . S
H628 C641 0.930 . S
H629 C642 0.930 . S
H630 C646 0.959 . S
H631 C646 0.959 . S
H632 C646 0.961 . S
H633 C647 0.960 . S
H634 C647 0.961 . S
H635 C647 0.959 . S
H636 C650 0.929 . S
H637 C651 0.931 . S
H638 C653 0.930 . S
C639 H627 0.930 . S
C639 C640 1.399 . S
C639 C644 1.399 . S
C640 C639 1.399 . S
C640 C641 1.376 . S
C641 H628 0.930 . S
C641 C640 1.376 . S
C641 C642 1.388 . S
C642 H629 0.930 . S
C642 C641 1.388 . S
C642 C643 1.390 . S
C643 C642 1.390 . S
C643 C644 1.394 . S
C643 C649 1.465 . S
C644 C639 1.399 . S
C644 C643 1.394 . S
C644 C645 1.516 . S
C645 C644 1.516 . S
C645 C646 1.502 . S
C645 C647 1.561 . S
C645 C648 1.526 . S
C646 H630 0.959 . S
C646 H631 0.959 . S
C646 H632 0.961 . S
C646 C645 1.502 . S
C647 H633 0.960 . S
C647 H634 0.961 . S
C647 H635 0.959 . S
C647 C645 1.561 . S
C648 C645 1.526 . S
C648 C649 1.396 . S
C648 C653 1.390 . S
C649 C643 1.465 . S
C649 C648 1.396 . S
C649 C650 1.399 . S
C650 H636 0.929 . S
C650 C649 1.399 . S
C650 C651 1.385 . S
C651 H637 0.931 . S
C651 C650 1.385 . S
C651 C652 1.389 . S
C652 C651 1.389 . S
C652 C653 1.387 . S
C653 H638 0.930 . S
C653 C648 1.390 . S
C653 C652 1.387 . S
H654 C666 0.930 . S
H655 C668 0.930 . S
H656 C669 0.930 . S
H657 C673 0.959 . S
H658 C673 0.959 . S
H659 C673 0.961 . S
H660 C674 0.960 . S
H661 C674 0.961 . S
H662 C674 0.959 . S
H663 C677 0.929 . S
H664 C678 0.931 . S
H665 C680 0.930 . S
C666 H654 0.930 . S
C666 C667 1.399 . S
C666 C671 1.399 . S
C667 C666 1.399 . S
C667 C668 1.376 . S
C668 H655 0.930 . S
C668 C667 1.376 . S
C668 C669 1.388 . S
C669 H656 0.930 . S
C669 C668 1.388 . S
C669 C670 1.390 . S
C670 C669 1.390 . S
C670 C671 1.394 . S
C670 C676 1.465 . S
C671 C666 1.399 . S
C671 C670 1.394 . S
C671 C672 1.516 . S
C672 C671 1.516 . S
C672 C673 1.502 . S
C672 C674 1.561 . S
C672 C675 1.526 . S
C673 H657 0.959 . S
C673 H658 0.959 . S
C673 H659 0.961 . S
C673 C672 1.502 . S
C674 H660 0.960 . S
C674 H661 0.961 . S
C674 H662 0.959 . S
C674 C672 1.561 . S
C675 C672 1.526 . S
C675 C676 1.396 . S
C675 C680 1.390 . S
C676 C670 1.465 . S
C676 C675 1.396 . S
C676 C677 1.399 . S
C677 H663 0.929 . S
C677 C676 1.399 . S
C677 C678 1.385 . S
C678 H664 0.931 . S
C678 C677 1.385 . S
C678 C679 1.389 . S
C679 C678 1.389 . S
C679 C680 1.387 . S
C680 H665 0.930 . S
C680 C675 1.390 . S
C680 C679 1.387 . S
H681 C693 0.930 . S
H682 C695 0.930 . S
H683 C696 0.930 . S
H684 C700 0.959 . S
H685 C700 0.959 . S
H686 C700 0.961 . S
H687 C701 0.960 . S
H688 C701 0.961 . S
H689 C701 0.959 . S
H690 C704 0.929 . S
H691 C705 0.931 . S
H692 C707 0.930 . S
C693 H681 0.930 . S
C693 C694 1.399 . S
C693 C698 1.399 . S
C694 C693 1.399 . S
C694 C695 1.376 . S
C695 H682 0.930 . S
C695 C694 1.376 . S
C695 C696 1.388 . S
C696 H683 0.930 . S
C696 C695 1.388 . S
C696 C697 1.390 . S
C697 C696 1.390 . S
C697 C698 1.394 . S
C697 C703 1.465 . S
C698 C693 1.399 . S
C698 C697 1.394 . S
C698 C699 1.516 . S
C699 C698 1.516 . S
C699 C700 1.502 . S
C699 C701 1.561 . S
C699 C702 1.526 . S
C700 H684 0.959 . S
C700 H685 0.959 . S
C700 H686 0.961 . S
C700 C699 1.502 . S
C701 H687 0.960 . S
C701 H688 0.961 . S
C701 H689 0.959 . S
C701 C699 1.561 . S
C702 C699 1.526 . S
C702 C703 1.396 . S
C702 C707 1.390 . S
C703 C697 1.465 . S
C703 C702 1.396 . S
C703 C704 1.399 . S
C704 H690 0.929 . S
C704 C703 1.399 . S
C704 C705 1.385 . S
C705 H691 0.931 . S
C705 C704 1.385 . S
C705 C706 1.389 . S
C706 C705 1.389 . S
C706 C707 1.387 . S
C707 H692 0.930 . S
C707 C702 1.390 . S
C707 C706 1.387 . S
H708 C720 0.930 . S
H709 C722 0.930 . S
H710 C723 0.930 . S
H711 C727 0.959 . S
H712 C727 0.959 . S
H713 C727 0.961 . S
H714 C728 0.960 . S
H715 C728 0.961 . S
H716 C728 0.959 . S
H717 C731 0.929 . S
H718 C732 0.931 . S
H719 C734 0.930 . S
C720 H708 0.930 . S
C720 C721 1.399 . S
C720 C725 1.399 . S
C721 C720 1.399 . S
C721 C722 1.376 . S
C722 H709 0.930 . S
C722 C721 1.376 . S
C722 C723 1.388 . S
C723 H710 0.930 . S
C723 C722 1.388 . S
C723 C724 1.390 . S
C724 C723 1.390 . S
C724 C725 1.394 . S
C724 C730 1.465 . S
C725 C720 1.399 . S
C725 C724 1.394 . S
C725 C726 1.516 . S
C726 C725 1.516 . S
C726 C727 1.502 . S
C726 C728 1.561 . S
C726 C729 1.526 . S
C727 H711 0.959 . S
C727 H712 0.959 . S
C727 H713 0.961 . S
C727 C726 1.502 . S
C728 H714 0.960 . S
C728 H715 0.961 . S
C728 H716 0.959 . S
C728 C726 1.561 . S
C729 C726 1.526 . S
C729 C730 1.396 . S
C729 C734 1.390 . S
C730 C724 1.465 . S
C730 C729 1.396 . S
C730 C731 1.399 . S
C731 H717 0.929 . S
C731 C730 1.399 . S
C731 C732 1.385 . S
C732 H718 0.931 . S
C732 C731 1.385 . S
C732 C733 1.389 . S
C733 C732 1.389 . S
C733 C734 1.387 . S
C734 H719 0.930 . S
C734 C729 1.390 . S
C734 C733 1.387 . S
H735 C747 0.930 . S
H736 C749 0.930 . S
H737 C750 0.930 . S
H738 C754 0.959 . S
H739 C754 0.959 . S
H740 C754 0.961 . S
H741 C755 0.960 . S
H742 C755 0.961 . S
H743 C755 0.959 . S
H744 C758 0.929 . S
H745 C759 0.931 . S
H746 C761 0.930 . S
C747 H735 0.930 . S
C747 C748 1.399 . S
C747 C752 1.399 . S
C748 C747 1.399 . S
C748 C749 1.376 . S
C749 H736 0.930 . S
C749 C748 1.376 . S
C749 C750 1.388 . S
C750 H737 0.930 . S
C750 C749 1.388 . S
C750 C751 1.390 . S
C751 C750 1.390 . S
C751 C752 1.394 . S
C751 C757 1.465 . S
C752 C747 1.399 . S
C752 C751 1.394 . S
C752 C753 1.516 . S
C753 C752 1.516 . S
C753 C754 1.502 . S
C753 C755 1.561 . S
C753 C756 1.526 . S
C754 H738 0.959 . S
C754 H739 0.959 . S
C754 H740 0.961 . S
C754 C753 1.502 . S
C755 H741 0.960 . S
C755 H742 0.961 . S
C755 H743 0.959 . S
C755 C753 1.561 . S
C756 C753 1.526 . S
C756 C757 1.396 . S
C756 C761 1.390 . S
C757 C751 1.465 . S
C757 C756 1.396 . S
C757 C758 1.399 . S
C758 H744 0.929 . S
C758 C757 1.399 . S
C758 C759 1.385 . S
C759 H745 0.931 . S
C759 C758 1.385 . S
C759 C760 1.389 . S
C760 C759 1.389 . S
C760 C761 1.387 . S
C761 H746 0.930 . S
C761 C756 1.390 . S
C761 C760 1.387 . S
H762 C774 0.930 . S
H763 C776 0.930 . S
H764 C777 0.930 . S
H765 C781 0.959 . S
H766 C781 0.959 . S
H767 C781 0.961 . S
H768 C782 0.960 . S
H769 C782 0.961 . S
H770 C782 0.959 . S
H771 C785 0.929 . S
H772 C786 0.931 . S
H773 C788 0.930 . S
C774 H762 0.930 . S
C774 C775 1.399 . S
C774 C779 1.399 . S
C775 C774 1.399 . S
C775 C776 1.376 . S
C776 H763 0.930 . S
C776 C775 1.376 . S
C776 C777 1.388 . S
C777 H764 0.930 . S
C777 C776 1.388 . S
C777 C778 1.390 . S
C778 C777 1.390 . S
C778 C779 1.394 . S
C778 C784 1.465 . S
C779 C774 1.399 . S
C779 C778 1.394 . S
C779 C780 1.516 . S
C780 C779 1.516 . S
C780 C781 1.502 . S
C780 C782 1.561 . S
C780 C783 1.526 . S
C781 H765 0.959 . S
C781 H766 0.959 . S
C781 H767 0.961 . S
C781 C780 1.502 . S
C782 H768 0.960 . S
C782 H769 0.961 . S
C782 H770 0.959 . S
C782 C780 1.561 . S
C783 C780 1.526 . S
C783 C784 1.396 . S
C783 C788 1.390 . S
C784 C778 1.465 . S
C784 C783 1.396 . S
C784 C785 1.399 . S
C785 H771 0.929 . S
C785 C784 1.399 . S
C785 C786 1.385 . S
C786 H772 0.931 . S
C786 C785 1.385 . S
C786 C787 1.389 . S
C787 C786 1.389 . S
C787 C788 1.387 . S
C788 H773 0.930 . S
C788 C783 1.390 . S
C788 C787 1.387 . S
H789 C801 0.930 . S
H790 C803 0.930 . S
H791 C804 0.930 . S
H792 C808 0.959 . S
H793 C808 0.959 . S
H794 C808 0.961 . S
H795 C809 0.960 . S
H796 C809 0.961 . S
H797 C809 0.959 . S
H798 C812 0.929 . S
H799 C813 0.931 . S
H800 C815 0.930 . S
C801 H789 0.930 . S
C801 C802 1.399 . S
C801 C806 1.399 . S
C802 C801 1.399 . S
C802 C803 1.376 . S
C803 H790 0.930 . S
C803 C802 1.376 . S
C803 C804 1.388 . S
C804 H791 0.930 . S
C804 C803 1.388 . S
C804 C805 1.390 . S
C805 C804 1.390 . S
C805 C806 1.394 . S
C805 C811 1.465 . S
C806 C801 1.399 . S
C806 C805 1.394 . S
C806 C807 1.516 . S
C807 C806 1.516 . S
C807 C808 1.502 . S
C807 C809 1.561 . S
C807 C810 1.526 . S
C808 H792 0.959 . S
C808 H793 0.959 . S
C808 H794 0.961 . S
C808 C807 1.502 . S
C809 H795 0.960 . S
C809 H796 0.961 . S
C809 H797 0.959 . S
C809 C807 1.561 . S
C810 C807 1.526 . S
C810 C811 1.396 . S
C810 C815 1.390 . S
C811 C805 1.465 . S
C811 C810 1.396 . S
C811 C812 1.399 . S
C812 H798 0.929 . S
C812 C811 1.399 . S
C812 C813 1.385 . S
C813 H799 0.931 . S
C813 C812 1.385 . S
C813 C814 1.389 . S
C814 C813 1.389 . S
C814 C815 1.387 . S
C815 H800 0.930 . S
C815 C810 1.390 . S
C815 C814 1.387 . S
C181 C9 1.369 . S
C193 C163 1.380 . S
C208 C93 1.341 . S
C220 C23 1.384 . S
C235 C37 1.386 . S
C247 C107 1.342 . S
C262 C121 1.385 . S
C274 C51 1.342 . S
C289 C135 1.391 . S
C301 C65 1.351 . S
C316 C149 1.374 . S
C328 C79 1.376 . S
C343 C42 1.290 . S
C355 C112 1.285 . S
C370 C56 1.281 . S
C382 C126 1.286 . S
C397 C70 1.317 . S
C409 C140 1.319 . S
C424 C154 1.318 . S
C436 C0 1.319 . S
C451 C14 1.314 . S
C463 C84 1.309 . S
C478 C28 1.319 . S
C490 C98 1.319 . S
C505 C117 1.655 . S
C517 C5 1.655 . S
C532 C131 1.654 . S
C544 C19 1.655 . S
C559 C33 1.655 . S
C571 C145 1.654 . S
C586 C47 1.655 . S
C598 C159 1.654 . S
C613 C61 1.654 . S
C625 C89 1.655 . S
C640 C103 1.655 . S
C652 C75 1.655 . S
C667 C11 1.604 . S
C679 C151 1.605 . S
C694 C165 1.583 . S
C706 C25 1.585 . S
C721 C39 1.584 . S
C733 C95 1.586 . S
C748 C53 1.578 . S
C760 C109 1.578 . S
C775 C67 1.584 . S
C787 C123 1.585 . S
C802 C81 1.596 . S
C814 C137 1.595 . S
