# Generated by pormake.
# Topology unh, (4)-cn, num edge types: 1
# Building blocks:
#     Node 0, Type 0, BuildingBlock: GALJAG_clean_sbu_0, # of connection points: 4
#     Node 1, Type 0, BuildingBlock: GALJAG_clean_sbu_0, # of connection points: 4
#     Node 2, Type 0, BuildingBlock: GALJAG_clean_sbu_0, # of connection points: 4
#     Node 3, Type 0, BuildingBlock: GALJAG_clean_sbu_0, # of connection points: 4
#     Node 4, Type 0, BuildingBlock: GALJAG_clean_sbu_0, # of connection points: 4
#     Node 5, Type 0, BuildingBlock: GALJAG_clean_sbu_0, # of connection points: 4
#     Edge 6, Type (0, 0), BuildingBlock: FUNLAD_clean_linker_0, # of connection points: 2
#     Edge 7, Type (0, 0), BuildingBlock: FUNLAD_clean_linker_0, # of connection points: 2
#     Edge 8, Type (0, 0), BuildingBlock: FUNLAD_clean_linker_0, # of connection points: 2
#     Edge 9, Type (0, 0), BuildingBlock: FUNLAD_clean_linker_0, # of connection points: 2
#     Edge 10, Type (0, 0), BuildingBlock: FUNLAD_clean_linker_0, # of connection points: 2
#     Edge 11, Type (0, 0), BuildingBlock: FUNLAD_clean_linker_0, # of connection points: 2
#     Edge 12, Type (0, 0), BuildingBlock: FUNLAD_clean_linker_0, # of connection points: 2
#     Edge 13, Type (0, 0), BuildingBlock: FUNLAD_clean_linker_0, # of connection points: 2
#     Edge 14, Type (0, 0), BuildingBlock: FUNLAD_clean_linker_0, # of connection points: 2
#     Edge 15, Type (0, 0), BuildingBlock: FUNLAD_clean_linker_0, # of connection points: 2
#     Edge 16, Type (0, 0), BuildingBlock: FUNLAD_clean_linker_0, # of connection points: 2
#     Edge 17, Type (0, 0), BuildingBlock: FUNLAD_clean_linker_0, # of connection points: 2
# Relax obj value: 0.030
# Max RMSD: 0.132
# Mean RMSD: 0.132
data_MOF--net-unh--node1-GALJAG_clean_sbu_0--edge1-FUNLAD_clean_linker_0
_symmetry_space_group_name_H-M    P1
_symmetry_Int_Tables_number       1
_symmetry_cell_setting            triclinic
loop_
_symmetry_equiv_pos_as_xyz
'x, y, z'
_cell_length_a     52.584862
_cell_length_b     52.563374
_cell_length_c     23.559407
_cell_angle_alpha  89.961307
_cell_angle_beta   90.194606
_cell_angle_gamma 120.01556
loop_
_atom_site_label
_atom_site_type_symbol
_atom_site_fract_x
_atom_site_fract_y
_atom_site_fract_z
_atom_type_partial_charge
In0 In 0.13167 0.57201 0.1033 0.0
O1 O 0.10956 0.52836 0.05473 0.0
O2 O 0.1035 0.56314 0.02468 0.0
C3 C 0.17285 0.56622 0.16138 0.0
C4 C 0.08735 0.56087 0.17475 0.0
C5 C 0.16763 0.62443 0.05503 0.0
O6 O 0.16211 0.55291 0.11518 0.0
O7 O 0.1625 0.58192 0.17834 0.0
O8 O 0.15313 0.62203 0.09934 0.0
O9 O 0.16377 0.60046 0.03515 0.0
C10 C 0.09768 0.53693 0.01859 0.0
O11 O 0.10078 0.58465 0.14743 0.0
O12 O 0.09677 0.54332 0.16689 0.0
In13 In 0.57139 0.1329 0.24017 0.0
O14 O 0.58751 0.1129 0.17248 0.0
O15 O 0.54568 0.10939 0.16153 0.0
C16 C 0.61937 0.16669 0.30368 0.0
C17 C 0.5409 0.08621 0.30835 0.0
C18 C 0.56008 0.17477 0.2037 0.0
O19 O 0.62105 0.15711 0.25542 0.0
O20 O 0.59362 0.15902 0.31957 0.0
O21 O 0.54192 0.15336 0.23358 0.0
O22 O 0.58367 0.17495 0.19293 0.0
C23 C 0.56449 0.10343 0.14264 0.0
O24 O 0.53249 0.10454 0.29877 0.0
O25 O 0.56449 0.09182 0.28421 0.0
In26 In 0.44311 0.57742 0.40259 0.0
O27 O 0.48304 0.59651 0.3438 0.0
O28 O 0.44366 0.55881 0.31626 0.0
C29 C 0.45842 0.62356 0.4725 0.0
C30 C 0.45338 0.53965 0.46223 0.0
C31 C 0.39073 0.56773 0.36369 0.0
O32 O 0.46827 0.62654 0.42268 0.0
O33 O 0.44135 0.59733 0.48726 0.0
O34 O 0.39363 0.54794 0.38828 0.0
O35 O 0.4141 0.59213 0.35914 0.0
C36 C 0.47015 0.57722 0.30587 0.0
O37 O 0.42791 0.53628 0.45793 0.0
O38 O 0.47324 0.56213 0.43779 0.0
In39 In 0.85885 0.42189 0.60045 0.0
O40 O 0.87925 0.41012 0.6757 0.0
O41 O 0.90771 0.44183 0.61643 0.0
C42 C 0.81669 0.36619 0.57552 0.0
C43 C 0.88185 0.44989 0.50183 0.0
C44 C 0.83249 0.44704 0.65695 0.0
O45 O 0.84368 0.37477 0.57053 0.0
O46 O 0.81119 0.38539 0.59395 0.0
O47 O 0.83372 0.44677 0.60348 0.0
O48 O 0.84519 0.43522 0.68201 0.0
C49 C 0.90536 0.42781 0.66119 0.0
O50 O 0.88403 0.46344 0.54745 0.0
O51 O 0.86713 0.42225 0.50562 0.0
In52 In 0.41914 0.8559 0.74422 0.0
O53 O 0.40517 0.8826 0.68926 0.0
O54 O 0.43496 0.8707 0.65406 0.0
C55 C 0.36758 0.82841 0.80061 0.0
C56 C 0.45895 0.90008 0.81022 0.0
C57 C 0.42957 0.81238 0.71374 0.0
O58 O 0.36915 0.83322 0.74793 0.0
O59 O 0.39207 0.83828 0.82518 0.0
O60 O 0.44998 0.83753 0.72812 0.0
O61 O 0.40427 0.8094 0.7147 0.0
C62 C 0.42085 0.88411 0.64749 0.0
O63 O 0.45192 0.87365 0.81876 0.0
O64 O 0.44578 0.90392 0.76933 0.0
In65 In 0.56535 0.42763 0.90406 0.0
O66 O 0.52454 0.4074 0.84666 0.0
O67 O 0.56204 0.4476 0.82157 0.0
C68 C 0.55614 0.38322 0.9743 0.0
C69 C 0.55301 0.46354 0.9644 0.0
C70 C 0.61658 0.43893 0.85751 0.0
O71 O 0.54294 0.37876 0.92729 0.0
O72 O 0.57334 0.40989 0.98592 0.0
O73 O 0.61524 0.45564 0.89452 0.0
O74 O 0.59227 0.41669 0.84481 0.0
C75 C 0.53596 0.42801 0.81076 0.0
O76 O 0.57911 0.47066 0.95195 0.0
O77 O 0.53376 0.43829 0.94807 0.0
C78 C 0.06826 0.52968 0.93096 0.0
C79 C 0.07714 0.51756 0.97447 0.0
C80 C 0.04704 0.51157 0.89161 0.0
C81 C 0.03415 0.48083 0.89486 0.0
C82 C 0.04319 0.46868 0.93812 0.0
C83 C 0.06475 0.48691 0.9773 0.0
C84 C 0.00966 0.46128 0.85636 0.0
C85 C 0.00771 0.46935 0.80301 0.0
C86 C 0.98135 0.45394 0.76595 0.0
C87 C 0.98423 0.46216 0.70863 0.0
C88 C 0.95954 0.45235 0.67396 0.0
C89 C 0.9313 0.43404 0.69581 0.0
H90 H 0.9498 0.42773 0.83126 0.0
C91 C 0.92834 0.42433 0.75221 0.0
C92 C 0.95314 0.43428 0.78717 0.0
H93 H 0.9068 0.41028 0.77016 0.0
H94 H 0.07728 0.55322 0.92795 0.0
H95 H 0.03999 0.52175 0.86007 0.0
H96 H 0.03334 0.44507 0.94194 0.0
H97 H 0.07103 0.47698 0.01076 0.0
H98 H 0.99289 0.44025 0.87289 0.0
H99 H 0.02617 0.48919 0.78589 0.0
H100 H 0.00561 0.47725 0.69108 0.0
H101 H 0.96253 0.46007 0.63051 0.0
C102 C 0.49085 0.95373 0.82718 0.0
C103 C 0.48015 0.92477 0.84577 0.0
C104 C 0.50898 0.97742 0.86209 0.0
C105 C 0.51635 0.97264 0.91701 0.0
C106 C 0.50697 0.94368 0.93435 0.0
C107 C 0.48901 0.91991 0.89903 0.0
C108 C 0.53244 0.99717 0.95795 0.0
C109 C 0.53075 0.02191 0.95602 0.0
C110 C 0.54195 0.04446 0.00154 0.0
C111 C 0.52768 0.06065 0.00999 0.0
C112 C 0.53572 0.08048 0.05489 0.0
C113 C 0.55862 0.08497 0.09176 0.0
H114 H 0.57772 0.03825 0.03074 0.0
C115 C 0.57405 0.07 0.08173 0.0
C116 C 0.56571 0.04977 0.03705 0.0
H117 H 0.59187 0.07317 0.1095 0.0
H118 H 0.48489 0.95815 0.78577 0.0
H119 H 0.51683 -0.00062 0.84602 0.0
H120 H 0.51262 0.93937 0.97613 0.0
H121 H 0.48126 0.89777 0.91418 0.0
H122 H 0.54309 0.99332 0.99386 0.0
H123 H 0.51767 0.02438 0.92306 0.0
H124 H 0.50952 0.05723 0.98294 0.0
H125 H 0.52358 0.09188 0.06137 0.0
C126 C 0.46914 0.55335 0.21419 0.0
C127 C 0.48541 0.5741 0.25626 0.0
C128 C 0.48329 0.54682 0.17158 0.0
C129 C 0.51419 0.56107 0.16982 0.0
C130 C 0.53047 0.58266 0.21073 0.0
C131 C 0.51622 0.5893 0.25339 0.0
C132 C 0.52963 0.55126 0.13042 0.0
C133 C 0.51749 0.53708 0.08148 0.0
C134 C 0.52819 0.51998 0.04964 0.0
C135 C 0.50742 0.49504 0.01992 0.0
C136 C 0.51564 0.47678 0.99266 0.0
C137 C 0.545 0.48336 0.99351 0.0
H138 H 0.5745 0.54643 0.07117 0.0
C139 C 0.56614 0.50886 0.02152 0.0
C140 C 0.55779 0.527 0.04972 0.0
H141 H 0.58899 0.51457 0.02225 0.0
H142 H 0.44535 0.54119 0.2155 0.0
H143 H 0.46975 0.52936 0.1423 0.0
H144 H 0.55425 0.59374 0.21075 0.0
H145 H 0.52931 0.60529 0.28555 0.0
H146 H 0.55041 0.55375 0.14471 0.0
H147 H 0.49696 0.53512 0.06703 0.0
H148 H 0.48452 0.48918 0.01902 0.0
H149 H 0.49891 0.45748 0.97079 0.0
C150 C 0.92023 0.49481 0.45252 0.0
C151 C 0.8989 0.46486 0.45063 0.0
C152 C 0.94031 0.50769 0.40821 0.0
C153 C 0.93924 0.49082 0.36083 0.0
C154 C 0.91654 0.46141 0.35746 0.0
C155 C 0.8966 0.44854 0.40185 0.0
C156 C 0.963 0.50155 0.31771 0.0
C157 C 0.9855 0.52938 0.31392 0.0
C158 C 0.01139 0.53727 0.27752 0.0
C159 C 0.02716 0.56553 0.25402 0.0
C160 C 0.05201 0.57344 0.22066 0.0
C161 C 0.06175 0.55331 0.21116 0.0
H162 H 0.01064 0.49579 0.28793 0.0
C163 C 0.04636 0.5253 0.2358 0.0
C164 C 0.02152 0.51737 0.26866 0.0
H165 H 0.05345 0.50938 0.22961 0.0
H166 H 0.92251 0.50794 0.48967 0.0
H167 H 0.95741 0.53033 0.41315 0.0
H168 H 0.91505 0.44786 0.32152 0.0
H169 H 0.8803 0.42542 0.3991 0.0
H170 H 0.96263 0.48513 0.28915 0.0
H171 H 0.98542 0.5469 0.33801 0.0
H172 H 0.02007 0.58141 0.26101 0.0
H173 H 0.06355 0.59524 0.20232 0.0
C174 C 0.49816 0.05351 0.37071 0.0
C175 C 0.52467 0.05998 0.34448 0.0
C176 C 0.48323 0.02852 0.405 0.0
C177 C 0.49463 0.00956 0.41343 0.0
C178 C 0.52111 0.01621 0.38695 0.0
C179 C 0.5359 0.04101 0.35284 0.0
C180 C 0.48081 0.9834 0.45113 0.0
C181 C 0.45326 0.97084 0.47165 0.0
C182 C 0.44191 0.94583 0.51204 0.0
C183 C 0.42221 0.94345 0.55457 0.0
C184 C 0.41407 0.92232 0.59733 0.0
C185 C 0.42535 0.90307 0.59792 0.0
H186 H 0.46553 0.92539 0.4768 0.0
C187 C 0.44333 0.90406 0.5531 0.0
C188 C 0.45139 0.9251 0.51039 0.0
H189 H 0.45197 0.88919 0.55194 0.0
H190 H 0.48905 0.06782 0.36507 0.0
H191 H 0.46324 0.02465 0.4254 0.0
H192 H 0.53053 0.00216 0.39277 0.0
H193 H 0.55629 0.04536 0.3332 0.0
H194 H 0.4946 0.97433 0.46334 0.0
H195 H 0.43924 0.97992 0.46181 0.0
H196 H 0.41422 0.95885 0.55628 0.0
H197 H 0.39999 0.92192 0.63119 0.0
C198 C 0.53527 0.45133 0.71953 0.0
C199 C 0.51972 0.43086 0.76233 0.0
C200 C 0.52041 0.45746 0.67754 0.0
C201 C 0.48952 0.44318 0.67725 0.0
C202 C 0.47391 0.42206 0.71917 0.0
C203 C 0.48887 0.4157 0.76111 0.0
C204 C 0.47364 0.45257 0.63782 0.0
C205 C 0.48459 0.46446 0.58674 0.0
C206 C 0.47445 0.48154 0.55278 0.0
C207 C 0.49457 0.50268 0.51518 0.0
C208 C 0.4875 0.52131 0.48576 0.0
C209 C 0.4599 0.51897 0.49251 0.0
H210 H 0.43002 0.46204 0.58597 0.0
C211 C 0.43917 0.49707 0.52831 0.0
C212 C 0.4464 0.47853 0.55845 0.0
H213 H 0.41761 0.49461 0.53378 0.0
H214 H 0.55907 0.46346 0.7196 0.0
H215 H 0.53339 0.4746 0.64735 0.0
H216 H 0.45014 0.41102 0.72032 0.0
H217 H 0.47637 0.39999 0.79397 0.0
H218 H 0.45383 0.45166 0.65352 0.0
H219 H 0.504 0.46435 0.57143 0.0
H220 H 0.51626 0.50544 0.50973 0.0
H221 H 0.50382 0.53774 0.45793 0.0
C222 C 0.20787 0.54721 0.1721 0.0
C223 C 0.1968 0.56497 0.19186 0.0
C224 C 0.23188 0.54772 0.19908 0.0
C225 C 0.24525 0.56607 0.24639 0.0
C226 C 0.23382 0.58343 0.26644 0.0
C227 C 0.20977 0.58277 0.23976 0.0
C228 C 0.27239 0.5695 0.27319 0.0
C229 C 0.28058 0.549 0.27129 0.0
C230 C 0.3088 0.55412 0.29596 0.0
C231 C 0.31096 0.5303 0.31717 0.0
C232 C 0.33747 0.53464 0.33998 0.0
C233 C 0.36241 0.56286 0.34102 0.0
H234 H 0.33334 0.60104 0.27903 0.0
C235 C 0.36035 0.5866 0.31903 0.0
C236 C 0.33387 0.5823 0.29671 0.0
H237 H 0.37926 0.60857 0.31878 0.0
H238 H 0.19839 0.53338 0.13506 0.0
H239 H 0.24049 0.53456 0.18148 0.0
H240 H 0.24379 0.5979 0.30252 0.0
H241 H 0.20178 0.59677 0.25593 0.0
H242 H 0.28588 0.58971 0.29666 0.0
H243 H 0.26594 0.52756 0.25297 0.0
H244 H 0.29205 0.50832 0.31649 0.0
H245 H 0.3385 0.51591 0.35627 0.0
C246 C 0.64187 0.19738 0.39007 0.0
C247 C 0.64541 0.18633 0.33829 0.0
C248 C 0.66627 0.21727 0.42172 0.0
C249 C 0.69494 0.22643 0.40258 0.0
C250 C 0.69839 0.21499 0.35108 0.0
C251 C 0.6739 0.19511 0.3193 0.0
C252 C 0.7216 0.24942 0.43254 0.0
C253 C 0.72159 0.25795 0.48652 0.0
C254 C 0.74689 0.28418 0.51237 0.0
C255 C 0.74116 0.3008 0.55144 0.0
C256 C 0.76401 0.32705 0.57315 0.0
C257 C 0.79317 0.33691 0.55717 0.0
H258 H 0.78146 0.28067 0.46922 0.0
C259 C 0.79918 0.31953 0.52048 0.0
C260 C 0.77621 0.29341 0.498 0.0
H261 H 0.8215 0.32658 0.50767 0.0
H262 H 0.62017 0.19118 0.40566 0.0
H263 H 0.66226 0.22601 0.45999 0.0
H264 H 0.72014 0.22179 0.33494 0.0
H265 H 0.67731 0.18699 0.27945 0.0
H266 H 0.74168 0.26066 0.40793 0.0
H267 H 0.70174 0.24705 0.51167 0.0
H268 H 0.71881 0.29404 0.5636 0.0
H269 H 0.75875 0.33992 0.60166 0.0
C270 C 0.46313 0.79325 0.6872 0.0
C271 C 0.43459 0.78833 0.69591 0.0
C272 C 0.46743 0.77049 0.66789 0.0
C273 C 0.44321 0.7424 0.65713 0.0
C274 C 0.41482 0.73741 0.66763 0.0
C275 C 0.41053 0.76013 0.68641 0.0
C276 C 0.4463 0.71771 0.63465 0.0
C277 C 0.46899 0.72133 0.60238 0.0
C278 C 0.46899 0.69633 0.57296 0.0
C279 C 0.48316 0.70123 0.52036 0.0
C280 C 0.4807 0.67767 0.48845 0.0
C281 C 0.46423 0.64878 0.50889 0.0
H282 H 0.44383 0.66309 0.63631 0.0
C283 C 0.4516 0.64406 0.56307 0.0
C284 C 0.45405 0.66759 0.59493 0.0
H285 H 0.43913 0.62207 0.58031 0.0
H286 H 0.48208 0.81474 0.69463 0.0
H287 H 0.48968 0.77497 0.66179 0.0
H288 H 0.39578 0.71596 0.66014 0.0
H289 H 0.38827 0.7556 0.69316 0.0
H290 H 0.42761 0.69577 0.64027 0.0
H291 H 0.48642 0.74334 0.59197 0.0
H292 H 0.49512 0.72318 0.50277 0.0
H293 H 0.49087 0.682 0.44699 0.0
C294 C 0.6716 0.46688 0.85045 0.0
C295 C 0.64419 0.44498 0.82982 0.0
C296 C 0.69756 0.47207 0.82388 0.0
C297 C 0.69642 0.45553 0.77596 0.0
C298 C 0.66896 0.43414 0.75488 0.0
C299 C 0.64316 0.42872 0.78175 0.0
C300 C 0.72311 0.4598 0.74632 0.0
C301 C 0.74912 0.46891 0.7723 0.0
C302 C 0.77356 0.46783 0.74319 0.0
C303 C 0.79138 0.45996 0.77433 0.0
C304 C 0.81167 0.45453 0.74663 0.0
C305 C 0.8147 0.45722 0.68734 0.0
H306 H 0.76548 0.47967 0.65944 0.0
C307 C 0.79846 0.46725 0.65677 0.0
C308 C 0.77813 0.47258 0.68441 0.0
H309 H 0.80062 0.46993 0.61112 0.0
H310 H 0.67298 0.47986 0.88725 0.0
H311 H 0.71834 0.4892 0.84047 0.0
H312 H 0.66746 0.42121 0.71787 0.0
H313 H 0.62235 0.41186 0.76458 0.0
H314 H 0.72027 0.45218 0.70265 0.0
H315 H 0.75136 0.47371 0.81746 0.0
H316 H 0.78853 0.45652 0.81975 0.0
H317 H 0.82409 0.44706 0.77136 0.0
C318 C 0.33896 0.80327 0.88774 0.0
C319 C 0.33941 0.80965 0.82973 0.0
C320 C 0.31298 0.78211 0.91343 0.0
C321 C 0.28687 0.76695 0.88152 0.0
C322 C 0.28714 0.77437 0.82418 0.0
C323 C 0.31308 0.7956 0.79857 0.0
C324 C 0.26013 0.74108 0.90442 0.0
C325 C 0.2544 0.73572 0.96019 0.0
C326 C 0.23037 0.70728 0.98187 0.0
C327 C 0.21768 0.70632 0.03474 0.0
C328 C 0.19661 0.67946 0.058 0.0
C329 C 0.1883 0.65302 0.0292 0.0
H330 H 0.23157 0.68049 0.91275 0.0
C331 C 0.20085 0.65398 0.97619 0.0
C332 C 0.22164 0.68078 0.95273 0.0
H333 H 0.19498 0.63395 0.95314 0.0
H334 H 0.35895 0.81369 0.91277 0.0
H335 H 0.31396 0.77665 0.95736 0.0
H336 H 0.26742 0.76297 0.79852 0.0
H337 H 0.31275 0.80004 0.75375 0.0
H338 H 0.24489 0.7254 0.87371 0.0
H339 H 0.26775 0.75242 0.99122 0.0
H340 H 0.22429 0.72637 0.05834 0.0
H341 H 0.18739 0.67935 0.09911 0.0
C342 C 0.53519 0.32968 -0.00386 0.0
C343 C 0.5536 0.35928 0.0111 0.0
C344 C 0.53522 0.30728 0.02834 0.0
C345 C 0.55371 0.31417 0.0761 0.0
C346 C 0.57142 0.34373 0.09177 0.0
C347 C 0.57125 0.36603 0.0599 0.0
C348 C 0.55746 0.29166 0.10712 0.0
C349 C 0.53723 0.26285 0.10845 0.0
C350 C 0.54343 0.24087 0.13498 0.0
C351 C 0.52057 0.21551 0.16009 0.0
C352 C 0.52597 0.19419 0.18372 0.0
C353 C 0.55423 0.19764 0.18151 0.0
H354 H 0.58966 0.26305 0.11242 0.0
C355 C 0.57699 0.22288 0.15596 0.0
C356 C 0.57169 0.24426 0.133 0.0
H357 H 0.59896 0.22606 0.15326 0.0
H358 H 0.52145 0.32385 0.9586 0.0
H359 H 0.52174 0.28481 0.01414 0.0
H360 H 0.58597 0.34967 0.12814 0.0
H361 H 0.5857 0.38863 0.07255 0.0
H362 H 0.57798 0.29933 0.1301 0.0
H363 H 0.51551 0.25514 0.09063 0.0
H364 H 0.49854 0.21225 0.16155 0.0
H365 H 0.50795 0.17481 0.20278 0.0
loop_
_geom_bond_atom_site_label_1
_geom_bond_atom_site_label_2
_geom_bond_distance
_geom_bond_site_symmetry_2
_ccdc_geom_bond_type
In0 O1 2.294 . S
In0 O2 2.326 . S
In0 O6 2.266 . S
In0 O7 2.326 . S
In0 O8 2.266 . S
In0 O9 2.326 . S
In0 O11 2.294 . S
In0 O12 2.326 . S
O1 In0 2.294 . S
O1 C10 1.240 . S
O2 In0 2.326 . S
O2 C10 1.252 . S
C3 O6 1.252 . S
C3 O7 1.260 . S
C4 O11 1.240 . S
C4 O12 1.252 . S
C5 O8 1.252 . S
C5 O9 1.260 . S
O6 In0 2.266 . S
O6 C3 1.252 . S
O7 In0 2.326 . S
O7 C3 1.260 . S
O8 In0 2.266 . S
O8 C5 1.252 . S
O9 In0 2.326 . S
O9 C5 1.260 . S
C10 O1 1.240 . S
C10 O2 1.252 . S
O11 In0 2.294 . S
O11 C4 1.240 . S
O12 In0 2.326 . S
O12 C4 1.252 . S
In13 O14 2.294 . S
In13 O15 2.326 . S
In13 O19 2.266 . S
In13 O20 2.326 . S
In13 O21 2.266 . S
In13 O22 2.326 . S
In13 O24 2.294 . S
In13 O25 2.326 . S
O14 In13 2.294 . S
O14 C23 1.240 . S
O15 In13 2.326 . S
O15 C23 1.252 . S
C16 O19 1.252 . S
C16 O20 1.260 . S
C17 O24 1.240 . S
C17 O25 1.252 . S
C18 O21 1.252 . S
C18 O22 1.260 . S
O19 In13 2.266 . S
O19 C16 1.252 . S
O20 In13 2.326 . S
O20 C16 1.260 . S
O21 In13 2.266 . S
O21 C18 1.252 . S
O22 In13 2.326 . S
O22 C18 1.260 . S
C23 O14 1.240 . S
C23 O15 1.252 . S
O24 In13 2.294 . S
O24 C17 1.240 . S
O25 In13 2.326 . S
O25 C17 1.252 . S
In26 O27 2.294 . S
In26 O28 2.326 . S
In26 O32 2.266 . S
In26 O33 2.326 . S
In26 O34 2.266 . S
In26 O35 2.326 . S
In26 O37 2.294 . S
In26 O38 2.326 . S
O27 In26 2.294 . S
O27 C36 1.240 . S
O28 In26 2.326 . S
O28 C36 1.252 . S
C29 O32 1.252 . S
C29 O33 1.260 . S
C30 O37 1.240 . S
C30 O38 1.252 . S
C31 O34 1.252 . S
C31 O35 1.260 . S
O32 In26 2.266 . S
O32 C29 1.252 . S
O33 In26 2.326 . S
O33 C29 1.260 . S
O34 In26 2.266 . S
O34 C31 1.252 . S
O35 In26 2.326 . S
O35 C31 1.260 . S
C36 O27 1.240 . S
C36 O28 1.252 . S
O37 In26 2.294 . S
O37 C30 1.240 . S
O38 In26 2.326 . S
O38 C30 1.252 . S
In39 O40 2.294 . S
In39 O41 2.326 . S
In39 O45 2.266 . S
In39 O46 2.326 . S
In39 O47 2.266 . S
In39 O48 2.326 . S
In39 O50 2.294 . S
In39 O51 2.326 . S
O40 In39 2.294 . S
O40 C49 1.240 . S
O41 In39 2.326 . S
O41 C49 1.252 . S
C42 O45 1.252 . S
C42 O46 1.260 . S
C43 O50 1.240 . S
C43 O51 1.252 . S
C44 O47 1.252 . S
C44 O48 1.260 . S
O45 In39 2.266 . S
O45 C42 1.252 . S
O46 In39 2.326 . S
O46 C42 1.260 . S
O47 In39 2.266 . S
O47 C44 1.252 . S
O48 In39 2.326 . S
O48 C44 1.260 . S
C49 O40 1.240 . S
C49 O41 1.252 . S
O50 In39 2.294 . S
O50 C43 1.240 . S
O51 In39 2.326 . S
O51 C43 1.252 . S
In52 O53 2.294 . S
In52 O54 2.326 . S
In52 O58 2.266 . S
In52 O59 2.326 . S
In52 O60 2.266 . S
In52 O61 2.326 . S
In52 O63 2.294 . S
In52 O64 2.326 . S
O53 In52 2.294 . S
O53 C62 1.240 . S
O54 In52 2.326 . S
O54 C62 1.252 . S
C55 O58 1.252 . S
C55 O59 1.260 . S
C56 O63 1.240 . S
C56 O64 1.252 . S
C57 O60 1.252 . S
C57 O61 1.260 . S
O58 In52 2.266 . S
O58 C55 1.252 . S
O59 In52 2.326 . S
O59 C55 1.260 . S
O60 In52 2.266 . S
O60 C57 1.252 . S
O61 In52 2.326 . S
O61 C57 1.260 . S
C62 O53 1.240 . S
C62 O54 1.252 . S
O63 In52 2.294 . S
O63 C56 1.240 . S
O64 In52 2.326 . S
O64 C56 1.252 . S
In65 O66 2.294 . S
In65 O67 2.326 . S
In65 O71 2.266 . S
In65 O72 2.326 . S
In65 O73 2.266 . S
In65 O74 2.326 . S
In65 O76 2.294 . S
In65 O77 2.326 . S
O66 In65 2.294 . S
O66 C75 1.240 . S
O67 In65 2.326 . S
O67 C75 1.252 . S
C68 O71 1.252 . S
C68 O72 1.260 . S
C69 O76 1.240 . S
C69 O77 1.252 . S
C70 O73 1.252 . S
C70 O74 1.260 . S
O71 In65 2.266 . S
O71 C68 1.252 . S
O72 In65 2.326 . S
O72 C68 1.260 . S
O73 In65 2.266 . S
O73 C70 1.252 . S
O74 In65 2.326 . S
O74 C70 1.260 . S
C75 O66 1.240 . S
C75 O67 1.252 . S
O76 In65 2.294 . S
O76 C69 1.240 . S
O77 In65 2.326 . S
O77 C69 1.252 . S
C78 C79 1.386 . S
C78 C80 1.383 . S
C78 H94 0.951 . S
C79 C78 1.386 . S
C79 C83 1.383 . S
C80 C78 1.383 . S
C80 C81 1.402 . S
C80 H95 0.951 . S
C81 C80 1.402 . S
C81 C82 1.375 . S
C81 C84 1.481 1_455 S
C82 C81 1.375 . S
C82 C83 1.367 . S
C82 H96 0.951 . S
C83 C79 1.383 . S
C83 C82 1.367 . S
C83 H97 0.950 1_556 S
C84 C81 1.481 1_655 S
C84 C85 1.297 . S
C84 H98 0.950 . S
C85 C84 1.297 . S
C85 C86 1.479 . S
C85 H99 0.950 1_655 S
C86 C85 1.479 . S
C86 C87 1.375 . S
C86 C92 1.404 . S
C87 C86 1.375 . S
C87 C88 1.369 . S
C87 H100 0.950 . S
C88 C87 1.369 . S
C88 C89 1.392 . S
C88 H101 0.951 . S
C89 C88 1.392 . S
C89 C91 1.384 . S
H90 C92 0.949 . S
C91 C89 1.384 . S
C91 C92 1.385 . S
C91 H93 0.950 . S
C92 C86 1.404 . S
C92 H90 0.949 . S
C92 C91 1.385 . S
H93 C91 0.950 . S
H94 C78 0.951 . S
H95 C80 0.951 . S
H96 C82 0.951 . S
H97 C83 0.950 1_554 S
H98 C84 0.950 . S
H99 C85 0.950 1_455 S
H100 C87 0.950 . S
H101 C88 0.951 . S
C102 C103 1.386 . S
C102 C104 1.383 . S
C102 H118 0.951 . S
C103 C102 1.386 . S
C103 C107 1.383 . S
C104 C102 1.383 . S
C104 C105 1.402 . S
C104 H119 0.951 . S
C105 C104 1.402 . S
C105 C106 1.375 . S
C105 C108 1.481 1_556 S
C106 C105 1.375 . S
C106 C107 1.367 . S
C106 H120 0.951 . S
C107 C103 1.383 . S
C107 C106 1.367 . S
C107 H121 0.950 . S
C108 C105 1.481 1_554 S
C108 C109 1.297 1_565 S
C108 H122 0.950 . S
C109 C108 1.297 1_545 S
C109 C110 1.479 . S
C109 H123 0.950 1_554 S
C110 C109 1.479 . S
C110 C111 1.375 . S
C110 C116 1.404 . S
C111 C110 1.375 . S
C111 C112 1.369 . S
C111 H124 0.950 . S
C112 C111 1.369 . S
C112 C113 1.392 . S
C112 H125 0.951 . S
C113 C112 1.392 . S
C113 C115 1.384 . S
H114 C116 0.949 . S
C115 C113 1.384 . S
C115 C116 1.385 . S
C115 H117 0.950 . S
C116 C110 1.404 . S
C116 H114 0.949 . S
C116 C115 1.385 . S
H117 C115 0.950 . S
H118 C102 0.951 . S
H119 C104 0.951 . S
H120 C106 0.951 . S
H121 C107 0.950 . S
H122 C108 0.950 . S
H123 C109 0.950 1_556 S
H124 C111 0.950 . S
H125 C112 0.951 . S
C126 C127 1.386 . S
C126 C128 1.383 . S
C126 H142 0.951 . S
C127 C126 1.386 . S
C127 C131 1.383 . S
C128 C126 1.383 . S
C128 C129 1.402 . S
C128 H143 0.951 . S
C129 C128 1.402 . S
C129 C130 1.375 . S
C129 C132 1.481 . S
C130 C129 1.375 . S
C130 C131 1.367 . S
C130 H144 0.951 . S
C131 C127 1.383 . S
C131 C130 1.367 . S
C131 H145 0.950 . S
C132 C129 1.481 . S
C132 C133 1.297 . S
C132 H146 0.950 . S
C133 C132 1.297 . S
C133 C134 1.479 . S
C133 H147 0.950 . S
C134 C133 1.479 . S
C134 C135 1.375 . S
C134 C140 1.404 . S
C135 C134 1.375 . S
C135 C136 1.369 . S
C135 H148 0.950 . S
C136 C135 1.369 . S
C136 C137 1.392 . S
C136 H149 0.951 1_554 S
C137 C136 1.392 . S
C137 C139 1.384 . S
H138 C140 0.949 . S
C139 C137 1.384 . S
C139 C140 1.385 . S
C139 H141 0.950 . S
C140 C134 1.404 . S
C140 H138 0.949 . S
C140 C139 1.385 . S
H141 C139 0.950 . S
H142 C126 0.951 . S
H143 C128 0.951 . S
H144 C130 0.951 . S
H145 C131 0.950 . S
H146 C132 0.950 . S
H147 C133 0.950 . S
H148 C135 0.950 . S
H149 C136 0.951 1_556 S
C150 C151 1.386 . S
C150 C152 1.383 . S
C150 H166 0.951 . S
C151 C150 1.386 . S
C151 C155 1.383 . S
C152 C150 1.383 . S
C152 C153 1.402 . S
C152 H167 0.951 . S
C153 C152 1.402 . S
C153 C154 1.375 . S
C153 C156 1.481 1_655 S
C154 C153 1.375 . S
C154 C155 1.367 . S
C154 H168 0.951 . S
C155 C151 1.383 . S
C155 C154 1.367 . S
C155 H169 0.950 . S
C156 C153 1.481 1_455 S
C156 C157 1.297 . S
C156 H170 0.950 . S
C157 C156 1.297 . S
C157 C158 1.479 . S
C157 H171 0.950 1_455 S
C158 C157 1.479 . S
C158 C159 1.375 . S
C158 C164 1.404 . S
C159 C158 1.375 . S
C159 C160 1.369 . S
C159 H172 0.950 . S
C160 C159 1.369 . S
C160 C161 1.392 . S
C160 H173 0.951 . S
C161 C160 1.392 . S
C161 C163 1.384 . S
H162 C164 0.949 . S
C163 C161 1.384 . S
C163 C164 1.385 . S
C163 H165 0.950 . S
C164 C158 1.404 . S
C164 H162 0.949 . S
C164 C163 1.385 . S
H165 C163 0.950 . S
H166 C150 0.951 . S
H167 C152 0.951 . S
H168 C154 0.951 . S
H169 C155 0.950 . S
H170 C156 0.950 . S
H171 C157 0.950 1_655 S
H172 C159 0.950 . S
H173 C160 0.951 . S
C174 C175 1.386 . S
C174 C176 1.383 . S
C174 H190 0.951 . S
C175 C174 1.386 . S
C175 C179 1.383 . S
C176 C174 1.383 . S
C176 C177 1.402 . S
C176 H191 0.951 . S
C177 C176 1.402 . S
C177 C178 1.375 . S
C177 C180 1.481 1_545 S
C178 C177 1.375 . S
C178 C179 1.367 . S
C178 H192 0.951 . S
C179 C175 1.383 . S
C179 C178 1.367 . S
C179 H193 0.950 . S
C180 C177 1.481 1_565 S
C180 C181 1.297 . S
C180 H194 0.950 . S
C181 C180 1.297 . S
C181 C182 1.479 . S
C181 H195 0.950 . S
C182 C181 1.479 . S
C182 C183 1.375 . S
C182 C188 1.404 . S
C183 C182 1.375 . S
C183 C184 1.369 . S
C183 H196 0.950 . S
C184 C183 1.369 . S
C184 C185 1.392 . S
C184 H197 0.951 . S
C185 C184 1.392 . S
C185 C187 1.384 . S
H186 C188 0.949 . S
C187 C185 1.384 . S
C187 C188 1.385 . S
C187 H189 0.950 . S
C188 C182 1.404 . S
C188 H186 0.949 . S
C188 C187 1.385 . S
H189 C187 0.950 . S
H190 C174 0.951 . S
H191 C176 0.951 . S
H192 C178 0.951 . S
H193 C179 0.950 . S
H194 C180 0.950 . S
H195 C181 0.950 . S
H196 C183 0.950 . S
H197 C184 0.951 . S
C198 C199 1.386 . S
C198 C200 1.383 . S
C198 H214 0.951 . S
C199 C198 1.386 . S
C199 C203 1.383 . S
C200 C198 1.383 . S
C200 C201 1.402 . S
C200 H215 0.951 . S
C201 C200 1.402 . S
C201 C202 1.375 . S
C201 C204 1.481 . S
C202 C201 1.375 . S
C202 C203 1.367 . S
C202 H216 0.951 . S
C203 C199 1.383 . S
C203 C202 1.367 . S
C203 H217 0.950 . S
C204 C201 1.481 . S
C204 C205 1.297 . S
C204 H218 0.950 . S
C205 C204 1.297 . S
C205 C206 1.479 . S
C205 H219 0.950 . S
C206 C205 1.479 . S
C206 C207 1.375 . S
C206 C212 1.404 . S
C207 C206 1.375 . S
C207 C208 1.369 . S
C207 H220 0.950 . S
C208 C207 1.369 . S
C208 C209 1.392 . S
C208 H221 0.951 . S
C209 C208 1.392 . S
C209 C211 1.384 . S
H210 C212 0.949 . S
C211 C209 1.384 . S
C211 C212 1.385 . S
C211 H213 0.950 . S
C212 C206 1.404 . S
C212 H210 0.949 . S
C212 C211 1.385 . S
H213 C211 0.950 . S
H214 C198 0.951 . S
H215 C200 0.951 . S
H216 C202 0.951 . S
H217 C203 0.950 . S
H218 C204 0.950 . S
H219 C205 0.950 . S
H220 C207 0.950 . S
H221 C208 0.951 . S
C222 C223 1.386 . S
C222 C224 1.383 . S
C222 H238 0.951 . S
C223 C222 1.386 . S
C223 C227 1.383 . S
C224 C222 1.383 . S
C224 C225 1.402 . S
C224 H239 0.951 . S
C225 C224 1.402 . S
C225 C226 1.375 . S
C225 C228 1.481 . S
C226 C225 1.375 . S
C226 C227 1.367 . S
C226 H240 0.951 . S
C227 C223 1.383 . S
C227 C226 1.367 . S
C227 H241 0.950 . S
C228 C225 1.481 . S
C228 C229 1.297 . S
C228 H242 0.950 . S
C229 C228 1.297 . S
C229 C230 1.479 . S
C229 H243 0.950 . S
C230 C229 1.479 . S
C230 C231 1.375 . S
C230 C236 1.404 . S
C231 C230 1.375 . S
C231 C232 1.369 . S
C231 H244 0.950 . S
C232 C231 1.369 . S
C232 C233 1.392 . S
C232 H245 0.951 . S
C233 C232 1.392 . S
C233 C235 1.384 . S
H234 C236 0.949 . S
C235 C233 1.384 . S
C235 C236 1.385 . S
C235 H237 0.950 . S
C236 C230 1.404 . S
C236 H234 0.949 . S
C236 C235 1.385 . S
H237 C235 0.950 . S
H238 C222 0.951 . S
H239 C224 0.951 . S
H240 C226 0.951 . S
H241 C227 0.950 . S
H242 C228 0.950 . S
H243 C229 0.950 . S
H244 C231 0.950 . S
H245 C232 0.951 . S
C246 C247 1.386 . S
C246 C248 1.383 . S
C246 H262 0.951 . S
C247 C246 1.386 . S
C247 C251 1.383 . S
C248 C246 1.383 . S
C248 C249 1.402 . S
C248 H263 0.951 . S
C249 C248 1.402 . S
C249 C250 1.375 . S
C249 C252 1.481 . S
C250 C249 1.375 . S
C250 C251 1.367 . S
C250 H264 0.951 . S
C251 C247 1.383 . S
C251 C250 1.367 . S
C251 H265 0.950 . S
C252 C249 1.481 . S
C252 C253 1.297 . S
C252 H266 0.950 . S
C253 C252 1.297 . S
C253 C254 1.479 . S
C253 H267 0.950 . S
C254 C253 1.479 . S
C254 C255 1.375 . S
C254 C260 1.404 . S
C255 C254 1.375 . S
C255 C256 1.369 . S
C255 H268 0.950 . S
C256 C255 1.369 . S
C256 C257 1.392 . S
C256 H269 0.951 . S
C257 C256 1.392 . S
C257 C259 1.384 . S
H258 C260 0.949 . S
C259 C257 1.384 . S
C259 C260 1.385 . S
C259 H261 0.950 . S
C260 C254 1.404 . S
C260 H258 0.949 . S
C260 C259 1.385 . S
H261 C259 0.950 . S
H262 C246 0.951 . S
H263 C248 0.951 . S
H264 C250 0.951 . S
H265 C251 0.950 . S
H266 C252 0.950 . S
H267 C253 0.950 . S
H268 C255 0.950 . S
H269 C256 0.951 . S
C270 C271 1.386 . S
C270 C272 1.383 . S
C270 H286 0.951 . S
C271 C270 1.386 . S
C271 C275 1.383 . S
C272 C270 1.383 . S
C272 C273 1.402 . S
C272 H287 0.951 . S
C273 C272 1.402 . S
C273 C274 1.375 . S
C273 C276 1.481 . S
C274 C273 1.375 . S
C274 C275 1.367 . S
C274 H288 0.951 . S
C275 C271 1.383 . S
C275 C274 1.367 . S
C275 H289 0.950 . S
C276 C273 1.481 . S
C276 C277 1.297 . S
C276 H290 0.950 . S
C277 C276 1.297 . S
C277 C278 1.479 . S
C277 H291 0.950 . S
C278 C277 1.479 . S
C278 C279 1.375 . S
C278 C284 1.404 . S
C279 C278 1.375 . S
C279 C280 1.369 . S
C279 H292 0.950 . S
C280 C279 1.369 . S
C280 C281 1.392 . S
C280 H293 0.951 . S
C281 C280 1.392 . S
C281 C283 1.384 . S
H282 C284 0.949 . S
C283 C281 1.384 . S
C283 C284 1.385 . S
C283 H285 0.950 . S
C284 C278 1.404 . S
C284 H282 0.949 . S
C284 C283 1.385 . S
H285 C283 0.950 . S
H286 C270 0.951 . S
H287 C272 0.951 . S
H288 C274 0.951 . S
H289 C275 0.950 . S
H290 C276 0.950 . S
H291 C277 0.950 . S
H292 C279 0.950 . S
H293 C280 0.951 . S
C294 C295 1.386 . S
C294 C296 1.383 . S
C294 H310 0.951 . S
C295 C294 1.386 . S
C295 C299 1.383 . S
C296 C294 1.383 . S
C296 C297 1.402 . S
C296 H311 0.951 . S
C297 C296 1.402 . S
C297 C298 1.375 . S
C297 C300 1.481 . S
C298 C297 1.375 . S
C298 C299 1.367 . S
C298 H312 0.951 . S
C299 C295 1.383 . S
C299 C298 1.367 . S
C299 H313 0.950 . S
C300 C297 1.481 . S
C300 C301 1.297 . S
C300 H314 0.950 . S
C301 C300 1.297 . S
C301 C302 1.479 . S
C301 H315 0.950 . S
C302 C301 1.479 . S
C302 C303 1.375 . S
C302 C308 1.404 . S
C303 C302 1.375 . S
C303 C304 1.369 . S
C303 H316 0.950 . S
C304 C303 1.369 . S
C304 C305 1.392 . S
C304 H317 0.951 . S
C305 C304 1.392 . S
C305 C307 1.384 . S
H306 C308 0.949 . S
C307 C305 1.384 . S
C307 C308 1.385 . S
C307 H309 0.950 . S
C308 C302 1.404 . S
C308 H306 0.949 . S
C308 C307 1.385 . S
H309 C307 0.950 . S
H310 C294 0.951 . S
H311 C296 0.951 . S
H312 C298 0.951 . S
H313 C299 0.950 . S
H314 C300 0.950 . S
H315 C301 0.950 . S
H316 C303 0.950 . S
H317 C304 0.951 . S
C318 C319 1.386 . S
C318 C320 1.383 . S
C318 H334 0.951 . S
C319 C318 1.386 . S
C319 C323 1.383 . S
C320 C318 1.383 . S
C320 C321 1.402 . S
C320 H335 0.951 . S
C321 C320 1.402 . S
C321 C322 1.375 . S
C321 C324 1.481 . S
C322 C321 1.375 . S
C322 C323 1.367 . S
C322 H336 0.951 . S
C323 C319 1.383 . S
C323 C322 1.367 . S
C323 H337 0.950 . S
C324 C321 1.481 . S
C324 C325 1.297 . S
C324 H338 0.950 . S
C325 C324 1.297 . S
C325 C326 1.479 . S
C325 H339 0.950 . S
C326 C325 1.479 . S
C326 C327 1.375 1_556 S
C326 C332 1.404 . S
C327 C326 1.375 1_554 S
C327 C328 1.369 . S
C327 H340 0.950 . S
C328 C327 1.369 . S
C328 C329 1.392 . S
C328 H341 0.951 . S
C329 C328 1.392 . S
C329 C331 1.384 1_554 S
H330 C332 0.949 . S
C331 C329 1.384 1_556 S
C331 C332 1.385 . S
C331 H333 0.950 . S
C332 C326 1.404 . S
C332 H330 0.949 . S
C332 C331 1.385 . S
H333 C331 0.950 . S
H334 C318 0.951 . S
H335 C320 0.951 . S
H336 C322 0.951 . S
H337 C323 0.950 . S
H338 C324 0.950 . S
H339 C325 0.950 . S
H340 C327 0.950 . S
H341 C328 0.951 . S
C342 C343 1.386 . S
C342 C344 1.383 1_556 S
C342 H358 0.951 . S
C343 C342 1.386 . S
C343 C347 1.383 1_556 S
C344 C342 1.383 1_554 S
C344 C345 1.402 . S
C344 H359 0.951 1_554 S
C345 C344 1.402 . S
C345 C346 1.375 . S
C345 C348 1.481 . S
C346 C345 1.375 . S
C346 C347 1.367 . S
C346 H360 0.951 . S
C347 C343 1.383 1_554 S
C347 C346 1.367 . S
C347 H361 0.950 . S
C348 C345 1.481 . S
C348 C349 1.297 . S
C348 H362 0.950 . S
C349 C348 1.297 . S
C349 C350 1.479 . S
C349 H363 0.950 . S
C350 C349 1.479 . S
C350 C351 1.375 . S
C350 C356 1.404 . S
C351 C350 1.375 . S
C351 C352 1.369 . S
C351 H364 0.950 . S
C352 C351 1.369 . S
C352 C353 1.392 . S
C352 H365 0.951 . S
C353 C352 1.392 . S
C353 C355 1.384 . S
H354 C356 0.949 . S
C355 C353 1.384 . S
C355 C356 1.385 . S
C355 H357 0.950 . S
C356 C350 1.404 . S
C356 H354 0.949 . S
C356 C355 1.385 . S
H357 C355 0.950 . S
H358 C342 0.951 . S
H359 C344 0.951 1_556 S
H360 C346 0.951 . S
H361 C347 0.950 . S
H362 C348 0.950 . S
H363 C349 0.950 . S
H364 C351 0.950 . S
H365 C352 0.951 . S
C79 C10 1.319 1_556 S
C89 C49 1.321 . S
C103 C56 1.322 . S
C113 C23 1.294 . S
C127 C36 1.320 . S
C137 C69 1.320 1_554 S
C151 C43 1.312 . S
C161 C4 1.326 . S
C175 C17 1.308 . S
C185 C62 1.324 . S
C199 C75 1.325 . S
C209 C30 1.308 . S
C223 C3 1.294 . S
C233 C31 1.278 . S
C247 C16 1.301 . S
C257 C42 1.295 . S
C271 C57 1.305 . S
C281 C29 1.295 . S
C295 C70 1.294 . S
C305 C44 1.280 . S
C319 C55 1.315 . S
C329 C5 1.312 . S
C343 C68 1.295 . S
C353 C18 1.279 . S
