# Generated by pormake.
# Topology sxc, (6)-cn, num edge types: 1
# Building blocks:
#     Node 0, Type 0, BuildingBlock: INOVEN_clean_sbu_0, # of connection points: 6
#     Node 1, Type 0, BuildingBlock: INOVEN_clean_sbu_0, # of connection points: 6
#     Node 2, Type 0, BuildingBlock: INOVEN_clean_sbu_0, # of connection points: 6
#     Edge 3, Type (0, 0), BuildingBlock: XUDNAN_clean_linker_2, # of connection points: 2
#     Edge 4, Type (0, 0), BuildingBlock: XUDNAN_clean_linker_2, # of connection points: 2
#     Edge 5, Type (0, 0), BuildingBlock: XUDNAN_clean_linker_2, # of connection points: 2
#     Edge 6, Type (0, 0), BuildingBlock: XUDNAN_clean_linker_2, # of connection points: 2
#     Edge 7, Type (0, 0), BuildingBlock: XUDNAN_clean_linker_2, # of connection points: 2
#     Edge 8, Type (0, 0), BuildingBlock: XUDNAN_clean_linker_2, # of connection points: 2
#     Edge 9, Type (0, 0), BuildingBlock: XUDNAN_clean_linker_2, # of connection points: 2
#     Edge 10, Type (0, 0), BuildingBlock: XUDNAN_clean_linker_2, # of connection points: 2
#     Edge 11, Type (0, 0), BuildingBlock: XUDNAN_clean_linker_2, # of connection points: 2
# Relax obj value: 0.305
# Max RMSD: 0.165
# Mean RMSD: 0.092
data_MOF--net-sxc--node1-INOVEN_clean_sbu_0--edge1-XUDNAN_clean_linker_2
_symmetry_space_group_name_H-M    P1
_symmetry_Int_Tables_number       1
_symmetry_cell_setting            triclinic
loop_
_symmetry_equiv_pos_as_xyz
'x, y, z'
_cell_length_a     18.725668
_cell_length_b     16.507636
_cell_length_c     45.29005
_cell_angle_alpha  91.72682
_cell_angle_beta   95.234825
_cell_angle_gamma 98.459664
loop_
_atom_site_label
_atom_site_type_symbol
_atom_site_fract_x
_atom_site_fract_y
_atom_site_fract_z
_atom_type_partial_charge
Gd0 Gd 0.18431 0.10124 -4e-05 0.0
Gd1 Gd 1.03714 0.08883 -0.00513 0.0
C2 C 0.11258 0.27795 -0.00152 0.0
C3 C 0.32025 0.12599 -0.00849 0.0
C4 C 0.36548 0.18456 0.97526 0.0
C5 C 0.44044 0.18517 0.97764 0.0
C6 C 0.33418 0.2413 0.95784 0.0
C7 C 0.454 0.3074 0.94903 0.0
C8 C 0.37831 0.30262 0.94477 0.0
C9 C 0.48462 0.24617 0.96444 0.0
C10 C 0.13329 0.08989 0.05467 0.0
C11 C 0.10647 0.91039 -0.002 0.0
C12 C 0.89958 0.05738 -0.00038 0.0
C13 C 0.84509 0.98518 -0.00785 0.0
C14 C 0.77894 0.9934 0.97621 0.0
C15 C 0.86156 0.90707 -0.00167 0.0
C16 C 0.74711 0.84544 0.97206 0.0
C17 C 0.81336 0.83786 -0.01182 0.0
C18 C 0.72999 0.92376 0.96622 0.0
C19 C 1.08808 0.10406 0.94029 0.0
O20 O 0.17024 0.24213 -0.00736 0.0
O21 O 1.05443 0.22744 0.00433 0.0
O22 O 0.29476 0.15576 0.01475 0.0
O23 O 0.27153 0.0761 0.97487 0.0
O24 O 0.18156 0.0486 0.04572 0.0
O25 O 0.11354 0.13421 0.03404 0.0
O26 O 1.04763 0.94811 -0.00281 0.0
O27 O 0.16997 0.95856 -0.00116 0.0
O28 O 0.92667 0.09231 0.97686 0.0
O29 O 0.94892 0.05089 0.02145 0.0
O30 O 1.03918 0.1435 0.94962 0.0
O31 O 0.10829 0.05846 0.96045 0.0
H32 H 0.46492 0.14059 -0.00936 0.0
H33 H 0.27596 0.24023 0.95542 0.0
H34 H 0.3535 0.34957 0.93327 0.0
H35 H 0.54294 0.24858 0.96781 0.0
H36 H 0.76582 0.05351 0.97107 0.0
H37 H 0.9123 0.89932 0.01054 0.0
H38 H 0.82864 0.77825 -0.00742 0.0
H39 H 0.67896 0.93109 0.95406 0.0
Gd40 Gd 1.02841 0.11078 0.32384 0.0
Gd41 Gd 0.17613 0.14075 0.33491 0.0
C42 C 0.10385 0.30938 0.33279 0.0
C43 C 0.88898 0.08971 0.31671 0.0
C44 C 0.83937 1.01974 0.302 0.0
C45 C 0.84887 0.93859 0.30789 0.0
C46 C 0.78659 1.03391 0.27963 0.0
C47 C 0.75107 0.88678 0.27005 0.0
C48 C 0.74284 0.96819 0.26382 0.0
C49 C 0.80497 0.87269 0.29212 0.0
C50 C 0.09459 0.10046 0.2726 0.0
C51 C 0.09674 0.94169 0.33001 0.0
C52 C 0.30794 0.12711 0.32783 0.0
C53 C 0.32916 0.05652 0.31211 0.0
C54 C 0.38868 1.02129 0.32353 0.0
C55 C 0.28414 1.01766 0.28755 0.0
C56 C 0.35866 0.90976 0.28576 0.0
C57 C 0.29881 0.94509 0.27448 0.0
C58 C 0.40356 0.94878 0.3104 0.0
C59 C 0.11682 0.15145 0.38721 0.0
O60 O 1.04436 0.2534 0.33308 0.0
O61 O 0.16669 0.28055 0.33211 0.0
O62 O 0.92517 0.07625 0.34171 0.0
O63 O 0.92914 0.13282 0.29905 0.0
O64 O 1.04424 0.04545 0.28044 0.0
O65 O 0.10967 0.15554 0.2931 0.0
O66 O 0.15786 0.99454 0.32893 0.0
O67 O 1.03648 0.9747 0.33053 0.0
O68 O 0.28014 0.11049 0.35276 0.0
O69 O 0.27119 0.17337 0.31139 0.0
O70 O 0.17459 0.19823 0.38049 0.0
O71 O 0.09414 0.09828 0.36625 0.0
H72 H 0.88997 0.92594 0.32477 0.0
H73 H 0.7791 0.09593 0.27443 0.0
H74 H 0.70047 0.98131 0.24755 0.0
H75 H 0.81211 0.81076 0.29758 0.0
H76 H 0.42328 0.04948 0.34269 0.0
H77 H 0.23675 1.04265 0.27868 0.0
H78 H 0.26351 0.9168 0.25551 0.0
H79 H 0.45145 0.92445 0.31915 0.0
Gd80 Gd 0.09302 1.03196 0.65973 0.0
Gd81 Gd 0.10488 0.18234 0.66556 0.0
C82 C 0.9168 0.10844 0.6625 0.0
C83 C 1.05807 0.87577 0.66508 0.0
C84 C 0.99202 0.82738 0.6739 0.0
C85 C 0.96513 0.75116 0.6596 0.0
C86 C 0.95235 0.86007 0.69499 0.0
C87 C 0.85776 0.74247 0.68644 0.0
C88 C 0.88591 0.81782 0.70128 0.0
C89 C 0.8983 0.7089 0.66581 0.0
C90 C 0.10012 0.09407 0.60477 0.0
C91 C 0.2814 0.10708 0.66274 0.0
C92 C 0.14153 0.33854 0.66067 0.0
C93 C 0.21161 0.39265 0.66323 0.0
C94 C 0.22219 0.46259 0.68237 0.0
C95 C 0.27011 0.37127 0.64894 0.0
C96 C 0.35001 0.486 0.67453 0.0
C97 C 0.33868 0.41768 0.6545 0.0
C98 C 0.29097 0.50891 0.68805 0.0
C99 C 0.09646 0.1223 0.72079 0.0
O100 O 0.95564 1.04218 0.66313 0.0
O101 O 0.96889 0.1762 0.66194 0.0
O102 O 1.05065 0.91098 0.63988 0.0
O103 O 0.09604 0.9246 0.68578 0.0
O104 O 0.14302 0.04579 0.61599 0.0
O105 O 1.05928 0.11212 0.62399 0.0
O106 O 0.24182 0.17227 0.66427 0.0
O107 O 0.22992 1.03799 0.66106 0.0
O108 O 0.12312 0.30596 0.6852 0.0
O109 O 0.12837 0.28609 0.63799 0.0
O110 O 1.05635 0.17319 0.70952 0.0
O111 O 0.13664 0.10177 0.70164 0.0
H112 H 0.99492 0.72539 0.64315 0.0
H113 H 0.9717 0.91942 0.70605 0.0
H114 H 0.85527 0.84571 0.7169 0.0
H115 H 0.87783 0.6506 0.6542 0.0
H116 H 0.1777 0.47989 0.69364 0.0
H117 H 0.26359 0.31728 0.63419 0.0
H118 H 0.38342 0.39813 0.64403 0.0
H119 H 0.29824 0.56188 0.70333 0.0
H120 H 0.21947 0.43127 -0.00363 0.0
H121 H 0.98929 0.34791 -0.00089 0.0
H122 H 0.96643 0.48989 -0.00092 0.0
H123 H 0.22535 0.6185 0.04496 0.0
H124 H 0.28817 0.68365 0.02488 0.0
H125 H 0.28967 0.57462 0.02454 0.0
H126 H 0.2732 0.56804 0.96738 0.0
H127 H 0.27169 0.67706 0.96755 0.0
H128 H 0.19757 0.60747 0.94842 0.0
H129 H 0.96343 0.64593 -0.00154 0.0
H130 H 0.98239 0.79647 -0.0017 0.0
H131 H 0.21365 0.79664 -0.00277 0.0
C132 C 0.16405 0.44231 -0.00313 0.0
C133 C 0.10644 0.37303 -0.00226 0.0
C134 C 1.03563 0.39531 -0.00148 0.0
C135 C 1.02152 0.47772 -0.00153 0.0
C136 C 1.07818 0.54306 -0.00222 0.0
C137 C 0.14848 0.52684 -0.00294 0.0
C138 C 0.19872 0.61099 -0.0032 0.0
C139 C 0.2538 0.62262 0.02443 0.0
C140 C 0.23766 0.61619 0.96835 0.0
C141 C 0.14594 0.67583 -0.00258 0.0
C142 C 1.07654 0.63402 -0.00212 0.0
C143 C 1.01797 0.67834 -0.00177 0.0
C144 C 1.02948 0.76576 -0.00182 0.0
C145 C 0.09944 0.81332 -0.00204 0.0
C146 C 0.15876 0.76535 -0.00246 0.0
H147 H 0.40876 0.77851 0.31 0.0
H148 H 0.36036 0.88438 0.22595 0.0
H149 H 0.44442 0.80768 0.20326 0.0
H150 H 0.56012 0.82142 0.31989 0.0
H151 H 0.5984 0.73292 0.33267 0.0
H152 H 0.50542 0.73808 0.33615 0.0
H153 H 0.46894 0.60009 0.30684 0.0
H154 H 0.56336 0.59476 0.30327 0.0
H155 H 0.49932 0.58551 0.27072 0.0
H156 H 0.56703 0.79738 0.19803 0.0
H157 H 0.69266 0.86003 0.21217 0.0
H158 H 0.68081 0.76546 0.2996 0.0
C159 C 0.41376 0.78111 0.28643 0.0
C160 C 0.38059 0.83879 0.26998 0.0
C161 C 0.38573 0.84085 0.23913 0.0
C162 C 0.43373 0.79682 0.226 0.0
C163 C 0.47659 0.75174 0.24402 0.0
C164 C 0.46438 0.74001 0.27356 0.0
C165 C 0.52893 0.71082 0.29037 0.0
C166 C 0.54943 0.75372 0.32151 0.0
C167 C 0.51426 0.61727 0.29292 0.0
C168 C 0.58543 0.73324 0.26887 0.0
C169 C 0.5526 0.7467 0.241 0.0
C170 C 0.59288 0.78533 0.21947 0.0
C171 C 0.66448 0.82152 0.2277 0.0
C172 C 0.69492 0.819 0.25726 0.0
C173 C 0.65803 0.7671 0.27686 0.0
H174 H 0.7501 0.67742 0.64405 0.0
H175 H 0.79924 0.71893 0.73929 0.0
H176 H 0.67297 0.66089 0.74663 0.0
H177 H 0.57193 0.72997 0.64025 0.0
H178 H 0.53463 0.65259 0.61184 0.0
H179 H 0.6292 0.69557 0.61407 0.0
H180 H 0.66526 0.55007 0.61774 0.0
H181 H 0.5708 0.50651 0.61516 0.0
H182 H 0.6315 0.48457 0.64611 0.0
H183 H 0.5415 0.6003 0.74339 0.0
H184 H 0.41474 0.53515 0.72996 0.0
H185 H 0.4525 0.53464 0.63682 0.0
C186 C 0.73462 0.67298 0.66648 0.0
C187 C 0.78422 0.70216 0.69114 0.0
C188 C 0.76168 0.69713 0.72012 0.0
C189 C 0.6903 0.66428 0.7245 0.0
C190 C 0.64246 0.63708 0.69964 0.0
C191 C 0.66373 0.6407 0.67122 0.0
C192 C 0.60166 0.60816 0.64825 0.0
C193 C 0.58328 0.6756 0.62738 0.0
C194 C 0.61831 0.53285 0.6308 0.0
C195 C 0.54227 0.58492 0.66823 0.0
C196 C 0.56673 0.60253 0.69776 0.0
C197 C 0.52161 0.58632 0.72034 0.0
C198 C 0.44971 0.54996 0.71249 0.0
C199 C 0.42406 0.53017 0.68237 0.0
C200 C 0.47091 0.54866 0.66003 0.0
H201 H 0.75522 0.98564 0.6618 0.0
H202 H 0.83078 0.24519 0.6635 0.0
H203 H 0.70453 0.27007 0.6638 0.0
H204 H 0.57342 0.99211 0.6137 0.0
H205 H 0.51923 0.91479 0.63274 0.0
H206 H 0.61566 0.91471 0.63286 0.0
H207 H 0.62853 0.91811 0.68941 0.0
H208 H 0.53213 0.9182 0.68949 0.0
H209 H 0.59529 0.99788 0.70983 0.0
H210 H 0.53657 0.27069 0.66416 0.0
H211 H 0.40355 0.24631 0.66406 0.0
H212 H 0.41058 0.9866 0.66159 0.0
C213 C 0.74807 0.04948 0.66225 0.0
C214 C 0.8191 0.11247 0.66264 0.0
C215 C 0.79047 0.19092 0.66317 0.0
C216 C 0.71309 0.20666 0.66336 0.0
C217 C 0.64844 0.1453 0.66297 0.0
C218 C 0.66666 0.06635 0.66236 0.0
C219 C 0.58606 1.01049 0.66189 0.0
C220 C 0.5728 0.95453 0.63364 0.0
C221 C 0.58545 0.95786 0.68925 0.0
C222 C 0.52044 0.06682 0.66233 0.0
C223 C 0.55952 0.14563 0.663 0.0
C224 C 0.51115 0.20733 0.66359 0.0
C225 C 0.42955 0.19199 0.66352 0.0
C226 C 0.38035 0.11353 0.66278 0.0
C227 C 0.43468 0.05038 0.66217 0.0
H228 H 0.71333 0.71086 0.00358 0.0
H229 H 0.6672 0.81202 0.9178 0.0
H230 H 0.58976 0.68105 0.9006 0.0
H231 H 0.73097 0.5114 0.97591 0.0
H232 H 0.69036 0.46077 0.00633 0.0
H233 H 0.73885 0.56349 0.01188 0.0
H234 H 0.62557 0.61368 0.03101 0.0
H235 H 0.57728 0.51091 0.02604 0.0
H236 H 0.54001 0.59389 0.00838 0.0
H237 H 0.51617 0.53741 0.89374 0.0
H238 H 0.45088 0.39681 0.89858 0.0
H239 H 0.55607 0.39359 0.9878 0.0
C240 C 0.68745 0.70551 0.98107 0.0
C241 C 0.69651 0.77091 0.96191 0.0
C242 C 0.66031 0.76239 0.93288 0.0
C243 C 0.61693 0.68824 0.92286 0.0
C244 C 0.61112 0.62395 0.94219 0.0
C245 C 0.64538 0.63235 0.9707 0.0
C246 C 0.63132 0.55508 0.98735 0.0
C247 C 0.70209 0.52068 -0.00415 0.0
C248 C 0.59113 0.56926 0.0148 0.0
C249 C 0.58341 0.50141 0.96381 0.0
C250 C 0.57187 0.54172 0.93789 0.0
C251 C 0.52555 0.5049 0.91379 0.0
C252 C 0.489 0.42536 0.91666 0.0
C253 C 0.50002 0.38421 0.94329 0.0
C254 C 0.54866 0.42249 0.96681 0.0
H255 H 0.20916 0.46151 0.33017 0.0
H256 H 0.97996 0.37938 0.33568 0.0
H257 H 0.95777 0.52228 0.33535 0.0
H258 H 0.22024 0.65274 0.37752 0.0
H259 H 0.2815 0.71533 0.35599 0.0
H260 H 0.28232 0.60628 0.35666 0.0
H261 H 0.26197 0.59612 0.29965 0.0
H262 H 0.25985 0.70491 0.29878 0.0
H263 H 0.18483 0.63376 0.28112 0.0
H264 H 0.95612 0.67832 0.33424 0.0
H265 H 0.97519 0.8281 0.33302 0.0
H266 H 0.20547 0.82739 0.32818 0.0
C267 C 0.15411 0.47309 0.3314 0.0
C268 C 0.09642 0.40416 0.33306 0.0
C269 C 1.02606 0.42673 0.33446 0.0
C270 C 1.01255 0.50953 0.33426 0.0
C271 C 1.06938 0.57451 0.33261 0.0
C272 C 0.13922 0.55774 0.33122 0.0
C273 C 0.18975 0.6414 0.3296 0.0
C274 C 0.24689 0.65472 0.35655 0.0
C275 C 0.22632 0.64417 0.30056 0.0
C276 C 0.13766 0.70689 0.33031 0.0
C277 C 1.06844 0.66555 0.33203 0.0
C278 C 1.01044 0.71024 0.33293 0.0
C279 C 1.02218 0.79738 0.33218 0.0
C280 C 0.09184 0.84476 0.3305 0.0
C281 C 0.15081 0.79648 0.32952 0.0
H282 H 0.11141 0.98788 0.2279 0.0
H283 H 0.10059 0.24538 0.2448 0.0
H284 H 0.10639 0.2694 0.19137 0.0
H285 H 0.24297 1.02405 0.17221 0.0
H286 H 0.20446 0.93318 0.14989 0.0
H287 H 0.19813 0.93604 0.18937 0.0
H288 H 1.05861 0.89797 0.18005 0.0
H289 H 1.06445 0.89586 0.14055 0.0
H290 H 1.00779 0.96071 0.1569 0.0
H291 H 0.10266 0.26323 0.13503 0.0
H292 H 0.10963 0.23263 0.08165 0.0
H293 H 0.13731 0.98277 0.10077 0.0
C294 C 0.11074 0.04936 0.2203 0.0
C295 C 0.10508 0.11478 0.24065 0.0
C296 C 0.10511 0.19441 0.22981 0.0
C297 C 0.10796 0.20853 0.19938 0.0
C298 C 0.11258 0.14282 0.17984 0.0
C299 C 0.11582 0.06511 0.18995 0.0
C300 C 0.12431 1.00619 0.16433 0.0
C301 C 0.19677 0.9729 0.16925 0.0
C302 C 1.05995 0.93603 0.16022 0.0
C303 C 0.12384 0.06242 0.1382 0.0
C304 C 0.11584 0.14071 0.14765 0.0
C305 C 0.11005 0.20243 0.12752 0.0
C306 C 0.11367 0.18435 0.09712 0.0
C307 C 0.12461 0.10558 0.08687 0.0
C308 C 0.12969 1.04388 0.10787 0.0
H309 H 0.21147 0.15019 0.4376 0.0
H310 H 0.98269 0.12879 0.40802 0.0
H311 H 0.95338 0.11763 0.46029 0.0
H312 H 0.18803 0.99838 0.4938 0.0
H313 H 0.26099 0.05072 0.51927 0.0
H314 H 0.26354 0.06154 0.47991 0.0
H315 H 0.27777 0.21928 0.48774 0.0
H316 H 0.27482 0.2089 0.52712 0.0
H317 H 0.21166 0.26416 0.50678 0.0
H318 H 0.95049 0.11716 0.51722 0.0
H319 H 0.97208 0.10609 0.57169 0.0
H320 H 0.20143 0.11072 0.56378 0.0
C321 C 0.15518 0.14342 0.44217 0.0
C322 C 0.09924 0.14148 0.41866 0.0
C323 C 1.02633 0.1308 0.42558 0.0
C324 C 1.00931 0.12474 0.45528 0.0
C325 C 1.06569 0.12735 0.47798 0.0
C326 C 0.13715 0.13464 0.47165 0.0
C327 C 0.18732 0.13055 0.49984 0.0
C328 C 0.22732 0.05585 0.49809 0.0
C329 C 0.24107 0.21049 0.50571 0.0
C330 C 0.13329 0.12073 0.52312 0.0
C331 C 1.06349 0.12063 0.51015 0.0
C332 C 1.0049 0.11612 0.52741 0.0
C333 C 1.01769 0.11025 0.55844 0.0
C334 C 1.08828 0.10686 0.57212 0.0
C335 C 0.14669 0.11233 0.55403 0.0
H336 H 1.02832 0.18606 0.76575 0.0
H337 H 0.18495 1.02456 0.7501 0.0
H338 H 0.20105 1.00235 0.80413 0.0
H339 H 0.11944 0.28127 0.83443 0.0
H340 H 1.03675 0.28777 0.85125 0.0
H341 H 1.03712 0.28956 0.81152 0.0
H342 H 0.93352 0.16601 0.8053 0.0
H343 H 0.9327 0.16399 0.84501 0.0
H344 H 0.94482 0.07328 0.82405 0.0
H345 H 0.1997 0.99856 0.86136 0.0
H346 H 0.18031 1.01297 0.91463 0.0
H347 H 1.02583 0.17846 0.89274 0.0
C348 C 1.06591 0.14583 0.77362 0.0
C349 C 0.10538 0.10706 0.75343 0.0
C350 C 0.15406 0.05506 0.76493 0.0
C351 C 0.16358 1.0421 0.79568 0.0
C352 C 0.12417 0.08167 0.81499 0.0
C353 C 1.07625 0.13251 0.80428 0.0
C354 C 1.04062 0.16833 0.82954 0.0
C355 C 1.05963 0.26231 0.83181 0.0
C356 C 0.95802 0.14127 0.82574 0.0
C357 C 1.07565 0.12984 0.8562 0.0
C358 C 0.12374 0.07991 0.84742 0.0
C359 C 0.16211 1.03761 0.86828 0.0
C360 C 0.15083 0.04614 0.89862 0.0
C361 C 0.10159 0.09676 0.90814 0.0
C362 C 1.06401 0.13927 0.8864 0.0
loop_
_geom_bond_atom_site_label_1
_geom_bond_atom_site_label_2
_geom_bond_distance
_geom_bond_site_symmetry_2
_ccdc_geom_bond_type
Gd0 C3 2.818 . S
Gd0 O20 2.377 . S
Gd0 O22 2.448 . S
Gd0 O23 2.506 1_554 S
Gd0 O24 2.435 . S
Gd0 O25 2.717 1_545 S
Gd0 O27 2.395 1_545 S
Gd0 O31 2.327 1_554 S
Gd1 C12 2.818 . S
Gd1 O21 2.395 1_565 S
Gd1 O25 2.327 1_656 S
Gd1 O26 2.377 . S
Gd1 O28 2.448 . S
Gd1 O29 2.506 1_556 S
Gd1 O30 2.435 . S
Gd1 O31 2.717 1_665 S
C2 O20 1.240 . S
C2 O21 1.240 1_454 S
C3 Gd0 2.818 . S
C3 C4 1.510 . S
C3 O22 1.249 . S
C3 O23 1.252 1_554 S
C4 C3 1.510 . S
C4 C5 1.404 . S
C4 C6 1.352 1_554 S
C5 C4 1.404 . S
C5 C9 1.389 . S
C5 H32 0.930 . S
C6 C4 1.352 1_556 S
C6 C8 1.374 . S
C6 H33 0.931 . S
C7 C8 1.359 1_554 S
C7 C9 1.364 . S
C8 C6 1.374 . S
C8 C7 1.359 1_556 S
C8 H34 0.931 . S
C9 C5 1.389 . S
C9 C7 1.364 . S
C9 H35 0.931 . S
C10 O24 1.256 . S
C10 O25 1.257 1_545 S
C11 O26 1.233 1_454 S
C11 O27 1.244 . S
C12 Gd1 2.818 . S
C12 C13 1.510 . S
C12 O28 1.249 . S
C12 O29 1.252 1_556 S
C13 C12 1.510 . S
C13 C14 1.404 . S
C13 C15 1.352 1_556 S
C14 C13 1.404 . S
C14 C18 1.389 . S
C14 H36 0.930 . S
C15 C13 1.352 1_554 S
C15 C17 1.374 . S
C15 H37 0.931 . S
C16 C17 1.370 . S
C16 C18 1.351 1_554 S
C17 C15 1.374 . S
C17 C16 1.370 . S
C17 H38 0.931 . S
C18 C14 1.389 . S
C18 C16 1.351 1_556 S
C18 H39 0.931 . S
C19 O30 1.256 1_445 S
C19 O31 1.257 . S
O20 Gd0 2.377 . S
O20 C2 1.240 . S
O21 Gd1 2.395 1_545 S
O21 C2 1.240 1_656 S
O22 Gd0 2.448 . S
O22 C3 1.249 . S
O23 Gd0 2.506 1_556 S
O23 C3 1.252 1_556 S
O24 Gd0 2.435 . S
O24 C10 1.256 . S
O25 Gd0 2.717 1_565 S
O25 Gd1 2.327 1_454 S
O25 C10 1.257 1_565 S
O26 Gd1 2.377 . S
O26 C11 1.233 1_656 S
O27 Gd0 2.395 1_565 S
O27 C11 1.244 . S
O28 Gd1 2.448 . S
O28 C12 1.249 . S
O29 Gd1 2.506 1_554 S
O29 C12 1.252 1_554 S
O30 Gd1 2.435 . S
O30 C19 1.256 1_665 S
O31 Gd0 2.327 1_556 S
O31 Gd1 2.717 1_445 S
O31 C19 1.257 . S
H32 C5 0.930 . S
H33 C6 0.931 . S
H34 C8 0.931 . S
H35 C9 0.931 . S
H36 C14 0.930 . S
H37 C15 0.931 . S
H38 C17 0.931 . S
H39 C18 0.931 . S
Gd40 C43 2.818 1_565 S
Gd40 O60 2.377 1_565 S
Gd40 O62 2.444 1_565 S
Gd40 O63 2.506 1_565 S
Gd40 O64 2.435 . S
Gd40 O65 2.717 1_665 S
Gd40 O67 2.395 . S
Gd40 O71 2.327 1_565 S
Gd41 C52 2.818 . S
Gd41 O61 2.395 . S
Gd41 O65 2.327 . S
Gd41 O66 2.377 1_545 S
Gd41 O68 2.448 . S
Gd41 O69 2.506 . S
Gd41 O70 2.435 . S
Gd41 O71 2.717 1_455 S
C42 O60 1.240 . S
C42 O61 1.240 1_655 S
C43 Gd40 2.818 1_545 S
C43 C44 1.510 . S
C43 O62 1.253 . S
C43 O63 1.252 . S
C44 C43 1.510 . S
C44 C45 1.404 . S
C44 C46 1.352 . S
C45 C44 1.404 . S
C45 C49 1.389 . S
C45 H72 0.930 . S
C46 C44 1.352 . S
C46 C48 1.374 . S
C46 H73 0.931 . S
C47 C48 1.359 . S
C47 C49 1.364 . S
C48 C46 1.374 . S
C48 C47 1.359 . S
C48 H74 0.931 . S
C49 C45 1.389 . S
C49 C47 1.364 . S
C49 H75 0.931 . S
C50 O64 1.256 1_545 S
C50 O65 1.257 1_655 S
C51 O66 1.240 . S
C51 O67 1.240 1_455 S
C52 Gd41 2.818 . S
C52 C53 1.510 1_545 S
C52 O68 1.249 . S
C52 O69 1.252 . S
C53 C52 1.510 1_565 S
C53 C54 1.404 . S
C53 C55 1.352 . S
C54 C53 1.404 . S
C54 C58 1.389 . S
C54 H76 0.930 1_565 S
C55 C53 1.352 . S
C55 C57 1.374 . S
C55 H77 0.931 . S
C56 C57 1.359 . S
C56 C58 1.364 . S
C57 C55 1.374 . S
C57 C56 1.359 . S
C57 H78 0.931 . S
C58 C54 1.389 . S
C58 C56 1.364 . S
C58 H79 0.931 . S
C59 O70 1.256 . S
C59 O71 1.257 1_455 S
O60 Gd40 2.377 1_545 S
O60 C42 1.240 . S
O61 Gd41 2.395 . S
O61 C42 1.240 1_455 S
O62 Gd40 2.444 1_545 S
O62 C43 1.253 . S
O63 Gd40 2.506 1_545 S
O63 C43 1.252 . S
O64 Gd40 2.435 . S
O64 C50 1.256 1_565 S
O65 Gd40 2.717 1_445 S
O65 Gd41 2.327 . S
O65 C50 1.257 1_455 S
O66 Gd41 2.377 1_565 S
O66 C51 1.240 . S
O67 Gd40 2.395 . S
O67 C51 1.240 1_655 S
O68 Gd41 2.448 . S
O68 C52 1.249 . S
O69 Gd41 2.506 . S
O69 C52 1.252 . S
O70 Gd41 2.435 . S
O70 C59 1.256 . S
O71 Gd40 2.327 1_545 S
O71 Gd41 2.717 1_655 S
O71 C59 1.257 1_655 S
H72 C45 0.930 . S
H73 C46 0.931 . S
H74 C48 0.931 . S
H75 C49 0.931 . S
H76 C54 0.930 1_545 S
H77 C55 0.931 . S
H78 C57 0.931 . S
H79 C58 0.931 . S
Gd80 C83 2.818 . S
Gd80 O100 2.377 1_565 S
Gd80 O102 2.448 . S
Gd80 O103 2.506 . S
Gd80 O104 2.435 . S
Gd80 O105 2.717 1_665 S
Gd80 O107 2.395 1_655 S
Gd80 O111 2.327 1_565 S
Gd81 C92 2.818 . S
Gd81 O101 2.395 1_455 S
Gd81 O105 2.327 . S
Gd81 O106 2.377 . S
Gd81 O108 2.448 . S
Gd81 O109 2.506 . S
Gd81 O110 2.435 . S
Gd81 O111 2.717 1_455 S
C82 O100 1.240 . S
C82 O101 1.240 . S
C83 Gd80 2.818 . S
C83 C84 1.510 . S
C83 O102 1.249 . S
C83 O103 1.252 . S
C84 C83 1.510 . S
C84 C85 1.404 . S
C84 C86 1.352 . S
C85 C84 1.404 . S
C85 C89 1.389 . S
C85 H112 0.930 . S
C86 C84 1.352 . S
C86 C88 1.374 . S
C86 H113 0.931 . S
C87 C88 1.359 . S
C87 C89 1.364 . S
C88 C86 1.374 . S
C88 C87 1.359 . S
C88 H114 0.931 . S
C89 C85 1.389 . S
C89 C87 1.364 . S
C89 H115 0.931 . S
C90 O104 1.256 1_545 S
C90 O105 1.257 1_655 S
C91 O106 1.240 . S
C91 O107 1.240 1_545 S
C92 Gd81 2.818 . S
C92 C93 1.510 . S
C92 O108 1.249 . S
C92 O109 1.252 . S
C93 C92 1.510 . S
C93 C94 1.404 . S
C93 C95 1.352 . S
C94 C93 1.404 . S
C94 C98 1.389 . S
C94 H116 0.930 . S
C95 C93 1.352 . S
C95 C97 1.374 . S
C95 H117 0.931 . S
C96 C97 1.359 . S
C96 C98 1.364 . S
C97 C95 1.374 . S
C97 C96 1.359 . S
C97 H118 0.931 . S
C98 C94 1.389 . S
C98 C96 1.364 . S
C98 H119 0.931 . S
C99 O110 1.256 . S
C99 O111 1.257 1_455 S
O100 Gd80 2.377 1_545 S
O100 C82 1.240 . S
O101 Gd81 2.395 1_655 S
O101 C82 1.240 . S
O102 Gd80 2.448 . S
O102 C83 1.249 . S
O103 Gd80 2.506 . S
O103 C83 1.252 . S
O104 Gd80 2.435 . S
O104 C90 1.256 1_565 S
O105 Gd80 2.717 1_445 S
O105 Gd81 2.327 . S
O105 C90 1.257 1_455 S
O106 Gd81 2.377 . S
O106 C91 1.240 . S
O107 Gd80 2.395 1_455 S
O107 C91 1.240 1_565 S
O108 Gd81 2.448 . S
O108 C92 1.249 . S
O109 Gd81 2.506 . S
O109 C92 1.252 . S
O110 Gd81 2.435 . S
O110 C99 1.256 . S
O111 Gd80 2.327 1_545 S
O111 Gd81 2.717 1_655 S
O111 C99 1.257 1_655 S
H112 C85 0.930 . S
H113 C86 0.931 . S
H114 C88 0.931 . S
H115 C89 0.931 . S
H116 C94 0.930 . S
H117 C95 0.931 . S
H118 C97 0.931 . S
H119 C98 0.931 . S
H120 C132 0.930 . S
H121 C134 0.929 1_655 S
H122 C135 0.930 . S
H123 C139 0.959 . S
H124 C139 0.959 . S
H125 C139 0.961 . S
H126 C140 0.960 . S
H127 C140 0.961 . S
H128 C140 0.959 . S
H129 C143 0.929 . S
H130 C144 0.931 . S
H131 C146 0.930 . S
C132 H120 0.930 . S
C132 C133 1.399 1_556 S
C132 C137 1.399 . S
C133 C132 1.399 1_554 S
C133 C134 1.381 . S
C134 H121 0.929 1_455 S
C134 C133 1.381 . S
C134 C135 1.385 1_455 S
C135 H122 0.930 . S
C135 C134 1.385 1_655 S
C135 C136 1.390 1_655 S
C136 C135 1.390 1_455 S
C136 C137 1.394 1_554 S
C136 C142 1.465 . S
C137 C132 1.399 . S
C137 C136 1.394 1_556 S
C137 C138 1.516 . S
C138 C137 1.516 . S
C138 C139 1.502 . S
C138 C140 1.561 1_455 S
C138 C141 1.526 . S
C139 H123 0.959 . S
C139 H124 0.959 . S
C139 H125 0.961 . S
C139 C138 1.502 . S
C140 H126 0.960 . S
C140 H127 0.961 . S
C140 H128 0.959 . S
C140 C138 1.561 1_655 S
C141 C138 1.526 . S
C141 C142 1.396 1_556 S
C141 C146 1.390 . S
C142 C136 1.465 . S
C142 C141 1.396 1_554 S
C142 C143 1.399 1_455 S
C143 H129 0.929 . S
C143 C142 1.399 1_655 S
C143 C144 1.385 . S
C144 H130 0.931 . S
C144 C143 1.385 . S
C144 C145 1.389 1_655 S
C145 C144 1.389 1_455 S
C145 C146 1.387 1_554 S
C146 H131 0.930 . S
C146 C141 1.390 . S
C146 C145 1.387 1_556 S
H147 C159 0.930 . S
H148 C161 0.930 . S
H149 C162 0.930 . S
H150 C166 0.959 . S
H151 C166 0.959 . S
H152 C166 0.961 . S
H153 C167 0.960 . S
H154 C167 0.961 1_545 S
H155 C167 0.959 . S
H156 C170 0.929 . S
H157 C171 0.931 . S
H158 C173 0.930 . S
C159 H147 0.930 . S
C159 C160 1.399 . S
C159 C164 1.399 . S
C160 C159 1.399 . S
C160 C161 1.376 . S
C161 H148 0.930 . S
C161 C160 1.376 . S
C161 C162 1.388 . S
C162 H149 0.930 . S
C162 C161 1.388 . S
C162 C163 1.390 . S
C163 C162 1.390 . S
C163 C164 1.394 . S
C163 C169 1.465 1_565 S
C164 C159 1.399 . S
C164 C163 1.394 . S
C164 C165 1.516 1_565 S
C165 C164 1.516 1_545 S
C165 C166 1.502 . S
C165 C167 1.561 1_545 S
C165 C168 1.526 . S
C166 H150 0.959 . S
C166 H151 0.959 . S
C166 H152 0.961 . S
C166 C165 1.502 . S
C167 H153 0.960 . S
C167 H154 0.961 1_565 S
C167 H155 0.959 . S
C167 C165 1.561 1_565 S
C168 C165 1.526 . S
C168 C169 1.396 . S
C168 C173 1.390 . S
C169 C163 1.465 1_545 S
C169 C168 1.396 . S
C169 C170 1.399 . S
C170 H156 0.929 . S
C170 C169 1.399 . S
C170 C171 1.385 . S
C171 H157 0.931 . S
C171 C170 1.385 . S
C171 C172 1.389 . S
C172 C171 1.389 . S
C172 C173 1.387 . S
C173 H158 0.930 . S
C173 C168 1.390 . S
C173 C172 1.387 . S
H174 C186 0.930 . S
H175 C188 0.930 . S
H176 C189 0.930 . S
H177 C193 0.959 . S
H178 C193 0.959 . S
H179 C193 0.961 . S
H180 C194 0.960 . S
H181 C194 0.961 . S
H182 C194 0.959 . S
H183 C197 0.929 . S
H184 C198 0.931 . S
H185 C200 0.930 . S
C186 H174 0.930 . S
C186 C187 1.399 . S
C186 C191 1.399 . S
C187 C186 1.399 . S
C187 C188 1.376 . S
C188 H175 0.930 . S
C188 C187 1.376 . S
C188 C189 1.388 . S
C189 H176 0.930 . S
C189 C188 1.388 . S
C189 C190 1.390 . S
C190 C189 1.390 . S
C190 C191 1.394 . S
C190 C196 1.465 . S
C191 C186 1.399 . S
C191 C190 1.394 . S
C191 C192 1.516 . S
C192 C191 1.516 . S
C192 C193 1.502 . S
C192 C194 1.561 . S
C192 C195 1.526 . S
C193 H177 0.959 . S
C193 H178 0.959 . S
C193 H179 0.961 . S
C193 C192 1.502 . S
C194 H180 0.960 . S
C194 H181 0.961 . S
C194 H182 0.959 . S
C194 C192 1.561 . S
C195 C192 1.526 . S
C195 C196 1.396 . S
C195 C200 1.390 . S
C196 C190 1.465 . S
C196 C195 1.396 . S
C196 C197 1.399 . S
C197 H183 0.929 . S
C197 C196 1.399 . S
C197 C198 1.385 . S
C198 H184 0.931 . S
C198 C197 1.385 . S
C198 C199 1.389 . S
C199 C198 1.389 . S
C199 C200 1.387 . S
C200 H185 0.930 . S
C200 C195 1.390 . S
C200 C199 1.387 . S
H201 C213 0.930 . S
H202 C215 0.930 . S
H203 C216 0.930 . S
H204 C220 0.959 . S
H205 C220 0.959 . S
H206 C220 0.961 . S
H207 C221 0.960 . S
H208 C221 0.961 . S
H209 C221 0.959 . S
H210 C224 0.929 . S
H211 C225 0.931 . S
H212 C227 0.930 1_565 S
C213 H201 0.930 . S
C213 C214 1.399 . S
C213 C218 1.399 . S
C214 C213 1.399 . S
C214 C215 1.376 . S
C215 H202 0.930 . S
C215 C214 1.376 . S
C215 C216 1.388 . S
C216 H203 0.930 . S
C216 C215 1.388 . S
C216 C217 1.390 . S
C217 C216 1.390 . S
C217 C218 1.394 . S
C217 C223 1.465 . S
C218 C213 1.399 . S
C218 C217 1.394 . S
C218 C219 1.516 . S
C219 C218 1.516 . S
C219 C220 1.502 . S
C219 C221 1.561 1_545 S
C219 C222 1.526 . S
C220 H204 0.959 . S
C220 H205 0.959 . S
C220 H206 0.961 . S
C220 C219 1.502 . S
C221 H207 0.960 . S
C221 H208 0.961 . S
C221 H209 0.959 . S
C221 C219 1.561 1_565 S
C222 C219 1.526 . S
C222 C223 1.396 . S
C222 C227 1.390 . S
C223 C217 1.465 . S
C223 C222 1.396 . S
C223 C224 1.399 . S
C224 H210 0.929 . S
C224 C223 1.399 . S
C224 C225 1.385 . S
C225 H211 0.931 . S
C225 C224 1.385 . S
C225 C226 1.389 . S
C226 C225 1.389 . S
C226 C227 1.387 . S
C227 H212 0.930 1_545 S
C227 C222 1.390 . S
C227 C226 1.387 . S
H228 C240 0.930 . S
H229 C242 0.930 . S
H230 C243 0.930 . S
H231 C247 0.959 . S
H232 C247 0.959 . S
H233 C247 0.961 . S
H234 C248 0.960 . S
H235 C248 0.961 . S
H236 C248 0.959 . S
H237 C251 0.929 . S
H238 C252 0.931 . S
H239 C254 0.930 . S
C240 H228 0.930 . S
C240 C241 1.399 1_554 S
C240 C245 1.399 . S
C241 C240 1.399 1_556 S
C241 C242 1.376 . S
C242 H229 0.930 . S
C242 C241 1.376 . S
C242 C243 1.388 . S
C243 H230 0.930 . S
C243 C242 1.388 . S
C243 C244 1.390 . S
C244 C243 1.390 . S
C244 C245 1.394 1_556 S
C244 C250 1.465 . S
C245 C240 1.399 . S
C245 C244 1.394 1_554 S
C245 C246 1.516 . S
C246 C245 1.516 . S
C246 C247 1.502 . S
C246 C248 1.561 . S
C246 C249 1.526 . S
C247 H231 0.959 . S
C247 H232 0.959 . S
C247 H233 0.961 . S
C247 C246 1.502 . S
C248 H234 0.960 . S
C248 H235 0.961 . S
C248 H236 0.959 . S
C248 C246 1.561 . S
C249 C246 1.526 . S
C249 C250 1.396 1_554 S
C249 C254 1.390 . S
C250 C244 1.465 . S
C250 C249 1.396 1_556 S
C250 C251 1.399 . S
C251 H237 0.929 . S
C251 C250 1.399 . S
C251 C252 1.385 . S
C252 H238 0.931 . S
C252 C251 1.385 . S
C252 C253 1.384 1_556 S
C253 C252 1.384 1_554 S
C253 C254 1.391 . S
C254 H239 0.930 . S
C254 C249 1.390 . S
C254 C253 1.391 . S
H255 C267 0.930 . S
H256 C269 0.930 . S
H257 C270 0.930 . S
H258 C274 0.959 . S
H259 C274 0.959 . S
H260 C274 0.961 . S
H261 C275 0.960 . S
H262 C275 0.961 . S
H263 C275 0.959 . S
H264 C278 0.929 . S
H265 C279 0.931 . S
H266 C281 0.930 . S
C267 H255 0.930 . S
C267 C268 1.399 1_455 S
C267 C272 1.399 . S
C268 C267 1.399 1_655 S
C268 C269 1.376 . S
C269 H256 0.930 . S
C269 C268 1.376 . S
C269 C270 1.388 . S
C270 H257 0.930 . S
C270 C269 1.388 . S
C270 C271 1.390 . S
C271 C270 1.390 . S
C271 C272 1.394 1_655 S
C271 C277 1.465 . S
C272 C267 1.399 . S
C272 C271 1.394 1_455 S
C272 C273 1.516 . S
C273 C272 1.516 . S
C273 C274 1.502 . S
C273 C275 1.561 1_455 S
C273 C276 1.526 . S
C274 H258 0.959 . S
C274 H259 0.959 . S
C274 H260 0.961 . S
C274 C273 1.502 . S
C275 H261 0.960 . S
C275 H262 0.961 . S
C275 H263 0.959 . S
C275 C273 1.561 1_655 S
C276 C273 1.526 . S
C276 C277 1.396 1_455 S
C276 C281 1.390 . S
C277 C271 1.465 . S
C277 C276 1.396 1_655 S
C277 C278 1.399 . S
C278 H264 0.929 . S
C278 C277 1.399 . S
C278 C279 1.385 . S
C279 H265 0.931 . S
C279 C278 1.385 . S
C279 C280 1.389 1_655 S
C280 C279 1.389 1_455 S
C280 C281 1.387 . S
C281 H266 0.930 . S
C281 C276 1.390 . S
C281 C280 1.387 . S
H282 C294 0.930 . S
H283 C296 0.930 . S
H284 C297 0.930 . S
H285 C301 0.959 . S
H286 C301 0.959 . S
H287 C301 0.961 . S
H288 C302 0.960 . S
H289 C302 0.961 . S
H290 C302 0.959 . S
H291 C305 0.929 . S
H292 C306 0.931 . S
H293 C308 0.930 . S
C294 H282 0.930 . S
C294 C295 1.399 1_665 S
C294 C299 1.397 1_655 S
C295 C294 1.399 1_445 S
C295 C296 1.376 . S
C296 H283 0.930 . S
C296 C295 1.376 . S
C296 C297 1.388 . S
C297 H284 0.930 . S
C297 C296 1.388 . S
C297 C298 1.390 . S
C298 C297 1.390 . S
C298 C299 1.393 1_545 S
C298 C304 1.465 . S
C299 C294 1.397 1_455 S
C299 C298 1.393 1_565 S
C299 C300 1.519 1_455 S
C300 C299 1.519 1_655 S
C300 C301 1.502 1_655 S
C300 C302 1.561 . S
C300 C303 1.526 1_655 S
C301 H285 0.959 . S
C301 H286 0.959 . S
C301 H287 0.961 . S
C301 C300 1.502 1_455 S
C302 H288 0.960 . S
C302 H289 0.961 . S
C302 H290 0.959 . S
C302 C300 1.561 . S
C303 C300 1.526 1_455 S
C303 C304 1.396 1_565 S
C303 C308 1.390 . S
C304 C298 1.465 . S
C304 C303 1.396 1_545 S
C304 C305 1.399 . S
C305 H291 0.929 . S
C305 C304 1.399 . S
C305 C306 1.385 . S
C306 H292 0.931 . S
C306 C305 1.385 . S
C306 C307 1.389 . S
C307 C306 1.389 . S
C307 C308 1.387 1_545 S
C308 H293 0.930 . S
C308 C303 1.390 . S
C308 C307 1.387 1_565 S
H309 C321 0.930 . S
H310 C323 0.930 . S
H311 C324 0.930 . S
H312 C328 0.959 . S
H313 C328 0.959 . S
H314 C328 0.961 . S
H315 C329 0.960 . S
H316 C329 0.961 . S
H317 C329 0.959 1_655 S
H318 C332 0.929 . S
H319 C333 0.931 . S
H320 C335 0.930 . S
C321 H309 0.930 . S
C321 C322 1.399 1_455 S
C321 C326 1.399 . S
C322 C321 1.399 1_655 S
C322 C323 1.376 1_545 S
C323 H310 0.930 . S
C323 C322 1.376 1_565 S
C323 C324 1.388 . S
C324 H311 0.930 . S
C324 C323 1.388 . S
C324 C325 1.390 1_565 S
C325 C324 1.390 1_545 S
C325 C326 1.394 1_655 S
C325 C331 1.465 . S
C326 C321 1.399 . S
C326 C325 1.394 1_455 S
C326 C327 1.516 . S
C327 C326 1.516 . S
C327 C328 1.502 . S
C327 C329 1.561 . S
C327 C330 1.526 . S
C328 H312 0.959 . S
C328 H313 0.959 . S
C328 H314 0.961 . S
C328 C327 1.502 . S
C329 H315 0.960 . S
C329 H316 0.961 . S
C329 H317 0.959 1_455 S
C329 C327 1.561 . S
C330 C327 1.526 . S
C330 C331 1.396 1_455 S
C330 C335 1.390 . S
C331 C325 1.465 . S
C331 C330 1.396 1_655 S
C331 C332 1.399 1_545 S
C332 H318 0.929 . S
C332 C331 1.399 1_565 S
C332 C333 1.385 . S
C333 H319 0.931 . S
C333 C332 1.385 . S
C333 C334 1.389 1_565 S
C334 C333 1.389 1_545 S
C334 C335 1.387 1_655 S
C335 H320 0.930 . S
C335 C330 1.390 . S
C335 C334 1.387 1_455 S
H336 C348 0.930 . S
H337 C350 0.930 1_565 S
H338 C351 0.930 . S
H339 C355 0.959 . S
H340 C355 0.959 . S
H341 C355 0.961 . S
H342 C356 0.960 . S
H343 C356 0.961 . S
H344 C356 0.959 . S
H345 C359 0.929 . S
H346 C360 0.931 . S
H347 C362 0.930 . S
C348 H336 0.930 . S
C348 C349 1.395 1_455 S
C348 C353 1.399 . S
C349 C348 1.395 1_655 S
C349 C350 1.382 . S
C350 H337 0.930 1_545 S
C350 C349 1.382 . S
C350 C351 1.388 1_545 S
C351 H338 0.930 . S
C351 C350 1.388 1_565 S
C351 C352 1.390 1_565 S
C352 C351 1.390 1_545 S
C352 C353 1.394 1_655 S
C352 C358 1.465 . S
C353 C348 1.399 . S
C353 C352 1.394 1_455 S
C353 C354 1.516 . S
C354 C353 1.516 . S
C354 C355 1.502 . S
C354 C356 1.561 . S
C354 C357 1.526 . S
C355 H339 0.959 . S
C355 H340 0.959 . S
C355 H341 0.961 . S
C355 C354 1.502 . S
C356 H342 0.960 . S
C356 H343 0.961 . S
C356 H344 0.959 . S
C356 C354 1.561 . S
C357 C354 1.526 . S
C357 C358 1.396 1_455 S
C357 C362 1.390 . S
C358 C352 1.465 . S
C358 C357 1.396 1_655 S
C358 C359 1.399 1_545 S
C359 H345 0.929 . S
C359 C358 1.399 1_565 S
C359 C360 1.385 . S
C360 H346 0.931 . S
C360 C359 1.385 . S
C360 C361 1.389 1_665 S
C361 C360 1.389 1_445 S
C361 C362 1.387 . S
C362 H347 0.930 . S
C362 C357 1.390 . S
C362 C361 1.387 . S
C133 C2 2.971 . S
C145 C11 2.989 . S
C160 C56 0.883 . S
C172 C47 0.782 . S
C187 C87 0.686 . S
C199 C96 0.651 . S
C214 C82 4.853 . S
C226 C91 4.848 . S
C241 C16 0.582 1_556 S
C253 C7 0.591 . S
C268 C42 3.061 . S
C280 C51 3.034 . S
C295 C50 1.464 1_455 S
C307 C10 1.464 . S
C322 C59 1.492 1_655 S
C334 C90 1.415 . S
C349 C99 1.487 1_655 S
C361 C19 1.424 . S
