# Generated by pormake.
# Topology dft, (4)-cn, num edge types: 1
# Building blocks:
#     Node 0, Type 0, BuildingBlock: CEKHIL_clean_sbu_0, # of connection points: 4
#     Node 1, Type 0, BuildingBlock: CEKHIL_clean_sbu_0, # of connection points: 4
#     Node 2, Type 0, BuildingBlock: CEKHIL_clean_sbu_0, # of connection points: 4
#     Node 3, Type 0, BuildingBlock: CEKHIL_clean_sbu_0, # of connection points: 4
#     Node 4, Type 0, BuildingBlock: CEKHIL_clean_sbu_0, # of connection points: 4
#     Node 5, Type 0, BuildingBlock: CEKHIL_clean_sbu_0, # of connection points: 4
#     Node 6, Type 0, BuildingBlock: CEKHIL_clean_sbu_0, # of connection points: 4
#     Node 7, Type 0, BuildingBlock: CEKHIL_clean_sbu_0, # of connection points: 4
#     Edge 8, Type (0, 0), BuildingBlock: MIFKUJ_clean_linker_0, # of connection points: 2
#     Edge 9, Type (0, 0), BuildingBlock: MIFKUJ_clean_linker_0, # of connection points: 2
#     Edge 10, Type (0, 0), BuildingBlock: MIFKUJ_clean_linker_0, # of connection points: 2
#     Edge 11, Type (0, 0), BuildingBlock: MIFKUJ_clean_linker_0, # of connection points: 2
#     Edge 12, Type (0, 0), BuildingBlock: MIFKUJ_clean_linker_0, # of connection points: 2
#     Edge 13, Type (0, 0), BuildingBlock: MIFKUJ_clean_linker_0, # of connection points: 2
#     Edge 14, Type (0, 0), BuildingBlock: MIFKUJ_clean_linker_0, # of connection points: 2
#     Edge 15, Type (0, 0), BuildingBlock: MIFKUJ_clean_linker_0, # of connection points: 2
#     Edge 16, Type (0, 0), BuildingBlock: MIFKUJ_clean_linker_0, # of connection points: 2
#     Edge 17, Type (0, 0), BuildingBlock: MIFKUJ_clean_linker_0, # of connection points: 2
#     Edge 18, Type (0, 0), BuildingBlock: MIFKUJ_clean_linker_0, # of connection points: 2
#     Edge 19, Type (0, 0), BuildingBlock: MIFKUJ_clean_linker_0, # of connection points: 2
#     Edge 20, Type (0, 0), BuildingBlock: MIFKUJ_clean_linker_0, # of connection points: 2
#     Edge 21, Type (0, 0), BuildingBlock: MIFKUJ_clean_linker_0, # of connection points: 2
#     Edge 22, Type (0, 0), BuildingBlock: MIFKUJ_clean_linker_0, # of connection points: 2
#     Edge 23, Type (0, 0), BuildingBlock: MIFKUJ_clean_linker_0, # of connection points: 2
# Relax obj value: 0.182
# Max RMSD: 0.172
# Mean RMSD: 0.172
data_MOF--net-dft--node1-CEKHIL_clean_sbu_0--edge1-MIFKUJ_clean_linker_0
_symmetry_space_group_name_H-M    P1
_symmetry_Int_Tables_number       1
_symmetry_cell_setting            triclinic
loop_
_symmetry_equiv_pos_as_xyz
'x, y, z'
_cell_length_a     44.0282
_cell_length_b     44.020648
_cell_length_c     52.929942
_cell_angle_alpha  90.200119
_cell_angle_beta   89.972253
_cell_angle_gamma 89.976797
loop_
_atom_site_label
_atom_site_type_symbol
_atom_site_fract_x
_atom_site_fract_y
_atom_site_fract_z
_atom_type_partial_charge
Co0 Co 0.33538 0.03899 0.18121 0.0
O1 O 0.37392 0.01886 0.17817 0.0
O2 O 0.36764 0.0666 0.19054 0.0
C3 C 0.31167 0.00073 0.20094 0.0
O4 O 0.29932 0.0671 0.18784 0.0
Co5 Co 0.27762 0.01328 0.15515 0.0
O6 O 0.25607 0.04711 0.17231 0.0
C7 C 0.32855 0.03688 0.12519 0.0
C8 C 0.38606 0.04426 0.18549 0.0
C9 C 0.27035 0.06765 0.18447 0.0
O10 O 0.33844 0.0514 0.14465 0.0
O11 O 0.30666 0.01781 0.12626 0.0
O12 O 0.32805 0.01976 0.21397 0.0
O13 O 0.3119 0.00431 0.17682 0.0
Co14 Co 0.05675 0.33391 0.67658 0.0
O15 O 0.08325 0.36869 0.67534 0.0
O16 O 0.03414 0.37018 0.6845 0.0
C17 C 0.08799 0.30357 0.69856 0.0
O18 O 0.02249 0.30313 0.68109 0.0
Co19 Co 0.07459 0.27253 0.65121 0.0
O20 O 0.03757 0.25688 0.6678 0.0
C21 C 0.06042 0.32604 0.62018 0.0
C22 C 0.05952 0.38476 0.68129 0.0
C23 C 0.0182 0.27435 0.6783 0.0
O24 O 0.04799 0.33912 0.63937 0.0
O25 O 0.07479 0.30086 0.6218 0.0
O26 O 0.0717 0.32376 0.7104 0.0
O27 O 0.08692 0.30444 0.67425 0.0
Co28 Co 0.76309 0.06133 0.1817 0.0
O29 O 0.72699 0.08611 0.18054 0.0
O30 O 0.72771 0.03605 0.18531 0.0
C31 C 0.78999 0.09106 0.20787 0.0
O32 O 0.79519 0.02828 0.18555 0.0
Co33 Co 0.82515 0.08477 0.16138 0.0
O34 O 0.84118 0.04547 0.17371 0.0
C35 C 0.77623 0.06955 0.12592 0.0
C36 C 0.712 0.06094 0.18347 0.0
C37 C 0.82405 0.02489 0.18277 0.0
O38 O 0.76159 0.05612 0.14376 0.0
O39 O 0.80034 0.08506 0.12981 0.0
O40 O 0.76964 0.07282 0.21712 0.0
O41 O 0.7911 0.09292 0.1836 0.0
Co42 Co 0.04166 0.76081 0.6909 0.0
O43 O 0.02298 0.72156 0.68938 0.0
O44 O 0.07229 0.72948 0.69458 0.0
C45 C 0.00716 0.78122 0.71701 0.0
O46 O 0.06868 0.79836 0.69487 0.0
Co47 Co 0.00751 0.81799 0.67162 0.0
O48 O 0.03888 0.8397 0.69153 0.0
C49 C 0.03183 0.77325 0.63521 0.0
C50 C 0.04993 0.71028 0.69243 0.0
C51 C 0.0639 0.8271 0.69761 0.0
O52 O 0.04678 0.76011 0.653 0.0
O53 O 0.01329 0.79516 0.63918 0.0
O54 O 0.02944 0.76544 0.72632 0.0
O55 O 0.00539 0.78229 0.69275 0.0
Co56 Co 0.33874 0.0649 0.81154 0.0
O57 O 0.37743 0.08488 0.81101 0.0
O58 O 0.37009 0.03601 0.80279 0.0
C59 C 0.31374 0.10107 0.79023 0.0
O60 O 0.30212 0.03667 0.80878 0.0
Co61 Co 0.28302 0.09409 0.83825 0.0
O62 O 0.25987 0.06163 0.8206 0.0
C63 C 0.33582 0.07304 0.86744 0.0
C64 C 0.3889 0.05866 0.80504 0.0
C65 C 0.27301 0.03868 0.81068 0.0
O66 O 0.34437 0.05641 0.84871 0.0
O67 O 0.3139 0.09207 0.86606 0.0
O68 O 0.32911 0.0806 0.77785 0.0
O69 O 0.31582 0.1001 0.81446 0.0
Co70 Co 0.03702 0.34031 0.31066 0.0
O71 O 0.01569 0.3783 0.31259 0.0
O72 O 0.06341 0.37293 0.29999 0.0
C73 C -0.0005 0.31428 0.29206 0.0
O74 O 0.06619 0.30474 0.30496 0.0
Co75 Co 0.01379 0.28308 0.33876 0.0
O76 O 0.04371 0.26145 0.31734 0.0
C77 C 0.0426 0.33281 0.36741 0.0
C78 C 0.04061 0.39089 0.30476 0.0
C79 C 0.06518 0.27551 0.30625 0.0
O80 O 0.05035 0.34605 0.34679 0.0
O81 O 0.02665 0.30855 0.36826 0.0
O82 O 0.01778 0.33059 0.27838 0.0
O83 O 0.00304 0.31596 0.31619 0.0
Co84 Co 0.76459 0.03171 0.80818 0.0
O85 O 0.72733 0.00921 0.8111 0.0
O86 O 0.73048 0.05874 0.80409 0.0
C87 C 0.78803 0.99836 0.78278 0.0
O88 O 0.79843 0.06262 0.80255 0.0
Co89 Co 0.82637 0.00588 0.82673 0.0
O90 O 0.84389 0.04029 0.80767 0.0
C91 C 0.7815 0.02871 0.86371 0.0
C92 C 0.71353 0.03486 0.80726 0.0
C93 C 0.82761 0.06276 0.80088 0.0
O94 O 0.76459 0.03898 0.84584 0.0
O95 O 0.80578 0.01337 0.85987 0.0
O96 O 0.76939 0.01805 0.77312 0.0
O97 O 0.79017 0.99803 0.80703 0.0
Co98 Co 0.05815 0.76711 0.32104 0.0
O99 O 0.0818 0.73037 0.32307 0.0
O100 O 0.03267 0.73257 0.31389 0.0
C101 C 0.09218 0.79384 0.29871 0.0
O102 O 0.02645 0.80029 0.31526 0.0
Co103 Co 0.08004 0.82823 0.34445 0.0
O104 O 0.04562 0.84602 0.32562 0.0
C105 C 0.06077 0.77794 0.37734 0.0
C106 C 0.0569 0.71619 0.3172 0.0
C107 C 0.02488 0.82951 0.31596 0.0
O108 O 0.04864 0.76412 0.35836 0.0
O109 O 0.07656 0.80216 0.37507 0.0
O110 O 0.07437 0.77476 0.28713 0.0
O111 O 0.0905 0.79411 0.32299 0.0
H112 H 0.35602 0.08861 0.10755 0.0
H113 H 0.3729 0.09812 0.064 0.0
H114 H 0.34956 0.00611 0.04353 0.0
H115 H 0.33246 0.99662 0.08657 0.0
H116 H 0.40359 0.02746 0.01987 0.0
H117 H 0.2983 0.05671 0.03508 0.0
H118 H 0.25803 0.08513 0.05734 0.0
H119 H 0.30095 0.16938 0.03763 0.0
H120 H 0.34174 0.14135 0.01554 0.0
H121 H 0.35132 0.02142 0.89299 0.0
H122 H 0.36633 0.01855 0.93751 0.0
H123 H 0.37087 0.11648 0.94106 0.0
H124 H 0.35438 0.11926 0.89712 0.0
H125 H 0.33486 0.09827 0.9749 0.0
H126 H 0.43698 0.06947 0.95434 0.0
H127 H 0.47849 0.04109 0.93366 0.0
H128 H 0.4426 0.95727 0.9621 0.0
H129 H 0.40128 0.9852 0.9835 0.0
C130 C 0.35505 0.07033 0.09383 0.0
C131 C 0.34246 0.04208 0.10025 0.0
C132 C 0.36473 0.07574 0.06905 0.0
C133 C 0.36231 0.05281 0.05063 0.0
C134 C 0.3517 0.02403 0.05751 0.0
C135 C 0.34164 0.01878 0.08203 0.0
C136 C 0.36688 0.05947 0.02357 0.0
C137 C 0.38876 0.04305 0.00992 0.0
C138 C 0.34779 0.08013 0.01082 0.0
C139 C 0.32325 0.09696 0.02399 0.0
C140 C 0.29928 0.08128 0.0357 0.0
C141 C 0.27634 0.09731 0.04824 0.0
C142 C 0.27699 0.12904 0.04898 0.0
C143 C 0.30053 0.1448 0.0371 0.0
C144 C 0.32356 0.12886 0.02457 0.0
C145 C 0.35637 0.04219 0.90318 0.0
C146 C 0.35132 0.07054 0.89193 0.0
C147 C 0.36517 0.0406 0.92857 0.0
C148 C 0.36973 0.06735 0.94274 0.0
C149 C 0.36728 0.09556 0.93064 0.0
C150 C 0.35783 0.09714 0.90557 0.0
C151 C 0.37174 0.06624 0.97073 0.0
C152 C 0.35062 0.08344 0.98467 0.0
C153 C 0.39163 0.04638 0.98364 0.0
C154 C 0.41593 0.02939 0.97033 0.0
C155 C 0.43782 0.04496 0.95602 0.0
C156 C 0.46136 0.02897 0.94424 0.0
C157 C 0.463 0.99739 0.94633 0.0
C158 C 0.44126 0.98173 0.96044 0.0
C159 C 0.4179 0.99764 0.97255 0.0
H160 H 0.4812 0.98506 0.93711 0.0
H161 H 0.2592 0.14142 0.05869 0.0
H162 H 0.08936 0.3076 0.57751 0.0
H163 H 0.08799 0.33024 0.53604 0.0
H164 H 0.0275 0.4002 0.56324 0.0
H165 H 0.02862 0.37732 0.60564 0.0
H166 H 0.00841 0.37344 0.51811 0.0
H167 H 0.09621 0.42275 0.54643 0.0
H168 H 0.14487 0.42942 0.56875 0.0
H169 H 0.1869 0.36387 0.51969 0.0
H170 H 0.13841 0.35639 0.49731 0.0
H171 H 0.03321 0.39119 0.38251 0.0
H172 H 0.03815 0.41107 0.42591 0.0
H173 H 0.07573 0.3253 0.44969 0.0
H174 H 0.06958 0.30506 0.40687 0.0
H175 H 0.1042 0.38621 0.46976 0.0
H176 H 0.00887 0.3249 0.45861 0.0
H177 H 0.96003 0.31667 0.43676 0.0
H178 H 0.93324 0.40831 0.45383 0.0
H179 H 0.98216 0.4171 0.47553 0.0
C180 C 0.07576 0.32786 0.57496 0.0
C181 C 0.059 0.34055 0.595 0.0
C182 C 0.07527 0.341 0.55117 0.0
C183 C 0.05818 0.36727 0.54669 0.0
C184 C 0.04114 0.38011 0.56646 0.0
C185 C 0.04175 0.36697 0.59058 0.0
C186 C 0.05696 0.37914 0.52059 0.0
C187 C 0.02921 0.37755 0.50766 0.0
C188 C 0.08408 0.38459 0.50694 0.0
C189 C 0.11357 0.38909 0.52012 0.0
C190 C 0.11578 0.40966 0.54044 0.0
C191 C 0.14336 0.41358 0.55312 0.0
C192 C 0.16897 0.39711 0.54562 0.0
C193 C 0.16705 0.37668 0.52542 0.0
C194 C 0.13953 0.37266 0.51269 0.0
C195 C 0.04323 0.37698 0.39696 0.0
C196 C 0.0511 0.3467 0.3916 0.0
C197 C 0.04598 0.3883 0.42161 0.0
C198 C 0.0574 0.36961 0.4408 0.0
C199 C 0.06711 0.34006 0.43499 0.0
C200 C 0.06355 0.32852 0.41065 0.0
C201 C 0.05604 0.37879 0.46757 0.0
C202 C 0.0833 0.38405 0.48045 0.0
C203 C 0.02852 0.37709 0.4812 0.0
C204 C -0.00082 0.37175 0.46837 0.0
C205 C 0.99263 0.34333 0.45751 0.0
C206 C 0.96494 0.33856 0.4452 0.0
C207 C 0.94358 0.36199 0.44384 0.0
C208 C 0.94984 0.39021 0.45485 0.0
C209 C 0.97753 0.3951 0.46714 0.0
H210 H 0.92215 0.35825 0.43431 0.0
H211 H 0.19029 0.40016 0.55547 0.0
H212 H 0.72424 0.03377 0.88375 0.0
H213 H 0.71091 0.03794 0.92873 0.0
H214 H 0.80622 0.04166 0.94775 0.0
H215 H 0.81944 0.03623 0.90336 0.0
H216 H 0.78004 0.00333 0.97687 0.0
H217 H 0.75647 0.10558 0.94795 0.0
H218 H 0.7294 0.14312 0.92177 0.0
H219 H 0.64397 0.11178 0.9509 0.0
H220 H 0.67057 0.07382 0.97705 0.0
H221 H 0.80366 0.09172 0.08372 0.0
H222 H 0.79032 0.08226 0.03991 0.0
H223 H 0.7124 0.03028 0.06338 0.0
H224 H 0.72575 0.03929 0.1079 0.0
H225 H 0.7159 0.08436 0.01457 0.0
H226 H 0.74543 0.98387 0.04766 0.0
H227 H 0.77786 0.95205 0.07487 0.0
H228 H 0.85748 0.98598 0.03755 0.0
H229 H 0.8255 0.01836 0.01041 0.0
C230 C 0.74222 0.03578 0.89762 0.0
C231 C 0.77285 0.03449 0.89018 0.0
C232 C 0.73461 0.03816 0.92326 0.0
C233 C 0.75757 0.04 0.94166 0.0
C234 C 0.78809 0.03983 0.93399 0.0
C235 C 0.79565 0.03686 0.90859 0.0
C236 C 0.75056 0.04134 0.96906 0.0
C237 C 0.76568 0.02088 0.985 0.0
C238 C 0.73136 0.06377 0.9798 0.0
C239 C 0.71545 0.08664 0.96418 0.0
C240 C 0.7319 0.10656 0.94861 0.0
C241 C 0.71665 0.12793 0.93382 0.0
C242 C 0.68497 0.12976 0.9346 0.0
C243 C 0.66849 0.11029 0.95026 0.0
C244 C 0.68364 0.08886 0.96508 0.0
C245 C 0.78346 0.07854 0.07979 0.0
C246 C 0.766 0.06593 0.09943 0.0
C247 C 0.77579 0.07332 0.05468 0.0
C248 C 0.75046 0.05562 0.04858 0.0
C249 C 0.732 0.0441 0.0679 0.0
C250 C 0.7398 0.04915 0.09323 0.0
C251 C 0.74599 0.0469 0.02196 0.0
C252 C 0.72906 0.06605 0.00623 0.0
C253 C 0.76391 0.0236 0.01127 0.0
C254 C 0.7831 0.00364 0.02716 0.0
C255 C 0.76986 0.98468 0.0454 0.0
C256 C 0.78815 0.96653 0.06079 0.0
C257 C 0.81971 0.96703 0.05798 0.0
C258 C 0.83304 0.98562 0.03972 0.0
C259 C 0.81484 0.00384 0.02431 0.0
H260 H 0.83384 0.95299 0.06992 0.0
H261 H 0.6732 0.14631 0.92313 0.0
H262 H 0.08104 0.80315 0.42112 0.0
H263 H 0.07709 0.7834 0.46351 0.0
H264 H 0.02888 0.70489 0.43561 0.0
H265 H 0.0326 0.72479 0.39231 0.0
H266 H 0.00193 0.72951 0.47728 0.0
H267 H 0.09924 0.69381 0.45769 0.0
H268 H 0.15082 0.69459 0.43959 0.0
H269 H 0.17585 0.76675 0.49022 0.0
H270 H 0.1243 0.76678 0.50837 0.0
H271 H 0.0636 0.72333 0.61796 0.0
H272 H 0.06782 0.7054 0.57412 0.0
H273 H 0.01304 0.78091 0.54937 0.0
H274 H 0.00839 0.79865 0.5926 0.0
H275 H 0.09207 0.73151 0.53358 0.0
H276 H 0.96817 0.76353 0.50285 0.0
H277 H 0.91662 0.76101 0.52088 0.0
H278 H 0.94479 0.68956 0.57067 0.0
H279 H 0.9964 0.69128 0.55269 0.0
C280 C 0.06966 0.78159 0.42372 0.0
C281 C 0.05719 0.76554 0.40316 0.0
C282 C 0.06767 0.77018 0.44808 0.0
C283 C 0.05338 0.74232 0.45265 0.0
C284 C 0.04038 0.72626 0.43238 0.0
C285 C 0.04242 0.73773 0.40773 0.0
C286 C 0.0507 0.73179 0.47908 0.0
C287 C 0.02161 0.7293 0.4896 0.0
C288 C 0.0765 0.73032 0.49499 0.0
C289 C 0.10782 0.73023 0.48444 0.0
C290 C 0.11569 0.70993 0.46492 0.0
C291 C 0.14494 0.71024 0.45464 0.0
C292 C 0.1666 0.73069 0.46376 0.0
C293 C 0.15906 0.75087 0.48321 0.0
C294 C 0.12984 0.75067 0.49356 0.0
C295 C 0.05241 0.73606 0.60314 0.0
C296 C 0.03556 0.7624 0.60885 0.0
C297 C 0.05477 0.72569 0.57816 0.0
C298 C 0.04013 0.74139 0.55858 0.0
C299 C 0.02377 0.76788 0.56425 0.0
C300 C 0.02135 0.77819 0.58905 0.0
C301 C 0.04322 0.73181 0.53183 0.0
C302 C 0.0724 0.73048 0.52128 0.0
C303 C 0.01751 0.72914 0.5159 0.0
C304 C 0.98624 0.72756 0.52639 0.0
C305 C 0.96333 0.74706 0.51747 0.0
C306 C 0.9341 0.74583 0.52774 0.0
C307 C 0.92744 0.72515 0.54692 0.0
C308 C 0.94999 0.70561 0.55584 0.0
C309 C 0.97925 0.70672 0.54563 0.0
H310 H 0.9048 0.72427 0.55487 0.0
H311 H 0.18923 0.73092 0.45575 0.0
H312 H 0.41866 0.09108 0.20643 0.0
H313 H 0.47407 0.09589 0.20865 0.0
H314 H 0.48378 0.01007 0.1698 0.0
H315 H 0.42874 0.00472 0.16825 0.0
H316 H 0.52187 0.01286 0.20778 0.0
H317 H 0.49295 0.08099 0.13984 0.0
H318 H 0.46515 0.12441 0.12169 0.0
H319 H 0.50691 0.18446 0.17552 0.0
H320 H 0.53469 0.14131 0.19417 0.0
H321 H 0.67433 0.01527 0.16891 0.0
H322 H 0.6189 0.01457 0.17052 0.0
H323 H 0.61903 0.1045 0.20342 0.0
H324 H 0.6745 0.10595 0.20018 0.0
H325 H 0.57567 0.10192 0.17211 0.0
H326 H 0.6067 0.03509 0.23887 0.0
H327 H 0.63435 0.99206 0.25778 0.0
H328 H 0.58841 0.93009 0.20798 0.0
H329 H 0.56075 0.97279 0.18857 0.0
C330 C 0.43267 0.07326 0.19842 0.0
C331 C 0.41938 0.04754 0.18716 0.0
C332 C 0.46431 0.07609 0.19959 0.0
C333 C 0.48311 0.0535 0.18912 0.0
C334 C 0.46978 0.02776 0.17804 0.0
C335 C 0.43827 0.02477 0.17713 0.0
C336 C 0.51672 0.05627 0.18964 0.0
C337 C 0.53366 0.03222 0.19978 0.0
C338 C 0.5321 0.08195 0.17996 0.0
C339 C 0.51566 0.1079 0.16854 0.0
C340 C 0.49606 0.10343 0.14789 0.0
C341 C 0.48033 0.12799 0.13751 0.0
C342 C 0.4842 0.15716 0.14749 0.0
C343 C 0.50389 0.16185 0.16783 0.0
C344 C 0.51966 0.13736 0.17829 0.0
C345 C 0.66246 0.03485 0.17648 0.0
C346 C 0.67858 0.06057 0.18459 0.0
C347 C 0.63078 0.03438 0.17758 0.0
C348 C 0.61466 0.05916 0.18776 0.0
C349 C 0.63086 0.08503 0.19561 0.0
C350 C 0.66253 0.08584 0.19382 0.0
C351 C 0.58097 0.05821 0.18988 0.0
C352 C 0.56397 0.08263 0.18031 0.0
C353 C 0.56549 0.03293 0.20026 0.0
C354 C 0.58181 0.00718 0.21217 0.0
C355 C 0.6026 0.01231 0.23189 0.0
C356 C 0.61827 0.98797 0.24269 0.0
C357 C 0.61318 0.95837 0.23406 0.0
C358 C 0.59234 0.95303 0.21465 0.0
C359 C 0.57663 0.97728 0.20377 0.0
H360 H 0.62536 0.93957 0.24243 0.0
H361 H 0.47199 0.17614 0.13944 0.0
H362 H 0.01379 0.42392 0.69372 0.0
H363 H 0.01612 0.47933 0.69587 0.0
H364 H 0.1111 0.47664 0.67594 0.0
H365 H 0.10906 0.4211 0.67406 0.0
H366 H 0.09972 0.5178 0.71371 0.0
H367 H 0.0597 0.494 0.63181 0.0
H368 H 0.02506 0.46889 0.60169 0.0
H369 H 0.94884 0.51377 0.63607 0.0
H370 H 0.98298 0.53878 0.66666 0.0
H371 H 0.10301 0.67812 0.68672 0.0
H372 H 0.10862 0.62266 0.68476 0.0
H373 H 0.01239 0.61244 0.69787 0.0
H374 H 0.00659 0.6674 0.69903 0.0
H375 H 0.0288 0.57755 0.66066 0.0
H376 H 0.06791 0.59854 0.74432 0.0
H377 H 0.10206 0.62287 0.77527 0.0
H378 H 0.17937 0.5833 0.73818 0.0
H379 H 0.14567 0.55902 0.70681 0.0
C380 C 0.03521 0.43509 0.68989 0.0
C381 C 0.06119 0.41817 0.68357 0.0
C382 C 0.03649 0.46675 0.69106 0.0
C383 C 0.0637 0.48209 0.68573 0.0
C384 C 0.08988 0.46523 0.68006 0.0
C385 C 0.08863 0.43353 0.67892 0.0
C386 C 0.0645 0.51574 0.68554 0.0
C387 C 0.08454 0.53094 0.70187 0.0
C388 C 0.04445 0.53279 0.67026 0.0
C389 C 0.0239 0.51809 0.65165 0.0
C390 C 0.03553 0.49837 0.63305 0.0
C391 C 0.01599 0.48417 0.61588 0.0
C392 C 0.98476 0.48969 0.61699 0.0
C393 C 0.97303 0.50949 0.63524 0.0
C394 C 0.99247 0.52371 0.65248 0.0
C395 C 0.08316 0.66395 0.68935 0.0
C396 C 0.05437 0.67705 0.69294 0.0
C397 C 0.08638 0.6323 0.68831 0.0
C398 C 0.06092 0.61334 0.69128 0.0
C399 C 0.03233 0.62654 0.69536 0.0
C400 C 0.02906 0.658 0.69609 0.0
C401 C 0.06343 0.57976 0.68939 0.0
C402 C 0.04411 0.56451 0.67247 0.0
C403 C 0.08407 0.56274 0.70419 0.0
C404 C 0.1043 0.57725 0.72307 0.0
C405 C 0.09221 0.59522 0.74265 0.0
C406 C 0.11148 0.60896 0.76029 0.0
C407 C 0.14287 0.60471 0.75865 0.0
C408 C 0.15505 0.58662 0.7394 0.0
C409 C 0.13588 0.57285 0.7217 0.0
H410 H 0.15775 0.61536 0.77232 0.0
H411 H 0.96966 0.47867 0.60369 0.0
H412 H 0.67354 0.98781 0.80398 0.0
H413 H 0.61807 0.99055 0.8023 0.0
H414 H 0.62244 0.08825 0.80742 0.0
H415 H 0.67804 0.08575 0.80884 0.0
H416 H 0.57944 0.06047 0.84064 0.0
H417 H 0.60866 0.05935 0.75276 0.0
H418 H 0.63492 0.03902 0.71518 0.0
H419 H 0.58547 0.95537 0.72184 0.0
H420 H 0.55922 0.97507 0.75972 0.0
H421 H 0.43198 0.10277 0.80744 0.0
H422 H 0.48696 0.09655 0.80609 0.0
H423 H 0.47609 3e-05 0.79508 0.0
H424 H 0.42068 0.0061 0.79616 0.0
H425 H 0.5222 0.0243 0.76553 0.0
H426 H 0.49055 0.02537 0.85125 0.0
H427 H 0.46256 0.0452 0.88802 0.0
H428 H 0.51664 0.12634 0.88703 0.0
H429 H 0.54416 0.10752 0.84949 0.0
C430 C 0.6627 0.00989 0.80476 0.0
C431 C 0.68009 0.0366 0.80647 0.0
C432 C 0.63105 0.0114 0.80373 0.0
C433 C 0.61628 0.0396 0.80461 0.0
C434 C 0.63352 0.06628 0.8067 0.0
C435 C 0.66522 0.06482 0.80741 0.0
C436 C 0.58278 0.04124 0.80329 0.0
C437 C 0.5669 0.05292 0.82413 0.0
C438 C 0.56653 0.03041 0.78203 0.0
C439 C 0.58223 0.01856 0.75924 0.0
C440 C 0.60359 0.03652 0.74636 0.0
C441 C 0.61843 0.02513 0.72497 0.0
C442 C 0.61193 0.99589 0.71617 0.0
C443 C 0.59052 0.978 0.72871 0.0
C444 C 0.57564 0.98927 0.75012 0.0
C445 C 0.4412 0.08022 0.80452 0.0
C446 C 0.42202 0.05486 0.80215 0.0
C447 C 0.47264 0.07672 0.80378 0.0
C448 C 0.48553 0.04779 0.80087 0.0
C449 C 0.46651 0.02253 0.79742 0.0
C450 C 0.43492 0.02603 0.79813 0.0
C451 C 0.51885 0.04399 0.80272 0.0
C452 C 0.5347 0.03178 0.78208 0.0
C453 C 0.53507 0.05406 0.82428 0.0
C454 C 0.51924 0.06514 0.84735 0.0
C455 C 0.49633 0.04756 0.85871 0.0
C456 C 0.48052 0.05864 0.8797 0.0
C457 C 0.48784 0.087 0.88991 0.0
C458 C 0.51098 0.10437 0.87909 0.0
C459 C 0.52664 0.09355 0.85789 0.0
H460 H 0.47561 0.0955 0.90621 0.0
H461 H 0.62343 0.98712 0.69961 0.0
H462 H 0.99869 0.43287 0.31921 0.0
H463 H 0.00324 0.48798 0.31819 0.0
H464 H 0.09231 0.47988 0.2848 0.0
H465 H 0.0882 0.42434 0.28636 0.0
H466 H 0.09212 0.52057 0.32251 0.0
H467 H 0.02979 0.50204 0.24946 0.0
H468 H 0.98615 0.4804 0.22641 0.0
H469 H 0.92461 0.52905 0.2748 0.0
H470 H 0.96787 0.55068 0.29834 0.0
H471 H 0.10318 0.67938 0.30221 0.0
H472 H 0.10189 0.62427 0.29637 0.0
H473 H 0.00833 0.62294 0.32095 0.0
H474 H 0.00908 0.67829 0.32509 0.0
H475 H 0.01328 0.5865 0.2843 0.0
H476 H 0.07336 0.6014 0.35971 0.0
H477 H 0.11578 0.62235 0.38472 0.0
H478 H 0.17988 0.58 0.33458 0.0
H479 H 0.13783 0.5591 0.3091 0.0
C480 C 0.01918 0.44275 0.31144 0.0
C481 C 0.04306 0.42426 0.30275 0.0
C482 C 0.02168 0.47431 0.31078 0.0
C483 C 0.04791 0.48809 0.30105 0.0
C484 C 0.07181 0.4697 0.29228 0.0
C485 C 0.0694 0.43802 0.29311 0.0
C486 C 0.05067 0.52168 0.30097 0.0
C487 C 0.07518 0.53503 0.31378 0.0
C488 C 0.02812 0.54051 0.29015 0.0
C489 C 0.00209 0.52784 0.27575 0.0
C490 C 0.00695 0.508 0.25526 0.0
C491 C 0.98227 0.49575 0.2421 0.0
C492 C 0.95262 0.5033 0.24916 0.0
C493 C 0.94758 0.52321 0.26935 0.0
C494 C 0.97217 0.53551 0.28258 0.0
C495 C 0.08238 0.66723 0.30636 0.0
C496 C 0.05626 0.68294 0.31421 0.0
C497 C 0.08169 0.63572 0.30317 0.0
C498 C 0.0552 0.61922 0.30874 0.0
C499 C 0.02906 0.63506 0.31653 0.0
C500 C 0.0295 0.66666 0.31898 0.0
C501 C 0.05447 0.58554 0.30629 0.0
C502 C 0.03037 0.57213 0.29293 0.0
C503 C 0.07719 0.56664 0.3169 0.0
C504 C 0.10246 0.57894 0.33237 0.0
C505 C 0.0965 0.5967 0.35395 0.0
C506 C 0.12048 0.60855 0.36821 0.0
C507 C 0.1505 0.60258 0.3612 0.0
C508 C 0.15662 0.58465 0.33996 0.0
C509 C 0.13273 0.57277 0.32562 0.0
H510 H 0.16903 0.61179 0.37226 0.0
H511 H 0.93356 0.49377 0.23896 0.0
H512 H 0.11153 0.29489 0.2753 0.0
H513 H 0.14908 0.26336 0.25319 0.0
H514 H 0.11173 0.18327 0.2881 0.0
H515 H 0.07406 0.21425 0.30982 0.0
H516 H 0.19374 0.22474 0.26731 0.0
H517 H 0.10949 0.12601 0.24613 0.0
H518 H 0.0546 0.11915 0.23868 0.0
H519 H 0.04756 0.21136 0.21315 0.0
H520 H 0.10247 0.2186 0.22 0.0
H521 H 0.27665 0.09319 0.23114 0.0
H522 H 0.24412 0.13172 0.25073 0.0
H523 H 0.19248 0.13845 0.18158 0.0
H524 H 0.22356 0.09824 0.16282 0.0
H525 H 0.15518 0.13855 0.21593 0.0
H526 H 0.24684 0.19554 0.20542 0.0
H527 H 0.30161 0.20638 0.20927 0.0
H528 H 0.29422 0.20503 0.29015 0.0
H529 H 0.23948 0.19381 0.28679 0.0
C530 C 0.11144 0.27059 0.27839 0.0
C531 C 0.08952 0.25713 0.29416 0.0
C532 C 0.13297 0.25261 0.26578 0.0
C533 C 0.13291 0.22091 0.26868 0.0
C534 C 0.11186 0.20762 0.28519 0.0
C535 C 0.09033 0.22545 0.29765 0.0
C536 C 0.15398 0.20134 0.25387 0.0
C537 C 0.18541 0.20594 0.25596 0.0
C538 C 0.14305 0.17732 0.23855 0.0
C539 C 0.11008 0.17291 0.23382 0.0
C540 C 0.09627 0.14476 0.23878 0.0
C541 C 0.06514 0.14081 0.23468 0.0
C542 C 0.04759 0.16483 0.22552 0.0
C543 C 0.06116 0.1928 0.22032 0.0
C544 C 0.09228 0.19684 0.22432 0.0
C545 C 0.25848 0.10316 0.22013 0.0
C546 C 0.25258 0.09286 0.1955 0.0
C547 C 0.23999 0.12537 0.23125 0.0
C548 C 0.21598 0.13859 0.21758 0.0
C549 C 0.21067 0.12868 0.19267 0.0
C550 C 0.22851 0.10579 0.18188 0.0
C551 C 0.19534 0.16146 0.22953 0.0
C552 C 0.16379 0.15744 0.22701 0.0
C553 C 0.20624 0.18658 0.24376 0.0
C554 C 0.2391 0.19362 0.24583 0.0
C555 C 0.25693 0.1974 0.22402 0.0
C556 C 0.28797 0.20362 0.22612 0.0
C557 C 0.3014 0.20633 0.24993 0.0
C558 C 0.28379 0.20291 0.27171 0.0
C559 C 0.25275 0.19666 0.26972 0.0
H560 H 0.32543 0.21112 0.25152 0.0
H561 H 0.02349 0.16175 0.22241 0.0
H562 H 0.98233 0.29515 0.71704 0.0
H563 H 0.94167 0.26717 0.73851 0.0
H564 H 0.9511 0.19385 0.68482 0.0
H565 H 0.99165 0.22142 0.66345 0.0
H566 H 0.89071 0.20382 0.69895 0.0
H567 H 0.99047 0.19244 0.73579 0.0
H568 H 0.03721 0.21279 0.75484 0.0
H569 H 0.98582 0.248 0.81741 0.0
H570 H 0.93843 0.22912 0.79801 0.0
H571 H 0.88813 0.06959 0.79096 0.0
H572 H 0.91346 0.11273 0.77158 0.0
H573 H 0.82819 0.16077 0.76762 0.0
H574 H 0.80234 0.11725 0.78668 0.0
H575 H 0.92143 0.17021 0.78462 0.0
H576 H 0.82928 0.20441 0.71359 0.0
H577 H 0.78518 0.18219 0.69146 0.0
H578 H 0.82646 0.09389 0.69483 0.0
H579 H 0.87092 0.11566 0.7167 0.0
C580 C 0.97521 0.2734 0.70947 0.0
C581 C 0.99043 0.26028 0.68877 0.0
C582 C 0.95201 0.25746 0.72175 0.0
C583 C 0.94357 0.22837 0.71334 0.0
C584 C 0.95722 0.21629 0.69157 0.0
C585 C 0.98057 0.23198 0.67952 0.0
C586 C 0.92363 0.20865 0.72875 0.0
C587 C 0.8971 0.19683 0.71785 0.0
C588 C 0.93232 0.19916 0.75322 0.0
C589 C 0.96085 0.20978 0.76526 0.0
C590 C 0.98907 0.2048 0.75348 0.0
C591 C 0.0157 0.21605 0.76435 0.0
C592 C 0.01454 0.23159 0.78739 0.0
C593 C 0.98669 0.236 0.79955 0.0
C594 C 0.9599 0.22516 0.78855 0.0
C595 C 0.87464 0.08934 0.78613 0.0
C596 C 0.84309 0.08982 0.79029 0.0
C597 C 0.88927 0.11408 0.77512 0.0
C598 C 0.87274 0.13992 0.76799 0.0
C599 C 0.84135 0.14091 0.7727 0.0
C600 C 0.82661 0.11602 0.78364 0.0
C601 C 0.88854 0.16506 0.75476 0.0
C602 C 0.91443 0.17784 0.76604 0.0
C603 C 0.87959 0.17494 0.73043 0.0
C604 C 0.8532 0.16162 0.71704 0.0
C605 C 0.82894 0.18027 0.70954 0.0
C606 C 0.8039 0.16776 0.69705 0.0
C607 C 0.80297 0.13663 0.69183 0.0
C608 C 0.82715 0.11797 0.69898 0.0
C609 C 0.85226 0.13038 0.71144 0.0
H610 H 0.78355 0.12698 0.68218 0.0
H611 H 0.03523 0.2402 0.79582 0.0
H612 H 0.00405 0.88661 0.32573 0.0
H613 H 0.96472 0.91449 0.3032 0.0
H614 H 0.94812 0.8362 0.25588 0.0
H615 H 0.98691 0.80775 0.27904 0.0
H616 H 0.96528 0.93141 0.25727 0.0
H617 H 0.87582 0.83946 0.23163 0.0
H618 H 0.85395 0.79273 0.24971 0.0
H619 H 0.87653 0.82359 0.32442 0.0
H620 H 0.89815 0.87065 0.30683 0.0
H621 H 0.87511 0.99709 0.16505 0.0
H622 H 0.90435 0.95715 0.18586 0.0
H623 H 0.83648 0.95181 0.24453 0.0
H624 H 0.80642 0.99072 0.22307 0.0
H625 H 0.86034 0.89777 0.23769 0.0
H626 H 0.89958 0.99844 0.25022 0.0
H627 H 0.91859 0.04855 0.23678 0.0
H628 H 0.99269 0.00569 0.19771 0.0
H629 H 0.97383 0.95528 0.2106 0.0
C630 C 0.99173 0.87515 0.31077 0.0
C631 C 0.99868 0.845 0.30411 0.0
C632 C 0.96929 0.89115 0.29785 0.0
C633 C 0.95344 0.87754 0.27778 0.0
C634 C 0.95969 0.84711 0.27152 0.0
C635 C 0.98193 0.83088 0.28474 0.0
C636 C 0.93202 0.89603 0.26247 0.0
C637 C 0.94235 0.92395 0.25303 0.0
C638 C 0.90195 0.88659 0.25707 0.0
C639 C 0.88892 0.85841 0.26786 0.0
C640 C 0.87605 0.83629 0.25192 0.0
C641 C 0.8637 0.80975 0.26209 0.0
C642 C 0.86395 0.80514 0.28819 0.0
C643 C 0.87647 0.82712 0.3042 0.0
C644 C 0.88882 0.85371 0.29413 0.0
C645 C 0.8661 0.98686 0.18207 0.0
C646 C 0.8387 0.99721 0.19263 0.0
C647 C 0.88286 0.96413 0.19399 0.0
C648 C 0.87304 0.9521 0.21715 0.0
C649 C 0.8446 0.96085 0.22676 0.0
C650 C 0.82745 0.98312 0.2145 0.0
C651 C 0.89373 0.93296 0.23255 0.0
C652 C 0.88334 0.90501 0.2419 0.0
C653 C 0.92349 0.94277 0.23865 0.0
C654 C 0.93514 0.97309 0.23119 0.0
C655 C 0.91984 -0.0003 0.23866 0.0
C656 C 0.93059 0.02816 0.23114 0.0
C657 C 0.9568 0.0303 0.21636 0.0
C658 C 0.97237 0.00399 0.20913 0.0
C659 C 0.96167 0.97547 0.21654 0.0
H660 H 0.96508 0.05234 0.21055 0.0
H661 H 0.85439 0.78458 0.29602 0.0
H662 H 0.05604 0.88023 0.72296 0.0
H663 H 0.09463 0.91307 0.74131 0.0
H664 H 0.16474 0.8518 0.71553 0.0
H665 H 0.12573 0.81784 0.69802 0.0
H666 H 0.17886 0.8715 0.76041 0.0
H667 H 0.14843 0.92101 0.68465 0.0
H668 H 0.11264 0.94215 0.6535 0.0
H669 H 0.07994 0.00586 0.70879 0.0
H670 H 0.11525 0.98482 0.74039 0.0
H671 H 0.29128 0.98739 0.78497 0.0
H672 H 0.25907 0.94896 0.76491 0.0
H673 H 0.17921 0.99552 0.79206 0.0
H674 H 0.21102 0.0341 0.81188 0.0
H675 H 0.1747 0.98197 0.74252 0.0
H676 H 0.20443 0.92882 0.81881 0.0
H677 H 0.24156 0.90737 0.84873 0.0
H678 H 0.2781 0.85071 0.78991 0.0
H679 H 0.2414 0.87211 0.75956 0.0
C680 C 0.07968 0.87372 0.72108 0.0
C681 C 0.08787 0.84661 0.70872 0.0
C682 C 0.10179 0.89264 0.73152 0.0
C683 C 0.13275 0.88544 0.72923 0.0
C684 C 0.14103 0.85801 0.71738 0.0
C685 C 0.11876 0.83866 0.70732 0.0
C686 C 0.15615 0.90667 0.73938 0.0
C687 C 0.17826 0.89558 0.75613 0.0
C688 C 0.15539 0.93819 0.734 0.0
C689 C 0.13437 0.95118 0.71494 0.0
C690 C 0.1335 0.93942 0.6902 0.0
C691 C 0.1133 0.9514 0.67246 0.0
C692 C 0.09399 0.97529 0.67917 0.0
C693 C 0.0949 0.98734 0.70362 0.0
C694 C 0.11504 0.97542 0.72144 0.0
C695 C 0.26688 0.98933 0.7869 0.0
C696 C 0.25382 0.01394 0.80007 0.0
C697 C 0.24849 0.96727 0.77544 0.0
C698 C 0.2167 0.96929 0.77705 0.0
C699 C 0.20367 0.99353 0.7905 0.0
C700 C 0.22197 0.01555 0.80192 0.0
C701 C 0.19675 0.94692 0.76404 0.0
C702 C 0.17541 0.95785 0.74662 0.0
C703 C 0.19851 0.91529 0.76857 0.0
C704 C 0.22039 0.90229 0.78687 0.0
C705 C 0.22053 0.91195 0.81222 0.0
C706 C 0.24147 0.89977 0.82926 0.0
C707 C 0.26223 0.87775 0.82121 0.0
C708 C 0.26203 0.8678 0.79611 0.0
C709 C 0.24116 0.87992 0.77899 0.0
H710 H 0.27843 0.86836 0.83443 0.0
H711 H 0.07835 0.98452 0.66541 0.0
H712 H 0.77755 0.93946 0.77273 0.0
H713 H 0.81595 0.90204 0.76033 0.0
H714 H 0.88113 0.97411 0.74971 0.0
H715 H 0.84221 0.01163 0.76119 0.0
H716 H 0.89199 0.92742 0.71728 0.0
H717 H 0.87621 0.94079 0.80558 0.0
H718 H 0.84634 0.9445 0.84487 0.0
H719 H 0.81793 0.85174 0.83619 0.0
H720 H 0.84718 0.84765 0.79654 0.0
H721 H 0.02021 0.83319 0.74233 0.0
H722 H 0.98271 0.87149 0.7555 0.0
H723 H 0.91021 0.80895 0.73816 0.0
H724 H 0.94755 0.7713 0.72388 0.0
H725 H 0.90651 0.85293 0.78661 0.0
H726 H 0.91841 0.84535 0.6936 0.0
H727 H 0.95209 0.84284 0.65637 0.0
H728 H 0.99298 0.92763 0.67784 0.0
H729 H 0.95974 0.93039 0.7154 0.0
C730 C 0.79969 0.94728 0.76659 0.0
C731 C 0.80711 0.97817 0.76768 0.0
C732 C 0.82167 0.92597 0.75981 0.0
C733 C 0.85156 0.93531 0.75478 0.0
C734 C 0.85824 0.96646 0.75366 0.0
C735 C 0.83605 0.98784 0.76014 0.0
C736 C 0.87633 0.91259 0.75383 0.0
C737 C 0.89527 0.91138 0.73254 0.0
C738 C 0.88094 0.89182 0.77392 0.0
C739 C 0.86367 0.894 0.79796 0.0
C740 C 0.86343 0.92124 0.81195 0.0
C741 C 0.84662 0.92341 0.83429 0.0
C742 C 0.83021 0.89839 0.843 0.0
C743 C 0.83063 0.87112 0.82941 0.0
C744 C 0.84733 0.86885 0.807 0.0
C745 C 0.99631 0.82736 0.74226 0.0
C746 C 0.9865 0.79947 0.73236 0.0
C747 C 0.975 0.84916 0.74968 0.0
C748 C 0.94385 0.84287 0.7477 0.0
C749 C 0.9342 0.81399 0.73996 0.0
C750 C 0.95545 0.79254 0.73193 0.0
C751 C 0.9214 0.86751 0.74992 0.0
C752 C 0.90308 0.86912 0.77147 0.0
C753 C 0.91773 0.88896 0.73036 0.0
C754 C 0.93681 0.88796 0.70733 0.0
C755 C 0.93468 0.86338 0.69041 0.0
C756 C 0.95366 0.86192 0.66926 0.0
C757 C 0.9747 0.88504 0.66477 0.0
C758 C 0.97668 0.90974 0.68135 0.0
C759 C 0.95775 0.91128 0.70254 0.0
H760 H 0.98945 0.88382 0.64843 0.0
H761 H 0.81721 0.90011 0.86031 0.0
H762 H 0.28418 0.00042 0.24732 0.0
H763 H 0.24877 0.96195 0.26325 0.0
H764 H 0.26364 0.90793 0.19608 0.0
H765 H 0.29758 0.94691 0.1797 0.0
H766 H 0.20691 0.91143 0.20371 0.0
H767 H 0.29171 0.88775 0.2568 0.0
H768 H 0.33299 0.89783 0.28718 0.0
H769 H 0.26793 0.92829 0.34217 0.0
H770 H 0.22628 0.91875 0.31201 0.0
H771 H 0.1201 0.78564 0.25293 0.0
H772 H 0.15995 0.81789 0.2346 0.0
H773 H 0.14986 0.88107 0.29663 0.0
H774 H 0.11141 0.84862 0.31527 0.0
H775 H 0.20709 0.86835 0.29009 0.0
H776 H 0.12279 0.89491 0.23467 0.0
H777 H 0.08225 0.88349 0.2039 0.0
H778 H 0.14804 0.84547 0.15289 0.0
H779 H 0.18892 0.85637 0.18348 0.0
C780 C 0.2801 0.9801 0.23623 0.0
C781 C 0.29335 0.97655 0.21232 0.0
C782 C 0.26001 0.95808 0.24533 0.0
C783 C 0.25369 0.93189 0.23091 0.0
C784 C 0.26799 0.92797 0.20746 0.0
C785 C 0.28741 0.9502 0.19816 0.0
C786 C 0.23069 0.90953 0.23933 0.0
C787 C 0.20727 0.90164 0.22249 0.0
C788 C 0.23087 0.897 0.26389 0.0
C789 C 0.2559 0.90276 0.28206 0.0
C790 C 0.28623 0.8968 0.27531 0.0
C791 C 0.30969 0.90238 0.2925 0.0
C792 C 0.30309 0.91376 0.31656 0.0
C793 C 0.27301 0.91951 0.32351 0.0
C794 C 0.24947 0.91398 0.30639 0.0
C795 C 0.1262 0.80665 0.26235 0.0
C796 C 0.11288 0.81461 0.28554 0.0
C797 C 0.1489 0.82503 0.25192 0.0
C798 C 0.1579 0.85188 0.26431 0.0
C799 C 0.14355 0.86032 0.2869 0.0
C800 C 0.12145 0.84179 0.29748 0.0
C801 C 0.18306 0.8709 0.25468 0.0
C802 C 0.20695 0.87802 0.27126 0.0
C803 C 0.18343 0.88255 0.22985 0.0
C804 C 0.15884 0.87618 0.21146 0.0
C805 C 0.12856 0.88394 0.21696 0.0
C806 C 0.10554 0.87759 0.19954 0.0
C807 C 0.11255 0.86369 0.17649 0.0
C808 C 0.14263 0.85619 0.17076 0.0
C809 C 0.16573 0.86247 0.18812 0.0
H810 H 0.09469 0.85879 0.16303 0.0
H811 H 0.32129 0.91806 0.32985 0.0
H812 H 0.10313 0.24759 0.6815 0.0
H813 H 0.13998 0.21259 0.69963 0.0
H814 H 0.15377 0.27384 0.76237 0.0
H815 H 0.11605 0.30898 0.74442 0.0
H816 H 0.20783 0.25635 0.73533 0.0
H817 H 0.12542 0.20974 0.77894 0.0
H818 H 0.07451 0.18762 0.78484 0.0
H819 H 0.09357 0.12046 0.72796 0.0
H820 H 0.1449 0.14191 0.72206 0.0
H821 H 0.29738 0.15562 0.8089 0.0
H822 H 0.25931 0.19044 0.79224 0.0
H823 H 0.24495 0.13081 0.72851 0.0
H824 H 0.28374 0.09578 0.74505 0.0
H825 H 0.19118 0.14789 0.75659 0.0
H826 H 0.2773 0.19415 0.71685 0.0
H827 H 0.32874 0.21611 0.71494 0.0
H828 H 0.30241 0.28581 0.76752 0.0
H829 H 0.25091 0.26399 0.77004 0.0
C830 C 0.11357 0.2534 0.69938 0.0
C831 C 0.10694 0.28101 0.71154 0.0
C832 C 0.13452 0.23332 0.70975 0.0
C833 C 0.14953 0.24071 0.73227 0.0
C834 C 0.14228 0.26782 0.74496 0.0
C835 C 0.12074 0.28773 0.7348 0.0
C836 C 0.17459 0.22114 0.741 0.0
C837 C 0.20422 0.23277 0.74044 0.0
C838 C 0.16978 0.19026 0.7469 0.0
C839 C 0.13882 0.17762 0.74987 0.0
C840 C 0.11865 0.1904 0.76755 0.0
C841 C 0.08978 0.1779 0.77097 0.0
C842 C 0.08068 0.15282 0.75662 0.0
C843 C 0.1006 0.13996 0.739 0.0
C844 C 0.12966 0.15217 0.73571 0.0
C845 C 0.28644 0.15013 0.79113 0.0
C846 C 0.29336 0.12309 0.7782 0.0
C847 C 0.26481 0.17007 0.78163 0.0
C848 C 0.24948 0.16316 0.75917 0.0
C849 C 0.25673 0.13646 0.74586 0.0
C850 C 0.27889 0.11663 0.75519 0.0
C851 C 0.22448 0.18303 0.75082 0.0
C852 C 0.19484 0.17144 0.75143 0.0
C853 C 0.22932 0.21406 0.74527 0.0
C854 C 0.2603 0.22725 0.74381 0.0
C855 C 0.28255 0.21399 0.72819 0.0
C856 C 0.31171 0.22645 0.72696 0.0
C857 C 0.31887 0.25229 0.74115 0.0
C858 C 0.29685 0.26577 0.75656 0.0
C859 C 0.26765 0.25338 0.75787 0.0
H860 H 0.34145 0.26191 0.74016 0.0
H861 H 0.05825 0.14328 0.75922 0.0
H862 H 0.93999 0.31124 0.30311 0.0
H863 H 0.90395 0.27213 0.28978 0.0
H864 H 0.97444 0.22883 0.24568 0.0
H865 H 0.00992 0.26943 0.2577 0.0
H866 H 0.92408 0.22404 0.2218 0.0
H867 H 0.95287 0.20501 0.30777 0.0
H868 H 0.96039 0.21822 0.35266 0.0
H869 H 0.86486 0.23536 0.36078 0.0
H870 H 0.85683 0.22265 0.31584 0.0
H871 H 0.85104 0.08583 0.20718 0.0
H872 H 0.88763 0.12126 0.22535 0.0
H873 H 0.81435 0.17128 0.26025 0.0
H874 H 0.77762 0.13478 0.24272 0.0
H875 H 0.86653 0.17139 0.28943 0.0
H876 H 0.83925 0.1911 0.20225 0.0
H877 H 0.83285 0.17601 0.15764 0.0
H878 H 0.92798 0.15535 0.15249 0.0
H879 H 0.93486 0.1699 0.19719 0.0
C880 C 0.94746 0.29366 0.29014 0.0
C881 C 0.97743 0.29315 0.28126 0.0
C882 C 0.92705 0.27114 0.28279 0.0
C883 C 0.93672 0.24696 0.26738 0.0
C884 C 0.9665 0.24714 0.25771 0.0
C885 C 0.9867 0.27029 0.26446 0.0
C886 C 0.91597 0.22123 0.26188 0.0
C887 C 0.91189 0.2123 0.23666 0.0
C888 C 0.89961 0.2061 0.28122 0.0
C889 C 0.90429 0.21308 0.3084 0.0
C890 C 0.93349 0.21171 0.31911 0.0
C891 C 0.93784 0.21912 0.34456 0.0
C892 C 0.91313 0.22768 0.35955 0.0
C893 C 0.88398 0.22874 0.34914 0.0
C894 C 0.87951 0.2214 0.32369 0.0
C895 C 0.84285 0.10385 0.21931 0.0
C896 C 0.81168 0.10785 0.22351 0.0
C897 C 0.86372 0.12414 0.22961 0.0
C898 C 0.85359 0.14933 0.24354 0.0
C899 C 0.82257 0.15205 0.24941 0.0
C900 C 0.80166 0.13126 0.23947 0.0
C901 C 0.87486 0.17435 0.24947 0.0
C902 C 0.87892 0.18315 0.27469 0.0
C903 C 0.89147 0.18918 0.23019 0.0
C904 C 0.88752 0.1814 0.20309 0.0
C905 C 0.85878 0.18326 0.19161 0.0
C906 C 0.85506 0.17478 0.16632 0.0
C907 C 0.87998 0.16467 0.15225 0.0
C908 C 0.9087 0.16316 0.16341 0.0
C909 C 0.91252 0.17155 0.18871 0.0
H910 H 0.87705 0.15807 0.13269 0.0
H911 H 0.91655 0.23345 0.37923 0.0
loop_
_geom_bond_atom_site_label_1
_geom_bond_atom_site_label_2
_geom_bond_distance
_geom_bond_site_symmetry_2
_ccdc_geom_bond_type
Co0 O1 2.216 . S
Co0 O2 2.091 . S
Co0 O4 2.004 . S
Co0 O10 2.021 . S
Co0 O12 2.137 . S
Co0 O13 2.244 . S
O1 Co0 2.216 . S
O1 C8 1.247 . S
O2 Co0 2.091 . S
O2 C8 1.261 . S
C3 O12 1.247 1_565 S
C3 O13 1.272 1_565 S
O4 Co0 2.004 . S
O4 C9 1.259 . S
Co5 O6 2.061 . S
Co5 O11 2.052 . S
Co5 O13 2.135 . S
O6 Co5 2.061 . S
O6 C9 1.235 . S
C7 O10 1.238 . S
C7 O11 1.241 . S
C8 O1 1.247 . S
C8 O2 1.261 . S
C9 O4 1.259 . S
C9 O6 1.235 . S
O10 Co0 2.021 . S
O10 C7 1.238 . S
O11 Co5 2.052 . S
O11 C7 1.241 . S
O12 Co0 2.137 . S
O12 C3 1.247 1_545 S
O13 Co0 2.244 . S
O13 C3 1.272 1_545 S
O13 Co5 2.135 . S
Co14 O15 2.216 . S
Co14 O16 2.091 . S
Co14 O18 2.004 . S
Co14 O24 2.021 . S
Co14 O26 2.137 . S
Co14 O27 2.244 . S
O15 Co14 2.216 . S
O15 C22 1.247 . S
O16 Co14 2.091 . S
O16 C22 1.261 . S
C17 O26 1.247 . S
C17 O27 1.272 . S
O18 Co14 2.004 . S
O18 C23 1.259 . S
Co19 O20 2.061 . S
Co19 O25 2.052 . S
Co19 O27 2.135 . S
O20 Co19 2.061 . S
O20 C23 1.235 . S
C21 O24 1.238 . S
C21 O25 1.241 . S
C22 O15 1.247 . S
C22 O16 1.261 . S
C23 O18 1.259 . S
C23 O20 1.235 . S
O24 Co14 2.021 . S
O24 C21 1.238 . S
O25 Co19 2.052 . S
O25 C21 1.241 . S
O26 Co14 2.137 . S
O26 C17 1.247 . S
O27 Co14 2.244 . S
O27 C17 1.272 . S
O27 Co19 2.135 . S
Co28 O29 2.216 . S
Co28 O30 2.091 . S
Co28 O32 2.004 . S
Co28 O38 2.021 . S
Co28 O40 2.137 . S
Co28 O41 2.244 . S
O29 Co28 2.216 . S
O29 C36 1.247 . S
O30 Co28 2.091 . S
O30 C36 1.261 . S
C31 O40 1.247 . S
C31 O41 1.272 . S
O32 Co28 2.004 . S
O32 C37 1.259 . S
Co33 O34 2.061 . S
Co33 O39 2.052 . S
Co33 O41 2.135 . S
O34 Co33 2.061 . S
O34 C37 1.235 . S
C35 O38 1.238 . S
C35 O39 1.241 . S
C36 O29 1.247 . S
C36 O30 1.261 . S
C37 O32 1.259 . S
C37 O34 1.235 . S
O38 Co28 2.021 . S
O38 C35 1.238 . S
O39 Co33 2.052 . S
O39 C35 1.241 . S
O40 Co28 2.137 . S
O40 C31 1.247 . S
O41 Co28 2.244 . S
O41 C31 1.272 . S
O41 Co33 2.135 . S
Co42 O43 2.216 . S
Co42 O44 2.091 . S
Co42 O46 2.004 . S
Co42 O52 2.021 . S
Co42 O54 2.137 . S
Co42 O55 2.244 . S
O43 Co42 2.216 . S
O43 C50 1.247 . S
O44 Co42 2.091 . S
O44 C50 1.261 . S
C45 O54 1.247 1_655 S
C45 O55 1.272 1_655 S
O46 Co42 2.004 . S
O46 C51 1.259 . S
Co47 O48 2.061 . S
Co47 O53 2.052 . S
Co47 O55 2.135 . S
O48 Co47 2.061 . S
O48 C51 1.235 . S
C49 O52 1.238 . S
C49 O53 1.241 . S
C50 O43 1.247 . S
C50 O44 1.261 . S
C51 O46 1.259 . S
C51 O48 1.235 . S
O52 Co42 2.021 . S
O52 C49 1.238 . S
O53 Co47 2.052 . S
O53 C49 1.241 . S
O54 Co42 2.137 . S
O54 C45 1.247 1_455 S
O55 Co42 2.244 . S
O55 C45 1.272 1_455 S
O55 Co47 2.135 . S
Co56 O57 2.216 . S
Co56 O58 2.091 . S
Co56 O60 2.004 . S
Co56 O66 2.021 . S
Co56 O68 2.137 . S
Co56 O69 2.244 . S
O57 Co56 2.216 . S
O57 C64 1.247 . S
O58 Co56 2.091 . S
O58 C64 1.261 . S
C59 O68 1.247 . S
C59 O69 1.272 . S
O60 Co56 2.004 . S
O60 C65 1.259 . S
Co61 O62 2.061 . S
Co61 O67 2.052 . S
Co61 O69 2.135 . S
O62 Co61 2.061 . S
O62 C65 1.235 . S
C63 O66 1.238 . S
C63 O67 1.241 . S
C64 O57 1.247 . S
C64 O58 1.261 . S
C65 O60 1.259 . S
C65 O62 1.235 . S
O66 Co56 2.021 . S
O66 C63 1.238 . S
O67 Co61 2.052 . S
O67 C63 1.241 . S
O68 Co56 2.137 . S
O68 C59 1.247 . S
O69 Co56 2.244 . S
O69 C59 1.272 . S
O69 Co61 2.135 . S
Co70 O71 2.216 . S
Co70 O72 2.091 . S
Co70 O74 2.004 . S
Co70 O80 2.021 . S
Co70 O82 2.137 . S
Co70 O83 2.244 . S
O71 Co70 2.216 . S
O71 C78 1.247 . S
O72 Co70 2.091 . S
O72 C78 1.261 . S
C73 O82 1.247 1_655 S
C73 O83 1.272 1_655 S
O74 Co70 2.004 . S
O74 C79 1.259 . S
Co75 O76 2.061 . S
Co75 O81 2.052 . S
Co75 O83 2.135 . S
O76 Co75 2.061 . S
O76 C79 1.235 . S
C77 O80 1.238 . S
C77 O81 1.241 . S
C78 O71 1.247 . S
C78 O72 1.261 . S
C79 O74 1.259 . S
C79 O76 1.235 . S
O80 Co70 2.021 . S
O80 C77 1.238 . S
O81 Co75 2.052 . S
O81 C77 1.241 . S
O82 Co70 2.137 . S
O82 C73 1.247 1_455 S
O83 Co70 2.244 . S
O83 C73 1.272 1_455 S
O83 Co75 2.135 . S
Co84 O85 2.216 . S
Co84 O86 2.091 . S
Co84 O88 2.004 . S
Co84 O94 2.021 . S
Co84 O96 2.137 . S
Co84 O97 2.244 . S
O85 Co84 2.216 . S
O85 C92 1.247 . S
O86 Co84 2.091 . S
O86 C92 1.261 . S
C87 O96 1.247 1_565 S
C87 O97 1.272 1_565 S
O88 Co84 2.004 . S
O88 C93 1.259 . S
Co89 O90 2.061 . S
Co89 O95 2.052 . S
Co89 O97 2.135 . S
O90 Co89 2.061 . S
O90 C93 1.235 . S
C91 O94 1.238 . S
C91 O95 1.241 . S
C92 O85 1.247 . S
C92 O86 1.261 . S
C93 O88 1.259 . S
C93 O90 1.235 . S
O94 Co84 2.021 . S
O94 C91 1.238 . S
O95 Co89 2.052 . S
O95 C91 1.241 . S
O96 Co84 2.137 . S
O96 C87 1.247 1_545 S
O97 Co84 2.244 . S
O97 C87 1.272 1_545 S
O97 Co89 2.135 . S
Co98 O99 2.216 . S
Co98 O100 2.091 . S
Co98 O102 2.004 . S
Co98 O108 2.021 . S
Co98 O110 2.137 . S
Co98 O111 2.244 . S
O99 Co98 2.216 . S
O99 C106 1.247 . S
O100 Co98 2.091 . S
O100 C106 1.261 . S
C101 O110 1.247 . S
C101 O111 1.272 . S
O102 Co98 2.004 . S
O102 C107 1.259 . S
Co103 O104 2.061 . S
Co103 O109 2.052 . S
Co103 O111 2.135 . S
O104 Co103 2.061 . S
O104 C107 1.235 . S
C105 O108 1.238 . S
C105 O109 1.241 . S
C106 O99 1.247 . S
C106 O100 1.261 . S
C107 O102 1.259 . S
C107 O104 1.235 . S
O108 Co98 2.021 . S
O108 C105 1.238 . S
O109 Co103 2.052 . S
O109 C105 1.241 . S
O110 Co98 2.137 . S
O110 C101 1.247 . S
O111 Co98 2.244 . S
O111 C101 1.272 . S
O111 Co103 2.135 . S
H112 C130 0.951 . S
H113 C132 0.951 . S
H114 C134 0.950 . S
H115 C135 0.950 . S
H116 C137 0.950 . S
H117 C140 0.950 . S
H118 C141 0.950 . S
H119 C143 0.950 . S
H120 C144 0.950 . S
H121 C145 0.951 . S
H122 C147 0.951 . S
H123 C149 0.950 . S
H124 C150 0.950 . S
H125 C152 0.950 . S
H126 C155 0.950 . S
H127 C156 0.950 . S
H128 C158 0.950 . S
H129 C159 0.950 . S
C130 H112 0.951 . S
C130 C131 1.366 . S
C130 C132 1.388 . S
C131 C130 1.366 . S
C131 C135 1.385 . S
C132 H113 0.951 . S
C132 C130 1.388 . S
C132 C133 1.366 . S
C133 C132 1.366 . S
C133 C134 1.414 . S
C133 C136 1.499 . S
C134 H114 0.950 . S
C134 C133 1.414 . S
C134 C135 1.374 . S
C135 H115 0.950 . S
C135 C131 1.385 . S
C135 C134 1.374 . S
C136 C133 1.499 . S
C136 C137 1.373 . S
C136 C138 1.389 . S
C137 H116 0.950 . S
C137 C136 1.373 . S
C137 C153 1.377 1_554 S
C138 C136 1.389 . S
C138 C139 1.524 . S
C138 C152 1.377 1_554 S
C139 C138 1.524 . S
C139 C140 1.397 . S
C139 C144 1.363 . S
C140 H117 0.950 . S
C140 C139 1.397 . S
C140 C141 1.334 . S
C141 H118 0.950 . S
C141 C140 1.334 . S
C141 C142 1.287 . S
C142 C141 1.287 . S
C142 C143 1.524 . S
C142 H161 0.913 . S
C143 H119 0.950 . S
C143 C142 1.524 . S
C143 C144 1.415 . S
C144 H120 0.950 . S
C144 C139 1.363 . S
C144 C143 1.415 . S
C145 H121 0.951 . S
C145 C146 1.366 . S
C145 C147 1.388 . S
C146 C145 1.366 . S
C146 C150 1.385 . S
C147 H122 0.951 . S
C147 C145 1.388 . S
C147 C148 1.366 . S
C148 C147 1.366 . S
C148 C149 1.414 . S
C148 C151 1.499 . S
C149 H123 0.950 . S
C149 C148 1.414 . S
C149 C150 1.374 . S
C150 H124 0.950 . S
C150 C146 1.385 . S
C150 C149 1.374 . S
C151 C148 1.499 . S
C151 C152 1.373 . S
C151 C153 1.389 . S
C152 H125 0.950 . S
C152 C138 1.377 1_556 S
C152 C151 1.373 . S
C153 C137 1.377 1_556 S
C153 C151 1.389 . S
C153 C154 1.524 . S
C154 C153 1.524 . S
C154 C155 1.397 . S
C154 C159 1.363 1_545 S
C155 H126 0.950 . S
C155 C154 1.397 . S
C155 C156 1.334 . S
C156 H127 0.950 . S
C156 C155 1.334 . S
C156 C157 1.287 1_545 S
C157 C156 1.287 1_565 S
C157 C158 1.524 . S
C157 H160 0.999 . S
C158 H128 0.950 . S
C158 C157 1.524 . S
C158 C159 1.415 . S
C159 H129 0.950 . S
C159 C154 1.363 1_565 S
C159 C158 1.415 . S
H160 C157 0.999 . S
H161 C142 0.913 . S
H162 C180 0.951 . S
H163 C182 0.951 . S
H164 C184 0.950 . S
H165 C185 0.950 . S
H166 C187 0.950 . S
H167 C190 0.950 . S
H168 C191 0.950 . S
H169 C193 0.950 . S
H170 C194 0.950 . S
H171 C195 0.951 . S
H172 C197 0.951 . S
H173 C199 0.950 . S
H174 C200 0.950 . S
H175 C202 0.950 . S
H176 C205 0.950 1_455 S
H177 C206 0.950 . S
H178 C208 0.950 . S
H179 C209 0.950 . S
C180 H162 0.951 . S
C180 C181 1.366 . S
C180 C182 1.388 . S
C181 C180 1.366 . S
C181 C185 1.385 . S
C182 H163 0.951 . S
C182 C180 1.388 . S
C182 C183 1.366 . S
C183 C182 1.366 . S
C183 C184 1.414 . S
C183 C186 1.499 . S
C184 H164 0.950 . S
C184 C183 1.414 . S
C184 C185 1.374 . S
C185 H165 0.950 . S
C185 C181 1.385 . S
C185 C184 1.374 . S
C186 C183 1.499 . S
C186 C187 1.373 . S
C186 C188 1.389 . S
C187 H166 0.950 . S
C187 C186 1.373 . S
C187 C203 1.377 . S
C188 C186 1.389 . S
C188 C189 1.524 . S
C188 C202 1.377 . S
C189 C188 1.524 . S
C189 C190 1.397 . S
C189 C194 1.363 . S
C190 H167 0.950 . S
C190 C189 1.397 . S
C190 C191 1.334 . S
C191 H168 0.950 . S
C191 C190 1.334 . S
C191 C192 1.287 . S
C192 C191 1.287 . S
C192 C193 1.524 . S
C192 H211 0.913 . S
C193 H169 0.950 . S
C193 C192 1.524 . S
C193 C194 1.415 . S
C194 H170 0.950 . S
C194 C189 1.363 . S
C194 C193 1.415 . S
C195 H171 0.951 . S
C195 C196 1.366 . S
C195 C197 1.388 . S
C196 C195 1.366 . S
C196 C200 1.385 . S
C197 H172 0.951 . S
C197 C195 1.388 . S
C197 C198 1.366 . S
C198 C197 1.366 . S
C198 C199 1.414 . S
C198 C201 1.499 . S
C199 H173 0.950 . S
C199 C198 1.414 . S
C199 C200 1.374 . S
C200 H174 0.950 . S
C200 C196 1.385 . S
C200 C199 1.374 . S
C201 C198 1.499 . S
C201 C202 1.373 . S
C201 C203 1.389 . S
C202 H175 0.950 . S
C202 C188 1.377 . S
C202 C201 1.373 . S
C203 C187 1.377 . S
C203 C201 1.389 . S
C203 C204 1.524 1_455 S
C204 C203 1.524 1_655 S
C204 C205 1.397 . S
C204 C209 1.363 . S
C205 H176 0.950 1_655 S
C205 C204 1.397 . S
C205 C206 1.334 . S
C206 H177 0.950 . S
C206 C205 1.334 . S
C206 C207 1.287 . S
C207 C206 1.287 . S
C207 C208 1.524 . S
C207 H210 0.999 . S
C208 H178 0.950 . S
C208 C207 1.524 . S
C208 C209 1.415 . S
C209 H179 0.950 . S
C209 C204 1.363 . S
C209 C208 1.415 . S
H210 C207 0.999 . S
H211 C192 0.913 . S
H212 C230 0.951 . S
H213 C232 0.951 . S
H214 C234 0.950 . S
H215 C235 0.950 . S
H216 C237 0.950 . S
H217 C240 0.950 . S
H218 C241 0.950 . S
H219 C243 0.950 . S
H220 C244 0.950 . S
H221 C245 0.951 . S
H222 C247 0.951 . S
H223 C249 0.950 . S
H224 C250 0.950 . S
H225 C252 0.950 . S
H226 C255 0.950 . S
H227 C256 0.950 . S
H228 C258 0.950 . S
H229 C259 0.950 . S
C230 H212 0.951 . S
C230 C231 1.366 . S
C230 C232 1.388 . S
C231 C230 1.366 . S
C231 C235 1.385 . S
C232 H213 0.951 . S
C232 C230 1.388 . S
C232 C233 1.366 . S
C233 C232 1.366 . S
C233 C234 1.414 . S
C233 C236 1.499 . S
C234 H214 0.950 . S
C234 C233 1.414 . S
C234 C235 1.374 . S
C235 H215 0.950 . S
C235 C231 1.385 . S
C235 C234 1.374 . S
C236 C233 1.499 . S
C236 C237 1.373 . S
C236 C238 1.389 . S
C237 H216 0.950 . S
C237 C236 1.373 . S
C237 C253 1.377 1_556 S
C238 C236 1.389 . S
C238 C239 1.524 . S
C238 C252 1.377 1_556 S
C239 C238 1.524 . S
C239 C240 1.397 . S
C239 C244 1.363 . S
C240 H217 0.950 . S
C240 C239 1.397 . S
C240 C241 1.334 . S
C241 H218 0.950 . S
C241 C240 1.334 . S
C241 C242 1.287 . S
C242 C241 1.287 . S
C242 C243 1.524 . S
C242 H261 0.913 . S
C243 H219 0.950 . S
C243 C242 1.524 . S
C243 C244 1.415 . S
C244 H220 0.950 . S
C244 C239 1.363 . S
C244 C243 1.415 . S
C245 H221 0.951 . S
C245 C246 1.366 . S
C245 C247 1.388 . S
C246 C245 1.366 . S
C246 C250 1.385 . S
C247 H222 0.951 . S
C247 C245 1.388 . S
C247 C248 1.366 . S
C248 C247 1.366 . S
C248 C249 1.414 . S
C248 C251 1.499 . S
C249 H223 0.950 . S
C249 C248 1.414 . S
C249 C250 1.374 . S
C250 H224 0.950 . S
C250 C246 1.385 . S
C250 C249 1.374 . S
C251 C248 1.499 . S
C251 C252 1.373 . S
C251 C253 1.389 . S
C252 H225 0.950 . S
C252 C238 1.377 1_554 S
C252 C251 1.373 . S
C253 C237 1.377 1_554 S
C253 C251 1.389 . S
C253 C254 1.524 . S
C254 C253 1.524 . S
C254 C255 1.397 1_545 S
C254 C259 1.363 . S
C255 H226 0.950 . S
C255 C254 1.397 1_565 S
C255 C256 1.334 . S
C256 H227 0.950 . S
C256 C255 1.334 . S
C256 C257 1.287 . S
C257 C256 1.287 . S
C257 C258 1.524 1_565 S
C257 H260 0.999 . S
C258 H228 0.950 . S
C258 C257 1.524 1_545 S
C258 C259 1.415 . S
C259 H229 0.950 . S
C259 C254 1.363 . S
C259 C258 1.415 . S
H260 C257 0.999 . S
H261 C242 0.913 . S
H262 C280 0.951 . S
H263 C282 0.951 . S
H264 C284 0.950 . S
H265 C285 0.950 . S
H266 C287 0.950 . S
H267 C290 0.950 . S
H268 C291 0.950 . S
H269 C293 0.950 . S
H270 C294 0.950 . S
H271 C295 0.951 . S
H272 C297 0.951 . S
H273 C299 0.950 . S
H274 C300 0.950 . S
H275 C302 0.950 . S
H276 C305 0.950 . S
H277 C306 0.950 . S
H278 C308 0.950 . S
H279 C309 0.950 . S
C280 H262 0.951 . S
C280 C281 1.366 . S
C280 C282 1.388 . S
C281 C280 1.366 . S
C281 C285 1.385 . S
C282 H263 0.951 . S
C282 C280 1.388 . S
C282 C283 1.366 . S
C283 C282 1.366 . S
C283 C284 1.414 . S
C283 C286 1.499 . S
C284 H264 0.950 . S
C284 C283 1.414 . S
C284 C285 1.374 . S
C285 H265 0.950 . S
C285 C281 1.385 . S
C285 C284 1.374 . S
C286 C283 1.499 . S
C286 C287 1.373 . S
C286 C288 1.389 . S
C287 H266 0.950 . S
C287 C286 1.373 . S
C287 C303 1.377 . S
C288 C286 1.389 . S
C288 C289 1.524 . S
C288 C302 1.377 . S
C289 C288 1.524 . S
C289 C290 1.397 . S
C289 C294 1.363 . S
C290 H267 0.950 . S
C290 C289 1.397 . S
C290 C291 1.334 . S
C291 H268 0.950 . S
C291 C290 1.334 . S
C291 C292 1.287 . S
C292 C291 1.287 . S
C292 C293 1.524 . S
C292 H311 0.913 . S
C293 H269 0.950 . S
C293 C292 1.524 . S
C293 C294 1.415 . S
C294 H270 0.950 . S
C294 C289 1.363 . S
C294 C293 1.415 . S
C295 H271 0.951 . S
C295 C296 1.366 . S
C295 C297 1.388 . S
C296 C295 1.366 . S
C296 C300 1.385 . S
C297 H272 0.951 . S
C297 C295 1.388 . S
C297 C298 1.366 . S
C298 C297 1.366 . S
C298 C299 1.414 . S
C298 C301 1.499 . S
C299 H273 0.950 . S
C299 C298 1.414 . S
C299 C300 1.374 . S
C300 H274 0.950 . S
C300 C296 1.385 . S
C300 C299 1.374 . S
C301 C298 1.499 . S
C301 C302 1.373 . S
C301 C303 1.389 . S
C302 H275 0.950 . S
C302 C288 1.377 . S
C302 C301 1.373 . S
C303 C287 1.377 . S
C303 C301 1.389 . S
C303 C304 1.524 1_455 S
C304 C303 1.524 1_655 S
C304 C305 1.397 . S
C304 C309 1.363 . S
C305 H276 0.950 . S
C305 C304 1.397 . S
C305 C306 1.334 . S
C306 H277 0.950 . S
C306 C305 1.334 . S
C306 C307 1.287 . S
C307 C306 1.287 . S
C307 C308 1.524 . S
C307 H310 0.999 . S
C308 H278 0.950 . S
C308 C307 1.524 . S
C308 C309 1.415 . S
C309 H279 0.950 . S
C309 C304 1.363 . S
C309 C308 1.415 . S
H310 C307 0.999 . S
H311 C292 0.913 . S
H312 C330 0.951 . S
H313 C332 0.951 . S
H314 C334 0.950 . S
H315 C335 0.950 . S
H316 C337 0.950 . S
H317 C340 0.950 . S
H318 C341 0.950 . S
H319 C343 0.950 . S
H320 C344 0.950 . S
H321 C345 0.951 . S
H322 C347 0.951 . S
H323 C349 0.950 . S
H324 C350 0.950 . S
H325 C352 0.950 . S
H326 C355 0.950 1_545 S
H327 C356 0.950 . S
H328 C358 0.950 . S
H329 C359 0.950 . S
C330 H312 0.951 . S
C330 C331 1.366 . S
C330 C332 1.388 . S
C331 C330 1.366 . S
C331 C335 1.385 . S
C332 H313 0.951 . S
C332 C330 1.388 . S
C332 C333 1.366 . S
C333 C332 1.366 . S
C333 C334 1.414 . S
C333 C336 1.499 . S
C334 H314 0.950 . S
C334 C333 1.414 . S
C334 C335 1.374 . S
C335 H315 0.950 . S
C335 C331 1.385 . S
C335 C334 1.374 . S
C336 C333 1.499 . S
C336 C337 1.373 . S
C336 C338 1.389 . S
C337 H316 0.950 . S
C337 C336 1.373 . S
C337 C353 1.377 . S
C338 C336 1.389 . S
C338 C339 1.524 . S
C338 C352 1.377 . S
C339 C338 1.524 . S
C339 C340 1.397 . S
C339 C344 1.363 . S
C340 H317 0.950 . S
C340 C339 1.397 . S
C340 C341 1.334 . S
C341 H318 0.950 . S
C341 C340 1.334 . S
C341 C342 1.287 . S
C342 C341 1.287 . S
C342 C343 1.524 . S
C342 H361 0.913 . S
C343 H319 0.950 . S
C343 C342 1.524 . S
C343 C344 1.415 . S
C344 H320 0.950 . S
C344 C339 1.363 . S
C344 C343 1.415 . S
C345 H321 0.951 . S
C345 C346 1.366 . S
C345 C347 1.388 . S
C346 C345 1.366 . S
C346 C350 1.385 . S
C347 H322 0.951 . S
C347 C345 1.388 . S
C347 C348 1.366 . S
C348 C347 1.366 . S
C348 C349 1.414 . S
C348 C351 1.499 . S
C349 H323 0.950 . S
C349 C348 1.414 . S
C349 C350 1.374 . S
C350 H324 0.950 . S
C350 C346 1.385 . S
C350 C349 1.374 . S
C351 C348 1.499 . S
C351 C352 1.373 . S
C351 C353 1.389 . S
C352 H325 0.950 . S
C352 C338 1.377 . S
C352 C351 1.373 . S
C353 C337 1.377 . S
C353 C351 1.389 . S
C353 C354 1.535 . S
C354 C353 1.535 . S
C354 C355 1.393 1_545 S
C354 C359 1.355 1_545 S
C355 H326 0.950 1_565 S
C355 C354 1.393 1_565 S
C355 C356 1.334 . S
C356 H327 0.950 . S
C356 C355 1.334 . S
C356 C357 1.287 . S
C357 C356 1.287 . S
C357 C358 1.524 . S
C357 H360 0.999 . S
C358 H328 0.950 . S
C358 C357 1.524 . S
C358 C359 1.415 . S
C359 H329 0.950 . S
C359 C354 1.355 1_565 S
C359 C358 1.415 . S
H360 C357 0.999 . S
H361 C342 0.913 . S
H362 C380 0.951 . S
H363 C382 0.951 . S
H364 C384 0.950 . S
H365 C385 0.950 . S
H366 C387 0.950 . S
H367 C390 0.950 . S
H368 C391 0.950 . S
H369 C393 0.950 . S
H370 C394 0.950 . S
H371 C395 0.951 . S
H372 C397 0.951 . S
H373 C399 0.953 . S
H374 C400 0.950 1_655 S
H375 C402 0.950 . S
H376 C405 0.950 . S
H377 C406 0.950 . S
H378 C408 0.950 . S
H379 C409 0.950 . S
C380 H362 0.951 . S
C380 C381 1.366 . S
C380 C382 1.388 . S
C381 C380 1.366 . S
C381 C385 1.385 . S
C382 H363 0.951 . S
C382 C380 1.388 . S
C382 C383 1.366 . S
C383 C382 1.366 . S
C383 C384 1.414 . S
C383 C386 1.499 . S
C384 H364 0.950 . S
C384 C383 1.414 . S
C384 C385 1.374 . S
C385 H365 0.950 . S
C385 C381 1.385 . S
C385 C384 1.374 . S
C386 C383 1.499 . S
C386 C387 1.373 . S
C386 C388 1.389 . S
C387 H366 0.950 . S
C387 C386 1.373 . S
C387 C403 1.377 . S
C388 C386 1.389 . S
C388 C389 1.524 . S
C388 C402 1.377 . S
C389 C388 1.524 . S
C389 C390 1.397 . S
C389 C394 1.363 1_455 S
C390 H367 0.950 . S
C390 C389 1.397 . S
C390 C391 1.334 1_455 S
C391 H368 0.950 . S
C391 C390 1.334 1_655 S
C391 C392 1.287 . S
C392 C391 1.287 . S
C392 C393 1.524 . S
C392 H411 0.913 . S
C393 H369 0.950 . S
C393 C392 1.524 . S
C393 C394 1.415 . S
C394 H370 0.950 . S
C394 C389 1.363 1_655 S
C394 C393 1.415 . S
C395 H371 0.951 . S
C395 C396 1.366 . S
C395 C397 1.388 . S
C396 C395 1.366 . S
C396 C400 1.385 . S
C397 H372 0.951 . S
C397 C395 1.388 . S
C397 C398 1.366 . S
C398 C397 1.366 . S
C398 C399 1.414 . S
C398 C401 1.499 . S
C399 H373 0.953 . S
C399 C398 1.414 . S
C399 C400 1.374 . S
C400 H374 0.950 1_455 S
C400 C396 1.385 . S
C400 C399 1.374 . S
C401 C398 1.499 . S
C401 C402 1.373 . S
C401 C403 1.389 . S
C402 H375 0.950 . S
C402 C388 1.377 . S
C402 C401 1.373 . S
C403 C387 1.377 . S
C403 C401 1.389 . S
C403 C404 1.524 . S
C404 C403 1.524 . S
C404 C405 1.397 . S
C404 C409 1.363 . S
C405 H376 0.950 . S
C405 C404 1.397 . S
C405 C406 1.334 . S
C406 H377 0.950 . S
C406 C405 1.334 . S
C406 C407 1.287 . S
C407 C406 1.287 . S
C407 C408 1.524 . S
C407 H410 0.999 . S
C408 H378 0.950 . S
C408 C407 1.524 . S
C408 C409 1.415 . S
C409 H379 0.950 . S
C409 C404 1.363 . S
C409 C408 1.415 . S
H410 C407 0.999 . S
H411 C392 0.913 . S
H412 C430 0.951 1_565 S
H413 C432 0.951 1_565 S
H414 C434 0.950 . S
H415 C435 0.950 . S
H416 C437 0.950 . S
H417 C440 0.950 . S
H418 C441 0.950 . S
H419 C443 0.950 1_565 S
H420 C444 0.949 . S
H421 C445 0.951 . S
H422 C447 0.951 . S
H423 C449 0.950 . S
H424 C450 0.950 . S
H425 C452 0.950 . S
H426 C455 0.950 . S
H427 C456 0.950 . S
H428 C458 0.950 . S
H429 C459 0.950 . S
C430 H412 0.951 1_545 S
C430 C431 1.366 . S
C430 C432 1.388 . S
C431 C430 1.366 . S
C431 C435 1.385 . S
C432 H413 0.951 1_545 S
C432 C430 1.388 . S
C432 C433 1.366 . S
C433 C432 1.366 . S
C433 C434 1.414 . S
C433 C436 1.499 . S
C434 H414 0.950 . S
C434 C433 1.414 . S
C434 C435 1.374 . S
C435 H415 0.950 . S
C435 C431 1.385 . S
C435 C434 1.374 . S
C436 C433 1.499 . S
C436 C437 1.373 . S
C436 C438 1.389 . S
C437 H416 0.950 . S
C437 C436 1.373 . S
C437 C453 1.377 . S
C438 C436 1.389 . S
C438 C439 1.524 . S
C438 C452 1.377 . S
C439 C438 1.524 . S
C439 C440 1.397 . S
C439 C444 1.363 . S
C440 H417 0.950 . S
C440 C439 1.397 . S
C440 C441 1.334 . S
C441 H418 0.950 . S
C441 C440 1.334 . S
C441 C442 1.287 . S
C442 C441 1.287 . S
C442 C443 1.524 . S
C442 H461 0.913 . S
C443 H419 0.950 1_545 S
C443 C442 1.524 . S
C443 C444 1.415 . S
C444 H420 0.949 . S
C444 C439 1.363 . S
C444 C443 1.415 . S
C445 H421 0.951 . S
C445 C446 1.366 . S
C445 C447 1.388 . S
C446 C445 1.366 . S
C446 C450 1.385 . S
C447 H422 0.951 . S
C447 C445 1.388 . S
C447 C448 1.366 . S
C448 C447 1.366 . S
C448 C449 1.414 . S
C448 C451 1.499 . S
C449 H423 0.950 . S
C449 C448 1.414 . S
C449 C450 1.374 . S
C450 H424 0.950 . S
C450 C446 1.385 . S
C450 C449 1.374 . S
C451 C448 1.499 . S
C451 C452 1.373 . S
C451 C453 1.389 . S
C452 H425 0.950 . S
C452 C438 1.377 . S
C452 C451 1.373 . S
C453 C437 1.377 . S
C453 C451 1.389 . S
C453 C454 1.524 . S
C454 C453 1.524 . S
C454 C455 1.397 . S
C454 C459 1.363 . S
C455 H426 0.950 . S
C455 C454 1.397 . S
C455 C456 1.334 . S
C456 H427 0.950 . S
C456 C455 1.334 . S
C456 C457 1.287 . S
C457 C456 1.287 . S
C457 C458 1.524 . S
C457 H460 0.999 . S
C458 H428 0.950 . S
C458 C457 1.524 . S
C458 C459 1.415 . S
C459 H429 0.950 . S
C459 C454 1.363 . S
C459 C458 1.415 . S
H460 C457 0.999 . S
H461 C442 0.913 . S
H462 C480 0.951 . S
H463 C482 0.951 . S
H464 C484 0.950 . S
H465 C485 0.950 . S
H466 C487 0.950 . S
H467 C490 0.950 . S
H468 C491 0.950 . S
H469 C493 0.950 . S
H470 C494 0.950 . S
H471 C495 0.951 . S
H472 C497 0.951 . S
H473 C499 0.950 . S
H474 C500 0.950 . S
H475 C502 0.950 . S
H476 C505 0.950 . S
H477 C506 0.950 . S
H478 C508 0.950 . S
H479 C509 0.950 . S
C480 H462 0.951 . S
C480 C481 1.366 . S
C480 C482 1.388 . S
C481 C480 1.366 . S
C481 C485 1.385 . S
C482 H463 0.951 . S
C482 C480 1.388 . S
C482 C483 1.366 . S
C483 C482 1.366 . S
C483 C484 1.414 . S
C483 C486 1.499 . S
C484 H464 0.950 . S
C484 C483 1.414 . S
C484 C485 1.374 . S
C485 H465 0.950 . S
C485 C481 1.385 . S
C485 C484 1.374 . S
C486 C483 1.499 . S
C486 C487 1.373 . S
C486 C488 1.389 . S
C487 H466 0.950 . S
C487 C486 1.373 . S
C487 C503 1.377 . S
C488 C486 1.389 . S
C488 C489 1.524 1_455 S
C488 C502 1.377 . S
C489 C488 1.524 1_655 S
C489 C490 1.397 . S
C489 C494 1.363 . S
C490 H467 0.950 . S
C490 C489 1.397 . S
C490 C491 1.334 . S
C491 H468 0.950 . S
C491 C490 1.334 . S
C491 C492 1.287 . S
C492 C491 1.287 . S
C492 C493 1.524 . S
C492 H511 0.913 . S
C493 H469 0.950 . S
C493 C492 1.524 . S
C493 C494 1.415 . S
C494 H470 0.950 . S
C494 C489 1.363 . S
C494 C493 1.415 . S
C495 H471 0.951 . S
C495 C496 1.366 . S
C495 C497 1.388 . S
C496 C495 1.366 . S
C496 C500 1.385 . S
C497 H472 0.951 . S
C497 C495 1.388 . S
C497 C498 1.366 . S
C498 C497 1.366 . S
C498 C499 1.414 . S
C498 C501 1.499 . S
C499 H473 0.950 . S
C499 C498 1.414 . S
C499 C500 1.374 . S
C500 H474 0.950 . S
C500 C496 1.385 . S
C500 C499 1.374 . S
C501 C498 1.499 . S
C501 C502 1.373 . S
C501 C503 1.389 . S
C502 H475 0.950 . S
C502 C488 1.377 . S
C502 C501 1.373 . S
C503 C487 1.377 . S
C503 C501 1.389 . S
C503 C504 1.524 . S
C504 C503 1.524 . S
C504 C505 1.397 . S
C504 C509 1.363 . S
C505 H476 0.950 . S
C505 C504 1.397 . S
C505 C506 1.334 . S
C506 H477 0.950 . S
C506 C505 1.334 . S
C506 C507 1.287 . S
C507 C506 1.287 . S
C507 C508 1.524 . S
C507 H510 0.999 . S
C508 H478 0.950 . S
C508 C507 1.524 . S
C508 C509 1.415 . S
C509 H479 0.950 . S
C509 C504 1.363 . S
C509 C508 1.415 . S
H510 C507 0.999 . S
H511 C492 0.913 . S
H512 C530 0.951 . S
H513 C532 0.951 . S
H514 C534 0.950 . S
H515 C535 0.950 . S
H516 C537 0.950 . S
H517 C540 0.950 . S
H518 C541 0.950 . S
H519 C543 0.950 . S
H520 C544 0.950 . S
H521 C545 0.951 . S
H522 C547 0.951 . S
H523 C549 0.950 . S
H524 C550 0.950 . S
H525 C552 0.950 . S
H526 C555 0.950 . S
H527 C556 0.950 . S
H528 C558 0.950 . S
H529 C559 0.950 . S
C530 H512 0.951 . S
C530 C531 1.366 . S
C530 C532 1.388 . S
C531 C530 1.366 . S
C531 C535 1.385 . S
C532 H513 0.951 . S
C532 C530 1.388 . S
C532 C533 1.366 . S
C533 C532 1.366 . S
C533 C534 1.414 . S
C533 C536 1.499 . S
C534 H514 0.950 . S
C534 C533 1.414 . S
C534 C535 1.374 . S
C535 H515 0.950 . S
C535 C531 1.385 . S
C535 C534 1.374 . S
C536 C533 1.499 . S
C536 C537 1.373 . S
C536 C538 1.389 . S
C537 H516 0.950 . S
C537 C536 1.373 . S
C537 C553 1.377 . S
C538 C536 1.389 . S
C538 C539 1.524 . S
C538 C552 1.377 . S
C539 C538 1.524 . S
C539 C540 1.397 . S
C539 C544 1.363 . S
C540 H517 0.950 . S
C540 C539 1.397 . S
C540 C541 1.334 . S
C541 H518 0.950 . S
C541 C540 1.334 . S
C541 C542 1.287 . S
C542 C541 1.287 . S
C542 C543 1.524 . S
C542 H561 0.913 . S
C543 H519 0.950 . S
C543 C542 1.524 . S
C543 C544 1.415 . S
C544 H520 0.950 . S
C544 C539 1.363 . S
C544 C543 1.415 . S
C545 H521 0.951 . S
C545 C546 1.366 . S
C545 C547 1.388 . S
C546 C545 1.366 . S
C546 C550 1.385 . S
C547 H522 0.951 . S
C547 C545 1.388 . S
C547 C548 1.366 . S
C548 C547 1.366 . S
C548 C549 1.414 . S
C548 C551 1.499 . S
C549 H523 0.950 . S
C549 C548 1.414 . S
C549 C550 1.374 . S
C550 H524 0.950 . S
C550 C546 1.385 . S
C550 C549 1.374 . S
C551 C548 1.499 . S
C551 C552 1.373 . S
C551 C553 1.389 . S
C552 H525 0.950 . S
C552 C538 1.377 . S
C552 C551 1.373 . S
C553 C537 1.377 . S
C553 C551 1.389 . S
C553 C554 1.524 . S
C554 C553 1.524 . S
C554 C555 1.397 . S
C554 C559 1.363 . S
C555 H526 0.950 . S
C555 C554 1.397 . S
C555 C556 1.334 . S
C556 H527 0.950 . S
C556 C555 1.334 . S
C556 C557 1.287 . S
C557 C556 1.287 . S
C557 C558 1.524 . S
C557 H560 0.999 . S
C558 H528 0.950 . S
C558 C557 1.524 . S
C558 C559 1.415 . S
C559 H529 0.950 . S
C559 C554 1.363 . S
C559 C558 1.415 . S
H560 C557 0.999 . S
H561 C542 0.913 . S
H562 C580 0.951 1_455 S
H563 C582 0.951 . S
H564 C584 0.950 . S
H565 C585 0.950 . S
H566 C587 0.950 . S
H567 C590 0.950 . S
H568 C591 0.950 . S
H569 C593 0.950 . S
H570 C594 0.950 . S
H571 C595 0.951 . S
H572 C597 0.951 . S
H573 C599 0.950 . S
H574 C600 0.950 . S
H575 C602 0.950 . S
H576 C605 0.950 . S
H577 C606 0.950 . S
H578 C608 0.950 . S
H579 C609 0.950 . S
C580 H562 0.951 1_655 S
C580 C581 1.373 . S
C580 C582 1.388 . S
C581 C580 1.373 . S
C581 C585 1.398 . S
C582 H563 0.951 . S
C582 C580 1.388 . S
C582 C583 1.366 . S
C583 C582 1.366 . S
C583 C584 1.414 . S
C583 C586 1.499 . S
C584 H564 0.950 . S
C584 C583 1.414 . S
C584 C585 1.374 . S
C585 H565 0.950 . S
C585 C581 1.398 . S
C585 C584 1.374 . S
C586 C583 1.499 . S
C586 C587 1.373 . S
C586 C588 1.389 . S
C587 H566 0.950 . S
C587 C586 1.373 . S
C587 C603 1.377 . S
C588 C586 1.389 . S
C588 C589 1.524 . S
C588 C602 1.377 . S
C589 C588 1.524 . S
C589 C590 1.397 . S
C589 C594 1.363 . S
C590 H567 0.950 . S
C590 C589 1.397 . S
C590 C591 1.334 1_655 S
C591 H568 0.950 . S
C591 C590 1.334 1_455 S
C591 C592 1.287 . S
C592 C591 1.287 . S
C592 C593 1.524 . S
C592 H611 0.913 . S
C593 H569 0.950 . S
C593 C592 1.524 . S
C593 C594 1.415 1_455 S
C594 H570 0.950 . S
C594 C589 1.363 . S
C594 C593 1.415 1_655 S
C595 H571 0.951 . S
C595 C596 1.366 . S
C595 C597 1.388 . S
C596 C595 1.366 . S
C596 C600 1.385 . S
C597 H572 0.951 . S
C597 C595 1.388 . S
C597 C598 1.366 . S
C598 C597 1.366 . S
C598 C599 1.414 . S
C598 C601 1.499 . S
C599 H573 0.950 . S
C599 C598 1.414 . S
C599 C600 1.374 . S
C600 H574 0.950 . S
C600 C596 1.385 . S
C600 C599 1.374 . S
C601 C598 1.499 . S
C601 C602 1.373 . S
C601 C603 1.389 . S
C602 H575 0.950 . S
C602 C588 1.377 . S
C602 C601 1.373 . S
C603 C587 1.377 . S
C603 C601 1.389 . S
C603 C604 1.524 . S
C604 C603 1.524 . S
C604 C605 1.397 . S
C604 C609 1.363 . S
C605 H576 0.950 . S
C605 C604 1.397 . S
C605 C606 1.334 . S
C606 H577 0.950 . S
C606 C605 1.334 . S
C606 C607 1.287 . S
C607 C606 1.287 . S
C607 C608 1.524 . S
C607 H610 0.999 . S
C608 H578 0.950 . S
C608 C607 1.524 . S
C608 C609 1.415 . S
C609 H579 0.950 . S
C609 C604 1.363 . S
C609 C608 1.415 . S
H610 C607 0.999 . S
H611 C592 0.913 . S
H612 C630 0.951 . S
H613 C632 0.951 . S
H614 C634 0.950 . S
H615 C635 0.937 1_455 S
H616 C637 0.950 . S
H617 C640 0.950 . S
H618 C641 0.950 . S
H619 C643 0.950 . S
H620 C644 0.950 . S
H621 C645 0.951 . S
H622 C647 0.951 . S
H623 C649 0.950 . S
H624 C650 0.950 1_545 S
H625 C652 0.950 . S
H626 C655 0.950 . S
H627 C656 0.950 . S
H628 C658 0.950 . S
H629 C659 0.950 . S
C630 H612 0.951 . S
C630 C631 1.384 . S
C630 C632 1.388 . S
C631 C630 1.384 . S
C631 C635 1.385 . S
C632 H613 0.951 . S
C632 C630 1.388 . S
C632 C633 1.366 . S
C633 C632 1.366 . S
C633 C634 1.414 . S
C633 C636 1.499 . S
C634 H614 0.950 . S
C634 C633 1.414 . S
C634 C635 1.387 . S
C635 H615 0.937 1_655 S
C635 C631 1.385 . S
C635 C634 1.387 . S
C636 C633 1.499 . S
C636 C637 1.373 . S
C636 C638 1.389 . S
C637 H616 0.950 . S
C637 C636 1.373 . S
C637 C653 1.377 . S
C638 C636 1.389 . S
C638 C639 1.524 . S
C638 C652 1.377 . S
C639 C638 1.524 . S
C639 C640 1.397 . S
C639 C644 1.363 . S
C640 H617 0.950 . S
C640 C639 1.397 . S
C640 C641 1.334 . S
C641 H618 0.950 . S
C641 C640 1.334 . S
C641 C642 1.287 . S
C642 C641 1.287 . S
C642 C643 1.524 . S
C642 H661 0.913 . S
C643 H619 0.950 . S
C643 C642 1.524 . S
C643 C644 1.415 . S
C644 H620 0.950 . S
C644 C639 1.363 . S
C644 C643 1.415 . S
C645 H621 0.951 . S
C645 C646 1.380 . S
C645 C647 1.388 . S
C646 C645 1.380 . S
C646 C650 1.391 . S
C647 H622 0.951 . S
C647 C645 1.388 . S
C647 C648 1.366 . S
C648 C647 1.366 . S
C648 C649 1.414 . S
C648 C651 1.499 . S
C649 H623 0.950 . S
C649 C648 1.414 . S
C649 C650 1.374 . S
C650 H624 0.950 1_565 S
C650 C646 1.391 . S
C650 C649 1.374 . S
C651 C648 1.499 . S
C651 C652 1.373 . S
C651 C653 1.389 . S
C652 H625 0.950 . S
C652 C638 1.377 . S
C652 C651 1.373 . S
C653 C637 1.377 . S
C653 C651 1.389 . S
C653 C654 1.524 . S
C654 C653 1.524 . S
C654 C655 1.397 . S
C654 C659 1.363 . S
C655 H626 0.950 . S
C655 C654 1.397 . S
C655 C656 1.334 1_565 S
C656 H627 0.950 . S
C656 C655 1.334 1_545 S
C656 C657 1.287 . S
C657 C656 1.287 . S
C657 C658 1.524 1_545 S
C657 H660 0.999 . S
C658 H628 0.950 . S
C658 C657 1.524 1_565 S
C658 C659 1.415 . S
C659 H629 0.950 . S
C659 C654 1.363 . S
C659 C658 1.415 . S
H660 C657 0.999 . S
H661 C642 0.913 . S
H662 C680 0.951 . S
H663 C682 0.951 . S
H664 C684 0.950 . S
H665 C685 0.950 . S
H666 C687 0.950 . S
H667 C690 0.950 . S
H668 C691 0.950 . S
H669 C693 0.950 . S
H670 C694 0.950 . S
H671 C695 0.951 . S
H672 C697 0.951 . S
H673 C699 0.950 . S
H674 C700 0.950 1_545 S
H675 C702 0.950 . S
H676 C705 0.950 . S
H677 C706 0.950 . S
H678 C708 0.950 . S
H679 C709 0.950 . S
C680 H662 0.951 . S
C680 C681 1.366 . S
C680 C682 1.388 . S
C681 C680 1.366 . S
C681 C685 1.385 . S
C682 H663 0.951 . S
C682 C680 1.388 . S
C682 C683 1.366 . S
C683 C682 1.366 . S
C683 C684 1.414 . S
C683 C686 1.499 . S
C684 H664 0.950 . S
C684 C683 1.414 . S
C684 C685 1.374 . S
C685 H665 0.950 . S
C685 C681 1.385 . S
C685 C684 1.374 . S
C686 C683 1.499 . S
C686 C687 1.373 . S
C686 C688 1.389 . S
C687 H666 0.950 . S
C687 C686 1.373 . S
C687 C703 1.377 . S
C688 C686 1.389 . S
C688 C689 1.524 . S
C688 C702 1.377 . S
C689 C688 1.524 . S
C689 C690 1.397 . S
C689 C694 1.363 . S
C690 H667 0.950 . S
C690 C689 1.397 . S
C690 C691 1.334 . S
C691 H668 0.950 . S
C691 C690 1.334 . S
C691 C692 1.287 . S
C692 C691 1.287 . S
C692 C693 1.524 . S
C692 H711 0.913 . S
C693 H669 0.950 . S
C693 C692 1.524 . S
C693 C694 1.415 . S
C694 H670 0.950 . S
C694 C689 1.363 . S
C694 C693 1.415 . S
C695 H671 0.951 . S
C695 C696 1.383 . S
C695 C697 1.388 . S
C696 C695 1.383 . S
C696 C700 1.385 . S
C697 H672 0.951 . S
C697 C695 1.388 . S
C697 C698 1.366 . S
C698 C697 1.366 . S
C698 C699 1.414 . S
C698 C701 1.499 . S
C699 H673 0.950 . S
C699 C698 1.414 . S
C699 C700 1.374 . S
C700 H674 0.950 1_565 S
C700 C696 1.385 . S
C700 C699 1.374 . S
C701 C698 1.499 . S
C701 C702 1.373 . S
C701 C703 1.389 . S
C702 H675 0.950 . S
C702 C688 1.377 . S
C702 C701 1.373 . S
C703 C687 1.377 . S
C703 C701 1.389 . S
C703 C704 1.524 . S
C704 C703 1.524 . S
C704 C705 1.397 . S
C704 C709 1.363 . S
C705 H676 0.950 . S
C705 C704 1.397 . S
C705 C706 1.334 . S
C706 H677 0.950 . S
C706 C705 1.334 . S
C706 C707 1.287 . S
C707 C706 1.287 . S
C707 C708 1.524 . S
C707 H710 0.999 . S
C708 H678 0.950 . S
C708 C707 1.524 . S
C708 C709 1.415 . S
C709 H679 0.950 . S
C709 C704 1.363 . S
C709 C708 1.415 . S
H710 C707 0.999 . S
H711 C692 0.913 . S
H712 C730 0.951 . S
H713 C732 0.951 . S
H714 C734 0.950 . S
H715 C735 0.950 1_545 S
H716 C737 0.950 . S
H717 C740 0.950 . S
H718 C741 0.950 . S
H719 C743 0.950 . S
H720 C744 0.950 . S
H721 C745 0.942 1_455 S
H722 C747 0.951 . S
H723 C749 0.950 . S
H724 C750 0.950 . S
H725 C752 0.950 . S
H726 C755 0.950 . S
H727 C756 0.950 . S
H728 C758 0.950 . S
H729 C759 0.950 . S
C730 H712 0.951 . S
C730 C731 1.366 . S
C730 C732 1.388 . S
C731 C730 1.366 . S
C731 C735 1.385 . S
C732 H713 0.951 . S
C732 C730 1.388 . S
C732 C733 1.366 . S
C733 C732 1.366 . S
C733 C734 1.414 . S
C733 C736 1.499 . S
C734 H714 0.950 . S
C734 C733 1.414 . S
C734 C735 1.374 . S
C735 H715 0.950 1_565 S
C735 C731 1.385 . S
C735 C734 1.374 . S
C736 C733 1.499 . S
C736 C737 1.373 . S
C736 C738 1.389 . S
C737 H716 0.950 . S
C737 C736 1.373 . S
C737 C753 1.377 . S
C738 C736 1.389 . S
C738 C739 1.524 . S
C738 C752 1.377 . S
C739 C738 1.524 . S
C739 C740 1.397 . S
C739 C744 1.363 . S
C740 H717 0.950 . S
C740 C739 1.397 . S
C740 C741 1.334 . S
C741 H718 0.950 . S
C741 C740 1.334 . S
C741 C742 1.287 . S
C742 C741 1.287 . S
C742 C743 1.524 . S
C742 H761 0.913 . S
C743 H719 0.950 . S
C743 C742 1.524 . S
C743 C744 1.415 . S
C744 H720 0.950 . S
C744 C739 1.363 . S
C744 C743 1.415 . S
C745 H721 0.942 1_655 S
C745 C746 1.366 . S
C745 C747 1.388 . S
C746 C745 1.366 . S
C746 C750 1.385 . S
C747 H722 0.951 . S
C747 C745 1.388 . S
C747 C748 1.366 . S
C748 C747 1.366 . S
C748 C749 1.414 . S
C748 C751 1.499 . S
C749 H723 0.950 . S
C749 C748 1.414 . S
C749 C750 1.374 . S
C750 H724 0.950 . S
C750 C746 1.385 . S
C750 C749 1.374 . S
C751 C748 1.499 . S
C751 C752 1.373 . S
C751 C753 1.389 . S
C752 H725 0.950 . S
C752 C738 1.377 . S
C752 C751 1.373 . S
C753 C737 1.377 . S
C753 C751 1.389 . S
C753 C754 1.524 . S
C754 C753 1.524 . S
C754 C755 1.397 . S
C754 C759 1.363 . S
C755 H726 0.950 . S
C755 C754 1.397 . S
C755 C756 1.334 . S
C756 H727 0.950 . S
C756 C755 1.334 . S
C756 C757 1.287 . S
C757 C756 1.287 . S
C757 C758 1.524 . S
C757 H760 0.999 . S
C758 H728 0.950 . S
C758 C757 1.524 . S
C758 C759 1.415 . S
C759 H729 0.950 . S
C759 C754 1.363 . S
C759 C758 1.415 . S
H760 C757 0.999 . S
H761 C742 0.913 . S
H762 C780 0.951 1_545 S
H763 C782 0.951 . S
H764 C784 0.950 . S
H765 C785 0.950 . S
H766 C787 0.950 . S
H767 C790 0.950 . S
H768 C791 0.950 . S
H769 C793 0.950 . S
H770 C794 0.950 . S
H771 C795 0.951 . S
H772 C797 0.951 . S
H773 C799 0.950 . S
H774 C800 0.950 . S
H775 C802 0.950 . S
H776 C805 0.950 . S
H777 C806 0.950 . S
H778 C808 0.950 . S
H779 C809 0.950 . S
C780 H762 0.951 1_565 S
C780 C781 1.366 . S
C780 C782 1.388 . S
C781 C780 1.366 . S
C781 C785 1.385 . S
C782 H763 0.951 . S
C782 C780 1.388 . S
C782 C783 1.366 . S
C783 C782 1.366 . S
C783 C784 1.414 . S
C783 C786 1.499 . S
C784 H764 0.950 . S
C784 C783 1.414 . S
C784 C785 1.374 . S
C785 H765 0.950 . S
C785 C781 1.385 . S
C785 C784 1.374 . S
C786 C783 1.499 . S
C786 C787 1.373 . S
C786 C788 1.389 . S
C787 H766 0.950 . S
C787 C786 1.373 . S
C787 C803 1.377 . S
C788 C786 1.389 . S
C788 C789 1.524 . S
C788 C802 1.377 . S
C789 C788 1.524 . S
C789 C790 1.397 . S
C789 C794 1.363 . S
C790 H767 0.950 . S
C790 C789 1.397 . S
C790 C791 1.334 . S
C791 H768 0.950 . S
C791 C790 1.334 . S
C791 C792 1.287 . S
C792 C791 1.287 . S
C792 C793 1.524 . S
C792 H811 0.913 . S
C793 H769 0.950 . S
C793 C792 1.524 . S
C793 C794 1.415 . S
C794 H770 0.950 . S
C794 C789 1.363 . S
C794 C793 1.415 . S
C795 H771 0.951 . S
C795 C796 1.366 . S
C795 C797 1.388 . S
C796 C795 1.366 . S
C796 C800 1.385 . S
C797 H772 0.951 . S
C797 C795 1.388 . S
C797 C798 1.366 . S
C798 C797 1.366 . S
C798 C799 1.414 . S
C798 C801 1.499 . S
C799 H773 0.950 . S
C799 C798 1.414 . S
C799 C800 1.374 . S
C800 H774 0.950 . S
C800 C796 1.385 . S
C800 C799 1.374 . S
C801 C798 1.499 . S
C801 C802 1.373 . S
C801 C803 1.389 . S
C802 H775 0.950 . S
C802 C788 1.377 . S
C802 C801 1.373 . S
C803 C787 1.377 . S
C803 C801 1.389 . S
C803 C804 1.524 . S
C804 C803 1.524 . S
C804 C805 1.397 . S
C804 C809 1.363 . S
C805 H776 0.950 . S
C805 C804 1.397 . S
C805 C806 1.334 . S
C806 H777 0.950 . S
C806 C805 1.334 . S
C806 C807 1.287 . S
C807 C806 1.287 . S
C807 C808 1.524 . S
C807 H810 0.999 . S
C808 H778 0.950 . S
C808 C807 1.524 . S
C808 C809 1.415 . S
C809 H779 0.950 . S
C809 C804 1.363 . S
C809 C808 1.415 . S
H810 C807 0.999 . S
H811 C792 0.913 . S
H812 C830 0.951 . S
H813 C832 0.951 . S
H814 C834 0.950 . S
H815 C835 0.950 . S
H816 C837 0.950 . S
H817 C840 0.950 . S
H818 C841 0.950 . S
H819 C843 0.950 . S
H820 C844 0.950 . S
H821 C845 0.951 . S
H822 C847 0.951 . S
H823 C849 0.950 . S
H824 C850 0.950 . S
H825 C852 0.950 . S
H826 C855 0.950 . S
H827 C856 0.950 . S
H828 C858 0.950 . S
H829 C859 0.950 . S
C830 H812 0.951 . S
C830 C831 1.366 . S
C830 C832 1.388 . S
C831 C830 1.366 . S
C831 C835 1.385 . S
C832 H813 0.951 . S
C832 C830 1.388 . S
C832 C833 1.366 . S
C833 C832 1.366 . S
C833 C834 1.414 . S
C833 C836 1.499 . S
C834 H814 0.950 . S
C834 C833 1.414 . S
C834 C835 1.374 . S
C835 H815 0.950 . S
C835 C831 1.385 . S
C835 C834 1.374 . S
C836 C833 1.499 . S
C836 C837 1.373 . S
C836 C838 1.389 . S
C837 H816 0.950 . S
C837 C836 1.373 . S
C837 C853 1.377 . S
C838 C836 1.389 . S
C838 C839 1.524 . S
C838 C852 1.377 . S
C839 C838 1.524 . S
C839 C840 1.397 . S
C839 C844 1.363 . S
C840 H817 0.950 . S
C840 C839 1.397 . S
C840 C841 1.334 . S
C841 H818 0.950 . S
C841 C840 1.334 . S
C841 C842 1.287 . S
C842 C841 1.287 . S
C842 C843 1.524 . S
C842 H861 0.913 . S
C843 H819 0.950 . S
C843 C842 1.524 . S
C843 C844 1.415 . S
C844 H820 0.950 . S
C844 C839 1.363 . S
C844 C843 1.415 . S
C845 H821 0.951 . S
C845 C846 1.366 . S
C845 C847 1.388 . S
C846 C845 1.366 . S
C846 C850 1.385 . S
C847 H822 0.951 . S
C847 C845 1.388 . S
C847 C848 1.366 . S
C848 C847 1.366 . S
C848 C849 1.414 . S
C848 C851 1.499 . S
C849 H823 0.950 . S
C849 C848 1.414 . S
C849 C850 1.374 . S
C850 H824 0.950 . S
C850 C846 1.385 . S
C850 C849 1.374 . S
C851 C848 1.499 . S
C851 C852 1.373 . S
C851 C853 1.389 . S
C852 H825 0.950 . S
C852 C838 1.377 . S
C852 C851 1.373 . S
C853 C837 1.377 . S
C853 C851 1.389 . S
C853 C854 1.524 . S
C854 C853 1.524 . S
C854 C855 1.397 . S
C854 C859 1.363 . S
C855 H826 0.950 . S
C855 C854 1.397 . S
C855 C856 1.334 . S
C856 H827 0.950 . S
C856 C855 1.334 . S
C856 C857 1.287 . S
C857 C856 1.287 . S
C857 C858 1.524 . S
C857 H860 0.999 . S
C858 H828 0.950 . S
C858 C857 1.524 . S
C858 C859 1.415 . S
C859 H829 0.950 . S
C859 C854 1.363 . S
C859 C858 1.415 . S
H860 C857 0.999 . S
H861 C842 0.913 . S
H862 C880 0.951 . S
H863 C882 0.951 . S
H864 C884 0.950 . S
H865 C885 0.950 1_455 S
H866 C887 0.950 . S
H867 C890 0.950 . S
H868 C891 0.950 . S
H869 C893 0.950 . S
H870 C894 0.950 . S
H871 C895 0.951 . S
H872 C897 0.951 . S
H873 C899 0.950 . S
H874 C900 0.950 . S
H875 C902 0.950 . S
H876 C905 0.950 . S
H877 C906 0.950 . S
H878 C908 0.950 . S
H879 C909 0.950 . S
C880 H862 0.951 . S
C880 C881 1.366 . S
C880 C882 1.388 . S
C881 C880 1.366 . S
C881 C885 1.385 . S
C882 H863 0.951 . S
C882 C880 1.388 . S
C882 C883 1.366 . S
C883 C882 1.366 . S
C883 C884 1.414 . S
C883 C886 1.499 . S
C884 H864 0.950 . S
C884 C883 1.414 . S
C884 C885 1.374 . S
C885 H865 0.950 1_655 S
C885 C881 1.385 . S
C885 C884 1.374 . S
C886 C883 1.499 . S
C886 C887 1.373 . S
C886 C888 1.389 . S
C887 H866 0.950 . S
C887 C886 1.373 . S
C887 C903 1.377 . S
C888 C886 1.389 . S
C888 C889 1.524 . S
C888 C902 1.377 . S
C889 C888 1.524 . S
C889 C890 1.397 . S
C889 C894 1.363 . S
C890 H867 0.950 . S
C890 C889 1.397 . S
C890 C891 1.334 . S
C891 H868 0.950 . S
C891 C890 1.334 . S
C891 C892 1.287 . S
C892 C891 1.287 . S
C892 C893 1.524 . S
C892 H911 0.913 . S
C893 H869 0.950 . S
C893 C892 1.524 . S
C893 C894 1.415 . S
C894 H870 0.950 . S
C894 C889 1.363 . S
C894 C893 1.415 . S
C895 H871 0.951 . S
C895 C896 1.366 . S
C895 C897 1.388 . S
C896 C895 1.366 . S
C896 C900 1.385 . S
C897 H872 0.951 . S
C897 C895 1.388 . S
C897 C898 1.366 . S
C898 C897 1.366 . S
C898 C899 1.414 . S
C898 C901 1.499 . S
C899 H873 0.950 . S
C899 C898 1.414 . S
C899 C900 1.374 . S
C900 H874 0.950 . S
C900 C896 1.385 . S
C900 C899 1.374 . S
C901 C898 1.499 . S
C901 C902 1.373 . S
C901 C903 1.389 . S
C902 H875 0.950 . S
C902 C888 1.377 . S
C902 C901 1.373 . S
C903 C887 1.377 . S
C903 C901 1.389 . S
C903 C904 1.524 . S
C904 C903 1.524 . S
C904 C905 1.397 . S
C904 C909 1.363 . S
C905 H876 0.950 . S
C905 C904 1.397 . S
C905 C906 1.334 . S
C906 H877 0.950 . S
C906 C905 1.334 . S
C906 C907 1.287 . S
C907 C906 1.287 . S
C907 C908 1.524 . S
C907 H910 0.999 . S
C908 H878 0.950 . S
C908 C907 1.524 . S
C908 C909 1.415 . S
C909 H879 0.950 . S
C909 C904 1.363 . S
C909 C908 1.415 . S
H910 C907 0.999 . S
H911 C892 0.913 . S
C131 C7 1.564 . S
C146 C63 1.563 . S
C181 C21 1.563 . S
C196 C77 1.564 . S
C231 C91 1.563 . S
C246 C35 1.563 . S
C281 C105 1.563 . S
C296 C49 1.564 . S
C331 C8 1.179 . S
C346 C36 1.179 . S
C381 C22 1.179 . S
C396 C50 1.179 . S
C431 C92 1.178 . S
C446 C64 1.179 . S
C481 C78 1.178 . S
C496 C106 1.178 . S
C531 C79 1.482 . S
C546 C9 1.481 . S
C581 C23 1.459 1_655 S
C596 C93 1.481 . S
C631 C107 1.461 1_655 S
C646 C37 1.459 1_565 S
C681 C51 1.482 . S
C696 C65 1.461 1_565 S
C731 C87 1.025 . S
C746 C45 1.025 . S
C781 C3 1.024 . S
C796 C101 1.025 . S
C831 C17 1.025 . S
C846 C59 1.024 . S
C881 C73 1.025 . S
C896 C31 1.025 . S
