# Generated by pormake.
# Topology snk, (6)-cn, num edge types: 1
# Building blocks:
#     Node 0, Type 0, BuildingBlock: CUWYAW_clean_sbu_0, # of connection points: 6
#     Node 1, Type 0, BuildingBlock: CUWYAW_clean_sbu_0, # of connection points: 6
#     Node 2, Type 0, BuildingBlock: CUWYAW_clean_sbu_0, # of connection points: 6
#     Node 3, Type 0, BuildingBlock: CUWYAW_clean_sbu_0, # of connection points: 6
#     Node 4, Type 0, BuildingBlock: CUWYAW_clean_sbu_0, # of connection points: 6
#     Node 5, Type 0, BuildingBlock: CUWYAW_clean_sbu_0, # of connection points: 6
#     Node 6, Type 0, BuildingBlock: CUWYAW_clean_sbu_0, # of connection points: 6
#     Node 7, Type 0, BuildingBlock: CUWYAW_clean_sbu_0, # of connection points: 6
#     Edge 8, Type (0, 0), BuildingBlock: XUDNAN_clean_linker_2, # of connection points: 2
#     Edge 9, Type (0, 0), BuildingBlock: XUDNAN_clean_linker_2, # of connection points: 2
#     Edge 10, Type (0, 0), BuildingBlock: XUDNAN_clean_linker_2, # of connection points: 2
#     Edge 11, Type (0, 0), BuildingBlock: XUDNAN_clean_linker_2, # of connection points: 2
#     Edge 12, Type (0, 0), BuildingBlock: XUDNAN_clean_linker_2, # of connection points: 2
#     Edge 13, Type (0, 0), BuildingBlock: XUDNAN_clean_linker_2, # of connection points: 2
#     Edge 14, Type (0, 0), BuildingBlock: XUDNAN_clean_linker_2, # of connection points: 2
#     Edge 15, Type (0, 0), BuildingBlock: XUDNAN_clean_linker_2, # of connection points: 2
#     Edge 16, Type (0, 0), BuildingBlock: XUDNAN_clean_linker_2, # of connection points: 2
#     Edge 17, Type (0, 0), BuildingBlock: XUDNAN_clean_linker_2, # of connection points: 2
#     Edge 18, Type (0, 0), BuildingBlock: XUDNAN_clean_linker_2, # of connection points: 2
#     Edge 19, Type (0, 0), BuildingBlock: XUDNAN_clean_linker_2, # of connection points: 2
#     Edge 20, Type (0, 0), BuildingBlock: XUDNAN_clean_linker_2, # of connection points: 2
#     Edge 21, Type (0, 0), BuildingBlock: XUDNAN_clean_linker_2, # of connection points: 2
#     Edge 22, Type (0, 0), BuildingBlock: XUDNAN_clean_linker_2, # of connection points: 2
#     Edge 23, Type (0, 0), BuildingBlock: XUDNAN_clean_linker_2, # of connection points: 2
#     Edge 24, Type (0, 0), BuildingBlock: XUDNAN_clean_linker_2, # of connection points: 2
#     Edge 25, Type (0, 0), BuildingBlock: XUDNAN_clean_linker_2, # of connection points: 2
#     Edge 26, Type (0, 0), BuildingBlock: XUDNAN_clean_linker_2, # of connection points: 2
#     Edge 27, Type (0, 0), BuildingBlock: XUDNAN_clean_linker_2, # of connection points: 2
#     Edge 28, Type (0, 0), BuildingBlock: XUDNAN_clean_linker_2, # of connection points: 2
#     Edge 29, Type (0, 0), BuildingBlock: XUDNAN_clean_linker_2, # of connection points: 2
#     Edge 30, Type (0, 0), BuildingBlock: XUDNAN_clean_linker_2, # of connection points: 2
#     Edge 31, Type (0, 0), BuildingBlock: XUDNAN_clean_linker_2, # of connection points: 2
# Relax obj value: 0.081
# Max RMSD: 0.155
# Mean RMSD: 0.126
data_MOF--net-snk--node1-CUWYAW_clean_sbu_0--edge1-XUDNAN_clean_linker_2
_symmetry_space_group_name_H-M    P1
_symmetry_Int_Tables_number       1
_symmetry_cell_setting            triclinic
loop_
_symmetry_equiv_pos_as_xyz
'x, y, z'
_cell_length_a     37.627331
_cell_length_b     37.639015
_cell_length_c     25.507069
_cell_angle_alpha  95.741797
_cell_angle_beta   95.820141
_cell_angle_gamma 90.762995
loop_
_atom_site_label
_atom_site_type_symbol
_atom_site_fract_x
_atom_site_fract_y
_atom_site_fract_z
_atom_type_partial_charge
C0 C 0.03759 0.05467 0.68309 0.0
Eu1 Eu 0.02054 0.03276 0.58277 0.0
C2 C 0.02907 0.04922 0.73757 0.0
C3 C 1.00611 0.07269 0.76329 0.0
C4 C 1.00117 0.07086 0.81661 0.0
C5 C 0.01926 0.04568 0.84604 0.0
C6 C 0.04129 0.02131 0.8199 0.0
C7 C 0.04629 0.02317 0.76637 0.0
C8 C 0.96751 0.05909 0.51893 0.0
C9 C 0.96925 0.96036 0.57168 0.0
C10 C 0.98622 0.96945 0.37304 0.0
Eu11 Eu 1.00257 0.98956 0.47387 0.0
C12 C 0.99024 0.98289 0.32102 0.0
C13 C 0.01036 0.96356 0.28487 0.0
C14 C 0.01416 0.97528 0.23523 0.0
C15 C 0.99773 1.00662 0.22022 0.0
C16 C 0.97744 0.02589 0.25652 0.0
C17 C 0.97379 0.01424 0.30627 0.0
C18 C 0.05475 0.96231 0.53764 0.0
C19 C 0.05555 0.06077 0.48682 0.0
O20 O 0.05452 0.02966 0.65698 0.0
O21 O 0.01347 0.0696 0.6524 0.0
O22 O 0.99046 0.07887 0.55082 0.0
O23 O 0.97218 0.02643 0.5242 0.0
O24 O 0.99041 0.98429 0.60151 0.0
O25 O 0.96525 0.9592 0.51926 0.0
O26 O 0.96412 0.98581 0.40331 0.0
O27 O 0.01548 0.96031 0.40009 0.0
O28 O 0.03177 0.94306 0.50495 0.0
O29 O 0.05083 0.99523 0.53284 0.0
O30 O 0.03252 0.03925 0.4556 0.0
O31 O 0.05987 0.05977 0.5387 0.0
H32 H 0.99261 0.09325 0.74259 0.0
H33 H 0.98352 0.08967 0.83507 0.0
H34 H 0.05586 1.00175 0.84135 0.0
H35 H 0.06448 1.00488 0.74808 0.0
H36 H 0.02327 0.93926 0.29507 0.0
H37 H 0.0304 0.95995 0.2089 0.0
H38 H 0.96388 0.04982 0.24628 0.0
H39 H 0.95792 0.02975 0.33298 0.0
C40 C 0.2337 0.79761 0.93546 0.0
Eu41 Eu 0.23818 0.76283 0.8424 0.0
C42 C 0.23542 0.79218 0.99219 0.0
C43 C 0.2249 0.75968 1.00942 0.0
C44 C 0.22459 0.75635 0.06373 0.0
C45 C 0.23464 0.78551 0.10163 0.0
C46 C 0.24628 0.81753 0.08398 0.0
C47 C 0.24666 0.82078 0.02992 0.0
C48 C 0.19241 0.71016 0.79611 0.0
C49 C 0.28236 0.69174 0.82709 0.0
C50 C 0.25058 0.70074 0.63224 0.0
Eu51 Eu 0.24967 0.73333 0.72731 0.0
C52 C 0.24695 0.71267 0.57858 0.0
C53 C 0.25302 0.74865 0.57149 0.0
C54 C 0.24931 0.76006 0.52073 0.0
C55 C 0.23909 0.73582 0.47579 0.0
C56 C 0.23309 0.6997 0.48315 0.0
C57 C 0.23695 0.68828 0.5341 0.0
C58 C 0.29578 0.78626 0.77164 0.0
C59 C 0.20766 0.80571 0.74277 0.0
O60 O 0.26342 0.79451 0.91322 0.0
O61 O 0.20607 0.78376 0.90452 0.0
O62 O 0.20304 0.71362 0.84638 0.0
O63 O 0.20389 0.7358 0.77431 0.0
O64 O 0.27777 0.7205 0.85968 0.0
O65 O 0.26911 0.6886 0.77655 0.0
O66 O 0.22189 0.70275 0.65737 0.0
O67 O 0.27944 0.71194 0.66279 0.0
O68 O 0.28444 0.78214 0.7216 0.0
O69 O 0.28418 0.7612 0.79489 0.0
O70 O 0.2112 0.77663 0.71045 0.0
O71 O 0.22065 0.80837 0.79335 0.0
H72 H 0.21629 0.73715 0.98092 0.0
H73 H 0.21538 0.73137 0.07593 0.0
H74 H 0.25485 0.84029 0.11204 0.0
H75 H 0.25518 0.84597 0.01749 0.0
H76 H 0.26067 0.76799 0.60529 0.0
H77 H 0.25475 0.78793 0.51675 0.0
H78 H 0.22475 0.68036 0.44969 0.0
H79 H 0.23191 0.66042 0.53879 0.0
C80 C 0.47929 0.03778 0.87442 0.0
Eu81 Eu 0.50108 0.01745 0.96696 0.0
C82 C 0.48143 0.02552 0.81766 0.0
C83 C 0.5054 0.04256 0.78885 0.0
C84 C 0.50771 0.03144 0.73531 0.0
C85 C 0.486 1.00307 0.70912 0.0
C86 C 0.46166 0.98634 0.73778 0.0
C87 C 0.45929 0.99752 0.79131 0.0
C88 C 0.54606 0.05433 0.04396 0.0
C89 C 0.56532 0.96429 0.97846 0.0
C90 C 0.53746 0.96434 0.16427 0.0
Eu91 Eu 0.51385 0.98374 0.07189 0.0
C92 C 0.52789 0.96672 0.21956 0.0
C93 C 0.50151 0.94388 0.23414 0.0
C94 C 0.49475 0.94422 0.2871 0.0
C95 C 0.51425 0.96729 0.32691 0.0
C96 C 0.54003 0.99074 0.31219 0.0
C97 C 0.54688 0.99034 0.25916 0.0
C98 C 0.46727 0.94758 0.9969 0.0
C99 C 0.44754 0.03523 0.05963 0.0
O100 O 0.45939 0.01888 0.90115 0.0
O101 O 0.50912 0.04929 0.90215 0.0
O102 O 0.55088 0.05239 0.99419 0.0
O103 O 0.51748 0.03856 0.04993 0.0
O104 O 0.53973 0.97492 0.94458 0.0
O105 O 0.56372 0.96991 0.03027 0.0
O106 O 0.54801 0.99383 0.14663 0.0
O107 O 0.51724 0.9439 0.1283 0.0
O108 O 0.46379 0.94925 0.04724 0.0
O109 O 0.4959 0.96281 0.98908 0.0
O110 O 0.47094 0.0216 0.09385 0.0
O111 O 0.45159 0.03366 1.00837 0.0
H112 H 0.52253 0.0645 0.8078 0.0
H113 H 0.52697 0.04474 0.71468 0.0
H114 H 0.44407 0.96482 0.71868 0.0
H115 H 0.44001 0.98425 0.81188 0.0
H116 H 0.48641 0.92524 0.20481 0.0
H117 H 0.47435 0.92616 0.29692 0.0
H118 H 0.55579 0.00859 0.34188 0.0
H119 H 0.56763 0.008 0.24932 0.0
C120 C 0.22033 0.22318 0.10412 0.0
Eu121 Eu 0.23635 0.24343 0.20495 0.0
C122 C 0.22424 0.23571 0.05146 0.0
C123 C 0.19918 0.25851 0.0285 0.0
C124 C 0.20199 0.2686 0.97766 0.0
C125 C 0.22982 0.25603 0.94829 0.0
C126 C 0.25494 0.23333 0.9714 0.0
C127 C 0.25212 0.22323 0.02221 0.0
C128 C 0.21127 0.3004 0.26174 0.0
C129 C 0.30944 0.2951 0.22272 0.0
C130 C 0.29699 0.27437 0.41643 0.0
Eu131 Eu 0.27609 0.26014 0.31552 0.0
C132 C 0.28425 0.27501 0.46953 0.0
C133 C 0.30471 0.2585 0.50892 0.0
C134 C 0.29469 0.25997 0.56039 0.0
C135 C 0.26396 0.27816 0.57384 0.0
C136 C 0.24312 0.29429 0.53404 0.0
C137 C 0.25311 0.29267 0.48234 0.0
C138 C 0.3011 0.2045 0.25518 0.0
C139 C 0.20094 0.21594 0.30117 0.0
O140 O 0.24946 0.21411 0.13158 0.0
O141 O 0.19829 0.24005 0.13393 0.0
O142 O 0.19139 0.27915 0.22723 0.0
O143 O 0.2438 0.29257 0.26151 0.0
O144 O 0.28533 0.27619 0.18925 0.0
O145 O 0.30942 0.29599 0.2746 0.0
O146 O 0.28535 0.29856 0.3858 0.0
O147 O 0.29963 0.24298 0.39034 0.0
O148 O 0.32128 0.22731 0.2866 0.0
O149 O 0.26855 0.21105 0.25845 0.0
O150 O 0.22155 0.24072 0.32995 0.0
O151 O 0.20548 0.20666 0.25083 0.0
H152 H 0.17705 0.26823 0.04947 0.0
H153 H 0.18182 0.28565 0.96091 0.0
H154 H 0.27696 0.22345 0.95032 0.0
H155 H 0.27168 0.20532 0.03842 0.0
H156 H 0.32891 0.24488 0.50005 0.0
H157 H 0.31164 0.24768 0.59004 0.0
H158 H 0.21907 0.30816 0.54286 0.0
H159 H 0.2367 0.30549 0.45265 0.0
C160 C 0.7629 0.30573 0.41285 0.0
Eu161 Eu 0.75599 0.2737 0.31663 0.0
C162 C 0.76659 0.29948 0.46936 0.0
C163 C 0.74917 0.27065 0.48786 0.0
C164 C 0.74991 0.26794 0.54245 0.0
C165 C 0.76792 0.29412 0.57937 0.0
C166 C 0.78655 0.32201 0.56035 0.0
C167 C 0.78586 0.32464 0.50599 0.0
C168 C 0.70576 0.22411 0.27423 0.0
C169 C 0.80355 0.20174 0.3053 0.0
C170 C 0.76521 0.21109 0.10792 0.0
Eu171 Eu 0.76895 0.23851 0.20668 0.0
C172 C 0.7648 0.22418 0.05526 0.0
C173 C 0.78003 0.25757 0.04929 0.0
C174 C 0.77938 0.26968 0.99908 0.0
C175 C 0.76323 0.24877 0.95376 0.0
C176 C 0.74792 0.21533 0.96012 0.0
C177 C 0.74871 0.20319 1.01039 0.0
C178 C 0.81707 0.29004 0.2512 0.0
C179 C 0.71902 0.30879 0.21737 0.0
O180 O 0.79009 0.29828 0.38576 0.0
O181 O 0.73207 0.29734 0.38558 0.0
O182 O 0.69929 0.25156 0.30643 0.0
O183 O 0.73874 0.22192 0.27027 0.0
O184 O 0.79815 0.23219 0.33391 0.0
O185 O 0.78873 0.19492 0.25597 0.0
O186 O 0.73715 0.21811 0.13313 0.0
O187 O 0.79511 0.21578 0.13903 0.0
O188 O 0.82622 0.26155 0.22351 0.0
O189 O 0.78392 0.29052 0.25151 0.0
O190 O 0.72528 0.27853 0.18898 0.0
O191 O 0.73388 0.31605 0.26658 0.0
H192 H 0.73415 0.25086 0.46025 0.0
H193 H 0.7352 0.2462 0.55575 0.0
H194 H 0.80125 0.34223 0.58761 0.0
H195 H 0.79959 0.347 0.49257 0.0
H196 H 0.79248 0.27428 0.08346 0.0
H197 H 0.79189 0.29532 0.99578 0.0
H198 H 0.73479 0.19873 0.9264 0.0
H199 H 0.73658 0.17744 1.01427 0.0
C200 C 0.72539 0.7351 0.61518 0.0
Eu201 Eu 0.74419 0.74869 0.71656 0.0
C202 C 0.73332 0.74737 0.56421 0.0
C203 C 0.72118 0.78021 0.54839 0.0
C204 C 0.72712 0.79019 0.49857 0.0
C205 C 0.74527 0.76755 0.4635 0.0
C206 C 0.75796 0.73504 0.47989 0.0
C207 C 0.7519 0.72501 0.52954 0.0
C208 C 0.71563 0.79752 0.78446 0.0
C209 C 0.81547 0.80061 0.73949 0.0
C210 C 0.805 0.76919 0.92837 0.0
Eu211 Eu 0.78344 0.75787 0.82757 0.0
C212 C 0.79212 0.77198 0.98143 0.0
C213 C 0.80375 0.74734 0.01691 0.0
C214 C 0.79528 0.75151 0.06919 0.0
C215 C 0.77519 0.78061 0.08727 0.0
C216 C 0.7627 0.80477 0.05135 0.0
C217 C 0.77103 0.8005 0.99891 0.0
C218 C 0.81151 0.70908 0.75911 0.0
C219 C 0.71149 0.70773 0.80381 0.0
O220 O 0.7508 0.71845 0.64095 0.0
O221 O 0.70798 0.75652 0.64659 0.0
O222 O 0.69689 0.77713 0.74746 0.0
O223 O 0.74863 0.79305 0.78191 0.0
O224 O 0.79195 0.78303 0.70396 0.0
O225 O 0.81571 0.79772 0.79077 0.0
O226 O 0.79693 0.7947 0.89827 0.0
O227 O 0.80391 0.73755 0.90175 0.0
O228 O 0.83056 0.72982 0.79517 0.0
O229 O 0.77869 0.71356 0.76278 0.0
O230 O 0.731 0.72991 0.83933 0.0
O231 O 0.71605 0.706 0.75297 0.0
H232 H 0.70658 0.79799 0.57404 0.0
H233 H 0.71662 0.81523 0.48703 0.0
H234 H 0.77255 0.71722 0.45428 0.0
H235 H 0.76145 0.69949 0.54061 0.0
H236 H 0.82036 0.72537 1.00461 0.0
H237 H 0.80568 0.73268 0.096 0.0
H238 H 0.74681 0.82723 0.06397 0.0
H239 H 0.76166 0.82 0.97256 0.0
C240 C 0.53853 0.53877 0.16102 0.0
Eu241 Eu 0.51938 0.51959 0.06021 0.0
C242 C 0.53512 0.52672 0.21412 0.0
C243 C 0.53047 0.55217 0.25691 0.0
C244 C 0.52842 0.5419 0.30796 0.0
C245 C 0.53102 0.50579 0.31765 0.0
C246 C 0.53501 0.48023 0.2743 0.0
C247 C 0.53707 0.49056 0.22322 0.0
C248 C 0.4627 0.54577 1.00362 0.0
C249 C 0.46758 0.44784 0.05096 0.0
C250 C 0.47325 0.46088 0.85086 0.0
Eu251 Eu 0.4956 0.47746 0.95123 0.0
C252 C 0.4842 0.46406 0.79681 0.0
C253 C 0.49017 0.43298 0.76389 0.0
C254 C 0.49884 0.43491 0.71205 0.0
C255 C 0.50168 0.46803 0.69129 0.0
C256 C 0.49549 0.49923 0.72417 0.0
C257 C 0.48689 0.49729 0.77626 0.0
C258 C 0.55274 0.45102 1.00664 0.0
C259 C 0.55049 0.54825 0.96081 0.0
O260 O 0.55858 0.52029 0.12976 0.0
O261 O 0.50946 0.54944 0.13529 0.0
O262 O 0.48707 0.56559 0.03282 0.0
O263 O 0.46821 0.51306 1.00743 0.0
O264 O 0.49363 0.46798 0.07809 0.0
O265 O 0.45825 0.45065 1.00011 0.0
O266 O 0.46447 0.48998 0.87864 0.0
O267 O 0.49114 0.43917 0.88015 0.0
O268 O 0.52936 0.43129 0.97531 0.0
O269 O 0.54655 0.48369 1.00387 0.0
O270 O 0.52779 0.52501 0.93209 0.0
O271 O 0.55562 0.54944 1.01314 0.0
H272 H 0.52893 0.58024 0.25099 0.0
H273 H 0.52578 0.56246 0.3401 0.0
H274 H 0.53653 0.45211 0.27977 0.0
H275 H 0.54047 0.4703 0.19097 0.0
H276 H 0.48776 0.40696 0.77811 0.0
H277 H 0.50276 0.41022 0.68788 0.0
H278 H 0.4977 0.52523 0.7099 0.0
H279 H 0.48221 0.52184 0.80027 0.0
C280 C 0.97648 0.53716 0.35363 0.0
Eu281 Eu 0.99984 0.52649 0.4505 0.0
C282 C 0.98895 0.53863 0.30059 0.0
C283 C 0.99029 0.57159 0.27939 0.0
C284 C 1.00001 0.57356 0.2283 0.0
C285 C 0.00834 0.54254 0.19692 0.0
C286 C 1.00714 0.5095 0.21817 0.0
C287 C 0.99758 0.50755 0.2695 0.0
C288 C 0.04295 0.57027 0.52056 0.0
C289 C 0.06958 0.4746 0.45659 0.0
C290 C 0.0483 0.48349 0.65207 0.0
Eu291 Eu 0.02622 0.49539 0.55531 0.0
C292 C 0.04374 0.49584 0.70758 0.0
C293 C 0.04368 0.47054 0.74429 0.0
C294 C 0.0409 0.48123 0.7977 0.0
C295 C 0.03812 0.51756 0.81564 0.0
C296 C 0.03783 0.54294 0.77856 0.0
C297 C 0.04057 0.53218 0.72493 0.0
C298 C 0.98025 0.45395 0.48513 0.0
C299 C 0.95802 0.54753 0.55 0.0
O300 O 0.97503 0.50599 0.37216 0.0
O301 O 0.98766 0.56289 0.3902 0.0
O302 O 0.0173 0.58143 0.48889 0.0
O303 O 0.04648 0.53712 0.51059 0.0
O304 O 0.04355 0.48848 0.4266 0.0
O305 O 0.07123 0.47749 0.50876 0.0
O306 O 0.06472 0.50529 0.62508 0.0
O307 O 0.02117 0.46627 0.62413 0.0
O308 O 1.00684 0.44087 0.51303 0.0
O309 O 0.9788 0.48692 0.49722 0.0
O310 O 0.98682 0.53809 0.57928 0.0
O311 O 0.95361 0.53926 0.49809 0.0
H312 H 0.98328 0.59591 0.3021 0.0
H313 H 1.00014 0.59935 0.21289 0.0
H314 H 0.01371 0.48515 0.19518 0.0
H315 H 0.99664 0.48166 0.2845 0.0
H316 H 0.04629 0.44242 0.73171 0.0
H317 H 0.04179 0.46102 0.82516 0.0
H318 H 0.03536 0.5711 0.79094 0.0
H319 H 0.04046 0.55222 0.69722 0.0
H320 H 0.08076 0.05779 0.38835 0.0
H321 H 0.0736 0.12727 0.53314 0.0
H322 H 0.10404 0.17569 0.49561 0.0
H323 H 0.16928 0.08667 0.3702 0.0
H324 H 0.16197 0.08389 0.29895 0.0
H325 H 0.13646 0.05543 0.33463 0.0
H326 H 0.07778 0.07907 0.29005 0.0
H327 H 0.10314 0.10783 0.25447 0.0
H328 H 0.07031 0.12644 0.29546 0.0
H329 H 0.13512 0.21591 0.44508 0.0
H330 H 0.17331 0.24471 0.38892 0.0
H331 H 0.16584 0.14939 0.27671 0.0
C332 C 0.08545 0.08334 0.41181 0.0
C333 C 0.07475 0.08892 0.46365 0.0
C334 C 0.08175 0.12241 0.49357 0.0
C335 C 0.09872 0.15016 0.47238 0.0
C336 C 0.10896 0.14392 0.42138 0.0
C337 C 0.10322 0.11128 0.3916 0.0
C338 C 0.11988 0.11116 0.33959 0.0
C339 C 0.14861 0.08259 0.33564 0.0
C340 C 0.09106 0.10581 0.29208 0.0
C341 C 0.13635 0.14869 0.34542 0.0
C342 C 0.12883 0.16711 0.39255 0.0
C343 C 0.14132 0.2018 0.40815 0.0
C344 C 0.16314 0.21788 0.37582 0.0
C345 C 0.17296 0.19926 0.32847 0.0
C346 C 0.1586 0.16441 0.31236 0.0
H347 H 0.06617 0.89194 0.54353 0.0
H348 H 0.10513 0.99686 0.6127 0.0
H349 H 0.14751 0.96864 0.67632 0.0
H350 H 0.07181 0.84794 0.66101 0.0
H351 H 0.087 0.8067 0.6295 0.0
H352 H 0.05927 0.8355 0.59143 0.0
H353 H 0.10704 0.83778 0.52524 0.0
H354 H 0.13483 0.80882 0.56291 0.0
H355 H 0.15229 0.85147 0.54969 0.0
H356 H 0.18431 0.92725 0.73477 0.0
H357 H 0.21591 0.87761 0.77536 0.0
H358 H 0.15501 0.80122 0.66115 0.0
C359 C 0.08358 0.9091 0.57205 0.0
C360 C 0.08179 0.94662 0.57417 0.0
C361 C 0.10544 0.96806 0.61145 0.0
C362 C 0.12967 0.95223 0.64748 0.0
C363 C 0.13033 0.91498 0.64476 0.0
C364 C 0.10822 0.8938 0.60726 0.0
C365 C 0.11484 0.85454 0.61053 0.0
C366 C 0.08124 0.83504 0.62393 0.0
C367 C 0.12804 0.83715 0.55904 0.0
C368 C 0.14404 0.85669 0.65602 0.0
C369 C 0.15246 0.89166 0.67586 0.0
C370 C 0.17809 0.89983 0.71914 0.0
C371 C 0.19577 0.87153 0.74209 0.0
C372 C 0.18808 0.83568 0.72108 0.0
C373 C 0.16179 0.8284 0.67767 0.0
H374 H 0.32125 0.79867 0.87608 0.0
H375 H 0.33198 0.83398 0.72173 0.0
H376 H 0.37815 0.87859 0.76249 0.0
H377 H 0.32681 0.88797 0.94543 0.0
H378 H 0.35029 0.87392 1.00472 0.0
H379 H 0.31976 0.8434 0.96307 0.0
H380 H 0.36983 0.79733 0.95472 0.0
H381 H 0.40067 0.82755 0.9964 0.0
H382 H 0.41131 0.8103 0.93149 0.0
H383 H 0.42595 0.91609 0.8197 0.0
H384 H 0.4662 0.94989 0.89049 0.0
H385 H 0.41699 0.89666 1.00882 0.0
C386 C 0.33267 0.81629 0.85107 0.0
C387 C 0.32278 0.81324 0.79598 0.0
C388 C 0.33918 0.83602 0.76415 0.0
C389 C 0.3654 0.86136 0.7869 0.0
C390 C 0.37422 0.86397 0.84158 0.0
C391 C 0.35785 0.84252 0.87337 0.0
C392 C 0.37088 0.85179 0.93131 0.0
C393 C 0.3401 0.86507 0.96298 0.0
C394 C 0.38927 0.81984 0.95484 0.0
C395 C 0.39746 0.88163 0.92712 0.0
C396 C 0.39948 0.88775 0.87493 0.0
C397 C 0.42395 0.91225 0.8608 0.0
C398 C 0.44654 0.93142 0.90121 0.0
C399 C 0.44375 0.92672 0.95499 0.0
C400 C 0.41899 0.9014 0.96803 0.0
H401 H 0.45462 0.0847 0.14455 0.0
H402 H 0.37651 0.03505 0.02174 0.0
H403 H 0.3289 0.07124 0.06043 0.0
H404 H 0.40017 0.09329 0.25173 0.0
H405 H 0.41847 0.13669 0.27803 0.0
H406 H 0.44534 0.10556 0.24203 0.0
H407 H 0.45633 0.1525 0.17733 0.0
H408 H 0.42968 0.18386 0.21327 0.0
H409 H 0.41866 0.17256 0.14311 0.0
H410 H 0.28958 0.11136 0.11754 0.0
H411 H 0.26393 0.15723 0.17875 0.0
H412 H 0.37013 0.18454 0.25592 0.0
C413 C 0.42742 0.0813 0.12603 0.0
C414 C 0.4189 0.05685 0.0808 0.0
C415 C 0.38331 0.05363 0.05668 0.0
C416 C 0.35621 0.07393 0.0785 0.0
C417 C 0.36552 0.0978 0.12354 0.0
C418 C 0.40048 0.102 0.14624 0.0
C419 C 0.40426 0.13094 0.19213 0.0
C420 C 0.41785 0.11569 0.24404 0.0
C421 C 0.42867 0.16179 0.18076 0.0
C422 C 0.36588 0.1422 0.19239 0.0
C423 C 0.34371 0.1225 0.15319 0.0
C424 C 0.30685 0.12738 0.14763 0.0
C425 C 0.29252 0.15356 0.18236 0.0
C426 C 0.31517 0.17509 0.22094 0.0
C427 C 0.35219 0.16891 0.22619 0.0
H428 H 0.90667 0.91916 0.54083 0.0
H429 H 0.99233 0.94118 0.66822 0.0
H430 H 0.96296 0.90202 0.72239 0.0
H431 H 0.8359 0.91795 0.62341 0.0
H432 H 0.8108 0.88142 0.58503 0.0
H433 H 0.83924 0.90959 0.55326 0.0
H434 H 0.87285 0.85415 0.51757 0.0
H435 H 0.84428 0.82583 0.54897 0.0
H436 H 0.89212 0.82435 0.5632 0.0
H437 H 0.92365 0.86487 0.76633 0.0
H438 H 0.87708 0.82732 0.79589 0.0
H439 H 0.81613 0.82628 0.64159 0.0
C440 C 0.91939 0.91522 0.57976 0.0
C441 C 0.95169 0.93364 0.60027 0.0
C442 C 0.96738 0.92792 0.65166 0.0
C443 C 0.95099 0.90554 0.6829 0.0
C444 C 0.91886 0.88862 0.66242 0.0
C445 C 0.90323 0.89269 0.61197 0.0
C446 C 0.86795 0.87171 0.60096 0.0
C447 C 0.83663 0.89667 0.59003 0.0
C448 C 0.8694 0.84226 0.55495 0.0
C449 C 0.86629 0.8559 0.65334 0.0
C450 C 0.89603 0.86615 0.68803 0.0
C451 C 0.90033 0.85629 0.73944 0.0
C452 C 0.87359 0.8351 0.75598 0.0
C453 C 0.84295 0.82375 0.72119 0.0
C454 C 0.83937 0.8343 0.66906 0.0
H455 H 0.95458 0.12912 0.50736 0.0
H456 H 0.91668 0.02172 0.44923 0.0
H457 H 0.8721 0.0463 0.38515 0.0
H458 H 0.86733 0.16742 0.50257 0.0
H459 H 0.88248 0.20954 0.48385 0.0
H460 H 0.91259 0.18322 0.52265 0.0
H461 H 0.95767 0.18378 0.4523 0.0
H462 H 0.92762 0.21002 0.41325 0.0
H463 H 0.94326 0.16823 0.38421 0.0
H464 H 0.83276 0.0832 0.32557 0.0
H465 H 0.79783 0.12922 0.28164 0.0
H466 H 0.85812 0.21231 0.3849 0.0
C467 C 0.93695 0.11075 0.48105 0.0
C468 C 0.93967 0.07343 0.48216 0.0
C469 C 0.91574 0.05032 0.44783 0.0
C470 C 0.89021 0.06407 0.41159 0.0
C471 C 0.88851 0.10105 0.41107 0.0
C472 C 0.9109 0.12406 0.44552 0.0
C473 C 0.90255 0.16272 0.43886 0.0
C474 C 0.89051 0.18184 0.49002 0.0
C475 C 0.93469 0.18233 0.42109 0.0
C476 C 0.872 0.15791 0.39518 0.0
C477 C 0.86459 0.12217 0.37913 0.0
C478 C 0.83814 0.11124 0.33814 0.0
C479 C 0.81855 0.13753 0.31332 0.0
C480 C 0.82511 0.17423 0.33022 0.0
C481 C 0.85223 0.18441 0.37163 0.0
H482 H 0.7109 0.1742 0.18964 0.0
H483 H 0.63889 0.21489 0.30262 0.0
H484 H 0.59154 0.17278 0.2588 0.0
H485 H 0.645 0.16978 0.07833 0.0
H486 H 0.66179 0.13007 0.04462 0.0
H487 H 0.6918 0.15988 0.08829 0.0
H488 H 0.71198 0.1081 0.14283 0.0
H489 H 0.68239 0.07775 0.09912 0.0
H490 H 0.679 0.08184 0.16945 0.0
H491 H 0.55233 0.1268 0.20328 0.0
H492 H 0.521 0.08415 0.13362 0.0
H493 H 0.61566 0.07851 0.04941 0.0
C494 C 0.68518 0.17418 0.20504 0.0
C495 C 0.67841 0.1977 0.24937 0.0
C496 C 0.64452 0.19695 0.2687 0.0
C497 C 0.61755 0.17311 0.24419 0.0
C498 C 0.62478 0.15076 0.19984 0.0
C499 C 0.65756 0.1514 0.17989 0.0
C500 C 0.65728 0.1268 0.12899 0.0
C501 C 0.66437 0.1479 0.08231 0.0
C502 C 0.68426 0.09684 0.13551 0.0
C503 C 0.61916 0.11233 0.12345 0.0
C504 C 0.60121 0.12598 0.16542 0.0
C505 C 0.56599 0.11609 0.17003 0.0
C506 C 0.54846 0.09185 0.13034 0.0
C507 C 0.5659 0.07846 0.0861 0.0
C508 C 0.60171 0.08873 0.08266 0.0
H509 H 0.64679 0.8195 0.77794 0.0
H510 H 0.74948 0.83836 0.87073 0.0
H511 H 0.72234 0.88255 0.93238 0.0
H512 H 0.62142 0.91181 0.78852 0.0
H513 H 0.57478 0.90134 0.791 0.0
H514 H 0.60221 0.87019 0.75608 0.0
H515 H 0.58436 0.82069 0.81284 0.0
H516 H 0.55691 0.8517 0.84796 0.0
H517 H 0.59143 0.82846 0.88406 0.0
H518 H 0.68232 0.92292 0.9862 0.0
H519 H 0.63464 0.96008 0.02221 0.0
H520 H 0.56028 0.9185 0.88842 0.0
C521 C 0.66357 0.83288 0.81129 0.0
C522 C 0.70011 0.82501 0.82033 0.0
C523 C 0.72131 0.8435 0.86381 0.0
C524 C 0.70612 0.86873 0.89885 0.0
C525 C 0.66987 0.8757 0.88902 0.0
C526 C 0.64905 0.85868 0.84574 0.0
C527 C 0.61116 0.87188 0.84256 0.0
C528 C 0.60187 0.88988 0.79152 0.0
C529 C 0.58439 0.84137 0.84715 0.0
C530 C 0.61376 0.89881 0.89103 0.0
C531 C 0.64766 0.90037 0.91781 0.0
C532 C 0.65582 0.92223 0.96517 0.0
C533 C 0.62864 0.94313 0.98539 0.0
C534 C 0.59406 0.94246 0.95767 0.0
C535 C 0.58671 0.92005 0.90991 0.0
H536 H 0.60777 0.59548 0.99748 0.0
H537 H 0.53792 0.55692 0.85624 0.0
H538 H 0.57032 0.59463 0.80371 0.0
H539 H 0.61691 0.68763 0.96302 0.0
H540 H 0.66337 0.69239 0.9885 0.0
H541 H 0.63401 0.66326 0.01715 0.0
H542 H 0.67632 0.61068 0.99956 0.0
H543 H 0.70574 0.63964 0.9708 0.0
H544 H 0.68806 0.59898 0.93332 0.0
H545 H 0.61056 0.63331 0.76436 0.0
H546 H 0.65698 0.67316 0.74005 0.0
H547 H 0.7021 0.68955 0.90461 0.0
C548 C 0.59917 0.59526 0.95563 0.0
C549 C 0.57023 0.57292 0.93128 0.0
C550 C 0.56001 0.5734 0.87622 0.0
C551 C 0.57821 0.5949 0.84575 0.0
C552 C 0.60669 0.61615 0.87057 0.0
C553 C 0.61721 0.61682 0.92417 0.0
C554 C 0.64945 0.64192 0.93986 0.0
C555 C 0.64038 0.67316 0.97948 0.0
C556 C 0.68181 0.62158 0.9622 0.0
C557 C 0.6554 0.65465 0.88654 0.0
C558 C 0.63023 0.63932 0.84738 0.0
C559 C 0.63035 0.64572 0.79463 0.0
C560 C 0.65699 0.66835 0.78121 0.0
C561 C 0.68327 0.68457 0.82031 0.0
C562 C 0.68224 0.67778 0.87386 0.0
H563 H 0.66462 0.29788 0.13732 0.0
H564 H 0.72453 0.38124 0.24054 0.0
H565 H 0.68962 0.4271 0.19636 0.0
H566 H 0.65524 0.34285 0.01955 0.0
H567 H 0.61008 0.32679 0.99951 0.0
H568 H 0.64034 0.30066 0.0384 0.0
H569 H 0.59555 0.29987 0.10912 0.0
H570 H 0.56507 0.32584 0.0703 0.0
H571 H 0.57962 0.34151 0.13828 0.0
H572 H 0.64997 0.4639 0.13728 0.0
H573 H 0.60438 0.48845 0.07462 0.0
H574 H 0.56702 0.38095 1.01606 0.0
C575 C 0.67041 0.3258 0.15049 0.0
C576 C 0.69738 0.33609 0.19207 0.0
C577 C 0.70388 0.37283 0.2088 0.0
C578 C 0.68433 0.39904 0.1838 0.0
C579 C 0.65798 0.38803 0.14273 0.0
C580 C 0.65063 0.35226 0.12675 0.0
C581 C 0.61996 0.34744 0.08318 0.0
C582 C 0.63215 0.32831 0.03214 0.0
C583 C 0.58817 0.32749 0.10132 0.0
C584 C 0.61143 0.38607 0.07674 0.0
C585 C 0.63389 0.40911 0.111 0.0
C586 C 0.63183 0.44609 0.11095 0.0
C587 C 0.60574 0.45983 0.07553 0.0
C588 C 0.58161 0.43667 0.04163 0.0
C589 C 0.58484 0.39934 0.04201 0.0
H590 H 0.98019 0.38267 0.44481 0.0
H591 H 0.92138 0.48079 0.43577 0.0
H592 H 0.87673 0.44996 0.36955 0.0
H593 H 0.96215 0.35003 0.30355 0.0
H594 H 0.95682 0.30401 0.31575 0.0
H595 H 0.986 0.33386 0.36099 0.0
H596 H 0.9512 0.31865 0.43883 0.0
H597 H 0.92209 0.28866 0.39388 0.0
H598 H 0.90351 0.32428 0.4344 0.0
H599 H 0.83627 0.40937 0.3109 0.0
H600 H 0.80108 0.35948 0.26019 0.0
H601 H 0.88507 0.28635 0.30181 0.0
C602 C 0.95799 0.39754 0.4285 0.0
C603 C 0.95432 0.43416 0.4452 0.0
C604 C 0.92488 0.4528 0.42335 0.0
C605 C 0.89935 0.43557 0.38559 0.0
C606 C 0.90358 0.39961 0.36985 0.0
C607 C 0.93202 0.38061 0.39032 0.0
C608 C 0.92896 0.34171 0.36734 0.0
C609 C 0.96035 0.33183 0.33498 0.0
C610 C 0.92627 0.31687 0.41123 0.0
C611 C 0.89402 0.34194 0.33179 0.0
C612 C 0.88011 0.3758 0.33402 0.0
C613 C 0.84705 0.38282 0.30801 0.0
C614 C 0.82728 0.35436 0.27942 0.0
C615 C 0.84076 0.31943 0.27658 0.0
C616 C 0.87477 0.31311 0.30235 0.0
H617 H 0.8817 0.69258 0.75636 0.0
H618 H 0.77533 0.66221 0.68225 0.0
H619 H 0.80126 0.61765 0.61986 0.0
H620 H 0.92789 0.68285 0.64046 0.0
H621 H 0.96705 0.66399 0.67265 0.0
H622 H 0.94018 0.69411 0.71038 0.0
H623 H 0.93256 0.64642 0.77526 0.0
H624 H 0.95947 0.61621 0.73772 0.0
H625 H 0.91516 0.60255 0.74968 0.0
H626 H 0.8394 0.57886 0.56256 0.0
H627 H 0.8863 0.54458 0.51997 0.0
H628 H 0.96702 0.5962 0.63746 0.0
C629 C 0.86386 0.67654 0.72699 0.0
C630 C 0.82656 0.68137 0.72315 0.0
C631 C 0.80403 0.65954 0.68486 0.0
C632 C 0.81851 0.63404 0.64953 0.0
C633 C 0.85548 0.63022 0.65395 0.0
C634 C 0.87781 0.65047 0.69228 0.0
C635 C 0.91649 0.64038 0.68978 0.0
C636 C 0.93923 0.67223 0.67758 0.0
C637 C 0.93181 0.6255 0.74116 0.0
C638 C 0.9125 0.61151 0.64369 0.0
C639 C 0.87715 0.60632 0.62317 0.0
C640 C 0.86709 0.58235 0.57871 0.0
C641 C 0.89386 0.56312 0.55472 0.0
C642 C 0.93008 0.56755 0.57586 0.0
C643 C 0.93941 0.5919 0.62107 0.0
H644 H 0.30981 0.32043 0.12416 0.0
H645 H 0.37362 0.31646 0.27519 0.0
H646 H 0.42145 0.35146 0.24427 0.0
H647 H 0.38433 0.31565 0.04136 0.0
H648 H 0.36551 0.34703 0.99792 0.0
H649 H 0.33653 0.31947 0.0299 0.0
H650 H 0.30646 0.37594 0.06978 0.0
H651 H 0.33528 0.40367 0.03793 0.0
H652 H 0.33369 0.41082 0.10859 0.0
H653 H 0.46145 0.38758 0.20024 0.0
H654 H 0.49149 0.4264 0.14631 0.0
H655 H 0.40281 0.41038 0.02246 0.0
C656 C 0.33402 0.32668 0.1504 0.0
C657 C 0.33795 0.31565 0.20218 0.0
C658 C 0.36984 0.32473 0.23558 0.0
C659 C 0.39731 0.34445 0.21827 0.0
C660 C 0.39257 0.35517 0.16745 0.0
C661 C 0.36179 0.3469 0.1339 0.0
C662 C 0.36327 0.36365 0.08222 0.0
C663 C 0.36236 0.33472 0.03506 0.0
C664 C 0.33287 0.39009 0.07418 0.0
C665 C 0.39952 0.38289 0.09252 0.0
C666 C 0.41587 0.37711 0.14184 0.0
C667 C 0.44899 0.39232 0.16151 0.0
C668 C 0.46578 0.41454 0.13043 0.0
C669 C 0.4495 0.42178 0.08008 0.0
C670 C 0.41604 0.40525 0.06057 0.0
H671 H 0.44447 0.61542 1.00355 0.0
H672 H 0.41079 0.50873 0.93506 0.0
H673 H 0.3608 0.53412 0.88083 0.0
H674 H 0.35544 0.64798 1.01429 0.0
H675 H 0.36696 0.69234 0.99979 0.0
H676 H 0.40039 0.66554 0.03147 0.0
H677 H 0.441 0.67339 0.95696 0.0
H678 H 0.40767 0.70015 0.92506 0.0
H679 H 0.42383 0.66109 0.88889 0.0
H680 H 0.3161 0.57256 0.83055 0.0
H681 H 0.27763 0.6197 0.79551 0.0
H682 H 0.33837 0.6998 0.90372 0.0
C683 C 0.4266 0.59736 0.97713 0.0
C684 C 0.43185 0.56017 0.97261 0.0
C685 C 0.40759 0.53737 0.93827 0.0
C686 C 0.37909 0.55156 0.90751 0.0
C687 C 0.37489 0.58849 0.9125 0.0
C688 C 0.39773 0.61097 0.94713 0.0
C689 C 0.38696 0.64952 0.9467 0.0
C690 C 0.37683 0.66472 1.0013 0.0
C691 C 0.41663 0.67237 0.92829 0.0
C692 C 0.35463 0.64539 0.90607 0.0
C693 C 0.34822 0.6101 0.88622 0.0
C694 C 0.32064 0.6002 0.84634 0.0
C695 C 0.29902 0.62708 0.82657 0.0
C696 C 0.30479 0.66321 0.84745 0.0
C697 C 0.33291 0.67228 0.88773 0.0
H698 H 0.19507 0.64367 0.74482 0.0
H699 H 0.12316 0.72802 0.78762 0.0
H700 H 0.07395 0.69646 0.72872 0.0
H701 H 0.16789 0.63293 0.61435 0.0
H702 H 0.1706 0.58501 0.6037 0.0
H703 H 0.19809 0.60944 0.65746 0.0
H704 H 0.17244 0.57121 0.72463 0.0
H705 H 0.14526 0.54608 0.67082 0.0
H706 H 0.12472 0.56752 0.7261 0.0
H707 H 0.03682 0.66267 0.65432 0.0
H708 H 0.01211 0.62604 0.57286 0.0
H709 H 0.10695 0.56176 0.57865 0.0
C710 C 0.16845 0.6544 0.74345 0.0
C711 C 0.16223 0.68754 0.77141 0.0
C712 C 0.12781 0.70208 0.7673 0.0
C713 C 0.09985 0.68439 0.73396 0.0
C714 C 0.10693 0.65218 0.70541 0.0
C715 C 0.1402 0.6369 0.71045 0.0
C716 C 0.14167 0.6041 0.6711 0.0
C717 C 0.1713 0.60814 0.6345 0.0
C718 C 0.1463 0.57022 0.6999 0.0
C719 C 0.10486 0.60463 0.64114 0.0
C720 C 0.08511 0.6323 0.66212 0.0
C721 C 0.05165 0.6404 0.6383 0.0
C722 C 0.03802 0.61971 0.5918 0.0
C723 C 0.05771 0.59116 0.56988 0.0
C724 C 0.09127 0.5832 0.59526 0.0
H725 H 0.14286 0.32381 0.25657 0.0
H726 H 0.24838 0.3457 0.33969 0.0
H727 H 0.22392 0.39394 0.39781 0.0
H728 H 0.11722 0.41692 0.25855 0.0
H729 H 0.07122 0.4071 0.26679 0.0
H730 H 0.09712 0.37428 0.23212 0.0
H731 H 0.08252 0.3282 0.29636 0.0
H732 H 0.05658 0.36085 0.33116 0.0
H733 H 0.09268 0.33936 0.36672 0.0
H734 H 0.18669 0.43656 0.4509 0.0
H735 H 0.14057 0.47384 0.49041 0.0
H736 H 0.06065 0.42802 0.36692 0.0
C737 C 0.16086 0.3389 0.28683 0.0
C738 C 0.19742 0.33067 0.29442 0.0
C739 C 0.22019 0.35115 0.33402 0.0
C740 C 0.20655 0.3787 0.36695 0.0
C741 C 0.17024 0.38588 0.35883 0.0
C742 C 0.14782 0.36691 0.31921 0.0
C743 C 0.10993 0.38015 0.31831 0.0
C744 C 0.0982 0.39553 0.26582 0.0
C745 C 0.0839 0.35037 0.32878 0.0
C746 C 0.1144 0.40922 0.36411 0.0
C747 C 0.14932 0.4119 0.38728 0.0
C748 C 0.15942 0.43516 0.43253 0.0
C749 C 0.13311 0.45613 0.45472 0.0
C750 C 0.09737 0.45414 0.43105 0.0
C751 C 0.08803 0.43066 0.38491 0.0
H752 H 0.01344 0.98871 0.90615 0.0
H753 H 0.01967 0.10455 0.91836 0.0
H754 H 0.01516 0.10696 1.01433 0.0
H755 H 0.94985 0.98195 1.00122 0.0
H756 H 0.97011 0.94381 0.02853 0.0
H757 H 0.97417 0.95095 0.9606 0.0
H758 H 0.0431 0.94928 0.97841 0.0
H759 H 0.03925 0.94217 0.04644 0.0
H760 H 0.06594 0.97915 0.03116 0.0
H761 H 0.01069 0.09718 0.10937 0.0
H762 H 1.00515 0.07583 0.19647 0.0
H763 H 1.00025 0.96628 0.1235 0.0
C764 C 0.01406 0.01457 0.92906 0.0
C765 C 0.01664 0.04647 0.90431 0.0
C766 C 0.01707 0.07974 0.93592 0.0
C767 C 0.01478 0.08141 0.99067 0.0
C768 C 0.01208 0.04958 1.01368 0.0
C769 C 0.01164 0.01676 0.98397 0.0
C770 C 0.0081 0.98663 0.01869 0.0
C771 C 0.97349 0.96454 1.00121 0.0
C772 C 0.04106 0.96291 0.01867 0.0
C773 C 1.00651 0.00769 0.07241 0.0
C774 C 0.00903 0.04394 0.06858 0.0
C775 C 0.00844 0.06882 0.11277 0.0
C776 C 1.00498 0.05639 0.16215 0.0
C777 C 1.00189 0.01931 0.16727 0.0
C778 C 1.00284 0.99476 0.12144 0.0
H779 H 0.25665 0.70175 0.38067 0.0
H780 H 0.21008 0.79866 0.44827 0.0
H781 H 0.2038 0.82116 0.36051 0.0
H782 H 0.30617 0.74216 0.28921 0.0
H783 H 0.29776 0.70628 0.23687 0.0
H784 H 0.29839 0.69725 0.30497 0.0
H785 H 0.23479 0.66877 0.28526 0.0
H786 H 0.23399 0.67763 0.21702 0.0
H787 H 0.19911 0.69412 0.25581 0.0
H788 H 0.20357 0.83405 0.26633 0.0
H789 H 0.2082 0.83597 0.17098 0.0
H790 H 0.25365 0.73038 0.16249 0.0
C791 C 0.24474 0.72752 0.37698 0.0
C792 C 0.23419 0.74852 0.42186 0.0
C793 C 0.21909 0.7823 0.41503 0.0
C794 C 0.21514 0.79525 0.36515 0.0
C795 C 0.22612 0.77408 0.32206 0.0
C796 C 0.24042 0.74086 0.32727 0.0
C797 C 0.2502 0.72367 0.27433 0.0
C798 C 0.29053 0.71696 0.2765 0.0
C799 C 0.22821 0.68899 0.25709 0.0
C800 C 0.23944 0.75258 0.23876 0.0
C801 C 0.2256 0.78139 0.26725 0.0
C802 C 0.21433 0.81163 0.24359 0.0
C803 C 0.21731 0.81256 0.1894 0.0
C804 C 0.23148 0.78345 0.15912 0.0
C805 C 0.24245 0.75296 0.18434 0.0
H806 H 0.49466 0.044 0.62713 0.0
H807 H 0.4845 0.93408 0.66256 0.0
H808 H 0.48965 0.91328 0.56885 0.0
H809 H 0.44474 0.03257 0.49808 0.0
H810 H 0.47323 0.0626 0.46949 0.0
H811 H 0.46816 0.06899 0.53925 0.0
H812 H 0.5368 0.06656 0.56099 0.0
H813 H 0.54208 0.06017 0.4913 0.0
H814 H 0.56033 0.02848 0.53466 0.0
H815 H 0.49662 0.90425 0.47162 0.0
H816 H 0.50523 0.90756 0.37765 0.0
H817 H 0.51128 0.0233 0.40496 0.0
C818 C 0.49374 0.01553 0.61532 0.0
C819 C 0.48901 0.99069 0.65238 0.0
C820 C 0.48752 0.95368 0.63492 0.0
C821 C 0.49064 0.94158 0.58178 0.0
C822 C 0.49526 0.96676 0.54641 0.0
C823 C 0.49682 1.00296 0.56238 0.0
C824 C 0.5021 0.0244 0.51634 0.0
C825 C 0.47015 0.04856 0.50514 0.0
C826 C 0.53743 0.04618 0.52644 0.0
C827 C 0.50351 0.99456 0.47207 0.0
C828 C 0.49938 0.96155 0.49028 0.0
C829 C 0.49971 0.92997 0.45686 0.0
C830 C 0.5044 0.93215 0.40342 0.0
C831 C 0.50873 0.96568 0.38369 0.0
C832 C 0.5083 0.99725 0.41878 0.0
H833 H 0.24839 0.21384 0.86086 0.0
H834 H 0.21715 0.32144 0.91169 0.0
H835 H 0.22041 0.33819 0.82113 0.0
H836 H 0.31222 0.23917 0.77469 0.0
H837 H 0.30141 0.20157 0.72586 0.0
H838 H 0.29568 0.19786 0.79435 0.0
H839 H 0.22934 0.17874 0.76805 0.0
H840 H 0.23483 0.18253 0.69947 0.0
H841 H 0.20048 0.20706 0.73063 0.0
H842 H 0.22764 0.34341 0.72471 0.0
H843 H 0.24013 0.33718 0.63104 0.0
H844 H 0.26724 0.22639 0.64335 0.0
C845 C 0.24251 0.24103 0.85319 0.0
C846 C 0.23236 0.26626 0.89365 0.0
C847 C 0.22443 0.30142 0.88139 0.0
C848 C 0.22638 0.31126 0.83005 0.0
C849 C 0.23633 0.2857 0.79119 0.0
C850 C 0.24437 0.25133 0.80218 0.0
C851 C 0.25476 0.22904 0.75345 0.0
C852 C 0.29331 0.21617 0.76265 0.0
C853 C 0.22827 0.19748 0.73694 0.0
C854 C 0.2516 0.25632 0.71343 0.0
C855 C 0.24073 0.28877 0.73588 0.0
C856 C 0.23605 0.31807 0.7067 0.0
C857 C 0.24298 0.3142 0.65335 0.0
C858 C 0.25463 0.2813 0.62959 0.0
C859 C 0.25871 0.252 0.66029 0.0
H860 H 0.7713 0.2105 0.85739 0.0
H861 H 0.75205 0.31727 0.92877 0.0
H862 H 0.75137 0.33996 0.84138 0.0
H863 H 0.82865 0.23612 0.76336 0.0
H864 H 0.81095 0.20285 0.71116 0.0
H865 H 0.80994 0.19469 0.77938 0.0
H866 H 0.7415 0.18312 0.76313 0.0
H867 H 0.74231 0.19117 0.6948 0.0
H868 H 0.71341 0.21658 0.73581 0.0
H869 H 0.7534 0.35147 0.74684 0.0
H870 H 0.75685 0.35091 0.6508 0.0
H871 H 0.77353 0.2366 0.63924 0.0
C872 C 0.76657 0.23859 0.85466 0.0
C873 C 0.76201 0.2621 0.90038 0.0
C874 C 0.75633 0.29877 0.8948 0.0
C875 C 0.75563 0.31191 0.84516 0.0
C876 C 0.76043 0.28809 0.80117 0.0
C877 C 0.76563 0.25219 0.80528 0.0
C878 C 0.77011 0.23236 0.75158 0.0
C879 C 0.80712 0.21552 0.75138 0.0
C880 C 0.74004 0.20414 0.73538 0.0
C881 C 0.76678 0.2628 0.71673 0.0
C882 C 0.76125 0.2947 0.74628 0.0
C883 C 0.75776 0.32666 0.7233 0.0
C884 C 0.76001 0.32609 0.66871 0.0
C885 C 0.76572 0.29378 0.63737 0.0
C886 C 0.76894 0.26169 0.66194 0.0
H887 H 0.73973 0.72336 0.37046 0.0
H888 H 0.7618 0.83368 0.43419 0.0
H889 H 0.769 0.84964 0.34416 0.0
H890 H 0.80456 0.72021 0.2766 0.0
H891 H 0.77719 0.69174 0.22694 0.0
H892 H 0.77236 0.68949 0.29605 0.0
H893 H 0.70478 0.70177 0.2787 0.0
H894 H 0.70943 0.70424 0.20956 0.0
H895 H 0.6908 0.741 0.24773 0.0
H896 H 0.77472 0.85325 0.24708 0.0
H897 H 0.781 0.8438 0.15123 0.0
H898 H 0.75627 0.73089 0.15187 0.0
C899 C 0.74638 0.75085 0.36571 0.0
C900 C 0.75011 0.77728 0.40952 0.0
C901 C 0.75827 0.81304 0.40121 0.0
C902 C 0.76257 0.82234 0.35025 0.0
C903 C 0.75865 0.79558 0.30803 0.0
C904 C 0.7509 0.76055 0.31528 0.0
C905 C 0.7489 0.73667 0.2636 0.0
C906 C 0.77746 0.70783 0.26596 0.0
C907 C 0.71123 0.71994 0.24905 0.0
C908 C 0.75703 0.7637 0.22612 0.0
C909 C 0.76232 0.79758 0.25239 0.0
C910 C 0.77049 0.82686 0.22606 0.0
C911 C 0.77376 0.82127 0.17156 0.0
C912 C 0.76904 0.78663 0.14403 0.0
C913 C 0.76027 0.75763 0.17185 0.0
H914 H 0.47472 0.51172 0.61556 0.0
H915 H 0.55106 0.4281 0.64101 0.0
H916 H 0.56612 0.42847 0.54926 0.0
H917 H 0.4433 0.48015 0.48087 0.0
H918 H 0.43913 0.52407 0.45882 0.0
H919 H 0.43438 0.51774 0.52686 0.0
H920 H 0.4843 0.56542 0.55801 0.0
H921 H 0.48914 0.57198 0.49006 0.0
H922 H 0.52734 0.56056 0.53315 0.0
H923 H 0.57285 0.4373 0.45421 0.0
H924 H 0.5716 0.45477 0.3635 0.0
H925 H 0.4909 0.53271 0.39797 0.0
C926 C 0.49487 0.49372 0.60206 0.0
C927 C 0.51147 0.46966 0.63589 0.0
C928 C 0.53742 0.44635 0.61601 0.0
C929 C 0.54635 0.44649 0.56387 0.0
C930 C 0.52924 0.47016 0.53155 0.0
C931 C 0.50412 0.49345 0.54983 0.0
C932 C 0.48957 0.51599 0.50652 0.0
C933 C 0.4492 0.50906 0.49245 0.0
C934 C 0.49811 0.55585 0.52293 0.0
C935 C 0.51048 0.50174 0.46119 0.0
C936 C 0.53316 0.47528 0.47657 0.0
C937 C 0.55509 0.45793 0.44172 0.0
C938 C 0.55396 0.46789 0.38993 0.0
C939 C 0.53102 0.49504 0.37287 0.0
C940 C 0.50901 0.51209 0.40946 0.0
H941 H 1.00079 0.48492 0.88564 0.0
H942 H 0.07219 0.57503 0.87586 0.0
H943 H 0.07199 0.59159 0.97204 0.0
H944 H 0.94866 0.52823 0.98421 0.0
H945 H 0.94416 0.48854 0.01733 0.0
H946 H 0.9489 0.48478 0.94744 0.0
H947 H 1.00357 0.44451 0.96261 0.0
H948 H 0.99913 0.44832 0.03257 0.0
H949 H 0.04085 0.46058 1.00939 0.0
H950 H 0.06546 0.59714 0.07007 0.0
H951 H 0.05187 0.59218 0.16187 0.0
H952 H 0.98529 0.49802 0.10745 0.0
C953 C 0.01647 0.50811 0.90366 0.0
C954 C 0.03651 0.52869 0.87304 0.0
C955 C 0.05624 0.55913 0.89823 0.0
C956 C 0.05649 0.5686 0.95293 0.0
C957 C 0.03683 0.54743 0.98195 0.0
C958 C 0.01705 0.51791 0.95814 0.0
C959 C 0.99847 0.49941 0.99827 0.0
C960 C 0.95763 0.50031 0.98608 0.0
C961 C 0.01129 0.46093 1.00085 0.0
C962 C 0.01118 0.52291 0.04854 0.0
C963 C 0.03318 0.55053 0.03828 0.0
C964 C 0.04813 0.57571 0.07851 0.0
C965 C 0.04016 0.57274 0.13049 0.0
C966 C 0.0175 0.54474 0.14192 0.0
C967 C 1.00304 0.51948 0.10019 0.0
loop_
_geom_bond_atom_site_label_1
_geom_bond_atom_site_label_2
_geom_bond_distance
_geom_bond_site_symmetry_2
_ccdc_geom_bond_type
C0 Eu1 2.835 1_655 S
C0 C2 1.500 . S
C0 O20 1.257 1_655 S
C0 O21 1.260 . S
Eu1 C0 2.835 1_455 S
Eu1 O20 2.473 . S
Eu1 O21 2.480 1_455 S
Eu1 O22 2.430 1_455 S
Eu1 O23 2.670 1_455 S
Eu1 O24 2.394 1_445 S
Eu1 O29 2.355 1_545 S
Eu1 O31 2.374 . S
C2 C0 1.500 . S
C2 C3 1.377 . S
C2 C7 1.372 1_645 S
C3 C2 1.377 . S
C3 C4 1.395 . S
C3 H32 0.931 . S
C4 C3 1.395 . S
C4 C5 1.383 . S
C4 H33 0.931 . S
C5 C4 1.383 . S
C5 C6 1.394 1_545 S
C6 C5 1.394 1_565 S
C6 C7 1.374 1_655 S
C6 H34 0.931 1_655 S
C7 C2 1.372 1_465 S
C7 C6 1.374 1_455 S
C7 H35 0.940 . S
C8 O22 1.259 . S
C8 O23 1.270 . S
C9 O24 1.251 . S
C9 O25 1.251 . S
C10 Eu11 2.835 1_455 S
C10 C12 1.500 . S
C10 O26 1.257 1_455 S
C10 O27 1.260 . S
Eu11 C10 2.835 1_655 S
Eu11 O23 2.355 1_565 S
Eu11 O25 2.374 . S
Eu11 O26 2.473 . S
Eu11 O27 2.480 1_655 S
Eu11 O28 2.430 1_655 S
Eu11 O29 2.670 1_655 S
Eu11 O30 2.394 1_665 S
C12 C10 1.500 . S
C12 C13 1.377 . S
C12 C17 1.375 1_465 S
C13 C12 1.377 . S
C13 C14 1.395 . S
C13 H36 0.931 . S
C14 C13 1.395 . S
C14 C15 1.383 . S
C14 H37 0.931 . S
C15 C14 1.383 . S
C15 C16 1.394 1_565 S
C16 C15 1.394 1_545 S
C16 C17 1.376 1_455 S
C16 H38 0.931 1_455 S
C17 C12 1.375 1_645 S
C17 C16 1.376 1_655 S
C17 H39 0.935 . S
C18 O28 1.259 . S
C18 O29 1.270 . S
C19 O30 1.251 . S
C19 O31 1.251 . S
O20 C0 1.257 1_455 S
O20 Eu1 2.473 . S
O21 C0 1.260 . S
O21 Eu1 2.480 1_655 S
O22 Eu1 2.430 1_655 S
O22 C8 1.259 . S
O23 Eu1 2.670 1_655 S
O23 C8 1.270 . S
O23 Eu11 2.355 1_545 S
O24 Eu1 2.394 1_665 S
O24 C9 1.251 . S
O25 C9 1.251 . S
O25 Eu11 2.374 . S
O26 C10 1.257 1_655 S
O26 Eu11 2.473 . S
O27 C10 1.260 . S
O27 Eu11 2.480 1_455 S
O28 Eu11 2.430 1_455 S
O28 C18 1.259 . S
O29 Eu1 2.355 1_565 S
O29 Eu11 2.670 1_455 S
O29 C18 1.270 . S
O30 Eu11 2.394 1_445 S
O30 C19 1.251 . S
O31 Eu1 2.374 . S
O31 C19 1.251 . S
H32 C3 0.931 . S
H33 C4 0.931 . S
H34 C6 0.931 1_455 S
H35 C7 0.940 . S
H36 C13 0.931 . S
H37 C14 0.931 . S
H38 C16 0.931 1_655 S
H39 C17 0.935 . S
C40 Eu41 2.835 . S
C40 C42 1.500 . S
C40 O60 1.257 . S
C40 O61 1.260 . S
Eu41 C40 2.835 . S
Eu41 O60 2.473 . S
Eu41 O61 2.480 . S
Eu41 O62 2.430 . S
Eu41 O63 2.670 . S
Eu41 O64 2.394 . S
Eu41 O69 2.355 . S
Eu41 O71 2.374 . S
C42 C40 1.500 . S
C42 C43 1.377 . S
C42 C47 1.377 . S
C43 C42 1.377 . S
C43 C44 1.395 1_556 S
C43 H72 0.931 . S
C44 C43 1.395 1_554 S
C44 C45 1.383 . S
C44 H73 0.931 . S
C45 C44 1.383 . S
C45 C46 1.394 . S
C46 C45 1.394 . S
C46 C47 1.378 1_554 S
C46 H74 0.931 . S
C47 C42 1.377 . S
C47 C46 1.378 1_556 S
C47 H75 0.931 . S
C48 O62 1.259 . S
C48 O63 1.270 . S
C49 O64 1.251 . S
C49 O65 1.251 . S
C50 Eu51 2.835 . S
C50 C52 1.500 . S
C50 O66 1.257 . S
C50 O67 1.260 . S
Eu51 C50 2.835 . S
Eu51 O63 2.355 . S
Eu51 O65 2.374 . S
Eu51 O66 2.473 . S
Eu51 O67 2.480 . S
Eu51 O68 2.430 . S
Eu51 O69 2.670 . S
Eu51 O70 2.394 . S
C52 C50 1.500 . S
C52 C53 1.377 . S
C52 C57 1.377 . S
C53 C52 1.377 . S
C53 C54 1.395 . S
C53 H76 0.931 . S
C54 C53 1.395 . S
C54 C55 1.383 . S
C54 H77 0.931 . S
C55 C54 1.383 . S
C55 C56 1.394 . S
C56 C55 1.394 . S
C56 C57 1.378 . S
C56 H78 0.931 . S
C57 C52 1.377 . S
C57 C56 1.378 . S
C57 H79 0.931 . S
C58 O68 1.259 . S
C58 O69 1.270 . S
C59 O70 1.251 . S
C59 O71 1.251 . S
O60 C40 1.257 . S
O60 Eu41 2.473 . S
O61 C40 1.260 . S
O61 Eu41 2.480 . S
O62 Eu41 2.430 . S
O62 C48 1.259 . S
O63 Eu41 2.670 . S
O63 C48 1.270 . S
O63 Eu51 2.355 . S
O64 Eu41 2.394 . S
O64 C49 1.251 . S
O65 C49 1.251 . S
O65 Eu51 2.374 . S
O66 C50 1.257 . S
O66 Eu51 2.473 . S
O67 C50 1.260 . S
O67 Eu51 2.480 . S
O68 Eu51 2.430 . S
O68 C58 1.259 . S
O69 Eu41 2.355 . S
O69 Eu51 2.670 . S
O69 C58 1.270 . S
O70 Eu51 2.394 . S
O70 C59 1.251 . S
O71 Eu41 2.374 . S
O71 C59 1.251 . S
H72 C43 0.931 . S
H73 C44 0.931 . S
H74 C46 0.931 . S
H75 C47 0.931 . S
H76 C53 0.931 . S
H77 C54 0.931 . S
H78 C56 0.931 . S
H79 C57 0.931 . S
C80 Eu81 2.835 . S
C80 C82 1.500 . S
C80 O100 1.257 1_545 S
C80 O101 1.260 . S
Eu81 C80 2.835 . S
Eu81 O100 2.473 1_545 S
Eu81 O101 2.480 . S
Eu81 O102 2.430 . S
Eu81 O103 2.670 1_556 S
Eu81 O104 2.394 1_545 S
Eu81 O109 2.355 1_545 S
Eu81 O111 2.374 1_556 S
C82 C80 1.500 . S
C82 C83 1.377 . S
C82 C87 1.377 1_545 S
C83 C82 1.377 . S
C83 C84 1.395 . S
C83 H112 0.931 . S
C84 C83 1.395 . S
C84 C85 1.361 1_545 S
C84 H113 0.931 . S
C85 C84 1.361 1_565 S
C85 C86 1.417 . S
C86 C85 1.417 . S
C86 C87 1.378 . S
C86 H114 0.931 . S
C87 C82 1.377 1_565 S
C87 C86 1.378 . S
C87 H115 0.931 . S
C88 O102 1.259 1_554 S
C88 O103 1.270 . S
C89 O104 1.251 . S
C89 O105 1.251 . S
C90 Eu91 2.835 . S
C90 C92 1.500 . S
C90 O106 1.257 1_565 S
C90 O107 1.260 . S
Eu91 C90 2.835 . S
Eu91 O103 2.355 1_565 S
Eu91 O105 2.374 1_554 S
Eu91 O106 2.473 1_565 S
Eu91 O107 2.480 . S
Eu91 O108 2.430 . S
Eu91 O109 2.670 1_554 S
Eu91 O110 2.394 1_565 S
C92 C90 1.500 . S
C92 C93 1.377 . S
C92 C97 1.377 1_565 S
C93 C92 1.377 . S
C93 C94 1.395 . S
C93 H116 0.931 . S
C94 C93 1.395 . S
C94 C95 1.383 1_565 S
C94 H117 0.931 . S
C95 C94 1.383 1_545 S
C95 C96 1.394 . S
C96 C95 1.394 . S
C96 C97 1.378 . S
C96 H118 0.931 . S
C97 C92 1.377 1_545 S
C97 C96 1.378 . S
C97 H119 0.931 . S
C98 O108 1.259 1_556 S
C98 O109 1.270 . S
C99 O110 1.251 . S
C99 O111 1.251 . S
O100 C80 1.257 1_565 S
O100 Eu81 2.473 1_565 S
O101 C80 1.260 . S
O101 Eu81 2.480 . S
O102 Eu81 2.430 . S
O102 C88 1.259 1_556 S
O103 Eu81 2.670 1_554 S
O103 C88 1.270 . S
O103 Eu91 2.355 1_545 S
O104 Eu81 2.394 1_565 S
O104 C89 1.251 . S
O105 C89 1.251 . S
O105 Eu91 2.374 1_556 S
O106 C90 1.257 1_545 S
O106 Eu91 2.473 1_545 S
O107 C90 1.260 . S
O107 Eu91 2.480 . S
O108 Eu91 2.430 . S
O108 C98 1.259 1_554 S
O109 Eu81 2.355 1_565 S
O109 Eu91 2.670 1_556 S
O109 C98 1.270 . S
O110 Eu91 2.394 1_545 S
O110 C99 1.251 . S
O111 Eu81 2.374 1_554 S
O111 C99 1.251 . S
H112 C83 0.931 . S
H113 C84 0.931 . S
H114 C86 0.931 . S
H115 C87 0.931 . S
H116 C93 0.931 . S
H117 C94 0.931 . S
H118 C96 0.931 . S
H119 C97 0.931 . S
C120 Eu121 2.835 . S
C120 C122 1.500 . S
C120 O140 1.257 . S
C120 O141 1.260 . S
Eu121 C120 2.835 . S
Eu121 O140 2.473 . S
Eu121 O141 2.480 . S
Eu121 O142 2.430 . S
Eu121 O143 2.670 . S
Eu121 O144 2.394 . S
Eu121 O149 2.355 . S
Eu121 O151 2.374 . S
C122 C120 1.500 . S
C122 C123 1.377 . S
C122 C127 1.377 . S
C123 C122 1.377 . S
C123 C124 1.395 1_554 S
C123 H152 0.931 . S
C124 C123 1.395 1_556 S
C124 C125 1.383 . S
C124 H153 0.931 . S
C125 C124 1.383 . S
C125 C126 1.394 . S
C126 C125 1.394 . S
C126 C127 1.378 1_556 S
C126 H154 0.931 . S
C127 C122 1.377 . S
C127 C126 1.378 1_554 S
C127 H155 0.931 . S
C128 O142 1.259 . S
C128 O143 1.270 . S
C129 O144 1.251 . S
C129 O145 1.251 . S
C130 Eu131 2.835 . S
C130 C132 1.500 . S
C130 O146 1.257 . S
C130 O147 1.260 . S
Eu131 C130 2.835 . S
Eu131 O143 2.355 . S
Eu131 O145 2.374 . S
Eu131 O146 2.473 . S
Eu131 O147 2.480 . S
Eu131 O148 2.430 . S
Eu131 O149 2.670 . S
Eu131 O150 2.394 . S
C132 C130 1.500 . S
C132 C133 1.377 . S
C132 C137 1.377 . S
C133 C132 1.377 . S
C133 C134 1.395 . S
C133 H156 0.931 . S
C134 C133 1.395 . S
C134 C135 1.383 . S
C134 H157 0.931 . S
C135 C134 1.383 . S
C135 C136 1.394 . S
C136 C135 1.394 . S
C136 C137 1.378 . S
C136 H158 0.931 . S
C137 C132 1.377 . S
C137 C136 1.378 . S
C137 H159 0.931 . S
C138 O148 1.259 . S
C138 O149 1.270 . S
C139 O150 1.251 . S
C139 O151 1.251 . S
O140 C120 1.257 . S
O140 Eu121 2.473 . S
O141 C120 1.260 . S
O141 Eu121 2.480 . S
O142 Eu121 2.430 . S
O142 C128 1.259 . S
O143 Eu121 2.670 . S
O143 C128 1.270 . S
O143 Eu131 2.355 . S
O144 Eu121 2.394 . S
O144 C129 1.251 . S
O145 C129 1.251 . S
O145 Eu131 2.374 . S
O146 C130 1.257 . S
O146 Eu131 2.473 . S
O147 C130 1.260 . S
O147 Eu131 2.480 . S
O148 Eu131 2.430 . S
O148 C138 1.259 . S
O149 Eu121 2.355 . S
O149 Eu131 2.670 . S
O149 C138 1.270 . S
O150 Eu131 2.394 . S
O150 C139 1.251 . S
O151 Eu121 2.374 . S
O151 C139 1.251 . S
H152 C123 0.931 . S
H153 C124 0.931 . S
H154 C126 0.931 . S
H155 C127 0.931 . S
H156 C133 0.931 . S
H157 C134 0.931 . S
H158 C136 0.931 . S
H159 C137 0.931 . S
C160 Eu161 2.835 . S
C160 C162 1.500 . S
C160 O180 1.257 . S
C160 O181 1.260 . S
Eu161 C160 2.835 . S
Eu161 O180 2.473 . S
Eu161 O181 2.480 . S
Eu161 O182 2.430 . S
Eu161 O183 2.670 . S
Eu161 O184 2.394 . S
Eu161 O189 2.355 . S
Eu161 O191 2.374 . S
C162 C160 1.500 . S
C162 C163 1.377 . S
C162 C167 1.377 . S
C163 C162 1.377 . S
C163 C164 1.395 . S
C163 H192 0.931 . S
C164 C163 1.395 . S
C164 C165 1.383 . S
C164 H193 0.931 . S
C165 C164 1.383 . S
C165 C166 1.394 . S
C166 C165 1.394 . S
C166 C167 1.378 . S
C166 H194 0.931 . S
C167 C162 1.377 . S
C167 C166 1.378 . S
C167 H195 0.931 . S
C168 O182 1.259 . S
C168 O183 1.270 . S
C169 O184 1.251 . S
C169 O185 1.251 . S
C170 Eu171 2.835 . S
C170 C172 1.500 . S
C170 O186 1.257 . S
C170 O187 1.260 . S
Eu171 C170 2.835 . S
Eu171 O183 2.355 . S
Eu171 O185 2.374 . S
Eu171 O186 2.473 . S
Eu171 O187 2.480 . S
Eu171 O188 2.430 . S
Eu171 O189 2.670 . S
Eu171 O190 2.394 . S
C172 C170 1.500 . S
C172 C173 1.377 . S
C172 C177 1.377 . S
C173 C172 1.377 . S
C173 C174 1.395 1_554 S
C173 H196 0.931 . S
C174 C173 1.395 1_556 S
C174 C175 1.383 . S
C174 H197 0.931 . S
C175 C174 1.383 . S
C175 C176 1.394 . S
C176 C175 1.394 . S
C176 C177 1.378 1_556 S
C176 H198 0.931 . S
C177 C172 1.377 . S
C177 C176 1.378 1_554 S
C177 H199 0.931 . S
C178 O188 1.259 . S
C178 O189 1.270 . S
C179 O190 1.251 . S
C179 O191 1.251 . S
O180 C160 1.257 . S
O180 Eu161 2.473 . S
O181 C160 1.260 . S
O181 Eu161 2.480 . S
O182 Eu161 2.430 . S
O182 C168 1.259 . S
O183 Eu161 2.670 . S
O183 C168 1.270 . S
O183 Eu171 2.355 . S
O184 Eu161 2.394 . S
O184 C169 1.251 . S
O185 C169 1.251 . S
O185 Eu171 2.374 . S
O186 C170 1.257 . S
O186 Eu171 2.473 . S
O187 C170 1.260 . S
O187 Eu171 2.480 . S
O188 Eu171 2.430 . S
O188 C178 1.259 . S
O189 Eu161 2.355 . S
O189 Eu171 2.670 . S
O189 C178 1.270 . S
O190 Eu171 2.394 . S
O190 C179 1.251 . S
O191 Eu161 2.374 . S
O191 C179 1.251 . S
H192 C163 0.931 . S
H193 C164 0.931 . S
H194 C166 0.931 . S
H195 C167 0.931 . S
H196 C173 0.931 . S
H197 C174 0.931 . S
H198 C176 0.931 . S
H199 C177 0.931 . S
C200 Eu201 2.835 . S
C200 C202 1.500 . S
C200 O220 1.257 . S
C200 O221 1.260 . S
Eu201 C200 2.835 . S
Eu201 O220 2.473 . S
Eu201 O221 2.480 . S
Eu201 O222 2.430 . S
Eu201 O223 2.670 . S
Eu201 O224 2.394 . S
Eu201 O229 2.355 . S
Eu201 O231 2.374 . S
C202 C200 1.500 . S
C202 C203 1.377 . S
C202 C207 1.377 . S
C203 C202 1.377 . S
C203 C204 1.395 . S
C203 H232 0.931 . S
C204 C203 1.395 . S
C204 C205 1.383 . S
C204 H233 0.931 . S
C205 C204 1.383 . S
C205 C206 1.394 . S
C206 C205 1.394 . S
C206 C207 1.378 . S
C206 H234 0.931 . S
C207 C202 1.377 . S
C207 C206 1.378 . S
C207 H235 0.931 . S
C208 O222 1.259 . S
C208 O223 1.270 . S
C209 O224 1.251 . S
C209 O225 1.251 . S
C210 Eu211 2.835 . S
C210 C212 1.500 . S
C210 O226 1.257 . S
C210 O227 1.260 . S
Eu211 C210 2.835 . S
Eu211 O223 2.355 . S
Eu211 O225 2.374 . S
Eu211 O226 2.473 . S
Eu211 O227 2.480 . S
Eu211 O228 2.430 . S
Eu211 O229 2.670 . S
Eu211 O230 2.394 . S
C212 C210 1.500 . S
C212 C213 1.377 . S
C212 C217 1.377 . S
C213 C212 1.377 . S
C213 C214 1.395 1_556 S
C213 H236 0.931 . S
C214 C213 1.395 1_554 S
C214 C215 1.383 . S
C214 H237 0.931 . S
C215 C214 1.383 . S
C215 C216 1.394 . S
C216 C215 1.394 . S
C216 C217 1.378 1_554 S
C216 H238 0.931 . S
C217 C212 1.377 . S
C217 C216 1.378 1_556 S
C217 H239 0.931 . S
C218 O228 1.259 . S
C218 O229 1.270 . S
C219 O230 1.251 . S
C219 O231 1.251 . S
O220 C200 1.257 . S
O220 Eu201 2.473 . S
O221 C200 1.260 . S
O221 Eu201 2.480 . S
O222 Eu201 2.430 . S
O222 C208 1.259 . S
O223 Eu201 2.670 . S
O223 C208 1.270 . S
O223 Eu211 2.355 . S
O224 Eu201 2.394 . S
O224 C209 1.251 . S
O225 C209 1.251 . S
O225 Eu211 2.374 . S
O226 C210 1.257 . S
O226 Eu211 2.473 . S
O227 C210 1.260 . S
O227 Eu211 2.480 . S
O228 Eu211 2.430 . S
O228 C218 1.259 . S
O229 Eu201 2.355 . S
O229 Eu211 2.670 . S
O229 C218 1.270 . S
O230 Eu211 2.394 . S
O230 C219 1.251 . S
O231 Eu201 2.374 . S
O231 C219 1.251 . S
H232 C203 0.931 . S
H233 C204 0.931 . S
H234 C206 0.931 . S
H235 C207 0.931 . S
H236 C213 0.931 . S
H237 C214 0.931 . S
H238 C216 0.931 . S
H239 C217 0.931 . S
C240 Eu241 2.835 . S
C240 C242 1.500 . S
C240 O260 1.257 . S
C240 O261 1.260 . S
Eu241 C240 2.835 . S
Eu241 O260 2.473 . S
Eu241 O261 2.480 . S
Eu241 O262 2.430 . S
Eu241 O263 2.670 1_554 S
Eu241 O264 2.394 . S
Eu241 O269 2.355 . S
Eu241 O271 2.374 . S
C242 C240 1.500 . S
C242 C243 1.377 . S
C242 C247 1.377 . S
C243 C242 1.377 . S
C243 C244 1.395 . S
C243 H272 0.931 . S
C244 C243 1.395 . S
C244 C245 1.383 . S
C244 H273 0.931 . S
C245 C244 1.383 . S
C245 C246 1.394 . S
C246 C245 1.394 . S
C246 C247 1.378 . S
C246 H274 0.931 . S
C247 C242 1.377 . S
C247 C246 1.378 . S
C247 H275 0.931 . S
C248 O262 1.259 1_556 S
C248 O263 1.270 . S
C249 O264 1.251 . S
C249 O265 1.251 1_554 S
C250 Eu251 2.835 . S
C250 C252 1.500 . S
C250 O266 1.257 . S
C250 O267 1.260 . S
Eu251 C250 2.835 . S
Eu251 O263 2.355 . S
Eu251 O265 2.374 . S
Eu251 O266 2.473 . S
Eu251 O267 2.480 . S
Eu251 O268 2.430 . S
Eu251 O269 2.670 1_556 S
Eu251 O270 2.394 . S
C252 C250 1.500 . S
C252 C253 1.377 . S
C252 C257 1.377 . S
C253 C252 1.377 . S
C253 C254 1.395 . S
C253 H276 0.931 . S
C254 C253 1.395 . S
C254 C255 1.383 . S
C254 H277 0.931 . S
C255 C254 1.383 . S
C255 C256 1.394 . S
C256 C255 1.394 . S
C256 C257 1.378 . S
C256 H278 0.931 . S
C257 C252 1.377 . S
C257 C256 1.378 . S
C257 H279 0.931 . S
C258 O268 1.259 1_554 S
C258 O269 1.270 . S
C259 O270 1.251 . S
C259 O271 1.251 1_556 S
O260 C240 1.257 . S
O260 Eu241 2.473 . S
O261 C240 1.260 . S
O261 Eu241 2.480 . S
O262 Eu241 2.430 . S
O262 C248 1.259 1_554 S
O263 Eu241 2.670 1_556 S
O263 C248 1.270 . S
O263 Eu251 2.355 . S
O264 Eu241 2.394 . S
O264 C249 1.251 . S
O265 C249 1.251 1_556 S
O265 Eu251 2.374 . S
O266 C250 1.257 . S
O266 Eu251 2.473 . S
O267 C250 1.260 . S
O267 Eu251 2.480 . S
O268 Eu251 2.430 . S
O268 C258 1.259 1_556 S
O269 Eu241 2.355 . S
O269 Eu251 2.670 1_554 S
O269 C258 1.270 . S
O270 Eu251 2.394 . S
O270 C259 1.251 . S
O271 Eu241 2.374 . S
O271 C259 1.251 1_554 S
H272 C243 0.931 . S
H273 C244 0.931 . S
H274 C246 0.931 . S
H275 C247 0.931 . S
H276 C253 0.931 . S
H277 C254 0.931 . S
H278 C256 0.931 . S
H279 C257 0.931 . S
C280 Eu281 2.835 1_455 S
C280 C282 1.500 . S
C280 O300 1.257 1_455 S
C280 O301 1.260 . S
Eu281 C280 2.835 1_655 S
Eu281 O300 2.473 . S
Eu281 O301 2.480 1_655 S
Eu281 O302 2.430 1_655 S
Eu281 O303 2.670 1_655 S
Eu281 O304 2.394 1_655 S
Eu281 O309 2.355 . S
Eu281 O311 2.374 . S
C282 C280 1.500 . S
C282 C283 1.377 . S
C282 C287 1.371 1_455 S
C283 C282 1.377 . S
C283 C284 1.395 . S
C283 H312 0.931 . S
C284 C283 1.395 . S
C284 C285 1.383 . S
C284 H313 0.931 . S
C285 C284 1.383 . S
C285 C286 1.394 . S
C286 C285 1.394 . S
C286 C287 1.373 1_455 S
C286 H314 0.931 1_455 S
C287 C282 1.371 1_655 S
C287 C286 1.373 1_655 S
C287 H315 0.942 . S
C288 O302 1.259 . S
C288 O303 1.270 . S
C289 O304 1.251 . S
C289 O305 1.251 . S
C290 Eu291 2.835 1_655 S
C290 C292 1.500 . S
C290 O306 1.257 1_655 S
C290 O307 1.260 . S
Eu291 C290 2.835 1_455 S
Eu291 O303 2.355 . S
Eu291 O305 2.374 . S
Eu291 O306 2.473 . S
Eu291 O307 2.480 1_455 S
Eu291 O308 2.430 1_455 S
Eu291 O309 2.670 1_455 S
Eu291 O310 2.394 1_455 S
C292 C290 1.500 . S
C292 C293 1.377 . S
C292 C297 1.369 1_655 S
C293 C292 1.377 . S
C293 C294 1.395 . S
C293 H316 0.931 . S
C294 C293 1.395 . S
C294 C295 1.383 . S
C294 H317 0.931 . S
C295 C294 1.383 . S
C295 C296 1.394 . S
C296 C295 1.394 . S
C296 C297 1.371 1_655 S
C296 H318 0.931 1_655 S
C297 C292 1.369 1_455 S
C297 C296 1.371 1_455 S
C297 H319 0.947 . S
C298 O308 1.259 . S
C298 O309 1.270 . S
C299 O310 1.251 . S
C299 O311 1.251 . S
O300 C280 1.257 1_655 S
O300 Eu281 2.473 . S
O301 C280 1.260 . S
O301 Eu281 2.480 1_455 S
O302 Eu281 2.430 1_455 S
O302 C288 1.259 . S
O303 Eu281 2.670 1_455 S
O303 C288 1.270 . S
O303 Eu291 2.355 . S
O304 Eu281 2.394 1_455 S
O304 C289 1.251 . S
O305 C289 1.251 . S
O305 Eu291 2.374 . S
O306 C290 1.257 1_455 S
O306 Eu291 2.473 . S
O307 C290 1.260 . S
O307 Eu291 2.480 1_655 S
O308 Eu291 2.430 1_655 S
O308 C298 1.259 . S
O309 Eu281 2.355 . S
O309 Eu291 2.670 1_655 S
O309 C298 1.270 . S
O310 Eu291 2.394 1_655 S
O310 C299 1.251 . S
O311 Eu281 2.374 . S
O311 C299 1.251 . S
H312 C283 0.931 . S
H313 C284 0.931 . S
H314 C286 0.931 1_655 S
H315 C287 0.942 . S
H316 C293 0.931 . S
H317 C294 0.931 . S
H318 C296 0.931 1_455 S
H319 C297 0.947 . S
H320 C332 0.930 . S
H321 C334 0.930 . S
H322 C335 0.930 . S
H323 C339 0.959 . S
H324 C339 0.959 . S
H325 C339 0.961 . S
H326 C340 0.960 . S
H327 C340 0.961 . S
H328 C340 0.959 . S
H329 C343 0.929 . S
H330 C344 0.931 . S
H331 C346 0.930 . S
C332 H320 0.930 . S
C332 C333 1.399 . S
C332 C337 1.399 . S
C333 C332 1.399 . S
C333 C334 1.376 . S
C334 H321 0.930 . S
C334 C333 1.376 . S
C334 C335 1.388 . S
C335 H322 0.930 . S
C335 C334 1.388 . S
C335 C336 1.390 . S
C336 C335 1.390 . S
C336 C337 1.394 . S
C336 C342 1.465 . S
C337 C332 1.399 . S
C337 C336 1.394 . S
C337 C338 1.516 . S
C338 C337 1.516 . S
C338 C339 1.502 . S
C338 C340 1.561 . S
C338 C341 1.526 . S
C339 H323 0.959 . S
C339 H324 0.959 . S
C339 H325 0.961 . S
C339 C338 1.502 . S
C340 H326 0.960 . S
C340 H327 0.961 . S
C340 H328 0.959 . S
C340 C338 1.561 . S
C341 C338 1.526 . S
C341 C342 1.396 . S
C341 C346 1.390 . S
C342 C336 1.465 . S
C342 C341 1.396 . S
C342 C343 1.399 . S
C343 H329 0.929 . S
C343 C342 1.399 . S
C343 C344 1.385 . S
C344 H330 0.931 . S
C344 C343 1.385 . S
C344 C345 1.389 . S
C345 C344 1.389 . S
C345 C346 1.387 . S
C346 H331 0.930 . S
C346 C341 1.390 . S
C346 C345 1.387 . S
H347 C359 0.930 . S
H348 C361 0.930 . S
H349 C362 0.930 . S
H350 C366 0.959 . S
H351 C366 0.959 . S
H352 C366 0.961 . S
H353 C367 0.960 . S
H354 C367 0.961 . S
H355 C367 0.959 . S
H356 C370 0.929 . S
H357 C371 0.931 . S
H358 C373 0.930 . S
C359 H347 0.930 . S
C359 C360 1.399 . S
C359 C364 1.399 . S
C360 C359 1.399 . S
C360 C361 1.376 . S
C361 H348 0.930 . S
C361 C360 1.376 . S
C361 C362 1.388 . S
C362 H349 0.930 . S
C362 C361 1.388 . S
C362 C363 1.390 . S
C363 C362 1.390 . S
C363 C364 1.394 . S
C363 C369 1.465 . S
C364 C359 1.399 . S
C364 C363 1.394 . S
C364 C365 1.516 . S
C365 C364 1.516 . S
C365 C366 1.502 . S
C365 C367 1.561 . S
C365 C368 1.526 . S
C366 H350 0.959 . S
C366 H351 0.959 . S
C366 H352 0.961 . S
C366 C365 1.502 . S
C367 H353 0.960 . S
C367 H354 0.961 . S
C367 H355 0.959 . S
C367 C365 1.561 . S
C368 C365 1.526 . S
C368 C369 1.396 . S
C368 C373 1.390 . S
C369 C363 1.465 . S
C369 C368 1.396 . S
C369 C370 1.399 . S
C370 H356 0.929 . S
C370 C369 1.399 . S
C370 C371 1.385 . S
C371 H357 0.931 . S
C371 C370 1.385 . S
C371 C372 1.389 . S
C372 C371 1.389 . S
C372 C373 1.387 . S
C373 H358 0.930 . S
C373 C368 1.390 . S
C373 C372 1.387 . S
H374 C386 0.930 . S
H375 C388 0.930 . S
H376 C389 0.930 . S
H377 C393 0.959 . S
H378 C393 0.959 . S
H379 C393 0.961 . S
H380 C394 0.960 . S
H381 C394 0.961 . S
H382 C394 0.959 . S
H383 C397 0.929 . S
H384 C398 0.931 . S
H385 C400 0.930 . S
C386 H374 0.930 . S
C386 C387 1.399 . S
C386 C391 1.399 . S
C387 C386 1.399 . S
C387 C388 1.376 . S
C388 H375 0.930 . S
C388 C387 1.376 . S
C388 C389 1.388 . S
C389 H376 0.930 . S
C389 C388 1.388 . S
C389 C390 1.390 . S
C390 C389 1.390 . S
C390 C391 1.394 . S
C390 C396 1.465 . S
C391 C386 1.399 . S
C391 C390 1.394 . S
C391 C392 1.516 . S
C392 C391 1.516 . S
C392 C393 1.502 . S
C392 C394 1.561 . S
C392 C395 1.526 . S
C393 H377 0.959 . S
C393 H378 0.959 . S
C393 H379 0.961 . S
C393 C392 1.502 . S
C394 H380 0.960 . S
C394 H381 0.961 . S
C394 H382 0.959 . S
C394 C392 1.561 . S
C395 C392 1.526 . S
C395 C396 1.396 . S
C395 C400 1.390 . S
C396 C390 1.465 . S
C396 C395 1.396 . S
C396 C397 1.399 . S
C397 H383 0.929 . S
C397 C396 1.399 . S
C397 C398 1.385 . S
C398 H384 0.931 . S
C398 C397 1.385 . S
C398 C399 1.389 . S
C399 C398 1.389 . S
C399 C400 1.387 . S
C400 H385 0.930 . S
C400 C395 1.390 . S
C400 C399 1.387 . S
H401 C413 0.930 . S
H402 C415 0.930 . S
H403 C416 0.930 . S
H404 C420 0.959 . S
H405 C420 0.959 . S
H406 C420 0.961 . S
H407 C421 0.960 . S
H408 C421 0.961 . S
H409 C421 0.959 . S
H410 C424 0.929 . S
H411 C425 0.931 . S
H412 C427 0.930 . S
C413 H401 0.930 . S
C413 C414 1.399 . S
C413 C418 1.399 . S
C414 C413 1.399 . S
C414 C415 1.376 . S
C415 H402 0.930 . S
C415 C414 1.376 . S
C415 C416 1.388 . S
C416 H403 0.930 . S
C416 C415 1.388 . S
C416 C417 1.390 . S
C417 C416 1.390 . S
C417 C418 1.394 . S
C417 C423 1.465 . S
C418 C413 1.399 . S
C418 C417 1.394 . S
C418 C419 1.516 . S
C419 C418 1.516 . S
C419 C420 1.502 . S
C419 C421 1.561 . S
C419 C422 1.526 . S
C420 H404 0.959 . S
C420 H405 0.959 . S
C420 H406 0.961 . S
C420 C419 1.502 . S
C421 H407 0.960 . S
C421 H408 0.961 . S
C421 H409 0.959 . S
C421 C419 1.561 . S
C422 C419 1.526 . S
C422 C423 1.396 . S
C422 C427 1.390 . S
C423 C417 1.465 . S
C423 C422 1.396 . S
C423 C424 1.399 . S
C424 H410 0.929 . S
C424 C423 1.399 . S
C424 C425 1.385 . S
C425 H411 0.931 . S
C425 C424 1.385 . S
C425 C426 1.389 . S
C426 C425 1.389 . S
C426 C427 1.387 . S
C427 H412 0.930 . S
C427 C422 1.390 . S
C427 C426 1.387 . S
H428 C440 0.930 . S
H429 C442 0.930 . S
H430 C443 0.930 . S
H431 C447 0.959 . S
H432 C447 0.959 . S
H433 C447 0.961 . S
H434 C448 0.960 . S
H435 C448 0.961 . S
H436 C448 0.959 . S
H437 C451 0.929 . S
H438 C452 0.931 . S
H439 C454 0.930 . S
C440 H428 0.930 . S
C440 C441 1.399 . S
C440 C445 1.399 . S
C441 C440 1.399 . S
C441 C442 1.376 . S
C442 H429 0.930 . S
C442 C441 1.376 . S
C442 C443 1.388 . S
C443 H430 0.930 . S
C443 C442 1.388 . S
C443 C444 1.390 . S
C444 C443 1.390 . S
C444 C445 1.394 . S
C444 C450 1.465 . S
C445 C440 1.399 . S
C445 C444 1.394 . S
C445 C446 1.516 . S
C446 C445 1.516 . S
C446 C447 1.502 . S
C446 C448 1.561 . S
C446 C449 1.526 . S
C447 H431 0.959 . S
C447 H432 0.959 . S
C447 H433 0.961 . S
C447 C446 1.502 . S
C448 H434 0.960 . S
C448 H435 0.961 . S
C448 H436 0.959 . S
C448 C446 1.561 . S
C449 C446 1.526 . S
C449 C450 1.396 . S
C449 C454 1.390 . S
C450 C444 1.465 . S
C450 C449 1.396 . S
C450 C451 1.399 . S
C451 H437 0.929 . S
C451 C450 1.399 . S
C451 C452 1.385 . S
C452 H438 0.931 . S
C452 C451 1.385 . S
C452 C453 1.389 . S
C453 C452 1.389 . S
C453 C454 1.387 . S
C454 H439 0.930 . S
C454 C449 1.390 . S
C454 C453 1.387 . S
H455 C467 0.930 . S
H456 C469 0.930 . S
H457 C470 0.930 . S
H458 C474 0.959 . S
H459 C474 0.959 . S
H460 C474 0.961 . S
H461 C475 0.960 . S
H462 C475 0.961 . S
H463 C475 0.959 . S
H464 C478 0.929 . S
H465 C479 0.931 . S
H466 C481 0.930 . S
C467 H455 0.930 . S
C467 C468 1.399 . S
C467 C472 1.399 . S
C468 C467 1.399 . S
C468 C469 1.376 . S
C469 H456 0.930 . S
C469 C468 1.376 . S
C469 C470 1.388 . S
C470 H457 0.930 . S
C470 C469 1.388 . S
C470 C471 1.390 . S
C471 C470 1.390 . S
C471 C472 1.394 . S
C471 C477 1.465 . S
C472 C467 1.399 . S
C472 C471 1.394 . S
C472 C473 1.516 . S
C473 C472 1.516 . S
C473 C474 1.502 . S
C473 C475 1.561 . S
C473 C476 1.526 . S
C474 H458 0.959 . S
C474 H459 0.959 . S
C474 H460 0.961 . S
C474 C473 1.502 . S
C475 H461 0.960 . S
C475 H462 0.961 . S
C475 H463 0.959 . S
C475 C473 1.561 . S
C476 C473 1.526 . S
C476 C477 1.396 . S
C476 C481 1.390 . S
C477 C471 1.465 . S
C477 C476 1.396 . S
C477 C478 1.399 . S
C478 H464 0.929 . S
C478 C477 1.399 . S
C478 C479 1.385 . S
C479 H465 0.931 . S
C479 C478 1.385 . S
C479 C480 1.389 . S
C480 C479 1.389 . S
C480 C481 1.387 . S
C481 H466 0.930 . S
C481 C476 1.390 . S
C481 C480 1.387 . S
H482 C494 0.930 . S
H483 C496 0.930 . S
H484 C497 0.930 . S
H485 C501 0.959 . S
H486 C501 0.959 . S
H487 C501 0.961 . S
H488 C502 0.960 . S
H489 C502 0.961 . S
H490 C502 0.959 . S
H491 C505 0.929 . S
H492 C506 0.931 . S
H493 C508 0.930 . S
C494 H482 0.930 . S
C494 C495 1.399 . S
C494 C499 1.399 . S
C495 C494 1.399 . S
C495 C496 1.376 . S
C496 H483 0.930 . S
C496 C495 1.376 . S
C496 C497 1.388 . S
C497 H484 0.930 . S
C497 C496 1.388 . S
C497 C498 1.390 . S
C498 C497 1.390 . S
C498 C499 1.394 . S
C498 C504 1.465 . S
C499 C494 1.399 . S
C499 C498 1.394 . S
C499 C500 1.516 . S
C500 C499 1.516 . S
C500 C501 1.502 . S
C500 C502 1.561 . S
C500 C503 1.526 . S
C501 H485 0.959 . S
C501 H486 0.959 . S
C501 H487 0.961 . S
C501 C500 1.502 . S
C502 H488 0.960 . S
C502 H489 0.961 . S
C502 H490 0.959 . S
C502 C500 1.561 . S
C503 C500 1.526 . S
C503 C504 1.396 . S
C503 C508 1.390 . S
C504 C498 1.465 . S
C504 C503 1.396 . S
C504 C505 1.399 . S
C505 H491 0.929 . S
C505 C504 1.399 . S
C505 C506 1.385 . S
C506 H492 0.931 . S
C506 C505 1.385 . S
C506 C507 1.389 . S
C507 C506 1.389 . S
C507 C508 1.387 . S
C508 H493 0.930 . S
C508 C503 1.390 . S
C508 C507 1.387 . S
H509 C521 0.930 . S
H510 C523 0.930 . S
H511 C524 0.930 . S
H512 C528 0.959 . S
H513 C528 0.959 . S
H514 C528 0.961 . S
H515 C529 0.960 . S
H516 C529 0.961 . S
H517 C529 0.959 . S
H518 C532 0.929 . S
H519 C533 0.931 . S
H520 C535 0.930 . S
C521 H509 0.930 . S
C521 C522 1.399 . S
C521 C526 1.399 . S
C522 C521 1.399 . S
C522 C523 1.376 . S
C523 H510 0.930 . S
C523 C522 1.376 . S
C523 C524 1.388 . S
C524 H511 0.930 . S
C524 C523 1.388 . S
C524 C525 1.390 . S
C525 C524 1.390 . S
C525 C526 1.394 . S
C525 C531 1.465 . S
C526 C521 1.399 . S
C526 C525 1.394 . S
C526 C527 1.516 . S
C527 C526 1.516 . S
C527 C528 1.502 . S
C527 C529 1.561 . S
C527 C530 1.526 . S
C528 H512 0.959 . S
C528 H513 0.959 . S
C528 H514 0.961 . S
C528 C527 1.502 . S
C529 H515 0.960 . S
C529 H516 0.961 . S
C529 H517 0.959 . S
C529 C527 1.561 . S
C530 C527 1.526 . S
C530 C531 1.396 . S
C530 C535 1.390 . S
C531 C525 1.465 . S
C531 C530 1.396 . S
C531 C532 1.399 . S
C532 H518 0.929 . S
C532 C531 1.399 . S
C532 C533 1.385 . S
C533 H519 0.931 . S
C533 C532 1.385 . S
C533 C534 1.389 . S
C534 C533 1.389 . S
C534 C535 1.387 . S
C535 H520 0.930 . S
C535 C530 1.390 . S
C535 C534 1.387 . S
H536 C548 0.930 . S
H537 C550 0.930 . S
H538 C551 0.930 . S
H539 C555 0.959 . S
H540 C555 0.959 . S
H541 C555 0.961 . S
H542 C556 0.960 . S
H543 C556 0.961 . S
H544 C556 0.959 . S
H545 C559 0.929 . S
H546 C560 0.931 . S
H547 C562 0.930 . S
C548 H536 0.930 . S
C548 C549 1.399 . S
C548 C553 1.399 . S
C549 C548 1.399 . S
C549 C550 1.376 . S
C550 H537 0.930 . S
C550 C549 1.376 . S
C550 C551 1.388 . S
C551 H538 0.930 . S
C551 C550 1.388 . S
C551 C552 1.390 . S
C552 C551 1.390 . S
C552 C553 1.394 . S
C552 C558 1.465 . S
C553 C548 1.399 . S
C553 C552 1.394 . S
C553 C554 1.516 . S
C554 C553 1.516 . S
C554 C555 1.502 . S
C554 C556 1.561 . S
C554 C557 1.526 . S
C555 H539 0.959 . S
C555 H540 0.959 . S
C555 H541 0.961 . S
C555 C554 1.502 . S
C556 H542 0.960 . S
C556 H543 0.961 . S
C556 H544 0.959 . S
C556 C554 1.561 . S
C557 C554 1.526 . S
C557 C558 1.396 . S
C557 C562 1.390 . S
C558 C552 1.465 . S
C558 C557 1.396 . S
C558 C559 1.399 . S
C559 H545 0.929 . S
C559 C558 1.399 . S
C559 C560 1.385 . S
C560 H546 0.931 . S
C560 C559 1.385 . S
C560 C561 1.389 . S
C561 C560 1.389 . S
C561 C562 1.387 . S
C562 H547 0.930 . S
C562 C557 1.390 . S
C562 C561 1.387 . S
H563 C575 0.930 . S
H564 C577 0.930 . S
H565 C578 0.930 . S
H566 C582 0.959 . S
H567 C582 0.955 1_556 S
H568 C582 0.961 . S
H569 C583 0.960 . S
H570 C583 0.961 1_556 S
H571 C583 0.959 . S
H572 C586 0.929 . S
H573 C587 0.931 . S
H574 C589 0.930 . S
C575 H563 0.930 . S
C575 C576 1.399 . S
C575 C580 1.399 . S
C576 C575 1.399 . S
C576 C577 1.376 . S
C577 H564 0.930 . S
C577 C576 1.376 . S
C577 C578 1.388 . S
C578 H565 0.930 . S
C578 C577 1.388 . S
C578 C579 1.390 . S
C579 C578 1.390 . S
C579 C580 1.394 . S
C579 C585 1.465 . S
C580 C575 1.399 . S
C580 C579 1.394 . S
C580 C581 1.516 . S
C581 C580 1.516 . S
C581 C582 1.502 . S
C581 C583 1.561 . S
C581 C584 1.526 . S
C582 H566 0.959 . S
C582 H567 0.955 1_554 S
C582 H568 0.961 . S
C582 C581 1.502 . S
C583 H569 0.960 . S
C583 H570 0.961 1_554 S
C583 H571 0.959 . S
C583 C581 1.561 . S
C584 C581 1.526 . S
C584 C585 1.396 . S
C584 C589 1.390 . S
C585 C579 1.465 . S
C585 C584 1.396 . S
C585 C586 1.399 . S
C586 H572 0.929 . S
C586 C585 1.399 . S
C586 C587 1.385 . S
C587 H573 0.931 . S
C587 C586 1.385 . S
C587 C588 1.389 . S
C588 C587 1.389 . S
C588 C589 1.387 . S
C589 H574 0.930 . S
C589 C584 1.390 . S
C589 C588 1.387 . S
H590 C602 0.930 . S
H591 C604 0.930 . S
H592 C605 0.930 . S
H593 C609 0.959 . S
H594 C609 0.959 . S
H595 C609 0.961 . S
H596 C610 0.960 . S
H597 C610 0.961 . S
H598 C610 0.959 . S
H599 C613 0.929 . S
H600 C614 0.931 . S
H601 C616 0.930 . S
C602 H590 0.930 . S
C602 C603 1.399 . S
C602 C607 1.399 . S
C603 C602 1.399 . S
C603 C604 1.376 . S
C604 H591 0.930 . S
C604 C603 1.376 . S
C604 C605 1.388 . S
C605 H592 0.930 . S
C605 C604 1.388 . S
C605 C606 1.390 . S
C606 C605 1.390 . S
C606 C607 1.394 . S
C606 C612 1.465 . S
C607 C602 1.399 . S
C607 C606 1.394 . S
C607 C608 1.516 . S
C608 C607 1.516 . S
C608 C609 1.502 . S
C608 C610 1.561 . S
C608 C611 1.526 . S
C609 H593 0.959 . S
C609 H594 0.959 . S
C609 H595 0.961 . S
C609 C608 1.502 . S
C610 H596 0.960 . S
C610 H597 0.961 . S
C610 H598 0.959 . S
C610 C608 1.561 . S
C611 C608 1.526 . S
C611 C612 1.396 . S
C611 C616 1.390 . S
C612 C606 1.465 . S
C612 C611 1.396 . S
C612 C613 1.399 . S
C613 H599 0.929 . S
C613 C612 1.399 . S
C613 C614 1.385 . S
C614 H600 0.931 . S
C614 C613 1.385 . S
C614 C615 1.389 . S
C615 C614 1.389 . S
C615 C616 1.387 . S
C616 H601 0.930 . S
C616 C611 1.390 . S
C616 C615 1.387 . S
H617 C629 0.930 . S
H618 C631 0.930 . S
H619 C632 0.930 . S
H620 C636 0.959 . S
H621 C636 0.959 . S
H622 C636 0.961 . S
H623 C637 0.960 . S
H624 C637 0.961 . S
H625 C637 0.959 . S
H626 C640 0.929 . S
H627 C641 0.931 . S
H628 C643 0.930 . S
C629 H617 0.930 . S
C629 C630 1.399 . S
C629 C634 1.399 . S
C630 C629 1.399 . S
C630 C631 1.376 . S
C631 H618 0.930 . S
C631 C630 1.376 . S
C631 C632 1.388 . S
C632 H619 0.930 . S
C632 C631 1.388 . S
C632 C633 1.390 . S
C633 C632 1.390 . S
C633 C634 1.394 . S
C633 C639 1.465 . S
C634 C629 1.399 . S
C634 C633 1.394 . S
C634 C635 1.516 . S
C635 C634 1.516 . S
C635 C636 1.502 . S
C635 C637 1.561 . S
C635 C638 1.526 . S
C636 H620 0.959 . S
C636 H621 0.959 . S
C636 H622 0.961 . S
C636 C635 1.502 . S
C637 H623 0.960 . S
C637 H624 0.961 . S
C637 H625 0.959 . S
C637 C635 1.561 . S
C638 C635 1.526 . S
C638 C639 1.396 . S
C638 C643 1.390 . S
C639 C633 1.465 . S
C639 C638 1.396 . S
C639 C640 1.399 . S
C640 H626 0.929 . S
C640 C639 1.399 . S
C640 C641 1.385 . S
C641 H627 0.931 . S
C641 C640 1.385 . S
C641 C642 1.389 . S
C642 C641 1.389 . S
C642 C643 1.387 . S
C643 H628 0.930 . S
C643 C638 1.390 . S
C643 C642 1.387 . S
H644 C656 0.930 . S
H645 C658 0.930 . S
H646 C659 0.930 . S
H647 C663 0.959 . S
H648 C663 0.959 . S
H649 C663 0.961 . S
H650 C664 0.960 . S
H651 C664 0.961 . S
H652 C664 0.959 . S
H653 C667 0.929 . S
H654 C668 0.931 . S
H655 C670 0.930 . S
C656 H644 0.930 . S
C656 C657 1.399 . S
C656 C661 1.399 . S
C657 C656 1.399 . S
C657 C658 1.376 . S
C658 H645 0.930 . S
C658 C657 1.376 . S
C658 C659 1.388 . S
C659 H646 0.930 . S
C659 C658 1.388 . S
C659 C660 1.390 . S
C660 C659 1.390 . S
C660 C661 1.394 . S
C660 C666 1.465 . S
C661 C656 1.399 . S
C661 C660 1.394 . S
C661 C662 1.516 . S
C662 C661 1.516 . S
C662 C663 1.502 . S
C662 C664 1.561 . S
C662 C665 1.526 . S
C663 H647 0.959 . S
C663 H648 0.959 . S
C663 H649 0.961 . S
C663 C662 1.502 . S
C664 H650 0.960 . S
C664 H651 0.961 . S
C664 H652 0.959 . S
C664 C662 1.561 . S
C665 C662 1.526 . S
C665 C666 1.396 . S
C665 C670 1.390 . S
C666 C660 1.465 . S
C666 C665 1.396 . S
C666 C667 1.399 . S
C667 H653 0.929 . S
C667 C666 1.399 . S
C667 C668 1.385 . S
C668 H654 0.931 . S
C668 C667 1.385 . S
C668 C669 1.389 . S
C669 C668 1.389 . S
C669 C670 1.387 . S
C670 H655 0.930 . S
C670 C665 1.390 . S
C670 C669 1.387 . S
H671 C683 0.930 . S
H672 C685 0.930 1_554 S
H673 C686 0.930 . S
H674 C690 0.959 . S
H675 C690 0.959 . S
H676 C690 0.961 . S
H677 C691 0.960 . S
H678 C691 0.961 . S
H679 C691 0.959 . S
H680 C694 0.929 . S
H681 C695 0.931 . S
H682 C697 0.930 . S
C683 H671 0.930 . S
C683 C684 1.399 . S
C683 C688 1.399 . S
C684 C683 1.399 . S
C684 C685 1.376 . S
C685 H672 0.930 1_556 S
C685 C684 1.376 . S
C685 C686 1.388 . S
C686 H673 0.930 . S
C686 C685 1.388 . S
C686 C687 1.390 . S
C687 C686 1.390 . S
C687 C688 1.394 . S
C687 C693 1.465 . S
C688 C683 1.399 . S
C688 C687 1.394 . S
C688 C689 1.516 . S
C689 C688 1.516 . S
C689 C690 1.502 . S
C689 C691 1.561 . S
C689 C692 1.526 . S
C690 H674 0.959 . S
C690 H675 0.959 . S
C690 H676 0.961 . S
C690 C689 1.502 . S
C691 H677 0.960 . S
C691 H678 0.961 . S
C691 H679 0.959 . S
C691 C689 1.561 . S
C692 C689 1.526 . S
C692 C693 1.396 . S
C692 C697 1.390 . S
C693 C687 1.465 . S
C693 C692 1.396 . S
C693 C694 1.399 . S
C694 H680 0.929 . S
C694 C693 1.399 . S
C694 C695 1.385 . S
C695 H681 0.931 . S
C695 C694 1.385 . S
C695 C696 1.389 . S
C696 C695 1.389 . S
C696 C697 1.387 . S
C697 H682 0.930 . S
C697 C692 1.390 . S
C697 C696 1.387 . S
H698 C710 0.930 . S
H699 C712 0.930 . S
H700 C713 0.930 . S
H701 C717 0.959 . S
H702 C717 0.959 . S
H703 C717 0.961 . S
H704 C718 0.960 . S
H705 C718 0.961 . S
H706 C718 0.959 . S
H707 C721 0.929 . S
H708 C722 0.931 . S
H709 C724 0.930 . S
C710 H698 0.930 . S
C710 C711 1.399 . S
C710 C715 1.399 . S
C711 C710 1.399 . S
C711 C712 1.376 . S
C712 H699 0.930 . S
C712 C711 1.376 . S
C712 C713 1.388 . S
C713 H700 0.930 . S
C713 C712 1.388 . S
C713 C714 1.390 . S
C714 C713 1.390 . S
C714 C715 1.394 . S
C714 C720 1.465 . S
C715 C710 1.399 . S
C715 C714 1.394 . S
C715 C716 1.516 . S
C716 C715 1.516 . S
C716 C717 1.502 . S
C716 C718 1.561 . S
C716 C719 1.526 . S
C717 H701 0.959 . S
C717 H702 0.959 . S
C717 H703 0.961 . S
C717 C716 1.502 . S
C718 H704 0.960 . S
C718 H705 0.961 . S
C718 H706 0.959 . S
C718 C716 1.561 . S
C719 C716 1.526 . S
C719 C720 1.396 . S
C719 C724 1.390 . S
C720 C714 1.465 . S
C720 C719 1.396 . S
C720 C721 1.399 . S
C721 H707 0.929 . S
C721 C720 1.399 . S
C721 C722 1.385 . S
C722 H708 0.931 . S
C722 C721 1.385 . S
C722 C723 1.389 . S
C723 C722 1.389 . S
C723 C724 1.387 . S
C724 H709 0.930 . S
C724 C719 1.390 . S
C724 C723 1.387 . S
H725 C737 0.930 . S
H726 C739 0.930 . S
H727 C740 0.930 . S
H728 C744 0.959 . S
H729 C744 0.959 . S
H730 C744 0.961 . S
H731 C745 0.960 . S
H732 C745 0.961 . S
H733 C745 0.959 . S
H734 C748 0.929 . S
H735 C749 0.931 . S
H736 C751 0.930 . S
C737 H725 0.930 . S
C737 C738 1.399 . S
C737 C742 1.399 . S
C738 C737 1.399 . S
C738 C739 1.376 . S
C739 H726 0.930 . S
C739 C738 1.376 . S
C739 C740 1.388 . S
C740 H727 0.930 . S
C740 C739 1.388 . S
C740 C741 1.390 . S
C741 C740 1.390 . S
C741 C742 1.394 . S
C741 C747 1.465 . S
C742 C737 1.399 . S
C742 C741 1.394 . S
C742 C743 1.516 . S
C743 C742 1.516 . S
C743 C744 1.502 . S
C743 C745 1.561 . S
C743 C746 1.526 . S
C744 H728 0.959 . S
C744 H729 0.959 . S
C744 H730 0.961 . S
C744 C743 1.502 . S
C745 H731 0.960 . S
C745 H732 0.961 . S
C745 H733 0.959 . S
C745 C743 1.561 . S
C746 C743 1.526 . S
C746 C747 1.396 . S
C746 C751 1.390 . S
C747 C741 1.465 . S
C747 C746 1.396 . S
C747 C748 1.399 . S
C748 H734 0.929 . S
C748 C747 1.399 . S
C748 C749 1.385 . S
C749 H735 0.931 . S
C749 C748 1.385 . S
C749 C750 1.389 . S
C750 C749 1.389 . S
C750 C751 1.387 . S
C751 H736 0.930 . S
C751 C746 1.390 . S
C751 C750 1.387 . S
H752 C764 0.930 . S
H753 C766 0.930 . S
H754 C767 0.930 . S
H755 C771 0.959 . S
H756 C771 0.959 . S
H757 C771 0.961 . S
H758 C772 0.960 . S
H759 C772 0.961 . S
H760 C772 0.959 . S
H761 C775 0.929 . S
H762 C776 0.931 . S
H763 C778 0.930 . S
C764 H752 0.930 . S
C764 C765 1.399 1_565 S
C764 C769 1.399 . S
C765 C764 1.399 1_545 S
C765 C766 1.376 . S
C766 H753 0.930 . S
C766 C765 1.376 . S
C766 C767 1.388 1_655 S
C767 H754 0.930 . S
C767 C766 1.388 1_455 S
C767 C768 1.390 . S
C768 C767 1.390 . S
C768 C769 1.394 1_445 S
C768 C774 1.465 1_556 S
C769 C764 1.399 . S
C769 C768 1.394 1_665 S
C769 C770 1.516 . S
C770 C769 1.516 . S
C770 C771 1.502 . S
C770 C772 1.561 1_655 S
C770 C773 1.526 1_656 S
C771 H755 0.959 . S
C771 H756 0.959 . S
C771 H757 0.961 . S
C771 C770 1.502 . S
C772 H758 0.960 . S
C772 H759 0.961 . S
C772 H760 0.959 . S
C772 C770 1.561 1_455 S
C773 C770 1.526 1_454 S
C773 C774 1.396 1_565 S
C773 C778 1.390 . S
C774 C768 1.465 1_554 S
C774 C773 1.396 1_545 S
C774 C775 1.399 . S
C775 H761 0.929 . S
C775 C774 1.399 . S
C775 C776 1.385 . S
C776 H762 0.931 . S
C776 C775 1.385 . S
C776 C777 1.389 1_545 S
C777 C776 1.389 1_565 S
C777 C778 1.387 . S
C778 H763 0.930 . S
C778 C773 1.390 . S
C778 C777 1.387 . S
H779 C791 0.930 . S
H780 C793 0.930 . S
H781 C794 0.930 . S
H782 C798 0.959 . S
H783 C798 0.959 . S
H784 C798 0.961 . S
H785 C799 0.960 . S
H786 C799 0.961 . S
H787 C799 0.959 . S
H788 C802 0.929 . S
H789 C803 0.931 . S
H790 C805 0.930 . S
C791 H779 0.930 . S
C791 C792 1.399 . S
C791 C796 1.399 . S
C792 C791 1.399 . S
C792 C793 1.376 . S
C793 H780 0.930 . S
C793 C792 1.376 . S
C793 C794 1.388 . S
C794 H781 0.930 . S
C794 C793 1.388 . S
C794 C795 1.390 . S
C795 C794 1.390 . S
C795 C796 1.394 . S
C795 C801 1.465 . S
C796 C791 1.399 . S
C796 C795 1.394 . S
C796 C797 1.516 . S
C797 C796 1.516 . S
C797 C798 1.502 . S
C797 C799 1.561 . S
C797 C800 1.526 . S
C798 H782 0.959 . S
C798 H783 0.959 . S
C798 H784 0.961 . S
C798 C797 1.502 . S
C799 H785 0.960 . S
C799 H786 0.961 . S
C799 H787 0.959 . S
C799 C797 1.561 . S
C800 C797 1.526 . S
C800 C801 1.396 . S
C800 C805 1.390 . S
C801 C795 1.465 . S
C801 C800 1.396 . S
C801 C802 1.399 . S
C802 H788 0.929 . S
C802 C801 1.399 . S
C802 C803 1.385 . S
C803 H789 0.931 . S
C803 C802 1.385 . S
C803 C804 1.389 . S
C804 C803 1.389 . S
C804 C805 1.387 . S
C805 H790 0.930 . S
C805 C800 1.390 . S
C805 C804 1.387 . S
H806 C818 0.930 . S
H807 C820 0.930 . S
H808 C821 0.930 . S
H809 C825 0.959 . S
H810 C825 0.959 . S
H811 C825 0.961 . S
H812 C826 0.960 . S
H813 C826 0.961 . S
H814 C826 0.959 . S
H815 C829 0.929 . S
H816 C830 0.931 . S
H817 C832 0.930 . S
C818 H806 0.930 . S
C818 C819 1.399 1_545 S
C818 C823 1.399 . S
C819 C818 1.399 1_565 S
C819 C820 1.376 . S
C820 H807 0.930 . S
C820 C819 1.376 . S
C820 C821 1.388 . S
C821 H808 0.930 . S
C821 C820 1.388 . S
C821 C822 1.390 . S
C822 C821 1.390 . S
C822 C823 1.394 1_565 S
C822 C828 1.465 . S
C823 C818 1.399 . S
C823 C822 1.394 1_545 S
C823 C824 1.516 . S
C824 C823 1.516 . S
C824 C825 1.502 . S
C824 C826 1.561 . S
C824 C827 1.526 . S
C825 H809 0.959 . S
C825 H810 0.959 . S
C825 H811 0.961 . S
C825 C824 1.502 . S
C826 H812 0.960 . S
C826 H813 0.961 . S
C826 H814 0.959 . S
C826 C824 1.561 . S
C827 C824 1.526 . S
C827 C828 1.396 1_545 S
C827 C832 1.390 . S
C828 C822 1.465 . S
C828 C827 1.396 1_565 S
C828 C829 1.399 . S
C829 H815 0.929 . S
C829 C828 1.399 . S
C829 C830 1.385 . S
C830 H816 0.931 . S
C830 C829 1.385 . S
C830 C831 1.389 . S
C831 C830 1.389 . S
C831 C832 1.387 1_565 S
C832 H817 0.930 . S
C832 C827 1.390 . S
C832 C831 1.387 1_545 S
H833 C845 0.930 . S
H834 C847 0.930 . S
H835 C848 0.930 . S
H836 C852 0.959 . S
H837 C852 0.959 . S
H838 C852 0.961 . S
H839 C853 0.960 . S
H840 C853 0.961 . S
H841 C853 0.959 . S
H842 C856 0.929 . S
H843 C857 0.931 . S
H844 C859 0.930 . S
C845 H833 0.930 . S
C845 C846 1.399 . S
C845 C850 1.399 . S
C846 C845 1.399 . S
C846 C847 1.376 . S
C847 H834 0.930 . S
C847 C846 1.376 . S
C847 C848 1.388 . S
C848 H835 0.930 . S
C848 C847 1.388 . S
C848 C849 1.390 . S
C849 C848 1.390 . S
C849 C850 1.394 . S
C849 C855 1.465 . S
C850 C845 1.399 . S
C850 C849 1.394 . S
C850 C851 1.516 . S
C851 C850 1.516 . S
C851 C852 1.502 . S
C851 C853 1.561 . S
C851 C854 1.526 . S
C852 H836 0.959 . S
C852 H837 0.959 . S
C852 H838 0.961 . S
C852 C851 1.502 . S
C853 H839 0.960 . S
C853 H840 0.961 . S
C853 H841 0.959 . S
C853 C851 1.561 . S
C854 C851 1.526 . S
C854 C855 1.396 . S
C854 C859 1.390 . S
C855 C849 1.465 . S
C855 C854 1.396 . S
C855 C856 1.399 . S
C856 H842 0.929 . S
C856 C855 1.399 . S
C856 C857 1.385 . S
C857 H843 0.931 . S
C857 C856 1.385 . S
C857 C858 1.389 . S
C858 C857 1.389 . S
C858 C859 1.387 . S
C859 H844 0.930 . S
C859 C854 1.390 . S
C859 C858 1.387 . S
H860 C872 0.930 . S
H861 C874 0.930 . S
H862 C875 0.930 . S
H863 C879 0.959 . S
H864 C879 0.959 . S
H865 C879 0.961 . S
H866 C880 0.960 . S
H867 C880 0.961 . S
H868 C880 0.959 . S
H869 C883 0.929 . S
H870 C884 0.931 . S
H871 C886 0.930 . S
C872 H860 0.930 . S
C872 C873 1.399 . S
C872 C877 1.399 . S
C873 C872 1.399 . S
C873 C874 1.376 . S
C874 H861 0.930 . S
C874 C873 1.376 . S
C874 C875 1.388 . S
C875 H862 0.930 . S
C875 C874 1.388 . S
C875 C876 1.390 . S
C876 C875 1.390 . S
C876 C877 1.394 . S
C876 C882 1.465 . S
C877 C872 1.399 . S
C877 C876 1.394 . S
C877 C878 1.516 . S
C878 C877 1.516 . S
C878 C879 1.502 . S
C878 C880 1.561 . S
C878 C881 1.526 . S
C879 H863 0.959 . S
C879 H864 0.959 . S
C879 H865 0.961 . S
C879 C878 1.502 . S
C880 H866 0.960 . S
C880 H867 0.961 . S
C880 H868 0.959 . S
C880 C878 1.561 . S
C881 C878 1.526 . S
C881 C882 1.396 . S
C881 C886 1.390 . S
C882 C876 1.465 . S
C882 C881 1.396 . S
C882 C883 1.399 . S
C883 H869 0.929 . S
C883 C882 1.399 . S
C883 C884 1.385 . S
C884 H870 0.931 . S
C884 C883 1.385 . S
C884 C885 1.389 . S
C885 C884 1.389 . S
C885 C886 1.387 . S
C886 H871 0.930 . S
C886 C881 1.390 . S
C886 C885 1.387 . S
H887 C899 0.930 . S
H888 C901 0.930 . S
H889 C902 0.930 . S
H890 C906 0.959 . S
H891 C906 0.959 . S
H892 C906 0.961 . S
H893 C907 0.960 . S
H894 C907 0.961 . S
H895 C907 0.959 . S
H896 C910 0.929 . S
H897 C911 0.931 . S
H898 C913 0.930 . S
C899 H887 0.930 . S
C899 C900 1.399 . S
C899 C904 1.399 . S
C900 C899 1.399 . S
C900 C901 1.376 . S
C901 H888 0.930 . S
C901 C900 1.376 . S
C901 C902 1.388 . S
C902 H889 0.930 . S
C902 C901 1.388 . S
C902 C903 1.390 . S
C903 C902 1.390 . S
C903 C904 1.394 . S
C903 C909 1.465 . S
C904 C899 1.399 . S
C904 C903 1.394 . S
C904 C905 1.516 . S
C905 C904 1.516 . S
C905 C906 1.502 . S
C905 C907 1.561 . S
C905 C908 1.526 . S
C906 H890 0.959 . S
C906 H891 0.959 . S
C906 H892 0.961 . S
C906 C905 1.502 . S
C907 H893 0.960 . S
C907 H894 0.961 . S
C907 H895 0.959 . S
C907 C905 1.561 . S
C908 C905 1.526 . S
C908 C909 1.396 . S
C908 C913 1.390 . S
C909 C903 1.465 . S
C909 C908 1.396 . S
C909 C910 1.399 . S
C910 H896 0.929 . S
C910 C909 1.399 . S
C910 C911 1.385 . S
C911 H897 0.931 . S
C911 C910 1.385 . S
C911 C912 1.389 . S
C912 C911 1.389 . S
C912 C913 1.387 . S
C913 H898 0.930 . S
C913 C908 1.390 . S
C913 C912 1.387 . S
H914 C926 0.930 . S
H915 C928 0.930 . S
H916 C929 0.930 . S
H917 C933 0.959 . S
H918 C933 0.959 . S
H919 C933 0.961 . S
H920 C934 0.960 . S
H921 C934 0.961 . S
H922 C934 0.959 . S
H923 C937 0.929 . S
H924 C938 0.931 . S
H925 C940 0.930 . S
C926 H914 0.930 . S
C926 C927 1.399 . S
C926 C931 1.399 . S
C927 C926 1.399 . S
C927 C928 1.376 . S
C928 H915 0.930 . S
C928 C927 1.376 . S
C928 C929 1.388 . S
C929 H916 0.930 . S
C929 C928 1.388 . S
C929 C930 1.390 . S
C930 C929 1.390 . S
C930 C931 1.394 . S
C930 C936 1.465 . S
C931 C926 1.399 . S
C931 C930 1.394 . S
C931 C932 1.516 . S
C932 C931 1.516 . S
C932 C933 1.502 . S
C932 C934 1.561 . S
C932 C935 1.526 . S
C933 H917 0.959 . S
C933 H918 0.959 . S
C933 H919 0.961 . S
C933 C932 1.502 . S
C934 H920 0.960 . S
C934 H921 0.961 . S
C934 H922 0.959 . S
C934 C932 1.561 . S
C935 C932 1.526 . S
C935 C936 1.396 . S
C935 C940 1.390 . S
C936 C930 1.465 . S
C936 C935 1.396 . S
C936 C937 1.399 . S
C937 H923 0.929 . S
C937 C936 1.399 . S
C937 C938 1.385 . S
C938 H924 0.931 . S
C938 C937 1.385 . S
C938 C939 1.389 . S
C939 C938 1.389 . S
C939 C940 1.387 . S
C940 H925 0.930 . S
C940 C935 1.390 . S
C940 C939 1.387 . S
H941 C953 0.930 . S
H942 C955 0.930 . S
H943 C956 0.930 . S
H944 C960 0.959 1_554 S
H945 C960 0.959 1_554 S
H946 C960 0.961 . S
H947 C961 0.960 . S
H948 C961 0.961 1_554 S
H949 C961 0.959 1_455 S
H950 C964 0.929 . S
H951 C965 0.931 . S
H952 C967 0.916 1_655 S
C953 H941 0.930 . S
C953 C954 1.399 . S
C953 C958 1.399 . S
C954 C953 1.399 . S
C954 C955 1.376 1_655 S
C955 H942 0.930 . S
C955 C954 1.376 1_455 S
C955 C956 1.388 . S
C956 H943 0.930 . S
C956 C955 1.388 . S
C956 C957 1.390 . S
C957 C956 1.390 . S
C957 C958 1.394 1_455 S
C957 C963 1.465 1_556 S
C958 C953 1.399 . S
C958 C957 1.394 1_655 S
C958 C959 1.516 . S
C959 C958 1.516 . S
C959 C960 1.502 . S
C959 C961 1.561 . S
C959 C962 1.526 1_556 S
C960 H944 0.959 1_556 S
C960 H945 0.959 1_556 S
C960 H946 0.961 . S
C960 C959 1.502 . S
C961 H947 0.960 . S
C961 H948 0.961 1_556 S
C961 H949 0.959 1_655 S
C961 C959 1.561 . S
C962 C959 1.526 1_554 S
C962 C963 1.396 1_655 S
C962 C967 1.392 1_655 S
C963 C957 1.465 1_554 S
C963 C962 1.396 1_455 S
C963 C964 1.399 . S
C964 H950 0.929 . S
C964 C963 1.399 . S
C964 C965 1.385 . S
C965 H951 0.931 . S
C965 C964 1.385 . S
C965 C966 1.389 . S
C966 C965 1.389 . S
C966 C967 1.399 . S
C967 H952 0.916 1_455 S
C967 C962 1.392 1_455 S
C967 C966 1.399 . S
C333 C19 1.968 . S
C345 C139 1.963 . S
C360 C18 1.469 . S
C372 C59 1.545 . S
C387 C58 0.976 . S
C399 C98 0.971 . S
C414 C99 1.517 . S
C426 C138 1.527 . S
C441 C9 1.967 . S
C453 C209 1.962 . S
C468 C8 1.482 . S
C480 C169 1.530 . S
C495 C168 0.968 . S
C507 C88 0.959 . S
C522 C208 1.488 . S
C534 C89 1.531 . S
C549 C259 1.959 . S
C561 C219 1.956 . S
C576 C179 1.528 . S
C588 C258 1.504 . S
C603 C298 1.045 . S
C615 C178 1.037 . S
C630 C218 1.516 . S
C642 C299 1.526 . S
C657 C129 1.954 . S
C669 C249 1.957 . S
C684 C248 1.509 . S
C696 C49 1.538 . S
C711 C48 0.960 . S
C723 C288 0.978 . S
C738 C128 1.473 . S
C750 C289 1.534 . S
C765 C5 1.482 . S
C777 C15 1.464 . S
C792 C55 1.379 . S
C804 C45 1.335 . S
C819 C85 1.376 . S
C831 C95 1.341 1_565 S
C846 C125 1.504 . S
C858 C135 1.451 . S
C873 C175 1.377 . S
C885 C165 1.335 . S
C900 C205 1.504 . S
C912 C215 1.452 . S
C927 C255 1.504 . S
C939 C245 1.450 . S
C954 C295 1.340 . S
C966 C285 1.369 . S
