# Generated by pormake.
# Topology wme, (6)-cn, num edge types: 1
# Building blocks:
#     Node 0, Type 0, BuildingBlock: CIFDUS_clean_sbu_1, # of connection points: 6
#     Node 1, Type 0, BuildingBlock: CIFDUS_clean_sbu_1, # of connection points: 6
#     Node 2, Type 0, BuildingBlock: CIFDUS_clean_sbu_1, # of connection points: 6
#     Node 3, Type 0, BuildingBlock: CIFDUS_clean_sbu_1, # of connection points: 6
#     Node 4, Type 0, BuildingBlock: CIFDUS_clean_sbu_1, # of connection points: 6
#     Node 5, Type 0, BuildingBlock: CIFDUS_clean_sbu_1, # of connection points: 6
#     Node 6, Type 0, BuildingBlock: CIFDUS_clean_sbu_1, # of connection points: 6
#     Node 7, Type 0, BuildingBlock: CIFDUS_clean_sbu_1, # of connection points: 6
#     Node 8, Type 0, BuildingBlock: CIFDUS_clean_sbu_1, # of connection points: 6
#     Node 9, Type 0, BuildingBlock: CIFDUS_clean_sbu_1, # of connection points: 6
#     Node 10, Type 0, BuildingBlock: CIFDUS_clean_sbu_1, # of connection points: 6
#     Node 11, Type 0, BuildingBlock: CIFDUS_clean_sbu_1, # of connection points: 6
#     Edge 12, Type (0, 0), None
#     Edge 13, Type (0, 0), None
#     Edge 14, Type (0, 0), None
#     Edge 15, Type (0, 0), None
#     Edge 16, Type (0, 0), None
#     Edge 17, Type (0, 0), None
#     Edge 18, Type (0, 0), None
#     Edge 19, Type (0, 0), None
#     Edge 20, Type (0, 0), None
#     Edge 21, Type (0, 0), None
#     Edge 22, Type (0, 0), None
#     Edge 23, Type (0, 0), None
#     Edge 24, Type (0, 0), None
#     Edge 25, Type (0, 0), None
#     Edge 26, Type (0, 0), None
#     Edge 27, Type (0, 0), None
#     Edge 28, Type (0, 0), None
#     Edge 29, Type (0, 0), None
#     Edge 30, Type (0, 0), None
#     Edge 31, Type (0, 0), None
#     Edge 32, Type (0, 0), None
#     Edge 33, Type (0, 0), None
#     Edge 34, Type (0, 0), None
#     Edge 35, Type (0, 0), None
#     Edge 36, Type (0, 0), None
#     Edge 37, Type (0, 0), None
#     Edge 38, Type (0, 0), None
#     Edge 39, Type (0, 0), None
#     Edge 40, Type (0, 0), None
#     Edge 41, Type (0, 0), None
#     Edge 42, Type (0, 0), None
#     Edge 43, Type (0, 0), None
#     Edge 44, Type (0, 0), None
#     Edge 45, Type (0, 0), None
#     Edge 46, Type (0, 0), None
#     Edge 47, Type (0, 0), None
# Relax obj value: 0.164
# Max RMSD: 0.188
# Mean RMSD: 0.188
data_MOF--net-wme--node1-CIFDUS_clean_sbu_1--edge1-none
_symmetry_space_group_name_H-M    P1
_symmetry_Int_Tables_number       1
_symmetry_cell_setting            triclinic
loop_
_symmetry_equiv_pos_as_xyz
'x, y, z'
_cell_length_a     13.790109
_cell_length_b     13.789829
_cell_length_c     26.546544
_cell_angle_alpha  90.000454
_cell_angle_beta   89.999545
_cell_angle_gamma 120.0017
loop_
_atom_site_label
_atom_site_type_symbol
_atom_site_fract_x
_atom_site_fract_y
_atom_site_fract_z
_atom_type_partial_charge
O0 O 0.40194 0.467 0.11596 0.0
Mn1 Mn 0.23513 0.35616 0.1306 0.0
O2 O 0.37723 0.54653 0.0459 0.0
Mn3 Mn 0.23525 0.43634 0.02268 0.0
O4 O 0.06886 0.25529 0.1417 0.0
O5 O 0.26921 0.40155 0.20574 0.0
Mn6 Mn 0.22916 0.27326 0.23511 0.0
O7 O 0.24468 0.20522 0.14004 0.0
O8 O 0.07023 0.188 0.21874 0.0
O9 O 0.20377 0.49185 0.12052 0.0
O10 O 0.11981 0.45334 0.04626 0.0
O11 O 0.31688 0.38041 0.28201 0.0
O12 O 0.30602 0.20617 0.21619 0.0
C13 C 0.22723 0.2779 0.01619 0.0
C14 C 0.43644 0.54648 0.08334 0.0
C15 C 1.01828 0.19182 0.17851 0.0
C16 C 0.28506 0.43405 0.25336 0.0
C17 C 0.27014 0.1574 0.17541 0.0
C18 C 0.14191 0.50525 0.08771 0.0
O19 O 0.20927 0.31794 0.05679 0.0
O20 O 0.2305 0.33345 0.97657 0.0
O21 O 0.95579 0.39155 0.61596 0.0
Mn22 Mn 0.89981 0.22474 0.6306 0.0
O23 O 0.85152 0.36683 0.54591 0.0
Mn24 Mn 0.81974 0.22486 0.52268 0.0
O25 O 0.83441 0.05847 0.64169 0.0
O26 O 0.88851 0.25882 0.70574 0.0
Mn27 Mn 0.97675 0.21877 0.73511 0.0
O28 O 0.0603 0.23429 0.64004 0.0
O29 O 0.90307 0.05983 0.71873 0.0
O30 O 0.73275 0.19336 0.62052 0.0
O31 O 0.68729 0.1094 0.54625 0.0
O32 O 0.95732 0.30649 0.78201 0.0
O33 O 0.1207 0.29564 0.71619 0.0
C34 C 0.97018 0.21686 0.51619 0.0
C35 C 0.91079 0.42605 0.58335 0.0
C36 C 0.84731 1.00789 0.6785 0.0
C37 C 0.87186 0.27466 0.75336 0.0
C38 C 0.13359 0.25976 0.67541 0.0
C39 C 0.65749 0.1315 0.58771 0.0
O40 O 0.91216 0.19888 0.55679 0.0
O41 O 0.9179 0.22014 0.47657 0.0
O42 O 0.58507 0.94539 0.11595 0.0
Mn43 Mn 0.69591 0.88943 0.1306 0.0
O44 O 0.50549 0.84108 0.04592 0.0
Mn45 Mn 0.61568 0.8093 0.02268 0.0
O46 O 0.79679 0.82404 0.1417 0.0
O47 O 0.65055 0.87819 0.20574 0.0
Mn48 Mn 0.77885 0.96641 0.23512 0.0
O49 O 0.84685 0.04993 0.14003 0.0
O50 O 0.86408 0.89271 0.21874 0.0
O51 O 0.56023 0.72235 0.12054 0.0
O52 O 0.59869 0.67685 0.04624 0.0
O53 O 0.67169 0.94698 0.28201 0.0
O54 O 0.84594 0.11036 0.21619 0.0
C55 C 0.77411 0.95976 0.01619 0.0
C56 C 0.50557 0.90038 0.08335 0.0
C57 C 0.86027 0.83695 0.17851 0.0
C58 C 0.61805 0.86152 0.25336 0.0
C59 C 0.89463 0.12323 0.17539 0.0
C60 C 0.54692 0.64712 0.08774 0.0
O61 O 0.7341 0.90173 0.05679 0.0
O62 O 0.71854 0.90748 0.97657 0.0
O63 O 0.66052 0.57468 0.61594 0.0
Mn64 Mn 0.82732 0.68552 0.6306 0.0
O65 O 0.68527 0.49509 0.54592 0.0
Mn66 Mn 0.82724 0.60528 0.52268 0.0
O67 O 0.99358 0.78639 0.64171 0.0
O68 O 0.79318 0.64015 0.70574 0.0
Mn69 Mn 0.83326 0.76845 0.73512 0.0
O70 O 0.81776 0.83645 0.64002 0.0
O71 O 0.9922 0.85368 0.71875 0.0
O72 O 0.85871 0.54983 0.62054 0.0
O73 O 0.94269 0.5883 0.54626 0.0
O74 O 0.74553 0.66129 0.78201 0.0
O75 O 0.75641 0.83554 0.71619 0.0
C76 C 0.83519 0.7637 0.51619 0.0
C77 C 0.62603 0.49517 0.58334 0.0
C78 C 0.04415 0.84987 0.67852 0.0
C79 C 0.77734 0.60764 0.75336 0.0
C80 C 0.79224 0.88424 0.67539 0.0
C81 C 0.92063 0.53652 0.58775 0.0
O82 O 0.85322 0.72371 0.55679 0.0
O83 O 0.83193 0.70814 0.47657 0.0
O84 O 0.10667 0.65015 0.11593 0.0
Mn85 Mn 0.16263 0.81694 0.1306 0.0
O86 O 0.21097 0.67492 0.04589 0.0
Mn87 Mn 0.24279 0.81692 0.02268 0.0
O88 O 0.22804 0.9832 0.14172 0.0
O89 O 0.17385 0.78278 0.20574 0.0
Mn90 Mn 0.08564 0.82285 0.23512 0.0
O91 O 1.00215 0.80739 0.14003 0.0
O92 O 0.15935 0.9818 0.21876 0.0
O93 O 0.3297 0.84832 0.12054 0.0
O94 O 0.37525 0.93233 0.04626 0.0
O95 O 0.10506 0.73511 0.28201 0.0
O96 O 0.9417 0.74603 0.21619 0.0
C97 C 0.09234 0.82487 0.01619 0.0
C98 C 0.15167 0.61568 0.08331 0.0
C99 C 0.21512 0.03376 0.17853 0.0
C100 C 0.19052 0.76693 0.25336 0.0
C101 C 0.92884 0.78187 0.17539 0.0
C102 C 0.40495 0.91024 0.08775 0.0
O103 O 0.15036 0.84289 0.05679 0.0
O104 O 0.14464 0.82165 0.97657 0.0
O105 O 0.47735 0.09627 0.61594 0.0
Mn106 Mn 0.36653 0.15224 0.6306 0.0
O107 O 0.55687 0.20054 0.54588 0.0
Mn108 Mn 0.4467 0.23237 0.52267 0.0
O109 O 0.26568 0.21765 0.64172 0.0
O110 O 0.41191 0.16348 0.70574 0.0
Mn111 Mn 0.28363 0.07527 0.73512 0.0
O112 O 0.21559 0.99175 0.64004 0.0
O113 O 0.19839 0.14897 0.71876 0.0
O114 O 0.50223 0.31931 0.62054 0.0
O115 O 0.46376 0.36483 0.54625 0.0
O116 O 0.3908 0.09469 0.78201 0.0
O117 O 0.2165 0.93132 0.7162 0.0
C118 C 0.28827 0.08193 0.51619 0.0
C119 C 0.55682 0.14126 0.58331 0.0
C120 C 0.2022 0.20473 0.67853 0.0
C121 C 0.44443 0.18015 0.75336 0.0
C122 C 0.1678 0.91845 0.6754 0.0
C123 C 0.51555 0.39455 0.58774 0.0
O124 O 0.3283 0.13994 0.55679 0.0
O125 O 0.3438 0.13422 0.47656 0.0
O126 O 0.58502 0.65005 0.41613 0.0
Mn127 Mn 0.6959 0.81686 0.40148 0.0
O128 O 0.50551 0.6748 0.48618 0.0
Mn129 Mn 0.61574 0.81676 0.5094 0.0
O130 O 0.79681 0.98315 0.39037 0.0
O131 O 0.65043 0.78281 0.32634 0.0
Mn132 Mn 0.77872 0.82286 0.29695 0.0
O133 O 0.84681 0.80727 0.39204 0.0
O134 O 0.864 0.9818 0.31331 0.0
O135 O 0.56024 0.84829 0.41157 0.0
O136 O 0.59876 0.93223 0.48584 0.0
O137 O 0.67172 0.73505 0.25001 0.0
O138 O 0.8459 0.74609 0.31586 0.0
C139 C 0.77403 0.82462 0.51589 0.0
C140 C 0.50554 0.61557 0.44875 0.0
C141 C 0.86023 0.03374 0.35355 0.0
C142 C 0.618 0.76669 0.27871 0.0
C143 C 0.89465 0.78189 0.35665 0.0
C144 C 0.54687 0.91015 0.44438 0.0
O145 O 0.73413 0.84271 0.47528 0.0
O146 O 0.71855 0.8214 0.55553 0.0
O147 O 0.9558 0.57462 0.91612 0.0
Mn148 Mn 0.89987 0.6855 0.90148 0.0
O149 O 0.85158 0.49513 0.98619 0.0
Mn150 Mn 0.81984 0.60536 1.00941 0.0
O151 O 0.83449 0.78641 0.89038 0.0
O152 O 0.88843 0.64002 0.82634 0.0
Mn153 Mn 0.97666 0.76831 0.79695 0.0
O154 O 0.06037 0.83641 0.89203 0.0
O155 O 0.90301 0.85359 0.81331 0.0
O156 O 0.73279 0.54984 0.91158 0.0
O157 O 0.68738 0.58835 0.98585 0.0
O158 O 0.95747 0.66131 0.75001 0.0
O159 O 0.12063 0.83551 0.81585 0.0
C160 C 0.97026 0.76367 1.01589 0.0
C161 C 0.91083 0.49515 0.94875 0.0
C162 C 0.84731 0.84983 0.85355 0.0
C163 C 0.87212 0.60759 0.77871 0.0
C164 C 0.13359 0.88426 0.85664 0.0
C165 C 0.65756 0.53646 0.94439 0.0
O166 O 0.91227 0.72374 0.97528 0.0
O167 O 0.91801 0.70819 0.05554 0.0
O168 O 0.40198 0.9454 0.41613 0.0
Mn169 Mn 0.23517 0.88946 0.40148 0.0
O170 O 0.37723 0.84121 0.48621 0.0
Mn171 Mn 0.23525 0.80944 0.50941 0.0
O172 O 0.06888 0.82406 0.39037 0.0
O173 O 0.26923 0.87802 0.32634 0.0
Mn174 Mn 0.22918 0.96625 0.29694 0.0
O175 O 0.24475 0.04996 0.39202 0.0
O176 O 0.07024 0.89259 0.3133 0.0
O177 O 0.20376 0.72239 0.41158 0.0
O178 O 0.11983 0.67696 0.48585 0.0
O179 O 0.317 0.94706 0.25001 0.0
O180 O 0.30592 0.11023 0.31584 0.0
C181 C 0.22735 0.95985 0.51589 0.0
C182 C 0.43646 0.90045 0.44878 0.0
C183 C 1.0183 0.8369 0.35354 0.0
C184 C 0.28535 0.86171 0.27871 0.0
C185 C 0.27012 0.12318 0.35663 0.0
C186 C 0.14192 0.64715 0.44439 0.0
O187 O 0.2093 0.90186 0.47527 0.0
O188 O 0.23054 0.90759 0.55554 0.0
O189 O 0.47741 0.39158 0.91614 0.0
Mn190 Mn 0.36655 0.22478 0.90148 0.0
O191 O 0.55685 0.3668 0.98622 0.0
Mn192 Mn 0.44663 0.22481 1.00941 0.0
O193 O 0.26566 0.05849 0.89036 0.0
O194 O 0.41204 0.25886 0.82634 0.0
Mn195 Mn 0.28376 0.2188 0.79694 0.0
O196 O 0.21563 0.23435 0.89203 0.0
O197 O 0.19848 0.05986 0.81329 0.0
O198 O 0.50221 0.19338 0.91157 0.0
O199 O 0.46369 0.1094 0.98583 0.0
O200 O 0.39078 0.30663 0.75001 0.0
O201 O 0.21654 0.29554 0.81585 0.0
C202 C 0.28835 0.21694 1.01589 0.0
C203 C 0.55684 0.42605 0.94878 0.0
C204 C 0.20224 1.00791 0.85353 0.0
C205 C 0.44448 0.27498 0.77871 0.0
C206 C 0.16778 0.25973 0.85664 0.0
C207 C 0.5156 0.13151 0.94438 0.0
O208 O 0.32827 0.19888 0.97527 0.0
O209 O 0.34378 0.2201 0.05554 0.0
O210 O 0.10665 0.467 0.41615 0.0
Mn211 Mn 0.16258 0.35614 0.40148 0.0
O212 O 0.21091 0.54647 0.48621 0.0
Mn213 Mn 0.24268 0.43626 0.50941 0.0
O214 O 0.22796 0.25524 0.39035 0.0
O215 O 0.17394 0.40162 0.32634 0.0
Mn216 Mn 0.08574 0.27333 0.29694 0.0
O217 O 1.00208 0.20521 0.39204 0.0
O218 O 0.15941 0.18807 0.31328 0.0
O219 O 0.32966 0.4918 0.41156 0.0
O220 O 0.37516 0.45332 0.48585 0.0
O221 O 0.10492 0.38035 0.25001 0.0
O222 O 0.94177 0.20609 0.31585 0.0
C223 C 0.09226 0.27798 0.51589 0.0
C224 C 0.15163 0.54645 0.44879 0.0
C225 C 0.21512 0.19182 0.35352 0.0
C226 C 0.19027 0.43406 0.27871 0.0
C227 C 0.92884 0.1574 0.35666 0.0
C228 C 0.40489 0.5051 0.44436 0.0
O229 O 0.15026 0.31788 0.47528 0.0
O230 O 0.14452 0.33342 0.55554 0.0
O231 O 0.66048 0.09625 0.91615 0.0
Mn232 Mn 0.82728 0.15218 0.90148 0.0
O233 O 0.68526 0.20052 0.9862 0.0
Mn234 Mn 0.82724 0.23228 1.00941 0.0
O235 O 0.99356 0.21756 0.89036 0.0
O236 O 0.79317 0.16354 0.82634 0.0
Mn237 Mn 0.83325 0.07533 0.79694 0.0
O238 O 0.81769 0.99168 0.89204 0.0
O239 O 0.99218 0.14901 0.81329 0.0
O240 O 0.85871 0.31927 0.91156 0.0
O241 O 0.94267 0.36476 0.98585 0.0
O242 O 0.74541 0.09451 0.75001 0.0
O243 O 0.75651 0.93136 0.81585 0.0
C244 C 0.83507 0.08184 1.01589 0.0
C245 C 0.62602 0.14124 0.94878 0.0
C246 C 0.04413 0.20472 0.85353 0.0
C247 C 0.77705 0.17986 0.77871 0.0
C248 C 0.79226 0.91843 0.85666 0.0
C249 C 0.92063 0.39449 0.94436 0.0
O250 O 0.85319 0.13986 0.97528 0.0
O251 O 0.83188 0.13411 0.05554 0.0
loop_
_geom_bond_atom_site_label_1
_geom_bond_atom_site_label_2
_geom_bond_distance
_geom_bond_site_symmetry_2
_ccdc_geom_bond_type
O0 Mn1 2.163 . S
O0 C14 1.244 . S
Mn1 O0 2.163 . S
Mn1 O4 2.160 . S
Mn1 O5 2.221 . S
Mn1 O7 2.163 . S
Mn1 O9 2.160 . S
Mn1 O19 2.221 . S
O2 Mn3 2.087 . S
O2 C14 1.256 . S
Mn3 O2 2.087 . S
Mn3 O10 2.089 . S
Mn3 O19 2.290 . S
Mn3 O20 2.251 1_554 S
O4 Mn1 2.160 . S
O4 C15 1.239 1_455 S
O5 Mn1 2.221 . S
O5 Mn6 2.290 . S
O5 C16 1.278 . S
Mn6 O5 2.290 . S
Mn6 O8 2.089 1_455 S
Mn6 O11 2.251 . S
Mn6 O12 2.087 . S
O7 Mn1 2.163 . S
O7 C17 1.244 . S
O8 Mn6 2.089 1_655 S
O8 C15 1.256 . S
O9 Mn1 2.160 . S
O9 C18 1.239 . S
O10 Mn3 2.089 . S
O10 C18 1.256 . S
O11 Mn6 2.251 . S
O11 C16 1.241 . S
O12 Mn6 2.087 . S
O12 C17 1.256 . S
C13 O19 1.284 . S
C13 O20 1.237 1_554 S
C14 O0 1.244 . S
C14 O2 1.256 . S
C15 O4 1.239 1_655 S
C15 O8 1.256 . S
C16 O5 1.278 . S
C16 O11 1.241 . S
C17 O7 1.244 . S
C17 O12 1.256 . S
C18 O9 1.239 . S
C18 O10 1.256 . S
O19 Mn1 2.221 . S
O19 Mn3 2.290 . S
O19 C13 1.284 . S
O20 Mn3 2.251 1_556 S
O20 C13 1.237 1_556 S
O21 Mn22 2.163 . S
O21 C35 1.244 . S
Mn22 O21 2.163 . S
Mn22 O25 2.160 . S
Mn22 O26 2.221 . S
Mn22 O28 2.163 1_655 S
Mn22 O30 2.160 . S
Mn22 O40 2.221 . S
O23 Mn24 2.087 . S
O23 C35 1.256 . S
Mn24 O23 2.087 . S
Mn24 O31 2.089 . S
Mn24 O40 2.290 . S
Mn24 O41 2.251 . S
O25 Mn22 2.160 . S
O25 C36 1.239 1_545 S
O26 Mn22 2.221 . S
O26 Mn27 2.290 . S
O26 C37 1.278 . S
Mn27 O26 2.290 . S
Mn27 O29 2.089 1_545 S
Mn27 O32 2.251 . S
Mn27 O33 2.087 1_655 S
O28 Mn22 2.163 1_455 S
O28 C38 1.244 . S
O29 Mn27 2.089 1_565 S
O29 C36 1.256 . S
O30 Mn22 2.160 . S
O30 C39 1.239 . S
O31 Mn24 2.089 . S
O31 C39 1.256 . S
O32 Mn27 2.251 . S
O32 C37 1.241 . S
O33 Mn27 2.087 1_455 S
O33 C38 1.256 . S
C34 O40 1.278 . S
C34 O41 1.241 . S
C35 O21 1.244 . S
C35 O23 1.256 . S
C36 O25 1.239 1_565 S
C36 O29 1.256 . S
C37 O26 1.278 . S
C37 O32 1.241 . S
C38 O28 1.244 . S
C38 O33 1.256 . S
C39 O30 1.239 . S
C39 O31 1.256 . S
O40 Mn22 2.221 . S
O40 Mn24 2.290 . S
O40 C34 1.278 . S
O41 Mn24 2.251 . S
O41 C34 1.241 . S
O42 Mn43 2.163 . S
O42 C56 1.244 . S
Mn43 O42 2.163 . S
Mn43 O46 2.160 . S
Mn43 O47 2.221 . S
Mn43 O49 2.163 1_565 S
Mn43 O51 2.160 . S
Mn43 O61 2.221 . S
O44 Mn45 2.087 . S
O44 C56 1.256 . S
Mn45 O44 2.087 . S
Mn45 O52 2.089 . S
Mn45 O61 2.290 . S
Mn45 O62 2.251 1_554 S
O46 Mn43 2.160 . S
O46 C57 1.239 . S
O47 Mn43 2.221 . S
O47 Mn48 2.290 . S
O47 C58 1.278 . S
Mn48 O47 2.290 . S
Mn48 O50 2.089 . S
Mn48 O53 2.251 . S
Mn48 O54 2.087 1_565 S
O49 Mn43 2.163 1_545 S
O49 C59 1.244 . S
O50 Mn48 2.089 . S
O50 C57 1.256 . S
O51 Mn43 2.160 . S
O51 C60 1.239 . S
O52 Mn45 2.089 . S
O52 C60 1.256 . S
O53 Mn48 2.251 . S
O53 C58 1.241 . S
O54 Mn48 2.087 1_545 S
O54 C59 1.256 . S
C55 O61 1.284 . S
C55 O62 1.237 1_554 S
C56 O42 1.244 . S
C56 O44 1.256 . S
C57 O46 1.239 . S
C57 O50 1.256 . S
C58 O47 1.278 . S
C58 O53 1.241 . S
C59 O49 1.244 . S
C59 O54 1.256 . S
C60 O51 1.239 . S
C60 O52 1.256 . S
O61 Mn43 2.221 . S
O61 Mn45 2.290 . S
O61 C55 1.284 . S
O62 Mn45 2.251 1_556 S
O62 C55 1.237 1_556 S
O63 Mn64 2.163 . S
O63 C77 1.244 . S
Mn64 O63 2.163 . S
Mn64 O67 2.160 . S
Mn64 O68 2.221 . S
Mn64 O70 2.163 . S
Mn64 O72 2.160 . S
Mn64 O82 2.221 . S
O65 Mn66 2.087 . S
O65 C77 1.256 . S
Mn66 O65 2.087 . S
Mn66 O73 2.089 . S
Mn66 O82 2.290 . S
Mn66 O83 2.251 . S
O67 Mn64 2.160 . S
O67 C78 1.239 1_655 S
O68 Mn64 2.221 . S
O68 Mn69 2.290 . S
O68 C79 1.278 . S
Mn69 O68 2.290 . S
Mn69 O71 2.089 1_655 S
Mn69 O74 2.251 . S
Mn69 O75 2.087 . S
O70 Mn64 2.163 . S
O70 C80 1.244 . S
O71 Mn69 2.089 1_455 S
O71 C78 1.256 . S
O72 Mn64 2.160 . S
O72 C81 1.239 . S
O73 Mn66 2.089 . S
O73 C81 1.256 . S
O74 Mn69 2.251 . S
O74 C79 1.241 . S
O75 Mn69 2.087 . S
O75 C80 1.256 . S
C76 O82 1.278 . S
C76 O83 1.241 . S
C77 O63 1.244 . S
C77 O65 1.256 . S
C78 O67 1.239 1_455 S
C78 O71 1.256 . S
C79 O68 1.278 . S
C79 O74 1.241 . S
C80 O70 1.244 . S
C80 O75 1.256 . S
C81 O72 1.239 . S
C81 O73 1.256 . S
O82 Mn64 2.221 . S
O82 Mn66 2.290 . S
O82 C76 1.278 . S
O83 Mn66 2.251 . S
O83 C76 1.241 . S
O84 Mn85 2.163 . S
O84 C98 1.244 . S
Mn85 O84 2.163 . S
Mn85 O88 2.160 . S
Mn85 O89 2.221 . S
Mn85 O91 2.163 1_455 S
Mn85 O93 2.160 . S
Mn85 O103 2.221 . S
O86 Mn87 2.087 . S
O86 C98 1.256 . S
Mn87 O86 2.087 . S
Mn87 O94 2.089 . S
Mn87 O103 2.290 . S
Mn87 O104 2.251 1_554 S
O88 Mn85 2.160 . S
O88 C99 1.239 1_565 S
O89 Mn85 2.221 . S
O89 Mn90 2.290 . S
O89 C100 1.278 . S
Mn90 O89 2.290 . S
Mn90 O92 2.089 1_565 S
Mn90 O95 2.251 . S
Mn90 O96 2.087 1_455 S
O91 Mn85 2.163 1_655 S
O91 C101 1.244 . S
O92 Mn90 2.089 1_545 S
O92 C99 1.256 . S
O93 Mn85 2.160 . S
O93 C102 1.239 . S
O94 Mn87 2.089 . S
O94 C102 1.256 . S
O95 Mn90 2.251 . S
O95 C100 1.241 . S
O96 Mn90 2.087 1_655 S
O96 C101 1.256 . S
C97 O103 1.284 . S
C97 O104 1.237 1_554 S
C98 O84 1.244 . S
C98 O86 1.256 . S
C99 O88 1.239 1_545 S
C99 O92 1.256 . S
C100 O89 1.278 . S
C100 O95 1.241 . S
C101 O91 1.244 . S
C101 O96 1.256 . S
C102 O93 1.239 . S
C102 O94 1.256 . S
O103 Mn85 2.221 . S
O103 Mn87 2.290 . S
O103 C97 1.284 . S
O104 Mn87 2.251 1_556 S
O104 C97 1.237 1_556 S
O105 Mn106 2.163 . S
O105 C119 1.244 . S
Mn106 O105 2.163 . S
Mn106 O109 2.160 . S
Mn106 O110 2.221 . S
Mn106 O112 2.163 1_545 S
Mn106 O114 2.160 . S
Mn106 O124 2.221 . S
O107 Mn108 2.087 . S
O107 C119 1.256 . S
Mn108 O107 2.087 . S
Mn108 O115 2.089 . S
Mn108 O124 2.290 . S
Mn108 O125 2.251 . S
O109 Mn106 2.160 . S
O109 C120 1.239 . S
O110 Mn106 2.221 . S
O110 Mn111 2.290 . S
O110 C121 1.278 . S
Mn111 O110 2.290 . S
Mn111 O113 2.089 . S
Mn111 O116 2.251 . S
Mn111 O117 2.087 1_545 S
O112 Mn106 2.163 1_565 S
O112 C122 1.244 . S
O113 Mn111 2.089 . S
O113 C120 1.256 . S
O114 Mn106 2.160 . S
O114 C123 1.239 . S
O115 Mn108 2.089 . S
O115 C123 1.256 . S
O116 Mn111 2.251 . S
O116 C121 1.241 . S
O117 Mn111 2.087 1_565 S
O117 C122 1.256 . S
C118 O124 1.278 . S
C118 O125 1.241 . S
C119 O105 1.244 . S
C119 O107 1.256 . S
C120 O109 1.239 . S
C120 O113 1.256 . S
C121 O110 1.278 . S
C121 O116 1.241 . S
C122 O112 1.244 . S
C122 O117 1.256 . S
C123 O114 1.239 . S
C123 O115 1.256 . S
O124 Mn106 2.221 . S
O124 Mn108 2.290 . S
O124 C118 1.278 . S
O125 Mn108 2.251 . S
O125 C118 1.241 . S
O126 Mn127 2.163 . S
O126 C140 1.244 . S
Mn127 O126 2.163 . S
Mn127 O130 2.160 . S
Mn127 O131 2.221 . S
Mn127 O133 2.163 . S
Mn127 O135 2.160 . S
Mn127 O145 2.221 . S
O128 Mn129 2.087 . S
O128 C140 1.256 . S
Mn129 O128 2.087 . S
Mn129 O136 2.089 . S
Mn129 O145 2.290 . S
Mn129 O146 2.251 . S
O130 Mn127 2.160 . S
O130 C141 1.239 1_565 S
O131 Mn127 2.221 . S
O131 Mn132 2.290 . S
O131 C142 1.278 . S
Mn132 O131 2.290 . S
Mn132 O134 2.089 1_565 S
Mn132 O137 2.251 . S
Mn132 O138 2.087 . S
O133 Mn127 2.163 . S
O133 C143 1.244 . S
O134 Mn132 2.089 1_545 S
O134 C141 1.256 . S
O135 Mn127 2.160 . S
O135 C144 1.239 . S
O136 Mn129 2.089 . S
O136 C144 1.256 . S
O137 Mn132 2.251 . S
O137 C142 1.241 . S
O138 Mn132 2.087 . S
O138 C143 1.256 . S
C139 O145 1.278 . S
C139 O146 1.241 . S
C140 O126 1.244 . S
C140 O128 1.256 . S
C141 O130 1.239 1_545 S
C141 O134 1.256 . S
C142 O131 1.278 . S
C142 O137 1.241 . S
C143 O133 1.244 . S
C143 O138 1.256 . S
C144 O135 1.239 . S
C144 O136 1.256 . S
O145 Mn127 2.221 . S
O145 Mn129 2.290 . S
O145 C139 1.278 . S
O146 Mn129 2.251 . S
O146 C139 1.241 . S
O147 Mn148 2.163 . S
O147 C161 1.244 . S
Mn148 O147 2.163 . S
Mn148 O151 2.160 . S
Mn148 O152 2.221 . S
Mn148 O154 2.163 1_655 S
Mn148 O156 2.160 . S
Mn148 O166 2.221 . S
O149 Mn150 2.087 . S
O149 C161 1.256 . S
Mn150 O149 2.087 . S
Mn150 O157 2.089 . S
Mn150 O166 2.290 . S
Mn150 O167 2.251 1_556 S
O151 Mn148 2.160 . S
O151 C162 1.239 . S
O152 Mn148 2.221 . S
O152 Mn153 2.290 . S
O152 C163 1.278 . S
Mn153 O152 2.290 . S
Mn153 O155 2.089 . S
Mn153 O158 2.251 . S
Mn153 O159 2.087 1_655 S
O154 Mn148 2.163 1_455 S
O154 C164 1.244 . S
O155 Mn153 2.089 . S
O155 C162 1.256 . S
O156 Mn148 2.160 . S
O156 C165 1.239 . S
O157 Mn150 2.089 . S
O157 C165 1.256 . S
O158 Mn153 2.251 . S
O158 C163 1.241 . S
O159 Mn153 2.087 1_455 S
O159 C164 1.256 . S
C160 O166 1.284 . S
C160 O167 1.237 1_556 S
C161 O147 1.244 . S
C161 O149 1.256 . S
C162 O151 1.239 . S
C162 O155 1.256 . S
C163 O152 1.278 . S
C163 O158 1.241 . S
C164 O154 1.244 . S
C164 O159 1.256 . S
C165 O156 1.239 . S
C165 O157 1.256 . S
O166 Mn148 2.221 . S
O166 Mn150 2.290 . S
O166 C160 1.284 . S
O167 Mn150 2.251 1_554 S
O167 C160 1.237 1_554 S
O168 Mn169 2.163 . S
O168 C182 1.244 . S
Mn169 O168 2.163 . S
Mn169 O172 2.160 . S
Mn169 O173 2.221 . S
Mn169 O175 2.163 1_565 S
Mn169 O177 2.160 . S
Mn169 O187 2.221 . S
O170 Mn171 2.087 . S
O170 C182 1.256 . S
Mn171 O170 2.087 . S
Mn171 O178 2.089 . S
Mn171 O187 2.290 . S
Mn171 O188 2.251 . S
O172 Mn169 2.160 . S
O172 C183 1.239 1_455 S
O173 Mn169 2.221 . S
O173 Mn174 2.290 . S
O173 C184 1.278 . S
Mn174 O173 2.290 . S
Mn174 O176 2.089 1_455 S
Mn174 O179 2.251 . S
Mn174 O180 2.087 1_565 S
O175 Mn169 2.163 1_545 S
O175 C185 1.244 . S
O176 Mn174 2.089 1_655 S
O176 C183 1.256 . S
O177 Mn169 2.160 . S
O177 C186 1.239 . S
O178 Mn171 2.089 . S
O178 C186 1.256 . S
O179 Mn174 2.251 . S
O179 C184 1.241 . S
O180 Mn174 2.087 1_545 S
O180 C185 1.256 . S
C181 O187 1.278 . S
C181 O188 1.241 . S
C182 O168 1.244 . S
C182 O170 1.256 . S
C183 O172 1.239 1_655 S
C183 O176 1.256 . S
C184 O173 1.278 . S
C184 O179 1.241 . S
C185 O175 1.244 . S
C185 O180 1.256 . S
C186 O177 1.239 . S
C186 O178 1.256 . S
O187 Mn169 2.221 . S
O187 Mn171 2.290 . S
O187 C181 1.278 . S
O188 Mn171 2.251 . S
O188 C181 1.241 . S
O189 Mn190 2.163 . S
O189 C203 1.244 . S
Mn190 O189 2.163 . S
Mn190 O193 2.160 . S
Mn190 O194 2.221 . S
Mn190 O196 2.163 . S
Mn190 O198 2.160 . S
Mn190 O208 2.221 . S
O191 Mn192 2.087 . S
O191 C203 1.256 . S
Mn192 O191 2.087 . S
Mn192 O199 2.089 . S
Mn192 O208 2.290 . S
Mn192 O209 2.251 1_556 S
O193 Mn190 2.160 . S
O193 C204 1.239 1_545 S
O194 Mn190 2.221 . S
O194 Mn195 2.290 . S
O194 C205 1.278 . S
Mn195 O194 2.290 . S
Mn195 O197 2.089 1_545 S
Mn195 O200 2.251 . S
Mn195 O201 2.087 . S
O196 Mn190 2.163 . S
O196 C206 1.244 . S
O197 Mn195 2.089 1_565 S
O197 C204 1.256 . S
O198 Mn190 2.160 . S
O198 C207 1.239 . S
O199 Mn192 2.089 . S
O199 C207 1.256 . S
O200 Mn195 2.251 . S
O200 C205 1.241 . S
O201 Mn195 2.087 . S
O201 C206 1.256 . S
C202 O208 1.284 . S
C202 O209 1.237 1_556 S
C203 O189 1.244 . S
C203 O191 1.256 . S
C204 O193 1.239 1_565 S
C204 O197 1.256 . S
C205 O194 1.278 . S
C205 O200 1.241 . S
C206 O196 1.244 . S
C206 O201 1.256 . S
C207 O198 1.239 . S
C207 O199 1.256 . S
O208 Mn190 2.221 . S
O208 Mn192 2.290 . S
O208 C202 1.284 . S
O209 Mn192 2.251 1_554 S
O209 C202 1.237 1_554 S
O210 Mn211 2.163 . S
O210 C224 1.244 . S
Mn211 O210 2.163 . S
Mn211 O214 2.160 . S
Mn211 O215 2.221 . S
Mn211 O217 2.163 1_455 S
Mn211 O219 2.160 . S
Mn211 O229 2.221 . S
O212 Mn213 2.087 . S
O212 C224 1.256 . S
Mn213 O212 2.087 . S
Mn213 O220 2.089 . S
Mn213 O229 2.290 . S
Mn213 O230 2.251 . S
O214 Mn211 2.160 . S
O214 C225 1.239 . S
O215 Mn211 2.221 . S
O215 Mn216 2.290 . S
O215 C226 1.278 . S
Mn216 O215 2.290 . S
Mn216 O218 2.089 . S
Mn216 O221 2.251 . S
Mn216 O222 2.087 1_455 S
O217 Mn211 2.163 1_655 S
O217 C227 1.244 . S
O218 Mn216 2.089 . S
O218 C225 1.256 . S
O219 Mn211 2.160 . S
O219 C228 1.239 . S
O220 Mn213 2.089 . S
O220 C228 1.256 . S
O221 Mn216 2.251 . S
O221 C226 1.241 . S
O222 Mn216 2.087 1_655 S
O222 C227 1.256 . S
C223 O229 1.278 . S
C223 O230 1.241 . S
C224 O210 1.244 . S
C224 O212 1.256 . S
C225 O214 1.239 . S
C225 O218 1.256 . S
C226 O215 1.278 . S
C226 O221 1.241 . S
C227 O217 1.244 . S
C227 O222 1.256 . S
C228 O219 1.239 . S
C228 O220 1.256 . S
O229 Mn211 2.221 . S
O229 Mn213 2.290 . S
O229 C223 1.278 . S
O230 Mn213 2.251 . S
O230 C223 1.241 . S
O231 Mn232 2.163 . S
O231 C245 1.244 . S
Mn232 O231 2.163 . S
Mn232 O235 2.160 . S
Mn232 O236 2.221 . S
Mn232 O238 2.163 1_545 S
Mn232 O240 2.160 . S
Mn232 O250 2.221 . S
O233 Mn234 2.087 . S
O233 C245 1.256 . S
Mn234 O233 2.087 . S
Mn234 O241 2.089 . S
Mn234 O250 2.290 . S
Mn234 O251 2.251 1_556 S
O235 Mn232 2.160 . S
O235 C246 1.239 1_655 S
O236 Mn232 2.221 . S
O236 Mn237 2.290 . S
O236 C247 1.278 . S
Mn237 O236 2.290 . S
Mn237 O239 2.089 1_655 S
Mn237 O242 2.251 . S
Mn237 O243 2.087 1_545 S
O238 Mn232 2.163 1_565 S
O238 C248 1.244 . S
O239 Mn237 2.089 1_455 S
O239 C246 1.256 . S
O240 Mn232 2.160 . S
O240 C249 1.239 . S
O241 Mn234 2.089 . S
O241 C249 1.256 . S
O242 Mn237 2.251 . S
O242 C247 1.241 . S
O243 Mn237 2.087 1_565 S
O243 C248 1.256 . S
C244 O250 1.284 . S
C244 O251 1.237 1_556 S
C245 O231 1.244 . S
C245 O233 1.256 . S
C246 O235 1.239 1_455 S
C246 O239 1.256 . S
C247 O236 1.278 . S
C247 O242 1.241 . S
C248 O238 1.244 . S
C248 O243 1.256 . S
C249 O240 1.239 . S
C249 O241 1.256 . S
O250 Mn232 2.221 . S
O250 Mn234 2.290 . S
O250 C244 1.284 . S
O251 Mn234 2.251 1_554 S
O251 C244 1.237 1_554 S
C99 C17 1.048 . S
C120 C38 1.048 . S
C59 C15 1.048 . S
C80 C36 1.048 . S
C101 C57 1.048 . S
C78 C122 1.048 . S
C183 C143 1.048 . S
C164 C204 1.048 . S
C225 C185 1.048 . S
C206 C246 1.048 . S
C227 C141 1.048 . S
C162 C248 1.048 . S
C98 C18 1.235 . S
C39 C119 1.235 . S
C60 C14 1.235 . S
C81 C35 1.235 . S
C56 C102 1.235 . S
C77 C123 1.235 . S
C182 C144 1.235 . S
C165 C203 1.235 . S
C186 C224 1.235 . S
C245 C207 1.235 . S
C228 C140 1.235 . S
C161 C249 1.235 . S
C226 C16 0.750 . S
C37 C247 0.750 . S
C58 C142 0.750 . S
C79 C163 0.750 . S
C100 C184 0.750 . S
C205 C121 0.750 . S
C202 C13 2.268 1_556 S
C223 C34 2.267 1_455 S
C55 C244 2.267 1_564 S
C76 C139 2.268 . S
C160 C97 2.267 1_656 S
C181 C118 2.267 1_565 S
