# Generated by pormake.
# Topology umy, (4)-cn, num edge types: 1
# Building blocks:
#     Node 0, Type 0, BuildingBlock: UXUYUI_clean_sbu_0, # of connection points: 4
#     Node 1, Type 0, BuildingBlock: UXUYUI_clean_sbu_0, # of connection points: 4
#     Node 2, Type 0, BuildingBlock: UXUYUI_clean_sbu_0, # of connection points: 4
#     Node 3, Type 0, BuildingBlock: UXUYUI_clean_sbu_0, # of connection points: 4
#     Node 4, Type 0, BuildingBlock: UXUYUI_clean_sbu_0, # of connection points: 4
#     Node 5, Type 0, BuildingBlock: UXUYUI_clean_sbu_0, # of connection points: 4
#     Node 6, Type 0, BuildingBlock: UXUYUI_clean_sbu_0, # of connection points: 4
#     Node 7, Type 0, BuildingBlock: UXUYUI_clean_sbu_0, # of connection points: 4
#     Node 8, Type 0, BuildingBlock: UXUYUI_clean_sbu_0, # of connection points: 4
#     Node 9, Type 0, BuildingBlock: UXUYUI_clean_sbu_0, # of connection points: 4
#     Node 10, Type 0, BuildingBlock: UXUYUI_clean_sbu_0, # of connection points: 4
#     Node 11, Type 0, BuildingBlock: UXUYUI_clean_sbu_0, # of connection points: 4
#     Edge 12, Type (0, 0), BuildingBlock: CIFDUS_clean_linker_0, # of connection points: 2
#     Edge 13, Type (0, 0), BuildingBlock: CIFDUS_clean_linker_0, # of connection points: 2
#     Edge 14, Type (0, 0), BuildingBlock: CIFDUS_clean_linker_0, # of connection points: 2
#     Edge 15, Type (0, 0), BuildingBlock: CIFDUS_clean_linker_0, # of connection points: 2
#     Edge 16, Type (0, 0), BuildingBlock: CIFDUS_clean_linker_0, # of connection points: 2
#     Edge 17, Type (0, 0), BuildingBlock: CIFDUS_clean_linker_0, # of connection points: 2
#     Edge 18, Type (0, 0), BuildingBlock: CIFDUS_clean_linker_0, # of connection points: 2
#     Edge 19, Type (0, 0), BuildingBlock: CIFDUS_clean_linker_0, # of connection points: 2
#     Edge 20, Type (0, 0), BuildingBlock: CIFDUS_clean_linker_0, # of connection points: 2
#     Edge 21, Type (0, 0), BuildingBlock: CIFDUS_clean_linker_0, # of connection points: 2
#     Edge 22, Type (0, 0), BuildingBlock: CIFDUS_clean_linker_0, # of connection points: 2
#     Edge 23, Type (0, 0), BuildingBlock: CIFDUS_clean_linker_0, # of connection points: 2
#     Edge 24, Type (0, 0), BuildingBlock: CIFDUS_clean_linker_0, # of connection points: 2
#     Edge 25, Type (0, 0), BuildingBlock: CIFDUS_clean_linker_0, # of connection points: 2
#     Edge 26, Type (0, 0), BuildingBlock: CIFDUS_clean_linker_0, # of connection points: 2
#     Edge 27, Type (0, 0), BuildingBlock: CIFDUS_clean_linker_0, # of connection points: 2
#     Edge 28, Type (0, 0), BuildingBlock: CIFDUS_clean_linker_0, # of connection points: 2
#     Edge 29, Type (0, 0), BuildingBlock: CIFDUS_clean_linker_0, # of connection points: 2
#     Edge 30, Type (0, 0), BuildingBlock: CIFDUS_clean_linker_0, # of connection points: 2
#     Edge 31, Type (0, 0), BuildingBlock: CIFDUS_clean_linker_0, # of connection points: 2
#     Edge 32, Type (0, 0), BuildingBlock: CIFDUS_clean_linker_0, # of connection points: 2
#     Edge 33, Type (0, 0), BuildingBlock: CIFDUS_clean_linker_0, # of connection points: 2
#     Edge 34, Type (0, 0), BuildingBlock: CIFDUS_clean_linker_0, # of connection points: 2
#     Edge 35, Type (0, 0), BuildingBlock: CIFDUS_clean_linker_0, # of connection points: 2
# Relax obj value: 0.205
# Max RMSD: 0.156
# Mean RMSD: 0.156
data_MOF--net-umy--node1-UXUYUI_clean_sbu_0--edge1-CIFDUS_clean_linker_0
_symmetry_space_group_name_H-M    P1
_symmetry_Int_Tables_number       1
_symmetry_cell_setting            triclinic
loop_
_symmetry_equiv_pos_as_xyz
'x, y, z'
_cell_length_a     53.763612
_cell_length_b     53.799979
_cell_length_c     60.748667
_cell_angle_alpha  89.972786
_cell_angle_beta   90.009505
_cell_angle_gamma 119.99673
loop_
_atom_site_label
_atom_site_type_symbol
_atom_site_fract_x
_atom_site_fract_y
_atom_site_fract_z
_atom_type_partial_charge
Li0 Li 0.09016 0.34502 0.09347 0.0
Li1 Li 0.09412 0.36 0.1319 0.0
Li2 Li 0.04545 0.32731 0.11473 0.0
Li3 Li 0.0728 0.37891 0.10561 0.0
C4 C 0.08128 0.29729 0.11626 0.0
N5 N 0.08829 0.25072 0.10769 0.0
C6 C 0.10483 0.29624 0.12491 0.0
C7 C 0.06102 0.27442 0.10361 0.0
C8 C 0.10808 0.27259 0.12028 0.0
C9 C 0.06501 0.25113 0.09937 0.0
C10 C 0.13817 0.40737 0.11247 0.0
C11 C 0.16492 0.45222 0.13192 0.0
N12 N 0.1898 0.45285 0.12664 0.0
C13 C 0.16404 0.40866 0.10698 0.0
C14 C 0.13863 0.42949 0.12483 0.0
C15 C 0.1899 0.43174 0.1144 0.0
C16 C 0.10165 0.3308 0.05027 0.0
N17 N 0.11012 0.33607 0.07168 0.0
C18 C 0.14991 0.32918 0.0642 0.0
C19 C 0.13383 0.33555 0.07875 0.0
C20 C 0.14162 0.3233 0.04201 0.0
C21 C 0.11717 0.3243 0.03507 0.0
H22 H 0.08292 0.33169 0.04497 0.0
H23 H 0.14038 0.34028 0.09576 0.0
C24 C 0.10534 0.36857 0.17762 0.0
N25 N 0.11649 0.36725 0.15786 0.0
C26 C 0.12096 0.37263 0.19695 0.0
C27 C 0.15902 0.37331 0.1753 0.0
C28 C 0.14275 0.36947 0.15637 0.0
C29 C 0.14809 0.37483 0.19594 0.0
H30 H 0.08405 0.36583 0.17845 0.0
H31 H 0.15083 0.36767 0.14052 0.0
C32 C 0.03118 0.33167 0.07143 0.0
N33 N 0.98374 0.30339 0.0444 0.0
C34 C 0.01439 0.34408 0.0665 0.0
C35 C 0.02412 0.30509 0.06232 0.0
C36 C 0.99042 0.32939 0.05288 0.0
C37 C 0.99998 0.29107 0.04878 0.0
C38 C 0.04645 0.37413 0.14681 0.0
C39 C 0.01669 0.362 0.14866 0.0
C40 C 0.06456 0.39992 0.15762 0.0
C41 C 0.00556 0.37621 0.16089 0.0
C42 C 0.05261 0.41347 0.16969 0.0
N43 N 0.0236 0.40146 0.17104 0.0
C44 C 0.00686 0.27641 0.13632 0.0
C45 C 0.98371 0.29431 0.11343 0.0
C46 C 0.98042 0.25475 0.1442 0.0
N47 N 0.00807 0.29578 0.12136 0.0
C48 C 0.95678 0.27298 0.12084 0.0
C49 C 0.95488 0.2531 0.13673 0.0
H50 H 0.02653 0.27842 0.14278 0.0
H51 H 0.9851 0.31041 0.10212 0.0
C52 C 0.09157 0.43488 0.0887 0.0
N53 N 0.06924 0.41161 0.09834 0.0
C54 C 0.08989 0.45956 0.08457 0.0
C55 C 0.04197 0.4356 0.09981 0.0
C56 C 0.04451 0.41136 0.10345 0.0
C57 C 0.06493 0.4603 0.09039 0.0
H58 H 0.11082 0.43437 0.08437 0.0
H59 H 0.02671 0.39235 0.11044 0.0
O60 O 0.07793 0.32045 0.12037 0.0
O61 O 0.11257 0.38475 0.10556 0.0
O62 O 0.05471 0.34576 0.08475 0.0
O63 O 0.0577 0.36051 0.13481 0.0
H64 H 0.12056 0.31361 0.13493 0.0
H65 H 0.04233 0.27456 0.09725 0.0
H66 H 0.12635 0.27161 0.12671 0.0
H67 H 0.04955 0.23333 0.08952 0.0
H68 H 0.16553 0.46942 0.14157 0.0
H69 H 0.1642 0.39202 0.09715 0.0
H70 H 0.11894 0.42926 0.12872 0.0
H71 H 0.21006 0.43289 0.11039 0.0
H72 H 0.16892 0.3293 0.07024 0.0
H73 H 0.10993 0.31983 0.01814 0.0
H74 H 0.11153 0.37312 0.21258 0.0
H75 H 0.17986 0.37493 0.17382 0.0
H76 H 0.01971 0.36477 0.0732 0.0
H77 H 0.03722 0.29546 0.06553 0.0
H78 H 0.97713 0.33867 0.04905 0.0
H79 H 0.9942 0.27043 0.04169 0.0
H80 H 0.00231 0.34197 0.14061 0.0
H81 H 0.08759 0.40924 0.15694 0.0
H82 H 0.98257 0.36715 0.16231 0.0
H83 H 0.06641 0.43348 0.17807 0.0
H84 H 0.9801 0.24029 0.15674 0.0
H85 H 0.93769 0.27248 0.11454 0.0
H86 H 0.1079 0.4778 0.07681 0.0
H87 H 0.02236 0.43507 0.10473 0.0
Li88 Li 0.7505 0.08691 0.25736 0.0
Li89 Li 0.74175 0.09655 0.29599 0.0
Li90 Li 0.72153 0.04877 0.28243 0.0
Li91 Li 0.70202 0.07771 0.26983 0.0
C92 C 0.77378 0.06002 0.28989 0.0
N93 N 0.79354 0.02265 0.29937 0.0
C94 C 0.78279 0.05859 0.3112 0.0
C95 C 0.7751 0.04266 0.27336 0.0
C96 C 0.79263 0.0395 0.31568 0.0
C97 C 0.7851 0.02387 0.27849 0.0
C98 C 0.76195 0.14247 0.26578 0.0
C99 C 0.78194 0.19186 0.25454 0.0
N100 N 0.80862 0.19688 0.25989 0.0
C101 C 0.78962 0.14818 0.27121 0.0
C102 C 0.75809 0.1645 0.25737 0.0
C103 C 0.81291 0.1758 0.26809 0.0
C104 C 0.77273 0.11313 0.21601 0.0
N105 N 0.77817 0.10188 0.2342 0.0
C106 C 0.82634 0.11865 0.22223 0.0
C107 C 0.80428 0.10424 0.23748 0.0
C108 C 0.82167 0.13118 0.20356 0.0
C109 C 0.79432 0.12801 0.2004 0.0
H110 H 0.75194 0.11144 0.21406 0.0
H111 H 0.80845 0.09606 0.25242 0.0
C112 C 0.75526 0.104 0.34029 0.0
N113 N 0.75657 0.11915 0.322 0.0
C114 C 0.7651 0.11784 0.36047 0.0
C115 C 0.77674 0.16265 0.34282 0.0
C116 C 0.76646 0.14787 0.32298 0.0
C117 C 0.77627 0.1476 0.36186 0.0
H118 H 0.7464 0.08105 0.33918 0.0
H119 H 0.76616 0.15937 0.30854 0.0
C120 C 0.70108 0.02759 0.24122 0.0
N121 N 0.67852 0.97514 0.22033 0.0
C122 C 0.67284 0.0061 0.24545 0.0
C123 C 0.71776 0.02258 0.22619 0.0
C124 C 0.66186 0.97967 0.23477 0.0
C125 C 0.70598 0.99587 0.21584 0.0
C126 C 0.68741 0.07334 0.31341 0.0
C127 C 0.66838 0.05457 0.3292 0.0
C128 C 0.69114 0.10089 0.31129 0.0
C129 C 0.6534 0.06369 0.34264 0.0
C130 C 0.67575 0.10919 0.32503 0.0
N131 N 0.65736 0.09058 0.34029 0.0
C132 C 0.70921 0.01073 0.31615 0.0
C133 C 0.70927 0.98855 0.28253 0.0
C134 C 0.70336 0.98616 0.32789 0.0
N135 N 0.71185 0.01154 0.29389 0.0
C136 C 0.70302 0.96324 0.29365 0.0
C137 C 0.69983 0.96175 0.31669 0.0
H138 H 0.71222 0.02952 0.3249 0.0
H139 H 0.71249 0.98982 0.26495 0.0
C140 C 0.66956 0.10229 0.25369 0.0
N141 N 0.66787 0.07832 0.26259 0.0
C142 C 0.64477 0.10425 0.25102 0.0
C143 C 0.61689 0.05642 0.26605 0.0
C144 C 0.64224 0.05551 0.26863 0.0
C145 C 0.61803 0.0812 0.25745 0.0
H146 H 0.69024 0.12017 0.24921 0.0
H147 H 0.64161 0.03701 0.27619 0.0
O148 O 0.76334 0.07802 0.28527 0.0
O149 O 0.73882 0.1154 0.26816 0.0
O150 O 0.7121 0.05375 0.25119 0.0
O151 O 0.70211 0.06455 0.30013 0.0
H152 H 0.78223 0.07206 0.32415 0.0
H153 H 0.76811 0.04341 0.25681 0.0
H154 H 0.79955 0.03807 0.33212 0.0
H155 H 0.78602 0.01015 0.26588 0.0
H156 H 0.77923 0.20908 0.24804 0.0
H157 H 0.79317 0.13158 0.27781 0.0
H158 H 0.73692 0.16057 0.25304 0.0
H159 H 0.8344 0.18047 0.27221 0.0
H160 H 0.84724 0.1211 0.22556 0.0
H161 H 0.78983 0.13733 0.18621 0.0
H162 H 0.7644 0.10544 0.37474 0.0
H163 H 0.78466 0.18552 0.34332 0.0
H164 H 0.65965 0.0097 0.25698 0.0
H165 H 0.73953 0.03916 0.22252 0.0
H166 H 0.6401 0.96275 0.23799 0.0
H167 H 0.71865 0.99163 0.20422 0.0
H168 H 0.6652 0.03316 0.33102 0.0
H169 H 0.70571 0.11575 0.29917 0.0
H170 H 0.6386 0.04938 0.35492 0.0
H171 H 0.67843 0.13043 0.32355 0.0
H172 H 0.70207 0.98654 0.34566 0.0
H173 H 0.70056 0.94505 0.28426 0.0
H174 H 0.64652 0.12366 0.24419 0.0
H175 H 0.59676 0.03836 0.2715 0.0
Li176 Li 0.66248 0.75094 0.42911 0.0
Li177 Li 0.64256 0.73894 0.46793 0.0
Li178 Li 0.6721 0.7212 0.45355 0.0
Li179 Li 0.62361 0.69995 0.44032 0.0
C180 C 0.71036 0.77343 0.46424 0.0
N181 N 0.76641 0.79437 0.47764 0.0
C182 C 0.71666 0.77351 0.48656 0.0
C183 C 0.73252 0.78417 0.44873 0.0
C184 C 0.74515 0.78412 0.493 0.0
C185 C 0.76074 0.79465 0.45585 0.0
C186 C 0.60268 0.7457 0.44044 0.0
C187 C 0.55487 0.73753 0.447 0.0
N188 N 0.56387 0.76522 0.44139 0.0
C189 C 0.61131 0.77398 0.43448 0.0
C190 C 0.57411 0.72722 0.44652 0.0
C191 C 0.59144 0.78348 0.43517 0.0
C192 C 0.66906 0.77397 0.38558 0.0
N193 N 0.67502 0.78011 0.40732 0.0
C194 C 0.69415 0.83012 0.40048 0.0
C195 C 0.68797 0.80755 0.41486 0.0
C196 C 0.68739 0.82441 0.37807 0.0
C197 C 0.67538 0.79606 0.37049 0.0
H198 H 0.65855 0.7519 0.3801 0.0
H199 H 0.69226 0.81173 0.43227 0.0
C200 C 0.63609 0.74329 0.51339 0.0
N201 N 0.63503 0.75453 0.49359 0.0
C202 C 0.63206 0.75456 0.53285 0.0
C203 C 0.62678 0.78943 0.5113 0.0
C204 C 0.63077 0.77735 0.49223 0.0
C205 C 0.62744 0.77802 0.53196 0.0
H206 H 0.64059 0.72584 0.5141 0.0
H207 H 0.6311 0.78663 0.47642 0.0
C208 C 0.67467 0.70205 0.41327 0.0
N209 N 0.70642 0.67948 0.39555 0.0
C210 C 0.6684 0.67434 0.41894 0.0
C211 C 0.69687 0.71822 0.39846 0.0
C212 C 0.68479 0.66335 0.40986 0.0
C213 C 0.71271 0.70642 0.38969 0.0
C214 C 0.61398 0.68011 0.48322 0.0
C215 C 0.61407 0.65594 0.4916 0.0
C216 C 0.59055 0.68391 0.48739 0.0
C217 C 0.5906 0.6359 0.50389 0.0
C218 C 0.5675 0.66342 0.49978 0.0
N219 N 0.56798 0.64002 0.50769 0.0
C220 C 0.69557 0.70112 0.48445 0.0
C221 C 0.72483 0.7174 0.45262 0.0
C222 C 0.71415 0.69349 0.49435 0.0
N223 N 0.70078 0.71232 0.4638 0.0
C224 C 0.74413 0.71003 0.46194 0.0
C225 C 0.73865 0.69753 0.48301 0.0
H226 H 0.67708 0.69846 0.49345 0.0
H227 H 0.72924 0.72733 0.43658 0.0
C228 C 0.57001 0.66766 0.4184 0.0
N229 N 0.58998 0.66591 0.43099 0.0
C230 C 0.54389 0.64298 0.41365 0.0
C231 C 0.55993 0.61506 0.4341 0.0
C232 C 0.58577 0.64021 0.43828 0.0
C233 C 0.53831 0.61624 0.42192 0.0
H234 H 0.57413 0.68832 0.41243 0.0
H235 H 0.60223 0.63929 0.44783 0.0
O236 O 0.68255 0.76237 0.45754 0.0
O237 O 0.62185 0.73596 0.43959 0.0
O238 O 0.65884 0.71316 0.42189 0.0
O239 O 0.63664 0.69969 0.47081 0.0
H240 H 0.69967 0.76513 0.49873 0.0
H241 H 0.7279 0.78406 0.43137 0.0
H242 H 0.75036 0.78413 0.51021 0.0
H243 H 0.77812 0.80287 0.44403 0.0
H244 H 0.53275 0.72347 0.45174 0.0
H245 H 0.63319 0.78857 0.42961 0.0
H246 H 0.56669 0.70507 0.45065 0.0
H247 H 0.59795 0.80539 0.43077 0.0
H248 H 0.70356 0.85176 0.40686 0.0
H249 H 0.66976 0.79091 0.35331 0.0
H250 H 0.63341 0.74556 0.54845 0.0
H251 H 0.62337 0.80758 0.50991 0.0
H252 H 0.65127 0.6616 0.43038 0.0
H253 H 0.70189 0.73969 0.39389 0.0
H254 H 0.68034 0.64201 0.4142 0.0
H255 H 0.73004 0.7187 0.37828 0.0
H256 H 0.63191 0.65248 0.48839 0.0
H257 H 0.59031 0.70263 0.48135 0.0
H258 H 0.59032 0.61703 0.51037 0.0
H259 H 0.54925 0.66616 0.50313 0.0
H260 H 0.70951 0.68481 0.51089 0.0
H261 H 0.76288 0.71373 0.45267 0.0
H262 H 0.52818 0.6449 0.40375 0.0
H263 H 0.55666 0.59508 0.44098 0.0
Li264 Li 0.95367 0.67229 0.61761 0.0
Li265 Li 0.92834 0.62237 0.60517 0.0
Li266 Li 0.91141 0.65592 0.5942 0.0
Li267 Li 0.90519 0.63819 0.63211 0.0
C268 C 0.97368 0.66074 0.57805 0.0
N269 N 0.02363 0.6655 0.56122 0.0
C270 C 0.99123 0.65471 0.59131 0.0
C271 C 0.98151 0.66919 0.55621 0.0
C272 C 0.01639 0.65723 0.58251 0.0
C273 C 0.00686 0.67148 0.548 0.0
C274 C 0.95001 0.62436 0.64993 0.0
C275 C 0.93992 0.58538 0.67472 0.0
N276 N 0.96837 0.59789 0.67955 0.0
C277 C 0.97914 0.63697 0.6553 0.0
C278 C 0.93021 0.59846 0.65985 0.0
C279 C 0.98799 0.6232 0.67024 0.0
C280 C 0.988 0.70799 0.64985 0.0
N281 N 0.98905 0.70324 0.62802 0.0
C282 C 0.03903 0.73852 0.62681 0.0
C283 C 0.01367 0.71849 0.61623 0.0
C284 C 0.03881 0.74288 0.64964 0.0
C285 C 0.01263 0.7278 0.661 0.0
H286 H 0.96803 0.69569 0.65873 0.0
H287 H 0.01389 0.71466 0.59879 0.0
C288 C 0.91413 0.57265 0.58029 0.0
N289 N 0.93178 0.58997 0.59646 0.0
C290 C 0.91403 0.5474 0.57466 0.0
C291 C 0.95065 0.55856 0.60212 0.0
C292 C 0.95026 0.58367 0.60703 0.0
C293 C 0.93213 0.53989 0.58595 0.0
H294 H 0.89963 0.57814 0.57213 0.0
H295 H 0.96458 0.5979 0.61946 0.0
C296 C 0.92794 0.70608 0.61723 0.0
N297 N 0.94331 0.76214 0.60761 0.0
C298 C 0.91678 0.72012 0.62962 0.0
C299 C 0.9469 0.72051 0.59993 0.0
C300 C 0.92482 0.74848 0.6245 0.0
C301 C 0.95441 0.74886 0.59533 0.0
C302 C 0.86378 0.59058 0.60857 0.0
C303 C 0.83738 0.58728 0.60195 0.0
C304 C 0.86461 0.56782 0.61894 0.0
C305 C 0.8122 0.56143 0.60624 0.0
C306 C 0.83897 0.5423 0.6229 0.0
N307 N 0.8135 0.53967 0.61656 0.0
C308 C 0.90144 0.6743 0.552 0.0
C309 C 0.86774 0.66483 0.58051 0.0
C310 C 0.88547 0.68109 0.53745 0.0
N311 N 0.89216 0.66617 0.573 0.0
C312 C 0.85104 0.67111 0.56656 0.0
C313 C 0.8597 0.67916 0.54466 0.0
H314 H 0.92109 0.67536 0.54653 0.0
H315 H 0.86118 0.6587 0.59741 0.0
C316 C 0.89464 0.63203 0.67759 0.0
N317 N 0.88181 0.62877 0.65768 0.0
C318 C 0.87882 0.62673 0.69694 0.0
C319 C 0.83701 0.61571 0.67503 0.0
C320 C 0.85362 0.62099 0.65606 0.0
C321 C 0.84965 0.61862 0.69581 0.0
H322 H 0.91735 0.6394 0.67848 0.0
H323 H 0.84417 0.61953 0.64008 0.0
O324 O 0.94881 0.65822 0.58622 0.0
O325 O 0.94101 0.63754 0.63523 0.0
O326 O 0.92008 0.67825 0.62199 0.0
O327 O 0.88863 0.6158 0.60453 0.0
H328 H 0.98561 0.64838 0.60824 0.0
H329 H 0.96814 0.67392 0.5457 0.0
H330 H 0.03019 0.65267 0.59264 0.0
H331 H 0.01319 0.67801 0.53113 0.0
H332 H 0.92481 0.56533 0.6825 0.0
H333 H 0.9948 0.65708 0.64792 0.0
H334 H 0.90754 0.58874 0.65637 0.0
H335 H 0.01047 0.63264 0.67444 0.0
H336 H 0.05871 0.74969 0.61739 0.0
H337 H 0.01122 0.73095 0.67846 0.0
H338 H 0.89939 0.53349 0.5621 0.0
H339 H 0.96529 0.55377 0.61091 0.0
H340 H 0.90203 0.70918 0.64303 0.0
H341 H 0.9557 0.70998 0.59011 0.0
H342 H 0.91635 0.75963 0.63395 0.0
H343 H 0.96905 0.76029 0.58199 0.0
H344 H 0.83632 0.60452 0.59368 0.0
H345 H 0.88482 0.5697 0.62369 0.0
H346 H 0.79162 0.55866 0.60134 0.0
H347 H 0.83933 0.52455 0.63096 0.0
H348 H 0.89284 0.68721 0.52068 0.0
H349 H 0.83163 0.66988 0.5729 0.0
H350 H 0.88956 0.62992 0.71264 0.0
H351 H 0.81461 0.60964 0.67348 0.0
Li352 Li 0.30636 0.93243 0.76827 0.0
Li353 Li 0.28379 0.95847 0.78022 0.0
Li354 Li 0.26778 0.91226 0.79567 0.0
Li355 Li 0.25575 0.91773 0.75708 0.0
C356 C 0.32267 0.93921 0.81171 0.0
N357 N 0.35558 0.92478 0.83799 0.0
C358 C 0.34083 0.95833 0.82773 0.0
C359 C 0.32139 0.91276 0.80903 0.0
C360 C 0.35726 0.95064 0.84085 0.0
C361 C 0.33815 0.90587 0.82248 0.0
C362 C 0.30441 0.97925 0.74007 0.0
C363 C 0.30276 0.01303 0.7149 0.0
N364 N 0.32908 0.03358 0.72207 0.0
C365 C 0.33154 1.00058 0.74706 0.0
C366 C 0.28993 0.98538 0.72377 0.0
C367 C 0.34361 0.02798 0.73782 0.0
C368 C 0.34066 0.91436 0.74544 0.0
N369 N 0.34134 0.93431 0.75952 0.0
C370 C 0.39197 0.95487 0.76446 0.0
C371 C 0.36638 0.9547 0.76868 0.0
C372 C 0.39186 0.93411 0.7504 0.0
C373 C 0.36586 0.91393 0.74054 0.0
H374 H 0.32047 0.89848 0.73833 0.0
H375 H 0.36637 0.97049 0.77969 0.0
C376 C 0.30208 0.00446 0.80907 0.0
N377 N 0.29053 0.9959 0.78868 0.0
C378 C 0.30661 0.03034 0.81783 0.0
C379 C 0.28666 0.03817 0.78469 0.0
C380 C 0.28285 0.01221 0.77641 0.0
C381 C 0.29874 0.04751 0.80566 0.0
H382 H 0.3072 0.99082 0.81877 0.0
H383 H 0.27325 0.00491 0.76041 0.0
C384 C 0.2508 0.86501 0.76626 0.0
N385 N 0.20861 0.80831 0.76084 0.0
C386 C 0.22345 0.85499 0.7752 0.0
C387 C 0.25669 0.84615 0.75461 0.0
C388 C 0.20242 0.82627 0.77227 0.0
C389 C 0.23508 0.81757 0.75204 0.0
C390 C 0.22896 0.94266 0.78505 0.0
C391 C 0.2214 0.94987 0.80508 0.0
C392 C 0.22233 0.95152 0.76534 0.0
C393 C 0.20731 0.96576 0.80506 0.0
C394 C 0.20812 0.96727 0.76601 0.0
N395 N 0.20099 0.97404 0.78569 0.0
C396 C 0.24638 0.9008 0.83856 0.0
C397 C 0.25261 0.86357 0.82371 0.0
C398 C 0.23484 0.88514 0.85784 0.0
N399 N 0.25431 0.88958 0.82179 0.0
C400 C 0.24122 0.84715 0.84275 0.0
C401 C 0.23177 0.85774 0.86003 0.0
H402 H 0.24888 0.92189 0.83687 0.0
H403 H 0.25989 0.85542 0.81044 0.0
C404 C 0.23307 0.89629 0.71399 0.0
N405 N 0.22665 0.89877 0.73525 0.0
C406 C 0.21107 0.8794 0.69913 0.0
C407 C 0.17654 0.86849 0.7283 0.0
C408 C 0.19903 0.88566 0.74245 0.0
C409 C 0.18244 0.86477 0.70644 0.0
H410 H 0.25527 0.90673 0.70877 0.0
H411 H 0.19448 0.88786 0.75945 0.0
O412 O 0.3066 0.94668 0.79866 0.0
O413 O 0.29219 0.95236 0.74895 0.0
O414 O 0.27162 0.89319 0.76858 0.0
O415 O 0.24322 0.92751 0.78469 0.0
H416 H 0.34238 0.979 0.82997 0.0
H417 H 0.30783 0.89771 0.79664 0.0
H418 H 0.37138 0.96526 0.8533 0.0
H419 H 0.33734 0.88549 0.82054 0.0
H420 H 0.29176 0.01817 0.70235 0.0
H421 H 0.34298 0.9961 0.75967 0.0
H422 H 0.26895 0.96899 0.71813 0.0
H423 H 0.36451 0.04478 0.74317 0.0
H424 H 0.41165 0.97105 0.77213 0.0
H425 H 0.36487 0.89752 0.72966 0.0
H426 H 0.31546 0.03647 0.83425 0.0
H427 H 0.28026 0.0508 0.77481 0.0
H428 H 0.21849 0.86922 0.78432 0.0
H429 H 0.27772 0.85349 0.74758 0.0
H430 H 0.18116 0.81827 0.77907 0.0
H431 H 0.23934 0.80276 0.74304 0.0
H432 H 0.22642 0.94344 0.82051 0.0
H433 H 0.22863 0.94687 0.74968 0.0
H434 H 0.20141 0.97153 0.82045 0.0
H435 H 0.203 0.97435 0.75087 0.0
H436 H 0.22775 0.89416 0.87067 0.0
H437 H 0.23984 0.82641 0.84391 0.0
H438 H 0.21646 0.87693 0.6824 0.0
H439 H 0.15473 0.85787 0.73451 0.0
Li440 Li 0.37745 0.3066 0.94085 0.0
Li441 Li 0.32603 0.27875 0.94999 0.0
Li442 Li 0.36103 0.26533 0.96653 0.0
Li443 Li 0.34658 0.25618 0.92789 0.0
C444 C 0.36969 0.32212 0.98578 0.0
N445 N 0.39053 0.36456 0.01761 0.0
C446 C 0.35924 0.3412 0.98722 0.0
C447 C 0.39051 0.32445 0.00076 0.0
C448 C 0.37011 0.36257 0.00335 0.0
C449 C 0.40084 0.34609 0.01666 0.0
C450 C 0.32905 0.30248 0.91087 0.0
C451 C 0.28626 0.29702 0.89353 0.0
N452 N 0.29838 0.32607 0.89279 0.0
C453 C 0.34118 0.33228 0.90982 0.0
C454 C 0.30148 0.28468 0.90254 0.0
C455 C 0.32529 0.34379 0.90064 0.0
C456 C 0.4272 0.34327 0.91712 0.0
N457 N 0.40989 0.34311 0.93351 0.0
C458 C 0.44142 0.3932 0.93994 0.0
C459 C 0.4163 0.3675 0.94467 0.0
C460 C 0.46004 0.39388 0.92343 0.0
C461 C 0.45248 0.36852 0.91178 0.0
H462 H 0.42161 0.32358 0.90849 0.0
H463 H 0.40213 0.36711 0.95735 0.0
C464 C 0.27145 0.25707 0.96851 0.0
N465 N 0.29236 0.28051 0.95795 0.0
C466 C 0.24854 0.25798 0.97848 0.0
C467 C 0.26837 0.30685 0.96591 0.0
C468 C 0.29081 0.30489 0.95597 0.0
C469 C 0.24728 0.28345 0.97796 0.0
H470 H 0.27321 0.23801 0.97011 0.0
H471 H 0.30779 0.32342 0.94777 0.0
C472 C 0.4136 0.28116 0.9448 0.0
N473 N 0.46949 0.29496 0.95368 0.0
C474 C 0.42541 0.26622 0.93446 0.0
C475 C 0.43034 0.3033 0.95946 0.0
C476 C 0.45366 0.27344 0.93923 0.0
C477 C 0.45851 0.30993 0.96377 0.0
C478 C 0.3047 0.21238 0.94872 0.0
C479 C 0.31006 0.19129 0.95704 0.0
C480 C 0.28186 0.20469 0.93417 0.0
C481 C 0.29266 0.16282 0.9504 0.0
C482 C 0.26496 0.176 0.92791 0.0
N483 N 0.27069 0.15583 0.93607 0.0
C484 C 0.35759 0.25117 0.01122 0.0
C485 C 0.38349 0.23512 0.98954 0.0
C486 C 0.36068 0.23771 0.02981 0.0
N487 N 0.36897 0.24965 0.99164 0.0
C488 C 0.38699 0.22123 0.00768 0.0
C489 C 0.37527 0.22221 0.02811 0.0
H490 H 0.34556 0.26231 0.01224 0.0
H491 H 0.39162 0.23357 0.97364 0.0
C492 C 0.3284 0.22563 0.88605 0.0
N493 N 0.34126 0.22865 0.90593 0.0
C494 C 0.32589 0.20441 0.87132 0.0
C495 C 0.3496 0.18998 0.89799 0.0
C496 C 0.35165 0.21131 0.91207 0.0
C497 C 0.33685 0.18641 0.87719 0.0
H498 H 0.32021 0.23968 0.88162 0.0
H499 H 0.3614 0.21397 0.92811 0.0
O500 O 0.359 0.30082 0.97022 0.0
O501 O 0.34425 0.29082 0.91978 0.0
O502 O 0.38593 0.2743 0.94032 0.0
O503 O 0.32192 0.24047 0.9546 0.0
H504 H 0.34325 0.33988 0.97581 0.0
H505 H 0.39854 0.30963 0.00029 0.0
H506 H 0.36234 0.37759 0.0045 0.0
H507 H 0.41699 0.34814 0.0283 0.0
H508 H 0.26484 0.28351 0.88712 0.0
H509 H 0.36254 0.34635 0.91613 0.0
H510 H 0.29191 0.26159 0.90308 0.0
H511 H 0.33433 0.3668 0.8998 0.0
H512 H 0.44616 0.41237 0.94905 0.0
H513 H 0.46631 0.36801 0.89904 0.0
H514 H 0.23252 0.2392 0.98719 0.0
H515 H 0.26852 0.32704 0.9652 0.0
H516 H 0.41293 0.24923 0.92286 0.0
H517 H 0.42182 0.31552 0.96717 0.0
H518 H 0.46303 0.26198 0.93141 0.0
H519 H 0.47169 0.32706 0.97508 0.0
H520 H 0.32764 0.19688 0.96834 0.0
H521 H 0.27738 0.22077 0.92767 0.0
H522 H 0.29667 0.14628 0.95659 0.0
H523 H 0.24733 0.16976 0.91655 0.0
H524 H 0.35086 0.23856 0.04514 0.0
H525 H 0.39843 0.20957 0.00568 0.0
H526 H 0.31594 0.20242 0.85542 0.0
H527 H 0.35772 0.17621 0.90348 0.0
Li528 Li 0.67719 0.96158 0.72172 0.0
Li529 Li 0.62518 0.93311 0.73164 0.0
Li530 Li 0.66025 0.91741 0.74319 0.0
Li531 Li 0.6468 0.916 0.70558 0.0
C532 C 0.6604 0.9763 0.76195 0.0
N533 N 0.66127 0.02285 0.78191 0.0
C534 C 0.65262 0.99361 0.75006 0.0
C535 C 0.66862 0.98263 0.78397 0.0
C536 C 0.65318 0.01704 0.76046 0.0
C537 C 0.66895 0.00628 0.79377 0.0
C538 C 0.63132 0.94682 0.68268 0.0
C539 C 0.59064 0.92317 0.65826 0.0
N540 N 0.60795 0.9374 0.64091 0.0
C541 C 0.64866 0.96132 0.66463 0.0
C542 C 0.60205 0.92763 0.6795 0.0
C543 C 0.63646 0.95621 0.64363 0.0
C544 C 0.72072 0.99789 0.69463 0.0
N545 N 0.70909 0.99834 0.71436 0.0
C546 C 0.74148 0.0489 0.71761 0.0
C547 C 0.71948 0.02302 0.72623 0.0
C548 C 0.7529 0.04921 0.69671 0.0
C549 C 0.74269 0.02307 0.68549 0.0
H550 H 0.71247 0.97786 0.68577 0.0
H551 H 0.71054 0.02287 0.74216 0.0
C552 C 0.57459 0.91836 0.75619 0.0
N553 N 0.59153 0.93455 0.73929 0.0
C554 C 0.5491 0.91825 0.76104 0.0
C555 C 0.55918 0.95163 0.73113 0.0
C556 C 0.58452 0.95128 0.72699 0.0
C557 C 0.54097 0.93479 0.74823 0.0
H558 H 0.58069 0.90521 0.76566 0.0
H559 H 0.59848 0.96416 0.71378 0.0
C560 C 0.71332 0.93943 0.72411 0.0
N561 N 0.76874 0.95774 0.73814 0.0
C562 C 0.73096 0.93205 0.71224 0.0
C563 C 0.72389 0.95613 0.74313 0.0
C564 C 0.7589 0.94151 0.7196 0.0
C565 C 0.75196 0.96518 0.74994 0.0
C566 C 0.60331 0.86714 0.72444 0.0
C567 C 0.61412 0.84866 0.72082 0.0
C568 C 0.57398 0.85709 0.72176 0.0
C569 C 0.59537 0.8204 0.71433 0.0
C570 C 0.55592 0.82866 0.71529 0.0
N571 N 0.5669 0.81107 0.71172 0.0
C572 C 0.66309 0.89716 0.78651 0.0
C573 C 0.68058 0.88148 0.75695 0.0
C574 C 0.66826 0.88029 0.80135 0.0
N575 N 0.66908 0.8972 0.76475 0.0
C576 C 0.68614 0.86448 0.77112 0.0
C577 C 0.67955 0.8633 0.79361 0.0
H578 H 0.65378 0.90976 0.79224 0.0
H579 H 0.68503 0.88176 0.73957 0.0
C580 C 0.66616 0.90503 0.66655 0.0
N581 N 0.64158 0.89617 0.67822 0.0
C582 C 0.66545 0.89311 0.64603 0.0
C583 C 0.61402 0.86314 0.64971 0.0
C584 C 0.61571 0.87582 0.67013 0.0
C585 C 0.63914 0.87182 0.63739 0.0
H586 H 0.68637 0.92165 0.67312 0.0
H587 H 0.59627 0.86975 0.67923 0.0
O588 O 0.65959 0.95295 0.7523 0.0
O589 O 0.64296 0.95099 0.70331 0.0
O590 O 0.68587 0.93018 0.71701 0.0
O591 O 0.62123 0.89486 0.73082 0.0
H592 H 0.64658 0.98926 0.73293 0.0
H593 H 0.67464 0.96936 0.7934 0.0
H594 H 0.64727 0.03067 0.75144 0.0
H595 H 0.67528 0.01145 0.81081 0.0
H596 H 0.56808 0.90823 0.65555 0.0
H597 H 0.67131 0.97629 0.66675 0.0
H598 H 0.58839 0.91584 0.69322 0.0
H599 H 0.64966 0.96719 0.6295 0.0
H600 H 0.74879 0.06853 0.72688 0.0
H601 H 0.75138 0.02208 0.66965 0.0
H602 H 0.53556 0.90487 0.7743 0.0
H603 H 0.55393 0.96502 0.72109 0.0
H604 H 0.7231 0.91906 0.69752 0.0
H605 H 0.71068 0.9621 0.75259 0.0
H606 H 0.77277 0.93593 0.71057 0.0
H607 H 0.7604 0.97811 0.76462 0.0
H608 H 0.63678 0.85617 0.72269 0.0
H609 H 0.56529 0.87115 0.72451 0.0
H610 H 0.60345 0.80589 0.71133 0.0
H611 H 0.53319 0.8206 0.71306 0.0
H612 H 0.66272 0.8799 0.81853 0.0
H613 H 0.69537 0.85222 0.76445 0.0
H614 H 0.68535 0.90029 0.63713 0.0
H615 H 0.59324 0.84712 0.64344 0.0
Li616 Li 0.71972 0.67377 0.88349 0.0
Li617 Li 0.69617 0.62301 0.89636 0.0
Li618 Li 0.74723 0.65855 0.90627 0.0
Li619 Li 0.73399 0.64159 0.86938 0.0
C620 C 0.68882 0.66078 0.92372 0.0
N621 N 0.6428 0.66292 0.94187 0.0
C622 C 0.66469 0.65416 0.91089 0.0
C623 C 0.68954 0.66848 0.94577 0.0
C624 C 0.64165 0.65535 0.92037 0.0
C625 C 0.66607 0.66946 0.95464 0.0
C626 C 0.68593 0.62273 0.84773 0.0
C627 C 0.66724 0.57822 0.82769 0.0
N628 N 0.66814 0.59221 0.80878 0.0
C629 C 0.68651 0.63662 0.82812 0.0
C630 C 0.67614 0.59327 0.84753 0.0
C631 C 0.6775 0.62083 0.8086 0.0
C632 C 0.72296 0.71174 0.85254 0.0
N633 N 0.71454 0.70469 0.87378 0.0
C634 C 0.69745 0.73812 0.8748 0.0
C635 C 0.70282 0.71804 0.88529 0.0
C636 C 0.70429 0.74435 0.85239 0.0
C637 C 0.71794 0.73146 0.84146 0.0
H638 H 0.73298 0.70138 0.84402 0.0
H639 H 0.69701 0.71273 0.90237 0.0
C640 C 0.66058 0.57402 0.92264 0.0
N641 N 0.66094 0.59064 0.90564 0.0
C642 C 0.63505 0.54921 0.92844 0.0
C643 C 0.61073 0.55954 0.89946 0.0
C644 C 0.63664 0.5841 0.89427 0.0
C645 C 0.60974 0.54151 0.91658 0.0
H646 H 0.68027 0.57972 0.93136 0.0
H647 H 0.63745 0.59774 0.8809 0.0
C648 C 0.77824 0.70943 0.88436 0.0
N649 N 0.81662 0.76573 0.89546 0.0
C650 C 0.8034 0.72526 0.87215 0.0
C651 C 0.77262 0.72224 0.90225 0.0
C652 C 0.82253 0.75369 0.87802 0.0
C653 C 0.79228 0.75073 0.90758 0.0
C654 C 0.7382 0.5988 0.89031 0.0
C655 C 0.76702 0.60774 0.88606 0.0
C656 C 0.7176 0.56966 0.88889 0.0
C657 C 0.77474 0.58738 0.88025 0.0
C658 C 0.7262 0.54997 0.88306 0.0
N659 N 0.75434 0.55916 0.87887 0.0
C660 C 0.77249 0.66887 0.9496 0.0
C661 C 0.8033 0.67681 0.91924 0.0
C662 C 0.79501 0.67538 0.96435 0.0
N663 N 0.77702 0.66943 0.92752 0.0
C664 C 0.82617 0.68309 0.9333 0.0
C665 C 0.82211 0.68207 0.95616 0.0
H666 H 0.75134 0.6629 0.95574 0.0
H667 H 0.80639 0.67744 0.90162 0.0
C668 C 0.76196 0.6579 0.82948 0.0
N669 N 0.74742 0.63417 0.84228 0.0
C670 C 0.77205 0.65596 0.8088 0.0
C671 C 0.75206 0.60505 0.81464 0.0
C672 C 0.74205 0.60793 0.83519 0.0
C673 C 0.76718 0.62929 0.80116 0.0
H674 H 0.76541 0.67838 0.83526 0.0
H675 H 0.72956 0.58912 0.84517 0.0
O676 O 0.7115 0.65933 0.91497 0.0
O677 O 0.69539 0.63792 0.86695 0.0
O678 O 0.75948 0.6815 0.87878 0.0
O679 O 0.73019 0.61833 0.89617 0.0
H680 H 0.66385 0.64847 0.89375 0.0
H681 H 0.70804 0.67362 0.95593 0.0
H682 H 0.62287 0.65034 0.91062 0.0
H683 H 0.66633 0.67539 0.97169 0.0
H684 H 0.65981 0.55547 0.82729 0.0
H685 H 0.69384 0.65933 0.82792 0.0
H686 H 0.6759 0.58222 0.86246 0.0
H687 H 0.67795 0.63133 0.7933 0.0
H688 H 0.68708 0.74778 0.88384 0.0
H689 H 0.72422 0.73619 0.82435 0.0
H690 H 0.63529 0.53582 0.94166 0.0
H691 H 0.59166 0.5547 0.89013 0.0
H692 H 0.80814 0.71564 0.85832 0.0
H693 H 0.75336 0.71044 0.91196 0.0
H694 H 0.84209 0.76618 0.86872 0.0
H695 H 0.7882 0.7609 0.92137 0.0
H696 H 0.78318 0.63018 0.88693 0.0
H697 H 0.69521 0.56234 0.89217 0.0
H698 H 0.79694 0.59403 0.87677 0.0
H699 H 0.71048 0.52737 0.88182 0.0
H700 H 0.79107 0.67435 0.9819 0.0
H701 H 0.84685 0.68858 0.92634 0.0
H702 H 0.78379 0.6752 0.79897 0.0
H703 H 0.74752 0.58403 0.80918 0.0
Li704 Li 0.09943 0.74161 0.03562 0.0
Li705 Li 0.08899 0.74915 0.07498 0.0
Li706 Li 0.0771 0.69948 0.06051 0.0
Li707 Li 0.05114 0.72263 0.04844 0.0
C708 C 0.14288 0.74209 0.06574 0.0
N709 N 0.19963 0.75628 0.07059 0.0
C710 C 0.16306 0.76887 0.07421 0.0
C711 C 0.15156 0.72238 0.06003 0.0
C712 C 0.19165 0.77568 0.07645 0.0
C713 C 0.18034 0.73 0.06253 0.0
C714 C 0.06569 0.77588 0.04241 0.0
C715 C 0.03427 0.79333 0.05392 0.0
N716 N 0.03062 0.7982 0.0325 0.0
C717 C 0.06178 0.78119 0.02053 0.0
C718 C 0.05195 0.78206 0.05927 0.0
C719 C 0.0439 0.79243 0.01586 0.0
C720 C 0.11261 0.75493 0.99118 0.0
N721 N 0.12467 0.75986 0.01152 0.0
C722 C 0.17083 0.79261 0.99664 0.0
C723 C 0.15318 0.77828 0.01456 0.0
C724 C 0.15894 0.78817 0.97542 0.0
C725 C 0.12941 0.76886 0.97281 0.0
H726 H 0.08976 0.74056 0.98931 0.0
H727 H 0.1622 0.78231 0.03089 0.0
C728 C 0.10445 0.76866 0.11963 0.0
N729 N 0.10513 0.77624 0.0982 0.0
C730 C 0.12021 0.78966 0.13546 0.0
C731 C 0.13653 0.82562 0.10682 0.0
C732 C 0.12023 0.80408 0.09169 0.0
C733 C 0.13707 0.81862 0.12907 0.0
H734 H 0.09238 0.74627 0.1243 0.0
H735 H 0.12074 0.80938 0.07445 0.0
C736 C 0.07089 0.68659 0.01525 0.0
N737 N 0.08022 0.65295 0.98581 0.0
C738 C 0.04813 0.66576 0.00279 0.0
C739 C 0.0984 0.69044 0.01259 0.0
C740 C 0.05327 0.64892 0.98804 0.0
C741 C 0.10269 0.67321 0.99766 0.0
C742 C 0.02652 0.69528 0.08687 0.0
C743 C 0.00797 0.66843 0.0777 0.0
C744 C 0.01686 0.70592 0.10379 0.0
C745 C 0.97981 0.65272 0.08549 0.0
C746 C 0.98855 0.68952 0.11115 0.0
N747 N 0.97076 0.6635 0.10191 0.0
C748 C 0.09298 0.66465 0.08484 0.0
C749 C 0.05914 0.64032 0.05652 0.0
C750 C 0.09425 0.63989 0.08968 0.0
N751 N 0.07603 0.66456 0.06821 0.0
C752 C 0.06001 0.61524 0.06058 0.0
C753 C 0.07796 0.61479 0.07723 0.0
H754 H 0.1059 0.68412 0.09412 0.0
H755 H 0.04523 0.64048 0.04378 0.0
C756 C 0.01194 0.71029 0.01522 0.0
N757 N 0.01448 0.71515 0.03726 0.0
C758 C 0.98659 0.70368 0.00431 0.0
C759 C 0.96679 0.708 0.03882 0.0
C760 C 0.99279 0.7148 0.04909 0.0
C761 C 0.96329 0.70187 0.01614 0.0
H762 H 0.0298 0.71171 0.00601 0.0
H763 H 0.99552 0.71967 0.06645 0.0
O764 O 0.11469 0.73495 0.0637 0.0
O765 O 0.08232 0.76401 0.04729 0.0
O766 O 0.06606 0.70312 0.02983 0.0
O767 O 0.05411 0.711 0.07947 0.0
H768 H 0.15684 0.78438 0.07879 0.0
H769 H 0.13627 0.70132 0.05388 0.0
H770 H 0.20749 0.79641 0.08284 0.0
H771 H 0.18732 0.71497 0.05811 0.0
H772 H 0.02335 0.79807 0.06678 0.0
H773 H 0.07218 0.77636 0.0073 0.0
H774 H 0.05463 0.77785 0.07628 0.0
H775 H 0.04051 0.79649 0.99899 0.0
H776 H 0.1935 0.80716 0.9994 0.0
H777 H 0.1192 0.76518 0.95684 0.0
H778 H 0.11958 0.78319 0.15242 0.0
H779 H 0.14957 0.84736 0.10083 0.0
H780 H 0.02666 0.66246 0.00466 0.0
H781 H 0.11629 0.70678 0.02175 0.0
H782 H 0.03583 0.63262 0.97839 0.0
H783 H 0.1239 0.676 0.99545 0.0
H784 H 0.01519 0.65997 0.06456 0.0
H785 H 0.03106 0.72668 0.11105 0.0
H786 H 0.96513 0.63197 0.07847 0.0
H787 H 0.9807 0.6975 0.12418 0.0
H788 H 0.10792 0.6405 0.10301 0.0
H789 H 0.04722 0.59665 0.05035 0.0
H790 H 0.98536 0.70012 0.98671 0.0
H791 H 0.94949 0.70703 0.0486 0.0
Li792 Li 0.33076 0.0444 0.21974 0.0
Li793 Li 0.37989 0.07258 0.23065 0.0
Li794 Li 0.34354 0.08644 0.24316 0.0
Li795 Li 0.36091 0.09195 0.20429 0.0
C796 C 0.32644 0.02848 0.26295 0.0
N797 N 0.28789 0.98268 0.28837 0.0
C798 C 0.32738 0.00297 0.26326 0.0
C799 C 0.30587 0.03066 0.27557 0.0
C800 C 0.30771 0.98007 0.27622 0.0
C801 C 0.28657 0.00727 0.2883 0.0
C802 C 0.38143 0.04618 0.19534 0.0
C803 C 0.42609 0.05131 0.18217 0.0
N804 N 0.41582 0.02289 0.18588 0.0
C805 C 0.37132 0.01702 0.19904 0.0
C806 C 0.40902 0.06348 0.1868 0.0
C807 C 0.38901 0.00564 0.19411 0.0
C808 C 0.29999 0.00372 0.18811 0.0
N809 N 0.29974 0.00753 0.21023 0.0
C810 C 0.25448 0.96397 0.21332 0.0
C811 C 0.27753 0.98822 0.22291 0.0
C812 C 0.25399 0.96018 0.19046 0.0
C813 C 0.27717 0.98024 0.17783 0.0
H814 H 0.31746 0.01965 0.17827 0.0
H815 H 0.27683 0.99212 0.24022 0.0
C816 C 0.43999 0.09578 0.23654 0.0
N817 N 0.41396 0.07159 0.23868 0.0
C818 C 0.46525 0.0947 0.23911 0.0
C819 C 0.43654 0.04415 0.24735 0.0
C820 C 0.41185 0.04619 0.24443 0.0
C821 C 0.46378 0.0685 0.24422 0.0
H822 H 0.4412 0.11577 0.23215 0.0
H823 H 0.39099 0.02724 0.24598 0.0
C824 C 0.29483 0.06132 0.20638 0.0
N825 N 0.24109 0.02992 0.18751 0.0
C826 C 0.2917 0.06098 0.18352 0.0
C827 C 0.27061 0.04578 0.21965 0.0
C828 C 0.26434 0.04496 0.1743 0.0
C829 C 0.24364 0.03002 0.20979 0.0
C830 C 0.39807 0.13901 0.22402 0.0
C831 C 0.39029 0.15884 0.23128 0.0
C832 C 0.4202 0.1475 0.2086 0.0
C833 C 0.40475 0.18681 0.223 0.0
C834 C 0.43409 0.17565 0.20068 0.0
N835 N 0.42615 0.19456 0.20799 0.0
C836 C 0.34868 0.11852 0.2823 0.0
C837 C 0.30924 0.10777 0.25896 0.0
C838 C 0.34262 0.13646 0.29518 0.0
N839 N 0.33233 0.10514 0.26432 0.0
C840 C 0.30227 0.12514 0.27142 0.0
C841 C 0.31958 0.14055 0.28938 0.0
H842 H 0.36728 0.11648 0.28593 0.0
H843 H 0.29696 0.09746 0.24437 0.0
C844 C 0.38132 0.11331 0.16108 0.0
N845 N 0.36748 0.11534 0.1791 0.0
C846 C 0.38572 0.13079 0.1428 0.0
C847 C 0.3613 0.15183 0.16196 0.0
C848 C 0.3574 0.13399 0.17984 0.0
C849 C 0.37559 0.15035 0.14308 0.0
H850 H 0.38883 0.09807 0.16087 0.0
H851 H 0.34617 0.13484 0.19434 0.0
O852 O 0.34595 0.0514 0.25081 0.0
O853 O 0.36467 0.05786 0.20053 0.0
O854 O 0.32154 0.0761 0.21568 0.0
O855 O 0.38375 0.11131 0.2316 0.0
H856 H 0.34284 1.00069 0.25341 0.0
H857 H 0.30473 0.05015 0.27554 0.0
H858 H 0.30815 0.96019 0.27656 0.0
H859 H 0.27052 0.00867 0.29811 0.0
H860 H 0.44757 0.0645 0.17574 0.0
H861 H 0.3502 0.00338 0.20593 0.0
H862 H 0.41739 0.08618 0.18418 0.0
H863 H 0.38151 0.98314 0.19697 0.0
H864 H 0.23665 0.94907 0.22347 0.0
H865 H 0.27739 0.97799 0.16012 0.0
H866 H 0.48565 0.11402 0.23632 0.0
H867 H 0.43424 0.02359 0.25171 0.0
H868 H 0.31021 0.07261 0.17298 0.0
H869 H 0.2727 0.04544 0.23736 0.0
H870 H 0.26162 0.04436 0.15663 0.0
H871 H 0.22475 0.01771 0.21985 0.0
H872 H 0.37312 0.15271 0.24304 0.0
H873 H 0.42611 0.13234 0.20237 0.0
H874 H 0.39887 0.20233 0.22844 0.0
H875 H 0.45106 0.18241 0.18861 0.0
H876 H 0.35669 0.14811 0.30877 0.0
H877 H 0.28402 0.12722 0.26656 0.0
H878 H 0.39702 0.12908 0.12865 0.0
H879 H 0.35267 0.16619 0.16276 0.0
Li880 Li 0.30941 0.37928 0.3936 0.0
Li881 Li 0.28331 0.32601 0.38601 0.0
Li882 Li 0.26895 0.35656 0.36895 0.0
Li883 Li 0.25808 0.3458 0.40727 0.0
C884 C 0.31218 0.36538 0.34445 0.0
N885 N 0.32132 0.37906 0.30025 0.0
C886 C 0.303 0.34364 0.32868 0.0
C887 C 0.32613 0.39408 0.33776 0.0
C888 C 0.30776 0.351 0.30641 0.0
C889 C 0.33056 0.40056 0.31533 0.0
C890 C 0.30967 0.339 0.42915 0.0
C891 C 0.31212 0.31309 0.46073 0.0
N892 N 0.34087 0.32484 0.45753 0.0
C893 C 0.33928 0.351 0.42629 0.0
C894 C 0.29599 0.32007 0.44663 0.0
C895 C 0.35466 0.3435 0.44076 0.0
C896 C 0.34813 0.43179 0.41483 0.0
N897 N 0.34556 0.41228 0.39949 0.0
C898 C 0.39527 0.44052 0.39025 0.0
C899 C 0.36845 0.41605 0.38739 0.0
C900 C 0.39865 0.46132 0.40579 0.0
C901 C 0.37463 0.45664 0.41827 0.0
H902 H 0.32951 0.42818 0.42422 0.0
H903 H 0.36579 0.4001 0.37535 0.0
C904 C 0.2695 0.27502 0.36477 0.0
N905 N 0.288 0.29358 0.37999 0.0
C906 C 0.27289 0.2526 0.35681 0.0
C907 C 0.31403 0.26819 0.38062 0.0
C908 C 0.30983 0.29042 0.38815 0.0
C909 C 0.29578 0.24933 0.36436 0.0
H910 H 0.2527 0.27828 0.35814 0.0
H911 H 0.32471 0.30569 0.39982 0.0
C912 C 0.26772 0.40321 0.38507 0.0
N913 N 0.25224 0.44155 0.36887 0.0
C914 C 0.23878 0.39451 0.38175 0.0
C915 C 0.28879 0.43145 0.38031 0.0
C916 C 0.23139 0.4142 0.37348 0.0
C917 C 0.28052 0.45051 0.37211 0.0
C918 C 0.22351 0.29225 0.38998 0.0
C919 C 0.1959 0.27793 0.38096 0.0
C920 C 0.23041 0.27963 0.40725 0.0
C921 C 0.17567 0.25115 0.38937 0.0
C922 C 0.20961 0.25282 0.4152 0.0
N923 N 0.18288 0.23925 0.40617 0.0
C924 C 0.23431 0.33567 0.33179 0.0
C925 C 0.26169 0.38646 0.33176 0.0
C926 C 0.22224 0.33576 0.3115 0.0
N927 N 0.25349 0.36075 0.34158 0.0
C928 C 0.24989 0.38758 0.31155 0.0
C929 C 0.22993 0.36197 0.30117 0.0
H930 H 0.22866 0.31549 0.33963 0.0
H931 H 0.27777 0.40611 0.33933 0.0
C932 C 0.23709 0.34249 0.45143 0.0
N933 N 0.23059 0.33895 0.42961 0.0
C934 C 0.2158 0.33741 0.46698 0.0
C935 C 0.18185 0.32538 0.4372 0.0
C936 C 0.20364 0.33056 0.42234 0.0
C937 C 0.18768 0.32869 0.45989 0.0
H938 H 0.25877 0.34935 0.45675 0.0
H939 H 0.1991 0.32807 0.4049 0.0
O940 O 0.30704 0.35858 0.3663 0.0
O941 O 0.29432 0.34651 0.41543 0.0
O942 O 0.27542 0.38434 0.39324 0.0
O943 O 0.24336 0.31873 0.38213 0.0
H944 H 0.29206 0.32133 0.33357 0.0
H945 H 0.33297 0.41116 0.34973 0.0
H946 H 0.30061 0.33439 0.29401 0.0
H947 H 0.34115 0.42267 0.30991 0.0
H948 H 0.30179 0.2984 0.47427 0.0
H949 H 0.35022 0.3656 0.41286 0.0
H950 H 0.27318 0.31093 0.44935 0.0
H951 H 0.37755 0.35247 0.43863 0.0
H952 H 0.41303 0.44334 0.38007 0.0
H953 H 0.37633 0.47191 0.43062 0.0
H954 H 0.25812 0.23838 0.34445 0.0
H955 H 0.33215 0.26665 0.38669 0.0
H956 H 0.22223 0.37273 0.38525 0.0
H957 H 0.31129 0.43851 0.38275 0.0
H958 H 0.20909 0.40772 0.37068 0.0
H959 H 0.29659 0.47239 0.36827 0.0
H960 H 0.19009 0.2875 0.3677 0.0
H961 H 0.25163 0.29032 0.41437 0.0
H962 H 0.1542 0.23986 0.38257 0.0
H963 H 0.21472 0.2428 0.42854 0.0
H964 H 0.20685 0.31554 0.30405 0.0
H965 H 0.25672 0.4082 0.30391 0.0
H966 H 0.22124 0.34011 0.4843 0.0
H967 H 0.16075 0.31935 0.43087 0.0
Li968 Li 0.95792 0.28505 0.55008 0.0
Li969 Li 0.93106 0.30679 0.56194 0.0
Li970 Li 0.9164 0.25613 0.57241 0.0
Li971 Li 0.91223 0.26926 0.53378 0.0
C972 C 0.97698 0.30588 0.5914 0.0
N973 N 0.02975 0.33341 0.61208 0.0
C974 C 0.99753 0.33369 0.58512 0.0
C975 C 0.98312 0.2921 0.60827 0.0
C976 C 0.02414 0.34722 0.59575 0.0
C977 C 0.00997 0.30639 0.61851 0.0
C978 C 0.94023 0.32461 0.51861 0.0
C979 C 0.90798 0.34067 0.50616 0.0
N980 N 0.92808 0.35836 0.4914 0.0
C981 C 0.96053 0.3429 0.50328 0.0
C982 C 0.91369 0.32342 0.52005 0.0
C983 C 0.954 0.35981 0.48968 0.0
C984 C 0.99796 0.29464 0.51867 0.0
N985 N 0.99498 0.29178 0.54089 0.0
C986 C 0.04014 0.29331 0.54399 0.0
C987 C 0.01549 0.29115 0.55367 0.0
C988 C 0.04318 0.29542 0.521 0.0
C989 C 0.02188 0.29637 0.50835 0.0
H990 H 0.98113 0.29454 0.50886 0.0
H991 H 0.01236 0.28789 0.5712 0.0
C992 C 0.91225 0.34005 0.58526 0.0
N993 N 0.93239 0.3413 0.57107 0.0
C994 C 0.91158 0.36498 0.59064 0.0
C995 C 0.95254 0.39194 0.56685 0.0
C996 C 0.95266 0.36662 0.56219 0.0
C997 C 0.93165 0.39126 0.58108 0.0
H998 H 0.89643 0.31962 0.5921 0.0
H999 H 0.96862 0.36708 0.55111 0.0
C1000 C 0.94341 0.23174 0.5431 0.0
N1001 N 0.97825 0.20776 0.53963 0.0
C1002 C 0.94824 0.2232 0.52257 0.0
C1003 C 0.95612 0.22787 0.56189 0.0
C1004 C 0.966 0.21121 0.52115 0.0
C1005 C 0.97367 0.21571 0.55979 0.0
C1006 C 0.86374 0.25105 0.562 0.0
C1007 C 0.8548 0.22343 0.55411 0.0
C1008 C 0.8438 0.25694 0.57191 0.0
C1009 C 0.82604 0.20213 0.55631 0.0
C1010 C 0.8152 0.23507 0.57377 0.0
N1011 N 0.80699 0.20834 0.56602 0.0
C1012 C 0.88807 0.23108 0.61317 0.0
C1013 C 0.88824 0.19906 0.58646 0.0
C1014 C 0.86927 0.20798 0.62651 0.0
N1015 N 0.89672 0.22615 0.59342 0.0
C1016 C 0.8695 0.1755 0.59914 0.0
C1017 C 0.85916 0.17975 0.61918 0.0
H1018 H 0.89469 0.25284 0.61809 0.0
H1019 H 0.89481 0.19563 0.57048 0.0
C1020 C 0.90722 0.2553 0.48965 0.0
N1021 N 0.89187 0.25719 0.50667 0.0
C1022 C 0.89459 0.24601 0.46902 0.0
C1023 C 0.85075 0.24173 0.48355 0.0
C1024 C 0.86436 0.25137 0.50389 0.0
C1025 C 0.86585 0.23868 0.46587 0.0
H1026 H 0.92934 0.26096 0.49218 0.0
H1027 H 0.85292 0.25416 0.51739 0.0
O1028 O 0.9508 0.29226 0.58129 0.0
O1029 O 0.94647 0.30794 0.53195 0.0
O1030 O 0.92692 0.24447 0.54481 0.0
O1031 O 0.89197 0.27207 0.56063 0.0
H1032 H 0.99309 0.34455 0.57204 0.0
H1033 H 0.96733 0.27058 0.61333 0.0
H1034 H 0.04034 0.3687 0.591 0.0
H1035 H 0.01508 0.29598 0.63155 0.0
H1036 H 0.88756 0.34 0.50713 0.0
H1037 H 0.98116 0.34405 0.50194 0.0
H1038 H 0.89765 0.30944 0.53176 0.0
H1039 H 0.96954 0.37409 0.47777 0.0
H1040 H 0.05607 0.2922 0.55421 0.0
H1041 H 0.02356 0.2981 0.49057 0.0
H1042 H 0.89511 0.36361 0.60166 0.0
H1043 H 0.96861 0.41186 0.55941 0.0
H1044 H 0.93852 0.22591 0.50787 0.0
H1045 H 0.95282 0.23461 0.57788 0.0
H1046 H 0.97008 0.20468 0.50535 0.0
H1047 H 0.9838 0.21278 0.57417 0.0
H1048 H 0.86988 0.21847 0.54633 0.0
H1049 H 0.85036 0.27818 0.57816 0.0
H1050 H 0.81886 0.18067 0.55031 0.0
H1051 H 0.79954 0.23932 0.58142 0.0
H1052 H 0.86159 0.21212 0.64178 0.0
H1053 H 0.86243 0.15409 0.59299 0.0
H1054 H 0.90697 0.24391 0.45583 0.0
H1055 H 0.82872 0.23682 0.48164 0.0
H1056 H 0.03528 0.5587 0.07424 0.0
H1057 H 0.1256 0.61157 0.08897 0.0
H1058 H 0.12933 0.56873 0.09479 0.0
H1059 H 0.10717 0.51625 0.09532 0.0
H1060 H 0.01783 0.46367 0.07751 0.0
H1061 H 0.01372 0.50648 0.07308 0.0
C1062 C 0.05592 0.56099 0.07843 0.0
C1063 C 0.08007 0.58852 0.08118 0.0
C1064 C 0.05815 0.53626 0.0812 0.0
C1065 C 0.10645 0.59079 0.08712 0.0
C1066 C 0.1087 0.56625 0.09026 0.0
C1067 C 0.08687 0.5141 0.09017 0.0
C1068 C 0.06283 0.48662 0.08688 0.0
C1069 C 0.08472 0.53887 0.08725 0.0
C1070 C 0.0366 0.48441 0.08058 0.0
C1071 C 0.03424 0.50893 0.07789 0.0
H1072 H 0.56565 0.0414 0.2417 0.0
H1073 H 0.61124 0.12598 0.27036 0.0
H1074 H 0.56759 0.12939 0.26918 0.0
H1075 H 0.51632 0.108 0.26062 0.0
H1076 H 0.47128 0.02423 0.23033 0.0
H1077 H 0.51461 0.02058 0.23211 0.0
C1078 C 0.56596 0.06053 0.24774 0.0
C1079 C 0.59163 0.08341 0.25608 0.0
C1080 C 0.54082 0.06238 0.24693 0.0
C1081 C 0.59183 0.10821 0.26362 0.0
C1082 C 0.56684 0.1101 0.26308 0.0
C1083 C 0.51598 0.08904 0.25418 0.0
C1084 C 0.49035 0.06636 0.24551 0.0
C1085 C 0.5412 0.0873 0.25479 0.0
C1086 C 0.4904 0.0418 0.23756 0.0
C1087 C 0.5153 0.03978 0.23837 0.0
H1088 H 0.52734 0.56166 0.41421 0.0
H1089 H 0.48509 0.61143 0.42219 0.0
H1090 H 0.43842 0.56818 0.41769 0.0
H1091 H 0.40947 0.51608 0.41195 0.0
H1092 H 0.45174 0.46609 0.40608 0.0
H1093 H 0.49845 0.50955 0.40955 0.0
C1094 C 0.50796 0.56308 0.41519 0.0
C1095 C 0.50989 0.5899 0.4185 0.0
C1096 C 0.48111 0.53803 0.41303 0.0
C1097 C 0.48442 0.59125 0.41928 0.0
C1098 C 0.45764 0.56645 0.41692 0.0
C1099 C 0.42887 0.51462 0.4117 0.0
C1100 C 0.42701 0.4878 0.4087 0.0
C1101 C 0.45572 0.5397 0.41389 0.0
C1102 C 0.45248 0.48646 0.40804 0.0
C1103 C 0.47923 0.5113 0.41013 0.0
H1104 H 0.9288 0.50057 0.61549 0.0
H1105 H 0.93375 0.51788 0.54584 0.0
H1106 H 0.93398 0.47332 0.53817 0.0
H1107 H 0.93353 0.42983 0.55139 0.0
H1108 H 0.92732 0.41196 0.621 0.0
H1109 H 0.92679 0.45636 0.62863 0.0
C1110 C 0.93005 0.4946 0.59865 0.0
C1111 C 0.93147 0.51253 0.58125 0.0
C1112 C 0.92994 0.4689 0.59439 0.0
C1113 C 0.93254 0.50434 0.55948 0.0
C1114 C 0.93278 0.47896 0.5551 0.0
C1115 C 0.93219 0.43577 0.56822 0.0
C1116 C 0.93067 0.41782 0.58563 0.0
C1117 C 0.93164 0.46116 0.57244 0.0
C1118 C 0.9284 0.42543 0.60735 0.0
C1119 C 0.92821 0.45083 0.61171 0.0
H1120 H 0.50139 0.9298 0.71811 0.0
H1121 H 0.51904 0.93871 0.78781 0.0
H1122 H 0.47445 0.93924 0.79464 0.0
H1123 H 0.43076 0.93779 0.78069 0.0
H1124 H 0.41289 0.92829 0.71103 0.0
H1125 H 0.45728 0.92739 0.70425 0.0
C1126 C 0.49553 0.93202 0.73478 0.0
C1127 C 0.51356 0.93438 0.75242 0.0
C1128 C 0.46986 0.9322 0.73857 0.0
C1129 C 0.50544 0.93669 0.77397 0.0
C1130 C 0.48003 0.93713 0.77787 0.0
C1131 C 0.43671 0.93571 0.76402 0.0
C1132 C 0.41868 0.93329 0.74636 0.0
C1133 C 0.46215 0.93503 0.76028 0.0
C1134 C 0.42635 0.93005 0.72489 0.0
C1135 C 0.45176 0.92964 0.72101 0.0
H1136 H 0.49843 0.43215 0.95272 0.0
H1137 H 0.48295 0.41591 0.88309 0.0
H1138 H 0.52792 0.45986 0.87492 0.0
H1139 H 0.57158 0.50287 0.88749 0.0
H1140 H 0.58698 0.51956 0.95707 0.0
H1141 H 0.54213 0.47541 0.96532 0.0
C1142 C 0.50477 0.43838 0.93575 0.0
C1143 C 0.4873 0.42079 0.91855 0.0
C1144 C 0.53067 0.46369 0.93117 0.0
C1145 C 0.4961 0.4289 0.89665 0.0
C1146 C 0.52175 0.4541 0.89196 0.0
C1147 C 0.565 0.497 0.90447 0.0
C1148 C 0.58256 0.51458 0.92164 0.0
C1149 C 0.53918 0.47165 0.90908 0.0
C1150 C 0.57399 0.50632 0.94355 0.0
C1151 C 0.54827 0.48115 0.94827 0.0
H1152 H 0.16527 0.2897 0.04946 0.0
H1153 H 0.15649 0.34165 0.99934 0.0
H1154 H 0.18706 0.33271 0.97459 0.0
H1155 H 0.21817 0.31185 0.96784 0.0
H1156 H 0.22846 0.2621 0.01917 0.0
H1157 H 0.19545 0.26846 0.04263 0.0
C1158 C 0.17015 0.29923 0.03316 0.0
C1159 C 0.15875 0.31652 0.02638 0.0
C1160 C 0.18805 0.29437 0.01917 0.0
C1161 C 0.16478 0.32809 0.00498 0.0
C1162 C 0.18243 0.32314 0.99086 0.0
C1163 C 0.21323 0.30244 0.98417 0.0
C1164 C 0.22577 0.28635 0.99157 0.0
C1165 C 0.19449 0.30659 0.99787 0.0
C1166 C 0.21879 0.27408 0.01274 0.0
C1167 C 0.20007 0.27792 0.02632 0.0
H1168 H 0.83624 0.18345 0.18642 0.0
H1169 H 0.86177 0.11914 0.18706 0.0
H1170 H 0.9044 0.15051 0.16533 0.0
H1171 H 0.93573 0.1972 0.14785 0.0
H1172 H 0.91082 0.26204 0.14836 0.0
H1173 H 0.86635 0.22921 0.16735 0.0
C1174 C 0.85085 0.17609 0.18145 0.0
C1175 C 0.84587 0.14902 0.18841 0.0
C1176 C 0.87548 0.19435 0.16915 0.0
C1177 C 0.86527 0.14 0.18212 0.0
C1178 C 0.88962 0.1579 0.16966 0.0
C1179 C 0.92057 0.20416 0.15211 0.0
C1180 C 0.92674 0.23212 0.14668 0.0
C1181 C 0.89521 0.18533 0.16342 0.0
C1182 C 0.90657 0.24056 0.15203 0.0
C1183 C 0.88118 0.22186 0.16308 0.0
H1184 H 0.66595 0.85975 0.38359 0.0
H1185 H 0.71687 0.8411 0.33912 0.0
H1186 H 0.72478 0.88161 0.31565 0.0
H1187 H 0.71889 0.92371 0.30896 0.0
H1188 H 0.66508 0.93973 0.35271 0.0
H1189 H 0.65693 0.89911 0.37538 0.0
C1190 C 0.67878 0.86461 0.36874 0.0
C1191 C 0.69113 0.84783 0.36316 0.0
C1192 C 0.68286 0.88756 0.3553 0.0
C1193 C 0.70724 0.85387 0.34371 0.0
C1194 C 0.71179 0.87702 0.33036 0.0
C1195 C 0.70501 0.91808 0.32323 0.0
C1196 C 0.69309 0.93526 0.32924 0.0
C1197 C 0.69989 0.8942 0.33611 0.0
C1198 C 0.67527 0.92755 0.34794 0.0
C1199 C 0.67038 0.90413 0.36089 0.0
H1200 H 0.79751 0.72635 0.48324 0.0
H1201 H 0.72339 0.64867 0.50621 0.0
H1202 H 0.75436 0.63573 0.52648 0.0
H1203 H 0.80214 0.64743 0.53924 0.0
H1204 H 0.87672 0.72457 0.51641 0.0
H1205 H 0.84604 0.73641 0.4941 0.0
C1206 C 0.78819 0.70639 0.4924 0.0
C1207 C 0.75811 0.68874 0.49344 0.0
C1208 C 0.8062 0.69898 0.50406 0.0
C1209 C 0.74641 0.66299 0.5055 0.0
C1210 C 0.7641 0.65547 0.51703 0.0
C1211 C 0.81168 0.66684 0.52936 0.0
C1212 C 0.84159 0.68526 0.52965 0.0
C1213 C 0.79396 0.67353 0.51674 0.0
C1214 C 0.85373 0.71002 0.51642 0.0
C1215 C 0.83618 0.71686 0.50377 0.0
H1216 H 0.08346 0.79547 0.63722 0.0
H1217 H 0.05483 0.733 0.68971 0.0
H1218 H 0.09686 0.76486 0.71143 0.0
H1219 H 0.1409 0.81085 0.71622 0.0
H1220 H 0.17097 0.8735 0.66402 0.0
H1221 H 0.12967 0.84093 0.64125 0.0
C1222 C 0.0866 0.78872 0.65329 0.0
C1223 C 0.06566 0.76204 0.66194 0.0
C1224 C 0.1111 0.80714 0.66575 0.0
C1225 C 0.07012 0.75368 0.68285 0.0
C1226 C 0.09429 0.77181 0.69526 0.0
C1227 C 0.13836 0.8174 0.69987 0.0
C1228 C 0.15868 0.84463 0.6919 0.0
C1229 C 0.11468 0.79869 0.68701 0.0
C1230 C 0.15555 0.8526 0.67049 0.0
C1231 C 0.13189 0.83405 0.65754 0.0
H1232 H 0.34601 0.0894 0.82593 0.0
H1233 H 0.2597 0.06596 0.80713 0.0
H1234 H 0.26436 0.10811 0.82636 0.0
H1235 H 0.29185 0.14956 0.85107 0.0
H1236 H 0.37845 0.17275 0.8692 0.0
H1237 H 0.37469 0.1327 0.84787 0.0
C1238 C 0.32827 0.09362 0.82597 0.0
C1239 C 0.30248 0.07451 0.81531 0.0
C1240 C 0.33106 0.11771 0.83712 0.0
C1241 C 0.27982 0.08045 0.81516 0.0
C1242 C 0.28242 0.10444 0.82626 0.0
C1243 C 0.31005 0.14613 0.85003 0.0
C1244 C 0.33522 0.1639 0.86205 0.0
C1245 C 0.30779 0.12298 0.83763 0.0
C1246 C 0.35857 0.15904 0.86057 0.0
C1247 C 0.35652 0.13621 0.84828 0.0
H1248 H 0.71127 0.79666 0.86419 0.0
H1249 H 0.6784 0.7332 0.81247 0.0
H1250 H 0.66683 0.76382 0.79033 0.0
H1251 H 0.66728 0.80892 0.78502 0.0
H1252 H 0.70112 0.87362 0.83577 0.0
H1253 H 0.71037 0.84198 0.85914 0.0
C1254 C 0.70135 0.78951 0.84816 0.0
C1255 C 0.69603 0.76284 0.83988 0.0
C1256 C 0.69487 0.80739 0.83536 0.0
C1257 C 0.68321 0.75385 0.81905 0.0
C1258 C 0.67645 0.77128 0.80641 0.0
C1259 C 0.6769 0.81626 0.80113 0.0
C1260 C 0.68382 0.84376 0.8085 0.0
C1261 C 0.68253 0.79821 0.81426 0.0
C1262 C 0.69549 0.85252 0.82969 0.0
C1263 C 0.70095 0.8345 0.84301 0.0
H1264 H 0.85527 0.65758 0.95393 0.0
H1265 H 0.84239 0.71783 0.99193 0.0
H1266 H 0.88435 0.72861 0.01466 0.0
H1267 H 0.9265 0.72288 0.02209 0.0
H1268 H 0.93755 0.66102 0.98439 0.0
H1269 H 0.89477 0.64922 0.96305 0.0
C1270 C 0.86167 0.67306 0.96722 0.0
C1271 C 0.84603 0.68715 0.97112 0.0
C1272 C 0.88564 0.67906 0.98014 0.0
C1273 C 0.85413 0.70672 0.98864 0.0
C1274 C 0.87818 0.71296 0.00155 0.0
C1275 C 0.91933 0.70653 0.00943 0.0
C1276 C 0.93566 0.69329 0.00463 0.0
C1277 C 0.89435 0.69952 0.99726 0.0
C1278 C 0.92596 0.67218 0.98808 0.0
C1279 C 0.90134 0.66522 0.97593 0.0
H1280 H 0.23267 0.90291 0.19594 0.0
H1281 H 0.2196 0.9646 0.16013 0.0
H1282 H 0.18008 0.92589 0.13956 0.0
H1283 H 0.1512 0.87499 0.1304 0.0
H1284 H 0.16743 0.81341 0.16349 0.0
H1285 H 0.20292 0.85133 0.18694 0.0
C1286 C 0.22087 0.90769 0.18378 0.0
C1287 C 0.22887 0.93638 0.17945 0.0
C1288 C 0.19869 0.88536 0.1716 0.0
C1289 C 0.21375 0.94256 0.16358 0.0
C1290 C 0.19121 0.92048 0.15187 0.0
C1291 C 0.16257 0.86976 0.14261 0.0
C1292 C 0.15659 0.84123 0.14493 0.0
C1293 C 0.18384 0.89185 0.15546 0.0
C1294 C 0.17112 0.83498 0.16139 0.0
C1295 C 0.19174 0.85676 0.1747 0.0
H1296 H 0.32272 0.1526 0.33358 0.0
H1297 H 0.30629 0.17818 0.27032 0.0
H1298 H 0.29725 0.21342 0.28795 0.0
H1299 H 0.29419 0.23732 0.32101 0.0
H1300 H 0.31109 0.21321 0.38458 0.0
H1301 H 0.32045 0.17761 0.36713 0.0
C1302 C 0.31732 0.16601 0.32368 0.0
C1303 C 0.31476 0.16234 0.30066 0.0
C1304 C 0.31236 0.18661 0.33395 0.0
C1305 C 0.30771 0.17993 0.28809 0.0
C1306 C 0.30274 0.20031 0.29813 0.0
C1307 C 0.29958 0.22405 0.33112 0.0
C1308 C 0.3016 0.22768 0.35408 0.0
C1309 C 0.30485 0.20372 0.32102 0.0
C1310 C 0.30942 0.21086 0.36685 0.0
C1311 C 0.31468 0.19044 0.35688 0.0
H1312 H 0.13165 0.28662 0.4585 0.0
H1313 H 0.19154 0.3596 0.49701 0.0
H1314 H 0.1524 0.35403 0.52081 0.0
H1315 H 0.10029 0.33094 0.52863 0.0
H1316 H 0.04071 0.26012 0.48828 0.0
H1317 H 0.08046 0.26255 0.46708 0.0
C1318 C 0.13619 0.30141 0.47204 0.0
C1319 C 0.1645 0.3237 0.47575 0.0
C1320 C 0.11353 0.2986 0.48524 0.0
C1321 C 0.17002 0.34214 0.4938 0.0
C1322 C 0.14759 0.33911 0.50733 0.0
C1323 C 0.09618 0.31586 0.51538 0.0
C1324 C 0.06771 0.29552 0.50987 0.0
C1325 C 0.11916 0.31777 0.50294 0.0
C1326 C 0.06249 0.27615 0.49261 0.0
C1327 C 0.08518 0.2775 0.48052 0.0
H1328 H 0.85598 0.16809 0.66334 0.0
H1329 H 0.81084 0.13539 0.60195 0.0
H1330 H 0.77383 0.09285 0.62065 0.0
H1331 H 0.75468 0.06445 0.65401 0.0
H1332 H 0.7996 0.09552 0.71564 0.0
H1333 H 0.83587 0.13946 0.69742 0.0
C1334 C 0.83791 0.1517 0.65415 0.0
C1335 C 0.83635 0.15471 0.63125 0.0
C1336 C 0.81664 0.12706 0.66503 0.0
C1337 C 0.81284 0.13332 0.61951 0.0
C1338 C 0.79158 0.10905 0.6302 0.0
C1339 C 0.77255 0.08067 0.66347 0.0
C1340 C 0.77457 0.07649 0.68611 0.0
C1341 C 0.79342 0.10555 0.65287 0.0
C1342 C 0.79744 0.09819 0.6982 0.0
C1343 C 0.81828 0.12325 0.68776 0.0
H1344 H 0.20721 0.39514 0.28923 0.0
H1345 H 0.22392 0.32955 0.26498 0.0
H1346 H 0.20103 0.32855 0.22997 0.0
H1347 H 0.17482 0.34509 0.20676 0.0
H1348 H 0.15712 0.40995 0.23114 0.0
H1349 H 0.18186 0.41252 0.26559 0.0
C1350 C 0.20609 0.38088 0.27616 0.0
C1351 C 0.21716 0.36241 0.27966 0.0
C1352 C 0.19263 0.3802 0.25617 0.0
C1353 C 0.21526 0.34375 0.26273 0.0
C1354 C 0.20228 0.34323 0.2427 0.0
C1355 C 0.17672 0.36005 0.21951 0.0
C1356 C 0.16423 0.37735 0.21641 0.0
C1357 C 0.19068 0.36119 0.23931 0.0
C1358 C 0.16639 0.39627 0.23322 0.0
C1359 C 0.18059 0.3978 0.25288 0.0
H1360 H 0.81307 0.19245 0.45902 0.0
H1361 H 0.88687 0.25846 0.4247 0.0
H1362 H 0.86496 0.23685 0.38937 0.0
H1363 H 0.826 0.19774 0.3684 0.0
H1364 H 0.75251 0.13136 0.40278 0.0
H1365 H 0.77307 0.15464 0.43794 0.0
C1366 C 0.82413 0.20235 0.44378 0.0
C1367 C 0.85155 0.22695 0.44445 0.0
C1368 C 0.81156 0.18964 0.42358 0.0
C1369 C 0.86585 0.23932 0.4246 0.0
C1370 C 0.85332 0.22703 0.40441 0.0
C1371 C 0.81431 0.18862 0.38357 0.0
C1372 C 0.78784 0.16282 0.38301 0.0
C1373 C 0.82636 0.20197 0.40372 0.0
C1374 C 0.7731 0.15102 0.40282 0.0
C1375 C 0.78478 0.16436 0.42291 0.0
H1376 H 0.60944 0.81525 0.62652 0.0
H1377 H 0.66668 0.89912 0.5996 0.0
H1378 H 0.66721 0.87756 0.56436 0.0
H1379 H 0.65299 0.8348 0.54169 0.0
H1380 H 0.59598 0.75084 0.56856 0.0
H1381 H 0.59369 0.77251 0.60331 0.0
C1382 C 0.62172 0.8288 0.61284 0.0
C1383 C 0.63809 0.85871 0.61568 0.0
C1384 C 0.62207 0.81625 0.59266 0.0
C1385 C 0.65421 0.876 0.5979 0.0
C1386 C 0.65443 0.86371 0.57773 0.0
C1387 C 0.63972 0.82127 0.55504 0.0
C1388 C 0.62469 0.79127 0.55256 0.0
C1389 C 0.63867 0.83385 0.57499 0.0
C1390 C 0.60798 0.77399 0.57014 0.0
C1391 C 0.60659 0.78636 0.58998 0.0
H1392 H 0.81432 0.6398 0.70457 0.0
H1393 H 0.8485 0.58967 0.7331 0.0
H1394 H 0.82451 0.58705 0.76795 0.0
H1395 H 0.79609 0.60142 0.7909 0.0
H1396 H 0.76296 0.65251 0.76246 0.0
H1397 H 0.78407 0.65218 0.72693 0.0
C1398 C 0.8161 0.62789 0.71831 0.0
C1399 C 0.83315 0.61497 0.71629 0.0
C1400 C 0.8026 0.62681 0.73834 0.0
C1401 C 0.83568 0.60001 0.73434 0.0
C1402 C 0.82194 0.59846 0.75423 0.0
C1403 C 0.79317 0.61211 0.77682 0.0
C1404 C 0.77813 0.62708 0.77929 0.0
C1405 C 0.80568 0.61213 0.75652 0.0
C1406 C 0.77476 0.64114 0.761 0.0
C1407 C 0.78675 0.64089 0.74068 0.0
H1408 H 0.23877 0.87556 0.90269 0.0
H1409 H 0.19347 0.80013 0.86201 0.0
H1410 H 0.1683 0.7716 0.8943 0.0
H1411 H 0.15734 0.76859 0.93377 0.0
H1412 H 0.20075 0.84469 0.97401 0.0
H1413 H 0.22847 0.87236 0.94222 0.0
C1414 C 0.2233 0.8529 0.90086 0.0
C1415 C 0.21794 0.84008 0.87992 0.0
C1416 C 0.20851 0.83672 0.91942 0.0
C1417 C 0.19827 0.81053 0.87794 0.0
C1418 C 0.18368 0.79423 0.89638 0.0
C1419 C 0.17278 0.79125 0.93557 0.0
C1420 C 0.17686 0.80451 0.95626 0.0
C1421 C 0.18834 0.80719 0.91714 0.0
C1422 C 0.19738 0.8338 0.95837 0.0
C1423 C 0.21312 0.84973 0.94015 0.0
H1424 H 0.36904 0.13465 0.09998 0.0
H1425 H 0.3896 0.20674 0.14241 0.0
H1426 H 0.3921 0.23559 0.11055 0.0
H1427 H 0.38711 0.2399 0.07072 0.0
H1428 H 0.36656 0.16772 0.02842 0.0
H1429 H 0.36624 0.13964 0.06009 0.0
C1430 C 0.37454 0.15681 0.10225 0.0
C1431 C 0.37897 0.16844 0.12358 0.0
C1432 C 0.37603 0.17331 0.08386 0.0
C1433 C 0.38563 0.19709 0.12621 0.0
C1434 C 0.38721 0.21366 0.10799 0.0
C1435 C 0.38254 0.21801 0.06846 0.0
C1436 C 0.37682 0.20592 0.04726 0.0
C1437 C 0.38212 0.20188 0.08677 0.0
C1438 C 0.37135 0.17767 0.04453 0.0
C1439 C 0.37096 0.16152 0.06265 0.0
loop_
_geom_bond_atom_site_label_1
_geom_bond_atom_site_label_2
_geom_bond_distance
_geom_bond_site_symmetry_2
_ccdc_geom_bond_type
Li0 N17 1.990 . S
Li0 O60 1.956 . S
Li0 O61 1.970 . S
Li0 O62 1.961 . S
Li1 N25 1.990 . S
Li1 O60 1.970 . S
Li1 O61 1.956 . S
Li1 O63 1.961 . S
Li2 N47 1.990 . S
Li2 O60 1.961 . S
Li2 O62 1.956 . S
Li2 O63 1.970 . S
Li3 N53 1.990 . S
Li3 O61 1.961 . S
Li3 O62 1.970 . S
Li3 O63 1.956 . S
C4 C6 1.348 . S
C4 C7 1.356 . S
C4 O60 1.325 . S
N5 C8 1.314 . S
N5 C9 1.279 . S
C6 C4 1.348 . S
C6 C8 1.353 . S
C6 H64 0.929 . S
C7 C4 1.356 . S
C7 C9 1.358 . S
C7 H65 0.930 . S
C8 N5 1.314 . S
C8 C6 1.353 . S
C8 H66 0.930 . S
C9 N5 1.279 . S
C9 C7 1.358 . S
C9 H67 0.930 . S
C10 C13 1.348 . S
C10 C14 1.356 . S
C10 O61 1.325 . S
C11 N12 1.279 . S
C11 C14 1.358 . S
C11 H68 0.930 . S
N12 C11 1.279 . S
N12 C15 1.314 . S
C13 C10 1.348 . S
C13 C15 1.353 . S
C13 H69 0.929 . S
C14 C10 1.356 . S
C14 C11 1.358 . S
C14 H70 0.930 . S
C15 N12 1.314 . S
C15 C13 1.353 . S
C15 H71 0.930 . S
C16 N17 1.314 . S
C16 C21 1.353 . S
C16 H22 0.930 . S
N17 Li0 1.990 . S
N17 C16 1.314 . S
N17 C19 1.279 . S
C18 C19 1.358 . S
C18 C20 1.356 . S
C18 H72 0.930 . S
C19 N17 1.279 . S
C19 C18 1.358 . S
C19 H23 0.930 . S
C20 C18 1.356 . S
C20 C21 1.348 . S
C21 C16 1.353 . S
C21 C20 1.348 . S
C21 H73 0.929 . S
H22 C16 0.930 . S
H23 C19 0.930 . S
C24 N25 1.314 . S
C24 C26 1.353 . S
C24 H30 0.930 . S
N25 Li1 1.990 . S
N25 C24 1.314 . S
N25 C28 1.279 . S
C26 C24 1.353 . S
C26 C29 1.348 . S
C26 H74 0.929 . S
C27 C28 1.358 . S
C27 C29 1.356 . S
C27 H75 0.930 . S
C28 N25 1.279 . S
C28 C27 1.358 . S
C28 H31 0.930 . S
C29 C26 1.348 . S
C29 C27 1.356 . S
H30 C24 0.930 . S
H31 C28 0.930 . S
C32 C34 1.348 . S
C32 C35 1.356 . S
C32 O62 1.325 . S
N33 C36 1.314 . S
N33 C37 1.279 . S
C34 C32 1.348 . S
C34 C36 1.353 . S
C34 H76 0.929 . S
C35 C32 1.356 . S
C35 C37 1.358 . S
C35 H77 0.930 . S
C36 N33 1.314 . S
C36 C34 1.353 . S
C36 H78 0.930 . S
C37 N33 1.279 . S
C37 C35 1.358 . S
C37 H79 0.930 . S
C38 C39 1.348 . S
C38 C40 1.356 . S
C38 O63 1.325 . S
C39 C38 1.348 . S
C39 C41 1.353 . S
C39 H80 0.929 . S
C40 C38 1.356 . S
C40 C42 1.358 . S
C40 H81 0.930 . S
C41 C39 1.353 . S
C41 N43 1.314 . S
C41 H82 0.930 1_455 S
C42 C40 1.358 . S
C42 N43 1.279 . S
C42 H83 0.930 . S
N43 C41 1.314 . S
N43 C42 1.279 . S
C44 C46 1.353 . S
C44 N47 1.314 1_655 S
C44 H50 0.930 1_655 S
C45 N47 1.279 1_655 S
C45 C48 1.358 . S
C45 H51 0.930 . S
C46 C44 1.353 . S
C46 C49 1.348 . S
C46 H84 0.929 . S
N47 Li2 1.990 . S
N47 C44 1.314 1_455 S
N47 C45 1.279 1_455 S
C48 C45 1.358 . S
C48 C49 1.356 . S
C48 H85 0.930 . S
C49 C46 1.348 . S
C49 C48 1.356 . S
H50 C44 0.930 1_455 S
H51 C45 0.930 . S
C52 N53 1.314 . S
C52 C54 1.353 . S
C52 H58 0.930 . S
N53 Li3 1.990 . S
N53 C52 1.314 . S
N53 C56 1.279 . S
C54 C52 1.353 . S
C54 C57 1.348 . S
C54 H86 0.929 . S
C55 C56 1.358 . S
C55 C57 1.356 . S
C55 H87 0.930 . S
C56 N53 1.279 . S
C56 C55 1.358 . S
C56 H59 0.930 . S
C57 C54 1.348 . S
C57 C55 1.356 . S
H58 C52 0.930 . S
H59 C56 0.930 . S
O60 Li0 1.956 . S
O60 Li1 1.970 . S
O60 Li2 1.961 . S
O60 C4 1.325 . S
O61 Li0 1.970 . S
O61 Li1 1.956 . S
O61 Li3 1.961 . S
O61 C10 1.325 . S
O62 Li0 1.961 . S
O62 Li2 1.956 . S
O62 Li3 1.970 . S
O62 C32 1.325 . S
O63 Li1 1.961 . S
O63 Li2 1.970 . S
O63 Li3 1.956 . S
O63 C38 1.325 . S
H64 C6 0.929 . S
H65 C7 0.930 . S
H66 C8 0.930 . S
H67 C9 0.930 . S
H68 C11 0.930 . S
H69 C13 0.929 . S
H70 C14 0.930 . S
H71 C15 0.930 . S
H72 C18 0.930 . S
H73 C21 0.929 . S
H74 C26 0.929 . S
H75 C27 0.930 . S
H76 C34 0.929 . S
H77 C35 0.930 . S
H78 C36 0.930 . S
H79 C37 0.930 . S
H80 C39 0.929 . S
H81 C40 0.930 . S
H82 C41 0.930 1_655 S
H83 C42 0.930 . S
H84 C46 0.929 . S
H85 C48 0.930 . S
H86 C54 0.929 . S
H87 C55 0.930 . S
Li88 N105 1.990 . S
Li88 O148 1.956 . S
Li88 O149 1.970 . S
Li88 O150 1.961 . S
Li89 N113 1.990 . S
Li89 O148 1.970 . S
Li89 O149 1.956 . S
Li89 O151 1.961 . S
Li90 N135 1.990 . S
Li90 O148 1.961 . S
Li90 O150 1.956 . S
Li90 O151 1.970 . S
Li91 N141 1.990 . S
Li91 O149 1.961 . S
Li91 O150 1.970 . S
Li91 O151 1.956 . S
C92 C94 1.348 . S
C92 C95 1.356 . S
C92 O148 1.325 . S
N93 C96 1.314 . S
N93 C97 1.279 . S
C94 C92 1.348 . S
C94 C96 1.353 . S
C94 H152 0.929 . S
C95 C92 1.356 . S
C95 C97 1.358 . S
C95 H153 0.930 . S
C96 N93 1.314 . S
C96 C94 1.353 . S
C96 H154 0.930 . S
C97 N93 1.279 . S
C97 C95 1.358 . S
C97 H155 0.930 . S
C98 C101 1.348 . S
C98 C102 1.356 . S
C98 O149 1.325 . S
C99 N100 1.279 . S
C99 C102 1.358 . S
C99 H156 0.930 . S
N100 C99 1.279 . S
N100 C103 1.314 . S
C101 C98 1.348 . S
C101 C103 1.353 . S
C101 H157 0.929 . S
C102 C98 1.356 . S
C102 C99 1.358 . S
C102 H158 0.930 . S
C103 N100 1.314 . S
C103 C101 1.353 . S
C103 H159 0.930 . S
C104 N105 1.314 . S
C104 C109 1.353 . S
C104 H110 0.930 . S
N105 Li88 1.990 . S
N105 C104 1.314 . S
N105 C107 1.279 . S
C106 C107 1.358 . S
C106 C108 1.356 . S
C106 H160 0.930 . S
C107 N105 1.279 . S
C107 C106 1.358 . S
C107 H111 0.930 . S
C108 C106 1.356 . S
C108 C109 1.348 . S
C109 C104 1.353 . S
C109 C108 1.348 . S
C109 H161 0.929 . S
H110 C104 0.930 . S
H111 C107 0.930 . S
C112 N113 1.314 . S
C112 C114 1.353 . S
C112 H118 0.930 . S
N113 Li89 1.990 . S
N113 C112 1.314 . S
N113 C116 1.279 . S
C114 C112 1.353 . S
C114 C117 1.348 . S
C114 H162 0.929 . S
C115 C116 1.358 . S
C115 C117 1.356 . S
C115 H163 0.930 . S
C116 N113 1.279 . S
C116 C115 1.358 . S
C116 H119 0.930 . S
C117 C114 1.348 . S
C117 C115 1.356 . S
H118 C112 0.930 . S
H119 C116 0.930 . S
C120 C122 1.348 . S
C120 C123 1.356 . S
C120 O150 1.325 . S
N121 C124 1.314 . S
N121 C125 1.279 . S
C122 C120 1.348 . S
C122 C124 1.353 . S
C122 H164 0.929 . S
C123 C120 1.356 . S
C123 C125 1.358 . S
C123 H165 0.930 . S
C124 N121 1.314 . S
C124 C122 1.353 . S
C124 H166 0.930 . S
C125 N121 1.279 . S
C125 C123 1.358 . S
C125 H167 0.930 . S
C126 C127 1.348 . S
C126 C128 1.356 . S
C126 O151 1.325 . S
C127 C126 1.348 . S
C127 C129 1.353 . S
C127 H168 0.929 . S
C128 C126 1.356 . S
C128 C130 1.358 . S
C128 H169 0.930 . S
C129 C127 1.353 . S
C129 N131 1.314 . S
C129 H170 0.930 1_545 S
C130 C128 1.358 . S
C130 N131 1.279 . S
C130 H171 0.930 . S
N131 C129 1.314 . S
N131 C130 1.279 . S
C132 C134 1.353 . S
C132 N135 1.314 1_565 S
C132 H138 0.930 1_565 S
C133 N135 1.279 1_565 S
C133 C136 1.358 . S
C133 H139 0.930 . S
C134 C132 1.353 . S
C134 C137 1.348 . S
C134 H172 0.929 . S
N135 Li90 1.990 . S
N135 C132 1.314 1_545 S
N135 C133 1.279 1_545 S
C136 C133 1.358 . S
C136 C137 1.356 . S
C136 H173 0.930 . S
C137 C134 1.348 . S
C137 C136 1.356 . S
H138 C132 0.930 1_545 S
H139 C133 0.930 . S
C140 N141 1.314 . S
C140 C142 1.353 . S
C140 H146 0.930 . S
N141 Li91 1.990 . S
N141 C140 1.314 . S
N141 C144 1.279 . S
C142 C140 1.353 . S
C142 C145 1.348 . S
C142 H174 0.929 . S
C143 C144 1.358 . S
C143 C145 1.356 . S
C143 H175 0.930 . S
C144 N141 1.279 . S
C144 C143 1.358 . S
C144 H147 0.930 . S
C145 C142 1.348 . S
C145 C143 1.356 . S
H146 C140 0.930 . S
H147 C144 0.930 . S
O148 Li88 1.956 . S
O148 Li89 1.970 . S
O148 Li90 1.961 . S
O148 C92 1.325 . S
O149 Li88 1.970 . S
O149 Li89 1.956 . S
O149 Li91 1.961 . S
O149 C98 1.325 . S
O150 Li88 1.961 . S
O150 Li90 1.956 . S
O150 Li91 1.970 . S
O150 C120 1.325 . S
O151 Li89 1.961 . S
O151 Li90 1.970 . S
O151 Li91 1.956 . S
O151 C126 1.325 . S
H152 C94 0.929 . S
H153 C95 0.930 . S
H154 C96 0.930 . S
H155 C97 0.930 . S
H156 C99 0.930 . S
H157 C101 0.929 . S
H158 C102 0.930 . S
H159 C103 0.930 . S
H160 C106 0.930 . S
H161 C109 0.929 . S
H162 C114 0.929 . S
H163 C115 0.930 . S
H164 C122 0.929 . S
H165 C123 0.930 . S
H166 C124 0.930 . S
H167 C125 0.930 . S
H168 C127 0.929 . S
H169 C128 0.930 . S
H170 C129 0.930 1_565 S
H171 C130 0.930 . S
H172 C134 0.929 . S
H173 C136 0.930 . S
H174 C142 0.929 . S
H175 C143 0.930 . S
Li176 N193 1.990 . S
Li176 O236 1.956 . S
Li176 O237 1.970 . S
Li176 O238 1.961 . S
Li177 N201 1.990 . S
Li177 O236 1.970 . S
Li177 O237 1.956 . S
Li177 O239 1.961 . S
Li178 N223 1.990 . S
Li178 O236 1.961 . S
Li178 O238 1.956 . S
Li178 O239 1.970 . S
Li179 N229 1.990 . S
Li179 O237 1.961 . S
Li179 O238 1.970 . S
Li179 O239 1.956 . S
C180 C182 1.348 . S
C180 C183 1.356 . S
C180 O236 1.325 . S
N181 C184 1.314 . S
N181 C185 1.279 . S
C182 C180 1.348 . S
C182 C184 1.353 . S
C182 H240 0.929 . S
C183 C180 1.356 . S
C183 C185 1.358 . S
C183 H241 0.930 . S
C184 N181 1.314 . S
C184 C182 1.353 . S
C184 H242 0.930 . S
C185 N181 1.279 . S
C185 C183 1.358 . S
C185 H243 0.930 . S
C186 C189 1.348 . S
C186 C190 1.356 . S
C186 O237 1.325 . S
C187 N188 1.279 . S
C187 C190 1.358 . S
C187 H244 0.930 . S
N188 C187 1.279 . S
N188 C191 1.314 . S
C189 C186 1.348 . S
C189 C191 1.353 . S
C189 H245 0.929 . S
C190 C186 1.356 . S
C190 C187 1.358 . S
C190 H246 0.930 . S
C191 N188 1.314 . S
C191 C189 1.353 . S
C191 H247 0.930 . S
C192 N193 1.314 . S
C192 C197 1.353 . S
C192 H198 0.930 . S
N193 Li176 1.990 . S
N193 C192 1.314 . S
N193 C195 1.279 . S
C194 C195 1.358 . S
C194 C196 1.356 . S
C194 H248 0.930 . S
C195 N193 1.279 . S
C195 C194 1.358 . S
C195 H199 0.930 . S
C196 C194 1.356 . S
C196 C197 1.348 . S
C197 C192 1.353 . S
C197 C196 1.348 . S
C197 H249 0.929 . S
H198 C192 0.930 . S
H199 C195 0.930 . S
C200 N201 1.314 . S
C200 C202 1.353 . S
C200 H206 0.930 . S
N201 Li177 1.990 . S
N201 C200 1.314 . S
N201 C204 1.279 . S
C202 C200 1.353 . S
C202 C205 1.348 . S
C202 H250 0.929 . S
C203 C204 1.358 . S
C203 C205 1.356 . S
C203 H251 0.930 . S
C204 N201 1.279 . S
C204 C203 1.358 . S
C204 H207 0.930 . S
C205 C202 1.348 . S
C205 C203 1.356 . S
H206 C200 0.930 . S
H207 C204 0.930 . S
C208 C210 1.348 . S
C208 C211 1.356 . S
C208 O238 1.325 . S
N209 C212 1.314 . S
N209 C213 1.279 . S
C210 C208 1.348 . S
C210 C212 1.353 . S
C210 H252 0.929 . S
C211 C208 1.356 . S
C211 C213 1.358 . S
C211 H253 0.930 . S
C212 N209 1.314 . S
C212 C210 1.353 . S
C212 H254 0.930 . S
C213 N209 1.279 . S
C213 C211 1.358 . S
C213 H255 0.930 . S
C214 C215 1.348 . S
C214 C216 1.356 . S
C214 O239 1.325 . S
C215 C214 1.348 . S
C215 C217 1.353 . S
C215 H256 0.929 . S
C216 C214 1.356 . S
C216 C218 1.358 . S
C216 H257 0.930 . S
C217 C215 1.353 . S
C217 N219 1.314 . S
C217 H258 0.930 . S
C218 C216 1.358 . S
C218 N219 1.279 . S
C218 H259 0.930 . S
N219 C217 1.314 . S
N219 C218 1.279 . S
C220 C222 1.353 . S
C220 N223 1.314 . S
C220 H226 0.930 . S
C221 N223 1.279 . S
C221 C224 1.358 . S
C221 H227 0.930 . S
C222 C220 1.353 . S
C222 C225 1.348 . S
C222 H260 0.929 . S
N223 Li178 1.990 . S
N223 C220 1.314 . S
N223 C221 1.279 . S
C224 C221 1.358 . S
C224 C225 1.356 . S
C224 H261 0.930 . S
C225 C222 1.348 . S
C225 C224 1.356 . S
H226 C220 0.930 . S
H227 C221 0.930 . S
C228 N229 1.314 . S
C228 C230 1.353 . S
C228 H234 0.930 . S
N229 Li179 1.990 . S
N229 C228 1.314 . S
N229 C232 1.279 . S
C230 C228 1.353 . S
C230 C233 1.348 . S
C230 H262 0.929 . S
C231 C232 1.358 . S
C231 C233 1.356 . S
C231 H263 0.930 . S
C232 N229 1.279 . S
C232 C231 1.358 . S
C232 H235 0.930 . S
C233 C230 1.348 . S
C233 C231 1.356 . S
H234 C228 0.930 . S
H235 C232 0.930 . S
O236 Li176 1.956 . S
O236 Li177 1.970 . S
O236 Li178 1.961 . S
O236 C180 1.325 . S
O237 Li176 1.970 . S
O237 Li177 1.956 . S
O237 Li179 1.961 . S
O237 C186 1.325 . S
O238 Li176 1.961 . S
O238 Li178 1.956 . S
O238 Li179 1.970 . S
O238 C208 1.325 . S
O239 Li177 1.961 . S
O239 Li178 1.970 . S
O239 Li179 1.956 . S
O239 C214 1.325 . S
H240 C182 0.929 . S
H241 C183 0.930 . S
H242 C184 0.930 . S
H243 C185 0.930 . S
H244 C187 0.930 . S
H245 C189 0.929 . S
H246 C190 0.930 . S
H247 C191 0.930 . S
H248 C194 0.930 . S
H249 C197 0.929 . S
H250 C202 0.929 . S
H251 C203 0.930 . S
H252 C210 0.929 . S
H253 C211 0.930 . S
H254 C212 0.930 . S
H255 C213 0.930 . S
H256 C215 0.929 . S
H257 C216 0.930 . S
H258 C217 0.930 . S
H259 C218 0.930 . S
H260 C222 0.929 . S
H261 C224 0.930 . S
H262 C230 0.929 . S
H263 C231 0.930 . S
Li264 N281 1.990 . S
Li264 O324 1.956 . S
Li264 O325 1.970 . S
Li264 O326 1.961 . S
Li265 N289 1.990 . S
Li265 O324 1.970 . S
Li265 O325 1.956 . S
Li265 O327 1.961 . S
Li266 N311 1.990 . S
Li266 O324 1.961 . S
Li266 O326 1.956 . S
Li266 O327 1.970 . S
Li267 N317 1.990 . S
Li267 O325 1.961 . S
Li267 O326 1.970 . S
Li267 O327 1.956 . S
C268 C270 1.348 . S
C268 C271 1.356 . S
C268 O324 1.325 . S
N269 C272 1.314 . S
N269 C273 1.279 . S
C270 C268 1.348 . S
C270 C272 1.353 . S
C270 H328 0.929 . S
C271 C268 1.356 . S
C271 C273 1.358 . S
C271 H329 0.930 . S
C272 N269 1.314 . S
C272 C270 1.353 . S
C272 H330 0.930 . S
C273 N269 1.279 . S
C273 C271 1.358 . S
C273 H331 0.930 . S
C274 C277 1.348 . S
C274 C278 1.356 . S
C274 O325 1.325 . S
C275 N276 1.279 . S
C275 C278 1.358 . S
C275 H332 0.930 . S
N276 C275 1.279 . S
N276 C279 1.314 . S
C277 C274 1.348 . S
C277 C279 1.353 . S
C277 H333 0.929 . S
C278 C274 1.356 . S
C278 C275 1.358 . S
C278 H334 0.930 . S
C279 N276 1.314 . S
C279 C277 1.353 . S
C279 H335 0.930 1_655 S
C280 N281 1.314 1_455 S
C280 C285 1.353 . S
C280 H286 0.930 1_455 S
N281 Li264 1.990 . S
N281 C280 1.314 1_655 S
N281 C283 1.279 1_655 S
C282 C283 1.358 . S
C282 C284 1.356 . S
C282 H336 0.930 . S
C283 N281 1.279 1_455 S
C283 C282 1.358 . S
C283 H287 0.930 . S
C284 C282 1.356 . S
C284 C285 1.348 . S
C285 C280 1.353 . S
C285 C284 1.348 . S
C285 H337 0.929 . S
H286 C280 0.930 1_655 S
H287 C283 0.930 . S
C288 N289 1.314 . S
C288 C290 1.353 . S
C288 H294 0.930 . S
N289 Li265 1.990 . S
N289 C288 1.314 . S
N289 C292 1.279 . S
C290 C288 1.353 . S
C290 C293 1.348 . S
C290 H338 0.929 . S
C291 C292 1.358 . S
C291 C293 1.356 . S
C291 H339 0.930 . S
C292 N289 1.279 . S
C292 C291 1.358 . S
C292 H295 0.930 . S
C293 C290 1.348 . S
C293 C291 1.356 . S
H294 C288 0.930 . S
H295 C292 0.930 . S
C296 C298 1.348 . S
C296 C299 1.356 . S
C296 O326 1.325 . S
N297 C300 1.314 . S
N297 C301 1.279 . S
C298 C296 1.348 . S
C298 C300 1.353 . S
C298 H340 0.929 . S
C299 C296 1.356 . S
C299 C301 1.358 . S
C299 H341 0.930 . S
C300 N297 1.314 . S
C300 C298 1.353 . S
C300 H342 0.930 . S
C301 N297 1.279 . S
C301 C299 1.358 . S
C301 H343 0.930 . S
C302 C303 1.348 . S
C302 C304 1.356 . S
C302 O327 1.325 . S
C303 C302 1.348 . S
C303 C305 1.353 . S
C303 H344 0.929 . S
C304 C302 1.356 . S
C304 C306 1.358 . S
C304 H345 0.930 . S
C305 C303 1.353 . S
C305 N307 1.314 . S
C305 H346 0.930 . S
C306 C304 1.358 . S
C306 N307 1.279 . S
C306 H347 0.930 . S
N307 C305 1.314 . S
N307 C306 1.279 . S
C308 C310 1.353 . S
C308 N311 1.314 . S
C308 H314 0.930 . S
C309 N311 1.279 . S
C309 C312 1.358 . S
C309 H315 0.930 . S
C310 C308 1.353 . S
C310 C313 1.348 . S
C310 H348 0.929 . S
N311 Li266 1.990 . S
N311 C308 1.314 . S
N311 C309 1.279 . S
C312 C309 1.358 . S
C312 C313 1.356 . S
C312 H349 0.930 . S
C313 C310 1.348 . S
C313 C312 1.356 . S
H314 C308 0.930 . S
H315 C309 0.930 . S
C316 N317 1.314 . S
C316 C318 1.353 . S
C316 H322 0.930 . S
N317 Li267 1.990 . S
N317 C316 1.314 . S
N317 C320 1.279 . S
C318 C316 1.353 . S
C318 C321 1.348 . S
C318 H350 0.929 . S
C319 C320 1.358 . S
C319 C321 1.356 . S
C319 H351 0.930 . S
C320 N317 1.279 . S
C320 C319 1.358 . S
C320 H323 0.930 . S
C321 C318 1.348 . S
C321 C319 1.356 . S
H322 C316 0.930 . S
H323 C320 0.930 . S
O324 Li264 1.956 . S
O324 Li265 1.970 . S
O324 Li266 1.961 . S
O324 C268 1.325 . S
O325 Li264 1.970 . S
O325 Li265 1.956 . S
O325 Li267 1.961 . S
O325 C274 1.325 . S
O326 Li264 1.961 . S
O326 Li266 1.956 . S
O326 Li267 1.970 . S
O326 C296 1.325 . S
O327 Li265 1.961 . S
O327 Li266 1.970 . S
O327 Li267 1.956 . S
O327 C302 1.325 . S
H328 C270 0.929 . S
H329 C271 0.930 . S
H330 C272 0.930 . S
H331 C273 0.930 . S
H332 C275 0.930 . S
H333 C277 0.929 . S
H334 C278 0.930 . S
H335 C279 0.930 1_455 S
H336 C282 0.930 . S
H337 C285 0.929 . S
H338 C290 0.929 . S
H339 C291 0.930 . S
H340 C298 0.929 . S
H341 C299 0.930 . S
H342 C300 0.930 . S
H343 C301 0.930 . S
H344 C303 0.929 . S
H345 C304 0.930 . S
H346 C305 0.930 . S
H347 C306 0.930 . S
H348 C310 0.929 . S
H349 C312 0.930 . S
H350 C318 0.929 . S
H351 C319 0.930 . S
Li352 N369 1.990 . S
Li352 O412 1.956 . S
Li352 O413 1.970 . S
Li352 O414 1.961 . S
Li353 N377 1.990 . S
Li353 O412 1.970 . S
Li353 O413 1.956 . S
Li353 O415 1.961 . S
Li354 N399 1.990 . S
Li354 O412 1.961 . S
Li354 O414 1.956 . S
Li354 O415 1.970 . S
Li355 N405 1.990 . S
Li355 O413 1.961 . S
Li355 O414 1.970 . S
Li355 O415 1.956 . S
C356 C358 1.348 . S
C356 C359 1.356 . S
C356 O412 1.325 . S
N357 C360 1.314 . S
N357 C361 1.279 . S
C358 C356 1.348 . S
C358 C360 1.353 . S
C358 H416 0.929 . S
C359 C356 1.356 . S
C359 C361 1.358 . S
C359 H417 0.930 . S
C360 N357 1.314 . S
C360 C358 1.353 . S
C360 H418 0.930 1_565 S
C361 N357 1.279 . S
C361 C359 1.358 . S
C361 H419 0.930 . S
C362 C365 1.348 . S
C362 C366 1.356 . S
C362 O413 1.325 . S
C363 N364 1.279 . S
C363 C366 1.358 . S
C363 H420 0.930 . S
N364 C363 1.279 . S
N364 C367 1.314 . S
C365 C362 1.348 . S
C365 C367 1.353 . S
C365 H421 0.929 . S
C366 C362 1.356 . S
C366 C363 1.358 . S
C366 H422 0.930 . S
C367 N364 1.314 . S
C367 C365 1.353 . S
C367 H423 0.930 . S
C368 N369 1.314 . S
C368 C373 1.353 . S
C368 H374 0.930 . S
N369 Li352 1.990 . S
N369 C368 1.314 . S
N369 C371 1.279 . S
C370 C371 1.358 . S
C370 C372 1.356 . S
C370 H424 0.930 . S
C371 N369 1.279 . S
C371 C370 1.358 . S
C371 H375 0.930 . S
C372 C370 1.356 . S
C372 C373 1.348 . S
C373 C368 1.353 . S
C373 C372 1.348 . S
C373 H425 0.929 . S
H374 C368 0.930 . S
H375 C371 0.930 . S
C376 N377 1.314 1_545 S
C376 C378 1.353 . S
C376 H382 0.930 1_545 S
N377 Li353 1.990 . S
N377 C376 1.314 1_565 S
N377 C380 1.279 1_565 S
C378 C376 1.353 . S
C378 C381 1.348 . S
C378 H426 0.929 . S
C379 C380 1.358 . S
C379 C381 1.356 . S
C379 H427 0.930 . S
C380 N377 1.279 1_545 S
C380 C379 1.358 . S
C380 H383 0.930 . S
C381 C378 1.348 . S
C381 C379 1.356 . S
H382 C376 0.930 1_565 S
H383 C380 0.930 . S
C384 C386 1.348 . S
C384 C387 1.356 . S
C384 O414 1.325 . S
N385 C388 1.314 . S
N385 C389 1.279 . S
C386 C384 1.348 . S
C386 C388 1.353 . S
C386 H428 0.929 . S
C387 C384 1.356 . S
C387 C389 1.358 . S
C387 H429 0.930 . S
C388 N385 1.314 . S
C388 C386 1.353 . S
C388 H430 0.930 . S
C389 N385 1.279 . S
C389 C387 1.358 . S
C389 H431 0.930 . S
C390 C391 1.348 . S
C390 C392 1.356 . S
C390 O415 1.325 . S
C391 C390 1.348 . S
C391 C393 1.353 . S
C391 H432 0.929 . S
C392 C390 1.356 . S
C392 C394 1.358 . S
C392 H433 0.930 . S
C393 C391 1.353 . S
C393 N395 1.314 . S
C393 H434 0.930 . S
C394 C392 1.358 . S
C394 N395 1.279 . S
C394 H435 0.930 . S
N395 C393 1.314 . S
N395 C394 1.279 . S
C396 C398 1.353 . S
C396 N399 1.314 . S
C396 H402 0.930 . S
C397 N399 1.279 . S
C397 C400 1.358 . S
C397 H403 0.930 . S
C398 C396 1.353 . S
C398 C401 1.348 . S
C398 H436 0.929 . S
N399 Li354 1.990 . S
N399 C396 1.314 . S
N399 C397 1.279 . S
C400 C397 1.358 . S
C400 C401 1.356 . S
C400 H437 0.930 . S
C401 C398 1.348 . S
C401 C400 1.356 . S
H402 C396 0.930 . S
H403 C397 0.930 . S
C404 N405 1.314 . S
C404 C406 1.353 . S
C404 H410 0.930 . S
N405 Li355 1.990 . S
N405 C404 1.314 . S
N405 C408 1.279 . S
C406 C404 1.353 . S
C406 C409 1.348 . S
C406 H438 0.929 . S
C407 C408 1.358 . S
C407 C409 1.356 . S
C407 H439 0.930 . S
C408 N405 1.279 . S
C408 C407 1.358 . S
C408 H411 0.930 . S
C409 C406 1.348 . S
C409 C407 1.356 . S
H410 C404 0.930 . S
H411 C408 0.930 . S
O412 Li352 1.956 . S
O412 Li353 1.970 . S
O412 Li354 1.961 . S
O412 C356 1.325 . S
O413 Li352 1.970 . S
O413 Li353 1.956 . S
O413 Li355 1.961 . S
O413 C362 1.325 . S
O414 Li352 1.961 . S
O414 Li354 1.956 . S
O414 Li355 1.970 . S
O414 C384 1.325 . S
O415 Li353 1.961 . S
O415 Li354 1.970 . S
O415 Li355 1.956 . S
O415 C390 1.325 . S
H416 C358 0.929 . S
H417 C359 0.930 . S
H418 C360 0.930 1_545 S
H419 C361 0.930 . S
H420 C363 0.930 . S
H421 C365 0.929 . S
H422 C366 0.930 . S
H423 C367 0.930 . S
H424 C370 0.930 . S
H425 C373 0.929 . S
H426 C378 0.929 . S
H427 C379 0.930 . S
H428 C386 0.929 . S
H429 C387 0.930 . S
H430 C388 0.930 . S
H431 C389 0.930 . S
H432 C391 0.929 . S
H433 C392 0.930 . S
H434 C393 0.930 . S
H435 C394 0.930 . S
H436 C398 0.929 . S
H437 C400 0.930 . S
H438 C406 0.929 . S
H439 C407 0.930 . S
Li440 N457 1.990 . S
Li440 O500 1.956 . S
Li440 O501 1.970 . S
Li440 O502 1.961 . S
Li441 N465 1.990 . S
Li441 O500 1.970 . S
Li441 O501 1.956 . S
Li441 O503 1.961 . S
Li442 N487 1.990 . S
Li442 O500 1.961 . S
Li442 O502 1.956 . S
Li442 O503 1.970 . S
Li443 N493 1.990 . S
Li443 O501 1.961 . S
Li443 O502 1.970 . S
Li443 O503 1.956 . S
C444 C446 1.348 . S
C444 C447 1.356 . S
C444 O500 1.325 . S
N445 C448 1.292 1_554 S
N445 C449 1.279 . S
C446 C444 1.348 . S
C446 C448 1.380 . S
C446 H504 0.929 . S
C447 C444 1.356 . S
C447 C449 1.358 1_556 S
C447 H505 0.930 . S
C448 N445 1.292 1_556 S
C448 C446 1.380 . S
C448 H506 0.925 1_556 S
C449 N445 1.279 . S
C449 C447 1.358 1_554 S
C449 H507 0.930 . S
C450 C453 1.348 . S
C450 C454 1.356 . S
C450 O501 1.325 . S
C451 N452 1.279 . S
C451 C454 1.358 . S
C451 H508 0.930 . S
N452 C451 1.279 . S
N452 C455 1.314 . S
C453 C450 1.348 . S
C453 C455 1.353 . S
C453 H509 0.929 . S
C454 C450 1.356 . S
C454 C451 1.358 . S
C454 H510 0.930 . S
C455 N452 1.314 . S
C455 C453 1.353 . S
C455 H511 0.930 . S
C456 N457 1.314 . S
C456 C461 1.353 . S
C456 H462 0.930 . S
N457 Li440 1.990 . S
N457 C456 1.314 . S
N457 C459 1.279 . S
C458 C459 1.358 . S
C458 C460 1.356 . S
C458 H512 0.930 . S
C459 N457 1.279 . S
C459 C458 1.358 . S
C459 H463 0.930 . S
C460 C458 1.356 . S
C460 C461 1.348 . S
C461 C456 1.353 . S
C461 C460 1.348 . S
C461 H513 0.929 . S
H462 C456 0.930 . S
H463 C459 0.930 . S
C464 N465 1.314 . S
C464 C466 1.353 . S
C464 H470 0.930 . S
N465 Li441 1.990 . S
N465 C464 1.314 . S
N465 C468 1.279 . S
C466 C464 1.353 . S
C466 C469 1.348 . S
C466 H514 0.929 . S
C467 C468 1.358 . S
C467 C469 1.356 . S
C467 H515 0.930 . S
C468 N465 1.279 . S
C468 C467 1.358 . S
C468 H471 0.930 . S
C469 C466 1.348 . S
C469 C467 1.356 . S
H470 C464 0.930 . S
H471 C468 0.930 . S
C472 C474 1.348 . S
C472 C475 1.356 . S
C472 O502 1.325 . S
N473 C476 1.314 . S
N473 C477 1.279 . S
C474 C472 1.348 . S
C474 C476 1.353 . S
C474 H516 0.929 . S
C475 C472 1.356 . S
C475 C477 1.358 . S
C475 H517 0.930 . S
C476 N473 1.314 . S
C476 C474 1.353 . S
C476 H518 0.930 . S
C477 N473 1.279 . S
C477 C475 1.358 . S
C477 H519 0.930 . S
C478 C479 1.348 . S
C478 C480 1.356 . S
C478 O503 1.325 . S
C479 C478 1.348 . S
C479 C481 1.353 . S
C479 H520 0.929 . S
C480 C478 1.356 . S
C480 C482 1.358 . S
C480 H521 0.930 . S
C481 C479 1.353 . S
C481 N483 1.314 . S
C481 H522 0.930 . S
C482 C480 1.358 . S
C482 N483 1.279 . S
C482 H523 0.930 . S
N483 C481 1.314 . S
N483 C482 1.279 . S
C484 C486 1.353 . S
C484 N487 1.314 1_554 S
C484 H490 0.930 . S
C485 N487 1.279 . S
C485 C488 1.358 1_556 S
C485 H491 0.930 . S
C486 C484 1.353 . S
C486 C489 1.348 . S
C486 H524 0.929 . S
N487 Li442 1.990 . S
N487 C484 1.314 1_556 S
N487 C485 1.279 . S
C488 C485 1.358 1_554 S
C488 C489 1.356 . S
C488 H525 0.930 . S
C489 C486 1.348 . S
C489 C488 1.356 . S
H490 C484 0.930 . S
H491 C485 0.930 . S
C492 N493 1.314 . S
C492 C494 1.353 . S
C492 H498 0.930 . S
N493 Li443 1.990 . S
N493 C492 1.314 . S
N493 C496 1.279 . S
C494 C492 1.353 . S
C494 C497 1.348 . S
C494 H526 0.929 . S
C495 C496 1.358 . S
C495 C497 1.356 . S
C495 H527 0.930 . S
C496 N493 1.279 . S
C496 C495 1.358 . S
C496 H499 0.930 . S
C497 C494 1.348 . S
C497 C495 1.356 . S
H498 C492 0.930 . S
H499 C496 0.930 . S
O500 Li440 1.956 . S
O500 Li441 1.970 . S
O500 Li442 1.961 . S
O500 C444 1.325 . S
O501 Li440 1.970 . S
O501 Li441 1.956 . S
O501 Li443 1.961 . S
O501 C450 1.325 . S
O502 Li440 1.961 . S
O502 Li442 1.956 . S
O502 Li443 1.970 . S
O502 C472 1.325 . S
O503 Li441 1.961 . S
O503 Li442 1.970 . S
O503 Li443 1.956 . S
O503 C478 1.325 . S
H504 C446 0.929 . S
H505 C447 0.930 . S
H506 C448 0.925 1_554 S
H507 C449 0.930 . S
H508 C451 0.930 . S
H509 C453 0.929 . S
H510 C454 0.930 . S
H511 C455 0.930 . S
H512 C458 0.930 . S
H513 C461 0.929 . S
H514 C466 0.929 . S
H515 C467 0.930 . S
H516 C474 0.929 . S
H517 C475 0.930 . S
H518 C476 0.930 . S
H519 C477 0.930 . S
H520 C479 0.929 . S
H521 C480 0.930 . S
H522 C481 0.930 . S
H523 C482 0.930 . S
H524 C486 0.929 . S
H525 C488 0.930 . S
H526 C494 0.929 . S
H527 C495 0.930 . S
Li528 N545 1.990 . S
Li528 O588 1.956 . S
Li528 O589 1.970 . S
Li528 O590 1.961 . S
Li529 N553 1.990 . S
Li529 O588 1.970 . S
Li529 O589 1.956 . S
Li529 O591 1.961 . S
Li530 N575 1.990 . S
Li530 O588 1.961 . S
Li530 O590 1.956 . S
Li530 O591 1.970 . S
Li531 N581 1.990 . S
Li531 O589 1.961 . S
Li531 O590 1.970 . S
Li531 O591 1.956 . S
C532 C534 1.348 . S
C532 C535 1.356 . S
C532 O588 1.325 . S
N533 C536 1.314 . S
N533 C537 1.279 . S
C534 C532 1.348 . S
C534 C536 1.353 . S
C534 H592 0.929 . S
C535 C532 1.356 . S
C535 C537 1.358 . S
C535 H593 0.930 . S
C536 N533 1.314 . S
C536 C534 1.353 . S
C536 H594 0.930 . S
C537 N533 1.279 . S
C537 C535 1.358 . S
C537 H595 0.930 . S
C538 C541 1.348 . S
C538 C542 1.356 . S
C538 O589 1.325 . S
C539 N540 1.279 . S
C539 C542 1.358 . S
C539 H596 0.930 . S
N540 C539 1.279 . S
N540 C543 1.314 . S
C541 C538 1.348 . S
C541 C543 1.353 . S
C541 H597 0.929 . S
C542 C538 1.356 . S
C542 C539 1.358 . S
C542 H598 0.930 . S
C543 N540 1.314 . S
C543 C541 1.353 . S
C543 H599 0.930 1_565 S
C544 N545 1.314 1_545 S
C544 C549 1.353 . S
C544 H550 0.930 1_545 S
N545 Li528 1.990 . S
N545 C544 1.314 1_565 S
N545 C547 1.279 1_565 S
C546 C547 1.358 . S
C546 C548 1.356 . S
C546 H600 0.930 . S
C547 N545 1.279 1_545 S
C547 C546 1.358 . S
C547 H551 0.930 . S
C548 C546 1.356 . S
C548 C549 1.348 . S
C549 C544 1.353 . S
C549 C548 1.348 . S
C549 H601 0.929 . S
H550 C544 0.930 1_565 S
H551 C547 0.930 . S
C552 N553 1.314 . S
C552 C554 1.353 . S
C552 H558 0.930 . S
N553 Li529 1.990 . S
N553 C552 1.314 . S
N553 C556 1.279 . S
C554 C552 1.353 . S
C554 C557 1.348 . S
C554 H602 0.929 . S
C555 C556 1.358 . S
C555 C557 1.356 . S
C555 H603 0.930 . S
C556 N553 1.279 . S
C556 C555 1.358 . S
C556 H559 0.930 . S
C557 C554 1.348 . S
C557 C555 1.356 . S
H558 C552 0.930 . S
H559 C556 0.930 . S
C560 C562 1.348 . S
C560 C563 1.356 . S
C560 O590 1.325 . S
N561 C564 1.314 . S
N561 C565 1.279 . S
C562 C560 1.348 . S
C562 C564 1.353 . S
C562 H604 0.929 . S
C563 C560 1.356 . S
C563 C565 1.358 . S
C563 H605 0.930 . S
C564 N561 1.314 . S
C564 C562 1.353 . S
C564 H606 0.930 . S
C565 N561 1.279 . S
C565 C563 1.358 . S
C565 H607 0.930 . S
C566 C567 1.348 . S
C566 C568 1.356 . S
C566 O591 1.325 . S
C567 C566 1.348 . S
C567 C569 1.353 . S
C567 H608 0.929 . S
C568 C566 1.356 . S
C568 C570 1.358 . S
C568 H609 0.930 . S
C569 C567 1.353 . S
C569 N571 1.314 . S
C569 H610 0.930 . S
C570 C568 1.358 . S
C570 N571 1.279 . S
C570 H611 0.930 . S
N571 C569 1.314 . S
N571 C570 1.279 . S
C572 C574 1.353 . S
C572 N575 1.314 . S
C572 H578 0.930 . S
C573 N575 1.279 . S
C573 C576 1.358 . S
C573 H579 0.930 . S
C574 C572 1.353 . S
C574 C577 1.348 . S
C574 H612 0.929 . S
N575 Li530 1.990 . S
N575 C572 1.314 . S
N575 C573 1.279 . S
C576 C573 1.358 . S
C576 C577 1.356 . S
C576 H613 0.930 . S
C577 C574 1.348 . S
C577 C576 1.356 . S
H578 C572 0.930 . S
H579 C573 0.930 . S
C580 N581 1.314 . S
C580 C582 1.353 . S
C580 H586 0.930 . S
N581 Li531 1.990 . S
N581 C580 1.314 . S
N581 C584 1.279 . S
C582 C580 1.353 . S
C582 C585 1.348 . S
C582 H614 0.929 . S
C583 C584 1.358 . S
C583 C585 1.356 . S
C583 H615 0.930 . S
C584 N581 1.279 . S
C584 C583 1.358 . S
C584 H587 0.930 . S
C585 C582 1.348 . S
C585 C583 1.356 . S
H586 C580 0.930 . S
H587 C584 0.930 . S
O588 Li528 1.956 . S
O588 Li529 1.970 . S
O588 Li530 1.961 . S
O588 C532 1.325 . S
O589 Li528 1.970 . S
O589 Li529 1.956 . S
O589 Li531 1.961 . S
O589 C538 1.325 . S
O590 Li528 1.961 . S
O590 Li530 1.956 . S
O590 Li531 1.970 . S
O590 C560 1.325 . S
O591 Li529 1.961 . S
O591 Li530 1.970 . S
O591 Li531 1.956 . S
O591 C566 1.325 . S
H592 C534 0.929 . S
H593 C535 0.930 . S
H594 C536 0.930 . S
H595 C537 0.930 . S
H596 C539 0.930 . S
H597 C541 0.929 . S
H598 C542 0.930 . S
H599 C543 0.930 1_545 S
H600 C546 0.930 . S
H601 C549 0.929 . S
H602 C554 0.929 . S
H603 C555 0.930 . S
H604 C562 0.929 . S
H605 C563 0.930 . S
H606 C564 0.930 . S
H607 C565 0.930 . S
H608 C567 0.929 . S
H609 C568 0.930 . S
H610 C569 0.930 . S
H611 C570 0.930 . S
H612 C574 0.929 . S
H613 C576 0.930 . S
H614 C582 0.929 . S
H615 C583 0.930 . S
Li616 N633 1.990 . S
Li616 O676 1.956 . S
Li616 O677 1.970 . S
Li616 O678 1.961 . S
Li617 N641 1.990 . S
Li617 O676 1.970 . S
Li617 O677 1.956 . S
Li617 O679 1.961 . S
Li618 N663 1.990 . S
Li618 O676 1.961 . S
Li618 O678 1.956 . S
Li618 O679 1.970 . S
Li619 N669 1.990 . S
Li619 O677 1.961 . S
Li619 O678 1.970 . S
Li619 O679 1.956 . S
C620 C622 1.348 . S
C620 C623 1.356 . S
C620 O676 1.325 . S
N621 C624 1.314 . S
N621 C625 1.279 . S
C622 C620 1.348 . S
C622 C624 1.353 . S
C622 H680 0.929 . S
C623 C620 1.356 . S
C623 C625 1.358 . S
C623 H681 0.930 . S
C624 N621 1.314 . S
C624 C622 1.353 . S
C624 H682 0.930 . S
C625 N621 1.279 . S
C625 C623 1.358 . S
C625 H683 0.930 . S
C626 C629 1.348 . S
C626 C630 1.356 . S
C626 O677 1.325 . S
C627 N628 1.279 . S
C627 C630 1.358 . S
C627 H684 0.930 . S
N628 C627 1.279 . S
N628 C631 1.314 . S
C629 C626 1.348 . S
C629 C631 1.353 . S
C629 H685 0.929 . S
C630 C626 1.356 . S
C630 C627 1.358 . S
C630 H686 0.930 . S
C631 N628 1.314 . S
C631 C629 1.353 . S
C631 H687 0.930 . S
C632 N633 1.314 . S
C632 C637 1.353 . S
C632 H638 0.930 . S
N633 Li616 1.990 . S
N633 C632 1.314 . S
N633 C635 1.279 . S
C634 C635 1.358 . S
C634 C636 1.356 . S
C634 H688 0.930 . S
C635 N633 1.279 . S
C635 C634 1.358 . S
C635 H639 0.930 . S
C636 C634 1.356 . S
C636 C637 1.348 . S
C637 C632 1.353 . S
C637 C636 1.348 . S
C637 H689 0.929 . S
H638 C632 0.930 . S
H639 C635 0.930 . S
C640 N641 1.314 . S
C640 C642 1.353 . S
C640 H646 0.930 . S
N641 Li617 1.990 . S
N641 C640 1.314 . S
N641 C644 1.279 . S
C642 C640 1.353 . S
C642 C645 1.348 . S
C642 H690 0.929 . S
C643 C644 1.358 . S
C643 C645 1.356 . S
C643 H691 0.930 . S
C644 N641 1.279 . S
C644 C643 1.358 . S
C644 H647 0.930 . S
C645 C642 1.348 . S
C645 C643 1.356 . S
H646 C640 0.930 . S
H647 C644 0.930 . S
C648 C650 1.348 . S
C648 C651 1.356 . S
C648 O678 1.325 . S
N649 C652 1.314 . S
N649 C653 1.279 . S
C650 C648 1.348 . S
C650 C652 1.353 . S
C650 H692 0.929 . S
C651 C648 1.356 . S
C651 C653 1.358 . S
C651 H693 0.930 . S
C652 N649 1.314 . S
C652 C650 1.353 . S
C652 H694 0.930 . S
C653 N649 1.279 . S
C653 C651 1.358 . S
C653 H695 0.930 . S
C654 C655 1.348 . S
C654 C656 1.356 . S
C654 O679 1.325 . S
C655 C654 1.348 . S
C655 C657 1.353 . S
C655 H696 0.929 . S
C656 C654 1.356 . S
C656 C658 1.358 . S
C656 H697 0.930 . S
C657 C655 1.353 . S
C657 N659 1.314 . S
C657 H698 0.930 . S
C658 C656 1.358 . S
C658 N659 1.279 . S
C658 H699 0.930 . S
N659 C657 1.314 . S
N659 C658 1.279 . S
C660 C662 1.353 . S
C660 N663 1.314 . S
C660 H666 0.930 . S
C661 N663 1.279 . S
C661 C664 1.358 . S
C661 H667 0.930 . S
C662 C660 1.353 . S
C662 C665 1.348 . S
C662 H700 0.929 . S
N663 Li618 1.990 . S
N663 C660 1.314 . S
N663 C661 1.279 . S
C664 C661 1.358 . S
C664 C665 1.356 . S
C664 H701 0.930 . S
C665 C662 1.348 . S
C665 C664 1.356 . S
H666 C660 0.930 . S
H667 C661 0.930 . S
C668 N669 1.314 . S
C668 C670 1.353 . S
C668 H674 0.930 . S
N669 Li619 1.990 . S
N669 C668 1.314 . S
N669 C672 1.279 . S
C670 C668 1.353 . S
C670 C673 1.348 . S
C670 H702 0.929 . S
C671 C672 1.358 . S
C671 C673 1.356 . S
C671 H703 0.930 . S
C672 N669 1.279 . S
C672 C671 1.358 . S
C672 H675 0.930 . S
C673 C670 1.348 . S
C673 C671 1.356 . S
H674 C668 0.930 . S
H675 C672 0.930 . S
O676 Li616 1.956 . S
O676 Li617 1.970 . S
O676 Li618 1.961 . S
O676 C620 1.325 . S
O677 Li616 1.970 . S
O677 Li617 1.956 . S
O677 Li619 1.961 . S
O677 C626 1.325 . S
O678 Li616 1.961 . S
O678 Li618 1.956 . S
O678 Li619 1.970 . S
O678 C648 1.325 . S
O679 Li617 1.961 . S
O679 Li618 1.970 . S
O679 Li619 1.956 . S
O679 C654 1.325 . S
H680 C622 0.929 . S
H681 C623 0.930 . S
H682 C624 0.930 . S
H683 C625 0.930 . S
H684 C627 0.930 . S
H685 C629 0.929 . S
H686 C630 0.930 . S
H687 C631 0.930 . S
H688 C634 0.930 . S
H689 C637 0.929 . S
H690 C642 0.929 . S
H691 C643 0.930 . S
H692 C650 0.929 . S
H693 C651 0.930 . S
H694 C652 0.930 . S
H695 C653 0.930 . S
H696 C655 0.929 . S
H697 C656 0.930 . S
H698 C657 0.930 . S
H699 C658 0.930 . S
H700 C662 0.929 . S
H701 C664 0.930 . S
H702 C670 0.929 . S
H703 C671 0.930 . S
Li704 N721 1.990 . S
Li704 O764 1.956 . S
Li704 O765 1.970 . S
Li704 O766 1.961 . S
Li705 N729 1.990 . S
Li705 O764 1.970 . S
Li705 O765 1.956 . S
Li705 O767 1.961 . S
Li706 N751 1.990 . S
Li706 O764 1.961 . S
Li706 O766 1.956 . S
Li706 O767 1.970 . S
Li707 N757 1.990 . S
Li707 O765 1.961 . S
Li707 O766 1.970 . S
Li707 O767 1.956 . S
C708 C710 1.348 . S
C708 C711 1.356 . S
C708 O764 1.325 . S
N709 C712 1.314 . S
N709 C713 1.279 . S
C710 C708 1.348 . S
C710 C712 1.353 . S
C710 H768 0.929 . S
C711 C708 1.356 . S
C711 C713 1.358 . S
C711 H769 0.930 . S
C712 N709 1.314 . S
C712 C710 1.353 . S
C712 H770 0.930 . S
C713 N709 1.279 . S
C713 C711 1.358 . S
C713 H771 0.930 . S
C714 C717 1.348 . S
C714 C718 1.356 . S
C714 O765 1.325 . S
C715 N716 1.279 . S
C715 C718 1.358 . S
C715 H772 0.930 . S
N716 C715 1.279 . S
N716 C719 1.314 . S
C717 C714 1.348 . S
C717 C719 1.353 . S
C717 H773 0.929 . S
C718 C714 1.356 . S
C718 C715 1.358 . S
C718 H774 0.930 . S
C719 N716 1.314 . S
C719 C717 1.353 . S
C719 H775 0.930 . S
C720 N721 1.314 1_556 S
C720 C725 1.353 . S
C720 H726 0.930 . S
N721 Li704 1.990 . S
N721 C720 1.314 1_554 S
N721 C723 1.279 . S
C722 C723 1.358 1_556 S
C722 C724 1.356 . S
C722 H776 0.930 . S
C723 N721 1.279 . S
C723 C722 1.358 1_554 S
C723 H727 0.930 . S
C724 C722 1.356 . S
C724 C725 1.348 . S
C725 C720 1.353 . S
C725 C724 1.348 . S
C725 H777 0.929 . S
H726 C720 0.930 . S
H727 C723 0.930 . S
C728 N729 1.314 . S
C728 C730 1.353 . S
C728 H734 0.930 . S
N729 Li705 1.990 . S
N729 C728 1.314 . S
N729 C732 1.279 . S
C730 C728 1.353 . S
C730 C733 1.348 . S
C730 H778 0.929 . S
C731 C732 1.358 . S
C731 C733 1.356 . S
C731 H779 0.930 . S
C732 N729 1.279 . S
C732 C731 1.358 . S
C732 H735 0.930 . S
C733 C730 1.348 . S
C733 C731 1.356 . S
H734 C728 0.930 . S
H735 C732 0.930 . S
C736 C738 1.348 . S
C736 C739 1.356 . S
C736 O766 1.325 . S
N737 C740 1.292 1_556 S
N737 C741 1.279 . S
C738 C736 1.348 . S
C738 C740 1.380 . S
C738 H780 0.929 . S
C739 C736 1.356 . S
C739 C741 1.358 1_554 S
C739 H781 0.930 . S
C740 N737 1.292 1_554 S
C740 C738 1.380 . S
C740 H782 0.925 1_454 S
C741 N737 1.279 . S
C741 C739 1.358 1_556 S
C741 H783 0.930 . S
C742 C743 1.348 . S
C742 C744 1.356 . S
C742 O767 1.325 . S
C743 C742 1.348 . S
C743 C745 1.353 . S
C743 H784 0.929 . S
C744 C742 1.356 . S
C744 C746 1.358 . S
C744 H785 0.930 . S
C745 C743 1.353 . S
C745 N747 1.314 . S
C745 H786 0.930 . S
C746 C744 1.358 . S
C746 N747 1.279 . S
C746 H787 0.930 . S
N747 C745 1.314 . S
N747 C746 1.279 . S
C748 C750 1.353 . S
C748 N751 1.314 . S
C748 H754 0.930 . S
C749 N751 1.279 . S
C749 C752 1.358 . S
C749 H755 0.930 . S
C750 C748 1.353 . S
C750 C753 1.348 . S
C750 H788 0.929 . S
N751 Li706 1.990 . S
N751 C748 1.314 . S
N751 C749 1.279 . S
C752 C749 1.358 . S
C752 C753 1.356 . S
C752 H789 0.930 . S
C753 C750 1.348 . S
C753 C752 1.356 . S
H754 C748 0.930 . S
H755 C749 0.930 . S
C756 N757 1.314 1_655 S
C756 C758 1.353 . S
C756 H762 0.930 1_655 S
N757 Li707 1.990 . S
N757 C756 1.314 1_455 S
N757 C760 1.279 1_455 S
C758 C756 1.353 . S
C758 C761 1.348 . S
C758 H790 0.929 . S
C759 C760 1.358 . S
C759 C761 1.356 . S
C759 H791 0.930 . S
C760 N757 1.279 1_655 S
C760 C759 1.358 . S
C760 H763 0.930 . S
C761 C758 1.348 . S
C761 C759 1.356 . S
H762 C756 0.930 1_455 S
H763 C760 0.930 . S
O764 Li704 1.956 . S
O764 Li705 1.970 . S
O764 Li706 1.961 . S
O764 C708 1.325 . S
O765 Li704 1.970 . S
O765 Li705 1.956 . S
O765 Li707 1.961 . S
O765 C714 1.325 . S
O766 Li704 1.961 . S
O766 Li706 1.956 . S
O766 Li707 1.970 . S
O766 C736 1.325 . S
O767 Li705 1.961 . S
O767 Li706 1.970 . S
O767 Li707 1.956 . S
O767 C742 1.325 . S
H768 C710 0.929 . S
H769 C711 0.930 . S
H770 C712 0.930 . S
H771 C713 0.930 . S
H772 C715 0.930 . S
H773 C717 0.929 . S
H774 C718 0.930 . S
H775 C719 0.930 . S
H776 C722 0.930 . S
H777 C725 0.929 . S
H778 C730 0.929 . S
H779 C731 0.930 . S
H780 C738 0.929 . S
H781 C739 0.930 . S
H782 C740 0.925 1_656 S
H783 C741 0.930 . S
H784 C743 0.929 . S
H785 C744 0.930 . S
H786 C745 0.930 . S
H787 C746 0.930 . S
H788 C750 0.929 . S
H789 C752 0.930 . S
H790 C758 0.929 . S
H791 C759 0.930 . S
Li792 N809 1.990 . S
Li792 O852 1.956 . S
Li792 O853 1.970 . S
Li792 O854 1.961 . S
Li793 N817 1.990 . S
Li793 O852 1.970 . S
Li793 O853 1.956 . S
Li793 O855 1.961 . S
Li794 N839 1.990 . S
Li794 O852 1.961 . S
Li794 O854 1.956 . S
Li794 O855 1.970 . S
Li795 N845 1.990 . S
Li795 O853 1.961 . S
Li795 O854 1.970 . S
Li795 O855 1.956 . S
C796 C798 1.348 . S
C796 C799 1.356 . S
C796 O852 1.325 . S
N797 C800 1.314 . S
N797 C801 1.279 . S
C798 C796 1.348 . S
C798 C800 1.353 . S
C798 H856 0.929 . S
C799 C796 1.356 . S
C799 C801 1.358 . S
C799 H857 0.930 . S
C800 N797 1.314 . S
C800 C798 1.353 . S
C800 H858 0.930 . S
C801 N797 1.279 . S
C801 C799 1.358 . S
C801 H859 0.930 . S
C802 C805 1.348 . S
C802 C806 1.356 . S
C802 O853 1.325 . S
C803 N804 1.279 . S
C803 C806 1.358 . S
C803 H860 0.930 . S
N804 C803 1.279 . S
N804 C807 1.314 . S
C805 C802 1.348 . S
C805 C807 1.353 . S
C805 H861 0.929 . S
C806 C802 1.356 . S
C806 C803 1.358 . S
C806 H862 0.930 . S
C807 N804 1.314 . S
C807 C805 1.353 . S
C807 H863 0.930 1_545 S
C808 N809 1.314 1_565 S
C808 C813 1.353 . S
C808 H814 0.930 1_565 S
N809 Li792 1.990 . S
N809 C808 1.314 1_545 S
N809 C811 1.279 1_545 S
C810 C811 1.358 . S
C810 C812 1.356 . S
C810 H864 0.930 . S
C811 N809 1.279 1_565 S
C811 C810 1.358 . S
C811 H815 0.930 . S
C812 C810 1.356 . S
C812 C813 1.348 . S
C813 C808 1.353 . S
C813 C812 1.348 . S
C813 H865 0.929 . S
H814 C808 0.930 1_545 S
H815 C811 0.930 . S
C816 N817 1.314 . S
C816 C818 1.353 . S
C816 H822 0.930 . S
N817 Li793 1.990 . S
N817 C816 1.314 . S
N817 C820 1.279 . S
C818 C816 1.353 . S
C818 C821 1.348 . S
C818 H866 0.929 . S
C819 C820 1.358 . S
C819 C821 1.356 . S
C819 H867 0.930 . S
C820 N817 1.279 . S
C820 C819 1.358 . S
C820 H823 0.930 . S
C821 C818 1.348 . S
C821 C819 1.356 . S
H822 C816 0.930 . S
H823 C820 0.930 . S
C824 C826 1.348 . S
C824 C827 1.356 . S
C824 O854 1.325 . S
N825 C828 1.314 . S
N825 C829 1.279 . S
C826 C824 1.348 . S
C826 C828 1.353 . S
C826 H868 0.929 . S
C827 C824 1.356 . S
C827 C829 1.358 . S
C827 H869 0.930 . S
C828 N825 1.314 . S
C828 C826 1.353 . S
C828 H870 0.930 . S
C829 N825 1.279 . S
C829 C827 1.358 . S
C829 H871 0.930 . S
C830 C831 1.348 . S
C830 C832 1.356 . S
C830 O855 1.325 . S
C831 C830 1.348 . S
C831 C833 1.353 . S
C831 H872 0.929 . S
C832 C830 1.356 . S
C832 C834 1.358 . S
C832 H873 0.930 . S
C833 C831 1.353 . S
C833 N835 1.314 . S
C833 H874 0.930 . S
C834 C832 1.358 . S
C834 N835 1.279 . S
C834 H875 0.930 . S
N835 C833 1.314 . S
N835 C834 1.279 . S
C836 C838 1.353 . S
C836 N839 1.314 . S
C836 H842 0.930 . S
C837 N839 1.279 . S
C837 C840 1.358 . S
C837 H843 0.930 . S
C838 C836 1.353 . S
C838 C841 1.348 . S
C838 H876 0.929 . S
N839 Li794 1.990 . S
N839 C836 1.314 . S
N839 C837 1.279 . S
C840 C837 1.358 . S
C840 C841 1.356 . S
C840 H877 0.930 . S
C841 C838 1.348 . S
C841 C840 1.356 . S
H842 C836 0.930 . S
H843 C837 0.930 . S
C844 N845 1.314 . S
C844 C846 1.353 . S
C844 H850 0.930 . S
N845 Li795 1.990 . S
N845 C844 1.314 . S
N845 C848 1.279 . S
C846 C844 1.353 . S
C846 C849 1.348 . S
C846 H878 0.929 . S
C847 C848 1.358 . S
C847 C849 1.356 . S
C847 H879 0.930 . S
C848 N845 1.279 . S
C848 C847 1.358 . S
C848 H851 0.930 . S
C849 C846 1.348 . S
C849 C847 1.356 . S
H850 C844 0.930 . S
H851 C848 0.930 . S
O852 Li792 1.956 . S
O852 Li793 1.970 . S
O852 Li794 1.961 . S
O852 C796 1.325 . S
O853 Li792 1.970 . S
O853 Li793 1.956 . S
O853 Li795 1.961 . S
O853 C802 1.325 . S
O854 Li792 1.961 . S
O854 Li794 1.956 . S
O854 Li795 1.970 . S
O854 C824 1.325 . S
O855 Li793 1.961 . S
O855 Li794 1.970 . S
O855 Li795 1.956 . S
O855 C830 1.325 . S
H856 C798 0.929 . S
H857 C799 0.930 . S
H858 C800 0.930 . S
H859 C801 0.930 . S
H860 C803 0.930 . S
H861 C805 0.929 . S
H862 C806 0.930 . S
H863 C807 0.930 1_565 S
H864 C810 0.930 . S
H865 C813 0.929 . S
H866 C818 0.929 . S
H867 C819 0.930 . S
H868 C826 0.929 . S
H869 C827 0.930 . S
H870 C828 0.930 . S
H871 C829 0.930 . S
H872 C831 0.929 . S
H873 C832 0.930 . S
H874 C833 0.930 . S
H875 C834 0.930 . S
H876 C838 0.929 . S
H877 C840 0.930 . S
H878 C846 0.929 . S
H879 C847 0.930 . S
Li880 N897 1.990 . S
Li880 O940 1.956 . S
Li880 O941 1.970 . S
Li880 O942 1.961 . S
Li881 N905 1.990 . S
Li881 O940 1.970 . S
Li881 O941 1.956 . S
Li881 O943 1.961 . S
Li882 N927 1.990 . S
Li882 O940 1.961 . S
Li882 O942 1.956 . S
Li882 O943 1.970 . S
Li883 N933 1.990 . S
Li883 O941 1.961 . S
Li883 O942 1.970 . S
Li883 O943 1.956 . S
C884 C886 1.348 . S
C884 C887 1.356 . S
C884 O940 1.325 . S
N885 C888 1.314 . S
N885 C889 1.279 . S
C886 C884 1.348 . S
C886 C888 1.353 . S
C886 H944 0.929 . S
C887 C884 1.356 . S
C887 C889 1.358 . S
C887 H945 0.930 . S
C888 N885 1.314 . S
C888 C886 1.353 . S
C888 H946 0.930 . S
C889 N885 1.279 . S
C889 C887 1.358 . S
C889 H947 0.930 . S
C890 C893 1.348 . S
C890 C894 1.356 . S
C890 O941 1.325 . S
C891 N892 1.279 . S
C891 C894 1.358 . S
C891 H948 0.930 . S
N892 C891 1.279 . S
N892 C895 1.314 . S
C893 C890 1.348 . S
C893 C895 1.353 . S
C893 H949 0.929 . S
C894 C890 1.356 . S
C894 C891 1.358 . S
C894 H950 0.930 . S
C895 N892 1.314 . S
C895 C893 1.353 . S
C895 H951 0.930 . S
C896 N897 1.314 . S
C896 C901 1.353 . S
C896 H902 0.930 . S
N897 Li880 1.990 . S
N897 C896 1.314 . S
N897 C899 1.279 . S
C898 C899 1.358 . S
C898 C900 1.356 . S
C898 H952 0.930 . S
C899 N897 1.279 . S
C899 C898 1.358 . S
C899 H903 0.930 . S
C900 C898 1.356 . S
C900 C901 1.348 . S
C901 C896 1.353 . S
C901 C900 1.348 . S
C901 H953 0.929 . S
H902 C896 0.930 . S
H903 C899 0.930 . S
C904 N905 1.314 . S
C904 C906 1.353 . S
C904 H910 0.930 . S
N905 Li881 1.990 . S
N905 C904 1.314 . S
N905 C908 1.279 . S
C906 C904 1.353 . S
C906 C909 1.348 . S
C906 H954 0.929 . S
C907 C908 1.358 . S
C907 C909 1.356 . S
C907 H955 0.930 . S
C908 N905 1.279 . S
C908 C907 1.358 . S
C908 H911 0.930 . S
C909 C906 1.348 . S
C909 C907 1.356 . S
H910 C904 0.930 . S
H911 C908 0.930 . S
C912 C914 1.348 . S
C912 C915 1.356 . S
C912 O942 1.325 . S
N913 C916 1.314 . S
N913 C917 1.279 . S
C914 C912 1.348 . S
C914 C916 1.353 . S
C914 H956 0.929 . S
C915 C912 1.356 . S
C915 C917 1.358 . S
C915 H957 0.930 . S
C916 N913 1.314 . S
C916 C914 1.353 . S
C916 H958 0.930 . S
C917 N913 1.279 . S
C917 C915 1.358 . S
C917 H959 0.930 . S
C918 C919 1.348 . S
C918 C920 1.356 . S
C918 O943 1.325 . S
C919 C918 1.348 . S
C919 C921 1.353 . S
C919 H960 0.929 . S
C920 C918 1.356 . S
C920 C922 1.358 . S
C920 H961 0.930 . S
C921 C919 1.353 . S
C921 N923 1.314 . S
C921 H962 0.930 . S
C922 C920 1.358 . S
C922 N923 1.279 . S
C922 H963 0.930 . S
N923 C921 1.314 . S
N923 C922 1.279 . S
C924 C926 1.353 . S
C924 N927 1.314 . S
C924 H930 0.930 . S
C925 N927 1.279 . S
C925 C928 1.358 . S
C925 H931 0.930 . S
C926 C924 1.353 . S
C926 C929 1.348 . S
C926 H964 0.929 . S
N927 Li882 1.990 . S
N927 C924 1.314 . S
N927 C925 1.279 . S
C928 C925 1.358 . S
C928 C929 1.356 . S
C928 H965 0.930 . S
C929 C926 1.348 . S
C929 C928 1.356 . S
H930 C924 0.930 . S
H931 C925 0.930 . S
C932 N933 1.314 . S
C932 C934 1.353 . S
C932 H938 0.930 . S
N933 Li883 1.990 . S
N933 C932 1.314 . S
N933 C936 1.279 . S
C934 C932 1.353 . S
C934 C937 1.348 . S
C934 H966 0.929 . S
C935 C936 1.358 . S
C935 C937 1.356 . S
C935 H967 0.930 . S
C936 N933 1.279 . S
C936 C935 1.358 . S
C936 H939 0.930 . S
C937 C934 1.348 . S
C937 C935 1.356 . S
H938 C932 0.930 . S
H939 C936 0.930 . S
O940 Li880 1.956 . S
O940 Li881 1.970 . S
O940 Li882 1.961 . S
O940 C884 1.325 . S
O941 Li880 1.970 . S
O941 Li881 1.956 . S
O941 Li883 1.961 . S
O941 C890 1.325 . S
O942 Li880 1.961 . S
O942 Li882 1.956 . S
O942 Li883 1.970 . S
O942 C912 1.325 . S
O943 Li881 1.961 . S
O943 Li882 1.970 . S
O943 Li883 1.956 . S
O943 C918 1.325 . S
H944 C886 0.929 . S
H945 C887 0.930 . S
H946 C888 0.930 . S
H947 C889 0.930 . S
H948 C891 0.930 . S
H949 C893 0.929 . S
H950 C894 0.930 . S
H951 C895 0.930 . S
H952 C898 0.930 . S
H953 C901 0.929 . S
H954 C906 0.929 . S
H955 C907 0.930 . S
H956 C914 0.929 . S
H957 C915 0.930 . S
H958 C916 0.930 . S
H959 C917 0.930 . S
H960 C919 0.929 . S
H961 C920 0.930 . S
H962 C921 0.930 . S
H963 C922 0.930 . S
H964 C926 0.929 . S
H965 C928 0.930 . S
H966 C934 0.929 . S
H967 C935 0.930 . S
Li968 N985 1.990 . S
Li968 O1028 1.956 . S
Li968 O1029 1.970 . S
Li968 O1030 1.961 . S
Li969 N993 1.990 . S
Li969 O1028 1.970 . S
Li969 O1029 1.956 . S
Li969 O1031 1.961 . S
Li970 N1015 1.990 . S
Li970 O1028 1.961 . S
Li970 O1030 1.956 . S
Li970 O1031 1.970 . S
Li971 N1021 1.990 . S
Li971 O1029 1.961 . S
Li971 O1030 1.970 . S
Li971 O1031 1.956 . S
C972 C974 1.348 . S
C972 C975 1.356 . S
C972 O1028 1.325 . S
N973 C976 1.314 . S
N973 C977 1.279 . S
C974 C972 1.348 . S
C974 C976 1.353 . S
C974 H1032 0.929 . S
C975 C972 1.356 . S
C975 C977 1.358 . S
C975 H1033 0.930 . S
C976 N973 1.314 . S
C976 C974 1.353 . S
C976 H1034 0.930 . S
C977 N973 1.279 . S
C977 C975 1.358 . S
C977 H1035 0.930 . S
C978 C981 1.348 . S
C978 C982 1.356 . S
C978 O1029 1.325 . S
C979 N980 1.279 . S
C979 C982 1.358 . S
C979 H1036 0.930 . S
N980 C979 1.279 . S
N980 C983 1.314 . S
C981 C978 1.348 . S
C981 C983 1.353 . S
C981 H1037 0.929 . S
C982 C978 1.356 . S
C982 C979 1.358 . S
C982 H1038 0.930 . S
C983 N980 1.314 . S
C983 C981 1.353 . S
C983 H1039 0.930 1_655 S
C984 N985 1.314 1_455 S
C984 C989 1.353 . S
C984 H990 0.930 1_455 S
N985 Li968 1.990 . S
N985 C984 1.314 1_655 S
N985 C987 1.279 1_655 S
C986 C987 1.358 . S
C986 C988 1.356 . S
C986 H1040 0.930 . S
C987 N985 1.279 1_455 S
C987 C986 1.358 . S
C987 H991 0.930 . S
C988 C986 1.356 . S
C988 C989 1.348 . S
C989 C984 1.353 . S
C989 C988 1.348 . S
C989 H1041 0.929 . S
H990 C984 0.930 1_655 S
H991 C987 0.930 . S
C992 N993 1.314 . S
C992 C994 1.353 . S
C992 H998 0.930 . S
N993 Li969 1.990 . S
N993 C992 1.314 . S
N993 C996 1.279 . S
C994 C992 1.353 . S
C994 C997 1.348 . S
C994 H1042 0.929 . S
C995 C996 1.358 . S
C995 C997 1.356 . S
C995 H1043 0.930 . S
C996 N993 1.279 . S
C996 C995 1.358 . S
C996 H999 0.930 . S
C997 C994 1.348 . S
C997 C995 1.356 . S
H998 C992 0.930 . S
H999 C996 0.930 . S
C1000 C1002 1.348 . S
C1000 C1003 1.356 . S
C1000 O1030 1.325 . S
N1001 C1004 1.314 . S
N1001 C1005 1.279 . S
C1002 C1000 1.348 . S
C1002 C1004 1.353 . S
C1002 H1044 0.929 . S
C1003 C1000 1.356 . S
C1003 C1005 1.358 . S
C1003 H1045 0.930 . S
C1004 N1001 1.314 . S
C1004 C1002 1.353 . S
C1004 H1046 0.930 . S
C1005 N1001 1.279 . S
C1005 C1003 1.358 . S
C1005 H1047 0.930 . S
C1006 C1007 1.348 . S
C1006 C1008 1.356 . S
C1006 O1031 1.325 . S
C1007 C1006 1.348 . S
C1007 C1009 1.353 . S
C1007 H1048 0.929 . S
C1008 C1006 1.356 . S
C1008 C1010 1.358 . S
C1008 H1049 0.930 . S
C1009 C1007 1.353 . S
C1009 N1011 1.314 . S
C1009 H1050 0.930 . S
C1010 C1008 1.358 . S
C1010 N1011 1.279 . S
C1010 H1051 0.930 . S
N1011 C1009 1.314 . S
N1011 C1010 1.279 . S
C1012 C1014 1.353 . S
C1012 N1015 1.314 . S
C1012 H1018 0.930 . S
C1013 N1015 1.279 . S
C1013 C1016 1.358 . S
C1013 H1019 0.930 . S
C1014 C1012 1.353 . S
C1014 C1017 1.348 . S
C1014 H1052 0.929 . S
N1015 Li970 1.990 . S
N1015 C1012 1.314 . S
N1015 C1013 1.279 . S
C1016 C1013 1.358 . S
C1016 C1017 1.356 . S
C1016 H1053 0.930 . S
C1017 C1014 1.348 . S
C1017 C1016 1.356 . S
H1018 C1012 0.930 . S
H1019 C1013 0.930 . S
C1020 N1021 1.314 . S
C1020 C1022 1.353 . S
C1020 H1026 0.930 . S
N1021 Li971 1.990 . S
N1021 C1020 1.314 . S
N1021 C1024 1.279 . S
C1022 C1020 1.353 . S
C1022 C1025 1.348 . S
C1022 H1054 0.929 . S
C1023 C1024 1.358 . S
C1023 C1025 1.356 . S
C1023 H1055 0.930 . S
C1024 N1021 1.279 . S
C1024 C1023 1.358 . S
C1024 H1027 0.930 . S
C1025 C1022 1.348 . S
C1025 C1023 1.356 . S
H1026 C1020 0.930 . S
H1027 C1024 0.930 . S
O1028 Li968 1.956 . S
O1028 Li969 1.970 . S
O1028 Li970 1.961 . S
O1028 C972 1.325 . S
O1029 Li968 1.970 . S
O1029 Li969 1.956 . S
O1029 Li971 1.961 . S
O1029 C978 1.325 . S
O1030 Li968 1.961 . S
O1030 Li970 1.956 . S
O1030 Li971 1.970 . S
O1030 C1000 1.325 . S
O1031 Li969 1.961 . S
O1031 Li970 1.970 . S
O1031 Li971 1.956 . S
O1031 C1006 1.325 . S
H1032 C974 0.929 . S
H1033 C975 0.930 . S
H1034 C976 0.930 . S
H1035 C977 0.930 . S
H1036 C979 0.930 . S
H1037 C981 0.929 . S
H1038 C982 0.930 . S
H1039 C983 0.930 1_455 S
H1040 C986 0.930 . S
H1041 C989 0.929 . S
H1042 C994 0.929 . S
H1043 C995 0.930 . S
H1044 C1002 0.929 . S
H1045 C1003 0.930 . S
H1046 C1004 0.930 . S
H1047 C1005 0.930 . S
H1048 C1007 0.929 . S
H1049 C1008 0.930 . S
H1050 C1009 0.930 . S
H1051 C1010 0.930 . S
H1052 C1014 0.929 . S
H1053 C1016 0.930 . S
H1054 C1022 0.929 . S
H1055 C1023 0.930 . S
H1056 C1062 0.930 . S
H1057 C1065 0.930 . S
H1058 C1066 0.930 . S
H1059 C1067 0.930 . S
H1060 C1070 0.930 . S
H1061 C1071 0.930 . S
C1062 H1056 0.930 . S
C1062 C1063 1.355 . S
C1062 C1064 1.415 . S
C1063 C1062 1.355 . S
C1063 C1065 1.419 . S
C1064 C1062 1.415 . S
C1064 C1069 1.425 . S
C1064 C1071 1.409 . S
C1065 H1057 0.930 . S
C1065 C1063 1.419 . S
C1065 C1066 1.362 . S
C1066 H1058 0.930 . S
C1066 C1065 1.362 . S
C1066 C1069 1.409 . S
C1067 H1059 0.930 . S
C1067 C1068 1.355 . S
C1067 C1069 1.415 . S
C1068 C1067 1.355 . S
C1068 C1070 1.419 . S
C1069 C1064 1.425 . S
C1069 C1066 1.409 . S
C1069 C1067 1.415 . S
C1070 H1060 0.930 . S
C1070 C1068 1.419 . S
C1070 C1071 1.362 . S
C1071 H1061 0.930 . S
C1071 C1064 1.409 . S
C1071 C1070 1.362 . S
H1072 C1078 0.930 . S
H1073 C1081 0.930 . S
H1074 C1082 0.930 . S
H1075 C1083 0.930 . S
H1076 C1086 0.930 . S
H1077 C1087 0.930 . S
C1078 H1072 0.930 . S
C1078 C1079 1.355 . S
C1078 C1080 1.415 . S
C1079 C1078 1.355 . S
C1079 C1081 1.419 . S
C1080 C1078 1.415 . S
C1080 C1085 1.425 . S
C1080 C1087 1.409 . S
C1081 H1073 0.930 . S
C1081 C1079 1.419 . S
C1081 C1082 1.362 . S
C1082 H1074 0.930 . S
C1082 C1081 1.362 . S
C1082 C1085 1.409 . S
C1083 H1075 0.930 . S
C1083 C1084 1.355 . S
C1083 C1085 1.415 . S
C1084 C1083 1.355 . S
C1084 C1086 1.419 . S
C1085 C1080 1.425 . S
C1085 C1082 1.409 . S
C1085 C1083 1.415 . S
C1086 H1076 0.930 . S
C1086 C1084 1.419 . S
C1086 C1087 1.362 . S
C1087 H1077 0.930 . S
C1087 C1080 1.409 . S
C1087 C1086 1.362 . S
H1088 C1094 0.930 . S
H1089 C1097 0.930 . S
H1090 C1098 0.930 . S
H1091 C1099 0.930 . S
H1092 C1102 0.930 . S
H1093 C1103 0.930 . S
C1094 H1088 0.930 . S
C1094 C1095 1.355 . S
C1094 C1096 1.415 . S
C1095 C1094 1.355 . S
C1095 C1097 1.419 . S
C1096 C1094 1.415 . S
C1096 C1101 1.425 . S
C1096 C1103 1.409 . S
C1097 H1089 0.930 . S
C1097 C1095 1.419 . S
C1097 C1098 1.362 . S
C1098 H1090 0.930 . S
C1098 C1097 1.362 . S
C1098 C1101 1.409 . S
C1099 H1091 0.930 . S
C1099 C1100 1.355 . S
C1099 C1101 1.415 . S
C1100 C1099 1.355 . S
C1100 C1102 1.419 . S
C1101 C1096 1.425 . S
C1101 C1098 1.409 . S
C1101 C1099 1.415 . S
C1102 H1092 0.930 . S
C1102 C1100 1.419 . S
C1102 C1103 1.362 . S
C1103 H1093 0.930 . S
C1103 C1096 1.409 . S
C1103 C1102 1.362 . S
H1104 C1110 0.930 . S
H1105 C1113 0.930 . S
H1106 C1114 0.930 . S
H1107 C1115 0.930 . S
H1108 C1118 0.930 . S
H1109 C1119 0.930 . S
C1110 H1104 0.930 . S
C1110 C1111 1.355 . S
C1110 C1112 1.415 . S
C1111 C1110 1.355 . S
C1111 C1113 1.419 . S
C1112 C1110 1.415 . S
C1112 C1117 1.425 . S
C1112 C1119 1.409 . S
C1113 H1105 0.930 . S
C1113 C1111 1.419 . S
C1113 C1114 1.362 . S
C1114 H1106 0.930 . S
C1114 C1113 1.362 . S
C1114 C1117 1.409 . S
C1115 H1107 0.930 . S
C1115 C1116 1.355 . S
C1115 C1117 1.415 . S
C1116 C1115 1.355 . S
C1116 C1118 1.419 . S
C1117 C1112 1.425 . S
C1117 C1114 1.409 . S
C1117 C1115 1.415 . S
C1118 H1108 0.930 . S
C1118 C1116 1.419 . S
C1118 C1119 1.362 . S
C1119 H1109 0.930 . S
C1119 C1112 1.409 . S
C1119 C1118 1.362 . S
H1120 C1126 0.930 . S
H1121 C1129 0.930 . S
H1122 C1130 0.930 . S
H1123 C1131 0.930 . S
H1124 C1134 0.930 . S
H1125 C1135 0.930 . S
C1126 H1120 0.930 . S
C1126 C1127 1.355 . S
C1126 C1128 1.415 . S
C1127 C1126 1.355 . S
C1127 C1129 1.419 . S
C1128 C1126 1.415 . S
C1128 C1133 1.425 . S
C1128 C1135 1.409 . S
C1129 H1121 0.930 . S
C1129 C1127 1.419 . S
C1129 C1130 1.362 . S
C1130 H1122 0.930 . S
C1130 C1129 1.362 . S
C1130 C1133 1.409 . S
C1131 H1123 0.930 . S
C1131 C1132 1.355 . S
C1131 C1133 1.415 . S
C1132 C1131 1.355 . S
C1132 C1134 1.419 . S
C1133 C1128 1.425 . S
C1133 C1130 1.409 . S
C1133 C1131 1.415 . S
C1134 H1124 0.930 . S
C1134 C1132 1.419 . S
C1134 C1135 1.362 . S
C1135 H1125 0.930 . S
C1135 C1128 1.409 . S
C1135 C1134 1.362 . S
H1136 C1142 0.930 . S
H1137 C1145 0.930 . S
H1138 C1146 0.930 . S
H1139 C1147 0.930 . S
H1140 C1150 0.930 . S
H1141 C1151 0.930 . S
C1142 H1136 0.930 . S
C1142 C1143 1.355 . S
C1142 C1144 1.415 . S
C1143 C1142 1.355 . S
C1143 C1145 1.419 . S
C1144 C1142 1.415 . S
C1144 C1149 1.425 . S
C1144 C1151 1.409 . S
C1145 H1137 0.930 . S
C1145 C1143 1.419 . S
C1145 C1146 1.362 . S
C1146 H1138 0.930 . S
C1146 C1145 1.362 . S
C1146 C1149 1.409 . S
C1147 H1139 0.930 . S
C1147 C1148 1.355 . S
C1147 C1149 1.415 . S
C1148 C1147 1.355 . S
C1148 C1150 1.419 . S
C1149 C1144 1.425 . S
C1149 C1146 1.409 . S
C1149 C1147 1.415 . S
C1150 H1140 0.930 . S
C1150 C1148 1.419 . S
C1150 C1151 1.362 . S
C1151 H1141 0.930 . S
C1151 C1144 1.409 . S
C1151 C1150 1.362 . S
H1152 C1158 0.930 . S
H1153 C1161 0.930 . S
H1154 C1162 0.930 . S
H1155 C1163 0.930 . S
H1156 C1166 0.930 . S
H1157 C1167 0.930 . S
C1158 H1152 0.930 . S
C1158 C1159 1.355 . S
C1158 C1160 1.415 . S
C1159 C1158 1.355 . S
C1159 C1161 1.419 1_554 S
C1160 C1158 1.415 . S
C1160 C1165 1.425 1_554 S
C1160 C1167 1.409 . S
C1161 H1153 0.930 . S
C1161 C1159 1.419 1_556 S
C1161 C1162 1.362 . S
C1162 H1154 0.930 . S
C1162 C1161 1.362 . S
C1162 C1165 1.409 . S
C1163 H1155 0.930 . S
C1163 C1164 1.355 . S
C1163 C1165 1.415 . S
C1164 C1163 1.355 . S
C1164 C1166 1.419 . S
C1165 C1160 1.425 1_556 S
C1165 C1162 1.409 . S
C1165 C1163 1.415 . S
C1166 H1156 0.930 . S
C1166 C1164 1.419 . S
C1166 C1167 1.362 1_556 S
C1167 H1157 0.930 . S
C1167 C1160 1.409 . S
C1167 C1166 1.362 1_554 S
H1168 C1174 0.930 . S
H1169 C1177 0.930 . S
H1170 C1178 0.930 . S
H1171 C1179 0.930 . S
H1172 C1182 0.930 . S
H1173 C1183 0.930 . S
C1174 H1168 0.930 . S
C1174 C1175 1.355 . S
C1174 C1176 1.415 . S
C1175 C1174 1.355 . S
C1175 C1177 1.419 . S
C1176 C1174 1.415 . S
C1176 C1181 1.425 . S
C1176 C1183 1.409 . S
C1177 H1169 0.930 . S
C1177 C1175 1.419 . S
C1177 C1178 1.362 . S
C1178 H1170 0.930 . S
C1178 C1177 1.362 . S
C1178 C1181 1.409 . S
C1179 H1171 0.930 . S
C1179 C1180 1.355 . S
C1179 C1181 1.415 . S
C1180 C1179 1.355 . S
C1180 C1182 1.419 . S
C1181 C1176 1.425 . S
C1181 C1178 1.409 . S
C1181 C1179 1.415 . S
C1182 H1172 0.930 . S
C1182 C1180 1.419 . S
C1182 C1183 1.362 . S
C1183 H1173 0.930 . S
C1183 C1176 1.409 . S
C1183 C1182 1.362 . S
H1184 C1190 0.930 . S
H1185 C1193 0.930 . S
H1186 C1194 0.930 . S
H1187 C1195 0.930 . S
H1188 C1198 0.930 . S
H1189 C1199 0.930 . S
C1190 H1184 0.930 . S
C1190 C1191 1.355 . S
C1190 C1192 1.415 . S
C1191 C1190 1.355 . S
C1191 C1193 1.419 . S
C1192 C1190 1.415 . S
C1192 C1197 1.425 . S
C1192 C1199 1.409 . S
C1193 H1185 0.930 . S
C1193 C1191 1.419 . S
C1193 C1194 1.362 . S
C1194 H1186 0.930 . S
C1194 C1193 1.362 . S
C1194 C1197 1.409 . S
C1195 H1187 0.930 . S
C1195 C1196 1.355 . S
C1195 C1197 1.415 . S
C1196 C1195 1.355 . S
C1196 C1198 1.419 . S
C1197 C1192 1.425 . S
C1197 C1194 1.409 . S
C1197 C1195 1.415 . S
C1198 H1188 0.930 . S
C1198 C1196 1.419 . S
C1198 C1199 1.362 . S
C1199 H1189 0.930 . S
C1199 C1192 1.409 . S
C1199 C1198 1.362 . S
H1200 C1206 0.930 . S
H1201 C1209 0.930 . S
H1202 C1210 0.930 . S
H1203 C1211 0.930 . S
H1204 C1214 0.930 . S
H1205 C1215 0.930 . S
C1206 H1200 0.930 . S
C1206 C1207 1.355 . S
C1206 C1208 1.415 . S
C1207 C1206 1.355 . S
C1207 C1209 1.419 . S
C1208 C1206 1.415 . S
C1208 C1213 1.425 . S
C1208 C1215 1.409 . S
C1209 H1201 0.930 . S
C1209 C1207 1.419 . S
C1209 C1210 1.362 . S
C1210 H1202 0.930 . S
C1210 C1209 1.362 . S
C1210 C1213 1.409 . S
C1211 H1203 0.930 . S
C1211 C1212 1.355 . S
C1211 C1213 1.415 . S
C1212 C1211 1.355 . S
C1212 C1214 1.419 . S
C1213 C1208 1.425 . S
C1213 C1210 1.409 . S
C1213 C1211 1.415 . S
C1214 H1204 0.930 . S
C1214 C1212 1.419 . S
C1214 C1215 1.362 . S
C1215 H1205 0.930 . S
C1215 C1208 1.409 . S
C1215 C1214 1.362 . S
H1216 C1222 0.930 . S
H1217 C1225 0.930 . S
H1218 C1226 0.930 . S
H1219 C1227 0.930 . S
H1220 C1230 0.930 . S
H1221 C1231 0.930 . S
C1222 H1216 0.930 . S
C1222 C1223 1.355 . S
C1222 C1224 1.415 . S
C1223 C1222 1.355 . S
C1223 C1225 1.419 . S
C1224 C1222 1.415 . S
C1224 C1229 1.425 . S
C1224 C1231 1.409 . S
C1225 H1217 0.930 . S
C1225 C1223 1.419 . S
C1225 C1226 1.362 . S
C1226 H1218 0.930 . S
C1226 C1225 1.362 . S
C1226 C1229 1.409 . S
C1227 H1219 0.930 . S
C1227 C1228 1.355 . S
C1227 C1229 1.415 . S
C1228 C1227 1.355 . S
C1228 C1230 1.419 . S
C1229 C1224 1.425 . S
C1229 C1226 1.409 . S
C1229 C1227 1.415 . S
C1230 H1220 0.930 . S
C1230 C1228 1.419 . S
C1230 C1231 1.362 . S
C1231 H1221 0.930 . S
C1231 C1224 1.409 . S
C1231 C1230 1.362 . S
H1232 C1238 0.930 . S
H1233 C1241 0.930 . S
H1234 C1242 0.930 . S
H1235 C1243 0.930 . S
H1236 C1246 0.930 . S
H1237 C1247 0.930 . S
C1238 H1232 0.930 . S
C1238 C1239 1.355 . S
C1238 C1240 1.415 . S
C1239 C1238 1.355 . S
C1239 C1241 1.419 . S
C1240 C1238 1.415 . S
C1240 C1245 1.425 . S
C1240 C1247 1.409 . S
C1241 H1233 0.930 . S
C1241 C1239 1.419 . S
C1241 C1242 1.362 . S
C1242 H1234 0.930 . S
C1242 C1241 1.362 . S
C1242 C1245 1.409 . S
C1243 H1235 0.930 . S
C1243 C1244 1.355 . S
C1243 C1245 1.415 . S
C1244 C1243 1.355 . S
C1244 C1246 1.419 . S
C1245 C1240 1.425 . S
C1245 C1242 1.409 . S
C1245 C1243 1.415 . S
C1246 H1236 0.930 . S
C1246 C1244 1.419 . S
C1246 C1247 1.362 . S
C1247 H1237 0.930 . S
C1247 C1240 1.409 . S
C1247 C1246 1.362 . S
H1248 C1254 0.930 . S
H1249 C1257 0.930 . S
H1250 C1258 0.930 . S
H1251 C1259 0.930 . S
H1252 C1262 0.930 . S
H1253 C1263 0.930 . S
C1254 H1248 0.930 . S
C1254 C1255 1.355 . S
C1254 C1256 1.415 . S
C1255 C1254 1.355 . S
C1255 C1257 1.419 . S
C1256 C1254 1.415 . S
C1256 C1261 1.425 . S
C1256 C1263 1.409 . S
C1257 H1249 0.930 . S
C1257 C1255 1.419 . S
C1257 C1258 1.362 . S
C1258 H1250 0.930 . S
C1258 C1257 1.362 . S
C1258 C1261 1.409 . S
C1259 H1251 0.930 . S
C1259 C1260 1.355 . S
C1259 C1261 1.415 . S
C1260 C1259 1.355 . S
C1260 C1262 1.419 . S
C1261 C1256 1.425 . S
C1261 C1258 1.409 . S
C1261 C1259 1.415 . S
C1262 H1252 0.930 . S
C1262 C1260 1.419 . S
C1262 C1263 1.362 . S
C1263 H1253 0.930 . S
C1263 C1256 1.409 . S
C1263 C1262 1.362 . S
H1264 C1270 0.930 . S
H1265 C1273 0.930 . S
H1266 C1274 0.930 . S
H1267 C1275 0.930 . S
H1268 C1278 0.930 . S
H1269 C1279 0.930 . S
C1270 H1264 0.930 . S
C1270 C1271 1.355 . S
C1270 C1272 1.415 . S
C1271 C1270 1.355 . S
C1271 C1273 1.419 1_556 S
C1272 C1270 1.415 . S
C1272 C1277 1.425 1_556 S
C1272 C1279 1.409 . S
C1273 H1265 0.930 . S
C1273 C1271 1.419 1_554 S
C1273 C1274 1.362 . S
C1274 H1266 0.930 . S
C1274 C1273 1.362 . S
C1274 C1277 1.409 . S
C1275 H1267 0.930 . S
C1275 C1276 1.355 . S
C1275 C1277 1.415 . S
C1276 C1275 1.355 . S
C1276 C1278 1.419 . S
C1277 C1272 1.425 1_554 S
C1277 C1274 1.409 . S
C1277 C1275 1.415 . S
C1278 H1268 0.930 . S
C1278 C1276 1.419 . S
C1278 C1279 1.362 1_554 S
C1279 H1269 0.930 . S
C1279 C1272 1.409 . S
C1279 C1278 1.362 1_556 S
H1280 C1286 0.930 . S
H1281 C1289 0.930 . S
H1282 C1290 0.930 . S
H1283 C1291 0.930 . S
H1284 C1294 0.930 . S
H1285 C1295 0.930 . S
C1286 H1280 0.930 . S
C1286 C1287 1.355 . S
C1286 C1288 1.415 . S
C1287 C1286 1.355 . S
C1287 C1289 1.419 . S
C1288 C1286 1.415 . S
C1288 C1293 1.425 . S
C1288 C1295 1.409 . S
C1289 H1281 0.930 . S
C1289 C1287 1.419 . S
C1289 C1290 1.362 . S
C1290 H1282 0.930 . S
C1290 C1289 1.362 . S
C1290 C1293 1.409 . S
C1291 H1283 0.930 . S
C1291 C1292 1.355 . S
C1291 C1293 1.415 . S
C1292 C1291 1.355 . S
C1292 C1294 1.419 . S
C1293 C1288 1.425 . S
C1293 C1290 1.409 . S
C1293 C1291 1.415 . S
C1294 H1284 0.930 . S
C1294 C1292 1.419 . S
C1294 C1295 1.362 . S
C1295 H1285 0.930 . S
C1295 C1288 1.409 . S
C1295 C1294 1.362 . S
H1296 C1302 0.930 . S
H1297 C1305 0.930 . S
H1298 C1306 0.930 . S
H1299 C1307 0.930 . S
H1300 C1310 0.930 . S
H1301 C1311 0.930 . S
C1302 H1296 0.930 . S
C1302 C1303 1.355 . S
C1302 C1304 1.415 . S
C1303 C1302 1.355 . S
C1303 C1305 1.419 . S
C1304 C1302 1.415 . S
C1304 C1309 1.425 . S
C1304 C1311 1.409 . S
C1305 H1297 0.930 . S
C1305 C1303 1.419 . S
C1305 C1306 1.362 . S
C1306 H1298 0.930 . S
C1306 C1305 1.362 . S
C1306 C1309 1.409 . S
C1307 H1299 0.930 . S
C1307 C1308 1.355 . S
C1307 C1309 1.415 . S
C1308 C1307 1.355 . S
C1308 C1310 1.419 . S
C1309 C1304 1.425 . S
C1309 C1306 1.409 . S
C1309 C1307 1.415 . S
C1310 H1300 0.930 . S
C1310 C1308 1.419 . S
C1310 C1311 1.362 . S
C1311 H1301 0.930 . S
C1311 C1304 1.409 . S
C1311 C1310 1.362 . S
H1312 C1318 0.930 . S
H1313 C1321 0.930 . S
H1314 C1322 0.930 . S
H1315 C1323 0.930 . S
H1316 C1326 0.930 . S
H1317 C1327 0.930 . S
C1318 H1312 0.930 . S
C1318 C1319 1.355 . S
C1318 C1320 1.415 . S
C1319 C1318 1.355 . S
C1319 C1321 1.419 . S
C1320 C1318 1.415 . S
C1320 C1325 1.425 . S
C1320 C1327 1.409 . S
C1321 H1313 0.930 . S
C1321 C1319 1.419 . S
C1321 C1322 1.362 . S
C1322 H1314 0.930 . S
C1322 C1321 1.362 . S
C1322 C1325 1.409 . S
C1323 H1315 0.930 . S
C1323 C1324 1.355 . S
C1323 C1325 1.415 . S
C1324 C1323 1.355 . S
C1324 C1326 1.419 . S
C1325 C1320 1.425 . S
C1325 C1322 1.409 . S
C1325 C1323 1.415 . S
C1326 H1316 0.930 . S
C1326 C1324 1.419 . S
C1326 C1327 1.362 . S
C1327 H1317 0.930 . S
C1327 C1320 1.409 . S
C1327 C1326 1.362 . S
H1328 C1334 0.930 . S
H1329 C1337 0.930 . S
H1330 C1338 0.930 . S
H1331 C1339 0.930 . S
H1332 C1342 0.930 . S
H1333 C1343 0.930 . S
C1334 H1328 0.930 . S
C1334 C1335 1.355 . S
C1334 C1336 1.415 . S
C1335 C1334 1.355 . S
C1335 C1337 1.419 . S
C1336 C1334 1.415 . S
C1336 C1341 1.425 . S
C1336 C1343 1.409 . S
C1337 H1329 0.930 . S
C1337 C1335 1.419 . S
C1337 C1338 1.362 . S
C1338 H1330 0.930 . S
C1338 C1337 1.362 . S
C1338 C1341 1.409 . S
C1339 H1331 0.930 . S
C1339 C1340 1.355 . S
C1339 C1341 1.415 . S
C1340 C1339 1.355 . S
C1340 C1342 1.419 . S
C1341 C1336 1.425 . S
C1341 C1338 1.409 . S
C1341 C1339 1.415 . S
C1342 H1332 0.930 . S
C1342 C1340 1.419 . S
C1342 C1343 1.362 . S
C1343 H1333 0.930 . S
C1343 C1336 1.409 . S
C1343 C1342 1.362 . S
H1344 C1350 0.930 . S
H1345 C1353 0.930 . S
H1346 C1354 0.930 . S
H1347 C1355 0.930 . S
H1348 C1358 0.930 . S
H1349 C1359 0.930 . S
C1350 H1344 0.930 . S
C1350 C1351 1.355 . S
C1350 C1352 1.415 . S
C1351 C1350 1.355 . S
C1351 C1353 1.419 . S
C1352 C1350 1.415 . S
C1352 C1357 1.425 . S
C1352 C1359 1.409 . S
C1353 H1345 0.930 . S
C1353 C1351 1.419 . S
C1353 C1354 1.362 . S
C1354 H1346 0.930 . S
C1354 C1353 1.362 . S
C1354 C1357 1.409 . S
C1355 H1347 0.930 . S
C1355 C1356 1.355 . S
C1355 C1357 1.415 . S
C1356 C1355 1.355 . S
C1356 C1358 1.419 . S
C1357 C1352 1.425 . S
C1357 C1354 1.409 . S
C1357 C1355 1.415 . S
C1358 H1348 0.930 . S
C1358 C1356 1.419 . S
C1358 C1359 1.362 . S
C1359 H1349 0.930 . S
C1359 C1352 1.409 . S
C1359 C1358 1.362 . S
H1360 C1366 0.930 . S
H1361 C1369 0.930 . S
H1362 C1370 0.930 . S
H1363 C1371 0.930 . S
H1364 C1374 0.930 . S
H1365 C1375 0.930 . S
C1366 H1360 0.930 . S
C1366 C1367 1.355 . S
C1366 C1368 1.415 . S
C1367 C1366 1.355 . S
C1367 C1369 1.419 . S
C1368 C1366 1.415 . S
C1368 C1373 1.425 . S
C1368 C1375 1.409 . S
C1369 H1361 0.930 . S
C1369 C1367 1.419 . S
C1369 C1370 1.362 . S
C1370 H1362 0.930 . S
C1370 C1369 1.362 . S
C1370 C1373 1.409 . S
C1371 H1363 0.930 . S
C1371 C1372 1.355 . S
C1371 C1373 1.415 . S
C1372 C1371 1.355 . S
C1372 C1374 1.419 . S
C1373 C1368 1.425 . S
C1373 C1370 1.409 . S
C1373 C1371 1.415 . S
C1374 H1364 0.930 . S
C1374 C1372 1.419 . S
C1374 C1375 1.362 . S
C1375 H1365 0.930 . S
C1375 C1368 1.409 . S
C1375 C1374 1.362 . S
H1376 C1382 0.930 . S
H1377 C1385 0.930 . S
H1378 C1386 0.930 . S
H1379 C1387 0.930 . S
H1380 C1390 0.930 . S
H1381 C1391 0.930 . S
C1382 H1376 0.930 . S
C1382 C1383 1.355 . S
C1382 C1384 1.415 . S
C1383 C1382 1.355 . S
C1383 C1385 1.419 . S
C1384 C1382 1.415 . S
C1384 C1389 1.425 . S
C1384 C1391 1.409 . S
C1385 H1377 0.930 . S
C1385 C1383 1.419 . S
C1385 C1386 1.362 . S
C1386 H1378 0.930 . S
C1386 C1385 1.362 . S
C1386 C1389 1.409 . S
C1387 H1379 0.930 . S
C1387 C1388 1.355 . S
C1387 C1389 1.415 . S
C1388 C1387 1.355 . S
C1388 C1390 1.419 . S
C1389 C1384 1.425 . S
C1389 C1386 1.409 . S
C1389 C1387 1.415 . S
C1390 H1380 0.930 . S
C1390 C1388 1.419 . S
C1390 C1391 1.362 . S
C1391 H1381 0.930 . S
C1391 C1384 1.409 . S
C1391 C1390 1.362 . S
H1392 C1398 0.930 . S
H1393 C1401 0.930 . S
H1394 C1402 0.930 . S
H1395 C1403 0.930 . S
H1396 C1406 0.930 . S
H1397 C1407 0.930 . S
C1398 H1392 0.930 . S
C1398 C1399 1.355 . S
C1398 C1400 1.415 . S
C1399 C1398 1.355 . S
C1399 C1401 1.419 . S
C1400 C1398 1.415 . S
C1400 C1405 1.425 . S
C1400 C1407 1.409 . S
C1401 H1393 0.930 . S
C1401 C1399 1.419 . S
C1401 C1402 1.362 . S
C1402 H1394 0.930 . S
C1402 C1401 1.362 . S
C1402 C1405 1.409 . S
C1403 H1395 0.930 . S
C1403 C1404 1.355 . S
C1403 C1405 1.415 . S
C1404 C1403 1.355 . S
C1404 C1406 1.419 . S
C1405 C1400 1.425 . S
C1405 C1402 1.409 . S
C1405 C1403 1.415 . S
C1406 H1396 0.930 . S
C1406 C1404 1.419 . S
C1406 C1407 1.362 . S
C1407 H1397 0.930 . S
C1407 C1400 1.409 . S
C1407 C1406 1.362 . S
H1408 C1414 0.930 . S
H1409 C1417 0.930 . S
H1410 C1418 0.930 . S
H1411 C1419 0.930 . S
H1412 C1422 0.930 . S
H1413 C1423 0.930 . S
C1414 H1408 0.930 . S
C1414 C1415 1.355 . S
C1414 C1416 1.415 . S
C1415 C1414 1.355 . S
C1415 C1417 1.419 . S
C1416 C1414 1.415 . S
C1416 C1421 1.425 . S
C1416 C1423 1.409 . S
C1417 H1409 0.930 . S
C1417 C1415 1.419 . S
C1417 C1418 1.362 . S
C1418 H1410 0.930 . S
C1418 C1417 1.362 . S
C1418 C1421 1.409 . S
C1419 H1411 0.930 . S
C1419 C1420 1.355 . S
C1419 C1421 1.415 . S
C1420 C1419 1.355 . S
C1420 C1422 1.419 . S
C1421 C1416 1.425 . S
C1421 C1418 1.409 . S
C1421 C1419 1.415 . S
C1422 H1412 0.930 . S
C1422 C1420 1.419 . S
C1422 C1423 1.362 . S
C1423 H1413 0.930 . S
C1423 C1416 1.409 . S
C1423 C1422 1.362 . S
H1424 C1430 0.930 . S
H1425 C1433 0.930 . S
H1426 C1434 0.930 . S
H1427 C1435 0.930 . S
H1428 C1438 0.930 . S
H1429 C1439 0.930 . S
C1430 H1424 0.930 . S
C1430 C1431 1.355 . S
C1430 C1432 1.415 . S
C1431 C1430 1.355 . S
C1431 C1433 1.419 . S
C1432 C1430 1.415 . S
C1432 C1437 1.425 . S
C1432 C1439 1.409 . S
C1433 H1425 0.930 . S
C1433 C1431 1.419 . S
C1433 C1434 1.362 . S
C1434 H1426 0.930 . S
C1434 C1433 1.362 . S
C1434 C1437 1.409 . S
C1435 H1427 0.930 . S
C1435 C1436 1.355 . S
C1435 C1437 1.415 . S
C1436 C1435 1.355 . S
C1436 C1438 1.419 . S
C1437 C1432 1.425 . S
C1437 C1434 1.409 . S
C1437 C1435 1.415 . S
C1438 H1428 0.930 . S
C1438 C1436 1.419 . S
C1438 C1439 1.362 . S
C1439 H1429 0.930 . S
C1439 C1432 1.409 . S
C1439 C1438 1.362 . S
C1063 C753 1.407 . S
C1068 C57 1.409 . S
C1079 C145 1.378 . S
C1084 C821 1.378 . S
C1095 C233 1.405 . S
C1100 C900 1.406 . S
C1111 C293 1.435 . S
C1116 C997 1.435 . S
C1127 C557 1.434 . S
C1132 C372 1.433 . S
C1143 C460 1.433 . S
C1148 C645 1.434 . S
C1159 C20 1.508 . S
C1164 C469 1.473 . S
C1175 C108 1.532 . S
C1180 C49 1.486 . S
C1191 C196 1.511 . S
C1196 C137 1.471 . S
C1207 C225 1.487 . S
C1212 C313 1.532 . S
C1223 C284 1.485 . S
C1228 C409 1.532 . S
C1239 C381 1.495 . S
C1244 C497 1.491 . S
C1255 C636 1.474 . S
C1260 C577 1.530 . S
C1271 C665 1.520 . S
C1276 C761 1.468 . S
C1287 C812 1.489 . S
C1292 C733 1.494 . S
C1303 C841 1.504 . S
C1308 C909 1.524 . S
C1319 C937 1.498 . S
C1324 C988 1.483 . S
C1335 C1017 1.501 . S
C1340 C548 1.525 . S
C1351 C929 1.165 . S
C1356 C29 1.179 . S
C1367 C1025 1.167 . S
C1372 C117 1.176 . S
C1383 C585 1.170 . S
C1388 C205 1.172 . S
C1399 C321 1.171 . S
C1404 C673 1.172 . S
C1415 C401 1.184 . S
C1420 C724 1.171 . S
C1431 C849 1.186 . S
C1436 C489 1.164 . S
